0:0
     RDKit          3D

 54 56  0  0  0  0  0  0  0  0999 V2000
   -6.0760   19.5600  -31.3300 O   0  0  0  0  0  0  0  0  0  0  0  0
   -6.3060   19.5580  -32.5710 C   0  0  0  0  0  0  0  0  0  0  0  0
   -5.1580   19.6930  -33.5270 C   0  0  0  0  0  0  0  0  0  0  0  0
   -4.5390   21.0150  -33.3990 N   0  0  0  0  0  0  0  0  0  0  0  0
   -3.5400   21.3630  -32.4180 C   0  0  0  0  0  0  0  0  0  0  0  0
   -3.7390   22.5240  -31.6490 C   0  0  0  0  0  0  0  0  0  0  0  0
   -2.8090   22.9140  -30.6780 C   0  0  0  0  0  0  0  0  0  0  0  0
   -3.0920   24.3820  -29.7430 S   0  0  0  0  0  0  0  0  0  0  0  0
   -3.9240   25.3250  -30.5660 O   0  0  0  0  0  0  0  0  0  0  0  0
   -3.8470   24.0600  -28.4830 O   0  0  0  0  0  0  0  0  0  0  0  0
   -1.5880   25.1630  -29.3390 N   0  0  0  0  0  0  0  0  0  0  0  0
   -1.6000   25.6820  -27.9680 C   0  0  0  0  0  0  0  0  0  0  0  0
   -1.1370   24.6380  -26.9860 C   0  0  0  0  0  0  0  0  0  0  0  0
   -0.9730   23.3010  -27.3890 C   0  0  0  0  0  0  0  0  0  0  0  0
   -0.5550   22.3360  -26.4670 C   0  0  0  0  0  0  0  0  0  0  0  0
   -0.2990   22.6960  -25.1420 C   0  0  0  0  0  0  0  0  0  0  0  0
   -0.4550   24.0260  -24.7350 C   0  0  0  0  0  0  0  0  0  0  0  0
   -0.8690   24.9960  -25.6540 C   0  0  0  0  0  0  0  0  0  0  0  0
   -1.6590   22.1480  -30.4740 C   0  0  0  0  0  0  0  0  0  0  0  0
   -1.4350   21.0030  -31.2390 C   0  0  0  0  0  0  0  0  0  0  0  0
   -2.3620   20.6060  -32.2110 C   0  0  0  0  0  0  0  0  0  0  0  0
   -2.0790   19.4730  -32.9610 O   0  0  0  0  0  0  0  0  0  0  0  0
   -7.6500   19.4450  -33.0610 N   0  0  0  0  0  0  0  0  0  0  0  0
   -8.8200   19.6880  -32.2170 C   0  0  0  0  0  0  0  0  0  0  0  0
   -9.2560   21.1550  -32.3010 C   0  0  0  0  0  0  0  0  0  0  0  0
   -8.2500   22.0760  -31.6570 C   0  0  0  0  0  0  0  0  0  0  0  0
   -7.9580   21.9650  -30.2850 C   0  0  0  0  0  0  0  0  0  0  0  0
   -7.0370   22.8310  -29.6870 C   0  0  0  0  0  0  0  0  0  0  0  0
   -6.4150   23.8230  -30.4500 C   0  0  0  0  0  0  0  0  0  0  0  0
   -6.7080   23.9470  -31.8110 C   0  0  0  0  0  0  0  0  0  0  0  0
   -7.6220   23.0780  -32.4150 C   0  0  0  0  0  0  0  0  0  0  0  0
   -4.4086   18.9189  -33.3050 H   0  0  0  0  0  0  0  0  0  0  0  0
   -5.5331   19.5727  -34.5541 H   0  0  0  0  0  0  0  0  0  0  0  0
   -4.9110   21.7880  -33.9950 H   0  0  0  0  0  0  0  0  0  0  0  0
   -4.6391   23.1347  -31.8131 H   0  0  0  0  0  0  0  0  0  0  0  0
   -0.9305   26.5528  -27.9082 H   0  0  0  0  0  0  0  0  0  0  0  0
   -2.6313   25.9672  -27.7127 H   0  0  0  0  0  0  0  0  0  0  0  0
   -1.1739   23.0134  -28.4316 H   0  0  0  0  0  0  0  0  0  0  0  0
   -0.4276   21.2910  -26.7861 H   0  0  0  0  0  0  0  0  0  0  0  0
    0.0253   21.9339  -24.4181 H   0  0  0  0  0  0  0  0  0  0  0  0
   -0.2519   24.3088  -23.6916 H   0  0  0  0  0  0  0  0  0  0  0  0
   -0.9850   26.0417  -25.3330 H   0  0  0  0  0  0  0  0  0  0  0  0
   -0.9283   22.4482  -29.7085 H   0  0  0  0  0  0  0  0  0  0  0  0
   -0.5240   20.4079  -31.0777 H   0  0  0  0  0  0  0  0  0  0  0  0
   -7.8090   19.3380  -34.0890 H   0  0  0  0  0  0  0  0  0  0  0  0
   -9.6473   19.0460  -32.5538 H   0  0  0  0  0  0  0  0  0  0  0  0
   -8.5567   19.4574  -31.1742 H   0  0  0  0  0  0  0  0  0  0  0  0
   -9.3672   21.4334  -33.3594 H   0  0  0  0  0  0  0  0  0  0  0  0
  -10.2094   21.2598  -31.7624 H   0  0  0  0  0  0  0  0  0  0  0  0
   -8.4565   21.1934  -29.6799 H   0  0  0  0  0  0  0  0  0  0  0  0
   -6.8023   22.7314  -28.6169 H   0  0  0  0  0  0  0  0  0  0  0  0
   -5.6939   24.5071  -29.9788 H   0  0  0  0  0  0  0  0  0  0  0  0
   -6.2184   24.7301  -32.4085 H   0  0  0  0  0  0  0  0  0  0  0  0
   -7.8497   23.1794  -33.4864 H   0  0  0  0  0  0  0  0  0  0  0  0
  1  2  2  0
  2  3  1  0
  3  4  1  0
  4  5  1  0
  5  6  2  0
  6  7  1  0
  7  8  1  0
  8  9  2  0
  8 10  2  0
  8 11  1  0
 11 12  1  0
 12 13  1  0
 13 14  2  0
 14 15  1  0
 15 16  2  0
 16 17  1  0
 17 18  2  0
  7 19  2  0
 19 20  1  0
 20 21  2  0
 21 22  1  0
  2 23  1  0
 23 24  1  0
 24 25  1  0
 25 26  1  0
 26 27  2  0
 27 28  1  0
 28 29  2  0
 29 30  1  0
 30 31  2  0
 21  5  1  0
 31 26  1  0
 18 13  1  0
  3 32  1  0
  3 33  1  0
  4 34  1  0
  6 35  1  0
 12 36  1  0
 12 37  1  0
 14 38  1  0
 15 39  1  0
 16 40  1  0
 17 41  1  0
 18 42  1  0
 19 43  1  0
 20 44  1  0
 23 45  1  0
 24 46  1  0
 24 47  1  0
 25 48  1  0
 25 49  1  0
 27 50  1  0
 28 51  1  0
 29 52  1  0
 30 53  1  0
 31 54  1  0
M  CHG  2  11  -1  22  -1
M  END
>  <UniqueID>  (1) 
1

>  <SMILES>  (1) 
O=C(CNc1cc(S(=O)(=O)[N-]Cc2ccccc2)ccc1[O-])NCCc1ccccc1

>  <Energy>  (1) 
50.43710266346685

>  <Genealogy>  (1) 
O=C(CNc1cc(S(=O)(=O)[N-]Cc2ccccc2)ccc1[O-])NCCc1ccccc1 (protonated)
O=C(CNc1cc(S(=O)(=O)[N-]Cc2ccccc2)ccc1[O-])NCCc1ccccc1 (3D coordinates assigned)
O=C(CNc1cc(S(=O)(=O)[N-]Cc2ccccc2)ccc1[O-])NCCc1ccccc1 (optimized conformer: 50.43710266346685 kcal/mol)

>  <smiles>  (1) 
O=C(CNc1cc(S(=O)(=O)NCc2ccccc2)ccc1O)NCCc1ccccc1

>  <score_type>  (1) 
oracle

>  <origin>  (1) 
adgpu

>  <m_score__min__energy>  (1) 
-12.82

>  <m_primary>  (1) 
energy

$$$$
1:0
     RDKit          3D

 45 47  0  0  0  0  0  0  0  0999 V2000
   -1.0270   22.4650  -26.9840 C   0  0  0  0  0  0  0  0  0  0  0  0
   -2.1990   22.9150  -27.8050 C   0  0  0  0  0  0  0  0  0  0  0  0
   -2.0110   23.7900  -28.8860 C   0  0  0  0  0  0  0  0  0  0  0  0
   -3.0950   24.1780  -29.6770 C   0  0  0  0  0  0  0  0  0  0  0  0
   -4.3790   23.6810  -29.4090 C   0  0  0  0  0  0  0  0  0  0  0  0
   -5.7410   24.1540  -30.4170 S   0  0  0  0  0  0  0  0  0  0  0  0
   -5.2290   24.9570  -31.5810 O   0  0  0  0  0  0  0  0  0  0  0  0
   -6.6960   25.0120  -29.6340 O   0  0  0  0  0  0  0  0  0  0  0  0
   -6.6020   22.7240  -31.0060 C   0  0  0  0  0  0  0  0  0  0  0  0
   -8.0010   22.6890  -30.9350 C   0  0  0  0  0  0  0  0  0  0  0  0
   -8.7000   21.5590  -31.3560 C   0  0  0  0  0  0  0  0  0  0  0  0
   -7.9930   20.4570  -31.8440 C   0  0  0  0  0  0  0  0  0  0  0  0
   -8.7190   19.2360  -32.3100 C   0  0  0  0  0  0  0  0  0  0  0  0
   -6.6360   20.5100  -31.9230 N   0  0  0  0  0  0  0  0  0  0  0  0
   -5.9250   21.6020  -31.5310 C   0  0  0  0  0  0  0  0  0  0  0  0
   -4.4980   21.5780  -31.6590 N   0  0  0  0  0  0  0  0  0  0  0  0
   -3.8540   22.1670  -32.8390 C   0  0  0  0  0  0  0  0  0  0  0  0
   -2.8970   21.1490  -33.4660 C   0  0  0  0  0  0  0  0  0  0  0  0
   -1.8820   20.5770  -32.4500 C   0  0  0  0  0  0  0  0  0  0  0  0
   -2.2120   20.9050  -30.9830 C   0  0  0  0  0  0  0  0  0  0  0  0
   -3.7150   20.7860  -30.7030 C   0  0  0  0  0  0  0  0  0  0  0  0
   -4.5670   22.8020  -28.3330 C   0  0  0  0  0  0  0  0  0  0  0  0
   -3.4820   22.4130  -27.5420 C   0  0  0  0  0  0  0  0  0  0  0  0
   -1.2704   22.5585  -25.9154 H   0  0  0  0  0  0  0  0  0  0  0  0
   -0.7975   21.4148  -27.2173 H   0  0  0  0  0  0  0  0  0  0  0  0
   -0.1536   23.0917  -27.2173 H   0  0  0  0  0  0  0  0  0  0  0  0
   -1.0046   24.1724  -29.1116 H   0  0  0  0  0  0  0  0  0  0  0  0
   -2.9411   24.8759  -30.5132 H   0  0  0  0  0  0  0  0  0  0  0  0
   -8.5507   23.5582  -30.5448 H   0  0  0  0  0  0  0  0  0  0  0  0
   -9.7985   21.5350  -31.3045 H   0  0  0  0  0  0  0  0  0  0  0  0
   -9.0623   18.6587  -31.4389 H   0  0  0  0  0  0  0  0  0  0  0  0
   -9.5864   19.5345  -32.9170 H   0  0  0  0  0  0  0  0  0  0  0  0
   -8.0425   18.6164  -32.9170 H   0  0  0  0  0  0  0  0  0  0  0  0
   -4.6231   22.4469  -33.5740 H   0  0  0  0  0  0  0  0  0  0  0  0
   -3.2887   23.0612  -32.5376 H   0  0  0  0  0  0  0  0  0  0  0  0
   -3.4883   20.3180  -33.8780 H   0  0  0  0  0  0  0  0  0  0  0  0
   -2.3252   21.6697  -34.2482 H   0  0  0  0  0  0  0  0  0  0  0  0
   -1.8586   19.4831  -32.5630 H   0  0  0  0  0  0  0  0  0  0  0  0
   -0.9120   21.0465  -32.6706 H   0  0  0  0  0  0  0  0  0  0  0  0
   -1.6706   20.2047  -30.3300 H   0  0  0  0  0  0  0  0  0  0  0  0
   -1.9059   21.9428  -30.7849 H   0  0  0  0  0  0  0  0  0  0  0  0
   -4.0124   19.7300  -30.7836 H   0  0  0  0  0  0  0  0  0  0  0  0
   -3.9118   21.1685  -29.6906 H   0  0  0  0  0  0  0  0  0  0  0  0
   -5.5729   22.4167  -28.1102 H   0  0  0  0  0  0  0  0  0  0  0  0
   -3.6351   21.7102  -26.7098 H   0  0  0  0  0  0  0  0  0  0  0  0
  1  2  1  0
  2  3  2  0
  3  4  1  0
  4  5  2  0
  5  6  1  0
  6  7  2  0
  6  8  2  0
  6  9  1  0
  9 10  2  0
 10 11  1  0
 11 12  2  0
 12 13  1  0
 12 14  1  0
 14 15  2  0
 15 16  1  0
 16 17  1  0
 17 18  1  0
 18 19  1  0
 19 20  1  0
 20 21  1  0
  5 22  1  0
 22 23  2  0
 23  2  1  0
 15  9  1  0
 21 16  1  0
  1 24  1  0
  1 25  1  0
  1 26  1  0
  3 27  1  0
  4 28  1  0
 10 29  1  0
 11 30  1  0
 13 31  1  0
 13 32  1  0
 13 33  1  0
 17 34  1  0
 17 35  1  0
 18 36  1  0
 18 37  1  0
 19 38  1  0
 19 39  1  0
 20 40  1  0
 20 41  1  0
 21 42  1  0
 21 43  1  0
 22 44  1  0
 23 45  1  0
M  END
>  <UniqueID>  (2) 
2

>  <SMILES>  (2) 
Cc1ccc(S(=O)(=O)c2ccc(C)nc2N2CCCCC2)cc1

>  <Energy>  (2) 
51.71450900131509

>  <Genealogy>  (2) 
Cc1ccc(S(=O)(=O)c2ccc(C)nc2N2CCCCC2)cc1 (3D coordinates assigned)
Cc1ccc(S(=O)(=O)c2ccc(C)nc2N2CCCCC2)cc1 (nonaromatic ring conformer: 51.71450900131509 kcal/mol)

>  <smiles>  (2) 
Cc1ccc(S(=O)(=O)c2ccc(C)nc2N2CCCCC2)cc1

>  <score_type>  (2) 
oracle

>  <origin>  (2) 
adgpu

>  <m_score__min__energy>  (2) 
-8.3000000000000007

>  <m_primary>  (2) 
energy

$$$$
2:0
     RDKit          3D

 48 50  0  0  0  0  0  0  0  0999 V2000
   -1.2060   26.2010  -29.3230 O   0  0  0  0  0  0  0  0  0  0  0  0
   -1.8620   25.2500  -28.8220 C   0  0  0  0  0  0  0  0  0  0  0  0
   -3.0650   24.8810  -29.4110 O   0  0  0  0  0  0  0  0  0  0  0  0
   -1.3420   24.4970  -27.6530 C   0  0  0  0  0  0  0  0  0  0  0  0
   -0.7100   25.2200  -26.6230 C   0  0  0  0  0  0  0  0  0  0  0  0
   -0.2870   24.5810  -25.4570 C   0  0  0  0  0  0  0  0  0  0  0  0
   -0.4860   23.2110  -25.2980 C   0  0  0  0  0  0  0  0  0  0  0  0
   -1.0920   22.4710  -26.3140 C   0  0  0  0  0  0  0  0  0  0  0  0
   -1.5050   23.0920  -27.5050 C   0  0  0  0  0  0  0  0  0  0  0  0
   -2.0530   22.2340  -28.5760 C   0  0  0  0  0  0  0  0  0  0  0  0
   -2.6470   21.1670  -28.2610 O   0  0  0  0  0  0  0  0  0  0  0  0
   -1.8940   22.6040  -29.9560 N   0  0  0  0  0  0  0  0  0  0  0  0
   -2.3480   21.8080  -31.0620 C   0  0  0  0  0  0  0  0  0  0  0  0
   -3.3460   22.2680  -31.9380 C   0  0  0  0  0  0  0  0  0  0  0  0
   -3.7870   21.4610  -32.9920 C   0  0  0  0  0  0  0  0  0  0  0  0
   -3.2550   20.1810  -33.1810 C   0  0  0  0  0  0  0  0  0  0  0  0
   -3.7340   19.4180  -34.2580 O   0  0  0  0  0  0  0  0  0  0  0  0
   -4.6990   18.3690  -34.1690 C   0  0  0  0  0  0  0  0  0  0  0  0
   -6.1200   18.9350  -34.2650 C   0  0  0  0  0  0  0  0  0  0  0  0
   -6.9100   18.6590  -32.9820 C   0  0  0  0  0  0  0  0  0  0  0  0
   -7.6180   19.9050  -32.5200 C   0  0  0  0  0  0  0  0  0  0  0  0
   -6.8970   21.0930  -32.3100 C   0  0  0  0  0  0  0  0  0  0  0  0
   -7.5600   22.2580  -31.9140 C   0  0  0  0  0  0  0  0  0  0  0  0
   -8.9460   22.2490  -31.7340 C   0  0  0  0  0  0  0  0  0  0  0  0
   -9.6720   21.0760  -31.9560 C   0  0  0  0  0  0  0  0  0  0  0  0
   -9.0120   19.9070  -32.3520 C   0  0  0  0  0  0  0  0  0  0  0  0
   -2.2680   19.7120  -32.2930 C   0  0  0  0  0  0  0  0  0  0  0  0
   -1.8290   20.5190  -31.2370 C   0  0  0  0  0  0  0  0  0  0  0  0
   -0.5478   26.3018  -26.7391 H   0  0  0  0  0  0  0  0  0  0  0  0
    0.2047   25.1600  -24.6614 H   0  0  0  0  0  0  0  0  0  0  0  0
   -0.1653   22.7127  -24.3713 H   0  0  0  0  0  0  0  0  0  0  0  0
   -1.2481   21.3903  -26.1812 H   0  0  0  0  0  0  0  0  0  0  0  0
   -1.4960   23.5470  -30.1700 H   0  0  0  0  0  0  0  0  0  0  0  0
   -3.7824   23.2674  -31.7941 H   0  0  0  0  0  0  0  0  0  0  0  0
   -4.5597   21.8365  -33.6790 H   0  0  0  0  0  0  0  0  0  0  0  0
   -4.5367   17.6575  -34.9920 H   0  0  0  0  0  0  0  0  0  0  0  0
   -4.5836   17.8617  -33.1998 H   0  0  0  0  0  0  0  0  0  0  0  0
   -6.0640   20.0217  -34.4259 H   0  0  0  0  0  0  0  0  0  0  0  0
   -6.6352   18.4464  -35.1051 H   0  0  0  0  0  0  0  0  0  0  0  0
   -7.6530   17.8716  -33.1768 H   0  0  0  0  0  0  0  0  0  0  0  0
   -6.2111   18.3352  -32.1967 H   0  0  0  0  0  0  0  0  0  0  0  0
   -5.8071   21.1060  -32.4578 H   0  0  0  0  0  0  0  0  0  0  0  0
   -6.9901   23.1833  -31.7438 H   0  0  0  0  0  0  0  0  0  0  0  0
   -9.4654   23.1656  -31.4175 H   0  0  0  0  0  0  0  0  0  0  0  0
  -10.7635   21.0713  -31.8194 H   0  0  0  0  0  0  0  0  0  0  0  0
   -9.5872   18.9869  -32.5322 H   0  0  0  0  0  0  0  0  0  0  0  0
   -1.8404   18.7078  -32.4297 H   0  0  0  0  0  0  0  0  0  0  0  0
   -1.0697   20.1375  -30.5384 H   0  0  0  0  0  0  0  0  0  0  0  0
  1  2  2  0
  2  3  1  0
  2  4  1  0
  4  5  2  0
  5  6  1  0
  6  7  2  0
  7  8  1  0
  8  9  2  0
  9 10  1  0
 10 11  2  0
 10 12  1  0
 12 13  1  0
 13 14  2  0
 14 15  1  0
 15 16  2  0
 16 17  1  0
 17 18  1  0
 18 19  1  0
 19 20  1  0
 20 21  1  0
 21 22  2  0
 22 23  1  0
 23 24  2  0
 24 25  1  0
 25 26  2  0
 16 27  1  0
 27 28  2  0
  9  4  1  0
 28 13  1  0
 26 21  1  0
  5 29  1  0
  6 30  1  0
  7 31  1  0
  8 32  1  0
 12 33  1  0
 14 34  1  0
 15 35  1  0
 18 36  1  0
 18 37  1  0
 19 38  1  0
 19 39  1  0
 20 40  1  0
 20 41  1  0
 22 42  1  0
 23 43  1  0
 24 44  1  0
 25 45  1  0
 26 46  1  0
 27 47  1  0
 28 48  1  0
M  CHG  1   3  -1
M  END
>  <UniqueID>  (3) 
3

>  <SMILES>  (3) 
O=C([O-])c1ccccc1C(=O)Nc1ccc(OCCCc2ccccc2)cc1

>  <Energy>  (3) 
59.737224786046696

>  <Genealogy>  (3) 
O=C([O-])c1ccccc1C(=O)Nc1ccc(OCCCc2ccccc2)cc1 (protonated)
O=C([O-])c1ccccc1C(=O)Nc1ccc(OCCCc2ccccc2)cc1 (3D coordinates assigned)
O=C([O-])c1ccccc1C(=O)Nc1ccc(OCCCc2ccccc2)cc1 (optimized conformer: 59.737224786046696 kcal/mol)

>  <smiles>  (3) 
O=C(O)c1ccccc1C(=O)Nc1ccc(OCCCc2ccccc2)cc1

>  <score_type>  (3) 
oracle

>  <origin>  (3) 
adgpu

>  <m_score__min__energy>  (3) 
-11.07

>  <m_primary>  (3) 
energy

$$$$
3:0
     RDKit          3D

 66 70  0  0  0  0  0  0  0  0999 V2000
    1.6220   15.0550  -27.0260 C   0  0  0  0  0  0  0  0  0  0  0  0
    1.1070   16.3480  -27.5070 N   0  0  0  0  0  0  0  0  0  0  0  0
    2.1760   17.3680  -27.4840 C   0  0  0  0  0  0  0  0  0  0  0  0
    1.5870   18.7600  -27.7550 C   0  0  0  0  0  0  0  0  0  0  0  0
    0.4680   18.6750  -28.7010 N   0  0  0  0  0  0  0  0  0  0  0  0
   -0.4550   19.7720  -28.8240 C   0  0  0  0  0  0  0  0  0  0  0  0
   -0.8950   20.1840  -30.0900 C   0  0  0  0  0  0  0  0  0  0  0  0
   -1.8120   21.2520  -30.2390 C   0  0  0  0  0  0  0  0  0  0  0  0
   -2.2720   21.9110  -29.0690 C   0  0  0  0  0  0  0  0  0  0  0  0
   -1.8090   21.5000  -27.8040 C   0  0  0  0  0  0  0  0  0  0  0  0
   -0.9110   20.4420  -27.6840 C   0  0  0  0  0  0  0  0  0  0  0  0
   -0.4610   20.0890  -26.4530 F   0  0  0  0  0  0  0  0  0  0  0  0
   -3.1900   22.9700  -29.1870 C   0  0  0  0  0  0  0  0  0  0  0  0
   -3.5930   23.5730  -28.1530 O   0  0  0  0  0  0  0  0  0  0  0  0
   -3.6490   23.3630  -30.4560 C   0  0  0  0  0  0  0  0  0  0  0  0
   -4.6380   24.4620  -30.6280 C   0  0  0  0  0  0  0  0  0  0  0  0
   -4.2450   25.6550  -30.7390 O   0  0  0  0  0  0  0  0  0  0  0  0
   -6.0430   24.1690  -30.6010 N   0  0  0  0  0  0  0  0  0  0  0  0
   -6.6860   22.9710  -31.0620 C   0  0  0  0  0  0  0  0  0  0  0  0
   -7.7540   22.3760  -30.3680 C   0  0  0  0  0  0  0  0  0  0  0  0
   -8.3570   21.2140  -30.8600 C   0  0  0  0  0  0  0  0  0  0  0  0
   -7.9150   20.6400  -32.0680 C   0  0  0  0  0  0  0  0  0  0  0  0
   -8.4820   19.4740  -32.6060 O   0  0  0  0  0  0  0  0  0  0  0  0
   -8.3360   18.1610  -32.0660 C   0  0  0  0  0  0  0  0  0  0  0  0
   -9.5590   17.6860  -31.6270 F   0  0  0  0  0  0  0  0  0  0  0  0
   -7.4330   18.1770  -31.0180 F   0  0  0  0  0  0  0  0  0  0  0  0
   -7.8600   17.3200  -33.0530 F   0  0  0  0  0  0  0  0  0  0  0  0
   -6.8730   21.2540  -32.7700 C   0  0  0  0  0  0  0  0  0  0  0  0
   -6.2670   22.4130  -32.2750 C   0  0  0  0  0  0  0  0  0  0  0  0
   -3.1610   22.6890  -31.5840 C   0  0  0  0  0  0  0  0  0  0  0  0
   -2.2660   21.6570  -31.4790 N   0  0  0  0  0  0  0  0  0  0  0  0
   -1.8470   20.9920  -32.7320 C   0  0  0  0  0  0  0  0  0  0  0  0
   -2.7980   19.8790  -33.1040 C   0  0  0  0  0  0  0  0  0  0  0  0
   -2.4630   18.9600  -34.1130 C   0  0  0  0  0  0  0  0  0  0  0  0
   -3.3420   17.9270  -34.4480 C   0  0  0  0  0  0  0  0  0  0  0  0
   -4.5570   17.7930  -33.7710 C   0  0  0  0  0  0  0  0  0  0  0  0
   -5.4070   16.7880  -34.0970 F   0  0  0  0  0  0  0  0  0  0  0  0
   -4.8890   18.6870  -32.7500 C   0  0  0  0  0  0  0  0  0  0  0  0
   -4.0130   19.7230  -32.4130 C   0  0  0  0  0  0  0  0  0  0  0  0
    0.3980   17.5380  -29.6240 C   0  0  0  0  0  0  0  0  0  0  0  0
    0.5250   16.1990  -28.8660 C   0  0  0  0  0  0  0  0  0  0  0  0
    1.6249   15.0478  -25.9260 H   0  0  0  0  0  0  0  0  0  0  0  0
    0.9785   14.2433  -27.3963 H   0  0  0  0  0  0  0  0  0  0  0  0
    2.6473   14.9080  -27.3963 H   0  0  0  0  0  0  0  0  0  0  0  0
    0.3460   16.6440  -26.8500 H   0  0  0  0  0  0  0  0  0  0  0  0
    2.6604   17.3644  -26.4964 H   0  0  0  0  0  0  0  0  0  0  0  0
    2.9138   17.1323  -28.2651 H   0  0  0  0  0  0  0  0  0  0  0  0
    1.2278   19.1905  -26.8086 H   0  0  0  0  0  0  0  0  0  0  0  0
    2.3709   19.3968  -28.1909 H   0  0  0  0  0  0  0  0  0  0  0  0
   -0.5200   19.6668  -30.9855 H   0  0  0  0  0  0  0  0  0  0  0  0
   -2.1604   22.0203  -26.9008 H   0  0  0  0  0  0  0  0  0  0  0  0
   -8.1174   22.8269  -29.4328 H   0  0  0  0  0  0  0  0  0  0  0  0
   -9.1806   20.7460  -30.3008 H   0  0  0  0  0  0  0  0  0  0  0  0
   -6.5269   20.8213  -33.7203 H   0  0  0  0  0  0  0  0  0  0  0  0
   -5.4548   22.8897  -32.8434 H   0  0  0  0  0  0  0  0  0  0  0  0
   -3.5064   22.9974  -32.5818 H   0  0  0  0  0  0  0  0  0  0  0  0
   -1.8286   21.7344  -33.5434 H   0  0  0  0  0  0  0  0  0  0  0  0
   -0.8472   20.5595  -32.5793 H   0  0  0  0  0  0  0  0  0  0  0  0
   -1.5032   19.0545  -34.6421 H   0  0  0  0  0  0  0  0  0  0  0  0
   -3.0771   17.2179  -35.2461 H   0  0  0  0  0  0  0  0  0  0  0  0
   -5.8411   18.5755  -32.2105 H   0  0  0  0  0  0  0  0  0  0  0  0
   -4.2753   20.4198  -31.6032 H   0  0  0  0  0  0  0  0  0  0  0  0
   -0.5670   17.5622  -30.1515 H   0  0  0  0  0  0  0  0  0  0  0  0
    1.2308   17.6158  -30.3384 H   0  0  0  0  0  0  0  0  0  0  0  0
   -0.4769   15.7551  -28.7704 H   0  0  0  0  0  0  0  0  0  0  0  0
    1.2071   15.5592  -29.4451 H   0  0  0  0  0  0  0  0  0  0  0  0
  1  2  1  0
  2  3  1  0
  3  4  1  0
  4  5  1  0
  5  6  1  0
  6  7  2  0
  7  8  1  0
  8  9  2  0
  9 10  1  0
 10 11  2  0
 11 12  1  0
  9 13  1  0
 13 14  2  0
 13 15  1  0
 15 16  1  0
 16 17  2  0
 16 18  1  0
 18 19  1  0
 19 20  2  0
 20 21  1  0
 21 22  2  0
 22 23  1  0
 23 24  1  0
 24 25  1  0
 24 26  1  0
 24 27  1  0
 22 28  1  0
 28 29  2  0
 15 30  2  0
 30 31  1  0
 31 32  1  0
 32 33  1  0
 33 34  2  0
 34 35  1  0
 35 36  2  0
 36 37  1  0
 36 38  1  0
 38 39  2  0
  5 40  1  0
 40 41  1  0
 41  2  1  0
 11  6  1  0
 29 19  1  0
 39 33  1  0
 31  8  1  0
  1 42  1  0
  1 43  1  0
  1 44  1  0
  2 45  1  0
  3 46  1  0
  3 47  1  0
  4 48  1  0
  4 49  1  0
  7 50  1  0
 10 51  1  0
 20 52  1  0
 21 53  1  0
 28 54  1  0
 29 55  1  0
 30 56  1  0
 32 57  1  0
 32 58  1  0
 34 59  1  0
 35 60  1  0
 38 61  1  0
 39 62  1  0
 40 63  1  0
 40 64  1  0
 41 65  1  0
 41 66  1  0
M  CHG  2   2   1  18  -1
M  END
>  <UniqueID>  (4) 
4

>  <SMILES>  (4) 
C[NH+]1CCN(c2cc3c(cc2F)c(=O)c(C(=O)[N-]c2ccc(OC(F)(F)F)cc2)cn3Cc2ccc(F)cc2)CC1

>  <Energy>  (4) 
97.39769707696023

>  <Genealogy>  (4) 
C[NH+]1CCN(c2cc3c(cc2F)c(=O)c(C(=O)[N-]c2ccc(OC(F)(F)F)cc2)cn3Cc2ccc(F)cc2)CC1 (protonated)
C[NH+]1CCN(c2cc3c(cc2F)c(=O)c(C(=O)[N-]c2ccc(OC(F)(F)F)cc2)cn3Cc2ccc(F)cc2)CC1 (3D coordinates assigned)
C[NH+]1CCN(c2cc3c(cc2F)c(=O)c(C(=O)[N-]c2ccc(OC(F)(F)F)cc2)cn3Cc2ccc(F)cc2)CC1 (nonaromatic ring conformer: 97.39769707696023 kcal/mol)

>  <smiles>  (4) 
CN1CCN(c2cc3c(cc2F)c(=O)c(C(=O)Nc2ccc(OC(F)(F)F)cc2)cn3Cc2ccc(F)cc2)CC1

>  <score_type>  (4) 
oracle

>  <origin>  (4) 
adgpu

>  <m_score__min__energy>  (4) 
-9.9199999999999999

>  <m_primary>  (4) 
energy

$$$$
4:0
     RDKit          3D

 32 34  0  0  0  0  0  0  0  0999 V2000
   -7.8450   18.3210  -33.5290 H   0  0  0  0  0  0  0  0  0  0  0  0
   -6.8790   18.0790  -33.8470 N   0  0  0  0  0  0  0  0  0  0  0  0
   -5.8800   18.8720  -33.6350 C   0  0  0  0  0  0  0  0  0  0  0  0
   -6.0660   20.0530  -32.9870 N   0  0  0  0  0  0  0  0  0  0  0  0
   -5.0280   20.9010  -32.7450 C   0  0  0  0  0  0  0  0  0  0  0  0
   -5.2880   22.1840  -32.0520 C   0  0  0  0  0  0  0  0  0  0  0  0
   -6.6080   22.6560  -31.9640 C   0  0  0  0  0  0  0  0  0  0  0  0
   -7.4296   22.0623  -32.3912 H   0  0  0  0  0  0  0  0  0  0  0  0
   -6.8850   23.8720  -31.3390 C   0  0  0  0  0  0  0  0  0  0  0  0
   -7.9203   24.2407  -31.2915 H   0  0  0  0  0  0  0  0  0  0  0  0
   -5.8530   24.6220  -30.7740 C   0  0  0  0  0  0  0  0  0  0  0  0
   -6.0765   25.5893  -30.3004 H   0  0  0  0  0  0  0  0  0  0  0  0
   -4.5370   24.1520  -30.8060 C   0  0  0  0  0  0  0  0  0  0  0  0
   -3.5380   24.9340  -30.2070 O   0  0  0  0  0  0  0  0  0  0  0  0
   -2.8110   24.5810  -29.0600 C   0  0  0  0  0  0  0  0  0  0  0  0
   -3.1980   23.4360  -28.3530 C   0  0  0  0  0  0  0  0  0  0  0  0
   -4.0527   22.8395  -28.7046 H   0  0  0  0  0  0  0  0  0  0  0  0
   -2.5050   23.0460  -27.2030 C   0  0  0  0  0  0  0  0  0  0  0  0
   -2.8212   22.1504  -26.6481 H   0  0  0  0  0  0  0  0  0  0  0  0
   -1.4110   23.7930  -26.7580 C   0  0  0  0  0  0  0  0  0  0  0  0
   -0.8720   23.4906  -25.8481 H   0  0  0  0  0  0  0  0  0  0  0  0
   -1.0020   24.9240  -27.4690 C   0  0  0  0  0  0  0  0  0  0  0  0
   -0.1373   25.5076  -27.1200 H   0  0  0  0  0  0  0  0  0  0  0  0
   -1.6880   25.3170  -28.6230 C   0  0  0  0  0  0  0  0  0  0  0  0
   -1.2330   26.4180  -29.3400 O   0  0  0  0  0  0  0  0  0  0  0  0
   -4.2460   22.9360  -31.4620 C   0  0  0  0  0  0  0  0  0  0  0  0
   -2.9330   22.4800  -31.5230 O   0  0  0  0  0  0  0  0  0  0  0  0
   -3.7470   20.5570  -33.1980 C   0  0  0  0  0  0  0  0  0  0  0  0
   -2.8941   21.2321  -33.0342 H   0  0  0  0  0  0  0  0  0  0  0  0
   -3.5750   19.3410  -33.8610 C   0  0  0  0  0  0  0  0  0  0  0  0
   -2.5773   19.0449  -34.2173 H   0  0  0  0  0  0  0  0  0  0  0  0
   -4.6390   18.5240  -34.0660 N   0  0  0  0  0  0  0  0  0  0  0  0
  1  2  1  0
  2  3  2  0
  3  4  1  0
  4  5  2  0
  5  6  1  0
  6  7  2  0
  7  8  1  0
  7  9  1  0
  9 10  1  0
  9 11  2  0
 11 12  1  0
 11 13  1  0
 13 14  1  0
 14 15  1  0
 15 16  2  0
 16 17  1  0
 16 18  1  0
 18 19  1  0
 18 20  2  0
 20 21  1  0
 20 22  1  0
 22 23  1  0
 22 24  2  0
 24 25  1  0
 13 26  2  0
 26 27  1  0
  5 28  1  0
 28 29  1  0
 28 30  2  0
 30 31  1  0
 30 32  1  0
 32  3  1  0
 26  6  1  0
 24 15  1  0
M  CHG  3  25  -1  27  -1  32  -1
M  END
>  <UniqueID>  (5) 
5

>  <SMILES>  (5) 
[H]/N=c1\nc(-c2cccc(Oc3ccccc3[O-])c2[O-])cc[n-]1

>  <Energy>  (5) 
51.26300088146828

>  <Genealogy>  (5) 
N=c1nc(-c2cccc(Oc3ccccc3[O-])c2[O-])cc[n-]1 (protonated)
[H]/N=c1\nc(-c2cccc(Oc3ccccc3[O-])c2[O-])cc[n-]1 (cis-trans isomerization)
[H]/N=c1\nc(-c2cccc(Oc3ccccc3[O-])c2[O-])cc[n-]1 (3D coordinates assigned)
[H]/N=c1\nc(-c2cccc(Oc3ccccc3[O-])c2[O-])cc[n-]1 (optimized conformer: 51.26300088146828 kcal/mol)

>  <smiles>  (5) 
N=c1nc(-c2cccc(Oc3ccccc3O)c2O)cc[nH]1

>  <score_type>  (5) 
oracle

>  <origin>  (5) 
adgpu

>  <m_score__min__energy>  (5) 
-12.73

>  <m_primary>  (5) 
energy

$$$$
5:0
     RDKit          3D

 44 46  0  0  0  0  0  0  0  0999 V2000
   -6.0470   26.0100  -30.4490 O   0  0  0  0  0  0  0  0  0  0  0  0
   -5.2320   25.0900  -30.7170 C   0  0  0  0  0  0  0  0  0  0  0  0
   -3.8540   25.2610  -30.3560 N   0  0  0  0  0  0  0  0  0  0  0  0
   -3.0960   24.3840  -29.5100 C   0  0  0  0  0  0  0  0  0  0  0  0
   -1.7110   24.5470  -29.3340 C   0  0  0  0  0  0  0  0  0  0  0  0
   -0.9960   23.6620  -28.5230 C   0  0  0  0  0  0  0  0  0  0  0  0
   -1.6530   22.6100  -27.8730 C   0  0  0  0  0  0  0  0  0  0  0  0
   -0.7460   21.4800  -26.8620 S   0  0  0  0  0  0  0  0  0  0  0  0
    0.2150   22.2570  -26.0050 O   0  0  0  0  0  0  0  0  0  0  0  0
   -1.7020   20.7590  -25.9540 O   0  0  0  0  0  0  0  0  0  0  0  0
    0.1470   20.3030  -27.7950 N   0  0  0  0  0  0  0  0  0  0  0  0
   -0.2630   18.9310  -27.4960 C   0  0  0  0  0  0  0  0  0  0  0  0
    0.0200   18.1070  -28.7460 C   0  0  0  0  0  0  0  0  0  0  0  0
    0.2530   19.1220  -29.8580 C   0  0  0  0  0  0  0  0  0  0  0  0
   -0.0620   20.4690  -29.2310 C   0  0  0  0  0  0  0  0  0  0  0  0
   -3.0420   22.4740  -28.0140 C   0  0  0  0  0  0  0  0  0  0  0  0
   -3.7590   23.3620  -28.8220 C   0  0  0  0  0  0  0  0  0  0  0  0
   -5.7280   23.8200  -31.2970 C   0  0  0  0  0  0  0  0  0  0  0  0
   -7.1080   23.5490  -31.2520 C   0  0  0  0  0  0  0  0  0  0  0  0
   -7.6310   22.3670  -31.7970 C   0  0  0  0  0  0  0  0  0  0  0  0
   -9.1080   22.0840  -31.6760 C   0  0  0  0  0  0  0  0  0  0  0  0
   -9.4430   21.8970  -30.3460 F   0  0  0  0  0  0  0  0  0  0  0  0
   -9.8690   23.1270  -32.1750 F   0  0  0  0  0  0  0  0  0  0  0  0
   -9.4070   20.9330  -32.3820 F   0  0  0  0  0  0  0  0  0  0  0  0
   -6.7560   21.4410  -32.3870 C   0  0  0  0  0  0  0  0  0  0  0  0
   -5.3860   21.7040  -32.4440 C   0  0  0  0  0  0  0  0  0  0  0  0
   -4.8590   22.8770  -31.8940 C   0  0  0  0  0  0  0  0  0  0  0  0
   -3.4750   23.0530  -31.9270 O   0  0  0  0  0  0  0  0  0  0  0  0
   -1.1882   25.3742  -29.8365 H   0  0  0  0  0  0  0  0  0  0  0  0
    0.0887   23.7923  -28.3944 H   0  0  0  0  0  0  0  0  0  0  0  0
    0.3143   18.5397  -26.6453 H   0  0  0  0  0  0  0  0  0  0  0  0
   -1.3283   18.8865  -27.2257 H   0  0  0  0  0  0  0  0  0  0  0  0
    0.9144   17.4833  -28.6011 H   0  0  0  0  0  0  0  0  0  0  0  0
   -0.8106   17.4257  -28.9826 H   0  0  0  0  0  0  0  0  0  0  0  0
    1.2982   19.0890  -30.1991 H   0  0  0  0  0  0  0  0  0  0  0  0
   -0.3721   18.9200  -30.7403 H   0  0  0  0  0  0  0  0  0  0  0  0
    0.6116   21.2425  -29.6284 H   0  0  0  0  0  0  0  0  0  0  0  0
   -1.0911   20.7868  -29.4544 H   0  0  0  0  0  0  0  0  0  0  0  0
   -3.5694   21.6654  -27.4868 H   0  0  0  0  0  0  0  0  0  0  0  0
   -4.8498   23.2564  -28.9171 H   0  0  0  0  0  0  0  0  0  0  0  0
   -7.7873   24.2754  -30.7821 H   0  0  0  0  0  0  0  0  0  0  0  0
   -7.1516   20.5041  -32.8062 H   0  0  0  0  0  0  0  0  0  0  0  0
   -4.7132   20.9802  -32.9271 H   0  0  0  0  0  0  0  0  0  0  0  0
   -3.0230   23.9380  -31.7350 H   0  0  0  0  0  0  0  0  0  0  0  0
  1  2  2  0
  2  3  1  0
  3  4  1  0
  4  5  2  0
  5  6  1  0
  6  7  2  0
  7  8  1  0
  8  9  2  0
  8 10  2  0
  8 11  1  0
 11 12  1  0
 12 13  1  0
 13 14  1  0
 14 15  1  0
  7 16  1  0
 16 17  2  0
  2 18  1  0
 18 19  2  0
 19 20  1  0
 20 21  1  0
 21 22  1  0
 21 23  1  0
 21 24  1  0
 20 25  2  0
 25 26  1  0
 26 27  2  0
 27 28  1  0
 17  4  1  0
 27 18  1  0
 15 11  1  0
  5 29  1  0
  6 30  1  0
 12 31  1  0
 12 32  1  0
 13 33  1  0
 13 34  1  0
 14 35  1  0
 14 36  1  0
 15 37  1  0
 15 38  1  0
 16 39  1  0
 17 40  1  0
 19 41  1  0
 25 42  1  0
 26 43  1  0
 28 44  1  0
M  CHG  1   3  -1
M  END
>  <UniqueID>  (6) 
6

>  <SMILES>  (6) 
O=C([N-]c1ccc(S(=O)(=O)N2CCCC2)cc1)c1cc(C(F)(F)F)ccc1O

>  <Energy>  (6) 
55.15033311840947

>  <Genealogy>  (6) 
O=C([N-]c1ccc(S(=O)(=O)N2CCCC2)cc1)c1cc(C(F)(F)F)ccc1O (protonated)
O=C([N-]c1ccc(S(=O)(=O)N2CCCC2)cc1)c1cc(C(F)(F)F)ccc1O (3D coordinates assigned)
O=C([N-]c1ccc(S(=O)(=O)N2CCCC2)cc1)c1cc(C(F)(F)F)ccc1O (nonaromatic ring conformer: 55.15033311840947 kcal/mol)

>  <smiles>  (6) 
O=C(Nc1ccc(S(=O)(=O)N2CCCC2)cc1)c1cc(C(F)(F)F)ccc1O

>  <score_type>  (6) 
oracle

>  <origin>  (6) 
adgpu

>  <m_score__min__energy>  (6) 
-10.01

>  <m_primary>  (6) 
energy

$$$$
6:0
     RDKit          3D

 40 42  0  0  0  0  0  0  0  0999 V2000
   -1.2440   25.7890  -29.3290 N   0  0  0  0  0  0  0  0  0  0  0  0
   -0.6910   24.7920  -28.0310 S   0  0  0  0  0  0  0  0  0  0  0  0
   -0.8950   25.5130  -26.7300 O   0  0  0  0  0  0  0  0  0  0  0  0
    0.7790   24.5350  -28.2250 O   0  0  0  0  0  0  0  0  0  0  0  0
   -1.5770   23.2600  -27.9940 C   0  0  0  0  0  0  0  0  0  0  0  0
   -0.8780   22.0720  -27.7170 C   0  0  0  0  0  0  0  0  0  0  0  0
   -1.5570   20.8490  -27.6520 C   0  0  0  0  0  0  0  0  0  0  0  0
   -2.9380   20.8050  -27.8490 C   0  0  0  0  0  0  0  0  0  0  0  0
   -3.6470   21.9770  -28.1340 C   0  0  0  0  0  0  0  0  0  0  0  0
   -2.9740   23.2110  -28.2190 C   0  0  0  0  0  0  0  0  0  0  0  0
   -3.6810   24.4230  -28.5410 N   0  0  0  0  0  0  0  0  0  0  0  0
   -4.6400   24.6510  -29.9690 S   0  0  0  0  0  0  0  0  0  0  0  0
   -3.8730   25.5130  -30.9300 O   0  0  0  0  0  0  0  0  0  0  0  0
   -5.9200   25.3510  -29.6110 O   0  0  0  0  0  0  0  0  0  0  0  0
   -5.0230   23.1030  -30.7230 C   0  0  0  0  0  0  0  0  0  0  0  0
   -6.3150   22.5680  -30.6320 C   0  0  0  0  0  0  0  0  0  0  0  0
   -6.6190   21.3460  -31.2450 C   0  0  0  0  0  0  0  0  0  0  0  0
   -5.6330   20.6380  -31.9620 C   0  0  0  0  0  0  0  0  0  0  0  0
   -5.9460   19.3320  -32.5960 C   0  0  0  0  0  0  0  0  0  0  0  0
   -5.2980   18.9300  -33.7790 C   0  0  0  0  0  0  0  0  0  0  0  0
   -5.6030   17.7000  -34.3730 C   0  0  0  0  0  0  0  0  0  0  0  0
   -6.5590   16.8580  -33.7950 C   0  0  0  0  0  0  0  0  0  0  0  0
   -6.9410   15.3160  -34.5420 Cl  0  0  0  0  0  0  0  0  0  0  0  0
   -7.2070   17.2450  -32.6210 C   0  0  0  0  0  0  0  0  0  0  0  0
   -6.9060   18.4750  -32.0250 C   0  0  0  0  0  0  0  0  0  0  0  0
   -4.3400   21.1840  -32.0580 C   0  0  0  0  0  0  0  0  0  0  0  0
   -4.0410   22.4100  -31.4490 C   0  0  0  0  0  0  0  0  0  0  0  0
   -2.0580   25.3070  -29.7680 H   0  0  0  0  0  0  0  0  0  0  0  0
    0.2088   22.1034  -27.5503 H   0  0  0  0  0  0  0  0  0  0  0  0
   -1.0015   19.9223  -27.4455 H   0  0  0  0  0  0  0  0  0  0  0  0
   -3.4710   19.8452  -27.7799 H   0  0  0  0  0  0  0  0  0  0  0  0
   -4.7347   21.9343  -28.2923 H   0  0  0  0  0  0  0  0  0  0  0  0
   -7.0942   23.1104  -30.0764 H   0  0  0  0  0  0  0  0  0  0  0  0
   -7.6363   20.9349  -31.1663 H   0  0  0  0  0  0  0  0  0  0  0  0
   -4.5463   19.5874  -34.2401 H   0  0  0  0  0  0  0  0  0  0  0  0
   -5.0897   17.3946  -35.2967 H   0  0  0  0  0  0  0  0  0  0  0  0
   -7.9558   16.5819  -32.1632 H   0  0  0  0  0  0  0  0  0  0  0  0
   -7.4241   18.7748  -31.1022 H   0  0  0  0  0  0  0  0  0  0  0  0
   -3.5590   20.6452  -32.6145 H   0  0  0  0  0  0  0  0  0  0  0  0
   -3.0296   22.8327  -31.5403 H   0  0  0  0  0  0  0  0  0  0  0  0
  1  2  1  0
  2  3  2  0
  2  4  2  0
  2  5  1  0
  5  6  2  0
  6  7  1  0
  7  8  2  0
  8  9  1  0
  9 10  2  0
 10 11  1  0
 11 12  1  0
 12 13  2  0
 12 14  2  0
 12 15  1  0
 15 16  2  0
 16 17  1  0
 17 18  2  0
 18 19  1  0
 19 20  2  0
 20 21  1  0
 21 22  2  0
 22 23  1  0
 22 24  1  0
 24 25  2  0
 18 26  1  0
 26 27  2  0
 10  5  1  0
 27 15  1  0
 25 19  1  0
  1 28  1  0
  6 29  1  0
  7 30  1  0
  8 31  1  0
  9 32  1  0
 16 33  1  0
 17 34  1  0
 20 35  1  0
 21 36  1  0
 24 37  1  0
 25 38  1  0
 26 39  1  0
 27 40  1  0
M  CHG  2   1  -1  11  -1
M  END
>  <UniqueID>  (7) 
7

>  <SMILES>  (7) 
[NH-]S(=O)(=O)c1ccccc1[N-]S(=O)(=O)c1ccc(-c2ccc(Cl)cc2)cc1

>  <Energy>  (7) 
52.889786711048004

>  <Genealogy>  (7) 
[NH-]S(=O)(=O)c1ccccc1[N-]S(=O)(=O)c1ccc(-c2ccc(Cl)cc2)cc1 (protonated)
[NH-]S(=O)(=O)c1ccccc1[N-]S(=O)(=O)c1ccc(-c2ccc(Cl)cc2)cc1 (3D coordinates assigned)
[NH-]S(=O)(=O)c1ccccc1[N-]S(=O)(=O)c1ccc(-c2ccc(Cl)cc2)cc1 (optimized conformer: 52.889786711048004 kcal/mol)

>  <smiles>  (7) 
NS(=O)(=O)c1ccccc1NS(=O)(=O)c1ccc(-c2ccc(Cl)cc2)cc1

>  <score_type>  (7) 
oracle

>  <origin>  (7) 
adgpu

>  <m_score__min__energy>  (7) 
-13.109999999999999

>  <m_primary>  (7) 
energy

$$$$
7:0
     RDKit          3D

 29 30  0  0  0  0  0  0  0  0999 V2000
   -2.4540   24.6610  -28.7060 O   0  0  0  0  0  0  0  0  0  0  0  0
   -3.0610   24.3340  -29.7620 C   0  0  0  0  0  0  0  0  0  0  0  0
   -3.8630   25.2910  -30.4610 N   0  0  0  0  0  0  0  0  0  0  0  0
   -5.2170   25.0210  -30.9310 C   0  0  0  0  0  0  0  0  0  0  0  0
   -5.9050   23.9990  -30.0240 C   0  0  0  0  0  0  0  0  0  0  0  0
   -6.5490   22.9140  -30.8420 C   0  0  0  0  0  0  0  0  0  0  0  0
   -5.8970   22.3970  -31.9740 C   0  0  0  0  0  0  0  0  0  0  0  0
   -6.4820   21.3660  -32.7160 C   0  0  0  0  0  0  0  0  0  0  0  0
   -7.7200   20.8350  -32.3270 C   0  0  0  0  0  0  0  0  0  0  0  0
   -8.3120   19.8080  -33.0580 O   0  0  0  0  0  0  0  0  0  0  0  0
   -8.3660   21.3370  -31.1940 C   0  0  0  0  0  0  0  0  0  0  0  0
   -7.7840   22.3690  -30.4510 C   0  0  0  0  0  0  0  0  0  0  0  0
   -2.9550   22.9650  -30.2760 C   0  0  0  0  0  0  0  0  0  0  0  0
   -2.9110   21.8110  -29.5160 C   0  0  0  0  0  0  0  0  0  0  0  0
   -2.8100   20.7730  -30.4190 C   0  0  0  0  0  0  0  0  0  0  0  0
   -2.7990   21.3620  -31.6670 C   0  0  0  0  0  0  0  0  0  0  0  0
   -2.6750   20.4350  -33.3280 Br  0  0  0  0  0  0  0  0  0  0  0  0
   -2.8860   22.6660  -31.5530 O   0  0  0  0  0  0  0  0  0  0  0  0
   -5.7953   25.9567  -30.9259 H   0  0  0  0  0  0  0  0  0  0  0  0
   -5.1648   24.6131  -31.9512 H   0  0  0  0  0  0  0  0  0  0  0  0
   -5.1577   23.5505  -29.3529 H   0  0  0  0  0  0  0  0  0  0  0  0
   -6.6831   24.5112  -29.4391 H   0  0  0  0  0  0  0  0  0  0  0  0
   -4.9218   22.8051  -32.2781 H   0  0  0  0  0  0  0  0  0  0  0  0
   -5.9702   20.9711  -33.6060 H   0  0  0  0  0  0  0  0  0  0  0  0
   -8.7170   19.9720  -33.9720 H   0  0  0  0  0  0  0  0  0  0  0  0
   -9.3356   20.9190  -30.8855 H   0  0  0  0  0  0  0  0  0  0  0  0
   -8.2949   22.7557  -29.5569 H   0  0  0  0  0  0  0  0  0  0  0  0
   -2.9487   21.7361  -28.4192 H   0  0  0  0  0  0  0  0  0  0  0  0
   -2.7505   19.6984  -30.1914 H   0  0  0  0  0  0  0  0  0  0  0  0
  1  2  2  0
  2  3  1  0
  3  4  1  0
  4  5  1  0
  5  6  1  0
  6  7  2  0
  7  8  1  0
  8  9  2  0
  9 10  1  0
  9 11  1  0
 11 12  2  0
  2 13  1  0
 13 14  2  0
 14 15  1  0
 15 16  2  0
 16 17  1  0
 16 18  1  0
 12  6  1  0
 18 13  1  0
  4 19  1  0
  4 20  1  0
  5 21  1  0
  5 22  1  0
  7 23  1  0
  8 24  1  0
 10 25  1  0
 11 26  1  0
 12 27  1  0
 14 28  1  0
 15 29  1  0
M  CHG  1   3  -1
M  END
>  <UniqueID>  (8) 
8

>  <SMILES>  (8) 
O=C([N-]CCc1ccc(O)cc1)c1ccc(Br)o1

>  <Energy>  (8) 
49.3589930781873

>  <Genealogy>  (8) 
O=C([N-]CCc1ccc(O)cc1)c1ccc(Br)o1 (protonated)
O=C([N-]CCc1ccc(O)cc1)c1ccc(Br)o1 (3D coordinates assigned)
O=C([N-]CCc1ccc(O)cc1)c1ccc(Br)o1 (optimized conformer: 49.3589930781873 kcal/mol)

>  <smiles>  (8) 
O=C(NCCc1ccc(O)cc1)c1ccc(Br)o1

>  <score_type>  (8) 
oracle

>  <origin>  (8) 
adgpu

>  <m_score__min__energy>  (8) 
-8.6600000000000001

>  <m_primary>  (8) 
energy

$$$$
8:0
     RDKit          3D

 18 19  0  0  0  0  0  0  0  0999 V2000
   -6.8340   18.1670  -34.7050 H   0  0  0  0  0  0  0  0  0  0  0  0
   -6.0820   18.8040  -34.3600 N   0  0  0  0  0  0  0  0  0  0  0  0
   -6.3570   19.8130  -33.6010 C   0  0  0  0  0  0  0  0  0  0  0  0
   -7.6060   20.1220  -33.1970 N   0  0  0  0  0  0  0  0  0  0  0  0
   -7.6440   21.2030  -32.4200 N   0  0  0  0  0  0  0  0  0  0  0  0
   -6.4260   21.7580  -32.2010 C   0  0  0  0  0  0  0  0  0  0  0  0
   -6.2170   22.9660  -31.3700 C   0  0  0  0  0  0  0  0  0  0  0  0
   -7.2770   23.5350  -30.6390 C   0  0  0  0  0  0  0  0  0  0  0  0
   -8.2771   23.0790  -30.6828 H   0  0  0  0  0  0  0  0  0  0  0  0
   -7.0680   24.6750  -29.8580 C   0  0  0  0  0  0  0  0  0  0  0  0
   -7.9025   25.1110  -29.2892 H   0  0  0  0  0  0  0  0  0  0  0  0
   -5.8020   25.2620  -29.7980 C   0  0  0  0  0  0  0  0  0  0  0  0
   -5.6400   26.1598  -29.1834 H   0  0  0  0  0  0  0  0  0  0  0  0
   -4.7420   24.7080  -30.5190 C   0  0  0  0  0  0  0  0  0  0  0  0
   -3.4810   25.2920  -30.4590 O   0  0  0  0  0  0  0  0  0  0  0  0
   -4.9460   23.5660  -31.3020 C   0  0  0  0  0  0  0  0  0  0  0  0
   -4.1072   23.1346  -31.8680 H   0  0  0  0  0  0  0  0  0  0  0  0
   -5.2150   20.8870  -33.0020 S   0  0  0  0  0  0  0  0  0  0  0  0
  1  2  1  0
  2  3  2  0
  3  4  1  0
  4  5  1  0
  5  6  2  0
  6  7  1  0
  7  8  2  0
  8  9  1  0
  8 10  1  0
 10 11  1  0
 10 12  2  0
 12 13  1  0
 12 14  1  0
 14 15  1  0
 14 16  2  0
 16 17  1  0
  6 18  1  0
 18  3  1  0
 16  7  1  0
M  CHG  2   4  -1  15  -1
M  END
>  <UniqueID>  (9) 
9

>  <SMILES>  (9) 
[H]/N=c1\[n-]nc(-c2cccc([O-])c2)s1

>  <Energy>  (9) 
54.109635038834824

>  <Genealogy>  (9) 
N=c1[n-]nc(-c2cccc([O-])c2)s1 (protonated)
[H]/N=c1\[n-]nc(-c2cccc([O-])c2)s1 (cis-trans isomerization)
[H]/N=c1\[n-]nc(-c2cccc([O-])c2)s1 (3D coordinates assigned)
[H]/N=c1\[n-]nc(-c2cccc([O-])c2)s1 (optimized conformer: 54.109635038834824 kcal/mol)

>  <smiles>  (9) 
N=c1[nH]nc(-c2cccc(O)c2)s1

>  <score_type>  (9) 
oracle

>  <origin>  (9) 
adgpu

>  <m_score__min__energy>  (9) 
-8.9700000000000006

>  <m_primary>  (9) 
energy

$$$$
9:0
     RDKit          3D

 53 55  0  0  0  0  0  0  0  0999 V2000
   -4.3170   13.9360  -31.9710 C   0  0  0  0  0  0  0  0  0  0  0  0
   -4.0080   15.3220  -32.0560 O   0  0  0  0  0  0  0  0  0  0  0  0
   -4.7020   16.2450  -32.8550 C   0  0  0  0  0  0  0  0  0  0  0  0
   -4.3150   16.5220  -34.1790 C   0  0  0  0  0  0  0  0  0  0  0  0
   -5.0020   17.4750  -34.9280 C   0  0  0  0  0  0  0  0  0  0  0  0
   -6.1000   18.1350  -34.3810 C   0  0  0  0  0  0  0  0  0  0  0  0
   -6.5470   17.8370  -33.0780 C   0  0  0  0  0  0  0  0  0  0  0  0
   -7.7760   18.5320  -32.5180 C   0  0  0  0  0  0  0  0  0  0  0  0
   -7.9130   19.9030  -33.0230 N   0  0  0  0  0  0  0  0  0  0  0  0
   -7.2880   21.0510  -32.4190 C   0  0  0  0  0  0  0  0  0  0  0  0
   -8.0470   21.8870  -31.5860 C   0  0  0  0  0  0  0  0  0  0  0  0
   -7.4540   22.9760  -30.9400 C   0  0  0  0  0  0  0  0  0  0  0  0
   -6.0950   23.2540  -31.1320 C   0  0  0  0  0  0  0  0  0  0  0  0
   -5.3290   24.5660  -30.2430 S   0  0  0  0  0  0  0  0  0  0  0  0
   -4.6340   25.5030  -31.1910 O   0  0  0  0  0  0  0  0  0  0  0  0
   -6.3790   25.3380  -29.4940 O   0  0  0  0  0  0  0  0  0  0  0  0
   -4.1530   23.8720  -29.1320 C   0  0  0  0  0  0  0  0  0  0  0  0
   -3.8330   24.5160  -27.9320 C   0  0  0  0  0  0  0  0  0  0  0  0
   -2.9170   23.9410  -27.0540 C   0  0  0  0  0  0  0  0  0  0  0  0
   -2.3170   22.7170  -27.3610 C   0  0  0  0  0  0  0  0  0  0  0  0
   -2.6260   22.0450  -28.5630 C   0  0  0  0  0  0  0  0  0  0  0  0
   -2.0120   20.7690  -28.8830 N   0  0  0  0  0  0  0  0  0  0  0  0
   -1.6080   20.4590  -30.2600 C   0  0  0  0  0  0  0  0  0  0  0  0
   -1.7640   19.7730  -27.8300 C   0  0  0  0  0  0  0  0  0  0  0  0
   -3.5500   22.6470  -29.4440 C   0  0  0  0  0  0  0  0  0  0  0  0
   -5.3340   22.4360  -31.9770 C   0  0  0  0  0  0  0  0  0  0  0  0
   -5.9240   21.3440  -32.6180 C   0  0  0  0  0  0  0  0  0  0  0  0
   -5.8020   16.9150  -32.2960 C   0  0  0  0  0  0  0  0  0  0  0  0
   -6.1130   16.6530  -30.9580 O   0  0  0  0  0  0  0  0  0  0  0  0
   -4.3832   13.6392  -30.9139 H   0  0  0  0  0  0  0  0  0  0  0  0
   -5.2800   13.7440  -32.4667 H   0  0  0  0  0  0  0  0  0  0  0  0
   -3.5268   13.3531  -32.4667 H   0  0  0  0  0  0  0  0  0  0  0  0
   -3.4658   15.9835  -34.6250 H   0  0  0  0  0  0  0  0  0  0  0  0
   -4.6768   17.7066  -35.9530 H   0  0  0  0  0  0  0  0  0  0  0  0
   -6.6250   18.8986  -34.9737 H   0  0  0  0  0  0  0  0  0  0  0  0
   -8.6695   17.9577  -32.8041 H   0  0  0  0  0  0  0  0  0  0  0  0
   -7.6676   18.5830  -31.4245 H   0  0  0  0  0  0  0  0  0  0  0  0
   -8.5420   20.0490  -33.8460 H   0  0  0  0  0  0  0  0  0  0  0  0
   -9.1181   21.6838  -31.4399 H   0  0  0  0  0  0  0  0  0  0  0  0
   -8.0567   23.6162  -30.2790 H   0  0  0  0  0  0  0  0  0  0  0  0
   -4.3052   25.4774  -27.6815 H   0  0  0  0  0  0  0  0  0  0  0  0
   -2.6647   24.4533  -26.1139 H   0  0  0  0  0  0  0  0  0  0  0  0
   -1.5964   22.2726  -26.6586 H   0  0  0  0  0  0  0  0  0  0  0  0
   -0.7354   19.7894  -30.2442 H   0  0  0  0  0  0  0  0  0  0  0  0
   -2.4397   19.9651  -30.7838 H   0  0  0  0  0  0  0  0  0  0  0  0
   -1.3462   21.3902  -30.7838 H   0  0  0  0  0  0  0  0  0  0  0  0
   -1.8816   20.2453  -26.8435 H   0  0  0  0  0  0  0  0  0  0  0  0
   -2.4840   18.9473  -27.9294 H   0  0  0  0  0  0  0  0  0  0  0  0
   -0.7409   19.3813  -27.9294 H   0  0  0  0  0  0  0  0  0  0  0  0
   -3.8005   22.1460  -30.3907 H   0  0  0  0  0  0  0  0  0  0  0  0
   -4.2677   22.6544  -32.1364 H   0  0  0  0  0  0  0  0  0  0  0  0
   -5.3199   20.7087  -33.2824 H   0  0  0  0  0  0  0  0  0  0  0  0
   -5.6470   15.9530  -30.3980 H   0  0  0  0  0  0  0  0  0  0  0  0
  1  2  1  0
  2  3  1  0
  3  4  2  0
  4  5  1  0
  5  6  2  0
  6  7  1  0
  7  8  1  0
  8  9  1  0
  9 10  1  0
 10 11  2  0
 11 12  1  0
 12 13  2  0
 13 14  1  0
 14 15  2  0
 14 16  2  0
 14 17  1  0
 17 18  2  0
 18 19  1  0
 19 20  2  0
 20 21  1  0
 21 22  1  0
 22 23  1  0
 22 24  1  0
 21 25  2  0
 13 26  1  0
 26 27  2  0
  7 28  2  0
 28 29  1  0
 28  3  1  0
 27 10  1  0
 25 17  1  0
  1 30  1  0
  1 31  1  0
  1 32  1  0
  4 33  1  0
  5 34  1  0
  6 35  1  0
  8 36  1  0
  8 37  1  0
  9 38  1  0
 11 39  1  0
 12 40  1  0
 18 41  1  0
 19 42  1  0
 20 43  1  0
 23 44  1  0
 23 45  1  0
 23 46  1  0
 24 47  1  0
 24 48  1  0
 24 49  1  0
 25 50  1  0
 26 51  1  0
 27 52  1  0
 29 53  1  0
M  END
>  <UniqueID>  (10) 
10

>  <SMILES>  (10) 
COc1cccc(CNc2ccc(S(=O)(=O)c3cccc(N(C)C)c3)cc2)c1O

>  <Energy>  (10) 
59.95158213551774

>  <Genealogy>  (10) 
COc1cccc(CNc2ccc(S(=O)(=O)c3cccc(N(C)C)c3)cc2)c1O (3D coordinates assigned)
COc1cccc(CNc2ccc(S(=O)(=O)c3cccc(N(C)C)c3)cc2)c1O (optimized conformer: 59.95158213551774 kcal/mol)

>  <smiles>  (10) 
COc1cccc(CNc2ccc(S(=O)(=O)c3cccc(N(C)C)c3)cc2)c1O

>  <score_type>  (10) 
oracle

>  <origin>  (10) 
adgpu

>  <m_score__min__energy>  (10) 
-10.01

>  <m_primary>  (10) 
energy

$$$$
10:0
     RDKit          3D

 49 52  0  0  0  0  0  0  0  0999 V2000
   -0.8760   26.8320  -27.4930 C   0  0  0  0  0  0  0  0  0  0  0  0
   -1.5810   26.2600  -28.5880 O   0  0  0  0  0  0  0  0  0  0  0  0
   -1.5530   24.9010  -28.9330 C   0  0  0  0  0  0  0  0  0  0  0  0
   -2.7490   24.2970  -29.3460 C   0  0  0  0  0  0  0  0  0  0  0  0
   -2.7760   22.9490  -29.6990 C   0  0  0  0  0  0  0  0  0  0  0  0
   -1.6000   22.1900  -29.6750 C   0  0  0  0  0  0  0  0  0  0  0  0
   -1.6340   20.7690  -30.0740 C   0  0  0  0  0  0  0  0  0  0  0  0
   -1.5730   19.8940  -29.1680 O   0  0  0  0  0  0  0  0  0  0  0  0
   -1.7590   20.3700  -31.4610 N   0  0  0  0  0  0  0  0  0  0  0  0
   -1.6260   18.9270  -31.7640 C   0  0  0  0  0  0  0  0  0  0  0  0
   -1.8880   18.5320  -33.2300 C   0  0  0  0  0  0  0  0  0  0  0  0
   -2.8570   19.4720  -33.9620 C   0  0  0  0  0  0  0  0  0  0  0  0
   -4.2880   19.3940  -33.4600 C   0  0  0  0  0  0  0  0  0  0  0  0
   -4.9990   20.4910  -33.0770 N   0  0  0  0  0  0  0  0  0  0  0  0
   -6.2000   19.9890  -32.7540 C   0  0  0  0  0  0  0  0  0  0  0  0
   -7.3220   20.6930  -32.3200 C   0  0  0  0  0  0  0  0  0  0  0  0
   -8.4960   19.9570  -32.0660 C   0  0  0  0  0  0  0  0  0  0  0  0
   -8.5190   18.5570  -32.2580 C   0  0  0  0  0  0  0  0  0  0  0  0
   -7.3670   17.8810  -32.7030 C   0  0  0  0  0  0  0  0  0  0  0  0
   -6.2200   18.6370  -32.9420 C   0  0  0  0  0  0  0  0  0  0  0  0
   -5.0080   18.2380  -33.3620 N   0  0  0  0  0  0  0  0  0  0  0  0
   -4.6140   16.8800  -33.7480 C   0  0  0  0  0  0  0  0  0  0  0  0
   -2.2790   20.8840  -33.8810 C   0  0  0  0  0  0  0  0  0  0  0  0
   -2.1880   21.3920  -32.4400 C   0  0  0  0  0  0  0  0  0  0  0  0
   -0.4010   22.7830  -29.2540 C   0  0  0  0  0  0  0  0  0  0  0  0
   -0.3750   24.1310  -28.8820 C   0  0  0  0  0  0  0  0  0  0  0  0
   -1.3142   26.4764  -26.5488 H   0  0  0  0  0  0  0  0  0  0  0  0
    0.1816   26.5335  -27.5417 H   0  0  0  0  0  0  0  0  0  0  0  0
   -0.9502   27.9284  -27.5417 H   0  0  0  0  0  0  0  0  0  0  0  0
   -3.6732   24.8917  -29.3918 H   0  0  0  0  0  0  0  0  0  0  0  0
   -3.7250   22.4797  -29.9976 H   0  0  0  0  0  0  0  0  0  0  0  0
   -0.6014   18.6196  -31.5078 H   0  0  0  0  0  0  0  0  0  0  0  0
   -2.4014   18.4203  -31.1707 H   0  0  0  0  0  0  0  0  0  0  0  0
   -0.9281   18.5367  -33.7672 H   0  0  0  0  0  0  0  0  0  0  0  0
   -2.3572   17.5372  -33.2146 H   0  0  0  0  0  0  0  0  0  0  0  0
   -2.9387   19.1539  -35.0118 H   0  0  0  0  0  0  0  0  0  0  0  0
   -7.2918   21.7837  -32.1809 H   0  0  0  0  0  0  0  0  0  0  0  0
   -9.4008   20.4754  -31.7159 H   0  0  0  0  0  0  0  0  0  0  0  0
   -9.4419   17.9925  -32.0587 H   0  0  0  0  0  0  0  0  0  0  0  0
   -7.3716   16.7919  -32.8571 H   0  0  0  0  0  0  0  0  0  0  0  0
   -4.4393   16.2780  -32.8441 H   0  0  0  0  0  0  0  0  0  0  0  0
   -5.4161   16.4212  -34.3448 H   0  0  0  0  0  0  0  0  0  0  0  0
   -3.6909   16.9217  -34.3448 H   0  0  0  0  0  0  0  0  0  0  0  0
   -1.2699   20.8789  -34.3188 H   0  0  0  0  0  0  0  0  0  0  0  0
   -2.9527   21.5559  -34.4330 H   0  0  0  0  0  0  0  0  0  0  0  0
   -1.4655   22.2209  -32.4118 H   0  0  0  0  0  0  0  0  0  0  0  0
   -3.2032   21.7002  -32.1496 H   0  0  0  0  0  0  0  0  0  0  0  0
    0.5221   22.1860  -29.2162 H   0  0  0  0  0  0  0  0  0  0  0  0
    0.5673   24.5906  -28.5490 H   0  0  0  0  0  0  0  0  0  0  0  0
  1  2  1  0
  2  3  1  0
  3  4  2  0
  4  5  1  0
  5  6  2  0
  6  7  1  0
  7  8  2  0
  7  9  1  0
  9 10  1  0
 10 11  1  0
 11 12  1  0
 12 13  1  0
 13 14  2  0
 14 15  1  0
 15 16  2  0
 16 17  1  0
 17 18  2  0
 18 19  1  0
 19 20  2  0
 20 21  1  0
 21 22  1  0
 12 23  1  0
 23 24  1  0
  6 25  1  0
 25 26  2  0
 26  3  1  0
 24  9  1  0
 21 13  1  0
 20 15  1  0
  1 27  1  0
  1 28  1  0
  1 29  1  0
  4 30  1  0
  5 31  1  0
 10 32  1  0
 10 33  1  0
 11 34  1  0
 11 35  1  0
 12 36  1  0
 16 37  1  0
 17 38  1  0
 18 39  1  0
 19 40  1  0
 22 41  1  0
 22 42  1  0
 22 43  1  0
 23 44  1  0
 23 45  1  0
 24 46  1  0
 24 47  1  0
 25 48  1  0
 26 49  1  0
M  END
>  <UniqueID>  (11) 
11

>  <SMILES>  (11) 
COc1ccc(C(=O)N2CCC(c3nc4ccccc4n3C)CC2)cc1

>  <Energy>  (11) 
98.71561908427749

>  <Genealogy>  (11) 
COc1ccc(C(=O)N2CCC(c3nc4ccccc4n3C)CC2)cc1 (3D coordinates assigned)
COc1ccc(C(=O)N2CCC(c3nc4ccccc4n3C)CC2)cc1 (nonaromatic ring conformer: 98.71561908427749 kcal/mol)

>  <smiles>  (11) 
COc1ccc(C(=O)N2CCC(c3nc4ccccc4n3C)CC2)cc1

>  <score_type>  (11) 
oracle

>  <origin>  (11) 
adgpu

>  <m_score__min__energy>  (11) 
-8.5

>  <m_primary>  (11) 
energy

$$$$
11:0
     RDKit          3D

 55 58  0  0  0  0  0  0  0  0999 V2000
   -2.4350   19.9320  -34.2060 C   0  0  0  0  0  0  0  0  0  0  0  0
   -2.3580   20.4150  -32.7880 C   0  0  0  0  0  0  0  0  0  0  0  0
   -1.2370   21.1330  -32.3530 C   0  0  0  0  0  0  0  0  0  0  0  0
   -1.1370   21.5520  -31.0240 C   0  0  0  0  0  0  0  0  0  0  0  0
   -2.1430   21.2220  -30.0960 C   0  0  0  0  0  0  0  0  0  0  0  0
   -2.0550   21.6540  -28.6510 C   0  0  0  0  0  0  0  0  0  0  0  0
   -1.7650   23.0860  -28.5290 N   0  0  0  0  0  0  0  0  0  0  0  0
   -0.5950   23.6810  -28.8350 C   0  0  0  0  0  0  0  0  0  0  0  0
   -0.6100   25.0110  -28.6060 N   0  0  0  0  0  0  0  0  0  0  0  0
   -1.8470   25.2570  -28.1340 C   0  0  0  0  0  0  0  0  0  0  0  0
   -2.5590   24.0770  -28.0720 C   0  0  0  0  0  0  0  0  0  0  0  0
   -4.0100   23.9700  -27.6870 C   0  0  0  0  0  0  0  0  0  0  0  0
   -4.8980   24.5450  -28.6990 N   0  0  0  0  0  0  0  0  0  0  0  0
   -5.2920   23.8820  -29.9160 C   0  0  0  0  0  0  0  0  0  0  0  0
   -4.3340   23.6670  -30.9190 C   0  0  0  0  0  0  0  0  0  0  0  0
   -4.6770   23.0010  -32.0970 C   0  0  0  0  0  0  0  0  0  0  0  0
   -5.9800   22.5350  -32.2860 C   0  0  0  0  0  0  0  0  0  0  0  0
   -6.9460   22.7330  -31.2920 C   0  0  0  0  0  0  0  0  0  0  0  0
   -8.5920   22.1560  -31.5370 S   0  0  0  0  0  0  0  0  0  0  0  0
   -9.1370   21.6600  -30.2260 O   0  0  0  0  0  0  0  0  0  0  0  0
   -9.4790   23.2700  -32.0210 O   0  0  0  0  0  0  0  0  0  0  0  0
   -8.5900   20.8520  -32.6810 N   0  0  0  0  0  0  0  0  0  0  0  0
   -7.6290   19.7860  -32.6410 C   0  0  0  0  0  0  0  0  0  0  0  0
   -6.6820   19.6700  -33.6710 C   0  0  0  0  0  0  0  0  0  0  0  0
   -5.7490   18.6300  -33.6610 C   0  0  0  0  0  0  0  0  0  0  0  0
   -5.7450   17.7010  -32.6160 C   0  0  0  0  0  0  0  0  0  0  0  0
   -6.6700   17.8200  -31.5750 C   0  0  0  0  0  0  0  0  0  0  0  0
   -7.6020   18.8620  -31.5810 C   0  0  0  0  0  0  0  0  0  0  0  0
   -6.6030   23.4110  -30.1160 C   0  0  0  0  0  0  0  0  0  0  0  0
   -3.2750   20.5170  -30.5410 C   0  0  0  0  0  0  0  0  0  0  0  0
   -3.3760   20.1060  -31.8730 C   0  0  0  0  0  0  0  0  0  0  0  0
   -2.6082   18.8457  -34.2145 H   0  0  0  0  0  0  0  0  0  0  0  0
   -3.2636   20.4394  -34.7217 H   0  0  0  0  0  0  0  0  0  0  0  0
   -1.4897   20.1566  -34.7217 H   0  0  0  0  0  0  0  0  0  0  0  0
   -0.4300   21.3686  -33.0624 H   0  0  0  0  0  0  0  0  0  0  0  0
   -0.2674   22.1431  -30.7008 H   0  0  0  0  0  0  0  0  0  0  0  0
   -3.0143   21.4413  -28.1564 H   0  0  0  0  0  0  0  0  0  0  0  0
   -1.2341   21.0966  -28.1762 H   0  0  0  0  0  0  0  0  0  0  0  0
    0.2783   23.1406  -29.2291 H   0  0  0  0  0  0  0  0  0  0  0  0
   -2.2305   26.2460  -27.8429 H   0  0  0  0  0  0  0  0  0  0  0  0
   -4.2638   22.9077  -27.5564 H   0  0  0  0  0  0  0  0  0  0  0  0
   -4.1529   24.5352  -26.7542 H   0  0  0  0  0  0  0  0  0  0  0  0
   -5.3640   25.4490  -28.4570 H   0  0  0  0  0  0  0  0  0  0  0  0
   -3.3043   24.0263  -30.7757 H   0  0  0  0  0  0  0  0  0  0  0  0
   -3.9191   22.8428  -32.8784 H   0  0  0  0  0  0  0  0  0  0  0  0
   -6.2474   22.0122  -33.2162 H   0  0  0  0  0  0  0  0  0  0  0  0
   -9.4520   20.7320  -33.2600 H   0  0  0  0  0  0  0  0  0  0  0  0
   -6.6745   20.4028  -34.4913 H   0  0  0  0  0  0  0  0  0  0  0  0
   -5.0163   18.5419  -34.4767 H   0  0  0  0  0  0  0  0  0  0  0  0
   -5.0152   16.8780  -32.6132 H   0  0  0  0  0  0  0  0  0  0  0  0
   -6.6647   17.0927  -30.7498 H   0  0  0  0  0  0  0  0  0  0  0  0
   -8.3183   18.9598  -30.7519 H   0  0  0  0  0  0  0  0  0  0  0  0
   -7.3656   23.5771  -29.3409 H   0  0  0  0  0  0  0  0  0  0  0  0
   -4.0872   20.2872  -29.8356 H   0  0  0  0  0  0  0  0  0  0  0  0
   -4.2573   19.5379  -32.2055 H   0  0  0  0  0  0  0  0  0  0  0  0
  1  2  1  0
  2  3  2  0
  3  4  1  0
  4  5  2  0
  5  6  1  0
  6  7  1  0
  7  8  1  0
  8  9  2  0
  9 10  1  0
 10 11  2  0
 11 12  1  0
 12 13  1  0
 13 14  1  0
 14 15  2  0
 15 16  1  0
 16 17  2  0
 17 18  1  0
 18 19  1  0
 19 20  2  0
 19 21  2  0
 19 22  1  0
 22 23  1  0
 23 24  2  0
 24 25  1  0
 25 26  2  0
 26 27  1  0
 27 28  2  0
 18 29  2  0
  5 30  1  0
 30 31  2  0
 31  2  1  0
 11  7  1  0
 29 14  1  0
 28 23  1  0
  1 32  1  0
  1 33  1  0
  1 34  1  0
  3 35  1  0
  4 36  1  0
  6 37  1  0
  6 38  1  0
  8 39  1  0
 10 40  1  0
 12 41  1  0
 12 42  1  0
 13 43  1  0
 15 44  1  0
 16 45  1  0
 17 46  1  0
 22 47  1  0
 24 48  1  0
 25 49  1  0
 26 50  1  0
 27 51  1  0
 28 52  1  0
 29 53  1  0
 30 54  1  0
 31 55  1  0
M  END
>  <UniqueID>  (12) 
12

>  <SMILES>  (12) 
Cc1ccc(Cn2cncc2CNc2cccc(S(=O)(=O)Nc3ccccc3)c2)cc1

>  <Energy>  (12) 
84.71476593898913

>  <Genealogy>  (12) 
Cc1ccc(Cn2cncc2CNc2cccc(S(=O)(=O)Nc3ccccc3)c2)cc1 (3D coordinates assigned)
Cc1ccc(Cn2cncc2CNc2cccc(S(=O)(=O)Nc3ccccc3)c2)cc1 (optimized conformer: 84.71476593898913 kcal/mol)

>  <smiles>  (12) 
Cc1ccc(Cn2cncc2CNc2cccc(S(=O)(=O)Nc3ccccc3)c2)cc1

>  <score_type>  (12) 
oracle

>  <origin>  (12) 
adgpu

>  <m_score__min__energy>  (12) 
-10.119999999999999

>  <m_primary>  (12) 
energy

$$$$
12:0
     RDKit          3D

 39 41  0  0  0  0  0  0  0  0999 V2000
   -3.0220   16.7880  -33.9140 C   0  0  0  0  0  0  0  0  0  0  0  0
   -4.4000   16.1880  -34.0210 C   0  0  0  0  0  0  0  0  0  0  0  0
   -4.5240   14.8330  -34.3760 C   0  0  0  0  0  0  0  0  0  0  0  0
   -5.7820   14.2340  -34.4670 C   0  0  0  0  0  0  0  0  0  0  0  0
   -6.9310   14.9810  -34.2140 C   0  0  0  0  0  0  0  0  0  0  0  0
   -6.8280   16.3310  -33.8750 C   0  0  0  0  0  0  0  0  0  0  0  0
   -5.5700   16.9540  -33.7780 C   0  0  0  0  0  0  0  0  0  0  0  0
   -5.5050   18.3960  -33.4470 C   0  0  0  0  0  0  0  0  0  0  0  0
   -5.1030   19.2140  -34.3180 O   0  0  0  0  0  0  0  0  0  0  0  0
   -5.9380   18.8680  -32.1580 N   0  0  0  0  0  0  0  0  0  0  0  0
   -5.7540   20.2170  -31.6950 C   0  0  0  0  0  0  0  0  0  0  0  0
   -4.5040   20.6730  -31.2390 C   0  0  0  0  0  0  0  0  0  0  0  0
   -4.3600   21.9800  -30.7670 C   0  0  0  0  0  0  0  0  0  0  0  0
   -5.4610   22.8430  -30.7270 C   0  0  0  0  0  0  0  0  0  0  0  0
   -5.2680   24.4810  -30.1100 S   0  0  0  0  0  0  0  0  0  0  0  0
   -4.3860   25.2560  -31.0460 O   0  0  0  0  0  0  0  0  0  0  0  0
   -6.6000   25.1710  -30.0060 O   0  0  0  0  0  0  0  0  0  0  0  0
   -4.5320   24.4330  -28.5400 N   0  0  0  0  0  0  0  0  0  0  0  0
   -3.2570   24.5760  -28.3530 C   0  0  0  0  0  0  0  0  0  0  0  0
   -2.3660   24.7760  -29.3480 N   0  0  0  0  0  0  0  0  0  0  0  0
   -1.1020   24.8960  -28.8630 C   0  0  0  0  0  0  0  0  0  0  0  0
   -0.9880   24.7910  -27.4800 C   0  0  0  0  0  0  0  0  0  0  0  0
   -2.5260   24.5400  -26.8430 S   0  0  0  0  0  0  0  0  0  0  0  0
   -6.7120   22.3870  -31.1610 C   0  0  0  0  0  0  0  0  0  0  0  0
   -6.8590   21.0790  -31.6330 C   0  0  0  0  0  0  0  0  0  0  0  0
   -2.7542   16.9046  -32.8535 H   0  0  0  0  0  0  0  0  0  0  0  0
   -2.2944   16.1252  -34.4052 H   0  0  0  0  0  0  0  0  0  0  0  0
   -3.0115   17.7722  -34.4052 H   0  0  0  0  0  0  0  0  0  0  0  0
   -3.6215   14.2394  -34.5839 H   0  0  0  0  0  0  0  0  0  0  0  0
   -5.8662   13.1714  -34.7387 H   0  0  0  0  0  0  0  0  0  0  0  0
   -7.9208   14.5058  -34.2816 H   0  0  0  0  0  0  0  0  0  0  0  0
   -7.7403   16.9144  -33.6815 H   0  0  0  0  0  0  0  0  0  0  0  0
   -6.4550   18.2120  -31.5310 H   0  0  0  0  0  0  0  0  0  0  0  0
   -3.6360   19.9975  -31.2541 H   0  0  0  0  0  0  0  0  0  0  0  0
   -3.3758   22.3327  -30.4249 H   0  0  0  0  0  0  0  0  0  0  0  0
   -0.2327   25.0638  -29.5159 H   0  0  0  0  0  0  0  0  0  0  0  0
   -0.0542   24.8601  -26.9027 H   0  0  0  0  0  0  0  0  0  0  0  0
   -7.5817   23.0599  -31.1305 H   0  0  0  0  0  0  0  0  0  0  0  0
   -7.8480   20.7235  -31.9579 H   0  0  0  0  0  0  0  0  0  0  0  0
  1  2  1  0
  2  3  2  0
  3  4  1  0
  4  5  2  0
  5  6  1  0
  6  7  2  0
  7  8  1  0
  8  9  2  0
  8 10  1  0
 10 11  1  0
 11 12  2  0
 12 13  1  0
 13 14  2  0
 14 15  1  0
 15 16  2  0
 15 17  2  0
 15 18  1  0
 18 19  2  3
 19 20  1  0
 20 21  1  0
 21 22  2  0
 22 23  1  0
 14 24  1  0
 24 25  2  0
  7  2  1  0
 25 11  1  0
 23 19  1  0
  1 26  1  0
  1 27  1  0
  1 28  1  0
  3 29  1  0
  4 30  1  0
  5 31  1  0
  6 32  1  0
 10 33  1  0
 12 34  1  0
 13 35  1  0
 21 36  1  0
 22 37  1  0
 24 38  1  0
 25 39  1  0
M  CHG  1  20  -1
M  END
>  <UniqueID>  (13) 
13

>  <SMILES>  (13) 
Cc1ccccc1C(=O)Nc1ccc(S(=O)(=O)N=c2[n-]ccs2)cc1

>  <Energy>  (13) 
83.19298094796551

>  <Genealogy>  (13) 
Cc1ccccc1C(=O)Nc1ccc(S(=O)(=O)N=c2[n-]ccs2)cc1 (protonated)
Cc1ccccc1C(=O)Nc1ccc(S(=O)(=O)N=c2[n-]ccs2)cc1 (3D coordinates assigned)
Cc1ccccc1C(=O)Nc1ccc(S(=O)(=O)N=c2[n-]ccs2)cc1 (optimized conformer: 83.19298094796551 kcal/mol)

>  <smiles>  (13) 
Cc1ccccc1C(=O)Nc1ccc(S(=O)(=O)N=c2[nH]ccs2)cc1

>  <score_type>  (13) 
oracle

>  <origin>  (13) 
adgpu

>  <m_score__min__energy>  (13) 
-9.2599999999999998

>  <m_primary>  (13) 
energy

$$$$
13:0
     RDKit          3D

 38 41  0  0  0  0  0  0  0  0999 V2000
   -5.9200   24.9940  -29.4340 C   0  0  0  0  0  0  0  0  0  0  0  0
   -4.6360   24.2730  -29.1140 C   0  0  0  0  0  0  0  0  0  0  0  0
   -4.2300   24.1990  -27.7740 C   0  0  0  0  0  0  0  0  0  0  0  0
   -3.0990   23.4710  -27.4180 C   0  0  0  0  0  0  0  0  0  0  0  0
   -2.3950   22.7550  -28.3830 C   0  0  0  0  0  0  0  0  0  0  0  0
   -2.7970   22.7830  -29.7270 C   0  0  0  0  0  0  0  0  0  0  0  0
   -2.0980   21.8530  -30.6820 C   0  0  0  0  0  0  0  0  0  0  0  0
   -3.8790   23.6170  -30.1150 C   0  0  0  0  0  0  0  0  0  0  0  0
   -4.2600   23.7800  -31.4930 N   0  0  0  0  0  0  0  0  0  0  0  0
   -4.9650   22.8350  -32.3150 C   0  0  0  0  0  0  0  0  0  0  0  0
   -4.3050   22.1080  -33.1010 O   0  0  0  0  0  0  0  0  0  0  0  0
   -6.4350   22.7240  -32.3200 C   0  0  0  0  0  0  0  0  0  0  0  0
   -7.2410   23.8030  -32.1700 N   0  0  0  0  0  0  0  0  0  0  0  0
   -8.4810   23.3590  -32.0030 N   0  0  0  0  0  0  0  0  0  0  0  0
   -8.4850   22.0400  -32.0460 N   0  0  0  0  0  0  0  0  0  0  0  0
   -9.5470   21.2200  -31.8720 C   0  0  0  0  0  0  0  0  0  0  0  0
   -9.3520   19.8760  -31.9560 N   0  0  0  0  0  0  0  0  0  0  0  0
   -8.1190   19.3590  -32.2440 C   0  0  0  0  0  0  0  0  0  0  0  0
   -7.9570   17.9750  -32.3750 C   0  0  0  0  0  0  0  0  0  0  0  0
   -6.7200   17.4470  -32.7550 C   0  0  0  0  0  0  0  0  0  0  0  0
   -5.6470   18.3000  -33.0310 C   0  0  0  0  0  0  0  0  0  0  0  0
   -5.7910   19.6840  -32.8940 C   0  0  0  0  0  0  0  0  0  0  0  0
   -7.0080   20.2220  -32.4520 C   0  0  0  0  0  0  0  0  0  0  0  0
   -7.2430   21.5930  -32.2720 C   0  0  0  0  0  0  0  0  0  0  0  0
   -6.4244   25.2773  -28.4984 H   0  0  0  0  0  0  0  0  0  0  0  0
   -5.6967   25.8986  -30.0186 H   0  0  0  0  0  0  0  0  0  0  0  0
   -6.5762   24.3324  -30.0186 H   0  0  0  0  0  0  0  0  0  0  0  0
   -4.8100   24.7204  -26.9983 H   0  0  0  0  0  0  0  0  0  0  0  0
   -2.7600   23.4610  -26.3716 H   0  0  0  0  0  0  0  0  0  0  0  0
   -1.5162   22.1624  -28.0890 H   0  0  0  0  0  0  0  0  0  0  0  0
   -1.5324   21.1004  -30.1130 H   0  0  0  0  0  0  0  0  0  0  0  0
   -2.8434   21.3498  -31.3154 H   0  0  0  0  0  0  0  0  0  0  0  0
   -1.4074   22.4291  -31.3154 H   0  0  0  0  0  0  0  0  0  0  0  0
  -10.5465   21.6310  -31.6670 H   0  0  0  0  0  0  0  0  0  0  0  0
   -8.8045   17.3018  -32.1786 H   0  0  0  0  0  0  0  0  0  0  0  0
   -6.5902   16.3578  -32.8372 H   0  0  0  0  0  0  0  0  0  0  0  0
   -4.6843   17.8799  -33.3577 H   0  0  0  0  0  0  0  0  0  0  0  0
   -4.9494   20.3508  -33.1330 H   0  0  0  0  0  0  0  0  0  0  0  0
  1  2  1  0
  2  3  2  0
  3  4  1  0
  4  5  2  0
  5  6  1  0
  6  7  1  0
  6  8  2  0
  8  9  1  0
  9 10  1  0
 10 11  2  0
 10 12  1  0
 12 13  1  0
 13 14  2  0
 14 15  1  0
 15 16  1  0
 16 17  2  0
 17 18  1  0
 18 19  2  0
 19 20  1  0
 20 21  2  0
 21 22  1  0
 22 23  2  0
 23 24  1  0
  8  2  1  0
 24 12  2  0
 24 15  1  0
 23 18  1  0
  1 25  1  0
  1 26  1  0
  1 27  1  0
  3 28  1  0
  4 29  1  0
  5 30  1  0
  7 31  1  0
  7 32  1  0
  7 33  1  0
 16 34  1  0
 19 35  1  0
 20 36  1  0
 21 37  1  0
 22 38  1  0
M  CHG  1   9  -1
M  END
>  <UniqueID>  (14) 
14

>  <SMILES>  (14) 
Cc1cccc(C)c1[N-]C(=O)c1nnn2cnc3ccccc3c12

>  <Energy>  (14) 
102.3207414624658

>  <Genealogy>  (14) 
Cc1cccc(C)c1[N-]C(=O)c1nnn2cnc3ccccc3c12 (protonated)
Cc1cccc(C)c1[N-]C(=O)c1nnn2cnc3ccccc3c12 (3D coordinates assigned)
Cc1cccc(C)c1[N-]C(=O)c1nnn2cnc3ccccc3c12 (optimized conformer: 102.3207414624658 kcal/mol)

>  <smiles>  (14) 
Cc1cccc(C)c1NC(=O)c1nnn2cnc3ccccc3c12

>  <score_type>  (14) 
oracle

>  <origin>  (14) 
adgpu

>  <m_score__min__energy>  (14) 
-9.5899999999999999

>  <m_primary>  (14) 
energy

$$$$
14:0
     RDKit          3D

 33 34  0  0  0  0  0  0  0  0999 V2000
   -2.8140   21.0390  -27.9320 C   0  0  0  0  0  0  0  0  0  0  0  0
   -3.1160   22.3400  -28.6310 C   0  0  0  0  0  0  0  0  0  0  0  0
   -4.3560   22.4950  -29.2720 C   0  0  0  0  0  0  0  0  0  0  0  0
   -4.6780   23.6850  -29.9430 C   0  0  0  0  0  0  0  0  0  0  0  0
   -6.0030   23.8330  -30.5960 C   0  0  0  0  0  0  0  0  0  0  0  0
   -6.5490   24.9710  -30.6120 O   0  0  0  0  0  0  0  0  0  0  0  0
   -6.7070   22.6930  -31.2300 C   0  0  0  0  0  0  0  0  0  0  0  0
   -8.0790   22.5080  -31.0100 C   0  0  0  0  0  0  0  0  0  0  0  0
   -8.7470   21.4260  -31.5830 C   0  0  0  0  0  0  0  0  0  0  0  0
   -8.0620   20.5010  -32.3770 C   0  0  0  0  0  0  0  0  0  0  0  0
   -8.7790   19.4030  -32.8580 O   0  0  0  0  0  0  0  0  0  0  0  0
   -6.6800   20.6850  -32.6320 C   0  0  0  0  0  0  0  0  0  0  0  0
   -5.9070   19.7980  -33.5310 C   0  0  0  0  0  0  0  0  0  0  0  0
   -6.4880   18.9520  -34.2600 O   0  0  0  0  0  0  0  0  0  0  0  0
   -4.5280   19.9420  -33.6300 O   0  0  0  0  0  0  0  0  0  0  0  0
   -6.0140   21.7680  -32.0300 C   0  0  0  0  0  0  0  0  0  0  0  0
   -3.7530   24.7390  -29.9430 C   0  0  0  0  0  0  0  0  0  0  0  0
   -2.5110   24.5980  -29.3210 C   0  0  0  0  0  0  0  0  0  0  0  0
   -1.6260   25.6710  -29.3430 O   0  0  0  0  0  0  0  0  0  0  0  0
   -2.1660   23.3910  -28.6800 C   0  0  0  0  0  0  0  0  0  0  0  0
   -0.8240   23.2520  -28.0040 C   0  0  0  0  0  0  0  0  0  0  0  0
   -2.8493   21.1910  -26.8431 H   0  0  0  0  0  0  0  0  0  0  0  0
   -3.5611   20.2852  -28.2214 H   0  0  0  0  0  0  0  0  0  0  0  0
   -1.8113   20.6914  -28.2214 H   0  0  0  0  0  0  0  0  0  0  0  0
   -5.0854   21.6719  -29.2478 H   0  0  0  0  0  0  0  0  0  0  0  0
   -8.6325   23.2210  -30.3812 H   0  0  0  0  0  0  0  0  0  0  0  0
   -9.8256   21.2988  -31.4082 H   0  0  0  0  0  0  0  0  0  0  0  0
   -8.5740   18.9410  -33.7330 H   0  0  0  0  0  0  0  0  0  0  0  0
   -4.9326   21.8931  -32.1880 H   0  0  0  0  0  0  0  0  0  0  0  0
   -4.0087   25.6872  -30.4385 H   0  0  0  0  0  0  0  0  0  0  0  0
   -0.9600   23.2661  -26.9125 H   0  0  0  0  0  0  0  0  0  0  0  0
   -0.3594   22.3009  -28.3034 H   0  0  0  0  0  0  0  0  0  0  0  0
   -0.1743   24.0877  -28.3034 H   0  0  0  0  0  0  0  0  0  0  0  0
  1  2  1  0
  2  3  2  0
  3  4  1  0
  4  5  1  0
  5  6  2  0
  5  7  1  0
  7  8  2  0
  8  9  1  0
  9 10  2  0
 10 11  1  0
 10 12  1  0
 12 13  1  0
 13 14  2  0
 13 15  1  0
 12 16  2  0
  4 17  2  0
 17 18  1  0
 18 19  1  0
 18 20  2  0
 20 21  1  0
 20  2  1  0
 16  7  1  0
  1 22  1  0
  1 23  1  0
  1 24  1  0
  3 25  1  0
  8 26  1  0
  9 27  1  0
 11 28  1  0
 16 29  1  0
 17 30  1  0
 21 31  1  0
 21 32  1  0
 21 33  1  0
M  CHG  2  15  -1  19  -1
M  END
>  <UniqueID>  (15) 
15

>  <SMILES>  (15) 
Cc1cc(C(=O)c2ccc(O)c(C(=O)[O-])c2)cc([O-])c1C

>  <Energy>  (15) 
46.842294563135674

>  <Genealogy>  (15) 
Cc1cc(C(=O)c2ccc(O)c(C(=O)[O-])c2)cc([O-])c1C (protonated)
Cc1cc(C(=O)c2ccc(O)c(C(=O)[O-])c2)cc([O-])c1C (3D coordinates assigned)
Cc1cc(C(=O)c2ccc(O)c(C(=O)[O-])c2)cc([O-])c1C (optimized conformer: 46.842294563135674 kcal/mol)

>  <smiles>  (15) 
Cc1cc(C(=O)c2ccc(O)c(C(=O)O)c2)cc(O)c1C

>  <score_type>  (15) 
oracle

>  <origin>  (15) 
adgpu

>  <m_score__min__energy>  (15) 
-10.24

>  <m_primary>  (15) 
energy

$$$$
15:0
     RDKit          3D

 40 42  0  0  0  0  0  0  0  0999 V2000
   -0.8340   19.3530  -30.4370 C   0  0  0  0  0  0  0  0  0  0  0  0
   -1.3270   20.7700  -30.3060 C   0  0  0  0  0  0  0  0  0  0  0  0
   -0.7970   21.5690  -29.2800 C   0  0  0  0  0  0  0  0  0  0  0  0
   -1.2420   22.8760  -29.0910 C   0  0  0  0  0  0  0  0  0  0  0  0
   -2.2330   23.4160  -29.9210 C   0  0  0  0  0  0  0  0  0  0  0  0
   -2.7220   24.7980  -29.7110 C   0  0  0  0  0  0  0  0  0  0  0  0
   -3.7700   25.2010  -30.2820 O   0  0  0  0  0  0  0  0  0  0  0  0
   -2.0310   25.6710  -28.8770 O   0  0  0  0  0  0  0  0  0  0  0  0
   -2.7570   22.6290  -30.9590 C   0  0  0  0  0  0  0  0  0  0  0  0
   -2.2910   21.3220  -31.1890 C   0  0  0  0  0  0  0  0  0  0  0  0
   -2.9870   20.3880  -32.5380 S   0  0  0  0  0  0  0  0  0  0  0  0
   -2.8170   21.1350  -33.8310 O   0  0  0  0  0  0  0  0  0  0  0  0
   -2.2470   19.0820  -32.6270 O   0  0  0  0  0  0  0  0  0  0  0  0
   -4.6950   20.0730  -32.3090 N   0  0  2  0  0  0  0  0  0  0  0  0
   -5.1960   19.2410  -33.4200 C   0  0  0  0  0  0  0  0  0  0  0  0
   -6.6410   18.8000  -33.1550 C   0  0  0  0  0  0  0  0  0  0  0  0
   -7.5040   19.9420  -32.6880 C   0  0  0  0  0  0  0  0  0  0  0  0
   -8.8990   19.7860  -32.6660 C   0  0  0  0  0  0  0  0  0  0  0  0
   -9.7170   20.8110  -32.1860 C   0  0  0  0  0  0  0  0  0  0  0  0
   -9.1500   21.9980  -31.7170 C   0  0  0  0  0  0  0  0  0  0  0  0
   -7.7630   22.1610  -31.7230 C   0  0  0  0  0  0  0  0  0  0  0  0
   -6.9290   21.1300  -32.1870 C   0  0  0  0  0  0  0  0  0  0  0  0
   -5.4370   21.3500  -32.2480 C   0  0  0  0  0  0  0  0  0  0  0  0
   -0.6843   18.9228  -29.4357 H   0  0  0  0  0  0  0  0  0  0  0  0
   -1.5771   18.7555  -30.9855 H   0  0  0  0  0  0  0  0  0  0  0  0
    0.1195   19.3457  -30.9855 H   0  0  0  0  0  0  0  0  0  0  0  0
   -0.0210   21.1582  -28.6174 H   0  0  0  0  0  0  0  0  0  0  0  0
   -0.8121   23.4880  -28.2844 H   0  0  0  0  0  0  0  0  0  0  0  0
   -3.5464   23.0421  -31.6041 H   0  0  0  0  0  0  0  0  0  0  0  0
   -4.8160   19.5470  -31.4130 H   0  0  0  0  0  0  0  0  0  0  0  0
   -5.1610   19.8237  -34.3523 H   0  0  0  0  0  0  0  0  0  0  0  0
   -4.5623   18.3461  -33.5067 H   0  0  0  0  0  0  0  0  0  0  0  0
   -7.0640   18.3928  -34.0852 H   0  0  0  0  0  0  0  0  0  0  0  0
   -6.6234   18.0407  -32.3593 H   0  0  0  0  0  0  0  0  0  0  0  0
   -9.3504   18.8509  -33.0290 H   0  0  0  0  0  0  0  0  0  0  0  0
  -10.8095   20.6833  -32.1773 H   0  0  0  0  0  0  0  0  0  0  0  0
   -9.7965   22.8053  -31.3425 H   0  0  0  0  0  0  0  0  0  0  0  0
   -7.3212   23.1016  -31.3625 H   0  0  0  0  0  0  0  0  0  0  0  0
   -5.2009   21.9420  -33.1446 H   0  0  0  0  0  0  0  0  0  0  0  0
   -5.1321   21.8788  -31.3329 H   0  0  0  0  0  0  0  0  0  0  0  0
  1  2  1  0
  2  3  2  0
  3  4  1  0
  4  5  2  0
  5  6  1  0
  6  7  2  0
  6  8  1  0
  5  9  1  0
  9 10  2  0
 10 11  1  0
 11 12  2  0
 11 13  2  0
 11 14  1  0
 14 15  1  0
 15 16  1  0
 16 17  1  0
 17 18  2  0
 18 19  1  0
 19 20  2  0
 20 21  1  0
 21 22  2  0
 22 23  1  0
 10  2  1  0
 23 14  1  0
 22 17  1  0
  1 24  1  0
  1 25  1  0
  1 26  1  0
  3 27  1  0
  4 28  1  0
  9 29  1  0
 14 30  1  1
 15 31  1  0
 15 32  1  0
 16 33  1  0
 16 34  1  0
 18 35  1  0
 19 36  1  0
 20 37  1  0
 21 38  1  0
 23 39  1  0
 23 40  1  0
M  CHG  2   8  -1  14   1
M  END
>  <UniqueID>  (16) 
16

>  <SMILES>  (16) 
Cc1ccc(C(=O)[O-])cc1S(=O)(=O)[N@@H+]1CCc2ccccc2C1

>  <Energy>  (16) 
46.83318843398166

>  <Genealogy>  (16) 
Cc1ccc(C(=O)[O-])cc1S(=O)(=O)[NH+]1CCc2ccccc2C1 (protonated)
Cc1ccc(C(=O)[O-])cc1S(=O)(=O)[N@@H+]1CCc2ccccc2C1 (chirality)
Cc1ccc(C(=O)[O-])cc1S(=O)(=O)[N@@H+]1CCc2ccccc2C1 (3D coordinates assigned)
Cc1ccc(C(=O)[O-])cc1S(=O)(=O)[N@@H+]1CCc2ccccc2C1 (nonaromatic ring conformer: 46.83318843398166 kcal/mol)

>  <smiles>  (16) 
Cc1ccc(C(=O)O)cc1S(=O)(=O)N1CCc2ccccc2C1

>  <score_type>  (16) 
oracle

>  <origin>  (16) 
adgpu

>  <m_score__min__energy>  (16) 
-9.9299999999999997

>  <m_primary>  (16) 
energy

$$$$
16:0
     RDKit          3D

 34 36  0  0  0  0  0  0  0  0999 V2000
   -2.6150   21.0000  -27.5050 C   0  0  0  0  0  0  0  0  0  0  0  0
   -2.2630   22.3760  -27.9850 C   0  0  0  0  0  0  0  0  0  0  0  0
   -1.1230   23.0260  -27.4890 C   0  0  0  0  0  0  0  0  0  0  0  0
   -0.7770   24.2930  -27.9630 C   0  0  0  0  0  0  0  0  0  0  0  0
   -1.5550   24.9160  -28.9420 C   0  0  0  0  0  0  0  0  0  0  0  0
   -2.6910   24.2670  -29.4610 C   0  0  0  0  0  0  0  0  0  0  0  0
   -3.5190   24.8670  -30.4660 N   0  0  0  0  0  0  0  0  0  0  0  0
   -5.2530   24.8730  -30.4620 S   0  0  0  0  0  0  0  0  0  0  0  0
   -5.7360   26.0970  -31.1880 O   0  0  0  0  0  0  0  0  0  0  0  0
   -5.7330   24.9250  -29.0380 O   0  0  0  0  0  0  0  0  0  0  0  0
   -5.8840   23.4380  -31.2820 C   0  0  0  0  0  0  0  0  0  0  0  0
   -7.2660   23.1980  -31.2880 C   0  0  0  0  0  0  0  0  0  0  0  0
   -7.7900   22.0760  -31.9350 C   0  0  0  0  0  0  0  0  0  0  0  0
   -6.9450   21.1670  -32.5780 C   0  0  0  0  0  0  0  0  0  0  0  0
   -7.5030   20.0590  -33.2150 O   0  0  0  0  0  0  0  0  0  0  0  0
   -5.5570   21.3860  -32.5680 C   0  0  0  0  0  0  0  0  0  0  0  0
   -4.7080   20.5140  -33.1770 N   0  0  0  0  0  0  0  0  0  0  0  0
   -3.3650   20.7110  -33.1690 C   0  0  0  0  0  0  0  0  0  0  0  0
   -2.8370   21.8300  -32.5210 C   0  0  0  0  0  0  0  0  0  0  0  0
   -3.6760   22.7070  -31.9100 N   0  0  0  0  0  0  0  0  0  0  0  0
   -5.0240   22.5220  -31.9160 C   0  0  0  0  0  0  0  0  0  0  0  0
   -3.0330   22.9960  -28.9810 C   0  0  0  0  0  0  0  0  0  0  0  0
   -2.6188   20.9852  -26.4051 H   0  0  0  0  0  0  0  0  0  0  0  0
   -3.6124   20.7252  -27.8789 H   0  0  0  0  0  0  0  0  0  0  0  0
   -1.8721   20.2800  -27.8789 H   0  0  0  0  0  0  0  0  0  0  0  0
   -0.5006   22.5367  -26.7253 H   0  0  0  0  0  0  0  0  0  0  0  0
    0.1122   24.8029  -27.5638 H   0  0  0  0  0  0  0  0  0  0  0  0
   -1.2791   25.9160  -29.3080 H   0  0  0  0  0  0  0  0  0  0  0  0
   -7.9433   23.8994  -30.7788 H   0  0  0  0  0  0  0  0  0  0  0  0
   -8.8769   21.9065  -31.9384 H   0  0  0  0  0  0  0  0  0  0  0  0
   -7.6760   20.0390  -34.2130 H   0  0  0  0  0  0  0  0  0  0  0  0
   -2.6971   19.9944  -33.6694 H   0  0  0  0  0  0  0  0  0  0  0  0
   -1.7503   22.0000  -32.5054 H   0  0  0  0  0  0  0  0  0  0  0  0
   -3.9140   22.4788  -29.3890 H   0  0  0  0  0  0  0  0  0  0  0  0
  1  2  1  0
  2  3  2  0
  3  4  1  0
  4  5  2  0
  5  6  1  0
  6  7  1  0
  7  8  1  0
  8  9  2  0
  8 10  2  0
  8 11  1  0
 11 12  2  0
 12 13  1  0
 13 14  2  0
 14 15  1  0
 14 16  1  0
 16 17  2  0
 17 18  1  0
 18 19  2  0
 19 20  1  0
 20 21  2  0
  6 22  2  0
 22  2  1  0
 21 11  1  0
 21 16  1  0
  1 23  1  0
  1 24  1  0
  1 25  1  0
  3 26  1  0
  4 27  1  0
  5 28  1  0
 12 29  1  0
 13 30  1  0
 15 31  1  0
 18 32  1  0
 19 33  1  0
 22 34  1  0
M  CHG  1   7  -1
M  END
>  <UniqueID>  (17) 
17

>  <SMILES>  (17) 
Cc1cccc([N-]S(=O)(=O)c2ccc(O)c3nccnc23)c1

>  <Energy>  (17) 
44.391775019051735

>  <Genealogy>  (17) 
Cc1cccc([N-]S(=O)(=O)c2ccc(O)c3nccnc23)c1 (protonated)
Cc1cccc([N-]S(=O)(=O)c2ccc(O)c3nccnc23)c1 (3D coordinates assigned)
Cc1cccc([N-]S(=O)(=O)c2ccc(O)c3nccnc23)c1 (optimized conformer: 44.391775019051735 kcal/mol)

>  <smiles>  (17) 
Cc1cccc(NS(=O)(=O)c2ccc(O)c3nccnc23)c1

>  <score_type>  (17) 
oracle

>  <origin>  (17) 
adgpu

>  <m_score__min__energy>  (17) 
-8.9600000000000009

>  <m_primary>  (17) 
energy

$$$$
17:0
     RDKit          3D

 39 41  0  0  0  0  0  0  0  0999 V2000
   -3.8660   26.5060  -30.6960 H   0  0  0  0  0  0  0  0  0  0  0  0
   -4.3140   25.6090  -30.8420 O   0  0  0  0  0  0  0  0  0  0  0  0
   -3.7690   24.4210  -30.3560 C   0  0  0  0  0  0  0  0  0  0  0  0
   -4.4130   23.2120  -30.6330 C   0  0  0  0  0  0  0  0  0  0  0  0
   -5.3366   23.2086  -31.2305 H   0  0  0  0  0  0  0  0  0  0  0  0
   -3.8900   22.0070  -30.1550 C   0  0  0  0  0  0  0  0  0  0  0  0
   -4.3985   21.0597  -30.3874 H   0  0  0  0  0  0  0  0  0  0  0  0
   -2.7180   21.9990  -29.3790 C   0  0  0  0  0  0  0  0  0  0  0  0
   -2.1610   20.7280  -28.8560 C   0  0  0  0  0  0  0  0  0  0  0  0
   -2.6710   20.2050  -27.8300 O   0  0  0  0  0  0  0  0  0  0  0  0
   -1.0250   20.0910  -29.4580 N   0  0  0  0  0  0  0  0  0  0  0  0
   -0.5190   20.3480  -30.7760 C   0  0  0  0  0  0  0  0  0  0  0  0
    0.7560   19.9090  -31.1730 C   0  0  0  0  0  0  0  0  0  0  0  0
    1.3990   19.3743  -30.4585 H   0  0  0  0  0  0  0  0  0  0  0  0
    1.2090   20.1500  -32.4730 C   0  0  0  0  0  0  0  0  0  0  0  0
    2.2022   19.7925  -32.7824 H   0  0  0  0  0  0  0  0  0  0  0  0
    0.4030   20.8450  -33.3830 C   0  0  0  0  0  0  0  0  0  0  0  0
    0.9300   21.0820  -35.0460 S   0  0  0  0  0  0  0  0  0  0  0  0
    1.4860   19.7890  -35.5740 O   0  0  0  0  0  0  0  0  0  0  0  0
   -0.2210   21.5000  -35.9160 O   0  0  0  0  0  0  0  0  0  0  0  0
    2.1660   22.2970  -35.0970 N   0  0  0  0  0  0  0  0  0  0  0  0
    2.1370   23.3050  -35.9150 C   0  0  0  0  0  0  0  0  0  0  0  0
    1.1620   23.5290  -36.8190 N   0  0  0  0  0  0  0  0  0  0  0  0
    1.4860   24.6290  -37.4350 O   0  0  0  0  0  0  0  0  0  0  0  0
    2.6160   25.1150  -36.9730 C   0  0  0  0  0  0  0  0  0  0  0  0
    3.2550   26.3730  -37.4550 C   0  0  0  0  0  0  0  0  0  0  0  0
    3.5640   26.9813  -36.5921 H   0  0  0  0  0  0  0  0  0  0  0  0
    4.1370   26.1262  -38.0642 H   0  0  0  0  0  0  0  0  0  0  0  0
    2.5355   26.9397  -38.0642 H   0  0  0  0  0  0  0  0  0  0  0  0
    3.0930   24.2920  -35.9740 C   0  0  0  0  0  0  0  0  0  0  0  0
    4.0090   24.3985  -35.3744 H   0  0  0  0  0  0  0  0  0  0  0  0
   -0.8540   21.3130  -32.9770 C   0  0  0  0  0  0  0  0  0  0  0  0
   -1.4868   21.8693  -33.6843 H   0  0  0  0  0  0  0  0  0  0  0  0
   -1.3060   21.0750  -31.6760 C   0  0  0  0  0  0  0  0  0  0  0  0
   -2.2856   21.4613  -31.3579 H   0  0  0  0  0  0  0  0  0  0  0  0
   -2.0630   23.2150  -29.1190 C   0  0  0  0  0  0  0  0  0  0  0  0
   -1.1318   23.2188  -28.5335 H   0  0  0  0  0  0  0  0  0  0  0  0
   -2.5860   24.4210  -29.5990 C   0  0  0  0  0  0  0  0  0  0  0  0
   -1.9270   25.6120  -29.3190 O   0  0  0  0  0  0  0  0  0  0  0  0
  1  2  1  0
  2  3  1  0
  3  4  2  0
  4  5  1  0
  4  6  1  0
  6  7  1  0
  6  8  2  0
  8  9  1  0
  9 10  2  0
  9 11  1  0
 11 12  1  0
 12 13  2  0
 13 14  1  0
 13 15  1  0
 15 16  1  0
 15 17  2  0
 17 18  1  0
 18 19  2  0
 18 20  2  0
 18 21  1  0
 21 22  2  0
 22 23  1  0
 23 24  1  0
 24 25  1  0
 25 26  1  0
 26 27  1  0
 26 28  1  0
 26 29  1  0
 25 30  2  0
 30 31  1  0
 17 32  1  0
 32 33  1  0
 32 34  2  0
 34 35  1  0
  8 36  1  0
 36 37  1  0
 36 38  2  0
 38 39  1  0
 38  3  1  0
 34 12  1  0
 30 22  1  0
M  CHG  3  11  -1  23  -1  39  -1
M  END
>  <UniqueID>  (18) 
18

>  <SMILES>  (18) 
Cc1c/c(=N/S(=O)(=O)c2ccc([N-]C(=O)c3ccc(O)c([O-])c3)cc2)[n-]o1

>  <Energy>  (18) 
80.85031558487688

>  <Genealogy>  (18) 
Cc1cc(=NS(=O)(=O)c2ccc([N-]C(=O)c3ccc(O)c([O-])c3)cc2)[n-]o1 (protonated)
Cc1c/c(=N/S(=O)(=O)c2ccc([N-]C(=O)c3ccc(O)c([O-])c3)cc2)[n-]o1 (cis-trans isomerization)
Cc1c/c(=N/S(=O)(=O)c2ccc([N-]C(=O)c3ccc(O)c([O-])c3)cc2)[n-]o1 (3D coordinates assigned)
Cc1c/c(=N/S(=O)(=O)c2ccc([N-]C(=O)c3ccc(O)c([O-])c3)cc2)[n-]o1 (optimized conformer: 80.85031558487688 kcal/mol)

>  <smiles>  (18) 
Cc1cc(=NS(=O)(=O)c2ccc(NC(=O)c3ccc(O)c(O)c3)cc2)[nH]o1

>  <score_type>  (18) 
oracle

>  <origin>  (18) 
adgpu

>  <m_score__min__energy>  (18) 
-12.74

>  <m_primary>  (18) 
energy

$$$$
18:0
     RDKit          3D

 39 40  0  0  0  0  0  0  0  0999 V2000
   -3.7280   25.3010  -30.8290 N   0  0  0  0  0  0  0  0  0  0  0  0
   -3.3160   23.8340  -30.0100 S   0  0  0  0  0  0  0  0  0  0  0  0
   -1.8410   23.8450  -29.7130 O   0  0  0  0  0  0  0  0  0  0  0  0
   -4.0820   23.7450  -28.7200 O   0  0  0  0  0  0  0  0  0  0  0  0
   -3.7080   22.4430  -31.0170 C   0  0  0  0  0  0  0  0  0  0  0  0
   -4.2150   21.2730  -30.4310 C   0  0  0  0  0  0  0  0  0  0  0  0
   -4.5780   20.1850  -31.2310 C   0  0  0  0  0  0  0  0  0  0  0  0
   -4.4500   20.2580  -32.6270 C   0  0  0  0  0  0  0  0  0  0  0  0
   -4.8150   19.0750  -33.4870 C   0  0  0  0  0  0  0  0  0  0  0  0
   -6.3190   18.8090  -33.4420 C   0  0  0  0  0  0  0  0  0  0  0  0
   -7.0530   20.0600  -33.6760 N   0  0  0  0  0  0  0  0  0  0  0  0
   -8.0730   20.4420  -32.3220 S   0  0  0  0  0  0  0  0  0  0  0  0
   -8.0610   19.3090  -31.3320 O   0  0  0  0  0  0  0  0  0  0  0  0
   -9.4850   20.6490  -32.7990 O   0  0  0  0  0  0  0  0  0  0  0  0
   -7.4990   21.9250  -31.5620 C   0  0  0  0  0  0  0  0  0  0  0  0
   -7.5930   22.0750  -30.1720 C   0  0  0  0  0  0  0  0  0  0  0  0
   -7.1450   23.2500  -29.5610 C   0  0  0  0  0  0  0  0  0  0  0  0
   -6.6150   24.2920  -30.3360 C   0  0  0  0  0  0  0  0  0  0  0  0
   -6.1410   25.4870  -29.7110 N   0  0  0  0  0  0  0  0  0  0  0  0
   -6.5460   24.1510  -31.7290 C   0  0  0  0  0  0  0  0  0  0  0  0
   -6.9840   22.9720  -32.3390 C   0  0  0  0  0  0  0  0  0  0  0  0
   -3.9230   21.4230  -33.2100 C   0  0  0  0  0  0  0  0  0  0  0  0
   -3.5630   22.5110  -32.4100 C   0  0  0  0  0  0  0  0  0  0  0  0
   -3.8710   26.0390  -30.0980 H   0  0  0  0  0  0  0  0  0  0  0  0
   -4.3273   21.2115  -29.3385 H   0  0  0  0  0  0  0  0  0  0  0  0
   -4.9657   19.2676  -30.7641 H   0  0  0  0  0  0  0  0  0  0  0  0
   -4.5168   19.2797  -34.5258 H   0  0  0  0  0  0  0  0  0  0  0  0
   -4.2904   18.1875  -33.1034 H   0  0  0  0  0  0  0  0  0  0  0  0
   -6.5842   18.0789  -34.2209 H   0  0  0  0  0  0  0  0  0  0  0  0
   -6.5877   18.4099  -32.4528 H   0  0  0  0  0  0  0  0  0  0  0  0
   -7.6690   19.9400  -34.5140 H   0  0  0  0  0  0  0  0  0  0  0  0
   -8.0201   21.2667  -29.5603 H   0  0  0  0  0  0  0  0  0  0  0  0
   -7.2084   23.3577  -28.4681 H   0  0  0  0  0  0  0  0  0  0  0  0
   -6.7530   26.3310  -29.6380 H   0  0  0  0  0  0  0  0  0  0  0  0
   -5.1650   25.5480  -29.3440 H   0  0  0  0  0  0  0  0  0  0  0  0
   -6.1460   24.9706  -32.3439 H   0  0  0  0  0  0  0  0  0  0  0  0
   -6.9244   22.8654  -33.4322 H   0  0  0  0  0  0  0  0  0  0  0  0
   -3.7932   21.4788  -34.3009 H   0  0  0  0  0  0  0  0  0  0  0  0
   -3.1642   23.4246  -32.8751 H   0  0  0  0  0  0  0  0  0  0  0  0
  1  2  1  0
  2  3  2  0
  2  4  2  0
  2  5  1  0
  5  6  2  0
  6  7  1  0
  7  8  2  0
  8  9  1  0
  9 10  1  0
 10 11  1  0
 11 12  1  0
 12 13  2  0
 12 14  2  0
 12 15  1  0
 15 16  2  0
 16 17  1  0
 17 18  2  0
 18 19  1  0
 18 20  1  0
 20 21  2  0
  8 22  1  0
 22 23  2  0
 23  5  1  0
 21 15  1  0
  1 24  1  0
  6 25  1  0
  7 26  1  0
  9 27  1  0
  9 28  1  0
 10 29  1  0
 10 30  1  0
 11 31  1  0
 16 32  1  0
 17 33  1  0
 19 34  1  0
 19 35  1  0
 20 36  1  0
 21 37  1  0
 22 38  1  0
 23 39  1  0
M  CHG  1   1  -1
M  END
>  <UniqueID>  (19) 
19

>  <SMILES>  (19) 
[NH-]S(=O)(=O)c1ccc(CCNS(=O)(=O)c2ccc(N)cc2)cc1

>  <Energy>  (19) 
29.547486616502695

>  <Genealogy>  (19) 
[NH-]S(=O)(=O)c1ccc(CCNS(=O)(=O)c2ccc(N)cc2)cc1 (protonated)
[NH-]S(=O)(=O)c1ccc(CCNS(=O)(=O)c2ccc(N)cc2)cc1 (3D coordinates assigned)
[NH-]S(=O)(=O)c1ccc(CCNS(=O)(=O)c2ccc(N)cc2)cc1 (optimized conformer: 29.547486616502695 kcal/mol)

>  <smiles>  (19) 
Nc1ccc(S(=O)(=O)NCCc2ccc(S(N)(=O)=O)cc2)cc1

>  <score_type>  (19) 
oracle

>  <origin>  (19) 
adgpu

>  <m_score__min__energy>  (19) 
-10.359999999999999

>  <m_primary>  (19) 
energy

$$$$
19:0
     RDKit          3D

 64 68  0  0  0  0  0  0  0  0999 V2000
    3.8270   17.2370  -29.6180 N   0  0  0  0  0  0  0  0  0  0  0  0
    2.1040   17.3470  -29.7170 S   0  0  0  0  0  0  0  0  0  0  0  0
    1.5110   16.6750  -28.5090 O   0  0  0  0  0  0  0  0  0  0  0  0
    1.7050   18.7990  -29.7290 O   0  0  0  0  0  0  0  0  0  0  0  0
    1.5090   16.5620  -31.1890 C   0  0  0  0  0  0  0  0  0  0  0  0
    0.3940   15.7130  -31.1210 C   0  0  0  0  0  0  0  0  0  0  0  0
   -0.0910   15.0860  -32.2720 C   0  0  0  0  0  0  0  0  0  0  0  0
    0.5450   15.2920  -33.4940 C   0  0  0  0  0  0  0  0  0  0  0  0
    1.6610   16.1280  -33.5740 C   0  0  0  0  0  0  0  0  0  0  0  0
    2.1460   16.7820  -32.4290 C   0  0  0  0  0  0  0  0  0  0  0  0
    3.3110   17.6180  -32.4890 N   0  0  0  0  0  0  0  0  0  0  0  0
    3.3430   19.0450  -32.3520 C   0  0  0  0  0  0  0  0  0  0  0  0
    3.7880   19.5830  -31.3030 O   0  0  0  0  0  0  0  0  0  0  0  0
    2.9300   19.9070  -33.5070 C   0  0  0  0  0  0  0  0  0  0  0  0
    1.4580   19.9890  -33.6110 N   0  0  0  0  0  0  0  0  0  0  0  0
    0.9250   18.9500  -34.5160 C   0  0  0  0  0  0  0  0  0  0  0  0
   -0.5930   19.0880  -34.6390 C   0  0  0  0  0  0  0  0  0  0  0  0
   -1.2220   19.0990  -33.3120 N   0  0  0  0  0  0  0  0  0  0  0  0
   -2.6370   18.8560  -33.2020 C   0  0  0  0  0  0  0  0  0  0  0  0
   -3.4900   19.8670  -32.7320 C   0  0  0  0  0  0  0  0  0  0  0  0
   -4.8790   19.6460  -32.5930 C   0  0  0  0  0  0  0  0  0  0  0  0
   -5.4100   18.3860  -32.9640 C   0  0  0  0  0  0  0  0  0  0  0  0
   -4.5480   17.3800  -33.4390 C   0  0  0  0  0  0  0  0  0  0  0  0
   -3.1770   17.6110  -33.5550 C   0  0  0  0  0  0  0  0  0  0  0  0
   -2.3840   16.6270  -34.0480 F   0  0  0  0  0  0  0  0  0  0  0  0
   -6.7950   18.1620  -32.8570 C   0  0  0  0  0  0  0  0  0  0  0  0
   -7.2770   17.0430  -33.1880 O   0  0  0  0  0  0  0  0  0  0  0  0
   -7.6410   19.1840  -32.3870 C   0  0  0  0  0  0  0  0  0  0  0  0
   -9.1120   18.9960  -32.2560 C   0  0  0  0  0  0  0  0  0  0  0  0
   -9.9080   19.8520  -32.7260 O   0  0  0  0  0  0  0  0  0  0  0  0
   -9.6380   17.8830  -31.6150 O   0  0  0  0  0  0  0  0  0  0  0  0
   -7.0680   20.4120  -32.0290 C   0  0  0  0  0  0  0  0  0  0  0  0
   -5.7230   20.6260  -32.1200 N   0  0  0  0  0  0  0  0  0  0  0  0
   -5.2360   21.9130  -31.6990 C   0  0  0  0  0  0  0  0  0  0  0  0
   -5.9400   23.0790  -32.0400 C   0  0  0  0  0  0  0  0  0  0  0  0
   -5.4780   24.3280  -31.6130 C   0  0  0  0  0  0  0  0  0  0  0  0
   -4.3180   24.4210  -30.8340 C   0  0  0  0  0  0  0  0  0  0  0  0
   -3.8630   25.6620  -30.4070 O   0  0  0  0  0  0  0  0  0  0  0  0
   -3.6190   23.2610  -30.4840 C   0  0  0  0  0  0  0  0  0  0  0  0
   -4.0760   22.0090  -30.9110 C   0  0  0  0  0  0  0  0  0  0  0  0
   -0.3780   19.0510  -32.1150 C   0  0  0  0  0  0  0  0  0  0  0  0
    0.8260   19.9980  -32.2610 C   0  0  0  0  0  0  0  0  0  0  0  0
    4.2120   17.6230  -30.5130 H   0  0  0  0  0  0  0  0  0  0  0  0
   -0.1021   15.5396  -30.1546 H   0  0  0  0  0  0  0  0  0  0  0  0
   -0.9730   14.4313  -32.2130 H   0  0  0  0  0  0  0  0  0  0  0  0
    0.1670   14.7945  -34.3993 H   0  0  0  0  0  0  0  0  0  0  0  0
    2.1641   16.2755  -34.5410 H   0  0  0  0  0  0  0  0  0  0  0  0
    3.3368   20.9189  -33.3634 H   0  0  0  0  0  0  0  0  0  0  0  0
    3.3210   19.4605  -34.4331 H   0  0  0  0  0  0  0  0  0  0  0  0
    1.3823   19.0639  -35.5099 H   0  0  0  0  0  0  0  0  0  0  0  0
    1.1640   17.9580  -34.1053 H   0  0  0  0  0  0  0  0  0  0  0  0
   -0.8293   20.0284  -35.1585 H   0  0  0  0  0  0  0  0  0  0  0  0
   -0.9814   18.2302  -35.2076 H   0  0  0  0  0  0  0  0  0  0  0  0
   -3.0699   20.8485  -32.4672 H   0  0  0  0  0  0  0  0  0  0  0  0
   -4.9600   16.4002  -33.7221 H   0  0  0  0  0  0  0  0  0  0  0  0
   -7.7174   21.2223  -31.6662 H   0  0  0  0  0  0  0  0  0  0  0  0
   -6.8566   23.0099  -32.6441 H   0  0  0  0  0  0  0  0  0  0  0  0
   -6.0273   25.2399  -31.8898 H   0  0  0  0  0  0  0  0  0  0  0  0
   -2.7080   23.3330  -29.8717 H   0  0  0  0  0  0  0  0  0  0  0  0
   -3.5265   21.0986  -30.6295 H   0  0  0  0  0  0  0  0  0  0  0  0
   -0.9729   19.3551  -31.2411 H   0  0  0  0  0  0  0  0  0  0  0  0
   -0.0066   18.0238  -31.9847 H   0  0  0  0  0  0  0  0  0  0  0  0
    0.4858   21.0220  -32.0475 H   0  0  0  0  0  0  0  0  0  0  0  0
    1.5910   19.6435  -31.5545 H   0  0  0  0  0  0  0  0  0  0  0  0
  1  2  1  0
  2  3  2  0
  2  4  2  0
  2  5  1  0
  5  6  2  0
  6  7  1  0
  7  8  2  0
  8  9  1  0
  9 10  2  0
 10 11  1  0
 11 12  1  0
 12 13  2  0
 12 14  1  0
 14 15  1  0
 15 16  1  0
 16 17  1  0
 17 18  1  0
 18 19  1  0
 19 20  2  0
 20 21  1  0
 21 22  2  0
 22 23  1  0
 23 24  2  0
 24 25  1  0
 22 26  1  0
 26 27  2  0
 26 28  1  0
 28 29  1  0
 29 30  2  0
 29 31  1  0
 28 32  2  0
 32 33  1  0
 33 34  1  0
 34 35  2  0
 35 36  1  0
 36 37  2  0
 37 38  1  0
 37 39  1  0
 39 40  2  0
 18 41  1  0
 41 42  1  0
 10  5  1  0
 42 15  1  0
 24 19  1  0
 40 34  1  0
 33 21  1  0
  1 43  1  0
  6 44  1  0
  7 45  1  0
  8 46  1  0
  9 47  1  0
 14 48  1  0
 14 49  1  0
 16 50  1  0
 16 51  1  0
 17 52  1  0
 17 53  1  0
 20 54  1  0
 23 55  1  0
 32 56  1  0
 35 57  1  0
 36 58  1  0
 39 59  1  0
 40 60  1  0
 41 61  1  0
 41 62  1  0
 42 63  1  0
 42 64  1  0
M  CHG  4   1  -1  11  -1  31  -1  38  -1
M  END
>  <UniqueID>  (20) 
20

>  <SMILES>  (20) 
[NH-]S(=O)(=O)c1ccccc1[N-]C(=O)CN1CCN(c2cc3c(cc2F)c(=O)c(C(=O)[O-])cn3-c2ccc([O-])cc2)CC1

>  <Energy>  (20) 
102.646034855717

>  <Genealogy>  (20) 
[NH-]S(=O)(=O)c1ccccc1[N-]C(=O)CN1CCN(c2cc3c(cc2F)c(=O)c(C(=O)[O-])cn3-c2ccc([O-])cc2)CC1 (protonated)
[NH-]S(=O)(=O)c1ccccc1[N-]C(=O)CN1CCN(c2cc3c(cc2F)c(=O)c(C(=O)[O-])cn3-c2ccc([O-])cc2)CC1 (3D coordinates assigned)
[NH-]S(=O)(=O)c1ccccc1[N-]C(=O)CN1CCN(c2cc3c(cc2F)c(=O)c(C(=O)[O-])cn3-c2ccc([O-])cc2)CC1 (nonaromatic ring conformer: 102.646034855717 kcal/mol)

>  <smiles>  (20) 
NS(=O)(=O)c1ccccc1NC(=O)CN1CCN(c2cc3c(cc2F)c(=O)c(C(=O)O)cn3-c2ccc(O)cc2)CC1

>  <score_type>  (20) 
oracle

>  <origin>  (20) 
adgpu

>  <m_score__min__energy>  (20) 
-14.75

>  <m_primary>  (20) 
energy

$$$$
20:0
     RDKit          3D

 40 42  0  0  0  0  0  0  0  0999 V2000
   -5.9270   25.3850  -30.0750 C   0  0  0  0  0  0  0  0  0  0  0  0
   -5.4390   24.1110  -30.7010 C   0  0  0  0  0  0  0  0  0  0  0  0
   -4.1310   23.6400  -30.7290 C   0  0  0  0  0  0  0  0  0  0  0  0
   -2.9480   24.2310  -30.1770 N   0  0  0  0  0  0  0  0  0  0  0  0
   -2.0080   23.5550  -29.3350 C   0  0  0  0  0  0  0  0  0  0  0  0
   -1.5980   22.4070  -29.6590 O   0  0  0  0  0  0  0  0  0  0  0  0
   -1.5550   24.1660  -28.0560 C   0  0  0  0  0  0  0  0  0  0  0  0
   -1.2850   23.3340  -26.9510 C   0  0  0  0  0  0  0  0  0  0  0  0
   -0.8580   23.8750  -25.7350 C   0  0  0  0  0  0  0  0  0  0  0  0
   -0.6910   25.2530  -25.5990 C   0  0  0  0  0  0  0  0  0  0  0  0
   -0.2650   25.7780  -24.3800 O   0  0  0  0  0  0  0  0  0  0  0  0
   -0.9500   26.0940  -26.6870 C   0  0  0  0  0  0  0  0  0  0  0  0
   -1.3770   25.5630  -27.9100 C   0  0  0  0  0  0  0  0  0  0  0  0
   -1.6120   26.4380  -28.9640 O   0  0  0  0  0  0  0  0  0  0  0  0
   -4.2150   22.3890  -31.2930 C   0  0  0  0  0  0  0  0  0  0  0  0
   -3.2540   21.5890  -31.4530 O   0  0  0  0  0  0  0  0  0  0  0  0
   -5.4940   22.1310  -31.6310 N   0  0  0  0  0  0  0  0  0  0  0  0
   -5.9760   20.9100  -32.2210 C   0  0  0  0  0  0  0  0  0  0  0  0
   -5.4080   20.4220  -33.4090 C   0  0  0  0  0  0  0  0  0  0  0  0
   -5.8860   19.2410  -33.9850 C   0  0  0  0  0  0  0  0  0  0  0  0
   -6.9390   18.5450  -33.3840 C   0  0  0  0  0  0  0  0  0  0  0  0
   -7.5170   19.0310  -32.2070 C   0  0  0  0  0  0  0  0  0  0  0  0
   -7.0410   20.2120  -31.6300 C   0  0  0  0  0  0  0  0  0  0  0  0
   -6.2360   23.1830  -31.2910 N   0  0  0  0  0  0  0  0  0  0  0  0
   -7.6820   23.3030  -31.4990 C   0  0  0  0  0  0  0  0  0  0  0  0
   -5.8915   25.2923  -28.9795 H   0  0  0  0  0  0  0  0  0  0  0  0
   -5.2848   26.2194  -30.3934 H   0  0  0  0  0  0  0  0  0  0  0  0
   -6.9623   25.5769  -30.3934 H   0  0  0  0  0  0  0  0  0  0  0  0
   -1.4119   22.2455  -27.0467 H   0  0  0  0  0  0  0  0  0  0  0  0
   -0.6529   23.2114  -24.8820 H   0  0  0  0  0  0  0  0  0  0  0  0
    0.2310   25.2090  -23.7040 H   0  0  0  0  0  0  0  0  0  0  0  0
   -0.8171   27.1807  -26.5805 H   0  0  0  0  0  0  0  0  0  0  0  0
   -4.5840   20.9709  -33.8882 H   0  0  0  0  0  0  0  0  0  0  0  0
   -5.4331   18.8592  -34.9119 H   0  0  0  0  0  0  0  0  0  0  0  0
   -7.3129   17.6150  -33.8370 H   0  0  0  0  0  0  0  0  0  0  0  0
   -8.3464   18.4839  -31.7351 H   0  0  0  0  0  0  0  0  0  0  0  0
   -7.5031   20.5961  -30.7086 H   0  0  0  0  0  0  0  0  0  0  0  0
   -8.1904   23.3452  -30.5244 H   0  0  0  0  0  0  0  0  0  0  0  0
   -7.8961   24.2220  -32.0643 H   0  0  0  0  0  0  0  0  0  0  0  0
   -8.0447   22.4319  -32.0643 H   0  0  0  0  0  0  0  0  0  0  0  0
  1  2  1  0
  2  3  2  0
  3  4  1  0
  4  5  1  0
  5  6  2  0
  5  7  1  0
  7  8  2  0
  8  9  1  0
  9 10  2  0
 10 11  1  0
 10 12  1  0
 12 13  2  0
 13 14  1  0
  3 15  1  0
 15 16  2  0
 15 17  1  0
 17 18  1  0
 18 19  2  0
 19 20  1  0
 20 21  2  0
 21 22  1  0
 22 23  2  0
 17 24  1  0
 24 25  1  0
 24  2  1  0
 13  7  1  0
 23 18  1  0
  1 26  1  0
  1 27  1  0
  1 28  1  0
  8 29  1  0
  9 30  1  0
 11 31  1  0
 12 32  1  0
 19 33  1  0
 20 34  1  0
 21 35  1  0
 22 36  1  0
 23 37  1  0
 25 38  1  0
 25 39  1  0
 25 40  1  0
M  CHG  2   4  -1  14  -1
M  END
>  <UniqueID>  (21) 
21

>  <SMILES>  (21) 
Cc1c([N-]C(=O)c2ccc(O)cc2[O-])c(=O)n(-c2ccccc2)n1C

>  <Energy>  (21) 
90.64184968537198

>  <Genealogy>  (21) 
Cc1c([N-]C(=O)c2ccc(O)cc2[O-])c(=O)n(-c2ccccc2)n1C (protonated)
Cc1c([N-]C(=O)c2ccc(O)cc2[O-])c(=O)n(-c2ccccc2)n1C (3D coordinates assigned)
Cc1c([N-]C(=O)c2ccc(O)cc2[O-])c(=O)n(-c2ccccc2)n1C (optimized conformer: 90.64184968537198 kcal/mol)

>  <smiles>  (21) 
Cc1c(NC(=O)c2ccc(O)cc2O)c(=O)n(-c2ccccc2)n1C

>  <score_type>  (21) 
oracle

>  <origin>  (21) 
adgpu

>  <m_score__min__energy>  (21) 
-12.289999999999999

>  <m_primary>  (21) 
energy

$$$$
21:0
     RDKit          3D

 38 40  0  0  0  0  0  0  0  0999 V2000
   -7.2470   15.2190  -34.2490 O   0  0  0  0  0  0  0  0  0  0  0  0
   -6.7770   16.2250  -33.6560 C   0  0  0  0  0  0  0  0  0  0  0  0
   -7.6420   16.9910  -32.8060 N   0  0  0  0  0  0  0  0  0  0  0  0
   -7.5220   18.3890  -32.5100 C   0  0  0  0  0  0  0  0  0  0  0  0
   -6.3590   18.9240  -31.9280 C   0  0  0  0  0  0  0  0  0  0  0  0
   -6.2740   20.2920  -31.6560 C   0  0  0  0  0  0  0  0  0  0  0  0
   -7.3480   21.1460  -31.9580 C   0  0  0  0  0  0  0  0  0  0  0  0
   -7.2880   22.5530  -31.6700 N   0  0  0  0  0  0  0  0  0  0  0  0
   -6.1250   23.2260  -31.1570 C   0  0  0  0  0  0  0  0  0  0  0  0
   -6.2850   24.3740  -30.3660 C   0  0  0  0  0  0  0  0  0  0  0  0
   -5.1680   25.0590  -29.8780 C   0  0  0  0  0  0  0  0  0  0  0  0
   -3.8800   24.6120  -30.1890 C   0  0  0  0  0  0  0  0  0  0  0  0
   -2.7710   25.2930  -29.7030 O   0  0  0  0  0  0  0  0  0  0  0  0
   -3.7110   23.4820  -30.9940 C   0  0  0  0  0  0  0  0  0  0  0  0
   -4.8260   22.7950  -31.4840 C   0  0  0  0  0  0  0  0  0  0  0  0
   -8.5270   20.5990  -32.4860 C   0  0  0  0  0  0  0  0  0  0  0  0
   -8.6120   19.2310  -32.7590 C   0  0  0  0  0  0  0  0  0  0  0  0
   -5.3570   16.5860  -33.8640 C   0  0  0  0  0  0  0  0  0  0  0  0
   -4.3640   15.7480  -33.3260 C   0  0  0  0  0  0  0  0  0  0  0  0
   -3.0140   16.0890  -33.4360 C   0  0  0  0  0  0  0  0  0  0  0  0
   -2.6390   17.2630  -34.0890 C   0  0  0  0  0  0  0  0  0  0  0  0
   -3.6130   18.0910  -34.6510 C   0  0  0  0  0  0  0  0  0  0  0  0
   -4.9690   17.7550  -34.5640 C   0  0  0  0  0  0  0  0  0  0  0  0
   -5.8940   18.5820  -35.2030 O   0  0  0  0  0  0  0  0  0  0  0  0
   -5.5134   18.2634  -31.6861 H   0  0  0  0  0  0  0  0  0  0  0  0
   -5.3601   20.7030  -31.2024 H   0  0  0  0  0  0  0  0  0  0  0  0
   -8.1430   23.1250  -31.8510 H   0  0  0  0  0  0  0  0  0  0  0  0
   -7.2957   24.7373  -30.1283 H   0  0  0  0  0  0  0  0  0  0  0  0
   -5.3026   25.9509  -29.2484 H   0  0  0  0  0  0  0  0  0  0  0  0
   -2.6982   23.1322  -31.2427 H   0  0  0  0  0  0  0  0  0  0  0  0
   -4.6871   21.9140  -32.1278 H   0  0  0  0  0  0  0  0  0  0  0  0
   -9.3900   21.2509  -32.6864 H   0  0  0  0  0  0  0  0  0  0  0  0
   -9.5418   18.8132  -33.1724 H   0  0  0  0  0  0  0  0  0  0  0  0
   -4.6525   14.8176  -32.8150 H   0  0  0  0  0  0  0  0  0  0  0  0
   -2.2448   15.4302  -33.0067 H   0  0  0  0  0  0  0  0  0  0  0  0
   -1.5760   17.5367  -34.1613 H   0  0  0  0  0  0  0  0  0  0  0  0
   -3.3121   19.0150  -35.1664 H   0  0  0  0  0  0  0  0  0  0  0  0
   -6.8780   18.5920  -34.9690 H   0  0  0  0  0  0  0  0  0  0  0  0
  1  2  2  0
  2  3  1  0
  3  4  1  0
  4  5  2  0
  5  6  1  0
  6  7  2  0
  7  8  1  0
  8  9  1  0
  9 10  2  0
 10 11  1  0
 11 12  2  0
 12 13  1  0
 12 14  1  0
 14 15  2  0
  7 16  1  0
 16 17  2  0
  2 18  1  0
 18 19  2  0
 19 20  1  0
 20 21  2  0
 21 22  1  0
 22 23  2  0
 23 24  1  0
 17  4  1  0
 23 18  1  0
 15  9  1  0
  5 25  1  0
  6 26  1  0
  8 27  1  0
 10 28  1  0
 11 29  1  0
 14 30  1  0
 15 31  1  0
 16 32  1  0
 17 33  1  0
 19 34  1  0
 20 35  1  0
 21 36  1  0
 22 37  1  0
 24 38  1  0
M  CHG  2   3  -1  13  -1
M  END
>  <UniqueID>  (22) 
22

>  <SMILES>  (22) 
O=C([N-]c1ccc(Nc2ccc([O-])cc2)cc1)c1ccccc1O

>  <Energy>  (22) 
55.76764060909707

>  <Genealogy>  (22) 
O=C([N-]c1ccc(Nc2ccc([O-])cc2)cc1)c1ccccc1O (protonated)
O=C([N-]c1ccc(Nc2ccc([O-])cc2)cc1)c1ccccc1O (3D coordinates assigned)
O=C([N-]c1ccc(Nc2ccc([O-])cc2)cc1)c1ccccc1O (optimized conformer: 55.76764060909707 kcal/mol)

>  <smiles>  (22) 
O=C(Nc1ccc(Nc2ccc(O)cc2)cc1)c1ccccc1O

>  <score_type>  (22) 
oracle

>  <origin>  (22) 
adgpu

>  <m_score__min__energy>  (22) 
-10.359999999999999

>  <m_primary>  (22) 
energy

$$$$
22:0
     RDKit          3D

 23 23  0  0  0  0  0  0  0  0999 V2000
   -4.1760   21.0170  -33.0330 C   0  0  0  0  0  0  0  0  0  0  0  0
   -5.5160   21.5130  -32.7320 N   0  0  0  0  0  0  0  0  0  0  0  0
   -5.7680   22.6410  -31.8690 C   0  0  0  0  0  0  0  0  0  0  0  0
   -4.7030   23.4360  -31.4070 C   0  0  0  0  0  0  0  0  0  0  0  0
   -4.9130   24.4850  -30.5000 C   0  0  0  0  0  0  0  0  0  0  0  0
   -3.7910   25.2860  -30.1020 N   0  0  0  0  0  0  0  0  0  0  0  0
   -6.2170   24.7320  -30.0160 C   0  0  0  0  0  0  0  0  0  0  0  0
   -6.4850   25.7420  -29.0350 N   0  0  0  0  0  0  0  0  0  0  0  0
   -7.2830   23.9580  -30.4940 C   0  0  0  0  0  0  0  0  0  0  0  0
   -7.0800   22.9300  -31.4260 C   0  0  0  0  0  0  0  0  0  0  0  0
   -8.2200   22.2140  -31.9310 N   0  0  0  0  0  0  0  0  0  0  0  0
   -9.3250   22.7840  -32.0350 O   0  0  0  0  0  0  0  0  0  0  0  0
   -8.1630   20.8470  -32.0780 O   0  0  0  0  0  0  0  0  0  0  0  0
   -3.6390   20.8182  -32.0938 H   0  0  0  0  0  0  0  0  0  0  0  0
   -4.2515   20.0873  -33.6160 H   0  0  0  0  0  0  0  0  0  0  0  0
   -3.6280   21.7719  -33.6160 H   0  0  0  0  0  0  0  0  0  0  0  0
   -6.3160   21.0100  -33.1760 H   0  0  0  0  0  0  0  0  0  0  0  0
   -3.6834   23.2303  -31.7650 H   0  0  0  0  0  0  0  0  0  0  0  0
   -3.5690   25.4170  -29.0900 H   0  0  0  0  0  0  0  0  0  0  0  0
   -3.1080   25.6740  -30.7860 H   0  0  0  0  0  0  0  0  0  0  0  0
   -6.5830   26.7500  -29.2780 H   0  0  0  0  0  0  0  0  0  0  0  0
   -6.4860   25.5020  -28.0180 H   0  0  0  0  0  0  0  0  0  0  0  0
   -8.3010   24.1612  -30.1303 H   0  0  0  0  0  0  0  0  0  0  0  0
  1  2  1  0
  2  3  1  0
  3  4  2  0
  4  5  1  0
  5  6  1  0
  5  7  2  0
  7  8  1  0
  7  9  1  0
  9 10  2  0
 10 11  1  0
 11 12  2  0
 11 13  1  0
 10  3  1  0
  1 14  1  0
  1 15  1  0
  1 16  1  0
  2 17  1  0
  4 18  1  0
  6 19  1  0
  6 20  1  0
  8 21  1  0
  8 22  1  0
  9 23  1  0
M  CHG  2  11   1  13  -1
M  END
>  <UniqueID>  (23) 
23

>  <SMILES>  (23) 
CNc1cc(N)c(N)cc1[N+](=O)[O-]

>  <Energy>  (23) 
27.876046410079045

>  <Genealogy>  (23) 
CNc1cc(N)c(N)cc1[N+](=O)[O-] (3D coordinates assigned)
CNc1cc(N)c(N)cc1[N+](=O)[O-] (optimized conformer: 27.876046410079045 kcal/mol)

>  <smiles>  (23) 
CNc1cc(N)c(N)cc1[N+](=O)[O-]

>  <score_type>  (23) 
oracle

>  <origin>  (23) 
adgpu

>  <m_score__min__energy>  (23) 
-5.6399999999999997

>  <m_primary>  (23) 
energy

$$$$
23:0
     RDKit          3D

 43 46  0  0  0  0  0  0  0  0999 V2000
    0.0202   25.2915  -26.3778 H   0  0  0  0  0  0  0  0  0  0  0  0
   -0.7850   25.1880  -27.1200 C   0  0  0  0  0  0  0  0  0  0  0  0
   -0.7700   25.6820  -28.3400 O   0  0  0  0  0  0  0  0  0  0  0  0
   -1.8690   25.3880  -28.9700 N   0  0  0  0  0  0  0  0  0  0  0  0
   -2.0830   25.6730  -29.9520 H   0  0  0  0  0  0  0  0  0  0  0  0
   -2.6320   24.6710  -28.1250 C   0  0  0  0  0  0  0  0  0  0  0  0
   -3.8100   24.1930  -28.3930 N   0  0  0  0  0  0  0  0  0  0  0  0
   -4.6200   24.3970  -29.9120 S   0  0  0  0  0  0  0  0  0  0  0  0
   -6.0870   24.6310  -29.6830 O   0  0  0  0  0  0  0  0  0  0  0  0
   -4.0400   25.5720  -30.6490 O   0  0  0  0  0  0  0  0  0  0  0  0
   -4.3990   22.9390  -30.8720 C   0  0  0  0  0  0  0  0  0  0  0  0
   -5.4050   21.9680  -30.9180 C   0  0  0  0  0  0  0  0  0  0  0  0
   -6.3399   22.1241  -30.3597 H   0  0  0  0  0  0  0  0  0  0  0  0
   -5.2320   20.8020  -31.6670 C   0  0  0  0  0  0  0  0  0  0  0  0
   -6.0310   20.0463  -31.6920 H   0  0  0  0  0  0  0  0  0  0  0  0
   -4.0410   20.5850  -32.3920 C   0  0  0  0  0  0  0  0  0  0  0  0
   -3.8340   19.4120  -33.1640 C   0  0  0  0  0  0  0  0  0  0  0  0
   -4.8780   18.3740  -33.3250 C   0  0  0  0  0  0  0  0  0  0  0  0
   -6.1450   18.5580  -32.7510 C   0  0  0  0  0  0  0  0  0  0  0  0
   -6.3522   19.4695  -32.1712 H   0  0  0  0  0  0  0  0  0  0  0  0
   -7.1490   17.5940  -32.9080 C   0  0  0  0  0  0  0  0  0  0  0  0
   -8.3950   17.8260  -32.3070 O   0  0  0  0  0  0  0  0  0  0  0  0
   -8.9000   19.1150  -31.9740 C   0  0  0  0  0  0  0  0  0  0  0  0
   -8.9416   19.2211  -30.8799 H   0  0  0  0  0  0  0  0  0  0  0  0
   -8.2380   19.8875  -32.3924 H   0  0  0  0  0  0  0  0  0  0  0  0
   -9.9105   19.2322  -32.3924 H   0  0  0  0  0  0  0  0  0  0  0  0
   -6.8770   16.4340  -33.6580 C   0  0  0  0  0  0  0  0  0  0  0  0
   -7.6567   15.6689  -33.7871 H   0  0  0  0  0  0  0  0  0  0  0  0
   -5.6190   16.2520  -34.2390 C   0  0  0  0  0  0  0  0  0  0  0  0
   -5.4130   15.3443  -34.8252 H   0  0  0  0  0  0  0  0  0  0  0  0
   -4.6220   17.2170  -34.0790 C   0  0  0  0  0  0  0  0  0  0  0  0
   -3.4050   17.0170  -34.6460 F   0  0  0  0  0  0  0  0  0  0  0  0
   -2.6080   19.2280  -33.8220 C   0  0  0  0  0  0  0  0  0  0  0  0
   -2.4384   18.3139  -34.4099 H   0  0  0  0  0  0  0  0  0  0  0  0
   -1.6020   20.1910  -33.7390 C   0  0  0  0  0  0  0  0  0  0  0  0
   -0.6468   20.0315  -34.2607 H   0  0  0  0  0  0  0  0  0  0  0  0
   -1.8020   21.3540  -32.9980 C   0  0  0  0  0  0  0  0  0  0  0  0
   -1.0078   22.1132  -32.9447 H   0  0  0  0  0  0  0  0  0  0  0  0
   -3.0120   21.5600  -32.3200 C   0  0  0  0  0  0  0  0  0  0  0  0
   -3.2020   22.7280  -31.5640 C   0  0  0  0  0  0  0  0  0  0  0  0
   -2.4033   23.4828  -31.5157 H   0  0  0  0  0  0  0  0  0  0  0  0
   -1.9780   24.5180  -26.9240 C   0  0  0  0  0  0  0  0  0  0  0  0
   -2.3223   23.9889  -26.0232 H   0  0  0  0  0  0  0  0  0  0  0  0
  1  2  1  0
  2  3  1  0
  3  4  1  0
  4  5  1  0
  4  6  1  0
  6  7  2  0
  7  8  1  0
  8  9  2  0
  8 10  2  0
  8 11  1  0
 11 12  2  0
 12 13  1  0
 12 14  1  0
 14 15  1  0
 14 16  2  0
 16 17  1  0
 17 18  1  0
 18 19  2  0
 19 20  1  0
 19 21  1  0
 21 22  1  0
 22 23  1  0
 23 24  1  0
 23 25  1  0
 23 26  1  0
 21 27  2  0
 27 28  1  0
 27 29  1  0
 29 30  1  0
 29 31  2  0
 31 32  1  0
 17 33  2  0
 33 34  1  0
 33 35  1  0
 35 36  1  0
 35 37  2  0
 37 38  1  0
 37 39  1  0
 39 40  2  0
 40 41  1  0
  6 42  1  0
 42 43  1  0
 42  2  2  0
 40 11  1  0
 39 16  1  0
 31 18  1  0
M  END
>  <UniqueID>  (24) 
24

>  <SMILES>  (24) 
COc1ccc(F)c(-c2cccc3cc(S(=O)(=O)/N=c4/cco[nH]4)ccc23)c1

>  <Energy>  (24) 
95.03248962614147

>  <Genealogy>  (24) 
COc1ccc(F)c(-c2cccc3cc(S(=O)(=O)/N=c4/cco[nH]4)ccc23)c1 (cis-trans isomerization)
COc1ccc(F)c(-c2cccc3cc(S(=O)(=O)/N=c4/cco[nH]4)ccc23)c1 (3D coordinates assigned)
COc1ccc(F)c(-c2cccc3cc(S(=O)(=O)/N=c4/cco[nH]4)ccc23)c1 (optimized conformer: 95.03248962614147 kcal/mol)

>  <smiles>  (24) 
COc1ccc(F)c(-c2cccc3cc(S(=O)(=O)N=c4cco[nH]4)ccc23)c1

>  <score_type>  (24) 
oracle

>  <origin>  (24) 
adgpu

>  <m_score__min__energy>  (24) 
-11.619999999999999

>  <m_primary>  (24) 
energy

$$$$
24:0
     RDKit          3D

 49 52  0  0  0  0  0  0  0  0999 V2000
   -9.4160   22.8030  -31.9820 C   0  0  0  0  0  0  0  0  0  0  0  0
   -9.0300   21.3610  -32.0430 C   0  0  0  0  0  0  0  0  0  0  0  0
   -9.8770   20.3910  -32.3030 O   0  0  0  0  0  0  0  0  0  0  0  0
   -9.2300   19.2470  -32.2880 C   0  0  0  0  0  0  0  0  0  0  0  0
   -7.8960   19.4670  -32.0040 C   0  0  0  0  0  0  0  0  0  0  0  0
   -7.7660   20.8310  -31.8450 C   0  0  0  0  0  0  0  0  0  0  0  0
   -6.5230   21.5530  -31.5390 C   0  0  0  0  0  0  0  0  0  0  0  0
   -6.4770   22.6530  -30.7510 N   0  0  0  0  0  0  0  0  0  0  0  0
   -5.1690   22.9650  -30.7420 C   0  0  0  0  0  0  0  0  0  0  0  0
   -4.4920   24.3250  -29.8630 S   0  0  0  0  0  0  0  0  0  0  0  0
   -3.8680   25.2910  -30.8300 O   0  0  0  0  0  0  0  0  0  0  0  0
   -5.5950   25.0230  -29.1200 O   0  0  0  0  0  0  0  0  0  0  0  0
   -3.2540   23.7510  -28.7500 C   0  0  0  0  0  0  0  0  0  0  0  0
   -3.2790   22.4190  -28.3120 C   0  0  0  0  0  0  0  0  0  0  0  0
   -2.3070   21.9550  -27.4200 C   0  0  0  0  0  0  0  0  0  0  0  0
   -1.3080   22.8180  -26.9600 C   0  0  0  0  0  0  0  0  0  0  0  0
   -1.2810   24.1480  -27.3930 C   0  0  0  0  0  0  0  0  0  0  0  0
   -2.2510   24.6150  -28.2860 C   0  0  0  0  0  0  0  0  0  0  0  0
   -4.4780   22.0570  -31.5100 C   0  0  0  0  0  0  0  0  0  0  0  0
   -2.7100   22.0060  -31.8120 S   0  0  0  0  0  0  0  0  0  0  0  0
   -2.8610   21.2080  -33.4490 C   0  0  0  0  0  0  0  0  0  0  0  0
   -3.2720   19.7720  -33.3090 C   0  0  0  0  0  0  0  0  0  0  0  0
   -2.4570   18.9390  -32.8270 O   0  0  0  0  0  0  0  0  0  0  0  0
   -4.5820   19.3530  -33.7240 N   0  0  0  0  0  0  0  0  0  0  0  0
   -4.9850   17.9790  -33.8670 C   0  0  0  0  0  0  0  0  0  0  0  0
   -6.3530   17.6620  -33.8850 C   0  0  0  0  0  0  0  0  0  0  0  0
   -6.7710   16.3380  -34.0530 C   0  0  0  0  0  0  0  0  0  0  0  0
   -5.8270   15.3190  -34.2160 C   0  0  0  0  0  0  0  0  0  0  0  0
   -6.3520   13.6600  -34.4360 Cl  0  0  0  0  0  0  0  0  0  0  0  0
   -4.4630   15.6270  -34.2230 C   0  0  0  0  0  0  0  0  0  0  0  0
   -4.0420   16.9490  -34.0580 C   0  0  0  0  0  0  0  0  0  0  0  0
   -5.3400   21.2000  -31.9920 O   0  0  0  0  0  0  0  0  0  0  0  0
   -9.4998   23.1160  -30.9308 H   0  0  0  0  0  0  0  0  0  0  0  0
   -8.6486   23.4096  -32.4851 H   0  0  0  0  0  0  0  0  0  0  0  0
  -10.3838   22.9451  -32.4851 H   0  0  0  0  0  0  0  0  0  0  0  0
   -9.6829   18.2619  -32.4738 H   0  0  0  0  0  0  0  0  0  0  0  0
   -7.1016   18.7106  -31.9217 H   0  0  0  0  0  0  0  0  0  0  0  0
   -4.0647   21.7378  -28.6708 H   0  0  0  0  0  0  0  0  0  0  0  0
   -2.3286   20.9092  -27.0797 H   0  0  0  0  0  0  0  0  0  0  0  0
   -0.5441   22.4517  -26.2584 H   0  0  0  0  0  0  0  0  0  0  0  0
   -0.4956   24.8276  -27.0306 H   0  0  0  0  0  0  0  0  0  0  0  0
   -2.2273   25.6612  -28.6249 H   0  0  0  0  0  0  0  0  0  0  0  0
   -3.6175   21.7429  -34.0419 H   0  0  0  0  0  0  0  0  0  0  0  0
   -1.8825   21.2461  -33.9500 H   0  0  0  0  0  0  0  0  0  0  0  0
   -5.3130   20.0900  -33.8510 H   0  0  0  0  0  0  0  0  0  0  0  0
   -7.1005   18.4602  -33.7662 H   0  0  0  0  0  0  0  0  0  0  0  0
   -7.8444   16.0976  -34.0570 H   0  0  0  0  0  0  0  0  0  0  0  0
   -3.7202   14.8271  -34.3586 H   0  0  0  0  0  0  0  0  0  0  0  0
   -2.9683   17.1874  -34.0773 H   0  0  0  0  0  0  0  0  0  0  0  0
  1  2  1  0
  2  3  1  0
  3  4  1  0
  4  5  2  0
  5  6  1  0
  6  7  1  0
  7  8  2  0
  8  9  1  0
  9 10  1  0
 10 11  2  0
 10 12  2  0
 10 13  1  0
 13 14  2  0
 14 15  1  0
 15 16  2  0
 16 17  1  0
 17 18  2  0
  9 19  2  0
 19 20  1  0
 20 21  1  0
 21 22  1  0
 22 23  2  0
 22 24  1  0
 24 25  1  0
 25 26  2  0
 26 27  1  0
 27 28  2  0
 28 29  1  0
 28 30  1  0
 30 31  2  0
 19 32  1  0
  6  2  2  0
 32  7  1  0
 18 13  1  0
 31 25  1  0
  1 33  1  0
  1 34  1  0
  1 35  1  0
  4 36  1  0
  5 37  1  0
 14 38  1  0
 15 39  1  0
 16 40  1  0
 17 41  1  0
 18 42  1  0
 21 43  1  0
 21 44  1  0
 24 45  1  0
 26 46  1  0
 27 47  1  0
 30 48  1  0
 31 49  1  0
M  END
>  <UniqueID>  (25) 
25

>  <SMILES>  (25) 
Cc1occc1-c1nc(S(=O)(=O)c2ccccc2)c(SCC(=O)Nc2ccc(Cl)cc2)o1

>  <Energy>  (25) 
108.57719343563684

>  <Genealogy>  (25) 
Cc1occc1-c1nc(S(=O)(=O)c2ccccc2)c(SCC(=O)Nc2ccc(Cl)cc2)o1 (3D coordinates assigned)
Cc1occc1-c1nc(S(=O)(=O)c2ccccc2)c(SCC(=O)Nc2ccc(Cl)cc2)o1 (optimized conformer: 108.57719343563684 kcal/mol)

>  <smiles>  (25) 
Cc1occc1-c1nc(S(=O)(=O)c2ccccc2)c(SCC(=O)Nc2ccc(Cl)cc2)o1

>  <score_type>  (25) 
oracle

>  <origin>  (25) 
adgpu

>  <m_score__min__energy>  (25) 
-9.8800000000000008

>  <m_primary>  (25) 
energy

$$$$
25:0
     RDKit          3D

 57 60  0  0  0  0  0  0  0  0999 V2000
   -9.2890   18.7080  -30.9340 O   0  0  0  0  0  0  0  0  0  0  0  0
   -8.2890   19.1420  -31.5650 C   0  0  0  0  0  0  0  0  0  0  0  0
   -8.1740   20.5530  -31.7930 N   0  0  0  0  0  0  0  0  0  0  0  0
   -6.9350   21.2630  -31.9480 C   0  0  0  0  0  0  0  0  0  0  0  0
   -5.9750   20.7770  -32.8420 C   0  0  0  0  0  0  0  0  0  0  0  0
   -4.7730   21.4680  -33.0310 C   0  0  0  0  0  0  0  0  0  0  0  0
   -4.5350   22.6630  -32.3430 C   0  0  0  0  0  0  0  0  0  0  0  0
   -5.5040   23.1750  -31.4680 C   0  0  0  0  0  0  0  0  0  0  0  0
   -5.2370   24.7040  -30.6340 S   0  0  0  0  0  0  0  0  0  0  0  0
   -5.8000   25.8300  -31.4530 O   0  0  0  0  0  0  0  0  0  0  0  0
   -5.9350   24.6830  -29.3040 O   0  0  0  0  0  0  0  0  0  0  0  0
   -3.5380   24.9200  -30.3480 N   0  0  0  0  0  0  0  0  0  0  0  0
   -2.8100   24.3130  -29.2740 C   0  0  0  0  0  0  0  0  0  0  0  0
   -3.2180   23.0950  -28.7060 C   0  0  0  0  0  0  0  0  0  0  0  0
   -2.4940   22.5360  -27.6490 C   0  0  0  0  0  0  0  0  0  0  0  0
   -1.3580   23.1820  -27.1550 C   0  0  0  0  0  0  0  0  0  0  0  0
   -0.9370   24.3850  -27.7270 C   0  0  0  0  0  0  0  0  0  0  0  0
   -1.6530   24.9460  -28.7900 C   0  0  0  0  0  0  0  0  0  0  0  0
   -1.2240   26.1440  -29.3500 O   0  0  0  0  0  0  0  0  0  0  0  0
   -6.6960   22.4680  -31.2670 C   0  0  0  0  0  0  0  0  0  0  0  0
   -7.2860   18.1880  -32.0910 C   0  0  0  0  0  0  0  0  0  0  0  0
   -6.4160   17.5150  -31.2180 C   0  0  0  0  0  0  0  0  0  0  0  0
   -5.4530   16.6340  -31.7160 C   0  0  0  0  0  0  0  0  0  0  0  0
   -5.3500   16.4050  -33.0930 C   0  0  0  0  0  0  0  0  0  0  0  0
   -4.1290   15.2930  -33.7200 S   0  0  0  0  0  0  0  0  0  0  0  0
   -4.7170   14.5050  -34.8600 O   0  0  0  0  0  0  0  0  0  0  0  0
   -3.7410   14.3200  -32.6400 O   0  0  0  0  0  0  0  0  0  0  0  0
   -2.6940   16.1390  -34.2530 N   0  0  0  0  0  0  0  0  0  0  0  0
   -1.6920   16.1600  -33.1720 C   0  0  0  0  0  0  0  0  0  0  0  0
   -0.4520   16.9500  -33.6000 C   0  0  0  0  0  0  0  0  0  0  0  0
   -0.7940   18.3870  -34.0420 C   0  0  0  0  0  0  0  0  0  0  0  0
   -2.3050   18.6400  -34.1320 C   0  0  0  0  0  0  0  0  0  0  0  0
   -3.0140   17.4710  -34.8340 C   0  0  0  0  0  0  0  0  0  0  0  0
   -6.2190   17.0710  -33.9690 C   0  0  0  0  0  0  0  0  0  0  0  0
   -7.1720   17.9660  -33.4720 C   0  0  0  0  0  0  0  0  0  0  0  0
   -6.1659   19.8477  -33.3988 H   0  0  0  0  0  0  0  0  0  0  0  0
   -4.0141   21.0712  -33.7214 H   0  0  0  0  0  0  0  0  0  0  0  0
   -3.5869   23.2014  -32.4886 H   0  0  0  0  0  0  0  0  0  0  0  0
   -4.1092   22.5799  -29.0938 H   0  0  0  0  0  0  0  0  0  0  0  0
   -2.8199   21.5840  -27.2045 H   0  0  0  0  0  0  0  0  0  0  0  0
   -0.7959   22.7441  -26.3170 H   0  0  0  0  0  0  0  0  0  0  0  0
   -0.0406   24.8923  -27.3408 H   0  0  0  0  0  0  0  0  0  0  0  0
   -7.4515   22.8596  -30.5699 H   0  0  0  0  0  0  0  0  0  0  0  0
   -6.4934   17.6828  -30.1336 H   0  0  0  0  0  0  0  0  0  0  0  0
   -4.7725   16.1179  -31.0228 H   0  0  0  0  0  0  0  0  0  0  0  0
   -2.1316   16.6323  -32.2811 H   0  0  0  0  0  0  0  0  0  0  0  0
   -1.3926   15.1258  -32.9466 H   0  0  0  0  0  0  0  0  0  0  0  0
    0.2464   16.9982  -32.7515 H   0  0  0  0  0  0  0  0  0  0  0  0
   -0.0050   16.4317  -34.4611 H   0  0  0  0  0  0  0  0  0  0  0  0
   -0.3631   19.0901  -33.3141 H   0  0  0  0  0  0  0  0  0  0  0  0
   -0.3744   18.5317  -35.0485 H   0  0  0  0  0  0  0  0  0  0  0  0
   -2.7129   18.7516  -33.1166 H   0  0  0  0  0  0  0  0  0  0  0  0
   -2.4745   19.5566  -34.7160 H   0  0  0  0  0  0  0  0  0  0  0  0
   -4.1000   17.6296  -34.7607 H   0  0  0  0  0  0  0  0  0  0  0  0
   -2.6597   17.4600  -35.8753 H   0  0  0  0  0  0  0  0  0  0  0  0
   -6.1509   16.8888  -35.0517 H   0  0  0  0  0  0  0  0  0  0  0  0
   -7.8363   18.4992  -34.1680 H   0  0  0  0  0  0  0  0  0  0  0  0
  1  2  2  0
  2  3  1  0
  3  4  1  0
  4  5  2  0
  5  6  1  0
  6  7  2  0
  7  8  1  0
  8  9  1  0
  9 10  2  0
  9 11  2  0
  9 12  1  0
 12 13  1  0
 13 14  2  0
 14 15  1  0
 15 16  2  0
 16 17  1  0
 17 18  2  0
 18 19  1  0
  8 20  2  0
  2 21  1  0
 21 22  2  0
 22 23  1  0
 23 24  2  0
 24 25  1  0
 25 26  2  0
 25 27  2  0
 25 28  1  0
 28 29  1  0
 29 30  1  0
 30 31  1  0
 31 32  1  0
 32 33  1  0
 24 34  1  0
 34 35  2  0
 20  4  1  0
 35 21  1  0
 18 13  1  0
 33 28  1  0
  5 36  1  0
  6 37  1  0
  7 38  1  0
 14 39  1  0
 15 40  1  0
 16 41  1  0
 17 42  1  0
 20 43  1  0
 22 44  1  0
 23 45  1  0
 29 46  1  0
 29 47  1  0
 30 48  1  0
 30 49  1  0
 31 50  1  0
 31 51  1  0
 32 52  1  0
 32 53  1  0
 33 54  1  0
 33 55  1  0
 34 56  1  0
 35 57  1  0
M  CHG  3   3  -1  12  -1  19  -1
M  END
>  <UniqueID>  (26) 
26

>  <SMILES>  (26) 
O=C([N-]c1cccc(S(=O)(=O)[N-]c2ccccc2[O-])c1)c1ccc(S(=O)(=O)N2CCCCC2)cc1

>  <Energy>  (26) 
74.57303784604265

>  <Genealogy>  (26) 
O=C([N-]c1cccc(S(=O)(=O)[N-]c2ccccc2[O-])c1)c1ccc(S(=O)(=O)N2CCCCC2)cc1 (protonated)
O=C([N-]c1cccc(S(=O)(=O)[N-]c2ccccc2[O-])c1)c1ccc(S(=O)(=O)N2CCCCC2)cc1 (3D coordinates assigned)
O=C([N-]c1cccc(S(=O)(=O)[N-]c2ccccc2[O-])c1)c1ccc(S(=O)(=O)N2CCCCC2)cc1 (nonaromatic ring conformer: 74.57303784604265 kcal/mol)

>  <smiles>  (26) 
O=C(Nc1cccc(S(=O)(=O)Nc2ccccc2O)c1)c1ccc(S(=O)(=O)N2CCCCC2)cc1

>  <score_type>  (26) 
oracle

>  <origin>  (26) 
adgpu

>  <m_score__min__energy>  (26) 
-14.220000000000001

>  <m_primary>  (26) 
energy

$$$$
26:0
     RDKit          3D

 46 50  0  0  0  0  0  0  0  0999 V2000
    0.0580   27.0830  -25.4490 O   0  0  0  0  0  0  0  0  0  0  0  0
   -0.4320   25.6720  -25.2710 S   0  0  0  0  0  0  0  0  0  0  0  0
   -1.1560   25.5990  -23.9550 O   0  0  0  0  0  0  0  0  0  0  0  0
   -1.5560   25.2890  -26.5770 C   0  0  0  0  0  0  0  0  0  0  0  0
   -1.1270   25.3270  -27.9110 C   0  0  0  0  0  0  0  0  0  0  0  0
   -1.9940   24.9530  -28.9420 C   0  0  0  0  0  0  0  0  0  0  0  0
   -3.3080   24.5480  -28.6530 C   0  0  0  0  0  0  0  0  0  0  0  0
   -4.2190   24.1250  -29.7330 C   0  0  0  0  0  0  0  0  0  0  0  0
   -5.0280   23.0480  -29.6660 N   0  0  0  0  0  0  0  0  0  0  0  0
   -5.6380   23.1010  -30.8690 C   0  0  0  0  0  0  0  0  0  0  0  0
   -6.6460   22.1300  -31.3100 C   0  0  0  0  0  0  0  0  0  0  0  0
   -6.3900   20.8980  -31.9010 C   0  0  0  0  0  0  0  0  0  0  0  0
   -7.5540   20.1870  -32.2170 C   0  0  0  0  0  0  0  0  0  0  0  0
   -8.7240   20.8530  -31.8760 C   0  0  0  0  0  0  0  0  0  0  0  0
   -8.3110   22.3290  -31.1830 S   0  0  0  0  0  0  0  0  0  0  0  0
   -5.2240   24.1420  -31.6160 N   0  0  0  0  0  0  0  0  0  0  0  0
   -4.3470   24.7520  -30.8780 O   0  0  0  0  0  0  0  0  0  0  0  0
   -3.7430   24.5400  -27.3190 C   0  0  0  0  0  0  0  0  0  0  0  0
   -2.8740   24.9100  -26.2880 C   0  0  0  0  0  0  0  0  0  0  0  0
    0.9350   24.5730  -25.2330 N   0  0  0  0  0  0  0  0  0  0  0  0
    1.7960   24.6980  -26.4390 C   0  0  0  0  0  0  0  0  0  0  0  0
    1.7380   23.5110  -27.4340 C   0  0  0  0  0  0  0  0  0  0  0  0
    0.4630   22.7230  -27.3360 C   0  0  0  0  0  0  0  0  0  0  0  0
   -0.1090   22.1150  -28.4660 C   0  0  0  0  0  0  0  0  0  0  0  0
   -1.2490   21.3150  -28.3290 C   0  0  0  0  0  0  0  0  0  0  0  0
   -1.8050   21.0970  -27.0650 C   0  0  0  0  0  0  0  0  0  0  0  0
   -1.2280   21.6860  -25.9340 C   0  0  0  0  0  0  0  0  0  0  0  0
   -0.1010   22.5120  -26.0730 C   0  0  0  0  0  0  0  0  0  0  0  0
    0.5280   23.1950  -24.8940 C   0  0  0  0  0  0  0  0  0  0  0  0
   -0.1033   25.6526  -28.1477 H   0  0  0  0  0  0  0  0  0  0  0  0
   -1.6456   24.9759  -29.9851 H   0  0  0  0  0  0  0  0  0  0  0  0
   -5.3762   20.5203  -32.1001 H   0  0  0  0  0  0  0  0  0  0  0  0
   -7.5429   19.1943  -32.6908 H   0  0  0  0  0  0  0  0  0  0  0  0
   -9.7466   20.4790  -32.0324 H   0  0  0  0  0  0  0  0  0  0  0  0
   -4.7748   24.2406  -27.0827 H   0  0  0  0  0  0  0  0  0  0  0  0
   -3.2262   24.9036  -25.2459 H   0  0  0  0  0  0  0  0  0  0  0  0
    1.4910   25.6065  -26.9790 H   0  0  0  0  0  0  0  0  0  0  0  0
    2.8306   24.7258  -26.0664 H   0  0  0  0  0  0  0  0  0  0  0  0
    1.8277   23.9064  -28.4566 H   0  0  0  0  0  0  0  0  0  0  0  0
    2.5648   22.8306  -27.1821 H   0  0  0  0  0  0  0  0  0  0  0  0
    0.3394   22.2678  -29.4588 H   0  0  0  0  0  0  0  0  0  0  0  0
   -1.7084   20.8569  -29.2174 H   0  0  0  0  0  0  0  0  0  0  0  0
   -2.6969   20.4619  -26.9592 H   0  0  0  0  0  0  0  0  0  0  0  0
   -1.6567   21.5021  -24.9378 H   0  0  0  0  0  0  0  0  0  0  0  0
   -0.1980   23.2277  -24.0683 H   0  0  0  0  0  0  0  0  0  0  0  0
    1.4237   22.6287  -24.5990 H   0  0  0  0  0  0  0  0  0  0  0  0
  1  2  2  0
  2  3  2  0
  2  4  1  0
  4  5  2  0
  5  6  1  0
  6  7  2  0
  7  8  1  0
  8  9  2  0
  9 10  1  0
 10 11  1  0
 11 12  2  0
 12 13  1  0
 13 14  2  0
 14 15  1  0
 10 16  2  0
 16 17  1  0
  7 18  1  0
 18 19  2  0
  2 20  1  0
 20 21  1  0
 21 22  1  0
 22 23  1  0
 23 24  2  0
 24 25  1  0
 25 26  2  0
 26 27  1  0
 27 28  2  0
 28 29  1  0
 19  4  1  0
 29 20  1  0
 17  8  1  0
 28 23  1  0
 15 11  1  0
  5 30  1  0
  6 31  1  0
 12 32  1  0
 13 33  1  0
 14 34  1  0
 18 35  1  0
 19 36  1  0
 21 37  1  0
 21 38  1  0
 22 39  1  0
 22 40  1  0
 24 41  1  0
 25 42  1  0
 26 43  1  0
 27 44  1  0
 29 45  1  0
 29 46  1  0
M  END
>  <UniqueID>  (27) 
27

>  <SMILES>  (27) 
O=S(=O)(c1ccc(-c2nc(-c3cccs3)no2)cc1)N1CCc2ccccc2C1

>  <Energy>  (27) 
116.77329727950652

>  <Genealogy>  (27) 
O=S(=O)(c1ccc(-c2nc(-c3cccs3)no2)cc1)N1CCc2ccccc2C1 (3D coordinates assigned)
O=S(=O)(c1ccc(-c2nc(-c3cccs3)no2)cc1)N1CCc2ccccc2C1 (nonaromatic ring conformer: 116.77329727950652 kcal/mol)

>  <smiles>  (27) 
O=S(=O)(c1ccc(-c2nc(-c3cccs3)no2)cc1)N1CCc2ccccc2C1

>  <score_type>  (27) 
oracle

>  <origin>  (27) 
adgpu

>  <m_score__min__energy>  (27) 
-9.6099999999999994

>  <m_primary>  (27) 
energy

$$$$
27:0
     RDKit          3D

 58 61  0  0  0  0  0  0  0  0999 V2000
   -2.7860   19.5680  -27.1260 C   0  0  0  0  0  0  0  0  0  0  0  0
   -1.7550   20.0460  -26.4300 C   0  0  0  0  0  0  0  0  0  0  0  0
   -1.2020   21.3910  -26.6650 C   0  0  0  0  0  0  0  0  0  0  0  0
    0.0470   21.5640  -26.7210 O   0  0  0  0  0  0  0  0  0  0  0  0
   -2.0920   22.5000  -26.8650 N   0  0  0  0  0  0  0  0  0  0  0  0
   -1.6120   23.8330  -27.0890 C   0  0  0  0  0  0  0  0  0  0  0  0
   -1.0370   24.5400  -26.0220 C   0  0  0  0  0  0  0  0  0  0  0  0
   -0.5900   25.8510  -26.2030 C   0  0  0  0  0  0  0  0  0  0  0  0
   -0.6930   26.4590  -27.4560 C   0  0  0  0  0  0  0  0  0  0  0  0
   -1.2360   25.7530  -28.5320 C   0  0  0  0  0  0  0  0  0  0  0  0
   -1.7150   24.4420  -28.3560 C   0  0  0  0  0  0  0  0  0  0  0  0
   -2.1370   23.6670  -29.4930 N   0  0  0  0  0  0  0  0  0  0  0  0
   -3.2960   23.7060  -30.0900 C   0  0  0  0  0  0  0  0  0  0  0  0
   -4.3940   24.4200  -29.5700 C   0  0  0  0  0  0  0  0  0  0  0  0
   -5.6070   24.4520  -30.2740 C   0  0  0  0  0  0  0  0  0  0  0  0
   -6.7500   25.2600  -29.7200 C   0  0  0  0  0  0  0  0  0  0  0  0
   -5.7190   23.7290  -31.4830 C   0  0  0  0  0  0  0  0  0  0  0  0
   -6.9070   23.7610  -32.2850 N   0  0  0  0  0  0  0  0  0  0  0  0
   -8.0510   22.9220  -32.0980 C   0  0  0  0  0  0  0  0  0  0  0  0
   -9.1820   23.4600  -31.9750 O   0  0  0  0  0  0  0  0  0  0  0  0
   -7.9460   21.4480  -32.1130 C   0  0  0  0  0  0  0  0  0  0  0  0
   -8.9910   20.6600  -31.6130 C   0  0  0  0  0  0  0  0  0  0  0  0
   -8.9140   19.2710  -31.7120 C   0  0  0  0  0  0  0  0  0  0  0  0
   -7.8430   18.6890  -32.3130 N   0  0  0  0  0  0  0  0  0  0  0  0
   -6.8100   19.4190  -32.8150 C   0  0  0  0  0  0  0  0  0  0  0  0
   -5.7340   18.7520  -33.4990 N   0  0  0  0  0  0  0  0  0  0  0  0
   -4.4130   19.3810  -33.6040 C   0  0  0  0  0  0  0  0  0  0  0  0
   -3.3420   18.3120  -33.8380 C   0  0  0  0  0  0  0  0  0  0  0  0
   -3.6920   17.4790  -34.9230 O   0  0  0  0  0  0  0  0  0  0  0  0
   -4.8530   16.7390  -34.6020 C   0  0  0  0  0  0  0  0  0  0  0  0
   -6.0570   17.6660  -34.4290 C   0  0  0  0  0  0  0  0  0  0  0  0
   -6.8430   20.8190  -32.7100 C   0  0  0  0  0  0  0  0  0  0  0  0
   -4.6100   23.0240  -31.9550 C   0  0  0  0  0  0  0  0  0  0  0  0
   -3.4480   23.0180  -31.2520 N   0  0  0  0  0  0  0  0  0  0  0  0
   -3.1684   18.5577  -26.9187 H   0  0  0  0  0  0  0  0  0  0  0  0
   -3.2546   20.1838  -27.9078 H   0  0  0  0  0  0  0  0  0  0  0  0
   -1.3009   19.4140  -25.6526 H   0  0  0  0  0  0  0  0  0  0  0  0
   -3.0990   22.2990  -27.0590 H   0  0  0  0  0  0  0  0  0  0  0  0
   -0.9377   24.0592  -25.0376 H   0  0  0  0  0  0  0  0  0  0  0  0
   -0.1563   26.4052  -25.3575 H   0  0  0  0  0  0  0  0  0  0  0  0
   -0.3466   27.4937  -27.5956 H   0  0  0  0  0  0  0  0  0  0  0  0
   -1.2895   26.2254  -29.5239 H   0  0  0  0  0  0  0  0  0  0  0  0
   -4.3000   24.9523  -28.6120 H   0  0  0  0  0  0  0  0  0  0  0  0
   -6.7167   25.2365  -28.6208 H   0  0  0  0  0  0  0  0  0  0  0  0
   -6.6658   26.3004  -30.0672 H   0  0  0  0  0  0  0  0  0  0  0  0
   -7.7027   24.8336  -30.0672 H   0  0  0  0  0  0  0  0  0  0  0  0
   -9.8666   21.1339  -31.1453 H   0  0  0  0  0  0  0  0  0  0  0  0
   -9.7213   18.6456  -31.3031 H   0  0  0  0  0  0  0  0  0  0  0  0
   -4.4121   20.0883  -34.4464 H   0  0  0  0  0  0  0  0  0  0  0  0
   -4.1918   19.9155  -32.6684 H   0  0  0  0  0  0  0  0  0  0  0  0
   -2.3829   18.8044  -34.0564 H   0  0  0  0  0  0  0  0  0  0  0  0
   -3.2580   17.6936  -32.9322 H   0  0  0  0  0  0  0  0  0  0  0  0
   -5.0611   16.0249  -35.4124 H   0  0  0  0  0  0  0  0  0  0  0  0
   -4.6804   16.2048  -33.6561 H   0  0  0  0  0  0  0  0  0  0  0  0
   -6.3291   18.0934  -35.4054 H   0  0  0  0  0  0  0  0  0  0  0  0
   -6.8992   17.0863  -34.0232 H   0  0  0  0  0  0  0  0  0  0  0  0
   -6.0064   21.4208  -33.0947 H   0  0  0  0  0  0  0  0  0  0  0  0
   -4.6780   22.4697  -32.9027 H   0  0  0  0  0  0  0  0  0  0  0  0
  1  2  2  0
  2  3  1  0
  3  4  2  0
  3  5  1  0
  5  6  1  0
  6  7  2  0
  7  8  1  0
  8  9  2  0
  9 10  1  0
 10 11  2  0
 11 12  1  0
 12 13  2  3
 13 14  1  0
 14 15  2  0
 15 16  1  0
 15 17  1  0
 17 18  1  0
 18 19  1  0
 19 20  2  0
 19 21  1  0
 21 22  2  0
 22 23  1  0
 23 24  2  0
 24 25  1  0
 25 26  1  0
 26 27  1  0
 27 28  1  0
 28 29  1  0
 29 30  1  0
 30 31  1  0
 25 32  2  0
 17 33  2  0
 33 34  1  0
 11  6  1  0
 34 13  1  0
 32 21  1  0
 31 26  1  0
  1 35  1  0
  1 36  1  0
  2 37  1  0
  5 38  1  0
  7 39  1  0
  8 40  1  0
  9 41  1  0
 10 42  1  0
 14 43  1  0
 16 44  1  0
 16 45  1  0
 16 46  1  0
 22 47  1  0
 23 48  1  0
 27 49  1  0
 27 50  1  0
 28 51  1  0
 28 52  1  0
 30 53  1  0
 30 54  1  0
 31 55  1  0
 31 56  1  0
 32 57  1  0
 33 58  1  0
M  CHG  2  18  -1  34  -1
M  END
>  <UniqueID>  (28) 
28

>  <SMILES>  (28) 
C=CC(=O)Nc1ccccc1N=c1cc(C)c([N-]C(=O)c2ccnc(N3CCOCC3)c2)c[n-]1

>  <Energy>  (28) 
88.14362813558498

>  <Genealogy>  (28) 
C=CC(=O)Nc1ccccc1N=c1cc(C)c([N-]C(=O)c2ccnc(N3CCOCC3)c2)c[n-]1 (protonated)
C=CC(=O)Nc1ccccc1N=c1cc(C)c([N-]C(=O)c2ccnc(N3CCOCC3)c2)c[n-]1 (3D coordinates assigned)
C=CC(=O)Nc1ccccc1N=c1cc(C)c([N-]C(=O)c2ccnc(N3CCOCC3)c2)c[n-]1 (nonaromatic ring conformer: 88.14362813558498 kcal/mol)

>  <smiles>  (28) 
C=CC(=O)Nc1ccccc1N=c1cc(C)c(NC(=O)c2ccnc(N3CCOCC3)c2)c[nH]1

>  <score_type>  (28) 
oracle

>  <origin>  (28) 
adgpu

>  <m_score__min__energy>  (28) 
-11.93

>  <m_primary>  (28) 
energy

$$$$
28:0
     RDKit          3D

 43 45  0  0  0  0  0  0  0  0999 V2000
   -1.5730   25.6700  -30.0470 H   0  0  0  0  0  0  0  0  0  0  0  0
   -1.6360   25.5940  -29.0080 N   0  0  0  0  0  0  0  0  0  0  0  0
   -1.7110   23.9100  -28.6270 S   0  0  0  0  0  0  0  0  0  0  0  0
   -2.8520   23.6590  -27.6810 O   0  0  0  0  0  0  0  0  0  0  0  0
   -0.4300   23.4870  -27.9640 O   0  0  0  0  0  0  0  0  0  0  0  0
   -1.9500   22.9880  -30.1080 C   0  0  0  0  0  0  0  0  0  0  0  0
   -0.9140   22.1960  -30.6200 C   0  0  0  0  0  0  0  0  0  0  0  0
    0.0494   22.1447  -30.0917 H   0  0  0  0  0  0  0  0  0  0  0  0
   -1.1010   21.4710  -31.8000 C   0  0  0  0  0  0  0  0  0  0  0  0
   -0.2888   20.8376  -32.1862 H   0  0  0  0  0  0  0  0  0  0  0  0
   -2.3160   21.5450  -32.4950 C   0  0  0  0  0  0  0  0  0  0  0  0
   -2.4940   20.7680  -33.6910 N   0  0  0  0  0  0  0  0  0  0  0  0
   -1.9410   21.0350  -34.5360 H   0  0  0  0  0  0  0  0  0  0  0  0
   -3.3720   19.6360  -33.8060 C   0  0  0  0  0  0  0  0  0  0  0  0
   -4.6530   19.7410  -33.3640 N   0  0  0  0  0  0  0  0  0  0  0  0
   -5.5250   18.6960  -33.4240 C   0  0  0  0  0  0  0  0  0  0  0  0
   -6.7450   18.8100  -32.9850 N   0  0  0  0  0  0  0  0  0  0  0  0
   -7.3730   20.0060  -32.4840 C   0  0  0  0  0  0  0  0  0  0  0  0
   -6.7120   21.2480  -32.5250 C   0  0  0  0  0  0  0  0  0  0  0  0
   -5.6878   21.3076  -32.9219 H   0  0  0  0  0  0  0  0  0  0  0  0
   -7.3480   22.4110  -32.0640 C   0  0  0  0  0  0  0  0  0  0  0  0
   -6.6170   23.7210  -32.0650 C   0  0  0  0  0  0  0  0  0  0  0  0
   -6.4380   24.0418  -31.0282 H   0  0  0  0  0  0  0  0  0  0  0  0
   -5.6542   23.6032  -32.5838 H   0  0  0  0  0  0  0  0  0  0  0  0
   -7.2228   24.4785  -32.5838 H   0  0  0  0  0  0  0  0  0  0  0  0
   -8.6480   22.3290  -31.5490 C   0  0  0  0  0  0  0  0  0  0  0  0
   -9.1384   23.2306  -31.1533 H   0  0  0  0  0  0  0  0  0  0  0  0
   -9.3240   21.1070  -31.5360 C   0  0  0  0  0  0  0  0  0  0  0  0
  -10.3516   21.0559  -31.1468 H   0  0  0  0  0  0  0  0  0  0  0  0
   -8.7020   19.9430  -32.0160 C   0  0  0  0  0  0  0  0  0  0  0  0
   -9.4410   18.6330  -31.9910 C   0  0  0  0  0  0  0  0  0  0  0  0
   -9.6127   18.3287  -30.9480 H   0  0  0  0  0  0  0  0  0  0  0  0
  -10.4076   18.7475  -32.5034 H   0  0  0  0  0  0  0  0  0  0  0  0
   -8.8431   17.8649  -32.5034 H   0  0  0  0  0  0  0  0  0  0  0  0
   -5.0720   17.4660  -33.9250 C   0  0  0  0  0  0  0  0  0  0  0  0
   -6.1310   16.0660  -34.0140 Cl  0  0  0  0  0  0  0  0  0  0  0  0
   -3.7850   17.3510  -34.3450 N   0  0  0  0  0  0  0  0  0  0  0  0
   -2.9250   18.4000  -34.2950 C   0  0  0  0  0  0  0  0  0  0  0  0
   -1.8857   18.2815  -34.6353 H   0  0  0  0  0  0  0  0  0  0  0  0
   -3.3600   22.3270  -31.9690 C   0  0  0  0  0  0  0  0  0  0  0  0
   -4.3282   22.3691  -32.4894 H   0  0  0  0  0  0  0  0  0  0  0  0
   -3.1730   23.0510  -30.7880 C   0  0  0  0  0  0  0  0  0  0  0  0
   -3.9893   23.6725  -30.3912 H   0  0  0  0  0  0  0  0  0  0  0  0
  1  2  1  0
  2  3  1  0
  3  4  2  0
  3  5  2  0
  3  6  1  0
  6  7  2  0
  7  8  1  0
  7  9  1  0
  9 10  1  0
  9 11  2  0
 11 12  1  0
 12 13  1  0
 12 14  1  0
 14 15  1  0
 15 16  1  0
 16 17  2  0
 17 18  1  0
 18 19  2  0
 19 20  1  0
 19 21  1  0
 21 22  1  0
 22 23  1  0
 22 24  1  0
 22 25  1  0
 21 26  2  0
 26 27  1  0
 26 28  1  0
 28 29  1  0
 28 30  2  0
 30 31  1  0
 31 32  1  0
 31 33  1  0
 31 34  1  0
 16 35  1  0
 35 36  1  0
 35 37  2  0
 37 38  1  0
 38 39  1  0
 11 40  1  0
 40 41  1  0
 40 42  2  0
 42 43  1  0
 42  6  1  0
 38 14  2  0
 30 18  1  0
M  CHG  2   2  -1  15  -1
M  END
>  <UniqueID>  (29) 
29

>  <SMILES>  (29) 
Cc1ccc(C)c(/N=c2\[n-]c(Nc3ccc(S([NH-])(=O)=O)cc3)cnc2Cl)c1

>  <Energy>  (29) 
58.136702300216974

>  <Genealogy>  (29) 
Cc1ccc(C)c(N=c2[n-]c(Nc3ccc(S([NH-])(=O)=O)cc3)cnc2Cl)c1 (protonated)
Cc1ccc(C)c(/N=c2\[n-]c(Nc3ccc(S([NH-])(=O)=O)cc3)cnc2Cl)c1 (cis-trans isomerization)
Cc1ccc(C)c(/N=c2\[n-]c(Nc3ccc(S([NH-])(=O)=O)cc3)cnc2Cl)c1 (3D coordinates assigned)
Cc1ccc(C)c(/N=c2\[n-]c(Nc3ccc(S([NH-])(=O)=O)cc3)cnc2Cl)c1 (optimized conformer: 58.136702300216974 kcal/mol)

>  <smiles>  (29) 
Cc1ccc(C)c(N=c2[nH]c(Nc3ccc(S(N)(=O)=O)cc3)cnc2Cl)c1

>  <score_type>  (29) 
oracle

>  <origin>  (29) 
adgpu

>  <m_score__min__energy>  (29) 
-11.869999999999999

>  <m_primary>  (29) 
energy

$$$$
29:0
     RDKit          3D

 38 40  0  0  0  0  0  0  0  0999 V2000
   -9.1160   19.7660  -32.5550 C   0  0  0  0  0  0  0  0  0  0  0  0
   -8.0560   20.7410  -32.1350 C   0  0  0  0  0  0  0  0  0  0  0  0
   -8.4060   21.9290  -31.4760 C   0  0  0  0  0  0  0  0  0  0  0  0
   -7.4160   22.8200  -31.0540 C   0  0  0  0  0  0  0  0  0  0  0  0
   -6.0550   22.5330  -31.2690 C   0  0  0  0  0  0  0  0  0  0  0  0
   -4.9890   23.4650  -30.8240 C   0  0  0  0  0  0  0  0  0  0  0  0
   -3.9070   23.1700  -30.0130 C   0  0  0  0  0  0  0  0  0  0  0  0
   -3.2220   24.3670  -29.9140 C   0  0  0  0  0  0  0  0  0  0  0  0
   -1.9500   24.6240  -29.2100 C   0  0  0  0  0  0  0  0  0  0  0  0
   -1.6390   25.8170  -28.9560 O   0  0  0  0  0  0  0  0  0  0  0  0
   -1.0720   23.5820  -28.7590 N   0  0  0  0  0  0  0  0  0  0  0  0
   -0.6870   22.3940  -29.5080 C   0  0  0  0  0  0  0  0  0  0  0  0
   -0.9930   21.1730  -28.6920 C   0  0  0  0  0  0  0  0  0  0  0  0
   -2.1770   21.1030  -27.9400 C   0  0  0  0  0  0  0  0  0  0  0  0
   -2.4500   19.9790  -27.1570 C   0  0  0  0  0  0  0  0  0  0  0  0
   -1.5410   18.9160  -27.1050 C   0  0  0  0  0  0  0  0  0  0  0  0
   -1.8390   17.8040  -26.3170 O   0  0  0  0  0  0  0  0  0  0  0  0
   -0.3460   18.9880  -27.8380 C   0  0  0  0  0  0  0  0  0  0  0  0
    0.5740   17.9470  -27.7920 O   0  0  0  0  0  0  0  0  0  0  0  0
   -0.0720   20.1140  -28.6230 C   0  0  0  0  0  0  0  0  0  0  0  0
   -3.8530   25.3040  -30.6470 N   0  0  0  0  0  0  0  0  0  0  0  0
   -4.9300   24.7600  -31.1920 N   0  0  0  0  0  0  0  0  0  0  0  0
   -5.7110   21.3320  -31.9160 C   0  0  0  0  0  0  0  0  0  0  0  0
   -6.7030   20.4420  -32.3390 C   0  0  0  0  0  0  0  0  0  0  0  0
   -9.5888   19.3311  -31.6620 H   0  0  0  0  0  0  0  0  0  0  0  0
   -9.8763   20.2870  -33.1555 H   0  0  0  0  0  0  0  0  0  0  0  0
   -8.6602   18.9649  -33.1555 H   0  0  0  0  0  0  0  0  0  0  0  0
   -9.4653   22.1602  -31.2906 H   0  0  0  0  0  0  0  0  0  0  0  0
   -7.7029   23.7543  -30.5492 H   0  0  0  0  0  0  0  0  0  0  0  0
   -3.6507   22.2044  -29.5526 H   0  0  0  0  0  0  0  0  0  0  0  0
   -1.2506   22.3560  -30.4519 H   0  0  0  0  0  0  0  0  0  0  0  0
    0.3902   22.4299  -29.7279 H   0  0  0  0  0  0  0  0  0  0  0  0
   -2.8930   21.9376  -27.9678 H   0  0  0  0  0  0  0  0  0  0  0  0
   -3.3841   19.9290  -26.5783 H   0  0  0  0  0  0  0  0  0  0  0  0
   -1.2010   17.0240  -26.2270 H   0  0  0  0  0  0  0  0  0  0  0  0
    0.8695   20.1702  -29.1890 H   0  0  0  0  0  0  0  0  0  0  0  0
   -4.6520   21.0910  -32.0907 H   0  0  0  0  0  0  0  0  0  0  0  0
   -6.4192   19.5019  -32.8347 H   0  0  0  0  0  0  0  0  0  0  0  0
  1  2  1  0
  2  3  2  0
  3  4  1  0
  4  5  2  0
  5  6  1  0
  6  7  1  0
  7  8  2  0
  8  9  1  0
  9 10  2  0
  9 11  1  0
 11 12  1  0
 12 13  1  0
 13 14  2  0
 14 15  1  0
 15 16  2  0
 16 17  1  0
 16 18  1  0
 18 19  1  0
 18 20  2  0
  8 21  1  0
 21 22  1  0
  5 23  1  0
 23 24  2  0
 24  2  1  0
 22  6  2  0
 20 13  1  0
  1 25  1  0
  1 26  1  0
  1 27  1  0
  3 28  1  0
  4 29  1  0
  7 30  1  0
 12 31  1  0
 12 32  1  0
 14 33  1  0
 15 34  1  0
 17 35  1  0
 20 36  1  0
 23 37  1  0
 24 38  1  0
M  CHG  3  11  -1  19  -1  21  -1
M  END
>  <UniqueID>  (30) 
30

>  <SMILES>  (30) 
Cc1ccc(-c2cc(C(=O)[N-]Cc3ccc(O)c([O-])c3)[n-]n2)cc1

>  <Energy>  (30) 
72.215324983927

>  <Genealogy>  (30) 
Cc1ccc(-c2cc(C(=O)[N-]Cc3ccc(O)c([O-])c3)[n-]n2)cc1 (protonated)
Cc1ccc(-c2cc(C(=O)[N-]Cc3ccc(O)c([O-])c3)[n-]n2)cc1 (3D coordinates assigned)
Cc1ccc(-c2cc(C(=O)[N-]Cc3ccc(O)c([O-])c3)[n-]n2)cc1 (optimized conformer: 72.215324983927 kcal/mol)

>  <smiles>  (30) 
Cc1ccc(-c2cc(C(=O)NCc3ccc(O)c(O)c3)[nH]n2)cc1

>  <score_type>  (30) 
oracle

>  <origin>  (30) 
adgpu

>  <m_score__min__energy>  (30) 
-11.58

>  <m_primary>  (30) 
energy

$$$$
30:0
     RDKit          3D

 41 43  0  0  0  0  0  0  0  0999 V2000
   -8.2770   22.3940  -31.6390 C   0  0  0  0  0  0  0  0  0  0  0  0
   -7.0090   23.1070  -31.2450 C   0  0  0  0  0  0  0  0  0  0  0  0
   -7.1100   24.2740  -30.4720 C   0  0  0  0  0  0  0  0  0  0  0  0
   -5.9690   24.9940  -30.1130 C   0  0  0  0  0  0  0  0  0  0  0  0
   -4.6980   24.5490  -30.5080 C   0  0  0  0  0  0  0  0  0  0  0  0
   -3.5030   25.2770  -30.1890 N   0  0  0  0  0  0  0  0  0  0  0  0
   -2.4290   24.8330  -29.3470 C   0  0  0  0  0  0  0  0  0  0  0  0
   -1.5850   25.6620  -28.9100 O   0  0  0  0  0  0  0  0  0  0  0  0
   -2.3420   23.4090  -28.9450 C   0  0  0  0  0  0  0  0  0  0  0  0
   -1.4110   22.5490  -29.5580 C   0  0  0  0  0  0  0  0  0  0  0  0
   -1.3300   21.2060  -29.1780 C   0  0  0  0  0  0  0  0  0  0  0  0
   -2.1770   20.7050  -28.1860 C   0  0  0  0  0  0  0  0  0  0  0  0
   -3.1050   21.5480  -27.5710 C   0  0  0  0  0  0  0  0  0  0  0  0
   -3.1910   22.8930  -27.9470 C   0  0  0  0  0  0  0  0  0  0  0  0
   -4.5900   23.3910  -31.2840 C   0  0  0  0  0  0  0  0  0  0  0  0
   -5.7270   22.6440  -31.6320 C   0  0  0  0  0  0  0  0  0  0  0  0
   -5.5370   21.4040  -32.4130 C   0  0  0  0  0  0  0  0  0  0  0  0
   -4.6840   21.3920  -33.3410 O   0  0  0  0  0  0  0  0  0  0  0  0
   -6.3070   20.2270  -32.1110 N   0  0  0  0  0  0  0  0  0  0  0  0
   -6.1820   18.9790  -32.8130 C   0  0  0  0  0  0  0  0  0  0  0  0
   -6.2160   17.7450  -32.1420 C   0  0  0  0  0  0  0  0  0  0  0  0
   -6.1180   16.5550  -32.8650 C   0  0  0  0  0  0  0  0  0  0  0  0
   -6.0040   16.6060  -34.2560 C   0  0  0  0  0  0  0  0  0  0  0  0
   -5.9980   17.8060  -34.8940 N   0  0  0  0  0  0  0  0  0  0  0  0
   -6.0920   18.9780  -34.2110 C   0  0  0  0  0  0  0  0  0  0  0  0
   -8.8218   22.0877  -30.7338 H   0  0  0  0  0  0  0  0  0  0  0  0
   -8.9075   23.0698  -32.2354 H   0  0  0  0  0  0  0  0  0  0  0  0
   -8.0271   21.5041  -32.2354 H   0  0  0  0  0  0  0  0  0  0  0  0
   -8.0997   24.6255  -30.1452 H   0  0  0  0  0  0  0  0  0  0  0  0
   -6.0667   25.9140  -29.5180 H   0  0  0  0  0  0  0  0  0  0  0  0
   -0.7428   22.9364  -30.3412 H   0  0  0  0  0  0  0  0  0  0  0  0
   -0.5978   20.5422  -29.6610 H   0  0  0  0  0  0  0  0  0  0  0  0
   -2.1128   19.6476  -27.8898 H   0  0  0  0  0  0  0  0  0  0  0  0
   -3.7702   21.1536  -26.7888 H   0  0  0  0  0  0  0  0  0  0  0  0
   -3.9259   23.5510  -27.4603 H   0  0  0  0  0  0  0  0  0  0  0  0
   -3.5988   23.0599  -31.6273 H   0  0  0  0  0  0  0  0  0  0  0  0
   -7.0530   20.2980  -31.3840 H   0  0  0  0  0  0  0  0  0  0  0  0
   -6.3198   17.7167  -31.0473 H   0  0  0  0  0  0  0  0  0  0  0  0
   -6.1304   15.5862  -32.3441 H   0  0  0  0  0  0  0  0  0  0  0  0
   -5.9191   15.6748  -34.8353 H   0  0  0  0  0  0  0  0  0  0  0  0
   -6.0974   19.9314  -34.7597 H   0  0  0  0  0  0  0  0  0  0  0  0
  1  2  1  0
  2  3  2  0
  3  4  1  0
  4  5  2  0
  5  6  1  0
  6  7  1  0
  7  8  2  0
  7  9  1  0
  9 10  2  0
 10 11  1  0
 11 12  2  0
 12 13  1  0
 13 14  2  0
  5 15  1  0
 15 16  2  0
 16 17  1  0
 17 18  2  0
 17 19  1  0
 19 20  1  0
 20 21  2  0
 21 22  1  0
 22 23  2  0
 23 24  1  0
 24 25  2  0
 16  2  1  0
 25 20  1  0
 14  9  1  0
  1 26  1  0
  1 27  1  0
  1 28  1  0
  3 29  1  0
  4 30  1  0
 10 31  1  0
 11 32  1  0
 12 33  1  0
 13 34  1  0
 14 35  1  0
 15 36  1  0
 19 37  1  0
 21 38  1  0
 22 39  1  0
 23 40  1  0
 25 41  1  0
M  CHG  1   6  -1
M  END
>  <UniqueID>  (31) 
31

>  <SMILES>  (31) 
Cc1ccc([N-]C(=O)c2ccccc2)cc1C(=O)Nc1cccnc1

>  <Energy>  (31) 
59.01375263150523

>  <Genealogy>  (31) 
Cc1ccc([N-]C(=O)c2ccccc2)cc1C(=O)Nc1cccnc1 (protonated)
Cc1ccc([N-]C(=O)c2ccccc2)cc1C(=O)Nc1cccnc1 (3D coordinates assigned)
Cc1ccc([N-]C(=O)c2ccccc2)cc1C(=O)Nc1cccnc1 (optimized conformer: 59.01375263150523 kcal/mol)

>  <smiles>  (31) 
Cc1ccc(NC(=O)c2ccccc2)cc1C(=O)Nc1cccnc1

>  <score_type>  (31) 
oracle

>  <origin>  (31) 
adgpu

>  <m_score__min__energy>  (31) 
-10.550000000000001

>  <m_primary>  (31) 
energy

$$$$
31:0
     RDKit          3D

 62 66  0  0  0  0  0  0  0  0999 V2000
   -3.8860   25.6760  -30.9160 O   0  0  0  0  0  0  0  0  0  0  0  0
   -4.5330   24.7840  -30.2990 C   0  0  0  0  0  0  0  0  0  0  0  0
   -5.8960   24.5460  -30.6730 N   0  0  0  0  0  0  0  0  0  0  0  0
   -6.4640   23.2700  -31.0080 C   0  0  0  0  0  0  0  0  0  0  0  0
   -5.6620   22.1340  -31.2270 C   0  0  0  0  0  0  0  0  0  0  0  0
   -6.2450   20.9210  -31.6020 C   0  0  0  0  0  0  0  0  0  0  0  0
   -7.6310   20.8320  -31.7840 C   0  0  0  0  0  0  0  0  0  0  0  0
   -8.3750   19.3090  -32.2650 S   0  0  0  0  0  0  0  0  0  0  0  0
   -8.7810   18.5490  -31.0350 O   0  0  0  0  0  0  0  0  0  0  0  0
   -9.6040   19.5800  -33.0900 O   0  0  0  0  0  0  0  0  0  0  0  0
   -7.2230   18.3690  -33.1790 N   0  0  0  0  0  0  0  0  0  0  0  0
   -6.2800   17.6810  -32.3000 C   0  0  0  0  0  0  0  0  0  0  0  0
   -4.9870   17.5210  -33.0820 C   0  0  0  0  0  0  0  0  0  0  0  0
   -5.0620   18.5440  -34.2060 C   0  0  0  0  0  0  0  0  0  0  0  0
   -6.4170   19.2190  -34.0570 C   0  0  0  0  0  0  0  0  0  0  0  0
   -8.4320   21.9620  -31.5700 C   0  0  0  0  0  0  0  0  0  0  0  0
   -7.8490   23.1760  -31.1930 C   0  0  0  0  0  0  0  0  0  0  0  0
   -3.8720   24.0130  -29.2180 C   0  0  0  0  0  0  0  0  0  0  0  0
   -4.5690   23.0150  -28.5120 C   0  0  0  0  0  0  0  0  0  0  0  0
   -3.9280   22.2810  -27.5100 C   0  0  0  0  0  0  0  0  0  0  0  0
   -2.5860   22.5290  -27.2050 C   0  0  0  0  0  0  0  0  0  0  0  0
   -1.8810   23.5230  -27.8950 C   0  0  0  0  0  0  0  0  0  0  0  0
   -0.1720   23.7840  -27.5530 S   0  0  0  0  0  0  0  0  0  0  0  0
    0.2450   25.0870  -28.1730 O   0  0  0  0  0  0  0  0  0  0  0  0
    0.6410   22.6840  -28.1800 O   0  0  0  0  0  0  0  0  0  0  0  0
    0.1080   23.8540  -25.8230 N   0  0  0  0  0  0  0  0  0  0  0  0
    1.5220   24.0790  -25.4680 C   0  0  0  0  0  0  0  0  0  0  0  0
    2.0260   25.4700  -25.8840 C   0  0  0  0  0  0  0  0  0  0  0  0
    1.0190   26.5580  -25.6200 C   0  0  0  0  0  0  0  0  0  0  0  0
    1.4060   27.9000  -25.7810 C   0  0  0  0  0  0  0  0  0  0  0  0
    0.4720   28.9290  -25.6360 C   0  0  0  0  0  0  0  0  0  0  0  0
   -0.8550   28.6300  -25.3240 C   0  0  0  0  0  0  0  0  0  0  0  0
   -1.2520   27.2980  -25.1650 C   0  0  0  0  0  0  0  0  0  0  0  0
   -0.3270   26.2530  -25.3350 C   0  0  0  0  0  0  0  0  0  0  0  0
   -0.7810   24.8250  -25.1620 C   0  0  0  0  0  0  0  0  0  0  0  0
   -2.5300   24.2690  -28.8920 C   0  0  0  0  0  0  0  0  0  0  0  0
   -4.5712   22.2017  -31.1023 H   0  0  0  0  0  0  0  0  0  0  0  0
   -5.6137   20.0332  -31.7548 H   0  0  0  0  0  0  0  0  0  0  0  0
   -6.1027   18.2781  -31.3934 H   0  0  0  0  0  0  0  0  0  0  0  0
   -6.6746   16.7035  -31.9858 H   0  0  0  0  0  0  0  0  0  0  0  0
   -4.1197   17.7225  -32.4361 H   0  0  0  0  0  0  0  0  0  0  0  0
   -4.8680   16.4981  -33.4687 H   0  0  0  0  0  0  0  0  0  0  0  0
   -4.2526   19.2823  -34.1075 H   0  0  0  0  0  0  0  0  0  0  0  0
   -4.9494   18.0721  -35.1932 H   0  0  0  0  0  0  0  0  0  0  0  0
   -6.2952   20.2165  -33.6097 H   0  0  0  0  0  0  0  0  0  0  0  0
   -6.9028   19.3456  -35.0358 H   0  0  0  0  0  0  0  0  0  0  0  0
   -9.5223   21.8938  -31.6989 H   0  0  0  0  0  0  0  0  0  0  0  0
   -8.4822   24.0625  -31.0408 H   0  0  0  0  0  0  0  0  0  0  0  0
   -5.6235   22.8115  -28.7499 H   0  0  0  0  0  0  0  0  0  0  0  0
   -4.4810   21.5057  -26.9595 H   0  0  0  0  0  0  0  0  0  0  0  0
   -2.0833   21.9424  -26.4219 H   0  0  0  0  0  0  0  0  0  0  0  0
    1.6314   23.9769  -24.3782 H   0  0  0  0  0  0  0  0  0  0  0  0
    2.1224   23.3333  -26.0098 H   0  0  0  0  0  0  0  0  0  0  0  0
    2.9428   25.6951  -25.3194 H   0  0  0  0  0  0  0  0  0  0  0  0
    2.2104   25.4451  -26.9681 H   0  0  0  0  0  0  0  0  0  0  0  0
    2.4515   28.1416  -26.0228 H   0  0  0  0  0  0  0  0  0  0  0  0
    0.7829   29.9759  -25.7679 H   0  0  0  0  0  0  0  0  0  0  0  0
   -1.5882   29.4410  -25.2032 H   0  0  0  0  0  0  0  0  0  0  0  0
   -2.2955   27.0666  -24.9051 H   0  0  0  0  0  0  0  0  0  0  0  0
   -0.8132   24.5953  -24.0867 H   0  0  0  0  0  0  0  0  0  0  0  0
   -1.7720   24.7359  -25.6309 H   0  0  0  0  0  0  0  0  0  0  0  0
   -1.9821   25.0615  -29.4228 H   0  0  0  0  0  0  0  0  0  0  0  0
  1  2  2  0
  2  3  1  0
  3  4  1  0
  4  5  2  0
  5  6  1  0
  6  7  2  0
  7  8  1  0
  8  9  2  0
  8 10  2  0
  8 11  1  0
 11 12  1  0
 12 13  1  0
 13 14  1  0
 14 15  1  0
  7 16  1  0
 16 17  2  0
  2 18  1  0
 18 19  2  0
 19 20  1  0
 20 21  2  0
 21 22  1  0
 22 23  1  0
 23 24  2  0
 23 25  2  0
 23 26  1  0
 26 27  1  0
 27 28  1  0
 28 29  1  0
 29 30  2  0
 30 31  1  0
 31 32  2  0
 32 33  1  0
 33 34  2  0
 34 35  1  0
 22 36  2  0
 17  4  1  0
 36 18  1  0
 15 11  1  0
 35 26  1  0
 34 29  1  0
  5 37  1  0
  6 38  1  0
 12 39  1  0
 12 40  1  0
 13 41  1  0
 13 42  1  0
 14 43  1  0
 14 44  1  0
 15 45  1  0
 15 46  1  0
 16 47  1  0
 17 48  1  0
 19 49  1  0
 20 50  1  0
 21 51  1  0
 27 52  1  0
 27 53  1  0
 28 54  1  0
 28 55  1  0
 30 56  1  0
 31 57  1  0
 32 58  1  0
 33 59  1  0
 35 60  1  0
 35 61  1  0
 36 62  1  0
M  CHG  1   3  -1
M  END
>  <UniqueID>  (32) 
32

>  <SMILES>  (32) 
O=C([N-]c1ccc(S(=O)(=O)N2CCCC2)cc1)c1cccc(S(=O)(=O)N2CCc3ccccc3C2)c1

>  <Energy>  (32) 
78.59832914766294

>  <Genealogy>  (32) 
O=C([N-]c1ccc(S(=O)(=O)N2CCCC2)cc1)c1cccc(S(=O)(=O)N2CCc3ccccc3C2)c1 (protonated)
O=C([N-]c1ccc(S(=O)(=O)N2CCCC2)cc1)c1cccc(S(=O)(=O)N2CCc3ccccc3C2)c1 (3D coordinates assigned)
O=C([N-]c1ccc(S(=O)(=O)N2CCCC2)cc1)c1cccc(S(=O)(=O)N2CCc3ccccc3C2)c1 (nonaromatic ring conformer: 78.59832914766294 kcal/mol)

>  <smiles>  (32) 
O=C(Nc1ccc(S(=O)(=O)N2CCCC2)cc1)c1cccc(S(=O)(=O)N2CCc3ccccc3C2)c1

>  <score_type>  (32) 
oracle

>  <origin>  (32) 
adgpu

>  <m_score__min__energy>  (32) 
-13.49

>  <m_primary>  (32) 
energy

$$$$
32:0
     RDKit          3D

 47 50  0  0  0  0  0  0  0  0999 V2000
   -7.6370   17.8170  -31.9740 C   0  0  0  0  0  0  0  0  0  0  0  0
   -8.9760   18.5480  -31.9800 C   0  0  0  0  0  0  0  0  0  0  0  0
   -8.9110   19.7580  -32.8010 N   0  0  0  0  0  0  0  0  0  0  0  0
   -8.3080   20.9860  -32.3500 C   0  0  0  0  0  0  0  0  0  0  0  0
   -9.0740   22.1240  -32.0470 C   0  0  0  0  0  0  0  0  0  0  0  0
   -8.4670   23.2650  -31.6270 N   0  0  0  0  0  0  0  0  0  0  0  0
   -7.1190   23.3530  -31.4860 C   0  0  0  0  0  0  0  0  0  0  0  0
   -6.3020   22.2480  -31.7720 C   0  0  0  0  0  0  0  0  0  0  0  0
   -4.8280   22.3320  -31.6190 C   0  0  0  0  0  0  0  0  0  0  0  0
   -3.9770   21.6970  -32.5400 C   0  0  0  0  0  0  0  0  0  0  0  0
   -2.5820   21.7880  -32.3860 C   0  0  0  0  0  0  0  0  0  0  0  0
   -1.6350   21.1310  -33.3170 C   0  0  0  0  0  0  0  0  0  0  0  0
   -1.6850   19.7510  -33.5940 C   0  0  0  0  0  0  0  0  0  0  0  0
   -0.7700   19.1960  -34.4910 C   0  0  0  0  0  0  0  0  0  0  0  0
    0.1770   20.0100  -35.1130 C   0  0  0  0  0  0  0  0  0  0  0  0
    0.1920   21.3750  -34.8310 C   0  0  0  0  0  0  0  0  0  0  0  0
   -0.7060   21.8990  -33.9530 N   0  0  0  0  0  0  0  0  0  0  0  0
   -2.0770   22.4740  -31.3240 N   0  0  0  0  0  0  0  0  0  0  0  0
   -2.8680   23.1000  -30.4110 C   0  0  0  0  0  0  0  0  0  0  0  0
   -2.2540   23.8330  -29.2920 C   0  0  0  0  0  0  0  0  0  0  0  0
   -1.9550   23.3080  -28.0470 C   0  0  0  0  0  0  0  0  0  0  0  0
   -1.4000   24.3440  -27.3250 C   0  0  0  0  0  0  0  0  0  0  0  0
   -1.3930   25.4310  -28.1770 C   0  0  0  0  0  0  0  0  0  0  0  0
   -0.8980   26.7960  -27.8370 C   0  0  0  0  0  0  0  0  0  0  0  0
   -1.9090   25.1000  -29.3380 O   0  0  0  0  0  0  0  0  0  0  0  0
   -4.2610   23.0410  -30.5490 C   0  0  0  0  0  0  0  0  0  0  0  0
   -6.9160   21.0610  -32.2070 C   0  0  0  0  0  0  0  0  0  0  0  0
   -7.3188   17.6433  -30.9355 H   0  0  0  0  0  0  0  0  0  0  0  0
   -7.7437   16.8520  -32.4911 H   0  0  0  0  0  0  0  0  0  0  0  0
   -6.8830   18.4286  -32.4911 H   0  0  0  0  0  0  0  0  0  0  0  0
   -9.7489   17.8790  -32.3863 H   0  0  0  0  0  0  0  0  0  0  0  0
   -9.2206   18.8385  -30.9476 H   0  0  0  0  0  0  0  0  0  0  0  0
   -9.3200   19.7360  -33.7650 H   0  0  0  0  0  0  0  0  0  0  0  0
  -10.1687   22.0914  -32.1501 H   0  0  0  0  0  0  0  0  0  0  0  0
   -6.6650   24.2954  -31.1458 H   0  0  0  0  0  0  0  0  0  0  0  0
   -4.4019   21.1291  -33.3808 H   0  0  0  0  0  0  0  0  0  0  0  0
   -2.4392   19.1151  -33.1074 H   0  0  0  0  0  0  0  0  0  0  0  0
   -0.7959   18.1177  -34.7070 H   0  0  0  0  0  0  0  0  0  0  0  0
    0.9035   19.5796  -35.8179 H   0  0  0  0  0  0  0  0  0  0  0  0
    0.9301   22.0290  -35.3184 H   0  0  0  0  0  0  0  0  0  0  0  0
   -2.1249   22.2768  -27.7038 H   0  0  0  0  0  0  0  0  0  0  0  0
   -1.0382   24.3113  -26.2867 H   0  0  0  0  0  0  0  0  0  0  0  0
   -0.8569   26.9093  -26.7436 H   0  0  0  0  0  0  0  0  0  0  0  0
    0.1084   26.9366  -28.2583 H   0  0  0  0  0  0  0  0  0  0  0  0
   -1.5803   27.5490  -28.2583 H   0  0  0  0  0  0  0  0  0  0  0  0
   -4.9090   23.5495  -29.8199 H   0  0  0  0  0  0  0  0  0  0  0  0
   -6.2972   20.1813  -32.4377 H   0  0  0  0  0  0  0  0  0  0  0  0
  1  2  1  0
  2  3  1  0
  3  4  1  0
  4  5  2  0
  5  6  1  0
  6  7  2  0
  7  8  1  0
  8  9  1  0
  9 10  2  0
 10 11  1  0
 11 12  1  0
 12 13  2  0
 13 14  1  0
 14 15  2  0
 15 16  1  0
 16 17  2  0
 11 18  2  0
 18 19  1  0
 19 20  1  0
 20 21  2  0
 21 22  1  0
 22 23  2  0
 23 24  1  0
 23 25  1  0
 19 26  2  0
  8 27  2  0
 27  4  1  0
 26  9  1  0
 17 12  1  0
 25 20  1  0
  1 28  1  0
  1 29  1  0
  1 30  1  0
  2 31  1  0
  2 32  1  0
  3 33  1  0
  5 34  1  0
  7 35  1  0
 10 36  1  0
 13 37  1  0
 14 38  1  0
 15 39  1  0
 16 40  1  0
 21 41  1  0
 22 42  1  0
 24 43  1  0
 24 44  1  0
 24 45  1  0
 26 46  1  0
 27 47  1  0
M  END
>  <UniqueID>  (33) 
33

>  <SMILES>  (33) 
CCNc1cncc(-c2cc(-c3ccccn3)nc(-c3ccc(C)o3)c2)c1

>  <Energy>  (33) 
82.32984139356043

>  <Genealogy>  (33) 
CCNc1cncc(-c2cc(-c3ccccn3)nc(-c3ccc(C)o3)c2)c1 (3D coordinates assigned)
CCNc1cncc(-c2cc(-c3ccccn3)nc(-c3ccc(C)o3)c2)c1 (optimized conformer: 82.32984139356043 kcal/mol)

>  <smiles>  (33) 
CCNc1cncc(-c2cc(-c3ccccn3)nc(-c3ccc(C)o3)c2)c1

>  <score_type>  (33) 
oracle

>  <origin>  (33) 
adgpu

>  <m_score__min__energy>  (33) 
-8.9399999999999995

>  <m_primary>  (33) 
energy

$$$$
33:0
     RDKit          3D

 45 47  0  0  0  0  0  0  0  0999 V2000
   -9.8670   21.4270  -31.9300 C   0  0  0  0  0  0  0  0  0  0  0  0
   -8.5080   20.8210  -32.0630 C   0  0  0  0  0  0  0  0  0  0  0  0
   -7.5620   21.2610  -31.3550 O   0  0  0  0  0  0  0  0  0  0  0  0
   -8.2760   19.7970  -33.0410 N   0  0  0  0  0  0  0  0  0  0  0  0
   -7.0680   19.0220  -33.1290 C   0  0  0  0  0  0  0  0  0  0  0  0
   -7.0450   17.6620  -32.7830 C   0  0  0  0  0  0  0  0  0  0  0  0
   -5.8620   16.9290  -32.8820 C   0  0  0  0  0  0  0  0  0  0  0  0
   -4.6860   17.5350  -33.3460 C   0  0  0  0  0  0  0  0  0  0  0  0
   -3.4820   16.7610  -33.4300 N   0  0  0  0  0  0  0  0  0  0  0  0
   -4.7070   18.8870  -33.7440 C   0  0  0  0  0  0  0  0  0  0  0  0
   -3.4950   19.5010  -34.2110 N   0  0  0  0  0  0  0  0  0  0  0  0
   -2.2720   19.6630  -33.4790 C   0  0  0  0  0  0  0  0  0  0  0  0
   -1.2640   18.9630  -33.7710 O   0  0  0  0  0  0  0  0  0  0  0  0
   -2.2080   20.6100  -32.3420 C   0  0  0  0  0  0  0  0  0  0  0  0
   -1.0770   20.6530  -31.5100 C   0  0  0  0  0  0  0  0  0  0  0  0
   -1.0170   21.5440  -30.4340 C   0  0  0  0  0  0  0  0  0  0  0  0
   -2.0900   22.4130  -30.1650 C   0  0  0  0  0  0  0  0  0  0  0  0
   -2.0290   23.3550  -29.0200 C   0  0  0  0  0  0  0  0  0  0  0  0
   -0.8840   24.1460  -28.8050 C   0  0  0  0  0  0  0  0  0  0  0  0
   -0.8270   25.0350  -27.7270 C   0  0  0  0  0  0  0  0  0  0  0  0
   -1.9120   25.1480  -26.8510 C   0  0  0  0  0  0  0  0  0  0  0  0
   -1.8550   26.0650  -25.7430 C   0  0  0  0  0  0  0  0  0  0  0  0
   -1.8080   26.8030  -24.8530 N   0  0  0  0  0  0  0  0  0  0  0  0
   -3.0560   24.3660  -27.0560 C   0  0  0  0  0  0  0  0  0  0  0  0
   -3.1140   23.4760  -28.1320 C   0  0  0  0  0  0  0  0  0  0  0  0
   -3.2210   22.3710  -31.0000 C   0  0  0  0  0  0  0  0  0  0  0  0
   -3.2790   21.4830  -32.0760 C   0  0  0  0  0  0  0  0  0  0  0  0
   -5.8990   19.6240  -33.6180 C   0  0  0  0  0  0  0  0  0  0  0  0
  -10.1162   21.5381  -30.8644 H   0  0  0  0  0  0  0  0  0  0  0  0
   -9.8769   22.4148  -32.4138 H   0  0  0  0  0  0  0  0  0  0  0  0
  -10.6085   20.7743  -32.4138 H   0  0  0  0  0  0  0  0  0  0  0  0
   -8.9980   19.6680  -33.7870 H   0  0  0  0  0  0  0  0  0  0  0  0
   -7.9647   17.1713  -32.4318 H   0  0  0  0  0  0  0  0  0  0  0  0
   -5.8519   15.8675  -32.5938 H   0  0  0  0  0  0  0  0  0  0  0  0
   -3.4830   15.7280  -33.2840 H   0  0  0  0  0  0  0  0  0  0  0  0
   -2.5710   17.2180  -33.6590 H   0  0  0  0  0  0  0  0  0  0  0  0
   -0.2302   19.9791  -31.7069 H   0  0  0  0  0  0  0  0  0  0  0  0
   -0.1235   21.5656  -29.7927 H   0  0  0  0  0  0  0  0  0  0  0  0
   -0.0276   24.0640  -29.4904 H   0  0  0  0  0  0  0  0  0  0  0  0
    0.0731   25.6469  -27.5674 H   0  0  0  0  0  0  0  0  0  0  0  0
   -3.9104   24.4526  -26.3687 H   0  0  0  0  0  0  0  0  0  0  0  0
   -4.0155   22.8648  -28.2861 H   0  0  0  0  0  0  0  0  0  0  0  0
   -4.0683   23.0444  -30.8034 H   0  0  0  0  0  0  0  0  0  0  0  0
   -4.1697   21.4658  -32.7213 H   0  0  0  0  0  0  0  0  0  0  0  0
   -5.9144   20.6854  -33.9065 H   0  0  0  0  0  0  0  0  0  0  0  0
  1  2  1  0
  2  3  2  0
  2  4  1  0
  4  5  1  0
  5  6  2  0
  6  7  1  0
  7  8  2  0
  8  9  1  0
  8 10  1  0
 10 11  1  0
 11 12  1  0
 12 13  2  0
 12 14  1  0
 14 15  2  0
 15 16  1  0
 16 17  2  0
 17 18  1  0
 18 19  2  0
 19 20  1  0
 20 21  2  0
 21 22  1  0
 22 23  3  0
 21 24  1  0
 24 25  2  0
 17 26  1  0
 26 27  2  0
 10 28  2  0
 28  5  1  0
 27 14  1  0
 25 18  1  0
  1 29  1  0
  1 30  1  0
  1 31  1  0
  4 32  1  0
  6 33  1  0
  7 34  1  0
  9 35  1  0
  9 36  1  0
 15 37  1  0
 16 38  1  0
 19 39  1  0
 20 40  1  0
 24 41  1  0
 25 42  1  0
 26 43  1  0
 27 44  1  0
 28 45  1  0
M  CHG  1  11  -1
M  END
>  <UniqueID>  (34) 
34

>  <SMILES>  (34) 
CC(=O)Nc1ccc(N)c([N-]C(=O)c2ccc(-c3ccc(C#N)cc3)cc2)c1

>  <Energy>  (34) 
58.180390904253855

>  <Genealogy>  (34) 
CC(=O)Nc1ccc(N)c([N-]C(=O)c2ccc(-c3ccc(C#N)cc3)cc2)c1 (protonated)
CC(=O)Nc1ccc(N)c([N-]C(=O)c2ccc(-c3ccc(C#N)cc3)cc2)c1 (3D coordinates assigned)
CC(=O)Nc1ccc(N)c([N-]C(=O)c2ccc(-c3ccc(C#N)cc3)cc2)c1 (optimized conformer: 58.180390904253855 kcal/mol)

>  <smiles>  (34) 
CC(=O)Nc1ccc(N)c(NC(=O)c2ccc(-c3ccc(C#N)cc3)cc2)c1

>  <score_type>  (34) 
oracle

>  <origin>  (34) 
adgpu

>  <m_score__min__energy>  (34) 
-12.24

>  <m_primary>  (34) 
energy

$$$$
34:0
     RDKit          3D

 64 67  0  0  0  0  0  0  0  0999 V2000
   -1.9658   25.0274  -28.6274 H   0  0  0  0  0  0  0  0  0  0  0  0
   -2.0830   24.1160  -29.2320 C   0  0  0  0  0  0  0  0  0  0  0  0
   -1.2580   23.0110  -28.9910 C   0  0  0  0  0  0  0  0  0  0  0  0
   -0.4925   23.0588  -28.2025 H   0  0  0  0  0  0  0  0  0  0  0  0
   -1.4060   21.8420  -29.7540 C   0  0  0  0  0  0  0  0  0  0  0  0
   -0.3970   20.4300  -29.4580 S   0  0  0  0  0  0  0  0  0  0  0  0
    0.5190   20.7380  -28.3090 O   0  0  0  0  0  0  0  0  0  0  0  0
   -1.2290   19.2310  -29.0930 O   0  0  0  0  0  0  0  0  0  0  0  0
    0.5530   20.0880  -30.8740 N   0  0  0  0  0  0  0  0  0  0  0  0
    1.5470   20.4070  -30.8410 H   0  0  0  0  0  0  0  0  0  0  0  0
    0.0730   19.5620  -31.9710 C   0  0  0  0  0  0  0  0  0  0  0  0
   -1.2910   19.0980  -32.0490 N   0  0  0  0  0  0  0  0  0  0  0  0
   -1.8250   18.8720  -31.1840 H   0  0  0  0  0  0  0  0  0  0  0  0
   -1.9370   18.8030  -33.3260 C   0  0  0  0  0  0  0  0  0  0  0  0
   -2.9204   18.3496  -33.1328 H   0  0  0  0  0  0  0  0  0  0  0  0
   -1.2912   18.1124  -33.8882 H   0  0  0  0  0  0  0  0  0  0  0  0
   -2.1300   20.0760  -34.1670 C   0  0  0  0  0  0  0  0  0  0  0  0
   -2.9842   20.6325  -33.7538 H   0  0  0  0  0  0  0  0  0  0  0  0
   -2.2891   19.7409  -35.2026 H   0  0  0  0  0  0  0  0  0  0  0  0
   -0.9150   21.0200  -34.2000 C   0  0  0  0  0  0  0  0  0  0  0  0
   -0.8707   21.5601  -33.2428 H   0  0  0  0  0  0  0  0  0  0  0  0
   -1.0574   21.6916  -35.0595 H   0  0  0  0  0  0  0  0  0  0  0  0
    0.4320   20.3020  -34.4140 C   0  0  0  0  0  0  0  0  0  0  0  0
    1.1886   21.0642  -34.6520 H   0  0  0  0  0  0  0  0  0  0  0  0
    0.2635   19.5775  -35.2244 H   0  0  0  0  0  0  0  0  0  0  0  0
    0.9470   19.4780  -33.2050 C   0  0  0  0  0  0  0  0  0  0  0  0
    1.9501   19.8446  -32.9414 H   0  0  0  0  0  0  0  0  0  0  0  0
    0.9438   18.4241  -33.5200 H   0  0  0  0  0  0  0  0  0  0  0  0
   -2.3680   21.7990  -30.7690 C   0  0  0  0  0  0  0  0  0  0  0  0
   -2.4913   20.8845  -31.3677 H   0  0  0  0  0  0  0  0  0  0  0  0
   -3.1730   22.9120  -31.0260 C   0  0  0  0  0  0  0  0  0  0  0  0
   -3.9015   22.8823  -31.8496 H   0  0  0  0  0  0  0  0  0  0  0  0
   -3.0560   24.0690  -30.2370 C   0  0  0  0  0  0  0  0  0  0  0  0
   -3.8560   25.2390  -30.4780 N   0  0  0  0  0  0  0  0  0  0  0  0
   -5.2890   25.3090  -30.4820 C   0  0  0  0  0  0  0  0  0  0  0  0
   -5.8450   26.3750  -30.1050 O   0  0  0  0  0  0  0  0  0  0  0  0
   -6.1240   24.1500  -30.8620 C   0  0  0  0  0  0  0  0  0  0  0  0
   -6.2870   23.8130  -32.2150 C   0  0  0  0  0  0  0  0  0  0  0  0
   -5.8463   24.4499  -32.9961 H   0  0  0  0  0  0  0  0  0  0  0  0
   -7.0080   22.6700  -32.5720 C   0  0  0  0  0  0  0  0  0  0  0  0
   -7.1167   22.4011  -33.6331 H   0  0  0  0  0  0  0  0  0  0  0  0
   -7.5930   21.8650  -31.5860 C   0  0  0  0  0  0  0  0  0  0  0  0
   -8.4260   20.3760  -32.0350 S   0  0  0  0  0  0  0  0  0  0  0  0
   -9.7370   20.7210  -32.6880 O   0  0  0  0  0  0  0  0  0  0  0  0
   -8.7190   19.5780  -30.7940 O   0  0  0  0  0  0  0  0  0  0  0  0
   -7.4700   19.4150  -33.1390 N   0  0  0  0  0  0  0  0  0  0  0  0
   -7.8760   19.5530  -34.0950 H   0  0  0  0  0  0  0  0  0  0  0  0
   -7.5480   17.9840  -32.7840 C   0  0  0  0  0  0  0  0  0  0  0  0
   -7.3790   17.8731  -31.7027 H   0  0  0  0  0  0  0  0  0  0  0  0
   -8.5447   17.6106  -33.0617 H   0  0  0  0  0  0  0  0  0  0  0  0
   -6.4870   17.1590  -33.5470 C   0  0  0  0  0  0  0  0  0  0  0  0
   -5.6787   16.8840  -32.8535 H   0  0  0  0  0  0  0  0  0  0  0  0
   -6.9705   16.2585  -33.9535 H   0  0  0  0  0  0  0  0  0  0  0  0
   -5.9420   17.9000  -34.6210 O   0  0  0  0  0  0  0  0  0  0  0  0
   -5.2280   19.0180  -34.1230 C   0  0  0  0  0  0  0  0  0  0  0  0
   -4.3306   18.6585  -33.5981 H   0  0  0  0  0  0  0  0  0  0  0  0
   -4.9662   19.6566  -34.9795 H   0  0  0  0  0  0  0  0  0  0  0  0
   -6.0690   19.8670  -33.1430 C   0  0  0  0  0  0  0  0  0  0  0  0
   -5.6537   19.7670  -32.1293 H   0  0  0  0  0  0  0  0  0  0  0  0
   -6.0358   20.9183  -33.4649 H   0  0  0  0  0  0  0  0  0  0  0  0
   -7.4770   22.2310  -30.2390 C   0  0  0  0  0  0  0  0  0  0  0  0
   -7.9664   21.6249  -29.4624 H   0  0  0  0  0  0  0  0  0  0  0  0
   -6.7420   23.3630  -29.8780 C   0  0  0  0  0  0  0  0  0  0  0  0
   -6.6472   23.6387  -28.8173 H   0  0  0  0  0  0  0  0  0  0  0  0
  1  2  1  0
  2  3  2  0
  3  4  1  0
  3  5  1  0
  5  6  1  0
  6  7  2  0
  6  8  2  0
  6  9  1  0
  9 10  1  0
  9 11  2  0
 11 12  1  0
 12 13  1  0
 12 14  1  0
 14 15  1  0
 14 16  1  0
 14 17  1  0
 17 18  1  0
 17 19  1  0
 17 20  1  0
 20 21  1  0
 20 22  1  0
 20 23  1  0
 23 24  1  0
 23 25  1  0
 23 26  1  0
 26 27  1  0
 26 28  1  0
  5 29  2  0
 29 30  1  0
 29 31  1  0
 31 32  1  0
 31 33  2  0
 33 34  1  0
 34 35  1  0
 35 36  2  0
 35 37  1  0
 37 38  2  0
 38 39  1  0
 38 40  1  0
 40 41  1  0
 40 42  2  0
 42 43  1  0
 43 44  2  0
 43 45  2  0
 43 46  1  0
 46 47  1  0
 46 48  1  0
 48 49  1  0
 48 50  1  0
 48 51  1  0
 51 52  1  0
 51 53  1  0
 51 54  1  0
 54 55  1  0
 55 56  1  0
 55 57  1  0
 55 58  1  0
 58 59  1  0
 58 60  1  0
 42 61  1  0
 61 62  1  0
 61 63  2  0
 63 64  1  0
 33  2  1  0
 63 37  1  0
 26 11  1  0
 58 46  1  0
M  CHG  3   9   1  34  -1  46   1
M  END
>  <UniqueID>  (35) 
35

>  <SMILES>  (35) 
O=C([N-]c1ccc(S(=O)(=O)/[NH+]=C2\CCCCCN2)cc1)c1ccc(S(=O)(=O)[NH+]2CCOCC2)cc1

>  <Energy>  (35) 
82.13763065700473

>  <Genealogy>  (35) 
O=C([N-]c1ccc(S(=O)(=O)[NH+]=C2CCCCCN2)cc1)c1ccc(S(=O)(=O)[NH+]2CCOCC2)cc1 (protonated)
O=C([N-]c1ccc(S(=O)(=O)/[NH+]=C2\CCCCCN2)cc1)c1ccc(S(=O)(=O)[NH+]2CCOCC2)cc1 (cis-trans isomerization)
O=C([N-]c1ccc(S(=O)(=O)/[NH+]=C2\CCCCCN2)cc1)c1ccc(S(=O)(=O)[NH+]2CCOCC2)cc1 (3D coordinates assigned)
O=C([N-]c1ccc(S(=O)(=O)/[NH+]=C2\CCCCCN2)cc1)c1ccc(S(=O)(=O)[NH+]2CCOCC2)cc1 (nonaromatic ring conformer: 82.13763065700473 kcal/mol)

>  <smiles>  (35) 
O=C(Nc1ccc(S(=O)(=O)N=C2CCCCCN2)cc1)c1ccc(S(=O)(=O)N2CCOCC2)cc1

>  <score_type>  (35) 
oracle

>  <origin>  (35) 
adgpu

>  <m_score__min__energy>  (35) 
-10.51

>  <m_primary>  (35) 
energy

$$$$
35:0
     RDKit          3D

 26 27  0  0  0  0  0  0  0  0999 V2000
   -3.4250   19.4010  -26.7280 C   0  0  0  0  0  0  0  0  0  0  0  0
   -2.7180   20.3140  -27.5600 O   0  0  0  0  0  0  0  0  0  0  0  0
   -1.4720   20.0850  -28.1770 C   0  0  0  0  0  0  0  0  0  0  0  0
   -1.0520   20.9630  -29.2040 C   0  0  0  0  0  0  0  0  0  0  0  0
   -1.8560   22.1400  -29.6060 C   0  0  0  0  0  0  0  0  0  0  0  0
   -1.5220   23.4080  -29.1040 C   0  0  0  0  0  0  0  0  0  0  0  0
   -2.2790   24.5310  -29.4540 C   0  0  0  0  0  0  0  0  0  0  0  0
   -1.9250   25.7810  -28.9600 O   0  0  0  0  0  0  0  0  0  0  0  0
   -3.3890   24.3970  -30.2990 C   0  0  0  0  0  0  0  0  0  0  0  0
   -4.1290   25.5300  -30.6390 O   0  0  0  0  0  0  0  0  0  0  0  0
   -3.7410   23.1290  -30.7870 C   0  0  0  0  0  0  0  0  0  0  0  0
   -4.8480   22.9740  -31.6140 O   0  0  0  0  0  0  0  0  0  0  0  0
   -2.9820   22.0080  -30.4370 C   0  0  0  0  0  0  0  0  0  0  0  0
    0.0890   20.7360  -29.8510 O   0  0  0  0  0  0  0  0  0  0  0  0
    0.8940   19.7190  -29.5670 C   0  0  0  0  0  0  0  0  0  0  0  0
    0.5670   18.8260  -28.5510 C   0  0  0  0  0  0  0  0  0  0  0  0
   -0.6240   19.0030  -27.8490 C   0  0  0  0  0  0  0  0  0  0  0  0
   -0.9180   18.1860  -26.9370 O   0  0  0  0  0  0  0  0  0  0  0  0
   -3.2360   19.6451  -25.6722 H   0  0  0  0  0  0  0  0  0  0  0  0
   -4.5029   19.4760  -26.9344 H   0  0  0  0  0  0  0  0  0  0  0  0
   -3.0826   18.3762  -26.9344 H   0  0  0  0  0  0  0  0  0  0  0  0
   -0.6591   23.5191  -28.4309 H   0  0  0  0  0  0  0  0  0  0  0  0
   -3.8730   26.4570  -30.3190 H   0  0  0  0  0  0  0  0  0  0  0  0
   -3.2682   21.0154  -30.8148 H   0  0  0  0  0  0  0  0  0  0  0  0
    1.8242   19.5816  -30.1378 H   0  0  0  0  0  0  0  0  0  0  0  0
    1.2398   17.9912  -28.3051 H   0  0  0  0  0  0  0  0  0  0  0  0
  1  2  1  0
  2  3  1  0
  3  4  2  0
  4  5  1  0
  5  6  2  0
  6  7  1  0
  7  8  1  0
  7  9  2  0
  9 10  1  0
  9 11  1  0
 11 12  1  0
 11 13  2  0
  4 14  1  0
 14 15  1  0
 15 16  2  0
 16 17  1  0
 17 18  2  0
 17  3  1  0
 13  5  1  0
  1 19  1  0
  1 20  1  0
  1 21  1  0
  6 22  1  0
 10 23  1  0
 13 24  1  0
 15 25  1  0
 16 26  1  0
M  CHG  2   8  -1  12  -1
M  END
>  <UniqueID>  (36) 
36

>  <SMILES>  (36) 
COc1c(-c2cc([O-])c(O)c([O-])c2)occc1=O

>  <Energy>  (36) 
36.61507963970164

>  <Genealogy>  (36) 
COc1c(-c2cc([O-])c(O)c([O-])c2)occc1=O (protonated)
COc1c(-c2cc([O-])c(O)c([O-])c2)occc1=O (3D coordinates assigned)
COc1c(-c2cc([O-])c(O)c([O-])c2)occc1=O (optimized conformer: 36.61507963970164 kcal/mol)

>  <smiles>  (36) 
COc1c(-c2cc(O)c(O)c(O)c2)occc1=O

>  <score_type>  (36) 
oracle

>  <origin>  (36) 
adgpu

>  <m_score__min__energy>  (36) 
-9.5099999999999998

>  <m_primary>  (36) 
energy

$$$$
36:0
     RDKit          3D

 61 63  0  0  0  0  0  0  0  0999 V2000
   -6.4450   23.9450  -31.0230 C   0  0  0  0  0  0  0  0  0  0  0  0
   -5.0720   24.3100  -31.1240 O   0  0  0  0  0  0  0  0  0  0  0  0
   -3.9870   23.4170  -31.1940 C   0  0  0  0  0  0  0  0  0  0  0  0
   -3.9390   22.5610  -32.3040 C   0  0  0  0  0  0  0  0  0  0  0  0
   -2.8920   21.6420  -32.4630 C   0  0  0  0  0  0  0  0  0  0  0  0
   -2.8490   20.7160  -33.6480 C   0  0  0  0  0  0  0  0  0  0  0  0
   -2.3590   19.3870  -33.2280 N   0  0  0  0  0  0  0  0  0  0  0  0
   -3.3620   18.3060  -33.3230 C   0  0  0  0  0  0  0  0  0  0  0  0
   -4.7240   18.8850  -33.0600 C   0  0  0  0  0  0  0  0  0  0  0  0
   -5.1880   19.0640  -31.7450 C   0  0  0  0  0  0  0  0  0  0  0  0
   -6.4680   19.5790  -31.5170 C   0  0  0  0  0  0  0  0  0  0  0  0
   -7.2970   19.9050  -32.6010 C   0  0  0  0  0  0  0  0  0  0  0  0
   -8.6000   20.4700  -32.3710 C   0  0  0  0  0  0  0  0  0  0  0  0
   -9.6440   20.9380  -32.1890 N   0  0  0  0  0  0  0  0  0  0  0  0
   -6.8460   19.7040  -33.9100 C   0  0  0  0  0  0  0  0  0  0  0  0
   -5.5680   19.1900  -34.1390 C   0  0  0  0  0  0  0  0  0  0  0  0
   -0.9950   19.0360  -33.6900 C   0  0  0  0  0  0  0  0  0  0  0  0
   -0.1980   20.1800  -34.2950 C   0  0  0  0  0  0  0  0  0  0  0  0
   -0.5430   20.7600  -35.5310 C   0  0  0  0  0  0  0  0  0  0  0  0
    0.2460   21.7690  -36.0860 C   0  0  0  0  0  0  0  0  0  0  0  0
    1.4230   22.1920  -35.4450 C   0  0  0  0  0  0  0  0  0  0  0  0
    2.2740   23.2360  -36.0590 C   0  0  0  0  0  0  0  0  0  0  0  0
    3.4250   23.4570  -35.5950 O   0  0  0  0  0  0  0  0  0  0  0  0
    1.7810   24.0050  -37.1670 N   0  0  0  0  0  0  0  0  0  0  0  0
    1.2620   25.3730  -37.1100 C   0  0  0  0  0  0  0  0  0  0  0  0
    1.2680   26.0250  -38.5000 C   0  0  0  0  0  0  0  0  0  0  0  0
   -0.1300   25.4080  -36.4710 C   0  0  0  0  0  0  0  0  0  0  0  0
    1.7870   21.5920  -34.2300 C   0  0  0  0  0  0  0  0  0  0  0  0
    0.9840   20.5990  -33.6610 C   0  0  0  0  0  0  0  0  0  0  0  0
   -1.8740   21.5860  -31.5030 C   0  0  0  0  0  0  0  0  0  0  0  0
   -1.9090   22.4260  -30.3910 C   0  0  0  0  0  0  0  0  0  0  0  0
   -2.9580   23.3430  -30.2210 C   0  0  0  0  0  0  0  0  0  0  0  0
   -2.9610   24.1630  -29.0920 O   0  0  0  0  0  0  0  0  0  0  0  0
   -6.7274   23.8699  -29.9625 H   0  0  0  0  0  0  0  0  0  0  0  0
   -7.0648   24.7096  -31.5142 H   0  0  0  0  0  0  0  0  0  0  0  0
   -6.6033   22.9736  -31.5142 H   0  0  0  0  0  0  0  0  0  0  0  0
   -4.7350   22.6114  -33.0615 H   0  0  0  0  0  0  0  0  0  0  0  0
   -3.8599   20.6158  -34.0698 H   0  0  0  0  0  0  0  0  0  0  0  0
   -2.1694   21.1299  -34.4075 H   0  0  0  0  0  0  0  0  0  0  0  0
   -3.3359   17.8649  -34.3303 H   0  0  0  0  0  0  0  0  0  0  0  0
   -3.1392   17.5232  -32.5830 H   0  0  0  0  0  0  0  0  0  0  0  0
   -4.5432   18.7986  -30.8942 H   0  0  0  0  0  0  0  0  0  0  0  0
   -6.8251   19.7286  -30.4874 H   0  0  0  0  0  0  0  0  0  0  0  0
   -7.4990   19.9512  -34.7600 H   0  0  0  0  0  0  0  0  0  0  0  0
   -5.2213   19.0234  -35.1696 H   0  0  0  0  0  0  0  0  0  0  0  0
   -0.4330   18.6499  -32.8268 H   0  0  0  0  0  0  0  0  0  0  0  0
   -1.1278   18.2992  -34.4959 H   0  0  0  0  0  0  0  0  0  0  0  0
   -1.4416   20.4151  -36.0635 H   0  0  0  0  0  0  0  0  0  0  0  0
   -0.0564   22.2375  -37.0342 H   0  0  0  0  0  0  0  0  0  0  0  0
    1.9314   25.9651  -36.4687 H   0  0  0  0  0  0  0  0  0  0  0  0
    1.2781   27.1196  -38.3915 H   0  0  0  0  0  0  0  0  0  0  0  0
    2.1632   25.7030  -39.0522 H   0  0  0  0  0  0  0  0  0  0  0  0
    0.3670   25.7195  -39.0522 H   0  0  0  0  0  0  0  0  0  0  0  0
   -0.0307   25.4055  -35.3755 H   0  0  0  0  0  0  0  0  0  0  0  0
   -0.6568   26.3197  -36.7894 H   0  0  0  0  0  0  0  0  0  0  0  0
   -0.7019   24.5240  -36.7894 H   0  0  0  0  0  0  0  0  0  0  0  0
    2.7108   21.9051  -33.7215 H   0  0  0  0  0  0  0  0  0  0  0  0
    1.2808   20.1405  -32.7062 H   0  0  0  0  0  0  0  0  0  0  0  0
   -1.0430   20.8760  -31.6269 H   0  0  0  0  0  0  0  0  0  0  0  0
   -1.1073   22.3697  -29.6400 H   0  0  0  0  0  0  0  0  0  0  0  0
   -3.7340   24.7890  -28.8940 H   0  0  0  0  0  0  0  0  0  0  0  0
  1  2  1  0
  2  3  1  0
  3  4  2  0
  4  5  1  0
  5  6  1  0
  6  7  1  0
  7  8  1  0
  8  9  1  0
  9 10  2  0
 10 11  1  0
 11 12  2  0
 12 13  1  0
 13 14  3  0
 12 15  1  0
 15 16  2  0
  7 17  1  0
 17 18  1  0
 18 19  2  0
 19 20  1  0
 20 21  2  0
 21 22  1  0
 22 23  2  0
 22 24  1  0
 24 25  1  0
 25 26  1  0
 25 27  1  0
 21 28  1  0
 28 29  2  0
  5 30  2  0
 30 31  1  0
 31 32  2  0
 32 33  1  0
 32  3  1  0
 16  9  1  0
 29 18  1  0
  1 34  1  0
  1 35  1  0
  1 36  1  0
  4 37  1  0
  6 38  1  0
  6 39  1  0
  8 40  1  0
  8 41  1  0
 10 42  1  0
 11 43  1  0
 15 44  1  0
 16 45  1  0
 17 46  1  0
 17 47  1  0
 19 48  1  0
 20 49  1  0
 25 50  1  0
 26 51  1  0
 26 52  1  0
 26 53  1  0
 27 54  1  0
 27 55  1  0
 27 56  1  0
 28 57  1  0
 29 58  1  0
 30 59  1  0
 31 60  1  0
 33 61  1  0
M  CHG  1  24  -1
M  END
>  <UniqueID>  (37) 
37

>  <SMILES>  (37) 
COc1cc(CN(Cc2ccc(C#N)cc2)Cc2ccc(C(=O)[N-]C(C)C)cc2)ccc1O

>  <Energy>  (37) 
68.52578663703326

>  <Genealogy>  (37) 
COc1cc(CN(Cc2ccc(C#N)cc2)Cc2ccc(C(=O)[N-]C(C)C)cc2)ccc1O (protonated)
COc1cc(CN(Cc2ccc(C#N)cc2)Cc2ccc(C(=O)[N-]C(C)C)cc2)ccc1O (3D coordinates assigned)
COc1cc(CN(Cc2ccc(C#N)cc2)Cc2ccc(C(=O)[N-]C(C)C)cc2)ccc1O (optimized conformer: 68.52578663703326 kcal/mol)

>  <smiles>  (37) 
COc1cc(CN(Cc2ccc(C#N)cc2)Cc2ccc(C(=O)NC(C)C)cc2)ccc1O

>  <score_type>  (37) 
oracle

>  <origin>  (37) 
adgpu

>  <m_score__min__energy>  (37) 
-10.289999999999999

>  <m_primary>  (37) 
energy

$$$$
37:0
     RDKit          3D

 31 33  0  0  0  0  0  0  0  0999 V2000
   -1.6770   25.6920  -28.9680 N   0  0  0  0  0  0  0  0  0  0  0  0
   -2.5180   24.2600  -28.4910 S   0  0  0  0  0  0  0  0  0  0  0  0
   -2.9740   24.3980  -27.0660 O   0  0  0  0  0  0  0  0  0  0  0  0
   -1.5820   23.0900  -28.6040 O   0  0  0  0  0  0  0  0  0  0  0  0
   -3.9180   24.0120  -29.5310 C   0  0  0  0  0  0  0  0  0  0  0  0
   -5.1850   24.4430  -29.1240 C   0  0  0  0  0  0  0  0  0  0  0  0
   -6.2910   24.2540  -29.9540 C   0  0  0  0  0  0  0  0  0  0  0  0
   -6.1440   23.6410  -31.2040 C   0  0  0  0  0  0  0  0  0  0  0  0
   -7.6030   23.4380  -32.2350 S   0  0  0  0  0  0  0  0  0  0  0  0
   -7.3760   21.6680  -32.3500 C   0  0  0  0  0  0  0  0  0  0  0  0
   -6.6850   21.0720  -33.3500 N   0  0  0  0  0  0  0  0  0  0  0  0
   -6.6840   19.7240  -33.1960 C   0  0  0  0  0  0  0  0  0  0  0  0
   -6.0580   18.8310  -34.0680 C   0  0  0  0  0  0  0  0  0  0  0  0
   -6.1350   17.4540  -33.7940 C   0  0  0  0  0  0  0  0  0  0  0  0
   -6.8320   16.9900  -32.6610 C   0  0  0  0  0  0  0  0  0  0  0  0
   -7.4580   17.8970  -31.7920 C   0  0  0  0  0  0  0  0  0  0  0  0
   -7.3660   19.2560  -32.0850 C   0  0  0  0  0  0  0  0  0  0  0  0
   -8.0080   20.5560  -31.2400 S   0  0  0  0  0  0  0  0  0  0  0  0
   -4.8680   23.2050  -31.6250 C   0  0  0  0  0  0  0  0  0  0  0  0
   -4.6730   22.5730  -32.8960 N   0  0  0  0  0  0  0  0  0  0  0  0
   -3.7630   23.4010  -30.7810 C   0  0  0  0  0  0  0  0  0  0  0  0
   -1.6010   25.6680  -30.0100 H   0  0  0  0  0  0  0  0  0  0  0  0
   -5.3100   24.9324  -28.1468 H   0  0  0  0  0  0  0  0  0  0  0  0
   -7.2853   24.5891  -29.6236 H   0  0  0  0  0  0  0  0  0  0  0  0
   -5.5153   19.1975  -34.9518 H   0  0  0  0  0  0  0  0  0  0  0  0
   -5.6479   16.7345  -34.4686 H   0  0  0  0  0  0  0  0  0  0  0  0
   -6.8859   15.9106  -32.4563 H   0  0  0  0  0  0  0  0  0  0  0  0
   -8.0055   17.5451  -30.9052 H   0  0  0  0  0  0  0  0  0  0  0  0
   -4.6090   23.1440  -33.7680 H   0  0  0  0  0  0  0  0  0  0  0  0
   -4.5860   21.5380  -32.9930 H   0  0  0  0  0  0  0  0  0  0  0  0
   -2.7651   23.0710  -31.1054 H   0  0  0  0  0  0  0  0  0  0  0  0
  1  2  1  0
  2  3  2  0
  2  4  2  0
  2  5  1  0
  5  6  2  0
  6  7  1  0
  7  8  2  0
  8  9  1  0
  9 10  1  0
 10 11  2  0
 11 12  1  0
 12 13  2  0
 13 14  1  0
 14 15  2  0
 15 16  1  0
 16 17  2  0
 17 18  1  0
  8 19  1  0
 19 20  1  0
 19 21  2  0
 21  5  1  0
 18 10  1  0
 17 12  1  0
  1 22  1  0
  6 23  1  0
  7 24  1  0
 13 25  1  0
 14 26  1  0
 15 27  1  0
 16 28  1  0
 20 29  1  0
 20 30  1  0
 21 31  1  0
M  CHG  1   1  -1
M  END
>  <UniqueID>  (38) 
38

>  <SMILES>  (38) 
[NH-]S(=O)(=O)c1ccc(Sc2nc3ccccc3s2)c(N)c1

>  <Energy>  (38) 
63.88953486552373

>  <Genealogy>  (38) 
[NH-]S(=O)(=O)c1ccc(Sc2nc3ccccc3s2)c(N)c1 (protonated)
[NH-]S(=O)(=O)c1ccc(Sc2nc3ccccc3s2)c(N)c1 (3D coordinates assigned)
[NH-]S(=O)(=O)c1ccc(Sc2nc3ccccc3s2)c(N)c1 (optimized conformer: 63.88953486552373 kcal/mol)

>  <smiles>  (38) 
Nc1cc(S(N)(=O)=O)ccc1Sc1nc2ccccc2s1

>  <score_type>  (38) 
oracle

>  <origin>  (38) 
adgpu

>  <m_score__min__energy>  (38) 
-10.58

>  <m_primary>  (38) 
energy

$$$$
38:0
     RDKit          3D

 42 44  0  0  0  0  0  0  0  0999 V2000
   -2.3560   24.7060  -28.1310 C   0  0  0  0  0  0  0  0  0  0  0  0
   -2.8840   25.2570  -29.3330 O   0  0  0  0  0  0  0  0  0  0  0  0
   -3.7970   24.6020  -30.1720 C   0  0  0  0  0  0  0  0  0  0  0  0
   -3.4720   23.4170  -30.8600 C   0  0  0  0  0  0  0  0  0  0  0  0
   -4.4160   22.8020  -31.6880 C   0  0  0  0  0  0  0  0  0  0  0  0
   -5.6930   23.3670  -31.8540 C   0  0  0  0  0  0  0  0  0  0  0  0
   -6.6840   22.7430  -32.6860 N   0  0  0  0  0  0  0  0  0  0  0  0
   -7.0590   21.3620  -32.5860 C   0  0  0  0  0  0  0  0  0  0  0  0
   -8.2060   20.8160  -32.0210 C   0  0  0  0  0  0  0  0  0  0  0  0
   -9.3480   21.5640  -31.3970 C   0  0  0  0  0  0  0  0  0  0  0  0
   -8.1090   19.4630  -32.0860 N   0  0  0  0  0  0  0  0  0  0  0  0
   -9.1220   18.5090  -31.6300 C   0  0  0  0  0  0  0  0  0  0  0  0
   -6.9280   19.1400  -32.6110 N   0  0  0  0  0  0  0  0  0  0  0  0
   -6.4160   17.8080  -32.7900 C   0  0  0  0  0  0  0  0  0  0  0  0
   -5.7990   17.1340  -31.7240 C   0  0  0  0  0  0  0  0  0  0  0  0
   -5.2930   15.8430  -31.9050 C   0  0  0  0  0  0  0  0  0  0  0  0
   -5.3930   15.2200  -33.1520 C   0  0  0  0  0  0  0  0  0  0  0  0
   -5.9970   15.8890  -34.2210 C   0  0  0  0  0  0  0  0  0  0  0  0
   -6.5040   17.1800  -34.0430 C   0  0  0  0  0  0  0  0  0  0  0  0
   -6.2760   20.2810  -32.9160 C   0  0  0  0  0  0  0  0  0  0  0  0
   -5.1170   20.3340  -33.4090 O   0  0  0  0  0  0  0  0  0  0  0  0
   -6.0190   24.5340  -31.1510 C   0  0  0  0  0  0  0  0  0  0  0  0
   -5.0750   25.1500  -30.3230 C   0  0  0  0  0  0  0  0  0  0  0  0
   -2.8258   25.1963  -27.2656 H   0  0  0  0  0  0  0  0  0  0  0  0
   -2.5656   23.6266  -28.0994 H   0  0  0  0  0  0  0  0  0  0  0  0
   -1.2687   24.8694  -28.0994 H   0  0  0  0  0  0  0  0  0  0  0  0
   -2.4718   22.9736  -30.7456 H   0  0  0  0  0  0  0  0  0  0  0  0
   -4.1581   21.8703  -32.2129 H   0  0  0  0  0  0  0  0  0  0  0  0
   -7.2130   23.3420  -33.3590 H   0  0  0  0  0  0  0  0  0  0  0  0
   -9.2663   21.5105  -30.3013 H   0  0  0  0  0  0  0  0  0  0  0  0
   -9.3152   22.6162  -31.7162 H   0  0  0  0  0  0  0  0  0  0  0  0
  -10.2994   21.1135  -31.7162 H   0  0  0  0  0  0  0  0  0  0  0  0
   -9.1405   18.4915  -30.5303 H   0  0  0  0  0  0  0  0  0  0  0  0
  -10.1090   18.8132  -32.0086 H   0  0  0  0  0  0  0  0  0  0  0  0
   -8.8775   17.5056  -32.0086 H   0  0  0  0  0  0  0  0  0  0  0  0
   -5.7133   17.6234  -30.7426 H   0  0  0  0  0  0  0  0  0  0  0  0
   -4.8157   15.3172  -31.0649 H   0  0  0  0  0  0  0  0  0  0  0  0
   -4.9966   14.2036  -33.2925 H   0  0  0  0  0  0  0  0  0  0  0  0
   -6.0734   15.3993  -35.2030 H   0  0  0  0  0  0  0  0  0  0  0  0
   -6.9735   17.7056  -34.8876 H   0  0  0  0  0  0  0  0  0  0  0  0
   -7.0244   24.9689  -31.2509 H   0  0  0  0  0  0  0  0  0  0  0  0
   -5.3398   26.0729  -29.7862 H   0  0  0  0  0  0  0  0  0  0  0  0
  1  2  1  0
  2  3  1  0
  3  4  2  0
  4  5  1  0
  5  6  2  0
  6  7  1  0
  7  8  1  0
  8  9  2  0
  9 10  1  0
  9 11  1  0
 11 12  1  0
 11 13  1  0
 13 14  1  0
 14 15  2  0
 15 16  1  0
 16 17  2  0
 17 18  1  0
 18 19  2  0
 13 20  1  0
 20 21  2  0
  6 22  1  0
 22 23  2  0
 23  3  1  0
 20  8  1  0
 19 14  1  0
  1 24  1  0
  1 25  1  0
  1 26  1  0
  4 27  1  0
  5 28  1  0
  7 29  1  0
 10 30  1  0
 10 31  1  0
 10 32  1  0
 12 33  1  0
 12 34  1  0
 12 35  1  0
 15 36  1  0
 16 37  1  0
 17 38  1  0
 18 39  1  0
 19 40  1  0
 22 41  1  0
 23 42  1  0
M  END
>  <UniqueID>  (39) 
39

>  <SMILES>  (39) 
COc1ccc(Nc2c(C)n(C)n(-c3ccccc3)c2=O)cc1

>  <Energy>  (39) 
89.65017192739455

>  <Genealogy>  (39) 
COc1ccc(Nc2c(C)n(C)n(-c3ccccc3)c2=O)cc1 (3D coordinates assigned)
COc1ccc(Nc2c(C)n(C)n(-c3ccccc3)c2=O)cc1 (optimized conformer: 89.65017192739455 kcal/mol)

>  <smiles>  (39) 
COc1ccc(Nc2c(C)n(C)n(-c3ccccc3)c2=O)cc1

>  <score_type>  (39) 
oracle

>  <origin>  (39) 
adgpu

>  <m_score__min__energy>  (39) 
-8.6899999999999995

>  <m_primary>  (39) 
energy

$$$$
39:0
     RDKit          3D

 33 35  0  0  1  0  0  0  0  0999 V2000
   -5.3500   23.8410  -32.2640 O   0  0  0  0  0  0  0  0  0  0  0  0
   -6.1660   23.4350  -31.3350 C   0  0  0  0  0  0  0  0  0  0  0  0
   -7.5030   23.1130  -31.8270 C   0  0  0  0  0  0  0  0  0  0  0  0
   -7.6230   21.6130  -32.0320 C   0  0  0  0  0  0  0  0  0  0  0  0
   -6.6340   20.9060  -32.6760 C   0  0  0  0  0  0  0  0  0  0  0  0
   -6.7580   19.5360  -32.8570 C   0  0  0  0  0  0  0  0  0  0  0  0
   -7.8880   18.8710  -32.3830 C   0  0  0  0  0  0  0  0  0  0  0  0
   -8.8760   19.5920  -31.7370 C   0  0  0  0  0  0  0  0  0  0  0  0
   -8.7580   20.9550  -31.5560 C   0  0  0  0  0  0  0  0  0  0  0  0
   -5.6100   23.3880  -30.0700 N   0  0  0  0  0  0  0  0  0  0  0  0
   -4.5680   23.9200  -29.5860 C   0  0  0  0  0  0  0  0  0  0  0  0
   -4.1320   23.7830  -28.2850 C   0  0  0  0  0  0  0  0  0  0  0  0
   -2.9740   24.5280  -28.2130 C   0  0  0  0  0  0  0  0  0  0  0  0
   -2.0970   24.7310  -27.0630 C   0  0  0  0  0  0  0  0  0  0  0  0
   -2.1890   25.6620  -26.0840 C   0  0  0  0  0  0  0  0  0  0  0  0
   -1.2820   25.6890  -25.1070 C   0  0  0  0  0  0  0  0  0  0  0  0
   -0.2670   24.7120  -25.1770 C   0  0  0  0  0  0  0  0  0  0  0  0
   -0.6410   23.7450  -26.6830 S   0  0  0  0  0  0  0  0  0  0  0  0
   -2.7800   25.0570  -29.4340 N   0  0  0  0  0  0  0  0  0  0  0  0
   -3.7330   24.6980  -30.2690 N   0  0  0  0  0  0  0  0  0  0  0  0
   -8.2526   23.4433  -31.0928 H   0  0  0  0  0  0  0  0  0  0  0  0
   -7.6736   23.6273  -32.7843 H   0  0  0  0  0  0  0  0  0  0  0  0
   -5.7411   21.4291  -33.0490 H   0  0  0  0  0  0  0  0  0  0  0  0
   -5.9655   18.9750  -33.3740 H   0  0  0  0  0  0  0  0  0  0  0  0
   -7.9927   17.7848  -32.5212 H   0  0  0  0  0  0  0  0  0  0  0  0
   -9.7693   19.0711  -31.3619 H   0  0  0  0  0  0  0  0  0  0  0  0
   -9.5510   21.5175  -31.0414 H   0  0  0  0  0  0  0  0  0  0  0  0
   -4.6059   23.2042  -27.4785 H   0  0  0  0  0  0  0  0  0  0  0  0
   -3.0099   26.3941  -26.0947 H   0  0  0  0  0  0  0  0  0  0  0  0
   -1.3229   26.4294  -24.2945 H   0  0  0  0  0  0  0  0  0  0  0  0
    0.5686   24.5639  -24.4771 H   0  0  0  0  0  0  0  0  0  0  0  0
   -1.9890   25.6760  -29.7250 H   0  0  0  0  0  0  0  0  0  0  0  0
   -3.8470   24.9470  -31.2600 H   0  0  0  0  0  0  0  0  0  0  0  0
  1  2  2  0
  2  3  1  0
  3  4  1  0
  4  5  2  0
  5  6  1  0
  6  7  2  0
  7  8  1  0
  8  9  2  0
  2 10  1  0
 10 11  2  0
 11 12  1  0
 12 13  2  0
 13 14  1  0
 14 15  2  0
 15 16  1  0
 16 17  2  0
 17 18  1  0
 13 19  1  0
 19 20  1  0
  9  4  1  0
 20 11  1  0
 18 14  1  0
  3 21  1  0
  3 22  1  0
  5 23  1  0
  6 24  1  0
  7 25  1  0
  8 26  1  0
  9 27  1  0
 12 28  1  0
 15 29  1  0
 16 30  1  0
 17 31  1  0
 19 32  1  0
 20 33  1  0
M  END
>  <smiles>  (40) 
O=C(Cc1ccccc1)N=c1cc(-c2cccs2)[nH][nH]1

>  <score_type>  (40) 
oracle

>  <origin>  (40) 
adgpu

>  <m_score__min__energy>  (40) 
-8.6600000000000001

>  <m_primary>  (40) 
energy

$$$$
40:0
     RDKit          3D

 38 40  0  0  0  0  0  0  0  0999 V2000
   -9.2760   22.6530  -31.9960 C   0  0  0  0  0  0  0  0  0  0  0  0
   -8.9580   21.1980  -32.1210 C   0  0  0  0  0  0  0  0  0  0  0  0
   -9.8950   20.2480  -32.3180 N   0  0  0  0  0  0  0  0  0  0  0  0
   -9.2720   19.1060  -32.3900 O   0  0  0  0  0  0  0  0  0  0  0  0
   -7.9760   19.2590  -32.2430 C   0  0  0  0  0  0  0  0  0  0  0  0
   -6.9980   18.1310  -32.2740 C   0  0  0  0  0  0  0  0  0  0  0  0
   -7.7070   20.6060  -32.0660 C   0  0  0  0  0  0  0  0  0  0  0  0
   -6.3920   21.2570  -31.8740 C   0  0  0  0  0  0  0  0  0  0  0  0
   -5.2320   20.6900  -32.4190 C   0  0  0  0  0  0  0  0  0  0  0  0
   -3.9920   21.3080  -32.2350 C   0  0  0  0  0  0  0  0  0  0  0  0
   -3.8980   22.5020  -31.5150 C   0  0  0  0  0  0  0  0  0  0  0  0
   -2.6510   23.0900  -31.3380 O   0  0  0  0  0  0  0  0  0  0  0  0
   -5.0560   23.0890  -30.9770 C   0  0  0  0  0  0  0  0  0  0  0  0
   -4.9780   24.6070  -30.0750 S   0  0  0  0  0  0  0  0  0  0  0  0
   -4.3180   25.6390  -30.9440 O   0  0  0  0  0  0  0  0  0  0  0  0
   -6.3510   25.0900  -29.6990 O   0  0  0  0  0  0  0  0  0  0  0  0
   -4.0340   24.4070  -28.6310 N   0  0  0  0  0  0  0  0  0  0  0  0
   -2.6960   23.8950  -28.5280 C   0  0  0  0  0  0  0  0  0  0  0  0
   -2.5470   22.5240  -28.2750 C   0  0  0  0  0  0  0  0  0  0  0  0
   -1.2770   21.9590  -28.1280 C   0  0  0  0  0  0  0  0  0  0  0  0
   -0.1400   22.7570  -28.2410 C   0  0  0  0  0  0  0  0  0  0  0  0
   -0.2700   24.1200  -28.5160 C   0  0  0  0  0  0  0  0  0  0  0  0
   -1.5380   24.6950  -28.6700 C   0  0  0  0  0  0  0  0  0  0  0  0
   -1.6150   26.0460  -28.9800 O   0  0  0  0  0  0  0  0  0  0  0  0
   -6.2950   22.4540  -31.1470 C   0  0  0  0  0  0  0  0  0  0  0  0
   -9.3355   22.9252  -30.9319 H   0  0  0  0  0  0  0  0  0  0  0  0
   -8.4858   23.2441  -32.4821 H   0  0  0  0  0  0  0  0  0  0  0  0
  -10.2407   22.8606  -32.4821 H   0  0  0  0  0  0  0  0  0  0  0  0
   -6.7438   17.8378  -31.2447 H   0  0  0  0  0  0  0  0  0  0  0  0
   -7.4435   17.2738  -32.8000 H   0  0  0  0  0  0  0  0  0  0  0  0
   -6.0863   18.4505  -32.8000 H   0  0  0  0  0  0  0  0  0  0  0  0
   -5.2977   19.7546  -32.9940 H   0  0  0  0  0  0  0  0  0  0  0  0
   -3.0852   20.8521  -32.6592 H   0  0  0  0  0  0  0  0  0  0  0  0
   -3.4392   21.8861  -28.1913 H   0  0  0  0  0  0  0  0  0  0  0  0
   -1.1748   20.8831  -27.9229 H   0  0  0  0  0  0  0  0  0  0  0  0
    0.8587   22.3138  -28.1137 H   0  0  0  0  0  0  0  0  0  0  0  0
    0.6292   24.7462  -28.6123 H   0  0  0  0  0  0  0  0  0  0  0  0
   -7.1996   22.8983  -30.7063 H   0  0  0  0  0  0  0  0  0  0  0  0
  1  2  1  0
  2  3  2  0
  3  4  1  0
  4  5  1  0
  5  6  1  0
  5  7  2  0
  7  8  1  0
  8  9  2  0
  9 10  1  0
 10 11  2  0
 11 12  1  0
 11 13  1  0
 13 14  1  0
 14 15  2  0
 14 16  2  0
 14 17  1  0
 17 18  1  0
 18 19  2  0
 19 20  1  0
 20 21  2  0
 21 22  1  0
 22 23  2  0
 23 24  1  0
 13 25  2  0
  7  2  1  0
 25  8  1  0
 23 18  1  0
  1 26  1  0
  1 27  1  0
  1 28  1  0
  6 29  1  0
  6 30  1  0
  6 31  1  0
  9 32  1  0
 10 33  1  0
 19 34  1  0
 20 35  1  0
 21 36  1  0
 22 37  1  0
 25 38  1  0
M  CHG  3  12  -1  17  -1  24  -1
M  END
>  <UniqueID>  (41) 
40

>  <SMILES>  (41) 
Cc1noc(C)c1-c1ccc([O-])c(S(=O)(=O)[N-]c2ccccc2[O-])c1

>  <Energy>  (41) 
79.57660185588064

>  <Genealogy>  (41) 
Cc1noc(C)c1-c1ccc([O-])c(S(=O)(=O)[N-]c2ccccc2[O-])c1 (protonated)
Cc1noc(C)c1-c1ccc([O-])c(S(=O)(=O)[N-]c2ccccc2[O-])c1 (3D coordinates assigned)
Cc1noc(C)c1-c1ccc([O-])c(S(=O)(=O)[N-]c2ccccc2[O-])c1 (optimized conformer: 79.57660185588064 kcal/mol)

>  <smiles>  (41) 
Cc1noc(C)c1-c1ccc(O)c(S(=O)(=O)Nc2ccccc2O)c1

>  <score_type>  (41) 
oracle

>  <origin>  (41) 
adgpu

>  <m_score__min__energy>  (41) 
-15.27

>  <m_primary>  (41) 
energy

$$$$
41:0
     RDKit          3D

 25 27  0  0  0  0  0  0  0  0999 V2000
   -1.5640   25.4410  -29.3020 O   0  0  0  0  0  0  0  0  0  0  0  0
   -1.6950   24.2370  -28.6080 C   0  0  0  0  0  0  0  0  0  0  0  0
   -0.6540   23.8680  -27.7470 C   0  0  0  0  0  0  0  0  0  0  0  0
   -0.7500   22.7150  -26.9670 C   0  0  0  0  0  0  0  0  0  0  0  0
   -1.8890   21.9150  -27.0430 C   0  0  0  0  0  0  0  0  0  0  0  0
   -2.9270   22.2570  -27.9120 C   0  0  0  0  0  0  0  0  0  0  0  0
   -2.8400   23.4060  -28.7200 C   0  0  0  0  0  0  0  0  0  0  0  0
   -3.9330   23.6760  -29.6820 C   0  0  0  0  0  0  0  0  0  0  0  0
   -3.9300   24.7000  -30.5590 N   0  0  0  0  0  0  0  0  0  0  0  0
   -5.0740   24.6330  -31.2210 N   0  0  0  0  0  0  0  0  0  0  0  0
   -5.7350   23.5750  -30.7190 C   0  0  0  0  0  0  0  0  0  0  0  0
   -7.0570   23.1340  -31.1680 C   0  0  0  0  0  0  0  0  0  0  0  0
   -7.7530   22.0390  -30.6940 C   0  0  0  0  0  0  0  0  0  0  0  0
   -8.9350   22.0170  -31.4020 C   0  0  0  0  0  0  0  0  0  0  0  0
   -8.8870   23.0960  -32.2630 C   0  0  0  0  0  0  0  0  0  0  0  0
   -7.7550   23.7420  -32.1000 O   0  0  0  0  0  0  0  0  0  0  0  0
   -5.0450   22.9860  -29.7730 O   0  0  0  0  0  0  0  0  0  0  0  0
   -2.1020   25.6760  -30.1240 H   0  0  0  0  0  0  0  0  0  0  0  0
    0.2487   24.4936  -27.6850 H   0  0  0  0  0  0  0  0  0  0  0  0
    0.0731   22.4374  -26.2922 H   0  0  0  0  0  0  0  0  0  0  0  0
   -1.9701   21.0135  -26.4179 H   0  0  0  0  0  0  0  0  0  0  0  0
   -3.8230   21.6211  -27.9657 H   0  0  0  0  0  0  0  0  0  0  0  0
   -7.4311   21.3326  -29.9147 H   0  0  0  0  0  0  0  0  0  0  0  0
   -9.7520   21.2873  -31.3017 H   0  0  0  0  0  0  0  0  0  0  0  0
   -9.6769   23.3724  -32.9769 H   0  0  0  0  0  0  0  0  0  0  0  0
  1  2  1  0
  2  3  2  0
  3  4  1  0
  4  5  2  0
  5  6  1  0
  6  7  2  0
  7  8  1  0
  8  9  2  0
  9 10  1  0
 10 11  2  0
 11 12  1  0
 12 13  2  0
 13 14  1  0
 14 15  2  0
 15 16  1  0
 11 17  1  0
  7  2  1  0
 17  8  1  0
 16 12  1  0
  1 18  1  0
  3 19  1  0
  4 20  1  0
  5 21  1  0
  6 22  1  0
 13 23  1  0
 14 24  1  0
 15 25  1  0
M  END
>  <UniqueID>  (42) 
41

>  <SMILES>  (42) 
Oc1ccccc1-c1nnc(-c2ccco2)o1

>  <Energy>  (42) 
91.82912669373863

>  <Genealogy>  (42) 
Oc1ccccc1-c1nnc(-c2ccco2)o1 (3D coordinates assigned)
Oc1ccccc1-c1nnc(-c2ccco2)o1 (optimized conformer: 91.82912669373863 kcal/mol)

>  <smiles>  (42) 
Oc1ccccc1-c1nnc(-c2ccco2)o1

>  <score_type>  (42) 
oracle

>  <origin>  (42) 
adgpu

>  <m_score__min__energy>  (42) 
-7.3899999999999997

>  <m_primary>  (42) 
energy

$$$$
42:0
     RDKit          3D

 34 35  0  0  0  0  0  0  0  0999 V2000
   -1.4710   21.9140  -31.4950 C   0  0  0  0  0  0  0  0  0  0  0  0
   -2.9520   21.8530  -31.3460 C   0  0  0  0  0  0  0  0  0  0  0  0
   -3.4770   20.8950  -30.7140 O   0  0  0  0  0  0  0  0  0  0  0  0
   -3.7480   22.8250  -31.9620 O   0  0  0  0  0  0  0  0  0  0  0  0
   -5.1380   22.8890  -31.7990 C   0  0  0  0  0  0  0  0  0  0  0  0
   -5.9290   21.8580  -32.3440 C   0  0  0  0  0  0  0  0  0  0  0  0
   -5.2880   20.7230  -33.0910 C   0  0  0  0  0  0  0  0  0  0  0  0
   -7.3160   21.8550  -32.1260 C   0  0  0  0  0  0  0  0  0  0  0  0
   -7.9160   22.8830  -31.4000 C   0  0  0  0  0  0  0  0  0  0  0  0
   -7.1430   23.9280  -30.8930 C   0  0  0  0  0  0  0  0  0  0  0  0
   -5.7530   23.9580  -31.0990 C   0  0  0  0  0  0  0  0  0  0  0  0
   -4.9810   25.1290  -30.6180 C   0  0  0  0  0  0  0  0  0  0  0  0
   -5.5570   26.2350  -30.4370 O   0  0  0  0  0  0  0  0  0  0  0  0
   -3.5720   25.0020  -30.3800 N   0  0  0  0  0  0  0  0  0  0  0  0
   -2.9470   24.4170  -29.2280 C   0  0  0  0  0  0  0  0  0  0  0  0
   -3.4470   23.2470  -28.6250 C   0  0  0  0  0  0  0  0  0  0  0  0
   -2.7990   22.6910  -27.5180 C   0  0  0  0  0  0  0  0  0  0  0  0
   -1.6390   23.2860  -27.0130 C   0  0  0  0  0  0  0  0  0  0  0  0
   -0.9960   22.7320  -25.9130 O   0  0  0  0  0  0  0  0  0  0  0  0
   -1.1230   24.4340  -27.6200 C   0  0  0  0  0  0  0  0  0  0  0  0
   -1.7680   24.9950  -28.7280 C   0  0  0  0  0  0  0  0  0  0  0  0
   -1.2390   26.1320  -29.3270 O   0  0  0  0  0  0  0  0  0  0  0  0
   -1.0028   21.9333  -30.4998 H   0  0  0  0  0  0  0  0  0  0  0  0
   -1.1213   21.0295  -32.0476 H   0  0  0  0  0  0  0  0  0  0  0  0
   -1.1953   22.8243  -32.0476 H   0  0  0  0  0  0  0  0  0  0  0  0
   -4.8780   19.9970  -32.3735 H   0  0  0  0  0  0  0  0  0  0  0  0
   -6.0404   20.2288  -33.7232 H   0  0  0  0  0  0  0  0  0  0  0  0
   -4.4763   21.1122  -33.7232 H   0  0  0  0  0  0  0  0  0  0  0  0
   -7.9320   21.0380  -32.5298 H   0  0  0  0  0  0  0  0  0  0  0  0
   -9.0021   22.8701  -31.2264 H   0  0  0  0  0  0  0  0  0  0  0  0
   -7.6266   24.7371  -30.3260 H   0  0  0  0  0  0  0  0  0  0  0  0
   -4.3520   22.7680  -29.0269 H   0  0  0  0  0  0  0  0  0  0  0  0
   -3.2024   21.7842  -27.0437 H   0  0  0  0  0  0  0  0  0  0  0  0
   -0.2070   24.8982  -27.2257 H   0  0  0  0  0  0  0  0  0  0  0  0
  1  2  1  0
  2  3  2  0
  2  4  1  0
  4  5  1  0
  5  6  2  0
  6  7  1  0
  6  8  1  0
  8  9  2  0
  9 10  1  0
 10 11  2  0
 11 12  1  0
 12 13  2  0
 12 14  1  0
 14 15  1  0
 15 16  2  0
 16 17  1  0
 17 18  2  0
 18 19  1  0
 18 20  1  0
 20 21  2  0
 21 22  1  0
 11  5  1  0
 21 15  1  0
  1 23  1  0
  1 24  1  0
  1 25  1  0
  7 26  1  0
  7 27  1  0
  7 28  1  0
  8 29  1  0
  9 30  1  0
 10 31  1  0
 16 32  1  0
 17 33  1  0
 20 34  1  0
M  CHG  3  14  -1  19  -1  22  -1
M  END
>  <UniqueID>  (43) 
42

>  <SMILES>  (43) 
CC(=O)Oc1c(C)cccc1C(=O)[N-]c1ccc([O-])cc1[O-]

>  <Energy>  (43) 
46.68254623931698

>  <Genealogy>  (43) 
CC(=O)Oc1c(C)cccc1C(=O)[N-]c1ccc([O-])cc1[O-] (protonated)
CC(=O)Oc1c(C)cccc1C(=O)[N-]c1ccc([O-])cc1[O-] (3D coordinates assigned)
CC(=O)Oc1c(C)cccc1C(=O)[N-]c1ccc([O-])cc1[O-] (optimized conformer: 46.68254623931698 kcal/mol)

>  <smiles>  (43) 
CC(=O)Oc1c(C)cccc1C(=O)Nc1ccc(O)cc1O

>  <score_type>  (43) 
oracle

>  <origin>  (43) 
adgpu

>  <m_score__min__energy>  (43) 
-11.94

>  <m_primary>  (43) 
energy

$$$$
43:0
     RDKit          3D

 44 47  0  0  1  0  0  0  0  0999 V2000
   -2.9980   22.2930  -27.9050 O   0  0  0  0  0  0  0  0  0  0  0  0
   -2.6650   23.4540  -27.5540 C   0  0  0  0  0  0  0  0  0  0  0  0
   -3.2330   24.5460  -28.3020 N   0  0  0  0  0  0  0  0  0  0  0  0
   -4.1140   24.1640  -29.3620 C   0  0  0  0  0  0  0  0  0  0  0  0
   -5.4270   24.6070  -29.3450 C   0  0  0  0  0  0  0  0  0  0  0  0
   -6.2720   24.2350  -30.3690 C   0  0  0  0  0  0  0  0  0  0  0  0
   -5.8650   23.4380  -31.4140 C   0  0  0  0  0  0  0  0  0  0  0  0
   -6.7930   23.1220  -32.3940 O   0  0  0  0  0  0  0  0  0  0  0  0
   -7.4910   21.9270  -32.3400 C   0  0  0  0  0  0  0  0  0  0  0  0
   -8.8110   21.8720  -31.9000 C   0  0  0  0  0  0  0  0  0  0  0  0
   -9.4940   20.6530  -31.8550 C   0  0  0  0  0  0  0  0  0  0  0  0
   -8.8390   19.4940  -32.2570 C   0  0  0  0  0  0  0  0  0  0  0  0
   -7.5130   19.5410  -32.7010 C   0  0  0  0  0  0  0  0  0  0  0  0
   -6.8350   20.7640  -32.7430 C   0  0  0  0  0  0  0  0  0  0  0  0
   -4.5620   22.9950  -31.4350 C   0  0  0  0  0  0  0  0  0  0  0  0
   -3.7070   23.3630  -30.4120 C   0  0  0  0  0  0  0  0  0  0  0  0
   -1.7520   23.7300  -26.4510 C   0  0  0  0  0  0  0  0  0  0  0  0
   -1.7380   25.0240  -25.9480 C   0  0  0  0  0  0  0  0  0  0  0  0
   -0.8760   25.3140  -24.8940 C   0  0  0  0  0  0  0  0  0  0  0  0
   -0.8750   26.5180  -24.4380 N   0  0  0  0  0  0  0  0  0  0  0  0
    0.0200   26.8270  -23.3440 C   0  0  0  0  0  0  0  0  0  0  0  0
    1.4990   26.8010  -23.7590 C   0  0  0  0  0  0  0  0  0  0  0  0
    0.8180   28.0760  -23.3330 C   0  0  0  0  0  0  0  0  0  0  0  0
   -0.0770   24.3380  -24.3900 N   0  0  0  0  0  0  0  0  0  0  0  0
   -0.1040   23.0880  -24.8910 C   0  0  0  0  0  0  0  0  0  0  0  0
   -0.9400   22.8030  -25.9130 N   0  0  0  0  0  0  0  0  0  0  0  0
   -3.0000   25.5250  -28.0670 H   0  0  0  0  0  0  0  0  0  0  0  0
   -5.7897   25.2461  -28.5265 H   0  0  0  0  0  0  0  0  0  0  0  0
   -7.3131   24.5896  -30.3497 H   0  0  0  0  0  0  0  0  0  0  0  0
   -9.3203   22.7948  -31.5854 H   0  0  0  0  0  0  0  0  0  0  0  0
  -10.5363   20.6112  -31.5060 H   0  0  0  0  0  0  0  0  0  0  0  0
   -9.3688   18.5305  -32.2256 H   0  0  0  0  0  0  0  0  0  0  0  0
   -7.0045   18.6180  -33.0165 H   0  0  0  0  0  0  0  0  0  0  0  0
   -5.7925   20.8081  -33.0912 H   0  0  0  0  0  0  0  0  0  0  0  0
   -4.2048   22.3557  -32.2558 H   0  0  0  0  0  0  0  0  0  0  0  0
   -2.6669   23.0057  -30.4350 H   0  0  0  0  0  0  0  0  0  0  0  0
   -2.3917   25.8007  -26.3717 H   0  0  0  0  0  0  0  0  0  0  0  0
   -0.6357   26.3721  -22.5870 H   0  0  0  0  0  0  0  0  0  0  0  0
    2.2495   26.3288  -23.1081 H   0  0  0  0  0  0  0  0  0  0  0  0
    2.0637   26.4665  -24.6417 H   0  0  0  0  0  0  0  0  0  0  0  0
    1.0863   28.5427  -22.3737 H   0  0  0  0  0  0  0  0  0  0  0  0
    0.6944   29.0689  -23.7900 H   0  0  0  0  0  0  0  0  0  0  0  0
    0.5760   24.5760  -23.5860 H   0  0  0  0  0  0  0  0  0  0  0  0
    0.5480   22.3073  -24.4722 H   0  0  0  0  0  0  0  0  0  0  0  0
  1  2  2  0
  2  3  1  0
  3  4  1  0
  4  5  2  0
  5  6  1  0
  6  7  2  0
  7  8  1  0
  8  9  1  0
  9 10  2  0
 10 11  1  0
 11 12  2  0
 12 13  1  0
 13 14  2  0
  7 15  1  0
 15 16  2  0
  2 17  1  0
 17 18  2  0
 18 19  1  0
 19 20  2  0
 20 21  1  0
 21 22  1  0
 22 23  1  0
 19 24  1  0
 24 25  1  0
 25 26  2  0
 16  4  1  0
 26 17  1  0
 14  9  1  0
 23 21  1  0
  3 27  1  0
  5 28  1  0
  6 29  1  0
 10 30  1  0
 11 31  1  0
 12 32  1  0
 13 33  1  0
 14 34  1  0
 15 35  1  0
 16 36  1  0
 18 37  1  0
 21 38  1  0
 22 39  1  0
 22 40  1  0
 23 41  1  0
 23 42  1  0
 24 43  1  0
 25 44  1  0
M  END
>  <smiles>  (44) 
O=C(Nc1ccc(Oc2ccccc2)cc1)c1cc(=NC2CC2)[nH]cn1

>  <score_type>  (44) 
oracle

>  <origin>  (44) 
adgpu

>  <m_score__min__energy>  (44) 
-8.5600000000000005

>  <m_primary>  (44) 
energy

$$$$
44:0
     RDKit          3D

 48 50  0  0  0  0  0  0  0  0999 V2000
   -5.9450   14.1130  -34.1490 C   0  0  0  0  0  0  0  0  0  0  0  0
   -5.7970   15.3560  -33.4730 O   0  0  0  0  0  0  0  0  0  0  0  0
   -4.6430   16.1580  -33.5220 C   0  0  0  0  0  0  0  0  0  0  0  0
   -3.3900   15.6860  -33.0800 C   0  0  0  0  0  0  0  0  0  0  0  0
   -2.2660   16.5140  -33.1280 C   0  0  0  0  0  0  0  0  0  0  0  0
   -2.3730   17.8130  -33.6210 C   0  0  0  0  0  0  0  0  0  0  0  0
   -3.6050   18.2920  -34.0700 C   0  0  0  0  0  0  0  0  0  0  0  0
   -4.7500   17.4780  -34.0110 C   0  0  0  0  0  0  0  0  0  0  0  0
   -6.0910   18.0430  -34.4210 C   0  0  0  0  0  0  0  0  0  0  0  0
   -7.0930   17.8150  -33.3760 N   0  0  0  0  0  0  0  0  0  0  0  0
   -7.7650   18.8870  -32.7030 C   0  0  0  0  0  0  0  0  0  0  0  0
   -8.6910   18.5680  -31.3910 S   0  0  0  0  0  0  0  0  0  0  0  0
   -7.6910   20.2240  -33.2120 N   0  0  0  0  0  0  0  0  0  0  0  0
   -7.0960   21.3160  -32.4880 C   0  0  0  0  0  0  0  0  0  0  0  0
   -7.8710   22.1850  -31.6970 C   0  0  0  0  0  0  0  0  0  0  0  0
   -7.2590   23.1970  -30.9530 C   0  0  0  0  0  0  0  0  0  0  0  0
   -5.8680   23.3510  -30.9820 C   0  0  0  0  0  0  0  0  0  0  0  0
   -5.1110   24.6380  -30.0480 S   0  0  0  0  0  0  0  0  0  0  0  0
   -6.1610   25.5900  -29.5430 O   0  0  0  0  0  0  0  0  0  0  0  0
   -4.1470   25.3860  -30.9270 O   0  0  0  0  0  0  0  0  0  0  0  0
   -4.2680   23.9320  -28.7070 N   0  0  0  0  0  0  0  0  0  0  0  0
   -3.0830   24.3000  -28.3240 C   0  0  0  0  0  0  0  0  0  0  0  0
   -2.4870   23.6670  -27.2270 C   0  0  0  0  0  0  0  0  0  0  0  0
   -1.2170   24.0710  -26.8100 C   0  0  0  0  0  0  0  0  0  0  0  0
   -0.5540   25.0950  -27.4900 C   0  0  0  0  0  0  0  0  0  0  0  0
   -1.1750   25.7010  -28.5850 C   0  0  0  0  0  0  0  0  0  0  0  0
   -2.4140   25.2970  -28.9730 N   0  0  0  0  0  0  0  0  0  0  0  0
   -5.0920   22.4910  -31.7680 C   0  0  0  0  0  0  0  0  0  0  0  0
   -5.7030   21.4760  -32.5110 C   0  0  0  0  0  0  0  0  0  0  0  0
   -6.0414   13.3033  -33.4107 H   0  0  0  0  0  0  0  0  0  0  0  0
   -6.8459   14.1435  -34.7795 H   0  0  0  0  0  0  0  0  0  0  0  0
   -5.0622   13.9311  -34.7795 H   0  0  0  0  0  0  0  0  0  0  0  0
   -3.2971   14.6597  -32.6951 H   0  0  0  0  0  0  0  0  0  0  0  0
   -1.2936   16.1395  -32.7756 H   0  0  0  0  0  0  0  0  0  0  0  0
   -1.4855   18.4619  -33.6564 H   0  0  0  0  0  0  0  0  0  0  0  0
   -3.6805   19.3129  -34.4726 H   0  0  0  0  0  0  0  0  0  0  0  0
   -5.9892   19.1246  -34.5933 H   0  0  0  0  0  0  0  0  0  0  0  0
   -6.4200   17.5381  -35.3413 H   0  0  0  0  0  0  0  0  0  0  0  0
   -7.2680   16.8320  -33.0650 H   0  0  0  0  0  0  0  0  0  0  0  0
   -7.9720   20.3750  -34.2060 H   0  0  0  0  0  0  0  0  0  0  0  0
   -8.9641   22.0667  -31.6644 H   0  0  0  0  0  0  0  0  0  0  0  0
   -7.8727   23.8754  -30.3421 H   0  0  0  0  0  0  0  0  0  0  0  0
   -3.0140   22.8590  -26.6984 H   0  0  0  0  0  0  0  0  0  0  0  0
   -0.7395   23.5835  -25.9473 H   0  0  0  0  0  0  0  0  0  0  0  0
    0.4458   25.4207  -27.1671 H   0  0  0  0  0  0  0  0  0  0  0  0
   -0.6617   26.5048  -29.1331 H   0  0  0  0  0  0  0  0  0  0  0  0
   -3.9994   22.6139  -31.8013 H   0  0  0  0  0  0  0  0  0  0  0  0
   -5.0859   20.7976  -33.1184 H   0  0  0  0  0  0  0  0  0  0  0  0
  1  2  1  0
  2  3  1  0
  3  4  2  0
  4  5  1  0
  5  6  2  0
  6  7  1  0
  7  8  2  0
  8  9  1  0
  9 10  1  0
 10 11  1  0
 11 12  2  0
 11 13  1  0
 13 14  1  0
 14 15  2  0
 15 16  1  0
 16 17  2  0
 17 18  1  0
 18 19  2  0
 18 20  2  0
 18 21  1  0
 21 22  2  3
 22 23  1  0
 23 24  2  0
 24 25  1  0
 25 26  2  0
 26 27  1  0
 17 28  1  0
 28 29  2  0
  8  3  1  0
 29 14  1  0
 27 22  1  0
  1 30  1  0
  1 31  1  0
  1 32  1  0
  4 33  1  0
  5 34  1  0
  6 35  1  0
  7 36  1  0
  9 37  1  0
  9 38  1  0
 10 39  1  0
 13 40  1  0
 15 41  1  0
 16 42  1  0
 23 43  1  0
 24 44  1  0
 25 45  1  0
 26 46  1  0
 28 47  1  0
 29 48  1  0
M  CHG  1  27  -1
M  END
>  <UniqueID>  (45) 
43

>  <SMILES>  (45) 
COc1ccccc1CNC(=S)Nc1ccc(S(=O)(=O)N=c2cccc[n-]2)cc1

>  <Energy>  (45) 
55.32567467099316

>  <Genealogy>  (45) 
COc1ccccc1CNC(=S)Nc1ccc(S(=O)(=O)N=c2cccc[n-]2)cc1 (protonated)
COc1ccccc1CNC(=S)Nc1ccc(S(=O)(=O)N=c2cccc[n-]2)cc1 (3D coordinates assigned)
COc1ccccc1CNC(=S)Nc1ccc(S(=O)(=O)N=c2cccc[n-]2)cc1 (optimized conformer: 55.32567467099316 kcal/mol)

>  <smiles>  (45) 
COc1ccccc1CNC(=S)Nc1ccc(S(=O)(=O)N=c2cccc[nH]2)cc1

>  <score_type>  (45) 
oracle

>  <origin>  (45) 
adgpu

>  <m_score__min__energy>  (45) 
-11.25

>  <m_primary>  (45) 
energy

$$$$
45:0
     RDKit          3D

 37 40  0  0  0  0  0  0  0  0999 V2000
   -3.7290   16.4280  -35.8700 H   0  0  0  0  0  0  0  0  0  0  0  0
   -3.3330   17.1040  -35.1790 N   0  0  0  0  0  0  0  0  0  0  0  0
   -4.0790   17.9890  -34.6050 C   0  0  0  0  0  0  0  0  0  0  0  0
   -3.6040   18.8770  -33.7090 N   0  0  0  0  0  0  0  0  0  0  0  0
   -4.5880   19.6990  -33.2530 C   0  0  0  0  0  0  0  0  0  0  0  0
   -4.3080   20.7530  -32.2630 C   0  0  0  0  0  0  0  0  0  0  0  0
   -2.9470   20.7810  -31.2550 S   0  0  0  0  0  0  0  0  0  0  0  0
   -3.3590   22.2130  -30.4840 C   0  0  0  0  0  0  0  0  0  0  0  0
   -2.6630   22.8830  -29.4820 C   0  0  0  0  0  0  0  0  0  0  0  0
   -1.7164   22.4817  -29.0910 H   0  0  0  0  0  0  0  0  0  0  0  0
   -3.1980   24.0890  -28.9780 C   0  0  0  0  0  0  0  0  0  0  0  0
   -2.4880   24.8370  -27.9090 C   0  0  0  0  0  0  0  0  0  0  0  0
   -3.0170   24.8980  -26.6070 C   0  0  0  0  0  0  0  0  0  0  0  0
   -3.9647   24.3884  -26.3787 H   0  0  0  0  0  0  0  0  0  0  0  0
   -2.3480   25.6010  -25.6010 C   0  0  0  0  0  0  0  0  0  0  0  0
   -2.7696   25.6390  -24.5857 H   0  0  0  0  0  0  0  0  0  0  0  0
   -1.1430   26.2570  -25.8810 C   0  0  0  0  0  0  0  0  0  0  0  0
   -0.2910   27.1270  -24.6090 S   0  0  0  0  0  0  0  0  0  0  0  0
    1.1630   27.2590  -24.9670 O   0  0  0  0  0  0  0  0  0  0  0  0
   -0.8750   28.5040  -24.4560 O   0  0  0  0  0  0  0  0  0  0  0  0
   -0.4420   26.2680  -23.1160 N   0  0  0  0  0  0  0  0  0  0  0  0
    0.2160   26.7160  -22.4400 H   0  0  0  0  0  0  0  0  0  0  0  0
   -0.0870   25.3000  -23.2850 H   0  0  0  0  0  0  0  0  0  0  0  0
   -0.6050   26.1930  -27.1720 C   0  0  0  0  0  0  0  0  0  0  0  0
    0.3471   26.6971  -27.3942 H   0  0  0  0  0  0  0  0  0  0  0  0
   -1.2730   25.4910  -28.1800 C   0  0  0  0  0  0  0  0  0  0  0  0
   -0.8449   25.4500  -29.1925 H   0  0  0  0  0  0  0  0  0  0  0  0
   -4.4210   24.5770  -29.5030 C   0  0  0  0  0  0  0  0  0  0  0  0
   -4.8433   25.5150  -29.1132 H   0  0  0  0  0  0  0  0  0  0  0  0
   -5.1010   23.8780  -30.5150 C   0  0  0  0  0  0  0  0  0  0  0  0
   -6.0495   24.2616  -30.9190 H   0  0  0  0  0  0  0  0  0  0  0  0
   -4.5530   22.6890  -30.9990 C   0  0  0  0  0  0  0  0  0  0  0  0
   -5.0970   21.8770  -31.9990 C   0  0  0  0  0  0  0  0  0  0  0  0
   -6.0404   22.0977  -32.5199 H   0  0  0  0  0  0  0  0  0  0  0  0
   -5.8530   19.4570  -33.7950 C   0  0  0  0  0  0  0  0  0  0  0  0
   -6.7733   20.0100  -33.5560 H   0  0  0  0  0  0  0  0  0  0  0  0
   -5.7260   18.1730  -34.8770 S   0  0  0  0  0  0  0  0  0  0  0  0
  1  2  1  0
  2  3  2  0
  3  4  1  0
  4  5  1  0
  5  6  1  0
  6  7  1  0
  7  8  1  0
  8  9  2  0
  9 10  1  0
  9 11  1  0
 11 12  1  0
 12 13  2  0
 13 14  1  0
 13 15  1  0
 15 16  1  0
 15 17  2  0
 17 18  1  0
 18 19  2  0
 18 20  2  0
 18 21  1  0
 21 22  1  0
 21 23  1  0
 17 24  1  0
 24 25  1  0
 24 26  2  0
 26 27  1  0
 11 28  2  0
 28 29  1  0
 28 30  1  0
 30 31  1  0
 30 32  2  0
 32 33  1  0
 33 34  1  0
  5 35  2  0
 35 36  1  0
 35 37  1  0
 37  3  1  0
 33  6  2  0
 32  8  1  0
 26 12  1  0
M  CHG  1   4  -1
M  END
>  <UniqueID>  (46) 
44

>  <SMILES>  (46) 
[H]/N=c1/[n-]c(-c2cc3ccc(-c4ccc(S(N)(=O)=O)cc4)cc3s2)cs1

>  <Energy>  (46) 
105.89192165471766

>  <Genealogy>  (46) 
N=c1[n-]c(-c2cc3ccc(-c4ccc(S(N)(=O)=O)cc4)cc3s2)cs1 (protonated)
[H]/N=c1/[n-]c(-c2cc3ccc(-c4ccc(S(N)(=O)=O)cc4)cc3s2)cs1 (cis-trans isomerization)
[H]/N=c1/[n-]c(-c2cc3ccc(-c4ccc(S(N)(=O)=O)cc4)cc3s2)cs1 (3D coordinates assigned)
[H]/N=c1/[n-]c(-c2cc3ccc(-c4ccc(S(N)(=O)=O)cc4)cc3s2)cs1 (optimized conformer: 105.89192165471766 kcal/mol)

>  <smiles>  (46) 
N=c1[nH]c(-c2cc3ccc(-c4ccc(S(N)(=O)=O)cc4)cc3s2)cs1

>  <score_type>  (46) 
oracle

>  <origin>  (46) 
adgpu

>  <m_score__min__energy>  (46) 
-8.6500000000000004

>  <m_primary>  (46) 
energy

$$$$
46:0
     RDKit          3D

 36 38  0  0  0  0  0  0  0  0999 V2000
   -4.8930   16.3560  -34.0430 C   0  0  0  0  0  0  0  0  0  0  0  0
   -6.2370   16.5820  -33.6300 O   0  0  0  0  0  0  0  0  0  0  0  0
   -6.7260   17.8100  -33.1610 C   0  0  0  0  0  0  0  0  0  0  0  0
   -6.3570   18.9760  -33.8410 C   0  0  0  0  0  0  0  0  0  0  0  0
   -6.8180   20.2240  -33.4140 C   0  0  0  0  0  0  0  0  0  0  0  0
   -7.6610   20.3180  -32.2980 C   0  0  0  0  0  0  0  0  0  0  0  0
   -8.2700   21.8860  -31.7710 S   0  0  0  0  0  0  0  0  0  0  0  0
   -8.3240   21.9580  -30.2710 O   0  0  0  0  0  0  0  0  0  0  0  0
   -9.6540   22.0800  -32.3240 O   0  0  0  0  0  0  0  0  0  0  0  0
   -7.2370   23.1480  -32.3630 N   0  0  0  0  0  0  0  0  0  0  0  0
   -6.0860   23.6570  -31.6730 C   0  0  0  0  0  0  0  0  0  0  0  0
   -6.1190   24.9710  -31.1910 C   0  0  0  0  0  0  0  0  0  0  0  0
   -5.0090   25.5130  -30.5380 C   0  0  0  0  0  0  0  0  0  0  0  0
   -3.8550   24.7450  -30.3570 C   0  0  0  0  0  0  0  0  0  0  0  0
   -2.7550   25.2980  -29.7100 O   0  0  0  0  0  0  0  0  0  0  0  0
   -3.8140   23.4240  -30.8280 C   0  0  0  0  0  0  0  0  0  0  0  0
   -2.3440   22.4180  -30.6020 S   0  0  0  0  0  0  0  0  0  0  0  0
   -2.8070   21.2960  -31.9140 C   0  0  0  0  0  0  0  0  0  0  0  0
   -2.5860   21.5400  -33.2190 N   0  0  0  0  0  0  0  0  0  0  0  0
   -3.1030   20.4360  -33.7940 C   0  0  0  0  0  0  0  0  0  0  0  0
   -3.6030   19.5750  -32.8900 N   0  0  0  0  0  0  0  0  0  0  0  0
   -3.4180   20.1190  -31.7000 N   0  0  0  0  0  0  0  0  0  0  0  0
   -4.9300   22.8800  -31.4760 C   0  0  0  0  0  0  0  0  0  0  0  0
   -8.0340   19.1570  -31.6110 C   0  0  0  0  0  0  0  0  0  0  0  0
   -7.5710   17.9080  -32.0370 C   0  0  0  0  0  0  0  0  0  0  0  0
   -4.2503   16.2479  -33.1568 H   0  0  0  0  0  0  0  0  0  0  0  0
   -4.8442   15.4370  -34.6456 H   0  0  0  0  0  0  0  0  0  0  0  0
   -4.5463   17.2085  -34.6456 H   0  0  0  0  0  0  0  0  0  0  0  0
   -5.6982   18.9095  -34.7194 H   0  0  0  0  0  0  0  0  0  0  0  0
   -6.5189   21.1342  -33.9545 H   0  0  0  0  0  0  0  0  0  0  0  0
   -7.0245   25.5806  -31.3272 H   0  0  0  0  0  0  0  0  0  0  0  0
   -5.0433   26.5473  -30.1651 H   0  0  0  0  0  0  0  0  0  0  0  0
   -3.1146   20.2593  -34.8797 H   0  0  0  0  0  0  0  0  0  0  0  0
   -4.9025   21.8398  -31.8327 H   0  0  0  0  0  0  0  0  0  0  0  0
   -8.6933   19.2272  -30.7333 H   0  0  0  0  0  0  0  0  0  0  0  0
   -7.8672   16.9989  -31.4931 H   0  0  0  0  0  0  0  0  0  0  0  0
  1  2  1  0
  2  3  1  0
  3  4  2  0
  4  5  1  0
  5  6  2  0
  6  7  1  0
  7  8  2  0
  7  9  2  0
  7 10  1  0
 10 11  1  0
 11 12  2  0
 12 13  1  0
 13 14  2  0
 14 15  1  0
 14 16  1  0
 16 17  1  0
 17 18  1  0
 18 19  1  0
 19 20  2  0
 20 21  1  0
 21 22  1  0
 16 23  2  0
  6 24  1  0
 24 25  2  0
 25  3  1  0
 23 11  1  0
 22 18  2  0
  1 26  1  0
  1 27  1  0
  1 28  1  0
  4 29  1  0
  5 30  1  0
 12 31  1  0
 13 32  1  0
 20 33  1  0
 23 34  1  0
 24 35  1  0
 25 36  1  0
M  CHG  3  10  -1  15  -1  21  -1
M  END
>  <UniqueID>  (47) 
45

>  <SMILES>  (47) 
COc1ccc(S(=O)(=O)[N-]c2ccc([O-])c(Sc3nc[n-]n3)c2)cc1

>  <Energy>  (47) 
66.72321773799098

>  <Genealogy>  (47) 
COc1ccc(S(=O)(=O)[N-]c2ccc([O-])c(Sc3nc[n-]n3)c2)cc1 (protonated)
COc1ccc(S(=O)(=O)[N-]c2ccc([O-])c(Sc3nc[n-]n3)c2)cc1 (3D coordinates assigned)
COc1ccc(S(=O)(=O)[N-]c2ccc([O-])c(Sc3nc[n-]n3)c2)cc1 (optimized conformer: 66.72321773799098 kcal/mol)

>  <smiles>  (47) 
COc1ccc(S(=O)(=O)Nc2ccc(O)c(Sc3nc[nH]n3)c2)cc1

>  <score_type>  (47) 
oracle

>  <origin>  (47) 
adgpu

>  <m_score__min__energy>  (47) 
-11.23

>  <m_primary>  (47) 
energy

$$$$
47:0
     RDKit          3D

 31 33  0  0  0  0  0  0  0  0999 V2000
   -7.5220   19.8890  -31.4560 N   0  0  0  0  0  0  0  0  0  0  0  0
   -6.4850   20.3690  -31.6360 C   0  0  0  0  0  0  0  0  0  0  0  0
   -5.1920   20.9670  -31.8600 C   0  0  0  0  0  0  0  0  0  0  0  0
   -4.7960   22.1580  -31.2290 C   0  0  0  0  0  0  0  0  0  0  0  0
   -5.5980   22.7900  -30.2160 N   0  0  0  0  0  0  0  0  0  0  0  0
   -5.1810   23.4560  -29.1770 C   0  0  0  0  0  0  0  0  0  0  0  0
   -3.7680   23.8280  -28.9430 C   0  0  0  0  0  0  0  0  0  0  0  0
   -3.1690   24.9110  -29.6090 C   0  0  0  0  0  0  0  0  0  0  0  0
   -3.8910   25.6770  -30.5170 O   0  0  0  0  0  0  0  0  0  0  0  0
   -1.8740   25.2310  -29.3550 N   0  0  0  0  0  0  0  0  0  0  0  0
   -1.1440   24.5330  -28.4470 C   0  0  0  0  0  0  0  0  0  0  0  0
    0.0550   24.8450  -28.2310 O   0  0  0  0  0  0  0  0  0  0  0  0
   -1.7100   23.5020  -27.7680 N   0  0  0  0  0  0  0  0  0  0  0  0
   -3.0000   23.1420  -27.9880 C   0  0  0  0  0  0  0  0  0  0  0  0
   -3.4930   22.1820  -27.3360 O   0  0  0  0  0  0  0  0  0  0  0  0
   -3.5340   22.6060  -31.6170 C   0  0  0  0  0  0  0  0  0  0  0  0
   -2.9430   21.5460  -32.7760 S   0  0  0  0  0  0  0  0  0  0  0  0
   -4.2540   20.4880  -32.7810 C   0  0  0  0  0  0  0  0  0  0  0  0
   -4.3520   19.2820  -33.6340 C   0  0  0  0  0  0  0  0  0  0  0  0
   -5.5900   18.9140  -34.1890 C   0  0  0  0  0  0  0  0  0  0  0  0
   -5.6920   17.7830  -35.0060 C   0  0  0  0  0  0  0  0  0  0  0  0
   -4.5590   17.0160  -35.2840 C   0  0  0  0  0  0  0  0  0  0  0  0
   -3.3200   17.3810  -34.7510 C   0  0  0  0  0  0  0  0  0  0  0  0
   -3.2140   18.5110  -33.9330 C   0  0  0  0  0  0  0  0  0  0  0  0
   -5.9256   23.7608  -28.4269 H   0  0  0  0  0  0  0  0  0  0  0  0
   -3.0169   23.4971  -31.2314 H   0  0  0  0  0  0  0  0  0  0  0  0
   -6.4843   19.5193  -33.9795 H   0  0  0  0  0  0  0  0  0  0  0  0
   -6.6661   17.4976  -35.4299 H   0  0  0  0  0  0  0  0  0  0  0  0
   -4.6417   16.1243  -35.9227 H   0  0  0  0  0  0  0  0  0  0  0  0
   -2.4269   16.7791  -34.9748 H   0  0  0  0  0  0  0  0  0  0  0  0
   -2.2352   18.7982  -33.5213 H   0  0  0  0  0  0  0  0  0  0  0  0
  1  2  3  0
  2  3  1  0
  3  4  1  0
  4  5  1  0
  5  6  2  3
  6  7  1  0
  7  8  2  0
  8  9  1  0
  8 10  1  0
 10 11  1  0
 11 12  2  0
 11 13  1  0
 13 14  1  0
 14 15  2  0
  4 16  2  0
 16 17  1  0
 17 18  1  0
 18 19  1  0
 19 20  2  0
 20 21  1  0
 21 22  2  0
 22 23  1  0
 23 24  2  0
 18  3  2  0
 24 19  1  0
 14  7  1  0
  6 25  1  0
 16 26  1  0
 20 27  1  0
 21 28  1  0
 22 29  1  0
 23 30  1  0
 24 31  1  0
M  CHG  3   9  -1  10  -1  13  -1
M  END
>  <UniqueID>  (48) 
46

>  <SMILES>  (48) 
N#Cc1c(N=Cc2c([O-])[n-]c(=O)[n-]c2=O)csc1-c1ccccc1

>  <Energy>  (48) 
78.31064486151766

>  <Genealogy>  (48) 
N#Cc1c(N=Cc2c([O-])[n-]c(=O)[n-]c2=O)csc1-c1ccccc1 (protonated)
N#Cc1c(N=Cc2c([O-])[n-]c(=O)[n-]c2=O)csc1-c1ccccc1 (3D coordinates assigned)
N#Cc1c(N=Cc2c([O-])[n-]c(=O)[n-]c2=O)csc1-c1ccccc1 (optimized conformer: 78.31064486151766 kcal/mol)

>  <smiles>  (48) 
N#Cc1c(N=Cc2c(O)[nH]c(=O)[nH]c2=O)csc1-c1ccccc1

>  <score_type>  (48) 
oracle

>  <origin>  (48) 
adgpu

>  <m_score__min__energy>  (48) 
-13.300000000000001

>  <m_primary>  (48) 
energy

$$$$
