0:0
     RDKit          3D

 67 70  0  0  0  0  0  0  0  0999 V2000
   -0.4710   22.5430  -25.0610 C   0  0  0  0  0  0  0  0  0  0  0  0
    0.2080   23.9140  -25.0410 C   0  0  0  0  0  0  0  0  0  0  0  0
   -0.4670   24.9030  -24.0690 C   0  0  0  0  0  0  0  0  0  0  0  0
   -1.1480   26.0890  -24.7740 C   0  0  0  0  0  0  0  0  0  0  0  0
   -1.5990   25.7410  -26.1680 C   0  0  0  0  0  0  0  0  0  0  0  0
   -2.7410   24.9480  -26.3600 C   0  0  0  0  0  0  0  0  0  0  0  0
   -3.1160   24.5520  -27.6460 C   0  0  0  0  0  0  0  0  0  0  0  0
   -2.3660   24.9520  -28.7580 C   0  0  0  0  0  0  0  0  0  0  0  0
   -2.7290   24.4480  -30.0490 N   0  0  0  0  0  0  0  0  0  0  0  0
   -2.6200   23.0830  -30.4760 C   0  0  0  0  0  0  0  0  0  0  0  0
   -3.6060   22.5160  -31.0190 O   0  0  0  0  0  0  0  0  0  0  0  0
   -1.3790   22.2870  -30.1450 C   0  0  2  0  0  0  0  0  0  0  0  0
   -0.7700   21.7050  -31.3530 N   0  0  0  0  0  0  0  0  0  0  0  0
   -1.2740   20.5890  -32.1210 C   0  0  0  0  0  0  0  0  0  0  0  0
   -0.4280   19.5990  -32.6610 C   0  0  0  0  0  0  0  0  0  0  0  0
   -0.9620   18.5160  -33.3640 C   0  0  0  0  0  0  0  0  0  0  0  0
   -2.3410   18.4020  -33.5380 C   0  0  0  0  0  0  0  0  0  0  0  0
   -3.1960   19.3750  -33.0070 C   0  0  0  0  0  0  0  0  0  0  0  0
   -4.9430   19.2010  -33.1350 S   0  0  0  0  0  0  0  0  0  0  0  0
   -5.3080   19.0180  -34.5810 O   0  0  0  0  0  0  0  0  0  0  0  0
   -5.4230   18.0050  -32.3600 O   0  0  0  0  0  0  0  0  0  0  0  0
   -5.7090   20.6320  -32.5220 N   0  0  0  0  0  0  0  0  0  0  0  0
   -7.1350   20.7440  -32.3860 C   0  0  0  0  0  0  0  0  0  0  0  0
   -7.9750   19.6670  -32.7270 C   0  0  0  0  0  0  0  0  0  0  0  0
   -9.3630   19.7870  -32.6230 C   0  0  0  0  0  0  0  0  0  0  0  0
   -9.9300   20.9850  -32.1910 C   0  0  0  0  0  0  0  0  0  0  0  0
   -9.1100   22.0600  -31.8390 C   0  0  0  0  0  0  0  0  0  0  0  0
   -7.7180   21.9480  -31.9360 C   0  0  0  0  0  0  0  0  0  0  0  0
   -6.7340   23.3260  -31.4550 Cl  0  0  0  0  0  0  0  0  0  0  0  0
   -2.6610   20.4640  -32.3080 C   0  0  0  0  0  0  0  0  0  0  0  0
   -1.5350   21.2240  -29.0660 C   0  0  0  0  0  0  0  0  0  0  0  0
   -0.4950   20.3480  -28.6810 C   0  0  0  0  0  0  0  0  0  0  0  0
   -0.7030   19.4000  -27.6740 C   0  0  0  0  0  0  0  0  0  0  0  0
   -1.9420   19.3110  -27.0370 C   0  0  0  0  0  0  0  0  0  0  0  0
   -2.9770   20.1690  -27.4060 C   0  0  0  0  0  0  0  0  0  0  0  0
   -2.7780   21.1180  -28.4140 C   0  0  0  0  0  0  0  0  0  0  0  0
   -1.2250   25.7520  -28.5700 C   0  0  0  0  0  0  0  0  0  0  0  0
   -0.8480   26.1470  -27.2830 C   0  0  0  0  0  0  0  0  0  0  0  0
   -0.6397   22.2023  -24.0288 H   0  0  0  0  0  0  0  0  0  0  0  0
   -1.4356   22.6191  -25.5843 H   0  0  0  0  0  0  0  0  0  0  0  0
    0.1741   21.8219  -25.5843 H   0  0  0  0  0  0  0  0  0  0  0  0
    1.2565   23.7821  -24.7358 H   0  0  0  0  0  0  0  0  0  0  0  0
    0.1268   24.3378  -26.0529 H   0  0  0  0  0  0  0  0  0  0  0  0
   -1.2279   24.3582  -23.4908 H   0  0  0  0  0  0  0  0  0  0  0  0
    0.3251   25.3188  -23.4290 H   0  0  0  0  0  0  0  0  0  0  0  0
   -2.0247   26.3953  -24.1844 H   0  0  0  0  0  0  0  0  0  0  0  0
   -0.4122   26.9031  -24.8511 H   0  0  0  0  0  0  0  0  0  0  0  0
   -3.3435   24.6369  -25.4938 H   0  0  0  0  0  0  0  0  0  0  0  0
   -4.0066   23.9217  -27.7857 H   0  0  0  0  0  0  0  0  0  0  0  0
   -0.7037   23.0369  -29.7073 H   0  0  0  0  0  0  0  0  0  0  0  0
    0.1000   22.1720  -31.6980 H   0  0  0  0  0  0  0  0  0  0  0  0
    0.6609   19.6798  -32.5279 H   0  0  0  0  0  0  0  0  0  0  0  0
   -0.2920   17.7502  -33.7819 H   0  0  0  0  0  0  0  0  0  0  0  0
   -2.7568   17.5477  -34.0924 H   0  0  0  0  0  0  0  0  0  0  0  0
   -5.0880   21.3680  -32.1220 H   0  0  0  0  0  0  0  0  0  0  0  0
   -7.5345   18.7224  -33.0785 H   0  0  0  0  0  0  0  0  0  0  0  0
  -10.0091   18.9353  -32.8823 H   0  0  0  0  0  0  0  0  0  0  0  0
  -11.0237   21.0840  -32.1272 H   0  0  0  0  0  0  0  0  0  0  0  0
   -9.5603   22.9987  -31.4840 H   0  0  0  0  0  0  0  0  0  0  0  0
   -3.3352   21.2315  -31.9000 H   0  0  0  0  0  0  0  0  0  0  0  0
    0.4848   20.4122  -29.1768 H   0  0  0  0  0  0  0  0  0  0  0  0
    0.1128   18.7220  -27.3828 H   0  0  0  0  0  0  0  0  0  0  0  0
   -2.1015   18.5647  -26.2448 H   0  0  0  0  0  0  0  0  0  0  0  0
   -3.9528   20.0994  -26.9030 H   0  0  0  0  0  0  0  0  0  0  0  0
   -3.6016   21.7886  -28.7003 H   0  0  0  0  0  0  0  0  0  0  0  0
   -0.6275   26.0679  -29.4379 H   0  0  0  0  0  0  0  0  0  0  0  0
    0.0414   26.7790  -27.1431 H   0  0  0  0  0  0  0  0  0  0  0  0
  1  2  1  0
  2  3  1  0
  3  4  1  0
  4  5  1  0
  5  6  2  0
  6  7  1  0
  7  8  2  0
  8  9  1  0
  9 10  1  0
 10 11  2  0
 10 12  1  0
 12 13  1  0
 13 14  1  0
 14 15  2  0
 15 16  1  0
 16 17  2  0
 17 18  1  0
 18 19  1  0
 19 20  2  0
 19 21  2  0
 19 22  1  0
 22 23  1  0
 23 24  2  0
 24 25  1  0
 25 26  2  0
 26 27  1  0
 27 28  2  0
 28 29  1  0
 18 30  2  0
 12 31  1  0
 31 32  2  0
 32 33  1  0
 33 34  2  0
 34 35  1  0
 35 36  2  0
  8 37  1  0
 37 38  2  0
 38  5  1  0
 30 14  1  0
 36 31  1  0
 28 23  1  0
  1 39  1  0
  1 40  1  0
  1 41  1  0
  2 42  1  0
  2 43  1  0
  3 44  1  0
  3 45  1  0
  4 46  1  0
  4 47  1  0
  6 48  1  0
  7 49  1  0
 12 50  1  1
 13 51  1  0
 15 52  1  0
 16 53  1  0
 17 54  1  0
 22 55  1  0
 24 56  1  0
 25 57  1  0
 26 58  1  0
 27 59  1  0
 30 60  1  0
 32 61  1  0
 33 62  1  0
 34 63  1  0
 35 64  1  0
 36 65  1  0
 37 66  1  0
 38 67  1  0
M  CHG  1   9  -1
M  END
>  <UniqueID>  (1) 
1

>  <SMILES>  (1) 
CCCCc1ccc([N-]C(=O)[C@H](Nc2cccc(S(=O)(=O)Nc3ccccc3Cl)c2)c2ccccc2)cc1

>  <Energy>  (1) 
74.68507681141342

>  <Genealogy>  (1) 
CCCCc1ccc([N-]C(=O)C(Nc2cccc(S(=O)(=O)Nc3ccccc3Cl)c2)c2ccccc2)cc1 (protonated)
CCCCc1ccc([N-]C(=O)[C@H](Nc2cccc(S(=O)(=O)Nc3ccccc3Cl)c2)c2ccccc2)cc1 (chirality)
CCCCc1ccc([N-]C(=O)[C@H](Nc2cccc(S(=O)(=O)Nc3ccccc3Cl)c2)c2ccccc2)cc1 (3D coordinates assigned)
CCCCc1ccc([N-]C(=O)[C@H](Nc2cccc(S(=O)(=O)Nc3ccccc3Cl)c2)c2ccccc2)cc1 (optimized conformer: 74.68507681141342 kcal/mol)

>  <smiles>  (1) 
CCCCc1ccc(NC(=O)C(Nc2cccc(S(=O)(=O)Nc3ccccc3Cl)c2)c2ccccc2)cc1

>  <score_type>  (1) 
oracle

>  <origin>  (1) 
adgpu

>  <m_score__min__energy>  (1) 
-13.369999999999999

>  <m_primary>  (1) 
energy

$$$$
1:0
     RDKit          3D

 46 47  0  0  0  0  0  0  0  0999 V2000
   -0.5210   25.8980  -24.1950 C   0  0  0  0  0  0  0  0  0  0  0  0
   -0.0500   25.2960  -25.3960 O   0  0  0  0  0  0  0  0  0  0  0  0
   -0.8580   24.9870  -26.5020 C   0  0  0  0  0  0  0  0  0  0  0  0
   -2.2540   24.8500  -26.3910 C   0  0  0  0  0  0  0  0  0  0  0  0
   -3.0250   24.5410  -27.5140 C   0  0  0  0  0  0  0  0  0  0  0  0
   -2.4170   24.3700  -28.7640 C   0  0  0  0  0  0  0  0  0  0  0  0
   -3.2400   24.0140  -29.9730 C   0  0  0  0  0  0  0  0  0  0  0  0
   -3.8250   25.2150  -30.5590 N   0  0  0  0  0  0  0  0  0  0  0  0
   -5.1930   25.5970  -30.3810 C   0  0  0  0  0  0  0  0  0  0  0  0
   -5.5340   26.8080  -30.4590 O   0  0  0  0  0  0  0  0  0  0  0  0
   -6.2330   24.5460  -30.1540 C   0  0  0  0  0  0  0  0  0  0  0  0
   -6.7710   24.0680  -31.4280 N   0  0  0  0  0  0  0  0  0  0  0  0
   -6.6560   22.7020  -31.8700 C   0  0  0  0  0  0  0  0  0  0  0  0
   -5.4270   22.1610  -32.2960 C   0  0  0  0  0  0  0  0  0  0  0  0
   -5.3470   20.8310  -32.7210 C   0  0  0  0  0  0  0  0  0  0  0  0
   -6.4910   20.0210  -32.7250 C   0  0  0  0  0  0  0  0  0  0  0  0
   -6.4040   18.3500  -33.2730 S   0  0  0  0  0  0  0  0  0  0  0  0
   -6.1340   18.3200  -34.9800 N   0  0  0  0  0  0  0  0  0  0  0  0
   -7.6940   17.6480  -32.9490 O   0  0  0  0  0  0  0  0  0  0  0  0
   -5.2770   17.6360  -32.5790 O   0  0  0  0  0  0  0  0  0  0  0  0
   -7.7160   20.5550  -32.3100 C   0  0  0  0  0  0  0  0  0  0  0  0
   -7.7980   21.8840  -31.8860 C   0  0  0  0  0  0  0  0  0  0  0  0
   -1.0250   24.5030  -28.8790 C   0  0  0  0  0  0  0  0  0  0  0  0
   -0.2410   24.8120  -27.7500 C   0  0  0  0  0  0  0  0  0  0  0  0
    1.1540   24.9540  -27.8300 O   0  0  0  0  0  0  0  0  0  0  0  0
    2.0900   24.1210  -27.1540 C   0  0  0  0  0  0  0  0  0  0  0  0
   -0.1032   25.3640  -23.3288 H   0  0  0  0  0  0  0  0  0  0  0  0
   -0.2045   26.9510  -24.1641 H   0  0  0  0  0  0  0  0  0  0  0  0
   -1.6192   25.8442  -24.1641 H   0  0  0  0  0  0  0  0  0  0  0  0
   -2.7410   24.9870  -25.4142 H   0  0  0  0  0  0  0  0  0  0  0  0
   -4.1151   24.4314  -27.4161 H   0  0  0  0  0  0  0  0  0  0  0  0
   -2.5967   23.5231  -30.7181 H   0  0  0  0  0  0  0  0  0  0  0  0
   -4.0492   23.3344  -29.6674 H   0  0  0  0  0  0  0  0  0  0  0  0
   -5.7811   23.7015  -29.6131 H   0  0  0  0  0  0  0  0  0  0  0  0
   -7.0533   24.9813  -29.5644 H   0  0  0  0  0  0  0  0  0  0  0  0
   -7.2710   24.7450  -32.0500 H   0  0  0  0  0  0  0  0  0  0  0  0
   -4.5239   22.7891  -32.2943 H   0  0  0  0  0  0  0  0  0  0  0  0
   -4.3827   20.4190  -33.0534 H   0  0  0  0  0  0  0  0  0  0  0  0
   -6.6060   19.1610  -35.3820 H   0  0  0  0  0  0  0  0  0  0  0  0
   -6.6370   17.4840  -35.3540 H   0  0  0  0  0  0  0  0  0  0  0  0
   -8.6183   19.9259  -32.3176 H   0  0  0  0  0  0  0  0  0  0  0  0
   -8.7660   22.2936  -31.5617 H   0  0  0  0  0  0  0  0  0  0  0  0
   -0.5423   24.3650  -29.8578 H   0  0  0  0  0  0  0  0  0  0  0  0
    1.9632   24.2338  -26.0672 H   0  0  0  0  0  0  0  0  0  0  0  0
    1.9179   23.0719  -27.4363 H   0  0  0  0  0  0  0  0  0  0  0  0
    3.1121   24.4137  -27.4363 H   0  0  0  0  0  0  0  0  0  0  0  0
  1  2  1  0
  2  3  1  0
  3  4  2  0
  4  5  1  0
  5  6  2  0
  6  7  1  0
  7  8  1  0
  8  9  1  0
  9 10  2  0
  9 11  1  0
 11 12  1  0
 12 13  1  0
 13 14  2  0
 14 15  1  0
 15 16  2  0
 16 17  1  0
 17 18  1  0
 17 19  2  0
 17 20  2  0
 16 21  1  0
 21 22  2  0
  6 23  1  0
 23 24  2  0
 24 25  1  0
 25 26  1  0
 24  3  1  0
 22 13  1  0
  1 27  1  0
  1 28  1  0
  1 29  1  0
  4 30  1  0
  5 31  1  0
  7 32  1  0
  7 33  1  0
 11 34  1  0
 11 35  1  0
 12 36  1  0
 14 37  1  0
 15 38  1  0
 18 39  1  0
 18 40  1  0
 21 41  1  0
 22 42  1  0
 23 43  1  0
 26 44  1  0
 26 45  1  0
 26 46  1  0
M  CHG  1   8  -1
M  END
>  <UniqueID>  (2) 
2

>  <SMILES>  (2) 
COc1ccc(C[N-]C(=O)CNc2ccc(S(N)(=O)=O)cc2)cc1OC

>  <Energy>  (2) 
39.9555635101413

>  <Genealogy>  (2) 
COc1ccc(C[N-]C(=O)CNc2ccc(S(N)(=O)=O)cc2)cc1OC (protonated)
COc1ccc(C[N-]C(=O)CNc2ccc(S(N)(=O)=O)cc2)cc1OC (3D coordinates assigned)
COc1ccc(C[N-]C(=O)CNc2ccc(S(N)(=O)=O)cc2)cc1OC (optimized conformer: 39.9555635101413 kcal/mol)

>  <smiles>  (2) 
COc1ccc(CNC(=O)CNc2ccc(S(N)(=O)=O)cc2)cc1OC

>  <score_type>  (2) 
oracle

>  <origin>  (2) 
adgpu

>  <m_score__min__energy>  (2) 
-9.5099999999999998

>  <m_primary>  (2) 
energy

$$$$
2:0
     RDKit          3D

 44 47  0  0  0  0  0  0  0  0999 V2000
   -8.6470   23.3950  -32.0090 C   0  0  0  0  0  0  0  0  0  0  0  0
   -7.3610   22.6300  -31.8900 C   0  0  0  0  0  0  0  0  0  0  0  0
   -7.3840   21.2300  -31.7980 C   0  0  0  0  0  0  0  0  0  0  0  0
   -6.1930   20.5150  -31.6510 C   0  0  0  0  0  0  0  0  0  0  0  0
   -4.9730   21.1910  -31.5730 C   0  0  0  0  0  0  0  0  0  0  0  0
   -4.9390   22.5970  -31.6290 C   0  0  0  0  0  0  0  0  0  0  0  0
   -3.7020   23.3200  -31.5280 N   0  0  0  0  0  0  0  0  0  0  0  0
   -3.3260   24.1840  -30.4460 C   0  0  0  0  0  0  0  0  0  0  0  0
   -3.8770   25.3120  -30.3590 O   0  0  0  0  0  0  0  0  0  0  0  0
   -2.3590   23.7530  -29.4030 C   0  0  0  0  0  0  0  0  0  0  0  0
   -2.2260   22.3860  -29.0970 C   0  0  0  0  0  0  0  0  0  0  0  0
   -1.2830   21.9410  -28.1550 C   0  0  0  0  0  0  0  0  0  0  0  0
   -1.1000   20.5340  -27.9010 N   0  0  0  0  0  0  0  0  0  0  0  0
   -0.2150   19.7030  -28.4890 C   0  0  0  0  0  0  0  0  0  0  0  0
   -0.3830   18.4680  -27.8930 C   0  0  0  0  0  0  0  0  0  0  0  0
    0.3680   17.2210  -28.1690 C   0  0  0  0  0  0  0  0  0  0  0  0
    0.6380   16.8420  -29.4970 C   0  0  0  0  0  0  0  0  0  0  0  0
    1.3420   15.6650  -29.7700 C   0  0  0  0  0  0  0  0  0  0  0  0
    1.7850   14.8540  -28.7240 C   0  0  0  0  0  0  0  0  0  0  0  0
    1.5260   15.2200  -27.4010 C   0  0  0  0  0  0  0  0  0  0  0  0
    0.8230   16.3950  -27.1220 C   0  0  0  0  0  0  0  0  0  0  0  0
   -1.3530   18.5860  -26.9610 N   0  0  0  0  0  0  0  0  0  0  0  0
   -1.7650   19.8460  -26.9860 N   0  0  0  0  0  0  0  0  0  0  0  0
   -0.5120   22.8910  -27.4670 C   0  0  0  0  0  0  0  0  0  0  0  0
   -0.6610   24.2520  -27.7340 C   0  0  0  0  0  0  0  0  0  0  0  0
   -1.5710   24.6880  -28.7030 C   0  0  0  0  0  0  0  0  0  0  0  0
   -1.6710   26.0500  -28.9700 O   0  0  0  0  0  0  0  0  0  0  0  0
   -6.1340   23.3090  -31.8030 C   0  0  0  0  0  0  0  0  0  0  0  0
   -9.0318   23.6239  -31.0042 H   0  0  0  0  0  0  0  0  0  0  0  0
   -8.4666   24.3327  -32.5550 H   0  0  0  0  0  0  0  0  0  0  0  0
   -9.3850   22.7890  -32.5550 H   0  0  0  0  0  0  0  0  0  0  0  0
   -8.3434   20.6936  -31.8418 H   0  0  0  0  0  0  0  0  0  0  0  0
   -6.2159   19.4166  -31.5965 H   0  0  0  0  0  0  0  0  0  0  0  0
   -4.0368   20.6232  -31.4676 H   0  0  0  0  0  0  0  0  0  0  0  0
   -2.8712   21.6533  -29.6038 H   0  0  0  0  0  0  0  0  0  0  0  0
    0.4993   19.9582  -29.2856 H   0  0  0  0  0  0  0  0  0  0  0  0
    0.2927   17.4764  -30.3266 H   0  0  0  0  0  0  0  0  0  0  0  0
    1.5472   15.3776  -30.8118 H   0  0  0  0  0  0  0  0  0  0  0  0
    2.3374   13.9279  -28.9411 H   0  0  0  0  0  0  0  0  0  0  0  0
    1.8764   14.5815  -26.5766 H   0  0  0  0  0  0  0  0  0  0  0  0
    0.6234   16.6771  -26.0777 H   0  0  0  0  0  0  0  0  0  0  0  0
    0.2154   22.5596  -26.7113 H   0  0  0  0  0  0  0  0  0  0  0  0
   -0.0593   24.9870  -27.1792 H   0  0  0  0  0  0  0  0  0  0  0  0
   -6.1109   24.4066  -31.8719 H   0  0  0  0  0  0  0  0  0  0  0  0
  1  2  1  0
  2  3  2  0
  3  4  1  0
  4  5  2  0
  5  6  1  0
  6  7  1  0
  7  8  1  0
  8  9  2  0
  8 10  1  0
 10 11  2  0
 11 12  1  0
 12 13  1  0
 13 14  1  0
 14 15  2  0
 15 16  1  0
 16 17  2  0
 17 18  1  0
 18 19  2  0
 19 20  1  0
 20 21  2  0
 15 22  1  0
 22 23  2  0
 12 24  2  0
 24 25  1  0
 25 26  2  0
 26 27  1  0
  6 28  2  0
 28  2  1  0
 26 10  1  0
 23 13  1  0
 21 16  1  0
  1 29  1  0
  1 30  1  0
  1 31  1  0
  3 32  1  0
  4 33  1  0
  5 34  1  0
 11 35  1  0
 14 36  1  0
 17 37  1  0
 18 38  1  0
 19 39  1  0
 20 40  1  0
 21 41  1  0
 24 42  1  0
 25 43  1  0
 28 44  1  0
M  CHG  2   7  -1  27  -1
M  END
>  <UniqueID>  (3) 
3

>  <SMILES>  (3) 
Cc1cccc([N-]C(=O)c2cc(-n3cc(-c4ccccc4)nn3)ccc2[O-])c1

>  <Energy>  (3) 
93.79466404698378

>  <Genealogy>  (3) 
Cc1cccc([N-]C(=O)c2cc(-n3cc(-c4ccccc4)nn3)ccc2[O-])c1 (protonated)
Cc1cccc([N-]C(=O)c2cc(-n3cc(-c4ccccc4)nn3)ccc2[O-])c1 (3D coordinates assigned)
Cc1cccc([N-]C(=O)c2cc(-n3cc(-c4ccccc4)nn3)ccc2[O-])c1 (optimized conformer: 93.79466404698378 kcal/mol)

>  <smiles>  (3) 
Cc1cccc(NC(=O)c2cc(-n3cc(-c4ccccc4)nn3)ccc2O)c1

>  <score_type>  (3) 
oracle

>  <origin>  (3) 
adgpu

>  <m_score__min__energy>  (3) 
-12.84

>  <m_primary>  (3) 
energy

$$$$
3:0
     RDKit          3D

 43 45  0  0  0  0  0  0  0  0999 V2000
   -2.4210   24.5580  -28.8400 C   0  0  0  0  0  0  0  0  0  0  0  0
   -3.2680   25.1560  -29.8160 O   0  0  0  0  0  0  0  0  0  0  0  0
   -4.4420   24.5700  -30.3110 C   0  0  0  0  0  0  0  0  0  0  0  0
   -5.7200   25.0950  -30.0420 C   0  0  0  0  0  0  0  0  0  0  0  0
   -6.8610   24.4710  -30.5560 C   0  0  0  0  0  0  0  0  0  0  0  0
   -6.7450   23.3170  -31.3450 C   0  0  0  0  0  0  0  0  0  0  0  0
   -7.9220   22.6760  -31.8770 N   0  0  0  0  0  0  0  0  0  0  0  0
   -9.0470   23.4940  -32.3340 C   0  0  0  0  0  0  0  0  0  0  0  0
   -7.9370   21.2500  -32.0860 C   0  0  0  0  0  0  0  0  0  0  0  0
   -6.9050   20.5670  -32.6300 N   0  0  0  0  0  0  0  0  0  0  0  0
   -7.1730   19.2380  -32.7460 C   0  0  0  0  0  0  0  0  0  0  0  0
   -6.1970   18.3080  -33.3550 C   0  0  0  0  0  0  0  0  0  0  0  0
   -5.7650   18.5690  -34.6660 C   0  0  0  0  0  0  0  0  0  0  0  0
   -4.8700   17.7120  -35.3070 C   0  0  0  0  0  0  0  0  0  0  0  0
   -4.3940   16.5700  -34.6520 C   0  0  0  0  0  0  0  0  0  0  0  0
   -3.4060   15.6650  -35.3280 C   0  0  0  0  0  0  0  0  0  0  0  0
   -4.7850   16.3200  -33.3300 C   0  0  0  0  0  0  0  0  0  0  0  0
   -5.6710   17.1860  -32.6640 C   0  0  0  0  0  0  0  0  0  0  0  0
   -6.0220   16.8880  -31.2280 C   0  0  0  0  0  0  0  0  0  0  0  0
   -8.4470   18.8580  -32.3220 C   0  0  0  0  0  0  0  0  0  0  0  0
   -9.2380   20.2310  -31.7620 S   0  0  0  0  0  0  0  0  0  0  0  0
   -5.4690   22.8000  -31.6180 C   0  0  0  0  0  0  0  0  0  0  0  0
   -4.3290   23.4210  -31.1030 C   0  0  0  0  0  0  0  0  0  0  0  0
   -2.7836   24.8140  -27.8335 H   0  0  0  0  0  0  0  0  0  0  0  0
   -2.4306   23.4653  -28.9663 H   0  0  0  0  0  0  0  0  0  0  0  0
   -1.3945   24.9327  -28.9663 H   0  0  0  0  0  0  0  0  0  0  0  0
   -5.8216   25.9999  -29.4249 H   0  0  0  0  0  0  0  0  0  0  0  0
   -7.8559   24.8878  -30.3402 H   0  0  0  0  0  0  0  0  0  0  0  0
   -9.5906   23.8892  -31.4632 H   0  0  0  0  0  0  0  0  0  0  0  0
   -8.6696   24.3301  -32.9411 H   0  0  0  0  0  0  0  0  0  0  0  0
   -9.7260   22.8773  -32.9411 H   0  0  0  0  0  0  0  0  0  0  0  0
   -6.1369   19.4598  -35.1935 H   0  0  0  0  0  0  0  0  0  0  0  0
   -4.5369   17.9346  -36.3315 H   0  0  0  0  0  0  0  0  0  0  0  0
   -2.8201   15.1283  -34.5672 H   0  0  0  0  0  0  0  0  0  0  0  0
   -3.9435   14.9394  -35.9561 H   0  0  0  0  0  0  0  0  0  0  0  0
   -2.7302   16.2639  -35.9561 H   0  0  0  0  0  0  0  0  0  0  0  0
   -4.3941   15.4352  -32.8062 H   0  0  0  0  0  0  0  0  0  0  0  0
   -5.3545   17.4547  -30.5622 H   0  0  0  0  0  0  0  0  0  0  0  0
   -7.0650   17.1806  -31.0372 H   0  0  0  0  0  0  0  0  0  0  0  0
   -5.9025   15.8113  -31.0372 H   0  0  0  0  0  0  0  0  0  0  0  0
   -8.8607   17.8391  -32.3495 H   0  0  0  0  0  0  0  0  0  0  0  0
   -5.3662   21.8998  -32.2417 H   0  0  0  0  0  0  0  0  0  0  0  0
   -3.3347   23.0042  -31.3213 H   0  0  0  0  0  0  0  0  0  0  0  0
  1  2  1  0
  2  3  1  0
  3  4  2  0
  4  5  1  0
  5  6  2  0
  6  7  1  0
  7  8  1  0
  7  9  1  0
  9 10  2  0
 10 11  1  0
 11 12  1  0
 12 13  2  0
 13 14  1  0
 14 15  2  0
 15 16  1  0
 15 17  1  0
 17 18  2  0
 18 19  1  0
 11 20  2  0
 20 21  1  0
  6 22  1  0
 22 23  2  0
 23  3  1  0
 21  9  1  0
 18 12  1  0
  1 24  1  0
  1 25  1  0
  1 26  1  0
  4 27  1  0
  5 28  1  0
  8 29  1  0
  8 30  1  0
  8 31  1  0
 13 32  1  0
 14 33  1  0
 16 34  1  0
 16 35  1  0
 16 36  1  0
 17 37  1  0
 19 38  1  0
 19 39  1  0
 19 40  1  0
 20 41  1  0
 22 42  1  0
 23 43  1  0
M  END
>  <UniqueID>  (4) 
4

>  <SMILES>  (4) 
COc1ccc(N(C)c2nc(-c3ccc(C)cc3C)cs2)cc1

>  <Energy>  (4) 
84.31317627414828

>  <Genealogy>  (4) 
COc1ccc(N(C)c2nc(-c3ccc(C)cc3C)cs2)cc1 (3D coordinates assigned)
COc1ccc(N(C)c2nc(-c3ccc(C)cc3C)cs2)cc1 (optimized conformer: 84.31317627414828 kcal/mol)

>  <smiles>  (4) 
COc1ccc(N(C)c2nc(-c3ccc(C)cc3C)cs2)cc1

>  <score_type>  (4) 
oracle

>  <origin>  (4) 
adgpu

>  <m_score__min__energy>  (4) 
-9.0500000000000007

>  <m_primary>  (4) 
energy

$$$$
4:0
     RDKit          3D

 45 47  0  0  0  0  0  0  0  0999 V2000
   -5.3520   25.3470  -30.2680 C   0  0  0  0  0  0  0  0  0  0  0  0
   -3.9380   25.3500  -30.1000 O   0  0  0  0  0  0  0  0  0  0  0  0
   -3.1640   24.2040  -29.8540 C   0  0  0  0  0  0  0  0  0  0  0  0
   -3.6750   22.9040  -30.0370 C   0  0  0  0  0  0  0  0  0  0  0  0
   -2.8760   21.7900  -29.7800 C   0  0  0  0  0  0  0  0  0  0  0  0
   -1.5560   21.9490  -29.3410 C   0  0  0  0  0  0  0  0  0  0  0  0
   -0.7010   20.7380  -29.0490 C   0  0  0  0  0  0  0  0  0  0  0  0
   -0.9040   19.6580  -30.0350 N   0  0  0  0  0  0  0  0  0  0  0  0
   -0.6970   20.0830  -31.4320 C   0  0  0  0  0  0  0  0  0  0  0  0
   -1.9910   20.1990  -32.1840 C   0  0  0  0  0  0  0  0  0  0  0  0
   -2.1540   20.7170  -33.4490 C   0  0  0  0  0  0  0  0  0  0  0  0
   -3.4180   20.5840  -33.7640 O   0  0  0  0  0  0  0  0  0  0  0  0
   -4.0170   20.0010  -32.7460 C   0  0  0  0  0  0  0  0  0  0  0  0
   -5.4540   19.6640  -32.7210 C   0  0  0  0  0  0  0  0  0  0  0  0
   -5.8840   18.3670  -33.0480 C   0  0  0  0  0  0  0  0  0  0  0  0
   -7.2450   18.0470  -33.0200 C   0  0  0  0  0  0  0  0  0  0  0  0
   -8.1860   19.0160  -32.6640 C   0  0  0  0  0  0  0  0  0  0  0  0
   -7.7680   20.3090  -32.3350 C   0  0  0  0  0  0  0  0  0  0  0  0
   -8.9490   21.5260  -31.8850 Cl  0  0  0  0  0  0  0  0  0  0  0  0
   -6.4080   20.6330  -32.3630 C   0  0  0  0  0  0  0  0  0  0  0  0
   -3.1690   19.7360  -31.7290 N   0  0  0  0  0  0  0  0  0  0  0  0
   -1.0440   23.2430  -29.1580 C   0  0  0  0  0  0  0  0  0  0  0  0
   -1.8440   24.3740  -29.4090 C   0  0  0  0  0  0  0  0  0  0  0  0
   -1.3650   25.6810  -29.2280 O   0  0  0  0  0  0  0  0  0  0  0  0
   -0.8800   26.1990  -27.9930 C   0  0  0  0  0  0  0  0  0  0  0  0
   -5.8385   25.3460  -29.2814 H   0  0  0  0  0  0  0  0  0  0  0  0
   -5.6568   26.2445  -30.8262 H   0  0  0  0  0  0  0  0  0  0  0  0
   -5.6530   24.4482  -30.8262 H   0  0  0  0  0  0  0  0  0  0  0  0
   -4.7096   22.7667  -30.3844 H   0  0  0  0  0  0  0  0  0  0  0  0
   -3.2858   20.7793  -29.9232 H   0  0  0  0  0  0  0  0  0  0  0  0
    0.3568   21.0392  -29.0669 H   0  0  0  0  0  0  0  0  0  0  0  0
   -0.9918   20.3510  -28.0612 H   0  0  0  0  0  0  0  0  0  0  0  0
   -0.2480   18.8700  -29.8240 H   0  0  0  0  0  0  0  0  0  0  0  0
   -1.8770   19.2890  -29.9310 H   0  0  0  0  0  0  0  0  0  0  0  0
   -0.1962   21.0624  -31.4344 H   0  0  0  0  0  0  0  0  0  0  0  0
   -0.0822   19.3195  -31.9310 H   0  0  0  0  0  0  0  0  0  0  0  0
   -1.3683   21.1603  -34.0784 H   0  0  0  0  0  0  0  0  0  0  0  0
   -5.1468   17.5999  -33.3273 H   0  0  0  0  0  0  0  0  0  0  0  0
   -7.5752   17.0302  -33.2788 H   0  0  0  0  0  0  0  0  0  0  0  0
   -9.2560   18.7618  -32.6425 H   0  0  0  0  0  0  0  0  0  0  0  0
   -6.0827   21.6513  -32.1036 H   0  0  0  0  0  0  0  0  0  0  0  0
   -0.0072   23.3748  -28.8150 H   0  0  0  0  0  0  0  0  0  0  0  0
   -1.3697   25.6759  -27.1584 H   0  0  0  0  0  0  0  0  0  0  0  0
    0.2078   26.0467  -27.9334 H   0  0  0  0  0  0  0  0  0  0  0  0
   -1.1035   27.2744  -27.9334 H   0  0  0  0  0  0  0  0  0  0  0  0
  1  2  1  0
  2  3  1  0
  3  4  2  0
  4  5  1  0
  5  6  2  0
  6  7  1  0
  7  8  1  0
  8  9  1  0
  9 10  1  0
 10 11  2  0
 11 12  1  0
 12 13  1  0
 13 14  1  0
 14 15  2  0
 15 16  1  0
 16 17  2  0
 17 18  1  0
 18 19  1  0
 18 20  2  0
 13 21  2  0
  6 22  1  0
 22 23  2  0
 23 24  1  0
 24 25  1  0
 23  3  1  0
 21 10  1  0
 20 14  1  0
  1 26  1  0
  1 27  1  0
  1 28  1  0
  4 29  1  0
  5 30  1  0
  7 31  1  0
  7 32  1  0
  8 33  1  0
  8 34  1  0
  9 35  1  0
  9 36  1  0
 11 37  1  0
 15 38  1  0
 16 39  1  0
 17 40  1  0
 20 41  1  0
 22 42  1  0
 25 43  1  0
 25 44  1  0
 25 45  1  0
M  CHG  1   8   1
M  END
>  <UniqueID>  (5) 
5

>  <SMILES>  (5) 
COc1ccc(C[NH2+]Cc2coc(-c3cccc(Cl)c3)n2)cc1OC

>  <Energy>  (5) 
73.48700687380851

>  <Genealogy>  (5) 
COc1ccc(C[NH2+]Cc2coc(-c3cccc(Cl)c3)n2)cc1OC (protonated)
COc1ccc(C[NH2+]Cc2coc(-c3cccc(Cl)c3)n2)cc1OC (3D coordinates assigned)
COc1ccc(C[NH2+]Cc2coc(-c3cccc(Cl)c3)n2)cc1OC (optimized conformer: 73.48700687380851 kcal/mol)

>  <smiles>  (5) 
COc1ccc(CNCc2coc(-c3cccc(Cl)c3)n2)cc1OC

>  <score_type>  (5) 
oracle

>  <origin>  (5) 
adgpu

>  <m_score__min__energy>  (5) 
-7.9500000000000002

>  <m_primary>  (5) 
energy

$$$$
5:0
     RDKit          3D

 38 40  0  0  0  0  0  0  0  0999 V2000
   -8.3420   12.9960  -35.3250 C   0  0  0  0  0  0  0  0  0  0  0  0
   -7.2290   13.6440  -34.5570 C   0  0  0  0  0  0  0  0  0  0  0  0
   -6.2870   12.8570  -33.8760 C   0  0  0  0  0  0  0  0  0  0  0  0
   -5.2380   13.4620  -33.1780 C   0  0  0  0  0  0  0  0  0  0  0  0
   -5.1100   14.8530  -33.1730 C   0  0  0  0  0  0  0  0  0  0  0  0
   -6.0180   15.6490  -33.8840 C   0  0  0  0  0  0  0  0  0  0  0  0
   -5.8890   17.0770  -33.8590 N   0  0  0  0  0  0  0  0  0  0  0  0
   -5.8550   17.8220  -34.9530 N   0  0  0  0  0  0  0  0  0  0  0  0
   -5.7480   19.1040  -34.6380 N   0  0  0  0  0  0  0  0  0  0  0  0
   -5.7290   19.1850  -33.2910 C   0  0  0  0  0  0  0  0  0  0  0  0
   -5.6390   20.4650  -32.5560 C   0  0  0  0  0  0  0  0  0  0  0  0
   -4.5360   21.3230  -32.7090 C   0  0  0  0  0  0  0  0  0  0  0  0
   -4.4660   22.5210  -31.9910 C   0  0  0  0  0  0  0  0  0  0  0  0
   -5.4930   22.8740  -31.1060 C   0  0  0  0  0  0  0  0  0  0  0  0
   -5.3940   24.3760  -30.1920 S   0  0  0  0  0  0  0  0  0  0  0  0
   -4.1150   25.3520  -30.8220 N   0  0  0  0  0  0  0  0  0  0  0  0
   -5.1270   24.0750  -28.7450 O   0  0  0  0  0  0  0  0  0  0  0  0
   -6.6950   25.1230  -30.2970 O   0  0  0  0  0  0  0  0  0  0  0  0
   -6.5800   22.0100  -30.9290 C   0  0  0  0  0  0  0  0  0  0  0  0
   -6.6500   20.8110  -31.6460 C   0  0  0  0  0  0  0  0  0  0  0  0
   -5.8020   17.8940  -32.7880 C   0  0  0  0  0  0  0  0  0  0  0  0
   -5.9000   17.4730  -31.3500 C   0  0  0  0  0  0  0  0  0  0  0  0
   -7.0860   15.0400  -34.5640 C   0  0  0  0  0  0  0  0  0  0  0  0
   -9.0732   12.5703  -34.6221 H   0  0  0  0  0  0  0  0  0  0  0  0
   -8.8365   13.7474  -35.9582 H   0  0  0  0  0  0  0  0  0  0  0  0
   -7.9327   12.1950  -35.9582 H   0  0  0  0  0  0  0  0  0  0  0  0
   -6.3747   11.7606  -33.8917 H   0  0  0  0  0  0  0  0  0  0  0  0
   -4.5121   12.8418  -32.6318 H   0  0  0  0  0  0  0  0  0  0  0  0
   -4.2928   15.3256  -32.6084 H   0  0  0  0  0  0  0  0  0  0  0  0
   -3.7229   21.0503  -33.3978 H   0  0  0  0  0  0  0  0  0  0  0  0
   -3.6015   23.1885  -32.1216 H   0  0  0  0  0  0  0  0  0  0  0  0
   -3.8720   26.0480  -30.0820 H   0  0  0  0  0  0  0  0  0  0  0  0
   -7.3817   22.2748  -30.2239 H   0  0  0  0  0  0  0  0  0  0  0  0
   -7.5039   20.1341  -31.4955 H   0  0  0  0  0  0  0  0  0  0  0  0
   -5.6988   18.3375  -30.7003 H   0  0  0  0  0  0  0  0  0  0  0  0
   -6.9113   17.0902  -31.1481 H   0  0  0  0  0  0  0  0  0  0  0  0
   -5.1618   16.6829  -31.1481 H   0  0  0  0  0  0  0  0  0  0  0  0
   -7.8147   15.6613  -35.1053 H   0  0  0  0  0  0  0  0  0  0  0  0
  1  2  1  0
  2  3  2  0
  3  4  1  0
  4  5  2  0
  5  6  1  0
  6  7  1  0
  7  8  1  0
  8  9  2  0
  9 10  1  0
 10 11  1  0
 11 12  2  0
 12 13  1  0
 13 14  2  0
 14 15  1  0
 15 16  1  0
 15 17  2  0
 15 18  2  0
 14 19  1  0
 19 20  2  0
 10 21  2  0
 21 22  1  0
  6 23  2  0
 23  2  1  0
 21  7  1  0
 20 11  1  0
  1 24  1  0
  1 25  1  0
  1 26  1  0
  3 27  1  0
  4 28  1  0
  5 29  1  0
 12 30  1  0
 13 31  1  0
 16 32  1  0
 19 33  1  0
 20 34  1  0
 22 35  1  0
 22 36  1  0
 22 37  1  0
 23 38  1  0
M  CHG  1  16  -1
M  END
>  <UniqueID>  (6) 
6

>  <SMILES>  (6) 
Cc1cccc(-n2nnc(-c3ccc(S([NH-])(=O)=O)cc3)c2C)c1

>  <Energy>  (6) 
84.99668569271873

>  <Genealogy>  (6) 
Cc1cccc(-n2nnc(-c3ccc(S([NH-])(=O)=O)cc3)c2C)c1 (protonated)
Cc1cccc(-n2nnc(-c3ccc(S([NH-])(=O)=O)cc3)c2C)c1 (3D coordinates assigned)
Cc1cccc(-n2nnc(-c3ccc(S([NH-])(=O)=O)cc3)c2C)c1 (optimized conformer: 84.99668569271873 kcal/mol)

>  <smiles>  (6) 
Cc1cccc(-n2nnc(-c3ccc(S(N)(=O)=O)cc3)c2C)c1

>  <score_type>  (6) 
oracle

>  <origin>  (6) 
adgpu

>  <m_score__min__energy>  (6) 
-10.5

>  <m_primary>  (6) 
energy

$$$$
6:0
     RDKit          3D

 28 29  0  0  0  0  0  0  0  0999 V2000
   -5.3510   17.9690  -32.5090 C   0  0  0  0  0  0  0  0  0  0  0  0
   -6.6340   18.7220  -32.2730 C   0  0  0  0  0  0  0  0  0  0  0  0
   -7.8280   17.9850  -32.2750 C   0  0  0  0  0  0  0  0  0  0  0  0
   -9.0510   18.6150  -32.1040 C   0  0  0  0  0  0  0  0  0  0  0  0
   -9.1120   19.9960  -31.9660 C   0  0  0  0  0  0  0  0  0  0  0  0
   -7.9420   20.7810  -31.9770 C   0  0  0  0  0  0  0  0  0  0  0  0
   -8.1030   22.2900  -31.8920 C   0  0  0  0  0  0  0  0  0  0  0  0
   -7.8980   22.7350  -30.5990 F   0  0  0  0  0  0  0  0  0  0  0  0
   -7.1800   22.9420  -32.6940 F   0  0  0  0  0  0  0  0  0  0  0  0
   -9.3680   22.6480  -32.3200 F   0  0  0  0  0  0  0  0  0  0  0  0
   -6.6700   20.1290  -32.0370 C   0  0  0  0  0  0  0  0  0  0  0  0
   -5.1390   21.0380  -31.8510 S   0  0  0  0  0  0  0  0  0  0  0  0
   -4.8140   21.7890  -33.1110 O   0  0  0  0  0  0  0  0  0  0  0  0
   -3.9900   20.1120  -31.5700 O   0  0  0  0  0  0  0  0  0  0  0  0
   -5.3170   22.1560  -30.5420 N   0  0  0  0  0  0  0  0  0  0  0  0
   -4.8060   23.4890  -30.5850 C   0  0  0  0  0  0  0  0  0  0  0  0
   -5.5100   24.6120  -30.9430 C   0  0  0  0  0  0  0  0  0  0  0  0
   -4.6860   25.6740  -30.8560 N   0  0  0  0  0  0  0  0  0  0  0  0
   -3.4910   25.2550  -30.4560 N   0  0  0  0  0  0  0  0  0  0  0  0
   -3.5360   23.9210  -30.2810 C   0  0  0  0  0  0  0  0  0  0  0  0
   -4.8985   17.7035  -31.5422 H   0  0  0  0  0  0  0  0  0  0  0  0
   -5.5634   17.0522  -33.0786 H   0  0  0  0  0  0  0  0  0  0  0  0
   -4.6541   18.6014  -33.0786 H   0  0  0  0  0  0  0  0  0  0  0  0
   -7.7932   16.8944  -32.4139 H   0  0  0  0  0  0  0  0  0  0  0  0
   -9.9757   18.0198  -32.0775 H   0  0  0  0  0  0  0  0  0  0  0  0
  -10.0901   20.4848  -31.8461 H   0  0  0  0  0  0  0  0  0  0  0  0
   -6.5663   24.6397  -31.2486 H   0  0  0  0  0  0  0  0  0  0  0  0
   -2.7007   23.2856  -29.9515 H   0  0  0  0  0  0  0  0  0  0  0  0
  1  2  1  0
  2  3  2  0
  3  4  1  0
  4  5  2  0
  5  6  1  0
  6  7  1  0
  7  8  1  0
  7  9  1  0
  7 10  1  0
  6 11  2  0
 11 12  1  0
 12 13  2  0
 12 14  2  0
 12 15  1  0
 15 16  1  0
 16 17  1  0
 17 18  2  0
 18 19  1  0
 19 20  1  0
 11  2  1  0
 20 16  2  0
  1 21  1  0
  1 22  1  0
  1 23  1  0
  3 24  1  0
  4 25  1  0
  5 26  1  0
 17 27  1  0
 20 28  1  0
M  CHG  2  15  -1  19  -1
M  END
>  <UniqueID>  (7) 
7

>  <SMILES>  (7) 
Cc1cccc(C(F)(F)F)c1S(=O)(=O)[N-]c1cn[n-]c1

>  <Energy>  (7) 
71.5395927779486

>  <Genealogy>  (7) 
Cc1cccc(C(F)(F)F)c1S(=O)(=O)[N-]c1cn[n-]c1 (protonated)
Cc1cccc(C(F)(F)F)c1S(=O)(=O)[N-]c1cn[n-]c1 (3D coordinates assigned)
Cc1cccc(C(F)(F)F)c1S(=O)(=O)[N-]c1cn[n-]c1 (optimized conformer: 71.5395927779486 kcal/mol)

>  <smiles>  (7) 
Cc1cccc(C(F)(F)F)c1S(=O)(=O)Nc1cn[nH]c1

>  <score_type>  (7) 
oracle

>  <origin>  (7) 
adgpu

>  <m_score__min__energy>  (7) 
-9.1899999999999995

>  <m_primary>  (7) 
energy

$$$$
7:0
     RDKit          3D

 52 55  0  0  0  0  0  0  0  0999 V2000
  -10.0763   21.7217  -31.6847 H   0  0  0  0  0  0  0  0  0  0  0  0
   -9.0040   21.5180  -31.8210 C   0  0  0  0  0  0  0  0  0  0  0  0
   -8.0570   22.4270  -31.3430 C   0  0  0  0  0  0  0  0  0  0  0  0
   -8.3875   23.3426  -30.8308 H   0  0  0  0  0  0  0  0  0  0  0  0
   -6.6840   22.1780  -31.5130 C   0  0  0  0  0  0  0  0  0  0  0  0
   -5.6740   23.1460  -31.0100 C   0  0  0  0  0  0  0  0  0  0  0  0
   -5.7720   24.5090  -31.3230 C   0  0  0  0  0  0  0  0  0  0  0  0
   -6.5977   24.8728  -31.9521 H   0  0  0  0  0  0  0  0  0  0  0  0
   -4.8190   25.4020  -30.8340 C   0  0  0  0  0  0  0  0  0  0  0  0
   -4.8999   26.4726  -31.0734 H   0  0  0  0  0  0  0  0  0  0  0  0
   -3.7900   24.9580  -30.0630 N   0  0  0  0  0  0  0  0  0  0  0  0
   -3.1340   25.6760  -29.6870 H   0  0  0  0  0  0  0  0  0  0  0  0
   -3.6480   23.6310  -29.7550 C   0  0  0  0  0  0  0  0  0  0  0  0
   -2.6700   23.1910  -29.0130 N   0  0  0  0  0  0  0  0  0  0  0  0
   -1.5430   23.9360  -28.5300 C   0  0  0  0  0  0  0  0  0  0  0  0
   -0.2320   23.4940  -28.7430 C   0  0  0  0  0  0  0  0  0  0  0  0
   -0.0452   22.5876  -29.3376 H   0  0  0  0  0  0  0  0  0  0  0  0
    0.8350   24.2050  -28.2000 C   0  0  0  0  0  0  0  0  0  0  0  0
    1.8683   23.8727  -28.3785 H   0  0  0  0  0  0  0  0  0  0  0  0
    0.5870   25.3430  -27.4270 C   0  0  0  0  0  0  0  0  0  0  0  0
    1.5630   25.9710  -26.9330 O   0  0  0  0  0  0  0  0  0  0  0  0
   -0.7010   25.7620  -27.2050 N   0  0  0  0  0  0  0  0  0  0  0  0
   -0.9780   26.9350  -26.3590 C   0  0  0  0  0  0  0  0  0  0  0  0
   -1.6725   27.6057  -26.8862 H   0  0  0  0  0  0  0  0  0  0  0  0
   -0.0315   27.4559  -26.1520 H   0  0  0  0  0  0  0  0  0  0  0  0
   -1.6030   26.5040  -25.0370 C   0  0  0  0  0  0  0  0  0  0  0  0
   -1.0130   26.9109  -24.2026 H   0  0  0  0  0  0  0  0  0  0  0  0
   -2.6334   26.8844  -24.9773 H   0  0  0  0  0  0  0  0  0  0  0  0
   -1.6136   25.4057  -24.9773 H   0  0  0  0  0  0  0  0  0  0  0  0
   -1.7550   25.0590  -27.7230 C   0  0  0  0  0  0  0  0  0  0  0  0
   -2.7831   25.3815  -27.5017 H   0  0  0  0  0  0  0  0  0  0  0  0
   -4.6030   22.7120  -30.2130 C   0  0  0  0  0  0  0  0  0  0  0  0
   -4.5127   21.6484  -29.9471 H   0  0  0  0  0  0  0  0  0  0  0  0
   -6.2800   21.0020  -32.1690 C   0  0  0  0  0  0  0  0  0  0  0  0
   -5.2080   20.8005  -32.3114 H   0  0  0  0  0  0  0  0  0  0  0  0
   -7.2280   20.0810  -32.6450 C   0  0  0  0  0  0  0  0  0  0  0  0
   -6.8000   18.8850  -33.3250 N   0  0  0  0  0  0  0  0  0  0  0  0
   -7.2270   17.5640  -32.8440 C   0  0  0  0  0  0  0  0  0  0  0  0
   -7.4775   17.6357  -31.7753 H   0  0  0  0  0  0  0  0  0  0  0  0
   -8.1034   17.2483  -33.4291 H   0  0  0  0  0  0  0  0  0  0  0  0
   -6.1110   16.5100  -33.0300 C   0  0  0  0  0  0  0  0  0  0  0  0
   -5.7515   16.2062  -32.0358 H   0  0  0  0  0  0  0  0  0  0  0  0
   -6.5509   15.6730  -33.5921 H   0  0  0  0  0  0  0  0  0  0  0  0
   -5.0030   16.9770  -33.7830 O   0  0  0  0  0  0  0  0  0  0  0  0
   -5.4500   17.6280  -34.9530 C   0  0  0  0  0  0  0  0  0  0  0  0
   -4.6021   17.7749  -35.6382 H   0  0  0  0  0  0  0  0  0  0  0  0
   -6.2162   17.0122  -35.4467 H   0  0  0  0  0  0  0  0  0  0  0  0
   -6.0470   18.9860  -34.5810 C   0  0  0  0  0  0  0  0  0  0  0  0
   -5.2351   19.7182  -34.4594 H   0  0  0  0  0  0  0  0  0  0  0  0
   -6.7287   19.3085  -35.3818 H   0  0  0  0  0  0  0  0  0  0  0  0
   -8.5950   20.3520  -32.4710 C   0  0  0  0  0  0  0  0  0  0  0  0
   -9.3464   19.6428  -32.8483 H   0  0  0  0  0  0  0  0  0  0  0  0
  1  2  1  0
  2  3  2  0
  3  4  1  0
  3  5  1  0
  5  6  1  0
  6  7  1  0
  7  8  1  0
  7  9  2  0
  9 10  1  0
  9 11  1  0
 11 12  1  0
 11 13  1  0
 13 14  2  0
 14 15  1  0
 15 16  1  0
 16 17  1  0
 16 18  2  0
 18 19  1  0
 18 20  1  0
 20 21  2  0
 20 22  1  0
 22 23  1  0
 23 24  1  0
 23 25  1  0
 23 26  1  0
 26 27  1  0
 26 28  1  0
 26 29  1  0
 22 30  1  0
 30 31  1  0
 13 32  1  0
 32 33  1  0
  5 34  2  0
 34 35  1  0
 34 36  1  0
 36 37  1  0
 37 38  1  0
 38 39  1  0
 38 40  1  0
 38 41  1  0
 41 42  1  0
 41 43  1  0
 41 44  1  0
 44 45  1  0
 45 46  1  0
 45 47  1  0
 45 48  1  0
 48 49  1  0
 48 50  1  0
 36 51  2  0
 51 52  1  0
 51  2  1  0
 32  6  2  0
 48 37  1  0
 30 15  2  0
M  END
>  <UniqueID>  (8) 
8

>  <SMILES>  (8) 
CCn1cc(/N=c2/cc(-c3cccc(N4CCOCC4)c3)cc[nH]2)ccc1=O

>  <Energy>  (8) 
79.86958878587818

>  <Genealogy>  (8) 
CCn1cc(/N=c2/cc(-c3cccc(N4CCOCC4)c3)cc[nH]2)ccc1=O (cis-trans isomerization)
CCn1cc(/N=c2/cc(-c3cccc(N4CCOCC4)c3)cc[nH]2)ccc1=O (3D coordinates assigned)
CCn1cc(/N=c2/cc(-c3cccc(N4CCOCC4)c3)cc[nH]2)ccc1=O (nonaromatic ring conformer: 79.86958878587818 kcal/mol)

>  <smiles>  (8) 
CCn1cc(N=c2cc(-c3cccc(N4CCOCC4)c3)cc[nH]2)ccc1=O

>  <score_type>  (8) 
oracle

>  <origin>  (8) 
adgpu

>  <m_score__min__energy>  (8) 
-9.1999999999999993

>  <m_primary>  (8) 
energy

$$$$
8:0
     RDKit          3D

 30 31  0  0  0  0  0  0  0  0999 V2000
   -4.6080   23.6330  -27.9870 C   0  0  0  0  0  0  0  0  0  0  0  0
   -4.6540   24.4330  -29.2220 N   0  0  1  0  0  0  0  0  0  0  0  0
   -3.3570   24.4800  -29.8510 C   0  0  0  0  0  0  0  0  0  0  0  0
   -3.1220   23.7850  -30.8790 O   0  0  0  0  0  0  0  0  0  0  0  0
   -2.3240   25.2940  -29.2770 N   0  0  0  0  0  0  0  0  0  0  0  0
   -1.6130   25.0340  -28.0590 C   0  0  0  0  0  0  0  0  0  0  0  0
   -2.0010   25.6020  -26.8310 C   0  0  0  0  0  0  0  0  0  0  0  0
   -1.2940   25.3030  -25.6620 C   0  0  0  0  0  0  0  0  0  0  0  0
   -0.2060   24.4260  -25.7060 C   0  0  0  0  0  0  0  0  0  0  0  0
    0.1700   23.8400  -26.9170 C   0  0  0  0  0  0  0  0  0  0  0  0
    1.2190   22.9810  -26.9580 F   0  0  0  0  0  0  0  0  0  0  0  0
   -0.5360   24.1370  -28.0880 C   0  0  0  0  0  0  0  0  0  0  0  0
   -5.6270   23.9050  -30.1550 C   0  0  0  0  0  0  0  0  0  0  0  0
   -6.6620   23.0640  -29.7080 C   0  0  0  0  0  0  0  0  0  0  0  0
   -7.6080   22.5930  -30.6200 C   0  0  0  0  0  0  0  0  0  0  0  0
   -7.5270   22.9650  -31.9620 C   0  0  0  0  0  0  0  0  0  0  0  0
   -6.4980   23.8120  -32.3730 C   0  0  0  0  0  0  0  0  0  0  0  0
   -5.5840   24.2620  -31.4720 N   0  0  0  0  0  0  0  0  0  0  0  0
   -4.6465   24.3023  -27.1149 H   0  0  0  0  0  0  0  0  0  0  0  0
   -5.4682   22.9479  -27.9617 H   0  0  0  0  0  0  0  0  0  0  0  0
   -3.6749   23.0510  -27.9617 H   0  0  0  0  0  0  0  0  0  0  0  0
   -4.9250   25.4060  -28.9450 H   0  0  0  0  0  0  0  0  0  0  0  0
   -2.8635   26.2836  -26.7906 H   0  0  0  0  0  0  0  0  0  0  0  0
   -1.5943   25.7584  -24.7068 H   0  0  0  0  0  0  0  0  0  0  0  0
    0.3538   24.1975  -24.7871 H   0  0  0  0  0  0  0  0  0  0  0  0
   -0.2442   23.6638  -29.0371 H   0  0  0  0  0  0  0  0  0  0  0  0
   -6.7255   22.7795  -28.6473 H   0  0  0  0  0  0  0  0  0  0  0  0
   -8.4167   21.9290  -30.2807 H   0  0  0  0  0  0  0  0  0  0  0  0
   -8.2661   22.5946  -32.6876 H   0  0  0  0  0  0  0  0  0  0  0  0
   -6.4256   24.1165  -33.4275 H   0  0  0  0  0  0  0  0  0  0  0  0
  1  2  1  0
  2  3  1  0
  3  4  2  0
  3  5  1  0
  5  6  1  0
  6  7  2  0
  7  8  1  0
  8  9  2  0
  9 10  1  0
 10 11  1  0
 10 12  2  0
  2 13  1  0
 13 14  2  0
 14 15  1  0
 15 16  2  0
 16 17  1  0
 17 18  2  0
 12  6  1  0
 18 13  1  0
  1 19  1  0
  1 20  1  0
  1 21  1  0
  2 22  1  1
  7 23  1  0
  8 24  1  0
  9 25  1  0
 12 26  1  0
 14 27  1  0
 15 28  1  0
 16 29  1  0
 17 30  1  0
M  CHG  2   2   1   5  -1
M  END
>  <UniqueID>  (9) 
9

>  <SMILES>  (9) 
C[N@@H+](C(=O)[N-]c1cccc(F)c1)c1ccccn1

>  <Energy>  (9) 
37.99068272040322

>  <Genealogy>  (9) 
C[NH+](C(=O)[N-]c1cccc(F)c1)c1ccccn1 (protonated)
C[N@@H+](C(=O)[N-]c1cccc(F)c1)c1ccccn1 (chirality)
C[N@@H+](C(=O)[N-]c1cccc(F)c1)c1ccccn1 (3D coordinates assigned)
C[N@@H+](C(=O)[N-]c1cccc(F)c1)c1ccccn1 (optimized conformer: 37.99068272040322 kcal/mol)

>  <smiles>  (9) 
CN(C(=O)Nc1cccc(F)c1)c1ccccn1

>  <score_type>  (9) 
oracle

>  <origin>  (9) 
adgpu

>  <m_score__min__energy>  (9) 
-6.6399999999999997

>  <m_primary>  (9) 
energy

$$$$
9:0
     RDKit          3D

 37 40  0  0  0  0  0  0  0  0999 V2000
   -5.8820   15.4120  -33.0420 H   0  0  0  0  0  0  0  0  0  0  0  0
   -5.0570   15.9300  -33.4230 N   0  0  0  0  0  0  0  0  0  0  0  0
   -4.9030   17.2060  -33.2650 C   0  0  0  0  0  0  0  0  0  0  0  0
   -3.8070   17.8100  -33.7850 N   0  0  0  0  0  0  0  0  0  0  0  0
   -3.5610   19.1370  -33.6290 C   0  0  0  0  0  0  0  0  0  0  0  0
   -2.2940   19.6910  -34.2140 C   0  0  0  0  0  0  0  0  0  0  0  0
   -1.6144   19.9882  -33.4017 H   0  0  0  0  0  0  0  0  0  0  0  0
   -1.8099   18.9224  -34.8344 H   0  0  0  0  0  0  0  0  0  0  0  0
   -2.5295   20.5683  -34.8344 H   0  0  0  0  0  0  0  0  0  0  0  0
   -4.4760   19.9360  -32.8990 C   0  0  0  0  0  0  0  0  0  0  0  0
   -4.2040   21.2730  -32.5910 C   0  0  0  0  0  0  0  0  0  0  0  0
   -3.3213   21.7647  -33.0260 H   0  0  0  0  0  0  0  0  0  0  0  0
   -5.0440   21.9880  -31.7360 C   0  0  0  0  0  0  0  0  0  0  0  0
   -4.6480   23.3540  -31.3050 C   0  0  0  0  0  0  0  0  0  0  0  0
   -5.3950   24.5180  -31.3420 C   0  0  0  0  0  0  0  0  0  0  0  0
   -6.4206   24.6051  -31.7301 H   0  0  0  0  0  0  0  0  0  0  0  0
   -4.6680   25.5260  -30.8280 N   0  0  0  0  0  0  0  0  0  0  0  0
   -3.4850   25.0530  -30.4640 N   0  0  0  0  0  0  0  0  0  0  0  0
   -3.4480   23.7350  -30.7370 C   0  0  0  0  0  0  0  0  0  0  0  0
   -2.5966   23.0672  -30.5390 H   0  0  0  0  0  0  0  0  0  0  0  0
   -6.2440   21.3860  -31.3100 C   0  0  0  0  0  0  0  0  0  0  0  0
   -6.9660   21.9890  -30.4690 O   0  0  0  0  0  0  0  0  0  0  0  0
   -6.6300   20.1540  -31.8000 N   0  0  0  0  0  0  0  0  0  0  0  0
   -8.0130   19.6490  -31.5330 C   0  0  0  0  0  0  0  0  0  0  0  0
   -7.7937   19.1275  -30.5896 H   0  0  0  0  0  0  0  0  0  0  0  0
   -8.6750   18.9300  -32.7240 C   0  0  0  0  0  0  0  0  0  0  0  0
   -8.0712   18.9426  -33.6434 H   0  0  0  0  0  0  0  0  0  0  0  0
   -8.8893   17.8528  -32.6639 H   0  0  0  0  0  0  0  0  0  0  0  0
   -9.8150   19.9280  -32.7250 C   0  0  0  0  0  0  0  0  0  0  0  0
   -9.9198   20.4893  -33.6652 H   0  0  0  0  0  0  0  0  0  0  0  0
  -10.8544   19.5863  -32.6113 H   0  0  0  0  0  0  0  0  0  0  0  0
   -9.1360   20.7040  -31.6130 C   0  0  0  0  0  0  0  0  0  0  0  0
   -8.7885   21.7032  -31.9144 H   0  0  0  0  0  0  0  0  0  0  0  0
   -9.7002   20.9758  -30.7087 H   0  0  0  0  0  0  0  0  0  0  0  0
   -5.6810   19.3600  -32.4220 C   0  0  0  0  0  0  0  0  0  0  0  0
   -5.8470   17.9630  -32.5610 C   0  0  0  0  0  0  0  0  0  0  0  0
   -6.7220   17.4685  -32.1139 H   0  0  0  0  0  0  0  0  0  0  0  0
  1  2  1  0
  2  3  2  0
  3  4  1  0
  4  5  1  0
  5  6  1  0
  6  7  1  0
  6  8  1  0
  6  9  1  0
  5 10  2  0
 10 11  1  0
 11 12  1  0
 11 13  2  0
 13 14  1  0
 14 15  1  0
 15 16  1  0
 15 17  2  0
 17 18  1  0
 18 19  1  0
 19 20  1  0
 13 21  1  0
 21 22  2  0
 21 23  1  0
 23 24  1  0
 24 25  1  0
 24 26  1  0
 26 27  1  0
 26 28  1  0
 26 29  1  0
 29 30  1  0
 29 31  1  0
 29 32  1  0
 32 33  1  0
 32 34  1  0
 23 35  1  0
 35 36  2  0
 36 37  1  0
 36  3  1  0
 35 10  1  0
 19 14  2  0
 32 24  1  0
M  CHG  2   4  -1  18  -1
M  END
>  <UniqueID>  (10) 
10

>  <SMILES>  (10) 
[H]/N=c1\cc2c(cc(-c3cn[n-]c3)c(=O)n2C2CCC2)c(C)[n-]1

>  <Energy>  (10) 
156.7813986036496

>  <Genealogy>  (10) 
Cc1[n-]c(=N)cc2c1cc(-c1cn[n-]c1)c(=O)n2C1CCC1 (protonated)
[H]/N=c1\cc2c(cc(-c3cn[n-]c3)c(=O)n2C2CCC2)c(C)[n-]1 (cis-trans isomerization)
[H]/N=c1\cc2c(cc(-c3cn[n-]c3)c(=O)n2C2CCC2)c(C)[n-]1 (3D coordinates assigned)
[H]/N=c1\cc2c(cc(-c3cn[n-]c3)c(=O)n2C2CCC2)c(C)[n-]1 (nonaromatic ring conformer: 156.7813986036496 kcal/mol)

>  <smiles>  (10) 
Cc1[nH]c(=N)cc2c1cc(-c1cn[nH]c1)c(=O)n2C1CCC1

>  <score_type>  (10) 
oracle

>  <origin>  (10) 
adgpu

>  <m_score__min__energy>  (10) 
-10.01

>  <m_primary>  (10) 
energy

$$$$
10:0
     RDKit          3D

 37 39  0  0  0  0  0  0  0  0999 V2000
   -2.9233   16.1857  -36.3532 H   0  0  0  0  0  0  0  0  0  0  0  0
   -3.4640   16.2990  -35.4020 C   0  0  0  0  0  0  0  0  0  0  0  0
   -4.1520   15.2140  -34.8580 C   0  0  0  0  0  0  0  0  0  0  0  0
   -4.1426   14.2429  -35.3746 H   0  0  0  0  0  0  0  0  0  0  0  0
   -4.8530   15.3590  -33.6580 C   0  0  0  0  0  0  0  0  0  0  0  0
   -5.3908   14.4989  -33.2325 H   0  0  0  0  0  0  0  0  0  0  0  0
   -4.8760   16.5950  -32.9910 C   0  0  0  0  0  0  0  0  0  0  0  0
   -5.6680   16.7230  -31.7180 C   0  0  0  0  0  0  0  0  0  0  0  0
   -4.9948   16.6142  -30.8549 H   0  0  0  0  0  0  0  0  0  0  0  0
   -6.1508   17.7108  -31.6843 H   0  0  0  0  0  0  0  0  0  0  0  0
   -6.4374   15.9375  -31.6843 H   0  0  0  0  0  0  0  0  0  0  0  0
   -4.1360   17.6800  -33.5220 C   0  0  0  0  0  0  0  0  0  0  0  0
   -4.0990   18.9590  -32.8720 N   0  0  0  0  0  0  0  0  0  0  0  0
   -5.1420   19.7010  -32.6440 C   0  0  0  0  0  0  0  0  0  0  0  0
   -6.3910   19.2730  -32.9710 N   0  0  0  0  0  0  0  0  0  0  0  0
   -7.4700   20.0550  -32.7180 C   0  0  0  0  0  0  0  0  0  0  0  0
   -8.7430   19.6000  -33.0670 O   0  0  0  0  0  0  0  0  0  0  0  0
   -9.4660   18.6590  -32.2800 C   0  0  0  0  0  0  0  0  0  0  0  0
   -9.3029   18.8712  -31.2131 H   0  0  0  0  0  0  0  0  0  0  0  0
  -10.5390   18.7366  -32.5095 H   0  0  0  0  0  0  0  0  0  0  0  0
   -9.1146   17.6422  -32.5095 H   0  0  0  0  0  0  0  0  0  0  0  0
   -7.2980   21.2680  -32.1300 N   0  0  0  0  0  0  0  0  0  0  0  0
   -6.0560   21.7030  -31.7930 C   0  0  0  0  0  0  0  0  0  0  0  0
   -5.8740   23.0280  -31.1490 C   0  0  0  0  0  0  0  0  0  0  0  0
   -6.9910   23.7930  -30.7580 C   0  0  0  0  0  0  0  0  0  0  0  0
   -8.0061   23.4062  -30.9313 H   0  0  0  0  0  0  0  0  0  0  0  0
   -6.8170   25.0410  -30.1510 C   0  0  0  0  0  0  0  0  0  0  0  0
   -7.6950   25.6308  -29.8490 H   0  0  0  0  0  0  0  0  0  0  0  0
   -5.5320   25.5410  -29.9270 C   0  0  0  0  0  0  0  0  0  0  0  0
   -5.3985   26.5230  -29.4497 H   0  0  0  0  0  0  0  0  0  0  0  0
   -4.4170   24.7920  -30.3100 C   0  0  0  0  0  0  0  0  0  0  0  0
   -3.1390   25.2910  -30.0880 O   0  0  0  0  0  0  0  0  0  0  0  0
   -4.5840   23.5430  -30.9180 C   0  0  0  0  0  0  0  0  0  0  0  0
   -3.7012   22.9592  -31.2177 H   0  0  0  0  0  0  0  0  0  0  0  0
   -4.9820   20.9110  -32.0520 N   0  0  0  0  0  0  0  0  0  0  0  0
   -3.4610   17.5290  -34.7400 C   0  0  0  0  0  0  0  0  0  0  0  0
   -2.9253   18.3842  -35.1778 H   0  0  0  0  0  0  0  0  0  0  0  0
  1  2  1  0
  2  3  2  0
  3  4  1  0
  3  5  1  0
  5  6  1  0
  5  7  2  0
  7  8  1  0
  8  9  1  0
  8 10  1  0
  8 11  1  0
  7 12  1  0
 12 13  1  0
 13 14  2  0
 14 15  1  0
 15 16  2  0
 16 17  1  0
 17 18  1  0
 18 19  1  0
 18 20  1  0
 18 21  1  0
 16 22  1  0
 22 23  1  0
 23 24  1  0
 24 25  2  0
 25 26  1  0
 25 27  1  0
 27 28  1  0
 27 29  2  0
 29 30  1  0
 29 31  1  0
 31 32  1  0
 31 33  2  0
 33 34  1  0
 23 35  2  0
 12 36  2  0
 36 37  1  0
 36  2  1  0
 35 14  1  0
 33 24  1  0
M  CHG  2  22  -1  32  -1
M  END
>  <UniqueID>  (11) 
11

>  <SMILES>  (11) 
COc1n/c(=N\c2ccccc2C)nc(-c2cccc([O-])c2)[n-]1

>  <Energy>  (11) 
48.036716595514214

>  <Genealogy>  (11) 
COc1nc(=Nc2ccccc2C)nc(-c2cccc([O-])c2)[n-]1 (protonated)
COc1n/c(=N\c2ccccc2C)nc(-c2cccc([O-])c2)[n-]1 (cis-trans isomerization)
COc1n/c(=N\c2ccccc2C)nc(-c2cccc([O-])c2)[n-]1 (3D coordinates assigned)
COc1n/c(=N\c2ccccc2C)nc(-c2cccc([O-])c2)[n-]1 (optimized conformer: 48.036716595514214 kcal/mol)

>  <smiles>  (11) 
COc1nc(=Nc2ccccc2C)nc(-c2cccc(O)c2)[nH]1

>  <score_type>  (11) 
oracle

>  <origin>  (11) 
adgpu

>  <m_score__min__energy>  (11) 
-10.23

>  <m_primary>  (11) 
energy

$$$$
11:0
     RDKit          3D

 52 54  0  0  0  0  0  0  0  0999 V2000
   -0.8320   26.7180  -27.8450 C   0  0  0  0  0  0  0  0  0  0  0  0
   -1.4630   26.0590  -28.9400 O   0  0  0  0  0  0  0  0  0  0  0  0
   -1.8200   24.7010  -28.9530 C   0  0  0  0  0  0  0  0  0  0  0  0
   -1.1090   23.7330  -28.2140 C   0  0  0  0  0  0  0  0  0  0  0  0
   -1.5000   22.3930  -28.2460 C   0  0  0  0  0  0  0  0  0  0  0  0
   -2.5880   22.0000  -29.0260 C   0  0  0  0  0  0  0  0  0  0  0  0
   -3.2980   22.9480  -29.7640 C   0  0  0  0  0  0  0  0  0  0  0  0
   -2.9310   24.3060  -29.7180 C   0  0  0  0  0  0  0  0  0  0  0  0
   -3.6460   25.2970  -30.4710 N   0  0  0  0  0  0  0  0  0  0  0  0
   -5.0640   25.3340  -30.6860 C   0  0  0  0  0  0  0  0  0  0  0  0
   -5.6610   26.4400  -30.5840 O   0  0  0  0  0  0  0  0  0  0  0  0
   -5.8470   24.1100  -30.9770 C   0  0  0  0  0  0  0  0  0  0  0  0
   -5.9080   23.6070  -32.2880 C   0  0  0  0  0  0  0  0  0  0  0  0
   -6.6300   22.4430  -32.5650 C   0  0  0  0  0  0  0  0  0  0  0  0
   -7.3080   21.7710  -31.5410 C   0  0  0  0  0  0  0  0  0  0  0  0
   -8.1800   20.2830  -31.9000 S   0  0  0  0  0  0  0  0  0  0  0  0
   -8.6190   20.3200  -33.3380 O   0  0  0  0  0  0  0  0  0  0  0  0
   -9.4010   20.1910  -31.0260 O   0  0  0  0  0  0  0  0  0  0  0  0
   -7.1210   18.9120  -31.6230 N   0  0  1  0  0  0  0  0  0  0  0  0
   -7.4420   17.7850  -32.5250 C   0  0  0  0  0  0  0  0  0  0  0  0
   -6.5670   17.7400  -33.8080 C   0  0  2  0  0  0  0  0  0  0  0  0
   -5.4930   16.6420  -33.7650 C   0  0  0  0  0  0  0  0  0  0  0  0
   -6.0240   19.0000  -34.1790 O   0  0  0  0  0  0  0  0  0  0  0  0
   -5.3020   19.6700  -33.1520 C   0  0  2  0  0  0  0  0  0  0  0  0
   -3.7940   19.5470  -33.3820 C   0  0  0  0  0  0  0  0  0  0  0  0
   -5.7020   19.2860  -31.7090 C   0  0  0  0  0  0  0  0  0  0  0  0
   -7.2690   22.2800  -30.2370 C   0  0  0  0  0  0  0  0  0  0  0  0
   -6.5490   23.4450  -29.9570 C   0  0  0  0  0  0  0  0  0  0  0  0
   -1.2207   26.3120  -26.8994 H   0  0  0  0  0  0  0  0  0  0  0  0
    0.2546   26.5541  -27.8952 H   0  0  0  0  0  0  0  0  0  0  0  0
   -1.0429   27.7964  -27.8952 H   0  0  0  0  0  0  0  0  0  0  0  0
   -0.2415   24.0353  -27.6090 H   0  0  0  0  0  0  0  0  0  0  0  0
   -0.9494   21.6460  -27.6553 H   0  0  0  0  0  0  0  0  0  0  0  0
   -2.8865   20.9418  -29.0593 H   0  0  0  0  0  0  0  0  0  0  0  0
   -4.1492   22.6322  -30.3851 H   0  0  0  0  0  0  0  0  0  0  0  0
   -5.3846   24.1324  -33.1004 H   0  0  0  0  0  0  0  0  0  0  0  0
   -6.6658   22.0528  -33.5928 H   0  0  0  0  0  0  0  0  0  0  0  0
   -7.3020   18.6000  -30.6400 H   0  0  0  0  0  0  0  0  0  0  0  0
   -8.4962   17.8719  -32.8270 H   0  0  0  0  0  0  0  0  0  0  0  0
   -7.2391   16.8595  -31.9662 H   0  0  0  0  0  0  0  0  0  0  0  0
   -7.2682   17.4680  -34.6107 H   0  0  0  0  0  0  0  0  0  0  0  0
   -5.2570   16.4007  -32.7181 H   0  0  0  0  0  0  0  0  0  0  0  0
   -5.8686   15.7416  -34.2731 H   0  0  0  0  0  0  0  0  0  0  0  0
   -4.5845   16.9976  -34.2731 H   0  0  0  0  0  0  0  0  0  0  0  0
   -5.5921   20.7279  -33.2333 H   0  0  0  0  0  0  0  0  0  0  0  0
   -3.2774   19.5049  -32.4118 H   0  0  0  0  0  0  0  0  0  0  0  0
   -3.5834   18.6287  -33.9498 H   0  0  0  0  0  0  0  0  0  0  0  0
   -3.4374   20.4190  -33.9498 H   0  0  0  0  0  0  0  0  0  0  0  0
   -5.5183   20.1450  -31.0469 H   0  0  0  0  0  0  0  0  0  0  0  0
   -5.0982   18.4188  -31.4034 H   0  0  0  0  0  0  0  0  0  0  0  0
   -7.8070   21.7611  -29.4300 H   0  0  0  0  0  0  0  0  0  0  0  0
   -6.5317   23.8438  -28.9320 H   0  0  0  0  0  0  0  0  0  0  0  0
  1  2  1  0
  2  3  1  0
  3  4  2  0
  4  5  1  0
  5  6  2  0
  6  7  1  0
  7  8  2  0
  8  9  1  0
  9 10  1  0
 10 11  2  0
 10 12  1  0
 12 13  2  0
 13 14  1  0
 14 15  2  0
 15 16  1  0
 16 17  2  0
 16 18  2  0
 16 19  1  0
 19 20  1  0
 20 21  1  0
 21 22  1  0
 21 23  1  0
 23 24  1  0
 24 25  1  0
 24 26  1  0
 15 27  1  0
 27 28  2  0
  8  3  1  0
 28 12  1  0
 26 19  1  0
  1 29  1  0
  1 30  1  0
  1 31  1  0
  4 32  1  0
  5 33  1  0
  6 34  1  0
  7 35  1  0
 13 36  1  0
 14 37  1  0
 19 38  1  1
 20 39  1  0
 20 40  1  0
 21 41  1  6
 22 42  1  0
 22 43  1  0
 22 44  1  0
 24 45  1  1
 25 46  1  0
 25 47  1  0
 25 48  1  0
 26 49  1  0
 26 50  1  0
 27 51  1  0
 28 52  1  0
M  CHG  2   9  -1  19   1
M  END
>  <UniqueID>  (12) 
12

>  <SMILES>  (12) 
COc1ccccc1[N-]C(=O)c1ccc(S(=O)(=O)[NH+]2C[C@@H](C)O[C@@H](C)C2)cc1

>  <Energy>  (12) 
72.19673683312023

>  <Genealogy>  (12) 
COc1ccccc1[N-]C(=O)c1ccc(S(=O)(=O)[NH+]2CC(C)OC(C)C2)cc1 (protonated)
COc1ccccc1[N-]C(=O)c1ccc(S(=O)(=O)[NH+]2C[C@@H](C)O[C@@H](C)C2)cc1 (chirality)
COc1ccccc1[N-]C(=O)c1ccc(S(=O)(=O)[NH+]2C[C@@H](C)O[C@@H](C)C2)cc1 (3D coordinates assigned)
COc1ccccc1[N-]C(=O)c1ccc(S(=O)(=O)[NH+]2C[C@@H](C)O[C@@H](C)C2)cc1 (nonaromatic ring conformer: 72.19673683312023 kcal/mol)

>  <smiles>  (12) 
COc1ccccc1NC(=O)c1ccc(S(=O)(=O)N2CC(C)OC(C)C2)cc1

>  <score_type>  (12) 
oracle

>  <origin>  (12) 
adgpu

>  <m_score__min__energy>  (12) 
-12.48

>  <m_primary>  (12) 
energy

$$$$
12:0
     RDKit          3D

 67 70  0  0  1  0  0  0  0  0999 V2000
    1.6830   28.0040  -22.8300 C   0  0  0  0  0  0  0  0  0  0  0  0
    2.1420   27.3010  -23.9640 O   0  0  0  0  0  0  0  0  0  0  0  0
    1.2170   26.8770  -24.9070 C   0  0  0  0  0  0  0  0  0  0  0  0
   -0.1060   26.8020  -24.5480 C   0  0  0  0  0  0  0  0  0  0  0  0
   -1.0420   26.3850  -25.4640 C   0  0  0  0  0  0  0  0  0  0  0  0
   -0.7390   26.0210  -26.7670 C   0  0  0  0  0  0  0  0  0  0  0  0
   -1.5730   25.7180  -27.7910 N   0  0  0  0  0  0  0  0  0  0  0  0
   -1.9930   24.6700  -28.2650 C   0  0  0  0  0  0  0  0  0  0  0  0
   -2.8480   24.7650  -29.3390 N   0  0  0  0  0  0  0  0  0  0  0  0
   -3.3660   23.6920  -29.9350 C   0  0  0  0  0  0  0  0  0  0  0  0
   -4.1640   23.8250  -30.9400 N   0  0  0  0  0  0  0  0  0  0  0  0
   -4.6860   22.6430  -31.5350 C   0  0  0  0  0  0  0  0  0  0  0  0
   -6.0390   22.3780  -31.6250 C   0  0  0  0  0  0  0  0  0  0  0  0
   -6.4610   21.1860  -32.2280 C   0  0  0  0  0  0  0  0  0  0  0  0
   -5.5630   20.2770  -32.7310 C   0  0  0  0  0  0  0  0  0  0  0  0
   -6.0490   19.0950  -33.3280 N   0  0  0  0  0  0  0  0  0  0  0  0
   -6.9680   18.2510  -32.5490 C   0  0  0  0  0  0  0  0  0  0  0  0
   -6.9640   16.9040  -33.2510 C   0  0  0  0  0  0  0  0  0  0  0  0
   -5.6470   16.4780  -33.6240 N   0  0  0  0  0  0  0  0  0  0  0  0
   -5.7140   15.1610  -34.1780 C   0  0  0  0  0  0  0  0  0  0  0  0
   -5.0110   14.1580  -33.2660 C   0  0  0  0  0  0  0  0  0  0  0  0
   -7.1770   14.7660  -34.2520 C   0  0  0  0  0  0  0  0  0  0  0  0
   -4.9450   17.3520  -34.5120 C   0  0  0  0  0  0  0  0  0  0  0  0
   -5.7190   18.6390  -34.6450 C   0  0  0  0  0  0  0  0  0  0  0  0
   -4.2350   20.5540  -32.6340 C   0  0  0  0  0  0  0  0  0  0  0  0
   -3.7720   21.7150  -32.0480 C   0  0  0  0  0  0  0  0  0  0  0  0
   -2.4190   21.9810  -31.9570 O   0  0  0  0  0  0  0  0  0  0  0  0
   -1.3880   21.1710  -32.4370 C   0  0  0  0  0  0  0  0  0  0  0  0
   -3.0330   22.4890  -29.4610 N   0  0  0  0  0  0  0  0  0  0  0  0
   -2.2080   22.3530  -28.4230 C   0  0  0  0  0  0  0  0  0  0  0  0
   -1.6290   23.4610  -27.7510 C   0  0  0  0  0  0  0  0  0  0  0  0
   -0.7710   23.1450  -26.6430 C   0  0  0  0  0  0  0  0  0  0  0  0
    0.6010   23.2710  -27.0080 F   0  0  0  0  0  0  0  0  0  0  0  0
   -0.9260   23.5600  -25.3940 F   0  0  0  0  0  0  0  0  0  0  0  0
   -0.7380   21.7670  -26.5570 F   0  0  0  0  0  0  0  0  0  0  0  0
    0.6560   26.1190  -27.0820 C   0  0  0  0  0  0  0  0  0  0  0  0
    1.5340   26.5300  -26.1620 N   0  0  0  0  0  0  0  0  0  0  0  0
    2.0194   27.4888  -21.9182 H   0  0  0  0  0  0  0  0  0  0  0  0
    2.0879   29.0267  -22.8439 H   0  0  0  0  0  0  0  0  0  0  0  0
    0.5838   28.0446  -22.8439 H   0  0  0  0  0  0  0  0  0  0  0  0
   -0.4165   27.0753  -23.5287 H   0  0  0  0  0  0  0  0  0  0  0  0
   -2.0935   26.3373  -25.1445 H   0  0  0  0  0  0  0  0  0  0  0  0
   -3.1250   25.6980  -29.7290 H   0  0  0  0  0  0  0  0  0  0  0  0
   -6.7748   23.0932  -31.2286 H   0  0  0  0  0  0  0  0  0  0  0  0
   -7.5378   20.9730  -32.3003 H   0  0  0  0  0  0  0  0  0  0  0  0
   -6.6121   18.1472  -31.5133 H   0  0  0  0  0  0  0  0  0  0  0  0
   -7.9779   18.6836  -32.4956 H   0  0  0  0  0  0  0  0  0  0  0  0
   -7.3981   16.1533  -32.5743 H   0  0  0  0  0  0  0  0  0  0  0  0
   -7.5530   17.0089  -34.1741 H   0  0  0  0  0  0  0  0  0  0  0  0
   -5.2312   15.1572  -35.1664 H   0  0  0  0  0  0  0  0  0  0  0  0
   -5.1977   14.4244  -32.2152 H   0  0  0  0  0  0  0  0  0  0  0  0
   -5.3999   13.1481  -33.4629 H   0  0  0  0  0  0  0  0  0  0  0  0
   -3.9290   14.1791  -33.4629 H   0  0  0  0  0  0  0  0  0  0  0  0
   -7.5794   14.6574  -33.2340 H   0  0  0  0  0  0  0  0  0  0  0  0
   -7.7403   15.5442  -34.7878 H   0  0  0  0  0  0  0  0  0  0  0  0
   -7.2720   13.8100  -34.7878 H   0  0  0  0  0  0  0  0  0  0  0  0
   -3.9442   17.5633  -34.1073 H   0  0  0  0  0  0  0  0  0  0  0  0
   -4.8416   16.8761  -35.4983 H   0  0  0  0  0  0  0  0  0  0  0  0
   -5.1041   19.3931  -35.1580 H   0  0  0  0  0  0  0  0  0  0  0  0
   -6.6340   18.4756  -35.2333 H   0  0  0  0  0  0  0  0  0  0  0  0
   -3.5084   19.8316  -33.0343 H   0  0  0  0  0  0  0  0  0  0  0  0
   -0.8369   20.7380  -31.5892 H   0  0  0  0  0  0  0  0  0  0  0  0
   -1.8123   20.3622  -33.0500 H   0  0  0  0  0  0  0  0  0  0  0  0
   -0.7026   21.7747  -33.0500 H   0  0  0  0  0  0  0  0  0  0  0  0
   -3.4320   21.6250  -29.9180 H   0  0  0  0  0  0  0  0  0  0  0  0
   -1.9656   21.3390  -28.0723 H   0  0  0  0  0  0  0  0  0  0  0  0
    1.0070   25.8535  -28.0901 H   0  0  0  0  0  0  0  0  0  0  0  0
  1  2  1  0
  2  3  1  0
  3  4  2  0
  4  5  1  0
  5  6  2  0
  6  7  1  0
  7  8  2  0
  8  9  1  0
  9 10  1  0
 10 11  2  0
 11 12  1  0
 12 13  2  0
 13 14  1  0
 14 15  2  0
 15 16  1  0
 16 17  1  0
 17 18  1  0
 18 19  1  0
 19 20  1  0
 20 21  1  0
 20 22  1  0
 19 23  1  0
 23 24  1  0
 15 25  1  0
 25 26  2  0
 26 27  1  0
 27 28  1  0
 10 29  1  0
 29 30  1  0
 30 31  2  0
 31 32  1  0
 32 33  1  0
 32 34  1  0
 32 35  1  0
  6 36  1  0
 36 37  2  0
 37  3  1  0
 31  8  1  0
 26 12  1  0
 24 16  1  0
  1 38  1  0
  1 39  1  0
  1 40  1  0
  4 41  1  0
  5 42  1  0
  9 43  1  0
 13 44  1  0
 14 45  1  0
 17 46  1  0
 17 47  1  0
 18 48  1  0
 18 49  1  0
 20 50  1  0
 21 51  1  0
 21 52  1  0
 21 53  1  0
 22 54  1  0
 22 55  1  0
 22 56  1  0
 23 57  1  0
 23 58  1  0
 24 59  1  0
 24 60  1  0
 25 61  1  0
 28 62  1  0
 28 63  1  0
 28 64  1  0
 29 65  1  0
 30 66  1  0
 36 67  1  0
M  END
>  <smiles>  (13) 
COc1ccc(N=c2[nH]c(=Nc3ccc(N4CCN(C(C)C)CC4)cc3OC)[nH]cc2C(F)(F)F)cn1

>  <score_type>  (13) 
oracle

>  <origin>  (13) 
adgpu

>  <m_score__min__energy>  (13) 
-8.5199999999999996

>  <m_primary>  (13) 
energy

$$$$
13:0
     RDKit          3D

 60 64  0  0  0  0  0  0  0  0999 V2000
   -2.4740   22.1020  -31.2320 C   0  0  0  0  0  0  0  0  0  0  0  0
   -2.6160   23.4310  -30.7380 O   0  0  0  0  0  0  0  0  0  0  0  0
   -2.4170   23.8130  -29.4020 C   0  0  0  0  0  0  0  0  0  0  0  0
   -1.1350   23.8510  -28.8150 C   0  0  0  0  0  0  0  0  0  0  0  0
   -0.9750   24.2770  -27.4920 C   0  0  0  0  0  0  0  0  0  0  0  0
   -2.0900   24.6620  -26.7380 C   0  0  0  0  0  0  0  0  0  0  0  0
   -3.3670   24.6100  -27.3040 C   0  0  0  0  0  0  0  0  0  0  0  0
   -3.5370   24.1840  -28.6300 C   0  0  0  0  0  0  0  0  0  0  0  0
   -4.8560   24.1140  -29.1880 N   0  0  0  0  0  0  0  0  0  0  0  0
   -5.4130   22.7810  -29.4440 C   0  0  0  0  0  0  0  0  0  0  0  0
   -6.9270   22.8500  -29.6780 C   0  0  0  0  0  0  0  0  0  0  0  0
   -7.3040   23.8960  -30.6580 N   0  0  0  0  0  0  0  0  0  0  0  0
   -6.8410   23.6230  -32.0460 C   0  0  0  0  0  0  0  0  0  0  0  0
   -6.7620   22.1490  -32.3580 C   0  0  0  0  0  0  0  0  0  0  0  0
   -5.5790   21.4850  -32.6880 C   0  0  0  0  0  0  0  0  0  0  0  0
   -5.9380   20.1660  -32.8450 C   0  0  0  0  0  0  0  0  0  0  0  0
   -5.1820   19.0410  -33.1480 C   0  0  0  0  0  0  0  0  0  0  0  0
   -5.8480   17.7960  -33.2070 C   0  0  0  0  0  0  0  0  0  0  0  0
   -5.0950   16.5540  -33.5060 C   0  0  0  0  0  0  0  0  0  0  0  0
   -5.0410   15.5090  -32.5640 C   0  0  0  0  0  0  0  0  0  0  0  0
   -4.3170   14.3440  -32.8400 C   0  0  0  0  0  0  0  0  0  0  0  0
   -3.6430   14.2080  -34.0570 C   0  0  0  0  0  0  0  0  0  0  0  0
   -2.9430   13.0790  -34.3240 F   0  0  0  0  0  0  0  0  0  0  0  0
   -3.6940   15.2380  -34.9990 C   0  0  0  0  0  0  0  0  0  0  0  0
   -4.4110   16.4070  -34.7280 C   0  0  0  0  0  0  0  0  0  0  0  0
   -7.2500   17.7530  -32.9600 C   0  0  0  0  0  0  0  0  0  0  0  0
   -7.9420   18.8940  -32.6650 N   0  0  0  0  0  0  0  0  0  0  0  0
   -7.2790   20.0760  -32.6120 C   0  0  0  0  0  0  0  0  0  0  0  0
   -7.8090   21.2790  -32.3250 N   0  0  0  0  0  0  0  0  0  0  0  0
   -9.1950   21.5510  -31.9460 C   0  0  0  0  0  0  0  0  0  0  0  0
   -6.8440   25.2190  -30.1810 C   0  0  0  0  0  0  0  0  0  0  0  0
   -5.3220   25.2700  -29.9590 C   0  0  0  0  0  0  0  0  0  0  0  0
   -2.3993   21.4025  -30.3863 H   0  0  0  0  0  0  0  0  0  0  0  0
   -3.3496   21.8433  -31.8455 H   0  0  0  0  0  0  0  0  0  0  0  0
   -1.5635   22.0342  -31.8455 H   0  0  0  0  0  0  0  0  0  0  0  0
   -0.2560   23.5439  -29.4007 H   0  0  0  0  0  0  0  0  0  0  0  0
    0.0288   24.3095  -27.0434 H   0  0  0  0  0  0  0  0  0  0  0  0
   -1.9612   25.0052  -25.7009 H   0  0  0  0  0  0  0  0  0  0  0  0
   -4.2428   24.9044  -26.7071 H   0  0  0  0  0  0  0  0  0  0  0  0
   -4.9307   22.3556  -30.3364 H   0  0  0  0  0  0  0  0  0  0  0  0
   -5.2243   22.1489  -28.5637 H   0  0  0  0  0  0  0  0  0  0  0  0
   -7.2705   21.8748  -30.0536 H   0  0  0  0  0  0  0  0  0  0  0  0
   -7.4016   23.1047  -28.7189 H   0  0  0  0  0  0  0  0  0  0  0  0
   -8.3510   23.9370  -30.6780 H   0  0  0  0  0  0  0  0  0  0  0  0
   -7.5434   24.0938  -32.7495 H   0  0  0  0  0  0  0  0  0  0  0  0
   -5.8263   24.0364  -32.1434 H   0  0  0  0  0  0  0  0  0  0  0  0
   -4.5757   21.9223  -32.7987 H   0  0  0  0  0  0  0  0  0  0  0  0
   -4.1008   19.1166  -33.3358 H   0  0  0  0  0  0  0  0  0  0  0  0
   -5.5711   15.6091  -31.6054 H   0  0  0  0  0  0  0  0  0  0  0  0
   -4.2781   13.5333  -32.0976 H   0  0  0  0  0  0  0  0  0  0  0  0
   -3.1675   15.1288  -35.9586 H   0  0  0  0  0  0  0  0  0  0  0  0
   -4.4410   17.2159  -35.4729 H   0  0  0  0  0  0  0  0  0  0  0  0
   -7.7815   16.7911  -33.0072 H   0  0  0  0  0  0  0  0  0  0  0  0
   -9.2788   21.5674  -30.8493 H   0  0  0  0  0  0  0  0  0  0  0  0
   -9.5014   22.5264  -32.3518 H   0  0  0  0  0  0  0  0  0  0  0  0
   -9.8473   20.7637  -32.3518 H   0  0  0  0  0  0  0  0  0  0  0  0
   -7.1168   25.9779  -30.9291 H   0  0  0  0  0  0  0  0  0  0  0  0
   -7.3292   25.4120  -29.2128 H   0  0  0  0  0  0  0  0  0  0  0  0
   -4.8175   25.2754  -30.9365 H   0  0  0  0  0  0  0  0  0  0  0  0
   -5.0847   26.1827  -29.3928 H   0  0  0  0  0  0  0  0  0  0  0  0
  1  2  1  0
  2  3  1  0
  3  4  2  0
  4  5  1  0
  5  6  2  0
  6  7  1  0
  7  8  2  0
  8  9  1  0
  9 10  1  0
 10 11  1  0
 11 12  1  0
 12 13  1  0
 13 14  1  0
 14 15  2  0
 15 16  1  0
 16 17  2  0
 17 18  1  0
 18 19  1  0
 19 20  2  0
 20 21  1  0
 21 22  2  0
 22 23  1  0
 22 24  1  0
 24 25  2  0
 18 26  2  0
 26 27  1  0
 27 28  2  0
 28 29  1  0
 29 30  1  0
 12 31  1  0
 31 32  1  0
  8  3  1  0
 32  9  1  0
 29 14  1  0
 28 16  1  0
 25 19  1  0
  1 33  1  0
  1 34  1  0
  1 35  1  0
  4 36  1  0
  5 37  1  0
  6 38  1  0
  7 39  1  0
 10 40  1  0
 10 41  1  0
 11 42  1  0
 11 43  1  0
 12 44  1  0
 13 45  1  0
 13 46  1  0
 15 47  1  0
 17 48  1  0
 20 49  1  0
 21 50  1  0
 24 51  1  0
 25 52  1  0
 26 53  1  0
 30 54  1  0
 30 55  1  0
 30 56  1  0
 31 57  1  0
 31 58  1  0
 32 59  1  0
 32 60  1  0
M  CHG  1  12   1
M  END
>  <UniqueID>  (14) 
13

>  <SMILES>  (14) 
COc1ccccc1N1CC[NH+](Cc2cc3cc(-c4ccc(F)cc4)cnc3n2C)CC1

>  <Energy>  (14) 
113.91710795236314

>  <Genealogy>  (14) 
COc1ccccc1N1CC[NH+](Cc2cc3cc(-c4ccc(F)cc4)cnc3n2C)CC1 (protonated)
COc1ccccc1N1CC[NH+](Cc2cc3cc(-c4ccc(F)cc4)cnc3n2C)CC1 (3D coordinates assigned)
COc1ccccc1N1CC[NH+](Cc2cc3cc(-c4ccc(F)cc4)cnc3n2C)CC1 (nonaromatic ring conformer: 113.91710795236314 kcal/mol)

>  <smiles>  (14) 
COc1ccccc1N1CCN(Cc2cc3cc(-c4ccc(F)cc4)cnc3n2C)CC1

>  <score_type>  (14) 
oracle

>  <origin>  (14) 
adgpu

>  <m_score__min__energy>  (14) 
-8.4199999999999999

>  <m_primary>  (14) 
energy

$$$$
14:0
     RDKit          3D

 58 61  0  0  0  0  0  0  0  0999 V2000
    2.1460   20.7590  -36.7870 O   0  0  0  0  0  0  0  0  0  0  0  0
    1.7540   21.3770  -35.7620 C   0  0  0  0  0  0  0  0  0  0  0  0
    1.2830   20.6150  -34.6410 N   0  0  0  0  0  0  0  0  0  0  0  0
   -0.0890   20.4060  -34.2750 C   0  0  0  0  0  0  0  0  0  0  0  0
   -0.8050   21.4610  -33.7020 C   0  0  0  0  0  0  0  0  0  0  0  0
   -2.1400   21.2900  -33.3270 C   0  0  0  0  0  0  0  0  0  0  0  0
   -2.7880   20.0610  -33.5390 C   0  0  0  0  0  0  0  0  0  0  0  0
   -4.2010   19.8700  -33.1250 C   0  0  0  0  0  0  0  0  0  0  0  0
   -4.6140   20.1910  -31.8190 C   0  0  0  0  0  0  0  0  0  0  0  0
   -5.9510   20.0380  -31.4410 C   0  0  0  0  0  0  0  0  0  0  0  0
   -6.8960   19.5660  -32.3610 C   0  0  0  0  0  0  0  0  0  0  0  0
   -8.5960   19.4580  -31.9140 S   0  0  0  0  0  0  0  0  0  0  0  0
   -9.4370   19.5240  -33.1570 O   0  0  0  0  0  0  0  0  0  0  0  0
   -8.8650   18.1480  -31.2270 O   0  0  0  0  0  0  0  0  0  0  0  0
   -9.0160   20.7830  -30.8680 N   0  0  0  0  0  0  0  0  0  0  0  0
   -9.5510   21.8930  -31.6590 C   0  0  0  0  0  0  0  0  0  0  0  0
   -8.4620   22.9510  -31.9550 C   0  0  0  0  0  0  0  0  0  0  0  0
   -7.1560   22.7330  -31.2890 N   0  0  0  0  0  0  0  0  0  0  0  0
   -6.0160   23.3760  -31.9550 C   0  0  0  0  0  0  0  0  0  0  0  0
   -5.5850   24.5650  -31.1080 C   0  0  0  0  0  0  0  0  0  0  0  0
   -6.2740   24.3940  -29.7650 C   0  0  0  0  0  0  0  0  0  0  0  0
   -7.1150   23.1300  -29.8780 C   0  0  0  0  0  0  0  0  0  0  0  0
   -6.4890   19.2300  -33.6570 C   0  0  0  0  0  0  0  0  0  0  0  0
   -5.1530   19.3810  -34.0380 C   0  0  0  0  0  0  0  0  0  0  0  0
   -2.0740   19.0110  -34.1440 C   0  0  0  0  0  0  0  0  0  0  0  0
   -0.7390   19.1850  -34.5170 C   0  0  0  0  0  0  0  0  0  0  0  0
    1.7430   22.8590  -35.7670 C   0  0  0  0  0  0  0  0  0  0  0  0
    0.5610   23.5540  -36.0730 C   0  0  0  0  0  0  0  0  0  0  0  0
    0.5440   24.9520  -36.0840 C   0  0  0  0  0  0  0  0  0  0  0  0
    1.7040   25.6690  -35.7820 C   0  0  0  0  0  0  0  0  0  0  0  0
    2.8830   24.9900  -35.4600 C   0  0  0  0  0  0  0  0  0  0  0  0
    4.3380   25.8910  -35.0750 Cl  0  0  0  0  0  0  0  0  0  0  0  0
    2.9010   23.5900  -35.4440 C   0  0  0  0  0  0  0  0  0  0  0  0
   -0.3139   22.4327  -33.5452 H   0  0  0  0  0  0  0  0  0  0  0  0
   -2.6878   22.1232  -32.8625 H   0  0  0  0  0  0  0  0  0  0  0  0
   -3.8797   20.5650  -31.0903 H   0  0  0  0  0  0  0  0  0  0  0  0
   -6.2625   20.2894  -30.4164 H   0  0  0  0  0  0  0  0  0  0  0  0
   -8.1300   21.1030  -30.4140 H   0  0  0  0  0  0  0  0  0  0  0  0
   -9.9370   21.5005  -32.6113 H   0  0  0  0  0  0  0  0  0  0  0  0
  -10.3538   22.3745  -31.0814 H   0  0  0  0  0  0  0  0  0  0  0  0
   -8.2894   22.9635  -33.0413 H   0  0  0  0  0  0  0  0  0  0  0  0
   -8.8485   23.8994  -31.5536 H   0  0  0  0  0  0  0  0  0  0  0  0
   -5.1848   22.6612  -32.0452 H   0  0  0  0  0  0  0  0  0  0  0  0
   -6.3014   23.7092  -32.9637 H   0  0  0  0  0  0  0  0  0  0  0  0
   -4.4925   24.5668  -30.9796 H   0  0  0  0  0  0  0  0  0  0  0  0
   -5.8591   25.5185  -31.5830 H   0  0  0  0  0  0  0  0  0  0  0  0
   -5.5275   24.2852  -28.9644 H   0  0  0  0  0  0  0  0  0  0  0  0
   -6.8946   25.2681  -29.5183 H   0  0  0  0  0  0  0  0  0  0  0  0
   -6.6627   22.3267  -29.2779 H   0  0  0  0  0  0  0  0  0  0  0  0
   -8.1331   23.3158  -29.5053 H   0  0  0  0  0  0  0  0  0  0  0  0
   -7.2241   18.8452  -34.3792 H   0  0  0  0  0  0  0  0  0  0  0  0
   -4.8434   19.1155  -35.0596 H   0  0  0  0  0  0  0  0  0  0  0  0
   -2.5702   18.0461  -34.3247 H   0  0  0  0  0  0  0  0  0  0  0  0
   -0.1945   18.3617  -35.0025 H   0  0  0  0  0  0  0  0  0  0  0  0
   -0.3572   22.9946  -36.3055 H   0  0  0  0  0  0  0  0  0  0  0  0
   -0.3843   25.4880  -36.3309 H   0  0  0  0  0  0  0  0  0  0  0  0
    1.6899   26.7688  -35.7975 H   0  0  0  0  0  0  0  0  0  0  0  0
    3.8263   23.0583  -35.1772 H   0  0  0  0  0  0  0  0  0  0  0  0
  1  2  2  0
  2  3  1  0
  3  4  1  0
  4  5  2  0
  5  6  1  0
  6  7  2  0
  7  8  1  0
  8  9  2  0
  9 10  1  0
 10 11  2  0
 11 12  1  0
 12 13  2  0
 12 14  2  0
 12 15  1  0
 15 16  1  0
 16 17  1  0
 17 18  1  0
 18 19  1  0
 19 20  1  0
 20 21  1  0
 21 22  1  0
 11 23  1  0
 23 24  2  0
  7 25  1  0
 25 26  2  0
  2 27  1  0
 27 28  2  0
 28 29  1  0
 29 30  2  0
 30 31  1  0
 31 32  1  0
 31 33  2  0
 26  4  1  0
 33 27  1  0
 24  8  1  0
 22 18  1  0
  5 34  1  0
  6 35  1  0
  9 36  1  0
 10 37  1  0
 15 38  1  0
 16 39  1  0
 16 40  1  0
 17 41  1  0
 17 42  1  0
 19 43  1  0
 19 44  1  0
 20 45  1  0
 20 46  1  0
 21 47  1  0
 21 48  1  0
 22 49  1  0
 22 50  1  0
 23 51  1  0
 24 52  1  0
 25 53  1  0
 26 54  1  0
 28 55  1  0
 29 56  1  0
 30 57  1  0
 33 58  1  0
M  CHG  1   3  -1
M  END
>  <UniqueID>  (15) 
14

>  <SMILES>  (15) 
O=C([N-]c1ccc(-c2ccc(S(=O)(=O)NCCN3CCCC3)cc2)cc1)c1cccc(Cl)c1

>  <Energy>  (15) 
73.81300511110379

>  <Genealogy>  (15) 
O=C([N-]c1ccc(-c2ccc(S(=O)(=O)NCCN3CCCC3)cc2)cc1)c1cccc(Cl)c1 (protonated)
O=C([N-]c1ccc(-c2ccc(S(=O)(=O)NCCN3CCCC3)cc2)cc1)c1cccc(Cl)c1 (3D coordinates assigned)
O=C([N-]c1ccc(-c2ccc(S(=O)(=O)NCCN3CCCC3)cc2)cc1)c1cccc(Cl)c1 (nonaromatic ring conformer: 73.81300511110379 kcal/mol)

>  <smiles>  (15) 
O=C(Nc1ccc(-c2ccc(S(=O)(=O)NCCN3CCCC3)cc2)cc1)c1cccc(Cl)c1

>  <score_type>  (15) 
oracle

>  <origin>  (15) 
adgpu

>  <m_score__min__energy>  (15) 
-11.34

>  <m_primary>  (15) 
energy

$$$$
15:0
     RDKit          3D

 41 43  0  0  0  0  0  0  0  0999 V2000
   -8.7630   18.7660  -31.5980 C   0  0  0  0  0  0  0  0  0  0  0  0
   -8.2090   19.7690  -32.6060 C   0  0  0  0  0  0  0  0  0  0  0  0
   -6.7300   19.8030  -32.5540 N   0  0  0  0  0  0  0  0  0  0  0  0
   -6.1170   20.8230  -31.8580 C   0  0  0  0  0  0  0  0  0  0  0  0
   -6.8100   21.6690  -31.2260 O   0  0  0  0  0  0  0  0  0  0  0  0
   -4.7110   20.9170  -31.8210 C   0  0  0  0  0  0  0  0  0  0  0  0
   -4.0040   22.0130  -31.1140 C   0  0  0  0  0  0  0  0  0  0  0  0
   -2.8420   21.7640  -30.3680 C   0  0  0  0  0  0  0  0  0  0  0  0
   -2.1990   22.8020  -29.6910 C   0  0  0  0  0  0  0  0  0  0  0  0
   -2.7140   24.1100  -29.7390 C   0  0  0  0  0  0  0  0  0  0  0  0
   -2.0930   25.1800  -29.0730 O   0  0  0  0  0  0  0  0  0  0  0  0
   -1.7090   25.1630  -27.7020 C   0  0  0  0  0  0  0  0  0  0  0  0
   -3.8850   24.3680  -30.4670 C   0  0  0  0  0  0  0  0  0  0  0  0
   -4.3780   25.6820  -30.4910 O   0  0  0  0  0  0  0  0  0  0  0  0
   -5.7270   26.0440  -30.2100 C   0  0  0  0  0  0  0  0  0  0  0  0
   -4.5290   23.3150  -31.1470 C   0  0  0  0  0  0  0  0  0  0  0  0
   -3.9730   19.9570  -32.4290 N   0  0  0  0  0  0  0  0  0  0  0  0
   -4.5450   18.9200  -33.0830 C   0  0  0  0  0  0  0  0  0  0  0  0
   -3.7300   17.9530  -33.6810 C   0  0  0  0  0  0  0  0  0  0  0  0
   -4.3010   16.8690  -34.3450 C   0  0  0  0  0  0  0  0  0  0  0  0
   -5.6870   16.7420  -34.4080 C   0  0  0  0  0  0  0  0  0  0  0  0
   -6.5130   17.7020  -33.8170 C   0  0  0  0  0  0  0  0  0  0  0  0
   -5.9570   18.8220  -33.1490 C   0  0  0  0  0  0  0  0  0  0  0  0
   -8.5649   19.1246  -30.5771 H   0  0  0  0  0  0  0  0  0  0  0  0
   -9.8479   18.6595  -31.7451 H   0  0  0  0  0  0  0  0  0  0  0  0
   -8.2755   17.7910  -31.7451 H   0  0  0  0  0  0  0  0  0  0  0  0
   -8.5278   19.4774  -33.6176 H   0  0  0  0  0  0  0  0  0  0  0  0
   -8.5940   20.7689  -32.3570 H   0  0  0  0  0  0  0  0  0  0  0  0
   -2.4347   20.7435  -30.3162 H   0  0  0  0  0  0  0  0  0  0  0  0
   -1.2839   22.5956  -29.1165 H   0  0  0  0  0  0  0  0  0  0  0  0
   -2.6077   25.2028  -27.0690 H   0  0  0  0  0  0  0  0  0  0  0  0
   -1.1510   24.2393  -27.4889 H   0  0  0  0  0  0  0  0  0  0  0  0
   -1.0716   26.0338  -27.4889 H   0  0  0  0  0  0  0  0  0  0  0  0
   -5.8766   26.0842  -29.1210 H   0  0  0  0  0  0  0  0  0  0  0  0
   -5.9402   27.0311  -30.6460 H   0  0  0  0  0  0  0  0  0  0  0  0
   -6.4057   25.2962  -30.6460 H   0  0  0  0  0  0  0  0  0  0  0  0
   -5.4528   23.5151  -31.7096 H   0  0  0  0  0  0  0  0  0  0  0  0
   -2.6355   18.0485  -33.6270 H   0  0  0  0  0  0  0  0  0  0  0  0
   -3.6574   16.1136  -34.8194 H   0  0  0  0  0  0  0  0  0  0  0  0
   -6.1339   15.8807  -34.9261 H   0  0  0  0  0  0  0  0  0  0  0  0
   -7.6057   17.5874  -33.8707 H   0  0  0  0  0  0  0  0  0  0  0  0
  1  2  1  0
  2  3  1  0
  3  4  1  0
  4  5  2  0
  4  6  1  0
  6  7  1  0
  7  8  2  0
  8  9  1  0
  9 10  2  0
 10 11  1  0
 11 12  1  0
 10 13  1  0
 13 14  1  0
 14 15  1  0
 13 16  2  0
  6 17  2  0
 17 18  1  0
 18 19  2  0
 19 20  1  0
 20 21  2  0
 21 22  1  0
 22 23  2  0
 23  3  1  0
 16  7  1  0
 23 18  1  0
  1 24  1  0
  1 25  1  0
  1 26  1  0
  2 27  1  0
  2 28  1  0
  8 29  1  0
  9 30  1  0
 12 31  1  0
 12 32  1  0
 12 33  1  0
 15 34  1  0
 15 35  1  0
 15 36  1  0
 16 37  1  0
 19 38  1  0
 20 39  1  0
 21 40  1  0
 22 41  1  0
M  END
>  <UniqueID>  (16) 
15

>  <SMILES>  (16) 
CCn1c(=O)c(-c2ccc(OC)c(OC)c2)nc2ccccc21

>  <Energy>  (16) 
56.35219023822557

>  <Genealogy>  (16) 
CCn1c(=O)c(-c2ccc(OC)c(OC)c2)nc2ccccc21 (3D coordinates assigned)
CCn1c(=O)c(-c2ccc(OC)c(OC)c2)nc2ccccc21 (optimized conformer: 56.35219023822557 kcal/mol)

>  <smiles>  (16) 
CCn1c(=O)c(-c2ccc(OC)c(OC)c2)nc2ccccc21

>  <score_type>  (16) 
oracle

>  <origin>  (16) 
adgpu

>  <m_score__min__energy>  (16) 
-8.3399999999999999

>  <m_primary>  (16) 
energy

$$$$
16:0
     RDKit          3D

 33 35  0  0  0  0  0  0  0  0999 V2000
   -8.8670   18.3030  -31.6130 C   0  0  0  0  0  0  0  0  0  0  0  0
   -8.6850   19.5230  -32.3250 O   0  0  0  0  0  0  0  0  0  0  0  0
   -7.8480   20.5680  -31.9040 C   0  0  0  0  0  0  0  0  0  0  0  0
   -6.5290   20.5940  -32.3710 C   0  0  0  0  0  0  0  0  0  0  0  0
   -5.6560   21.6120  -31.9800 C   0  0  0  0  0  0  0  0  0  0  0  0
   -6.0880   22.6200  -31.1020 C   0  0  0  0  0  0  0  0  0  0  0  0
   -5.1730   23.7060  -30.6870 C   0  0  0  0  0  0  0  0  0  0  0  0
   -5.3520   25.0560  -30.9510 C   0  0  0  0  0  0  0  0  0  0  0  0
   -4.3240   25.7380  -30.5000 O   0  0  0  0  0  0  0  0  0  0  0  0
   -3.4780   24.9000  -29.9520 C   0  0  0  0  0  0  0  0  0  0  0  0
   -2.2910   25.2940  -29.3460 O   0  0  0  0  0  0  0  0  0  0  0  0
   -3.9490   23.6030  -30.0340 C   0  0  0  0  0  0  0  0  0  0  0  0
   -3.3180   22.4020  -29.4460 C   0  0  0  0  0  0  0  0  0  0  0  0
   -3.6180   22.0170  -28.1280 C   0  0  0  0  0  0  0  0  0  0  0  0
   -3.0230   20.8800  -27.5720 C   0  0  0  0  0  0  0  0  0  0  0  0
   -2.1310   20.1140  -28.3290 C   0  0  0  0  0  0  0  0  0  0  0  0
   -1.8350   20.4830  -29.6440 C   0  0  0  0  0  0  0  0  0  0  0  0
   -0.9530   19.7180  -30.3980 O   0  0  0  0  0  0  0  0  0  0  0  0
   -2.4290   21.6190  -30.2030 C   0  0  0  0  0  0  0  0  0  0  0  0
   -7.4150   22.6050  -30.6460 C   0  0  0  0  0  0  0  0  0  0  0  0
   -8.2890   21.5860  -31.0370 C   0  0  0  0  0  0  0  0  0  0  0  0
   -8.8374   18.5017  -30.5315 H   0  0  0  0  0  0  0  0  0  0  0  0
   -9.8404   17.8650  -31.8788 H   0  0  0  0  0  0  0  0  0  0  0  0
   -8.0638   17.6000  -31.8788 H   0  0  0  0  0  0  0  0  0  0  0  0
   -6.1765   19.8056  -33.0522 H   0  0  0  0  0  0  0  0  0  0  0  0
   -4.6244   21.6244  -32.3617 H   0  0  0  0  0  0  0  0  0  0  0  0
   -6.2242   25.4903  -31.4616 H   0  0  0  0  0  0  0  0  0  0  0  0
   -4.3241   22.6128  -27.5310 H   0  0  0  0  0  0  0  0  0  0  0  0
   -3.2570   20.5878  -26.5377 H   0  0  0  0  0  0  0  0  0  0  0  0
   -1.6624   19.2211  -27.8895 H   0  0  0  0  0  0  0  0  0  0  0  0
   -2.1993   21.9015  -31.2410 H   0  0  0  0  0  0  0  0  0  0  0  0
   -7.7705   23.4013  -29.9755 H   0  0  0  0  0  0  0  0  0  0  0  0
   -9.3245   21.5796  -30.6660 H   0  0  0  0  0  0  0  0  0  0  0  0
  1  2  1  0
  2  3  1  0
  3  4  2  0
  4  5  1  0
  5  6  2  0
  6  7  1  0
  7  8  2  0
  8  9  1  0
  9 10  1  0
 10 11  1  0
 10 12  2  0
 12 13  1  0
 13 14  2  0
 14 15  1  0
 15 16  2  0
 16 17  1  0
 17 18  1  0
 17 19  2  0
  6 20  1  0
 20 21  2  0
 21  3  1  0
 12  7  1  0
 19 13  1  0
  1 22  1  0
  1 23  1  0
  1 24  1  0
  4 25  1  0
  5 26  1  0
  8 27  1  0
 14 28  1  0
 15 29  1  0
 16 30  1  0
 19 31  1  0
 20 32  1  0
 21 33  1  0
M  CHG  2  11  -1  18  -1
M  END
>  <UniqueID>  (17) 
16

>  <SMILES>  (17) 
COc1ccc(-c2coc([O-])c2-c2cccc([O-])c2)cc1

>  <Energy>  (17) 
71.57140769856991

>  <Genealogy>  (17) 
COc1ccc(-c2coc([O-])c2-c2cccc([O-])c2)cc1 (protonated)
COc1ccc(-c2coc([O-])c2-c2cccc([O-])c2)cc1 (3D coordinates assigned)
COc1ccc(-c2coc([O-])c2-c2cccc([O-])c2)cc1 (optimized conformer: 71.57140769856991 kcal/mol)

>  <smiles>  (17) 
COc1ccc(-c2coc(O)c2-c2cccc(O)c2)cc1

>  <score_type>  (17) 
oracle

>  <origin>  (17) 
adgpu

>  <m_score__min__energy>  (17) 
-10.130000000000001

>  <m_primary>  (17) 
energy

$$$$
17:0
     RDKit          3D

 28 29  0  0  0  0  0  0  0  0999 V2000
   -8.4320   22.2180  -31.5880 C   0  0  0  0  0  0  0  0  0  0  0  0
   -7.1410   22.9360  -31.3290 C   0  0  0  0  0  0  0  0  0  0  0  0
   -5.9300   22.4030  -31.7940 C   0  0  0  0  0  0  0  0  0  0  0  0
   -4.7220   23.0520  -31.5210 C   0  0  0  0  0  0  0  0  0  0  0  0
   -4.7110   24.2460  -30.7780 C   0  0  0  0  0  0  0  0  0  0  0  0
   -3.4880   24.9290  -30.4660 N   0  0  0  0  0  0  0  0  0  0  0  0
   -2.5600   24.5730  -29.4330 C   0  0  0  0  0  0  0  0  0  0  0  0
   -1.8350   25.4760  -28.9390 O   0  0  0  0  0  0  0  0  0  0  0  0
   -2.3920   23.1730  -28.9740 C   0  0  0  0  0  0  0  0  0  0  0  0
   -1.3810   22.3550  -29.5100 C   0  0  0  0  0  0  0  0  0  0  0  0
   -1.2290   21.0370  -29.0660 C   0  0  0  0  0  0  0  0  0  0  0  0
   -2.0770   20.5270  -28.0790 C   0  0  0  0  0  0  0  0  0  0  0  0
   -1.9280   19.2500  -27.6510 F   0  0  0  0  0  0  0  0  0  0  0  0
   -3.0730   21.3370  -27.5290 C   0  0  0  0  0  0  0  0  0  0  0  0
   -3.2290   22.6550  -27.9700 C   0  0  0  0  0  0  0  0  0  0  0  0
   -5.9170   24.7530  -30.2800 C   0  0  0  0  0  0  0  0  0  0  0  0
   -7.1250   24.1040  -30.5520 C   0  0  0  0  0  0  0  0  0  0  0  0
   -8.9041   21.9554  -30.6298 H   0  0  0  0  0  0  0  0  0  0  0  0
   -9.1059   22.8709  -32.1621 H   0  0  0  0  0  0  0  0  0  0  0  0
   -8.2328   21.3011  -32.1621 H   0  0  0  0  0  0  0  0  0  0  0  0
   -5.9305   21.4698  -32.3763 H   0  0  0  0  0  0  0  0  0  0  0  0
   -3.7765   22.6270  -31.8888 H   0  0  0  0  0  0  0  0  0  0  0  0
   -0.7065   22.7536  -30.2821 H   0  0  0  0  0  0  0  0  0  0  0  0
   -0.4405   20.4009  -29.4946 H   0  0  0  0  0  0  0  0  0  0  0  0
   -3.7360   20.9375  -26.7474 H   0  0  0  0  0  0  0  0  0  0  0  0
   -4.0112   23.2902  -27.5287 H   0  0  0  0  0  0  0  0  0  0  0  0
   -5.9142   25.6686  -29.6703 H   0  0  0  0  0  0  0  0  0  0  0  0
   -8.0668   24.5108  -30.1552 H   0  0  0  0  0  0  0  0  0  0  0  0
  1  2  1  0
  2  3  2  0
  3  4  1  0
  4  5  2  0
  5  6  1  0
  6  7  1  0
  7  8  2  0
  7  9  1  0
  9 10  2  0
 10 11  1  0
 11 12  2  0
 12 13  1  0
 12 14  1  0
 14 15  2  0
  5 16  1  0
 16 17  2  0
 17  2  1  0
 15  9  1  0
  1 18  1  0
  1 19  1  0
  1 20  1  0
  3 21  1  0
  4 22  1  0
 10 23  1  0
 11 24  1  0
 14 25  1  0
 15 26  1  0
 16 27  1  0
 17 28  1  0
M  CHG  1   6  -1
M  END
>  <UniqueID>  (18) 
17

>  <SMILES>  (18) 
Cc1ccc([N-]C(=O)c2ccc(F)cc2)cc1

>  <Energy>  (18) 
34.7653576202282

>  <Genealogy>  (18) 
Cc1ccc([N-]C(=O)c2ccc(F)cc2)cc1 (protonated)
Cc1ccc([N-]C(=O)c2ccc(F)cc2)cc1 (3D coordinates assigned)
Cc1ccc([N-]C(=O)c2ccc(F)cc2)cc1 (optimized conformer: 34.7653576202282 kcal/mol)

>  <smiles>  (18) 
Cc1ccc(NC(=O)c2ccc(F)cc2)cc1

>  <score_type>  (18) 
oracle

>  <origin>  (18) 
adgpu

>  <m_score__min__energy>  (18) 
-8.0600000000000005

>  <m_primary>  (18) 
energy

$$$$
18:0
     RDKit          3D

 63 66  0  0  0  0  0  0  0  0999 V2000
   -2.3620   24.4170  -28.2640 C   0  0  0  0  0  0  0  0  0  0  0  0
   -2.7790   24.9990  -29.4940 O   0  0  0  0  0  0  0  0  0  0  0  0
   -3.9120   24.5970  -30.2210 C   0  0  0  0  0  0  0  0  0  0  0  0
   -5.1160   25.3230  -30.1870 C   0  0  0  0  0  0  0  0  0  0  0  0
   -6.2220   24.8910  -30.9200 C   0  0  0  0  0  0  0  0  0  0  0  0
   -6.1540   23.7260  -31.6960 C   0  0  0  0  0  0  0  0  0  0  0  0
   -7.3190   23.3120  -32.4380 N   0  0  0  0  0  0  0  0  0  0  0  0
   -8.6860   23.3000  -31.9100 C   0  0  0  0  0  0  0  0  0  0  0  0
   -9.0370   21.9390  -31.2940 C   0  0  0  0  0  0  0  0  0  0  0  0
   -9.6850   20.9980  -32.3170 C   0  0  0  0  0  0  0  0  0  0  0  0
   -9.2720   19.6490  -32.0900 O   0  0  0  0  0  0  0  0  0  0  0  0
   -8.0140   19.1160  -32.4110 C   0  0  0  0  0  0  0  0  0  0  0  0
   -7.0720   19.8020  -33.2010 C   0  0  0  0  0  0  0  0  0  0  0  0
   -5.8330   19.2200  -33.4890 C   0  0  0  0  0  0  0  0  0  0  0  0
   -5.5050   17.9460  -32.9860 C   0  0  0  0  0  0  0  0  0  0  0  0
   -4.1710   17.2850  -33.3140 C   0  0  2  0  0  0  0  0  0  0  0  0
   -4.1790   15.8170  -32.8630 C   0  0  0  0  0  0  0  0  0  0  0  0
   -2.9690   18.0630  -32.7150 C   0  0  0  0  0  0  0  0  0  0  0  0
   -2.1580   18.3770  -33.9310 C   0  0  0  0  0  0  0  0  0  0  0  0
   -0.8640   19.1030  -33.9330 C   0  0  0  0  0  0  0  0  0  0  0  0
    0.2250   18.6300  -33.1760 C   0  0  0  0  0  0  0  0  0  0  0  0
    1.4430   19.3160  -33.1820 C   0  0  0  0  0  0  0  0  0  0  0  0
    1.5890   20.4800  -33.9410 C   0  0  0  0  0  0  0  0  0  0  0  0
    0.5160   20.9610  -34.6960 C   0  0  0  0  0  0  0  0  0  0  0  0
    0.7180   22.5530  -35.7330 Br  0  0  0  0  0  0  0  0  0  0  0  0
   -0.7050   20.2770  -34.6930 C   0  0  0  0  0  0  0  0  0  0  0  0
   -2.7210   17.9590  -35.0110 N   0  0  0  0  0  0  0  0  0  0  0  0
   -3.9000   17.3300  -34.7090 O   0  0  0  0  0  0  0  0  0  0  0  0
   -6.4600   17.2590  -32.2160 C   0  0  0  0  0  0  0  0  0  0  0  0
   -7.6970   17.8420  -31.9290 C   0  0  0  0  0  0  0  0  0  0  0  0
   -4.9460   23.0050  -31.7390 C   0  0  0  0  0  0  0  0  0  0  0  0
   -3.8270   23.4340  -31.0000 C   0  0  0  0  0  0  0  0  0  0  0  0
   -2.6090   22.7320  -31.0150 O   0  0  0  0  0  0  0  0  0  0  0  0
   -2.3850   21.5170  -31.7240 C   0  0  0  0  0  0  0  0  0  0  0  0
   -2.7766   24.9956  -27.4254 H   0  0  0  0  0  0  0  0  0  0  0  0
   -2.7236   23.3797  -28.2080 H   0  0  0  0  0  0  0  0  0  0  0  0
   -1.2635   24.4259  -28.2080 H   0  0  0  0  0  0  0  0  0  0  0  0
   -5.1863   26.2369  -29.5789 H   0  0  0  0  0  0  0  0  0  0  0  0
   -7.1564   25.4706  -30.8884 H   0  0  0  0  0  0  0  0  0  0  0  0
   -7.1940   23.0150  -33.4330 H   0  0  0  0  0  0  0  0  0  0  0  0
   -8.7777   24.0770  -31.1368 H   0  0  0  0  0  0  0  0  0  0  0  0
   -9.3798   23.4926  -32.7416 H   0  0  0  0  0  0  0  0  0  0  0  0
   -8.1160   21.4721  -30.9149 H   0  0  0  0  0  0  0  0  0  0  0  0
   -9.7591   22.1086  -30.4817 H   0  0  0  0  0  0  0  0  0  0  0  0
  -10.7793   21.0617  -32.2247 H   0  0  0  0  0  0  0  0  0  0  0  0
   -9.3706   21.3005  -33.3268 H   0  0  0  0  0  0  0  0  0  0  0  0
   -7.3116   20.8011  -33.5939 H   0  0  0  0  0  0  0  0  0  0  0  0
   -5.1083   19.7623  -34.1140 H   0  0  0  0  0  0  0  0  0  0  0  0
   -4.1793   15.7711  -31.7640 H   0  0  0  0  0  0  0  0  0  0  0  0
   -5.0799   15.3191  -33.2510 H   0  0  0  0  0  0  0  0  0  0  0  0
   -3.2836   15.3093  -33.2510 H   0  0  0  0  0  0  0  0  0  0  0  0
   -3.3008   18.9815  -32.2089 H   0  0  0  0  0  0  0  0  0  0  0  0
   -2.4160   17.4995  -31.9490 H   0  0  0  0  0  0  0  0  0  0  0  0
    0.1166   17.7145  -32.5759 H   0  0  0  0  0  0  0  0  0  0  0  0
    2.2883   18.9386  -32.5879 H   0  0  0  0  0  0  0  0  0  0  0  0
    2.5486   21.0177  -33.9442 H   0  0  0  0  0  0  0  0  0  0  0  0
   -1.5466   20.6597  -35.2890 H   0  0  0  0  0  0  0  0  0  0  0  0
   -6.2310   16.2525  -31.8357 H   0  0  0  0  0  0  0  0  0  0  0  0
   -8.4288   17.2934  -31.3178 H   0  0  0  0  0  0  0  0  0  0  0  0
   -4.8754   22.0972  -32.3562 H   0  0  0  0  0  0  0  0  0  0  0  0
   -2.2338   20.6966  -31.0070 H   0  0  0  0  0  0  0  0  0  0  0  0
   -3.2574   21.2952  -32.3563 H   0  0  0  0  0  0  0  0  0  0  0  0
   -1.4909   21.6209  -32.3563 H   0  0  0  0  0  0  0  0  0  0  0  0
  1  2  1  0
  2  3  1  0
  3  4  2  0
  4  5  1  0
  5  6  2  0
  6  7  1  0
  7  8  1  0
  8  9  1  0
  9 10  1  0
 10 11  1  0
 11 12  1  0
 12 13  2  0
 13 14  1  0
 14 15  2  0
 15 16  1  0
 16 17  1  1
 16 18  1  0
 18 19  1  0
 19 20  1  0
 20 21  2  0
 21 22  1  0
 22 23  2  0
 23 24  1  0
 24 25  1  0
 24 26  2  0
 19 27  2  0
 27 28  1  0
 15 29  1  0
 29 30  2  0
  6 31  1  0
 31 32  2  0
 32 33  1  0
 33 34  1  0
 32  3  1  0
 30 12  1  0
 28 16  1  0
 26 20  1  0
  1 35  1  0
  1 36  1  0
  1 37  1  0
  4 38  1  0
  5 39  1  0
  7 40  1  0
  8 41  1  0
  8 42  1  0
  9 43  1  0
  9 44  1  0
 10 45  1  0
 10 46  1  0
 13 47  1  0
 14 48  1  0
 17 49  1  0
 17 50  1  0
 17 51  1  0
 18 52  1  0
 18 53  1  0
 21 54  1  0
 22 55  1  0
 23 56  1  0
 26 57  1  0
 29 58  1  0
 30 59  1  0
 31 60  1  0
 34 61  1  0
 34 62  1  0
 34 63  1  0
M  END
>  <UniqueID>  (19) 
18

>  <SMILES>  (19) 
COc1ccc(NCCCOc2ccc([C@]3(C)CC(c4cccc(Br)c4)=NO3)cc2)cc1OC

>  <Energy>  (19) 
76.43420518175874

>  <Genealogy>  (19) 
COc1ccc(NCCCOc2ccc([C@]3(C)CC(c4cccc(Br)c4)=NO3)cc2)cc1OC (chirality)
COc1ccc(NCCCOc2ccc([C@]3(C)CC(c4cccc(Br)c4)=NO3)cc2)cc1OC (3D coordinates assigned)
COc1ccc(NCCCOc2ccc([C@]3(C)CC(c4cccc(Br)c4)=NO3)cc2)cc1OC (nonaromatic ring conformer: 76.43420518175874 kcal/mol)

>  <smiles>  (19) 
COc1ccc(NCCCOc2ccc(C3(C)CC(c4cccc(Br)c4)=NO3)cc2)cc1OC

>  <score_type>  (19) 
oracle

>  <origin>  (19) 
adgpu

>  <m_score__min__energy>  (19) 
-9.9299999999999997

>  <m_primary>  (19) 
energy

$$$$
19:0
     RDKit          3D

 34 36  0  0  0  0  0  0  0  0999 V2000
   -1.2490   26.0360  -29.0040 N   0  0  0  0  0  0  0  0  0  0  0  0
   -2.0170   24.5620  -28.5320 S   0  0  0  0  0  0  0  0  0  0  0  0
   -2.6470   24.7380  -27.1790 O   0  0  0  0  0  0  0  0  0  0  0  0
   -0.9920   23.4650  -28.4480 O   0  0  0  0  0  0  0  0  0  0  0  0
   -3.2500   24.1360  -29.7140 C   0  0  0  0  0  0  0  0  0  0  0  0
   -3.1100   22.9840  -30.4980 C   0  0  0  0  0  0  0  0  0  0  0  0
   -4.0960   22.6390  -31.4260 C   0  0  0  0  0  0  0  0  0  0  0  0
   -5.2360   23.4490  -31.5870 C   0  0  0  0  0  0  0  0  0  0  0  0
   -6.2740   23.1040  -32.5220 N   0  0  0  0  0  0  0  0  0  0  0  0
   -7.2970   22.1290  -32.2580 C   0  0  0  0  0  0  0  0  0  0  0  0
   -8.4960   22.5330  -31.6490 C   0  0  0  0  0  0  0  0  0  0  0  0
   -9.4860   21.6010  -31.3340 C   0  0  0  0  0  0  0  0  0  0  0  0
   -9.2920   20.2490  -31.6120 C   0  0  0  0  0  0  0  0  0  0  0  0
   -8.1020   19.8160  -32.2140 C   0  0  0  0  0  0  0  0  0  0  0  0
   -7.9100   18.4550  -32.4960 C   0  0  0  0  0  0  0  0  0  0  0  0
   -6.7330   18.0210  -33.1050 C   0  0  0  0  0  0  0  0  0  0  0  0
   -5.7380   18.9400  -33.4450 C   0  0  0  0  0  0  0  0  0  0  0  0
   -4.2670   18.3870  -34.2240 Cl  0  0  0  0  0  0  0  0  0  0  0  0
   -5.9130   20.3000  -33.1710 C   0  0  0  0  0  0  0  0  0  0  0  0
   -7.0910   20.7570  -32.5430 C   0  0  0  0  0  0  0  0  0  0  0  0
   -5.3830   24.5880  -30.7810 C   0  0  0  0  0  0  0  0  0  0  0  0
   -4.3950   24.9310  -29.8530 C   0  0  0  0  0  0  0  0  0  0  0  0
   -1.2310   26.0490  -30.0480 H   0  0  0  0  0  0  0  0  0  0  0  0
   -2.2199   22.3480  -30.3827 H   0  0  0  0  0  0  0  0  0  0  0  0
   -3.9808   21.7296  -32.0340 H   0  0  0  0  0  0  0  0  0  0  0  0
   -6.2510   23.5430  -33.4710 H   0  0  0  0  0  0  0  0  0  0  0  0
   -8.6569   23.5963  -31.4175 H   0  0  0  0  0  0  0  0  0  0  0  0
  -10.4231   21.9348  -30.8645 H   0  0  0  0  0  0  0  0  0  0  0  0
  -10.0751   19.5193  -31.3583 H   0  0  0  0  0  0  0  0  0  0  0  0
   -8.6920   17.7266  -32.2353 H   0  0  0  0  0  0  0  0  0  0  0  0
   -6.5879   16.9517  -33.3182 H   0  0  0  0  0  0  0  0  0  0  0  0
   -5.1270   21.0184  -33.4469 H   0  0  0  0  0  0  0  0  0  0  0  0
   -6.2813   25.2152  -30.8798 H   0  0  0  0  0  0  0  0  0  0  0  0
   -4.5173   25.8289  -29.2294 H   0  0  0  0  0  0  0  0  0  0  0  0
  1  2  1  0
  2  3  2  0
  2  4  2  0
  2  5  1  0
  5  6  2  0
  6  7  1  0
  7  8  2  0
  8  9  1  0
  9 10  1  0
 10 11  2  0
 11 12  1  0
 12 13  2  0
 13 14  1  0
 14 15  2  0
 15 16  1  0
 16 17  2  0
 17 18  1  0
 17 19  1  0
 19 20  2  0
  8 21  1  0
 21 22  2  0
 22  5  1  0
 20 10  1  0
 20 14  1  0
  1 23  1  0
  6 24  1  0
  7 25  1  0
  9 26  1  0
 11 27  1  0
 12 28  1  0
 13 29  1  0
 15 30  1  0
 16 31  1  0
 19 32  1  0
 21 33  1  0
 22 34  1  0
M  CHG  1   1  -1
M  END
>  <UniqueID>  (20) 
19

>  <SMILES>  (20) 
[NH-]S(=O)(=O)c1ccc(Nc2cccc3ccc(Cl)cc23)cc1

>  <Energy>  (20) 
46.865958441059846

>  <Genealogy>  (20) 
[NH-]S(=O)(=O)c1ccc(Nc2cccc3ccc(Cl)cc23)cc1 (protonated)
[NH-]S(=O)(=O)c1ccc(Nc2cccc3ccc(Cl)cc23)cc1 (3D coordinates assigned)
[NH-]S(=O)(=O)c1ccc(Nc2cccc3ccc(Cl)cc23)cc1 (optimized conformer: 46.865958441059846 kcal/mol)

>  <smiles>  (20) 
NS(=O)(=O)c1ccc(Nc2cccc3ccc(Cl)cc23)cc1

>  <score_type>  (20) 
oracle

>  <origin>  (20) 
adgpu

>  <m_score__min__energy>  (20) 
-11.81

>  <m_primary>  (20) 
energy

$$$$
20:0
     RDKit          3D

 47 50  0  0  1  0  0  0  0  0999 V2000
   -9.4950   20.7820  -32.0340 C   0  0  0  0  0  0  0  0  0  0  0  0
   -8.0510   20.5720  -32.3310 C   0  0  0  0  0  0  0  0  0  0  0  0
   -7.1040   21.4060  -31.8640 N   0  0  0  0  0  0  0  0  0  0  0  0
   -5.8020   21.2010  -32.1430 C   0  0  0  0  0  0  0  0  0  0  0  0
   -4.9170   22.0110  -31.6860 N   0  0  0  0  0  0  0  0  0  0  0  0
   -5.2510   23.1360  -30.8830 C   0  0  0  0  0  0  0  0  0  0  0  0
   -6.1730   24.0840  -31.3130 C   0  0  0  0  0  0  0  0  0  0  0  0
   -6.4990   25.1810  -30.5300 C   0  0  0  0  0  0  0  0  0  0  0  0
   -5.8750   25.3020  -29.3010 C   0  0  0  0  0  0  0  0  0  0  0  0
   -4.9810   24.3750  -28.8930 N   0  0  0  0  0  0  0  0  0  0  0  0
   -4.6530   23.2970  -29.6500 C   0  0  0  0  0  0  0  0  0  0  0  0
   -3.5020   22.1140  -29.1130 Cl  0  0  0  0  0  0  0  0  0  0  0  0
   -5.4470   20.1210  -32.9150 C   0  0  0  0  0  0  0  0  0  0  0  0
   -4.1300   19.8870  -33.2160 C   0  0  0  0  0  0  0  0  0  0  0  0
   -3.7210   18.7980  -34.0010 C   0  0  0  0  0  0  0  0  0  0  0  0
   -2.3490   18.6260  -34.2640 N   0  0  0  0  0  0  0  0  0  0  0  0
   -1.3820   19.6170  -34.4700 C   0  0  0  0  0  0  0  0  0  0  0  0
   -1.7060   20.8040  -34.4290 O   0  0  0  0  0  0  0  0  0  0  0  0
   -0.0430   19.2770  -34.7240 N   0  0  0  0  0  0  0  0  0  0  0  0
    1.0390   20.1430  -34.9500 C   0  0  0  0  0  0  0  0  0  0  0  0
    2.3250   19.7320  -34.5600 C   0  0  0  0  0  0  0  0  0  0  0  0
    3.4320   20.5210  -34.7470 C   0  0  0  0  0  0  0  0  0  0  0  0
    3.3430   21.7650  -35.3290 C   0  0  0  0  0  0  0  0  0  0  0  0
    2.0970   22.1910  -35.7190 C   0  0  0  0  0  0  0  0  0  0  0  0
    2.0010   23.4830  -36.3260 C   0  0  0  0  0  0  0  0  0  0  0  0
    1.9180   24.5300  -36.8210 N   0  0  0  0  0  0  0  0  0  0  0  0
    0.9780   21.3860  -35.5270 C   0  0  0  0  0  0  0  0  0  0  0  0
   -4.7340   17.9870  -34.4460 C   0  0  0  0  0  0  0  0  0  0  0  0
   -6.0780   18.2210  -34.1430 C   0  0  0  0  0  0  0  0  0  0  0  0
   -6.4540   19.2970  -33.3700 C   0  0  0  0  0  0  0  0  0  0  0  0
   -7.7550   19.4910  -33.0990 N   0  0  0  0  0  0  0  0  0  0  0  0
   -9.6459   20.8039  -30.9446 H   0  0  0  0  0  0  0  0  0  0  0  0
   -9.8237   21.7374  -32.4690 H   0  0  0  0  0  0  0  0  0  0  0  0
  -10.0822   19.9598  -32.4690 H   0  0  0  0  0  0  0  0  0  0  0  0
   -6.6537   23.9611  -32.2947 H   0  0  0  0  0  0  0  0  0  0  0  0
   -7.2284   25.9291  -30.8740 H   0  0  0  0  0  0  0  0  0  0  0  0
   -6.1084   26.1588  -28.6518 H   0  0  0  0  0  0  0  0  0  0  0  0
   -3.3666   20.5776  -32.8283 H   0  0  0  0  0  0  0  0  0  0  0  0
   -2.0100   17.6180  -34.3110 H   0  0  0  0  0  0  0  0  0  0  0  0
    0.1790   18.2370  -34.7470 H   0  0  0  0  0  0  0  0  0  0  0  0
    2.4483   18.7454  -34.0894 H   0  0  0  0  0  0  0  0  0  0  0  0
    4.4156   20.1498  -34.4235 H   0  0  0  0  0  0  0  0  0  0  0  0
    4.2342   22.3929  -35.4759 H   0  0  0  0  0  0  0  0  0  0  0  0
   -0.0019   21.7645  -35.8535 H   0  0  0  0  0  0  0  0  0  0  0  0
   -4.4777   17.1162  -35.0672 H   0  0  0  0  0  0  0  0  0  0  0  0
   -6.8473   17.5353  -34.5278 H   0  0  0  0  0  0  0  0  0  0  0  0
   -8.5070   18.8490  -33.4560 H   0  0  0  0  0  0  0  0  0  0  0  0
  1  2  1  0
  2  3  2  0
  3  4  1  0
  4  5  2  0
  5  6  1  0
  6  7  2  0
  7  8  1  0
  8  9  2  0
  9 10  1  0
 10 11  2  0
 11 12  1  0
  4 13  1  0
 13 14  2  0
 14 15  1  0
 15 16  1  0
 16 17  1  0
 17 18  2  0
 17 19  1  0
 19 20  1  0
 20 21  2  0
 21 22  1  0
 22 23  2  0
 23 24  1  0
 24 25  1  0
 25 26  3  0
 24 27  2  0
 15 28  2  0
 28 29  1  0
 29 30  2  0
 30 31  1  0
 31  2  1  0
 11  6  1  0
 30 13  1  0
 27 20  1  0
  1 32  1  0
  1 33  1  0
  1 34  1  0
  7 35  1  0
  8 36  1  0
  9 37  1  0
 14 38  1  0
 16 39  1  0
 19 40  1  0
 21 41  1  0
 22 42  1  0
 23 43  1  0
 27 44  1  0
 28 45  1  0
 29 46  1  0
 31 47  1  0
M  END
>  <smiles>  (21) 
Cc1nc(=Nc2cccnc2Cl)c2cc(NC(=O)Nc3cccc(C#N)c3)ccc2[nH]1

>  <score_type>  (21) 
oracle

>  <origin>  (21) 
adgpu

>  <m_score__min__energy>  (21) 
-9.9900000000000002

>  <m_primary>  (21) 
energy

$$$$
21:0
     RDKit          3D

 36 37  0  0  0  0  0  0  0  0999 V2000
   -8.2510   18.6310  -32.1100 C   0  0  0  0  0  0  0  0  0  0  0  0
   -8.0810   19.9370  -32.3350 C   0  0  0  0  0  0  0  0  0  0  0  0
   -8.3180   20.9610  -31.2590 C   0  0  0  0  0  0  0  0  0  0  0  0
   -7.1460   21.8980  -31.1480 C   0  0  0  0  0  0  0  0  0  0  0  0
   -7.2900   23.1320  -30.5000 C   0  0  0  0  0  0  0  0  0  0  0  0
   -6.2020   23.9990  -30.3670 C   0  0  0  0  0  0  0  0  0  0  0  0
   -6.4890   25.6740  -29.4810 Br  0  0  0  0  0  0  0  0  0  0  0  0
   -4.9410   23.6310  -30.8800 C   0  0  0  0  0  0  0  0  0  0  0  0
   -3.8470   24.4960  -30.7890 O   0  0  0  0  0  0  0  0  0  0  0  0
   -4.7810   22.3790  -31.5110 C   0  0  0  0  0  0  0  0  0  0  0  0
   -3.4640   21.9480  -32.0380 C   0  0  0  0  0  0  0  0  0  0  0  0
   -3.3400   21.4760  -33.3570 C   0  0  0  0  0  0  0  0  0  0  0  0
   -2.0950   21.0820  -33.8530 C   0  0  0  0  0  0  0  0  0  0  0  0
   -0.9570   21.1520  -33.0390 C   0  0  0  0  0  0  0  0  0  0  0  0
    0.6150   20.6730  -33.6710 S   0  0  0  0  0  0  0  0  0  0  0  0
    0.3910   19.4610  -34.9520 C   0  0  0  0  0  0  0  0  0  0  0  0
    1.4510   20.0880  -32.5660 O   0  0  0  0  0  0  0  0  0  0  0  0
    1.3270   21.8720  -34.2310 O   0  0  0  0  0  0  0  0  0  0  0  0
   -1.0710   21.6360  -31.7300 C   0  0  0  0  0  0  0  0  0  0  0  0
   -2.3160   22.0320  -31.2320 C   0  0  0  0  0  0  0  0  0  0  0  0
   -5.8890   21.5250  -31.6440 C   0  0  0  0  0  0  0  0  0  0  0  0
   -8.0699   17.9057  -32.9170 H   0  0  0  0  0  0  0  0  0  0  0  0
   -8.5721   18.2811  -31.1178 H   0  0  0  0  0  0  0  0  0  0  0  0
   -7.7596   20.2718  -33.3323 H   0  0  0  0  0  0  0  0  0  0  0  0
   -9.2208   21.5397  -31.5040 H   0  0  0  0  0  0  0  0  0  0  0  0
   -8.4466   20.4408  -30.2984 H   0  0  0  0  0  0  0  0  0  0  0  0
   -8.2696   23.4213  -30.0917 H   0  0  0  0  0  0  0  0  0  0  0  0
   -3.4860   25.0150  -31.5780 H   0  0  0  0  0  0  0  0  0  0  0  0
   -4.2290   21.4167  -34.0021 H   0  0  0  0  0  0  0  0  0  0  0  0
   -2.0079   20.7155  -34.8865 H   0  0  0  0  0  0  0  0  0  0  0  0
    0.2090   18.4761  -34.4972 H   0  0  0  0  0  0  0  0  0  0  0  0
   -0.4705   19.7417  -35.5758 H   0  0  0  0  0  0  0  0  0  0  0  0
    1.2959   19.4152  -35.5758 H   0  0  0  0  0  0  0  0  0  0  0  0
   -0.1780   21.7049  -31.0913 H   0  0  0  0  0  0  0  0  0  0  0  0
   -2.3974   22.4117  -30.2028 H   0  0  0  0  0  0  0  0  0  0  0  0
   -5.7686   20.5522  -32.1432 H   0  0  0  0  0  0  0  0  0  0  0  0
  1  2  2  0
  2  3  1  0
  3  4  1  0
  4  5  2  0
  5  6  1  0
  6  7  1  0
  6  8  2  0
  8  9  1  0
  8 10  1  0
 10 11  1  0
 11 12  2  0
 12 13  1  0
 13 14  2  0
 14 15  1  0
 15 16  1  0
 15 17  2  0
 15 18  2  0
 14 19  1  0
 19 20  2  0
 10 21  2  0
 21  4  1  0
 20 11  1  0
  1 22  1  0
  1 23  1  0
  2 24  1  0
  3 25  1  0
  3 26  1  0
  5 27  1  0
  9 28  1  0
 12 29  1  0
 13 30  1  0
 16 31  1  0
 16 32  1  0
 16 33  1  0
 19 34  1  0
 20 35  1  0
 21 36  1  0
M  END
>  <UniqueID>  (22) 
20

>  <SMILES>  (22) 
C=CCc1cc(Br)c(O)c(-c2ccc(S(C)(=O)=O)cc2)c1

>  <Energy>  (22) 
37.59978594463129

>  <Genealogy>  (22) 
C=CCc1cc(Br)c(O)c(-c2ccc(S(C)(=O)=O)cc2)c1 (3D coordinates assigned)
C=CCc1cc(Br)c(O)c(-c2ccc(S(C)(=O)=O)cc2)c1 (optimized conformer: 37.59978594463129 kcal/mol)

>  <smiles>  (22) 
C=CCc1cc(Br)c(O)c(-c2ccc(S(C)(=O)=O)cc2)c1

>  <score_type>  (22) 
oracle

>  <origin>  (22) 
adgpu

>  <m_score__min__energy>  (22) 
-8.5

>  <m_primary>  (22) 
energy

$$$$
22:0
     RDKit          3D

 38 40  0  0  0  0  0  0  0  0999 V2000
   -4.1080   19.3580  -33.7840 C   0  0  0  0  0  0  0  0  0  0  0  0
   -4.8630   19.5400  -32.6490 O   0  0  0  0  0  0  0  0  0  0  0  0
   -6.2150   19.5430  -32.4330 C   0  0  0  0  0  0  0  0  0  0  0  0
   -6.8630   18.3130  -32.5200 C   0  0  0  0  0  0  0  0  0  0  0  0
   -6.0900   17.0800  -32.8250 C   0  0  0  0  0  0  0  0  0  0  0  0
   -8.2180   18.1730  -32.3360 C   0  0  0  0  0  0  0  0  0  0  0  0
   -8.9370   19.3100  -32.0540 C   0  0  0  0  0  0  0  0  0  0  0  0
   -8.3320   20.5290  -31.9600 C   0  0  0  0  0  0  0  0  0  0  0  0
   -9.3470   21.9230  -31.5940 Cl  0  0  0  0  0  0  0  0  0  0  0  0
   -6.9430   20.7120  -32.1430 C   0  0  0  0  0  0  0  0  0  0  0  0
   -6.4590   21.9220  -32.0250 O   0  0  0  0  0  0  0  0  0  0  0  0
   -6.1060   22.9340  -31.2590 C   0  0  0  0  0  0  0  0  0  0  0  0
   -7.1690   23.8160  -30.8920 C   0  0  0  0  0  0  0  0  0  0  0  0
   -6.9890   24.9060  -30.1110 C   0  0  0  0  0  0  0  0  0  0  0  0
   -5.7450   25.2120  -29.6290 C   0  0  0  0  0  0  0  0  0  0  0  0
   -4.6830   24.4070  -29.9410 C   0  0  0  0  0  0  0  0  0  0  0  0
   -3.4800   24.7260  -29.4400 N   0  0  0  0  0  0  0  0  0  0  0  0
   -2.4130   23.9500  -29.7080 C   0  0  0  0  0  0  0  0  0  0  0  0
   -1.2720   24.2810  -29.2120 N   0  0  0  0  0  0  0  0  0  0  0  0
   -2.6180   22.8770  -30.4790 N   0  0  0  0  0  0  0  0  0  0  0  0
   -3.7950   22.5210  -31.0010 C   0  0  0  0  0  0  0  0  0  0  0  0
   -3.9000   21.4890  -31.6860 N   0  0  0  0  0  0  0  0  0  0  0  0
   -4.8920   23.3000  -30.7410 C   0  0  0  0  0  0  0  0  0  0  0  0
   -3.0746   19.1089  -33.5010 H   0  0  0  0  0  0  0  0  0  0  0  0
   -4.5332   18.5366  -34.3794 H   0  0  0  0  0  0  0  0  0  0  0  0
   -4.1123   20.2829  -34.3794 H   0  0  0  0  0  0  0  0  0  0  0  0
   -5.7864   16.5957  -31.8852 H   0  0  0  0  0  0  0  0  0  0  0  0
   -6.7168   16.3890  -33.4077 H   0  0  0  0  0  0  0  0  0  0  0  0
   -5.1949   17.3431  -33.4077 H   0  0  0  0  0  0  0  0  0  0  0  0
   -8.7072   17.1907  -32.4114 H   0  0  0  0  0  0  0  0  0  0  0  0
  -10.0237   19.2353  -31.9008 H   0  0  0  0  0  0  0  0  0  0  0  0
   -8.1817   23.5983  -31.2621 H   0  0  0  0  0  0  0  0  0  0  0  0
   -7.8461   25.5491  -29.8623 H   0  0  0  0  0  0  0  0  0  0  0  0
   -5.5997   26.0991  -28.9950 H   0  0  0  0  0  0  0  0  0  0  0  0
   -3.3590   25.5860  -28.8300 H   0  0  0  0  0  0  0  0  0  0  0  0
   -0.4680   23.6500  -29.4460 H   0  0  0  0  0  0  0  0  0  0  0  0
   -1.7920   22.2760  -30.6870 H   0  0  0  0  0  0  0  0  0  0  0  0
   -3.0800   20.8760  -31.8720 H   0  0  0  0  0  0  0  0  0  0  0  0
  1  2  1  0
  2  3  1  0
  3  4  2  0
  4  5  1  0
  4  6  1  0
  6  7  2  0
  7  8  1  0
  8  9  1  0
  8 10  2  0
 10 11  1  0
 11 12  1  0
 12 13  2  0
 13 14  1  0
 14 15  2  0
 15 16  1  0
 16 17  1  0
 17 18  1  0
 18 19  2  3
 18 20  1  0
 20 21  1  0
 21 22  2  3
 21 23  1  0
 10  3  1  0
 23 12  1  0
 23 16  2  0
  1 24  1  0
  1 25  1  0
  1 26  1  0
  5 27  1  0
  5 28  1  0
  5 29  1  0
  6 30  1  0
  7 31  1  0
 13 32  1  0
 14 33  1  0
 15 34  1  0
 17 35  1  0
 19 36  1  0
 20 37  1  0
 22 38  1  0
M  END
>  <smiles>  (23) 
COc1c(C)ccc(Cl)c1Oc1cccc2[nH]c(=N)[nH]c(=N)c12

>  <score_type>  (23) 
oracle

>  <origin>  (23) 
adgpu

>  <m_score__min__energy>  (23) 
-7.8700000000000001

>  <m_primary>  (23) 
energy

$$$$
23:0
     RDKit          3D

 31 33  0  0  0  0  0  0  0  0999 V2000
   -0.7920   24.3830  -28.6540 O   0  0  0  0  0  0  0  0  0  0  0  0
   -1.8390   24.2850  -29.3490 C   0  0  0  0  0  0  0  0  0  0  0  0
   -2.7450   25.2930  -29.3240 N   0  0  0  0  0  0  0  0  0  0  0  0
   -3.8630   25.2520  -30.0460 N   0  0  0  0  0  0  0  0  0  0  0  0
   -4.1620   24.1920  -30.8440 C   0  0  0  0  0  0  0  0  0  0  0  0
   -5.2140   24.2340  -31.5380 O   0  0  0  0  0  0  0  0  0  0  0  0
   -3.2830   23.0820  -30.9000 C   0  0  0  0  0  0  0  0  0  0  0  0
   -3.5330   21.9230  -31.6910 C   0  0  0  0  0  0  0  0  0  0  0  0
   -4.7760   21.7400  -32.3900 N   0  0  0  0  0  0  0  0  0  0  0  0
   -5.5240   20.4840  -32.3610 C   0  0  0  0  0  0  0  0  0  0  0  0
   -6.9980   20.7540  -32.2200 C   0  0  0  0  0  0  0  0  0  0  0  0
   -7.4640   21.9930  -31.7540 C   0  0  0  0  0  0  0  0  0  0  0  0
   -8.8360   22.2230  -31.6360 C   0  0  0  0  0  0  0  0  0  0  0  0
   -9.7320   21.2120  -31.9830 C   0  0  0  0  0  0  0  0  0  0  0  0
   -9.2680   20.0140  -32.4300 N   0  0  0  0  0  0  0  0  0  0  0  0
   -7.9360   19.7650  -32.5540 C   0  0  0  0  0  0  0  0  0  0  0  0
   -2.5720   20.9010  -31.7410 C   0  0  0  0  0  0  0  0  0  0  0  0
   -1.3910   20.9940  -31.0120 C   0  0  0  0  0  0  0  0  0  0  0  0
   -1.1460   22.1070  -30.2130 C   0  0  0  0  0  0  0  0  0  0  0  0
   -2.0800   23.1550  -30.1470 C   0  0  0  0  0  0  0  0  0  0  0  0
   -4.5180   26.0640  -29.9990 H   0  0  0  0  0  0  0  0  0  0  0  0
   -5.2030   22.5550  -32.8840 H   0  0  0  0  0  0  0  0  0  0  0  0
   -5.3442   19.9335  -33.2962 H   0  0  0  0  0  0  0  0  0  0  0  0
   -5.1867   19.8877  -31.5004 H   0  0  0  0  0  0  0  0  0  0  0  0
   -6.7484   22.7828  -31.4818 H   0  0  0  0  0  0  0  0  0  0  0  0
   -9.2070   23.1927  -31.2727 H   0  0  0  0  0  0  0  0  0  0  0  0
  -10.8150   21.3836  -31.8951 H   0  0  0  0  0  0  0  0  0  0  0  0
   -7.5932   18.7850  -32.9174 H   0  0  0  0  0  0  0  0  0  0  0  0
   -2.7555   20.0142  -32.3654 H   0  0  0  0  0  0  0  0  0  0  0  0
   -0.6479   20.1848  -31.0672 H   0  0  0  0  0  0  0  0  0  0  0  0
   -0.2154   22.1667  -29.6295 H   0  0  0  0  0  0  0  0  0  0  0  0
  1  2  2  0
  2  3  1  0
  3  4  1  0
  4  5  1  0
  5  6  2  0
  5  7  1  0
  7  8  2  0
  8  9  1  0
  9 10  1  0
 10 11  1  0
 11 12  2  0
 12 13  1  0
 13 14  2  0
 14 15  1  0
 15 16  2  0
  8 17  1  0
 17 18  2  0
 18 19  1  0
 19 20  2  0
 20  2  1  0
 20  7  1  0
 16 11  1  0
  4 21  1  0
  9 22  1  0
 10 23  1  0
 10 24  1  0
 12 25  1  0
 13 26  1  0
 14 27  1  0
 16 28  1  0
 17 29  1  0
 18 30  1  0
 19 31  1  0
M  CHG  1   3  -1
M  END
>  <UniqueID>  (24) 
21

>  <SMILES>  (24) 
O=c1[n-][nH]c(=O)c2c(NCc3cccnc3)cccc12

>  <Energy>  (24) 
47.37310484608736

>  <Genealogy>  (24) 
O=c1[n-][nH]c(=O)c2c(NCc3cccnc3)cccc12 (protonated)
O=c1[n-][nH]c(=O)c2c(NCc3cccnc3)cccc12 (3D coordinates assigned)
O=c1[n-][nH]c(=O)c2c(NCc3cccnc3)cccc12 (optimized conformer: 47.37310484608736 kcal/mol)

>  <smiles>  (24) 
O=c1[nH][nH]c(=O)c2c(NCc3cccnc3)cccc12

>  <score_type>  (24) 
oracle

>  <origin>  (24) 
adgpu

>  <m_score__min__energy>  (24) 
-9.0999999999999996

>  <m_primary>  (24) 
energy

$$$$
24:0
     RDKit          3D

 32 34  0  0  0  0  0  0  0  0999 V2000
   -1.9700   25.5230  -29.6170 H   0  0  0  0  0  0  0  0  0  0  0  0
   -2.4900   24.6210  -29.6930 N   0  0  0  0  0  0  0  0  0  0  0  0
   -3.6360   24.5580  -30.2870 C   0  0  0  0  0  0  0  0  0  0  0  0
   -4.2520   25.6160  -30.8440 N   0  0  0  0  0  0  0  0  0  0  0  0
   -5.3860   25.1460  -31.3410 N   0  0  0  0  0  0  0  0  0  0  0  0
   -5.4110   23.8250  -31.0640 C   0  0  0  0  0  0  0  0  0  0  0  0
   -6.5070   22.9120  -31.4450 C   0  0  0  0  0  0  0  0  0  0  0  0
   -7.8480   23.2870  -31.2540 C   0  0  0  0  0  0  0  0  0  0  0  0
   -8.0860   24.2745  -30.8319 H   0  0  0  0  0  0  0  0  0  0  0  0
   -8.8790   22.4110  -31.5980 C   0  0  0  0  0  0  0  0  0  0  0  0
   -9.9263   22.7074  -31.4387 H   0  0  0  0  0  0  0  0  0  0  0  0
   -8.5850   21.1590  -32.1440 C   0  0  0  0  0  0  0  0  0  0  0  0
   -9.4021   20.4685  -32.4003 H   0  0  0  0  0  0  0  0  0  0  0  0
   -7.2550   20.7780  -32.3670 C   0  0  0  0  0  0  0  0  0  0  0  0
   -6.9800   19.4750  -32.9090 N   0  0  0  0  0  0  0  0  0  0  0  0
   -7.4120   19.2460  -33.8310 H   0  0  0  0  0  0  0  0  0  0  0  0
   -6.1010   18.5180  -32.2860 C   0  0  0  0  0  0  0  0  0  0  0  0
   -5.4440   18.8430  -31.2590 O   0  0  0  0  0  0  0  0  0  0  0  0
   -5.9420   17.1490  -32.8330 C   0  0  0  0  0  0  0  0  0  0  0  0
   -4.8870   16.3100  -32.4230 C   0  0  0  0  0  0  0  0  0  0  0  0
   -4.1565   16.6714  -31.6842 H   0  0  0  0  0  0  0  0  0  0  0  0
   -4.7630   15.0200  -32.9500 C   0  0  0  0  0  0  0  0  0  0  0  0
   -3.9339   14.3729  -32.6277 H   0  0  0  0  0  0  0  0  0  0  0  0
   -5.6890   14.5520  -33.8840 C   0  0  0  0  0  0  0  0  0  0  0  0
   -5.5849   13.5398  -34.3018 H   0  0  0  0  0  0  0  0  0  0  0  0
   -6.7470   15.3680  -34.2880 C   0  0  0  0  0  0  0  0  0  0  0  0
   -7.4794   14.9959  -35.0195 H   0  0  0  0  0  0  0  0  0  0  0  0
   -6.8770   16.6580  -33.7640 C   0  0  0  0  0  0  0  0  0  0  0  0
   -7.7163   17.2940  -34.0817 H   0  0  0  0  0  0  0  0  0  0  0  0
   -6.2180   21.6520  -31.9950 C   0  0  0  0  0  0  0  0  0  0  0  0
   -5.1708   21.3462  -32.1360 H   0  0  0  0  0  0  0  0  0  0  0  0
   -4.3320   23.4560  -30.4130 O   0  0  0  0  0  0  0  0  0  0  0  0
  1  2  1  0
  2  3  2  0
  3  4  1  0
  4  5  1  0
  5  6  2  0
  6  7  1  0
  7  8  2  0
  8  9  1  0
  8 10  1  0
 10 11  1  0
 10 12  2  0
 12 13  1  0
 12 14  1  0
 14 15  1  0
 15 16  1  0
 15 17  1  0
 17 18  2  0
 17 19  1  0
 19 20  2  0
 20 21  1  0
 20 22  1  0
 22 23  1  0
 22 24  2  0
 24 25  1  0
 24 26  1  0
 26 27  1  0
 26 28  2  0
 28 29  1  0
 14 30  2  0
 30 31  1  0
  6 32  1  0
 32  3  1  0
 30  7  1  0
 28 19  1  0
M  CHG  1   4  -1
M  END
>  <UniqueID>  (25) 
22

>  <SMILES>  (25) 
[H]/N=c1\[n-]nc(-c2cccc(NC(=O)c3ccccc3)c2)o1

>  <Energy>  (25) 
77.08880933652108

>  <Genealogy>  (25) 
N=c1[n-]nc(-c2cccc(NC(=O)c3ccccc3)c2)o1 (protonated)
[H]/N=c1\[n-]nc(-c2cccc(NC(=O)c3ccccc3)c2)o1 (cis-trans isomerization)
[H]/N=c1\[n-]nc(-c2cccc(NC(=O)c3ccccc3)c2)o1 (3D coordinates assigned)
[H]/N=c1\[n-]nc(-c2cccc(NC(=O)c3ccccc3)c2)o1 (optimized conformer: 77.08880933652108 kcal/mol)

>  <smiles>  (25) 
N=c1[nH]nc(-c2cccc(NC(=O)c3ccccc3)c2)o1

>  <score_type>  (25) 
oracle

>  <origin>  (25) 
adgpu

>  <m_score__min__energy>  (25) 
-9.6799999999999997

>  <m_primary>  (25) 
energy

$$$$
25:0
     RDKit          3D

 42 44  0  0  0  0  0  0  0  0999 V2000
  -10.0449   18.9720  -31.1959 H   0  0  0  0  0  0  0  0  0  0  0  0
   -9.0350   19.1500  -31.5940 C   0  0  0  0  0  0  0  0  0  0  0  0
   -8.3980   18.1620  -32.3450 C   0  0  0  0  0  0  0  0  0  0  0  0
   -8.9056   17.2052  -32.5372 H   0  0  0  0  0  0  0  0  0  0  0  0
   -7.1170   18.3860  -32.8530 C   0  0  0  0  0  0  0  0  0  0  0  0
   -6.6240   17.6072  -33.4533 H   0  0  0  0  0  0  0  0  0  0  0  0
   -6.4520   19.6000  -32.6030 C   0  0  0  0  0  0  0  0  0  0  0  0
   -5.0730   19.8160  -33.1650 C   0  0  0  0  0  0  0  0  0  0  0  0
   -4.3543   19.9286  -32.3399 H   0  0  0  0  0  0  0  0  0  0  0  0
   -4.7893   18.9513  -33.7830 H   0  0  0  0  0  0  0  0  0  0  0  0
   -5.0673   20.7260  -33.7830 H   0  0  0  0  0  0  0  0  0  0  0  0
   -7.0960   20.6020  -31.8390 C   0  0  0  0  0  0  0  0  0  0  0  0
   -6.4580   21.8720  -31.6150 N   0  0  0  0  0  0  0  0  0  0  0  0
   -5.5350   21.8910  -31.1280 H   0  0  0  0  0  0  0  0  0  0  0  0
   -7.0440   23.1310  -31.9860 C   0  0  0  0  0  0  0  0  0  0  0  0
   -8.2550   23.1980  -32.3310 O   0  0  0  0  0  0  0  0  0  0  0  0
   -6.2190   24.3780  -31.9530 C   0  0  0  0  0  0  0  0  0  0  0  0
   -6.8729   25.2441  -31.7736 H   0  0  0  0  0  0  0  0  0  0  0  0
   -5.7022   24.4978  -32.9166 H   0  0  0  0  0  0  0  0  0  0  0  0
   -5.2070   24.2850  -30.8580 C   0  0  0  0  0  0  0  0  0  0  0  0
   -5.3240   23.4750  -29.7870 N   0  0  0  0  0  0  0  0  0  0  0  0
   -4.2270   23.6500  -29.0670 N   0  0  0  0  0  0  0  0  0  0  0  0
   -3.4860   24.5530  -29.7370 C   0  0  0  0  0  0  0  0  0  0  0  0
   -2.3330   25.0100  -29.3450 N   0  0  0  0  0  0  0  0  0  0  0  0
   -1.5980   24.5890  -28.1840 C   0  0  0  0  0  0  0  0  0  0  0  0
   -1.6120   25.3220  -26.9810 C   0  0  0  0  0  0  0  0  0  0  0  0
   -2.1817   26.2609  -26.9194 H   0  0  0  0  0  0  0  0  0  0  0  0
   -0.9060   24.8630  -25.8650 C   0  0  0  0  0  0  0  0  0  0  0  0
   -0.9095   25.4503  -24.9349 H   0  0  0  0  0  0  0  0  0  0  0  0
   -0.1900   23.6510  -25.9270 C   0  0  0  0  0  0  0  0  0  0  0  0
    0.5350   23.1490  -24.8370 O   0  0  0  0  0  0  0  0  0  0  0  0
   -0.0510   22.5100  -23.7080 C   0  0  0  0  0  0  0  0  0  0  0  0
    0.3540   22.9516  -22.7855 H   0  0  0  0  0  0  0  0  0  0  0  0
   -1.1419   22.6493  -23.7330 H   0  0  0  0  0  0  0  0  0  0  0  0
    0.1820   21.4353  -23.7330 H   0  0  0  0  0  0  0  0  0  0  0  0
   -0.2030   22.9120  -27.1150 C   0  0  0  0  0  0  0  0  0  0  0  0
    0.3469   21.9610  -27.1716 H   0  0  0  0  0  0  0  0  0  0  0  0
   -0.9090   23.3720  -28.2310 C   0  0  0  0  0  0  0  0  0  0  0  0
   -0.9228   22.7724  -29.1531 H   0  0  0  0  0  0  0  0  0  0  0  0
   -4.0790   24.9520  -30.8350 O   0  0  0  0  0  0  0  0  0  0  0  0
   -8.3920   20.3650  -31.3470 C   0  0  0  0  0  0  0  0  0  0  0  0
   -8.9039   21.1436  -30.7624 H   0  0  0  0  0  0  0  0  0  0  0  0
  1  2  1  0
  2  3  2  0
  3  4  1  0
  3  5  1  0
  5  6  1  0
  5  7  2  0
  7  8  1  0
  8  9  1  0
  8 10  1  0
  8 11  1  0
  7 12  1  0
 12 13  1  0
 13 14  1  0
 13 15  1  0
 15 16  2  0
 15 17  1  0
 17 18  1  0
 17 19  1  0
 17 20  1  0
 20 21  2  0
 21 22  1  0
 22 23  1  0
 23 24  2  0
 24 25  1  0
 25 26  2  0
 26 27  1  0
 26 28  1  0
 28 29  1  0
 28 30  2  0
 30 31  1  0
 31 32  1  0
 32 33  1  0
 32 34  1  0
 32 35  1  0
 30 36  1  0
 36 37  1  0
 36 38  2  0
 38 39  1  0
 23 40  1  0
 12 41  2  0
 41 42  1  0
 41  2  1  0
 40 20  1  0
 38 25  1  0
M  CHG  1  22  -1
M  END
>  <UniqueID>  (26) 
23

>  <SMILES>  (26) 
COc1ccc(/N=c2\[n-]nc(CC(=O)Nc3ccccc3C)o2)cc1

>  <Energy>  (26) 
85.94242536754325

>  <Genealogy>  (26) 
COc1ccc(N=c2[n-]nc(CC(=O)Nc3ccccc3C)o2)cc1 (protonated)
COc1ccc(/N=c2\[n-]nc(CC(=O)Nc3ccccc3C)o2)cc1 (cis-trans isomerization)
COc1ccc(/N=c2\[n-]nc(CC(=O)Nc3ccccc3C)o2)cc1 (3D coordinates assigned)
COc1ccc(/N=c2\[n-]nc(CC(=O)Nc3ccccc3C)o2)cc1 (optimized conformer: 85.94242536754325 kcal/mol)

>  <smiles>  (26) 
COc1ccc(N=c2[nH]nc(CC(=O)Nc3ccccc3C)o2)cc1

>  <score_type>  (26) 
oracle

>  <origin>  (26) 
adgpu

>  <m_score__min__energy>  (26) 
-9.25

>  <m_primary>  (26) 
energy

$$$$
26:0
     RDKit          3D

 47 51  0  0  0  0  0  0  0  0999 V2000
   -2.9428   25.9636  -28.9727 H   0  0  0  0  0  0  0  0  0  0  0  0
   -3.0840   24.9190  -29.2870 C   0  0  0  0  0  0  0  0  0  0  0  0
   -3.7560   24.6490  -30.4440 N   0  0  0  0  0  0  0  0  0  0  0  0
   -3.9390   23.3670  -30.8440 C   0  0  0  0  0  0  0  0  0  0  0  0
   -4.5930   23.0210  -31.9810 N   0  0  0  0  0  0  0  0  0  0  0  0
   -4.6280   21.6740  -32.1190 C   0  0  0  0  0  0  0  0  0  0  0  0
   -5.1690   21.1080  -33.1590 N   0  0  0  0  0  0  0  0  0  0  0  0
   -5.3020   19.6990  -33.3920 C   0  0  0  0  0  0  0  0  0  0  0  0
   -4.2080   18.9910  -33.7820 N   0  0  0  0  0  0  0  0  0  0  0  0
   -4.2670   17.6630  -34.0630 C   0  0  0  0  0  0  0  0  0  0  0  0
   -3.3545   17.1254  -34.3601 H   0  0  0  0  0  0  0  0  0  0  0  0
   -5.4880   16.9730  -33.9760 C   0  0  0  0  0  0  0  0  0  0  0  0
   -5.5600   15.5620  -34.2560 N   0  0  0  0  0  0  0  0  0  0  0  0
   -4.3610   14.7970  -34.6140 C   0  0  0  0  0  0  0  0  0  0  0  0
   -4.4216   14.5049  -35.6728 H   0  0  0  0  0  0  0  0  0  0  0  0
   -3.4752   15.4262  -34.4423 H   0  0  0  0  0  0  0  0  0  0  0  0
   -4.2450   13.5280  -33.7440 C   0  0  0  0  0  0  0  0  0  0  0  0
   -3.7658   12.7396  -34.3430 H   0  0  0  0  0  0  0  0  0  0  0  0
   -3.6545   13.8009  -32.8570 H   0  0  0  0  0  0  0  0  0  0  0  0
   -5.5430   13.0180  -33.2560 N   0  0  0  0  0  0  0  0  0  0  0  0
   -5.7410   13.4410  -32.3170 H   0  0  0  0  0  0  0  0  0  0  0  0
   -6.6550   13.3480  -34.1570 C   0  0  0  0  0  0  0  0  0  0  0  0
   -6.4316   12.9647  -35.1636 H   0  0  0  0  0  0  0  0  0  0  0  0
   -7.5754   12.8853  -33.7713 H   0  0  0  0  0  0  0  0  0  0  0  0
   -6.8550   14.8690  -34.2280 C   0  0  0  0  0  0  0  0  0  0  0  0
   -7.4172   15.1171  -35.1404 H   0  0  0  0  0  0  0  0  0  0  0  0
   -7.4113   15.1946  -33.3367 H   0  0  0  0  0  0  0  0  0  0  0  0
   -6.6330   17.6900  -33.5950 C   0  0  0  0  0  0  0  0  0  0  0  0
   -7.6014   17.1744  -33.5154 H   0  0  0  0  0  0  0  0  0  0  0  0
   -6.5470   19.0540  -33.3170 C   0  0  0  0  0  0  0  0  0  0  0  0
   -7.4484   19.6207  -33.0408 H   0  0  0  0  0  0  0  0  0  0  0  0
   -3.8290   20.8700  -30.8490 S   0  0  0  0  0  0  0  0  0  0  0  0
   -3.4500   22.3180  -30.0920 C   0  0  0  0  0  0  0  0  0  0  0  0
   -2.7580   22.5370  -28.9080 C   0  0  0  0  0  0  0  0  0  0  0  0
   -2.3706   21.6945  -28.3163 H   0  0  0  0  0  0  0  0  0  0  0  0
   -2.5650   23.8700  -28.4840 C   0  0  0  0  0  0  0  0  0  0  0  0
   -1.8330   24.1660  -27.2250 C   0  0  0  0  0  0  0  0  0  0  0  0
   -0.9650   23.3340  -26.5320 C   0  0  0  0  0  0  0  0  0  0  0  0
   -0.6851   22.3144  -26.8354 H   0  0  0  0  0  0  0  0  0  0  0  0
   -0.5180   23.9680  -25.4300 N   0  0  0  0  0  0  0  0  0  0  0  0
   -1.0660   25.1720  -25.4140 N   0  0  0  0  0  0  0  0  0  0  0  0
   -0.8780   26.1340  -24.3360 C   0  0  0  0  0  0  0  0  0  0  0  0
   -0.9779   25.6230  -23.3670 H   0  0  0  0  0  0  0  0  0  0  0  0
    0.1244   26.5804  -24.4136 H   0  0  0  0  0  0  0  0  0  0  0  0
   -1.6386   26.9249  -24.4136 H   0  0  0  0  0  0  0  0  0  0  0  0
   -1.8780   25.3280  -26.4740 C   0  0  0  0  0  0  0  0  0  0  0  0
   -2.4743   26.2231  -26.7044 H   0  0  0  0  0  0  0  0  0  0  0  0
  1  2  1  0
  2  3  2  0
  3  4  1  0
  4  5  1  0
  5  6  1  0
  6  7  2  0
  7  8  1  0
  8  9  2  0
  9 10  1  0
 10 11  1  0
 10 12  2  0
 12 13  1  0
 13 14  1  0
 14 15  1  0
 14 16  1  0
 14 17  1  0
 17 18  1  0
 17 19  1  0
 17 20  1  0
 20 21  1  0
 20 22  1  0
 22 23  1  0
 22 24  1  0
 22 25  1  0
 25 26  1  0
 25 27  1  0
 12 28  1  0
 28 29  1  0
 28 30  2  0
 30 31  1  0
  6 32  1  0
 32 33  1  0
 33 34  1  0
 34 35  1  0
 34 36  2  0
 36 37  1  0
 37 38  1  0
 38 39  1  0
 38 40  2  0
 40 41  1  0
 41 42  1  0
 42 43  1  0
 42 44  1  0
 42 45  1  0
 41 46  1  0
 46 47  1  0
 36  2  1  0
 46 37  2  0
 33  4  2  0
 30  8  1  0
 25 13  1  0
M  CHG  1   5  -1
M  END
>  <UniqueID>  (27) 
24

>  <SMILES>  (27) 
Cn1cc(-c2cnc3[n-]/c(=N/c4ccc(N5CCNCC5)cn4)sc3c2)cn1

>  <Energy>  (27) 
135.9788131245201

>  <Genealogy>  (27) 
Cn1cc(-c2cnc3[n-]c(=Nc4ccc(N5CCNCC5)cn4)sc3c2)cn1 (protonated)
Cn1cc(-c2cnc3[n-]/c(=N/c4ccc(N5CCNCC5)cn4)sc3c2)cn1 (cis-trans isomerization)
Cn1cc(-c2cnc3[n-]/c(=N/c4ccc(N5CCNCC5)cn4)sc3c2)cn1 (3D coordinates assigned)
Cn1cc(-c2cnc3[n-]/c(=N/c4ccc(N5CCNCC5)cn4)sc3c2)cn1 (nonaromatic ring conformer: 135.9788131245201 kcal/mol)

>  <smiles>  (27) 
Cn1cc(-c2cnc3[nH]c(=Nc4ccc(N5CCNCC5)cn4)sc3c2)cn1

>  <score_type>  (27) 
oracle

>  <origin>  (27) 
adgpu

>  <m_score__min__energy>  (27) 
-9.3599999999999994

>  <m_primary>  (27) 
energy

$$$$
27:0
     RDKit          3D

 46 48  0  0  0  0  0  0  0  0999 V2000
   -7.0400   17.7310  -33.1010 C   0  0  0  0  0  0  0  0  0  0  0  0
   -8.3460   18.3920  -33.0180 N   0  0  0  0  0  0  0  0  0  0  0  0
   -8.7080   18.7330  -31.6320 C   0  0  0  0  0  0  0  0  0  0  0  0
   -8.1810   20.1170  -31.2050 C   0  0  0  0  0  0  0  0  0  0  0  0
   -8.1570   21.0600  -32.3470 N   0  0  0  0  0  0  0  0  0  0  0  0
   -6.8610   21.0330  -33.0550 C   0  0  0  0  0  0  0  0  0  0  0  0
   -5.7700   21.7190  -32.2800 C   0  0  0  0  0  0  0  0  0  0  0  0
   -6.0290   22.6980  -31.3990 C   0  0  0  0  0  0  0  0  0  0  0  0
   -4.9200   23.3640  -30.6790 C   0  0  0  0  0  0  0  0  0  0  0  0
   -3.8040   22.7270  -30.1730 C   0  0  0  0  0  0  0  0  0  0  0  0
   -3.0460   23.7450  -29.6100 C   0  0  0  0  0  0  0  0  0  0  0  0
   -1.7430   23.6090  -28.9160 C   0  0  0  0  0  0  0  0  0  0  0  0
   -1.1020   24.7500  -28.3970 C   0  0  0  0  0  0  0  0  0  0  0  0
    0.1280   24.6380  -27.7410 C   0  0  0  0  0  0  0  0  0  0  0  0
    0.7300   23.3870  -27.5920 C   0  0  0  0  0  0  0  0  0  0  0  0
    1.9230   23.2800  -26.9550 F   0  0  0  0  0  0  0  0  0  0  0  0
    0.1050   22.2470  -28.1010 C   0  0  0  0  0  0  0  0  0  0  0  0
   -1.1240   22.3540  -28.7600 C   0  0  0  0  0  0  0  0  0  0  0  0
   -3.6770   24.9250  -29.7890 N   0  0  0  0  0  0  0  0  0  0  0  0
   -4.8030   24.6900  -30.4440 N   0  0  0  0  0  0  0  0  0  0  0  0
   -5.7230   25.7510  -30.8430 C   0  0  0  0  0  0  0  0  0  0  0  0
   -7.4460   23.0990  -31.0610 C   0  0  0  0  0  0  0  0  0  0  0  0
   -8.4970   22.4530  -31.9830 C   0  0  0  0  0  0  0  0  0  0  0  0
   -6.6610   17.5392  -32.0863 H   0  0  0  0  0  0  0  0  0  0  0  0
   -7.1451   16.7776  -33.6395 H   0  0  0  0  0  0  0  0  0  0  0  0
   -6.3340   18.3803  -33.6395 H   0  0  0  0  0  0  0  0  0  0  0  0
   -8.3230   19.2590  -33.6030 H   0  0  0  0  0  0  0  0  0  0  0  0
   -9.8044   18.7309  -31.5436 H   0  0  0  0  0  0  0  0  0  0  0  0
   -8.2463   17.9829  -30.9730 H   0  0  0  0  0  0  0  0  0  0  0  0
   -8.8352   20.5226  -30.4192 H   0  0  0  0  0  0  0  0  0  0  0  0
   -7.1530   19.9970  -30.8324 H   0  0  0  0  0  0  0  0  0  0  0  0
   -6.5710   19.9850  -33.2211 H   0  0  0  0  0  0  0  0  0  0  0  0
   -6.9869   21.5719  -34.0056 H   0  0  0  0  0  0  0  0  0  0  0  0
   -4.7269   21.4087  -32.4401 H   0  0  0  0  0  0  0  0  0  0  0  0
   -3.5683   21.6531  -30.2081 H   0  0  0  0  0  0  0  0  0  0  0  0
   -1.5726   25.7380  -28.5084 H   0  0  0  0  0  0  0  0  0  0  0  0
    0.6217   25.5364  -27.3420 H   0  0  0  0  0  0  0  0  0  0  0  0
    0.5804   21.2620  -27.9834 H   0  0  0  0  0  0  0  0  0  0  0  0
   -1.6103   21.4516  -29.1591 H   0  0  0  0  0  0  0  0  0  0  0  0
   -6.1398   26.2316  -29.9456 H   0  0  0  0  0  0  0  0  0  0  0  0
   -5.1827   26.4988  -31.4420 H   0  0  0  0  0  0  0  0  0  0  0  0
   -6.5398   25.3220  -31.4420 H   0  0  0  0  0  0  0  0  0  0  0  0
   -7.6570   22.7963  -30.0247 H   0  0  0  0  0  0  0  0  0  0  0  0
   -7.5181   24.1882  -31.1968 H   0  0  0  0  0  0  0  0  0  0  0  0
   -9.4678   22.4548  -31.4657 H   0  0  0  0  0  0  0  0  0  0  0  0
   -8.5305   23.0408  -32.9122 H   0  0  0  0  0  0  0  0  0  0  0  0
  1  2  1  0
  2  3  1  0
  3  4  1  0
  4  5  1  0
  5  6  1  0
  6  7  1  0
  7  8  2  0
  8  9  1  0
  9 10  2  0
 10 11  1  0
 11 12  1  0
 12 13  2  0
 13 14  1  0
 14 15  2  0
 15 16  1  0
 15 17  1  0
 17 18  2  0
 11 19  2  0
 19 20  1  0
 20 21  1  0
  8 22  1  0
 22 23  1  0
 23  5  1  0
 20  9  1  0
 18 12  1  0
  1 24  1  0
  1 25  1  0
  1 26  1  0
  2 27  1  0
  3 28  1  0
  3 29  1  0
  4 30  1  0
  4 31  1  0
  6 32  1  0
  6 33  1  0
  7 34  1  0
 10 35  1  0
 13 36  1  0
 14 37  1  0
 17 38  1  0
 18 39  1  0
 21 40  1  0
 21 41  1  0
 21 42  1  0
 22 43  1  0
 22 44  1  0
 23 45  1  0
 23 46  1  0
M  END
>  <UniqueID>  (28) 
25

>  <SMILES>  (28) 
CNCCN1CC=C(c2cc(-c3ccc(F)cc3)nn2C)CC1

>  <Energy>  (28) 
86.803001307721

>  <Genealogy>  (28) 
CNCCN1CC=C(c2cc(-c3ccc(F)cc3)nn2C)CC1 (3D coordinates assigned)
CNCCN1CC=C(c2cc(-c3ccc(F)cc3)nn2C)CC1 (nonaromatic ring conformer: 86.803001307721 kcal/mol)

>  <smiles>  (28) 
CNCCN1CC=C(c2cc(-c3ccc(F)cc3)nn2C)CC1

>  <score_type>  (28) 
oracle

>  <origin>  (28) 
adgpu

>  <m_score__min__energy>  (28) 
-7.9900000000000002

>  <m_primary>  (28) 
energy

$$$$
28:0
     RDKit          3D

 37 40  0  0  0  0  0  0  0  0999 V2000
    0.2360   27.1750  -22.9760 C   0  0  0  0  0  0  0  0  0  0  0  0
   -0.8350   27.5460  -23.8370 O   0  0  0  0  0  0  0  0  0  0  0  0
   -0.9650   27.1180  -25.1670 C   0  0  0  0  0  0  0  0  0  0  0  0
   -0.2850   27.7570  -26.2420 C   0  0  0  0  0  0  0  0  0  0  0  0
   -0.4420   27.2970  -27.5620 C   0  0  0  0  0  0  0  0  0  0  0  0
   -1.2790   26.2060  -27.7730 C   0  0  0  0  0  0  0  0  0  0  0  0
   -1.5710   25.6070  -28.9360 N   0  0  0  0  0  0  0  0  0  0  0  0
   -2.4220   24.6150  -28.5560 C   0  0  0  0  0  0  0  0  0  0  0  0
   -3.0260   23.6640  -29.5150 C   0  0  0  0  0  0  0  0  0  0  0  0
   -2.6200   22.3220  -29.5500 C   0  0  0  0  0  0  0  0  0  0  0  0
   -3.1980   21.4350  -30.4600 C   0  0  0  0  0  0  0  0  0  0  0  0
   -4.1940   21.8920  -31.3390 C   0  0  0  0  0  0  0  0  0  0  0  0
   -4.8360   20.9890  -32.3290 C   0  0  0  0  0  0  0  0  0  0  0  0
   -6.2250   21.0660  -32.5480 C   0  0  0  0  0  0  0  0  0  0  0  0
   -6.8470   20.2190  -33.4700 C   0  0  0  0  0  0  0  0  0  0  0  0
   -6.0940   19.2800  -34.1780 C   0  0  0  0  0  0  0  0  0  0  0  0
   -4.7180   19.1840  -33.9630 C   0  0  0  0  0  0  0  0  0  0  0  0
   -3.9900   18.2630  -34.6420 F   0  0  0  0  0  0  0  0  0  0  0  0
   -4.0900   20.0290  -33.0420 C   0  0  0  0  0  0  0  0  0  0  0  0
   -4.5640   23.2020  -31.2930 N   0  0  0  0  0  0  0  0  0  0  0  0
   -4.0150   24.0850  -30.4170 C   0  0  0  0  0  0  0  0  0  0  0  0
   -2.6680   24.5740  -27.2190 N   0  0  0  0  0  0  0  0  0  0  0  0
   -1.9310   25.5910  -26.7520 C   0  0  0  0  0  0  0  0  0  0  0  0
   -1.8030   26.0150  -25.4320 C   0  0  0  0  0  0  0  0  0  0  0  0
   -0.0809   27.2848  -21.9284 H   0  0  0  0  0  0  0  0  0  0  0  0
    0.5143   26.1281  -23.1671 H   0  0  0  0  0  0  0  0  0  0  0  0
    1.1023   27.8254  -23.1671 H   0  0  0  0  0  0  0  0  0  0  0  0
    0.3689   28.6179  -26.0387 H   0  0  0  0  0  0  0  0  0  0  0  0
    0.0796   27.7836  -28.3994 H   0  0  0  0  0  0  0  0  0  0  0  0
   -1.8427   21.9668  -28.8574 H   0  0  0  0  0  0  0  0  0  0  0  0
   -2.8752   20.3838  -30.4886 H   0  0  0  0  0  0  0  0  0  0  0  0
   -6.8255   21.7987  -31.9889 H   0  0  0  0  0  0  0  0  0  0  0  0
   -7.9316   20.2924  -33.6381 H   0  0  0  0  0  0  0  0  0  0  0  0
   -6.5849   18.6162  -34.9049 H   0  0  0  0  0  0  0  0  0  0  0  0
   -3.0064   19.9437  -32.8730 H   0  0  0  0  0  0  0  0  0  0  0  0
   -4.3474   25.1336  -30.4153 H   0  0  0  0  0  0  0  0  0  0  0  0
   -2.3401   25.5043  -24.6191 H   0  0  0  0  0  0  0  0  0  0  0  0
  1  2  1  0
  2  3  1  0
  3  4  2  0
  4  5  1  0
  5  6  2  0
  6  7  1  0
  7  8  2  0
  8  9  1  0
  9 10  2  0
 10 11  1  0
 11 12  2  0
 12 13  1  0
 13 14  2  0
 14 15  1  0
 15 16  2  0
 16 17  1  0
 17 18  1  0
 17 19  2  0
 12 20  1  0
 20 21  2  0
  8 22  1  0
 22 23  1  0
 23 24  2  0
 24  3  1  0
 23  6  1  0
 21  9  1  0
 19 13  1  0
  1 25  1  0
  1 26  1  0
  1 27  1  0
  4 28  1  0
  5 29  1  0
 10 30  1  0
 11 31  1  0
 14 32  1  0
 15 33  1  0
 16 34  1  0
 19 35  1  0
 21 36  1  0
 24 37  1  0
M  CHG  1  22  -1
M  END
>  <UniqueID>  (29) 
26

>  <SMILES>  (29) 
COc1ccc2nc(-c3ccc(-c4cccc(F)c4)nc3)[n-]c2c1

>  <Energy>  (29) 
81.33504891258708

>  <Genealogy>  (29) 
COc1ccc2nc(-c3ccc(-c4cccc(F)c4)nc3)[n-]c2c1 (protonated)
COc1ccc2nc(-c3ccc(-c4cccc(F)c4)nc3)[n-]c2c1 (3D coordinates assigned)
COc1ccc2nc(-c3ccc(-c4cccc(F)c4)nc3)[n-]c2c1 (optimized conformer: 81.33504891258708 kcal/mol)

>  <smiles>  (29) 
COc1ccc2nc(-c3ccc(-c4cccc(F)c4)nc3)[nH]c2c1

>  <score_type>  (29) 
oracle

>  <origin>  (29) 
adgpu

>  <m_score__min__energy>  (29) 
-8.0500000000000007

>  <m_primary>  (29) 
energy

$$$$
29:0
     RDKit          3D

 35 36  0  0  0  0  0  0  0  0999 V2000
   -2.5030   21.0520  -33.3830 C   0  0  0  0  0  0  0  0  0  0  0  0
   -3.6400   21.8690  -32.7790 C   0  0  0  0  0  0  0  0  0  0  0  0
   -3.1770   22.6400  -31.6700 O   0  0  0  0  0  0  0  0  0  0  0  0
   -3.1120   22.2120  -30.3310 C   0  0  0  0  0  0  0  0  0  0  0  0
   -3.1440   20.8420  -29.9940 C   0  0  0  0  0  0  0  0  0  0  0  0
   -3.0770   20.4360  -28.6610 C   0  0  0  0  0  0  0  0  0  0  0  0
   -2.9810   21.3820  -27.6470 C   0  0  0  0  0  0  0  0  0  0  0  0
   -2.9520   22.7420  -27.9570 C   0  0  0  0  0  0  0  0  0  0  0  0
   -3.0200   23.1780  -29.2960 C   0  0  0  0  0  0  0  0  0  0  0  0
   -2.9840   24.6390  -29.5860 C   0  0  0  0  0  0  0  0  0  0  0  0
   -2.1880   25.3970  -28.9680 O   0  0  0  0  0  0  0  0  0  0  0  0
   -3.8590   25.1960  -30.5760 N   0  0  0  0  0  0  0  0  0  0  0  0
   -5.2770   25.4520  -30.3520 C   0  0  0  0  0  0  0  0  0  0  0  0
   -6.0910   24.2430  -30.7250 C   0  0  0  0  0  0  0  0  0  0  0  0
   -6.7960   23.5400  -29.7340 C   0  0  0  0  0  0  0  0  0  0  0  0
   -7.5740   22.4290  -30.0760 C   0  0  0  0  0  0  0  0  0  0  0  0
   -7.6570   22.0150  -31.4100 C   0  0  0  0  0  0  0  0  0  0  0  0
   -8.6360   20.6240  -31.8380 Cl  0  0  0  0  0  0  0  0  0  0  0  0
   -6.9620   22.7150  -32.4010 C   0  0  0  0  0  0  0  0  0  0  0  0
   -6.1830   23.8250  -32.0630 C   0  0  0  0  0  0  0  0  0  0  0  0
   -1.8960   20.6158  -32.5760 H   0  0  0  0  0  0  0  0  0  0  0  0
   -2.9205   20.2460  -34.0044 H   0  0  0  0  0  0  0  0  0  0  0  0
   -1.8723   21.7048  -34.0044 H   0  0  0  0  0  0  0  0  0  0  0  0
   -4.0440   22.5465  -33.5456 H   0  0  0  0  0  0  0  0  0  0  0  0
   -4.4214   21.1794  -32.4272 H   0  0  0  0  0  0  0  0  0  0  0  0
   -3.2225   20.0869  -30.7901 H   0  0  0  0  0  0  0  0  0  0  0  0
   -3.1002   19.3649  -28.4118 H   0  0  0  0  0  0  0  0  0  0  0  0
   -2.9278   21.0574  -26.5973 H   0  0  0  0  0  0  0  0  0  0  0  0
   -2.8752   23.4826  -27.1473 H   0  0  0  0  0  0  0  0  0  0  0  0
   -5.4402   25.6857  -29.2896 H   0  0  0  0  0  0  0  0  0  0  0  0
   -5.5904   26.3012  -30.9770 H   0  0  0  0  0  0  0  0  0  0  0  0
   -6.7360   23.8646  -28.6847 H   0  0  0  0  0  0  0  0  0  0  0  0
   -8.1212   21.8802  -29.2954 H   0  0  0  0  0  0  0  0  0  0  0  0
   -7.0286   22.3910  -33.4501 H   0  0  0  0  0  0  0  0  0  0  0  0
   -5.6402   24.3731  -32.8472 H   0  0  0  0  0  0  0  0  0  0  0  0
  1  2  1  0
  2  3  1  0
  3  4  1  0
  4  5  2  0
  5  6  1  0
  6  7  2  0
  7  8  1  0
  8  9  2  0
  9 10  1  0
 10 11  2  0
 10 12  1  0
 12 13  1  0
 13 14  1  0
 14 15  2  0
 15 16  1  0
 16 17  2  0
 17 18  1  0
 17 19  1  0
 19 20  2  0
  9  4  1  0
 20 14  1  0
  1 21  1  0
  1 22  1  0
  1 23  1  0
  2 24  1  0
  2 25  1  0
  5 26  1  0
  6 27  1  0
  7 28  1  0
  8 29  1  0
 13 30  1  0
 13 31  1  0
 15 32  1  0
 16 33  1  0
 19 34  1  0
 20 35  1  0
M  CHG  1  12  -1
M  END
>  <UniqueID>  (30) 
27

>  <SMILES>  (30) 
CCOc1ccccc1C(=O)[N-]Cc1ccc(Cl)cc1

>  <Energy>  (30) 
33.59739051279703

>  <Genealogy>  (30) 
CCOc1ccccc1C(=O)[N-]Cc1ccc(Cl)cc1 (protonated)
CCOc1ccccc1C(=O)[N-]Cc1ccc(Cl)cc1 (3D coordinates assigned)
CCOc1ccccc1C(=O)[N-]Cc1ccc(Cl)cc1 (optimized conformer: 33.59739051279703 kcal/mol)

>  <smiles>  (30) 
CCOc1ccccc1C(=O)NCc1ccc(Cl)cc1

>  <score_type>  (30) 
oracle

>  <origin>  (30) 
adgpu

>  <m_score__min__energy>  (30) 
-9.3200000000000003

>  <m_primary>  (30) 
energy

$$$$
30:0
     RDKit          3D

 43 45  0  0  0  0  0  0  0  0999 V2000
   -1.8010   23.7560  -29.4000 H   0  0  0  0  0  0  0  0  0  0  0  0
   -2.3910   24.5850  -29.6330 N   0  0  0  0  0  0  0  0  0  0  0  0
   -3.5540   24.5120  -30.2070 C   0  0  0  0  0  0  0  0  0  0  0  0
   -4.2280   25.6640  -30.4580 N   0  0  0  0  0  0  0  0  0  0  0  0
   -5.4220   25.6670  -31.0480 N   0  0  0  0  0  0  0  0  0  0  0  0
   -6.0290   24.5170  -31.4280 C   0  0  0  0  0  0  0  0  0  0  0  0
   -7.0124   24.5507  -31.9197 H   0  0  0  0  0  0  0  0  0  0  0  0
   -5.4050   23.2860  -31.1950 C   0  0  0  0  0  0  0  0  0  0  0  0
   -6.0980   22.0390  -31.6060 C   0  0  0  0  0  0  0  0  0  0  0  0
   -7.1700   21.5480  -30.8500 C   0  0  0  0  0  0  0  0  0  0  0  0
   -7.5052   22.0954  -29.9567 H   0  0  0  0  0  0  0  0  0  0  0  0
   -7.8160   20.3670  -31.2240 C   0  0  0  0  0  0  0  0  0  0  0  0
   -8.6775   20.0095  -30.6410 H   0  0  0  0  0  0  0  0  0  0  0  0
   -7.3760   19.6310  -32.3380 C   0  0  0  0  0  0  0  0  0  0  0  0
   -8.0880   18.3420  -32.7250 C   0  0  0  0  0  0  0  0  0  0  0  0
   -8.9279   18.1936  -32.0303 H   0  0  0  0  0  0  0  0  0  0  0  0
   -8.4053   18.4665  -33.7709 H   0  0  0  0  0  0  0  0  0  0  0  0
   -7.2370   17.1220  -32.6890 N   0  0  0  0  0  0  0  0  0  0  0  0
   -7.8650   16.3690  -32.3150 H   0  0  0  0  0  0  0  0  0  0  0  0
   -6.8030   16.6520  -34.0340 C   0  0  0  0  0  0  0  0  0  0  0  0
   -6.9514   15.5637  -34.0928 H   0  0  0  0  0  0  0  0  0  0  0  0
   -7.4064   17.1821  -34.7855 H   0  0  0  0  0  0  0  0  0  0  0  0
   -5.3220   16.9650  -34.3150 C   0  0  0  0  0  0  0  0  0  0  0  0
   -5.0581   16.5681  -35.3064 H   0  0  0  0  0  0  0  0  0  0  0  0
   -5.1941   18.0568  -34.2734 H   0  0  0  0  0  0  0  0  0  0  0  0
   -4.4190   16.3620  -33.3030 N   0  0  0  0  0  0  0  0  0  0  0  0
   -3.8290   15.1050  -33.7890 C   0  0  0  0  0  0  0  0  0  0  0  0
   -3.5364   14.4816  -32.9313 H   0  0  0  0  0  0  0  0  0  0  0  0
   -4.5678   14.5652  -34.3996 H   0  0  0  0  0  0  0  0  0  0  0  0
   -2.9417   15.3284  -34.3996 H   0  0  0  0  0  0  0  0  0  0  0  0
   -5.0560   16.1570  -31.9810 C   0  0  0  0  0  0  0  0  0  0  0  0
   -5.5300   15.1646  -31.9602 H   0  0  0  0  0  0  0  0  0  0  0  0
   -4.2812   16.2306  -31.2036 H   0  0  0  0  0  0  0  0  0  0  0  0
   -6.1210   17.2270  -31.7120 C   0  0  0  0  0  0  0  0  0  0  0  0
   -6.5185   17.0919  -30.6953 H   0  0  0  0  0  0  0  0  0  0  0  0
   -5.6565   18.2188  -31.8142 H   0  0  0  0  0  0  0  0  0  0  0  0
   -6.3240   20.1490  -33.1200 C   0  0  0  0  0  0  0  0  0  0  0  0
   -5.9410   19.5410  -34.2700 F   0  0  0  0  0  0  0  0  0  0  0  0
   -5.6810   21.3320  -32.7430 C   0  0  0  0  0  0  0  0  0  0  0  0
   -4.8409   21.7113  -33.3434 H   0  0  0  0  0  0  0  0  0  0  0  0
   -4.1330   23.2780  -30.5790 C   0  0  0  0  0  0  0  0  0  0  0  0
   -3.4210   22.0330  -30.3820 C   0  0  0  0  0  0  0  0  0  0  0  0
   -2.8520   21.0370  -30.2250 N   0  0  0  0  0  0  0  0  0  0  0  0
  1  2  1  0
  2  3  2  0
  3  4  1  0
  4  5  1  0
  5  6  2  0
  6  7  1  0
  6  8  1  0
  8  9  1  0
  9 10  2  0
 10 11  1  0
 10 12  1  0
 12 13  1  0
 12 14  2  0
 14 15  1  0
 15 16  1  0
 15 17  1  0
 15 18  1  0
 18 19  1  0
 18 20  1  0
 20 21  1  0
 20 22  1  0
 20 23  1  0
 23 24  1  0
 23 25  1  0
 23 26  1  0
 26 27  1  0
 27 28  1  0
 27 29  1  0
 27 30  1  0
 26 31  1  0
 31 32  1  0
 31 33  1  0
 31 34  1  0
 34 35  1  0
 34 36  1  0
 14 37  1  0
 37 38  1  0
 37 39  2  0
 39 40  1  0
  8 41  2  0
 41 42  1  0
 42 43  3  0
 41  3  1  0
 39  9  1  0
 34 18  1  0
M  CHG  2   4  -1  18   1
M  END
>  <UniqueID>  (31) 
28

>  <SMILES>  (31) 
[H]/N=c1/[n-]ncc(-c2ccc(C[NH+]3CCN(C)CC3)c(F)c2)c1C#N

>  <Energy>  (31) 
72.08375204515639

>  <Genealogy>  (31) 
CN1CC[NH+](Cc2ccc(-c3cn[n-]c(=N)c3C#N)cc2F)CC1 (protonated)
[H]/N=c1/[n-]ncc(-c2ccc(C[NH+]3CCN(C)CC3)c(F)c2)c1C#N (cis-trans isomerization)
[H]/N=c1/[n-]ncc(-c2ccc(C[NH+]3CCN(C)CC3)c(F)c2)c1C#N (3D coordinates assigned)
[H]/N=c1/[n-]ncc(-c2ccc(C[NH+]3CCN(C)CC3)c(F)c2)c1C#N (nonaromatic ring conformer: 72.08375204515639 kcal/mol)

>  <smiles>  (31) 
CN1CCN(Cc2ccc(-c3cn[nH]c(=N)c3C#N)cc2F)CC1

>  <score_type>  (31) 
oracle

>  <origin>  (31) 
adgpu

>  <m_score__min__energy>  (31) 
-8.9600000000000009

>  <m_primary>  (31) 
energy

$$$$
31:0
     RDKit          3D

 32 34  0  0  0  0  0  0  0  0999 V2000
   -4.2930   25.6480  -30.4460 O   0  0  0  0  0  0  0  0  0  0  0  0
   -5.0530   24.6890  -30.7490 C   0  0  0  0  0  0  0  0  0  0  0  0
   -6.3410   24.6270  -30.2300 C   0  0  0  0  0  0  0  0  0  0  0  0
   -7.1360   23.5850  -30.5790 N   0  0  0  0  0  0  0  0  0  0  0  0
   -6.7140   22.6240  -31.4050 N   0  0  0  0  0  0  0  0  0  0  0  0
   -7.6230   21.5530  -31.7290 C   0  0  0  0  0  0  0  0  0  0  0  0
   -8.9820   21.8310  -31.9480 C   0  0  0  0  0  0  0  0  0  0  0  0
   -9.8650   20.8040  -32.2900 C   0  0  0  0  0  0  0  0  0  0  0  0
   -9.4020   19.4930  -32.4180 C   0  0  0  0  0  0  0  0  0  0  0  0
   -8.0520   19.1950  -32.2010 C   0  0  0  0  0  0  0  0  0  0  0  0
   -7.6190   17.8700  -32.3580 O   0  0  0  0  0  0  0  0  0  0  0  0
   -6.4820   17.4660  -33.0720 C   0  0  0  0  0  0  0  0  0  0  0  0
   -5.7350   16.3310  -32.7040 C   0  0  0  0  0  0  0  0  0  0  0  0
   -4.6150   15.9530  -33.4510 C   0  0  0  0  0  0  0  0  0  0  0  0
   -4.2400   16.6950  -34.5740 C   0  0  0  0  0  0  0  0  0  0  0  0
   -4.9900   17.8110  -34.9570 C   0  0  0  0  0  0  0  0  0  0  0  0
   -6.1100   18.1910  -34.2120 C   0  0  0  0  0  0  0  0  0  0  0  0
   -7.1600   20.2340  -31.8810 C   0  0  0  0  0  0  0  0  0  0  0  0
   -5.4370   22.6690  -31.9060 C   0  0  0  0  0  0  0  0  0  0  0  0
   -5.0010   21.7470  -32.6500 O   0  0  0  0  0  0  0  0  0  0  0  0
   -4.6210   23.7070  -31.5800 N   0  0  0  0  0  0  0  0  0  0  0  0
   -6.7087   25.4086  -29.5488 H   0  0  0  0  0  0  0  0  0  0  0  0
   -9.3528   22.8620  -31.8498 H   0  0  0  0  0  0  0  0  0  0  0  0
  -10.9284   21.0288  -32.4590 H   0  0  0  0  0  0  0  0  0  0  0  0
  -10.1023   18.6899  -32.6909 H   0  0  0  0  0  0  0  0  0  0  0  0
   -6.0333   15.7395  -31.8259 H   0  0  0  0  0  0  0  0  0  0  0  0
   -4.0287   15.0708  -33.1543 H   0  0  0  0  0  0  0  0  0  0  0  0
   -3.3546   16.4011  -35.1568 H   0  0  0  0  0  0  0  0  0  0  0  0
   -4.6985   18.3905  -35.8454 H   0  0  0  0  0  0  0  0  0  0  0  0
   -6.7027   19.0641  -34.5224 H   0  0  0  0  0  0  0  0  0  0  0  0
   -6.0906   20.0129  -31.7484 H   0  0  0  0  0  0  0  0  0  0  0  0
   -3.6490   23.7440  -31.9640 H   0  0  0  0  0  0  0  0  0  0  0  0
  1  2  2  0
  2  3  1  0
  3  4  2  0
  4  5  1  0
  5  6  1  0
  6  7  2  0
  7  8  1  0
  8  9  2  0
  9 10  1  0
 10 11  1  0
 11 12  1  0
 12 13  2  0
 13 14  1  0
 14 15  2  0
 15 16  1  0
 16 17  2  0
 10 18  2  0
  5 19  1  0
 19 20  2  0
 19 21  1  0
 21  2  1  0
 18  6  1  0
 17 12  1  0
  3 22  1  0
  7 23  1  0
  8 24  1  0
  9 25  1  0
 13 26  1  0
 14 27  1  0
 15 28  1  0
 16 29  1  0
 17 30  1  0
 18 31  1  0
 21 32  1  0
M  END
>  <UniqueID>  (32) 
29

>  <SMILES>  (32) 
O=c1cnn(-c2cccc(Oc3ccccc3)c2)c(=O)[nH]1

>  <Energy>  (32) 
49.643248098806765

>  <Genealogy>  (32) 
O=c1cnn(-c2cccc(Oc3ccccc3)c2)c(=O)[nH]1 (3D coordinates assigned)
O=c1cnn(-c2cccc(Oc3ccccc3)c2)c(=O)[nH]1 (optimized conformer: 49.643248098806765 kcal/mol)

>  <smiles>  (32) 
O=c1cnn(-c2cccc(Oc3ccccc3)c2)c(=O)[nH]1

>  <score_type>  (32) 
oracle

>  <origin>  (32) 
adgpu

>  <m_score__min__energy>  (32) 
-7.9199999999999999

>  <m_primary>  (32) 
energy

$$$$
32:0
     RDKit          3D

 42 44  0  0  1  0  0  0  0  0999 V2000
   -6.5710   25.3000  -29.7140 C   0  0  0  0  0  0  0  0  0  0  0  0
   -6.4340   24.0990  -30.6040 C   0  0  0  0  0  0  0  0  0  0  0  0
   -7.6020   23.4320  -30.9040 C   0  0  0  0  0  0  0  0  0  0  0  0
   -7.5510   22.3180  -31.7170 C   0  0  0  0  0  0  0  0  0  0  0  0
   -8.7530   21.5890  -32.0570 C   0  0  0  0  0  0  0  0  0  0  0  0
   -9.7240   21.0100  -32.3460 N   0  0  0  0  0  0  0  0  0  0  0  0
   -6.3390   21.8860  -32.2170 C   0  0  0  0  0  0  0  0  0  0  0  0
   -5.1830   22.5800  -31.8950 C   0  0  0  0  0  0  0  0  0  0  0  0
   -3.8730   22.1250  -32.4270 C   0  0  0  0  0  0  0  0  0  0  0  0
   -5.1960   23.6940  -31.0880 C   0  0  0  0  0  0  0  0  0  0  0  0
   -4.0260   24.4260  -30.7410 N   0  0  0  0  0  0  0  0  0  0  0  0
   -3.3690   24.1440  -29.6880 C   0  0  0  0  0  0  0  0  0  0  0  0
   -2.2650   24.8950  -29.4340 N   0  0  0  0  0  0  0  0  0  0  0  0
   -1.5280   24.6520  -28.3440 C   0  0  0  0  0  0  0  0  0  0  0  0
   -0.4890   25.4040  -28.1610 N   0  0  0  0  0  0  0  0  0  0  0  0
    0.3680   25.2360  -27.0360 C   0  0  0  0  0  0  0  0  0  0  0  0
    1.5980   24.6440  -27.2350 C   0  0  0  0  0  0  0  0  0  0  0  0
    2.4950   24.4410  -26.2040 C   0  0  0  0  0  0  0  0  0  0  0  0
    2.1440   24.8470  -24.9250 C   0  0  0  0  0  0  0  0  0  0  0  0
    3.0740   24.6380  -23.8470 C   0  0  0  0  0  0  0  0  0  0  0  0
    3.8390   24.4560  -22.9820 N   0  0  0  0  0  0  0  0  0  0  0  0
    0.9120   25.4400  -24.7340 C   0  0  0  0  0  0  0  0  0  0  0  0
    0.0070   25.6480  -25.7570 C   0  0  0  0  0  0  0  0  0  0  0  0
   -1.8330   23.6740  -27.4630 N   0  0  0  0  0  0  0  0  0  0  0  0
   -2.9270   22.9370  -27.7230 C   0  0  0  0  0  0  0  0  0  0  0  0
   -3.7310   23.1330  -28.8270 C   0  0  0  0  0  0  0  0  0  0  0  0
   -4.8210   22.4170  -29.1100 F   0  0  0  0  0  0  0  0  0  0  0  0
   -6.5348   24.9824  -28.6615 H   0  0  0  0  0  0  0  0  0  0  0  0
   -5.7470   26.0006  -29.9142 H   0  0  0  0  0  0  0  0  0  0  0  0
   -7.5317   25.7970  -29.9142 H   0  0  0  0  0  0  0  0  0  0  0  0
   -8.5631   23.7832  -30.5004 H   0  0  0  0  0  0  0  0  0  0  0  0
   -6.2909   20.9987  -32.8654 H   0  0  0  0  0  0  0  0  0  0  0  0
   -3.1987   21.8908  -31.5900 H   0  0  0  0  0  0  0  0  0  0  0  0
   -4.0197   21.2252  -33.0425 H   0  0  0  0  0  0  0  0  0  0  0  0
   -3.4304   22.9220  -33.0425 H   0  0  0  0  0  0  0  0  0  0  0  0
   -1.9950   25.6600  -30.0910 H   0  0  0  0  0  0  0  0  0  0  0  0
    1.8743   24.3223  -28.2500 H   0  0  0  0  0  0  0  0  0  0  0  0
    3.4690   23.9664  -26.3938 H   0  0  0  0  0  0  0  0  0  0  0  0
    0.6378   25.7623  -23.7187 H   0  0  0  0  0  0  0  0  0  0  0  0
   -0.9665   26.1235  -25.5667 H   0  0  0  0  0  0  0  0  0  0  0  0
   -1.2250   23.5230  -26.6250 H   0  0  0  0  0  0  0  0  0  0  0  0
   -3.1951   22.1358  -27.0186 H   0  0  0  0  0  0  0  0  0  0  0  0
  1  2  1  0
  2  3  2  0
  3  4  1  0
  4  5  1  0
  5  6  3  0
  4  7  2  0
  7  8  1  0
  8  9  1  0
  8 10  2  0
 10 11  1  0
 11 12  2  0
 12 13  1  0
 13 14  1  0
 14 15  2  0
 15 16  1  0
 16 17  2  0
 17 18  1  0
 18 19  2  0
 19 20  1  0
 20 21  3  0
 19 22  1  0
 22 23  2  0
 14 24  1  0
 24 25  1  0
 25 26  2  0
 26 27  1  0
 10  2  1  0
 26 12  1  0
 23 16  1  0
  1 28  1  0
  1 29  1  0
  1 30  1  0
  3 31  1  0
  7 32  1  0
  9 33  1  0
  9 34  1  0
  9 35  1  0
 13 36  1  0
 17 37  1  0
 18 38  1  0
 22 39  1  0
 23 40  1  0
 24 41  1  0
 25 42  1  0
M  END
>  <smiles>  (33) 
Cc1cc(C#N)cc(C)c1N=c1[nH]c(=Nc2ccc(C#N)cc2)[nH]cc1F

>  <score_type>  (33) 
oracle

>  <origin>  (33) 
adgpu

>  <m_score__min__energy>  (33) 
-9.4299999999999997

>  <m_primary>  (33) 
energy

$$$$
33:0
     RDKit          3D

 32 34  0  0  0  0  0  0  0  0999 V2000
   -0.8990   26.2440  -24.5180 C   0  0  0  0  0  0  0  0  0  0  0  0
   -0.6090   25.4760  -25.6810 O   0  0  0  0  0  0  0  0  0  0  0  0
   -1.5590   25.1140  -26.6480 C   0  0  0  0  0  0  0  0  0  0  0  0
   -2.9150   24.9050  -26.3350 C   0  0  0  0  0  0  0  0  0  0  0  0
   -3.8230   24.5450  -27.3340 C   0  0  0  0  0  0  0  0  0  0  0  0
   -3.3970   24.3840  -28.6670 C   0  0  0  0  0  0  0  0  0  0  0  0
   -4.3210   24.0140  -29.7120 N   0  0  0  0  0  0  0  0  0  0  0  0
   -5.1710   22.9690  -29.7380 C   0  0  0  0  0  0  0  0  0  0  0  0
   -5.8330   23.0290  -30.9490 C   0  0  0  0  0  0  0  0  0  0  0  0
   -6.8910   22.1090  -31.4380 C   0  0  0  0  0  0  0  0  0  0  0  0
   -8.2250   22.3230  -31.0390 C   0  0  0  0  0  0  0  0  0  0  0  0
   -9.2490   21.4890  -31.4910 C   0  0  0  0  0  0  0  0  0  0  0  0
   -8.9590   20.4240  -32.3440 C   0  0  0  0  0  0  0  0  0  0  0  0
   -7.6440   20.1910  -32.7450 C   0  0  0  0  0  0  0  0  0  0  0  0
   -6.6050   21.0210  -32.3010 C   0  0  0  0  0  0  0  0  0  0  0  0
   -4.9700   20.6140  -32.8120 Cl  0  0  0  0  0  0  0  0  0  0  0  0
   -5.3730   24.1070  -31.6180 N   0  0  0  0  0  0  0  0  0  0  0  0
   -4.4600   24.6790  -30.8490 N   0  0  0  0  0  0  0  0  0  0  0  0
   -2.0410   24.5980  -28.9720 C   0  0  0  0  0  0  0  0  0  0  0  0
   -1.1340   24.9580  -27.9710 C   0  0  0  0  0  0  0  0  0  0  0  0
   -0.6744   25.6492  -23.6204 H   0  0  0  0  0  0  0  0  0  0  0  0
   -0.2831   27.1554  -24.5175 H   0  0  0  0  0  0  0  0  0  0  0  0
   -1.9636   26.5209  -24.5175 H   0  0  0  0  0  0  0  0  0  0  0  0
   -3.2619   25.0257  -25.2982 H   0  0  0  0  0  0  0  0  0  0  0  0
   -4.8807   24.3858  -27.0771 H   0  0  0  0  0  0  0  0  0  0  0  0
   -5.3106   22.2153  -28.9491 H   0  0  0  0  0  0  0  0  0  0  0  0
   -8.4626   23.1576  -30.3630 H   0  0  0  0  0  0  0  0  0  0  0  0
  -10.2863   21.6719  -31.1740 H   0  0  0  0  0  0  0  0  0  0  0  0
   -9.7673   19.7683  -32.7001 H   0  0  0  0  0  0  0  0  0  0  0  0
   -7.4198   19.3484  -33.4157 H   0  0  0  0  0  0  0  0  0  0  0  0
   -1.6907   24.4810  -30.0081 H   0  0  0  0  0  0  0  0  0  0  0  0
   -0.0764   25.1200  -28.2264 H   0  0  0  0  0  0  0  0  0  0  0  0
  1  2  1  0
  2  3  1  0
  3  4  2  0
  4  5  1  0
  5  6  2  0
  6  7  1  0
  7  8  1  0
  8  9  2  0
  9 10  1  0
 10 11  2  0
 11 12  1  0
 12 13  2  0
 13 14  1  0
 14 15  2  0
 15 16  1  0
  9 17  1  0
 17 18  2  0
  6 19  1  0
 19 20  2  0
 20  3  1  0
 18  7  1  0
 15 10  1  0
  1 21  1  0
  1 22  1  0
  1 23  1  0
  4 24  1  0
  5 25  1  0
  8 26  1  0
 11 27  1  0
 12 28  1  0
 13 29  1  0
 14 30  1  0
 19 31  1  0
 20 32  1  0
M  END
>  <UniqueID>  (34) 
30

>  <SMILES>  (34) 
COc1ccc(-n2cc(-c3ccccc3Cl)nn2)cc1

>  <Energy>  (34) 
76.2753412991085

>  <Genealogy>  (34) 
COc1ccc(-n2cc(-c3ccccc3Cl)nn2)cc1 (3D coordinates assigned)
COc1ccc(-n2cc(-c3ccccc3Cl)nn2)cc1 (optimized conformer: 76.2753412991085 kcal/mol)

>  <smiles>  (34) 
COc1ccc(-n2cc(-c3ccccc3Cl)nn2)cc1

>  <score_type>  (34) 
oracle

>  <origin>  (34) 
adgpu

>  <m_score__min__energy>  (34) 
-8.1500000000000004

>  <m_primary>  (34) 
energy

$$$$
34:0
     RDKit          3D

 55 58  0  0  0  0  0  0  0  0999 V2000
   -5.7180   26.3000  -30.4840 O   0  0  0  0  0  0  0  0  0  0  0  0
   -5.0410   25.2640  -30.7300 C   0  0  0  0  0  0  0  0  0  0  0  0
   -3.6320   25.2460  -30.4560 N   0  0  0  0  0  0  0  0  0  0  0  0
   -2.9820   24.5580  -29.3780 C   0  0  0  0  0  0  0  0  0  0  0  0
   -3.6690   23.5220  -28.7300 C   0  0  0  0  0  0  0  0  0  0  0  0
   -3.0650   22.8180  -27.6840 C   0  0  0  0  0  0  0  0  0  0  0  0
   -1.7610   23.1310  -27.2910 C   0  0  0  0  0  0  0  0  0  0  0  0
   -1.0570   24.1420  -27.9500 C   0  0  0  0  0  0  0  0  0  0  0  0
   -1.6600   24.8510  -28.9940 C   0  0  0  0  0  0  0  0  0  0  0  0
   -5.7120   24.0480  -31.2490 C   0  0  0  0  0  0  0  0  0  0  0  0
   -7.1000   23.8900  -31.1210 C   0  0  0  0  0  0  0  0  0  0  0  0
   -7.7310   22.7470  -31.6100 C   0  0  0  0  0  0  0  0  0  0  0  0
   -6.9910   21.7310  -32.2350 C   0  0  0  0  0  0  0  0  0  0  0  0
   -7.6660   20.5800  -32.7740 N   0  0  0  0  0  0  0  0  0  0  0  0
   -7.8510   19.3420  -32.0180 C   0  0  0  0  0  0  0  0  0  0  0  0
   -6.8810   18.2940  -32.4950 C   0  0  0  0  0  0  0  0  0  0  0  0
   -6.5060   18.2490  -33.8490 C   0  0  0  0  0  0  0  0  0  0  0  0
   -5.5720   17.3070  -34.2900 C   0  0  0  0  0  0  0  0  0  0  0  0
   -5.0020   16.4080  -33.3830 C   0  0  0  0  0  0  0  0  0  0  0  0
   -5.3630   16.4540  -32.0330 C   0  0  0  0  0  0  0  0  0  0  0  0
   -6.2960   17.3950  -31.5880 C   0  0  0  0  0  0  0  0  0  0  0  0
   -5.5900   21.8660  -32.3610 C   0  0  0  0  0  0  0  0  0  0  0  0
   -4.8050   20.8000  -32.9310 N   0  0  0  0  0  0  0  0  0  0  0  0
   -3.4520   20.9960  -33.4570 C   0  0  0  0  0  0  0  0  0  0  0  0
   -2.4390   20.9280  -32.3460 C   0  0  0  0  0  0  0  0  0  0  0  0
   -2.8500   20.6460  -31.0320 C   0  0  0  0  0  0  0  0  0  0  0  0
   -1.9140   20.6230  -29.9930 C   0  0  0  0  0  0  0  0  0  0  0  0
   -0.5680   20.8950  -30.2560 C   0  0  0  0  0  0  0  0  0  0  0  0
   -0.1560   21.1920  -31.5570 C   0  0  0  0  0  0  0  0  0  0  0  0
   -1.0880   21.2160  -32.6000 C   0  0  0  0  0  0  0  0  0  0  0  0
   -4.9660   23.0310  -31.8690 C   0  0  0  0  0  0  0  0  0  0  0  0
   -4.6897   23.2613  -29.0465 H   0  0  0  0  0  0  0  0  0  0  0  0
   -3.6166   22.0171  -27.1700 H   0  0  0  0  0  0  0  0  0  0  0  0
   -1.2890   22.5816  -26.4631 H   0  0  0  0  0  0  0  0  0  0  0  0
   -0.0268   24.3808  -27.6473 H   0  0  0  0  0  0  0  0  0  0  0  0
   -1.0993   25.6400  -29.5166 H   0  0  0  0  0  0  0  0  0  0  0  0
   -7.6954   24.6743  -30.6308 H   0  0  0  0  0  0  0  0  0  0  0  0
   -8.8207   22.6402  -31.5049 H   0  0  0  0  0  0  0  0  0  0  0  0
   -7.9580   20.5850  -33.7770 H   0  0  0  0  0  0  0  0  0  0  0  0
   -7.6776   19.5388  -30.9497 H   0  0  0  0  0  0  0  0  0  0  0  0
   -8.8777   18.9777  -32.1699 H   0  0  0  0  0  0  0  0  0  0  0  0
   -6.9491   18.9576  -34.5642 H   0  0  0  0  0  0  0  0  0  0  0  0
   -5.2851   17.2729  -35.3514 H   0  0  0  0  0  0  0  0  0  0  0  0
   -4.2698   15.6648  -33.7316 H   0  0  0  0  0  0  0  0  0  0  0  0
   -4.9120   15.7484  -31.3198 H   0  0  0  0  0  0  0  0  0  0  0  0
   -6.5730   17.4316  -30.5241 H   0  0  0  0  0  0  0  0  0  0  0  0
   -5.2050   19.8340  -32.9510 H   0  0  0  0  0  0  0  0  0  0  0  0
   -3.2332   20.2101  -34.1949 H   0  0  0  0  0  0  0  0  0  0  0  0
   -3.3947   21.9873  -33.9302 H   0  0  0  0  0  0  0  0  0  0  0  0
   -3.9101   20.4429  -30.8202 H   0  0  0  0  0  0  0  0  0  0  0  0
   -2.2372   20.3906  -28.9676 H   0  0  0  0  0  0  0  0  0  0  0  0
    0.1669   20.8751  -29.4377 H   0  0  0  0  0  0  0  0  0  0  0  0
    0.9031   21.4074  -31.7619 H   0  0  0  0  0  0  0  0  0  0  0  0
   -0.7619   21.4610  -33.6216 H   0  0  0  0  0  0  0  0  0  0  0  0
   -3.8769   23.1457  -31.9722 H   0  0  0  0  0  0  0  0  0  0  0  0
  1  2  2  0
  2  3  1  0
  3  4  1  0
  4  5  2  0
  5  6  1  0
  6  7  2  0
  7  8  1  0
  8  9  2  0
  2 10  1  0
 10 11  2  0
 11 12  1  0
 12 13  2  0
 13 14  1  0
 14 15  1  0
 15 16  1  0
 16 17  2  0
 17 18  1  0
 18 19  2  0
 19 20  1  0
 20 21  2  0
 13 22  1  0
 22 23  1  0
 23 24  1  0
 24 25  1  0
 25 26  2  0
 26 27  1  0
 27 28  2  0
 28 29  1  0
 29 30  2  0
 22 31  2  0
  9  4  1  0
 31 10  1  0
 21 16  1  0
 30 25  1  0
  5 32  1  0
  6 33  1  0
  7 34  1  0
  8 35  1  0
  9 36  1  0
 11 37  1  0
 12 38  1  0
 14 39  1  0
 15 40  1  0
 15 41  1  0
 17 42  1  0
 18 43  1  0
 19 44  1  0
 20 45  1  0
 21 46  1  0
 23 47  1  0
 24 48  1  0
 24 49  1  0
 26 50  1  0
 27 51  1  0
 28 52  1  0
 29 53  1  0
 30 54  1  0
 31 55  1  0
M  CHG  1   3  -1
M  END
>  <UniqueID>  (35) 
31

>  <SMILES>  (35) 
O=C([N-]c1ccccc1)c1ccc(NCc2ccccc2)c(NCc2ccccc2)c1

>  <Energy>  (35) 
65.73234948357279

>  <Genealogy>  (35) 
O=C([N-]c1ccccc1)c1ccc(NCc2ccccc2)c(NCc2ccccc2)c1 (protonated)
O=C([N-]c1ccccc1)c1ccc(NCc2ccccc2)c(NCc2ccccc2)c1 (3D coordinates assigned)
O=C([N-]c1ccccc1)c1ccc(NCc2ccccc2)c(NCc2ccccc2)c1 (optimized conformer: 65.73234948357279 kcal/mol)

>  <smiles>  (35) 
O=C(Nc1ccccc1)c1ccc(NCc2ccccc2)c(NCc2ccccc2)c1

>  <score_type>  (35) 
oracle

>  <origin>  (35) 
adgpu

>  <m_score__min__energy>  (35) 
-11.789999999999999

>  <m_primary>  (35) 
energy

$$$$
35:0
     RDKit          3D

 45 47  0  0  0  0  0  0  0  0999 V2000
   -6.7630   16.2970  -33.7700 C   0  0  0  0  0  0  0  0  0  0  0  0
   -6.7420   17.7160  -33.2670 C   0  0  0  0  0  0  0  0  0  0  0  0
   -7.7420   18.1490  -32.3830 C   0  0  0  0  0  0  0  0  0  0  0  0
   -7.7460   19.4580  -31.8990 C   0  0  0  0  0  0  0  0  0  0  0  0
   -6.7520   20.3630  -32.2920 C   0  0  0  0  0  0  0  0  0  0  0  0
   -6.7540   21.7110  -31.7820 N   0  0  0  0  0  0  0  0  0  0  0  0
   -5.5860   22.2460  -31.3220 C   0  0  0  0  0  0  0  0  0  0  0  0
   -5.5440   23.5470  -30.8100 C   0  0  0  0  0  0  0  0  0  0  0  0
   -4.2690   24.1230  -30.3250 C   0  0  0  0  0  0  0  0  0  0  0  0
   -3.8730   25.2110  -30.8240 O   0  0  0  0  0  0  0  0  0  0  0  0
   -3.4710   23.4600  -29.3180 N   0  0  0  0  0  0  0  0  0  0  0  0
   -3.1560   22.0320  -29.4160 C   0  0  0  0  0  0  0  0  0  0  0  0
   -2.9200   24.2100  -28.2210 C   0  0  0  0  0  0  0  0  0  0  0  0
   -1.5820   24.6380  -28.2480 C   0  0  0  0  0  0  0  0  0  0  0  0
   -1.0580   25.3800  -27.1840 C   0  0  0  0  0  0  0  0  0  0  0  0
   -1.8670   25.7060  -26.0930 C   0  0  0  0  0  0  0  0  0  0  0  0
   -3.2030   25.2940  -26.0630 C   0  0  0  0  0  0  0  0  0  0  0  0
   -3.7300   24.5530  -27.1260 C   0  0  0  0  0  0  0  0  0  0  0  0
   -6.7330   24.2910  -30.8130 C   0  0  0  0  0  0  0  0  0  0  0  0
   -6.7500   25.4740  -30.3750 O   0  0  0  0  0  0  0  0  0  0  0  0
   -7.8810   23.7320  -31.2800 N   0  0  0  0  0  0  0  0  0  0  0  0
   -7.9040   22.4560  -31.7510 C   0  0  0  0  0  0  0  0  0  0  0  0
   -8.9990   21.9660  -32.1460 O   0  0  0  0  0  0  0  0  0  0  0  0
   -5.7430   19.9360  -33.1690 C   0  0  0  0  0  0  0  0  0  0  0  0
   -5.7270   18.6190  -33.6630 C   0  0  0  0  0  0  0  0  0  0  0  0
   -4.6290   18.1970  -34.6040 C   0  0  0  0  0  0  0  0  0  0  0  0
   -6.7732   15.6050  -32.9150 H   0  0  0  0  0  0  0  0  0  0  0  0
   -7.6636   16.1379  -34.3812 H   0  0  0  0  0  0  0  0  0  0  0  0
   -5.8675   16.1114  -34.3812 H   0  0  0  0  0  0  0  0  0  0  0  0
   -8.5307   17.4497  -32.0683 H   0  0  0  0  0  0  0  0  0  0  0  0
   -8.5352   19.7811  -31.2042 H   0  0  0  0  0  0  0  0  0  0  0  0
   -4.6647   21.6458  -31.3543 H   0  0  0  0  0  0  0  0  0  0  0  0
   -3.0623   21.6070  -28.4057 H   0  0  0  0  0  0  0  0  0  0  0  0
   -3.9617   21.5151  -29.9579 H   0  0  0  0  0  0  0  0  0  0  0  0
   -2.2076   21.9021  -29.9579 H   0  0  0  0  0  0  0  0  0  0  0  0
   -0.9442   24.3888  -29.1089 H   0  0  0  0  0  0  0  0  0  0  0  0
   -0.0080   25.7070  -27.2066 H   0  0  0  0  0  0  0  0  0  0  0  0
   -1.4526   26.2876  -25.2563 H   0  0  0  0  0  0  0  0  0  0  0  0
   -3.8393   25.5525  -25.2038 H   0  0  0  0  0  0  0  0  0  0  0  0
   -4.7836   24.2375  -27.1042 H   0  0  0  0  0  0  0  0  0  0  0  0
   -8.7650   24.2910  -31.2660 H   0  0  0  0  0  0  0  0  0  0  0  0
   -4.9547   20.6400  -33.4739 H   0  0  0  0  0  0  0  0  0  0  0  0
   -3.7570   17.8619  -34.0232 H   0  0  0  0  0  0  0  0  0  0  0  0
   -4.9863   17.3721  -35.2380 H   0  0  0  0  0  0  0  0  0  0  0  0
   -4.3419   19.0488  -35.2380 H   0  0  0  0  0  0  0  0  0  0  0  0
  1  2  1  0
  2  3  2  0
  3  4  1  0
  4  5  2  0
  5  6  1  0
  6  7  1  0
  7  8  2  0
  8  9  1  0
  9 10  2  0
  9 11  1  0
 11 12  1  0
 11 13  1  0
 13 14  2  0
 14 15  1  0
 15 16  2  0
 16 17  1  0
 17 18  2  0
  8 19  1  0
 19 20  2  0
 19 21  1  0
 21 22  1  0
 22 23  2  0
  5 24  1  0
 24 25  2  0
 25 26  1  0
 25  2  1  0
 22  6  1  0
 18 13  1  0
  1 27  1  0
  1 28  1  0
  1 29  1  0
  3 30  1  0
  4 31  1  0
  7 32  1  0
 12 33  1  0
 12 34  1  0
 12 35  1  0
 14 36  1  0
 15 37  1  0
 16 38  1  0
 17 39  1  0
 18 40  1  0
 21 41  1  0
 24 42  1  0
 26 43  1  0
 26 44  1  0
 26 45  1  0
M  END
>  <UniqueID>  (36) 
32

>  <SMILES>  (36) 
Cc1ccc(-n2cc(C(=O)N(C)c3ccccc3)c(=O)[nH]c2=O)cc1C

>  <Energy>  (36) 
68.48542936640108

>  <Genealogy>  (36) 
Cc1ccc(-n2cc(C(=O)N(C)c3ccccc3)c(=O)[nH]c2=O)cc1C (3D coordinates assigned)
Cc1ccc(-n2cc(C(=O)N(C)c3ccccc3)c(=O)[nH]c2=O)cc1C (optimized conformer: 68.48542936640108 kcal/mol)

>  <smiles>  (36) 
Cc1ccc(-n2cc(C(=O)N(C)c3ccccc3)c(=O)[nH]c2=O)cc1C

>  <score_type>  (36) 
oracle

>  <origin>  (36) 
adgpu

>  <m_score__min__energy>  (36) 
-9.4900000000000002

>  <m_primary>  (36) 
energy

$$$$
36:0
     RDKit          3D

 40 42  0  0  0  0  0  0  0  0999 V2000
   -6.4550   19.2110  -33.4580 C   0  0  0  0  0  0  0  0  0  0  0  0
   -6.2010   20.6130  -33.4500 O   0  0  0  0  0  0  0  0  0  0  0  0
   -6.4490   21.4560  -32.3570 C   0  0  0  0  0  0  0  0  0  0  0  0
   -7.7380   21.4770  -31.8130 C   0  0  0  0  0  0  0  0  0  0  0  0
   -8.0330   22.2960  -30.7200 C   0  0  0  0  0  0  0  0  0  0  0  0
   -7.0400   23.1050  -30.1610 C   0  0  0  0  0  0  0  0  0  0  0  0
   -5.7470   23.1010  -30.6980 C   0  0  0  0  0  0  0  0  0  0  0  0
   -4.4800   24.0970  -29.9840 S   0  0  0  0  0  0  0  0  0  0  0  0
   -4.2730   25.3000  -30.8630 O   0  0  0  0  0  0  0  0  0  0  0  0
   -4.9100   24.5620  -28.6210 O   0  0  0  0  0  0  0  0  0  0  0  0
   -2.9630   23.2030  -29.8360 C   0  0  0  0  0  0  0  0  0  0  0  0
   -2.9060   21.8430  -30.1820 C   0  0  0  0  0  0  0  0  0  0  0  0
   -1.7090   21.1340  -30.0620 C   0  0  0  0  0  0  0  0  0  0  0  0
   -0.5600   21.7740  -29.6000 C   0  0  0  0  0  0  0  0  0  0  0  0
   -0.6050   23.1230  -29.2440 C   0  0  0  0  0  0  0  0  0  0  0  0
   -1.8100   23.8450  -29.3410 C   0  0  0  0  0  0  0  0  0  0  0  0
   -1.8730   25.2030  -28.9950 O   0  0  0  0  0  0  0  0  0  0  0  0
   -1.6110   25.7320  -27.7230 C   0  0  0  0  0  0  0  0  0  0  0  0
   -0.6040   26.6910  -27.5070 C   0  0  0  0  0  0  0  0  0  0  0  0
   -0.3620   27.1800  -26.2200 C   0  0  0  0  0  0  0  0  0  0  0  0
   -1.1110   26.7080  -25.1390 C   0  0  0  0  0  0  0  0  0  0  0  0
   -2.1000   25.7410  -25.3440 C   0  0  0  0  0  0  0  0  0  0  0  0
   -2.3430   25.2510  -26.6310 C   0  0  0  0  0  0  0  0  0  0  0  0
   -5.4500   22.2740  -31.7910 C   0  0  0  0  0  0  0  0  0  0  0  0
   -6.5214   18.8445  -32.4230 H   0  0  0  0  0  0  0  0  0  0  0  0
   -7.4036   19.0132  -33.9786 H   0  0  0  0  0  0  0  0  0  0  0  0
   -5.6361   18.6930  -33.9786 H   0  0  0  0  0  0  0  0  0  0  0  0
   -8.5249   20.8441  -32.2490 H   0  0  0  0  0  0  0  0  0  0  0  0
   -9.0491   22.3040  -30.2986 H   0  0  0  0  0  0  0  0  0  0  0  0
   -7.2745   23.7456  -29.2981 H   0  0  0  0  0  0  0  0  0  0  0  0
   -3.8091   21.3337  -30.5495 H   0  0  0  0  0  0  0  0  0  0  0  0
   -1.6727   20.0684  -30.3326 H   0  0  0  0  0  0  0  0  0  0  0  0
    0.3837   21.2151  -29.5158 H   0  0  0  0  0  0  0  0  0  0  0  0
    0.3059   23.6248  -28.8857 H   0  0  0  0  0  0  0  0  0  0  0  0
   -0.0052   27.0571  -28.3540 H   0  0  0  0  0  0  0  0  0  0  0  0
    0.4191   27.9374  -26.0581 H   0  0  0  0  0  0  0  0  0  0  0  0
   -0.9228   27.0969  -24.1274 H   0  0  0  0  0  0  0  0  0  0  0  0
   -2.6870   25.3657  -24.4928 H   0  0  0  0  0  0  0  0  0  0  0  0
   -3.1145   24.4825  -26.7863 H   0  0  0  0  0  0  0  0  0  0  0  0
   -4.4325   22.2635  -32.2088 H   0  0  0  0  0  0  0  0  0  0  0  0
  1  2  1  0
  2  3  1  0
  3  4  2  0
  4  5  1  0
  5  6  2  0
  6  7  1  0
  7  8  1  0
  8  9  2  0
  8 10  2  0
  8 11  1  0
 11 12  2  0
 12 13  1  0
 13 14  2  0
 14 15  1  0
 15 16  2  0
 16 17  1  0
 17 18  1  0
 18 19  2  0
 19 20  1  0
 20 21  2  0
 21 22  1  0
 22 23  2  0
  7 24  2  0
 24  3  1  0
 16 11  1  0
 23 18  1  0
  1 25  1  0
  1 26  1  0
  1 27  1  0
  4 28  1  0
  5 29  1  0
  6 30  1  0
 12 31  1  0
 13 32  1  0
 14 33  1  0
 15 34  1  0
 19 35  1  0
 20 36  1  0
 21 37  1  0
 22 38  1  0
 23 39  1  0
 24 40  1  0
M  END
>  <UniqueID>  (37) 
33

>  <SMILES>  (37) 
COc1cccc(S(=O)(=O)c2ccccc2Oc2ccccc2)c1

>  <Energy>  (37) 
51.28709879919981

>  <Genealogy>  (37) 
COc1cccc(S(=O)(=O)c2ccccc2Oc2ccccc2)c1 (3D coordinates assigned)
COc1cccc(S(=O)(=O)c2ccccc2Oc2ccccc2)c1 (optimized conformer: 51.28709879919981 kcal/mol)

>  <smiles>  (37) 
COc1cccc(S(=O)(=O)c2ccccc2Oc2ccccc2)c1

>  <score_type>  (37) 
oracle

>  <origin>  (37) 
adgpu

>  <m_score__min__energy>  (37) 
-8.8000000000000007

>  <m_primary>  (37) 
energy

$$$$
37:0
     RDKit          3D

 62 64  0  0  0  0  0  0  0  0999 V2000
   -3.3100   22.5248  -28.9803 H   0  0  0  0  0  0  0  0  0  0  0  0
   -2.4500   23.1550  -29.2510 C   0  0  0  0  0  0  0  0  0  0  0  0
   -2.6780   24.5780  -29.5490 C   0  0  0  0  0  0  0  0  0  0  0  0
   -1.9780   25.4730  -28.9960 O   0  0  0  0  0  0  0  0  0  0  0  0
   -3.6830   24.9300  -30.5070 N   0  0  0  0  0  0  0  0  0  0  0  0
   -4.8660   24.1810  -30.8270 C   0  0  0  0  0  0  0  0  0  0  0  0
   -6.1080   24.8220  -30.7320 C   0  0  0  0  0  0  0  0  0  0  0  0
   -6.1633   25.8560  -30.3609 H   0  0  0  0  0  0  0  0  0  0  0  0
   -7.2790   24.1530  -31.1070 C   0  0  0  0  0  0  0  0  0  0  0  0
   -8.2517   24.6585  -31.0151 H   0  0  0  0  0  0  0  0  0  0  0  0
   -7.2180   22.8450  -31.5980 C   0  0  0  0  0  0  0  0  0  0  0  0
   -8.1412   22.3240  -31.8915 H   0  0  0  0  0  0  0  0  0  0  0  0
   -5.9800   22.1980  -31.7160 C   0  0  0  0  0  0  0  0  0  0  0  0
   -5.8830   20.5850  -32.4230 S   0  0  0  0  0  0  0  0  0  0  0  0
   -6.5790   20.5780  -33.7590 O   0  0  0  0  0  0  0  0  0  0  0  0
   -6.6020   19.6150  -31.5240 O   0  0  0  0  0  0  0  0  0  0  0  0
   -4.2170   20.0800  -32.6470 N   0  0  0  0  0  0  0  0  0  0  0  0
   -4.1440   18.6700  -33.1110 C   0  0  0  0  0  0  0  0  0  0  0  0
   -3.9303   18.0358  -32.2380 H   0  0  0  0  0  0  0  0  0  0  0  0
   -5.1131   18.4560  -33.5855 H   0  0  0  0  0  0  0  0  0  0  0  0
   -3.0690   18.3810  -34.1860 C   0  0  0  0  0  0  0  0  0  0  0  0
   -3.1801   17.3319  -34.4976 H   0  0  0  0  0  0  0  0  0  0  0  0
   -3.2497   19.1139  -34.9861 H   0  0  0  0  0  0  0  0  0  0  0  0
   -1.5920   18.5930  -33.7560 C   0  0  0  0  0  0  0  0  0  0  0  0
   -1.2368   17.6604  -33.2934 H   0  0  0  0  0  0  0  0  0  0  0  0
   -1.0485   18.8699  -34.6714 H   0  0  0  0  0  0  0  0  0  0  0  0
   -1.3480   19.7430  -32.7550 C   0  0  0  0  0  0  0  0  0  0  0  0
   -1.7761   19.4515  -31.7845 H   0  0  0  0  0  0  0  0  0  0  0  0
   -0.2598   19.8984  -32.7132 H   0  0  0  0  0  0  0  0  0  0  0  0
   -1.9720   21.0940  -33.1730 C   0  0  0  0  0  0  0  0  0  0  0  0
   -1.7980   21.8128  -32.3587 H   0  0  0  0  0  0  0  0  0  0  0  0
   -1.4864   21.3674  -34.1214 H   0  0  0  0  0  0  0  0  0  0  0  0
   -3.4850   21.0700  -33.4680 C   0  0  0  0  0  0  0  0  0  0  0  0
   -3.8981   22.0689  -33.2641 H   0  0  0  0  0  0  0  0  0  0  0  0
   -3.6109   20.7818  -34.5221 H   0  0  0  0  0  0  0  0  0  0  0  0
   -4.8080   22.8650  -31.3260 C   0  0  0  0  0  0  0  0  0  0  0  0
   -3.8366   22.3559  -31.4107 H   0  0  0  0  0  0  0  0  0  0  0  0
   -1.2300   22.6000  -29.2980 C   0  0  0  0  0  0  0  0  0  0  0  0
   -0.3863   23.2339  -29.6082 H   0  0  0  0  0  0  0  0  0  0  0  0
   -0.9470   21.1780  -28.9560 C   0  0  0  0  0  0  0  0  0  0  0  0
    0.0140   20.4910  -29.7100 C   0  0  0  0  0  0  0  0  0  0  0  0
    0.5004   20.9998  -30.5553 H   0  0  0  0  0  0  0  0  0  0  0  0
    0.3700   19.1610  -29.4070 C   0  0  0  0  0  0  0  0  0  0  0  0
    1.3530   18.4920  -30.1540 O   0  0  0  0  0  0  0  0  0  0  0  0
    1.1340   17.3180  -30.9300 C   0  0  0  0  0  0  0  0  0  0  0  0
    0.9740   16.4603  -30.2601 H   0  0  0  0  0  0  0  0  0  0  0  0
    0.2465   17.4582  -31.5646 H   0  0  0  0  0  0  0  0  0  0  0  0
    2.0123   17.1288  -31.5646 H   0  0  0  0  0  0  0  0  0  0  0  0
   -0.2650   18.5050  -28.3240 C   0  0  0  0  0  0  0  0  0  0  0  0
    0.0070   17.1750  -27.9470 O   0  0  0  0  0  0  0  0  0  0  0  0
    1.1430   16.7150  -27.2170 C   0  0  0  0  0  0  0  0  0  0  0  0
    0.9431   16.7960  -26.1384 H   0  0  0  0  0  0  0  0  0  0  0  0
    1.3439   15.6647  -27.4749 H   0  0  0  0  0  0  0  0  0  0  0  0
    2.0180   17.3297  -27.4749 H   0  0  0  0  0  0  0  0  0  0  0  0
   -1.2220   19.1910  -27.5600 C   0  0  0  0  0  0  0  0  0  0  0  0
   -1.8130   18.5140  -26.4800 O   0  0  0  0  0  0  0  0  0  0  0  0
   -3.1430   18.7320  -26.0170 C   0  0  0  0  0  0  0  0  0  0  0  0
   -3.1527   18.7336  -24.9170 H   0  0  0  0  0  0  0  0  0  0  0  0
   -3.5062   19.7017  -26.3883 H   0  0  0  0  0  0  0  0  0  0  0  0
   -3.7967   17.9290  -26.3883 H   0  0  0  0  0  0  0  0  0  0  0  0
   -1.5580   20.5190  -27.8750 C   0  0  0  0  0  0  0  0  0  0  0  0
   -2.3076   21.0486  -27.2687 H   0  0  0  0  0  0  0  0  0  0  0  0
  1  2  1  0
  2  3  1  0
  3  4  2  0
  3  5  1  0
  5  6  1  0
  6  7  2  0
  7  8  1  0
  7  9  1  0
  9 10  1  0
  9 11  2  0
 11 12  1  0
 11 13  1  0
 13 14  1  0
 14 15  2  0
 14 16  2  0
 14 17  1  0
 17 18  1  0
 18 19  1  0
 18 20  1  0
 18 21  1  0
 21 22  1  0
 21 23  1  0
 21 24  1  0
 24 25  1  0
 24 26  1  0
 24 27  1  0
 27 28  1  0
 27 29  1  0
 27 30  1  0
 30 31  1  0
 30 32  1  0
 30 33  1  0
 33 34  1  0
 33 35  1  0
 13 36  2  0
 36 37  1  0
  2 38  2  0
 38 39  1  0
 38 40  1  0
 40 41  2  0
 41 42  1  0
 41 43  1  0
 43 44  1  0
 44 45  1  0
 45 46  1  0
 45 47  1  0
 45 48  1  0
 43 49  2  0
 49 50  1  0
 50 51  1  0
 51 52  1  0
 51 53  1  0
 51 54  1  0
 49 55  1  0
 55 56  1  0
 56 57  1  0
 57 58  1  0
 57 59  1  0
 57 60  1  0
 55 61  2  0
 61 62  1  0
 36  6  1  0
 61 40  1  0
 33 17  1  0
M  CHG  1   5  -1
M  END
>  <UniqueID>  (38) 
34

>  <SMILES>  (38) 
COc1cc(/C=C/C(=O)[N-]c2cccc(S(=O)(=O)N3CCCCCC3)c2)cc(OC)c1OC

>  <Energy>  (38) 
81.78447714316141

>  <Genealogy>  (38) 
COc1cc(C=CC(=O)[N-]c2cccc(S(=O)(=O)N3CCCCCC3)c2)cc(OC)c1OC (protonated)
COc1cc(/C=C/C(=O)[N-]c2cccc(S(=O)(=O)N3CCCCCC3)c2)cc(OC)c1OC (cis-trans isomerization)
COc1cc(/C=C/C(=O)[N-]c2cccc(S(=O)(=O)N3CCCCCC3)c2)cc(OC)c1OC (3D coordinates assigned)
COc1cc(/C=C/C(=O)[N-]c2cccc(S(=O)(=O)N3CCCCCC3)c2)cc(OC)c1OC (nonaromatic ring conformer: 81.78447714316141 kcal/mol)

>  <smiles>  (38) 
COc1cc(C=CC(=O)Nc2cccc(S(=O)(=O)N3CCCCCC3)c2)cc(OC)c1OC

>  <score_type>  (38) 
oracle

>  <origin>  (38) 
adgpu

>  <m_score__min__energy>  (38) 
-8.6600000000000001

>  <m_primary>  (38) 
energy

$$$$
38:0
     RDKit          3D

 55 58  0  0  0  0  0  0  0  0999 V2000
   -3.0600   16.4410  -33.8270 C   0  0  0  0  0  0  0  0  0  0  0  0
   -3.6180   17.1590  -32.7320 O   0  0  0  0  0  0  0  0  0  0  0  0
   -4.5880   18.1670  -32.8530 C   0  0  0  0  0  0  0  0  0  0  0  0
   -5.9490   17.9330  -32.5740 C   0  0  0  0  0  0  0  0  0  0  0  0
   -6.8820   18.9630  -32.7070 C   0  0  0  0  0  0  0  0  0  0  0  0
   -6.4740   20.2290  -33.1300 C   0  0  0  0  0  0  0  0  0  0  0  0
   -5.1290   20.4700  -33.4120 C   0  0  0  0  0  0  0  0  0  0  0  0
   -4.1760   19.4500  -33.2520 C   0  0  0  0  0  0  0  0  0  0  0  0
   -2.7860   19.6830  -33.5430 N   0  0  0  0  0  0  0  0  0  0  0  0
   -2.0110   20.4490  -32.8740 N   0  0  0  0  0  0  0  0  0  0  0  0
   -2.3720   21.1180  -31.6530 C   0  0  0  0  0  0  0  0  0  0  0  0
   -3.2270   22.2180  -31.7330 C   0  0  0  0  0  0  0  0  0  0  0  0
   -3.6690   22.8750  -30.5800 C   0  0  0  0  0  0  0  0  0  0  0  0
   -4.7650   24.2540  -30.7300 S   0  0  0  0  0  0  0  0  0  0  0  0
   -5.6750   24.3360  -29.5370 O   0  0  0  0  0  0  0  0  0  0  0  0
   -5.6030   24.1000  -31.9680 O   0  0  0  0  0  0  0  0  0  0  0  0
   -3.8710   25.6730  -30.8260 O   0  0  0  0  0  0  0  0  0  0  0  0
   -3.2350   22.4370  -29.3140 C   0  0  0  0  0  0  0  0  0  0  0  0
   -3.6940   23.1170  -28.1350 N   0  0  0  0  0  0  0  0  0  0  0  0
   -2.8680   24.0110  -27.3680 C   0  0  0  0  0  0  0  0  0  0  0  0
   -3.4130   24.8590  -26.3890 C   0  0  0  0  0  0  0  0  0  0  0  0
   -2.5890   25.7120  -25.6540 C   0  0  0  0  0  0  0  0  0  0  0  0
   -1.2030   25.7340  -25.8740 C   0  0  0  0  0  0  0  0  0  0  0  0
   -0.3420   26.6690  -25.0660 C   0  0  0  0  0  0  0  0  0  0  0  0
   -0.6440   24.8870  -26.8600 C   0  0  0  0  0  0  0  0  0  0  0  0
    0.8390   24.8740  -27.1300 C   0  0  0  0  0  0  0  0  0  0  0  0
   -1.4840   24.0290  -27.5910 C   0  0  0  0  0  0  0  0  0  0  0  0
   -2.3460   21.3410  -29.2140 C   0  0  0  0  0  0  0  0  0  0  0  0
   -1.9030   20.8750  -27.9590 C   0  0  0  0  0  0  0  0  0  0  0  0
   -0.9940   19.8200  -27.8730 C   0  0  0  0  0  0  0  0  0  0  0  0
   -0.5100   19.2170  -29.0310 C   0  0  0  0  0  0  0  0  0  0  0  0
   -0.9440   19.6520  -30.2830 C   0  0  0  0  0  0  0  0  0  0  0  0
   -1.8870   20.6940  -30.3940 C   0  0  0  0  0  0  0  0  0  0  0  0
   -2.4267   15.6261  -33.4465 H   0  0  0  0  0  0  0  0  0  0  0  0
   -3.8702   16.0199  -34.4404 H   0  0  0  0  0  0  0  0  0  0  0  0
   -2.4519   17.1222  -34.4404 H   0  0  0  0  0  0  0  0  0  0  0  0
   -6.2779   16.9346  -32.2500 H   0  0  0  0  0  0  0  0  0  0  0  0
   -7.9415   18.7763  -32.4778 H   0  0  0  0  0  0  0  0  0  0  0  0
   -7.2127   21.0365  -33.2410 H   0  0  0  0  0  0  0  0  0  0  0  0
   -4.8130   21.4640  -33.7615 H   0  0  0  0  0  0  0  0  0  0  0  0
   -3.5589   22.5744  -32.7193 H   0  0  0  0  0  0  0  0  0  0  0  0
   -4.6990   23.0030  -27.8740 H   0  0  0  0  0  0  0  0  0  0  0  0
   -4.4967   24.8503  -26.2008 H   0  0  0  0  0  0  0  0  0  0  0  0
   -3.0302   26.3740  -24.8943 H   0  0  0  0  0  0  0  0  0  0  0  0
   -0.5093   26.4873  -23.9941 H   0  0  0  0  0  0  0  0  0  0  0  0
    0.7167   26.4929  -25.3069 H   0  0  0  0  0  0  0  0  0  0  0  0
   -0.6046   27.7097  -25.3069 H   0  0  0  0  0  0  0  0  0  0  0  0
    1.3855   24.8692  -26.1754 H   0  0  0  0  0  0  0  0  0  0  0  0
    1.0990   23.9735  -27.7058 H   0  0  0  0  0  0  0  0  0  0  0  0
    1.1147   25.7698  -27.7058 H   0  0  0  0  0  0  0  0  0  0  0  0
   -1.0488   23.3616  -28.3494 H   0  0  0  0  0  0  0  0  0  0  0  0
   -2.2776   21.3477  -27.0391 H   0  0  0  0  0  0  0  0  0  0  0  0
   -0.6588   19.4637  -26.8878 H   0  0  0  0  0  0  0  0  0  0  0  0
    0.2171   18.3948  -28.9581 H   0  0  0  0  0  0  0  0  0  0  0  0
   -0.5467   19.1776  -31.1924 H   0  0  0  0  0  0  0  0  0  0  0  0
  1  2  1  0
  2  3  1  0
  3  4  2  0
  4  5  1  0
  5  6  2  0
  6  7  1  0
  7  8  2  0
  8  9  1  0
  9 10  2  3
 10 11  1  0
 11 12  2  0
 12 13  1  0
 13 14  1  0
 14 15  2  0
 14 16  2  0
 14 17  1  0
 13 18  2  0
 18 19  1  0
 19 20  1  0
 20 21  2  0
 21 22  1  0
 22 23  2  0
 23 24  1  0
 23 25  1  0
 25 26  1  0
 25 27  2  0
 18 28  1  0
 28 29  2  0
 29 30  1  0
 30 31  2  0
 31 32  1  0
 32 33  2  0
  8  3  1  0
 33 11  1  0
 27 20  1  0
 33 28  1  0
  1 34  1  0
  1 35  1  0
  1 36  1  0
  4 37  1  0
  5 38  1  0
  6 39  1  0
  7 40  1  0
 12 41  1  0
 19 42  1  0
 21 43  1  0
 22 44  1  0
 24 45  1  0
 24 46  1  0
 24 47  1  0
 26 48  1  0
 26 49  1  0
 26 50  1  0
 27 51  1  0
 29 52  1  0
 30 53  1  0
 31 54  1  0
 32 55  1  0
M  CHG  1  17  -1
M  END
>  <UniqueID>  (39) 
35

>  <SMILES>  (39) 
COc1ccccc1N=Nc1cc(S(=O)(=O)[O-])c(Nc2ccc(C)c(C)c2)c2ccccc12

>  <Energy>  (39) 
86.7585256020199

>  <Genealogy>  (39) 
COc1ccccc1N=Nc1cc(S(=O)(=O)[O-])c(Nc2ccc(C)c(C)c2)c2ccccc12 (protonated)
COc1ccccc1N=Nc1cc(S(=O)(=O)[O-])c(Nc2ccc(C)c(C)c2)c2ccccc12 (3D coordinates assigned)
COc1ccccc1N=Nc1cc(S(=O)(=O)[O-])c(Nc2ccc(C)c(C)c2)c2ccccc12 (optimized conformer: 86.7585256020199 kcal/mol)

>  <smiles>  (39) 
COc1ccccc1N=Nc1cc(S(=O)(=O)O)c(Nc2ccc(C)c(C)c2)c2ccccc12

>  <score_type>  (39) 
oracle

>  <origin>  (39) 
adgpu

>  <m_score__min__energy>  (39) 
-13.43

>  <m_primary>  (39) 
energy

$$$$
39:0
     RDKit          3D

 48 51  0  0  0  0  0  0  0  0999 V2000
   -2.0510   25.2950  -29.3180 N   0  0  0  0  0  0  0  0  0  0  0  0
   -1.3670   23.7250  -29.0860 S   0  0  0  0  0  0  0  0  0  0  0  0
    0.1130   23.8510  -28.8540 O   0  0  0  0  0  0  0  0  0  0  0  0
   -1.9910   23.0770  -27.8830 O   0  0  0  0  0  0  0  0  0  0  0  0
   -1.6650   22.7430  -30.5150 C   0  0  0  0  0  0  0  0  0  0  0  0
   -0.6480   21.9370  -31.0420 C   0  0  0  0  0  0  0  0  0  0  0  0
   -0.8820   21.1600  -32.1800 C   0  0  0  0  0  0  0  0  0  0  0  0
   -2.1420   21.1800  -32.8080 C   0  0  0  0  0  0  0  0  0  0  0  0
   -2.4240   20.3700  -33.9630 N   0  0  0  0  0  0  0  0  0  0  0  0
   -2.8840   18.9810  -33.9020 C   0  0  0  0  0  0  0  0  0  0  0  0
   -4.2460   18.8830  -33.2680 C   0  0  0  0  0  0  0  0  0  0  0  0
   -5.1090   19.9360  -33.0510 C   0  0  0  0  0  0  0  0  0  0  0  0
   -6.2750   19.4460  -32.5760 N   0  0  0  0  0  0  0  0  0  0  0  0
   -7.4640   20.1930  -32.2470 C   0  0  0  0  0  0  0  0  0  0  0  0
   -8.7280   19.7140  -32.6410 C   0  0  0  0  0  0  0  0  0  0  0  0
   -9.8880   20.4270  -32.3270 C   0  0  0  0  0  0  0  0  0  0  0  0
   -9.8030   21.6240  -31.6140 C   0  0  0  0  0  0  0  0  0  0  0  0
   -8.5580   22.1090  -31.2100 C   0  0  0  0  0  0  0  0  0  0  0  0
   -7.3940   21.4000  -31.5210 C   0  0  0  0  0  0  0  0  0  0  0  0
   -6.1930   18.1260  -32.4850 N   0  0  0  0  0  0  0  0  0  0  0  0
   -4.9610   17.7530  -32.8840 C   0  0  0  0  0  0  0  0  0  0  0  0
   -4.5320   16.3440  -32.9610 C   0  0  0  0  0  0  0  0  0  0  0  0
   -4.9760   15.4270  -31.9930 C   0  0  0  0  0  0  0  0  0  0  0  0
   -4.5910   14.0860  -32.0640 C   0  0  0  0  0  0  0  0  0  0  0  0
   -3.7500   13.6510  -33.0920 C   0  0  0  0  0  0  0  0  0  0  0  0
   -3.3770   12.3490  -33.1600 F   0  0  0  0  0  0  0  0  0  0  0  0
   -3.2860   14.5610  -34.0460 C   0  0  0  0  0  0  0  0  0  0  0  0
   -3.6700   15.9040  -33.9800 C   0  0  0  0  0  0  0  0  0  0  0  0
   -3.1500   22.0040  -32.2850 C   0  0  0  0  0  0  0  0  0  0  0  0
   -2.9150   22.7800  -31.1470 C   0  0  0  0  0  0  0  0  0  0  0  0
   -2.5250   25.2870  -30.2480 H   0  0  0  0  0  0  0  0  0  0  0  0
    0.3396   21.9154  -30.5580 H   0  0  0  0  0  0  0  0  0  0  0  0
   -0.0777   20.5296  -32.5871 H   0  0  0  0  0  0  0  0  0  0  0  0
   -2.3840   20.8190  -34.9060 H   0  0  0  0  0  0  0  0  0  0  0  0
   -2.9340   18.5750  -34.9231 H   0  0  0  0  0  0  0  0  0  0  0  0
   -2.1737   18.4067  -33.2891 H   0  0  0  0  0  0  0  0  0  0  0  0
   -4.8856   20.9974  -33.2340 H   0  0  0  0  0  0  0  0  0  0  0  0
   -8.8030   18.7702  -33.2009 H   0  0  0  0  0  0  0  0  0  0  0  0
  -10.8699   20.0443  -32.6423 H   0  0  0  0  0  0  0  0  0  0  0  0
  -10.7172   22.1852  -31.3705 H   0  0  0  0  0  0  0  0  0  0  0  0
   -8.4927   23.0510  -30.6458 H   0  0  0  0  0  0  0  0  0  0  0  0
   -6.4164   21.7864  -31.1971 H   0  0  0  0  0  0  0  0  0  0  0  0
   -5.6295   15.7666  -31.1759 H   0  0  0  0  0  0  0  0  0  0  0  0
   -4.9505   13.3710  -31.3093 H   0  0  0  0  0  0  0  0  0  0  0  0
   -2.6175   14.2201  -34.8503 H   0  0  0  0  0  0  0  0  0  0  0  0
   -3.2961   16.6184  -34.7282 H   0  0  0  0  0  0  0  0  0  0  0  0
   -4.1341   22.0394  -32.7752 H   0  0  0  0  0  0  0  0  0  0  0  0
   -3.7135   23.4217  -30.7462 H   0  0  0  0  0  0  0  0  0  0  0  0
  1  2  1  0
  2  3  2  0
  2  4  2  0
  2  5  1  0
  5  6  2  0
  6  7  1  0
  7  8  2  0
  8  9  1  0
  9 10  1  0
 10 11  1  0
 11 12  2  0
 12 13  1  0
 13 14  1  0
 14 15  2  0
 15 16  1  0
 16 17  2  0
 17 18  1  0
 18 19  2  0
 13 20  1  0
 20 21  2  0
 21 22  1  0
 22 23  2  0
 23 24  1  0
 24 25  2  0
 25 26  1  0
 25 27  1  0
 27 28  2  0
  8 29  1  0
 29 30  2  0
 30  5  1  0
 21 11  1  0
 28 22  1  0
 19 14  1  0
  1 31  1  0
  6 32  1  0
  7 33  1  0
  9 34  1  0
 10 35  1  0
 10 36  1  0
 12 37  1  0
 15 38  1  0
 16 39  1  0
 17 40  1  0
 18 41  1  0
 19 42  1  0
 23 43  1  0
 24 44  1  0
 27 45  1  0
 28 46  1  0
 29 47  1  0
 30 48  1  0
M  CHG  1   1  -1
M  END
>  <UniqueID>  (40) 
36

>  <SMILES>  (40) 
[NH-]S(=O)(=O)c1ccc(NCc2cn(-c3ccccc3)nc2-c2ccc(F)cc2)cc1

>  <Energy>  (40) 
87.02798023645674

>  <Genealogy>  (40) 
[NH-]S(=O)(=O)c1ccc(NCc2cn(-c3ccccc3)nc2-c2ccc(F)cc2)cc1 (protonated)
[NH-]S(=O)(=O)c1ccc(NCc2cn(-c3ccccc3)nc2-c2ccc(F)cc2)cc1 (3D coordinates assigned)
[NH-]S(=O)(=O)c1ccc(NCc2cn(-c3ccccc3)nc2-c2ccc(F)cc2)cc1 (optimized conformer: 87.02798023645674 kcal/mol)

>  <smiles>  (40) 
NS(=O)(=O)c1ccc(NCc2cn(-c3ccccc3)nc2-c2ccc(F)cc2)cc1

>  <score_type>  (40) 
oracle

>  <origin>  (40) 
adgpu

>  <m_score__min__energy>  (40) 
-11.300000000000001

>  <m_primary>  (40) 
energy

$$$$
40:0
     RDKit          3D

 42 44  0  0  0  0  0  0  0  0999 V2000
    0.6175   24.1279  -27.6994 H   0  0  0  0  0  0  0  0  0  0  0  0
    0.5160   25.1970  -27.4610 C   0  0  0  0  0  0  0  0  0  0  0  0
    1.5690   25.8770  -26.9360 N   0  0  0  0  0  0  0  0  0  0  0  0
    1.4950   27.2030  -26.6300 C   0  0  0  0  0  0  0  0  0  0  0  0
    2.5150   27.8320  -26.1230 N   0  0  0  0  0  0  0  0  0  0  0  0
    3.8060   27.2210  -25.8110 C   0  0  0  0  0  0  0  0  0  0  0  0
    3.6426   26.3344  -25.1807 H   0  0  0  0  0  0  0  0  0  0  0  0
    4.4264   27.9584  -25.2806 H   0  0  0  0  0  0  0  0  0  0  0  0
    4.5290   26.8010  -27.0880 C   0  0  0  0  0  0  0  0  0  0  0  0
    5.4529   26.2643  -26.8266 H   0  0  0  0  0  0  0  0  0  0  0  0
    3.8764   26.1414  -27.6788 H   0  0  0  0  0  0  0  0  0  0  0  0
    4.7787   27.6946  -27.6788 H   0  0  0  0  0  0  0  0  0  0  0  0
    0.3090   27.9010  -26.8780 C   0  0  0  0  0  0  0  0  0  0  0  0
    0.2384   28.9740  -26.6464 H   0  0  0  0  0  0  0  0  0  0  0  0
   -0.7850   27.2250  -27.4220 C   0  0  0  0  0  0  0  0  0  0  0  0
   -1.7165   27.7707  -27.6330 H   0  0  0  0  0  0  0  0  0  0  0  0
   -0.7010   25.8550  -27.7000 C   0  0  0  0  0  0  0  0  0  0  0  0
   -1.8280   25.1800  -28.2820 N   0  0  0  0  0  0  0  0  0  0  0  0
   -2.7760   25.4410  -27.9270 H   0  0  0  0  0  0  0  0  0  0  0  0
   -1.7230   24.1340  -29.2650 C   0  0  0  0  0  0  0  0  0  0  0  0
   -0.5910   23.7350  -29.6520 O   0  0  0  0  0  0  0  0  0  0  0  0
   -2.9340   23.5120  -29.8410 C   0  0  0  0  0  0  0  0  0  0  0  0
   -3.0980   22.1210  -29.7500 C   0  0  0  0  0  0  0  0  0  0  0  0
   -2.3315   21.5131  -29.2471 H   0  0  0  0  0  0  0  0  0  0  0  0
   -4.2270   21.5020  -30.2930 C   0  0  0  0  0  0  0  0  0  0  0  0
   -4.3379   20.4100  -30.2204 H   0  0  0  0  0  0  0  0  0  0  0  0
   -5.2220   22.2620  -30.9310 C   0  0  0  0  0  0  0  0  0  0  0  0
   -6.4190   21.6040  -31.5120 C   0  0  0  0  0  0  0  0  0  0  0  0
   -6.2850   20.4730  -32.3390 C   0  0  0  0  0  0  0  0  0  0  0  0
   -5.2842   20.0719  -32.5568 H   0  0  0  0  0  0  0  0  0  0  0  0
   -7.4140   19.8550  -32.8860 C   0  0  0  0  0  0  0  0  0  0  0  0
   -7.2987   18.9714  -33.5309 H   0  0  0  0  0  0  0  0  0  0  0  0
   -8.6880   20.3590  -32.6140 C   0  0  0  0  0  0  0  0  0  0  0  0
   -9.7810   19.7570  -33.1450 F   0  0  0  0  0  0  0  0  0  0  0  0
   -8.8360   21.4800  -31.7950 C   0  0  0  0  0  0  0  0  0  0  0  0
   -9.8400   21.8754  -31.5811 H   0  0  0  0  0  0  0  0  0  0  0  0
   -7.7090   22.1010  -31.2460 C   0  0  0  0  0  0  0  0  0  0  0  0
   -7.8317   22.9841  -30.6018 H   0  0  0  0  0  0  0  0  0  0  0  0
   -5.0670   23.6570  -31.0040 C   0  0  0  0  0  0  0  0  0  0  0  0
   -5.8393   24.2647  -31.4982 H   0  0  0  0  0  0  0  0  0  0  0  0
   -3.9410   24.2820  -30.4550 C   0  0  0  0  0  0  0  0  0  0  0  0
   -3.8550   25.6700  -30.4970 O   0  0  0  0  0  0  0  0  0  0  0  0
  1  2  1  0
  2  3  1  0
  3  4  1  0
  4  5  2  0
  5  6  1  0
  6  7  1  0
  6  8  1  0
  6  9  1  0
  9 10  1  0
  9 11  1  0
  9 12  1  0
  4 13  1  0
 13 14  1  0
 13 15  2  0
 15 16  1  0
 15 17  1  0
 17 18  1  0
 18 19  1  0
 18 20  1  0
 20 21  2  0
 20 22  1  0
 22 23  2  0
 23 24  1  0
 23 25  1  0
 25 26  1  0
 25 27  2  0
 27 28  1  0
 28 29  2  0
 29 30  1  0
 29 31  1  0
 31 32  1  0
 31 33  2  0
 33 34  1  0
 33 35  1  0
 35 36  1  0
 35 37  2  0
 37 38  1  0
 27 39  1  0
 39 40  1  0
 39 41  2  0
 41 42  1  0
 17  2  2  0
 41 22  1  0
 37 28  1  0
M  CHG  2   3  -1  42  -1
M  END
>  <UniqueID>  (41) 
37

>  <SMILES>  (41) 
CC/N=c1/ccc(NC(=O)c2ccc(-c3ccc(F)cc3)cc2[O-])c[n-]1

>  <Energy>  (41) 
56.98858658139185

>  <Genealogy>  (41) 
CCN=c1ccc(NC(=O)c2ccc(-c3ccc(F)cc3)cc2[O-])c[n-]1 (protonated)
CC/N=c1/ccc(NC(=O)c2ccc(-c3ccc(F)cc3)cc2[O-])c[n-]1 (cis-trans isomerization)
CC/N=c1/ccc(NC(=O)c2ccc(-c3ccc(F)cc3)cc2[O-])c[n-]1 (3D coordinates assigned)
CC/N=c1/ccc(NC(=O)c2ccc(-c3ccc(F)cc3)cc2[O-])c[n-]1 (optimized conformer: 56.98858658139185 kcal/mol)

>  <smiles>  (41) 
CCN=c1ccc(NC(=O)c2ccc(-c3ccc(F)cc3)cc2O)c[nH]1

>  <score_type>  (41) 
oracle

>  <origin>  (41) 
adgpu

>  <m_score__min__energy>  (41) 
-10.68

>  <m_primary>  (41) 
energy

$$$$
41:0
     RDKit          3D

 40 42  0  0  0  0  0  0  0  0999 V2000
   -1.0250   24.5150  -28.5090 C   0  0  0  0  0  0  0  0  0  0  0  0
   -2.1030   25.2550  -29.1470 N   0  0  0  0  0  0  0  0  0  0  0  0
   -3.1120   24.6200  -29.9370 C   0  0  0  0  0  0  0  0  0  0  0  0
   -4.0380   25.2990  -30.4580 O   0  0  0  0  0  0  0  0  0  0  0  0
   -3.0570   23.1420  -30.1660 C   0  0  0  0  0  0  0  0  0  0  0  0
   -3.8280   22.7800  -31.3110 O   0  0  0  0  0  0  0  0  0  0  0  0
   -5.2020   22.4690  -31.3170 C   0  0  0  0  0  0  0  0  0  0  0  0
   -6.1050   23.1420  -30.4800 C   0  0  0  0  0  0  0  0  0  0  0  0
   -7.4210   22.8320  -30.4980 N   0  0  0  0  0  0  0  0  0  0  0  0
   -7.9260   21.8680  -31.3050 C   0  0  0  0  0  0  0  0  0  0  0  0
   -9.2600   21.6160  -31.2620 N   0  0  0  0  0  0  0  0  0  0  0  0
   -9.8370   20.6630  -32.0320 C   0  0  0  0  0  0  0  0  0  0  0  0
   -9.0600   19.9060  -32.9010 C   0  0  0  0  0  0  0  0  0  0  0  0
   -7.6770   20.1380  -32.9950 C   0  0  0  0  0  0  0  0  0  0  0  0
   -6.9060   19.3430  -33.8560 O   0  0  0  0  0  0  0  0  0  0  0  0
   -6.2030   18.1860  -33.4880 C   0  0  0  0  0  0  0  0  0  0  0  0
   -6.4030   17.5540  -32.2470 C   0  0  0  0  0  0  0  0  0  0  0  0
   -5.6940   16.3920  -31.9280 C   0  0  0  0  0  0  0  0  0  0  0  0
   -4.7900   15.8480  -32.8450 C   0  0  0  0  0  0  0  0  0  0  0  0
   -4.6000   16.4610  -34.0870 C   0  0  0  0  0  0  0  0  0  0  0  0
   -3.4740   15.7720  -35.2430 Cl  0  0  0  0  0  0  0  0  0  0  0  0
   -5.3100   17.6250  -34.4080 C   0  0  0  0  0  0  0  0  0  0  0  0
   -7.0760   21.1360  -32.1750 C   0  0  0  0  0  0  0  0  0  0  0  0
   -5.6830   21.4550  -32.1790 C   0  0  0  0  0  0  0  0  0  0  0  0
   -4.7000   20.7470  -33.0870 C   0  0  0  0  0  0  0  0  0  0  0  0
   -1.1283   24.5859  -27.4162 H   0  0  0  0  0  0  0  0  0  0  0  0
   -1.0741   23.4593  -28.8142 H   0  0  0  0  0  0  0  0  0  0  0  0
   -0.0575   24.9403  -28.8142 H   0  0  0  0  0  0  0  0  0  0  0  0
   -2.0113   22.8398  -30.3246 H   0  0  0  0  0  0  0  0  0  0  0  0
   -3.4722   22.6318  -29.2843 H   0  0  0  0  0  0  0  0  0  0  0  0
   -5.7392   23.9284  -29.8035 H   0  0  0  0  0  0  0  0  0  0  0  0
  -10.9212   20.4879  -31.9697 H   0  0  0  0  0  0  0  0  0  0  0  0
   -9.5284   19.1238  -33.5164 H   0  0  0  0  0  0  0  0  0  0  0  0
   -7.1190   17.9752  -31.5259 H   0  0  0  0  0  0  0  0  0  0  0  0
   -5.8478   15.9050  -30.9537 H   0  0  0  0  0  0  0  0  0  0  0  0
   -4.2281   14.9376  -32.5893 H   0  0  0  0  0  0  0  0  0  0  0  0
   -5.1648   18.1010  -35.3890 H   0  0  0  0  0  0  0  0  0  0  0  0
   -3.9572   20.2120  -32.4771 H   0  0  0  0  0  0  0  0  0  0  0  0
   -5.2392   20.0285  -33.7218 H   0  0  0  0  0  0  0  0  0  0  0  0
   -4.1894   21.4861  -33.7218 H   0  0  0  0  0  0  0  0  0  0  0  0
  1  2  1  0
  2  3  1  0
  3  4  2  0
  3  5  1  0
  5  6  1  0
  6  7  1  0
  7  8  2  0
  8  9  1  0
  9 10  2  0
 10 11  1  0
 11 12  2  0
 12 13  1  0
 13 14  2  0
 14 15  1  0
 15 16  1  0
 16 17  2  0
 17 18  1  0
 18 19  2  0
 19 20  1  0
 20 21  1  0
 20 22  2  0
 14 23  1  0
 23 24  2  0
 24 25  1  0
 24  7  1  0
 23 10  1  0
 22 16  1  0
  1 26  1  0
  1 27  1  0
  1 28  1  0
  5 29  1  0
  5 30  1  0
  8 31  1  0
 12 32  1  0
 13 33  1  0
 17 34  1  0
 18 35  1  0
 19 36  1  0
 22 37  1  0
 25 38  1  0
 25 39  1  0
 25 40  1  0
M  CHG  1   2  -1
M  END
>  <UniqueID>  (42) 
38

>  <SMILES>  (42) 
C[N-]C(=O)COc1cnc2nccc(Oc3cccc(Cl)c3)c2c1C

>  <Energy>  (42) 
55.669151679740935

>  <Genealogy>  (42) 
C[N-]C(=O)COc1cnc2nccc(Oc3cccc(Cl)c3)c2c1C (protonated)
C[N-]C(=O)COc1cnc2nccc(Oc3cccc(Cl)c3)c2c1C (3D coordinates assigned)
C[N-]C(=O)COc1cnc2nccc(Oc3cccc(Cl)c3)c2c1C (optimized conformer: 55.669151679740935 kcal/mol)

>  <smiles>  (42) 
CNC(=O)COc1cnc2nccc(Oc3cccc(Cl)c3)c2c1C

>  <score_type>  (42) 
oracle

>  <origin>  (42) 
adgpu

>  <m_score__min__energy>  (42) 
-10.050000000000001

>  <m_primary>  (42) 
energy

$$$$
42:0
     RDKit          3D

 35 37  0  0  1  0  0  0  0  0999 V2000
   -0.3540   25.6690  -27.6640 C   0  0  0  0  0  0  0  0  0  0  0  0
   -1.7820   25.2710  -27.8980 C   0  0  0  0  0  0  0  0  0  0  0  0
   -2.5280   25.2780  -26.8970 O   0  0  0  0  0  0  0  0  0  0  0  0
   -2.2290   24.9170  -29.1800 N   0  0  0  0  0  0  0  0  0  0  0  0
   -3.5400   24.5260  -29.5320 C   0  0  0  0  0  0  0  0  0  0  0  0
   -4.3250   25.1200  -30.4770 C   0  0  0  0  0  0  0  0  0  0  0  0
   -5.6160   24.6940  -30.7880 C   0  0  0  0  0  0  0  0  0  0  0  0
   -6.1510   23.5830  -30.0880 C   0  0  0  0  0  0  0  0  0  0  0  0
   -7.3490   23.0340  -30.3980 N   0  0  0  0  0  0  0  0  0  0  0  0
   -7.6810   22.1300  -31.1540 C   0  0  0  0  0  0  0  0  0  0  0  0
   -9.0120   21.8190  -31.2320 N   0  0  0  0  0  0  0  0  0  0  0  0
   -9.4970   20.8550  -32.0190 C   0  0  0  0  0  0  0  0  0  0  0  0
   -8.6430   20.1530  -32.7720 N   0  0  0  0  0  0  0  0  0  0  0  0
   -7.3300   20.4360  -32.7170 C   0  0  0  0  0  0  0  0  0  0  0  0
   -6.5010   19.6820  -33.5130 C   0  0  0  0  0  0  0  0  0  0  0  0
   -5.1600   19.9620  -33.4650 C   0  0  0  0  0  0  0  0  0  0  0  0
   -4.5860   20.9270  -32.6910 C   0  0  0  0  0  0  0  0  0  0  0  0
   -5.4580   21.6830  -31.8860 C   0  0  0  0  0  0  0  0  0  0  0  0
   -6.7990   21.4320  -31.9090 C   0  0  0  0  0  0  0  0  0  0  0  0
   -5.3430   22.9600  -29.1060 C   0  0  0  0  0  0  0  0  0  0  0  0
   -4.0780   23.4410  -28.8580 C   0  0  0  0  0  0  0  0  0  0  0  0
   -0.1609   25.7228  -26.5824 H   0  0  0  0  0  0  0  0  0  0  0  0
    0.3139   24.9228  -28.1190 H   0  0  0  0  0  0  0  0  0  0  0  0
   -0.1684   26.6531  -28.1190 H   0  0  0  0  0  0  0  0  0  0  0  0
   -1.4880   24.9540  -29.9460 H   0  0  0  0  0  0  0  0  0  0  0  0
   -3.9168   25.9828  -31.0238 H   0  0  0  0  0  0  0  0  0  0  0  0
   -6.2067   25.2089  -31.5600 H   0  0  0  0  0  0  0  0  0  0  0  0
   -9.7140   22.3460  -30.6570 H   0  0  0  0  0  0  0  0  0  0  0  0
  -10.5760   20.6429  -32.0473 H   0  0  0  0  0  0  0  0  0  0  0  0
   -6.8973   18.8869  -34.1616 H   0  0  0  0  0  0  0  0  0  0  0  0
   -4.4940   19.3606  -34.1013 H   0  0  0  0  0  0  0  0  0  0  0  0
   -3.5005   21.1047  -32.6957 H   0  0  0  0  0  0  0  0  0  0  0  0
   -5.0584   22.4768  -31.2378 H   0  0  0  0  0  0  0  0  0  0  0  0
   -5.7251   22.0951  -28.5438 H   0  0  0  0  0  0  0  0  0  0  0  0
   -3.4668   22.9426  -28.0912 H   0  0  0  0  0  0  0  0  0  0  0  0
  1  2  1  0
  2  3  2  0
  2  4  1  0
  4  5  1  0
  5  6  2  0
  6  7  1  0
  7  8  2  0
  8  9  1  0
  9 10  2  0
 10 11  1  0
 11 12  1  0
 12 13  2  0
 13 14  1  0
 14 15  2  0
 15 16  1  0
 16 17  2  0
 17 18  1  0
 18 19  2  0
  8 20  1  0
 20 21  2  0
 21  5  1  0
 19 10  1  0
 19 14  1  0
  1 22  1  0
  1 23  1  0
  1 24  1  0
  4 25  1  0
  6 26  1  0
  7 27  1  0
 11 28  1  0
 12 29  1  0
 15 30  1  0
 16 31  1  0
 17 32  1  0
 18 33  1  0
 20 34  1  0
 21 35  1  0
M  END
>  <smiles>  (43) 
CC(=O)Nc1ccc(N=c2[nH]cnc3ccccc23)cc1

>  <score_type>  (43) 
oracle

>  <origin>  (43) 
adgpu

>  <m_score__min__energy>  (43) 
-7.8899999999999997

>  <m_primary>  (43) 
energy

$$$$
43:0
     RDKit          3D

 35 36  0  0  0  0  0  0  0  0999 V2000
   -6.3870   15.4780  -34.2420 C   0  0  0  0  0  0  0  0  0  0  0  0
   -6.4700   16.8290  -33.5880 C   0  0  0  0  0  0  0  0  0  0  0  0
   -7.5110   17.1070  -32.6860 C   0  0  0  0  0  0  0  0  0  0  0  0
   -7.5960   18.3560  -32.0650 C   0  0  0  0  0  0  0  0  0  0  0  0
   -6.6520   19.3540  -32.3420 C   0  0  0  0  0  0  0  0  0  0  0  0
   -6.7450   20.6190  -31.6620 N   0  0  0  0  0  0  0  0  0  0  0  0
   -7.9800   21.2780  -31.3470 C   0  0  0  0  0  0  0  0  0  0  0  0
   -9.0730   20.6500  -31.3890 O   0  0  0  0  0  0  0  0  0  0  0  0
   -7.9790   22.7170  -30.9310 C   0  0  0  0  0  0  0  0  0  0  0  0
   -7.2360   23.7900  -32.2130 S   0  0  0  0  0  0  0  0  0  0  0  0
   -5.5390   23.5890  -31.6350 C   0  0  0  0  0  0  0  0  0  0  0  0
   -4.8810   22.4510  -31.9850 N   0  0  0  0  0  0  0  0  0  0  0  0
   -3.6100   22.2170  -31.5830 C   0  0  0  0  0  0  0  0  0  0  0  0
   -3.0320   21.1500  -31.9170 O   0  0  0  0  0  0  0  0  0  0  0  0
   -2.9490   23.1580  -30.8050 C   0  0  0  0  0  0  0  0  0  0  0  0
   -3.6150   24.3350  -30.4650 C   0  0  0  0  0  0  0  0  0  0  0  0
   -2.9360   25.2930  -29.7170 O   0  0  0  0  0  0  0  0  0  0  0  0
   -4.9100   24.5440  -30.8690 N   0  0  0  0  0  0  0  0  0  0  0  0
   -5.5620   25.8310  -30.5830 C   0  0  0  0  0  0  0  0  0  0  0  0
   -5.5970   19.0700  -33.2280 C   0  0  0  0  0  0  0  0  0  0  0  0
   -5.5040   17.8200  -33.8490 C   0  0  0  0  0  0  0  0  0  0  0  0
   -4.1540   17.5220  -34.9390 Cl  0  0  0  0  0  0  0  0  0  0  0  0
   -6.3391   14.6981  -33.4677 H   0  0  0  0  0  0  0  0  0  0  0  0
   -7.2770   15.3186  -34.8684 H   0  0  0  0  0  0  0  0  0  0  0  0
   -5.4841   15.4287  -34.8684 H   0  0  0  0  0  0  0  0  0  0  0  0
   -8.2644   16.3360  -32.4672 H   0  0  0  0  0  0  0  0  0  0  0  0
   -8.4102   18.5573  -31.3533 H   0  0  0  0  0  0  0  0  0  0  0  0
   -5.8590   21.0680  -31.3370 H   0  0  0  0  0  0  0  0  0  0  0  0
   -9.0162   23.0380  -30.7545 H   0  0  0  0  0  0  0  0  0  0  0  0
   -7.3771   22.8092  -30.0149 H   0  0  0  0  0  0  0  0  0  0  0  0
   -1.9190   22.9784  -30.4631 H   0  0  0  0  0  0  0  0  0  0  0  0
   -5.6334   25.9719  -29.4944 H   0  0  0  0  0  0  0  0  0  0  0  0
   -4.9689   26.6477  -31.0203 H   0  0  0  0  0  0  0  0  0  0  0  0
   -6.5713   25.8359  -31.0203 H   0  0  0  0  0  0  0  0  0  0  0  0
   -4.8376   19.8385  -33.4346 H   0  0  0  0  0  0  0  0  0  0  0  0
  1  2  1  0
  2  3  2  0
  3  4  1  0
  4  5  2  0
  5  6  1  0
  6  7  1  0
  7  8  2  0
  7  9  1  0
  9 10  1  0
 10 11  1  0
 11 12  2  0
 12 13  1  0
 13 14  2  0
 13 15  1  0
 15 16  2  0
 16 17  1  0
 16 18  1  0
 18 19  1  0
  5 20  1  0
 20 21  2  0
 21 22  1  0
 21  2  1  0
 18 11  1  0
  1 23  1  0
  1 24  1  0
  1 25  1  0
  3 26  1  0
  4 27  1  0
  6 28  1  0
  9 29  1  0
  9 30  1  0
 15 31  1  0
 19 32  1  0
 19 33  1  0
 19 34  1  0
 20 35  1  0
M  CHG  1  17  -1
M  END
>  <UniqueID>  (44) 
39

>  <SMILES>  (44) 
Cc1ccc(NC(=O)CSc2nc(=O)cc([O-])n2C)cc1Cl

>  <Energy>  (44) 
37.209010981293034

>  <Genealogy>  (44) 
Cc1ccc(NC(=O)CSc2nc(=O)cc([O-])n2C)cc1Cl (protonated)
Cc1ccc(NC(=O)CSc2nc(=O)cc([O-])n2C)cc1Cl (3D coordinates assigned)
Cc1ccc(NC(=O)CSc2nc(=O)cc([O-])n2C)cc1Cl (optimized conformer: 37.209010981293034 kcal/mol)

>  <smiles>  (44) 
Cc1ccc(NC(=O)CSc2nc(=O)cc(O)n2C)cc1Cl

>  <score_type>  (44) 
oracle

>  <origin>  (44) 
adgpu

>  <m_score__min__energy>  (44) 
-10.1

>  <m_primary>  (44) 
energy

$$$$
44:0
     RDKit          3D

 44 46  0  0  0  0  0  0  0  0999 V2000
   -2.8610   21.8810  -31.6940 C   0  0  0  0  0  0  0  0  0  0  0  0
   -3.9220   22.1700  -32.5990 O   0  0  0  0  0  0  0  0  0  0  0  0
   -5.2850   22.0230  -32.2980 C   0  0  0  0  0  0  0  0  0  0  0  0
   -5.9190   20.7650  -32.3010 C   0  0  0  0  0  0  0  0  0  0  0  0
   -7.2750   20.6580  -31.9840 C   0  0  0  0  0  0  0  0  0  0  0  0
   -8.0220   21.7990  -31.6750 C   0  0  0  0  0  0  0  0  0  0  0  0
   -9.4660   21.6660  -31.2900 C   0  0  0  0  0  0  0  0  0  0  0  0
   -7.3950   23.0540  -31.6700 C   0  0  0  0  0  0  0  0  0  0  0  0
   -6.0260   23.1690  -31.9680 C   0  0  0  0  0  0  0  0  0  0  0  0
   -5.3680   24.4450  -31.9500 N   0  0  0  0  0  0  0  0  0  0  0  0
   -4.9220   25.1450  -30.7790 C   0  0  0  0  0  0  0  0  0  0  0  0
   -5.7740   25.6950  -30.0350 O   0  0  0  0  0  0  0  0  0  0  0  0
   -3.5330   25.2390  -30.4360 N   0  0  0  0  0  0  0  0  0  0  0  0
   -2.9030   24.5560  -29.3430 C   0  0  0  0  0  0  0  0  0  0  0  0
   -3.6160   23.5660  -28.6560 C   0  0  0  0  0  0  0  0  0  0  0  0
   -3.0020   22.8390  -27.6330 C   0  0  0  0  0  0  0  0  0  0  0  0
   -1.6740   23.1060  -27.2810 C   0  0  0  0  0  0  0  0  0  0  0  0
   -0.8670   22.1320  -26.0120 S   0  0  0  0  0  0  0  0  0  0  0  0
   -0.5890   20.7550  -27.1290 C   0  0  0  0  0  0  0  0  0  0  0  0
    0.3700   20.7710  -28.0790 N   0  0  0  0  0  0  0  0  0  0  0  0
    0.2230   19.5900  -28.7120 C   0  0  0  0  0  0  0  0  0  0  0  0
   -0.8150   18.8850  -28.1460 C   0  0  0  0  0  0  0  0  0  0  0  0
   -1.3140   19.6190  -27.1380 N   0  0  0  0  0  0  0  0  0  0  0  0
   -2.4810   19.2910  -26.3260 C   0  0  0  0  0  0  0  0  0  0  0  0
   -0.9760   24.1320  -27.9260 C   0  0  0  0  0  0  0  0  0  0  0  0
   -1.5870   24.8580  -28.9500 C   0  0  0  0  0  0  0  0  0  0  0  0
   -3.2237   21.9798  -30.6602 H   0  0  0  0  0  0  0  0  0  0  0  0
   -2.5059   20.8534  -31.8614 H   0  0  0  0  0  0  0  0  0  0  0  0
   -2.0339   22.5866  -31.8614 H   0  0  0  0  0  0  0  0  0  0  0  0
   -5.3433   19.8626  -32.5542 H   0  0  0  0  0  0  0  0  0  0  0  0
   -7.7584   19.6699  -31.9774 H   0  0  0  0  0  0  0  0  0  0  0  0
   -9.5539   21.6579  -30.1935 H   0  0  0  0  0  0  0  0  0  0  0  0
  -10.0338   22.5157  -31.6971 H   0  0  0  0  0  0  0  0  0  0  0  0
   -9.8690   20.7269  -31.6971 H   0  0  0  0  0  0  0  0  0  0  0  0
   -7.9791   23.9550  -31.4311 H   0  0  0  0  0  0  0  0  0  0  0  0
   -4.6631   23.3599  -28.9226 H   0  0  0  0  0  0  0  0  0  0  0  0
   -3.5634   22.0553  -27.1032 H   0  0  0  0  0  0  0  0  0  0  0  0
    0.8396   19.2421  -29.5539 H   0  0  0  0  0  0  0  0  0  0  0  0
   -1.1729   17.8945  -28.4635 H   0  0  0  0  0  0  0  0  0  0  0  0
   -2.2186   19.3647  -25.2603 H   0  0  0  0  0  0  0  0  0  0  0  0
   -3.2951   19.9951  -26.5528 H   0  0  0  0  0  0  0  0  0  0  0  0
   -2.8091   18.2658  -26.5528 H   0  0  0  0  0  0  0  0  0  0  0  0
    0.0558   24.3673  -27.6261 H   0  0  0  0  0  0  0  0  0  0  0  0
   -1.0374   25.6686  -29.4509 H   0  0  0  0  0  0  0  0  0  0  0  0
  1  2  1  0
  2  3  1  0
  3  4  2  0
  4  5  1  0
  5  6  2  0
  6  7  1  0
  6  8  1  0
  8  9  2  0
  9 10  1  0
 10 11  1  0
 11 12  2  0
 11 13  1  0
 13 14  1  0
 14 15  2  0
 15 16  1  0
 16 17  2  0
 17 18  1  0
 18 19  1  0
 19 20  2  0
 20 21  1  0
 21 22  2  0
 22 23  1  0
 23 24  1  0
 17 25  1  0
 25 26  2  0
  9  3  1  0
 26 14  1  0
 23 19  1  0
  1 27  1  0
  1 28  1  0
  1 29  1  0
  4 30  1  0
  5 31  1  0
  7 32  1  0
  7 33  1  0
  7 34  1  0
  8 35  1  0
 15 36  1  0
 16 37  1  0
 21 38  1  0
 22 39  1  0
 24 40  1  0
 24 41  1  0
 24 42  1  0
 25 43  1  0
 26 44  1  0
M  CHG  2  10  -1  13  -1
M  END
>  <UniqueID>  (45) 
40

>  <SMILES>  (45) 
COc1ccc(C)cc1[N-]C(=O)[N-]c1ccc(Sc2nccn2C)cc1

>  <Energy>  (45) 
72.27576200635679

>  <Genealogy>  (45) 
COc1ccc(C)cc1[N-]C(=O)[N-]c1ccc(Sc2nccn2C)cc1 (protonated)
COc1ccc(C)cc1[N-]C(=O)[N-]c1ccc(Sc2nccn2C)cc1 (3D coordinates assigned)
COc1ccc(C)cc1[N-]C(=O)[N-]c1ccc(Sc2nccn2C)cc1 (optimized conformer: 72.27576200635679 kcal/mol)

>  <smiles>  (45) 
COc1ccc(C)cc1NC(=O)Nc1ccc(Sc2nccn2C)cc1

>  <score_type>  (45) 
oracle

>  <origin>  (45) 
adgpu

>  <m_score__min__energy>  (45) 
-11.83

>  <m_primary>  (45) 
energy

$$$$
45:0
     RDKit          3D

 61 64  0  0  0  0  0  0  0  0999 V2000
   -0.8000   29.7230  -25.3820 C   0  0  0  0  0  0  0  0  0  0  0  0
   -0.8660   28.6030  -24.5070 O   0  0  0  0  0  0  0  0  0  0  0  0
   -0.8610   27.2650  -24.9280 C   0  0  0  0  0  0  0  0  0  0  0  0
   -0.8160   26.2640  -23.9520 C   0  0  0  0  0  0  0  0  0  0  0  0
   -0.8000   24.9170  -24.3190 C   0  0  0  0  0  0  0  0  0  0  0  0
   -0.8310   24.5570  -25.6680 C   0  0  0  0  0  0  0  0  0  0  0  0
   -0.8840   25.5450  -26.6660 C   0  0  0  0  0  0  0  0  0  0  0  0
   -0.8880   25.1710  -28.1000 C   0  0  0  0  0  0  0  0  0  0  0  0
    0.0670   24.4940  -28.5690 O   0  0  0  0  0  0  0  0  0  0  0  0
   -1.9800   25.5030  -28.9670 N   0  0  0  0  0  0  0  0  0  0  0  0
   -2.9910   24.5980  -29.4340 C   0  0  0  0  0  0  0  0  0  0  0  0
   -2.5970   23.4130  -30.0640 C   0  0  0  0  0  0  0  0  0  0  0  0
   -3.5520   22.5320  -30.5760 C   0  0  0  0  0  0  0  0  0  0  0  0
   -4.9200   22.8350  -30.4860 C   0  0  0  0  0  0  0  0  0  0  0  0
   -5.9260   21.9270  -31.0870 C   0  0  0  0  0  0  0  0  0  0  0  0
   -7.2420   22.3630  -31.2980 C   0  0  0  0  0  0  0  0  0  0  0  0
   -8.1960   21.4960  -31.8330 C   0  0  0  0  0  0  0  0  0  0  0  0
   -7.8610   20.1630  -32.1430 C   0  0  0  0  0  0  0  0  0  0  0  0
   -8.8040   19.2760  -32.6850 O   0  0  0  0  0  0  0  0  0  0  0  0
   -9.4650   18.2500  -31.9570 C   0  0  0  0  0  0  0  0  0  0  0  0
   -6.5490   19.7050  -31.8940 C   0  0  0  0  0  0  0  0  0  0  0  0
   -6.1440   18.2750  -32.1970 C   0  0  0  0  0  0  0  0  0  0  0  0
   -6.3440   17.8380  -33.6080 N   0  0  0  0  0  0  0  0  0  0  0  0
   -6.3970   16.3660  -33.8040 C   0  0  0  0  0  0  0  0  0  0  0  0
   -5.0380   15.7410  -34.1530 C   0  0  0  0  0  0  0  0  0  0  0  0
   -4.4410   16.4360  -35.2920 N   0  0  0  0  0  0  0  0  0  0  0  0
   -4.1830   17.8270  -34.9270 C   0  0  0  0  0  0  0  0  0  0  0  0
   -5.5020   18.5480  -34.6070 C   0  0  0  0  0  0  0  0  0  0  0  0
   -5.5820   20.6070  -31.4150 C   0  0  0  0  0  0  0  0  0  0  0  0
   -5.3140   24.0300  -29.8610 C   0  0  0  0  0  0  0  0  0  0  0  0
   -4.3590   24.9050  -29.3390 C   0  0  0  0  0  0  0  0  0  0  0  0
   -0.8930   26.9000  -26.2880 C   0  0  0  0  0  0  0  0  0  0  0  0
   -0.7455   30.6483  -24.7897 H   0  0  0  0  0  0  0  0  0  0  0  0
    0.0948   29.6405  -26.0164 H   0  0  0  0  0  0  0  0  0  0  0  0
   -1.6983   29.7461  -26.0164 H   0  0  0  0  0  0  0  0  0  0  0  0
   -0.7930   26.5401  -22.8875 H   0  0  0  0  0  0  0  0  0  0  0  0
   -0.7629   24.1375  -23.5438 H   0  0  0  0  0  0  0  0  0  0  0  0
   -0.8138   23.4942  -25.9510 H   0  0  0  0  0  0  0  0  0  0  0  0
   -1.5275   23.1733  -30.1568 H   0  0  0  0  0  0  0  0  0  0  0  0
   -3.2303   21.5944  -31.0530 H   0  0  0  0  0  0  0  0  0  0  0  0
   -7.5241   23.3945  -31.0403 H   0  0  0  0  0  0  0  0  0  0  0  0
   -9.2192   21.8568  -32.0144 H   0  0  0  0  0  0  0  0  0  0  0  0
   -9.3478   18.4319  -30.8785 H   0  0  0  0  0  0  0  0  0  0  0  0
  -10.5344   18.2484  -32.2145 H   0  0  0  0  0  0  0  0  0  0  0  0
   -9.0244   17.2755  -32.2145 H   0  0  0  0  0  0  0  0  0  0  0  0
   -5.0761   18.1668  -31.9566 H   0  0  0  0  0  0  0  0  0  0  0  0
   -6.8018   17.6385  -31.5870 H   0  0  0  0  0  0  0  0  0  0  0  0
   -7.3210   18.1610  -33.8170 H   0  0  0  0  0  0  0  0  0  0  0  0
   -6.7632   15.9048  -32.8749 H   0  0  0  0  0  0  0  0  0  0  0  0
   -7.0658   16.1788  -34.6570 H   0  0  0  0  0  0  0  0  0  0  0  0
   -4.3669   15.8223  -33.2852 H   0  0  0  0  0  0  0  0  0  0  0  0
   -5.1859   14.6830  -34.4151 H   0  0  0  0  0  0  0  0  0  0  0  0
   -3.5190   15.9830  -35.4940 H   0  0  0  0  0  0  0  0  0  0  0  0
   -3.5303   17.8548  -34.0420 H   0  0  0  0  0  0  0  0  0  0  0  0
   -3.6941   18.3338  -35.7720 H   0  0  0  0  0  0  0  0  0  0  0  0
   -5.2649   19.5476  -34.2137 H   0  0  0  0  0  0  0  0  0  0  0  0
   -6.0799   18.5912  -35.5420 H   0  0  0  0  0  0  0  0  0  0  0  0
   -4.5408   20.2726  -31.2958 H   0  0  0  0  0  0  0  0  0  0  0  0
   -6.3827   24.2782  -29.7822 H   0  0  0  0  0  0  0  0  0  0  0  0
   -4.6787   25.8379  -28.8517 H   0  0  0  0  0  0  0  0  0  0  0  0
   -0.9253   27.6815  -27.0615 H   0  0  0  0  0  0  0  0  0  0  0  0
  1  2  1  0
  2  3  1  0
  3  4  2  0
  4  5  1  0
  5  6  2  0
  6  7  1  0
  7  8  1  0
  8  9  2  0
  8 10  1  0
 10 11  1  0
 11 12  2  0
 12 13  1  0
 13 14  2  0
 14 15  1  0
 15 16  2  0
 16 17  1  0
 17 18  2  0
 18 19  1  0
 19 20  1  0
 18 21  1  0
 21 22  1  0
 22 23  1  0
 23 24  1  0
 24 25  1  0
 25 26  1  0
 26 27  1  0
 27 28  1  0
 21 29  2  0
 14 30  1  0
 30 31  2  0
  7 32  2  0
 32  3  1  0
 31 11  1  0
 29 15  1  0
 28 23  1  0
  1 33  1  0
  1 34  1  0
  1 35  1  0
  4 36  1  0
  5 37  1  0
  6 38  1  0
 12 39  1  0
 13 40  1  0
 16 41  1  0
 17 42  1  0
 20 43  1  0
 20 44  1  0
 20 45  1  0
 22 46  1  0
 22 47  1  0
 23 48  1  0
 24 49  1  0
 24 50  1  0
 25 51  1  0
 25 52  1  0
 26 53  1  0
 27 54  1  0
 27 55  1  0
 28 56  1  0
 28 57  1  0
 29 58  1  0
 30 59  1  0
 31 60  1  0
 32 61  1  0
M  CHG  2  10  -1  23   1
M  END
>  <UniqueID>  (46) 
41

>  <SMILES>  (46) 
COc1cccc(C(=O)[N-]c2ccc(-c3ccc(OC)c(C[NH+]4CCNCC4)c3)cc2)c1

>  <Energy>  (46) 
84.5138704736688

>  <Genealogy>  (46) 
COc1cccc(C(=O)[N-]c2ccc(-c3ccc(OC)c(C[NH+]4CCNCC4)c3)cc2)c1 (protonated)
COc1cccc(C(=O)[N-]c2ccc(-c3ccc(OC)c(C[NH+]4CCNCC4)c3)cc2)c1 (3D coordinates assigned)
COc1cccc(C(=O)[N-]c2ccc(-c3ccc(OC)c(C[NH+]4CCNCC4)c3)cc2)c1 (nonaromatic ring conformer: 84.5138704736688 kcal/mol)

>  <smiles>  (46) 
COc1cccc(C(=O)Nc2ccc(-c3ccc(OC)c(CN4CCNCC4)c3)cc2)c1

>  <score_type>  (46) 
oracle

>  <origin>  (46) 
adgpu

>  <m_score__min__energy>  (46) 
-10.1

>  <m_primary>  (46) 
energy

$$$$
46:0
     RDKit          3D

 47 49  0  0  0  0  0  0  0  0999 V2000
    0.5240   17.3180  -27.4950 C   0  0  0  0  0  0  0  0  0  0  0  0
   -0.4710   18.4260  -27.4610 C   0  0  0  0  0  0  0  0  0  0  0  0
   -0.5030   19.4370  -28.3510 N   0  0  0  0  0  0  0  0  0  0  0  0
   -1.5720   20.1400  -27.9170 C   0  0  0  0  0  0  0  0  0  0  0  0
   -2.0530   21.3840  -28.5560 C   0  0  0  0  0  0  0  0  0  0  0  0
   -2.0440   22.5950  -27.8490 C   0  0  0  0  0  0  0  0  0  0  0  0
   -2.5120   23.7660  -28.4460 C   0  0  0  0  0  0  0  0  0  0  0  0
   -3.0080   23.7500  -29.7540 C   0  0  0  0  0  0  0  0  0  0  0  0
   -3.4920   24.9780  -30.3120 N   0  0  0  0  0  0  0  0  0  0  0  0
   -4.8780   25.2760  -30.5210 C   0  0  0  0  0  0  0  0  0  0  0  0
   -5.2750   26.4720  -30.4670 O   0  0  0  0  0  0  0  0  0  0  0  0
   -5.8360   24.1890  -30.8280 C   0  0  0  0  0  0  0  0  0  0  0  0
   -6.2810   23.3210  -29.8140 C   0  0  0  0  0  0  0  0  0  0  0  0
   -7.1850   22.2950  -30.1040 C   0  0  0  0  0  0  0  0  0  0  0  0
   -7.6600   22.1200  -31.4090 C   0  0  0  0  0  0  0  0  0  0  0  0
   -8.8110   20.8310  -31.7720 S   0  0  0  0  0  0  0  0  0  0  0  0
   -9.1590   20.1080  -30.5000 O   0  0  0  0  0  0  0  0  0  0  0  0
  -10.0740   21.4360  -32.3210 O   0  0  0  0  0  0  0  0  0  0  0  0
   -8.1610   19.6940  -32.9260 N   0  0  0  0  0  0  0  0  0  0  0  0
   -6.7690   20.0420  -33.2380 C   0  0  0  0  0  0  0  0  0  0  0  0
   -8.2340   18.3320  -32.3800 C   0  0  0  0  0  0  0  0  0  0  0  0
   -7.2210   22.9790  -32.4240 C   0  0  0  0  0  0  0  0  0  0  0  0
   -6.3160   24.0050  -32.1380 C   0  0  0  0  0  0  0  0  0  0  0  0
   -2.9710   22.5480  -30.5000 C   0  0  0  0  0  0  0  0  0  0  0  0
   -3.4040   22.4930  -31.9410 C   0  0  0  0  0  0  0  0  0  0  0  0
   -2.5180   21.3700  -29.8820 C   0  0  0  0  0  0  0  0  0  0  0  0
   -2.1490   19.5790  -26.8340 N   0  0  0  0  0  0  0  0  0  0  0  0
   -1.4400   18.5200  -26.5860 O   0  0  0  0  0  0  0  0  0  0  0  0
    0.7847   17.0277  -26.4665 H   0  0  0  0  0  0  0  0  0  0  0  0
    0.0928   16.4540  -28.0218 H   0  0  0  0  0  0  0  0  0  0  0  0
    1.4293   17.6542  -28.0218 H   0  0  0  0  0  0  0  0  0  0  0  0
   -1.6653   22.6219  -26.8166 H   0  0  0  0  0  0  0  0  0  0  0  0
   -2.4908   24.7107  -27.8829 H   0  0  0  0  0  0  0  0  0  0  0  0
   -5.9146   23.4508  -28.7850 H   0  0  0  0  0  0  0  0  0  0  0  0
   -7.5247   21.6220  -29.3029 H   0  0  0  0  0  0  0  0  0  0  0  0
   -6.2076   20.1823  -32.3025 H   0  0  0  0  0  0  0  0  0  0  0  0
   -6.3105   19.2308  -33.8226 H   0  0  0  0  0  0  0  0  0  0  0  0
   -6.7461   20.9735  -33.8226 H   0  0  0  0  0  0  0  0  0  0  0  0
   -8.2316   18.3770  -31.2809 H   0  0  0  0  0  0  0  0  0  0  0  0
   -9.1594   17.8477  -32.7251 H   0  0  0  0  0  0  0  0  0  0  0  0
   -7.3657   17.7516  -32.7251 H   0  0  0  0  0  0  0  0  0  0  0  0
   -7.5902   22.8456  -33.4516 H   0  0  0  0  0  0  0  0  0  0  0  0
   -5.9764   24.6736  -32.9428 H   0  0  0  0  0  0  0  0  0  0  0  0
   -4.4941   22.3545  -31.9913 H   0  0  0  0  0  0  0  0  0  0  0  0
   -3.1303   23.4331  -32.4422 H   0  0  0  0  0  0  0  0  0  0  0  0
   -2.9040   21.6512  -32.4422 H   0  0  0  0  0  0  0  0  0  0  0  0
   -2.5275   20.4243  -30.4437 H   0  0  0  0  0  0  0  0  0  0  0  0
  1  2  1  0
  2  3  2  0
  3  4  1  0
  4  5  1  0
  5  6  2  0
  6  7  1  0
  7  8  2  0
  8  9  1  0
  9 10  1  0
 10 11  2  0
 10 12  1  0
 12 13  2  0
 13 14  1  0
 14 15  2  0
 15 16  1  0
 16 17  2  0
 16 18  2  0
 16 19  1  0
 19 20  1  0
 19 21  1  0
 15 22  1  0
 22 23  2  0
  8 24  1  0
 24 25  1  0
 24 26  2  0
  4 27  2  0
 27 28  1  0
 28  2  1  0
 26  5  1  0
 23 12  1  0
  1 29  1  0
  1 30  1  0
  1 31  1  0
  6 32  1  0
  7 33  1  0
 13 34  1  0
 14 35  1  0
 20 36  1  0
 20 37  1  0
 20 38  1  0
 21 39  1  0
 21 40  1  0
 21 41  1  0
 22 42  1  0
 23 43  1  0
 25 44  1  0
 25 45  1  0
 25 46  1  0
 26 47  1  0
M  CHG  1   9  -1
M  END
>  <UniqueID>  (47) 
42

>  <SMILES>  (47) 
Cc1nc(-c2ccc([N-]C(=O)c3ccc(S(=O)(=O)N(C)C)cc3)c(C)c2)no1

>  <Energy>  (47) 
85.98524633807685

>  <Genealogy>  (47) 
Cc1nc(-c2ccc([N-]C(=O)c3ccc(S(=O)(=O)N(C)C)cc3)c(C)c2)no1 (protonated)
Cc1nc(-c2ccc([N-]C(=O)c3ccc(S(=O)(=O)N(C)C)cc3)c(C)c2)no1 (3D coordinates assigned)
Cc1nc(-c2ccc([N-]C(=O)c3ccc(S(=O)(=O)N(C)C)cc3)c(C)c2)no1 (optimized conformer: 85.98524633807685 kcal/mol)

>  <smiles>  (47) 
Cc1nc(-c2ccc(NC(=O)c3ccc(S(=O)(=O)N(C)C)cc3)c(C)c2)no1

>  <score_type>  (47) 
oracle

>  <origin>  (47) 
adgpu

>  <m_score__min__energy>  (47) 
-11.140000000000001

>  <m_primary>  (47) 
energy

$$$$
47:0
     RDKit          3D

 35 36  0  0  0  0  0  0  0  0999 V2000
   -7.2220   17.5960  -33.1930 C   0  0  0  0  0  0  0  0  0  0  0  0
   -6.8490   18.8370  -32.4500 C   0  0  0  0  0  0  0  0  0  0  0  0
   -6.4800   18.7500  -31.2490 O   0  0  0  0  0  0  0  0  0  0  0  0
   -7.0050   20.1190  -33.0790 N   0  0  0  0  0  0  0  0  0  0  0  0
   -6.5110   21.3530  -32.5290 C   0  0  0  0  0  0  0  0  0  0  0  0
   -7.3820   22.3370  -32.0310 C   0  0  0  0  0  0  0  0  0  0  0  0
   -6.8740   23.5170  -31.4800 C   0  0  0  0  0  0  0  0  0  0  0  0
   -5.4870   23.7330  -31.4040 C   0  0  0  0  0  0  0  0  0  0  0  0
   -4.9510   24.9850  -30.8190 C   0  0  0  0  0  0  0  0  0  0  0  0
   -5.7060   25.9850  -30.6740 O   0  0  0  0  0  0  0  0  0  0  0  0
   -3.5620   25.0760  -30.4690 N   0  0  0  0  0  0  0  0  0  0  0  0
   -2.9160   24.4380  -29.3580 C   0  0  0  0  0  0  0  0  0  0  0  0
   -3.4830   23.3340  -28.6970 C   0  0  0  0  0  0  0  0  0  0  0  0
   -2.8090   22.7260  -27.6340 C   0  0  0  0  0  0  0  0  0  0  0  0
   -1.5480   23.1940  -27.2340 C   0  0  0  0  0  0  0  0  0  0  0  0
   -0.8430   22.5670  -26.0680 C   0  0  0  0  0  0  0  0  0  0  0  0
   -0.9790   24.2910  -27.8970 C   0  0  0  0  0  0  0  0  0  0  0  0
   -1.6540   24.8980  -28.9610 C   0  0  0  0  0  0  0  0  0  0  0  0
   -4.6180   22.7360  -31.8820 C   0  0  0  0  0  0  0  0  0  0  0  0
   -5.1270   21.5560  -32.4320 C   0  0  0  0  0  0  0  0  0  0  0  0
   -7.4620   16.7974  -32.4757 H   0  0  0  0  0  0  0  0  0  0  0  0
   -8.0995   17.7969  -33.8252 H   0  0  0  0  0  0  0  0  0  0  0  0
   -6.3792   17.2799  -33.8252 H   0  0  0  0  0  0  0  0  0  0  0  0
   -7.5850   20.1660  -33.9470 H   0  0  0  0  0  0  0  0  0  0  0  0
   -8.4695   22.1778  -32.0750 H   0  0  0  0  0  0  0  0  0  0  0  0
   -7.5662   24.2839  -31.1023 H   0  0  0  0  0  0  0  0  0  0  0  0
   -4.4614   22.9471  -29.0179 H   0  0  0  0  0  0  0  0  0  0  0  0
   -3.2694   21.8764  -27.1084 H   0  0  0  0  0  0  0  0  0  0  0  0
   -1.2731   22.9495  -25.1306 H   0  0  0  0  0  0  0  0  0  0  0  0
   -0.9663   21.4747  -26.1091 H   0  0  0  0  0  0  0  0  0  0  0  0
    0.2274   22.8170  -26.1091 H   0  0  0  0  0  0  0  0  0  0  0  0
    0.0014   24.6753  -27.5792 H   0  0  0  0  0  0  0  0  0  0  0  0
   -1.1901   25.7434  -29.4903 H   0  0  0  0  0  0  0  0  0  0  0  0
   -3.5299   22.8858  -31.8227 H   0  0  0  0  0  0  0  0  0  0  0  0
   -4.4357   20.7798  -32.7919 H   0  0  0  0  0  0  0  0  0  0  0  0
  1  2  1  0
  2  3  2  0
  2  4  1  0
  4  5  1  0
  5  6  2  0
  6  7  1  0
  7  8  2  0
  8  9  1  0
  9 10  2  0
  9 11  1  0
 11 12  1  0
 12 13  2  0
 13 14  1  0
 14 15  2  0
 15 16  1  0
 15 17  1  0
 17 18  2  0
  8 19  1  0
 19 20  2  0
 20  5  1  0
 18 12  1  0
  1 21  1  0
  1 22  1  0
  1 23  1  0
  4 24  1  0
  6 25  1  0
  7 26  1  0
 13 27  1  0
 14 28  1  0
 16 29  1  0
 16 30  1  0
 16 31  1  0
 17 32  1  0
 18 33  1  0
 19 34  1  0
 20 35  1  0
M  CHG  1  11  -1
M  END
>  <UniqueID>  (48) 
43

>  <SMILES>  (48) 
CC(=O)Nc1ccc(C(=O)[N-]c2ccc(C)cc2)cc1

>  <Energy>  (48) 
40.541882131624185

>  <Genealogy>  (48) 
CC(=O)Nc1ccc(C(=O)[N-]c2ccc(C)cc2)cc1 (protonated)
CC(=O)Nc1ccc(C(=O)[N-]c2ccc(C)cc2)cc1 (3D coordinates assigned)
CC(=O)Nc1ccc(C(=O)[N-]c2ccc(C)cc2)cc1 (optimized conformer: 40.541882131624185 kcal/mol)

>  <smiles>  (48) 
CC(=O)Nc1ccc(C(=O)Nc2ccc(C)cc2)cc1

>  <score_type>  (48) 
oracle

>  <origin>  (48) 
adgpu

>  <m_score__min__energy>  (48) 
-9.2400000000000002

>  <m_primary>  (48) 
energy

$$$$
48:0
     RDKit          3D

 41 42  0  0  0  0  0  0  0  0999 V2000
   -8.5350   20.6250  -31.2130 C   0  0  0  0  0  0  0  0  0  0  0  0
   -8.2150   20.3620  -32.6790 C   0  0  0  0  0  0  0  0  0  0  0  0
   -6.8530   19.9640  -32.8350 O   0  0  0  0  0  0  0  0  0  0  0  0
   -6.4070   18.6830  -33.2090 C   0  0  0  0  0  0  0  0  0  0  0  0
   -7.2270   17.5410  -33.1070 C   0  0  0  0  0  0  0  0  0  0  0  0
   -6.7470   16.2880  -33.4910 C   0  0  0  0  0  0  0  0  0  0  0  0
   -5.4490   16.1550  -33.9830 C   0  0  0  0  0  0  0  0  0  0  0  0
   -4.6240   17.2760  -34.0900 C   0  0  0  0  0  0  0  0  0  0  0  0
   -5.0940   18.5440  -33.7090 C   0  0  0  0  0  0  0  0  0  0  0  0
   -4.1690   19.7320  -33.7670 C   0  0  0  0  0  0  0  0  0  0  0  0
   -4.4970   20.6640  -32.6920 N   0  0  0  0  0  0  0  0  0  0  0  0
   -3.5530   21.0050  -31.6680 C   0  0  0  0  0  0  0  0  0  0  0  0
   -2.3250   20.7690  -31.8290 O   0  0  0  0  0  0  0  0  0  0  0  0
   -4.0260   21.6060  -30.3810 C   0  0  0  0  0  0  0  0  0  0  0  0
   -4.1830   23.0930  -30.5300 C   0  0  0  0  0  0  0  0  0  0  0  0
   -5.1800   23.7800  -31.1990 C   0  0  0  0  0  0  0  0  0  0  0  0
   -6.3170   23.1860  -31.9620 C   0  0  0  0  0  0  0  0  0  0  0  0
   -4.9310   25.1030  -31.1410 N   0  0  0  0  0  0  0  0  0  0  0  0
   -3.8180   25.2910  -30.4460 N   0  0  0  0  0  0  0  0  0  0  0  0
   -3.3440   24.0890  -30.0650 C   0  0  0  0  0  0  0  0  0  0  0  0
   -2.0850   23.9040  -29.2840 C   0  0  0  0  0  0  0  0  0  0  0  0
   -7.8410   20.0546  -30.5782 H   0  0  0  0  0  0  0  0  0  0  0  0
   -8.4273   21.6990  -31.0011 H   0  0  0  0  0  0  0  0  0  0  0  0
   -9.5678   20.3113  -31.0011 H   0  0  0  0  0  0  0  0  0  0  0  0
   -8.8701   19.5617  -33.0536 H   0  0  0  0  0  0  0  0  0  0  0  0
   -8.3800   21.2885  -33.2486 H   0  0  0  0  0  0  0  0  0  0  0  0
   -8.2528   17.6381  -32.7219 H   0  0  0  0  0  0  0  0  0  0  0  0
   -7.3944   15.4028  -33.4053 H   0  0  0  0  0  0  0  0  0  0  0  0
   -5.0750   15.1662  -34.2870 H   0  0  0  0  0  0  0  0  0  0  0  0
   -3.5995   17.1659  -34.4750 H   0  0  0  0  0  0  0  0  0  0  0  0
   -3.1293   19.3919  -33.6515 H   0  0  0  0  0  0  0  0  0  0  0  0
   -4.2865   20.2382  -34.7365 H   0  0  0  0  0  0  0  0  0  0  0  0
   -5.4830   20.9970  -32.6040 H   0  0  0  0  0  0  0  0  0  0  0  0
   -4.9955   21.1637  -30.1080 H   0  0  0  0  0  0  0  0  0  0  0  0
   -3.2848   21.4001  -29.5947 H   0  0  0  0  0  0  0  0  0  0  0  0
   -7.0662   22.7946  -31.2581 H   0  0  0  0  0  0  0  0  0  0  0  0
   -6.7773   23.9589  -32.5951 H   0  0  0  0  0  0  0  0  0  0  0  0
   -5.9455   22.3668  -32.5951 H   0  0  0  0  0  0  0  0  0  0  0  0
   -2.3125   23.9374  -28.2083 H   0  0  0  0  0  0  0  0  0  0  0  0
   -1.6380   22.9305  -29.5341 H   0  0  0  0  0  0  0  0  0  0  0  0
   -1.3769   24.7077  -29.5341 H   0  0  0  0  0  0  0  0  0  0  0  0
  1  2  1  0
  2  3  1  0
  3  4  1  0
  4  5  2  0
  5  6  1  0
  6  7  2  0
  7  8  1  0
  8  9  2  0
  9 10  1  0
 10 11  1  0
 11 12  1  0
 12 13  2  0
 12 14  1  0
 14 15  1  0
 15 16  1  0
 16 17  1  0
 16 18  2  0
 18 19  1  0
 19 20  1  0
 20 21  1  0
  9  4  1  0
 20 15  2  0
  1 22  1  0
  1 23  1  0
  1 24  1  0
  2 25  1  0
  2 26  1  0
  5 27  1  0
  6 28  1  0
  7 29  1  0
  8 30  1  0
 10 31  1  0
 10 32  1  0
 11 33  1  0
 14 34  1  0
 14 35  1  0
 17 36  1  0
 17 37  1  0
 17 38  1  0
 21 39  1  0
 21 40  1  0
 21 41  1  0
M  CHG  1  19  -1
M  END
>  <UniqueID>  (49) 
44

>  <SMILES>  (49) 
CCOc1ccccc1CNC(=O)Cc1c(C)n[n-]c1C

>  <Energy>  (49) 
57.696584061298786

>  <Genealogy>  (49) 
CCOc1ccccc1CNC(=O)Cc1c(C)n[n-]c1C (protonated)
CCOc1ccccc1CNC(=O)Cc1c(C)n[n-]c1C (3D coordinates assigned)
CCOc1ccccc1CNC(=O)Cc1c(C)n[n-]c1C (optimized conformer: 57.696584061298786 kcal/mol)

>  <smiles>  (49) 
CCOc1ccccc1CNC(=O)Cc1c(C)n[nH]c1C

>  <score_type>  (49) 
oracle

>  <origin>  (49) 
adgpu

>  <m_score__min__energy>  (49) 
-9.1999999999999993

>  <m_primary>  (49) 
energy

$$$$
49:0
     RDKit          3D

 26 27  0  0  0  0  0  0  0  0999 V2000
   -1.9790   25.6590  -28.9560 N   0  0  0  0  0  0  0  0  0  0  0  0
   -1.1610   24.5010  -29.0870 C   0  0  0  0  0  0  0  0  0  0  0  0
    0.0020   24.5170  -28.6040 O   0  0  0  0  0  0  0  0  0  0  0  0
   -1.6390   23.2910  -29.7960 C   0  0  0  0  0  0  0  0  0  0  0  0
   -0.8280   22.2060  -30.0850 C   0  0  0  0  0  0  0  0  0  0  0  0
   -1.6270   21.2910  -30.7350 C   0  0  0  0  0  0  0  0  0  0  0  0
   -1.1320   19.7190  -31.3280 Cl  0  0  0  0  0  0  0  0  0  0  0  0
   -2.8890   21.8340  -30.8210 C   0  0  0  0  0  0  0  0  0  0  0  0
   -2.8970   23.0540  -30.2500 N   0  0  0  0  0  0  0  0  0  0  0  0
   -4.3220   24.0360  -30.0880 S   0  0  0  0  0  0  0  0  0  0  0  0
   -4.1520   25.3070  -30.8720 O   0  0  0  0  0  0  0  0  0  0  0  0
   -4.5180   24.3850  -28.6390 O   0  0  0  0  0  0  0  0  0  0  0  0
   -5.7240   23.1780  -30.7190 C   0  0  0  0  0  0  0  0  0  0  0  0
   -6.8490   22.9810  -29.9080 C   0  0  0  0  0  0  0  0  0  0  0  0
   -7.9660   22.3040  -30.4080 C   0  0  0  0  0  0  0  0  0  0  0  0
   -7.9610   21.8160  -31.7180 C   0  0  0  0  0  0  0  0  0  0  0  0
   -9.0440   21.1600  -32.2030 F   0  0  0  0  0  0  0  0  0  0  0  0
   -6.8360   22.0040  -32.5290 C   0  0  0  0  0  0  0  0  0  0  0  0
   -5.7180   22.6820  -32.0310 C   0  0  0  0  0  0  0  0  0  0  0  0
   -2.9530   25.6750  -29.3340 H   0  0  0  0  0  0  0  0  0  0  0  0
    0.2397   22.0968  -29.8439 H   0  0  0  0  0  0  0  0  0  0  0  0
   -3.7586   21.3459  -31.2853 H   0  0  0  0  0  0  0  0  0  0  0  0
   -6.8539   23.3597  -28.8753 H   0  0  0  0  0  0  0  0  0  0  0  0
   -8.8495   22.1554  -29.7697 H   0  0  0  0  0  0  0  0  0  0  0  0
   -6.8307   21.6183  -33.5591 H   0  0  0  0  0  0  0  0  0  0  0  0
   -4.8336   22.8262  -32.6689 H   0  0  0  0  0  0  0  0  0  0  0  0
  1  2  1  0
  2  3  2  0
  2  4  1  0
  4  5  2  0
  5  6  1  0
  6  7  1  0
  6  8  2  0
  8  9  1  0
  9 10  1  0
 10 11  2  0
 10 12  2  0
 10 13  1  0
 13 14  2  0
 14 15  1  0
 15 16  2  0
 16 17  1  0
 16 18  1  0
 18 19  2  0
  9  4  1  0
 19 13  1  0
  1 20  1  0
  5 21  1  0
  8 22  1  0
 14 23  1  0
 15 24  1  0
 18 25  1  0
 19 26  1  0
M  CHG  1   1  -1
M  END
>  <UniqueID>  (50) 
45

>  <SMILES>  (50) 
[NH-]C(=O)c1cc(Cl)cn1S(=O)(=O)c1ccc(F)cc1

>  <Energy>  (50) 
56.15869125016455

>  <Genealogy>  (50) 
[NH-]C(=O)c1cc(Cl)cn1S(=O)(=O)c1ccc(F)cc1 (protonated)
[NH-]C(=O)c1cc(Cl)cn1S(=O)(=O)c1ccc(F)cc1 (3D coordinates assigned)
[NH-]C(=O)c1cc(Cl)cn1S(=O)(=O)c1ccc(F)cc1 (optimized conformer: 56.15869125016455 kcal/mol)

>  <smiles>  (50) 
NC(=O)c1cc(Cl)cn1S(=O)(=O)c1ccc(F)cc1

>  <score_type>  (50) 
oracle

>  <origin>  (50) 
adgpu

>  <m_score__min__energy>  (50) 
-9.8000000000000007

>  <m_primary>  (50) 
energy

$$$$
