0:0
     RDKit          3D

 39 42  0  0  0  0  0  0  0  0999 V2000
    0.6040   21.4490  -32.8050 O   0  0  0  0  0  0  0  0  0  0  0  0
   -0.0500   21.2100  -33.8410 N   0  0  0  0  0  0  0  0  0  0  0  0
    0.1960   21.9610  -34.9680 O   0  0  0  0  0  0  0  0  0  0  0  0
   -0.8890   20.0470  -33.9200 C   0  0  0  0  0  0  0  0  0  0  0  0
   -0.4760   18.9600  -34.7090 C   0  0  0  0  0  0  0  0  0  0  0  0
   -1.2130   17.7750  -34.7320 C   0  0  0  0  0  0  0  0  0  0  0  0
   -2.3710   17.6580  -33.9650 C   0  0  0  0  0  0  0  0  0  0  0  0
   -2.8100   18.7330  -33.1920 C   0  0  0  0  0  0  0  0  0  0  0  0
   -2.0950   19.9420  -33.1770 C   0  0  0  0  0  0  0  0  0  0  0  0
   -2.6620   21.0800  -32.4240 C   0  0  0  0  0  0  0  0  0  0  0  0
   -2.0290   21.6800  -31.3860 N   0  0  0  0  0  0  0  0  0  0  0  0
   -2.9270   22.5900  -30.9500 C   0  0  0  0  0  0  0  0  0  0  0  0
   -2.7520   23.4410  -29.8610 C   0  0  0  0  0  0  0  0  0  0  0  0
   -3.8230   24.2740  -29.5030 C   0  0  0  0  0  0  0  0  0  0  0  0
   -5.0350   24.2230  -30.2210 C   0  0  0  0  0  0  0  0  0  0  0  0
   -6.5030   25.3320  -29.7120 Br  0  0  0  0  0  0  0  0  0  0  0  0
   -5.1580   23.3410  -31.3050 C   0  0  0  0  0  0  0  0  0  0  0  0
   -4.0830   22.5790  -31.6410 N   0  0  0  0  0  0  0  0  0  0  0  0
   -3.9210   21.6390  -32.5870 C   0  0  0  0  0  0  0  0  0  0  0  0
   -4.9480   21.1630  -33.4700 N   0  0  0  0  0  0  0  0  0  0  0  0
   -6.0760   20.3830  -33.0380 C   0  0  0  0  0  0  0  0  0  0  0  0
   -6.1030   18.9820  -33.1830 C   0  0  0  0  0  0  0  0  0  0  0  0
   -7.2040   18.2460  -32.7330 C   0  0  0  0  0  0  0  0  0  0  0  0
   -8.2810   18.8980  -32.1250 C   0  0  0  0  0  0  0  0  0  0  0  0
   -9.3470   18.1830  -31.6870 F   0  0  0  0  0  0  0  0  0  0  0  0
   -8.2550   20.2850  -31.9620 C   0  0  0  0  0  0  0  0  0  0  0  0
   -7.1570   21.0240  -32.4100 C   0  0  0  0  0  0  0  0  0  0  0  0
    0.4381   19.0440  -35.3151 H   0  0  0  0  0  0  0  0  0  0  0  0
   -0.8797   16.9326  -35.3560 H   0  0  0  0  0  0  0  0  0  0  0  0
   -2.9396   16.7164  -33.9693 H   0  0  0  0  0  0  0  0  0  0  0  0
   -3.7244   18.6330  -32.5887 H   0  0  0  0  0  0  0  0  0  0  0  0
   -1.8057   23.4594  -29.3004 H   0  0  0  0  0  0  0  0  0  0  0  0
   -3.7163   24.9701  -28.6580 H   0  0  0  0  0  0  0  0  0  0  0  0
   -6.0998   23.2677  -31.8686 H   0  0  0  0  0  0  0  0  0  0  0  0
   -4.9230   21.4890  -34.4610 H   0  0  0  0  0  0  0  0  0  0  0  0
   -5.2537   18.4641  -33.6526 H   0  0  0  0  0  0  0  0  0  0  0  0
   -7.2225   17.1532  -32.8576 H   0  0  0  0  0  0  0  0  0  0  0  0
   -9.1009   20.7967  -31.4798 H   0  0  0  0  0  0  0  0  0  0  0  0
   -7.1389   22.1149  -32.2701 H   0  0  0  0  0  0  0  0  0  0  0  0
  1  2  2  0
  2  3  1  0
  2  4  1  0
  4  5  2  0
  5  6  1  0
  6  7  2  0
  7  8  1  0
  8  9  2  0
  9 10  1  0
 10 11  1  0
 11 12  2  0
 12 13  1  0
 13 14  2  0
 14 15  1  0
 15 16  1  0
 15 17  2  0
 17 18  1  0
 18 19  1  0
 19 20  1  0
 20 21  1  0
 21 22  2  0
 22 23  1  0
 23 24  2  0
 24 25  1  0
 24 26  1  0
 26 27  2  0
  9  4  1  0
 19 10  2  0
 27 21  1  0
 18 12  1  0
  5 28  1  0
  6 29  1  0
  7 30  1  0
  8 31  1  0
 13 32  1  0
 14 33  1  0
 17 34  1  0
 20 35  1  0
 22 36  1  0
 23 37  1  0
 26 38  1  0
 27 39  1  0
M  CHG  2   2   1   3  -1
M  END
>  <UniqueID>  (1) 
1

>  <SMILES>  (1) 
O=[N+]([O-])c1ccccc1-c1nc2ccc(Br)cn2c1Nc1ccc(F)cc1

>  <Energy>  (1) 
94.08131894016589

>  <Genealogy>  (1) 
O=[N+]([O-])c1ccccc1-c1nc2ccc(Br)cn2c1Nc1ccc(F)cc1 (3D coordinates assigned)
O=[N+]([O-])c1ccccc1-c1nc2ccc(Br)cn2c1Nc1ccc(F)cc1 (optimized conformer: 94.08131894016589 kcal/mol)

>  <smiles>  (1) 
O=[N+]([O-])c1ccccc1-c1nc2ccc(Br)cn2c1Nc1ccc(F)cc1

>  <score_type>  (1) 
oracle

>  <origin>  (1) 
adgpu

>  <m_score__min__energy>  (1) 
-9.1099999999999994

>  <m_primary>  (1) 
energy

$$$$
1:0
     RDKit          3D

 41 42  0  0  0  0  0  0  0  0999 V2000
   -8.3950   18.6490  -31.9520 C   0  0  0  0  0  0  0  0  0  0  0  0
   -8.2080   20.0150  -32.6030 C   0  0  0  0  0  0  0  0  0  0  0  0
   -8.5860   21.0590  -31.7060 O   0  0  0  0  0  0  0  0  0  0  0  0
   -7.7890   22.1610  -31.3530 C   0  0  0  0  0  0  0  0  0  0  0  0
   -7.6110   22.5780  -30.0190 C   0  0  0  0  0  0  0  0  0  0  0  0
   -6.8050   23.6830  -29.7270 C   0  0  0  0  0  0  0  0  0  0  0  0
   -6.1650   24.3860  -30.7600 C   0  0  0  0  0  0  0  0  0  0  0  0
   -5.2850   25.5660  -30.4530 C   0  0  0  0  0  0  0  0  0  0  0  0
   -3.8820   25.2160  -30.6440 N   0  0  0  0  0  0  0  0  0  0  0  0
   -3.0710   24.6160  -29.6280 C   0  0  0  0  0  0  0  0  0  0  0  0
   -2.1400   25.2690  -29.0830 O   0  0  0  0  0  0  0  0  0  0  0  0
   -3.2990   23.1840  -29.2480 C   0  0  0  0  0  0  0  0  0  0  0  0
   -2.3910   22.2390  -30.0430 C   0  0  0  0  0  0  0  0  0  0  0  0
   -3.1420   21.5230  -31.1360 C   0  0  0  0  0  0  0  0  0  0  0  0
   -4.3490   20.8600  -30.8510 C   0  0  0  0  0  0  0  0  0  0  0  0
   -5.0260   20.1650  -31.8610 C   0  0  0  0  0  0  0  0  0  0  0  0
   -4.5040   20.1270  -33.1560 C   0  0  0  0  0  0  0  0  0  0  0  0
   -3.3000   20.7770  -33.4450 C   0  0  0  0  0  0  0  0  0  0  0  0
   -2.6180   21.4690  -32.4390 C   0  0  0  0  0  0  0  0  0  0  0  0
   -6.3370   23.9660  -32.0860 C   0  0  0  0  0  0  0  0  0  0  0  0
   -7.1410   22.8610  -32.3780 C   0  0  0  0  0  0  0  0  0  0  0  0
   -8.3799   18.7592  -30.8576 H   0  0  0  0  0  0  0  0  0  0  0  0
   -9.3598   18.2230  -32.2643 H   0  0  0  0  0  0  0  0  0  0  0  0
   -7.5802   17.9793  -32.2643 H   0  0  0  0  0  0  0  0  0  0  0  0
   -7.1507   20.1415  -32.8788 H   0  0  0  0  0  0  0  0  0  0  0  0
   -8.8458   20.0700  -33.4975 H   0  0  0  0  0  0  0  0  0  0  0  0
   -8.1081   22.0321  -29.2036 H   0  0  0  0  0  0  0  0  0  0  0  0
   -6.6719   24.0028  -28.6830 H   0  0  0  0  0  0  0  0  0  0  0  0
   -5.5460   26.3974  -31.1243 H   0  0  0  0  0  0  0  0  0  0  0  0
   -5.4395   25.8639  -29.4054 H   0  0  0  0  0  0  0  0  0  0  0  0
   -3.0899   23.0616  -28.1750 H   0  0  0  0  0  0  0  0  0  0  0  0
   -4.3447   22.9295  -29.4755 H   0  0  0  0  0  0  0  0  0  0  0  0
   -1.5776   22.8250  -30.4958 H   0  0  0  0  0  0  0  0  0  0  0  0
   -1.9967   21.4821  -29.3490 H   0  0  0  0  0  0  0  0  0  0  0  0
   -4.7625   20.8873  -29.8320 H   0  0  0  0  0  0  0  0  0  0  0  0
   -5.9702   19.6483  -31.6341 H   0  0  0  0  0  0  0  0  0  0  0  0
   -5.0403   19.5854  -33.9491 H   0  0  0  0  0  0  0  0  0  0  0  0
   -2.8889   20.7440  -34.4647 H   0  0  0  0  0  0  0  0  0  0  0  0
   -1.6676   21.9731  -32.6685 H   0  0  0  0  0  0  0  0  0  0  0  0
   -5.8365   24.5091  -32.9012 H   0  0  0  0  0  0  0  0  0  0  0  0
   -7.2659   22.5383  -33.4222 H   0  0  0  0  0  0  0  0  0  0  0  0
  1  2  1  0
  2  3  1  0
  3  4  1  0
  4  5  2  0
  5  6  1  0
  6  7  2  0
  7  8  1  0
  8  9  1  0
  9 10  1  0
 10 11  2  0
 10 12  1  0
 12 13  1  0
 13 14  1  0
 14 15  2  0
 15 16  1  0
 16 17  2  0
 17 18  1  0
 18 19  2  0
  7 20  1  0
 20 21  2  0
 21  4  1  0
 19 14  1  0
  1 22  1  0
  1 23  1  0
  1 24  1  0
  2 25  1  0
  2 26  1  0
  5 27  1  0
  6 28  1  0
  8 29  1  0
  8 30  1  0
 12 31  1  0
 12 32  1  0
 13 33  1  0
 13 34  1  0
 15 35  1  0
 16 36  1  0
 17 37  1  0
 18 38  1  0
 19 39  1  0
 20 40  1  0
 21 41  1  0
M  CHG  1   9  -1
M  END
>  <UniqueID>  (2) 
2

>  <SMILES>  (2) 
CCOc1ccc(C[N-]C(=O)CCc2ccccc2)cc1

>  <Energy>  (2) 
32.32768573565163

>  <Genealogy>  (2) 
CCOc1ccc(C[N-]C(=O)CCc2ccccc2)cc1 (protonated)
CCOc1ccc(C[N-]C(=O)CCc2ccccc2)cc1 (3D coordinates assigned)
CCOc1ccc(C[N-]C(=O)CCc2ccccc2)cc1 (optimized conformer: 32.32768573565163 kcal/mol)

>  <smiles>  (2) 
CCOc1ccc(CNC(=O)CCc2ccccc2)cc1

>  <score_type>  (2) 
oracle

>  <origin>  (2) 
adgpu

>  <m_score__min__energy>  (2) 
-9.3000000000000007

>  <m_primary>  (2) 
energy

$$$$
2:0
     RDKit          3D

 37 39  0  0  0  0  0  0  0  0999 V2000
   -2.2566   19.7593  -33.6550 H   0  0  0  0  0  0  0  0  0  0  0  0
   -1.9500   20.2130  -32.7010 C   0  0  0  0  0  0  0  0  0  0  0  0
   -1.1100   19.5410  -31.8700 N   0  0  0  0  0  0  0  0  0  0  0  0
   -0.7060   20.0730  -30.6860 C   0  0  0  0  0  0  0  0  0  0  0  0
   -0.0233   19.5076  -30.0346 H   0  0  0  0  0  0  0  0  0  0  0  0
   -1.1560   21.3360  -30.2950 C   0  0  0  0  0  0  0  0  0  0  0  0
   -0.8136   21.7752  -29.3464 H   0  0  0  0  0  0  0  0  0  0  0  0
   -2.0440   22.0400  -31.1150 C   0  0  0  0  0  0  0  0  0  0  0  0
   -2.4680   23.3530  -30.7100 N   0  0  0  0  0  0  0  0  0  0  0  0
   -3.6690   23.8470  -30.7920 C   0  0  0  0  0  0  0  0  0  0  0  0
   -4.7180   23.0880  -31.2160 N   0  0  0  0  0  0  0  0  0  0  0  0
   -5.9790   23.5940  -31.2770 C   0  0  0  0  0  0  0  0  0  0  0  0
   -7.0950   22.7400  -31.8010 C   0  0  0  0  0  0  0  0  0  0  0  0
   -7.5466   23.2316  -32.6753 H   0  0  0  0  0  0  0  0  0  0  0  0
   -7.8457   22.6109  -31.0074 H   0  0  0  0  0  0  0  0  0  0  0  0
   -6.5940   21.4240  -32.1950 N   0  0  0  0  0  0  0  0  0  0  0  0
   -5.5710   21.2200  -32.1270 H   0  0  0  0  0  0  0  0  0  0  0  0
   -7.4880   20.3750  -32.5970 C   0  0  0  0  0  0  0  0  0  0  0  0
   -8.7330   20.5260  -32.4530 O   0  0  0  0  0  0  0  0  0  0  0  0
   -6.9710   19.1020  -33.1480 C   0  0  0  0  0  0  0  0  0  0  0  0
   -6.0600   19.1280  -34.2200 C   0  0  0  0  0  0  0  0  0  0  0  0
   -5.7365   20.0927  -34.6379 H   0  0  0  0  0  0  0  0  0  0  0  0
   -5.5630   17.9380  -34.7580 C   0  0  0  0  0  0  0  0  0  0  0  0
   -4.8568   17.9693  -35.6008 H   0  0  0  0  0  0  0  0  0  0  0  0
   -5.9610   16.7100  -34.2280 C   0  0  0  0  0  0  0  0  0  0  0  0
   -5.5739   15.7742  -34.6575 H   0  0  0  0  0  0  0  0  0  0  0  0
   -6.8510   16.6690  -33.1520 C   0  0  0  0  0  0  0  0  0  0  0  0
   -7.1575   15.7001  -32.7309 H   0  0  0  0  0  0  0  0  0  0  0  0
   -7.3540   17.8560  -32.6080 C   0  0  0  0  0  0  0  0  0  0  0  0
   -8.1700   17.7830  -31.5270 F   0  0  0  0  0  0  0  0  0  0  0  0
   -6.2060   24.9240  -30.9110 C   0  0  0  0  0  0  0  0  0  0  0  0
   -7.2133   25.3613  -30.9741 H   0  0  0  0  0  0  0  0  0  0  0  0
   -5.1250   25.6830  -30.4640 C   0  0  0  0  0  0  0  0  0  0  0  0
   -5.2766   26.7278  -30.1552 H   0  0  0  0  0  0  0  0  0  0  0  0
   -3.8850   25.1320  -30.4100 N   0  0  0  0  0  0  0  0  0  0  0  0
   -2.4250   21.4780  -32.3470 C   0  0  0  0  0  0  0  0  0  0  0  0
   -3.0915   22.0301  -33.0260 H   0  0  0  0  0  0  0  0  0  0  0  0
  1  2  1  0
  2  3  2  0
  3  4  1  0
  4  5  1  0
  4  6  2  0
  6  7  1  0
  6  8  1  0
  8  9  1  0
  9 10  2  0
 10 11  1  0
 11 12  2  0
 12 13  1  0
 13 14  1  0
 13 15  1  0
 13 16  1  0
 16 17  1  0
 16 18  1  0
 18 19  2  0
 18 20  1  0
 20 21  2  0
 21 22  1  0
 21 23  1  0
 23 24  1  0
 23 25  2  0
 25 26  1  0
 25 27  1  0
 27 28  1  0
 27 29  2  0
 29 30  1  0
 12 31  1  0
 31 32  1  0
 31 33  2  0
 33 34  1  0
 33 35  1  0
  8 36  2  0
 36 37  1  0
 36  2  1  0
 35 10  1  0
 29 20  1  0
M  CHG  1  35  -1
M  END
>  <UniqueID>  (3) 
3

>  <SMILES>  (3) 
O=C(NCc1cc[n-]/c(=N/c2ccncc2)n1)c1ccccc1F

>  <Energy>  (3) 
49.15571747702791

>  <Genealogy>  (3) 
O=C(NCc1cc[n-]c(=Nc2ccncc2)n1)c1ccccc1F (protonated)
O=C(NCc1cc[n-]/c(=N/c2ccncc2)n1)c1ccccc1F (cis-trans isomerization)
O=C(NCc1cc[n-]/c(=N/c2ccncc2)n1)c1ccccc1F (3D coordinates assigned)
O=C(NCc1cc[n-]/c(=N/c2ccncc2)n1)c1ccccc1F (optimized conformer: 49.15571747702791 kcal/mol)

>  <smiles>  (3) 
O=C(NCc1cc[nH]c(=Nc2ccncc2)n1)c1ccccc1F

>  <score_type>  (3) 
oracle

>  <origin>  (3) 
adgpu

>  <m_score__min__energy>  (3) 
-8.7200000000000006

>  <m_primary>  (3) 
energy

$$$$
3:0
     RDKit          3D

 35 37  0  0  0  0  0  0  0  0999 V2000
   -4.2070   25.2480  -30.7780 O   0  0  0  0  0  0  0  0  0  0  0  0
   -5.1430   24.4450  -31.0300 C   0  0  0  0  0  0  0  0  0  0  0  0
   -5.2820   23.3300  -31.8330 C   0  0  0  0  0  0  0  0  0  0  0  0
   -4.4100   22.6640  -32.7520 N   0  0  0  0  0  0  0  0  0  0  0  0
   -3.5680   21.5340  -32.3660 C   0  0  0  0  0  0  0  0  0  0  0  0
   -2.9640   21.7630  -31.0060 C   0  0  0  0  0  0  0  0  0  0  0  0
   -1.6650   22.2870  -30.8920 C   0  0  0  0  0  0  0  0  0  0  0  0
   -1.0930   22.4870  -29.6320 C   0  0  0  0  0  0  0  0  0  0  0  0
   -1.8150   22.1700  -28.4780 C   0  0  0  0  0  0  0  0  0  0  0  0
   -3.1090   21.6560  -28.5820 C   0  0  0  0  0  0  0  0  0  0  0  0
   -3.6850   21.4550  -29.8400 C   0  0  0  0  0  0  0  0  0  0  0  0
   -6.5930   23.1880  -31.3970 C   0  0  0  0  0  0  0  0  0  0  0  0
   -7.6660   22.2690  -31.6180 N   0  0  0  0  0  0  0  0  0  0  0  0
   -7.4760   20.9220  -32.0820 C   0  0  0  0  0  0  0  0  0  0  0  0
   -6.5470   20.6190  -33.0950 C   0  0  0  0  0  0  0  0  0  0  0  0
   -6.3730   19.2990  -33.5200 C   0  0  0  0  0  0  0  0  0  0  0  0
   -7.1110   18.2680  -32.9290 C   0  0  0  0  0  0  0  0  0  0  0  0
   -6.8910   16.6130  -33.4650 Cl  0  0  0  0  0  0  0  0  0  0  0  0
   -8.0180   18.5580  -31.9060 C   0  0  0  0  0  0  0  0  0  0  0  0
   -8.1940   19.8780  -31.4790 C   0  0  0  0  0  0  0  0  0  0  0  0
   -6.4650   24.3390  -30.6480 C   0  0  0  0  0  0  0  0  0  0  0  0
   -7.2300   25.0050  -29.9030 O   0  0  0  0  0  0  0  0  0  0  0  0
   -4.5250   22.8690  -33.7710 H   0  0  0  0  0  0  0  0  0  0  0  0
   -4.1792   20.6198  -32.3407 H   0  0  0  0  0  0  0  0  0  0  0  0
   -2.7565   21.4292  -33.1012 H   0  0  0  0  0  0  0  0  0  0  0  0
   -1.0956   22.5410  -31.7983 H   0  0  0  0  0  0  0  0  0  0  0  0
   -0.0744   22.8940  -29.5489 H   0  0  0  0  0  0  0  0  0  0  0  0
   -1.3634   22.3256  -27.4871 H   0  0  0  0  0  0  0  0  0  0  0  0
   -3.6763   21.4088  -27.6726 H   0  0  0  0  0  0  0  0  0  0  0  0
   -4.7065   21.0542  -29.9172 H   0  0  0  0  0  0  0  0  0  0  0  0
   -8.6260   22.5710  -31.3390 H   0  0  0  0  0  0  0  0  0  0  0  0
   -5.9553   21.4246  -33.5542 H   0  0  0  0  0  0  0  0  0  0  0  0
   -5.6543   19.0704  -34.3208 H   0  0  0  0  0  0  0  0  0  0  0  0
   -8.5940   17.7471  -31.4362 H   0  0  0  0  0  0  0  0  0  0  0  0
   -8.9000   20.0994  -30.6650 H   0  0  0  0  0  0  0  0  0  0  0  0
  1  2  2  0
  2  3  1  0
  3  4  1  0
  4  5  1  0
  5  6  1  0
  6  7  2  0
  7  8  1  0
  8  9  2  0
  9 10  1  0
 10 11  2  0
  3 12  2  0
 12 13  1  0
 13 14  1  0
 14 15  2  0
 15 16  1  0
 16 17  2  0
 17 18  1  0
 17 19  1  0
 19 20  2  0
 12 21  1  0
 21 22  2  0
 21  2  1  0
 11  6  1  0
 20 14  1  0
  4 23  1  0
  5 24  1  0
  5 25  1  0
  7 26  1  0
  8 27  1  0
  9 28  1  0
 10 29  1  0
 11 30  1  0
 13 31  1  0
 15 32  1  0
 16 33  1  0
 19 34  1  0
 20 35  1  0
M  END
>  <UniqueID>  (4) 
4

>  <SMILES>  (4) 
O=c1c(NCc2ccccc2)c(Nc2ccc(Cl)cc2)c1=O

>  <Energy>  (4) 
29.795454398622347

>  <Genealogy>  (4) 
O=c1c(NCc2ccccc2)c(Nc2ccc(Cl)cc2)c1=O (3D coordinates assigned)
O=c1c(NCc2ccccc2)c(Nc2ccc(Cl)cc2)c1=O (optimized conformer: 29.795454398622347 kcal/mol)

>  <smiles>  (4) 
O=c1c(NCc2ccccc2)c(Nc2ccc(Cl)cc2)c1=O

>  <score_type>  (4) 
oracle

>  <origin>  (4) 
adgpu

>  <m_score__min__energy>  (4) 
-8.6300000000000008

>  <m_primary>  (4) 
energy

$$$$
4:0
     RDKit          3D

 30 32  0  0  0  0  0  0  0  0999 V2000
   -8.5610   18.5520  -31.6470 C   0  0  0  0  0  0  0  0  0  0  0  0
   -9.1180   20.1280  -32.3650 S   0  0  0  0  0  0  0  0  0  0  0  0
   -7.5500   20.9410  -32.0730 C   0  0  0  0  0  0  0  0  0  0  0  0
   -6.3640   20.4060  -32.4250 N   0  0  0  0  0  0  0  0  0  0  0  0
   -5.4590   21.3310  -32.0440 C   0  0  0  0  0  0  0  0  0  0  0  0
   -4.0040   21.1190  -32.1680 C   0  0  0  0  0  0  0  0  0  0  0  0
   -3.3570   21.2600  -33.4090 C   0  0  0  0  0  0  0  0  0  0  0  0
   -1.9750   21.0820  -33.5070 C   0  0  0  0  0  0  0  0  0  0  0  0
   -1.2230   20.7780  -32.3680 C   0  0  0  0  0  0  0  0  0  0  0  0
    0.1170   20.6080  -32.4650 F   0  0  0  0  0  0  0  0  0  0  0  0
   -1.8560   20.6600  -31.1260 C   0  0  0  0  0  0  0  0  0  0  0  0
   -3.2390   20.8370  -31.0250 C   0  0  0  0  0  0  0  0  0  0  0  0
   -6.1220   22.4140  -31.4780 C   0  0  0  0  0  0  0  0  0  0  0  0
   -5.5590   23.7030  -31.0310 C   0  0  0  0  0  0  0  0  0  0  0  0
   -6.2700   24.8640  -30.8080 C   0  0  0  0  0  0  0  0  0  0  0  0
   -5.3300   25.8160  -30.4690 C   0  0  0  0  0  0  0  0  0  0  0  0
   -4.1290   25.2850  -30.4990 O   0  0  0  0  0  0  0  0  0  0  0  0
   -4.2280   24.0210  -30.8410 C   0  0  0  0  0  0  0  0  0  0  0  0
   -7.4380   22.1480  -31.4900 N   0  0  0  0  0  0  0  0  0  0  0  0
   -8.5851   18.6203  -30.5494 H   0  0  0  0  0  0  0  0  0  0  0  0
   -9.2274   17.7421  -31.9787 H   0  0  0  0  0  0  0  0  0  0  0  0
   -7.5337   18.3407  -31.9787 H   0  0  0  0  0  0  0  0  0  0  0  0
   -3.9418   21.5115  -34.3061 H   0  0  0  0  0  0  0  0  0  0  0  0
   -1.4770   21.1812  -34.4828 H   0  0  0  0  0  0  0  0  0  0  0  0
   -1.2648   20.4277  -30.2279 H   0  0  0  0  0  0  0  0  0  0  0  0
   -3.7307   20.7549  -30.0444 H   0  0  0  0  0  0  0  0  0  0  0  0
   -7.3586   25.0021  -30.8844 H   0  0  0  0  0  0  0  0  0  0  0  0
   -5.5531   26.8621  -30.2123 H   0  0  0  0  0  0  0  0  0  0  0  0
   -3.3842   23.3251  -30.9578 H   0  0  0  0  0  0  0  0  0  0  0  0
   -8.2170   22.7630  -31.1630 H   0  0  0  0  0  0  0  0  0  0  0  0
  1  2  1  0
  2  3  1  0
  3  4  2  0
  4  5  1  0
  5  6  1  0
  6  7  2  0
  7  8  1  0
  8  9  2  0
  9 10  1  0
  9 11  1  0
 11 12  2  0
  5 13  2  0
 13 14  1  0
 14 15  1  0
 15 16  2  0
 16 17  1  0
 17 18  1  0
 13 19  1  0
 19  3  1  0
 12  6  1  0
 18 14  2  0
  1 20  1  0
  1 21  1  0
  1 22  1  0
  7 23  1  0
  8 24  1  0
 11 25  1  0
 12 26  1  0
 15 27  1  0
 16 28  1  0
 18 29  1  0
 19 30  1  0
M  END
>  <UniqueID>  (5) 
5

>  <SMILES>  (5) 
CSc1nc(-c2ccc(F)cc2)c(-c2ccoc2)[nH]1

>  <Energy>  (5) 
89.93861083983451

>  <Genealogy>  (5) 
CSc1nc(-c2ccc(F)cc2)c(-c2ccoc2)[nH]1 (3D coordinates assigned)
CSc1nc(-c2ccc(F)cc2)c(-c2ccoc2)[nH]1 (optimized conformer: 89.93861083983451 kcal/mol)

>  <smiles>  (5) 
CSc1nc(-c2ccc(F)cc2)c(-c2ccoc2)[nH]1

>  <score_type>  (5) 
oracle

>  <origin>  (5) 
adgpu

>  <m_score__min__energy>  (5) 
-6.8700000000000001

>  <m_primary>  (5) 
energy

$$$$
5:0
     RDKit          3D

 46 48  0  0  0  0  0  0  0  0999 V2000
   -2.6280   21.8560  -30.9260 C   0  0  0  0  0  0  0  0  0  0  0  0
   -2.8760   23.2370  -30.6770 O   0  0  0  0  0  0  0  0  0  0  0  0
   -2.8300   23.8410  -29.4100 C   0  0  0  0  0  0  0  0  0  0  0  0
   -1.6230   24.3240  -28.8640 C   0  0  0  0  0  0  0  0  0  0  0  0
   -1.5980   24.8710  -27.5790 C   0  0  0  0  0  0  0  0  0  0  0  0
   -2.7690   24.9380  -26.8230 C   0  0  0  0  0  0  0  0  0  0  0  0
   -3.9720   24.4710  -27.3560 C   0  0  0  0  0  0  0  0  0  0  0  0
   -4.0190   23.9440  -28.6550 C   0  0  0  0  0  0  0  0  0  0  0  0
   -5.2750   23.4700  -29.1690 N   0  0  0  0  0  0  0  0  0  0  0  0
   -5.6450   23.5830  -30.5540 C   0  0  0  0  0  0  0  0  0  0  0  0
   -5.0200   24.3830  -31.3030 O   0  0  0  0  0  0  0  0  0  0  0  0
   -6.7770   22.8010  -31.1050 C   0  0  0  0  0  0  0  0  0  0  0  0
   -7.9870   23.4290  -31.4540 C   0  0  0  0  0  0  0  0  0  0  0  0
   -9.0490   22.6800  -31.9680 C   0  0  0  0  0  0  0  0  0  0  0  0
   -8.9220   21.2990  -32.1320 C   0  0  0  0  0  0  0  0  0  0  0  0
   -7.7300   20.6570  -31.7750 C   0  0  0  0  0  0  0  0  0  0  0  0
   -7.5610   18.9150  -31.9780 S   0  0  0  0  0  0  0  0  0  0  0  0
   -8.9240   18.2850  -31.8860 O   0  0  0  0  0  0  0  0  0  0  0  0
   -6.6820   18.3560  -30.8930 O   0  0  0  0  0  0  0  0  0  0  0  0
   -6.8510   18.5700  -33.5370 N   0  0  0  0  0  0  0  0  0  0  0  0
   -5.9130   19.6410  -33.9470 C   0  0  0  0  0  0  0  0  0  0  0  0
   -4.4420   19.2130  -33.7970 C   0  0  0  0  0  0  0  0  0  0  0  0
   -4.1150   18.0500  -34.5460 O   0  0  0  0  0  0  0  0  0  0  0  0
   -5.1800   17.1120  -34.6420 C   0  0  0  0  0  0  0  0  0  0  0  0
   -6.2280   17.2340  -33.5220 C   0  0  0  0  0  0  0  0  0  0  0  0
   -6.6620   21.4070  -31.2660 C   0  0  0  0  0  0  0  0  0  0  0  0
   -2.5322   21.3223  -29.9689 H   0  0  0  0  0  0  0  0  0  0  0  0
   -3.4642   21.4311  -31.5006 H   0  0  0  0  0  0  0  0  0  0  0  0
   -1.6962   21.7486  -31.5006 H   0  0  0  0  0  0  0  0  0  0  0  0
   -0.6958   24.2697  -29.4534 H   0  0  0  0  0  0  0  0  0  0  0  0
   -0.6532   25.2498  -27.1621 H   0  0  0  0  0  0  0  0  0  0  0  0
   -2.7443   25.3588  -25.8070 H   0  0  0  0  0  0  0  0  0  0  0  0
   -4.8904   24.5167  -26.7523 H   0  0  0  0  0  0  0  0  0  0  0  0
   -6.0150   23.2070  -28.4810 H   0  0  0  0  0  0  0  0  0  0  0  0
   -8.0975   24.5154  -31.3215 H   0  0  0  0  0  0  0  0  0  0  0  0
   -9.9888   23.1803  -32.2445 H   0  0  0  0  0  0  0  0  0  0  0  0
   -9.7592   20.7150  -32.5420 H   0  0  0  0  0  0  0  0  0  0  0  0
   -6.1028   19.8942  -35.0005 H   0  0  0  0  0  0  0  0  0  0  0  0
   -6.0816   20.5076  -33.2908 H   0  0  0  0  0  0  0  0  0  0  0  0
   -3.8015   20.0395  -34.1384 H   0  0  0  0  0  0  0  0  0  0  0  0
   -4.2794   18.9732  -32.7359 H   0  0  0  0  0  0  0  0  0  0  0  0
   -5.6865   17.2621  -35.6068 H   0  0  0  0  0  0  0  0  0  0  0  0
   -4.7312   16.1121  -34.5486 H   0  0  0  0  0  0  0  0  0  0  0  0
   -7.0061   16.4707  -33.6704 H   0  0  0  0  0  0  0  0  0  0  0  0
   -5.7296   17.0862  -32.5526 H   0  0  0  0  0  0  0  0  0  0  0  0
   -5.7247   20.9021  -30.9895 H   0  0  0  0  0  0  0  0  0  0  0  0
  1  2  1  0
  2  3  1  0
  3  4  2  0
  4  5  1  0
  5  6  2  0
  6  7  1  0
  7  8  2  0
  8  9  1  0
  9 10  1  0
 10 11  2  0
 10 12  1  0
 12 13  2  0
 13 14  1  0
 14 15  2  0
 15 16  1  0
 16 17  1  0
 17 18  2  0
 17 19  2  0
 17 20  1  0
 20 21  1  0
 21 22  1  0
 22 23  1  0
 23 24  1  0
 24 25  1  0
 16 26  2  0
  8  3  1  0
 26 12  1  0
 25 20  1  0
  1 27  1  0
  1 28  1  0
  1 29  1  0
  4 30  1  0
  5 31  1  0
  6 32  1  0
  7 33  1  0
  9 34  1  0
 13 35  1  0
 14 36  1  0
 15 37  1  0
 21 38  1  0
 21 39  1  0
 22 40  1  0
 22 41  1  0
 24 42  1  0
 24 43  1  0
 25 44  1  0
 25 45  1  0
 26 46  1  0
M  END
>  <UniqueID>  (6) 
6

>  <SMILES>  (6) 
COc1ccccc1NC(=O)c1cccc(S(=O)(=O)N2CCOCC2)c1

>  <Energy>  (6) 
65.75592352488725

>  <Genealogy>  (6) 
COc1ccccc1NC(=O)c1cccc(S(=O)(=O)N2CCOCC2)c1 (3D coordinates assigned)
COc1ccccc1NC(=O)c1cccc(S(=O)(=O)N2CCOCC2)c1 (nonaromatic ring conformer: 65.75592352488725 kcal/mol)

>  <smiles>  (6) 
COc1ccccc1NC(=O)c1cccc(S(=O)(=O)N2CCOCC2)c1

>  <score_type>  (6) 
oracle

>  <origin>  (6) 
adgpu

>  <m_score__min__energy>  (6) 
-10.029999999999999

>  <m_primary>  (6) 
energy

$$$$
6:0
     RDKit          3D

 37 39  0  0  0  0  0  0  0  0999 V2000
   -1.5160   25.7110  -28.9600 O   0  0  0  0  0  0  0  0  0  0  0  0
   -1.9360   25.2540  -27.8620 C   0  0  0  0  0  0  0  0  0  0  0  0
   -2.8970   24.1840  -27.8570 N   0  0  0  0  0  0  0  0  0  0  0  0
   -3.7660   23.8860  -28.9640 C   0  0  0  0  0  0  0  0  0  0  0  0
   -3.3810   22.9930  -29.9780 C   0  0  0  0  0  0  0  0  0  0  0  0
   -4.2340   22.7380  -31.0570 C   0  0  0  0  0  0  0  0  0  0  0  0
   -5.4690   23.3870  -31.1540 C   0  0  0  0  0  0  0  0  0  0  0  0
   -6.3020   23.0920  -32.2430 O   0  0  0  0  0  0  0  0  0  0  0  0
   -7.2240   22.0360  -32.3000 C   0  0  0  0  0  0  0  0  0  0  0  0
   -8.5440   22.2730  -31.8980 C   0  0  0  0  0  0  0  0  0  0  0  0
   -9.4880   21.2410  -31.9230 C   0  0  0  0  0  0  0  0  0  0  0  0
   -9.1140   19.9620  -32.3400 C   0  0  0  0  0  0  0  0  0  0  0  0
   -7.7940   19.7100  -32.7260 C   0  0  0  0  0  0  0  0  0  0  0  0
   -6.8490   20.7400  -32.7010 C   0  0  0  0  0  0  0  0  0  0  0  0
   -5.8580   24.2800  -30.1400 C   0  0  0  0  0  0  0  0  0  0  0  0
   -5.0050   24.5370  -29.0620 C   0  0  0  0  0  0  0  0  0  0  0  0
   -1.3920   25.7930  -26.5910 C   0  0  0  0  0  0  0  0  0  0  0  0
   -0.9040   27.1120  -26.5150 C   0  0  0  0  0  0  0  0  0  0  0  0
   -0.3840   27.6060  -25.3150 C   0  0  0  0  0  0  0  0  0  0  0  0
   -0.3430   26.7920  -24.1810 C   0  0  0  0  0  0  0  0  0  0  0  0
   -0.8150   25.4800  -24.2460 C   0  0  0  0  0  0  0  0  0  0  0  0
   -1.3350   24.9800  -25.4440 C   0  0  0  0  0  0  0  0  0  0  0  0
   -2.8880   23.5200  -27.0500 H   0  0  0  0  0  0  0  0  0  0  0  0
   -2.4035   22.4916  -29.9231 H   0  0  0  0  0  0  0  0  0  0  0  0
   -3.9311   22.0217  -31.8349 H   0  0  0  0  0  0  0  0  0  0  0  0
   -8.8406   23.2770  -31.5604 H   0  0  0  0  0  0  0  0  0  0  0  0
  -10.5253   21.4372  -31.6140 H   0  0  0  0  0  0  0  0  0  0  0  0
   -9.8582   19.1523  -32.3648 H   0  0  0  0  0  0  0  0  0  0  0  0
   -7.4989   18.7009  -33.0495 H   0  0  0  0  0  0  0  0  0  0  0  0
   -5.8089   20.5369  -32.9957 H   0  0  0  0  0  0  0  0  0  0  0  0
   -6.8371   24.7784  -30.1948 H   0  0  0  0  0  0  0  0  0  0  0  0
   -5.3076   25.2547  -28.2853 H   0  0  0  0  0  0  0  0  0  0  0  0
   -0.9322   27.7574  -27.4053 H   0  0  0  0  0  0  0  0  0  0  0  0
   -0.0064   28.6379  -25.2639 H   0  0  0  0  0  0  0  0  0  0  0  0
    0.0613   27.1848  -23.2364 H   0  0  0  0  0  0  0  0  0  0  0  0
   -0.7779   24.8383  -23.3534 H   0  0  0  0  0  0  0  0  0  0  0  0
   -1.7020   23.9440  -25.4900 H   0  0  0  0  0  0  0  0  0  0  0  0
  1  2  2  0
  2  3  1  0
  3  4  1  0
  4  5  2  0
  5  6  1  0
  6  7  2  0
  7  8  1  0
  8  9  1  0
  9 10  2  0
 10 11  1  0
 11 12  2  0
 12 13  1  0
 13 14  2  0
  7 15  1  0
 15 16  2  0
  2 17  1  0
 17 18  2  0
 18 19  1  0
 19 20  2  0
 20 21  1  0
 21 22  2  0
 16  4  1  0
 22 17  1  0
 14  9  1  0
  3 23  1  0
  5 24  1  0
  6 25  1  0
 10 26  1  0
 11 27  1  0
 12 28  1  0
 13 29  1  0
 14 30  1  0
 15 31  1  0
 16 32  1  0
 18 33  1  0
 19 34  1  0
 20 35  1  0
 21 36  1  0
 22 37  1  0
M  END
>  <UniqueID>  (7) 
7

>  <SMILES>  (7) 
O=C(Nc1ccc(Oc2ccccc2)cc1)c1ccccc1

>  <Energy>  (7) 
52.024499096128984

>  <Genealogy>  (7) 
O=C(Nc1ccc(Oc2ccccc2)cc1)c1ccccc1 (3D coordinates assigned)
O=C(Nc1ccc(Oc2ccccc2)cc1)c1ccccc1 (optimized conformer: 52.024499096128984 kcal/mol)

>  <smiles>  (7) 
O=C(Nc1ccc(Oc2ccccc2)cc1)c1ccccc1

>  <score_type>  (7) 
oracle

>  <origin>  (7) 
adgpu

>  <m_score__min__energy>  (7) 
-7.96

>  <m_primary>  (7) 
energy

$$$$
7:0
     RDKit          3D

 33 33  0  0  0  0  0  0  0  0999 V2000
   -9.8430   21.3190  -31.9690 C   0  0  0  0  0  0  0  0  0  0  0  0
   -8.8390   22.4800  -31.9650 C   0  0  0  0  0  0  0  0  0  0  0  0
   -7.4880   22.1170  -31.4690 N   0  0  0  0  0  0  0  0  0  0  0  0
   -6.8850   23.1790  -30.6330 C   0  0  0  0  0  0  0  0  0  0  0  0
   -5.4600   23.4760  -31.1100 C   0  0  0  0  0  0  0  0  0  0  0  0
   -4.8570   24.5880  -30.3070 C   0  0  0  0  0  0  0  0  0  0  0  0
   -5.3410   24.8790  -28.9970 N   0  0  0  0  0  0  0  0  0  0  0  0
   -3.9420   25.2970  -30.8060 O   0  0  0  0  0  0  0  0  0  0  0  0
   -6.5690   21.6640  -32.5370 C   0  0  0  0  0  0  0  0  0  0  0  0
   -6.6690   20.1750  -32.7370 C   0  0  0  0  0  0  0  0  0  0  0  0
   -7.3520   19.3720  -31.8080 C   0  0  0  0  0  0  0  0  0  0  0  0
   -7.4230   17.9870  -31.9930 C   0  0  0  0  0  0  0  0  0  0  0  0
   -6.8110   17.3960  -33.1020 C   0  0  0  0  0  0  0  0  0  0  0  0
   -6.1270   18.1890  -34.0290 C   0  0  0  0  0  0  0  0  0  0  0  0
   -6.0540   19.5730  -33.8470 C   0  0  0  0  0  0  0  0  0  0  0  0
  -10.0846   21.0396  -30.9329 H   0  0  0  0  0  0  0  0  0  0  0  0
  -10.7613   21.6302  -32.4885 H   0  0  0  0  0  0  0  0  0  0  0  0
   -9.4026   20.4552  -32.4885 H   0  0  0  0  0  0  0  0  0  0  0  0
   -8.7392   22.8528  -32.9951 H   0  0  0  0  0  0  0  0  0  0  0  0
   -9.2358   23.2374  -31.2730 H   0  0  0  0  0  0  0  0  0  0  0  0
   -7.4928   24.0926  -30.7104 H   0  0  0  0  0  0  0  0  0  0  0  0
   -6.8522   22.8400  -29.5871 H   0  0  0  0  0  0  0  0  0  0  0  0
   -4.8443   22.5718  -30.9950 H   0  0  0  0  0  0  0  0  0  0  0  0
   -5.4954   23.7799  -32.1666 H   0  0  0  0  0  0  0  0  0  0  0  0
   -4.9300   25.6630  -28.4440 H   0  0  0  0  0  0  0  0  0  0  0  0
   -6.1150   24.3160  -28.5780 H   0  0  0  0  0  0  0  0  0  0  0  0
   -6.8311   22.1719  -33.4769 H   0  0  0  0  0  0  0  0  0  0  0  0
   -5.5385   21.9102  -32.2413 H   0  0  0  0  0  0  0  0  0  0  0  0
   -7.8323   19.8337  -30.9327 H   0  0  0  0  0  0  0  0  0  0  0  0
   -7.9611   17.3624  -31.2648 H   0  0  0  0  0  0  0  0  0  0  0  0
   -6.8674   16.3069  -33.2457 H   0  0  0  0  0  0  0  0  0  0  0  0
   -5.6462   17.7233  -34.9019 H   0  0  0  0  0  0  0  0  0  0  0  0
   -5.5125   20.1934  -34.5763 H   0  0  0  0  0  0  0  0  0  0  0  0
  1  2  1  0
  2  3  1  0
  3  4  1  0
  4  5  1  0
  5  6  1  0
  6  7  1  0
  6  8  2  0
  3  9  1  0
  9 10  1  0
 10 11  2  0
 11 12  1  0
 12 13  2  0
 13 14  1  0
 14 15  2  0
 15 10  1  0
  1 16  1  0
  1 17  1  0
  1 18  1  0
  2 19  1  0
  2 20  1  0
  4 21  1  0
  4 22  1  0
  5 23  1  0
  5 24  1  0
  7 25  1  0
  7 26  1  0
  9 27  1  0
  9 28  1  0
 11 29  1  0
 12 30  1  0
 13 31  1  0
 14 32  1  0
 15 33  1  0
M  END
>  <UniqueID>  (8) 
8

>  <SMILES>  (8) 
CCN(CCC(N)=O)Cc1ccccc1

>  <Energy>  (8) 
28.953950793780578

>  <Genealogy>  (8) 
CCN(CCC(N)=O)Cc1ccccc1 (3D coordinates assigned)
CCN(CCC(N)=O)Cc1ccccc1 (optimized conformer: 28.953950793780578 kcal/mol)

>  <smiles>  (8) 
CCN(CCC(N)=O)Cc1ccccc1

>  <score_type>  (8) 
oracle

>  <origin>  (8) 
adgpu

>  <m_score__min__energy>  (8) 
-7.3200000000000003

>  <m_primary>  (8) 
energy

$$$$
8:0
     RDKit          3D

 30 31  0  0  0  0  0  0  0  0999 V2000
   -5.8470   21.1520  -32.6690 C   0  0  0  0  0  0  0  0  0  0  0  0
   -5.9170   22.4070  -31.8500 C   0  0  0  0  0  0  0  0  0  0  0  0
   -7.1600   22.9560  -31.5050 C   0  0  0  0  0  0  0  0  0  0  0  0
   -7.2250   24.1510  -30.7840 C   0  0  0  0  0  0  0  0  0  0  0  0
   -6.0510   24.8070  -30.4060 C   0  0  0  0  0  0  0  0  0  0  0  0
   -4.7970   24.2670  -30.7400 C   0  0  0  0  0  0  0  0  0  0  0  0
   -3.5740   24.9400  -30.3930 N   0  0  0  0  0  0  0  0  0  0  0  0
   -2.6880   24.5180  -29.3470 C   0  0  0  0  0  0  0  0  0  0  0  0
   -2.8600   23.4110  -28.7700 O   0  0  0  0  0  0  0  0  0  0  0  0
   -1.6090   25.3780  -28.9600 N   0  0  0  0  0  0  0  0  0  0  0  0
   -1.2960   25.8140  -27.6290 C   0  0  0  0  0  0  0  0  0  0  0  0
   -0.4850   26.9380  -27.3820 C   0  0  0  0  0  0  0  0  0  0  0  0
   -0.2230   27.3420  -26.0690 C   0  0  0  0  0  0  0  0  0  0  0  0
   -0.7780   26.6410  -24.9930 C   0  0  0  0  0  0  0  0  0  0  0  0
   -0.4510   27.1510  -23.3480 Cl  0  0  0  0  0  0  0  0  0  0  0  0
   -1.6030   25.5380  -25.2340 C   0  0  0  0  0  0  0  0  0  0  0  0
   -1.8670   25.1320  -26.5470 C   0  0  0  0  0  0  0  0  0  0  0  0
   -4.7400   23.0790  -31.4850 C   0  0  0  0  0  0  0  0  0  0  0  0
   -5.7984   20.2800  -32.0002 H   0  0  0  0  0  0  0  0  0  0  0  0
   -6.7424   21.0779  -33.3036 H   0  0  0  0  0  0  0  0  0  0  0  0
   -4.9489   21.1779  -33.3036 H   0  0  0  0  0  0  0  0  0  0  0  0
   -8.0871   22.4443  -31.8029 H   0  0  0  0  0  0  0  0  0  0  0  0
   -8.2027   24.5762  -30.5134 H   0  0  0  0  0  0  0  0  0  0  0  0
   -6.1082   25.7509  -29.8441 H   0  0  0  0  0  0  0  0  0  0  0  0
   -3.2580   25.7320  -30.9970 H   0  0  0  0  0  0  0  0  0  0  0  0
   -0.0560   27.5003  -28.2245 H   0  0  0  0  0  0  0  0  0  0  0  0
    0.4214   28.2136  -25.8817 H   0  0  0  0  0  0  0  0  0  0  0  0
   -2.0453   24.9884  -24.3900 H   0  0  0  0  0  0  0  0  0  0  0  0
   -2.5273   24.2716  -26.7305 H   0  0  0  0  0  0  0  0  0  0  0  0
   -3.7638   22.6707  -31.7857 H   0  0  0  0  0  0  0  0  0  0  0  0
  1  2  1  0
  2  3  2  0
  3  4  1  0
  4  5  2  0
  5  6  1  0
  6  7  1  0
  7  8  1  0
  8  9  2  0
  8 10  1  0
 10 11  1  0
 11 12  2  0
 12 13  1  0
 13 14  2  0
 14 15  1  0
 14 16  1  0
 16 17  2  0
  6 18  2  0
 18  2  1  0
 17 11  1  0
  1 19  1  0
  1 20  1  0
  1 21  1  0
  3 22  1  0
  4 23  1  0
  5 24  1  0
  7 25  1  0
 12 26  1  0
 13 27  1  0
 16 28  1  0
 17 29  1  0
 18 30  1  0
M  CHG  1  10  -1
M  END
>  <UniqueID>  (9) 
9

>  <SMILES>  (9) 
Cc1cccc(NC(=O)[N-]c2ccc(Cl)cc2)c1

>  <Energy>  (9) 
36.401930545443555

>  <Genealogy>  (9) 
Cc1cccc(NC(=O)[N-]c2ccc(Cl)cc2)c1 (protonated)
Cc1cccc(NC(=O)[N-]c2ccc(Cl)cc2)c1 (3D coordinates assigned)
Cc1cccc(NC(=O)[N-]c2ccc(Cl)cc2)c1 (optimized conformer: 36.401930545443555 kcal/mol)

>  <smiles>  (9) 
Cc1cccc(NC(=O)Nc2ccc(Cl)cc2)c1

>  <score_type>  (9) 
oracle

>  <origin>  (9) 
adgpu

>  <m_score__min__energy>  (9) 
-8.6899999999999995

>  <m_primary>  (9) 
energy

$$$$
9:0
     RDKit          3D

 21 22  0  0  0  0  0  0  0  0999 V2000
   -8.9710   18.9250  -32.3400 C   0  0  0  0  0  0  0  0  0  0  0  0
   -7.9070   19.9690  -32.3840 C   0  0  0  0  0  0  0  0  0  0  0  0
   -6.9190   20.0740  -33.3350 C   0  0  0  0  0  0  0  0  0  0  0  0
   -6.2060   21.1790  -33.0700 N   0  0  0  0  0  0  0  0  0  0  0  0
   -6.7800   21.7270  -31.9760 C   0  0  0  0  0  0  0  0  0  0  0  0
   -6.3270   22.9820  -31.3230 C   0  0  0  0  0  0  0  0  0  0  0  0
   -7.2070   23.7890  -30.5800 C   0  0  0  0  0  0  0  0  0  0  0  0
   -6.7470   24.9630  -29.9810 C   0  0  0  0  0  0  0  0  0  0  0  0
   -5.4090   25.3260  -30.1250 C   0  0  0  0  0  0  0  0  0  0  0  0
   -4.5660   24.5420  -30.8440 N   0  0  0  0  0  0  0  0  0  0  0  0
   -4.9870   23.3940  -31.4390 C   0  0  0  0  0  0  0  0  0  0  0  0
   -7.8380   21.0110  -31.5330 N   0  0  0  0  0  0  0  0  0  0  0  0
   -9.2108   18.6897  -31.2925 H   0  0  0  0  0  0  0  0  0  0  0  0
   -9.8726   19.2987  -32.8475 H   0  0  0  0  0  0  0  0  0  0  0  0
   -8.6145   18.0165  -32.8475 H   0  0  0  0  0  0  0  0  0  0  0  0
   -6.7443   19.3751  -34.1663 H   0  0  0  0  0  0  0  0  0  0  0  0
   -5.3920   21.5260  -33.6230 H   0  0  0  0  0  0  0  0  0  0  0  0
   -8.2611   23.4942  -30.4705 H   0  0  0  0  0  0  0  0  0  0  0  0
   -7.4343   25.5960  -29.4005 H   0  0  0  0  0  0  0  0  0  0  0  0
   -5.0361   26.2483  -29.6557 H   0  0  0  0  0  0  0  0  0  0  0  0
   -4.2754   22.7838  -32.0145 H   0  0  0  0  0  0  0  0  0  0  0  0
  1  2  1  0
  2  3  2  0
  3  4  1  0
  4  5  1  0
  5  6  1  0
  6  7  2  0
  7  8  1  0
  8  9  2  0
  9 10  1  0
 10 11  2  0
  5 12  2  0
 12  2  1  0
 11  6  1  0
  1 13  1  0
  1 14  1  0
  1 15  1  0
  3 16  1  0
  4 17  1  0
  7 18  1  0
  8 19  1  0
  9 20  1  0
 11 21  1  0
M  END
>  <UniqueID>  (10) 
10

>  <SMILES>  (10) 
Cc1c[nH]c(-c2cccnc2)n1

>  <Energy>  (10) 
50.99198079627689

>  <Genealogy>  (10) 
Cc1c[nH]c(-c2cccnc2)n1 (3D coordinates assigned)
Cc1c[nH]c(-c2cccnc2)n1 (optimized conformer: 50.99198079627689 kcal/mol)

>  <smiles>  (10) 
Cc1c[nH]c(-c2cccnc2)n1

>  <score_type>  (10) 
oracle

>  <origin>  (10) 
adgpu

>  <m_score__min__energy>  (10) 
-5.7400000000000002

>  <m_primary>  (10) 
energy

$$$$
10:0
     RDKit          3D

 22 23  0  0  0  0  0  0  0  0999 V2000
   -3.8640   25.6540  -30.6590 O   0  0  0  0  0  0  0  0  0  0  0  0
   -3.6100   24.5970  -29.7830 C   0  0  0  0  0  0  0  0  0  0  0  0
   -2.5090   24.7030  -28.9230 C   0  0  0  0  0  0  0  0  0  0  0  0
   -2.1760   23.6540  -28.0650 C   0  0  0  0  0  0  0  0  0  0  0  0
   -2.9430   22.4890  -28.0560 C   0  0  0  0  0  0  0  0  0  0  0  0
   -4.0520   22.3740  -28.8960 C   0  0  0  0  0  0  0  0  0  0  0  0
   -4.4070   23.4260  -29.7600 C   0  0  0  0  0  0  0  0  0  0  0  0
   -5.6260   23.2960  -30.5900 C   0  0  0  0  0  0  0  0  0  0  0  0
   -6.7590   22.6250  -30.1010 C   0  0  0  0  0  0  0  0  0  0  0  0
   -7.9020   22.5400  -30.8990 C   0  0  0  0  0  0  0  0  0  0  0  0
   -7.9120   23.1260  -32.1650 C   0  0  0  0  0  0  0  0  0  0  0  0
   -6.7720   23.7930  -32.6170 C   0  0  0  0  0  0  0  0  0  0  0  0
   -5.6670   23.8650  -31.8260 N   0  0  0  0  0  0  0  0  0  0  0  0
   -4.2260   25.5230  -31.5940 H   0  0  0  0  0  0  0  0  0  0  0  0
   -1.9022   25.6205  -28.9241 H   0  0  0  0  0  0  0  0  0  0  0  0
   -1.3081   23.7459  -27.3954 H   0  0  0  0  0  0  0  0  0  0  0  0
   -2.6735   21.6594  -27.3858 H   0  0  0  0  0  0  0  0  0  0  0  0
   -4.6534   21.4531  -28.8822 H   0  0  0  0  0  0  0  0  0  0  0  0
   -6.7461   22.1709  -29.0992 H   0  0  0  0  0  0  0  0  0  0  0  0
   -8.7933   22.0116  -30.5297 H   0  0  0  0  0  0  0  0  0  0  0  0
   -8.8081   23.0632  -32.7999 H   0  0  0  0  0  0  0  0  0  0  0  0
   -6.7669   24.2605  -33.6127 H   0  0  0  0  0  0  0  0  0  0  0  0
  1  2  1  0
  2  3  2  0
  3  4  1  0
  4  5  2  0
  5  6  1  0
  6  7  2  0
  7  8  1  0
  8  9  2  0
  9 10  1  0
 10 11  2  0
 11 12  1  0
 12 13  2  0
  7  2  1  0
 13  8  1  0
  1 14  1  0
  3 15  1  0
  4 16  1  0
  5 17  1  0
  6 18  1  0
  9 19  1  0
 10 20  1  0
 11 21  1  0
 12 22  1  0
M  END
>  <UniqueID>  (11) 
11

>  <SMILES>  (11) 
Oc1ccccc1-c1ccccn1

>  <Energy>  (11) 
30.523048362819022

>  <Genealogy>  (11) 
Oc1ccccc1-c1ccccn1 (3D coordinates assigned)
Oc1ccccc1-c1ccccn1 (optimized conformer: 30.523048362819022 kcal/mol)

>  <smiles>  (11) 
Oc1ccccc1-c1ccccn1

>  <score_type>  (11) 
oracle

>  <origin>  (11) 
adgpu

>  <m_score__min__energy>  (11) 
-6.3300000000000001

>  <m_primary>  (11) 
energy

$$$$
11:0
     RDKit          3D

 24 25  0  0  0  0  0  0  0  0999 V2000
   -6.1090   18.1860  -34.3170 C   0  0  0  0  0  0  0  0  0  0  0  0
   -6.0570   19.4950  -33.5850 C   0  0  0  0  0  0  0  0  0  0  0  0
   -4.8370   20.1650  -33.4200 C   0  0  0  0  0  0  0  0  0  0  0  0
   -4.7800   21.3660  -32.7080 C   0  0  0  0  0  0  0  0  0  0  0  0
   -5.9440   21.9150  -32.1380 C   0  0  0  0  0  0  0  0  0  0  0  0
   -5.9050   23.1860  -31.3690 C   0  0  0  0  0  0  0  0  0  0  0  0
   -7.0590   23.7270  -30.7740 C   0  0  0  0  0  0  0  0  0  0  0  0
   -6.9690   24.9230  -30.0590 C   0  0  0  0  0  0  0  0  0  0  0  0
   -5.7390   25.5690  -29.9340 C   0  0  0  0  0  0  0  0  0  0  0  0
   -4.6100   25.0020  -30.5250 C   0  0  0  0  0  0  0  0  0  0  0  0
   -4.7150   23.8390  -31.2190 N   0  0  0  0  0  0  0  0  0  0  0  0
   -7.1600   21.2210  -32.2810 C   0  0  0  0  0  0  0  0  0  0  0  0
   -7.2150   20.0210  -32.9960 C   0  0  0  0  0  0  0  0  0  0  0  0
   -6.1418   17.3607  -33.5905 H   0  0  0  0  0  0  0  0  0  0  0  0
   -7.0091   18.1546  -34.9485 H   0  0  0  0  0  0  0  0  0  0  0  0
   -5.2142   18.0833  -34.9485 H   0  0  0  0  0  0  0  0  0  0  0  0
   -3.9186   19.7427  -33.8538 H   0  0  0  0  0  0  0  0  0  0  0  0
   -3.8179   21.8865  -32.5921 H   0  0  0  0  0  0  0  0  0  0  0  0
   -8.0258   23.2114  -30.8713 H   0  0  0  0  0  0  0  0  0  0  0  0
   -7.8675   25.3555  -29.5946 H   0  0  0  0  0  0  0  0  0  0  0  0
   -5.6604   26.5139  -29.3763 H   0  0  0  0  0  0  0  0  0  0  0  0
   -3.6327   25.4976  -30.4289 H   0  0  0  0  0  0  0  0  0  0  0  0
   -8.0756   21.6266  -31.8259 H   0  0  0  0  0  0  0  0  0  0  0  0
   -8.1715   19.4871  -33.0968 H   0  0  0  0  0  0  0  0  0  0  0  0
  1  2  1  0
  2  3  2  0
  3  4  1  0
  4  5  2  0
  5  6  1  0
  6  7  2  0
  7  8  1  0
  8  9  2  0
  9 10  1  0
 10 11  2  0
  5 12  1  0
 12 13  2  0
 13  2  1  0
 11  6  1  0
  1 14  1  0
  1 15  1  0
  1 16  1  0
  3 17  1  0
  4 18  1  0
  7 19  1  0
  8 20  1  0
  9 21  1  0
 10 22  1  0
 12 23  1  0
 13 24  1  0
M  END
>  <UniqueID>  (12) 
12

>  <SMILES>  (12) 
Cc1ccc(-c2ccccn2)cc1

>  <Energy>  (12) 
28.544329154391075

>  <Genealogy>  (12) 
Cc1ccc(-c2ccccn2)cc1 (3D coordinates assigned)
Cc1ccc(-c2ccccn2)cc1 (optimized conformer: 28.544329154391075 kcal/mol)

>  <smiles>  (12) 
Cc1ccc(-c2ccccn2)cc1

>  <score_type>  (12) 
oracle

>  <origin>  (12) 
adgpu

>  <m_score__min__energy>  (12) 
-6.1299999999999999

>  <m_primary>  (12) 
energy

$$$$
12:0
     RDKit          3D

 26 27  0  0  0  0  0  0  0  0999 V2000
   -6.0800   17.9380  -35.3510 N   0  0  0  0  0  0  0  0  0  0  0  0
   -5.9470   18.1160  -34.0850 C   0  0  0  0  0  0  0  0  0  0  0  0
   -5.9170   17.0370  -33.2390 C   0  0  0  0  0  0  0  0  0  0  0  0
   -5.7720   17.2840  -31.8860 C   0  0  0  0  0  0  0  0  0  0  0  0
   -5.7320   16.2190  -30.9520 N   0  0  0  0  0  0  0  0  0  0  0  0
   -5.6670   18.5690  -31.4540 N   0  0  0  0  0  0  0  0  0  0  0  0
   -5.6990   19.6090  -32.2860 C   0  0  0  0  0  0  0  0  0  0  0  0
   -5.5900   21.0010  -31.8720 C   0  0  0  0  0  0  0  0  0  0  0  0
   -6.5500   21.9490  -32.2360 C   0  0  0  0  0  0  0  0  0  0  0  0
   -6.4570   23.2690  -31.8500 C   0  0  0  0  0  0  0  0  0  0  0  0
   -5.4020   23.7100  -31.0800 C   0  0  0  0  0  0  0  0  0  0  0  0
   -5.3150   25.0730  -30.6860 N   0  0  0  0  0  0  0  0  0  0  0  0
   -4.2340   25.6740  -30.8410 O   0  0  0  0  0  0  0  0  0  0  0  0
   -6.3990   25.7150  -30.1460 O   0  0  0  0  0  0  0  0  0  0  0  0
   -4.4420   22.7950  -30.7070 C   0  0  0  0  0  0  0  0  0  0  0  0
   -4.5490   21.4760  -31.1020 C   0  0  0  0  0  0  0  0  0  0  0  0
   -5.8400   19.3510  -33.5990 N   0  0  0  0  0  0  0  0  0  0  0  0
   -6.1070   18.7480  -36.0290 H   0  0  0  0  0  0  0  0  0  0  0  0
   -6.0053   16.0102  -33.6235 H   0  0  0  0  0  0  0  0  0  0  0  0
   -6.1330   16.3290  -29.9900 H   0  0  0  0  0  0  0  0  0  0  0  0
   -5.3010   15.3090  -31.2070 H   0  0  0  0  0  0  0  0  0  0  0  0
   -5.5610   18.7280  -30.4440 H   0  0  0  0  0  0  0  0  0  0  0  0
   -7.4063   21.6321  -32.8495 H   0  0  0  0  0  0  0  0  0  0  0  0
   -7.2359   23.9808  -32.1609 H   0  0  0  0  0  0  0  0  0  0  0  0
   -3.5878   23.1159  -30.0928 H   0  0  0  0  0  0  0  0  0  0  0  0
   -3.7662   20.7702  -30.7873 H   0  0  0  0  0  0  0  0  0  0  0  0
  1  2  2  3
  2  3  1  0
  3  4  2  0
  4  5  1  0
  4  6  1  0
  6  7  1  0
  7  8  1  0
  8  9  2  0
  9 10  1  0
 10 11  2  0
 11 12  1  0
 12 13  2  0
 12 14  1  0
 11 15  1  0
 15 16  2  0
  7 17  2  0
 17  2  1  0
 16  8  1  0
  1 18  1  0
  3 19  1  0
  5 20  1  0
  5 21  1  0
  6 22  1  0
  9 23  1  0
 10 24  1  0
 15 25  1  0
 16 26  1  0
M  CHG  2  12   1  14  -1
M  END
>  <smiles>  (13) 
N=c1cc(N)[nH]c(-c2ccc([N+](=O)[O-])cc2)n1

>  <score_type>  (13) 
oracle

>  <origin>  (13) 
adgpu

>  <m_score__min__energy>  (13) 
-6.4699999999999998

>  <m_primary>  (13) 
energy

$$$$
13:0
     RDKit          3D

 22 23  0  0  0  0  0  0  0  0999 V2000
   -2.9140   22.4055  -26.8457 H   0  0  0  0  0  0  0  0  0  0  0  0
   -2.6100   23.2270  -27.5110 C   0  0  0  0  0  0  0  0  0  0  0  0
   -3.3770   23.5530  -28.5820 N   0  0  0  0  0  0  0  0  0  0  0  0
   -3.0190   24.5610  -29.4270 C   0  0  0  0  0  0  0  0  0  0  0  0
   -3.7700   24.8860  -30.4410 N   0  0  0  0  0  0  0  0  0  0  0  0
   -4.9700   24.2240  -30.8760 C   0  0  0  0  0  0  0  0  0  0  0  0
   -4.8540   23.0700  -31.6630 C   0  0  0  0  0  0  0  0  0  0  0  0
   -3.8578   22.7067  -31.9556 H   0  0  0  0  0  0  0  0  0  0  0  0
   -5.9950   22.3770  -32.0790 C   0  0  0  0  0  0  0  0  0  0  0  0
   -5.8948   21.4812  -32.7095 H   0  0  0  0  0  0  0  0  0  0  0  0
   -7.2630   22.8220  -31.6940 C   0  0  0  0  0  0  0  0  0  0  0  0
   -8.3690   22.1480  -32.0940 F   0  0  0  0  0  0  0  0  0  0  0  0
   -7.3890   23.9530  -30.8830 C   0  0  0  0  0  0  0  0  0  0  0  0
   -8.3866   24.2971  -30.5724 H   0  0  0  0  0  0  0  0  0  0  0  0
   -6.2490   24.6490  -30.4650 C   0  0  0  0  0  0  0  0  0  0  0  0
   -6.3517   25.5298  -29.8141 H   0  0  0  0  0  0  0  0  0  0  0  0
   -1.8800   25.2680  -29.1840 N   0  0  0  0  0  0  0  0  0  0  0  0
   -1.6100   26.0510  -29.8240 H   0  0  0  0  0  0  0  0  0  0  0  0
   -1.0860   24.9720  -28.1190 C   0  0  0  0  0  0  0  0  0  0  0  0
   -0.0330   25.6320  -27.9120 O   0  0  0  0  0  0  0  0  0  0  0  0
   -1.4370   23.9340  -27.2550 C   0  0  0  0  0  0  0  0  0  0  0  0
   -0.8030   23.6801  -26.3927 H   0  0  0  0  0  0  0  0  0  0  0  0
  1  2  1  0
  2  3  1  0
  3  4  1  0
  4  5  2  0
  5  6  1  0
  6  7  2  0
  7  8  1  0
  7  9  1  0
  9 10  1  0
  9 11  2  0
 11 12  1  0
 11 13  1  0
 13 14  1  0
 13 15  2  0
 15 16  1  0
  4 17  1  0
 17 18  1  0
 17 19  1  0
 19 20  2  0
 19 21  1  0
 21 22  1  0
 21  2  2  0
 15  6  1  0
M  CHG  1   3  -1
M  END
>  <UniqueID>  (14) 
13

>  <SMILES>  (14) 
O=c1cc[n-]/c(=N\c2ccc(F)cc2)[nH]1

>  <Energy>  (14) 
30.347161041617813

>  <Genealogy>  (14) 
O=c1cc[n-]c(=Nc2ccc(F)cc2)[nH]1 (protonated)
O=c1cc[n-]/c(=N\c2ccc(F)cc2)[nH]1 (cis-trans isomerization)
O=c1cc[n-]/c(=N\c2ccc(F)cc2)[nH]1 (3D coordinates assigned)
O=c1cc[n-]/c(=N\c2ccc(F)cc2)[nH]1 (optimized conformer: 30.347161041617813 kcal/mol)

>  <smiles>  (14) 
O=c1cc[nH]c(=Nc2ccc(F)cc2)[nH]1

>  <score_type>  (14) 
oracle

>  <origin>  (14) 
adgpu

>  <m_score__min__energy>  (14) 
-7.8700000000000001

>  <m_primary>  (14) 
energy

$$$$
14:0
     RDKit          3D

 33 34  0  0  0  0  0  0  0  0999 V2000
   -7.6860   20.3920  -32.3810 C   0  0  0  0  0  0  0  0  0  0  0  0
   -6.9800   21.6340  -31.9080 C   0  0  0  0  0  0  0  0  0  0  0  0
   -7.6130   22.4730  -30.9760 C   0  0  0  0  0  0  0  0  0  0  0  0
   -6.9840   23.6320  -30.5200 C   0  0  0  0  0  0  0  0  0  0  0  0
   -5.7060   23.9800  -30.9820 C   0  0  0  0  0  0  0  0  0  0  0  0
   -5.0420   25.2120  -30.4960 C   0  0  0  0  0  0  0  0  0  0  0  0
   -5.7340   26.1900  -30.1010 O   0  0  0  0  0  0  0  0  0  0  0  0
   -3.6120   25.2980  -30.4670 N   0  0  0  0  0  0  0  0  0  0  0  0
   -2.8000   24.9190  -29.3160 C   0  0  0  0  0  0  0  0  0  0  0  0
   -2.7220   23.4210  -29.2030 C   0  0  0  0  0  0  0  0  0  0  0  0
   -3.1600   22.7820  -28.0320 C   0  0  0  0  0  0  0  0  0  0  0  0
   -3.1100   21.3880  -27.9290 C   0  0  0  0  0  0  0  0  0  0  0  0
   -2.6280   20.6240  -28.9950 C   0  0  0  0  0  0  0  0  0  0  0  0
   -2.1960   21.2520  -30.1680 C   0  0  0  0  0  0  0  0  0  0  0  0
   -1.7330   20.5100  -31.2020 F   0  0  0  0  0  0  0  0  0  0  0  0
   -2.2440   22.6460  -30.2740 C   0  0  0  0  0  0  0  0  0  0  0  0
   -5.0690   23.1420  -31.9140 C   0  0  0  0  0  0  0  0  0  0  0  0
   -5.6920   21.9750  -32.3820 C   0  0  0  0  0  0  0  0  0  0  0  0
   -5.0020   21.1530  -33.3340 N   0  0  0  0  0  0  0  0  0  0  0  0
   -8.0191   19.8060  -31.5117 H   0  0  0  0  0  0  0  0  0  0  0  0
   -8.5583   20.6749  -32.9885 H   0  0  0  0  0  0  0  0  0  0  0  0
   -6.9967   19.7872  -32.9885 H   0  0  0  0  0  0  0  0  0  0  0  0
   -8.6144   22.2137  -30.6020 H   0  0  0  0  0  0  0  0  0  0  0  0
   -7.4949   24.2788  -29.7916 H   0  0  0  0  0  0  0  0  0  0  0  0
   -1.7857   25.3271  -29.4372 H   0  0  0  0  0  0  0  0  0  0  0  0
   -3.2621   25.3232  -28.4033 H   0  0  0  0  0  0  0  0  0  0  0  0
   -3.5439   23.3800  -27.1924 H   0  0  0  0  0  0  0  0  0  0  0  0
   -3.4505   20.8926  -27.0078 H   0  0  0  0  0  0  0  0  0  0  0  0
   -2.5882   19.5279  -28.9118 H   0  0  0  0  0  0  0  0  0  0  0  0
   -1.9066   23.1374  -31.1985 H   0  0  0  0  0  0  0  0  0  0  0  0
   -4.0664   23.4053  -32.2821 H   0  0  0  0  0  0  0  0  0  0  0  0
   -4.8440   20.1340  -33.1790 H   0  0  0  0  0  0  0  0  0  0  0  0
   -4.6350   21.5650  -34.2210 H   0  0  0  0  0  0  0  0  0  0  0  0
  1  2  1  0
  2  3  2  0
  3  4  1  0
  4  5  2  0
  5  6  1  0
  6  7  2  0
  6  8  1  0
  8  9  1  0
  9 10  1  0
 10 11  2  0
 11 12  1  0
 12 13  2  0
 13 14  1  0
 14 15  1  0
 14 16  2  0
  5 17  1  0
 17 18  2  0
 18 19  1  0
 18  2  1  0
 16 10  1  0
  1 20  1  0
  1 21  1  0
  1 22  1  0
  3 23  1  0
  4 24  1  0
  9 25  1  0
  9 26  1  0
 11 27  1  0
 12 28  1  0
 13 29  1  0
 16 30  1  0
 17 31  1  0
 19 32  1  0
 19 33  1  0
M  CHG  1   8  -1
M  END
>  <UniqueID>  (15) 
14

>  <SMILES>  (15) 
Cc1ccc(C(=O)[N-]Cc2cccc(F)c2)cc1N

>  <Energy>  (15) 
32.07266155935423

>  <Genealogy>  (15) 
Cc1ccc(C(=O)[N-]Cc2cccc(F)c2)cc1N (protonated)
Cc1ccc(C(=O)[N-]Cc2cccc(F)c2)cc1N (3D coordinates assigned)
Cc1ccc(C(=O)[N-]Cc2cccc(F)c2)cc1N (optimized conformer: 32.07266155935423 kcal/mol)

>  <smiles>  (15) 
Cc1ccc(C(=O)NCc2cccc(F)c2)cc1N

>  <score_type>  (15) 
oracle

>  <origin>  (15) 
adgpu

>  <m_score__min__energy>  (15) 
-8.5299999999999994

>  <m_primary>  (15) 
energy

$$$$
15:0
     RDKit          3D

 38 41  0  0  0  0  0  0  0  0999 V2000
    0.2800   24.1890  -23.6700 H   0  0  0  0  0  0  0  0  0  0  0  0
   -0.1410   23.6630  -24.4260 O   0  0  0  0  0  0  0  0  0  0  0  0
   -0.4320   24.2560  -25.6530 C   0  0  0  0  0  0  0  0  0  0  0  0
    0.4070   25.2590  -26.1480 C   0  0  0  0  0  0  0  0  0  0  0  0
    1.2888   25.5725  -25.5699 H   0  0  0  0  0  0  0  0  0  0  0  0
    0.1270   25.8630  -27.3750 C   0  0  0  0  0  0  0  0  0  0  0  0
    0.7906   26.6511  -27.7604 H   0  0  0  0  0  0  0  0  0  0  0  0
   -0.9930   25.4720  -28.1180 C   0  0  0  0  0  0  0  0  0  0  0  0
   -1.2360   26.0970  -29.3360 O   0  0  0  0  0  0  0  0  0  0  0  0
   -1.8490   24.4590  -27.6280 C   0  0  0  0  0  0  0  0  0  0  0  0
   -3.0550   24.0040  -28.3570 C   0  0  0  0  0  0  0  0  0  0  0  0
   -3.6135   23.1346  -27.9798 H   0  0  0  0  0  0  0  0  0  0  0  0
   -3.4700   24.6060  -29.4310 N   0  0  0  0  0  0  0  0  0  0  0  0
   -4.6590   24.2300  -30.1400 C   0  0  0  0  0  0  0  0  0  0  0  0
   -5.8680   24.8260  -29.7550 C   0  0  0  0  0  0  0  0  0  0  0  0
   -5.8892   25.5078  -28.8920 H   0  0  0  0  0  0  0  0  0  0  0  0
   -7.0450   24.5620  -30.4570 C   0  0  0  0  0  0  0  0  0  0  0  0
   -7.9865   25.0415  -30.1509 H   0  0  0  0  0  0  0  0  0  0  0  0
   -7.0290   23.6910  -31.5460 C   0  0  0  0  0  0  0  0  0  0  0  0
   -7.9537   23.5007  -32.1105 H   0  0  0  0  0  0  0  0  0  0  0  0
   -5.8410   23.0600  -31.9210 C   0  0  0  0  0  0  0  0  0  0  0  0
   -5.8379   22.3700  -32.7777 H   0  0  0  0  0  0  0  0  0  0  0  0
   -4.6480   23.2980  -31.2140 C   0  0  0  0  0  0  0  0  0  0  0  0
   -3.4430   22.5160  -31.5740 C   0  0  0  0  0  0  0  0  0  0  0  0
   -2.4360   22.2560  -30.6950 N   0  0  0  0  0  0  0  0  0  0  0  0
   -1.5890   21.5200  -31.4270 C   0  0  0  0  0  0  0  0  0  0  0  0
   -0.3660   20.9820  -31.0320 C   0  0  0  0  0  0  0  0  0  0  0  0
    0.0220   21.1344  -30.0140 H   0  0  0  0  0  0  0  0  0  0  0  0
    0.3550   20.2360  -31.9840 C   0  0  0  0  0  0  0  0  0  0  0  0
    1.3253   19.7951  -31.7119 H   0  0  0  0  0  0  0  0  0  0  0  0
   -0.1600   20.0500  -33.2870 C   0  0  0  0  0  0  0  0  0  0  0  0
    0.4111   19.4647  -34.0227 H   0  0  0  0  0  0  0  0  0  0  0  0
   -1.4000   20.6100  -33.6480 C   0  0  0  0  0  0  0  0  0  0  0  0
   -1.8135   20.4743  -34.6583 H   0  0  0  0  0  0  0  0  0  0  0  0
   -2.0850   21.3420  -32.6810 C   0  0  0  0  0  0  0  0  0  0  0  0
   -3.2680   21.9600  -32.8040 N   0  0  0  0  0  0  0  0  0  0  0  0
   -1.5540   23.8590  -26.3920 C   0  0  0  0  0  0  0  0  0  0  0  0
   -2.2114   23.0688  -26.0004 H   0  0  0  0  0  0  0  0  0  0  0  0
  1  2  1  0
  2  3  1  0
  3  4  2  0
  4  5  1  0
  4  6  1  0
  6  7  1  0
  6  8  2  0
  8  9  1  0
  8 10  1  0
 10 11  1  0
 11 12  1  0
 11 13  2  0
 13 14  1  0
 14 15  2  0
 15 16  1  0
 15 17  1  0
 17 18  1  0
 17 19  2  0
 19 20  1  0
 19 21  1  0
 21 22  1  0
 21 23  2  0
 23 24  1  0
 24 25  2  0
 25 26  1  0
 26 27  2  0
 27 28  1  0
 27 29  1  0
 29 30  1  0
 29 31  2  0
 31 32  1  0
 31 33  1  0
 33 34  1  0
 33 35  2  0
 35 36  1  0
 10 37  2  0
 37 38  1  0
 37  3  1  0
 23 14  1  0
 36 24  1  0
 35 26  1  0
M  CHG  2   9  -1  36  -1
M  END
>  <UniqueID>  (16) 
15

>  <SMILES>  (16) 
[O-]c1ccc(O)cc1/C=N/c1ccccc1-c1nc2ccccc2[n-]1

>  <Energy>  (16) 
88.35923075287724

>  <Genealogy>  (16) 
[O-]c1ccc(O)cc1C=Nc1ccccc1-c1nc2ccccc2[n-]1 (protonated)
[O-]c1ccc(O)cc1/C=N/c1ccccc1-c1nc2ccccc2[n-]1 (cis-trans isomerization)
[O-]c1ccc(O)cc1/C=N/c1ccccc1-c1nc2ccccc2[n-]1 (3D coordinates assigned)
[O-]c1ccc(O)cc1/C=N/c1ccccc1-c1nc2ccccc2[n-]1 (optimized conformer: 88.35923075287724 kcal/mol)

>  <smiles>  (16) 
Oc1ccc(O)c(C=Nc2ccccc2-c2nc3ccccc3[nH]2)c1

>  <score_type>  (16) 
oracle

>  <origin>  (16) 
adgpu

>  <m_score__min__energy>  (16) 
-11.25

>  <m_primary>  (16) 
energy

$$$$
16:0
     RDKit          3D

 35 37  0  0  0  0  0  0  0  0999 V2000
   -5.7390   25.7130  -30.2090 C   0  0  0  0  0  0  0  0  0  0  0  0
   -5.7480   24.3530  -30.8320 C   0  0  0  0  0  0  0  0  0  0  0  0
   -6.9530   23.6830  -31.0520 C   0  0  0  0  0  0  0  0  0  0  0  0
   -6.9130   22.4230  -31.6480 C   0  0  0  0  0  0  0  0  0  0  0  0
   -8.4260   21.5220  -31.9680 S   0  0  0  0  0  0  0  0  0  0  0  0
   -7.5410   20.0450  -32.4680 C   0  0  0  0  0  0  0  0  0  0  0  0
   -7.5170   18.9230  -31.6300 C   0  0  0  0  0  0  0  0  0  0  0  0
   -6.8200   17.7740  -32.0160 C   0  0  0  0  0  0  0  0  0  0  0  0
   -6.1490   17.7430  -33.2420 C   0  0  0  0  0  0  0  0  0  0  0  0
   -6.1740   18.8600  -34.0830 C   0  0  0  0  0  0  0  0  0  0  0  0
   -6.8700   20.0110  -33.6970 C   0  0  0  0  0  0  0  0  0  0  0  0
   -5.7180   21.8780  -31.9990 N   0  0  0  0  0  0  0  0  0  0  0  0
   -4.5500   22.5400  -31.7830 C   0  0  0  0  0  0  0  0  0  0  0  0
   -3.2690   21.9170  -32.1860 C   0  0  0  0  0  0  0  0  0  0  0  0
   -3.0770   21.2360  -33.3770 C   0  0  0  0  0  0  0  0  0  0  0  0
   -1.7640   20.8120  -33.3830 C   0  0  0  0  0  0  0  0  0  0  0  0
   -1.2020   21.2480  -32.2020 C   0  0  0  0  0  0  0  0  0  0  0  0
   -2.1160   21.9190  -31.4740 N   0  0  0  0  0  0  0  0  0  0  0  0
   -1.8650   22.5210  -30.1650 C   0  0  0  0  0  0  0  0  0  0  0  0
   -4.5780   23.7710  -31.2040 N   0  0  0  0  0  0  0  0  0  0  0  0
   -5.7397   25.6144  -29.1134 H   0  0  0  0  0  0  0  0  0  0  0  0
   -4.8372   26.2564  -30.5277 H   0  0  0  0  0  0  0  0  0  0  0  0
   -6.6335   26.2682  -30.5277 H   0  0  0  0  0  0  0  0  0  0  0  0
   -7.9114   24.1384  -30.7620 H   0  0  0  0  0  0  0  0  0  0  0  0
   -8.0474   18.9458  -30.6666 H   0  0  0  0  0  0  0  0  0  0  0  0
   -6.7997   16.8948  -31.3552 H   0  0  0  0  0  0  0  0  0  0  0  0
   -5.6007   16.8390  -33.5455 H   0  0  0  0  0  0  0  0  0  0  0  0
   -5.6466   18.8339  -35.0479 H   0  0  0  0  0  0  0  0  0  0  0  0
   -6.8901   20.8893  -34.3589 H   0  0  0  0  0  0  0  0  0  0  0  0
   -3.8257   21.0663  -34.1648 H   0  0  0  0  0  0  0  0  0  0  0  0
   -1.2629   20.2376  -34.1761 H   0  0  0  0  0  0  0  0  0  0  0  0
   -0.1593   21.0735  -31.8982 H   0  0  0  0  0  0  0  0  0  0  0  0
   -2.1593   21.8152  -29.3743 H   0  0  0  0  0  0  0  0  0  0  0  0
   -0.7945   22.7547  -30.0681 H   0  0  0  0  0  0  0  0  0  0  0  0
   -2.4524   23.4459  -30.0681 H   0  0  0  0  0  0  0  0  0  0  0  0
  1  2  1  0
  2  3  2  0
  3  4  1  0
  4  5  1  0
  5  6  1  0
  6  7  2  0
  7  8  1  0
  8  9  2  0
  9 10  1  0
 10 11  2  0
  4 12  2  0
 12 13  1  0
 13 14  1  0
 14 15  2  0
 15 16  1  0
 16 17  2  0
 17 18  1  0
 18 19  1  0
 13 20  2  0
 20  2  1  0
 11  6  1  0
 18 14  1  0
  1 21  1  0
  1 22  1  0
  1 23  1  0
  3 24  1  0
  7 25  1  0
  8 26  1  0
  9 27  1  0
 10 28  1  0
 11 29  1  0
 15 30  1  0
 16 31  1  0
 17 32  1  0
 19 33  1  0
 19 34  1  0
 19 35  1  0
M  END
>  <UniqueID>  (17) 
16

>  <SMILES>  (17) 
Cc1cc(Sc2ccccc2)nc(-c2cccn2C)n1

>  <Energy>  (17) 
58.27936035972582

>  <Genealogy>  (17) 
Cc1cc(Sc2ccccc2)nc(-c2cccn2C)n1 (3D coordinates assigned)
Cc1cc(Sc2ccccc2)nc(-c2cccn2C)n1 (optimized conformer: 58.27936035972582 kcal/mol)

>  <smiles>  (17) 
Cc1cc(Sc2ccccc2)nc(-c2cccn2C)n1

>  <score_type>  (17) 
oracle

>  <origin>  (17) 
adgpu

>  <m_score__min__energy>  (17) 
-8.0199999999999996

>  <m_primary>  (17) 
energy

$$$$
17:0
     RDKit          3D

 28 29  0  0  0  0  0  0  0  0999 V2000
   -6.1520   17.0930  -31.4770 C   0  0  0  0  0  0  0  0  0  0  0  0
   -6.9800   18.3220  -31.7040 C   0  0  0  0  0  0  0  0  0  0  0  0
   -8.3810   18.2440  -31.6870 C   0  0  0  0  0  0  0  0  0  0  0  0
   -9.1510   19.3800  -31.9440 C   0  0  0  0  0  0  0  0  0  0  0  0
   -8.5330   20.6000  -32.2250 C   0  0  0  0  0  0  0  0  0  0  0  0
   -7.1290   20.6970  -32.2410 C   0  0  0  0  0  0  0  0  0  0  0  0
   -6.4700   21.9330  -32.5650 N   0  0  0  0  0  0  0  0  0  0  0  0
   -6.2080   22.9850  -31.6210 C   0  0  0  0  0  0  0  0  0  0  0  0
   -7.2390   23.4290  -30.7800 C   0  0  0  0  0  0  0  0  0  0  0  0
   -7.0140   24.4680  -29.8720 C   0  0  0  0  0  0  0  0  0  0  0  0
   -5.7610   25.0830  -29.8070 C   0  0  0  0  0  0  0  0  0  0  0  0
   -4.7310   24.6670  -30.6570 C   0  0  0  0  0  0  0  0  0  0  0  0
   -3.4900   25.2980  -30.5920 O   0  0  0  0  0  0  0  0  0  0  0  0
   -4.9560   23.6240  -31.5670 C   0  0  0  0  0  0  0  0  0  0  0  0
   -6.3610   19.5460  -32.0050 C   0  0  0  0  0  0  0  0  0  0  0  0
   -6.0372   16.9227  -30.3963 H   0  0  0  0  0  0  0  0  0  0  0  0
   -6.6505   16.2255  -31.9340 H   0  0  0  0  0  0  0  0  0  0  0  0
   -5.1607   17.2291  -31.9340 H   0  0  0  0  0  0  0  0  0  0  0  0
   -8.8741   17.2849  -31.4705 H   0  0  0  0  0  0  0  0  0  0  0  0
  -10.2488   19.3135  -31.9250 H   0  0  0  0  0  0  0  0  0  0  0  0
   -9.1459   21.4890  -32.4347 H   0  0  0  0  0  0  0  0  0  0  0  0
   -6.1600   22.0760  -33.5530 H   0  0  0  0  0  0  0  0  0  0  0  0
   -8.2309   22.9567  -30.8352 H   0  0  0  0  0  0  0  0  0  0  0  0
   -7.8247   24.8019  -29.2077 H   0  0  0  0  0  0  0  0  0  0  0  0
   -5.5844   25.8952  -29.0865 H   0  0  0  0  0  0  0  0  0  0  0  0
   -3.1180   25.6450  -29.7150 H   0  0  0  0  0  0  0  0  0  0  0  0
   -4.1489   23.3038  -32.2423 H   0  0  0  0  0  0  0  0  0  0  0  0
   -5.2637   19.6034  -32.0563 H   0  0  0  0  0  0  0  0  0  0  0  0
  1  2  1  0
  2  3  2  0
  3  4  1  0
  4  5  2  0
  5  6  1  0
  6  7  1  0
  7  8  1  0
  8  9  2  0
  9 10  1  0
 10 11  2  0
 11 12  1  0
 12 13  1  0
 12 14  2  0
  6 15  2  0
 15  2  1  0
 14  8  1  0
  1 16  1  0
  1 17  1  0
  1 18  1  0
  3 19  1  0
  4 20  1  0
  5 21  1  0
  7 22  1  0
  9 23  1  0
 10 24  1  0
 11 25  1  0
 13 26  1  0
 14 27  1  0
 15 28  1  0
M  END
>  <UniqueID>  (18) 
17

>  <SMILES>  (18) 
Cc1cccc(Nc2cccc(O)c2)c1

>  <Energy>  (18) 
32.645598670936906

>  <Genealogy>  (18) 
Cc1cccc(Nc2cccc(O)c2)c1 (3D coordinates assigned)
Cc1cccc(Nc2cccc(O)c2)c1 (optimized conformer: 32.645598670936906 kcal/mol)

>  <smiles>  (18) 
Cc1cccc(Nc2cccc(O)c2)c1

>  <score_type>  (18) 
oracle

>  <origin>  (18) 
adgpu

>  <m_score__min__energy>  (18) 
-8.2300000000000004

>  <m_primary>  (18) 
energy

$$$$
18:0
     RDKit          3D

 36 38  0  0  0  0  0  0  0  0999 V2000
    1.8860   24.1160  -24.1060 N   0  0  0  0  0  0  0  0  0  0  0  0
    1.4670   24.8060  -25.6380 S   0  0  0  0  0  0  0  0  0  0  0  0
    1.8690   23.8440  -26.7200 O   0  0  0  0  0  0  0  0  0  0  0  0
    2.2270   26.0920  -25.8060 O   0  0  0  0  0  0  0  0  0  0  0  0
   -0.2690   25.1350  -25.7690 C   0  0  0  0  0  0  0  0  0  0  0  0
   -0.9900   24.6850  -26.8870 C   0  0  0  0  0  0  0  0  0  0  0  0
   -2.3680   24.9420  -27.0140 C   0  0  0  0  0  0  0  0  0  0  0  0
   -3.1060   24.4480  -28.2060 C   0  0  0  0  0  0  0  0  0  0  0  0
   -4.0640   23.4280  -28.1160 C   0  0  0  0  0  0  0  0  0  0  0  0
   -4.7270   23.0070  -29.2650 C   0  0  0  0  0  0  0  0  0  0  0  0
   -4.4380   23.6220  -30.4950 C   0  0  0  0  0  0  0  0  0  0  0  0
   -5.0080   23.2730  -31.6150 N   0  0  0  0  0  0  0  0  0  0  0  0
   -6.0840   22.3380  -31.7950 C   0  0  0  0  0  0  0  0  0  0  0  0
   -7.4270   22.7490  -31.7170 C   0  0  0  0  0  0  0  0  0  0  0  0
   -8.4570   21.8310  -31.9510 C   0  0  0  0  0  0  0  0  0  0  0  0
   -8.1540   20.5080  -32.2880 C   0  0  0  0  0  0  0  0  0  0  0  0
   -9.4460   19.3600  -32.5850 Cl  0  0  0  0  0  0  0  0  0  0  0  0
   -6.8190   20.1050  -32.4010 C   0  0  0  0  0  0  0  0  0  0  0  0
   -5.7890   21.0210  -32.1680 C   0  0  0  0  0  0  0  0  0  0  0  0
   -3.4950   24.6000  -30.5250 N   0  0  0  0  0  0  0  0  0  0  0  0
   -2.8580   25.0020  -29.4240 N   0  0  0  0  0  0  0  0  0  0  0  0
   -3.0230   25.6470  -25.9900 C   0  0  0  0  0  0  0  0  0  0  0  0
   -2.3140   26.0960  -24.8750 C   0  0  0  0  0  0  0  0  0  0  0  0
   -0.9450   25.8490  -24.7570 C   0  0  0  0  0  0  0  0  0  0  0  0
   -0.1140   26.4470  -23.3240 Cl  0  0  0  0  0  0  0  0  0  0  0  0
    2.0600   24.9040  -23.4420 H   0  0  0  0  0  0  0  0  0  0  0  0
    1.0560   23.5840  -23.7610 H   0  0  0  0  0  0  0  0  0  0  0  0
   -0.4694   24.1226  -27.6761 H   0  0  0  0  0  0  0  0  0  0  0  0
   -4.2898   22.9641  -27.1445 H   0  0  0  0  0  0  0  0  0  0  0  0
   -5.4715   22.1991  -29.2107 H   0  0  0  0  0  0  0  0  0  0  0  0
   -7.6680   23.7938  -31.4716 H   0  0  0  0  0  0  0  0  0  0  0  0
   -9.5064   22.1505  -31.8697 H   0  0  0  0  0  0  0  0  0  0  0  0
   -6.5796   19.0665  -32.6734 H   0  0  0  0  0  0  0  0  0  0  0  0
   -4.7410   20.7054  -32.2783 H   0  0  0  0  0  0  0  0  0  0  0  0
   -4.1020   25.8463  -26.0678 H   0  0  0  0  0  0  0  0  0  0  0  0
   -2.8384   26.6494  -24.0821 H   0  0  0  0  0  0  0  0  0  0  0  0
  1  2  1  0
  2  3  2  0
  2  4  2  0
  2  5  1  0
  5  6  2  0
  6  7  1  0
  7  8  1  0
  8  9  1  0
  9 10  2  0
 10 11  1  0
 11 12  2  3
 12 13  1  0
 13 14  2  0
 14 15  1  0
 15 16  2  0
 16 17  1  0
 16 18  1  0
 18 19  2  0
 11 20  1  0
 20 21  1  0
  7 22  2  0
 22 23  1  0
 23 24  2  0
 24 25  1  0
 24  5  1  0
 21  8  2  0
 19 13  1  0
  1 26  1  0
  1 27  1  0
  6 28  1  0
  9 29  1  0
 10 30  1  0
 14 31  1  0
 15 32  1  0
 18 33  1  0
 19 34  1  0
 22 35  1  0
 23 36  1  0
M  CHG  1  20  -1
M  END
>  <UniqueID>  (19) 
18

>  <SMILES>  (19) 
NS(=O)(=O)c1cc(-c2ccc(=Nc3ccc(Cl)cc3)[n-]n2)ccc1Cl

>  <Energy>  (19) 
54.414026386062034

>  <Genealogy>  (19) 
NS(=O)(=O)c1cc(-c2ccc(=Nc3ccc(Cl)cc3)[n-]n2)ccc1Cl (protonated)
NS(=O)(=O)c1cc(-c2ccc(=Nc3ccc(Cl)cc3)[n-]n2)ccc1Cl (3D coordinates assigned)
NS(=O)(=O)c1cc(-c2ccc(=Nc3ccc(Cl)cc3)[n-]n2)ccc1Cl (optimized conformer: 54.414026386062034 kcal/mol)

>  <smiles>  (19) 
NS(=O)(=O)c1cc(-c2ccc(=Nc3ccc(Cl)cc3)[nH]n2)ccc1Cl

>  <score_type>  (19) 
oracle

>  <origin>  (19) 
adgpu

>  <m_score__min__energy>  (19) 
-11.859999999999999

>  <m_primary>  (19) 
energy

$$$$
19:0
     RDKit          3D

 43 45  0  0  0  0  0  0  0  0999 V2000
   -0.7730   18.0820  -33.2620 C   0  0  0  0  0  0  0  0  0  0  0  0
   -0.7550   19.4750  -32.9710 O   0  0  0  0  0  0  0  0  0  0  0  0
   -1.8770   20.2150  -32.5670 C   0  0  0  0  0  0  0  0  0  0  0  0
   -2.0960   20.3970  -31.1970 C   0  0  0  0  0  0  0  0  0  0  0  0
   -3.2000   21.1260  -30.7450 C   0  0  0  0  0  0  0  0  0  0  0  0
   -4.1020   21.6840  -31.6620 C   0  0  0  0  0  0  0  0  0  0  0  0
   -5.2470   22.4200  -31.1950 N   0  0  0  0  0  0  0  0  0  0  0  0
   -6.5260   21.9750  -31.1300 C   0  0  0  0  0  0  0  0  0  0  0  0
   -7.0160   20.6750  -31.6430 C   0  0  0  0  0  0  0  0  0  0  0  0
   -6.1990   19.5300  -31.6040 C   0  0  0  0  0  0  0  0  0  0  0  0
   -6.6710   18.3090  -32.0940 C   0  0  0  0  0  0  0  0  0  0  0  0
   -7.9550   18.2200  -32.6350 C   0  0  0  0  0  0  0  0  0  0  0  0
   -8.7680   19.3550  -32.6940 C   0  0  0  0  0  0  0  0  0  0  0  0
   -8.3010   20.5790  -32.2040 C   0  0  0  0  0  0  0  0  0  0  0  0
   -7.3360   22.9390  -30.5560 C   0  0  0  0  0  0  0  0  0  0  0  0
   -6.5180   24.0100  -30.2570 C   0  0  0  0  0  0  0  0  0  0  0  0
   -6.9810   25.3250  -29.6920 C   0  0  0  0  0  0  0  0  0  0  0  0
   -6.1090   25.7570  -28.6010 N   0  0  0  0  0  0  0  0  0  0  0  0
   -5.2350   23.6610  -30.6540 C   0  0  0  0  0  0  0  0  0  0  0  0
   -4.0160   24.5340  -30.5450 C   0  0  0  0  0  0  0  0  0  0  0  0
   -3.8880   21.5040  -33.0360 C   0  0  0  0  0  0  0  0  0  0  0  0
   -2.7830   20.7760  -33.4880 C   0  0  0  0  0  0  0  0  0  0  0  0
   -0.7804   17.5111  -32.3218 H   0  0  0  0  0  0  0  0  0  0  0  0
   -1.6743   17.8407  -33.8446 H   0  0  0  0  0  0  0  0  0  0  0  0
    0.1218   17.8175  -33.8446 H   0  0  0  0  0  0  0  0  0  0  0  0
   -1.3939   19.9630  -30.4698 H   0  0  0  0  0  0  0  0  0  0  0  0
   -3.3616   21.2624  -29.6655 H   0  0  0  0  0  0  0  0  0  0  0  0
   -5.1838   19.5962  -31.1858 H   0  0  0  0  0  0  0  0  0  0  0  0
   -6.0295   17.4164  -32.0533 H   0  0  0  0  0  0  0  0  0  0  0  0
   -8.3265   17.2568  -33.0147 H   0  0  0  0  0  0  0  0  0  0  0  0
   -9.7770   19.2857  -33.1266 H   0  0  0  0  0  0  0  0  0  0  0  0
   -8.9426   21.4708  -32.2580 H   0  0  0  0  0  0  0  0  0  0  0  0
   -8.4184   22.8662  -30.3739 H   0  0  0  0  0  0  0  0  0  0  0  0
   -6.9665   26.0845  -30.4876 H   0  0  0  0  0  0  0  0  0  0  0  0
   -8.0012   25.2007  -29.2999 H   0  0  0  0  0  0  0  0  0  0  0  0
   -6.0770   25.0270  -27.8530 H   0  0  0  0  0  0  0  0  0  0  0  0
   -6.4850   26.6430  -28.1920 H   0  0  0  0  0  0  0  0  0  0  0  0
   -5.1430   25.9340  -28.9630 H   0  0  0  0  0  0  0  0  0  0  0  0
   -3.7798   24.7031  -29.4841 H   0  0  0  0  0  0  0  0  0  0  0  0
   -3.1652   24.0386  -31.0356 H   0  0  0  0  0  0  0  0  0  0  0  0
   -4.2111   25.4990  -31.0356 H   0  0  0  0  0  0  0  0  0  0  0  0
   -4.5923   21.9373  -33.7614 H   0  0  0  0  0  0  0  0  0  0  0  0
   -2.6206   20.6409  -34.5675 H   0  0  0  0  0  0  0  0  0  0  0  0
  1  2  1  0
  2  3  1  0
  3  4  2  0
  4  5  1  0
  5  6  2  0
  6  7  1  0
  7  8  1  0
  8  9  1  0
  9 10  2  0
 10 11  1  0
 11 12  2  0
 12 13  1  0
 13 14  2  0
  8 15  2  0
 15 16  1  0
 16 17  1  0
 17 18  1  0
 16 19  2  0
 19 20  1  0
  6 21  1  0
 21 22  2  0
 22  3  1  0
 19  7  1  0
 14  9  1  0
  1 23  1  0
  1 24  1  0
  1 25  1  0
  4 26  1  0
  5 27  1  0
 10 28  1  0
 11 29  1  0
 12 30  1  0
 13 31  1  0
 14 32  1  0
 15 33  1  0
 17 34  1  0
 17 35  1  0
 18 36  1  0
 18 37  1  0
 18 38  1  0
 20 39  1  0
 20 40  1  0
 20 41  1  0
 21 42  1  0
 22 43  1  0
M  CHG  1  18   1
M  END
>  <UniqueID>  (20) 
19

>  <SMILES>  (20) 
COc1ccc(-n2c(-c3ccccc3)cc(C[NH3+])c2C)cc1

>  <Energy>  (20) 
78.18386872274625

>  <Genealogy>  (20) 
COc1ccc(-n2c(-c3ccccc3)cc(C[NH3+])c2C)cc1 (protonated)
COc1ccc(-n2c(-c3ccccc3)cc(C[NH3+])c2C)cc1 (3D coordinates assigned)
COc1ccc(-n2c(-c3ccccc3)cc(C[NH3+])c2C)cc1 (optimized conformer: 78.18386872274625 kcal/mol)

>  <smiles>  (20) 
COc1ccc(-n2c(-c3ccccc3)cc(CN)c2C)cc1

>  <score_type>  (20) 
oracle

>  <origin>  (20) 
adgpu

>  <m_score__min__energy>  (20) 
-7.1200000000000001

>  <m_primary>  (20) 
energy

$$$$
20:0
     RDKit          3D

 42 45  0  0  0  0  0  0  0  0999 V2000
   -0.8170   23.9160  -28.2610 C   0  0  0  0  0  0  0  0  0  0  0  0
   -0.8930   23.6440  -29.6560 O   0  0  0  0  0  0  0  0  0  0  0  0
   -2.0550   23.2210  -30.3220 C   0  0  0  0  0  0  0  0  0  0  0  0
   -2.1330   21.9800  -30.9830 C   0  0  0  0  0  0  0  0  0  0  0  0
   -3.3140   21.5920  -31.6380 C   0  0  0  0  0  0  0  0  0  0  0  0
   -3.3960   20.2910  -32.3320 C   0  0  0  0  0  0  0  0  0  0  0  0
   -4.4730   19.4820  -32.3060 N   0  0  0  0  0  0  0  0  0  0  0  0
   -4.0560   18.4500  -33.0720 C   0  0  0  0  0  0  0  0  0  0  0  0
   -4.8820   17.2610  -33.3720 C   0  0  0  0  0  0  0  0  0  0  0  0
   -4.3010   15.9820  -33.4110 C   0  0  0  0  0  0  0  0  0  0  0  0
   -5.0840   14.8580  -33.6930 C   0  0  0  0  0  0  0  0  0  0  0  0
   -6.4570   14.9900  -33.9270 C   0  0  0  0  0  0  0  0  0  0  0  0
   -7.2040   13.8400  -34.2220 O   0  0  0  0  0  0  0  0  0  0  0  0
   -7.2590   13.2060  -35.4730 C   0  0  0  0  0  0  0  0  0  0  0  0
   -6.1780   12.4090  -35.8700 C   0  0  0  0  0  0  0  0  0  0  0  0
   -6.2020   11.7480  -37.1030 C   0  0  0  0  0  0  0  0  0  0  0  0
   -7.3140   11.8700  -37.9400 C   0  0  0  0  0  0  0  0  0  0  0  0
   -8.4060   12.6470  -37.5430 C   0  0  0  0  0  0  0  0  0  0  0  0
   -8.3840   13.3080  -36.3120 C   0  0  0  0  0  0  0  0  0  0  0  0
   -7.0370   16.2700  -33.9100 C   0  0  0  0  0  0  0  0  0  0  0  0
   -6.2560   17.3950  -33.6280 C   0  0  0  0  0  0  0  0  0  0  0  0
   -2.8010   18.6300  -33.5320 N   0  0  0  0  0  0  0  0  0  0  0  0
   -2.4290   19.7770  -33.0530 O   0  0  0  0  0  0  0  0  0  0  0  0
   -4.4200   22.4560  -31.6290 C   0  0  0  0  0  0  0  0  0  0  0  0
   -4.3490   23.6890  -30.9760 C   0  0  0  0  0  0  0  0  0  0  0  0
   -5.7500   24.7500  -30.9800 Cl  0  0  0  0  0  0  0  0  0  0  0  0
   -3.1700   24.0700  -30.3230 C   0  0  0  0  0  0  0  0  0  0  0  0
   -3.1010   25.2990  -29.6720 O   0  0  0  0  0  0  0  0  0  0  0  0
   -1.0710   23.0071  -27.6958 H   0  0  0  0  0  0  0  0  0  0  0  0
    0.2044   24.2339  -28.0045 H   0  0  0  0  0  0  0  0  0  0  0  0
   -1.5257   24.7173  -28.0045 H   0  0  0  0  0  0  0  0  0  0  0  0
   -1.2618   21.3085  -30.9866 H   0  0  0  0  0  0  0  0  0  0  0  0
   -3.2244   15.8643  -33.2186 H   0  0  0  0  0  0  0  0  0  0  0  0
   -4.6169   13.8628  -33.7311 H   0  0  0  0  0  0  0  0  0  0  0  0
   -5.3053   12.3021  -35.2089 H   0  0  0  0  0  0  0  0  0  0  0  0
   -5.3451   11.1321  -37.4134 H   0  0  0  0  0  0  0  0  0  0  0  0
   -7.3301   11.3545  -38.9116 H   0  0  0  0  0  0  0  0  0  0  0  0
   -9.2834   12.7382  -38.2001 H   0  0  0  0  0  0  0  0  0  0  0  0
   -9.2492   13.9102  -35.9978 H   0  0  0  0  0  0  0  0  0  0  0  0
   -8.1105   16.3874  -34.1195 H   0  0  0  0  0  0  0  0  0  0  0  0
   -6.7211   18.3916  -33.6066 H   0  0  0  0  0  0  0  0  0  0  0  0
   -5.3486   22.1605  -32.1393 H   0  0  0  0  0  0  0  0  0  0  0  0
  1  2  1  0
  2  3  1  0
  3  4  2  0
  4  5  1  0
  5  6  1  0
  6  7  2  0
  7  8  1  0
  8  9  1  0
  9 10  2  0
 10 11  1  0
 11 12  2  0
 12 13  1  0
 13 14  1  0
 14 15  2  0
 15 16  1  0
 16 17  2  0
 17 18  1  0
 18 19  2  0
 12 20  1  0
 20 21  2  0
  8 22  2  0
 22 23  1  0
  5 24  2  0
 24 25  1  0
 25 26  1  0
 25 27  2  0
 27 28  1  0
 27  3  1  0
 23  6  1  0
 21  9  1  0
 19 14  1  0
  1 29  1  0
  1 30  1  0
  1 31  1  0
  4 32  1  0
 10 33  1  0
 11 34  1  0
 15 35  1  0
 16 36  1  0
 17 37  1  0
 18 38  1  0
 19 39  1  0
 20 40  1  0
 21 41  1  0
 24 42  1  0
M  CHG  1  28  -1
M  END
>  <UniqueID>  (21) 
20

>  <SMILES>  (21) 
COc1cc(-c2nc(-c3ccc(Oc4ccccc4)cc3)no2)cc(Cl)c1[O-]

>  <Energy>  (21) 
87.10671477472826

>  <Genealogy>  (21) 
COc1cc(-c2nc(-c3ccc(Oc4ccccc4)cc3)no2)cc(Cl)c1[O-] (protonated)
COc1cc(-c2nc(-c3ccc(Oc4ccccc4)cc3)no2)cc(Cl)c1[O-] (3D coordinates assigned)
COc1cc(-c2nc(-c3ccc(Oc4ccccc4)cc3)no2)cc(Cl)c1[O-] (optimized conformer: 87.10671477472826 kcal/mol)

>  <smiles>  (21) 
COc1cc(-c2nc(-c3ccc(Oc4ccccc4)cc3)no2)cc(Cl)c1O

>  <score_type>  (21) 
oracle

>  <origin>  (21) 
adgpu

>  <m_score__min__energy>  (21) 
-10.09

>  <m_primary>  (21) 
energy

$$$$
21:0
     RDKit          3D

 35 38  0  0  0  0  0  0  0  0999 V2000
   -0.8740   26.1070  -24.3840 C   0  0  0  0  0  0  0  0  0  0  0  0
   -1.8630   25.4880  -25.2010 O   0  0  0  0  0  0  0  0  0  0  0  0
   -1.6140   24.9360  -26.4670 C   0  0  0  0  0  0  0  0  0  0  0  0
   -0.3520   24.4280  -26.8330 C   0  0  0  0  0  0  0  0  0  0  0  0
   -0.1550   23.8890  -28.1060 C   0  0  0  0  0  0  0  0  0  0  0  0
   -1.2070   23.8480  -29.0230 C   0  0  0  0  0  0  0  0  0  0  0  0
   -2.4720   24.3500  -28.6730 C   0  0  0  0  0  0  0  0  0  0  0  0
   -3.5880   24.3110  -29.6380 C   0  0  0  0  0  0  0  0  0  0  0  0
   -4.4590   23.2880  -29.7510 N   0  0  0  0  0  0  0  0  0  0  0  0
   -5.2610   23.7250  -30.7440 C   0  0  0  0  0  0  0  0  0  0  0  0
   -6.4070   22.9690  -31.2740 C   0  0  0  0  0  0  0  0  0  0  0  0
   -7.7200   23.4270  -31.3510 C   0  0  0  0  0  0  0  0  0  0  0  0
   -8.5220   22.4820  -31.8880 N   0  0  0  0  0  0  0  0  0  0  0  0
   -7.7300   21.4290  -32.1530 C   0  0  0  0  0  0  0  0  0  0  0  0
   -8.1110   20.2110  -32.7150 C   0  0  0  0  0  0  0  0  0  0  0  0
   -7.1190   19.2350  -32.9090 C   0  0  0  0  0  0  0  0  0  0  0  0
   -5.7810   19.4940  -32.5410 C   0  0  0  0  0  0  0  0  0  0  0  0
   -5.4230   20.7310  -31.9750 C   0  0  0  0  0  0  0  0  0  0  0  0
   -6.4290   21.6840  -31.7930 C   0  0  0  0  0  0  0  0  0  0  0  0
   -4.8960   24.9380  -31.2030 N   0  0  0  0  0  0  0  0  0  0  0  0
   -3.8600   25.2660  -30.4940 O   0  0  0  0  0  0  0  0  0  0  0  0
   -2.6640   24.8920  -27.3920 C   0  0  0  0  0  0  0  0  0  0  0  0
   -1.1237   25.9507  -23.3242 H   0  0  0  0  0  0  0  0  0  0  0  0
    0.1092   25.6628  -24.5984 H   0  0  0  0  0  0  0  0  0  0  0  0
   -0.8438   27.1855  -24.5984 H   0  0  0  0  0  0  0  0  0  0  0  0
    0.4802   24.4560  -26.1142 H   0  0  0  0  0  0  0  0  0  0  0  0
    0.8328   23.4952  -28.3874 H   0  0  0  0  0  0  0  0  0  0  0  0
   -1.0449   23.4209  -30.0237 H   0  0  0  0  0  0  0  0  0  0  0  0
   -8.0572   24.4205  -31.0204 H   0  0  0  0  0  0  0  0  0  0  0  0
   -9.5480   22.5580  -32.0610 H   0  0  0  0  0  0  0  0  0  0  0  0
   -9.1567   20.0200  -32.9979 H   0  0  0  0  0  0  0  0  0  0  0  0
   -7.3865   18.2635  -33.3502 H   0  0  0  0  0  0  0  0  0  0  0  0
   -5.0126   18.7227  -32.6980 H   0  0  0  0  0  0  0  0  0  0  0  0
   -4.3832   20.9418  -31.6846 H   0  0  0  0  0  0  0  0  0  0  0  0
   -3.6517   25.2869  -27.1118 H   0  0  0  0  0  0  0  0  0  0  0  0
  1  2  1  0
  2  3  1  0
  3  4  2  0
  4  5  1  0
  5  6  2  0
  6  7  1  0
  7  8  1  0
  8  9  2  0
  9 10  1  0
 10 11  1  0
 11 12  2  0
 12 13  1  0
 13 14  1  0
 14 15  2  0
 15 16  1  0
 16 17  2  0
 17 18  1  0
 18 19  2  0
 10 20  2  0
 20 21  1  0
  7 22  2  0
 22  3  1  0
 21  8  1  0
 19 11  1  0
 19 14  1  0
  1 23  1  0
  1 24  1  0
  1 25  1  0
  4 26  1  0
  5 27  1  0
  6 28  1  0
 12 29  1  0
 13 30  1  0
 15 31  1  0
 16 32  1  0
 17 33  1  0
 18 34  1  0
 22 35  1  0
M  END
>  <UniqueID>  (22) 
21

>  <SMILES>  (22) 
COc1cccc(-c2nc(-c3c[nH]c4ccccc34)no2)c1

>  <Energy>  (22) 
105.35503304067278

>  <Genealogy>  (22) 
COc1cccc(-c2nc(-c3c[nH]c4ccccc34)no2)c1 (3D coordinates assigned)
COc1cccc(-c2nc(-c3c[nH]c4ccccc34)no2)c1 (optimized conformer: 105.35503304067278 kcal/mol)

>  <smiles>  (22) 
COc1cccc(-c2nc(-c3c[nH]c4ccccc34)no2)c1

>  <score_type>  (22) 
oracle

>  <origin>  (22) 
adgpu

>  <m_score__min__energy>  (22) 
-8.9900000000000002

>  <m_primary>  (22) 
energy

$$$$
22:0
     RDKit          3D

 40 42  0  0  1  0  0  0  0  0999 V2000
   -1.1950   22.4430  -28.5120 C   0  0  0  0  0  0  0  0  0  0  0  0
   -1.4020   24.1780  -28.2050 S   0  0  0  0  0  0  0  0  0  0  0  0
   -1.9560   24.4340  -26.8340 O   0  0  0  0  0  0  0  0  0  0  0  0
   -0.0420   24.8150  -28.2350 O   0  0  0  0  0  0  0  0  0  0  0  0
   -2.3590   24.8840  -29.4400 N   0  0  0  0  0  0  0  0  0  0  0  0
   -3.6840   24.4640  -29.7260 C   0  0  0  0  0  0  0  0  0  0  0  0
   -4.5420   25.2770  -30.4750 C   0  0  0  0  0  0  0  0  0  0  0  0
   -5.8340   24.8960  -30.7690 C   0  0  0  0  0  0  0  0  0  0  0  0
   -6.3170   23.6840  -30.3230 C   0  0  0  0  0  0  0  0  0  0  0  0
   -7.6400   23.2270  -30.5890 N   0  0  0  0  0  0  0  0  0  0  0  0
   -7.8240   22.1930  -31.3450 C   0  0  0  0  0  0  0  0  0  0  0  0
   -9.1550   21.8250  -31.5460 C   0  0  0  0  0  0  0  0  0  0  0  0
   -9.3610   20.7280  -32.3480 C   0  0  0  0  0  0  0  0  0  0  0  0
   -8.3020   20.0750  -32.8890 N   0  0  0  0  0  0  0  0  0  0  0  0
   -7.0300   20.4510  -32.6790 C   0  0  0  0  0  0  0  0  0  0  0  0
   -5.8950   19.7470  -33.2610 C   0  0  0  0  0  0  0  0  0  0  0  0
   -4.5860   20.1330  -33.0590 C   0  0  0  0  0  0  0  0  0  0  0  0
   -3.5180   19.4400  -33.6290 C   0  0  0  0  0  0  0  0  0  0  0  0
   -3.7810   18.3220  -34.4280 C   0  0  0  0  0  0  0  0  0  0  0  0
   -5.0940   17.9240  -34.6380 C   0  0  0  0  0  0  0  0  0  0  0  0
   -6.0990   18.6390  -34.0560 C   0  0  0  0  0  0  0  0  0  0  0  0
   -6.8040   21.5220  -31.8980 N   0  0  0  0  0  0  0  0  0  0  0  0
   -5.4790   22.8610  -29.5780 C   0  0  0  0  0  0  0  0  0  0  0  0
   -4.1880   23.2510  -29.2880 C   0  0  0  0  0  0  0  0  0  0  0  0
   -1.1310   21.9062  -27.5540 H   0  0  0  0  0  0  0  0  0  0  0  0
   -2.0547   22.0671  -29.0862 H   0  0  0  0  0  0  0  0  0  0  0  0
   -0.2710   22.2799  -29.0862 H   0  0  0  0  0  0  0  0  0  0  0  0
   -1.9940   25.6750  -30.0490 H   0  0  0  0  0  0  0  0  0  0  0  0
   -4.1752   26.2478  -30.8396 H   0  0  0  0  0  0  0  0  0  0  0  0
   -6.4809   25.5604  -31.3607 H   0  0  0  0  0  0  0  0  0  0  0  0
   -9.9887   22.3793  -31.0902 H   0  0  0  0  0  0  0  0  0  0  0  0
  -10.3844   20.3795  -32.5512 H   0  0  0  0  0  0  0  0  0  0  0  0
   -8.5320   19.2560  -33.4820 H   0  0  0  0  0  0  0  0  0  0  0  0
   -4.3787   21.0119  -32.4308 H   0  0  0  0  0  0  0  0  0  0  0  0
   -2.4830   19.7681  -33.4527 H   0  0  0  0  0  0  0  0  0  0  0  0
   -2.9527   17.7621  -34.8867 H   0  0  0  0  0  0  0  0  0  0  0  0
   -5.3200   17.0473  -35.2628 H   0  0  0  0  0  0  0  0  0  0  0  0
   -7.1346   18.3121  -34.2313 H   0  0  0  0  0  0  0  0  0  0  0  0
   -5.8491   21.8902  -29.2167 H   0  0  0  0  0  0  0  0  0  0  0  0
   -3.5447   22.5836  -28.6957 H   0  0  0  0  0  0  0  0  0  0  0  0
  1  2  1  0
  2  3  2  0
  2  4  2  0
  2  5  1  0
  5  6  1  0
  6  7  2  0
  7  8  1  0
  8  9  2  0
  9 10  1  0
 10 11  2  0
 11 12  1  0
 12 13  2  0
 13 14  1  0
 14 15  1  0
 15 16  1  0
 16 17  2  0
 17 18  1  0
 18 19  2  0
 19 20  1  0
 20 21  2  0
 15 22  2  0
  9 23  1  0
 23 24  2  0
 24  6  1  0
 22 11  1  0
 21 16  1  0
  1 25  1  0
  1 26  1  0
  1 27  1  0
  5 28  1  0
  7 29  1  0
  8 30  1  0
 12 31  1  0
 13 32  1  0
 14 33  1  0
 17 34  1  0
 18 35  1  0
 19 36  1  0
 20 37  1  0
 21 38  1  0
 23 39  1  0
 24 40  1  0
M  END
>  <smiles>  (23) 
CS(=O)(=O)Nc1ccc(N=c2cc[nH]c(-c3ccccc3)n2)cc1

>  <score_type>  (23) 
oracle

>  <origin>  (23) 
adgpu

>  <m_score__min__energy>  (23) 
-9.6400000000000006

>  <m_primary>  (23) 
energy

$$$$
23:0
     RDKit          3D

 29 30  0  0  0  0  0  0  0  0999 V2000
   -6.0383   25.4765  -29.5649 H   0  0  0  0  0  0  0  0  0  0  0  0
   -6.0580   24.6350  -30.2730 C   0  0  0  0  0  0  0  0  0  0  0  0
   -7.2780   24.0490  -30.6250 C   0  0  0  0  0  0  0  0  0  0  0  0
   -8.2172   24.4519  -30.2182 H   0  0  0  0  0  0  0  0  0  0  0  0
   -7.3080   22.9480  -31.4960 C   0  0  0  0  0  0  0  0  0  0  0  0
   -8.6180   22.3450  -31.9080 C   0  0  0  0  0  0  0  0  0  0  0  0
   -9.1970   22.0785  -31.0115 H   0  0  0  0  0  0  0  0  0  0  0  0
   -9.1844   23.0730  -32.5073 H   0  0  0  0  0  0  0  0  0  0  0  0
   -8.4333   21.4413  -32.5073 H   0  0  0  0  0  0  0  0  0  0  0  0
   -6.1050   22.4540  -32.0250 C   0  0  0  0  0  0  0  0  0  0  0  0
   -6.1206   21.6020  -32.7207 H   0  0  0  0  0  0  0  0  0  0  0  0
   -4.8870   23.0420  -31.6700 C   0  0  0  0  0  0  0  0  0  0  0  0
   -3.9448   22.6300  -32.0605 H   0  0  0  0  0  0  0  0  0  0  0  0
   -4.8630   24.1550  -30.8180 C   0  0  0  0  0  0  0  0  0  0  0  0
   -3.6150   24.7180  -30.4010 N   0  0  0  0  0  0  0  0  0  0  0  0
   -2.9120   24.4960  -29.3190 C   0  0  0  0  0  0  0  0  0  0  0  0
   -3.1890   23.4610  -28.3690 C   0  0  0  0  0  0  0  0  0  0  0  0
   -4.2300   22.3830  -28.5540 C   0  0  0  0  0  0  0  0  0  0  0  0
   -4.5711   22.0298  -27.5696 H   0  0  0  0  0  0  0  0  0  0  0  0
   -5.0847   22.7908  -29.1136 H   0  0  0  0  0  0  0  0  0  0  0  0
   -3.7926   21.5430  -29.1136 H   0  0  0  0  0  0  0  0  0  0  0  0
   -2.4010   23.3960  -27.2070 C   0  0  0  0  0  0  0  0  0  0  0  0
   -2.6233   22.6382  -26.4412 H   0  0  0  0  0  0  0  0  0  0  0  0
   -1.3440   24.2780  -27.0140 C   0  0  0  0  0  0  0  0  0  0  0  0
   -0.7347   24.2233  -26.0998 H   0  0  0  0  0  0  0  0  0  0  0  0
   -1.0650   25.2290  -27.9870 C   0  0  0  0  0  0  0  0  0  0  0  0
   -0.2168   25.9168  -27.8546 H   0  0  0  0  0  0  0  0  0  0  0  0
   -1.8370   25.3120  -29.1020 N   0  0  0  0  0  0  0  0  0  0  0  0
   -1.6050   26.0540  -29.8020 H   0  0  0  0  0  0  0  0  0  0  0  0
  1  2  1  0
  2  3  2  0
  3  4  1  0
  3  5  1  0
  5  6  1  0
  6  7  1  0
  6  8  1  0
  6  9  1  0
  5 10  2  0
 10 11  1  0
 10 12  1  0
 12 13  1  0
 12 14  2  0
 14 15  1  0
 15 16  2  0
 16 17  1  0
 17 18  1  0
 18 19  1  0
 18 20  1  0
 18 21  1  0
 17 22  2  0
 22 23  1  0
 22 24  1  0
 24 25  1  0
 24 26  2  0
 26 27  1  0
 26 28  1  0
 28 29  1  0
 14  2  1  0
 28 16  1  0
M  END
>  <UniqueID>  (24) 
22

>  <SMILES>  (24) 
Cc1ccc(/N=c2/[nH]cccc2C)cc1

>  <Energy>  (24) 
46.3447685321187

>  <Genealogy>  (24) 
Cc1ccc(/N=c2/[nH]cccc2C)cc1 (cis-trans isomerization)
Cc1ccc(/N=c2/[nH]cccc2C)cc1 (3D coordinates assigned)
Cc1ccc(/N=c2/[nH]cccc2C)cc1 (optimized conformer: 46.3447685321187 kcal/mol)

>  <smiles>  (24) 
Cc1ccc(N=c2[nH]cccc2C)cc1

>  <score_type>  (24) 
oracle

>  <origin>  (24) 
adgpu

>  <m_score__min__energy>  (24) 
-7.2800000000000002

>  <m_primary>  (24) 
energy

$$$$
24:0
     RDKit          3D

 34 36  0  0  0  0  0  0  0  0999 V2000
   -4.4700   16.3390  -34.4990 Br  0  0  0  0  0  0  0  0  0  0  0  0
   -5.3430   17.8550  -33.7330 C   0  0  0  0  0  0  0  0  0  0  0  0
   -4.7570   19.1200  -33.8290 C   0  0  0  0  0  0  0  0  0  0  0  0
   -5.3860   20.2310  -33.2610 C   0  0  0  0  0  0  0  0  0  0  0  0
   -6.6200   20.0870  -32.5960 C   0  0  0  0  0  0  0  0  0  0  0  0
   -7.2100   18.8100  -32.5110 C   0  0  0  0  0  0  0  0  0  0  0  0
   -6.5630   17.6970  -33.0690 C   0  0  0  0  0  0  0  0  0  0  0  0
   -8.4920   18.6420  -31.7330 C   0  0  0  0  0  0  0  0  0  0  0  0
   -9.4880   19.8000  -31.9650 C   0  0  0  0  0  0  0  0  0  0  0  0
   -8.8420   21.1570  -32.3400 C   0  0  0  0  0  0  0  0  0  0  0  0
   -7.3550   21.2450  -31.9500 C   0  0  2  0  0  0  0  0  0  0  0  0
   -6.8100   22.5490  -32.3550 N   0  0  0  0  0  0  0  0  0  0  0  0
   -5.9790   23.3720  -31.5140 C   0  0  0  0  0  0  0  0  0  0  0  0
   -4.6430   22.9950  -31.2920 C   0  0  0  0  0  0  0  0  0  0  0  0
   -3.8130   23.7660  -30.4730 C   0  0  0  0  0  0  0  0  0  0  0  0
   -4.3100   24.9180  -29.8600 C   0  0  0  0  0  0  0  0  0  0  0  0
   -5.6390   25.2980  -30.0610 C   0  0  0  0  0  0  0  0  0  0  0  0
   -6.4730   24.5310  -30.8810 C   0  0  0  0  0  0  0  0  0  0  0  0
   -3.7977   19.2415  -34.3533 H   0  0  0  0  0  0  0  0  0  0  0  0
   -4.9156   21.2227  -33.3333 H   0  0  0  0  0  0  0  0  0  0  0  0
   -7.0165   16.6985  -32.9838 H   0  0  0  0  0  0  0  0  0  0  0  0
   -8.9696   17.7003  -32.0413 H   0  0  0  0  0  0  0  0  0  0  0  0
   -8.2329   18.6366  -30.6640 H   0  0  0  0  0  0  0  0  0  0  0  0
  -10.1658   19.5082  -32.7808 H   0  0  0  0  0  0  0  0  0  0  0  0
  -10.0011   19.9598  -31.0052 H   0  0  0  0  0  0  0  0  0  0  0  0
   -8.9278   21.2971  -33.4277 H   0  0  0  0  0  0  0  0  0  0  0  0
   -9.3751   21.9402  -31.7811 H   0  0  0  0  0  0  0  0  0  0  0  0
   -7.2292   21.1697  -30.8598 H   0  0  0  0  0  0  0  0  0  0  0  0
   -7.0390   22.9030  -33.3130 H   0  0  0  0  0  0  0  0  0  0  0  0
   -4.2472   22.0852  -31.7670 H   0  0  0  0  0  0  0  0  0  0  0  0
   -2.7674   23.4649  -30.3113 H   0  0  0  0  0  0  0  0  0  0  0  0
   -3.6550   25.5262  -29.2189 H   0  0  0  0  0  0  0  0  0  0  0  0
   -6.0307   26.2028  -29.5732 H   0  0  0  0  0  0  0  0  0  0  0  0
   -7.5196   24.8335  -31.0328 H   0  0  0  0  0  0  0  0  0  0  0  0
  1  2  1  0
  2  3  2  0
  3  4  1  0
  4  5  2  0
  5  6  1  0
  6  7  2  0
  6  8  1  0
  8  9  1  0
  9 10  1  0
 10 11  1  0
 11 12  1  0
 12 13  1  0
 13 14  2  0
 14 15  1  0
 15 16  2  0
 16 17  1  0
 17 18  2  0
  7  2  1  0
 18 13  1  0
 11  5  1  0
  3 19  1  0
  4 20  1  0
  7 21  1  0
  8 22  1  0
  8 23  1  0
  9 24  1  0
  9 25  1  0
 10 26  1  0
 10 27  1  0
 11 28  1  1
 12 29  1  0
 14 30  1  0
 15 31  1  0
 16 32  1  0
 17 33  1  0
 18 34  1  0
M  END
>  <UniqueID>  (25) 
23

>  <SMILES>  (25) 
Brc1ccc2c(c1)CCC[C@@H]2Nc1ccccc1

>  <Energy>  (25) 
43.03934742961563

>  <Genealogy>  (25) 
Brc1ccc2c(c1)CCC[C@@H]2Nc1ccccc1 (chirality)
Brc1ccc2c(c1)CCC[C@@H]2Nc1ccccc1 (3D coordinates assigned)
Brc1ccc2c(c1)CCC[C@@H]2Nc1ccccc1 (nonaromatic ring conformer: 43.03934742961563 kcal/mol)

>  <smiles>  (25) 
Brc1ccc2c(c1)CCCC2Nc1ccccc1

>  <score_type>  (25) 
oracle

>  <origin>  (25) 
adgpu

>  <m_score__min__energy>  (25) 
-8.25

>  <m_primary>  (25) 
energy

$$$$
25:0
     RDKit          3D

 42 44  0  0  1  0  0  0  0  0999 V2000
    0.5160   22.7500  -35.7130 C   0  0  0  0  0  0  0  0  0  0  0  0
   -0.0570   21.6320  -34.9740 N   0  0  0  0  0  0  0  0  0  0  0  0
   -0.6150   21.8450  -33.8140 N   0  0  0  0  0  0  0  0  0  0  0  0
   -1.1760   20.8260  -33.0650 C   0  0  0  0  0  0  0  0  0  0  0  0
   -1.7080   21.1820  -31.9070 O   0  0  0  0  0  0  0  0  0  0  0  0
   -2.0470   22.1980  -31.1160 C   0  0  0  0  0  0  0  0  0  0  0  0
   -3.2580   22.7880  -31.3760 N   0  0  0  0  0  0  0  0  0  0  0  0
   -3.6790   23.8000  -30.6470 C   0  0  0  0  0  0  0  0  0  0  0  0
   -4.8050   24.3410  -30.8990 N   0  0  0  0  0  0  0  0  0  0  0  0
   -5.7510   24.0110  -31.9050 C   0  0  0  0  0  0  0  0  0  0  0  0
   -6.9370   23.2090  -31.5030 C   0  0  0  0  0  0  0  0  0  0  0  0
   -7.2790   22.2250  -32.4220 O   0  0  0  0  0  0  0  0  0  0  0  0
   -7.5850   20.9160  -32.3240 C   0  0  0  0  0  0  0  0  0  0  0  0
   -8.7830   20.3490  -31.9800 C   0  0  0  0  0  0  0  0  0  0  0  0
   -8.9900   18.9750  -31.9070 C   0  0  0  0  0  0  0  0  0  0  0  0
   -7.9450   18.1420  -32.1920 C   0  0  0  0  0  0  0  0  0  0  0  0
   -6.7250   18.6500  -32.5410 C   0  0  0  0  0  0  0  0  0  0  0  0
   -6.5460   20.0080  -32.6070 C   0  0  0  0  0  0  0  0  0  0  0  0
   -4.9550   20.5960  -33.0610 Cl  0  0  0  0  0  0  0  0  0  0  0  0
   -2.9460   24.3170  -29.6040 C   0  0  0  0  0  0  0  0  0  0  0  0
   -1.7350   23.7390  -29.3300 C   0  0  0  0  0  0  0  0  0  0  0  0
   -0.7710   24.3570  -28.0200 Cl  0  0  0  0  0  0  0  0  0  0  0  0
   -1.3330   22.7070  -30.0930 N   0  0  0  0  0  0  0  0  0  0  0  0
   -1.0910   19.5870  -33.6500 C   0  0  0  0  0  0  0  0  0  0  0  0
   -0.4990   19.3560  -34.8830 C   0  0  0  0  0  0  0  0  0  0  0  0
    0.0300   20.4250  -35.5510 C   0  0  0  0  0  0  0  0  0  0  0  0
    0.5650   20.2300  -36.6610 O   0  0  0  0  0  0  0  0  0  0  0  0
    0.9000   23.4992  -35.0050 H   0  0  0  0  0  0  0  0  0  0  0  0
    1.3395   22.3876  -36.3459 H   0  0  0  0  0  0  0  0  0  0  0  0
   -0.2591   23.2069  -36.3459 H   0  0  0  0  0  0  0  0  0  0  0  0
   -6.1219   24.9556  -32.3296 H   0  0  0  0  0  0  0  0  0  0  0  0
   -5.2003   23.3623  -32.6020 H   0  0  0  0  0  0  0  0  0  0  0  0
   -6.7194   22.7248  -30.5396 H   0  0  0  0  0  0  0  0  0  0  0  0
   -7.7890   23.9018  -31.4393 H   0  0  0  0  0  0  0  0  0  0  0  0
   -9.6270   21.0155  -31.7490 H   0  0  0  0  0  0  0  0  0  0  0  0
   -9.9728   18.5685  -31.6262 H   0  0  0  0  0  0  0  0  0  0  0  0
   -8.0869   17.0524  -32.1401 H   0  0  0  0  0  0  0  0  0  0  0  0
   -5.8894   17.9717  -32.7682 H   0  0  0  0  0  0  0  0  0  0  0  0
   -3.3194   25.1648  -29.0109 H   0  0  0  0  0  0  0  0  0  0  0  0
   -0.4160   22.3020  -29.8540 H   0  0  0  0  0  0  0  0  0  0  0  0
   -1.5167   18.7283  -33.1101 H   0  0  0  0  0  0  0  0  0  0  0  0
   -0.4565   18.3433  -35.3103 H   0  0  0  0  0  0  0  0  0  0  0  0
  1  2  1  0
  2  3  1  0
  3  4  2  0
  4  5  1  0
  5  6  1  0
  6  7  2  0
  7  8  1  0
  8  9  2  0
  9 10  1  0
 10 11  1  0
 11 12  1  0
 12 13  1  0
 13 14  2  0
 14 15  1  0
 15 16  2  0
 16 17  1  0
 17 18  2  0
 18 19  1  0
  8 20  1  0
 20 21  2  0
 21 22  1  0
 21 23  1  0
  4 24  1  0
 24 25  2  0
 25 26  1  0
 26 27  2  0
 26  2  1  0
 23  6  1  0
 18 13  1  0
  1 28  1  0
  1 29  1  0
  1 30  1  0
 10 31  1  0
 10 32  1  0
 11 33  1  0
 11 34  1  0
 14 35  1  0
 15 36  1  0
 16 37  1  0
 17 38  1  0
 20 39  1  0
 23 40  1  0
 24 41  1  0
 25 42  1  0
M  END
>  <smiles>  (26) 
Cn1nc(Oc2nc(=NCCOc3ccccc3Cl)cc(Cl)[nH]2)ccc1=O

>  <score_type>  (26) 
oracle

>  <origin>  (26) 
adgpu

>  <m_score__min__energy>  (26) 
-8.5700000000000003

>  <m_primary>  (26) 
energy

$$$$
26:0
     RDKit          3D

 35 37  0  0  0  0  0  0  0  0999 V2000
   -2.8830   24.5430  -29.1140 Cl  0  0  0  0  0  0  0  0  0  0  0  0
   -4.1050   24.0550  -30.2750 C   0  0  0  0  0  0  0  0  0  0  0  0
   -5.3490   24.6910  -30.2880 C   0  0  0  0  0  0  0  0  0  0  0  0
   -6.3210   24.3040  -31.2120 C   0  0  0  0  0  0  0  0  0  0  0  0
   -6.0540   23.2810  -32.1260 C   0  0  0  0  0  0  0  0  0  0  0  0
   -4.8030   22.6320  -32.1230 C   0  0  0  0  0  0  0  0  0  0  0  0
   -4.4890   21.5770  -33.0530 N   0  0  0  0  0  0  0  0  0  0  0  0
   -3.9470   20.2710  -32.6710 C   0  0  0  0  0  0  0  0  0  0  0  0
   -4.3780   19.1920  -33.6340 C   0  0  0  0  0  0  0  0  0  0  0  0
   -3.5180   18.4430  -34.4210 C   0  0  0  0  0  0  0  0  0  0  0  0
   -4.2800   17.4510  -35.0040 C   0  0  0  0  0  0  0  0  0  0  0  0
   -5.5680   17.6130  -34.5370 C   0  0  0  0  0  0  0  0  0  0  0  0
   -5.6250   18.6720  -33.7050 N   0  0  0  0  0  0  0  0  0  0  0  0
   -6.7950   19.0900  -32.9860 C   0  0  0  0  0  0  0  0  0  0  0  0
   -7.2540   20.4140  -33.0770 C   0  0  0  0  0  0  0  0  0  0  0  0
   -8.4050   20.8090  -32.3880 C   0  0  0  0  0  0  0  0  0  0  0  0
   -9.1100   19.8830  -31.6140 C   0  0  0  0  0  0  0  0  0  0  0  0
   -8.6700   18.5590  -31.5330 C   0  0  0  0  0  0  0  0  0  0  0  0
   -7.5190   18.1610  -32.2210 C   0  0  0  0  0  0  0  0  0  0  0  0
   -3.8330   23.0310  -31.1880 C   0  0  0  0  0  0  0  0  0  0  0  0
   -5.5624   25.4967  -29.5701 H   0  0  0  0  0  0  0  0  0  0  0  0
   -7.2999   24.8056  -31.2208 H   0  0  0  0  0  0  0  0  0  0  0  0
   -6.8243   22.9808  -32.8516 H   0  0  0  0  0  0  0  0  0  0  0  0
   -4.6480   21.7460  -34.0730 H   0  0  0  0  0  0  0  0  0  0  0  0
   -2.8485   20.3274  -32.6652 H   0  0  0  0  0  0  0  0  0  0  0  0
   -4.3305   20.0162  -31.6720 H   0  0  0  0  0  0  0  0  0  0  0  0
   -2.4386   18.6071  -34.5549 H   0  0  0  0  0  0  0  0  0  0  0  0
   -3.9283   16.6801  -35.7055 H   0  0  0  0  0  0  0  0  0  0  0  0
   -6.4218   16.9729  -34.8040 H   0  0  0  0  0  0  0  0  0  0  0  0
   -6.7063   21.1429  -33.6924 H   0  0  0  0  0  0  0  0  0  0  0  0
   -8.7559   21.8494  -32.4552 H   0  0  0  0  0  0  0  0  0  0  0  0
  -10.0120   20.1966  -31.0681 H   0  0  0  0  0  0  0  0  0  0  0  0
   -9.2289   17.8298  -30.9281 H   0  0  0  0  0  0  0  0  0  0  0  0
   -7.1796   17.1163  -32.1626 H   0  0  0  0  0  0  0  0  0  0  0  0
   -2.8518   22.5340  -31.1740 H   0  0  0  0  0  0  0  0  0  0  0  0
  1  2  1  0
  2  3  2  0
  3  4  1  0
  4  5  2  0
  5  6  1  0
  6  7  1  0
  7  8  1  0
  8  9  1  0
  9 10  2  0
 10 11  1  0
 11 12  2  0
 12 13  1  0
 13 14  1  0
 14 15  2  0
 15 16  1  0
 16 17  2  0
 17 18  1  0
 18 19  2  0
  6 20  2  0
 20  2  1  0
 13  9  1  0
 19 14  1  0
  3 21  1  0
  4 22  1  0
  5 23  1  0
  7 24  1  0
  8 25  1  0
  8 26  1  0
 10 27  1  0
 11 28  1  0
 12 29  1  0
 15 30  1  0
 16 31  1  0
 17 32  1  0
 18 33  1  0
 19 34  1  0
 20 35  1  0
M  END
>  <UniqueID>  (27) 
24

>  <SMILES>  (27) 
Clc1cccc(NCc2cccn2-c2ccccc2)c1

>  <Energy>  (27) 
68.65726728624388

>  <Genealogy>  (27) 
Clc1cccc(NCc2cccn2-c2ccccc2)c1 (3D coordinates assigned)
Clc1cccc(NCc2cccn2-c2ccccc2)c1 (optimized conformer: 68.65726728624388 kcal/mol)

>  <smiles>  (27) 
Clc1cccc(NCc2cccn2-c2ccccc2)c1

>  <score_type>  (27) 
oracle

>  <origin>  (27) 
adgpu

>  <m_score__min__energy>  (27) 
-7.9299999999999997

>  <m_primary>  (27) 
energy

$$$$
27:0
     RDKit          3D

 29 30  0  0  0  0  0  0  0  0999 V2000
   -2.2630   23.4260  -30.0640 C   0  0  0  0  0  0  0  0  0  0  0  0
   -3.5650   24.0400  -30.4630 C   0  0  0  0  0  0  0  0  0  0  0  0
   -3.8610   25.3020  -30.2460 O   0  0  0  0  0  0  0  0  0  0  0  0
   -5.0680   25.5390  -30.7030 C   0  0  0  0  0  0  0  0  0  0  0  0
   -5.5980   24.3870  -31.2470 C   0  0  0  0  0  0  0  0  0  0  0  0
   -4.6300   23.4110  -31.0950 C   0  0  0  0  0  0  0  0  0  0  0  0
   -4.7260   21.9930  -31.5110 C   0  0  0  0  0  0  0  0  0  0  0  0
   -4.5910   21.0820  -30.6500 O   0  0  0  0  0  0  0  0  0  0  0  0
   -4.9730   21.6420  -32.8820 N   0  0  0  0  0  0  0  0  0  0  0  0
   -5.1880   20.2610  -33.3070 C   0  0  0  0  0  0  0  0  0  0  0  0
   -6.5360   19.7790  -32.8440 C   0  0  0  0  0  0  0  0  0  0  0  0
   -6.7380   18.4290  -32.5090 C   0  0  0  0  0  0  0  0  0  0  0  0
   -7.9880   17.9940  -32.0580 C   0  0  0  0  0  0  0  0  0  0  0  0
   -9.0420   18.9040  -31.9340 C   0  0  0  0  0  0  0  0  0  0  0  0
   -8.8490   20.2490  -32.2600 C   0  0  0  0  0  0  0  0  0  0  0  0
   -7.5990   20.6870  -32.7120 C   0  0  0  0  0  0  0  0  0  0  0  0
   -2.1940   23.3934  -28.9667 H   0  0  0  0  0  0  0  0  0  0  0  0
   -2.2012   22.4039  -30.4658 H   0  0  0  0  0  0  0  0  0  0  0  0
   -1.4350   24.0286  -30.4658 H   0  0  0  0  0  0  0  0  0  0  0  0
   -5.5809   26.5111  -30.6590 H   0  0  0  0  0  0  0  0  0  0  0  0
   -6.5896   24.2688  -31.7082 H   0  0  0  0  0  0  0  0  0  0  0  0
   -4.9850   22.3830  -33.6180 H   0  0  0  0  0  0  0  0  0  0  0  0
   -5.1401   20.2069  -34.4046 H   0  0  0  0  0  0  0  0  0  0  0  0
   -4.4077   19.6238  -32.8653 H   0  0  0  0  0  0  0  0  0  0  0  0
   -5.9093   17.7117  -32.6020 H   0  0  0  0  0  0  0  0  0  0  0  0
   -8.1421   16.9357  -31.8007 H   0  0  0  0  0  0  0  0  0  0  0  0
  -10.0250   18.5606  -31.5792 H   0  0  0  0  0  0  0  0  0  0  0  0
   -9.6795   20.9635  -32.1614 H   0  0  0  0  0  0  0  0  0  0  0  0
   -7.4486   21.7469  -32.9649 H   0  0  0  0  0  0  0  0  0  0  0  0
  1  2  1  0
  2  3  1  0
  3  4  1  0
  4  5  2  0
  5  6  1  0
  6  7  1  0
  7  8  2  0
  7  9  1  0
  9 10  1  0
 10 11  1  0
 11 12  2  0
 12 13  1  0
 13 14  2  0
 14 15  1  0
 15 16  2  0
  6  2  2  0
 16 11  1  0
  1 17  1  0
  1 18  1  0
  1 19  1  0
  4 20  1  0
  5 21  1  0
  9 22  1  0
 10 23  1  0
 10 24  1  0
 12 25  1  0
 13 26  1  0
 14 27  1  0
 15 28  1  0
 16 29  1  0
M  END
>  <UniqueID>  (28) 
25

>  <SMILES>  (28) 
Cc1occc1C(=O)NCc1ccccc1

>  <Energy>  (28) 
52.542520802908285

>  <Genealogy>  (28) 
Cc1occc1C(=O)NCc1ccccc1 (3D coordinates assigned)
Cc1occc1C(=O)NCc1ccccc1 (optimized conformer: 52.542520802908285 kcal/mol)

>  <smiles>  (28) 
Cc1occc1C(=O)NCc1ccccc1

>  <score_type>  (28) 
oracle

>  <origin>  (28) 
adgpu

>  <m_score__min__energy>  (28) 
-7

>  <m_primary>  (28) 
energy

$$$$
28:0
     RDKit          3D

 28 30  0  0  0  0  0  0  0  0999 V2000
   -7.2823   21.8332  -32.4921 H   0  0  0  0  0  0  0  0  0  0  0  0
   -6.5270   22.4750  -32.0150 C   0  0  0  0  0  0  0  0  0  0  0  0
   -6.9090   23.6790  -31.4190 C   0  0  0  0  0  0  0  0  0  0  0  0
   -7.9671   23.9795  -31.4186 H   0  0  0  0  0  0  0  0  0  0  0  0
   -5.9500   24.5030  -30.8230 C   0  0  0  0  0  0  0  0  0  0  0  0
   -6.2574   25.4436  -30.3425 H   0  0  0  0  0  0  0  0  0  0  0  0
   -4.5900   24.1320  -30.8360 C   0  0  0  0  0  0  0  0  0  0  0  0
   -3.5730   24.9300  -30.2070 N   0  0  0  0  0  0  0  0  0  0  0  0
   -2.7980   24.5670  -29.2290 C   0  0  0  0  0  0  0  0  0  0  0  0
   -2.8980   23.3800  -28.5770 N   0  0  0  0  0  0  0  0  0  0  0  0
   -1.9840   23.3060  -27.5780 C   0  0  0  0  0  0  0  0  0  0  0  0
   -1.8270   22.2060  -26.7340 C   0  0  0  0  0  0  0  0  0  0  0  0
   -2.4652   21.3173  -26.8479 H   0  0  0  0  0  0  0  0  0  0  0  0
   -0.8390   22.2540  -25.7360 C   0  0  0  0  0  0  0  0  0  0  0  0
   -0.6941   21.3901  -25.0707 H   0  0  0  0  0  0  0  0  0  0  0  0
   -0.0290   23.4030  -25.5790 C   0  0  0  0  0  0  0  0  0  0  0  0
    1.0470   23.4270  -24.5340 C   0  0  0  0  0  0  0  0  0  0  0  0
    0.5877   23.4168  -23.5345 H   0  0  0  0  0  0  0  0  0  0  0  0
    1.6912   22.5430  -24.6506 H   0  0  0  0  0  0  0  0  0  0  0  0
    1.6511   24.3388  -24.6506 H   0  0  0  0  0  0  0  0  0  0  0  0
   -0.1910   24.4990  -26.4490 C   0  0  0  0  0  0  0  0  0  0  0  0
    0.4444   25.3921  -26.3562 H   0  0  0  0  0  0  0  0  0  0  0  0
   -1.1770   24.4220  -27.4300 C   0  0  0  0  0  0  0  0  0  0  0  0
   -1.5980   25.5680  -28.5830 S   0  0  0  0  0  0  0  0  0  0  0  0
   -4.2230   22.9070  -31.4100 C   0  0  0  0  0  0  0  0  0  0  0  0
   -3.1700   22.5894  -31.3920 H   0  0  0  0  0  0  0  0  0  0  0  0
   -5.1850   22.0860  -32.0050 C   0  0  0  0  0  0  0  0  0  0  0  0
   -4.8855   21.1331  -32.4657 H   0  0  0  0  0  0  0  0  0  0  0  0
  1  2  1  0
  2  3  2  0
  3  4  1  0
  3  5  1  0
  5  6  1  0
  5  7  2  0
  7  8  1  0
  8  9  2  0
  9 10  1  0
 10 11  1  0
 11 12  2  0
 12 13  1  0
 12 14  1  0
 14 15  1  0
 14 16  2  0
 16 17  1  0
 17 18  1  0
 17 19  1  0
 17 20  1  0
 16 21  1  0
 21 22  1  0
 21 23  2  0
 23 24  1  0
  7 25  1  0
 25 26  1  0
 25 27  2  0
 27 28  1  0
 27  2  1  0
 24  9  1  0
 23 11  1  0
M  CHG  1  10  -1
M  END
>  <UniqueID>  (29) 
26

>  <SMILES>  (29) 
Cc1ccc2[n-]/c(=N\c3ccccc3)sc2c1

>  <Energy>  (29) 
70.17382101727372

>  <Genealogy>  (29) 
Cc1ccc2[n-]c(=Nc3ccccc3)sc2c1 (protonated)
Cc1ccc2[n-]/c(=N\c3ccccc3)sc2c1 (cis-trans isomerization)
Cc1ccc2[n-]/c(=N\c3ccccc3)sc2c1 (3D coordinates assigned)
Cc1ccc2[n-]/c(=N\c3ccccc3)sc2c1 (optimized conformer: 70.17382101727372 kcal/mol)

>  <smiles>  (29) 
Cc1ccc2[nH]c(=Nc3ccccc3)sc2c1

>  <score_type>  (29) 
oracle

>  <origin>  (29) 
adgpu

>  <m_score__min__energy>  (29) 
-7.46

>  <m_primary>  (29) 
energy

$$$$
29:0
     RDKit          3D

 22 23  0  0  0  0  0  0  0  0999 V2000
   -2.5197   22.3065  -30.6560 H   0  0  0  0  0  0  0  0  0  0  0  0
   -2.5720   23.2150  -30.0380 C   0  0  0  0  0  0  0  0  0  0  0  0
   -1.5110   23.5020  -29.2700 C   0  0  0  0  0  0  0  0  0  0  0  0
   -0.6050   22.8953  -29.4151 H   0  0  0  0  0  0  0  0  0  0  0  0
   -1.4570   24.5620  -28.2480 C   0  0  0  0  0  0  0  0  0  0  0  0
   -0.4870   25.4710  -28.3180 O   0  0  0  0  0  0  0  0  0  0  0  0
   -0.3510   26.4490  -27.4260 C   0  0  0  0  0  0  0  0  0  0  0  0
    0.4637   27.1798  -27.5365 H   0  0  0  0  0  0  0  0  0  0  0  0
   -1.2360   26.5540  -26.3500 C   0  0  0  0  0  0  0  0  0  0  0  0
   -1.1319   27.3656  -25.6148 H   0  0  0  0  0  0  0  0  0  0  0  0
   -2.2540   25.6090  -26.2270 C   0  0  0  0  0  0  0  0  0  0  0  0
   -3.0630   25.6690  -25.2630 O   0  0  0  0  0  0  0  0  0  0  0  0
   -2.3690   24.5940  -27.1780 C   0  0  0  0  0  0  0  0  0  0  0  0
   -3.1586   23.8329  -27.0922 H   0  0  0  0  0  0  0  0  0  0  0  0
   -3.8050   24.0230  -30.1190 C   0  0  0  0  0  0  0  0  0  0  0  0
   -3.8640   25.2840  -30.4860 O   0  0  0  0  0  0  0  0  0  0  0  0
   -5.1190   25.6680  -30.4680 C   0  0  0  0  0  0  0  0  0  0  0  0
   -5.4769   26.6761  -30.7241 H   0  0  0  0  0  0  0  0  0  0  0  0
   -5.9210   24.6150  -30.0790 C   0  0  0  0  0  0  0  0  0  0  0  0
   -7.0153   24.6236  -29.9670 H   0  0  0  0  0  0  0  0  0  0  0  0
   -5.0740   23.5500  -29.8590 C   0  0  0  0  0  0  0  0  0  0  0  0
   -5.3524   22.5341  -29.5420 H   0  0  0  0  0  0  0  0  0  0  0  0
  1  2  1  0
  2  3  2  0
  3  4  1  0
  3  5  1  0
  5  6  1  0
  6  7  1  0
  7  8  1  0
  7  9  2  0
  9 10  1  0
  9 11  1  0
 11 12  2  0
 11 13  1  0
 13 14  1  0
  2 15  1  0
 15 16  1  0
 16 17  1  0
 17 18  1  0
 17 19  2  0
 19 20  1  0
 19 21  1  0
 21 22  1  0
 13  5  2  0
 21 15  2  0
M  END
>  <UniqueID>  (30) 
27

>  <SMILES>  (30) 
O=c1ccoc(/C=C\c2ccco2)c1

>  <Energy>  (30) 
56.58943948471218

>  <Genealogy>  (30) 
O=c1ccoc(/C=C\c2ccco2)c1 (cis-trans isomerization)
O=c1ccoc(/C=C\c2ccco2)c1 (3D coordinates assigned)
O=c1ccoc(/C=C\c2ccco2)c1 (optimized conformer: 56.58943948471218 kcal/mol)

>  <smiles>  (30) 
O=c1ccoc(C=Cc2ccco2)c1

>  <score_type>  (30) 
oracle

>  <origin>  (30) 
adgpu

>  <m_score__min__energy>  (30) 
-5.9800000000000004

>  <m_primary>  (30) 
energy

$$$$
30:0
     RDKit          3D

 52 52  0  0  0  0  0  0  0  0999 V2000
   -6.4760   24.4030  -30.7580 C   0  0  0  0  0  0  0  0  0  0  0  0
   -6.0100   23.8070  -32.0790 C   0  0  0  0  0  0  0  0  0  0  0  0
   -6.7300   22.5550  -32.3470 N   0  0  0  0  0  0  0  0  0  0  0  0
   -7.5510   22.1500  -31.1950 C   0  0  0  0  0  0  0  0  0  0  0  0
   -9.0080   21.9310  -31.6280 C   0  0  0  0  0  0  0  0  0  0  0  0
   -9.2800   20.4930  -32.1030 C   0  0  0  0  0  0  0  0  0  0  0  0
   -8.2090   19.9930  -32.9850 N   0  0  0  0  0  0  0  0  0  0  0  0
   -7.5030   18.8370  -32.4010 C   0  0  0  0  0  0  0  0  0  0  0  0
   -6.4950   18.2100  -33.3830 C   0  0  0  0  0  0  0  0  0  0  0  0
   -5.7680   19.2680  -34.2180 C   0  0  0  0  0  0  0  0  0  0  0  0
   -5.3790   20.4090  -33.3710 N   0  0  0  0  0  0  0  0  0  0  0  0
   -3.9190   20.5140  -33.2330 C   0  0  0  0  0  0  0  0  0  0  0  0
   -3.5460   21.6190  -32.2360 C   0  0  0  0  0  0  0  0  0  0  0  0
   -3.8530   21.2290  -30.7840 C   0  0  0  0  0  0  0  0  0  0  0  0
   -3.4850   22.3510  -29.8500 C   0  0  0  0  0  0  0  0  0  0  0  0
   -4.3670   22.7420  -28.8290 C   0  0  0  0  0  0  0  0  0  0  0  0
   -4.0390   23.8070  -27.9830 C   0  0  0  0  0  0  0  0  0  0  0  0
   -2.8340   24.4940  -28.1590 C   0  0  0  0  0  0  0  0  0  0  0  0
   -1.9580   24.1210  -29.1820 C   0  0  0  0  0  0  0  0  0  0  0  0
   -2.2830   23.0560  -30.0290 C   0  0  0  0  0  0  0  0  0  0  0  0
   -6.0339   23.8376  -29.9244 H   0  0  0  0  0  0  0  0  0  0  0  0
   -6.1579   25.4543  -30.6975 H   0  0  0  0  0  0  0  0  0  0  0  0
   -7.5729   24.3478  -30.6975 H   0  0  0  0  0  0  0  0  0  0  0  0
   -6.2078   24.5220  -32.8912 H   0  0  0  0  0  0  0  0  0  0  0  0
   -4.9316   23.5980  -32.0204 H   0  0  0  0  0  0  0  0  0  0  0  0
   -6.0130   21.8080  -32.5050 H   0  0  0  0  0  0  0  0  0  0  0  0
   -7.1524   21.2140  -30.7768 H   0  0  0  0  0  0  0  0  0  0  0  0
   -7.5195   22.9459  -30.4364 H   0  0  0  0  0  0  0  0  0  0  0  0
   -9.6651   22.1488  -30.7731 H   0  0  0  0  0  0  0  0  0  0  0  0
   -9.2055   22.6026  -32.4765 H   0  0  0  0  0  0  0  0  0  0  0  0
   -9.3524   19.8358  -31.2239 H   0  0  0  0  0  0  0  0  0  0  0  0
  -10.2195   20.4951  -32.6752 H   0  0  0  0  0  0  0  0  0  0  0  0
   -8.6360   19.6770  -33.8860 H   0  0  0  0  0  0  0  0  0  0  0  0
   -7.5280   20.7600  -33.1990 H   0  0  0  0  0  0  0  0  0  0  0  0
   -6.9617   19.1699  -31.5031 H   0  0  0  0  0  0  0  0  0  0  0  0
   -8.2548   18.0721  -32.1566 H   0  0  0  0  0  0  0  0  0  0  0  0
   -5.7506   17.6379  -32.8097 H   0  0  0  0  0  0  0  0  0  0  0  0
   -7.0540   17.5604  -34.0726 H   0  0  0  0  0  0  0  0  0  0  0  0
   -4.8662   18.8223  -34.6631 H   0  0  0  0  0  0  0  0  0  0  0  0
   -6.4426   19.6242  -35.0105 H   0  0  0  0  0  0  0  0  0  0  0  0
   -5.7230   21.2850  -33.8290 H   0  0  0  0  0  0  0  0  0  0  0  0
   -3.5204   19.5539  -32.8735 H   0  0  0  0  0  0  0  0  0  0  0  0
   -3.4883   20.7630  -34.2141 H   0  0  0  0  0  0  0  0  0  0  0  0
   -2.4694   21.8260  -32.3255 H   0  0  0  0  0  0  0  0  0  0  0  0
   -4.1501   22.5057  -32.4786 H   0  0  0  0  0  0  0  0  0  0  0  0
   -4.9272   21.0135  -30.6860 H   0  0  0  0  0  0  0  0  0  0  0  0
   -3.2632   20.3384  -30.5215 H   0  0  0  0  0  0  0  0  0  0  0  0
   -5.3195   22.2086  -28.6941 H   0  0  0  0  0  0  0  0  0  0  0  0
   -4.7291   24.1038  -27.1795 H   0  0  0  0  0  0  0  0  0  0  0  0
   -2.5752   25.3291  -27.4914 H   0  0  0  0  0  0  0  0  0  0  0  0
   -1.0122   24.6652  -29.3214 H   0  0  0  0  0  0  0  0  0  0  0  0
   -1.5949   22.7696  -30.8380 H   0  0  0  0  0  0  0  0  0  0  0  0
  1  2  1  0
  2  3  1  0
  3  4  1  0
  4  5  1  0
  5  6  1  0
  6  7  1  0
  7  8  1  0
  8  9  1  0
  9 10  1  0
 10 11  1  0
 11 12  1  0
 12 13  1  0
 13 14  1  0
 14 15  1  0
 15 16  2  0
 16 17  1  0
 17 18  2  0
 18 19  1  0
 19 20  2  0
 20 15  1  0
  1 21  1  0
  1 22  1  0
  1 23  1  0
  2 24  1  0
  2 25  1  0
  3 26  1  0
  4 27  1  0
  4 28  1  0
  5 29  1  0
  5 30  1  0
  6 31  1  0
  6 32  1  0
  7 33  1  0
  7 34  1  0
  8 35  1  0
  8 36  1  0
  9 37  1  0
  9 38  1  0
 10 39  1  0
 10 40  1  0
 11 41  1  0
 12 42  1  0
 12 43  1  0
 13 44  1  0
 13 45  1  0
 14 46  1  0
 14 47  1  0
 16 48  1  0
 17 49  1  0
 18 50  1  0
 19 51  1  0
 20 52  1  0
M  CHG  1   7   1
M  END
>  <UniqueID>  (31) 
28

>  <SMILES>  (31) 
CCNCCC[NH2+]CCCNCCCc1ccccc1

>  <Energy>  (31) 
36.00041963357814

>  <Genealogy>  (31) 
CCNCCC[NH2+]CCCNCCCc1ccccc1 (protonated)
CCNCCC[NH2+]CCCNCCCc1ccccc1 (3D coordinates assigned)
CCNCCC[NH2+]CCCNCCCc1ccccc1 (optimized conformer: 36.00041963357814 kcal/mol)

>  <smiles>  (31) 
CCNCCCNCCCNCCCc1ccccc1

>  <score_type>  (31) 
oracle

>  <origin>  (31) 
adgpu

>  <m_score__min__energy>  (31) 
-6.46

>  <m_primary>  (31) 
energy

$$$$
31:0
     RDKit          3D

 50 53  0  0  0  0  0  0  0  0999 V2000
   -4.0550   16.7390  -34.7910 C   0  0  0  0  0  0  0  0  0  0  0  0
   -4.9100   17.7850  -35.1530 C   0  0  0  0  0  0  0  0  0  0  0  0
   -6.0670   18.0350  -34.4090 C   0  0  0  0  0  0  0  0  0  0  0  0
   -6.3770   17.2370  -33.2960 C   0  0  0  0  0  0  0  0  0  0  0  0
   -7.6310   17.5060  -32.5040 C   0  0  0  0  0  0  0  0  0  0  0  0
   -7.4200   18.6330  -31.5710 N   0  0  0  0  0  0  0  0  0  0  0  0
   -5.9770   18.8910  -31.3210 C   0  0  0  0  0  0  0  0  0  0  0  0
   -5.4730   20.1560  -32.0280 C   0  0  0  0  0  0  0  0  0  0  0  0
   -6.2260   21.3420  -31.5670 N   0  0  0  0  0  0  0  0  0  0  0  0
   -5.9420   22.5510  -32.3710 C   0  0  0  0  0  0  0  0  0  0  0  0
   -5.2960   23.6570  -31.5740 C   0  0  0  0  0  0  0  0  0  0  0  0
   -5.9290   24.7880  -31.2040 N   0  0  0  0  0  0  0  0  0  0  0  0
   -5.0250   25.4890  -30.5350 N   0  0  0  0  0  0  0  0  0  0  0  0
   -3.8790   24.8260  -30.4860 N   0  0  0  0  0  0  0  0  0  0  0  0
   -4.0210   23.6840  -31.1350 N   0  0  0  0  0  0  0  0  0  0  0  0
   -2.9890   22.6520  -31.2210 C   0  0  0  0  0  0  0  0  0  0  0  0
   -2.8750   21.9170  -29.9120 C   0  0  0  0  0  0  0  0  0  0  0  0
   -2.0250   20.8040  -29.8010 C   0  0  0  0  0  0  0  0  0  0  0  0
   -1.9060   20.1250  -28.5850 C   0  0  0  0  0  0  0  0  0  0  0  0
   -2.6360   20.5500  -27.4720 C   0  0  0  0  0  0  0  0  0  0  0  0
   -3.4870   21.6540  -27.5740 C   0  0  0  0  0  0  0  0  0  0  0  0
   -3.6090   22.3360  -28.7890 C   0  0  0  0  0  0  0  0  0  0  0  0
   -7.6700   21.1000  -31.3310 C   0  0  0  0  0  0  0  0  0  0  0  0
   -8.1670   19.8270  -32.0290 C   0  0  0  0  0  0  0  0  0  0  0  0
   -5.5150   16.1870  -32.9380 C   0  0  0  0  0  0  0  0  0  0  0  0
   -4.3580   15.9410  -33.6840 C   0  0  0  0  0  0  0  0  0  0  0  0
   -3.1447   16.5444  -35.3770 H   0  0  0  0  0  0  0  0  0  0  0  0
   -4.6717   18.4121  -36.0247 H   0  0  0  0  0  0  0  0  0  0  0  0
   -6.7364   18.8592  -34.6964 H   0  0  0  0  0  0  0  0  0  0  0  0
   -8.4494   17.7561  -33.1951 H   0  0  0  0  0  0  0  0  0  0  0  0
   -7.8867   16.6066  -31.9247 H   0  0  0  0  0  0  0  0  0  0  0  0
   -5.8223   19.0072  -30.2382 H   0  0  0  0  0  0  0  0  0  0  0  0
   -5.4113   18.0371  -31.7222 H   0  0  0  0  0  0  0  0  0  0  0  0
   -4.4053   20.2953  -31.8031 H   0  0  0  0  0  0  0  0  0  0  0  0
   -5.6204   20.0403  -33.1119 H   0  0  0  0  0  0  0  0  0  0  0  0
   -5.2670   22.2730  -33.1938 H   0  0  0  0  0  0  0  0  0  0  0  0
   -6.9060   22.9330  -32.7382 H   0  0  0  0  0  0  0  0  0  0  0  0
   -3.2540   21.9391  -32.0156 H   0  0  0  0  0  0  0  0  0  0  0  0
   -2.0242   23.1287  -31.4490 H   0  0  0  0  0  0  0  0  0  0  0  0
   -1.4502   20.4651  -30.6755 H   0  0  0  0  0  0  0  0  0  0  0  0
   -1.2372   19.2554  -28.5042 H   0  0  0  0  0  0  0  0  0  0  0  0
   -2.5409   20.0156  -26.5153 H   0  0  0  0  0  0  0  0  0  0  0  0
   -4.0618   21.9871  -26.6972 H   0  0  0  0  0  0  0  0  0  0  0  0
   -4.2815   23.2031  -28.8659 H   0  0  0  0  0  0  0  0  0  0  0  0
   -7.8400   20.9998  -30.2488 H   0  0  0  0  0  0  0  0  0  0  0  0
   -8.2272   21.9523  -31.7471 H   0  0  0  0  0  0  0  0  0  0  0  0
   -9.2349   19.6891  -31.8040 H   0  0  0  0  0  0  0  0  0  0  0  0
   -8.0077   19.9409  -33.1114 H   0  0  0  0  0  0  0  0  0  0  0  0
   -5.7509   15.5564  -32.0681 H   0  0  0  0  0  0  0  0  0  0  0  0
   -3.6854   15.1184  -33.3993 H   0  0  0  0  0  0  0  0  0  0  0  0
  1  2  2  0
  2  3  1  0
  3  4  2  0
  4  5  1  0
  5  6  1  0
  6  7  1  0
  7  8  1  0
  8  9  1  0
  9 10  1  0
 10 11  1  0
 11 12  2  0
 12 13  1  0
 13 14  2  0
 14 15  1  0
 15 16  1  0
 16 17  1  0
 17 18  2  0
 18 19  1  0
 19 20  2  0
 20 21  1  0
 21 22  2  0
  9 23  1  0
 23 24  1  0
  4 25  1  0
 25 26  2  0
 26  1  1  0
 24  6  1  0
 15 11  1  0
 22 17  1  0
  1 27  1  0
  2 28  1  0
  3 29  1  0
  5 30  1  0
  5 31  1  0
  7 32  1  0
  7 33  1  0
  8 34  1  0
  8 35  1  0
 10 36  1  0
 10 37  1  0
 16 38  1  0
 16 39  1  0
 18 40  1  0
 19 41  1  0
 20 42  1  0
 21 43  1  0
 22 44  1  0
 23 45  1  0
 23 46  1  0
 24 47  1  0
 24 48  1  0
 25 49  1  0
 26 50  1  0
M  END
>  <UniqueID>  (32) 
29

>  <SMILES>  (32) 
c1ccc(CN2CCN(Cc3nnnn3Cc3ccccc3)CC2)cc1

>  <Energy>  (32) 
105.58338508148171

>  <Genealogy>  (32) 
c1ccc(CN2CCN(Cc3nnnn3Cc3ccccc3)CC2)cc1 (3D coordinates assigned)
c1ccc(CN2CCN(Cc3nnnn3Cc3ccccc3)CC2)cc1 (nonaromatic ring conformer: 105.58338508148171 kcal/mol)

>  <smiles>  (32) 
c1ccc(CN2CCN(Cc3nnnn3Cc3ccccc3)CC2)cc1

>  <score_type>  (32) 
oracle

>  <origin>  (32) 
adgpu

>  <m_score__min__energy>  (32) 
-9.8399999999999999

>  <m_primary>  (32) 
energy

$$$$
32:0
     RDKit          3D

 22 23  0  0  0  0  0  0  0  0999 V2000
   -9.4960   19.2620  -32.4650 O   0  0  0  0  0  0  0  0  0  0  0  0
   -8.8200   20.3190  -32.3290 C   0  0  0  0  0  0  0  0  0  0  0  0
   -9.4750   21.5010  -31.9670 C   0  0  0  0  0  0  0  0  0  0  0  0
   -8.7370   22.6700  -31.7870 C   0  0  0  0  0  0  0  0  0  0  0  0
   -7.3560   22.6490  -31.9690 C   0  0  0  0  0  0  0  0  0  0  0  0
   -6.7290   21.4560  -32.3330 C   0  0  0  0  0  0  0  0  0  0  0  0
   -7.4590   20.3110  -32.5150 N   0  0  0  0  0  0  0  0  0  0  0  0
   -6.7720   19.1040  -32.9010 C   0  0  0  0  0  0  0  0  0  0  0  0
   -6.7590   17.9860  -32.0470 C   0  0  0  0  0  0  0  0  0  0  0  0
   -6.0970   16.8140  -32.4290 C   0  0  0  0  0  0  0  0  0  0  0  0
   -5.4480   16.7470  -33.6650 C   0  0  0  0  0  0  0  0  0  0  0  0
   -5.4610   17.8500  -34.5230 C   0  0  0  0  0  0  0  0  0  0  0  0
   -4.8310   17.7830  -35.7220 F   0  0  0  0  0  0  0  0  0  0  0  0
   -6.1210   19.0240  -34.1450 C   0  0  0  0  0  0  0  0  0  0  0  0
  -10.5658   21.5080  -31.8252 H   0  0  0  0  0  0  0  0  0  0  0  0
   -9.2428   23.6045  -31.5026 H   0  0  0  0  0  0  0  0  0  0  0  0
   -6.7642   23.5653  -31.8270 H   0  0  0  0  0  0  0  0  0  0  0  0
   -5.6384   21.4351  -32.4750 H   0  0  0  0  0  0  0  0  0  0  0  0
   -7.2715   18.0335  -31.0748 H   0  0  0  0  0  0  0  0  0  0  0  0
   -6.0873   15.9442  -31.7557 H   0  0  0  0  0  0  0  0  0  0  0  0
   -4.9266   15.8253  -33.9627 H   0  0  0  0  0  0  0  0  0  0  0  0
   -6.1309   19.8891  -34.8243 H   0  0  0  0  0  0  0  0  0  0  0  0
  1  2  2  0
  2  3  1  0
  3  4  2  0
  4  5  1  0
  5  6  2  0
  6  7  1  0
  7  8  1  0
  8  9  2  0
  9 10  1  0
 10 11  2  0
 11 12  1  0
 12 13  1  0
 12 14  2  0
  7  2  1  0
 14  8  1  0
  3 15  1  0
  4 16  1  0
  5 17  1  0
  6 18  1  0
  9 19  1  0
 10 20  1  0
 11 21  1  0
 14 22  1  0
M  END
>  <UniqueID>  (33) 
30

>  <SMILES>  (33) 
O=c1ccccn1-c1cccc(F)c1

>  <Energy>  (33) 
31.771548905193878

>  <Genealogy>  (33) 
O=c1ccccn1-c1cccc(F)c1 (3D coordinates assigned)
O=c1ccccn1-c1cccc(F)c1 (optimized conformer: 31.771548905193878 kcal/mol)

>  <smiles>  (33) 
O=c1ccccn1-c1cccc(F)c1

>  <score_type>  (33) 
oracle

>  <origin>  (33) 
adgpu

>  <m_score__min__energy>  (33) 
-5.7800000000000002

>  <m_primary>  (33) 
energy

$$$$
33:0
     RDKit          3D

 25 26  0  0  0  0  0  0  0  0999 V2000
   -3.8640   25.2900  -30.5400 O   0  0  0  0  0  0  0  0  0  0  0  0
   -4.5340   24.4690  -29.8550 C   0  0  0  0  0  0  0  0  0  0  0  0
   -4.1540   24.1880  -28.4970 N   0  0  0  0  0  0  0  0  0  0  0  0
   -2.8770   24.5320  -27.9330 C   0  0  0  0  0  0  0  0  0  0  0  0
   -1.6730   24.1450  -28.5520 C   0  0  0  0  0  0  0  0  0  0  0  0
   -0.4450   24.4720  -27.9690 C   0  0  0  0  0  0  0  0  0  0  0  0
   -0.4050   25.1740  -26.7620 C   0  0  0  0  0  0  0  0  0  0  0  0
   -1.5960   25.5440  -26.1290 C   0  0  0  0  0  0  0  0  0  0  0  0
   -1.5450   26.4150  -24.6070 Cl  0  0  0  0  0  0  0  0  0  0  0  0
   -2.8270   25.2170  -26.7090 C   0  0  0  0  0  0  0  0  0  0  0  0
   -5.7320   23.8300  -30.4430 C   0  0  0  0  0  0  0  0  0  0  0  0
   -6.0840   24.0460  -31.7870 C   0  0  0  0  0  0  0  0  0  0  0  0
   -7.2190   23.4210  -32.3080 C   0  0  0  0  0  0  0  0  0  0  0  0
   -7.9900   22.5900  -31.4960 C   0  0  0  0  0  0  0  0  0  0  0  0
   -7.6130   22.3930  -30.1670 C   0  0  0  0  0  0  0  0  0  0  0  0
   -6.5050   23.0100  -29.6770 N   0  0  0  0  0  0  0  0  0  0  0  0
   -4.8780   23.7920  -27.8540 H   0  0  0  0  0  0  0  0  0  0  0  0
   -1.6986   23.5835  -29.4975 H   0  0  0  0  0  0  0  0  0  0  0  0
    0.4924   24.1756  -28.4623 H   0  0  0  0  0  0  0  0  0  0  0  0
    0.5629   25.4357  -26.3095 H   0  0  0  0  0  0  0  0  0  0  0  0
   -3.7617   25.4988  -26.2021 H   0  0  0  0  0  0  0  0  0  0  0  0
   -5.4707   24.7016  -32.4226 H   0  0  0  0  0  0  0  0  0  0  0  0
   -7.5045   23.5841  -33.3577 H   0  0  0  0  0  0  0  0  0  0  0  0
   -8.8859   22.0950  -31.8988 H   0  0  0  0  0  0  0  0  0  0  0  0
   -8.2119   21.7389  -29.5162 H   0  0  0  0  0  0  0  0  0  0  0  0
  1  2  2  0
  2  3  1  0
  3  4  1  0
  4  5  2  0
  5  6  1  0
  6  7  2  0
  7  8  1  0
  8  9  1  0
  8 10  2  0
  2 11  1  0
 11 12  2  0
 12 13  1  0
 13 14  2  0
 14 15  1  0
 15 16  2  0
 10  4  1  0
 16 11  1  0
  3 17  1  0
  5 18  1  0
  6 19  1  0
  7 20  1  0
 10 21  1  0
 12 22  1  0
 13 23  1  0
 14 24  1  0
 15 25  1  0
M  END
>  <UniqueID>  (34) 
31

>  <SMILES>  (34) 
O=C(Nc1cccc(Cl)c1)c1ccccn1

>  <Energy>  (34) 
30.234192062886724

>  <Genealogy>  (34) 
O=C(Nc1cccc(Cl)c1)c1ccccn1 (3D coordinates assigned)
O=C(Nc1cccc(Cl)c1)c1ccccn1 (optimized conformer: 30.234192062886724 kcal/mol)

>  <smiles>  (34) 
O=C(Nc1cccc(Cl)c1)c1ccccn1

>  <score_type>  (34) 
oracle

>  <origin>  (34) 
adgpu

>  <m_score__min__energy>  (34) 
-6.5199999999999996

>  <m_primary>  (34) 
energy

$$$$
34:0
     RDKit          3D

 37 38  0  0  0  0  0  0  0  0999 V2000
   -7.1710   14.3820  -34.5740 C   0  0  0  0  0  0  0  0  0  0  0  0
   -6.1780   15.1560  -33.9080 O   0  0  0  0  0  0  0  0  0  0  0  0
   -6.2390   16.5470  -33.7400 C   0  0  0  0  0  0  0  0  0  0  0  0
   -5.7350   17.4470  -34.6990 C   0  0  0  0  0  0  0  0  0  0  0  0
   -5.8180   18.8260  -34.4840 C   0  0  0  0  0  0  0  0  0  0  0  0
   -6.3960   19.3270  -33.3070 C   0  0  0  0  0  0  0  0  0  0  0  0
   -6.4940   20.8110  -33.0740 C   0  0  0  0  0  0  0  0  0  0  0  0
   -6.2360   21.1290  -31.7050 O   0  0  0  0  0  0  0  0  0  0  0  0
   -6.1060   22.4250  -31.1820 C   0  0  0  0  0  0  0  0  0  0  0  0
   -7.2630   23.0830  -30.7520 C   0  0  0  0  0  0  0  0  0  0  0  0
   -7.1880   24.3710  -30.2160 C   0  0  0  0  0  0  0  0  0  0  0  0
   -5.9540   25.0160  -30.1060 C   0  0  0  0  0  0  0  0  0  0  0  0
   -4.7810   24.3730  -30.5400 C   0  0  0  0  0  0  0  0  0  0  0  0
   -3.4900   24.9940  -30.4520 N   0  0  0  0  0  0  0  0  0  0  0  0
   -2.2400   24.5820  -29.3220 S   0  0  0  0  0  0  0  0  0  0  0  0
   -1.5120   23.0160  -29.7570 C   0  0  0  0  0  0  0  0  0  0  0  0
   -1.1930   25.6590  -29.2970 O   0  0  0  0  0  0  0  0  0  0  0  0
   -2.8470   24.4670  -27.9530 O   0  0  0  0  0  0  0  0  0  0  0  0
   -4.8630   23.0820  -31.0770 C   0  0  0  0  0  0  0  0  0  0  0  0
   -6.9100   18.4300  -32.3590 C   0  0  0  0  0  0  0  0  0  0  0  0
   -6.8260   17.0510  -32.5740 C   0  0  0  0  0  0  0  0  0  0  0  0
   -7.8091   13.8846  -33.8287 H   0  0  0  0  0  0  0  0  0  0  0  0
   -7.7875   15.0402  -35.2038 H   0  0  0  0  0  0  0  0  0  0  0  0
   -6.6832   13.6234  -35.2038 H   0  0  0  0  0  0  0  0  0  0  0  0
   -5.2741   17.0633  -35.6211 H   0  0  0  0  0  0  0  0  0  0  0  0
   -5.4282   19.5221  -35.2413 H   0  0  0  0  0  0  0  0  0  0  0  0
   -5.7569   21.3249  -33.7085 H   0  0  0  0  0  0  0  0  0  0  0  0
   -7.5128   21.1404  -33.3260 H   0  0  0  0  0  0  0  0  0  0  0  0
   -8.2390   22.5827  -30.8365 H   0  0  0  0  0  0  0  0  0  0  0  0
   -8.1039   24.8789  -29.8795 H   0  0  0  0  0  0  0  0  0  0  0  0
   -5.8996   26.0284  -29.6793 H   0  0  0  0  0  0  0  0  0  0  0  0
   -1.2553   22.4639  -28.8409 H   0  0  0  0  0  0  0  0  0  0  0  0
   -2.2299   22.4298  -30.3494 H   0  0  0  0  0  0  0  0  0  0  0  0
   -0.6011   23.1870  -30.3494 H   0  0  0  0  0  0  0  0  0  0  0  0
   -3.9487   22.5758  -31.4202 H   0  0  0  0  0  0  0  0  0  0  0  0
   -7.3814   18.8133  -31.4420 H   0  0  0  0  0  0  0  0  0  0  0  0
   -7.2248   16.3563  -31.8201 H   0  0  0  0  0  0  0  0  0  0  0  0
  1  2  1  0
  2  3  1  0
  3  4  2  0
  4  5  1  0
  5  6  2  0
  6  7  1  0
  7  8  1  0
  8  9  1  0
  9 10  2  0
 10 11  1  0
 11 12  2  0
 12 13  1  0
 13 14  1  0
 14 15  1  0
 15 16  1  0
 15 17  2  0
 15 18  2  0
 13 19  2  0
  6 20  1  0
 20 21  2  0
 21  3  1  0
 19  9  1  0
  1 22  1  0
  1 23  1  0
  1 24  1  0
  4 25  1  0
  5 26  1  0
  7 27  1  0
  7 28  1  0
 10 29  1  0
 11 30  1  0
 12 31  1  0
 16 32  1  0
 16 33  1  0
 16 34  1  0
 19 35  1  0
 20 36  1  0
 21 37  1  0
M  CHG  1  14  -1
M  END
>  <UniqueID>  (35) 
32

>  <SMILES>  (35) 
COc1ccc(COc2cccc([N-]S(C)(=O)=O)c2)cc1

>  <Energy>  (35) 
35.223531200756106

>  <Genealogy>  (35) 
COc1ccc(COc2cccc([N-]S(C)(=O)=O)c2)cc1 (protonated)
COc1ccc(COc2cccc([N-]S(C)(=O)=O)c2)cc1 (3D coordinates assigned)
COc1ccc(COc2cccc([N-]S(C)(=O)=O)c2)cc1 (optimized conformer: 35.223531200756106 kcal/mol)

>  <smiles>  (35) 
COc1ccc(COc2cccc(NS(C)(=O)=O)c2)cc1

>  <score_type>  (35) 
oracle

>  <origin>  (35) 
adgpu

>  <m_score__min__energy>  (35) 
-9.1999999999999993

>  <m_primary>  (35) 
energy

$$$$
35:0
     RDKit          3D

 33 34  0  0  0  0  0  0  0  0999 V2000
   -4.9090   20.3580  -33.1640 C   0  0  0  0  0  0  0  0  0  0  0  0
   -6.3120   20.0680  -32.7030 C   0  0  0  0  0  0  0  0  0  0  0  0
   -6.7370   18.7390  -32.5610 C   0  0  0  0  0  0  0  0  0  0  0  0
   -8.0400   18.4550  -32.1480 C   0  0  0  0  0  0  0  0  0  0  0  0
   -8.9250   19.4920  -31.8560 C   0  0  0  0  0  0  0  0  0  0  0  0
   -8.5160   20.8300  -31.9650 C   0  0  0  0  0  0  0  0  0  0  0  0
   -9.4910   21.9250  -31.6290 C   0  0  0  0  0  0  0  0  0  0  0  0
   -7.2070   21.1220  -32.4190 C   0  0  0  0  0  0  0  0  0  0  0  0
   -6.7730   22.4830  -32.5690 N   0  0  0  0  0  0  0  0  0  0  0  0
   -6.2860   23.2830  -31.4760 C   0  0  0  0  0  0  0  0  0  0  0  0
   -7.1580   24.1770  -30.8390 C   0  0  0  0  0  0  0  0  0  0  0  0
   -6.7080   24.9720  -29.7830 C   0  0  0  0  0  0  0  0  0  0  0  0
   -5.3870   24.8720  -29.3420 C   0  0  0  0  0  0  0  0  0  0  0  0
   -4.5060   23.9550  -29.9400 C   0  0  0  0  0  0  0  0  0  0  0  0
   -3.0660   23.8750  -29.4960 C   0  0  0  0  0  0  0  0  0  0  0  0
   -2.3060   23.1980  -30.4350 F   0  0  0  0  0  0  0  0  0  0  0  0
   -2.5650   25.1540  -29.3480 F   0  0  0  0  0  0  0  0  0  0  0  0
   -2.9590   23.2060  -28.2890 F   0  0  0  0  0  0  0  0  0  0  0  0
   -4.9590   23.1760  -31.0200 C   0  0  0  0  0  0  0  0  0  0  0  0
   -4.2561   20.4930  -32.2891 H   0  0  0  0  0  0  0  0  0  0  0  0
   -4.5409   19.5169  -33.7699 H   0  0  0  0  0  0  0  0  0  0  0  0
   -4.9045   21.2761  -33.7699 H   0  0  0  0  0  0  0  0  0  0  0  0
   -6.0398   17.9158  -32.7762 H   0  0  0  0  0  0  0  0  0  0  0  0
   -8.3694   17.4098  -32.0527 H   0  0  0  0  0  0  0  0  0  0  0  0
   -9.9520   19.2596  -31.5377 H   0  0  0  0  0  0  0  0  0  0  0  0
   -9.5746   22.0189  -30.5362 H   0  0  0  0  0  0  0  0  0  0  0  0
   -9.1349   22.8757  -32.0525 H   0  0  0  0  0  0  0  0  0  0  0  0
  -10.4765   21.6812  -32.0525 H   0  0  0  0  0  0  0  0  0  0  0  0
   -6.8830   22.9260  -33.5080 H   0  0  0  0  0  0  0  0  0  0  0  0
   -8.2033   24.2526  -31.1732 H   0  0  0  0  0  0  0  0  0  0  0  0
   -7.3963   25.6792  -29.2971 H   0  0  0  0  0  0  0  0  0  0  0  0
   -5.0340   25.5146  -28.5219 H   0  0  0  0  0  0  0  0  0  0  0  0
   -4.2688   22.4758  -31.5133 H   0  0  0  0  0  0  0  0  0  0  0  0
  1  2  1  0
  2  3  2  0
  3  4  1  0
  4  5  2  0
  5  6  1  0
  6  7  1  0
  6  8  2  0
  8  9  1  0
  9 10  1  0
 10 11  2  0
 11 12  1  0
 12 13  2  0
 13 14  1  0
 14 15  1  0
 15 16  1  0
 15 17  1  0
 15 18  1  0
 14 19  2  0
  8  2  1  0
 19 10  1  0
  1 20  1  0
  1 21  1  0
  1 22  1  0
  3 23  1  0
  4 24  1  0
  5 25  1  0
  7 26  1  0
  7 27  1  0
  7 28  1  0
  9 29  1  0
 11 30  1  0
 12 31  1  0
 13 32  1  0
 19 33  1  0
M  END
>  <UniqueID>  (36) 
33

>  <SMILES>  (36) 
Cc1cccc(C)c1Nc1cccc(C(F)(F)F)c1

>  <Energy>  (36) 
40.470862143020476

>  <Genealogy>  (36) 
Cc1cccc(C)c1Nc1cccc(C(F)(F)F)c1 (3D coordinates assigned)
Cc1cccc(C)c1Nc1cccc(C(F)(F)F)c1 (optimized conformer: 40.470862143020476 kcal/mol)

>  <smiles>  (36) 
Cc1cccc(C)c1Nc1cccc(C(F)(F)F)c1

>  <score_type>  (36) 
oracle

>  <origin>  (36) 
adgpu

>  <m_score__min__energy>  (36) 
-7.3899999999999997

>  <m_primary>  (36) 
energy

$$$$
36:0
     RDKit          3D

 23 24  0  0  0  0  0  0  0  0999 V2000
   -8.6554   23.7744  -31.2076 H   0  0  0  0  0  0  0  0  0  0  0  0
   -7.6290   23.4340  -31.4090 C   0  0  0  0  0  0  0  0  0  0  0  0
   -7.4130   22.2490  -32.1170 C   0  0  0  0  0  0  0  0  0  0  0  0
   -8.2693   21.6619  -32.4803 H   0  0  0  0  0  0  0  0  0  0  0  0
   -6.1090   21.8090  -32.3640 C   0  0  0  0  0  0  0  0  0  0  0  0
   -5.9010   20.6500  -33.0360 F   0  0  0  0  0  0  0  0  0  0  0  0
   -5.0200   22.5620  -31.9130 C   0  0  0  0  0  0  0  0  0  0  0  0
   -3.9953   22.2047  -32.0931 H   0  0  0  0  0  0  0  0  0  0  0  0
   -5.2280   23.7690  -31.2330 C   0  0  0  0  0  0  0  0  0  0  0  0
   -4.0940   24.4930  -30.7300 N   0  0  0  0  0  0  0  0  0  0  0  0
   -3.6250   24.4950  -29.5110 C   0  0  0  0  0  0  0  0  0  0  0  0
   -4.2890   23.8510  -28.4440 C   0  0  0  0  0  0  0  0  0  0  0  0
   -5.2323   23.3141  -28.6226 H   0  0  0  0  0  0  0  0  0  0  0  0
   -3.7410   23.9000  -27.1620 C   0  0  0  0  0  0  0  0  0  0  0  0
   -4.2480   23.3943  -26.3270 H   0  0  0  0  0  0  0  0  0  0  0  0
   -2.5510   24.5900  -26.9400 C   0  0  0  0  0  0  0  0  0  0  0  0
   -2.1093   24.6271  -25.9332 H   0  0  0  0  0  0  0  0  0  0  0  0
   -1.9260   25.2330  -28.0080 C   0  0  0  0  0  0  0  0  0  0  0  0
   -0.9894   25.7857  -27.8429 H   0  0  0  0  0  0  0  0  0  0  0  0
   -2.4710   25.1790  -29.2540 N   0  0  0  0  0  0  0  0  0  0  0  0
   -1.9790   25.6740  -30.0340 H   0  0  0  0  0  0  0  0  0  0  0  0
   -6.5410   24.1880  -30.9560 C   0  0  0  0  0  0  0  0  0  0  0  0
   -6.7133   25.1104  -30.3820 H   0  0  0  0  0  0  0  0  0  0  0  0
  1  2  1  0
  2  3  2  0
  3  4  1  0
  3  5  1  0
  5  6  1  0
  5  7  2  0
  7  8  1  0
  7  9  1  0
  9 10  1  0
 10 11  2  0
 11 12  1  0
 12 13  1  0
 12 14  2  0
 14 15  1  0
 14 16  1  0
 16 17  1  0
 16 18  2  0
 18 19  1  0
 18 20  1  0
 20 21  1  0
  9 22  2  0
 22 23  1  0
 22  2  1  0
 20 11  1  0
M  END
>  <UniqueID>  (37) 
34

>  <SMILES>  (37) 
Fc1cccc(/N=c2\cccc[nH]2)c1

>  <Energy>  (37) 
33.77031006004079

>  <Genealogy>  (37) 
Fc1cccc(/N=c2\cccc[nH]2)c1 (cis-trans isomerization)
Fc1cccc(/N=c2\cccc[nH]2)c1 (3D coordinates assigned)
Fc1cccc(/N=c2\cccc[nH]2)c1 (optimized conformer: 33.77031006004079 kcal/mol)

>  <smiles>  (37) 
Fc1cccc(N=c2cccc[nH]2)c1

>  <score_type>  (37) 
oracle

>  <origin>  (37) 
adgpu

>  <m_score__min__energy>  (37) 
-6.4900000000000002

>  <m_primary>  (37) 
energy

$$$$
37:0
     RDKit          3D

 19 20  0  0  0  0  0  0  0  0999 V2000
   -9.7210   22.3291  -32.2866 H   0  0  0  0  0  0  0  0  0  0  0  0
   -8.6700   22.3180  -31.9620 C   0  0  0  0  0  0  0  0  0  0  0  0
   -7.8490   21.2170  -31.8380 C   0  0  0  0  0  0  0  0  0  0  0  0
   -8.3070   19.5610  -32.1760 Cl  0  0  0  0  0  0  0  0  0  0  0  0
   -6.6570   21.5830  -31.4260 O   0  0  0  0  0  0  0  0  0  0  0  0
   -6.6590   22.8880  -31.2720 C   0  0  0  0  0  0  0  0  0  0  0  0
   -5.4940   23.6550  -30.8210 C   0  0  0  0  0  0  0  0  0  0  0  0
   -5.2870   24.9510  -31.1510 N   0  0  0  0  0  0  0  0  0  0  0  0
   -4.1670   25.4490  -30.6330 N   0  0  0  0  0  0  0  0  0  0  0  0
   -3.8670   26.4360  -30.7960 H   0  0  0  0  0  0  0  0  0  0  0  0
   -3.4740   24.5620  -29.8890 C   0  0  0  0  0  0  0  0  0  0  0  0
   -2.3540   24.8610  -29.3000 N   0  0  0  0  0  0  0  0  0  0  0  0
   -1.5840   23.9240  -28.4910 C   0  0  0  0  0  0  0  0  0  0  0  0
   -1.7557   24.1330  -27.4248 H   0  0  0  0  0  0  0  0  0  0  0  0
   -1.9015   22.8958  -28.7189 H   0  0  0  0  0  0  0  0  0  0  0  0
   -0.5137   24.0362  -28.7189 H   0  0  0  0  0  0  0  0  0  0  0  0
   -4.2510   23.0630  -29.8410 S   0  0  0  0  0  0  0  0  0  0  0  0
   -7.9010   23.4020  -31.5950 C   0  0  0  0  0  0  0  0  0  0  0  0
   -8.2114   24.4569  -31.5654 H   0  0  0  0  0  0  0  0  0  0  0  0
  1  2  1  0
  2  3  2  0
  3  4  1  0
  3  5  1  0
  5  6  1  0
  6  7  1  0
  7  8  2  0
  8  9  1  0
  9 10  1  0
  9 11  1  0
 11 12  2  0
 12 13  1  0
 13 14  1  0
 13 15  1  0
 13 16  1  0
 11 17  1  0
  6 18  2  0
 18 19  1  0
 18  2  1  0
 17  7  1  0
M  END
>  <UniqueID>  (38) 
35

>  <SMILES>  (38) 
C/N=c1/[nH]nc(-c2ccc(Cl)o2)s1

>  <Energy>  (38) 
77.4391510596906

>  <Genealogy>  (38) 
C/N=c1/[nH]nc(-c2ccc(Cl)o2)s1 (cis-trans isomerization)
C/N=c1/[nH]nc(-c2ccc(Cl)o2)s1 (3D coordinates assigned)
C/N=c1/[nH]nc(-c2ccc(Cl)o2)s1 (optimized conformer: 77.4391510596906 kcal/mol)

>  <smiles>  (38) 
CN=c1[nH]nc(-c2ccc(Cl)o2)s1

>  <score_type>  (38) 
oracle

>  <origin>  (38) 
adgpu

>  <m_score__min__energy>  (38) 
-6.3899999999999997

>  <m_primary>  (38) 
energy

$$$$
38:0
     RDKit          3D

 23 25  0  0  0  0  0  0  0  0999 V2000
   -5.3270   25.6800  -30.4730 Cl  0  0  0  0  0  0  0  0  0  0  0  0
   -5.9600   24.0920  -30.8670 C   0  0  0  0  0  0  0  0  0  0  0  0
   -7.2390   23.7120  -30.4080 C   0  0  0  0  0  0  0  0  0  0  0  0
   -7.7550   22.4440  -30.7170 C   0  0  0  0  0  0  0  0  0  0  0  0
   -6.9720   21.5820  -31.4850 C   0  0  0  0  0  0  0  0  0  0  0  0
   -5.7170   21.9480  -31.9380 C   0  0  0  0  0  0  0  0  0  0  0  0
   -5.1900   23.2050  -31.6390 C   0  0  0  0  0  0  0  0  0  0  0  0
   -5.0780   20.8510  -32.7400 C   0  0  0  0  0  0  0  0  0  0  0  0
   -6.1520   19.8040  -32.6760 C   0  0  0  0  0  0  0  0  0  0  0  0
   -6.1370   18.5310  -33.2480 C   0  0  0  0  0  0  0  0  0  0  0  0
   -7.2560   17.7000  -33.0670 C   0  0  0  0  0  0  0  0  0  0  0  0
   -8.3650   18.1490  -32.3230 C   0  0  0  0  0  0  0  0  0  0  0  0
   -8.3650   19.4320  -31.7540 C   0  0  0  0  0  0  0  0  0  0  0  0
   -7.2430   20.2380  -31.9470 C   0  0  0  0  0  0  0  0  0  0  0  0
   -7.8346   24.4131  -29.8050 H   0  0  0  0  0  0  0  0  0  0  0  0
   -8.7505   22.1380  -30.3630 H   0  0  0  0  0  0  0  0  0  0  0  0
   -4.1925   23.4958  -32.0000 H   0  0  0  0  0  0  0  0  0  0  0  0
   -4.8801   21.1670  -33.7749 H   0  0  0  0  0  0  0  0  0  0  0  0
   -4.0960   20.5236  -32.3680 H   0  0  0  0  0  0  0  0  0  0  0  0
   -5.2684   18.1856  -33.8278 H   0  0  0  0  0  0  0  0  0  0  0  0
   -7.2660   16.6928  -33.5090 H   0  0  0  0  0  0  0  0  0  0  0  0
   -9.2356   17.4904  -32.1873 H   0  0  0  0  0  0  0  0  0  0  0  0
   -9.2261   19.7920  -31.1719 H   0  0  0  0  0  0  0  0  0  0  0  0
  1  2  1  0
  2  3  2  0
  3  4  1  0
  4  5  2  0
  5  6  1  0
  6  7  2  0
  6  8  1  0
  8  9  1  0
  9 10  2  0
 10 11  1  0
 11 12  2  0
 12 13  1  0
 13 14  2  0
  7  2  1  0
 14  9  1  0
 14  5  1  0
  3 15  1  0
  4 16  1  0
  7 17  1  0
  8 18  1  0
  8 19  1  0
 10 20  1  0
 11 21  1  0
 12 22  1  0
 13 23  1  0
M  END
>  <UniqueID>  (39) 
36

>  <SMILES>  (39) 
Clc1ccc2c(c1)Cc1ccccc1-2

>  <Energy>  (39) 
47.62964946677865

>  <Genealogy>  (39) 
Clc1ccc2c(c1)Cc1ccccc1-2 (3D coordinates assigned)
Clc1ccc2c(c1)Cc1ccccc1-2 (nonaromatic ring conformer: 47.62964946677865 kcal/mol)

>  <smiles>  (39) 
Clc1ccc2c(c1)Cc1ccccc1-2

>  <score_type>  (39) 
oracle

>  <origin>  (39) 
adgpu

>  <m_score__min__energy>  (39) 
-7.0099999999999998

>  <m_primary>  (39) 
energy

$$$$
39:0
     RDKit          3D

 23 24  0  0  0  0  0  0  0  0999 V2000
   -3.8210   25.2840  -30.1330 N   0  0  0  0  0  0  0  0  0  0  0  0
   -4.9000   24.4770  -30.6130 C   0  0  0  0  0  0  0  0  0  0  0  0
   -6.2260   24.8600  -30.3730 C   0  0  0  0  0  0  0  0  0  0  0  0
   -7.2800   24.0760  -30.8460 C   0  0  0  0  0  0  0  0  0  0  0  0
   -7.0180   22.9040  -31.5610 C   0  0  0  0  0  0  0  0  0  0  0  0
   -5.6930   22.5030  -31.8110 C   0  0  0  0  0  0  0  0  0  0  0  0
   -5.4120   21.2570  -32.5710 C   0  0  0  0  0  0  0  0  0  0  0  0
   -4.0890   20.8390  -32.7990 C   0  0  0  0  0  0  0  0  0  0  0  0
   -3.8490   19.6640  -33.5150 C   0  0  0  0  0  0  0  0  0  0  0  0
   -4.8880   18.9290  -33.9910 N   0  0  0  0  0  0  0  0  0  0  0  0
   -6.1770   19.3060  -33.7880 C   0  0  0  0  0  0  0  0  0  0  0  0
   -6.4640   20.4730  -33.0760 C   0  0  0  0  0  0  0  0  0  0  0  0
   -4.6370   23.3010  -31.3310 C   0  0  0  0  0  0  0  0  0  0  0  0
   -3.1130   25.6770  -30.7930 H   0  0  0  0  0  0  0  0  0  0  0  0
   -3.7240   25.4950  -29.1140 H   0  0  0  0  0  0  0  0  0  0  0  0
   -6.4374   25.7812  -29.8102 H   0  0  0  0  0  0  0  0  0  0  0  0
   -8.3194   24.3815  -30.6554 H   0  0  0  0  0  0  0  0  0  0  0  0
   -7.8533   22.2912  -31.9307 H   0  0  0  0  0  0  0  0  0  0  0  0
   -3.2473   21.4343  -32.4154 H   0  0  0  0  0  0  0  0  0  0  0  0
   -2.8155   19.3326  -33.6941 H   0  0  0  0  0  0  0  0  0  0  0  0
   -6.9974   18.6904  -34.1855 H   0  0  0  0  0  0  0  0  0  0  0  0
   -7.5082   20.7771  -32.9112 H   0  0  0  0  0  0  0  0  0  0  0  0
   -3.5963   22.9995  -31.5208 H   0  0  0  0  0  0  0  0  0  0  0  0
  1  2  1  0
  2  3  2  0
  3  4  1  0
  4  5  2  0
  5  6  1  0
  6  7  1  0
  7  8  2  0
  8  9  1  0
  9 10  2  0
 10 11  1  0
 11 12  2  0
  6 13  2  0
 13  2  1  0
 12  7  1  0
  1 14  1  0
  1 15  1  0
  3 16  1  0
  4 17  1  0
  5 18  1  0
  8 19  1  0
  9 20  1  0
 11 21  1  0
 12 22  1  0
 13 23  1  0
M  END
>  <UniqueID>  (40) 
37

>  <SMILES>  (40) 
Nc1cccc(-c2ccncc2)c1

>  <Energy>  (40) 
28.906143415993245

>  <Genealogy>  (40) 
Nc1cccc(-c2ccncc2)c1 (3D coordinates assigned)
Nc1cccc(-c2ccncc2)c1 (optimized conformer: 28.906143415993245 kcal/mol)

>  <smiles>  (40) 
Nc1cccc(-c2ccncc2)c1

>  <score_type>  (40) 
oracle

>  <origin>  (40) 
adgpu

>  <m_score__min__energy>  (40) 
-6.25

>  <m_primary>  (40) 
energy

$$$$
40:0
     RDKit          3D

 52 54  0  0  0  0  0  0  0  0999 V2000
   -4.3740   22.0550  -32.9910 O   0  0  0  0  0  0  0  0  0  0  0  0
   -4.9610   20.8290  -32.3500 S   0  0  0  0  0  0  0  0  0  0  0  0
   -4.2350   20.5570  -31.0630 O   0  0  0  0  0  0  0  0  0  0  0  0
   -6.6700   21.1310  -32.0430 C   0  0  0  0  0  0  0  0  0  0  0  0
   -7.5220   20.0900  -31.6380 C   0  0  0  0  0  0  0  0  0  0  0  0
   -8.8830   20.3350  -31.4350 C   0  0  0  0  0  0  0  0  0  0  0  0
   -9.4010   21.6190  -31.6360 C   0  0  0  0  0  0  0  0  0  0  0  0
   -8.5570   22.6580  -32.0370 C   0  0  0  0  0  0  0  0  0  0  0  0
   -7.1950   22.4160  -32.2390 C   0  0  0  0  0  0  0  0  0  0  0  0
   -4.7740   19.4280  -33.4100 C   0  0  0  0  0  0  0  0  0  0  0  0
   -5.8810   18.9430  -34.1240 C   0  0  0  0  0  0  0  0  0  0  0  0
   -5.7490   17.8390  -34.9680 C   0  0  0  0  0  0  0  0  0  0  0  0
   -4.5110   17.2110  -35.1080 C   0  0  0  0  0  0  0  0  0  0  0  0
   -3.4000   17.6860  -34.4070 C   0  0  0  0  0  0  0  0  0  0  0  0
   -3.5210   18.8000  -33.5530 C   0  0  0  0  0  0  0  0  0  0  0  0
   -2.4250   19.3030  -32.8340 O   0  0  0  0  0  0  0  0  0  0  0  0
   -1.2840   19.9240  -33.4160 C   0  0  0  0  0  0  0  0  0  0  0  0
   -1.0090   21.2420  -32.6950 C   0  0  0  0  0  0  0  0  0  0  0  0
   -1.8170   21.3510  -31.4720 N   0  0  0  0  0  0  0  0  0  0  0  0
   -1.0420   21.9850  -30.3950 C   0  0  0  0  0  0  0  0  0  0  0  0
   -1.8470   23.1030  -29.7150 C   0  0  0  0  0  0  0  0  0  0  0  0
   -2.7950   23.6820  -30.6140 O   0  0  0  0  0  0  0  0  0  0  0  0
   -4.1280   23.9940  -30.3080 C   0  0  0  0  0  0  0  0  0  0  0  0
   -4.5750   25.2980  -30.5670 C   0  0  0  0  0  0  0  0  0  0  0  0
   -5.8920   25.6670  -30.2770 C   0  0  0  0  0  0  0  0  0  0  0  0
   -6.7750   24.7360  -29.7250 C   0  0  0  0  0  0  0  0  0  0  0  0
   -6.3410   23.4350  -29.4600 C   0  0  0  0  0  0  0  0  0  0  0  0
   -5.0240   23.0610  -29.7480 C   0  0  0  0  0  0  0  0  0  0  0  0
   -7.1170   19.0795  -31.4803 H   0  0  0  0  0  0  0  0  0  0  0  0
   -9.5472   19.5178  -31.1170 H   0  0  0  0  0  0  0  0  0  0  0  0
  -10.4726   21.8106  -31.4784 H   0  0  0  0  0  0  0  0  0  0  0  0
   -8.9648   23.6675  -32.1939 H   0  0  0  0  0  0  0  0  0  0  0  0
   -6.5331   23.2366  -32.5528 H   0  0  0  0  0  0  0  0  0  0  0  0
   -6.8586   19.4360  -34.0178 H   0  0  0  0  0  0  0  0  0  0  0  0
   -6.6215   17.4639  -35.5230 H   0  0  0  0  0  0  0  0  0  0  0  0
   -4.4096   16.3398  -35.7719 H   0  0  0  0  0  0  0  0  0  0  0  0
   -2.4260   17.1879  -34.5223 H   0  0  0  0  0  0  0  0  0  0  0  0
   -0.4124   19.2606  -33.3156 H   0  0  0  0  0  0  0  0  0  0  0  0
   -1.4715   20.1175  -34.4825 H   0  0  0  0  0  0  0  0  0  0  0  0
    0.0569   21.2903  -32.4276 H   0  0  0  0  0  0  0  0  0  0  0  0
   -1.2754   22.0715  -33.3666 H   0  0  0  0  0  0  0  0  0  0  0  0
   -2.6680   21.9280  -31.6730 H   0  0  0  0  0  0  0  0  0  0  0  0
   -2.1100   20.3920  -31.1700 H   0  0  0  0  0  0  0  0  0  0  0  0
   -0.7808   21.2239  -29.6450 H   0  0  0  0  0  0  0  0  0  0  0  0
   -0.1342   22.4261  -30.8324 H   0  0  0  0  0  0  0  0  0  0  0  0
   -2.3829   22.6836  -28.8507 H   0  0  0  0  0  0  0  0  0  0  0  0
   -1.1471   23.8892  -29.3955 H   0  0  0  0  0  0  0  0  0  0  0  0
   -3.8843   26.0357  -31.0015 H   0  0  0  0  0  0  0  0  0  0  0  0
   -6.2333   26.6920  -30.4839 H   0  0  0  0  0  0  0  0  0  0  0  0
   -7.8114   25.0272  -29.4991 H   0  0  0  0  0  0  0  0  0  0  0  0
   -7.0364   22.7028  -29.0238 H   0  0  0  0  0  0  0  0  0  0  0  0
   -4.6866   22.0355  -29.5367 H   0  0  0  0  0  0  0  0  0  0  0  0
  1  2  2  0
  2  3  2  0
  2  4  1  0
  4  5  2  0
  5  6  1  0
  6  7  2  0
  7  8  1  0
  8  9  2  0
  2 10  1  0
 10 11  2  0
 11 12  1  0
 12 13  2  0
 13 14  1  0
 14 15  2  0
 15 16  1  0
 16 17  1  0
 17 18  1  0
 18 19  1  0
 19 20  1  0
 20 21  1  0
 21 22  1  0
 22 23  1  0
 23 24  2  0
 24 25  1  0
 25 26  2  0
 26 27  1  0
 27 28  2  0
  9  4  1  0
 15 10  1  0
 28 23  1  0
  5 29  1  0
  6 30  1  0
  7 31  1  0
  8 32  1  0
  9 33  1  0
 11 34  1  0
 12 35  1  0
 13 36  1  0
 14 37  1  0
 17 38  1  0
 17 39  1  0
 18 40  1  0
 18 41  1  0
 19 42  1  0
 19 43  1  0
 20 44  1  0
 20 45  1  0
 21 46  1  0
 21 47  1  0
 24 48  1  0
 25 49  1  0
 26 50  1  0
 27 51  1  0
 28 52  1  0
M  CHG  1  19   1
M  END
>  <UniqueID>  (41) 
38

>  <SMILES>  (41) 
O=S(=O)(c1ccccc1)c1ccccc1OCC[NH2+]CCOc1ccccc1

>  <Energy>  (41) 
50.02375399811562

>  <Genealogy>  (41) 
O=S(=O)(c1ccccc1)c1ccccc1OCC[NH2+]CCOc1ccccc1 (protonated)
O=S(=O)(c1ccccc1)c1ccccc1OCC[NH2+]CCOc1ccccc1 (3D coordinates assigned)
O=S(=O)(c1ccccc1)c1ccccc1OCC[NH2+]CCOc1ccccc1 (optimized conformer: 50.02375399811562 kcal/mol)

>  <smiles>  (41) 
O=S(=O)(c1ccccc1)c1ccccc1OCCNCCOc1ccccc1

>  <score_type>  (41) 
oracle

>  <origin>  (41) 
adgpu

>  <m_score__min__energy>  (41) 
-6.79

>  <m_primary>  (41) 
energy

$$$$
41:0
     RDKit          3D

 21 21  0  0  0  0  0  0  0  0999 V2000
    1.8460   27.4660  -23.8670 C   0  0  0  0  0  0  0  0  0  0  0  0
    0.9050   26.7870  -22.9700 N   0  0  0  0  0  0  0  0  0  0  0  0
   -0.4930   26.9610  -23.3980 C   0  0  0  0  0  0  0  0  0  0  0  0
   -0.8820   25.9740  -24.4720 C   0  0  0  0  0  0  0  0  0  0  0  0
   -1.9840   26.2330  -25.3040 C   0  0  0  0  0  0  0  0  0  0  0  0
   -2.3580   25.3110  -26.2860 C   0  0  0  0  0  0  0  0  0  0  0  0
   -1.6390   24.1220  -26.4400 C   0  0  0  0  0  0  0  0  0  0  0  0
   -0.5450   23.8530  -25.6130 C   0  0  0  0  0  0  0  0  0  0  0  0
   -0.1680   24.7740  -24.6300 C   0  0  0  0  0  0  0  0  0  0  0  0
    2.5956   28.0069  -23.2707 H   0  0  0  0  0  0  0  0  0  0  0  0
    2.3496   26.7218  -24.5015 H   0  0  0  0  0  0  0  0  0  0  0  0
    1.2985   28.1785  -24.5015 H   0  0  0  0  0  0  0  0  0  0  0  0
    1.1440   25.7690  -22.9190 H   0  0  0  0  0  0  0  0  0  0  0  0
    1.0110   27.1960  -22.0120 H   0  0  0  0  0  0  0  0  0  0  0  0
   -1.1512   26.8176  -22.5284 H   0  0  0  0  0  0  0  0  0  0  0  0
   -0.5979   27.9742  -23.8132 H   0  0  0  0  0  0  0  0  0  0  0  0
   -2.5550   27.1653  -25.1822 H   0  0  0  0  0  0  0  0  0  0  0  0
   -3.2186   25.5212  -26.9380 H   0  0  0  0  0  0  0  0  0  0  0  0
   -1.9347   23.3974  -27.2130 H   0  0  0  0  0  0  0  0  0  0  0  0
    0.0197   22.9169  -25.7351 H   0  0  0  0  0  0  0  0  0  0  0  0
    0.6911   24.5580  -23.9778 H   0  0  0  0  0  0  0  0  0  0  0  0
  1  2  1  0
  2  3  1  0
  3  4  1  0
  4  5  2  0
  5  6  1  0
  6  7  2  0
  7  8  1  0
  8  9  2  0
  9  4  1  0
  1 10  1  0
  1 11  1  0
  1 12  1  0
  2 13  1  0
  2 14  1  0
  3 15  1  0
  3 16  1  0
  5 17  1  0
  6 18  1  0
  7 19  1  0
  8 20  1  0
  9 21  1  0
M  CHG  1   2   1
M  END
>  <UniqueID>  (42) 
39

>  <SMILES>  (42) 
C[NH2+]Cc1ccccc1

>  <Energy>  (42) 
17.87065383232322

>  <Genealogy>  (42) 
C[NH2+]Cc1ccccc1 (protonated)
C[NH2+]Cc1ccccc1 (3D coordinates assigned)
C[NH2+]Cc1ccccc1 (optimized conformer: 17.87065383232322 kcal/mol)

>  <smiles>  (42) 
CNCc1ccccc1

>  <score_type>  (42) 
oracle

>  <origin>  (42) 
adgpu

>  <m_score__min__energy>  (42) 
-4.2199999999999998

>  <m_primary>  (42) 
energy

$$$$
42:0
     RDKit          3D

 39 41  0  0  0  0  0  0  0  0999 V2000
   -3.9140   18.4710  -33.0520 O   0  0  0  0  0  0  0  0  0  0  0  0
   -4.7260   19.4370  -33.0760 C   0  0  0  0  0  0  0  0  0  0  0  0
   -4.2650   20.7420  -33.4610 N   0  0  0  0  0  0  0  0  0  0  0  0
   -2.8440   21.0670  -33.5670 C   0  0  0  0  0  0  0  0  0  0  0  0
   -2.2840   21.3860  -32.2080 C   0  0  0  0  0  0  0  0  0  0  0  0
   -2.9380   22.2970  -31.3600 C   0  0  0  0  0  0  0  0  0  0  0  0
   -2.3950   22.6080  -30.1100 C   0  0  0  0  0  0  0  0  0  0  0  0
   -1.1960   22.0190  -29.7000 C   0  0  0  0  0  0  0  0  0  0  0  0
   -0.5370   21.1170  -30.5410 C   0  0  0  0  0  0  0  0  0  0  0  0
    0.6290   20.5490  -30.1440 F   0  0  0  0  0  0  0  0  0  0  0  0
   -1.0770   20.8030  -31.7910 C   0  0  0  0  0  0  0  0  0  0  0  0
   -6.1460   19.2030  -32.7210 C   0  0  0  0  0  0  0  0  0  0  0  0
   -6.6550   17.8950  -32.6720 C   0  0  0  0  0  0  0  0  0  0  0  0
   -7.9940   17.6860  -32.3360 C   0  0  0  0  0  0  0  0  0  0  0  0
   -8.7990   18.7430  -32.0510 N   0  0  0  0  0  0  0  0  0  0  0  0
   -8.3360   20.0200  -32.0790 C   0  0  0  0  0  0  0  0  0  0  0  0
   -9.4430   21.3720  -31.6930 S   0  0  0  0  0  0  0  0  0  0  0  0
   -8.0900   22.4880  -31.3220 C   0  0  0  0  0  0  0  0  0  0  0  0
   -7.5720   22.5550  -30.0220 C   0  0  0  0  0  0  0  0  0  0  0  0
   -6.5130   23.4210  -29.7350 C   0  0  0  0  0  0  0  0  0  0  0  0
   -5.9690   24.2240  -30.7450 C   0  0  0  0  0  0  0  0  0  0  0  0
   -4.6390   25.3100  -30.3830 Cl  0  0  0  0  0  0  0  0  0  0  0  0
   -6.4880   24.1590  -32.0430 C   0  0  0  0  0  0  0  0  0  0  0  0
   -7.5480   23.2940  -32.3310 C   0  0  0  0  0  0  0  0  0  0  0  0
   -7.0000   20.2740  -32.4080 C   0  0  0  0  0  0  0  0  0  0  0  0
   -4.9560   21.4840  -33.7140 H   0  0  0  0  0  0  0  0  0  0  0  0
   -2.3046   20.2067  -33.9900 H   0  0  0  0  0  0  0  0  0  0  0  0
   -2.7229   21.9431  -34.2210 H   0  0  0  0  0  0  0  0  0  0  0  0
   -3.8796   22.7663  -31.6811 H   0  0  0  0  0  0  0  0  0  0  0  0
   -2.9125   23.3177  -29.4479 H   0  0  0  0  0  0  0  0  0  0  0  0
   -0.7706   22.2649  -28.7158 H   0  0  0  0  0  0  0  0  0  0  0  0
   -0.5538   20.0957  -32.4513 H   0  0  0  0  0  0  0  0  0  0  0  0
   -6.0018   17.0391  -32.8973 H   0  0  0  0  0  0  0  0  0  0  0  0
   -8.3981   16.6635  -32.3019 H   0  0  0  0  0  0  0  0  0  0  0  0
   -7.9988   21.9259  -29.2269 H   0  0  0  0  0  0  0  0  0  0  0  0
   -6.1063   23.4718  -28.7142 H   0  0  0  0  0  0  0  0  0  0  0  0
   -6.0616   24.7891  -32.8375 H   0  0  0  0  0  0  0  0  0  0  0  0
   -7.9567   23.2464  -33.3511 H   0  0  0  0  0  0  0  0  0  0  0  0
   -6.6204   21.3063  -32.4215 H   0  0  0  0  0  0  0  0  0  0  0  0
  1  2  2  0
  2  3  1  0
  3  4  1  0
  4  5  1  0
  5  6  2  0
  6  7  1  0
  7  8  2  0
  8  9  1  0
  9 10  1  0
  9 11  2  0
  2 12  1  0
 12 13  2  0
 13 14  1  0
 14 15  2  0
 15 16  1  0
 16 17  1  0
 17 18  1  0
 18 19  2  0
 19 20  1  0
 20 21  2  0
 21 22  1  0
 21 23  1  0
 23 24  2  0
 16 25  2  0
 11  5  1  0
 25 12  1  0
 24 18  1  0
  3 26  1  0
  4 27  1  0
  4 28  1  0
  6 29  1  0
  7 30  1  0
  8 31  1  0
 11 32  1  0
 13 33  1  0
 14 34  1  0
 19 35  1  0
 20 36  1  0
 23 37  1  0
 24 38  1  0
 25 39  1  0
M  END
>  <UniqueID>  (43) 
40

>  <SMILES>  (43) 
O=C(NCc1cccc(F)c1)c1ccnc(Sc2ccc(Cl)cc2)c1

>  <Energy>  (43) 
37.55760005607041

>  <Genealogy>  (43) 
O=C(NCc1cccc(F)c1)c1ccnc(Sc2ccc(Cl)cc2)c1 (3D coordinates assigned)
O=C(NCc1cccc(F)c1)c1ccnc(Sc2ccc(Cl)cc2)c1 (optimized conformer: 37.55760005607041 kcal/mol)

>  <smiles>  (43) 
O=C(NCc1cccc(F)c1)c1ccnc(Sc2ccc(Cl)cc2)c1

>  <score_type>  (43) 
oracle

>  <origin>  (43) 
adgpu

>  <m_score__min__energy>  (43) 
-9.1600000000000001

>  <m_primary>  (43) 
energy

$$$$
43:0
     RDKit          3D

 24 25  0  0  0  0  0  0  0  0999 V2000
   -9.1750   19.2030  -32.3330 C   0  0  0  0  0  0  0  0  0  0  0  0
   -8.5450   20.4170  -32.6630 O   0  0  0  0  0  0  0  0  0  0  0  0
   -7.1660   20.4380  -32.8090 C   0  0  0  0  0  0  0  0  0  0  0  0
   -6.4440   19.3970  -33.3550 C   0  0  0  0  0  0  0  0  0  0  0  0
   -5.0610   19.4670  -33.4790 C   0  0  0  0  0  0  0  0  0  0  0  0
   -4.3710   20.5950  -33.0540 C   0  0  0  0  0  0  0  0  0  0  0  0
   -5.0990   21.6390  -32.5050 C   0  0  0  0  0  0  0  0  0  0  0  0
   -4.4710   22.7500  -32.0800 N   0  0  0  0  0  0  0  0  0  0  0  0
   -5.1760   23.7620  -31.5490 C   0  0  0  0  0  0  0  0  0  0  0  0
   -4.5610   24.8170  -31.1480 N   0  0  0  0  0  0  0  0  0  0  0  0
   -6.5160   23.7400  -31.4070 N   0  0  0  0  0  0  0  0  0  0  0  0
   -7.1690   22.6340  -31.8280 C   0  0  0  0  0  0  0  0  0  0  0  0
   -8.4550   22.5350  -31.7280 N   0  0  0  0  0  0  0  0  0  0  0  0
   -6.4900   21.5640  -32.3830 C   0  0  0  0  0  0  0  0  0  0  0  0
   -9.2271   19.1025  -31.2388 H   0  0  0  0  0  0  0  0  0  0  0  0
  -10.1924   19.1924  -32.7511 H   0  0  0  0  0  0  0  0  0  0  0  0
   -8.5980   18.3650  -32.7511 H   0  0  0  0  0  0  0  0  0  0  0  0
   -6.9721   18.4952  -33.6985 H   0  0  0  0  0  0  0  0  0  0  0  0
   -4.5089   18.6224  -33.9171 H   0  0  0  0  0  0  0  0  0  0  0  0
   -3.2771   20.6581  -33.1504 H   0  0  0  0  0  0  0  0  0  0  0  0
   -3.4270   22.7640  -32.1920 H   0  0  0  0  0  0  0  0  0  0  0  0
   -3.5130   24.9230  -31.2180 H   0  0  0  0  0  0  0  0  0  0  0  0
   -7.0550   24.5440  -30.9880 H   0  0  0  0  0  0  0  0  0  0  0  0
   -8.9390   23.3760  -31.2970 H   0  0  0  0  0  0  0  0  0  0  0  0
  1  2  1  0
  2  3  1  0
  3  4  2  0
  4  5  1  0
  5  6  2  0
  6  7  1  0
  7  8  1  0
  8  9  1  0
  9 10  2  3
  9 11  1  0
 11 12  1  0
 12 13  2  3
 12 14  1  0
 14  3  1  0
 14  7  2  0
  1 15  1  0
  1 16  1  0
  1 17  1  0
  4 18  1  0
  5 19  1  0
  6 20  1  0
  8 21  1  0
 10 22  1  0
 11 23  1  0
 13 24  1  0
M  END
>  <smiles>  (44) 
COc1cccc2[nH]c(=N)[nH]c(=N)c12

>  <score_type>  (44) 
oracle

>  <origin>  (44) 
adgpu

>  <m_score__min__energy>  (44) 
-5.3200000000000003

>  <m_primary>  (44) 
energy

$$$$
44:0
     RDKit          3D

 23 24  0  0  0  0  0  0  0  0999 V2000
   -8.0980   17.3840  -32.3540 F   0  0  0  0  0  0  0  0  0  0  0  0
   -7.8410   18.7140  -32.4140 C   0  0  0  0  0  0  0  0  0  0  0  0
   -8.7570   19.6280  -31.8890 C   0  0  0  0  0  0  0  0  0  0  0  0
   -8.4930   20.9990  -31.9510 C   0  0  0  0  0  0  0  0  0  0  0  0
   -7.3100   21.4740  -32.5420 C   0  0  0  0  0  0  0  0  0  0  0  0
   -7.0700   22.8940  -32.5910 N   0  0  0  0  0  0  0  0  0  0  0  0
   -7.0550   23.7720  -31.4220 C   0  0  0  0  0  0  0  0  0  0  0  0
   -5.6490   24.1230  -31.0450 C   0  0  0  0  0  0  0  0  0  0  0  0
   -5.1620   25.3880  -30.8230 C   0  0  0  0  0  0  0  0  0  0  0  0
   -3.8630   25.3010  -30.4880 N   0  0  0  0  0  0  0  0  0  0  0  0
   -3.6050   23.9760  -30.5120 C   0  0  0  0  0  0  0  0  0  0  0  0
   -4.6740   23.2210  -30.8460 N   0  0  0  0  0  0  0  0  0  0  0  0
   -6.3910   20.5430  -33.0670 C   0  0  0  0  0  0  0  0  0  0  0  0
   -6.6590   19.1720  -33.0020 C   0  0  0  0  0  0  0  0  0  0  0  0
   -9.6877   19.2683  -31.4260 H   0  0  0  0  0  0  0  0  0  0  0  0
   -9.2181   21.7129  -31.5332 H   0  0  0  0  0  0  0  0  0  0  0  0
   -6.8750   23.3340  -33.5190 H   0  0  0  0  0  0  0  0  0  0  0  0
   -7.6077   24.6940  -31.6552 H   0  0  0  0  0  0  0  0  0  0  0  0
   -7.5282   23.2479  -30.5785 H   0  0  0  0  0  0  0  0  0  0  0  0
   -5.7404   26.3200  -30.9058 H   0  0  0  0  0  0  0  0  0  0  0  0
   -2.6169   23.5512  -30.2812 H   0  0  0  0  0  0  0  0  0  0  0  0
   -5.4581   20.8967  -33.5303 H   0  0  0  0  0  0  0  0  0  0  0  0
   -5.9372   18.4520  -33.4150 H   0  0  0  0  0  0  0  0  0  0  0  0
  1  2  1  0
  2  3  2  0
  3  4  1  0
  4  5  2  0
  5  6  1  0
  6  7  1  0
  7  8  1  0
  8  9  2  0
  9 10  1  0
 10 11  1  0
 11 12  2  0
  5 13  1  0
 13 14  2  0
 14  2  1  0
 12  8  1  0
  3 15  1  0
  4 16  1  0
  6 17  1  0
  7 18  1  0
  7 19  1  0
  9 20  1  0
 11 21  1  0
 13 22  1  0
 14 23  1  0
M  CHG  1  10  -1
M  END
>  <UniqueID>  (45) 
41

>  <SMILES>  (45) 
Fc1ccc(NCc2c[n-]cn2)cc1

>  <Energy>  (45) 
49.57556870205391

>  <Genealogy>  (45) 
Fc1ccc(NCc2c[n-]cn2)cc1 (protonated)
Fc1ccc(NCc2c[n-]cn2)cc1 (3D coordinates assigned)
Fc1ccc(NCc2c[n-]cn2)cc1 (optimized conformer: 49.57556870205391 kcal/mol)

>  <smiles>  (45) 
Fc1ccc(NCc2c[nH]cn2)cc1

>  <score_type>  (45) 
oracle

>  <origin>  (45) 
adgpu

>  <m_score__min__energy>  (45) 
-7.2300000000000004

>  <m_primary>  (45) 
energy

$$$$
45:0
     RDKit          3D

 20 21  0  0  0  0  0  0  0  0999 V2000
   -6.1170   25.6730  -29.5300 C   0  0  0  0  0  0  0  0  0  0  0  0
   -6.1980   24.5570  -30.5140 C   0  0  0  0  0  0  0  0  0  0  0  0
   -5.4000   24.4570  -31.5940 N   0  0  0  0  0  0  0  0  0  0  0  0
   -5.8090   23.3850  -32.2450 N   0  0  0  0  0  0  0  0  0  0  0  0
   -6.8470   22.8580  -31.5660 C   0  0  0  0  0  0  0  0  0  0  0  0
   -7.6060   21.6460  -31.9650 C   0  0  0  0  0  0  0  0  0  0  0  0
   -6.9210   20.4840  -32.3580 C   0  0  0  0  0  0  0  0  0  0  0  0
   -7.6290   19.3410  -32.7330 C   0  0  0  0  0  0  0  0  0  0  0  0
   -9.0230   19.3640  -32.7150 C   0  0  0  0  0  0  0  0  0  0  0  0
   -9.6790   20.4920  -32.3340 N   0  0  0  0  0  0  0  0  0  0  0  0
   -9.0130   21.6190  -31.9640 C   0  0  0  0  0  0  0  0  0  0  0  0
   -7.1290   23.5810  -30.4630 N   0  0  0  0  0  0  0  0  0  0  0  0
   -6.1466   25.2645  -28.5091 H   0  0  0  0  0  0  0  0  0  0  0  0
   -5.1765   26.2241  -29.6773 H   0  0  0  0  0  0  0  0  0  0  0  0
   -6.9681   26.3542  -29.6773 H   0  0  0  0  0  0  0  0  0  0  0  0
   -5.3780   23.0450  -33.1320 H   0  0  0  0  0  0  0  0  0  0  0  0
   -5.8211   20.4749  -32.3702 H   0  0  0  0  0  0  0  0  0  0  0  0
   -7.0925   18.4310  -33.0397 H   0  0  0  0  0  0  0  0  0  0  0  0
   -9.5918   18.4696  -33.0090 H   0  0  0  0  0  0  0  0  0  0  0  0
   -9.5772   22.5139  -31.6625 H   0  0  0  0  0  0  0  0  0  0  0  0
  1  2  1  0
  2  3  2  0
  3  4  1  0
  4  5  1  0
  5  6  1  0
  6  7  2  0
  7  8  1  0
  8  9  2  0
  9 10  1  0
 10 11  2  0
  5 12  2  0
 12  2  1  0
 11  6  1  0
  1 13  1  0
  1 14  1  0
  1 15  1  0
  4 16  1  0
  7 17  1  0
  8 18  1  0
  9 19  1  0
 11 20  1  0
M  END
>  <UniqueID>  (46) 
42

>  <SMILES>  (46) 
Cc1n[nH]c(-c2cccnc2)n1

>  <Energy>  (46) 
53.64166334480487

>  <Genealogy>  (46) 
Cc1n[nH]c(-c2cccnc2)n1 (3D coordinates assigned)
Cc1n[nH]c(-c2cccnc2)n1 (optimized conformer: 53.64166334480487 kcal/mol)

>  <smiles>  (46) 
Cc1n[nH]c(-c2cccnc2)n1

>  <score_type>  (46) 
oracle

>  <origin>  (46) 
adgpu

>  <m_score__min__energy>  (46) 
-5.8499999999999996

>  <m_primary>  (46) 
energy

$$$$
46:0
     RDKit          3D

 35 37  0  0  0  0  0  0  0  0999 V2000
   -5.2362   26.8025  -30.4875 H   0  0  0  0  0  0  0  0  0  0  0  0
   -4.9970   25.7290  -30.5070 C   0  0  0  0  0  0  0  0  0  0  0  0
   -3.7670   25.3010  -30.1240 N   0  0  0  0  0  0  0  0  0  0  0  0
   -3.4490   23.9780  -30.1390 C   0  0  0  0  0  0  0  0  0  0  0  0
   -2.2730   23.5680  -29.7710 N   0  0  0  0  0  0  0  0  0  0  0  0
   -1.1860   24.4390  -29.3240 C   0  0  0  0  0  0  0  0  0  0  0  0
   -0.2651   23.8461  -29.2213 H   0  0  0  0  0  0  0  0  0  0  0  0
   -1.0400   25.2377  -30.0662 H   0  0  0  0  0  0  0  0  0  0  0  0
   -1.5240   25.0580  -28.0040 C   0  0  0  0  0  0  0  0  0  0  0  0
   -1.0520   26.2120  -27.5940 O   0  0  0  0  0  0  0  0  0  0  0  0
   -1.5570   26.4720  -26.4100 C   0  0  0  0  0  0  0  0  0  0  0  0
   -1.3430   27.3713  -25.8138 H   0  0  0  0  0  0  0  0  0  0  0  0
   -2.3970   25.4460  -26.0270 C   0  0  0  0  0  0  0  0  0  0  0  0
   -2.9668   25.3738  -25.0889 H   0  0  0  0  0  0  0  0  0  0  0  0
   -2.3780   24.5300  -27.0570 C   0  0  0  0  0  0  0  0  0  0  0  0
   -2.9276   23.5788  -27.1125 H   0  0  0  0  0  0  0  0  0  0  0  0
   -4.3750   23.0690  -30.5430 N   0  0  0  0  0  0  0  0  0  0  0  0
   -5.6210   23.4450  -30.9440 C   0  0  0  0  0  0  0  0  0  0  0  0
   -6.5930   22.4050  -31.3720 C   0  0  0  0  0  0  0  0  0  0  0  0
   -7.9730   22.6450  -31.2510 C   0  0  0  0  0  0  0  0  0  0  0  0
   -8.3253   23.6046  -30.8447 H   0  0  0  0  0  0  0  0  0  0  0  0
   -8.9020   21.6760  -31.6420 C   0  0  0  0  0  0  0  0  0  0  0  0
   -9.9787   21.8807  -31.5479 H   0  0  0  0  0  0  0  0  0  0  0  0
   -8.4670   20.4410  -32.1550 C   0  0  0  0  0  0  0  0  0  0  0  0
   -9.3600   19.4380  -32.5610 O   0  0  0  0  0  0  0  0  0  0  0  0
   -9.4680   18.1600  -31.9430 C   0  0  0  0  0  0  0  0  0  0  0  0
   -9.4579   18.2794  -30.8496 H   0  0  0  0  0  0  0  0  0  0  0  0
  -10.4097   17.6822  -32.2510 H   0  0  0  0  0  0  0  0  0  0  0  0
   -8.6198   17.5309  -32.2510 H   0  0  0  0  0  0  0  0  0  0  0  0
   -7.0950   20.1950  -32.2660 C   0  0  0  0  0  0  0  0  0  0  0  0
   -6.7450   19.2309  -32.6634 H   0  0  0  0  0  0  0  0  0  0  0  0
   -6.1640   21.1620  -31.8770 C   0  0  0  0  0  0  0  0  0  0  0  0
   -5.0881   20.9508  -31.9659 H   0  0  0  0  0  0  0  0  0  0  0  0
   -5.9570   24.8090  -30.9250 C   0  0  0  0  0  0  0  0  0  0  0  0
   -6.9581   25.1443  -31.2339 H   0  0  0  0  0  0  0  0  0  0  0  0
  1  2  1  0
  2  3  1  0
  3  4  1  0
  4  5  2  0
  5  6  1  0
  6  7  1  0
  6  8  1  0
  6  9  1  0
  9 10  1  0
 10 11  1  0
 11 12  1  0
 11 13  2  0
 13 14  1  0
 13 15  1  0
 15 16  1  0
  4 17  1  0
 17 18  2  0
 18 19  1  0
 19 20  2  0
 20 21  1  0
 20 22  1  0
 22 23  1  0
 22 24  2  0
 24 25  1  0
 25 26  1  0
 26 27  1  0
 26 28  1  0
 26 29  1  0
 24 30  1  0
 30 31  1  0
 30 32  2  0
 32 33  1  0
 18 34  1  0
 34 35  1  0
 34  2  2  0
 15  9  2  0
 32 19  1  0
M  CHG  1   3  -1
M  END
>  <UniqueID>  (47) 
43

>  <SMILES>  (47) 
COc1ccc(-c2cc[n-]/c(=N\Cc3ccco3)n2)cc1

>  <Energy>  (47) 
66.11530494918782

>  <Genealogy>  (47) 
COc1ccc(-c2cc[n-]c(=NCc3ccco3)n2)cc1 (protonated)
COc1ccc(-c2cc[n-]/c(=N\Cc3ccco3)n2)cc1 (cis-trans isomerization)
COc1ccc(-c2cc[n-]/c(=N\Cc3ccco3)n2)cc1 (3D coordinates assigned)
COc1ccc(-c2cc[n-]/c(=N\Cc3ccco3)n2)cc1 (optimized conformer: 66.11530494918782 kcal/mol)

>  <smiles>  (47) 
COc1ccc(-c2cc[nH]c(=NCc3ccco3)n2)cc1

>  <score_type>  (47) 
oracle

>  <origin>  (47) 
adgpu

>  <m_score__min__energy>  (47) 
-7.9900000000000002

>  <m_primary>  (47) 
energy

$$$$
47:0
     RDKit          3D

 23 23  0  0  0  0  0  0  0  0999 V2000
   -4.1130   22.4920  -32.0560 C   0  0  0  0  0  0  0  0  0  0  0  0
   -5.2640   23.0790  -31.3690 N   0  0  0  0  0  0  0  0  0  0  0  0
   -6.5870   22.5460  -31.5790 C   0  0  0  0  0  0  0  0  0  0  0  0
   -6.8130   21.1570  -31.5490 C   0  0  0  0  0  0  0  0  0  0  0  0
   -8.0980   20.6430  -31.7430 C   0  0  0  0  0  0  0  0  0  0  0  0
   -9.1730   21.5080  -31.9640 C   0  0  0  0  0  0  0  0  0  0  0  0
   -8.9630   22.8880  -31.9900 C   0  0  0  0  0  0  0  0  0  0  0  0
   -7.6790   23.4070  -31.7960 C   0  0  0  0  0  0  0  0  0  0  0  0
   -5.0060   24.4500  -30.3270 S   0  0  0  0  0  0  0  0  0  0  0  0
   -4.6450   23.8920  -28.6770 C   0  0  0  0  0  0  0  0  0  0  0  0
   -6.2430   25.3030  -30.3080 O   0  0  0  0  0  0  0  0  0  0  0  0
   -3.8620   25.2800  -30.8410 O   0  0  0  0  0  0  0  0  0  0  0  0
   -3.3909   22.1237  -31.3124 H   0  0  0  0  0  0  0  0  0  0  0  0
   -4.4495   21.6554  -32.6860 H   0  0  0  0  0  0  0  0  0  0  0  0
   -3.6334   23.2556  -32.6860 H   0  0  0  0  0  0  0  0  0  0  0  0
   -5.9718   20.4709  -31.3715 H   0  0  0  0  0  0  0  0  0  0  0  0
   -8.2635   19.5557  -31.7217 H   0  0  0  0  0  0  0  0  0  0  0  0
  -10.1838   21.1020  -32.1173 H   0  0  0  0  0  0  0  0  0  0  0  0
   -9.8095   23.5687  -32.1635 H   0  0  0  0  0  0  0  0  0  0  0  0
   -7.5214   24.4955  -31.8131 H   0  0  0  0  0  0  0  0  0  0  0  0
   -5.0931   24.5847  -27.9494 H   0  0  0  0  0  0  0  0  0  0  0  0
   -5.0634   22.8853  -28.5306 H   0  0  0  0  0  0  0  0  0  0  0  0
   -3.5552   23.8610  -28.5306 H   0  0  0  0  0  0  0  0  0  0  0  0
  1  2  1  0
  2  3  1  0
  3  4  2  0
  4  5  1  0
  5  6  2  0
  6  7  1  0
  7  8  2  0
  2  9  1  0
  9 10  1  0
  9 11  2  0
  9 12  2  0
  8  3  1  0
  1 13  1  0
  1 14  1  0
  1 15  1  0
  4 16  1  0
  5 17  1  0
  6 18  1  0
  7 19  1  0
  8 20  1  0
 10 21  1  0
 10 22  1  0
 10 23  1  0
M  END
>  <UniqueID>  (48) 
44

>  <SMILES>  (48) 
CN(c1ccccc1)S(C)(=O)=O

>  <Energy>  (48) 
21.051679245070822

>  <Genealogy>  (48) 
CN(c1ccccc1)S(C)(=O)=O (3D coordinates assigned)
CN(c1ccccc1)S(C)(=O)=O (optimized conformer: 21.051679245070822 kcal/mol)

>  <smiles>  (48) 
CN(c1ccccc1)S(C)(=O)=O

>  <score_type>  (48) 
oracle

>  <origin>  (48) 
adgpu

>  <m_score__min__energy>  (48) 
-5.9500000000000002

>  <m_primary>  (48) 
energy

$$$$
