0:0
     RDKit          3D

 51 54  0  0  0  0  0  0  0  0999 V2000
   -7.5920   17.2290  -33.1070 N   0  0  0  0  0  0  0  0  0  0  0  0
   -6.2600   17.0080  -33.5860 C   0  0  0  0  0  0  0  0  0  0  0  0
   -5.6310   15.7780  -33.3270 C   0  0  0  0  0  0  0  0  0  0  0  0
   -4.3750   15.4940  -33.8700 C   0  0  0  0  0  0  0  0  0  0  0  0
   -3.7470   16.4270  -34.6960 C   0  0  0  0  0  0  0  0  0  0  0  0
   -4.3550   17.6580  -34.9500 C   0  0  0  0  0  0  0  0  0  0  0  0
   -5.5910   17.9750  -34.3730 C   0  0  0  0  0  0  0  0  0  0  0  0
   -6.1190   19.2900  -34.5860 N   0  0  0  0  0  0  0  0  0  0  0  0
   -6.7390   20.0990  -33.5770 C   0  0  0  0  0  0  0  0  0  0  0  0
   -7.9950   20.0770  -33.4300 O   0  0  0  0  0  0  0  0  0  0  0  0
   -5.9010   20.8870  -32.6420 C   0  0  0  0  0  0  0  0  0  0  0  0
   -6.3910   22.0730  -32.0680 C   0  0  0  0  0  0  0  0  0  0  0  0
   -5.6650   22.7320  -31.0700 C   0  0  0  0  0  0  0  0  0  0  0  0
   -4.4380   22.2130  -30.6270 C   0  0  0  0  0  0  0  0  0  0  0  0
   -3.7260   22.8220  -29.5370 N   0  0  0  0  0  0  0  0  0  0  0  0
   -3.3250   24.2050  -29.5410 C   0  0  0  0  0  0  0  0  0  0  0  0
   -3.6700   24.9590  -30.4970 O   0  0  0  0  0  0  0  0  0  0  0  0
   -2.5690   24.7760  -28.4040 C   0  0  0  0  0  0  0  0  0  0  0  0
   -1.2940   25.3330  -28.6110 C   0  0  0  0  0  0  0  0  0  0  0  0
   -0.5800   25.8910  -27.5470 C   0  0  0  0  0  0  0  0  0  0  0  0
   -1.1180   25.8910  -26.2460 C   0  0  0  0  0  0  0  0  0  0  0  0
   -0.3600   26.4890  -25.1130 C   0  0  0  0  0  0  0  0  0  0  0  0
   -0.8630   26.4130  -23.7990 C   0  0  0  0  0  0  0  0  0  0  0  0
   -0.1550   26.9790  -22.7340 C   0  0  0  0  0  0  0  0  0  0  0  0
    1.0600   27.6280  -22.9640 C   0  0  0  0  0  0  0  0  0  0  0  0
    1.5710   27.7120  -24.2610 C   0  0  0  0  0  0  0  0  0  0  0  0
    0.8690   27.1430  -25.3310 C   0  0  0  0  0  0  0  0  0  0  0  0
   -2.3890   25.3220  -26.0380 C   0  0  0  0  0  0  0  0  0  0  0  0
   -3.1060   24.7720  -27.1050 C   0  0  0  0  0  0  0  0  0  0  0  0
   -3.9090   21.0770  -31.2530 C   0  0  0  0  0  0  0  0  0  0  0  0
   -4.6370   20.4120  -32.2430 C   0  0  0  0  0  0  0  0  0  0  0  0
   -8.0120   16.6250  -32.3670 H   0  0  0  0  0  0  0  0  0  0  0  0
   -8.1480   18.0460  -33.4490 H   0  0  0  0  0  0  0  0  0  0  0  0
   -6.1316   15.0326  -32.6915 H   0  0  0  0  0  0  0  0  0  0  0  0
   -3.8821   14.5363  -33.6466 H   0  0  0  0  0  0  0  0  0  0  0  0
   -2.7718   16.1924  -35.1476 H   0  0  0  0  0  0  0  0  0  0  0  0
   -3.8587   18.3853  -35.6093 H   0  0  0  0  0  0  0  0  0  0  0  0
   -7.3528   22.4861  -32.4062 H   0  0  0  0  0  0  0  0  0  0  0  0
   -6.0573   23.6609  -30.6304 H   0  0  0  0  0  0  0  0  0  0  0  0
   -3.6980   22.3050  -28.6290 H   0  0  0  0  0  0  0  0  0  0  0  0
   -0.8549   25.3293  -29.6196 H   0  0  0  0  0  0  0  0  0  0  0  0
    0.4106   26.3339  -27.7276 H   0  0  0  0  0  0  0  0  0  0  0  0
   -1.8199   25.9046  -23.6094 H   0  0  0  0  0  0  0  0  0  0  0  0
   -0.5564   26.9128  -21.7120 H   0  0  0  0  0  0  0  0  0  0  0  0
    1.6141   28.0727  -22.1242 H   0  0  0  0  0  0  0  0  0  0  0  0
    2.5265   28.2259  -24.4425 H   0  0  0  0  0  0  0  0  0  0  0  0
    1.2801   27.2071  -26.3493 H   0  0  0  0  0  0  0  0  0  0  0  0
   -2.8219   25.3100  -25.0268 H   0  0  0  0  0  0  0  0  0  0  0  0
   -4.0985   24.3326  -26.9264 H   0  0  0  0  0  0  0  0  0  0  0  0
   -2.9146   20.7063  -30.9635 H   0  0  0  0  0  0  0  0  0  0  0  0
   -4.2193   19.5102  -32.7144 H   0  0  0  0  0  0  0  0  0  0  0  0
  1  2  1  0
  2  3  2  0
  3  4  1  0
  4  5  2  0
  5  6  1  0
  6  7  2  0
  7  8  1  0
  8  9  1  0
  9 10  2  0
  9 11  1  0
 11 12  2  0
 12 13  1  0
 13 14  2  0
 14 15  1  0
 15 16  1  0
 16 17  2  0
 16 18  1  0
 18 19  2  0
 19 20  1  0
 20 21  2  0
 21 22  1  0
 22 23  2  0
 23 24  1  0
 24 25  2  0
 25 26  1  0
 26 27  2  0
 21 28  1  0
 28 29  2  0
 14 30  1  0
 30 31  2  0
  7  2  1  0
 31 11  1  0
 29 18  1  0
 27 22  1  0
  1 32  1  0
  1 33  1  0
  3 34  1  0
  4 35  1  0
  5 36  1  0
  6 37  1  0
 12 38  1  0
 13 39  1  0
 15 40  1  0
 19 41  1  0
 20 42  1  0
 23 43  1  0
 24 44  1  0
 25 45  1  0
 26 46  1  0
 27 47  1  0
 28 48  1  0
 29 49  1  0
 30 50  1  0
 31 51  1  0
M  CHG  1   8  -1
M  END
>  <UniqueID>  (1) 
1

>  <SMILES>  (1) 
Nc1ccccc1[N-]C(=O)c1ccc(NC(=O)c2ccc(-c3ccccc3)cc2)cc1

>  <Energy>  (1) 
76.82634365025213

>  <Genealogy>  (1) 
Nc1ccccc1[N-]C(=O)c1ccc(NC(=O)c2ccc(-c3ccccc3)cc2)cc1 (protonated)
Nc1ccccc1[N-]C(=O)c1ccc(NC(=O)c2ccc(-c3ccccc3)cc2)cc1 (3D coordinates assigned)
Nc1ccccc1[N-]C(=O)c1ccc(NC(=O)c2ccc(-c3ccccc3)cc2)cc1 (optimized conformer: 76.82634365025213 kcal/mol)

>  <smiles>  (1) 
Nc1ccccc1NC(=O)c1ccc(NC(=O)c2ccc(-c3ccccc3)cc2)cc1

>  <score_type>  (1) 
oracle

>  <origin>  (1) 
adgpu

>  <m_score__min__energy>  (1) 
-9.5099999999999998

>  <m_primary>  (1) 
energy

$$$$
1:0
     RDKit          3D

 39 41  0  0  0  0  0  0  0  0999 V2000
   -2.2750   25.2880  -29.3450 N   0  0  0  0  0  0  0  0  0  0  0  0
   -1.8840   24.2360  -28.4640 C   0  0  0  0  0  0  0  0  0  0  0  0
   -1.7830   24.4740  -27.2300 O   0  0  0  0  0  0  0  0  0  0  0  0
   -1.6010   22.8790  -28.9900 C   0  0  0  0  0  0  0  0  0  0  0  0
   -1.9650   21.7390  -28.2500 C   0  0  0  0  0  0  0  0  0  0  0  0
   -1.7020   20.4610  -28.7470 C   0  0  0  0  0  0  0  0  0  0  0  0
   -1.0810   20.3030  -29.9870 C   0  0  0  0  0  0  0  0  0  0  0  0
   -0.7140   21.4220  -30.7430 C   0  0  0  0  0  0  0  0  0  0  0  0
   -0.0910   21.2120  -32.0180 N   0  0  0  0  0  0  0  0  0  0  0  0
   -0.9230   20.7970  -33.4820 S   0  0  0  0  0  0  0  0  0  0  0  0
   -0.5340   21.7710  -34.5590 O   0  0  0  0  0  0  0  0  0  0  0  0
   -0.5180   19.4140  -33.9030 O   0  0  0  0  0  0  0  0  0  0  0  0
   -2.6630   20.8250  -33.2160 C   0  0  0  0  0  0  0  0  0  0  0  0
   -3.2820   21.9640  -32.6900 C   0  0  0  0  0  0  0  0  0  0  0  0
   -4.6600   21.9730  -32.4540 C   0  0  0  0  0  0  0  0  0  0  0  0
   -5.4400   20.8390  -32.7440 C   0  0  0  0  0  0  0  0  0  0  0  0
   -6.9040   20.8430  -32.4880 C   0  0  0  0  0  0  0  0  0  0  0  0
   -7.6810   19.7000  -32.7570 C   0  0  0  0  0  0  0  0  0  0  0  0
   -9.0570   19.7070  -32.5160 C   0  0  0  0  0  0  0  0  0  0  0  0
   -9.6740   20.8510  -32.0050 C   0  0  0  0  0  0  0  0  0  0  0  0
   -8.9140   21.9910  -31.7340 C   0  0  0  0  0  0  0  0  0  0  0  0
   -7.5360   21.9890  -31.9730 C   0  0  0  0  0  0  0  0  0  0  0  0
   -4.8120   19.7000  -33.2810 C   0  0  0  0  0  0  0  0  0  0  0  0
   -3.4340   19.6950  -33.5160 C   0  0  0  0  0  0  0  0  0  0  0  0
   -0.9690   22.7100  -30.2360 C   0  0  0  0  0  0  0  0  0  0  0  0
   -1.6060   25.6790  -30.0450 H   0  0  0  0  0  0  0  0  0  0  0  0
   -2.4596   21.8553  -27.2744 H   0  0  0  0  0  0  0  0  0  0  0  0
   -1.9852   19.5754  -28.1592 H   0  0  0  0  0  0  0  0  0  0  0  0
   -0.8788   19.2927  -30.3723 H   0  0  0  0  0  0  0  0  0  0  0  0
   -2.6816   22.8568  -32.4610 H   0  0  0  0  0  0  0  0  0  0  0  0
   -5.1373   22.8729  -32.0388 H   0  0  0  0  0  0  0  0  0  0  0  0
   -7.2014   18.7956  -33.1596 H   0  0  0  0  0  0  0  0  0  0  0  0
   -9.6560   18.8093  -32.7292 H   0  0  0  0  0  0  0  0  0  0  0  0
  -10.7577   20.8542  -31.8161 H   0  0  0  0  0  0  0  0  0  0  0  0
   -9.4001   22.8921  -31.3318 H   0  0  0  0  0  0  0  0  0  0  0  0
   -6.9426   22.8896  -31.7568 H   0  0  0  0  0  0  0  0  0  0  0  0
   -5.4096   18.8073  -33.5175 H   0  0  0  0  0  0  0  0  0  0  0  0
   -2.9534   18.8001  -33.9382 H   0  0  0  0  0  0  0  0  0  0  0  0
   -0.6712   23.5936  -30.8197 H   0  0  0  0  0  0  0  0  0  0  0  0
  1  2  1  0
  2  3  2  0
  2  4  1  0
  4  5  2  0
  5  6  1  0
  6  7  2  0
  7  8  1  0
  8  9  1  0
  9 10  1  0
 10 11  2  0
 10 12  2  0
 10 13  1  0
 13 14  2  0
 14 15  1  0
 15 16  2  0
 16 17  1  0
 17 18  2  0
 18 19  1  0
 19 20  2  0
 20 21  1  0
 21 22  2  0
 16 23  1  0
 23 24  2  0
  8 25  2  0
 25  4  1  0
 24 13  1  0
 22 17  1  0
  1 26  1  0
  5 27  1  0
  6 28  1  0
  7 29  1  0
 14 30  1  0
 15 31  1  0
 18 32  1  0
 19 33  1  0
 20 34  1  0
 21 35  1  0
 22 36  1  0
 23 37  1  0
 24 38  1  0
 25 39  1  0
M  CHG  2   1  -1   9  -1
M  END
>  <UniqueID>  (2) 
2

>  <SMILES>  (2) 
[NH-]C(=O)c1cccc([N-]S(=O)(=O)c2ccc(-c3ccccc3)cc2)c1

>  <Energy>  (2) 
50.0664550066022

>  <Genealogy>  (2) 
[NH-]C(=O)c1cccc([N-]S(=O)(=O)c2ccc(-c3ccccc3)cc2)c1 (protonated)
[NH-]C(=O)c1cccc([N-]S(=O)(=O)c2ccc(-c3ccccc3)cc2)c1 (3D coordinates assigned)
[NH-]C(=O)c1cccc([N-]S(=O)(=O)c2ccc(-c3ccccc3)cc2)c1 (optimized conformer: 50.0664550066022 kcal/mol)

>  <smiles>  (2) 
NC(=O)c1cccc(NS(=O)(=O)c2ccc(-c3ccccc3)cc2)c1

>  <score_type>  (2) 
oracle

>  <origin>  (2) 
adgpu

>  <m_score__min__energy>  (2) 
-11.43

>  <m_primary>  (2) 
energy

$$$$
2:0
     RDKit          3D

 55 58  0  0  0  0  0  0  0  0999 V2000
   -5.8910   25.0900  -29.0030 O   0  0  0  0  0  0  0  0  0  0  0  0
   -5.1900   25.0020  -30.3300 S   0  0  0  0  0  0  0  0  0  0  0  0
   -5.7460   26.0650  -31.2380 O   0  0  0  0  0  0  0  0  0  0  0  0
   -3.4920   25.2740  -30.0950 N   0  0  0  0  0  0  0  0  0  0  0  0
   -2.6600   24.5700  -29.1640 C   0  0  0  0  0  0  0  0  0  0  0  0
   -1.3270   24.9500  -28.9120 C   0  0  0  0  0  0  0  0  0  0  0  0
   -0.5540   24.2360  -27.9900 C   0  0  0  0  0  0  0  0  0  0  0  0
   -1.0990   23.1390  -27.3190 C   0  0  0  0  0  0  0  0  0  0  0  0
   -2.4220   22.7580  -27.5620 C   0  0  0  0  0  0  0  0  0  0  0  0
   -3.1980   23.4700  -28.4820 C   0  0  0  0  0  0  0  0  0  0  0  0
   -5.4490   23.3940  -31.0010 C   0  0  0  0  0  0  0  0  0  0  0  0
   -4.4850   22.7950  -31.8220 C   0  0  0  0  0  0  0  0  0  0  0  0
   -4.7000   21.5150  -32.3400 C   0  0  0  0  0  0  0  0  0  0  0  0
   -5.8860   20.8160  -32.0500 C   0  0  0  0  0  0  0  0  0  0  0  0
   -6.1180   19.4610  -32.6080 C   0  0  0  0  0  0  0  0  0  0  0  0
   -6.7010   18.4530  -31.8200 C   0  0  0  0  0  0  0  0  0  0  0  0
   -6.9160   17.1760  -32.3460 C   0  0  0  0  0  0  0  0  0  0  0  0
   -6.5460   16.8800  -33.6660 C   0  0  0  0  0  0  0  0  0  0  0  0
   -6.7970   15.5060  -34.2460 C   0  0  0  0  0  0  0  0  0  0  0  0
   -5.5890   14.6450  -34.1890 N   0  0  0  0  0  0  0  0  0  0  0  0
   -5.9510   13.2370  -33.8570 C   0  0  0  0  0  0  0  0  0  0  0  0
   -4.7730   12.4640  -33.2500 C   0  0  0  0  0  0  0  0  0  0  0  0
   -4.3310   13.0980  -31.9200 C   0  0  0  0  0  0  0  0  0  0  0  0
   -4.6110   14.6100  -31.8640 C   0  0  0  0  0  0  0  0  0  0  0  0
   -4.5700   15.2320  -33.2680 C   0  0  0  0  0  0  0  0  0  0  0  0
   -5.9670   17.8840  -34.4580 C   0  0  0  0  0  0  0  0  0  0  0  0
   -5.7560   19.1630  -33.9340 C   0  0  0  0  0  0  0  0  0  0  0  0
   -6.8510   21.4260  -31.2260 C   0  0  0  0  0  0  0  0  0  0  0  0
   -6.6310   22.7040  -30.7040 C   0  0  0  0  0  0  0  0  0  0  0  0
   -0.8927   25.8107  -29.4417 H   0  0  0  0  0  0  0  0  0  0  0  0
    0.4849   24.5392  -27.7932 H   0  0  0  0  0  0  0  0  0  0  0  0
   -0.4874   22.5749  -26.5995 H   0  0  0  0  0  0  0  0  0  0  0  0
   -2.8529   21.8975  -27.0291 H   0  0  0  0  0  0  0  0  0  0  0  0
   -4.2376   23.1647  -28.6717 H   0  0  0  0  0  0  0  0  0  0  0  0
   -3.5559   23.3338  -32.0597 H   0  0  0  0  0  0  0  0  0  0  0  0
   -3.9355   21.0501  -32.9799 H   0  0  0  0  0  0  0  0  0  0  0  0
   -6.9902   18.6711  -30.7813 H   0  0  0  0  0  0  0  0  0  0  0  0
   -7.3784   16.3981  -31.7206 H   0  0  0  0  0  0  0  0  0  0  0  0
   -7.6040   15.0226  -33.6758 H   0  0  0  0  0  0  0  0  0  0  0  0
   -7.0737   15.6307  -35.3033 H   0  0  0  0  0  0  0  0  0  0  0  0
   -5.1610   14.6440  -35.1460 H   0  0  0  0  0  0  0  0  0  0  0  0
   -6.7797   13.2453  -33.1337 H   0  0  0  0  0  0  0  0  0  0  0  0
   -6.2403   12.7333  -34.7911 H   0  0  0  0  0  0  0  0  0  0  0  0
   -5.0795   11.4232  -33.0691 H   0  0  0  0  0  0  0  0  0  0  0  0
   -3.9288   12.4976  -33.9544 H   0  0  0  0  0  0  0  0  0  0  0  0
   -4.8743   12.6083  -31.0984 H   0  0  0  0  0  0  0  0  0  0  0  0
   -3.2440   12.9566  -31.8282 H   0  0  0  0  0  0  0  0  0  0  0  0
   -5.6068   14.7751  -31.4268 H   0  0  0  0  0  0  0  0  0  0  0  0
   -3.8345   15.0867  -31.2477 H   0  0  0  0  0  0  0  0  0  0  0  0
   -4.7565   16.3125  -33.1797 H   0  0  0  0  0  0  0  0  0  0  0  0
   -3.5777   15.0237  -33.6946 H   0  0  0  0  0  0  0  0  0  0  0  0
   -5.6778   17.6634  -35.4961 H   0  0  0  0  0  0  0  0  0  0  0  0
   -5.3031   19.9427  -34.5641 H   0  0  0  0  0  0  0  0  0  0  0  0
   -7.7844   20.8933  -30.9914 H   0  0  0  0  0  0  0  0  0  0  0  0
   -7.3893   23.1696  -30.0574 H   0  0  0  0  0  0  0  0  0  0  0  0
  1  2  2  0
  2  3  2  0
  2  4  1  0
  4  5  1  0
  5  6  2  0
  6  7  1  0
  7  8  2  0
  8  9  1  0
  9 10  2  0
  2 11  1  0
 11 12  2  0
 12 13  1  0
 13 14  2  0
 14 15  1  0
 15 16  2  0
 16 17  1  0
 17 18  2  0
 18 19  1  0
 19 20  1  0
 20 21  1  0
 21 22  1  0
 22 23  1  0
 23 24  1  0
 24 25  1  0
 18 26  1  0
 26 27  2  0
 14 28  1  0
 28 29  2  0
 10  5  1  0
 29 11  1  0
 27 15  1  0
 25 20  1  0
  6 30  1  0
  7 31  1  0
  8 32  1  0
  9 33  1  0
 10 34  1  0
 12 35  1  0
 13 36  1  0
 16 37  1  0
 17 38  1  0
 19 39  1  0
 19 40  1  0
 20 41  1  0
 21 42  1  0
 21 43  1  0
 22 44  1  0
 22 45  1  0
 23 46  1  0
 23 47  1  0
 24 48  1  0
 24 49  1  0
 25 50  1  0
 25 51  1  0
 26 52  1  0
 27 53  1  0
 28 54  1  0
 29 55  1  0
M  CHG  2   4  -1  20   1
M  END
>  <UniqueID>  (3) 
3

>  <SMILES>  (3) 
O=S(=O)([N-]c1ccccc1)c1ccc(-c2ccc(C[NH+]3CCCCC3)cc2)cc1

>  <Energy>  (3) 
74.59963061064097

>  <Genealogy>  (3) 
O=S(=O)([N-]c1ccccc1)c1ccc(-c2ccc(C[NH+]3CCCCC3)cc2)cc1 (protonated)
O=S(=O)([N-]c1ccccc1)c1ccc(-c2ccc(C[NH+]3CCCCC3)cc2)cc1 (3D coordinates assigned)
O=S(=O)([N-]c1ccccc1)c1ccc(-c2ccc(C[NH+]3CCCCC3)cc2)cc1 (nonaromatic ring conformer: 74.59963061064097 kcal/mol)

>  <smiles>  (3) 
O=S(=O)(Nc1ccccc1)c1ccc(-c2ccc(CN3CCCCC3)cc2)cc1

>  <score_type>  (3) 
oracle

>  <origin>  (3) 
adgpu

>  <m_score__min__energy>  (3) 
-10.529999999999999

>  <m_primary>  (3) 
energy

$$$$
3:0
     RDKit          3D

 46 48  0  0  0  0  0  0  0  0999 V2000
   -9.0580   18.5340  -31.6440 C   0  0  0  0  0  0  0  0  0  0  0  0
   -7.6450   18.5430  -32.1620 C   0  0  0  0  0  0  0  0  0  0  0  0
   -6.8130   17.4280  -31.9600 C   0  0  0  0  0  0  0  0  0  0  0  0
   -5.4970   17.4370  -32.4300 C   0  0  0  0  0  0  0  0  0  0  0  0
   -5.0060   18.5490  -33.1180 C   0  0  0  0  0  0  0  0  0  0  0  0
   -5.8250   19.6610  -33.3260 C   0  0  0  0  0  0  0  0  0  0  0  0
   -7.1400   19.6740  -32.8370 C   0  0  0  0  0  0  0  0  0  0  0  0
   -7.9800   20.8100  -33.0590 N   0  0  0  0  0  0  0  0  0  0  0  0
   -8.3660   21.9390  -31.8040 S   0  0  0  0  0  0  0  0  0  0  0  0
   -9.3660   22.9310  -32.3290 O   0  0  0  0  0  0  0  0  0  0  0  0
   -8.9890   21.2040  -30.6500 O   0  0  0  0  0  0  0  0  0  0  0  0
   -6.9310   22.8060  -31.2660 C   0  0  0  0  0  0  0  0  0  0  0  0
   -7.0400   24.1240  -30.8050 C   0  0  0  0  0  0  0  0  0  0  0  0
   -5.8980   24.8300  -30.4180 C   0  0  0  0  0  0  0  0  0  0  0  0
   -4.6330   24.2250  -30.4770 C   0  0  0  0  0  0  0  0  0  0  0  0
   -3.4690   24.9870  -30.1170 N   0  0  0  0  0  0  0  0  0  0  0  0
   -2.7840   24.8940  -28.8580 C   0  0  0  0  0  0  0  0  0  0  0  0
   -3.5950   24.4480  -27.4950 S   0  0  0  0  0  0  0  0  0  0  0  0
   -1.3920   25.2480  -28.8000 N   0  0  0  0  0  0  0  0  0  0  0  0
   -0.6880   25.5730  -27.5910 C   0  0  0  0  0  0  0  0  0  0  0  0
   -1.3320   26.3030  -26.5760 C   0  0  0  0  0  0  0  0  0  0  0  0
   -0.6390   26.6710  -25.4210 C   0  0  0  0  0  0  0  0  0  0  0  0
    0.7040   26.3210  -25.2690 C   0  0  0  0  0  0  0  0  0  0  0  0
    1.3570   25.6060  -26.2760 C   0  0  0  0  0  0  0  0  0  0  0  0
    0.6720   25.2310  -27.4390 C   0  0  0  0  0  0  0  0  0  0  0  0
    1.3590   24.5050  -28.4130 O   0  0  0  0  0  0  0  0  0  0  0  0
   -4.5250   22.9100  -30.9650 C   0  0  0  0  0  0  0  0  0  0  0  0
   -5.6670   22.2040  -31.3500 C   0  0  0  0  0  0  0  0  0  0  0  0
   -9.0453   18.5341  -30.5441 H   0  0  0  0  0  0  0  0  0  0  0  0
   -9.5865   19.4288  -32.0047 H   0  0  0  0  0  0  0  0  0  0  0  0
   -9.5750   17.6325  -32.0047 H   0  0  0  0  0  0  0  0  0  0  0  0
   -7.1994   16.5450  -31.4299 H   0  0  0  0  0  0  0  0  0  0  0  0
   -4.8466   16.5668  -32.2578 H   0  0  0  0  0  0  0  0  0  0  0  0
   -3.9731   18.5489  -33.4964 H   0  0  0  0  0  0  0  0  0  0  0  0
   -5.4371   20.5311  -33.8760 H   0  0  0  0  0  0  0  0  0  0  0  0
   -8.0277   24.6048  -30.7474 H   0  0  0  0  0  0  0  0  0  0  0  0
   -5.9911   25.8675  -30.0645 H   0  0  0  0  0  0  0  0  0  0  0  0
   -3.1020   25.6750  -30.8130 H   0  0  0  0  0  0  0  0  0  0  0  0
   -0.8600   25.2700  -29.6990 H   0  0  0  0  0  0  0  0  0  0  0  0
   -2.3886   26.5859  -26.6928 H   0  0  0  0  0  0  0  0  0  0  0  0
   -1.1519   27.2375  -24.6298 H   0  0  0  0  0  0  0  0  0  0  0  0
    1.2477   26.6081  -24.3568 H   0  0  0  0  0  0  0  0  0  0  0  0
    2.4163   25.3356  -26.1548 H   0  0  0  0  0  0  0  0  0  0  0  0
    2.0700   24.9160  -29.0040 H   0  0  0  0  0  0  0  0  0  0  0  0
   -3.5359   22.4352  -31.0438 H   0  0  0  0  0  0  0  0  0  0  0  0
   -5.5747   21.1723  -31.7204 H   0  0  0  0  0  0  0  0  0  0  0  0
  1  2  1  0
  2  3  2  0
  3  4  1  0
  4  5  2  0
  5  6  1  0
  6  7  2  0
  7  8  1  0
  8  9  1  0
  9 10  2  0
  9 11  2  0
  9 12  1  0
 12 13  2  0
 13 14  1  0
 14 15  2  0
 15 16  1  0
 16 17  1  0
 17 18  2  0
 17 19  1  0
 19 20  1  0
 20 21  2  0
 21 22  1  0
 22 23  2  0
 23 24  1  0
 24 25  2  0
 25 26  1  0
 15 27  1  0
 27 28  2  0
  7  2  1  0
 28 12  1  0
 25 20  1  0
  1 29  1  0
  1 30  1  0
  1 31  1  0
  3 32  1  0
  4 33  1  0
  5 34  1  0
  6 35  1  0
 13 36  1  0
 14 37  1  0
 16 38  1  0
 19 39  1  0
 21 40  1  0
 22 41  1  0
 23 42  1  0
 24 43  1  0
 26 44  1  0
 27 45  1  0
 28 46  1  0
M  CHG  1   8  -1
M  END
>  <UniqueID>  (4) 
4

>  <SMILES>  (4) 
Cc1ccccc1[N-]S(=O)(=O)c1ccc(NC(=S)Nc2ccccc2O)cc1

>  <Energy>  (4) 
68.76214877856421

>  <Genealogy>  (4) 
Cc1ccccc1[N-]S(=O)(=O)c1ccc(NC(=S)Nc2ccccc2O)cc1 (protonated)
Cc1ccccc1[N-]S(=O)(=O)c1ccc(NC(=S)Nc2ccccc2O)cc1 (3D coordinates assigned)
Cc1ccccc1[N-]S(=O)(=O)c1ccc(NC(=S)Nc2ccccc2O)cc1 (optimized conformer: 68.76214877856421 kcal/mol)

>  <smiles>  (4) 
Cc1ccccc1NS(=O)(=O)c1ccc(NC(=S)Nc2ccccc2O)cc1

>  <score_type>  (4) 
oracle

>  <origin>  (4) 
adgpu

>  <m_score__min__energy>  (4) 
-10.65

>  <m_primary>  (4) 
energy

$$$$
4:0
     RDKit          3D

 65 68  0  0  0  0  0  0  0  0999 V2000
   -7.1430   17.9910  -31.5970 C   0  0  0  0  0  0  0  0  0  0  0  0
   -7.7530   19.1790  -32.2170 N   0  0  0  0  0  0  0  0  0  0  0  0
   -9.1900   18.9690  -32.4590 C   0  0  0  0  0  0  0  0  0  0  0  0
   -7.0290   19.6310  -33.4250 C   0  0  0  0  0  0  0  0  0  0  0  0
   -5.5230   19.6490  -33.2670 C   0  0  0  0  0  0  0  0  0  0  0  0
   -4.8850   20.7690  -32.7080 C   0  0  0  0  0  0  0  0  0  0  0  0
   -3.4970   20.7880  -32.5490 C   0  0  0  0  0  0  0  0  0  0  0  0
   -2.7260   19.6880  -32.9340 C   0  0  0  0  0  0  0  0  0  0  0  0
   -1.3020   19.7560  -32.7740 N   0  0  0  0  0  0  0  0  0  0  0  0
   -0.5820   20.8550  -32.1960 C   0  0  0  0  0  0  0  0  0  0  0  0
    0.2600   21.4640  -32.9120 O   0  0  0  0  0  0  0  0  0  0  0  0
   -0.8250   21.3030  -30.7970 C   0  0  0  0  0  0  0  0  0  0  0  0
   -1.0080   20.3780  -29.7570 C   0  0  0  0  0  0  0  0  0  0  0  0
   -1.2610   20.8110  -28.4570 C   0  0  0  0  0  0  0  0  0  0  0  0
   -1.3830   22.1820  -28.1690 C   0  0  0  0  0  0  0  0  0  0  0  0
   -1.6470   22.6110  -26.8180 N   0  0  0  0  0  0  0  0  0  0  0  0
   -0.8020   23.5240  -26.0980 C   0  0  0  0  0  0  0  0  0  0  0  0
   -1.3240   24.6900  -25.5040 C   0  0  0  0  0  0  0  0  0  0  0  0
   -0.4900   25.5460  -24.7780 C   0  0  0  0  0  0  0  0  0  0  0  0
    0.8710   25.2580  -24.6550 C   0  0  0  0  0  0  0  0  0  0  0  0
    1.4020   24.1220  -25.2710 C   0  0  0  0  0  0  0  0  0  0  0  0
    0.5700   23.2580  -25.9910 C   0  0  0  0  0  0  0  0  0  0  0  0
   -1.1950   23.1290  -29.2020 C   0  0  0  0  0  0  0  0  0  0  0  0
   -1.3660   24.5890  -28.9670 C   0  0  0  0  0  0  0  0  0  0  0  0
   -0.4610   25.2360  -28.3690 O   0  0  0  0  0  0  0  0  0  0  0  0
   -2.5740   25.2690  -29.3280 N   0  0  0  0  0  0  0  0  0  0  0  0
   -3.8250   24.6270  -29.6220 C   0  0  0  0  0  0  0  0  0  0  0  0
   -4.6870   25.2040  -30.5640 C   0  0  0  0  0  0  0  0  0  0  0  0
   -5.9290   24.6220  -30.8360 C   0  0  0  0  0  0  0  0  0  0  0  0
   -6.3030   23.4170  -30.2050 C   0  0  0  0  0  0  0  0  0  0  0  0
   -7.5280   22.7710  -30.4630 O   0  0  0  0  0  0  0  0  0  0  0  0
   -8.1530   22.6720  -31.7420 C   0  0  0  0  0  0  0  0  0  0  0  0
   -7.2090   22.4320  -32.7270 F   0  0  0  0  0  0  0  0  0  0  0  0
   -8.8390   23.8410  -32.0220 F   0  0  0  0  0  0  0  0  0  0  0  0
   -9.0500   21.6220  -31.7220 F   0  0  0  0  0  0  0  0  0  0  0  0
   -5.4200   22.8240  -29.2930 C   0  0  0  0  0  0  0  0  0  0  0  0
   -4.1910   23.4260  -28.9950 C   0  0  0  0  0  0  0  0  0  0  0  0
   -0.9160   22.6760  -30.5040 C   0  0  0  0  0  0  0  0  0  0  0  0
   -3.3570   18.5690  -33.5050 C   0  0  0  0  0  0  0  0  0  0  0  0
   -4.7450   18.5520  -33.6720 C   0  0  0  0  0  0  0  0  0  0  0  0
   -7.1906   18.0836  -30.5019 H   0  0  0  0  0  0  0  0  0  0  0  0
   -7.6903   17.0907  -31.9129 H   0  0  0  0  0  0  0  0  0  0  0  0
   -6.0924   17.9111  -31.9129 H   0  0  0  0  0  0  0  0  0  0  0  0
   -9.7165   18.8921  -31.4963 H   0  0  0  0  0  0  0  0  0  0  0  0
   -9.5934   19.8177  -33.0308 H   0  0  0  0  0  0  0  0  0  0  0  0
   -9.3337   18.0403  -33.0308 H   0  0  0  0  0  0  0  0  0  0  0  0
   -7.2822   18.9539  -34.2541 H   0  0  0  0  0  0  0  0  0  0  0  0
   -7.3424   20.6680  -33.6158 H   0  0  0  0  0  0  0  0  0  0  0  0
   -5.4826   21.6372  -32.3932 H   0  0  0  0  0  0  0  0  0  0  0  0
   -3.0082   21.6742  -32.1181 H   0  0  0  0  0  0  0  0  0  0  0  0
   -0.9511   19.3004  -29.9705 H   0  0  0  0  0  0  0  0  0  0  0  0
   -1.3663   20.0731  -27.6480 H   0  0  0  0  0  0  0  0  0  0  0  0
   -2.5300   22.2910  -26.3610 H   0  0  0  0  0  0  0  0  0  0  0  0
   -2.3925   24.9281  -25.6118 H   0  0  0  0  0  0  0  0  0  0  0  0
   -0.9062   26.4469  -24.3034 H   0  0  0  0  0  0  0  0  0  0  0  0
    1.5244   25.9251  -24.0736 H   0  0  0  0  0  0  0  0  0  0  0  0
    2.4776   23.9063  -25.1896 H   0  0  0  0  0  0  0  0  0  0  0  0
    0.9943   22.3661  -26.4752 H   0  0  0  0  0  0  0  0  0  0  0  0
   -4.3849   26.1201  -31.0926 H   0  0  0  0  0  0  0  0  0  0  0  0
   -6.6172   25.1057  -31.5448 H   0  0  0  0  0  0  0  0  0  0  0  0
   -5.6946   21.8765  -28.8063 H   0  0  0  0  0  0  0  0  0  0  0  0
   -3.5115   22.9567  -28.2683 H   0  0  0  0  0  0  0  0  0  0  0  0
   -0.7659   23.4100  -31.3094 H   0  0  0  0  0  0  0  0  0  0  0  0
   -2.7564   17.7035  -33.8216 H   0  0  0  0  0  0  0  0  0  0  0  0
   -5.2306   17.6742  -34.1233 H   0  0  0  0  0  0  0  0  0  0  0  0
  1  2  1  0
  2  3  1  0
  2  4  1  0
  4  5  1  0
  5  6  2  0
  6  7  1  0
  7  8  2  0
  8  9  1  0
  9 10  1  0
 10 11  2  0
 10 12  1  0
 12 13  2  0
 13 14  1  0
 14 15  2  0
 15 16  1  0
 16 17  1  0
 17 18  2  0
 18 19  1  0
 19 20  2  0
 20 21  1  0
 21 22  2  0
 15 23  1  0
 23 24  1  0
 24 25  2  0
 24 26  1  0
 26 27  1  0
 27 28  2  0
 28 29  1  0
 29 30  2  0
 30 31  1  0
 31 32  1  0
 32 33  1  0
 32 34  1  0
 32 35  1  0
 30 36  1  0
 36 37  2  0
 23 38  2  0
  8 39  1  0
 39 40  2  0
 40  5  1  0
 38 12  1  0
 22 17  1  0
 37 27  1  0
  1 41  1  0
  1 42  1  0
  1 43  1  0
  3 44  1  0
  3 45  1  0
  3 46  1  0
  4 47  1  0
  4 48  1  0
  6 49  1  0
  7 50  1  0
 13 51  1  0
 14 52  1  0
 16 53  1  0
 18 54  1  0
 19 55  1  0
 20 56  1  0
 21 57  1  0
 22 58  1  0
 28 59  1  0
 29 60  1  0
 36 61  1  0
 37 62  1  0
 38 63  1  0
 39 64  1  0
 40 65  1  0
M  CHG  2   9  -1  26  -1
M  END
>  <UniqueID>  (5) 
5

>  <SMILES>  (5) 
CN(C)Cc1ccc([N-]C(=O)c2ccc(Nc3ccccc3)c(C(=O)[N-]c3ccc(OC(F)(F)F)cc3)c2)cc1

>  <Energy>  (5) 
94.00136922545613

>  <Genealogy>  (5) 
CN(C)Cc1ccc([N-]C(=O)c2ccc(Nc3ccccc3)c(C(=O)[N-]c3ccc(OC(F)(F)F)cc3)c2)cc1 (protonated)
CN(C)Cc1ccc([N-]C(=O)c2ccc(Nc3ccccc3)c(C(=O)[N-]c3ccc(OC(F)(F)F)cc3)c2)cc1 (3D coordinates assigned)
CN(C)Cc1ccc([N-]C(=O)c2ccc(Nc3ccccc3)c(C(=O)[N-]c3ccc(OC(F)(F)F)cc3)c2)cc1 (optimized conformer: 94.00136922545613 kcal/mol)

>  <smiles>  (5) 
CN(C)Cc1ccc(NC(=O)c2ccc(Nc3ccccc3)c(C(=O)Nc3ccc(OC(F)(F)F)cc3)c2)cc1

>  <score_type>  (5) 
oracle

>  <origin>  (5) 
adgpu

>  <m_score__min__energy>  (5) 
-11.51

>  <m_primary>  (5) 
energy

$$$$
5:0
     RDKit          3D

 47 50  0  0  0  0  0  0  0  0999 V2000
   -1.7620   21.3850  -32.7890 C   0  0  0  0  0  0  0  0  0  0  0  0
   -3.1040   20.7390  -32.7080 C   0  0  0  0  0  0  0  0  0  0  0  0
   -3.2740   19.4690  -33.1510 N   0  0  0  0  0  0  0  0  0  0  0  0
   -4.4930   18.8670  -33.1330 C   0  0  0  0  0  0  0  0  0  0  0  0
   -4.5870   17.4790  -33.6140 C   0  0  0  0  0  0  0  0  0  0  0  0
   -5.6720   16.6700  -33.2460 C   0  0  0  0  0  0  0  0  0  0  0  0
   -5.7700   15.3630  -33.7320 C   0  0  0  0  0  0  0  0  0  0  0  0
   -4.7930   14.8610  -34.5950 C   0  0  0  0  0  0  0  0  0  0  0  0
   -3.7100   15.6650  -34.9780 C   0  0  0  0  0  0  0  0  0  0  0  0
   -2.4900   15.0460  -36.0850 S   0  0  0  0  0  0  0  0  0  0  0  0
   -3.1130   15.0660  -37.6970 N   0  0  0  0  0  0  0  0  0  0  0  0
   -2.1240   13.6380  -35.7070 O   0  0  0  0  0  0  0  0  0  0  0  0
   -1.2560   15.9020  -36.0090 O   0  0  0  0  0  0  0  0  0  0  0  0
   -3.6170   16.9780  -34.4960 C   0  0  0  0  0  0  0  0  0  0  0  0
   -5.6140   19.5760  -32.6450 C   0  0  0  0  0  0  0  0  0  0  0  0
   -5.4090   20.8880  -32.1690 C   0  0  0  0  0  0  0  0  0  0  0  0
   -4.1670   21.4380  -32.2370 N   0  0  0  0  0  0  0  0  0  0  0  0
   -6.5110   21.6590  -31.6390 N   0  0  0  0  0  0  0  0  0  0  0  0
   -6.2860   22.9680  -31.0870 C   0  0  0  0  0  0  0  0  0  0  0  0
   -7.3610   23.7150  -30.5840 C   0  0  0  0  0  0  0  0  0  0  0  0
   -7.1430   24.9860  -30.0420 C   0  0  0  0  0  0  0  0  0  0  0  0
   -5.8500   25.5150  -29.9970 C   0  0  0  0  0  0  0  0  0  0  0  0
   -4.7720   24.7750  -30.4920 C   0  0  0  0  0  0  0  0  0  0  0  0
   -3.4870   25.3010  -30.4440 O   0  0  0  0  0  0  0  0  0  0  0  0
   -4.9880   23.5030  -31.0350 C   0  0  0  0  0  0  0  0  0  0  0  0
   -7.8310   21.0430  -31.4540 C   0  0  0  0  0  0  0  0  0  0  0  0
   -8.0910   19.9810  -32.5210 C   0  0  0  0  0  0  0  0  0  0  0  0
   -6.9770   18.9330  -32.5130 C   0  0  0  0  0  0  0  0  0  0  0  0
   -1.3814   21.5682  -31.7734 H   0  0  0  0  0  0  0  0  0  0  0  0
   -1.0679   20.7223  -33.3267 H   0  0  0  0  0  0  0  0  0  0  0  0
   -1.8470   22.3409  -33.3267 H   0  0  0  0  0  0  0  0  0  0  0  0
   -6.4476   17.0649  -32.5734 H   0  0  0  0  0  0  0  0  0  0  0  0
   -6.6180   14.7287  -33.4343 H   0  0  0  0  0  0  0  0  0  0  0  0
   -4.8735   13.8319  -34.9752 H   0  0  0  0  0  0  0  0  0  0  0  0
   -2.3050   15.2320  -38.3360 H   0  0  0  0  0  0  0  0  0  0  0  0
   -3.7350   15.9010  -37.7730 H   0  0  0  0  0  0  0  0  0  0  0  0
   -2.7799   17.6186  -34.8105 H   0  0  0  0  0  0  0  0  0  0  0  0
   -8.3792   23.3000  -30.6158 H   0  0  0  0  0  0  0  0  0  0  0  0
   -7.9896   25.5695  -29.6510 H   0  0  0  0  0  0  0  0  0  0  0  0
   -5.6803   26.5151  -29.5715 H   0  0  0  0  0  0  0  0  0  0  0  0
   -4.1389   22.9206  -31.4221 H   0  0  0  0  0  0  0  0  0  0  0  0
   -7.8731   20.5731  -30.4603 H   0  0  0  0  0  0  0  0  0  0  0  0
   -8.5994   21.8252  -31.5419 H   0  0  0  0  0  0  0  0  0  0  0  0
   -9.0531   19.4888  -32.3156 H   0  0  0  0  0  0  0  0  0  0  0  0
   -8.1175   20.4659  -33.5080 H   0  0  0  0  0  0  0  0  0  0  0  0
   -7.0187   18.3734  -31.5669 H   0  0  0  0  0  0  0  0  0  0  0  0
   -7.1275   18.2609  -33.3707 H   0  0  0  0  0  0  0  0  0  0  0  0
  1  2  1  0
  2  3  2  0
  3  4  1  0
  4  5  1  0
  5  6  2  0
  6  7  1  0
  7  8  2  0
  8  9  1  0
  9 10  1  0
 10 11  1  0
 10 12  2  0
 10 13  2  0
  9 14  2  0
  4 15  2  0
 15 16  1  0
 16 17  2  0
 16 18  1  0
 18 19  1  0
 19 20  2  0
 20 21  1  0
 21 22  2  0
 22 23  1  0
 23 24  1  0
 23 25  2  0
 18 26  1  0
 26 27  1  0
 27 28  1  0
 17  2  1  0
 25 19  1  0
 14  5  1  0
 28 15  1  0
  1 29  1  0
  1 30  1  0
  1 31  1  0
  6 32  1  0
  7 33  1  0
  8 34  1  0
 11 35  1  0
 11 36  1  0
 14 37  1  0
 20 38  1  0
 21 39  1  0
 22 40  1  0
 25 41  1  0
 26 42  1  0
 26 43  1  0
 27 44  1  0
 27 45  1  0
 28 46  1  0
 28 47  1  0
M  CHG  1  24  -1
M  END
>  <UniqueID>  (6) 
6

>  <SMILES>  (6) 
Cc1nc(-c2cccc(S(N)(=O)=O)c2)c2c(n1)N(c1cccc([O-])c1)CCC2

>  <Energy>  (6) 
62.64778317181077

>  <Genealogy>  (6) 
Cc1nc(-c2cccc(S(N)(=O)=O)c2)c2c(n1)N(c1cccc([O-])c1)CCC2 (protonated)
Cc1nc(-c2cccc(S(N)(=O)=O)c2)c2c(n1)N(c1cccc([O-])c1)CCC2 (3D coordinates assigned)
Cc1nc(-c2cccc(S(N)(=O)=O)c2)c2c(n1)N(c1cccc([O-])c1)CCC2 (nonaromatic ring conformer: 62.64778317181077 kcal/mol)

>  <smiles>  (6) 
Cc1nc(-c2cccc(S(N)(=O)=O)c2)c2c(n1)N(c1cccc(O)c1)CCC2

>  <score_type>  (6) 
oracle

>  <origin>  (6) 
adgpu

>  <m_score__min__energy>  (6) 
-12.050000000000001

>  <m_primary>  (6) 
energy

$$$$
6:0
     RDKit          3D

 35 37  0  0  0  0  0  0  0  0999 V2000
   -6.8350   15.1780  -34.1650 C   0  0  0  0  0  0  0  0  0  0  0  0
   -6.4620   16.6160  -33.9530 C   0  0  0  0  0  0  0  0  0  0  0  0
   -5.4270   17.1950  -34.7030 C   0  0  0  0  0  0  0  0  0  0  0  0
   -5.1030   18.5440  -34.5320 C   0  0  0  0  0  0  0  0  0  0  0  0
   -5.8130   19.3330  -33.6090 C   0  0  0  0  0  0  0  0  0  0  0  0
   -5.5280   20.6930  -33.4220 O   0  0  0  0  0  0  0  0  0  0  0  0
   -5.1710   21.2900  -32.2030 C   0  0  0  0  0  0  0  0  0  0  0  0
   -5.9380   22.3590  -31.7290 C   0  0  0  0  0  0  0  0  0  0  0  0
   -5.6250   22.9710  -30.5120 C   0  0  0  0  0  0  0  0  0  0  0  0
   -4.5380   22.5160  -29.7490 C   0  0  0  0  0  0  0  0  0  0  0  0
   -4.2220   23.1470  -28.4220 C   0  0  0  0  0  0  0  0  0  0  0  0
   -2.9370   23.9100  -28.5060 C   0  0  0  0  0  0  0  0  0  0  0  0
   -1.6560   23.7750  -27.4200 S   0  0  0  0  0  0  0  0  0  0  0  0
   -0.7700   24.9800  -28.1870 C   0  0  0  0  0  0  0  0  0  0  0  0
    0.3700   25.3640  -27.8210 O   0  0  0  0  0  0  0  0  0  0  0  0
   -1.4170   25.5040  -29.2490 N   0  0  0  0  0  0  0  0  0  0  0  0
   -2.6280   24.9130  -29.4230 C   0  0  0  0  0  0  0  0  0  0  0  0
   -3.4860   25.2960  -30.4450 O   0  0  0  0  0  0  0  0  0  0  0  0
   -3.7860   21.4230  -30.2090 C   0  0  0  0  0  0  0  0  0  0  0  0
   -4.1010   20.8120  -31.4260 C   0  0  0  0  0  0  0  0  0  0  0  0
   -6.8680   18.7610  -32.8900 C   0  0  0  0  0  0  0  0  0  0  0  0
   -7.1930   17.4120  -33.0590 C   0  0  0  0  0  0  0  0  0  0  0  0
   -6.9629   14.6848  -33.1901 H   0  0  0  0  0  0  0  0  0  0  0  0
   -7.7771   15.1231  -34.7301 H   0  0  0  0  0  0  0  0  0  0  0  0
   -6.0384   14.6720  -34.7301 H   0  0  0  0  0  0  0  0  0  0  0  0
   -4.8685   16.5850  -35.4283 H   0  0  0  0  0  0  0  0  0  0  0  0
   -4.2891   18.9906  -35.1220 H   0  0  0  0  0  0  0  0  0  0  0  0
   -6.7936   22.7207  -32.3181 H   0  0  0  0  0  0  0  0  0  0  0  0
   -6.2333   23.8132  -30.1504 H   0  0  0  0  0  0  0  0  0  0  0  0
   -5.0349   23.8337  -28.1433 H   0  0  0  0  0  0  0  0  0  0  0  0
   -4.1216   22.3568  -27.6634 H   0  0  0  0  0  0  0  0  0  0  0  0
   -2.9450   21.0458  -29.6087 H   0  0  0  0  0  0  0  0  0  0  0  0
   -3.5094   19.9537  -31.7773 H   0  0  0  0  0  0  0  0  0  0  0  0
   -7.4463   19.3776  -32.1862 H   0  0  0  0  0  0  0  0  0  0  0  0
   -8.0250   16.9731  -32.4888 H   0  0  0  0  0  0  0  0  0  0  0  0
  1  2  1  0
  2  3  2  0
  3  4  1  0
  4  5  2  0
  5  6  1  0
  6  7  1  0
  7  8  2  0
  8  9  1  0
  9 10  2  0
 10 11  1  0
 11 12  1  0
 12 13  1  0
 13 14  1  0
 14 15  2  0
 14 16  1  0
 16 17  1  0
 17 18  1  0
 10 19  1  0
 19 20  2  0
  5 21  1  0
 21 22  2  0
 22  2  1  0
 20  7  1  0
 17 12  2  0
  1 23  1  0
  1 24  1  0
  1 25  1  0
  3 26  1  0
  4 27  1  0
  8 28  1  0
  9 29  1  0
 11 30  1  0
 11 31  1  0
 19 32  1  0
 20 33  1  0
 21 34  1  0
 22 35  1  0
M  CHG  2  16  -1  18  -1
M  END
>  <UniqueID>  (7) 
7

>  <SMILES>  (7) 
Cc1ccc(Oc2ccc(Cc3sc(=O)[n-]c3[O-])cc2)cc1

>  <Energy>  (7) 
72.28892052671061

>  <Genealogy>  (7) 
Cc1ccc(Oc2ccc(Cc3sc(=O)[n-]c3[O-])cc2)cc1 (protonated)
Cc1ccc(Oc2ccc(Cc3sc(=O)[n-]c3[O-])cc2)cc1 (3D coordinates assigned)
Cc1ccc(Oc2ccc(Cc3sc(=O)[n-]c3[O-])cc2)cc1 (optimized conformer: 72.28892052671061 kcal/mol)

>  <smiles>  (7) 
Cc1ccc(Oc2ccc(Cc3sc(=O)[nH]c3O)cc2)cc1

>  <score_type>  (7) 
oracle

>  <origin>  (7) 
adgpu

>  <m_score__min__energy>  (7) 
-13.02

>  <m_primary>  (7) 
energy

$$$$
7:0
     RDKit          3D

 56 58  0  0  0  0  0  0  0  0999 V2000
   -8.2694   21.2051  -30.8565 H   0  0  0  0  0  0  0  0  0  0  0  0
   -7.4620   20.8860  -31.5320 C   0  0  0  0  0  0  0  0  0  0  0  0
   -6.3960   21.7500  -31.8030 C   0  0  0  0  0  0  0  0  0  0  0  0
   -6.3697   22.7479  -31.3409 H   0  0  0  0  0  0  0  0  0  0  0  0
   -5.3600   21.3510  -32.6610 C   0  0  0  0  0  0  0  0  0  0  0  0
   -4.2310   22.2990  -32.9780 C   0  0  0  0  0  0  0  0  0  0  0  0
   -4.4761   23.2975  -32.5870 H   0  0  0  0  0  0  0  0  0  0  0  0
   -4.0976   22.3414  -34.0691 H   0  0  0  0  0  0  0  0  0  0  0  0
   -2.9700   21.8290  -32.3590 N   0  0  0  0  0  0  0  0  0  0  0  0
   -2.1960   20.8860  -32.9910 C   0  0  0  0  0  0  0  0  0  0  0  0
   -2.5570   20.4420  -34.1180 O   0  0  0  0  0  0  0  0  0  0  0  0
   -1.0380   20.4220  -32.4120 N   0  0  0  0  0  0  0  0  0  0  0  0
   -0.2030   19.4070  -33.1160 C   0  0  0  0  0  0  0  0  0  0  0  0
   -0.7127   19.1630  -34.0598 H   0  0  0  0  0  0  0  0  0  0  0  0
    1.1790   19.9640  -33.4870 C   0  0  0  0  0  0  0  0  0  0  0  0
    1.7414   20.1907  -32.5692 H   0  0  0  0  0  0  0  0  0  0  0  0
    1.7286   19.2171  -34.0788 H   0  0  0  0  0  0  0  0  0  0  0  0
    1.0571   20.8832  -34.0788 H   0  0  0  0  0  0  0  0  0  0  0  0
   -0.0980   18.1050  -32.3090 C   0  0  0  0  0  0  0  0  0  0  0  0
   -0.1167   18.3374  -31.2340 H   0  0  0  0  0  0  0  0  0  0  0  0
   -0.9463   17.4502  -32.5574 H   0  0  0  0  0  0  0  0  0  0  0  0
    0.8442   17.5946  -32.5574 H   0  0  0  0  0  0  0  0  0  0  0  0
   -0.6890   20.8960  -31.1730 C   0  0  0  0  0  0  0  0  0  0  0  0
    0.3450   20.4770  -30.5860 O   0  0  0  0  0  0  0  0  0  0  0  0
   -1.4570   21.8220  -30.5490 N   0  0  0  0  0  0  0  0  0  0  0  0
   -1.1750   22.1160  -29.5880 H   0  0  0  0  0  0  0  0  0  0  0  0
   -2.5840   22.3100  -31.1360 C   0  0  0  0  0  0  0  0  0  0  0  0
   -3.3280   23.1990  -30.5290 N   0  0  0  0  0  0  0  0  0  0  0  0
   -3.0550   23.8850  -29.2980 C   0  0  0  0  0  0  0  0  0  0  0  0
   -1.7860   24.4390  -29.0950 C   0  0  0  0  0  0  0  0  0  0  0  0
   -1.0307   24.3831  -29.8928 H   0  0  0  0  0  0  0  0  0  0  0  0
   -1.4730   25.0630  -27.8840 C   0  0  0  0  0  0  0  0  0  0  0  0
   -0.4811   25.5169  -27.7421 H   0  0  0  0  0  0  0  0  0  0  0  0
   -2.4230   25.1130  -26.8440 C   0  0  0  0  0  0  0  0  0  0  0  0
   -2.1650   25.7300  -25.6080 O   0  0  0  0  0  0  0  0  0  0  0  0
   -0.8910   25.8180  -24.9650 C   0  0  0  0  0  0  0  0  0  0  0  0
   -0.1396   26.1895  -25.6773 H   0  0  0  0  0  0  0  0  0  0  0  0
   -1.0050   26.7810  -23.7850 C   0  0  0  0  0  0  0  0  0  0  0  0
   -0.9382   26.2165  -22.8433 H   0  0  0  0  0  0  0  0  0  0  0  0
   -0.1875   27.5156  -23.8309 H   0  0  0  0  0  0  0  0  0  0  0  0
   -1.9714   27.3044  -23.8309 H   0  0  0  0  0  0  0  0  0  0  0  0
   -0.4460   24.4350  -24.4790 C   0  0  0  0  0  0  0  0  0  0  0  0
   -0.4403   24.4172  -23.3792 H   0  0  0  0  0  0  0  0  0  0  0  0
   -1.1441   23.6723  -24.8544 H   0  0  0  0  0  0  0  0  0  0  0  0
    0.5659   24.2225  -24.8544 H   0  0  0  0  0  0  0  0  0  0  0  0
   -3.6810   24.5300  -27.0420 C   0  0  0  0  0  0  0  0  0  0  0  0
   -4.6030   24.5550  -26.0470 F   0  0  0  0  0  0  0  0  0  0  0  0
   -3.9920   23.9070  -28.2540 C   0  0  0  0  0  0  0  0  0  0  0  0
   -4.9749   23.4323  -28.3898 H   0  0  0  0  0  0  0  0  0  0  0  0
   -5.4070   20.0750  -33.2480 C   0  0  0  0  0  0  0  0  0  0  0  0
   -4.6006   19.7536  -33.9236 H   0  0  0  0  0  0  0  0  0  0  0  0
   -6.4730   19.2120  -32.9780 C   0  0  0  0  0  0  0  0  0  0  0  0
   -6.5030   18.2145  -33.4407 H   0  0  0  0  0  0  0  0  0  0  0  0
   -7.5030   19.6160  -32.1190 C   0  0  0  0  0  0  0  0  0  0  0  0
   -8.6010   18.7280  -31.8420 C   0  0  0  0  0  0  0  0  0  0  0  0
   -9.4850   18.0140  -31.6200 N   0  0  0  0  0  0  0  0  0  0  0  0
  1  2  1  0
  2  3  2  0
  3  4  1  0
  3  5  1  0
  5  6  1  0
  6  7  1  0
  6  8  1  0
  6  9  1  0
  9 10  1  0
 10 11  2  0
 10 12  1  0
 12 13  1  0
 13 14  1  0
 13 15  1  0
 15 16  1  0
 15 17  1  0
 15 18  1  0
 13 19  1  0
 19 20  1  0
 19 21  1  0
 19 22  1  0
 12 23  1  0
 23 24  2  0
 23 25  1  0
 25 26  1  0
 25 27  1  0
 27 28  2  0
 28 29  1  0
 29 30  2  0
 30 31  1  0
 30 32  1  0
 32 33  1  0
 32 34  2  0
 34 35  1  0
 35 36  1  0
 36 37  1  0
 36 38  1  0
 38 39  1  0
 38 40  1  0
 38 41  1  0
 36 42  1  0
 42 43  1  0
 42 44  1  0
 42 45  1  0
 34 46  1  0
 46 47  1  0
 46 48  2  0
 48 49  1  0
  5 50  2  0
 50 51  1  0
 50 52  1  0
 52 53  1  0
 52 54  2  0
 54 55  1  0
 55 56  3  0
 54  2  1  0
 27  9  1  0
 48 29  1  0
M  END
>  <UniqueID>  (8) 
8

>  <SMILES>  (8) 
CC(C)Oc1ccc(/N=c2\[nH]c(=O)n(C(C)C)c(=O)n2Cc2ccc(C#N)cc2)cc1F

>  <Energy>  (8) 
68.86972102663255

>  <Genealogy>  (8) 
CC(C)Oc1ccc(/N=c2\[nH]c(=O)n(C(C)C)c(=O)n2Cc2ccc(C#N)cc2)cc1F (cis-trans isomerization)
CC(C)Oc1ccc(/N=c2\[nH]c(=O)n(C(C)C)c(=O)n2Cc2ccc(C#N)cc2)cc1F (3D coordinates assigned)
CC(C)Oc1ccc(/N=c2\[nH]c(=O)n(C(C)C)c(=O)n2Cc2ccc(C#N)cc2)cc1F (optimized conformer: 68.86972102663255 kcal/mol)

>  <smiles>  (8) 
CC(C)Oc1ccc(N=c2[nH]c(=O)n(C(C)C)c(=O)n2Cc2ccc(C#N)cc2)cc1F

>  <score_type>  (8) 
oracle

>  <origin>  (8) 
adgpu

>  <m_score__min__energy>  (8) 
-8.3800000000000008

>  <m_primary>  (8) 
energy

$$$$
8:0
     RDKit          3D

 54 57  0  0  0  0  0  0  0  0999 V2000
   -2.9420   21.3440  -27.4320 C   0  0  0  0  0  0  0  0  0  0  0  0
   -2.5670   22.6280  -28.1200 C   0  0  0  0  0  0  0  0  0  0  0  0
   -3.5350   23.3480  -28.8390 C   0  0  0  0  0  0  0  0  0  0  0  0
   -3.1830   24.5580  -29.4730 C   0  0  0  0  0  0  0  0  0  0  0  0
   -4.0320   25.2800  -30.1510 N   0  0  0  0  0  0  0  0  0  0  0  0
   -5.3920   24.9770  -30.5100 C   0  0  0  0  0  0  0  0  0  0  0  0
   -6.3270   25.7510  -30.1680 O   0  0  0  0  0  0  0  0  0  0  0  0
   -5.7060   23.7070  -31.2060 C   0  0  0  0  0  0  0  0  0  0  0  0
   -7.0020   23.1610  -31.1480 C   0  0  0  0  0  0  0  0  0  0  0  0
   -7.2930   21.9600  -31.8000 C   0  0  0  0  0  0  0  0  0  0  0  0
   -6.3000   21.2890  -32.5150 C   0  0  0  0  0  0  0  0  0  0  0  0
   -5.0020   21.8130  -32.5820 C   0  0  0  0  0  0  0  0  0  0  0  0
   -3.9410   21.0910  -33.3670 C   0  0  0  0  0  0  0  0  0  0  0  0
   -3.0530   20.3570  -32.4680 N   0  0  0  0  0  0  0  0  0  0  0  0
   -1.7370   20.8290  -32.1330 C   0  0  0  0  0  0  0  0  0  0  0  0
   -1.2830   21.8610  -32.6990 O   0  0  0  0  0  0  0  0  0  0  0  0
   -0.8930   20.1120  -31.1480 C   0  0  0  0  0  0  0  0  0  0  0  0
   -1.2720   20.0180  -29.7970 C   0  0  0  0  0  0  0  0  0  0  0  0
   -0.4640   19.3410  -28.8790 C   0  0  0  0  0  0  0  0  0  0  0  0
    0.7440   18.7500  -29.2880 C   0  0  0  0  0  0  0  0  0  0  0  0
    1.6030   18.0320  -28.3100 C   0  0  0  0  0  0  0  0  0  0  0  0
    2.8830   18.5200  -27.9870 C   0  0  0  0  0  0  0  0  0  0  0  0
    3.6880   17.8440  -27.0660 C   0  0  0  0  0  0  0  0  0  0  0  0
    3.2260   16.6760  -26.4560 C   0  0  0  0  0  0  0  0  0  0  0  0
    1.9580   16.1800  -26.7680 C   0  0  0  0  0  0  0  0  0  0  0  0
    1.1490   16.8530  -27.6900 C   0  0  0  0  0  0  0  0  0  0  0  0
    1.1270   18.8530  -30.6370 C   0  0  0  0  0  0  0  0  0  0  0  0
    0.3190   19.5310  -31.5540 C   0  0  0  0  0  0  0  0  0  0  0  0
   -4.7100   23.0230  -31.9280 C   0  0  0  0  0  0  0  0  0  0  0  0
   -1.9110   25.0210  -29.3440 N   0  0  0  0  0  0  0  0  0  0  0  0
   -0.9570   24.3510  -28.6490 C   0  0  0  0  0  0  0  0  0  0  0  0
   -1.2610   23.1400  -28.0240 C   0  0  0  0  0  0  0  0  0  0  0  0
    0.0010   22.3070  -27.1230 Cl  0  0  0  0  0  0  0  0  0  0  0  0
   -2.9004   21.4863  -26.3420 H   0  0  0  0  0  0  0  0  0  0  0  0
   -3.9620   21.0551  -27.7254 H   0  0  0  0  0  0  0  0  0  0  0  0
   -2.2378   20.5516  -27.7254 H   0  0  0  0  0  0  0  0  0  0  0  0
   -4.5654   22.9692  -28.9076 H   0  0  0  0  0  0  0  0  0  0  0  0
   -7.7905   23.6830  -30.5860 H   0  0  0  0  0  0  0  0  0  0  0  0
   -8.3091   21.5416  -31.7495 H   0  0  0  0  0  0  0  0  0  0  0  0
   -6.5370   20.3452  -33.0279 H   0  0  0  0  0  0  0  0  0  0  0  0
   -4.4208   20.3838  -34.0596 H   0  0  0  0  0  0  0  0  0  0  0  0
   -3.3494   21.8284  -33.9293 H   0  0  0  0  0  0  0  0  0  0  0  0
   -3.3830   19.4340  -32.1090 H   0  0  0  0  0  0  0  0  0  0  0  0
   -2.2114   20.4807  -29.4601 H   0  0  0  0  0  0  0  0  0  0  0  0
   -0.7764   19.2701  -27.8267 H   0  0  0  0  0  0  0  0  0  0  0  0
    3.2525   19.4403  -28.4630 H   0  0  0  0  0  0  0  0  0  0  0  0
    4.6874   18.2328  -26.8212 H   0  0  0  0  0  0  0  0  0  0  0  0
    3.8604   16.1466  -25.7299 H   0  0  0  0  0  0  0  0  0  0  0  0
    1.5951   15.2591  -26.2882 H   0  0  0  0  0  0  0  0  0  0  0  0
    0.1513   16.4579  -27.9319 H   0  0  0  0  0  0  0  0  0  0  0  0
    2.0697   18.3965  -30.9732 H   0  0  0  0  0  0  0  0  0  0  0  0
    0.6358   19.6102  -32.6044 H   0  0  0  0  0  0  0  0  0  0  0  0
   -3.6931   23.4392  -31.9811 H   0  0  0  0  0  0  0  0  0  0  0  0
    0.0601   24.7638  -28.5778 H   0  0  0  0  0  0  0  0  0  0  0  0
  1  2  1  0
  2  3  2  0
  3  4  1  0
  4  5  2  3
  5  6  1  0
  6  7  2  0
  6  8  1  0
  8  9  2  0
  9 10  1  0
 10 11  2  0
 11 12  1  0
 12 13  1  0
 13 14  1  0
 14 15  1  0
 15 16  2  0
 15 17  1  0
 17 18  2  0
 18 19  1  0
 19 20  2  0
 20 21  1  0
 21 22  2  0
 22 23  1  0
 23 24  2  0
 24 25  1  0
 25 26  2  0
 20 27  1  0
 27 28  2  0
 12 29  2  0
  4 30  1  0
 30 31  1  0
 31 32  2  0
 32 33  1  0
 32  2  1  0
 29  8  1  0
 28 17  1  0
 26 21  1  0
  1 34  1  0
  1 35  1  0
  1 36  1  0
  3 37  1  0
  9 38  1  0
 10 39  1  0
 11 40  1  0
 13 41  1  0
 13 42  1  0
 14 43  1  0
 18 44  1  0
 19 45  1  0
 22 46  1  0
 23 47  1  0
 24 48  1  0
 25 49  1  0
 26 50  1  0
 27 51  1  0
 28 52  1  0
 29 53  1  0
 31 54  1  0
M  CHG  1  30  -1
M  END
>  <UniqueID>  (9) 
9

>  <SMILES>  (9) 
Cc1cc(=NC(=O)c2cccc(CNC(=O)c3ccc(-c4ccccc4)cc3)c2)[n-]cc1Cl

>  <Energy>  (9) 
74.00805527330803

>  <Genealogy>  (9) 
Cc1cc(=NC(=O)c2cccc(CNC(=O)c3ccc(-c4ccccc4)cc3)c2)[n-]cc1Cl (protonated)
Cc1cc(=NC(=O)c2cccc(CNC(=O)c3ccc(-c4ccccc4)cc3)c2)[n-]cc1Cl (3D coordinates assigned)
Cc1cc(=NC(=O)c2cccc(CNC(=O)c3ccc(-c4ccccc4)cc3)c2)[n-]cc1Cl (optimized conformer: 74.00805527330803 kcal/mol)

>  <smiles>  (9) 
Cc1cc(=NC(=O)c2cccc(CNC(=O)c3ccc(-c4ccccc4)cc3)c2)[nH]cc1Cl

>  <score_type>  (9) 
oracle

>  <origin>  (9) 
adgpu

>  <m_score__min__energy>  (9) 
-10.609999999999999

>  <m_primary>  (9) 
energy

$$$$
9:0
     RDKit          3D

 52 55  0  0  0  0  0  0  0  0999 V2000
   -3.4910   20.5000  -31.6250 O   0  0  0  0  0  0  0  0  0  0  0  0
   -4.2970   21.3220  -32.1430 C   0  0  0  0  0  0  0  0  0  0  0  0
   -5.0980   20.9050  -33.2600 N   0  0  0  0  0  0  0  0  0  0  0  0
   -5.5200   19.5440  -33.4210 C   0  0  0  0  0  0  0  0  0  0  0  0
   -4.7090   18.6670  -34.1530 C   0  0  0  0  0  0  0  0  0  0  0  0
   -5.0720   17.3280  -34.3080 C   0  0  0  0  0  0  0  0  0  0  0  0
   -6.2580   16.8560  -33.7440 C   0  0  0  0  0  0  0  0  0  0  0  0
   -7.0930   17.7250  -33.0400 C   0  0  0  0  0  0  0  0  0  0  0  0
   -6.7440   19.0760  -32.8770 C   0  0  0  0  0  0  0  0  0  0  0  0
   -7.6740   19.9690  -32.2360 N   0  0  0  0  0  0  0  0  0  0  0  0
   -9.0630   20.0070  -32.7260 C   0  0  0  0  0  0  0  0  0  0  0  0
   -9.8620   21.1630  -32.1220 C   0  0  0  0  0  0  0  0  0  0  0  0
   -9.5290   21.3430  -30.7650 O   0  0  0  0  0  0  0  0  0  0  0  0
   -8.2200   21.8580  -30.6830 C   0  0  0  0  0  0  0  0  0  0  0  0
   -7.1850   20.8230  -31.1400 C   0  0  0  0  0  0  0  0  0  0  0  0
   -4.4320   22.6780  -31.5580 C   0  0  0  0  0  0  0  0  0  0  0  0
   -5.5970   23.4450  -31.7380 C   0  0  0  0  0  0  0  0  0  0  0  0
   -5.7030   24.7130  -31.1630 C   0  0  0  0  0  0  0  0  0  0  0  0
   -4.6600   25.2230  -30.3890 C   0  0  0  0  0  0  0  0  0  0  0  0
   -3.5040   24.4660  -30.1720 C   0  0  0  0  0  0  0  0  0  0  0  0
   -2.4580   25.0260  -29.3680 N   0  0  0  0  0  0  0  0  0  0  0  0
   -1.3550   24.3210  -28.7800 C   0  0  0  0  0  0  0  0  0  0  0  0
   -0.2730   24.9270  -28.5470 O   0  0  0  0  0  0  0  0  0  0  0  0
   -1.4540   22.8660  -28.5070 C   0  0  0  0  0  0  0  0  0  0  0  0
   -2.1870   22.4100  -27.3950 C   0  0  0  0  0  0  0  0  0  0  0  0
   -2.2810   21.0430  -27.1160 C   0  0  0  0  0  0  0  0  0  0  0  0
   -1.6510   20.1150  -27.9450 C   0  0  0  0  0  0  0  0  0  0  0  0
   -0.9280   20.5500  -29.0570 C   0  0  0  0  0  0  0  0  0  0  0  0
   -0.8250   21.9160  -29.3430 C   0  0  0  0  0  0  0  0  0  0  0  0
   -0.1350   22.2940  -30.4480 F   0  0  0  0  0  0  0  0  0  0  0  0
   -3.3830   23.2040  -30.7810 C   0  0  0  0  0  0  0  0  0  0  0  0
   -5.3120   21.5760  -34.0310 H   0  0  0  0  0  0  0  0  0  0  0  0
   -3.7788   19.0365  -34.6093 H   0  0  0  0  0  0  0  0  0  0  0  0
   -4.4228   16.6446  -34.8750 H   0  0  0  0  0  0  0  0  0  0  0  0
   -6.5352   15.7973  -33.8545 H   0  0  0  0  0  0  0  0  0  0  0  0
   -8.0325   17.3488  -32.6090 H   0  0  0  0  0  0  0  0  0  0  0  0
   -9.0488   20.1208  -33.8200 H   0  0  0  0  0  0  0  0  0  0  0  0
   -9.5510   19.0682  -32.4251 H   0  0  0  0  0  0  0  0  0  0  0  0
   -9.6352   22.0864  -32.6750 H   0  0  0  0  0  0  0  0  0  0  0  0
  -10.9341   20.9280  -32.1949 H   0  0  0  0  0  0  0  0  0  0  0  0
   -8.1442   22.7482  -31.3248 H   0  0  0  0  0  0  0  0  0  0  0  0
   -8.0133   22.1162  -29.6339 H   0  0  0  0  0  0  0  0  0  0  0  0
   -6.2853   21.3544  -31.4837 H   0  0  0  0  0  0  0  0  0  0  0  0
   -6.9711   20.1688  -30.2819 H   0  0  0  0  0  0  0  0  0  0  0  0
   -6.4292   23.0438  -32.3350 H   0  0  0  0  0  0  0  0  0  0  0  0
   -6.6120   25.3120  -31.3208 H   0  0  0  0  0  0  0  0  0  0  0  0
   -4.7474   26.2264  -29.9468 H   0  0  0  0  0  0  0  0  0  0  0  0
   -2.6905   23.1358  -26.7395 H   0  0  0  0  0  0  0  0  0  0  0  0
   -2.8527   20.6990  -26.2414 H   0  0  0  0  0  0  0  0  0  0  0  0
   -1.7239   19.0402  -27.7225 H   0  0  0  0  0  0  0  0  0  0  0  0
   -0.4367   19.8153  -29.7118 H   0  0  0  0  0  0  0  0  0  0  0  0
   -2.4590   22.6221  -30.6486 H   0  0  0  0  0  0  0  0  0  0  0  0
  1  2  2  0
  2  3  1  0
  3  4  1  0
  4  5  2  0
  5  6  1  0
  6  7  2  0
  7  8  1  0
  8  9  2  0
  9 10  1  0
 10 11  1  0
 11 12  1  0
 12 13  1  0
 13 14  1  0
 14 15  1  0
  2 16  1  0
 16 17  2  0
 17 18  1  0
 18 19  2  0
 19 20  1  0
 20 21  1  0
 21 22  1  0
 22 23  2  0
 22 24  1  0
 24 25  2  0
 25 26  1  0
 26 27  2  0
 27 28  1  0
 28 29  2  0
 29 30  1  0
 20 31  2  0
  9  4  1  0
 15 10  1  0
 31 16  1  0
 29 24  1  0
  3 32  1  0
  5 33  1  0
  6 34  1  0
  7 35  1  0
  8 36  1  0
 11 37  1  0
 11 38  1  0
 12 39  1  0
 12 40  1  0
 14 41  1  0
 14 42  1  0
 15 43  1  0
 15 44  1  0
 17 45  1  0
 18 46  1  0
 19 47  1  0
 25 48  1  0
 26 49  1  0
 27 50  1  0
 28 51  1  0
 31 52  1  0
M  CHG  1  21  -1
M  END
>  <UniqueID>  (10) 
10

>  <SMILES>  (10) 
O=C(Nc1ccccc1N1CCOCC1)c1cccc([N-]C(=O)c2ccccc2F)c1

>  <Energy>  (10) 
77.20116473862154

>  <Genealogy>  (10) 
O=C(Nc1ccccc1N1CCOCC1)c1cccc([N-]C(=O)c2ccccc2F)c1 (protonated)
O=C(Nc1ccccc1N1CCOCC1)c1cccc([N-]C(=O)c2ccccc2F)c1 (3D coordinates assigned)
O=C(Nc1ccccc1N1CCOCC1)c1cccc([N-]C(=O)c2ccccc2F)c1 (nonaromatic ring conformer: 77.20116473862154 kcal/mol)

>  <smiles>  (10) 
O=C(Nc1ccccc1N1CCOCC1)c1cccc(NC(=O)c2ccccc2F)c1

>  <score_type>  (10) 
oracle

>  <origin>  (10) 
adgpu

>  <m_score__min__energy>  (10) 
-11.539999999999999

>  <m_primary>  (10) 
energy

$$$$
10:0
     RDKit          3D

 45 48  0  0  0  0  0  0  0  0999 V2000
   -6.5890   18.1980  -31.3820 O   0  0  0  0  0  0  0  0  0  0  0  0
   -6.0450   18.3780  -32.5050 C   0  0  0  0  0  0  0  0  0  0  0  0
   -6.1240   19.6690  -33.1420 N   0  0  0  0  0  0  0  0  0  0  0  0
   -6.7240   20.8230  -32.5320 C   0  0  0  0  0  0  0  0  0  0  0  0
   -8.1030   20.8780  -32.2690 C   0  0  0  0  0  0  0  0  0  0  0  0
   -8.6580   22.0010  -31.6520 C   0  0  0  0  0  0  0  0  0  0  0  0
   -7.8440   23.0750  -31.2830 C   0  0  0  0  0  0  0  0  0  0  0  0
   -6.4610   23.0290  -31.5180 C   0  0  0  0  0  0  0  0  0  0  0  0
   -5.5970   24.1630  -31.1240 C   0  0  0  0  0  0  0  0  0  0  0  0
   -6.0510   25.3540  -30.6920 N   0  0  0  0  0  0  0  0  0  0  0  0
   -4.9600   26.0620  -30.4470 N   0  0  0  0  0  0  0  0  0  0  0  0
   -3.8870   25.3360  -30.7160 N   0  0  0  0  0  0  0  0  0  0  0  0
   -4.2520   24.1390  -31.1430 N   0  0  0  0  0  0  0  0  0  0  0  0
   -5.9070   21.8930  -32.1330 C   0  0  0  0  0  0  0  0  0  0  0  0
   -5.3400   17.2430  -33.1490 C   0  0  0  0  0  0  0  0  0  0  0  0
   -4.9120   17.3130  -34.4850 C   0  0  0  0  0  0  0  0  0  0  0  0
   -4.2490   16.2340  -35.0710 C   0  0  0  0  0  0  0  0  0  0  0  0
   -4.0100   15.0600  -34.3450 C   0  0  0  0  0  0  0  0  0  0  0  0
   -3.2440   14.0090  -34.9570 N   0  0  0  0  0  0  0  0  0  0  0  0
   -1.8810   13.7160  -34.5130 C   0  0  0  0  0  0  0  0  0  0  0  0
   -1.7200   12.2010  -34.3520 C   0  0  0  0  0  0  0  0  0  0  0  0
   -2.1220   11.5230  -35.5290 O   0  0  0  0  0  0  0  0  0  0  0  0
   -3.5080   11.7140  -35.7480 C   0  0  0  0  0  0  0  0  0  0  0  0
   -3.8150   13.1890  -36.0270 C   0  0  0  0  0  0  0  0  0  0  0  0
   -4.4710   14.9590  -33.0120 C   0  0  0  0  0  0  0  0  0  0  0  0
   -4.3190   13.7460  -32.2540 N   0  0  0  0  0  0  0  0  0  0  0  0
   -3.2930   13.5520  -31.5690 O   0  0  0  0  0  0  0  0  0  0  0  0
   -5.2230   12.7210  -32.4030 O   0  0  0  0  0  0  0  0  0  0  0  0
   -5.1230   16.0580  -32.4260 C   0  0  0  0  0  0  0  0  0  0  0  0
   -5.7810   19.7760  -34.1220 H   0  0  0  0  0  0  0  0  0  0  0  0
   -8.7483   20.0327  -32.5503 H   0  0  0  0  0  0  0  0  0  0  0  0
   -9.7396   22.0402  -31.4558 H   0  0  0  0  0  0  0  0  0  0  0  0
   -8.2891   23.9607  -30.8061 H   0  0  0  0  0  0  0  0  0  0  0  0
   -4.8215   21.8416  -32.3036 H   0  0  0  0  0  0  0  0  0  0  0  0
   -5.1005   18.2236  -35.0727 H   0  0  0  0  0  0  0  0  0  0  0  0
   -3.9101   16.3061  -36.1150 H   0  0  0  0  0  0  0  0  0  0  0  0
   -1.1630   14.0852  -35.2601 H   0  0  0  0  0  0  0  0  0  0  0  0
   -1.6904   14.2129  -33.5503 H   0  0  0  0  0  0  0  0  0  0  0  0
   -0.6642   11.9707  -34.1462 H   0  0  0  0  0  0  0  0  0  0  0  0
   -2.3552   11.8662  -33.5187 H   0  0  0  0  0  0  0  0  0  0  0  0
   -3.8235   11.1101  -36.6115 H   0  0  0  0  0  0  0  0  0  0  0  0
   -4.0543   11.4042  -34.8449 H   0  0  0  0  0  0  0  0  0  0  0  0
   -3.3725   13.4812  -36.9908 H   0  0  0  0  0  0  0  0  0  0  0  0
   -4.9040   13.3392  -36.0674 H   0  0  0  0  0  0  0  0  0  0  0  0
   -5.4690   15.9890  -31.3841 H   0  0  0  0  0  0  0  0  0  0  0  0
  1  2  2  0
  2  3  1  0
  3  4  1  0
  4  5  2  0
  5  6  1  0
  6  7  2  0
  7  8  1  0
  8  9  1  0
  9 10  1  0
 10 11  2  0
 11 12  1  0
 12 13  1  0
  8 14  2  0
  2 15  1  0
 15 16  2  0
 16 17  1  0
 17 18  2  0
 18 19  1  0
 19 20  1  0
 20 21  1  0
 21 22  1  0
 22 23  1  0
 23 24  1  0
 18 25  1  0
 25 26  1  0
 26 27  2  0
 26 28  1  0
 25 29  2  0
 14  4  1  0
 29 15  1  0
 13  9  2  0
 24 19  1  0
  3 30  1  0
  5 31  1  0
  6 32  1  0
  7 33  1  0
 14 34  1  0
 16 35  1  0
 17 36  1  0
 20 37  1  0
 20 38  1  0
 21 39  1  0
 21 40  1  0
 23 41  1  0
 23 42  1  0
 24 43  1  0
 24 44  1  0
 29 45  1  0
M  CHG  3  12  -1  26   1  28  -1
M  END
>  <UniqueID>  (11) 
11

>  <SMILES>  (11) 
O=C(Nc1cccc(-c2nn[n-]n2)c1)c1ccc(N2CCOCC2)c([N+](=O)[O-])c1

>  <Energy>  (11) 
105.14826156368181

>  <Genealogy>  (11) 
O=C(Nc1cccc(-c2nn[n-]n2)c1)c1ccc(N2CCOCC2)c([N+](=O)[O-])c1 (protonated)
O=C(Nc1cccc(-c2nn[n-]n2)c1)c1ccc(N2CCOCC2)c([N+](=O)[O-])c1 (3D coordinates assigned)
O=C(Nc1cccc(-c2nn[n-]n2)c1)c1ccc(N2CCOCC2)c([N+](=O)[O-])c1 (nonaromatic ring conformer: 105.14826156368181 kcal/mol)

>  <smiles>  (11) 
O=C(Nc1cccc(-c2nn[nH]n2)c1)c1ccc(N2CCOCC2)c([N+](=O)[O-])c1

>  <score_type>  (11) 
oracle

>  <origin>  (11) 
adgpu

>  <m_score__min__energy>  (11) 
-9.5999999999999996

>  <m_primary>  (11) 
energy

$$$$
11:0
     RDKit          3D

 45 47  0  0  0  0  0  0  0  0999 V2000
   -7.8400   21.1150  -31.9370 C   0  0  0  0  0  0  0  0  0  0  0  0
   -7.5520   19.8710  -32.7210 C   0  0  0  0  0  0  0  0  0  0  0  0
   -8.1830   18.8170  -32.4440 O   0  0  0  0  0  0  0  0  0  0  0  0
   -6.5510   19.8300  -33.7480 N   0  0  0  0  0  0  0  0  0  0  0  0
   -5.1510   19.5780  -33.5710 C   0  0  0  0  0  0  0  0  0  0  0  0
   -4.3590   20.5570  -32.9590 C   0  0  0  0  0  0  0  0  0  0  0  0
   -2.9970   20.3340  -32.7420 C   0  0  0  0  0  0  0  0  0  0  0  0
   -2.4060   19.1200  -33.1370 C   0  0  0  0  0  0  0  0  0  0  0  0
   -1.0120   18.8530  -32.9160 N   0  0  0  0  0  0  0  0  0  0  0  0
   -0.0730   19.7000  -32.2390 C   0  0  0  0  0  0  0  0  0  0  0  0
    0.8410   20.2460  -32.9110 O   0  0  0  0  0  0  0  0  0  0  0  0
   -0.1630   19.9770  -30.7860 C   0  0  0  0  0  0  0  0  0  0  0  0
    0.1730   18.9640  -29.8760 C   0  0  0  0  0  0  0  0  0  0  0  0
    0.0770   19.1860  -28.5040 C   0  0  0  0  0  0  0  0  0  0  0  0
   -0.3570   20.4200  -28.0180 C   0  0  0  0  0  0  0  0  0  0  0  0
   -0.4440   20.6060  -26.6420 O   0  0  0  0  0  0  0  0  0  0  0  0
   -0.6920   21.4580  -28.9090 C   0  0  0  0  0  0  0  0  0  0  0  0
   -1.2010   22.7820  -28.3760 C   0  0  0  0  0  0  0  0  0  0  0  0
   -2.5240   23.1450  -29.0090 C   0  0  0  0  0  0  0  0  0  0  0  0
   -3.5140   22.1600  -29.1730 C   0  0  0  0  0  0  0  0  0  0  0  0
   -4.7280   22.4690  -29.7890 C   0  0  0  0  0  0  0  0  0  0  0  0
   -4.9730   23.7680  -30.2500 C   0  0  0  0  0  0  0  0  0  0  0  0
   -6.1820   24.0820  -30.8680 O   0  0  0  0  0  0  0  0  0  0  0  0
   -3.9990   24.7590  -30.0850 C   0  0  0  0  0  0  0  0  0  0  0  0
   -4.2440   26.0490  -30.5380 O   0  0  0  0  0  0  0  0  0  0  0  0
   -2.7790   24.4540  -29.4660 C   0  0  0  0  0  0  0  0  0  0  0  0
   -1.8300   25.4570  -29.3020 O   0  0  0  0  0  0  0  0  0  0  0  0
   -0.5650   21.2380  -30.2990 C   0  0  0  0  0  0  0  0  0  0  0  0
   -0.8080   22.2780  -31.1920 O   0  0  0  0  0  0  0  0  0  0  0  0
   -3.2090   18.1190  -33.7020 C   0  0  0  0  0  0  0  0  0  0  0  0
   -2.6540   16.8950  -34.0550 O   0  0  0  0  0  0  0  0  0  0  0  0
   -4.5730   18.3450  -33.9150 C   0  0  0  0  0  0  0  0  0  0  0  0
   -7.7881   20.8908  -30.8614 H   0  0  0  0  0  0  0  0  0  0  0  0
   -7.0967   21.8863  -32.1870 H   0  0  0  0  0  0  0  0  0  0  0  0
   -8.8467   21.4812  -32.1870 H   0  0  0  0  0  0  0  0  0  0  0  0
   -4.8127   21.5092  -32.6466 H   0  0  0  0  0  0  0  0  0  0  0  0
   -2.3845   21.1105  -32.2605 H   0  0  0  0  0  0  0  0  0  0  0  0
    0.5148   17.9870  -30.2484 H   0  0  0  0  0  0  0  0  0  0  0  0
    0.3447   18.3843  -27.8000 H   0  0  0  0  0  0  0  0  0  0  0  0
   -1.3320   22.7053  -27.2865 H   0  0  0  0  0  0  0  0  0  0  0  0
   -0.4678   23.5647  -28.6205 H   0  0  0  0  0  0  0  0  0  0  0  0
   -3.3302   21.1370  -28.8128 H   0  0  0  0  0  0  0  0  0  0  0  0
   -5.4943   21.6896  -29.9125 H   0  0  0  0  0  0  0  0  0  0  0  0
   -6.3890   25.0230  -31.1820 H   0  0  0  0  0  0  0  0  0  0  0  0
   -5.1965   17.5524  -34.3545 H   0  0  0  0  0  0  0  0  0  0  0  0
  1  2  1  0
  2  3  2  0
  2  4  1  0
  4  5  1  0
  5  6  2  0
  6  7  1  0
  7  8  2  0
  8  9  1  0
  9 10  1  0
 10 11  2  0
 10 12  1  0
 12 13  2  0
 13 14  1  0
 14 15  2  0
 15 16  1  0
 15 17  1  0
 17 18  1  0
 18 19  1  0
 19 20  2  0
 20 21  1  0
 21 22  2  0
 22 23  1  0
 22 24  1  0
 24 25  1  0
 24 26  2  0
 26 27  1  0
 17 28  2  0
 28 29  1  0
  8 30  1  0
 30 31  1  0
 30 32  2  0
 32  5  1  0
 28 12  1  0
 26 19  1  0
  1 33  1  0
  1 34  1  0
  1 35  1  0
  6 36  1  0
  7 37  1  0
 13 38  1  0
 14 39  1  0
 18 40  1  0
 18 41  1  0
 20 42  1  0
 21 43  1  0
 23 44  1  0
 32 45  1  0
M  CHG  7   4  -1   9  -1  16  -1  25  -1  27  -1  29  -1  31  -1
M  END
>  <UniqueID>  (12) 
12

>  <SMILES>  (12) 
CC(=O)[N-]c1ccc([N-]C(=O)c2ccc([O-])c(Cc3ccc(O)c([O-])c3[O-])c2[O-])c([O-])c1

>  <Energy>  (12) 
58.86659224326119

>  <Genealogy>  (12) 
CC(=O)[N-]c1ccc([N-]C(=O)c2ccc([O-])c(Cc3ccc(O)c([O-])c3[O-])c2[O-])c([O-])c1 (protonated)
CC(=O)[N-]c1ccc([N-]C(=O)c2ccc([O-])c(Cc3ccc(O)c([O-])c3[O-])c2[O-])c([O-])c1 (3D coordinates assigned)
CC(=O)[N-]c1ccc([N-]C(=O)c2ccc([O-])c(Cc3ccc(O)c([O-])c3[O-])c2[O-])c([O-])c1 (optimized conformer: 58.86659224326119 kcal/mol)

>  <smiles>  (12) 
CC(=O)Nc1ccc(NC(=O)c2ccc(O)c(Cc3ccc(O)c(O)c3O)c2O)c(O)c1

>  <score_type>  (12) 
oracle

>  <origin>  (12) 
adgpu

>  <m_score__min__energy>  (12) 
-14.59

>  <m_primary>  (12) 
energy

$$$$
12:0
     RDKit          3D

 46 48  0  0  0  0  0  0  0  0999 V2000
   -9.0710   19.3360  -31.2540 C   0  0  0  0  0  0  0  0  0  0  0  0
   -8.3590   20.2770  -32.1810 C   0  0  0  0  0  0  0  0  0  0  0  0
   -8.3880   20.0360  -33.4190 O   0  0  0  0  0  0  0  0  0  0  0  0
   -7.6270   21.4710  -31.6790 C   0  0  0  0  0  0  0  0  0  0  0  0
   -6.7250   22.1730  -32.5020 C   0  0  0  0  0  0  0  0  0  0  0  0
   -6.0360   23.2860  -32.0130 C   0  0  0  0  0  0  0  0  0  0  0  0
   -6.2360   23.7200  -30.6970 C   0  0  0  0  0  0  0  0  0  0  0  0
   -5.3260   25.0980  -30.0880 S   0  0  0  0  0  0  0  0  0  0  0  0
   -5.5840   25.3110  -28.6220 O   0  0  0  0  0  0  0  0  0  0  0  0
   -5.7390   26.3270  -30.8450 O   0  0  0  0  0  0  0  0  0  0  0  0
   -3.6360   24.8110  -30.3380 N   0  0  0  0  0  0  0  0  0  0  0  0
   -3.0280   23.5140  -30.2960 C   0  0  0  0  0  0  0  0  0  0  0  0
   -2.5090   22.9750  -29.1050 C   0  0  0  0  0  0  0  0  0  0  0  0
   -1.9630   21.6880  -29.0980 C   0  0  0  0  0  0  0  0  0  0  0  0
   -1.9460   20.9250  -30.2670 C   0  0  0  0  0  0  0  0  0  0  0  0
   -2.4680   21.4520  -31.4560 C   0  0  0  0  0  0  0  0  0  0  0  0
   -2.5740   20.4620  -32.9070 S   0  0  0  0  0  0  0  0  0  0  0  0
   -2.0960   19.0630  -32.6360 O   0  0  0  0  0  0  0  0  0  0  0  0
   -1.7180   21.0760  -33.9780 O   0  0  0  0  0  0  0  0  0  0  0  0
   -4.2240   20.4040  -33.4470 N   0  0  0  0  0  0  0  0  0  0  0  0
   -5.0820   19.2700  -33.2300 C   0  0  0  0  0  0  0  0  0  0  0  0
   -5.3510   18.8510  -31.9170 C   0  0  0  0  0  0  0  0  0  0  0  0
   -6.1630   17.7380  -31.6800 C   0  0  0  0  0  0  0  0  0  0  0  0
   -6.7200   17.0370  -32.7520 C   0  0  0  0  0  0  0  0  0  0  0  0
   -6.4690   17.4500  -34.0620 C   0  0  0  0  0  0  0  0  0  0  0  0
   -5.6600   18.5650  -34.3030 C   0  0  0  0  0  0  0  0  0  0  0  0
   -2.9850   22.7540  -31.4690 C   0  0  0  0  0  0  0  0  0  0  0  0
   -7.1390   23.0360  -29.8750 C   0  0  0  0  0  0  0  0  0  0  0  0
   -7.8280   21.9210  -30.3600 C   0  0  0  0  0  0  0  0  0  0  0  0
   -8.8584   19.6170  -30.2120 H   0  0  0  0  0  0  0  0  0  0  0  0
  -10.1545   19.3925  -31.4353 H   0  0  0  0  0  0  0  0  0  0  0  0
   -8.7220   18.3087  -31.4353 H   0  0  0  0  0  0  0  0  0  0  0  0
   -6.5616   21.8424  -33.5383 H   0  0  0  0  0  0  0  0  0  0  0  0
   -5.3327   23.8241  -32.6655 H   0  0  0  0  0  0  0  0  0  0  0  0
   -2.5327   23.5668  -28.1780 H   0  0  0  0  0  0  0  0  0  0  0  0
   -1.5453   21.2750  -28.1680 H   0  0  0  0  0  0  0  0  0  0  0  0
   -1.5227   19.9098  -30.2548 H   0  0  0  0  0  0  0  0  0  0  0  0
   -4.6400   21.2950  -33.7970 H   0  0  0  0  0  0  0  0  0  0  0  0
   -4.9196   19.4026  -31.0687 H   0  0  0  0  0  0  0  0  0  0  0  0
   -6.3635   17.4139  -30.6481 H   0  0  0  0  0  0  0  0  0  0  0  0
   -7.3564   16.1596  -32.5643 H   0  0  0  0  0  0  0  0  0  0  0  0
   -6.9082   16.8975  -34.9057 H   0  0  0  0  0  0  0  0  0  0  0  0
   -5.4742   18.8930  -35.3364 H   0  0  0  0  0  0  0  0  0  0  0  0
   -3.3604   23.1822  -32.4101 H   0  0  0  0  0  0  0  0  0  0  0  0
   -7.3071   23.3774  -28.8429 H   0  0  0  0  0  0  0  0  0  0  0  0
   -8.5342   21.3898  -29.7050 H   0  0  0  0  0  0  0  0  0  0  0  0
  1  2  1  0
  2  3  2  0
  2  4  1  0
  4  5  2  0
  5  6  1  0
  6  7  2  0
  7  8  1  0
  8  9  2  0
  8 10  2  0
  8 11  1  0
 11 12  1  0
 12 13  2  0
 13 14  1  0
 14 15  2  0
 15 16  1  0
 16 17  1  0
 17 18  2  0
 17 19  2  0
 17 20  1  0
 20 21  1  0
 21 22  2  0
 22 23  1  0
 23 24  2  0
 24 25  1  0
 25 26  2  0
 16 27  2  0
  7 28  1  0
 28 29  2  0
 29  4  1  0
 27 12  1  0
 26 21  1  0
  1 30  1  0
  1 31  1  0
  1 32  1  0
  5 33  1  0
  6 34  1  0
 13 35  1  0
 14 36  1  0
 15 37  1  0
 20 38  1  0
 22 39  1  0
 23 40  1  0
 24 41  1  0
 25 42  1  0
 26 43  1  0
 27 44  1  0
 28 45  1  0
 29 46  1  0
M  CHG  1  11  -1
M  END
>  <UniqueID>  (13) 
13

>  <SMILES>  (13) 
CC(=O)c1ccc(S(=O)(=O)[N-]c2cccc(S(=O)(=O)Nc3ccccc3)c2)cc1

>  <Energy>  (13) 
52.8716869154118

>  <Genealogy>  (13) 
CC(=O)c1ccc(S(=O)(=O)[N-]c2cccc(S(=O)(=O)Nc3ccccc3)c2)cc1 (protonated)
CC(=O)c1ccc(S(=O)(=O)[N-]c2cccc(S(=O)(=O)Nc3ccccc3)c2)cc1 (3D coordinates assigned)
CC(=O)c1ccc(S(=O)(=O)[N-]c2cccc(S(=O)(=O)Nc3ccccc3)c2)cc1 (optimized conformer: 52.8716869154118 kcal/mol)

>  <smiles>  (13) 
CC(=O)c1ccc(S(=O)(=O)Nc2cccc(S(=O)(=O)Nc3ccccc3)c2)cc1

>  <score_type>  (13) 
oracle

>  <origin>  (13) 
adgpu

>  <m_score__min__energy>  (13) 
-11.99

>  <m_primary>  (13) 
energy

$$$$
13:0
     RDKit          3D

 59 61  0  0  0  0  0  0  0  0999 V2000
   -3.1030   18.9370  -26.3060 C   0  0  0  0  0  0  0  0  0  0  0  0
   -2.3700   19.6050  -27.4670 C   0  0  0  0  0  0  0  0  0  0  0  0
   -2.0340   21.0010  -27.1480 N   0  0  0  0  0  0  0  0  0  0  0  0
   -1.2270   21.2850  -25.9500 C   0  0  0  0  0  0  0  0  0  0  0  0
   -0.5100   22.6260  -26.0830 C   0  0  0  0  0  0  0  0  0  0  0  0
   -2.4970   22.0750  -28.0020 C   0  0  0  0  0  0  0  0  0  0  0  0
   -1.9090   22.2890  -29.2610 C   0  0  0  0  0  0  0  0  0  0  0  0
   -2.3470   23.3310  -30.0840 C   0  0  0  0  0  0  0  0  0  0  0  0
   -3.3960   24.1680  -29.6690 C   0  0  0  0  0  0  0  0  0  0  0  0
   -3.8550   25.2640  -30.4730 N   0  0  0  0  0  0  0  0  0  0  0  0
   -5.2190   25.6150  -30.7240 C   0  0  0  0  0  0  0  0  0  0  0  0
   -5.7830   26.4500  -29.9670 O   0  0  0  0  0  0  0  0  0  0  0  0
   -5.9660   24.9470  -31.7500 N   0  0  0  0  0  0  0  0  0  0  0  0
   -6.1690   23.5320  -31.8760 C   0  0  0  0  0  0  0  0  0  0  0  0
   -5.1160   22.7430  -32.3530 C   0  0  0  0  0  0  0  0  0  0  0  0
   -5.2800   21.3630  -32.5110 C   0  0  0  0  0  0  0  0  0  0  0  0
   -6.5090   20.7620  -32.2130 C   0  0  0  0  0  0  0  0  0  0  0  0
   -6.7170   19.0230  -32.3890 S   0  0  0  0  0  0  0  0  0  0  0  0
   -6.7280   18.3790  -31.0310 O   0  0  0  0  0  0  0  0  0  0  0  0
   -8.0270   18.7200  -33.0610 O   0  0  0  0  0  0  0  0  0  0  0  0
   -5.3960   18.3830  -33.3600 C   0  0  0  0  0  0  0  0  0  0  0  0
   -5.6760   17.5820  -34.4740 C   0  0  0  0  0  0  0  0  0  0  0  0
   -4.6340   17.0960  -35.2680 C   0  0  0  0  0  0  0  0  0  0  0  0
   -3.3080   17.4010  -34.9500 C   0  0  0  0  0  0  0  0  0  0  0  0
   -3.0140   18.1900  -33.8230 C   0  0  0  0  0  0  0  0  0  0  0  0
   -1.6680   18.5480  -33.4710 N   0  0  0  0  0  0  0  0  0  0  0  0
   -1.2450   19.7620  -32.8370 C   0  0  0  0  0  0  0  0  0  0  0  0
   -1.6890   21.0720  -33.3940 C   0  0  0  0  0  0  0  0  0  0  0  0
   -0.5850   19.7360  -31.7640 O   0  0  0  0  0  0  0  0  0  0  0  0
   -4.0650   18.6960  -33.0470 C   0  0  0  0  0  0  0  0  0  0  0  0
   -7.5700   21.5490  -31.7510 C   0  0  0  0  0  0  0  0  0  0  0  0
   -7.4070   22.9280  -31.5910 C   0  0  0  0  0  0  0  0  0  0  0  0
   -3.9680   23.9720  -28.4090 C   0  0  0  0  0  0  0  0  0  0  0  0
   -3.5320   22.9320  -27.5840 C   0  0  0  0  0  0  0  0  0  0  0  0
   -2.6962   19.3077  -25.3536 H   0  0  0  0  0  0  0  0  0  0  0  0
   -4.1754   19.1748  -26.3640 H   0  0  0  0  0  0  0  0  0  0  0  0
   -2.9655   17.8472  -26.3640 H   0  0  0  0  0  0  0  0  0  0  0  0
   -1.4427   19.0504  -27.6731 H   0  0  0  0  0  0  0  0  0  0  0  0
   -3.0293   19.5967  -28.3475 H   0  0  0  0  0  0  0  0  0  0  0  0
   -1.8864   21.3146  -25.0700 H   0  0  0  0  0  0  0  0  0  0  0  0
   -0.4727   20.4922  -25.8377 H   0  0  0  0  0  0  0  0  0  0  0  0
   -0.2952   23.0278  -25.0818 H   0  0  0  0  0  0  0  0  0  0  0  0
    0.4330   22.4848  -26.6315 H   0  0  0  0  0  0  0  0  0  0  0  0
   -1.1511   23.3318  -26.6315 H   0  0  0  0  0  0  0  0  0  0  0  0
   -1.0966   21.6304  -29.6018 H   0  0  0  0  0  0  0  0  0  0  0  0
   -1.8682   23.4960  -31.0605 H   0  0  0  0  0  0  0  0  0  0  0  0
   -4.1531   23.2113  -32.6053 H   0  0  0  0  0  0  0  0  0  0  0  0
   -4.4414   20.7484  -32.8702 H   0  0  0  0  0  0  0  0  0  0  0  0
   -6.7182   17.3349  -34.7245 H   0  0  0  0  0  0  0  0  0  0  0  0
   -4.8581   16.4718  -36.1456 H   0  0  0  0  0  0  0  0  0  0  0  0
   -2.4915   17.0230  -35.5828 H   0  0  0  0  0  0  0  0  0  0  0  0
   -1.9225   21.7610  -32.5689 H   0  0  0  0  0  0  0  0  0  0  0  0
   -0.8854   21.4990  -34.0120 H   0  0  0  0  0  0  0  0  0  0  0  0
   -2.5866   20.9224  -34.0120 H   0  0  0  0  0  0  0  0  0  0  0  0
   -3.8447   19.3437  -32.1856 H   0  0  0  0  0  0  0  0  0  0  0  0
   -8.5363   21.0804  -31.5128 H   0  0  0  0  0  0  0  0  0  0  0  0
   -8.2494   23.5428  -31.2411 H   0  0  0  0  0  0  0  0  0  0  0  0
   -4.7687   24.6425  -28.0636 H   0  0  0  0  0  0  0  0  0  0  0  0
   -4.0013   22.7820  -26.6005 H   0  0  0  0  0  0  0  0  0  0  0  0
  1  2  1  0
  2  3  1  0
  3  4  1  0
  4  5  1  0
  3  6  1  0
  6  7  2  0
  7  8  1  0
  8  9  2  0
  9 10  1  0
 10 11  1  0
 11 12  2  0
 11 13  1  0
 13 14  1  0
 14 15  2  0
 15 16  1  0
 16 17  2  0
 17 18  1  0
 18 19  2  0
 18 20  2  0
 18 21  1  0
 21 22  2  0
 22 23  1  0
 23 24  2  0
 24 25  1  0
 25 26  1  0
 26 27  1  0
 27 28  1  0
 27 29  2  0
 25 30  2  0
 17 31  1  0
 31 32  2  0
  9 33  1  0
 33 34  2  0
 34  6  1  0
 32 14  1  0
 30 21  1  0
  1 35  1  0
  1 36  1  0
  1 37  1  0
  2 38  1  0
  2 39  1  0
  4 40  1  0
  4 41  1  0
  5 42  1  0
  5 43  1  0
  5 44  1  0
  7 45  1  0
  8 46  1  0
 15 47  1  0
 16 48  1  0
 22 49  1  0
 23 50  1  0
 24 51  1  0
 28 52  1  0
 28 53  1  0
 28 54  1  0
 30 55  1  0
 31 56  1  0
 32 57  1  0
 33 58  1  0
 34 59  1  0
M  CHG  3  10  -1  13  -1  26  -1
M  END
>  <UniqueID>  (14) 
14

>  <SMILES>  (14) 
CCN(CC)c1ccc([N-]C(=O)[N-]c2ccc(S(=O)(=O)c3cccc([N-]C(C)=O)c3)cc2)cc1

>  <Energy>  (14) 
68.60802618833442

>  <Genealogy>  (14) 
CCN(CC)c1ccc([N-]C(=O)[N-]c2ccc(S(=O)(=O)c3cccc([N-]C(C)=O)c3)cc2)cc1 (protonated)
CCN(CC)c1ccc([N-]C(=O)[N-]c2ccc(S(=O)(=O)c3cccc([N-]C(C)=O)c3)cc2)cc1 (3D coordinates assigned)
CCN(CC)c1ccc([N-]C(=O)[N-]c2ccc(S(=O)(=O)c3cccc([N-]C(C)=O)c3)cc2)cc1 (optimized conformer: 68.60802618833442 kcal/mol)

>  <smiles>  (14) 
CCN(CC)c1ccc(NC(=O)Nc2ccc(S(=O)(=O)c3cccc(NC(C)=O)c3)cc2)cc1

>  <score_type>  (14) 
oracle

>  <origin>  (14) 
adgpu

>  <m_score__min__energy>  (14) 
-12.109999999999999

>  <m_primary>  (14) 
energy

$$$$
14:0
     RDKit          3D

 45 48  0  0  0  0  0  0  0  0999 V2000
   -5.6980   25.4650  -30.3050 C   0  0  0  0  0  0  0  0  0  0  0  0
   -5.1230   24.1010  -30.5060 C   0  0  0  0  0  0  0  0  0  0  0  0
   -3.8370   23.8760  -30.8400 N   0  0  0  0  0  0  0  0  0  0  0  0
   -3.6820   22.5700  -31.0100 N   0  0  0  0  0  0  0  0  0  0  0  0
   -2.4340   21.9500  -31.3820 C   0  0  0  0  0  0  0  0  0  0  0  0
   -1.3950   21.8110  -30.4410 C   0  0  0  0  0  0  0  0  0  0  0  0
   -0.1830   21.2160  -30.8030 C   0  0  0  0  0  0  0  0  0  0  0  0
    0.0080   20.7520  -32.1060 C   0  0  0  0  0  0  0  0  0  0  0  0
    1.1850   20.1750  -32.4540 F   0  0  0  0  0  0  0  0  0  0  0  0
   -1.0110   20.8860  -33.0500 C   0  0  0  0  0  0  0  0  0  0  0  0
   -2.2270   21.4820  -32.6970 C   0  0  0  0  0  0  0  0  0  0  0  0
   -3.2030   21.5770  -33.6340 F   0  0  0  0  0  0  0  0  0  0  0  0
   -4.8620   21.9470  -30.8020 C   0  0  0  0  0  0  0  0  0  0  0  0
   -5.8080   22.8980  -30.4790 C   0  0  0  0  0  0  0  0  0  0  0  0
   -7.2750   22.6640  -30.2400 C   0  0  0  0  0  0  0  0  0  0  0  0
   -8.0620   22.7350  -31.4990 N   0  0  2  0  0  0  0  0  0  0  0  0
   -9.3310   21.9810  -31.3990 C   0  0  0  0  0  0  0  0  0  0  0  0
   -9.1080   20.4730  -31.1930 C   0  0  0  0  0  0  0  0  0  0  0  0
   -8.0110   19.9270  -32.0710 C   0  0  0  0  0  0  0  0  0  0  0  0
   -7.8400   18.5370  -32.1670 C   0  0  0  0  0  0  0  0  0  0  0  0
   -6.7940   18.0040  -32.9240 C   0  0  0  0  0  0  0  0  0  0  0  0
   -6.6390   16.6610  -33.0160 F   0  0  0  0  0  0  0  0  0  0  0  0
   -5.9060   18.8560  -33.5860 C   0  0  0  0  0  0  0  0  0  0  0  0
   -6.0600   20.2410  -33.4890 C   0  0  0  0  0  0  0  0  0  0  0  0
   -7.0990   20.7870  -32.7190 C   0  0  0  0  0  0  0  0  0  0  0  0
   -7.2910   22.2850  -32.6820 C   0  0  0  0  0  0  0  0  0  0  0  0
   -5.7849   25.6712  -29.2280 H   0  0  0  0  0  0  0  0  0  0  0  0
   -5.0386   26.2130  -30.7695 H   0  0  0  0  0  0  0  0  0  0  0  0
   -6.6939   25.5152  -30.7695 H   0  0  0  0  0  0  0  0  0  0  0  0
   -1.5386   22.1738  -29.4125 H   0  0  0  0  0  0  0  0  0  0  0  0
    0.6217   21.1131  -30.0601 H   0  0  0  0  0  0  0  0  0  0  0  0
   -0.8577   20.5214  -34.0764 H   0  0  0  0  0  0  0  0  0  0  0  0
   -5.0391   20.8640  -30.8774 H   0  0  0  0  0  0  0  0  0  0  0  0
   -7.4077   21.6673  -29.7938 H   0  0  0  0  0  0  0  0  0  0  0  0
   -7.6398   23.4531  -29.5660 H   0  0  0  0  0  0  0  0  0  0  0  0
   -8.3240   23.7350  -31.6630 H   0  0  0  0  0  0  0  0  0  0  0  0
   -9.9068   22.3717  -30.5470 H   0  0  0  0  0  0  0  0  0  0  0  0
   -9.8719   22.1114  -32.3479 H   0  0  0  0  0  0  0  0  0  0  0  0
   -8.8388   20.2965  -30.1411 H   0  0  0  0  0  0  0  0  0  0  0  0
  -10.0410   19.9569  -31.4635 H   0  0  0  0  0  0  0  0  0  0  0  0
   -8.5339   17.8634  -31.6429 H   0  0  0  0  0  0  0  0  0  0  0  0
   -5.0844   18.4354  -34.1844 H   0  0  0  0  0  0  0  0  0  0  0  0
   -5.3634   20.9073  -34.0188 H   0  0  0  0  0  0  0  0  0  0  0  0
   -6.3019   22.7659  -32.6609 H   0  0  0  0  0  0  0  0  0  0  0  0
   -7.8628   22.5684  -33.5780 H   0  0  0  0  0  0  0  0  0  0  0  0
  1  2  1  0
  2  3  2  0
  3  4  1  0
  4  5  1  0
  5  6  2  0
  6  7  1  0
  7  8  2  0
  8  9  1  0
  8 10  1  0
 10 11  2  0
 11 12  1  0
  4 13  1  0
 13 14  2  0
 14 15  1  0
 15 16  1  0
 16 17  1  0
 17 18  1  0
 18 19  1  0
 19 20  2  0
 20 21  1  0
 21 22  1  0
 21 23  2  0
 23 24  1  0
 24 25  2  0
 25 26  1  0
 14  2  1  0
 26 16  1  0
 11  5  1  0
 25 19  1  0
  1 27  1  0
  1 28  1  0
  1 29  1  0
  6 30  1  0
  7 31  1  0
 10 32  1  0
 13 33  1  0
 15 34  1  0
 15 35  1  0
 16 36  1  6
 17 37  1  0
 17 38  1  0
 18 39  1  0
 18 40  1  0
 20 41  1  0
 23 42  1  0
 24 43  1  0
 26 44  1  0
 26 45  1  0
M  CHG  1  16   1
M  END
>  <UniqueID>  (15) 
15

>  <SMILES>  (15) 
Cc1nn(-c2ccc(F)cc2F)cc1C[N@@H+]1CCc2cc(F)ccc2C1

>  <Energy>  (15) 
86.43465388287925

>  <Genealogy>  (15) 
Cc1nn(-c2ccc(F)cc2F)cc1C[NH+]1CCc2cc(F)ccc2C1 (protonated)
Cc1nn(-c2ccc(F)cc2F)cc1C[N@@H+]1CCc2cc(F)ccc2C1 (chirality)
Cc1nn(-c2ccc(F)cc2F)cc1C[N@@H+]1CCc2cc(F)ccc2C1 (3D coordinates assigned)
Cc1nn(-c2ccc(F)cc2F)cc1C[N@@H+]1CCc2cc(F)ccc2C1 (nonaromatic ring conformer: 86.43465388287925 kcal/mol)

>  <smiles>  (15) 
Cc1nn(-c2ccc(F)cc2F)cc1CN1CCc2cc(F)ccc2C1

>  <score_type>  (15) 
oracle

>  <origin>  (15) 
adgpu

>  <m_score__min__energy>  (15) 
-7.9900000000000002

>  <m_primary>  (15) 
energy

$$$$
15:0
     RDKit          3D

 25 26  0  0  0  0  0  0  0  0999 V2000
   -1.3400   21.5360  -25.7820 O   0  0  0  0  0  0  0  0  0  0  0  0
   -0.8200   22.5730  -26.2720 C   0  0  0  0  0  0  0  0  0  0  0  0
    0.4080   23.0550  -25.7100 N   0  0  0  0  0  0  0  0  0  0  0  0
    0.5960   24.3030  -25.0270 C   0  0  0  0  0  0  0  0  0  0  0  0
   -0.4910   25.0370  -24.5170 C   0  0  0  0  0  0  0  0  0  0  0  0
   -0.2730   26.2580  -23.8700 C   0  0  0  0  0  0  0  0  0  0  0  0
    1.0250   26.7610  -23.7430 C   0  0  0  0  0  0  0  0  0  0  0  0
    1.2350   27.9460  -23.1180 F   0  0  0  0  0  0  0  0  0  0  0  0
    2.1060   26.0480  -24.2700 C   0  0  0  0  0  0  0  0  0  0  0  0
    1.8900   24.8270  -24.9160 C   0  0  0  0  0  0  0  0  0  0  0  0
   -1.5170   23.2870  -27.3690 C   0  0  0  0  0  0  0  0  0  0  0  0
   -2.6790   22.7380  -27.9400 C   0  0  0  0  0  0  0  0  0  0  0  0
   -3.3430   23.4060  -28.9720 C   0  0  0  0  0  0  0  0  0  0  0  0
   -2.8620   24.6320  -29.4390 C   0  0  0  0  0  0  0  0  0  0  0  0
   -3.5260   25.2900  -30.4680 O   0  0  0  0  0  0  0  0  0  0  0  0
   -1.7150   25.1960  -28.8670 C   0  0  0  0  0  0  0  0  0  0  0  0
   -1.2370   26.4200  -29.3220 O   0  0  0  0  0  0  0  0  0  0  0  0
   -1.0490   24.5290  -27.8340 C   0  0  0  0  0  0  0  0  0  0  0  0
   -1.5146   24.6497  -24.6274 H   0  0  0  0  0  0  0  0  0  0  0  0
   -1.1237   26.8227  -23.4609 H   0  0  0  0  0  0  0  0  0  0  0  0
    3.1265   26.4477  -24.1764 H   0  0  0  0  0  0  0  0  0  0  0  0
    2.7417   24.2746  -25.3397 H   0  0  0  0  0  0  0  0  0  0  0  0
   -3.0675   21.7769  -27.5720 H   0  0  0  0  0  0  0  0  0  0  0  0
   -4.2469   22.9656  -29.4181 H   0  0  0  0  0  0  0  0  0  0  0  0
   -0.1528   24.9789  -27.3820 H   0  0  0  0  0  0  0  0  0  0  0  0
  1  2  2  0
  2  3  1  0
  3  4  1  0
  4  5  2  0
  5  6  1  0
  6  7  2  0
  7  8  1  0
  7  9  1  0
  9 10  2  0
  2 11  1  0
 11 12  2  0
 12 13  1  0
 13 14  2  0
 14 15  1  0
 14 16  1  0
 16 17  1  0
 16 18  2  0
 10  4  1  0
 18 11  1  0
  5 19  1  0
  6 20  1  0
  9 21  1  0
 10 22  1  0
 12 23  1  0
 13 24  1  0
 18 25  1  0
M  CHG  3   3  -1  15  -1  17  -1
M  END
>  <UniqueID>  (16) 
16

>  <SMILES>  (16) 
O=C([N-]c1ccc(F)cc1)c1ccc([O-])c([O-])c1

>  <Energy>  (16) 
33.25951604699143

>  <Genealogy>  (16) 
O=C([N-]c1ccc(F)cc1)c1ccc([O-])c([O-])c1 (protonated)
O=C([N-]c1ccc(F)cc1)c1ccc([O-])c([O-])c1 (3D coordinates assigned)
O=C([N-]c1ccc(F)cc1)c1ccc([O-])c([O-])c1 (optimized conformer: 33.25951604699143 kcal/mol)

>  <smiles>  (16) 
O=C(Nc1ccc(F)cc1)c1ccc(O)c(O)c1

>  <score_type>  (16) 
oracle

>  <origin>  (16) 
adgpu

>  <m_score__min__energy>  (16) 
-11.300000000000001

>  <m_primary>  (16) 
energy

$$$$
16:0
     RDKit          3D

 41 43  0  0  0  0  0  0  0  0999 V2000
   -4.6050   16.4450  -34.6530 C   0  0  0  0  0  0  0  0  0  0  0  0
   -3.9520   17.6230  -34.0020 C   0  0  0  0  0  0  0  0  0  0  0  0
   -4.6330   18.8420  -33.8660 C   0  0  0  0  0  0  0  0  0  0  0  0
   -4.0000   19.9300  -33.2390 C   0  0  0  0  0  0  0  0  0  0  0  0
   -4.6850   21.2390  -33.0930 C   0  0  0  0  0  0  0  0  0  0  0  0
   -4.1040   22.2950  -33.4650 O   0  0  0  0  0  0  0  0  0  0  0  0
   -6.0520   21.3400  -32.5410 C   0  0  0  0  0  0  0  0  0  0  0  0
   -6.8450   20.1840  -32.4700 C   0  0  0  0  0  0  0  0  0  0  0  0
   -8.1240   20.2340  -31.9070 C   0  0  0  0  0  0  0  0  0  0  0  0
   -9.1010   18.7800  -31.8180 Cl  0  0  0  0  0  0  0  0  0  0  0  0
   -8.6190   21.4400  -31.4080 C   0  0  0  0  0  0  0  0  0  0  0  0
   -7.8390   22.5960  -31.4710 C   0  0  0  0  0  0  0  0  0  0  0  0
   -6.5550   22.5610  -32.0370 C   0  0  0  0  0  0  0  0  0  0  0  0
   -5.7490   23.7470  -32.0400 N   0  0  0  0  0  0  0  0  0  0  0  0
   -5.2110   24.4450  -30.5500 S   0  0  0  0  0  0  0  0  0  0  0  0
   -6.3850   24.9720  -29.7750 O   0  0  0  0  0  0  0  0  0  0  0  0
   -4.2790   25.5870  -30.8440 O   0  0  0  0  0  0  0  0  0  0  0  0
   -4.3510   23.2220  -29.6200 C   0  0  0  0  0  0  0  0  0  0  0  0
   -3.6660   22.1880  -30.2720 C   0  0  0  0  0  0  0  0  0  0  0  0
   -2.9530   21.2400  -29.5320 C   0  0  0  0  0  0  0  0  0  0  0  0
   -2.9200   21.3220  -28.1360 C   0  0  0  0  0  0  0  0  0  0  0  0
   -2.0340   20.1260  -27.2090 Cl  0  0  0  0  0  0  0  0  0  0  0  0
   -3.5940   22.3590  -27.4820 C   0  0  0  0  0  0  0  0  0  0  0  0
   -4.3020   23.3100  -28.2220 C   0  0  0  0  0  0  0  0  0  0  0  0
   -2.7010   19.7530  -32.7300 C   0  0  0  0  0  0  0  0  0  0  0  0
   -2.0650   18.5180  -32.8700 C   0  0  0  0  0  0  0  0  0  0  0  0
   -2.6970   17.4910  -33.4940 N   0  0  0  0  0  0  0  0  0  0  0  0
   -4.9839   15.7615  -33.8788 H   0  0  0  0  0  0  0  0  0  0  0  0
   -5.4412   16.7891  -35.2794 H   0  0  0  0  0  0  0  0  0  0  0  0
   -3.8701   15.9182  -35.2794 H   0  0  0  0  0  0  0  0  0  0  0  0
   -5.6590   18.9464  -34.2487 H   0  0  0  0  0  0  0  0  0  0  0  0
   -6.4573   19.2314  -32.8603 H   0  0  0  0  0  0  0  0  0  0  0  0
   -9.6249   21.4795  -30.9646 H   0  0  0  0  0  0  0  0  0  0  0  0
   -8.2340   23.5426  -31.0736 H   0  0  0  0  0  0  0  0  0  0  0  0
   -5.2680   24.0490  -32.9140 H   0  0  0  0  0  0  0  0  0  0  0  0
   -3.6893   22.1219  -31.3698 H   0  0  0  0  0  0  0  0  0  0  0  0
   -2.4177   20.4292  -30.0478 H   0  0  0  0  0  0  0  0  0  0  0  0
   -3.5667   22.4259  -26.3844 H   0  0  0  0  0  0  0  0  0  0  0  0
   -4.8224   24.1301  -27.7057 H   0  0  0  0  0  0  0  0  0  0  0  0
   -2.1882   20.5841  -32.2237 H   0  0  0  0  0  0  0  0  0  0  0  0
   -1.0487   18.3766  -32.4735 H   0  0  0  0  0  0  0  0  0  0  0  0
  1  2  1  0
  2  3  2  0
  3  4  1  0
  4  5  1  0
  5  6  2  0
  5  7  1  0
  7  8  2  0
  8  9  1  0
  9 10  1  0
  9 11  2  0
 11 12  1  0
 12 13  2  0
 13 14  1  0
 14 15  1  0
 15 16  2  0
 15 17  2  0
 15 18  1  0
 18 19  2  0
 19 20  1  0
 20 21  2  0
 21 22  1  0
 21 23  1  0
 23 24  2  0
  4 25  2  0
 25 26  1  0
 26 27  2  0
 27  2  1  0
 13  7  1  0
 24 18  1  0
  1 28  1  0
  1 29  1  0
  1 30  1  0
  3 31  1  0
  8 32  1  0
 11 33  1  0
 12 34  1  0
 14 35  1  0
 19 36  1  0
 20 37  1  0
 23 38  1  0
 24 39  1  0
 25 40  1  0
 26 41  1  0
M  END
>  <UniqueID>  (17) 
17

>  <SMILES>  (17) 
Cc1cc(C(=O)c2cc(Cl)ccc2NS(=O)(=O)c2ccc(Cl)cc2)ccn1

>  <Energy>  (17) 
52.83080164375622

>  <Genealogy>  (17) 
Cc1cc(C(=O)c2cc(Cl)ccc2NS(=O)(=O)c2ccc(Cl)cc2)ccn1 (3D coordinates assigned)
Cc1cc(C(=O)c2cc(Cl)ccc2NS(=O)(=O)c2ccc(Cl)cc2)ccn1 (optimized conformer: 52.83080164375622 kcal/mol)

>  <smiles>  (17) 
Cc1cc(C(=O)c2cc(Cl)ccc2NS(=O)(=O)c2ccc(Cl)cc2)ccn1

>  <score_type>  (17) 
oracle

>  <origin>  (17) 
adgpu

>  <m_score__min__energy>  (17) 
-10.609999999999999

>  <m_primary>  (17) 
energy

$$$$
17:0
     RDKit          3D

 48 51  0  0  0  0  0  0  0  0999 V2000
   -7.1870   24.8040  -29.6490 C   0  0  0  0  0  0  0  0  0  0  0  0
   -5.9090   24.2550  -30.3300 C   0  0  1  0  0  0  0  0  0  0  0  0
   -6.1750   23.0080  -31.2020 C   0  0  0  0  0  0  0  0  0  0  0  0
   -7.4770   22.5340  -31.4860 C   0  0  0  0  0  0  0  0  0  0  0  0
   -7.6680   21.3940  -32.2690 C   0  0  0  0  0  0  0  0  0  0  0  0
   -6.5740   20.7050  -32.7900 C   0  0  0  0  0  0  0  0  0  0  0  0
   -5.2720   21.1620  -32.5450 C   0  0  0  0  0  0  0  0  0  0  0  0
   -4.1260   20.4530  -33.0490 N   0  0  0  0  0  0  0  0  0  0  0  0
   -2.7740   20.6850  -32.6180 C   0  0  0  0  0  0  0  0  0  0  0  0
   -1.7370   19.9120  -33.1580 C   0  0  0  0  0  0  0  0  0  0  0  0
   -0.4170   20.1160  -32.7490 C   0  0  0  0  0  0  0  0  0  0  0  0
   -0.1240   21.0800  -31.7810 C   0  0  0  0  0  0  0  0  0  0  0  0
   -1.1510   21.8320  -31.1940 C   0  0  0  0  0  0  0  0  0  0  0  0
   -0.8230   22.8220  -30.2030 N   0  0  0  0  0  0  0  0  0  0  0  0
   -0.2420   22.5120  -28.9250 C   0  0  0  0  0  0  0  0  0  0  0  0
    0.3250   21.4020  -28.7370 O   0  0  0  0  0  0  0  0  0  0  0  0
   -0.2580   23.4950  -27.8300 C   0  0  0  0  0  0  0  0  0  0  0  0
   -0.7550   23.3020  -26.5530 C   0  0  0  0  0  0  0  0  0  0  0  0
   -0.5420   24.4900  -25.8880 C   0  0  0  0  0  0  0  0  0  0  0  0
    0.0710   25.3320  -26.7930 C   0  0  0  0  0  0  0  0  0  0  0  0
    0.2280   24.7100  -27.9390 O   0  0  0  0  0  0  0  0  0  0  0  0
   -2.4770   21.6370  -31.6250 C   0  0  0  0  0  0  0  0  0  0  0  0
   -5.0810   22.2930  -31.7390 C   0  0  0  0  0  0  0  0  0  0  0  0
   -5.2660   25.3840  -31.2000 C   0  0  0  0  0  0  0  0  0  0  0  0
   -3.8620   25.4460  -30.8360 N   0  0  0  0  0  0  0  0  0  0  0  0
   -3.6450   24.6320  -29.7050 C   0  0  0  0  0  0  0  0  0  0  0  0
   -2.5180   24.5340  -29.1520 O   0  0  0  0  0  0  0  0  0  0  0  0
   -4.8510   23.9210  -29.2390 C   0  0  0  0  0  0  0  0  0  0  0  0
   -7.0706   24.7540  -28.5563 H   0  0  0  0  0  0  0  0  0  0  0  0
   -7.3446   25.8492  -29.9535 H   0  0  0  0  0  0  0  0  0  0  0  0
   -8.0536   24.1988  -29.9535 H   0  0  0  0  0  0  0  0  0  0  0  0
   -8.3498   23.0701  -31.0850 H   0  0  0  0  0  0  0  0  0  0  0  0
   -8.6878   21.0374  -32.4760 H   0  0  0  0  0  0  0  0  0  0  0  0
   -6.7330   19.8002  -33.3950 H   0  0  0  0  0  0  0  0  0  0  0  0
   -4.2870   19.7170  -33.7740 H   0  0  0  0  0  0  0  0  0  0  0  0
   -1.9639   19.1402  -33.9082 H   0  0  0  0  0  0  0  0  0  0  0  0
    0.3932   19.5166  -33.1898 H   0  0  0  0  0  0  0  0  0  0  0  0
    0.9196   21.2499  -31.4775 H   0  0  0  0  0  0  0  0  0  0  0  0
   -0.9250   23.8270  -30.4690 H   0  0  0  0  0  0  0  0  0  0  0  0
   -1.2225   22.3905  -26.1524 H   0  0  0  0  0  0  0  0  0  0  0  0
   -0.8072   24.7206  -24.8457 H   0  0  0  0  0  0  0  0  0  0  0  0
    0.3811   26.3669  -26.5861 H   0  0  0  0  0  0  0  0  0  0  0  0
   -3.2878   22.2338  -31.1818 H   0  0  0  0  0  0  0  0  0  0  0  0
   -4.0574   22.6311  -31.5199 H   0  0  0  0  0  0  0  0  0  0  0  0
   -5.3699   25.1442  -32.2685 H   0  0  0  0  0  0  0  0  0  0  0  0
   -5.7625   26.3495  -31.0233 H   0  0  0  0  0  0  0  0  0  0  0  0
   -4.6721   22.8371  -29.1826 H   0  0  0  0  0  0  0  0  0  0  0  0
   -5.1649   24.2231  -28.2289 H   0  0  0  0  0  0  0  0  0  0  0  0
  2  1  1  1
  2  3  1  0
  3  4  2  0
  4  5  1  0
  5  6  2  0
  6  7  1  0
  7  8  1  0
  8  9  1  0
  9 10  2  0
 10 11  1  0
 11 12  2  0
 12 13  1  0
 13 14  1  0
 14 15  1  0
 15 16  2  0
 15 17  1  0
 17 18  2  0
 18 19  1  0
 19 20  2  0
 20 21  1  0
 13 22  2  0
  7 23  2  0
  2 24  1  0
 24 25  1  0
 25 26  1  0
 26 27  2  0
 26 28  1  0
 28  2  1  0
 23  3  1  0
 22  9  1  0
 21 17  1  0
  1 29  1  0
  1 30  1  0
  1 31  1  0
  4 32  1  0
  5 33  1  0
  6 34  1  0
  8 35  1  0
 10 36  1  0
 11 37  1  0
 12 38  1  0
 14 39  1  0
 18 40  1  0
 19 41  1  0
 20 42  1  0
 22 43  1  0
 23 44  1  0
 24 45  1  0
 24 46  1  0
 28 47  1  0
 28 48  1  0
M  CHG  1  25  -1
M  END
>  <UniqueID>  (18) 
18

>  <SMILES>  (18) 
C[C@@]1(c2cccc(Nc3cccc(NC(=O)c4ccco4)c3)c2)C[N-]C(=O)C1

>  <Energy>  (18) 
99.88076520670562

>  <Genealogy>  (18) 
CC1(c2cccc(Nc3cccc(NC(=O)c4ccco4)c3)c2)C[N-]C(=O)C1 (protonated)
C[C@@]1(c2cccc(Nc3cccc(NC(=O)c4ccco4)c3)c2)C[N-]C(=O)C1 (chirality)
C[C@@]1(c2cccc(Nc3cccc(NC(=O)c4ccco4)c3)c2)C[N-]C(=O)C1 (3D coordinates assigned)
C[C@@]1(c2cccc(Nc3cccc(NC(=O)c4ccco4)c3)c2)C[N-]C(=O)C1 (nonaromatic ring conformer: 99.88076520670562 kcal/mol)

>  <smiles>  (18) 
CC1(c2cccc(Nc3cccc(NC(=O)c4ccco4)c3)c2)CNC(=O)C1

>  <score_type>  (18) 
oracle

>  <origin>  (18) 
adgpu

>  <m_score__min__energy>  (18) 
-11.300000000000001

>  <m_primary>  (18) 
energy

$$$$
18:0
     RDKit          3D

 54 57  0  0  0  0  0  0  0  0999 V2000
   -1.5520   25.7540  -28.9630 N   0  0  0  0  0  0  0  0  0  0  0  0
   -2.5580   24.5220  -28.2900 S   0  0  0  0  0  0  0  0  0  0  0  0
   -3.1040   24.9870  -26.9670 O   0  0  0  0  0  0  0  0  0  0  0  0
   -1.7470   23.2760  -28.0690 O   0  0  0  0  0  0  0  0  0  0  0  0
   -3.8850   24.1800  -29.3960 C   0  0  0  0  0  0  0  0  0  0  0  0
   -3.6300   23.5900  -30.6400 C   0  0  0  0  0  0  0  0  0  0  0  0
   -4.6740   23.3680  -31.5410 C   0  0  0  0  0  0  0  0  0  0  0  0
   -5.9850   23.7650  -31.2180 C   0  0  0  0  0  0  0  0  0  0  0  0
   -7.0730   23.6150  -32.1430 N   0  0  0  0  0  0  0  0  0  0  0  0
   -8.1710   22.6960  -32.0520 C   0  0  0  0  0  0  0  0  0  0  0  0
   -9.3350   23.1640  -31.9200 O   0  0  0  0  0  0  0  0  0  0  0  0
   -7.9980   21.2300  -32.1780 C   0  0  0  0  0  0  0  0  0  0  0  0
   -8.8950   20.3590  -31.5360 C   0  0  0  0  0  0  0  0  0  0  0  0
   -8.7290   18.9750  -31.6350 C   0  0  0  0  0  0  0  0  0  0  0  0
   -7.6600   18.4470  -32.3650 C   0  0  0  0  0  0  0  0  0  0  0  0
   -6.7590   19.3030  -33.0100 C   0  0  0  0  0  0  0  0  0  0  0  0
   -5.3630   18.6550  -33.8600 S   0  0  0  0  0  0  0  0  0  0  0  0
   -5.7470   18.3370  -35.2740 O   0  0  0  0  0  0  0  0  0  0  0  0
   -4.8680   17.4080  -33.1860 O   0  0  0  0  0  0  0  0  0  0  0  0
   -4.0970   19.8390  -33.8540 N   0  0  0  0  0  0  0  0  0  0  0  0
   -3.2210   19.9520  -32.7330 C   0  0  0  0  0  0  0  0  0  0  0  0
   -3.7540   20.3230  -31.4950 C   0  0  0  0  0  0  0  0  0  0  0  0
   -2.9120   20.5390  -30.4020 C   0  0  0  0  0  0  0  0  0  0  0  0
   -1.5290   20.3950  -30.5450 C   0  0  0  0  0  0  0  0  0  0  0  0
   -0.4720   20.6920  -29.1800 Cl  0  0  0  0  0  0  0  0  0  0  0  0
   -0.9890   20.0220  -31.7790 C   0  0  0  0  0  0  0  0  0  0  0  0
   -1.8300   19.7960  -32.8850 C   0  0  0  0  0  0  0  0  0  0  0  0
   -1.2460   19.3520  -34.1680 C   0  0  0  0  0  0  0  0  0  0  0  0
   -1.6010   18.2400  -34.6460 O   0  0  0  0  0  0  0  0  0  0  0  0
   -0.2570   20.1760  -34.9020 C   0  0  0  0  0  0  0  0  0  0  0  0
    0.6270   19.5730  -35.8100 C   0  0  0  0  0  0  0  0  0  0  0  0
    1.5490   20.3610  -36.5040 C   0  0  0  0  0  0  0  0  0  0  0  0
    1.5750   21.7060  -36.3150 N   0  0  0  0  0  0  0  0  0  0  0  0
    0.7230   22.3210  -35.4540 C   0  0  0  0  0  0  0  0  0  0  0  0
   -0.2070   21.5700  -34.7310 C   0  0  0  0  0  0  0  0  0  0  0  0
   -6.9540   20.6880  -32.9490 C   0  0  0  0  0  0  0  0  0  0  0  0
   -6.2430   24.3080  -29.9550 C   0  0  0  0  0  0  0  0  0  0  0  0
   -5.1970   24.5270  -29.0520 C   0  0  0  0  0  0  0  0  0  0  0  0
   -1.6010   25.6570  -30.0020 H   0  0  0  0  0  0  0  0  0  0  0  0
   -2.6035   23.3002  -30.9088 H   0  0  0  0  0  0  0  0  0  0  0  0
   -4.4708   22.8812  -32.5063 H   0  0  0  0  0  0  0  0  0  0  0  0
   -9.7324   20.7690  -30.9523 H   0  0  0  0  0  0  0  0  0  0  0  0
   -9.4408   18.2998  -31.1376 H   0  0  0  0  0  0  0  0  0  0  0  0
   -7.5265   17.3572  -32.4328 H   0  0  0  0  0  0  0  0  0  0  0  0
   -4.8413   20.4453  -31.3813 H   0  0  0  0  0  0  0  0  0  0  0  0
   -3.3374   20.8226  -29.4280 H   0  0  0  0  0  0  0  0  0  0  0  0
    0.0994   19.9044  -31.8865 H   0  0  0  0  0  0  0  0  0  0  0  0
    0.5943   18.4859  -35.9745 H   0  0  0  0  0  0  0  0  0  0  0  0
    2.2550   19.8913  -37.2047 H   0  0  0  0  0  0  0  0  0  0  0  0
    0.7655   23.4127  -35.3258 H   0  0  0  0  0  0  0  0  0  0  0  0
   -0.8960   22.0668  -34.0321 H   0  0  0  0  0  0  0  0  0  0  0  0
   -6.2850   21.3581  -33.5089 H   0  0  0  0  0  0  0  0  0  0  0  0
   -7.2741   24.5643  -29.6701 H   0  0  0  0  0  0  0  0  0  0  0  0
   -5.4061   24.9733  -28.0686 H   0  0  0  0  0  0  0  0  0  0  0  0
  1  2  1  0
  2  3  2  0
  2  4  2  0
  2  5  1  0
  5  6  2  0
  6  7  1  0
  7  8  2  0
  8  9  1  0
  9 10  1  0
 10 11  2  0
 10 12  1  0
 12 13  2  0
 13 14  1  0
 14 15  2  0
 15 16  1  0
 16 17  1  0
 17 18  2  0
 17 19  2  0
 17 20  1  0
 20 21  1  0
 21 22  2  0
 22 23  1  0
 23 24  2  0
 24 25  1  0
 24 26  1  0
 26 27  2  0
 27 28  1  0
 28 29  2  0
 28 30  1  0
 30 31  2  0
 31 32  1  0
 32 33  2  0
 33 34  1  0
 34 35  2  0
 16 36  2  0
  8 37  1  0
 37 38  2  0
 38  5  1  0
 36 12  1  0
 27 21  1  0
 35 30  1  0
  1 39  1  0
  6 40  1  0
  7 41  1  0
 13 42  1  0
 14 43  1  0
 15 44  1  0
 22 45  1  0
 23 46  1  0
 26 47  1  0
 31 48  1  0
 32 49  1  0
 34 50  1  0
 35 51  1  0
 36 52  1  0
 37 53  1  0
 38 54  1  0
M  CHG  3   1  -1   9  -1  20  -1
M  END
>  <UniqueID>  (19) 
19

>  <SMILES>  (19) 
[NH-]S(=O)(=O)c1ccc([N-]C(=O)c2cccc(S(=O)(=O)[N-]c3ccc(Cl)cc3C(=O)c3ccncc3)c2)cc1

>  <Energy>  (19) 
79.40665543845797

>  <Genealogy>  (19) 
[NH-]S(=O)(=O)c1ccc([N-]C(=O)c2cccc(S(=O)(=O)[N-]c3ccc(Cl)cc3C(=O)c3ccncc3)c2)cc1 (protonated)
[NH-]S(=O)(=O)c1ccc([N-]C(=O)c2cccc(S(=O)(=O)[N-]c3ccc(Cl)cc3C(=O)c3ccncc3)c2)cc1 (3D coordinates assigned)
[NH-]S(=O)(=O)c1ccc([N-]C(=O)c2cccc(S(=O)(=O)[N-]c3ccc(Cl)cc3C(=O)c3ccncc3)c2)cc1 (optimized conformer: 79.40665543845797 kcal/mol)

>  <smiles>  (19) 
NS(=O)(=O)c1ccc(NC(=O)c2cccc(S(=O)(=O)Nc3ccc(Cl)cc3C(=O)c3ccncc3)c2)cc1

>  <score_type>  (19) 
oracle

>  <origin>  (19) 
adgpu

>  <m_score__min__energy>  (19) 
-13.23

>  <m_primary>  (19) 
energy

$$$$
19:0
     RDKit          3D

 15 15  0  0  0  0  0  0  0  0999 V2000
    0.9810   24.2300  -28.3980 O   0  0  0  0  0  0  0  0  0  0  0  0
   -0.0950   23.7740  -27.9320 C   0  0  0  0  0  0  0  0  0  0  0  0
   -1.3070   23.6310  -28.7680 C   0  0  0  0  0  0  0  0  0  0  0  0
   -1.7580   22.3390  -29.0830 C   0  0  0  0  0  0  0  0  0  0  0  0
   -2.8980   22.1560  -29.8700 C   0  0  0  0  0  0  0  0  0  0  0  0
   -3.6050   23.2580  -30.3550 C   0  0  0  0  0  0  0  0  0  0  0  0
   -4.7390   23.0450  -31.1390 O   0  0  0  0  0  0  0  0  0  0  0  0
   -3.1650   24.5560  -30.0490 C   0  0  0  0  0  0  0  0  0  0  0  0
   -3.8620   25.6610  -30.5270 O   0  0  0  0  0  0  0  0  0  0  0  0
   -2.0230   24.7460  -29.2600 C   0  0  0  0  0  0  0  0  0  0  0  0
   -1.6100   26.0440  -28.9720 O   0  0  0  0  0  0  0  0  0  0  0  0
   -0.1356   23.4736  -26.8746 H   0  0  0  0  0  0  0  0  0  0  0  0
   -1.2090   21.4632  -28.7069 H   0  0  0  0  0  0  0  0  0  0  0  0
   -3.2403   21.1382  -30.1087 H   0  0  0  0  0  0  0  0  0  0  0  0
   -5.3040   23.8110  -31.4860 H   0  0  0  0  0  0  0  0  0  0  0  0
  1  2  2  0
  2  3  1  0
  3  4  2  0
  4  5  1  0
  5  6  2  0
  6  7  1  0
  6  8  1  0
  8  9  1  0
  8 10  2  0
 10 11  1  0
 10  3  1  0
  2 12  1  0
  4 13  1  0
  5 14  1  0
  7 15  1  0
M  CHG  2   9  -1  11  -1
M  END
>  <UniqueID>  (20) 
20

>  <SMILES>  (20) 
O=Cc1ccc(O)c([O-])c1[O-]

>  <Energy>  (20) 
15.6722064117315

>  <Genealogy>  (20) 
O=Cc1ccc(O)c([O-])c1[O-] (protonated)
O=Cc1ccc(O)c([O-])c1[O-] (3D coordinates assigned)
O=Cc1ccc(O)c([O-])c1[O-] (optimized conformer: 15.6722064117315 kcal/mol)

>  <smiles>  (20) 
O=Cc1ccc(O)c(O)c1O

>  <score_type>  (20) 
oracle

>  <origin>  (20) 
adgpu

>  <m_score__min__energy>  (20) 
-10.08

>  <m_primary>  (20) 
energy

$$$$
20:0
     RDKit          3D

 37 39  0  0  0  0  0  0  0  0999 V2000
   -0.7670   20.2400  -34.3450 N   0  0  0  0  0  0  0  0  0  0  0  0
   -1.7400   20.5020  -33.5700 C   0  0  0  0  0  0  0  0  0  0  0  0
   -1.6470   21.5490  -32.6720 C   0  0  0  0  0  0  0  0  0  0  0  0
   -2.6630   21.8890  -31.8020 C   0  0  0  0  0  0  0  0  0  0  0  0
   -2.6250   22.9380  -30.8820 N   0  0  0  0  0  0  0  0  0  0  0  0
   -3.9300   23.8560  -30.3020 S   0  0  0  0  0  0  0  0  0  0  0  0
   -3.7770   23.8940  -28.7830 O   0  0  0  0  0  0  0  0  0  0  0  0
   -3.8600   25.2780  -30.8040 O   0  0  0  0  0  0  0  0  0  0  0  0
   -5.5000   23.2560  -30.6490 C   0  0  0  0  0  0  0  0  0  0  0  0
   -5.9490   23.3210  -31.9750 C   0  0  0  0  0  0  0  0  0  0  0  0
   -7.1980   22.8780  -32.3450 C   0  0  0  0  0  0  0  0  0  0  0  0
   -8.0660   22.3450  -31.4150 C   0  0  0  0  0  0  0  0  0  0  0  0
   -9.6470   21.7890  -31.9230 Cl  0  0  0  0  0  0  0  0  0  0  0  0
   -7.6320   22.2760  -30.1070 C   0  0  0  0  0  0  0  0  0  0  0  0
   -6.3870   22.7210  -29.7460 C   0  0  0  0  0  0  0  0  0  0  0  0
   -3.7810   21.0970  -31.9030 N   0  0  0  0  0  0  0  0  0  0  0  0
   -3.9010   20.0880  -32.7510 C   0  0  0  0  0  0  0  0  0  0  0  0
   -5.1620   19.3380  -32.7360 C   0  0  0  0  0  0  0  0  0  0  0  0
   -5.3870   18.2720  -33.6070 C   0  0  0  0  0  0  0  0  0  0  0  0
   -6.5660   17.5570  -33.6070 C   0  0  0  0  0  0  0  0  0  0  0  0
   -7.5780   17.8800  -32.7270 C   0  0  0  0  0  0  0  0  0  0  0  0
   -7.3870   18.9270  -31.8510 C   0  0  0  0  0  0  0  0  0  0  0  0
   -6.1940   19.6320  -31.8710 C   0  0  0  0  0  0  0  0  0  0  0  0
   -2.8870   19.8060  -33.5680 N   0  0  0  0  0  0  0  0  0  0  0  0
   -0.7230   19.4930  -35.0470 H   0  0  0  0  0  0  0  0  0  0  0  0
   -0.7190   22.1392  -32.6498 H   0  0  0  0  0  0  0  0  0  0  0  0
   -1.6560   23.1900  -30.4980 H   0  0  0  0  0  0  0  0  0  0  0  0
   -5.2824   23.7391  -32.7436 H   0  0  0  0  0  0  0  0  0  0  0  0
   -7.5088   22.9500  -33.3977 H   0  0  0  0  0  0  0  0  0  0  0  0
   -8.2982   21.8557  -29.3392 H   0  0  0  0  0  0  0  0  0  0  0  0
   -6.0856   22.6469  -28.6907 H   0  0  0  0  0  0  0  0  0  0  0  0
   -4.5963   17.9920  -34.3187 H   0  0  0  0  0  0  0  0  0  0  0  0
   -6.7004   16.7241  -34.3129 H   0  0  0  0  0  0  0  0  0  0  0  0
   -8.5202   17.3124  -32.7244 H   0  0  0  0  0  0  0  0  0  0  0  0
   -8.1787   19.2020  -31.1386 H   0  0  0  0  0  0  0  0  0  0  0  0
   -6.0648   20.4646  -31.1639 H   0  0  0  0  0  0  0  0  0  0  0  0
   -2.9560   19.0170  -34.2450 H   0  0  0  0  0  0  0  0  0  0  0  0
  1  2  2  3
  2  3  1  0
  3  4  2  0
  4  5  1  0
  5  6  1  0
  6  7  2  0
  6  8  2  0
  6  9  1  0
  9 10  2  0
 10 11  1  0
 11 12  2  0
 12 13  1  0
 12 14  1  0
 14 15  2  0
  4 16  1  0
 16 17  2  0
 17 18  1  0
 18 19  2  0
 19 20  1  0
 20 21  2  0
 21 22  1  0
 22 23  2  0
 17 24  1  0
 24  2  1  0
 15  9  1  0
 23 18  1  0
  1 25  1  0
  3 26  1  0
  5 27  1  0
 10 28  1  0
 11 29  1  0
 14 30  1  0
 15 31  1  0
 19 32  1  0
 20 33  1  0
 21 34  1  0
 22 35  1  0
 23 36  1  0
 24 37  1  0
M  END
>  <smiles>  (21) 
N=c1cc(NS(=O)(=O)c2ccc(Cl)cc2)nc(-c2ccccc2)[nH]1

>  <score_type>  (21) 
oracle

>  <origin>  (21) 
adgpu

>  <m_score__min__energy>  (21) 
-9.4299999999999997

>  <m_primary>  (21) 
energy

$$$$
21:0
     RDKit          3D

 42 44  0  0  0  0  0  0  0  0999 V2000
   -2.9310   23.8650  -27.2500 C   0  0  0  0  0  0  0  0  0  0  0  0
   -3.3950   24.2480  -28.6180 C   0  0  0  0  0  0  0  0  0  0  0  0
   -2.8160   25.2150  -29.3510 N   0  0  0  0  0  0  0  0  0  0  0  0
   -3.4800   25.2990  -30.4660 O   0  0  0  0  0  0  0  0  0  0  0  0
   -4.4690   24.4370  -30.5040 C   0  0  0  0  0  0  0  0  0  0  0  0
   -5.2670   24.3700  -31.5320 N   0  0  0  0  0  0  0  0  0  0  0  0
   -6.6260   23.3290  -31.8260 S   0  0  0  0  0  0  0  0  0  0  0  0
   -7.4800   23.3120  -30.5910 O   0  0  0  0  0  0  0  0  0  0  0  0
   -7.4450   23.8800  -32.9590 O   0  0  0  0  0  0  0  0  0  0  0  0
   -6.1110   21.6770  -32.1430 C   0  0  0  0  0  0  0  0  0  0  0  0
   -4.8640   21.2320  -31.6840 C   0  0  0  0  0  0  0  0  0  0  0  0
   -4.4450   19.9240  -31.9430 C   0  0  0  0  0  0  0  0  0  0  0  0
   -5.2680   19.0460  -32.6710 C   0  0  0  0  0  0  0  0  0  0  0  0
   -4.8670   17.6900  -32.9360 N   0  0  0  0  0  0  0  0  0  0  0  0
   -5.3680   16.5540  -32.2100 C   0  0  0  0  0  0  0  0  0  0  0  0
   -5.8580   16.7140  -31.0590 O   0  0  0  0  0  0  0  0  0  0  0  0
   -5.2680   15.1860  -32.7760 C   0  0  0  0  0  0  0  0  0  0  0  0
   -4.3740   14.2530  -32.2260 C   0  0  0  0  0  0  0  0  0  0  0  0
   -4.2890   12.9660  -32.7590 C   0  0  0  0  0  0  0  0  0  0  0  0
   -5.1030   12.6150  -33.8350 C   0  0  0  0  0  0  0  0  0  0  0  0
   -5.9750   13.5200  -34.3590 N   0  0  0  0  0  0  0  0  0  0  0  0
   -6.7770   13.1490  -35.4140 O   0  0  0  0  0  0  0  0  0  0  0  0
   -6.0740   14.7820  -33.8550 C   0  0  0  0  0  0  0  0  0  0  0  0
   -6.5290   19.4870  -33.0990 C   0  0  0  0  0  0  0  0  0  0  0  0
   -6.9470   20.7960  -32.8400 C   0  0  0  0  0  0  0  0  0  0  0  0
   -4.4610   23.6980  -29.3170 C   0  0  0  0  0  0  0  0  0  0  0  0
   -5.3970   22.6510  -28.7890 C   0  0  0  0  0  0  0  0  0  0  0  0
   -3.5493   24.3754  -26.4968 H   0  0  0  0  0  0  0  0  0  0  0  0
   -3.0228   22.7762  -27.1231 H   0  0  0  0  0  0  0  0  0  0  0  0
   -1.8793   24.1615  -27.1231 H   0  0  0  0  0  0  0  0  0  0  0  0
   -4.2128   21.9143  -31.1180 H   0  0  0  0  0  0  0  0  0  0  0  0
   -3.4670   19.5796  -31.5757 H   0  0  0  0  0  0  0  0  0  0  0  0
   -4.0850   17.5360  -33.6110 H   0  0  0  0  0  0  0  0  0  0  0  0
   -3.7396   14.5371  -31.3735 H   0  0  0  0  0  0  0  0  0  0  0  0
   -3.5858   12.2348  -32.3338 H   0  0  0  0  0  0  0  0  0  0  0  0
   -5.0406   11.6033  -34.2622 H   0  0  0  0  0  0  0  0  0  0  0  0
   -6.7905   15.4907  -34.2959 H   0  0  0  0  0  0  0  0  0  0  0  0
   -7.1933   18.7986  -33.6419 H   0  0  0  0  0  0  0  0  0  0  0  0
   -7.9352   21.1346  -33.1847 H   0  0  0  0  0  0  0  0  0  0  0  0
   -5.3825   22.6672  -27.6892 H   0  0  0  0  0  0  0  0  0  0  0  0
   -6.4170   22.8577  -29.1453 H   0  0  0  0  0  0  0  0  0  0  0  0
   -5.0778   21.6605  -29.1453 H   0  0  0  0  0  0  0  0  0  0  0  0
  1  2  1  0
  2  3  1  0
  3  4  1  0
  4  5  1  0
  5  6  2  3
  6  7  1  0
  7  8  2  0
  7  9  2  0
  7 10  1  0
 10 11  2  0
 11 12  1  0
 12 13  2  0
 13 14  1  0
 14 15  1  0
 15 16  2  0
 15 17  1  0
 17 18  2  0
 18 19  1  0
 19 20  2  0
 20 21  1  0
 21 22  1  0
 21 23  2  0
 13 24  1  0
 24 25  2  0
  5 26  1  0
 26 27  1  0
 26  2  2  0
 25 10  1  0
 23 17  1  0
  1 28  1  0
  1 29  1  0
  1 30  1  0
 11 31  1  0
 12 32  1  0
 14 33  1  0
 18 34  1  0
 19 35  1  0
 20 36  1  0
 23 37  1  0
 24 38  1  0
 25 39  1  0
 27 40  1  0
 27 41  1  0
 27 42  1  0
M  CHG  3   3  -1  21   1  22  -1
M  END
>  <UniqueID>  (22) 
21

>  <SMILES>  (22) 
Cc1[n-]oc(=NS(=O)(=O)c2ccc(NC(=O)c3ccc[n+]([O-])c3)cc2)c1C

>  <Energy>  (22) 
89.37892299237349

>  <Genealogy>  (22) 
Cc1[n-]oc(=NS(=O)(=O)c2ccc(NC(=O)c3ccc[n+]([O-])c3)cc2)c1C (protonated)
Cc1[n-]oc(=NS(=O)(=O)c2ccc(NC(=O)c3ccc[n+]([O-])c3)cc2)c1C (3D coordinates assigned)
Cc1[n-]oc(=NS(=O)(=O)c2ccc(NC(=O)c3ccc[n+]([O-])c3)cc2)c1C (optimized conformer: 89.37892299237349 kcal/mol)

>  <smiles>  (22) 
Cc1[nH]oc(=NS(=O)(=O)c2ccc(NC(=O)c3ccc[n+]([O-])c3)cc2)c1C

>  <score_type>  (22) 
oracle

>  <origin>  (22) 
adgpu

>  <m_score__min__energy>  (22) 
-10.380000000000001

>  <m_primary>  (22) 
energy

$$$$
22:0
     RDKit          3D

 47 49  0  0  0  0  0  0  0  0999 V2000
   -9.1680   19.6330  -33.1020 N   0  0  0  0  0  0  0  0  0  0  0  0
   -9.0200   20.7700  -32.2460 C   0  0  0  0  0  0  0  0  0  0  0  0
  -10.0380   21.2270  -31.6610 O   0  0  0  0  0  0  0  0  0  0  0  0
   -7.7040   21.4260  -32.0500 C   0  0  0  0  0  0  0  0  0  0  0  0
   -6.5260   20.7750  -32.4610 C   0  0  0  0  0  0  0  0  0  0  0  0
   -5.2790   21.3810  -32.2790 C   0  0  0  0  0  0  0  0  0  0  0  0
   -5.1830   22.6400  -31.6790 C   0  0  0  0  0  0  0  0  0  0  0  0
   -3.8870   23.2300  -31.5050 N   0  0  0  0  0  0  0  0  0  0  0  0
   -3.5000   24.1320  -30.4580 C   0  0  0  0  0  0  0  0  0  0  0  0
   -3.8880   25.3280  -30.5230 O   0  0  0  0  0  0  0  0  0  0  0  0
   -2.6070   23.7140  -29.3500 C   0  0  0  0  0  0  0  0  0  0  0  0
   -2.7140   22.4190  -28.8120 C   0  0  0  0  0  0  0  0  0  0  0  0
   -1.8840   22.0080  -27.7620 C   0  0  0  0  0  0  0  0  0  0  0  0
   -2.0390   20.3810  -27.0920 S   0  0  0  0  0  0  0  0  0  0  0  0
   -3.4880   19.9810  -27.0990 O   0  0  0  0  0  0  0  0  0  0  0  0
   -1.5670   20.3860  -25.6640 O   0  0  0  0  0  0  0  0  0  0  0  0
   -1.1110   19.2170  -28.0090 N   0  0  0  0  0  0  0  0  0  0  0  0
   -0.0730   19.8770  -28.8400 C   0  0  0  0  0  0  0  0  0  0  0  0
    1.3390   19.7510  -28.2490 C   0  0  0  0  0  0  0  0  0  0  0  0
    1.7380   18.2760  -28.0730 C   0  0  0  0  0  0  0  0  0  0  0  0
    0.5320   17.3640  -27.7790 C   0  0  0  0  0  0  0  0  0  0  0  0
   -0.6050   18.1490  -27.1190 C   0  0  0  0  0  0  0  0  0  0  0  0
   -0.9290   22.8930  -27.2490 C   0  0  0  0  0  0  0  0  0  0  0  0
   -0.8010   24.1760  -27.7860 C   0  0  0  0  0  0  0  0  0  0  0  0
   -1.6320   24.5900  -28.8310 C   0  0  0  0  0  0  0  0  0  0  0  0
   -1.4930   25.8800  -29.3340 O   0  0  0  0  0  0  0  0  0  0  0  0
   -6.3580   23.3140  -31.3050 C   0  0  0  0  0  0  0  0  0  0  0  0
   -7.6060   22.7100  -31.4830 C   0  0  0  0  0  0  0  0  0  0  0  0
   -8.3990   19.3130  -33.7290 H   0  0  0  0  0  0  0  0  0  0  0  0
  -10.0940   19.1570  -33.1760 H   0  0  0  0  0  0  0  0  0  0  0  0
   -6.5866   19.7815  -32.9292 H   0  0  0  0  0  0  0  0  0  0  0  0
   -4.3668   20.8632  -32.6104 H   0  0  0  0  0  0  0  0  0  0  0  0
   -3.4588   21.7205  -29.2211 H   0  0  0  0  0  0  0  0  0  0  0  0
   -0.0775   19.4153  -29.8384 H   0  0  0  0  0  0  0  0  0  0  0  0
   -0.3176   20.9486  -28.8819 H   0  0  0  0  0  0  0  0  0  0  0  0
    2.0562   20.2385  -28.9257 H   0  0  0  0  0  0  0  0  0  0  0  0
    1.3479   20.2348  -27.2611 H   0  0  0  0  0  0  0  0  0  0  0  0
    2.2234   17.9302  -28.9976 H   0  0  0  0  0  0  0  0  0  0  0  0
    2.4172   18.2167  -27.2097 H   0  0  0  0  0  0  0  0  0  0  0  0
    0.1694   16.9323  -28.7235 H   0  0  0  0  0  0  0  0  0  0  0  0
    0.8544   16.5699  -27.0895 H   0  0  0  0  0  0  0  0  0  0  0  0
   -1.4283   17.4580  -26.8851 H   0  0  0  0  0  0  0  0  0  0  0  0
   -0.2162   18.6172  -26.2027 H   0  0  0  0  0  0  0  0  0  0  0  0
   -0.2775   22.5774  -26.4208 H   0  0  0  0  0  0  0  0  0  0  0  0
   -0.0425   24.8641  -27.3846 H   0  0  0  0  0  0  0  0  0  0  0  0
   -6.2953   24.3223  -30.8698 H   0  0  0  0  0  0  0  0  0  0  0  0
   -8.5186   23.2427  -31.1774 H   0  0  0  0  0  0  0  0  0  0  0  0
  1  2  1  0
  2  3  2  0
  2  4  1  0
  4  5  2  0
  5  6  1  0
  6  7  2  0
  7  8  1  0
  8  9  1  0
  9 10  2  0
  9 11  1  0
 11 12  2  0
 12 13  1  0
 13 14  1  0
 14 15  2  0
 14 16  2  0
 14 17  1  0
 17 18  1  0
 18 19  1  0
 19 20  1  0
 20 21  1  0
 21 22  1  0
 13 23  2  0
 23 24  1  0
 24 25  2  0
 25 26  1  0
  7 27  1  0
 27 28  2  0
 28  4  1  0
 25 11  1  0
 22 17  1  0
  1 29  1  0
  1 30  1  0
  5 31  1  0
  6 32  1  0
 12 33  1  0
 18 34  1  0
 18 35  1  0
 19 36  1  0
 19 37  1  0
 20 38  1  0
 20 39  1  0
 21 40  1  0
 21 41  1  0
 22 42  1  0
 22 43  1  0
 23 44  1  0
 24 45  1  0
 27 46  1  0
 28 47  1  0
M  CHG  2   8  -1  26  -1
M  END
>  <UniqueID>  (23) 
22

>  <SMILES>  (23) 
NC(=O)c1ccc([N-]C(=O)c2cc(S(=O)(=O)N3CCCCC3)ccc2[O-])cc1

>  <Energy>  (23) 
61.33776707302314

>  <Genealogy>  (23) 
NC(=O)c1ccc([N-]C(=O)c2cc(S(=O)(=O)N3CCCCC3)ccc2[O-])cc1 (protonated)
NC(=O)c1ccc([N-]C(=O)c2cc(S(=O)(=O)N3CCCCC3)ccc2[O-])cc1 (3D coordinates assigned)
NC(=O)c1ccc([N-]C(=O)c2cc(S(=O)(=O)N3CCCCC3)ccc2[O-])cc1 (nonaromatic ring conformer: 61.33776707302314 kcal/mol)

>  <smiles>  (23) 
NC(=O)c1ccc(NC(=O)c2cc(S(=O)(=O)N3CCCCC3)ccc2O)cc1

>  <score_type>  (23) 
oracle

>  <origin>  (23) 
adgpu

>  <m_score__min__energy>  (23) 
-13.449999999999999

>  <m_primary>  (23) 
energy

$$$$
23:0
     RDKit          3D

 43 46  0  0  0  0  0  0  0  0999 V2000
   -0.5260   24.9950  -28.1490 C   0  0  0  0  0  0  0  0  0  0  0  0
   -1.9450   24.5990  -28.3840 C   0  0  0  0  0  0  0  0  0  0  0  0
   -2.6660   23.6990  -27.6260 C   0  0  0  0  0  0  0  0  0  0  0  0
   -3.9250   23.6660  -28.1860 C   0  0  0  0  0  0  0  0  0  0  0  0
   -3.8920   24.5570  -29.2430 C   0  0  0  0  0  0  0  0  0  0  0  0
   -5.0390   24.8780  -30.1700 C   0  0  0  0  0  0  0  0  0  0  0  0
   -5.0280   24.1020  -31.4310 N   0  0  0  0  0  0  0  0  0  0  0  0
   -4.2840   22.8350  -31.3470 C   0  0  0  0  0  0  0  0  0  0  0  0
   -5.2860   21.7070  -31.5070 C   0  0  0  0  0  0  0  0  0  0  0  0
   -6.3840   22.3230  -32.3490 C   0  0  1  0  0  0  0  0  0  0  0  0
   -7.7230   21.6540  -32.1340 C   0  0  0  0  0  0  0  0  0  0  0  0
   -8.8200   22.2840  -31.6670 N   0  0  0  0  0  0  0  0  0  0  0  0
   -9.8520   21.4560  -31.6810 N   0  0  0  0  0  0  0  0  0  0  0  0
   -9.4260   20.2700  -32.1560 C   0  0  0  0  0  0  0  0  0  0  0  0
   -8.0760   20.3460  -32.4400 C   0  0  0  0  0  0  0  0  0  0  0  0
   -7.2440   19.2420  -32.9520 C   0  0  0  0  0  0  0  0  0  0  0  0
   -7.2880   17.9650  -32.3730 C   0  0  0  0  0  0  0  0  0  0  0  0
   -6.5040   16.9410  -32.9090 C   0  0  0  0  0  0  0  0  0  0  0  0
   -5.6980   17.1920  -34.0210 C   0  0  0  0  0  0  0  0  0  0  0  0
   -5.6980   18.4670  -34.5880 C   0  0  0  0  0  0  0  0  0  0  0  0
   -6.4670   19.4520  -34.0500 N   0  0  0  0  0  0  0  0  0  0  0  0
   -6.3690   23.8030  -31.9630 C   0  0  0  0  0  0  0  0  0  0  0  0
   -2.6980   25.0950  -29.3380 O   0  0  0  0  0  0  0  0  0  0  0  0
   -0.3346   25.0484  -27.0671 H   0  0  0  0  0  0  0  0  0  0  0  0
    0.1429   24.2492  -28.6033 H   0  0  0  0  0  0  0  0  0  0  0  0
   -0.3400   25.9794  -28.6033 H   0  0  0  0  0  0  0  0  0  0  0  0
   -2.3102   23.1272  -26.7563 H   0  0  0  0  0  0  0  0  0  0  0  0
   -4.7802   23.0562  -27.8593 H   0  0  0  0  0  0  0  0  0  0  0  0
   -5.9805   24.6667  -29.6418 H   0  0  0  0  0  0  0  0  0  0  0  0
   -4.9380   25.9378  -30.4470 H   0  0  0  0  0  0  0  0  0  0  0  0
   -3.5327   22.7867  -32.1490 H   0  0  0  0  0  0  0  0  0  0  0  0
   -3.7615   22.7555  -30.3823 H   0  0  0  0  0  0  0  0  0  0  0  0
   -4.8313   20.8479  -32.0219 H   0  0  0  0  0  0  0  0  0  0  0  0
   -5.6515   21.3202  -30.5443 H   0  0  0  0  0  0  0  0  0  0  0  0
   -6.2130   22.1886  -33.4273 H   0  0  0  0  0  0  0  0  0  0  0  0
   -8.8760   23.2750  -31.3480 H   0  0  0  0  0  0  0  0  0  0  0  0
  -10.0554   19.3788  -32.2962 H   0  0  0  0  0  0  0  0  0  0  0  0
   -7.9345   17.7718  -31.5042 H   0  0  0  0  0  0  0  0  0  0  0  0
   -6.5215   15.9388  -32.4560 H   0  0  0  0  0  0  0  0  0  0  0  0
   -5.0705   16.3942  -34.4451 H   0  0  0  0  0  0  0  0  0  0  0  0
   -5.0757   18.6759  -35.4707 H   0  0  0  0  0  0  0  0  0  0  0  0
   -6.5706   24.4250  -32.8475 H   0  0  0  0  0  0  0  0  0  0  0  0
   -7.1434   24.0181  -31.2120 H   0  0  0  0  0  0  0  0  0  0  0  0
  1  2  1  0
  2  3  2  0
  3  4  1  0
  4  5  2  0
  5  6  1  0
  6  7  1  0
  7  8  1  0
  8  9  1  0
  9 10  1  0
 10 11  1  0
 11 12  1  0
 12 13  1  0
 13 14  2  0
 14 15  1  0
 15 16  1  0
 16 17  2  0
 17 18  1  0
 18 19  2  0
 19 20  1  0
 20 21  2  0
 10 22  1  0
  5 23  1  0
 23  2  1  0
 22  7  1  0
 15 11  2  0
 21 16  1  0
  1 24  1  0
  1 25  1  0
  1 26  1  0
  3 27  1  0
  4 28  1  0
  6 29  1  0
  6 30  1  0
  8 31  1  0
  8 32  1  0
  9 33  1  0
  9 34  1  0
 10 35  1  6
 12 36  1  0
 14 37  1  0
 17 38  1  0
 18 39  1  0
 19 40  1  0
 20 41  1  0
 22 42  1  0
 22 43  1  0
M  END
>  <UniqueID>  (24) 
23

>  <SMILES>  (24) 
Cc1ccc(CN2CC[C@@H](c3[nH]ncc3-c3ccccn3)C2)o1

>  <Energy>  (24) 
110.16927520018277

>  <Genealogy>  (24) 
Cc1ccc(CN2CC[C@@H](c3[nH]ncc3-c3ccccn3)C2)o1 (chirality)
Cc1ccc(CN2CC[C@@H](c3[nH]ncc3-c3ccccn3)C2)o1 (3D coordinates assigned)
Cc1ccc(CN2CC[C@@H](c3[nH]ncc3-c3ccccn3)C2)o1 (nonaromatic ring conformer: 110.16927520018277 kcal/mol)

>  <smiles>  (24) 
Cc1ccc(CN2CCC(c3[nH]ncc3-c3ccccn3)C2)o1

>  <score_type>  (24) 
oracle

>  <origin>  (24) 
adgpu

>  <m_score__min__energy>  (24) 
-9.6300000000000008

>  <m_primary>  (24) 
energy

$$$$
24:0
     RDKit          3D

 51 53  0  0  0  0  0  0  0  0999 V2000
    0.3120   26.8440  -25.1070 C   0  0  0  0  0  0  0  0  0  0  0  0
   -0.5820   26.1900  -26.1200 C   0  0  0  0  0  0  0  0  0  0  0  0
   -0.0770   25.8280  -27.3740 C   0  0  0  0  0  0  0  0  0  0  0  0
   -0.8980   25.1920  -28.3070 C   0  0  0  0  0  0  0  0  0  0  0  0
   -2.2350   24.8920  -27.9990 C   0  0  0  0  0  0  0  0  0  0  0  0
   -3.2360   24.0960  -29.2230 S   0  0  0  0  0  0  0  0  0  0  0  0
   -4.3660   23.3770  -28.5380 O   0  0  0  0  0  0  0  0  0  0  0  0
   -2.4140   23.0940  -29.9840 O   0  0  0  0  0  0  0  0  0  0  0  0
   -3.8290   25.2950  -30.3400 N   0  0  0  0  0  0  0  0  0  0  0  0
   -5.2910   25.2950  -30.4200 C   0  0  0  0  0  0  0  0  0  0  0  0
   -5.7770   24.5700  -31.6840 C   0  0  0  0  0  0  0  0  0  0  0  0
   -5.0110   23.2540  -31.9320 C   0  0  0  0  0  0  0  0  0  0  0  0
   -5.1460   22.2860  -30.8080 N   0  0  2  0  0  0  0  0  0  0  0  0
   -4.6360   20.9440  -31.1660 C   0  0  0  0  0  0  0  0  0  0  0  0
   -5.4330   20.3020  -32.3120 C   0  0  0  0  0  0  0  0  0  0  0  0
   -6.9190   20.4550  -32.1260 C   0  0  0  0  0  0  0  0  0  0  0  0
   -7.7910   19.7050  -32.9300 C   0  0  0  0  0  0  0  0  0  0  0  0
   -9.1740   19.8690  -32.8160 C   0  0  0  0  0  0  0  0  0  0  0  0
   -9.6960   20.7880  -31.9050 C   0  0  0  0  0  0  0  0  0  0  0  0
   -8.8380   21.5490  -31.1070 C   0  0  0  0  0  0  0  0  0  0  0  0
   -7.4450   21.4040  -31.2240 C   0  0  0  0  0  0  0  0  0  0  0  0
   -6.5370   22.1920  -30.3070 C   0  0  0  0  0  0  0  0  0  0  0  0
   -2.7420   25.2230  -26.7170 C   0  0  0  0  0  0  0  0  0  0  0  0
   -4.1680   24.9320  -26.3290 C   0  0  0  0  0  0  0  0  0  0  0  0
   -1.9070   25.8740  -25.7920 C   0  0  0  0  0  0  0  0  0  0  0  0
   -0.0345   26.5905  -24.0942 H   0  0  0  0  0  0  0  0  0  0  0  0
    1.3431   26.4855  -25.2422 H   0  0  0  0  0  0  0  0  0  0  0  0
    0.2825   27.9353  -25.2422 H   0  0  0  0  0  0  0  0  0  0  0  0
    0.9715   26.0456  -27.6256 H   0  0  0  0  0  0  0  0  0  0  0  0
   -0.4934   24.9230  -29.2939 H   0  0  0  0  0  0  0  0  0  0  0  0
   -5.6990   24.7855  -29.5346 H   0  0  0  0  0  0  0  0  0  0  0  0
   -5.6381   26.3380  -30.4609 H   0  0  0  0  0  0  0  0  0  0  0  0
   -6.8471   24.3413  -31.5718 H   0  0  0  0  0  0  0  0  0  0  0  0
   -5.5971   25.2325  -32.5435 H   0  0  0  0  0  0  0  0  0  0  0  0
   -5.4030   22.7865  -32.8473 H   0  0  0  0  0  0  0  0  0  0  0  0
   -3.9441   23.5049  -32.0262 H   0  0  0  0  0  0  0  0  0  0  0  0
   -4.5560   22.6150  -30.0080 H   0  0  0  0  0  0  0  0  0  0  0  0
   -3.5844   21.0365  -31.4753 H   0  0  0  0  0  0  0  0  0  0  0  0
   -4.7403   20.2983  -30.2816 H   0  0  0  0  0  0  0  0  0  0  0  0
   -5.1430   20.7826  -33.2580 H   0  0  0  0  0  0  0  0  0  0  0  0
   -5.2028   19.2264  -32.3226 H   0  0  0  0  0  0  0  0  0  0  0  0
   -7.3836   18.9840  -33.6540 H   0  0  0  0  0  0  0  0  0  0  0  0
   -9.8518   19.2731  -33.4450 H   0  0  0  0  0  0  0  0  0  0  0  0
  -10.7851   20.9136  -31.8149 H   0  0  0  0  0  0  0  0  0  0  0  0
   -9.2548   22.2652  -30.3836 H   0  0  0  0  0  0  0  0  0  0  0  0
   -6.9415   23.2097  -30.2035 H   0  0  0  0  0  0  0  0  0  0  0  0
   -6.5038   21.6624  -29.3434 H   0  0  0  0  0  0  0  0  0  0  0  0
   -4.2534   24.9146  -25.2325 H   0  0  0  0  0  0  0  0  0  0  0  0
   -4.8256   25.7145  -26.7356 H   0  0  0  0  0  0  0  0  0  0  0  0
   -4.4664   23.9544  -26.7356 H   0  0  0  0  0  0  0  0  0  0  0  0
   -2.2987   26.1385  -24.7987 H   0  0  0  0  0  0  0  0  0  0  0  0
  1  2  1  0
  2  3  2  0
  3  4  1  0
  4  5  2  0
  5  6  1  0
  6  7  2  0
  6  8  2  0
  6  9  1  0
  9 10  1  0
 10 11  1  0
 11 12  1  0
 12 13  1  0
 13 14  1  0
 14 15  1  0
 15 16  1  0
 16 17  2  0
 17 18  1  0
 18 19  2  0
 19 20  1  0
 20 21  2  0
 21 22  1  0
  5 23  1  0
 23 24  1  0
 23 25  2  0
 25  2  1  0
 22 13  1  0
 21 16  1  0
  1 26  1  0
  1 27  1  0
  1 28  1  0
  3 29  1  0
  4 30  1  0
 10 31  1  0
 10 32  1  0
 11 33  1  0
 11 34  1  0
 12 35  1  0
 12 36  1  0
 13 37  1  1
 14 38  1  0
 14 39  1  0
 15 40  1  0
 15 41  1  0
 17 42  1  0
 18 43  1  0
 19 44  1  0
 20 45  1  0
 22 46  1  0
 22 47  1  0
 24 48  1  0
 24 49  1  0
 24 50  1  0
 25 51  1  0
M  CHG  2   9  -1  13   1
M  END
>  <UniqueID>  (25) 
24

>  <SMILES>  (25) 
Cc1ccc(S(=O)(=O)[N-]CCC[N@@H+]2CCc3ccccc3C2)c(C)c1

>  <Energy>  (25) 
58.40500667610246

>  <Genealogy>  (25) 
Cc1ccc(S(=O)(=O)[N-]CCC[NH+]2CCc3ccccc3C2)c(C)c1 (protonated)
Cc1ccc(S(=O)(=O)[N-]CCC[N@@H+]2CCc3ccccc3C2)c(C)c1 (chirality)
Cc1ccc(S(=O)(=O)[N-]CCC[N@@H+]2CCc3ccccc3C2)c(C)c1 (3D coordinates assigned)
Cc1ccc(S(=O)(=O)[N-]CCC[N@@H+]2CCc3ccccc3C2)c(C)c1 (nonaromatic ring conformer: 58.40500667610246 kcal/mol)

>  <smiles>  (25) 
Cc1ccc(S(=O)(=O)NCCCN2CCc3ccccc3C2)c(C)c1

>  <score_type>  (25) 
oracle

>  <origin>  (25) 
adgpu

>  <m_score__min__energy>  (25) 
-10.25

>  <m_primary>  (25) 
energy

$$$$
25:0
     RDKit          3D

 32 34  0  0  1  0  0  0  0  0999 V2000
   -6.6250   19.2450  -32.9270 O   0  0  0  0  0  0  0  0  0  0  0  0
   -7.2710   20.3850  -32.4810 C   0  0  0  0  0  0  0  0  0  0  0  0
   -8.6040   20.3230  -32.0580 C   0  0  0  0  0  0  0  0  0  0  0  0
   -9.2570   21.4700  -31.6090 C   0  0  0  0  0  0  0  0  0  0  0  0
   -8.5610   22.6750  -31.5910 C   0  0  0  0  0  0  0  0  0  0  0  0
   -7.2350   22.7530  -32.0090 C   0  0  0  0  0  0  0  0  0  0  0  0
   -6.5720   24.0320  -31.9650 N   0  0  0  0  0  0  0  0  0  0  0  0
   -5.5460   24.1810  -31.1760 C   0  0  0  0  0  0  0  0  0  0  0  0
   -5.0130   23.2020  -30.3490 C   0  0  0  0  0  0  0  0  0  0  0  0
   -3.9340   23.7230  -29.6620 C   0  0  0  0  0  0  0  0  0  0  0  0
   -3.1180   22.9900  -28.6990 C   0  0  0  0  0  0  0  0  0  0  0  0
   -2.2410   23.6540  -27.8640 C   0  0  0  0  0  0  0  0  0  0  0  0
   -1.4450   23.0150  -26.9370 C   0  0  0  0  0  0  0  0  0  0  0  0
   -1.5220   21.6430  -26.8280 C   0  0  0  0  0  0  0  0  0  0  0  0
   -2.3950   20.9780  -27.6600 C   0  0  0  0  0  0  0  0  0  0  0  0
   -3.1920   21.6270  -28.5900 C   0  0  0  0  0  0  0  0  0  0  0  0
   -3.8310   24.9970  -30.0790 N   0  0  0  0  0  0  0  0  0  0  0  0
   -4.7830   25.2650  -30.9730 N   0  0  0  0  0  0  0  0  0  0  0  0
   -6.6180   21.6130  -32.4450 C   0  0  0  0  0  0  0  0  0  0  0  0
   -5.8030   18.9220  -32.4510 H   0  0  0  0  0  0  0  0  0  0  0  0
   -9.1399   19.3626  -32.0800 H   0  0  0  0  0  0  0  0  0  0  0  0
  -10.3040   21.4234  -31.2748 H   0  0  0  0  0  0  0  0  0  0  0  0
   -9.0690   23.5850  -31.2392 H   0  0  0  0  0  0  0  0  0  0  0  0
   -5.3905   22.1731  -30.2554 H   0  0  0  0  0  0  0  0  0  0  0  0
   -2.1740   24.7491  -27.9425 H   0  0  0  0  0  0  0  0  0  0  0  0
   -0.7606   23.5899  -26.2958 H   0  0  0  0  0  0  0  0  0  0  0  0
   -0.9054   21.0964  -26.0992 H   0  0  0  0  0  0  0  0  0  0  0  0
   -2.4629   19.8828  -27.5831 H   0  0  0  0  0  0  0  0  0  0  0  0
   -3.8760   21.0538  -29.2330 H   0  0  0  0  0  0  0  0  0  0  0  0
   -3.1130   25.6780  -29.7540 H   0  0  0  0  0  0  0  0  0  0  0  0
   -4.9570   26.1670  -31.4720 H   0  0  0  0  0  0  0  0  0  0  0  0
   -5.5711   21.6688  -32.7781 H   0  0  0  0  0  0  0  0  0  0  0  0
  1  2  1  0
  2  3  2  0
  3  4  1  0
  4  5  2  0
  5  6  1  0
  6  7  1  0
  7  8  2  0
  8  9  1  0
  9 10  2  0
 10 11  1  0
 11 12  2  0
 12 13  1  0
 13 14  2  0
 14 15  1  0
 15 16  2  0
 10 17  1  0
 17 18  1  0
  6 19  2  0
 19  2  1  0
 18  8  1  0
 16 11  1  0
  1 20  1  0
  3 21  1  0
  4 22  1  0
  5 23  1  0
  9 24  1  0
 12 25  1  0
 13 26  1  0
 14 27  1  0
 15 28  1  0
 16 29  1  0
 17 30  1  0
 18 31  1  0
 19 32  1  0
M  END
>  <smiles>  (26) 
Oc1cccc(N=c2cc(-c3ccccc3)[nH][nH]2)c1

>  <score_type>  (26) 
oracle

>  <origin>  (26) 
adgpu

>  <m_score__min__energy>  (26) 
-8.5899999999999999

>  <m_primary>  (26) 
energy

$$$$
26:0
     RDKit          3D

 46 49  0  0  0  0  0  0  0  0999 V2000
   -5.6920   25.3400  -30.0950 C   0  0  0  0  0  0  0  0  0  0  0  0
   -4.3270   25.4050  -30.4910 O   0  0  0  0  0  0  0  0  0  0  0  0
   -3.4240   24.3310  -30.4190 C   0  0  0  0  0  0  0  0  0  0  0  0
   -3.6470   23.1180  -31.0970 C   0  0  0  0  0  0  0  0  0  0  0  0
   -2.7230   22.0630  -31.0080 C   0  0  0  0  0  0  0  0  0  0  0  0
   -2.9830   20.7930  -31.7350 C   0  0  0  0  0  0  0  0  0  0  0  0
   -4.2180   20.2580  -31.8520 N   0  0  0  0  0  0  0  0  0  0  0  0
   -4.0380   19.1290  -32.5670 C   0  0  0  0  0  0  0  0  0  0  0  0
   -5.1610   18.2650  -32.9910 C   0  0  0  0  0  0  0  0  0  0  0  0
   -6.2870   18.0810  -32.1720 C   0  0  0  0  0  0  0  0  0  0  0  0
   -7.3190   17.2410  -32.5990 C   0  0  0  0  0  0  0  0  0  0  0  0
   -7.2240   16.5950  -33.7900 N   0  0  0  0  0  0  0  0  0  0  0  0
   -6.1380   16.7390  -34.5940 C   0  0  0  0  0  0  0  0  0  0  0  0
   -5.0840   17.5690  -34.2060 C   0  0  0  0  0  0  0  0  0  0  0  0
   -2.6890   18.9920  -32.8660 C   0  0  0  0  0  0  0  0  0  0  0  0
   -2.0090   17.8660  -33.5390 C   0  0  0  0  0  0  0  0  0  0  0  0
   -1.1520   18.1110  -34.6260 C   0  0  0  0  0  0  0  0  0  0  0  0
   -0.4930   17.0530  -35.2580 C   0  0  0  0  0  0  0  0  0  0  0  0
   -0.6720   15.7430  -34.8030 C   0  0  0  0  0  0  0  0  0  0  0  0
   -1.5090   15.4910  -33.7120 C   0  0  0  0  0  0  0  0  0  0  0  0
   -2.1690   16.5470  -33.0770 C   0  0  0  0  0  0  0  0  0  0  0  0
   -2.0380   20.0480  -32.3480 N   0  0  0  0  0  0  0  0  0  0  0  0
   -1.5700   22.2330  -30.2200 C   0  0  0  0  0  0  0  0  0  0  0  0
   -1.3380   23.4430  -29.5380 C   0  0  0  0  0  0  0  0  0  0  0  0
   -0.1970   23.6470  -28.7430 O   0  0  0  0  0  0  0  0  0  0  0  0
   -0.2240   23.9310  -27.3480 C   0  0  0  0  0  0  0  0  0  0  0  0
   -2.2690   24.4820  -29.6450 C   0  0  0  0  0  0  0  0  0  0  0  0
   -2.0430   25.6790  -28.9730 O   0  0  0  0  0  0  0  0  0  0  0  0
   -5.7554   25.3370  -28.9968 H   0  0  0  0  0  0  0  0  0  0  0  0
   -6.2307   26.2135  -30.4910 H   0  0  0  0  0  0  0  0  0  0  0  0
   -6.1452   24.4193  -30.4910 H   0  0  0  0  0  0  0  0  0  0  0  0
   -4.5559   22.9942  -31.7041 H   0  0  0  0  0  0  0  0  0  0  0  0
   -6.3561   18.5943  -31.2016 H   0  0  0  0  0  0  0  0  0  0  0  0
   -8.2102   17.1027  -31.9692 H   0  0  0  0  0  0  0  0  0  0  0  0
   -6.0890   16.2009  -35.5521 H   0  0  0  0  0  0  0  0  0  0  0  0
   -4.1985   17.6762  -34.8497 H   0  0  0  0  0  0  0  0  0  0  0  0
   -0.9993   19.1409  -34.9810 H   0  0  0  0  0  0  0  0  0  0  0  0
    0.1677   17.2511  -36.1149 H   0  0  0  0  0  0  0  0  0  0  0  0
   -0.1545   14.9112  -35.3032 H   0  0  0  0  0  0  0  0  0  0  0  0
   -1.6484   14.4607  -33.3529 H   0  0  0  0  0  0  0  0  0  0  0  0
   -2.8170   16.3455  -32.2113 H   0  0  0  0  0  0  0  0  0  0  0  0
   -1.0100   20.2230  -32.4000 H   0  0  0  0  0  0  0  0  0  0  0  0
   -0.8423   21.4124  -30.1358 H   0  0  0  0  0  0  0  0  0  0  0  0
   -0.1348   22.9926  -26.7810 H   0  0  0  0  0  0  0  0  0  0  0  0
    0.6151   24.5949  -27.0927 H   0  0  0  0  0  0  0  0  0  0  0  0
   -1.1731   24.4249  -27.0927 H   0  0  0  0  0  0  0  0  0  0  0  0
  1  2  1  0
  2  3  1  0
  3  4  2  0
  4  5  1  0
  5  6  1  0
  6  7  2  0
  7  8  1  0
  8  9  1  0
  9 10  2  0
 10 11  1  0
 11 12  2  0
 12 13  1  0
 13 14  2  0
  8 15  2  0
 15 16  1  0
 16 17  2  0
 17 18  1  0
 18 19  2  0
 19 20  1  0
 20 21  2  0
 15 22  1  0
  5 23  2  0
 23 24  1  0
 24 25  1  0
 25 26  1  0
 24 27  2  0
 27 28  1  0
 27  3  1  0
 22  6  1  0
 14  9  1  0
 21 16  1  0
  1 29  1  0
  1 30  1  0
  1 31  1  0
  4 32  1  0
 10 33  1  0
 11 34  1  0
 13 35  1  0
 14 36  1  0
 17 37  1  0
 18 38  1  0
 19 39  1  0
 20 40  1  0
 21 41  1  0
 22 42  1  0
 23 43  1  0
 26 44  1  0
 26 45  1  0
 26 46  1  0
M  CHG  1  28  -1
M  END
>  <UniqueID>  (27) 
25

>  <SMILES>  (27) 
COc1cc(-c2nc(-c3ccncc3)c(-c3ccccc3)[nH]2)cc(OC)c1[O-]

>  <Energy>  (27) 
89.3612168365513

>  <Genealogy>  (27) 
COc1cc(-c2nc(-c3ccncc3)c(-c3ccccc3)[nH]2)cc(OC)c1[O-] (protonated)
COc1cc(-c2nc(-c3ccncc3)c(-c3ccccc3)[nH]2)cc(OC)c1[O-] (3D coordinates assigned)
COc1cc(-c2nc(-c3ccncc3)c(-c3ccccc3)[nH]2)cc(OC)c1[O-] (optimized conformer: 89.3612168365513 kcal/mol)

>  <smiles>  (27) 
COc1cc(-c2nc(-c3ccncc3)c(-c3ccccc3)[nH]2)cc(OC)c1O

>  <score_type>  (27) 
oracle

>  <origin>  (27) 
adgpu

>  <m_score__min__energy>  (27) 
-9.5600000000000005

>  <m_primary>  (27) 
energy

$$$$
27:0
     RDKit          3D

 37 38  0  0  1  0  0  0  0  0999 V2000
   -4.8910   24.8040  -28.3060 N   0  0  0  0  0  0  0  0  0  0  0  0
   -5.1180   25.1830  -29.9690 S   0  0  0  0  0  0  0  0  0  0  0  0
   -5.7440   26.5440  -30.1370 O   0  0  0  0  0  0  0  0  0  0  0  0
   -3.8050   25.1550  -30.6640 O   0  0  0  0  0  0  0  0  0  0  0  0
   -6.1960   23.9580  -30.6250 C   0  0  0  0  0  0  0  0  0  0  0  0
   -6.5540   22.9360  -29.7440 C   0  0  0  0  0  0  0  0  0  0  0  0
   -7.3890   21.9330  -30.1530 C   0  0  0  0  0  0  0  0  0  0  0  0
   -7.8680   21.9580  -31.4600 C   0  0  0  0  0  0  0  0  0  0  0  0
   -8.9450   20.6440  -31.9530 S   0  0  0  0  0  0  0  0  0  0  0  0
   -9.1030   19.7250  -30.7970 O   0  0  0  0  0  0  0  0  0  0  0  0
  -10.2630   21.2680  -32.3560 O   0  0  0  0  0  0  0  0  0  0  0  0
   -8.2330   19.8150  -33.2610 N   0  0  0  0  0  0  0  0  0  0  0  0
   -6.9220   19.2790  -33.2080 C   0  0  0  0  0  0  0  0  0  0  0  0
   -6.7460   17.9200  -33.0710 C   0  0  0  0  0  0  0  0  0  0  0  0
   -5.4510   17.4600  -33.0280 C   0  0  0  0  0  0  0  0  0  0  0  0
   -4.3810   18.3580  -33.1200 C   0  0  0  0  0  0  0  0  0  0  0  0
   -4.5580   19.7110  -33.2570 C   0  0  0  0  0  0  0  0  0  0  0  0
   -3.4920   20.6870  -33.3580 C   0  0  0  0  0  0  0  0  0  0  0  0
   -2.4450   20.4180  -34.2770 O   0  0  0  0  0  0  0  0  0  0  0  0
   -3.3790   21.7690  -32.7180 N   0  0  0  0  0  0  0  0  0  0  0  0
   -4.2800   22.1970  -31.7980 O   0  0  0  0  0  0  0  0  0  0  0  0
   -5.8650   20.1570  -33.3000 C   0  0  0  0  0  0  0  0  0  0  0  0
   -7.5140   22.9680  -32.3290 C   0  0  0  0  0  0  0  0  0  0  0  0
   -6.6620   23.9990  -31.9210 C   0  0  0  0  0  0  0  0  0  0  0  0
   -4.6450   25.6350  -27.7470 H   0  0  0  0  0  0  0  0  0  0  0  0
   -5.7360   24.3040  -27.9660 H   0  0  0  0  0  0  0  0  0  0  0  0
   -6.1627   22.9374  -28.7160 H   0  0  0  0  0  0  0  0  0  0  0  0
   -7.6758   21.1244  -29.4645 H   0  0  0  0  0  0  0  0  0  0  0  0
   -8.7630   19.6800  -34.1560 H   0  0  0  0  0  0  0  0  0  0  0  0
   -7.6026   17.2337  -32.9992 H   0  0  0  0  0  0  0  0  0  0  0  0
   -5.2551   16.3829  -32.9210 H   0  0  0  0  0  0  0  0  0  0  0  0
   -3.3556   17.9619  -33.0808 H   0  0  0  0  0  0  0  0  0  0  0  0
   -2.0210   21.1830  -34.7970 H   0  0  0  0  0  0  0  0  0  0  0  0
   -4.0950   23.0770  -31.3310 H   0  0  0  0  0  0  0  0  0  0  0  0
   -6.0649   21.2331  -33.4097 H   0  0  0  0  0  0  0  0  0  0  0  0
   -7.9068   22.9628  -33.3565 H   0  0  0  0  0  0  0  0  0  0  0  0
   -6.3754   24.8099  -32.6069 H   0  0  0  0  0  0  0  0  0  0  0  0
  1  2  1  0
  2  3  2  0
  2  4  2  0
  2  5  1  0
  5  6  2  0
  6  7  1  0
  7  8  2  0
  8  9  1  0
  9 10  2  0
  9 11  2  0
  9 12  1  0
 12 13  1  0
 13 14  2  0
 14 15  1  0
 15 16  2  0
 16 17  1  0
 17 18  1  0
 18 19  1  0
 18 20  2  0
 20 21  1  0
 17 22  2  0
  8 23  1  0
 23 24  2  0
 24  5  1  0
 22 13  1  0
  1 25  1  0
  1 26  1  0
  6 27  1  0
  7 28  1  0
 12 29  1  0
 14 30  1  0
 15 31  1  0
 16 32  1  0
 19 33  1  0
 21 34  1  0
 22 35  1  0
 23 36  1  0
 24 37  1  0
M  END
>  <smiles>  (28) 
NS(=O)(=O)c1ccc(S(=O)(=O)Nc2cccc(C(O)=NO)c2)cc1

>  <score_type>  (28) 
oracle

>  <origin>  (28) 
adgpu

>  <m_score__min__energy>  (28) 
-9.9299999999999997

>  <m_primary>  (28) 
energy

$$$$
28:0
     RDKit          3D

 53 56  0  0  0  0  0  0  0  0999 V2000
   -3.8860   20.9330  -33.1410 C   0  0  0  0  0  0  0  0  0  0  0  0
   -4.6850   19.9850  -33.8420 O   0  0  0  0  0  0  0  0  0  0  0  0
   -5.8920   19.4450  -33.3690 C   0  0  0  0  0  0  0  0  0  0  0  0
   -6.9330   20.2760  -32.9060 C   0  0  0  0  0  0  0  0  0  0  0  0
   -8.1160   19.7330  -32.3850 C   0  0  0  0  0  0  0  0  0  0  0  0
   -9.1490   20.6210  -31.9140 N   0  0  0  0  0  0  0  0  0  0  0  0
   -9.1370   22.0740  -32.0940 C   0  0  0  0  0  0  0  0  0  0  0  0
   -7.9020   22.6780  -31.4780 C   0  0  0  0  0  0  0  0  0  0  0  0
   -7.0390   23.4640  -32.2570 C   0  0  0  0  0  0  0  0  0  0  0  0
   -5.8910   24.0260  -31.6910 C   0  0  0  0  0  0  0  0  0  0  0  0
   -5.5930   23.8260  -30.3320 C   0  0  0  0  0  0  0  0  0  0  0  0
   -4.3660   24.4230  -29.7500 C   0  0  0  0  0  0  0  0  0  0  0  0
   -3.7080   25.2560  -30.4330 O   0  0  0  0  0  0  0  0  0  0  0  0
   -3.9170   24.0640  -28.4320 N   0  0  0  0  0  0  0  0  0  0  0  0
   -2.7310   24.6120  -27.8320 C   0  0  0  0  0  0  0  0  0  0  0  0
   -2.8090   25.2650  -26.5890 C   0  0  0  0  0  0  0  0  0  0  0  0
   -1.6550   25.7570  -25.9740 C   0  0  0  0  0  0  0  0  0  0  0  0
   -0.4120   25.5940  -26.5850 C   0  0  0  0  0  0  0  0  0  0  0  0
   -0.3180   24.9370  -27.8140 C   0  0  0  0  0  0  0  0  0  0  0  0
   -1.4700   24.4400  -28.4470 C   0  0  0  0  0  0  0  0  0  0  0  0
   -1.3450   23.7980  -29.7220 N   0  0  0  0  0  0  0  0  0  0  0  0
   -6.4590   23.0360  -29.5550 C   0  0  0  0  0  0  0  0  0  0  0  0
   -7.6070   22.4740  -30.1220 C   0  0  0  0  0  0  0  0  0  0  0  0
   -8.2600   18.3390  -32.3370 C   0  0  0  0  0  0  0  0  0  0  0  0
   -7.2420   17.5060  -32.7990 C   0  0  0  0  0  0  0  0  0  0  0  0
   -6.0590   18.0430  -33.3320 C   0  0  0  0  0  0  0  0  0  0  0  0
   -5.0200   17.1030  -33.8190 C   0  0  0  0  0  0  0  0  0  0  0  0
   -4.3540   16.1190  -33.1130 C   0  0  0  0  0  0  0  0  0  0  0  0
   -3.4750   15.5150  -33.9340 N   0  0  0  0  0  0  0  0  0  0  0  0
   -3.6400   16.1570  -35.1080 C   0  0  0  0  0  0  0  0  0  0  0  0
   -4.5500   17.1010  -35.0420 O   0  0  0  0  0  0  0  0  0  0  0  0
   -4.0093   20.7868  -32.0578 H   0  0  0  0  0  0  0  0  0  0  0  0
   -2.8291   20.7934  -33.4119 H   0  0  0  0  0  0  0  0  0  0  0  0
   -4.2026   21.9510  -33.4119 H   0  0  0  0  0  0  0  0  0  0  0  0
   -6.8149   21.3686  -32.9544 H   0  0  0  0  0  0  0  0  0  0  0  0
   -9.9930   20.2070  -31.4560 H   0  0  0  0  0  0  0  0  0  0  0  0
   -9.1535   22.3045  -33.1694 H   0  0  0  0  0  0  0  0  0  0  0  0
  -10.0225   22.4985  -31.5984 H   0  0  0  0  0  0  0  0  0  0  0  0
   -7.2672   23.6388  -33.3188 H   0  0  0  0  0  0  0  0  0  0  0  0
   -5.2152   24.6298  -32.3144 H   0  0  0  0  0  0  0  0  0  0  0  0
   -4.4700   23.3830  -27.8670 H   0  0  0  0  0  0  0  0  0  0  0  0
   -3.7852   25.3893  -26.0976 H   0  0  0  0  0  0  0  0  0  0  0  0
   -1.7270   26.2741  -25.0058 H   0  0  0  0  0  0  0  0  0  0  0  0
    0.4948   25.9830  -26.0988 H   0  0  0  0  0  0  0  0  0  0  0  0
    0.6652   24.8076  -28.2900 H   0  0  0  0  0  0  0  0  0  0  0  0
   -0.7920   22.9210  -29.8460 H   0  0  0  0  0  0  0  0  0  0  0  0
   -1.8460   24.1740  -30.5570 H   0  0  0  0  0  0  0  0  0  0  0  0
   -6.2316   22.8589  -28.4934 H   0  0  0  0  0  0  0  0  0  0  0  0
   -8.2830   21.8681  -29.5007 H   0  0  0  0  0  0  0  0  0  0  0  0
   -9.1833   17.8993  -31.9317 H   0  0  0  0  0  0  0  0  0  0  0  0
   -7.3670   16.4144  -32.7453 H   0  0  0  0  0  0  0  0  0  0  0  0
   -4.5158   15.8703  -32.0538 H   0  0  0  0  0  0  0  0  0  0  0  0
   -3.0746   15.9164  -36.0204 H   0  0  0  0  0  0  0  0  0  0  0  0
  1  2  1  0
  2  3  1  0
  3  4  2  0
  4  5  1  0
  5  6  1  0
  6  7  1  0
  7  8  1  0
  8  9  2  0
  9 10  1  0
 10 11  2  0
 11 12  1  0
 12 13  2  0
 12 14  1  0
 14 15  1  0
 15 16  2  0
 16 17  1  0
 17 18  2  0
 18 19  1  0
 19 20  2  0
 20 21  1  0
 11 22  1  0
 22 23  2  0
  5 24  2  0
 24 25  1  0
 25 26  2  0
 26 27  1  0
 27 28  2  0
 28 29  1  0
 29 30  2  0
 30 31  1  0
 26  3  1  0
 31 27  1  0
 23  8  1  0
 20 15  1  0
  1 32  1  0
  1 33  1  0
  1 34  1  0
  4 35  1  0
  6 36  1  0
  7 37  1  0
  7 38  1  0
  9 39  1  0
 10 40  1  0
 14 41  1  0
 16 42  1  0
 17 43  1  0
 18 44  1  0
 19 45  1  0
 21 46  1  0
 21 47  1  0
 22 48  1  0
 23 49  1  0
 24 50  1  0
 25 51  1  0
 28 52  1  0
 30 53  1  0
M  END
>  <UniqueID>  (29) 
26

>  <SMILES>  (29) 
COc1cc(NCc2ccc(C(=O)Nc3ccccc3N)cc2)ccc1-c1cnco1

>  <Energy>  (29) 
97.04276426275828

>  <Genealogy>  (29) 
COc1cc(NCc2ccc(C(=O)Nc3ccccc3N)cc2)ccc1-c1cnco1 (3D coordinates assigned)
COc1cc(NCc2ccc(C(=O)Nc3ccccc3N)cc2)ccc1-c1cnco1 (optimized conformer: 97.04276426275828 kcal/mol)

>  <smiles>  (29) 
COc1cc(NCc2ccc(C(=O)Nc3ccccc3N)cc2)ccc1-c1cnco1

>  <score_type>  (29) 
oracle

>  <origin>  (29) 
adgpu

>  <m_score__min__energy>  (29) 
-9.5899999999999999

>  <m_primary>  (29) 
energy

$$$$
29:0
     RDKit          3D

 38 41  0  0  0  0  0  0  0  0999 V2000
   -3.2340   20.2810  -31.9420 O   0  0  0  0  0  0  0  0  0  0  0  0
   -4.3440   20.8520  -31.7720 C   0  0  0  0  0  0  0  0  0  0  0  0
   -4.5290   22.1940  -31.2310 C   0  0  0  0  0  0  0  0  0  0  0  0
   -3.6020   23.1150  -30.7500 C   0  0  0  0  0  0  0  0  0  0  0  0
   -4.0780   24.3550  -30.2850 C   0  0  0  0  0  0  0  0  0  0  0  0
   -3.1740   25.2930  -29.7990 O   0  0  0  0  0  0  0  0  0  0  0  0
   -5.4670   24.6460  -30.3120 C   0  0  0  0  0  0  0  0  0  0  0  0
   -5.9530   25.8690  -29.8530 O   0  0  0  0  0  0  0  0  0  0  0  0
   -6.3770   23.6930  -30.8060 C   0  0  0  0  0  0  0  0  0  0  0  0
   -5.8770   22.4760  -31.2610 C   0  0  0  0  0  0  0  0  0  0  0  0
   -6.5610   21.3140  -31.8160 C   0  0  0  0  0  0  0  0  0  0  0  0
   -7.8080   21.1960  -31.9510 O   0  0  0  0  0  0  0  0  0  0  0  0
   -5.6100   20.2930  -32.1400 N   0  0  0  0  0  0  0  0  0  0  0  0
   -5.8670   18.9980  -32.7120 C   0  0  0  0  0  0  0  0  0  0  0  0
   -4.9760   18.4430  -33.6460 C   0  0  0  0  0  0  0  0  0  0  0  0
   -5.2270   17.1850  -34.2030 C   0  0  0  0  0  0  0  0  0  0  0  0
   -6.3720   16.4710  -33.8350 C   0  0  0  0  0  0  0  0  0  0  0  0
   -6.6980   14.8620  -34.5560 S   0  0  0  0  0  0  0  0  0  0  0  0
   -5.1610   14.1730  -33.9420 C   0  0  0  0  0  0  0  0  0  0  0  0
   -4.9830   13.9630  -32.5690 C   0  0  0  0  0  0  0  0  0  0  0  0
   -3.7870   13.4200  -32.0920 C   0  0  0  0  0  0  0  0  0  0  0  0
   -2.7620   13.0880  -32.9860 C   0  0  0  0  0  0  0  0  0  0  0  0
   -1.5740   12.5470  -32.5110 O   0  0  0  0  0  0  0  0  0  0  0  0
   -2.9360   13.3000  -34.3580 C   0  0  0  0  0  0  0  0  0  0  0  0
   -4.1330   13.8430  -34.8360 C   0  0  0  0  0  0  0  0  0  0  0  0
   -7.2610   17.0140  -32.9010 C   0  0  0  0  0  0  0  0  0  0  0  0
   -7.0110   18.2710  -32.3430 C   0  0  0  0  0  0  0  0  0  0  0  0
   -2.5275   22.8799  -30.7339 H   0  0  0  0  0  0  0  0  0  0  0  0
   -5.4500   26.4250  -29.1730 H   0  0  0  0  0  0  0  0  0  0  0  0
   -7.4562   23.9043  -30.8320 H   0  0  0  0  0  0  0  0  0  0  0  0
   -4.0754   19.0015  -33.9409 H   0  0  0  0  0  0  0  0  0  0  0  0
   -4.5230   16.7565  -34.9315 H   0  0  0  0  0  0  0  0  0  0  0  0
   -5.7860   14.2259  -31.8647 H   0  0  0  0  0  0  0  0  0  0  0  0
   -3.6508   13.2533  -31.0133 H   0  0  0  0  0  0  0  0  0  0  0  0
   -2.1311   13.0395  -35.0610 H   0  0  0  0  0  0  0  0  0  0  0  0
   -4.2679   14.0113  -35.9147 H   0  0  0  0  0  0  0  0  0  0  0  0
   -8.1583   16.4507  -32.6052 H   0  0  0  0  0  0  0  0  0  0  0  0
   -7.7144   18.6935  -31.6104 H   0  0  0  0  0  0  0  0  0  0  0  0
  1  2  2  0
  2  3  1  0
  3  4  2  0
  4  5  1  0
  5  6  1  0
  5  7  2  0
  7  8  1  0
  7  9  1  0
  9 10  2  0
 10 11  1  0
 11 12  2  0
 11 13  1  0
 13 14  1  0
 14 15  2  0
 15 16  1  0
 16 17  2  0
 17 18  1  0
 18 19  1  0
 19 20  2  0
 20 21  1  0
 21 22  2  0
 22 23  1  0
 22 24  1  0
 24 25  2  0
 17 26  1  0
 26 27  2  0
 13  2  1  0
 27 14  1  0
 10  3  1  0
 25 19  1  0
  4 28  1  0
  8 29  1  0
  9 30  1  0
 15 31  1  0
 16 32  1  0
 20 33  1  0
 21 34  1  0
 24 35  1  0
 25 36  1  0
 26 37  1  0
 27 38  1  0
M  CHG  2   6  -1  23  -1
M  END
>  <UniqueID>  (30) 
27

>  <SMILES>  (30) 
O=C1c2cc([O-])c(O)cc2C(=O)N1c1ccc(Sc2ccc([O-])cc2)cc1

>  <Energy>  (30) 
75.61257510162206

>  <Genealogy>  (30) 
O=C1c2cc([O-])c(O)cc2C(=O)N1c1ccc(Sc2ccc([O-])cc2)cc1 (protonated)
O=C1c2cc([O-])c(O)cc2C(=O)N1c1ccc(Sc2ccc([O-])cc2)cc1 (3D coordinates assigned)
O=C1c2cc([O-])c(O)cc2C(=O)N1c1ccc(Sc2ccc([O-])cc2)cc1 (nonaromatic ring conformer: 75.61257510162206 kcal/mol)

>  <smiles>  (30) 
O=C1c2cc(O)c(O)cc2C(=O)N1c1ccc(Sc2ccc(O)cc2)cc1

>  <score_type>  (30) 
oracle

>  <origin>  (30) 
adgpu

>  <m_score__min__energy>  (30) 
-11.140000000000001

>  <m_primary>  (30) 
energy

$$$$
30:0
     RDKit          3D

 52 55  0  0  0  0  0  0  0  0999 V2000
   -2.1980   22.3580  -30.6230 C   0  0  0  0  0  0  0  0  0  0  0  0
   -1.5380   21.1290  -31.1530 C   0  0  0  0  0  0  0  0  0  0  0  0
   -1.9940   20.3520  -32.2100 C   0  0  0  0  0  0  0  0  0  0  0  0
   -1.1690   19.3160  -32.5390 N   0  0  0  0  0  0  0  0  0  0  0  0
   -1.4750   18.3390  -33.5830 C   0  0  0  0  0  0  0  0  0  0  0  0
   -2.9520   18.0570  -33.6050 C   0  0  0  0  0  0  0  0  0  0  0  0
   -3.4570   16.9170  -32.9630 C   0  0  0  0  0  0  0  0  0  0  0  0
   -4.8270   16.6480  -32.9800 C   0  0  0  0  0  0  0  0  0  0  0  0
   -5.7140   17.5150  -33.6400 C   0  0  0  0  0  0  0  0  0  0  0  0
   -7.2060   17.3090  -33.5170 C   0  0  0  0  0  0  0  0  0  0  0  0
   -7.7150   17.6150  -32.0950 C   0  0  0  0  0  0  0  0  0  0  0  0
   -7.7340   19.0980  -31.8190 C   0  0  0  0  0  0  0  0  0  0  0  0
   -6.5290   19.8130  -31.7190 C   0  0  0  0  0  0  0  0  0  0  0  0
   -6.5390   21.2110  -31.7000 C   0  0  0  0  0  0  0  0  0  0  0  0
   -7.7540   21.9110  -31.7660 C   0  0  0  0  0  0  0  0  0  0  0  0
   -7.7610   23.4030  -31.9360 C   0  0  0  0  0  0  0  0  0  0  0  0
   -6.6980   23.9880  -31.1210 N   0  0  0  0  0  0  0  0  0  0  0  0
   -6.8430   24.6150  -29.9340 C   0  0  0  0  0  0  0  0  0  0  0  0
   -5.6870   25.1630  -29.5130 N   0  0  0  0  0  0  0  0  0  0  0  0
   -4.8000   24.8780  -30.4810 C   0  0  0  0  0  0  0  0  0  0  0  0
   -3.4710   25.2810  -30.4650 O   0  0  0  0  0  0  0  0  0  0  0  0
   -5.4100   24.1590  -31.4810 C   0  0  0  0  0  0  0  0  0  0  0  0
   -8.9590   21.1970  -31.8240 C   0  0  0  0  0  0  0  0  0  0  0  0
   -8.9500   19.8000  -31.8480 C   0  0  0  0  0  0  0  0  0  0  0  0
   -5.2070   18.6430  -34.3020 C   0  0  0  0  0  0  0  0  0  0  0  0
   -3.8320   18.9060  -34.2940 C   0  0  0  0  0  0  0  0  0  0  0  0
   -0.0610   19.2560  -31.7600 C   0  0  0  0  0  0  0  0  0  0  0  0
   -0.0590   20.5090  -30.6370 S   0  0  0  0  0  0  0  0  0  0  0  0
   -2.1859   22.3355  -29.5233 H   0  0  0  0  0  0  0  0  0  0  0  0
   -1.6560   23.2472  -30.9775 H   0  0  0  0  0  0  0  0  0  0  0  0
   -3.2386   22.3973  -30.9775 H   0  0  0  0  0  0  0  0  0  0  0  0
   -2.9385   20.5542  -32.7364 H   0  0  0  0  0  0  0  0  0  0  0  0
   -1.1659   18.7402  -34.5595 H   0  0  0  0  0  0  0  0  0  0  0  0
   -0.9317   17.4054  -33.3750 H   0  0  0  0  0  0  0  0  0  0  0  0
   -2.7708   16.2318  -32.4438 H   0  0  0  0  0  0  0  0  0  0  0  0
   -5.2143   15.7517  -32.4735 H   0  0  0  0  0  0  0  0  0  0  0  0
   -7.7164   17.9752  -34.2281 H   0  0  0  0  0  0  0  0  0  0  0  0
   -7.4227   16.2530  -33.7359 H   0  0  0  0  0  0  0  0  0  0  0  0
   -8.7357   17.2189  -31.9883 H   0  0  0  0  0  0  0  0  0  0  0  0
   -7.0320   17.1399  -31.3755 H   0  0  0  0  0  0  0  0  0  0  0  0
   -5.5739   19.2710  -31.6554 H   0  0  0  0  0  0  0  0  0  0  0  0
   -5.5908   21.7647  -31.6331 H   0  0  0  0  0  0  0  0  0  0  0  0
   -7.5924   23.6529  -32.9939 H   0  0  0  0  0  0  0  0  0  0  0  0
   -8.7336   23.8053  -31.6163 H   0  0  0  0  0  0  0  0  0  0  0  0
   -7.7905   24.6714  -29.3781 H   0  0  0  0  0  0  0  0  0  0  0  0
   -5.5230   25.7090  -28.6380 H   0  0  0  0  0  0  0  0  0  0  0  0
   -4.9358   23.7916  -32.4030 H   0  0  0  0  0  0  0  0  0  0  0  0
   -9.9159   21.7390  -31.8507 H   0  0  0  0  0  0  0  0  0  0  0  0
   -9.9001   19.2473  -31.8898 H   0  0  0  0  0  0  0  0  0  0  0  0
   -5.8921   19.3232  -34.8292 H   0  0  0  0  0  0  0  0  0  0  0  0
   -3.4393   19.7824  -34.8304 H   0  0  0  0  0  0  0  0  0  0  0  0
    0.7272   18.4940  -31.8497 H   0  0  0  0  0  0  0  0  0  0  0  0
  1  2  1  0
  2  3  2  0
  3  4  1  0
  4  5  1  0
  5  6  1  0
  6  7  2  0
  7  8  1  0
  8  9  2  0
  9 10  1  0
 10 11  1  0
 11 12  1  0
 12 13  2  0
 13 14  1  0
 14 15  2  0
 15 16  1  0
 16 17  1  0
 17 18  2  0
 18 19  1  0
 19 20  1  0
 20 21  1  0
 20 22  2  0
 15 23  1  0
 23 24  2  0
  9 25  1  0
 25 26  2  0
  4 27  2  0
 27 28  1  0
 28  2  1  0
 26  6  1  0
 24 12  1  0
 22 17  1  0
  1 29  1  0
  1 30  1  0
  1 31  1  0
  3 32  1  0
  5 33  1  0
  5 34  1  0
  7 35  1  0
  8 36  1  0
 10 37  1  0
 10 38  1  0
 11 39  1  0
 11 40  1  0
 13 41  1  0
 14 42  1  0
 16 43  1  0
 16 44  1  0
 18 45  1  0
 19 46  1  0
 22 47  1  0
 23 48  1  0
 24 49  1  0
 25 50  1  0
 26 51  1  0
 27 52  1  0
M  CHG  3   4   1  17   1  21  -1
M  END
>  <UniqueID>  (31) 
28

>  <SMILES>  (31) 
Cc1c[n+](Cc2ccc(CCc3ccc(C[n+]4c[nH]c([O-])c4)cc3)cc2)cs1

>  <Energy>  (31) 
106.54782057589559

>  <Genealogy>  (31) 
Cc1c[n+](Cc2ccc(CCc3ccc(C[n+]4c[nH]c([O-])c4)cc3)cc2)cs1 (protonated)
Cc1c[n+](Cc2ccc(CCc3ccc(C[n+]4c[nH]c([O-])c4)cc3)cc2)cs1 (3D coordinates assigned)
Cc1c[n+](Cc2ccc(CCc3ccc(C[n+]4c[nH]c([O-])c4)cc3)cc2)cs1 (optimized conformer: 106.54782057589559 kcal/mol)

>  <smiles>  (31) 
Cc1c[n+](Cc2ccc(CCc3ccc(C[n+]4c[nH]c(O)c4)cc3)cc2)cs1

>  <score_type>  (31) 
oracle

>  <origin>  (31) 
adgpu

>  <m_score__min__energy>  (31) 
-11.27

>  <m_primary>  (31) 
energy

$$$$
31:0
     RDKit          3D

 70 74  0  0  0  0  0  0  0  0999 V2000
   -2.2950   17.3000  -34.9520 C   0  0  0  0  0  0  0  0  0  0  0  0
   -1.8820   18.3070  -33.9120 C   0  0  0  0  0  0  0  0  0  0  0  0
   -0.5190   18.6210  -33.7860 C   0  0  0  0  0  0  0  0  0  0  0  0
   -0.0820   19.5240  -32.8150 C   0  0  0  0  0  0  0  0  0  0  0  0
   -0.9950   20.1440  -31.9570 C   0  0  0  0  0  0  0  0  0  0  0  0
   -0.5180   21.0690  -30.9690 N   0  0  0  0  0  0  0  0  0  0  0  0
   -1.3060   22.1560  -30.4490 C   0  0  0  0  0  0  0  0  0  0  0  0
   -2.2020   22.6670  -31.1710 O   0  0  0  0  0  0  0  0  0  0  0  0
   -1.0780   22.6850  -29.0820 C   0  0  0  0  0  0  0  0  0  0  0  0
   -1.4620   21.9240  -27.9630 C   0  0  0  0  0  0  0  0  0  0  0  0
   -1.2310   22.3940  -26.6670 C   0  0  0  0  0  0  0  0  0  0  0  0
   -0.6010   23.6310  -26.4630 C   0  0  0  0  0  0  0  0  0  0  0  0
   -0.3740   24.1550  -25.0610 C   0  0  0  0  0  0  0  0  0  0  0  0
   -0.2390   25.6250  -24.9770 N   0  0  0  0  0  0  0  0  0  0  0  0
    0.4600   26.0850  -23.7570 C   0  0  0  0  0  0  0  0  0  0  0  0
    0.4120   27.6230  -23.6140 C   0  0  0  0  0  0  0  0  0  0  0  0
    0.0860   28.3050  -24.8820 N   0  0  0  0  0  0  0  0  0  0  0  0
    1.2020   28.2440  -25.8400 C   0  0  0  0  0  0  0  0  0  0  0  0
   -1.1940   27.8370  -25.4670 C   0  0  0  0  0  0  0  0  0  0  0  0
   -1.4970   26.3530  -25.1780 C   0  0  0  0  0  0  0  0  0  0  0  0
   -0.2290   24.4000  -27.5750 C   0  0  0  0  0  0  0  0  0  0  0  0
   -0.4530   23.9300  -28.8720 C   0  0  0  0  0  0  0  0  0  0  0  0
   -2.3570   19.8180  -32.0610 C   0  0  0  0  0  0  0  0  0  0  0  0
   -2.8190   18.9390  -33.0560 C   0  0  0  0  0  0  0  0  0  0  0  0
   -4.2760   18.6960  -33.1420 C   0  0  0  0  0  0  0  0  0  0  0  0
   -5.2040   19.6770  -32.7610 C   0  0  0  0  0  0  0  0  0  0  0  0
   -6.5790   19.3770  -32.8310 C   0  0  0  0  0  0  0  0  0  0  0  0
   -7.5970   20.3590  -32.5040 N   0  0  0  0  0  0  0  0  0  0  0  0
   -9.0030   19.9450  -32.3380 C   0  0  0  0  0  0  0  0  0  0  0  0
   -9.9150   21.1210  -32.0070 C   0  0  0  0  0  0  0  0  0  0  0  0
   -9.2790   21.9620  -31.0700 O   0  0  0  0  0  0  0  0  0  0  0  0
   -8.2640   22.6830  -31.7350 C   0  0  0  0  0  0  0  0  0  0  0  0
   -7.1620   21.7570  -32.2920 C   0  0  0  0  0  0  0  0  0  0  0  0
   -6.9540   18.1310  -33.2380 N   0  0  0  0  0  0  0  0  0  0  0  0
   -6.0440   17.1870  -33.5830 C   0  0  0  0  0  0  0  0  0  0  0  0
   -4.7180   17.4710  -33.5320 N   0  0  0  0  0  0  0  0  0  0  0  0
   -2.6675   16.3918  -34.4555 H   0  0  0  0  0  0  0  0  0  0  0  0
   -3.0906   17.7270  -35.5802 H   0  0  0  0  0  0  0  0  0  0  0  0
   -1.4287   17.0454  -35.5802 H   0  0  0  0  0  0  0  0  0  0  0  0
    0.2122   18.1504  -34.4597 H   0  0  0  0  0  0  0  0  0  0  0  0
    0.9908   19.7497  -32.7243 H   0  0  0  0  0  0  0  0  0  0  0  0
    0.4880   21.0150  -30.6930 H   0  0  0  0  0  0  0  0  0  0  0  0
   -1.9492   20.9487  -28.1094 H   0  0  0  0  0  0  0  0  0  0  0  0
   -1.5448   21.7908  -25.8023 H   0  0  0  0  0  0  0  0  0  0  0  0
   -1.2272   23.8509  -24.4369 H   0  0  0  0  0  0  0  0  0  0  0  0
    0.5801   23.7301  -24.7157 H   0  0  0  0  0  0  0  0  0  0  0  0
   -0.0208   25.6304  -22.8783 H   0  0  0  0  0  0  0  0  0  0  0  0
    1.5145   25.7811  -23.8318 H   0  0  0  0  0  0  0  0  0  0  0  0
   -0.3535   27.8830  -22.8681 H   0  0  0  0  0  0  0  0  0  0  0  0
    1.4130   27.9585  -23.3050 H   0  0  0  0  0  0  0  0  0  0  0  0
    2.1539   28.1920  -25.2912 H   0  0  0  0  0  0  0  0  0  0  0  0
    1.0940   27.3504  -26.4723 H   0  0  0  0  0  0  0  0  0  0  0  0
    1.1920   29.1440  -26.4723 H   0  0  0  0  0  0  0  0  0  0  0  0
   -2.0101   28.4462  -25.0512 H   0  0  0  0  0  0  0  0  0  0  0  0
   -1.1083   27.9428  -26.5585 H   0  0  0  0  0  0  0  0  0  0  0  0
   -2.1143   26.2751  -24.2708 H   0  0  0  0  0  0  0  0  0  0  0  0
   -2.0394   25.9177  -26.0303 H   0  0  0  0  0  0  0  0  0  0  0  0
    0.2434   25.3820  -27.4251 H   0  0  0  0  0  0  0  0  0  0  0  0
   -0.1392   24.5362  -29.7346 H   0  0  0  0  0  0  0  0  0  0  0  0
   -3.0741   20.2577  -31.3522 H   0  0  0  0  0  0  0  0  0  0  0  0
   -4.8639   20.6637  -32.4135 H   0  0  0  0  0  0  0  0  0  0  0  0
   -9.3485   19.4814  -33.2738 H   0  0  0  0  0  0  0  0  0  0  0  0
   -9.0490   19.2356  -31.4986 H   0  0  0  0  0  0  0  0  0  0  0  0
  -10.1275   21.6894  -32.9245 H   0  0  0  0  0  0  0  0  0  0  0  0
  -10.8570   20.7451  -31.5812 H   0  0  0  0  0  0  0  0  0  0  0  0
   -8.7140   23.2404  -32.5698 H   0  0  0  0  0  0  0  0  0  0  0  0
   -7.7983   23.3622  -31.0057 H   0  0  0  0  0  0  0  0  0  0  0  0
   -6.8243   22.1636  -33.2567 H   0  0  0  0  0  0  0  0  0  0  0  0
   -6.3610   21.7289  -31.5386 H   0  0  0  0  0  0  0  0  0  0  0  0
   -6.3807   16.1904  -33.9044 H   0  0  0  0  0  0  0  0  0  0  0  0
  1  2  1  0
  2  3  2  0
  3  4  1  0
  4  5  2  0
  5  6  1  0
  6  7  1  0
  7  8  2  0
  7  9  1  0
  9 10  2  0
 10 11  1  0
 11 12  2  0
 12 13  1  0
 13 14  1  0
 14 15  1  0
 15 16  1  0
 16 17  1  0
 17 18  1  0
 17 19  1  0
 19 20  1  0
 12 21  1  0
 21 22  2  0
  5 23  1  0
 23 24  2  0
 24 25  1  0
 25 26  2  0
 26 27  1  0
 27 28  1  0
 28 29  1  0
 29 30  1  0
 30 31  1  0
 31 32  1  0
 32 33  1  0
 27 34  2  0
 34 35  1  0
 35 36  2  0
 24  2  1  0
 36 25  1  0
 22  9  1  0
 33 28  1  0
 20 14  1  0
  1 37  1  0
  1 38  1  0
  1 39  1  0
  3 40  1  0
  4 41  1  0
  6 42  1  0
 10 43  1  0
 11 44  1  0
 13 45  1  0
 13 46  1  0
 15 47  1  0
 15 48  1  0
 16 49  1  0
 16 50  1  0
 18 51  1  0
 18 52  1  0
 18 53  1  0
 19 54  1  0
 19 55  1  0
 20 56  1  0
 20 57  1  0
 21 58  1  0
 22 59  1  0
 23 60  1  0
 26 61  1  0
 29 62  1  0
 29 63  1  0
 30 64  1  0
 30 65  1  0
 32 66  1  0
 32 67  1  0
 33 68  1  0
 33 69  1  0
 35 70  1  0
M  END
>  <UniqueID>  (32) 
29

>  <SMILES>  (32) 
Cc1ccc(NC(=O)c2ccc(CN3CCN(C)CC3)cc2)cc1-c1cc(N2CCOCC2)ncn1

>  <Energy>  (32) 
107.34622886909725

>  <Genealogy>  (32) 
Cc1ccc(NC(=O)c2ccc(CN3CCN(C)CC3)cc2)cc1-c1cc(N2CCOCC2)ncn1 (3D coordinates assigned)
Cc1ccc(NC(=O)c2ccc(CN3CCN(C)CC3)cc2)cc1-c1cc(N2CCOCC2)ncn1 (nonaromatic ring conformer: 107.34622886909725 kcal/mol)

>  <smiles>  (32) 
Cc1ccc(NC(=O)c2ccc(CN3CCN(C)CC3)cc2)cc1-c1cc(N2CCOCC2)ncn1

>  <score_type>  (32) 
oracle

>  <origin>  (32) 
adgpu

>  <m_score__min__energy>  (32) 
-9.4700000000000006

>  <m_primary>  (32) 
energy

$$$$
32:0
     RDKit          3D

 54 57  0  0  0  0  0  0  0  0999 V2000
   -2.7450   25.1110  -29.3330 O   0  0  0  0  0  0  0  0  0  0  0  0
   -3.4340   24.1790  -28.8350 C   0  0  0  0  0  0  0  0  0  0  0  0
   -3.0160   23.5810  -27.5980 N   0  0  0  0  0  0  0  0  0  0  0  0
   -2.1830   24.2750  -26.6580 C   0  0  0  0  0  0  0  0  0  0  0  0
   -2.4970   25.6000  -26.3180 C   0  0  0  0  0  0  0  0  0  0  0  0
   -1.7310   26.2890  -25.3740 C   0  0  0  0  0  0  0  0  0  0  0  0
   -0.6410   25.6630  -24.7660 C   0  0  0  0  0  0  0  0  0  0  0  0
   -0.3030   24.3520  -25.1150 C   0  0  0  0  0  0  0  0  0  0  0  0
   -1.0580   23.6530  -26.0670 C   0  0  0  0  0  0  0  0  0  0  0  0
   -0.6220   22.3500  -26.4890 N   0  0  0  0  0  0  0  0  0  0  0  0
    0.3630   22.1950  -27.5600 C   0  0  0  0  0  0  0  0  0  0  0  0
   -0.1370   21.1490  -28.5590 C   0  0  0  0  0  0  0  0  0  0  0  0
   -0.4810   19.9470  -27.8920 O   0  0  0  0  0  0  0  0  0  0  0  0
   -1.5780   20.1710  -27.0230 C   0  0  0  0  0  0  0  0  0  0  0  0
   -1.1960   21.1380  -25.9000 C   0  0  0  0  0  0  0  0  0  0  0  0
   -4.6540   23.7120  -29.5360 C   0  0  0  0  0  0  0  0  0  0  0  0
   -5.6820   24.6200  -29.8500 C   0  0  0  0  0  0  0  0  0  0  0  0
   -6.8530   24.1800  -30.4730 C   0  0  0  0  0  0  0  0  0  0  0  0
   -7.0150   22.8290  -30.7970 C   0  0  0  0  0  0  0  0  0  0  0  0
   -8.5120   22.2730  -31.5430 S   0  0  0  0  0  0  0  0  0  0  0  0
   -9.4800   21.8700  -30.4670 O   0  0  0  0  0  0  0  0  0  0  0  0
   -9.1240   23.3920  -32.3410 O   0  0  0  0  0  0  0  0  0  0  0  0
   -8.1740   20.9000  -32.5660 N   0  0  0  0  0  0  0  0  0  0  0  0
   -8.2960   19.6460  -31.8240 C   0  0  0  0  0  0  0  0  0  0  0  0
   -7.4100   18.6440  -32.5400 C   0  0  0  0  0  0  0  0  0  0  0  0
   -6.3510   19.4820  -33.2370 C   0  0  0  0  0  0  0  0  0  0  0  0
   -6.7970   20.9310  -33.0640 C   0  0  0  0  0  0  0  0  0  0  0  0
   -6.0000   21.9170  -30.4830 C   0  0  0  0  0  0  0  0  0  0  0  0
   -4.8300   22.3530  -29.8570 C   0  0  0  0  0  0  0  0  0  0  0  0
   -3.1470   22.5520  -27.4760 H   0  0  0  0  0  0  0  0  0  0  0  0
   -3.3517   26.0994  -26.7978 H   0  0  0  0  0  0  0  0  0  0  0  0
   -1.9870   27.3256  -25.1096 H   0  0  0  0  0  0  0  0  0  0  0  0
   -0.0480   26.2015  -24.0121 H   0  0  0  0  0  0  0  0  0  0  0  0
    0.5614   23.8657  -24.6392 H   0  0  0  0  0  0  0  0  0  0  0  0
    0.5014   23.1576  -28.0741 H   0  0  0  0  0  0  0  0  0  0  0  0
    1.3229   21.8683  -27.1336 H   0  0  0  0  0  0  0  0  0  0  0  0
   -1.0238   21.5405  -29.0790 H   0  0  0  0  0  0  0  0  0  0  0  0
    0.6648   20.9368  -29.2815 H   0  0  0  0  0  0  0  0  0  0  0  0
   -2.4120   20.5989  -27.5986 H   0  0  0  0  0  0  0  0  0  0  0  0
   -1.8734   19.2108  -26.5749 H   0  0  0  0  0  0  0  0  0  0  0  0
   -2.0919   21.3995  -25.3179 H   0  0  0  0  0  0  0  0  0  0  0  0
   -0.4594   20.6631  -25.2352 H   0  0  0  0  0  0  0  0  0  0  0  0
   -5.5629   25.6853  -29.6030 H   0  0  0  0  0  0  0  0  0  0  0  0
   -7.6509   24.8993  -30.7096 H   0  0  0  0  0  0  0  0  0  0  0  0
   -7.9569   19.7821  -30.7864 H   0  0  0  0  0  0  0  0  0  0  0  0
   -9.3403   19.3026  -31.7853 H   0  0  0  0  0  0  0  0  0  0  0  0
   -6.9452   17.9549  -31.8195 H   0  0  0  0  0  0  0  0  0  0  0  0
   -7.9777   18.0232  -33.2487 H   0  0  0  0  0  0  0  0  0  0  0  0
   -5.3676   19.3243  -32.7701 H   0  0  0  0  0  0  0  0  0  0  0  0
   -6.2497   19.2106  -34.2982 H   0  0  0  0  0  0  0  0  0  0  0  0
   -6.1453   21.4428  -32.3405 H   0  0  0  0  0  0  0  0  0  0  0  0
   -6.7372   21.4761  -34.0176 H   0  0  0  0  0  0  0  0  0  0  0  0
   -6.1246   20.8525  -30.7304 H   0  0  0  0  0  0  0  0  0  0  0  0
   -4.0395   21.6281  -29.6128 H   0  0  0  0  0  0  0  0  0  0  0  0
  1  2  2  0
  2  3  1  0
  3  4  1  0
  4  5  2  0
  5  6  1  0
  6  7  2  0
  7  8  1  0
  8  9  2  0
  9 10  1  0
 10 11  1  0
 11 12  1  0
 12 13  1  0
 13 14  1  0
 14 15  1  0
  2 16  1  0
 16 17  2  0
 17 18  1  0
 18 19  2  0
 19 20  1  0
 20 21  2  0
 20 22  2  0
 20 23  1  0
 23 24  1  0
 24 25  1  0
 25 26  1  0
 26 27  1  0
 19 28  1  0
 28 29  2  0
  9  4  1  0
 15 10  1  0
 29 16  1  0
 27 23  1  0
  3 30  1  0
  5 31  1  0
  6 32  1  0
  7 33  1  0
  8 34  1  0
 11 35  1  0
 11 36  1  0
 12 37  1  0
 12 38  1  0
 14 39  1  0
 14 40  1  0
 15 41  1  0
 15 42  1  0
 17 43  1  0
 18 44  1  0
 24 45  1  0
 24 46  1  0
 25 47  1  0
 25 48  1  0
 26 49  1  0
 26 50  1  0
 27 51  1  0
 27 52  1  0
 28 53  1  0
 29 54  1  0
M  END
>  <UniqueID>  (33) 
30

>  <SMILES>  (33) 
O=C(Nc1ccccc1N1CCOCC1)c1ccc(S(=O)(=O)N2CCCC2)cc1

>  <Energy>  (33) 
69.33742221847784

>  <Genealogy>  (33) 
O=C(Nc1ccccc1N1CCOCC1)c1ccc(S(=O)(=O)N2CCCC2)cc1 (3D coordinates assigned)
O=C(Nc1ccccc1N1CCOCC1)c1ccc(S(=O)(=O)N2CCCC2)cc1 (nonaromatic ring conformer: 69.33742221847784 kcal/mol)

>  <smiles>  (33) 
O=C(Nc1ccccc1N1CCOCC1)c1ccc(S(=O)(=O)N2CCCC2)cc1

>  <score_type>  (33) 
oracle

>  <origin>  (33) 
adgpu

>  <m_score__min__energy>  (33) 
-9.8000000000000007

>  <m_primary>  (33) 
energy

$$$$
33:0
     RDKit          3D

 37 39  0  0  0  0  0  0  0  0999 V2000
    1.5670   19.0100  -29.8130 C   0  0  0  0  0  0  0  0  0  0  0  0
    1.4010   19.4990  -28.4870 O   0  0  0  0  0  0  0  0  0  0  0  0
    0.1820   19.5090  -27.7890 C   0  0  0  0  0  0  0  0  0  0  0  0
   -0.4840   18.3180  -27.4330 C   0  0  0  0  0  0  0  0  0  0  0  0
   -1.6910   18.3680  -26.7330 C   0  0  0  0  0  0  0  0  0  0  0  0
   -2.2400   19.5980  -26.3710 C   0  0  0  0  0  0  0  0  0  0  0  0
   -1.5900   20.7840  -26.7180 C   0  0  0  0  0  0  0  0  0  0  0  0
   -0.3860   20.7480  -27.4450 C   0  0  0  0  0  0  0  0  0  0  0  0
    0.3170   21.9500  -27.7950 N   0  0  0  0  0  0  0  0  0  0  0  0
   -0.0690   22.9130  -28.7860 C   0  0  0  0  0  0  0  0  0  0  0  0
    0.3700   24.0940  -28.7220 O   0  0  0  0  0  0  0  0  0  0  0  0
   -1.0250   22.5360  -29.8530 C   0  0  0  0  0  0  0  0  0  0  0  0
   -0.6770   21.5750  -30.8190 C   0  0  0  0  0  0  0  0  0  0  0  0
   -1.5810   21.2190  -31.8220 C   0  0  0  0  0  0  0  0  0  0  0  0
   -2.8410   21.8160  -31.8750 C   0  0  0  0  0  0  0  0  0  0  0  0
   -3.2120   22.7800  -30.9240 C   0  0  0  0  0  0  0  0  0  0  0  0
   -4.5100   23.3980  -30.9810 N   0  0  0  0  0  0  0  0  0  0  0  0
   -5.6880   22.8000  -31.2600 C   0  0  0  0  0  0  0  0  0  0  0  0
   -5.8340   21.4430  -31.5220 O   0  0  0  0  0  0  0  0  0  0  0  0
   -6.7270   23.7090  -31.2250 C   0  0  0  0  0  0  0  0  0  0  0  0
   -6.1600   24.9280  -30.9040 C   0  0  0  0  0  0  0  0  0  0  0  0
   -4.8060   24.6970  -30.7640 C   0  0  0  0  0  0  0  0  0  0  0  0
   -3.8650   25.6760  -30.4670 O   0  0  0  0  0  0  0  0  0  0  0  0
   -2.2980   23.1340  -29.9160 C   0  0  0  0  0  0  0  0  0  0  0  0
    1.9204   17.9689  -29.7783 H   0  0  0  0  0  0  0  0  0  0  0  0
    0.6040   19.0528  -30.3429 H   0  0  0  0  0  0  0  0  0  0  0  0
    2.3049   19.6303  -30.3429 H   0  0  0  0  0  0  0  0  0  0  0  0
   -0.0505   17.3451  -27.7081 H   0  0  0  0  0  0  0  0  0  0  0  0
   -2.2100   17.4355  -26.4665 H   0  0  0  0  0  0  0  0  0  0  0  0
   -3.1863   19.6337  -25.8114 H   0  0  0  0  0  0  0  0  0  0  0  0
   -2.0215   21.7514  -26.4215 H   0  0  0  0  0  0  0  0  0  0  0  0
    0.3147   21.1002  -30.7842 H   0  0  0  0  0  0  0  0  0  0  0  0
   -1.2990   20.4658  -32.5724 H   0  0  0  0  0  0  0  0  0  0  0  0
   -3.5484   21.5295  -32.6671 H   0  0  0  0  0  0  0  0  0  0  0  0
   -7.7911   23.5043  -31.4144 H   0  0  0  0  0  0  0  0  0  0  0  0
   -6.6823   25.8887  -30.7842 H   0  0  0  0  0  0  0  0  0  0  0  0
   -2.5812   23.8880  -29.1668 H   0  0  0  0  0  0  0  0  0  0  0  0
  1  2  1  0
  2  3  1  0
  3  4  2  0
  4  5  1  0
  5  6  2  0
  6  7  1  0
  7  8  2  0
  8  9  1  0
  9 10  1  0
 10 11  2  0
 10 12  1  0
 12 13  2  0
 13 14  1  0
 14 15  2  0
 15 16  1  0
 16 17  1  0
 17 18  1  0
 18 19  1  0
 18 20  2  0
 20 21  1  0
 21 22  2  0
 22 23  1  0
 16 24  2  0
  8  3  1  0
 24 12  1  0
 22 17  1  0
  1 25  1  0
  1 26  1  0
  1 27  1  0
  4 28  1  0
  5 29  1  0
  6 30  1  0
  7 31  1  0
 13 32  1  0
 14 33  1  0
 15 34  1  0
 20 35  1  0
 21 36  1  0
 24 37  1  0
M  CHG  3   9  -1  19  -1  23  -1
M  END
>  <UniqueID>  (34) 
31

>  <SMILES>  (34) 
COc1ccccc1[N-]C(=O)c1cccc(-n2c([O-])ccc2[O-])c1

>  <Energy>  (34) 
77.2231476202583

>  <Genealogy>  (34) 
COc1ccccc1[N-]C(=O)c1cccc(-n2c([O-])ccc2[O-])c1 (protonated)
COc1ccccc1[N-]C(=O)c1cccc(-n2c([O-])ccc2[O-])c1 (3D coordinates assigned)
COc1ccccc1[N-]C(=O)c1cccc(-n2c([O-])ccc2[O-])c1 (optimized conformer: 77.2231476202583 kcal/mol)

>  <smiles>  (34) 
COc1ccccc1NC(=O)c1cccc(-n2c(O)ccc2O)c1

>  <score_type>  (34) 
oracle

>  <origin>  (34) 
adgpu

>  <m_score__min__energy>  (34) 
-10.65

>  <m_primary>  (34) 
energy

$$$$
34:0
     RDKit          3D

 43 44  0  0  0  0  0  0  0  0999 V2000
   -1.9300   25.0470  -27.6830 C   0  0  0  0  0  0  0  0  0  0  0  0
   -1.9630   23.8910  -28.6290 C   0  0  0  0  0  0  0  0  0  0  0  0
   -1.2430   22.7650  -28.4360 N   0  0  0  0  0  0  0  0  0  0  0  0
   -1.4240   21.9830  -29.4910 N   0  0  0  0  0  0  0  0  0  0  0  0
   -0.8310   20.6560  -29.6190 C   0  0  0  0  0  0  0  0  0  0  0  0
   -2.2510   22.5830  -30.3730 C   0  0  0  0  0  0  0  0  0  0  0  0
   -2.7220   21.9790  -31.6610 C   0  0  0  0  0  0  0  0  0  0  0  0
   -2.6250   23.8010  -29.8470 C   0  0  0  0  0  0  0  0  0  0  0  0
   -3.5020   24.7440  -30.4740 N   0  0  0  0  0  0  0  0  0  0  0  0
   -5.1780   24.9350  -30.0760 S   0  0  0  0  0  0  0  0  0  0  0  0
   -5.6740   26.2280  -30.6550 O   0  0  0  0  0  0  0  0  0  0  0  0
   -5.3420   24.9720  -28.5830 O   0  0  0  0  0  0  0  0  0  0  0  0
   -6.1030   23.6150  -30.7850 C   0  0  0  0  0  0  0  0  0  0  0  0
   -7.2360   23.1060  -30.1350 C   0  0  0  0  0  0  0  0  0  0  0  0
   -7.9300   22.0220  -30.6810 C   0  0  0  0  0  0  0  0  0  0  0  0
   -7.5040   21.4410  -31.8860 C   0  0  0  0  0  0  0  0  0  0  0  0
   -8.2160   20.2390  -32.4510 C   0  0  0  0  0  0  0  0  0  0  0  0
   -7.6480   18.9110  -31.9140 C   0  0  0  0  0  0  0  0  0  0  0  0
   -6.9230   18.0760  -32.9860 C   0  0  0  0  0  0  0  0  0  0  0  0
   -5.9990   18.8900  -33.7710 N   0  0  0  0  0  0  0  0  0  0  0  0
   -6.1150   18.9480  -35.0130 O   0  0  0  0  0  0  0  0  0  0  0  0
   -4.8710   19.4040  -33.1760 O   0  0  0  0  0  0  0  0  0  0  0  0
   -6.3900   21.9790  -32.5510 C   0  0  0  0  0  0  0  0  0  0  0  0
   -5.6920   23.0570  -32.0020 C   0  0  0  0  0  0  0  0  0  0  0  0
   -1.9406   24.6743  -26.6481 H   0  0  0  0  0  0  0  0  0  0  0  0
   -1.0148   25.6333  -27.8522 H   0  0  0  0  0  0  0  0  0  0  0  0
   -2.8103   25.6845  -27.8522 H   0  0  0  0  0  0  0  0  0  0  0  0
   -0.6449   20.2395  -28.6181 H   0  0  0  0  0  0  0  0  0  0  0  0
   -1.5205   19.9976  -30.1677 H   0  0  0  0  0  0  0  0  0  0  0  0
    0.1195   20.7305  -30.1677 H   0  0  0  0  0  0  0  0  0  0  0  0
   -3.3854   21.1283  -31.4461 H   0  0  0  0  0  0  0  0  0  0  0  0
   -3.2714   22.7350  -32.2412 H   0  0  0  0  0  0  0  0  0  0  0  0
   -1.8549   21.6304  -32.2412 H   0  0  0  0  0  0  0  0  0  0  0  0
   -7.5796   23.5602  -29.1939 H   0  0  0  0  0  0  0  0  0  0  0  0
   -8.8146   21.6222  -30.1636 H   0  0  0  0  0  0  0  0  0  0  0  0
   -9.2810   20.3014  -32.1828 H   0  0  0  0  0  0  0  0  0  0  0  0
   -8.0727   20.2474  -33.5416 H   0  0  0  0  0  0  0  0  0  0  0  0
   -6.9348   19.1378  -31.1078 H   0  0  0  0  0  0  0  0  0  0  0  0
   -8.5009   18.3134  -31.5598 H   0  0  0  0  0  0  0  0  0  0  0  0
   -6.3579   17.2729  -32.4904 H   0  0  0  0  0  0  0  0  0  0  0  0
   -7.6801   17.6621  -33.6683 H   0  0  0  0  0  0  0  0  0  0  0  0
   -6.0653   21.5488  -33.5099 H   0  0  0  0  0  0  0  0  0  0  0  0
   -4.8173   23.4687  -32.5268 H   0  0  0  0  0  0  0  0  0  0  0  0
  1  2  1  0
  2  3  2  0
  3  4  1  0
  4  5  1  0
  4  6  1  0
  6  7  1  0
  6  8  2  0
  8  9  1  0
  9 10  1  0
 10 11  2  0
 10 12  2  0
 10 13  1  0
 13 14  2  0
 14 15  1  0
 15 16  2  0
 16 17  1  0
 17 18  1  0
 18 19  1  0
 19 20  1  0
 20 21  2  0
 20 22  1  0
 16 23  1  0
 23 24  2  0
  8  2  1  0
 24 13  1  0
  1 25  1  0
  1 26  1  0
  1 27  1  0
  5 28  1  0
  5 29  1  0
  5 30  1  0
  7 31  1  0
  7 32  1  0
  7 33  1  0
 14 34  1  0
 15 35  1  0
 17 36  1  0
 17 37  1  0
 18 38  1  0
 18 39  1  0
 19 40  1  0
 19 41  1  0
 23 42  1  0
 24 43  1  0
M  CHG  3   9  -1  20   1  22  -1
M  END
>  <UniqueID>  (35) 
32

>  <SMILES>  (35) 
Cc1nn(C)c(C)c1[N-]S(=O)(=O)c1ccc(CCC[N+](=O)[O-])cc1

>  <Energy>  (35) 
71.61464227536604

>  <Genealogy>  (35) 
Cc1nn(C)c(C)c1[N-]S(=O)(=O)c1ccc(CCC[N+](=O)[O-])cc1 (protonated)
Cc1nn(C)c(C)c1[N-]S(=O)(=O)c1ccc(CCC[N+](=O)[O-])cc1 (3D coordinates assigned)
Cc1nn(C)c(C)c1[N-]S(=O)(=O)c1ccc(CCC[N+](=O)[O-])cc1 (optimized conformer: 71.61464227536604 kcal/mol)

>  <smiles>  (35) 
Cc1nn(C)c(C)c1NS(=O)(=O)c1ccc(CCC[N+](=O)[O-])cc1

>  <score_type>  (35) 
oracle

>  <origin>  (35) 
adgpu

>  <m_score__min__energy>  (35) 
-9.1999999999999993

>  <m_primary>  (35) 
energy

$$$$
35:0
     RDKit          3D

 45 47  0  0  0  0  0  0  0  0999 V2000
   -0.2240   18.1830  -33.0790 C   0  0  0  0  0  0  0  0  0  0  0  0
   -0.8350   19.4520  -32.5620 C   0  0  0  0  0  0  0  0  0  0  0  0
   -1.5010   20.3210  -33.4350 C   0  0  0  0  0  0  0  0  0  0  0  0
   -2.1110   21.4770  -32.9490 C   0  0  0  0  0  0  0  0  0  0  0  0
   -2.0870   21.7750  -31.5800 C   0  0  0  0  0  0  0  0  0  0  0  0
   -2.7520   22.9640  -31.1240 N   0  0  0  0  0  0  0  0  0  0  0  0
   -4.1710   23.1800  -31.2230 C   0  0  0  0  0  0  0  0  0  0  0  0
   -4.9900   22.1150  -31.6180 C   0  0  0  0  0  0  0  0  0  0  0  0
   -6.3770   22.2810  -31.7560 C   0  0  0  0  0  0  0  0  0  0  0  0
   -7.1950   21.1190  -32.1710 C   0  0  0  0  0  0  0  0  0  0  0  0
   -8.4510   21.2090  -32.1090 O   0  0  0  0  0  0  0  0  0  0  0  0
   -6.5730   19.8460  -32.6200 C   0  0  0  0  0  0  0  0  0  0  0  0
   -5.8390   19.7800  -33.8210 C   0  0  0  0  0  0  0  0  0  0  0  0
   -5.2650   18.5750  -34.2360 C   0  0  0  0  0  0  0  0  0  0  0  0
   -5.4190   17.4210  -33.4630 C   0  0  0  0  0  0  0  0  0  0  0  0
   -4.6330   15.7770  -34.0320 Br  0  0  0  0  0  0  0  0  0  0  0  0
   -6.1540   17.4710  -32.2760 C   0  0  0  0  0  0  0  0  0  0  0  0
   -6.7310   18.6740  -31.8560 C   0  0  0  0  0  0  0  0  0  0  0  0
   -6.9580   23.5360  -31.4680 C   0  0  0  0  0  0  0  0  0  0  0  0
   -8.3630   23.7730  -31.6400 N   0  0  0  0  0  0  0  0  0  0  0  0
   -6.1400   24.5900  -31.0350 C   0  0  0  0  0  0  0  0  0  0  0  0
   -4.7570   24.4200  -30.9060 C   0  0  0  0  0  0  0  0  0  0  0  0
   -3.9700   25.4790  -30.4520 O   0  0  0  0  0  0  0  0  0  0  0  0
   -1.3880   20.9210  -30.6930 C   0  0  0  0  0  0  0  0  0  0  0  0
   -1.2710   21.2290  -29.2240 C   0  0  0  0  0  0  0  0  0  0  0  0
   -0.7960   19.7480  -31.1920 C   0  0  0  0  0  0  0  0  0  0  0  0
    0.0804   17.5509  -32.2318 H   0  0  0  0  0  0  0  0  0  0  0  0
   -0.9614   17.6442  -33.6921 H   0  0  0  0  0  0  0  0  0  0  0  0
    0.6570   18.4235  -33.6921 H   0  0  0  0  0  0  0  0  0  0  0  0
   -1.5432   20.0906  -34.5098 H   0  0  0  0  0  0  0  0  0  0  0  0
   -2.6157   22.1613  -33.6468 H   0  0  0  0  0  0  0  0  0  0  0  0
   -2.1630   23.7250  -30.7180 H   0  0  0  0  0  0  0  0  0  0  0  0
   -4.5393   21.1328  -31.8234 H   0  0  0  0  0  0  0  0  0  0  0  0
   -5.7168   20.6835  -34.4365 H   0  0  0  0  0  0  0  0  0  0  0  0
   -4.6907   18.5349  -35.1733 H   0  0  0  0  0  0  0  0  0  0  0  0
   -6.2793   16.5617  -31.6699 H   0  0  0  0  0  0  0  0  0  0  0  0
   -7.3121   18.7046  -30.9225 H   0  0  0  0  0  0  0  0  0  0  0  0
   -8.7920   24.6690  -31.3190 H   0  0  0  0  0  0  0  0  0  0  0  0
   -8.9810   23.1000  -32.1430 H   0  0  0  0  0  0  0  0  0  0  0  0
   -6.5918   25.5634  -30.7936 H   0  0  0  0  0  0  0  0  0  0  0  0
   -3.0560   25.6700  -30.8450 H   0  0  0  0  0  0  0  0  0  0  0  0
   -1.6019   20.3580  -28.6393 H   0  0  0  0  0  0  0  0  0  0  0  0
   -0.2232   21.4581  -28.9797 H   0  0  0  0  0  0  0  0  0  0  0  0
   -1.9024   22.0960  -28.9797 H   0  0  0  0  0  0  0  0  0  0  0  0
   -0.2964   19.0542  -30.4999 H   0  0  0  0  0  0  0  0  0  0  0  0
  1  2  1  0
  2  3  2  0
  3  4  1  0
  4  5  2  0
  5  6  1  0
  6  7  1  0
  7  8  2  0
  8  9  1  0
  9 10  1  0
 10 11  2  0
 10 12  1  0
 12 13  2  0
 13 14  1  0
 14 15  2  0
 15 16  1  0
 15 17  1  0
 17 18  2  0
  9 19  2  0
 19 20  1  0
 19 21  1  0
 21 22  2  0
 22 23  1  0
  5 24  1  0
 24 25  1  0
 24 26  2  0
 26  2  1  0
 22  7  1  0
 18 12  1  0
  1 27  1  0
  1 28  1  0
  1 29  1  0
  3 30  1  0
  4 31  1  0
  6 32  1  0
  8 33  1  0
 13 34  1  0
 14 35  1  0
 17 36  1  0
 18 37  1  0
 20 38  1  0
 20 39  1  0
 21 40  1  0
 23 41  1  0
 25 42  1  0
 25 43  1  0
 25 44  1  0
 26 45  1  0
M  END
>  <UniqueID>  (36) 
33

>  <SMILES>  (36) 
Cc1ccc(Nc2cc(C(=O)c3ccc(Br)cc3)c(N)cc2O)c(C)c1

>  <Energy>  (36) 
62.41621618914181

>  <Genealogy>  (36) 
Cc1ccc(Nc2cc(C(=O)c3ccc(Br)cc3)c(N)cc2O)c(C)c1 (3D coordinates assigned)
Cc1ccc(Nc2cc(C(=O)c3ccc(Br)cc3)c(N)cc2O)c(C)c1 (optimized conformer: 62.41621618914181 kcal/mol)

>  <smiles>  (36) 
Cc1ccc(Nc2cc(C(=O)c3ccc(Br)cc3)c(N)cc2O)c(C)c1

>  <score_type>  (36) 
oracle

>  <origin>  (36) 
adgpu

>  <m_score__min__energy>  (36) 
-9.0700000000000003

>  <m_primary>  (36) 
energy

$$$$
36:0
     RDKit          3D

 27 28  0  0  0  0  0  0  0  0999 V2000
   -2.6870   24.5590  -29.3520 C   0  0  0  0  0  0  0  0  0  0  0  0
   -3.4870   25.0040  -30.4880 N   0  0  0  0  0  0  0  0  0  0  0  0
   -5.1710   24.7340  -30.1610 S   0  0  0  0  0  0  0  0  0  0  0  0
   -5.9520   25.9870  -30.4500 O   0  0  0  0  0  0  0  0  0  0  0  0
   -5.3430   24.3910  -28.7090 O   0  0  0  0  0  0  0  0  0  0  0  0
   -5.7780   23.4000  -31.1400 C   0  0  0  0  0  0  0  0  0  0  0  0
   -4.8940   22.5900  -31.8700 C   0  0  0  0  0  0  0  0  0  0  0  0
   -5.3840   21.5260  -32.6300 C   0  0  0  0  0  0  0  0  0  0  0  0
   -6.7570   21.2420  -32.6570 C   0  0  0  0  0  0  0  0  0  0  0  0
   -7.2410   20.1580  -33.4650 N   0  0  0  0  0  0  0  0  0  0  0  0
   -6.7460   18.8460  -33.3650 N   0  0  0  0  0  0  0  0  0  0  0  0
   -5.9360   18.1910  -34.2160 C   0  0  0  0  0  0  0  0  0  0  0  0
   -5.8020   16.9030  -33.8410 N   0  0  0  0  0  0  0  0  0  0  0  0
   -6.5450   16.7320  -32.7530 N   0  0  0  0  0  0  0  0  0  0  0  0
   -7.1260   17.9150  -32.4770 C   0  0  0  0  0  0  0  0  0  0  0  0
   -7.6400   22.0670  -31.9400 C   0  0  0  0  0  0  0  0  0  0  0  0
   -7.1520   23.1320  -31.1790 C   0  0  0  0  0  0  0  0  0  0  0  0
   -3.1916   24.8397  -28.4158 H   0  0  0  0  0  0  0  0  0  0  0  0
   -2.5697   23.4660  -29.3919 H   0  0  0  0  0  0  0  0  0  0  0  0
   -1.6965   25.0358  -29.3919 H   0  0  0  0  0  0  0  0  0  0  0  0
   -3.8134   22.7938  -31.8433 H   0  0  0  0  0  0  0  0  0  0  0  0
   -4.6871   20.9054  -33.2124 H   0  0  0  0  0  0  0  0  0  0  0  0
   -7.9760   20.3610  -34.1800 H   0  0  0  0  0  0  0  0  0  0  0  0
   -5.4513   18.6426  -35.0941 H   0  0  0  0  0  0  0  0  0  0  0  0
   -7.8165   18.0933  -31.6395 H   0  0  0  0  0  0  0  0  0  0  0  0
   -8.7221   21.8731  -31.9782 H   0  0  0  0  0  0  0  0  0  0  0  0
   -7.8496   23.7625  -30.6082 H   0  0  0  0  0  0  0  0  0  0  0  0
  1  2  1  0
  2  3  1  0
  3  4  2  0
  3  5  2  0
  3  6  1  0
  6  7  2  0
  7  8  1  0
  8  9  2  0
  9 10  1  0
 10 11  1  0
 11 12  1  0
 12 13  2  0
 13 14  1  0
 14 15  2  0
  9 16  1  0
 16 17  2  0
 17  6  1  0
 15 11  1  0
  1 18  1  0
  1 19  1  0
  1 20  1  0
  7 21  1  0
  8 22  1  0
 10 23  1  0
 12 24  1  0
 15 25  1  0
 16 26  1  0
 17 27  1  0
M  CHG  1   2  -1
M  END
>  <UniqueID>  (37) 
34

>  <SMILES>  (37) 
C[N-]S(=O)(=O)c1ccc(Nn2cnnc2)cc1

>  <Energy>  (37) 
64.96029837902185

>  <Genealogy>  (37) 
C[N-]S(=O)(=O)c1ccc(Nn2cnnc2)cc1 (protonated)
C[N-]S(=O)(=O)c1ccc(Nn2cnnc2)cc1 (3D coordinates assigned)
C[N-]S(=O)(=O)c1ccc(Nn2cnnc2)cc1 (optimized conformer: 64.96029837902185 kcal/mol)

>  <smiles>  (37) 
CNS(=O)(=O)c1ccc(Nn2cnnc2)cc1

>  <score_type>  (37) 
oracle

>  <origin>  (37) 
adgpu

>  <m_score__min__energy>  (37) 
-8.1400000000000006

>  <m_primary>  (37) 
energy

$$$$
37:0
     RDKit          3D

 50 53  0  0  0  0  0  0  0  0999 V2000
   -7.2310   18.0390  -31.0850 O   0  0  0  0  0  0  0  0  0  0  0  0
   -7.1840   18.0890  -32.3440 C   0  0  0  0  0  0  0  0  0  0  0  0
   -6.9090   16.8370  -33.1300 C   0  0  0  0  0  0  0  0  0  0  0  0
   -5.5100   16.7940  -33.5860 N   0  0  0  0  0  0  0  0  0  0  0  0
   -5.0590   17.7520  -34.5720 C   0  0  0  0  0  0  0  0  0  0  0  0
   -5.8800   18.5370  -35.1210 O   0  0  0  0  0  0  0  0  0  0  0  0
   -3.6160   17.8070  -34.9750 C   0  0  0  0  0  0  0  0  0  0  0  0
   -2.5910   17.6970  -33.4790 S   0  0  0  0  0  0  0  0  0  0  0  0
   -3.2030   16.0590  -33.0690 C   0  0  0  0  0  0  0  0  0  0  0  0
   -2.2940   15.0540  -32.7250 C   0  0  0  0  0  0  0  0  0  0  0  0
   -2.7530   13.7870  -32.3580 C   0  0  0  0  0  0  0  0  0  0  0  0
   -4.1220   13.5180  -32.3470 C   0  0  0  0  0  0  0  0  0  0  0  0
   -5.0370   14.5080  -32.7150 C   0  0  0  0  0  0  0  0  0  0  0  0
   -4.5890   15.7920  -33.0880 C   0  0  0  0  0  0  0  0  0  0  0  0
   -7.3840   19.3340  -33.0310 N   0  0  0  0  0  0  0  0  0  0  0  0
   -7.4140   20.6150  -32.3800 C   0  0  0  0  0  0  0  0  0  0  0  0
   -8.6430   21.2690  -32.2040 C   0  0  0  0  0  0  0  0  0  0  0  0
   -8.6950   22.5250  -31.5960 C   0  0  0  0  0  0  0  0  0  0  0  0
   -7.5200   23.1490  -31.1730 C   0  0  0  0  0  0  0  0  0  0  0  0
   -6.2810   22.5240  -31.3690 C   0  0  0  0  0  0  0  0  0  0  0  0
   -4.7900   23.3340  -30.8810 S   0  0  0  0  0  0  0  0  0  0  0  0
   -4.9660   24.8200  -31.0250 O   0  0  0  0  0  0  0  0  0  0  0  0
   -3.6760   22.9090  -31.7970 O   0  0  0  0  0  0  0  0  0  0  0  0
   -4.3490   22.9590  -29.2270 N   0  0  0  0  0  0  0  0  0  0  0  0
   -3.0460   22.2900  -29.1630 C   0  0  0  0  0  0  0  0  0  0  0  0
   -1.9890   23.3270  -28.8120 C   0  0  0  0  0  0  0  0  0  0  0  0
   -2.7490   24.5540  -28.3490 C   0  0  0  0  0  0  0  0  0  0  0  0
   -4.2230   24.1800  -28.4230 C   0  0  0  0  0  0  0  0  0  0  0  0
   -6.2310   21.2580  -31.9710 C   0  0  0  0  0  0  0  0  0  0  0  0
   -7.1062   15.9623  -32.4929 H   0  0  0  0  0  0  0  0  0  0  0  0
   -7.5647   16.8278  -34.0131 H   0  0  0  0  0  0  0  0  0  0  0  0
   -3.3860   16.9650  -35.6444 H   0  0  0  0  0  0  0  0  0  0  0  0
   -3.4093   18.7494  -35.5034 H   0  0  0  0  0  0  0  0  0  0  0  0
   -1.2140   15.2618  -32.7434 H   0  0  0  0  0  0  0  0  0  0  0  0
   -2.0356   13.0016  -32.0778 H   0  0  0  0  0  0  0  0  0  0  0  0
   -4.4824   12.5228  -32.0475 H   0  0  0  0  0  0  0  0  0  0  0  0
   -6.1140   14.2842  -32.7137 H   0  0  0  0  0  0  0  0  0  0  0  0
   -7.6060   19.2990  -34.0520 H   0  0  0  0  0  0  0  0  0  0  0  0
   -9.5714   20.7892  -32.5472 H   0  0  0  0  0  0  0  0  0  0  0  0
   -9.6643   23.0240  -31.4500 H   0  0  0  0  0  0  0  0  0  0  0  0
   -7.5667   24.1336  -30.6847 H   0  0  0  0  0  0  0  0  0  0  0  0
   -3.0683   21.5066  -28.3911 H   0  0  0  0  0  0  0  0  0  0  0  0
   -2.8120   21.8258  -30.1324 H   0  0  0  0  0  0  0  0  0  0  0  0
   -1.3387   22.9534  -28.0073 H   0  0  0  0  0  0  0  0  0  0  0  0
   -1.3430   23.5530  -29.6732 H   0  0  0  0  0  0  0  0  0  0  0  0
   -2.4701   24.8105  -27.3163 H   0  0  0  0  0  0  0  0  0  0  0  0
   -2.5216   25.4310  -28.9729 H   0  0  0  0  0  0  0  0  0  0  0  0
   -4.6124   24.0001  -27.4101 H   0  0  0  0  0  0  0  0  0  0  0  0
   -4.7986   24.9971  -28.8823 H   0  0  0  0  0  0  0  0  0  0  0  0
   -5.2601   20.7643  -32.1245 H   0  0  0  0  0  0  0  0  0  0  0  0
  1  2  2  0
  2  3  1  0
  3  4  1  0
  4  5  1  0
  5  6  2  0
  5  7  1  0
  7  8  1  0
  8  9  1  0
  9 10  2  0
 10 11  1  0
 11 12  2  0
 12 13  1  0
 13 14  2  0
  2 15  1  0
 15 16  1  0
 16 17  2  0
 17 18  1  0
 18 19  2  0
 19 20  1  0
 20 21  1  0
 21 22  2  0
 21 23  2  0
 21 24  1  0
 24 25  1  0
 25 26  1  0
 26 27  1  0
 27 28  1  0
 20 29  2  0
 14  4  1  0
 29 16  1  0
 14  9  1  0
 28 24  1  0
  3 30  1  0
  3 31  1  0
  7 32  1  0
  7 33  1  0
 10 34  1  0
 11 35  1  0
 12 36  1  0
 13 37  1  0
 15 38  1  0
 17 39  1  0
 18 40  1  0
 19 41  1  0
 25 42  1  0
 25 43  1  0
 26 44  1  0
 26 45  1  0
 27 46  1  0
 27 47  1  0
 28 48  1  0
 28 49  1  0
 29 50  1  0
M  END
>  <UniqueID>  (38) 
35

>  <SMILES>  (38) 
O=C(CN1C(=O)CSc2ccccc21)Nc1cccc(S(=O)(=O)N2CCCC2)c1

>  <Energy>  (38) 
61.727518924843395

>  <Genealogy>  (38) 
O=C(CN1C(=O)CSc2ccccc21)Nc1cccc(S(=O)(=O)N2CCCC2)c1 (3D coordinates assigned)
O=C(CN1C(=O)CSc2ccccc21)Nc1cccc(S(=O)(=O)N2CCCC2)c1 (nonaromatic ring conformer: 61.727518924843395 kcal/mol)

>  <smiles>  (38) 
O=C(CN1C(=O)CSc2ccccc21)Nc1cccc(S(=O)(=O)N2CCCC2)c1

>  <score_type>  (38) 
oracle

>  <origin>  (38) 
adgpu

>  <m_score__min__energy>  (38) 
-10.6

>  <m_primary>  (38) 
energy

$$$$
38:0
     RDKit          3D

 62 64  0  0  0  0  0  0  0  0999 V2000
   -2.6400   20.4390  -27.5090 C   0  0  0  0  0  0  0  0  0  0  0  0
   -3.1500   21.8410  -27.8430 C   0  0  0  0  0  0  0  0  0  0  0  0
   -2.0220   22.8430  -28.1630 C   0  0  0  0  0  0  0  0  0  0  0  0
   -2.4810   24.3230  -28.1250 C   0  0  2  0  0  0  0  0  0  0  0  0
   -3.7180   24.5100  -27.2360 C   0  0  0  0  0  0  0  0  0  0  0  0
   -2.6890   24.8690  -29.4750 N   0  0  0  0  0  0  0  0  0  0  0  0
   -3.8820   24.9230  -30.2720 C   0  0  0  0  0  0  0  0  0  0  0  0
   -4.2870   26.0450  -30.6770 O   0  0  0  0  0  0  0  0  0  0  0  0
   -4.6870   23.7300  -30.5910 C   0  0  0  0  0  0  0  0  0  0  0  0
   -4.0190   22.5770  -31.0250 C   0  0  0  0  0  0  0  0  0  0  0  0
   -4.7290   21.4220  -31.3500 C   0  0  0  0  0  0  0  0  0  0  0  0
   -6.1240   21.3840  -31.2120 C   0  0  0  0  0  0  0  0  0  0  0  0
   -6.8800   20.1710  -31.6130 C   0  0  0  0  0  0  0  0  0  0  0  0
   -8.2880   20.1800  -31.6460 C   0  0  0  0  0  0  0  0  0  0  0  0
   -8.9960   19.0190  -31.9630 C   0  0  0  0  0  0  0  0  0  0  0  0
   -8.3100   17.8330  -32.2390 C   0  0  0  0  0  0  0  0  0  0  0  0
   -6.9050   17.8010  -32.2100 C   0  0  0  0  0  0  0  0  0  0  0  0
   -6.1810   16.5830  -32.4420 N   0  0  0  0  0  0  0  0  0  0  0  0
   -5.7830   16.0400  -34.0440 S   0  0  0  0  0  0  0  0  0  0  0  0
   -6.8290   15.0590  -34.5010 O   0  0  0  0  0  0  0  0  0  0  0  0
   -5.7690   17.2140  -34.9790 O   0  0  0  0  0  0  0  0  0  0  0  0
   -4.1800   15.2940  -34.0570 C   0  0  0  0  0  0  0  0  0  0  0  0
   -3.3380   15.4730  -35.1650 C   0  0  0  0  0  0  0  0  0  0  0  0
   -2.0740   14.8810  -35.1930 C   0  0  0  0  0  0  0  0  0  0  0  0
   -1.6420   14.1030  -34.1180 C   0  0  0  0  0  0  0  0  0  0  0  0
   -2.4690   13.9210  -33.0090 C   0  0  0  0  0  0  0  0  0  0  0  0
   -3.7460   14.5150  -32.9650 C   0  0  0  0  0  0  0  0  0  0  0  0
   -4.5990   14.3470  -31.8600 O   0  0  0  0  0  0  0  0  0  0  0  0
   -4.5040   13.2790  -30.9230 C   0  0  0  0  0  0  0  0  0  0  0  0
   -6.1970   18.9760  -31.9140 C   0  0  0  0  0  0  0  0  0  0  0  0
   -6.7920   22.5150  -30.7140 C   0  0  0  0  0  0  0  0  0  0  0  0
   -6.0860   23.6840  -30.3810 C   0  0  0  0  0  0  0  0  0  0  0  0
   -6.8660   24.8470  -29.8240 C   0  0  0  0  0  0  0  0  0  0  0  0
   -2.5951   20.3157  -26.4169 H   0  0  0  0  0  0  0  0  0  0  0  0
   -3.3230   19.6893  -27.9349 H   0  0  0  0  0  0  0  0  0  0  0  0
   -1.6349   20.3033  -27.9349 H   0  0  0  0  0  0  0  0  0  0  0  0
   -3.8132   21.7715  -28.7178 H   0  0  0  0  0  0  0  0  0  0  0  0
   -3.6748   22.2164  -26.9521 H   0  0  0  0  0  0  0  0  0  0  0  0
   -1.2174   22.7089  -27.4250 H   0  0  0  0  0  0  0  0  0  0  0  0
   -1.6855   22.6347  -29.1893 H   0  0  0  0  0  0  0  0  0  0  0  0
   -1.6642   24.9022  -27.6697 H   0  0  0  0  0  0  0  0  0  0  0  0
   -3.4195   24.4649  -26.1782 H   0  0  0  0  0  0  0  0  0  0  0  0
   -4.1763   25.4876  -27.4463 H   0  0  0  0  0  0  0  0  0  0  0  0
   -4.4448   23.7115  -27.4463 H   0  0  0  0  0  0  0  0  0  0  0  0
   -2.9223   22.5833  -31.1102 H   0  0  0  0  0  0  0  0  0  0  0  0
   -4.1916   20.5351  -31.7169 H   0  0  0  0  0  0  0  0  0  0  0  0
   -8.8337   21.1081  -31.4205 H   0  0  0  0  0  0  0  0  0  0  0  0
  -10.0954   19.0378  -31.9956 H   0  0  0  0  0  0  0  0  0  0  0  0
   -8.8729   16.9192  -32.4803 H   0  0  0  0  0  0  0  0  0  0  0  0
   -6.1100   15.8790  -31.6680 H   0  0  0  0  0  0  0  0  0  0  0  0
   -3.6756   16.0829  -36.0159 H   0  0  0  0  0  0  0  0  0  0  0  0
   -1.4177   15.0280  -36.0635 H   0  0  0  0  0  0  0  0  0  0  0  0
   -0.6480   13.6325  -34.1450 H   0  0  0  0  0  0  0  0  0  0  0  0
   -2.1216   13.3095  -32.1632 H   0  0  0  0  0  0  0  0  0  0  0  0
   -4.5400   13.6837  -29.9008 H   0  0  0  0  0  0  0  0  0  0  0  0
   -5.3439   12.5845  -31.0722 H   0  0  0  0  0  0  0  0  0  0  0  0
   -3.5547   12.7437  -31.0722 H   0  0  0  0  0  0  0  0  0  0  0  0
   -5.0971   18.9639  -31.9170 H   0  0  0  0  0  0  0  0  0  0  0  0
   -7.8837   22.4854  -30.5827 H   0  0  0  0  0  0  0  0  0  0  0  0
   -6.8423   24.8116  -28.7248 H   0  0  0  0  0  0  0  0  0  0  0  0
   -6.4166   25.7894  -30.1703 H   0  0  0  0  0  0  0  0  0  0  0  0
   -7.9084   24.7889  -30.1703 H   0  0  0  0  0  0  0  0  0  0  0  0
  1  2  1  0
  2  3  1  0
  3  4  1  0
  4  5  1  0
  4  6  1  0
  6  7  1  0
  7  8  2  0
  7  9  1  0
  9 10  2  0
 10 11  1  0
 11 12  2  0
 12 13  1  0
 13 14  2  0
 14 15  1  0
 15 16  2  0
 16 17  1  0
 17 18  1  0
 18 19  1  0
 19 20  2  0
 19 21  2  0
 19 22  1  0
 22 23  2  0
 23 24  1  0
 24 25  2  0
 25 26  1  0
 26 27  2  0
 27 28  1  0
 28 29  1  0
 17 30  2  0
 12 31  1  0
 31 32  2  0
 32 33  1  0
 32  9  1  0
 30 13  1  0
 27 22  1  0
  1 34  1  0
  1 35  1  0
  1 36  1  0
  2 37  1  0
  2 38  1  0
  3 39  1  0
  3 40  1  0
  4 41  1  1
  5 42  1  0
  5 43  1  0
  5 44  1  0
 10 45  1  0
 11 46  1  0
 14 47  1  0
 15 48  1  0
 16 49  1  0
 18 50  1  0
 23 51  1  0
 24 52  1  0
 25 53  1  0
 26 54  1  0
 29 55  1  0
 29 56  1  0
 29 57  1  0
 30 58  1  0
 31 59  1  0
 33 60  1  0
 33 61  1  0
 33 62  1  0
M  CHG  1   6  -1
M  END
>  <UniqueID>  (39) 
36

>  <SMILES>  (39) 
CCC[C@H](C)[N-]C(=O)c1ccc(-c2cccc(NS(=O)(=O)c3ccccc3OC)c2)cc1C

>  <Energy>  (39) 
74.71447013256233

>  <Genealogy>  (39) 
CCCC(C)[N-]C(=O)c1ccc(-c2cccc(NS(=O)(=O)c3ccccc3OC)c2)cc1C (protonated)
CCC[C@H](C)[N-]C(=O)c1ccc(-c2cccc(NS(=O)(=O)c3ccccc3OC)c2)cc1C (chirality)
CCC[C@H](C)[N-]C(=O)c1ccc(-c2cccc(NS(=O)(=O)c3ccccc3OC)c2)cc1C (3D coordinates assigned)
CCC[C@H](C)[N-]C(=O)c1ccc(-c2cccc(NS(=O)(=O)c3ccccc3OC)c2)cc1C (optimized conformer: 74.71447013256233 kcal/mol)

>  <smiles>  (39) 
CCCC(C)NC(=O)c1ccc(-c2cccc(NS(=O)(=O)c3ccccc3OC)c2)cc1C

>  <score_type>  (39) 
oracle

>  <origin>  (39) 
adgpu

>  <m_score__min__energy>  (39) 
-10.869999999999999

>  <m_primary>  (39) 
energy

$$$$
39:0
     RDKit          3D

 35 37  0  0  0  0  0  0  0  0999 V2000
   -6.4600   25.6110  -29.8130 C   0  0  0  0  0  0  0  0  0  0  0  0
   -5.2310   24.8600  -30.2070 C   0  0  0  0  0  0  0  0  0  0  0  0
   -4.0110   25.2990  -29.9940 O   0  0  0  0  0  0  0  0  0  0  0  0
   -3.1220   24.4730  -30.4640 N   0  0  0  0  0  0  0  0  0  0  0  0
   -3.7860   23.4330  -31.0070 C   0  0  0  0  0  0  0  0  0  0  0  0
   -3.1040   22.2770  -31.6280 C   0  0  0  0  0  0  0  0  0  0  0  0
   -1.9660   21.7000  -31.0370 C   0  0  0  0  0  0  0  0  0  0  0  0
   -1.3260   20.6170  -31.6470 C   0  0  0  0  0  0  0  0  0  0  0  0
   -1.8070   20.1090  -32.8560 C   0  0  0  0  0  0  0  0  0  0  0  0
   -2.9240   20.6890  -33.4620 C   0  0  0  0  0  0  0  0  0  0  0  0
   -3.5670   21.7730  -32.8560 C   0  0  0  0  0  0  0  0  0  0  0  0
   -5.1510   23.6370  -30.8530 C   0  0  0  0  0  0  0  0  0  0  0  0
   -6.2580   22.8360  -31.4090 C   0  0  0  0  0  0  0  0  0  0  0  0
   -7.1540   23.4160  -32.0820 O   0  0  0  0  0  0  0  0  0  0  0  0
   -6.3300   21.4210  -31.1750 N   0  0  0  0  0  0  0  0  0  0  0  0
   -7.3720   20.5870  -31.7010 C   0  0  0  0  0  0  0  0  0  0  0  0
   -8.6640   21.1140  -31.8440 C   0  0  0  0  0  0  0  0  0  0  0  0
   -9.7020   20.3180  -32.3390 C   0  0  0  0  0  0  0  0  0  0  0  0
   -9.4590   18.9850  -32.6800 C   0  0  0  0  0  0  0  0  0  0  0  0
   -8.1820   18.4430  -32.5150 C   0  0  0  0  0  0  0  0  0  0  0  0
   -7.1400   19.2340  -32.0200 C   0  0  0  0  0  0  0  0  0  0  0  0
   -5.9250   18.6680  -31.8070 F   0  0  0  0  0  0  0  0  0  0  0  0
   -6.5283   25.6527  -28.7159 H   0  0  0  0  0  0  0  0  0  0  0  0
   -6.4102   26.6331  -30.2164 H   0  0  0  0  0  0  0  0  0  0  0  0
   -7.3469   25.1004  -30.2164 H   0  0  0  0  0  0  0  0  0  0  0  0
   -1.5774   22.1027  -30.0900 H   0  0  0  0  0  0  0  0  0  0  0  0
   -0.4421   20.1642  -31.1740 H   0  0  0  0  0  0  0  0  0  0  0  0
   -1.3063   19.2524  -33.3308 H   0  0  0  0  0  0  0  0  0  0  0  0
   -3.2984   20.2925  -34.4173 H   0  0  0  0  0  0  0  0  0  0  0  0
   -4.4394   22.2336  -33.3426 H   0  0  0  0  0  0  0  0  0  0  0  0
   -5.6470   20.9840  -30.5170 H   0  0  0  0  0  0  0  0  0  0  0  0
   -8.8620   22.1595  -31.5652 H   0  0  0  0  0  0  0  0  0  0  0  0
  -10.7100   20.7415  -32.4599 H   0  0  0  0  0  0  0  0  0  0  0  0
  -10.2734   18.3621  -33.0785 H   0  0  0  0  0  0  0  0  0  0  0  0
   -7.9953   17.3907  -32.7752 H   0  0  0  0  0  0  0  0  0  0  0  0
  1  2  1  0
  2  3  1  0
  3  4  1  0
  4  5  2  0
  5  6  1  0
  6  7  2  0
  7  8  1  0
  8  9  2  0
  9 10  1  0
 10 11  2  0
  5 12  1  0
 12 13  1  0
 13 14  2  0
 13 15  1  0
 15 16  1  0
 16 17  2  0
 17 18  1  0
 18 19  2  0
 19 20  1  0
 20 21  2  0
 21 22  1  0
 12  2  2  0
 21 16  1  0
 11  6  1  0
  1 23  1  0
  1 24  1  0
  1 25  1  0
  7 26  1  0
  8 27  1  0
  9 28  1  0
 10 29  1  0
 11 30  1  0
 15 31  1  0
 17 32  1  0
 18 33  1  0
 19 34  1  0
 20 35  1  0
M  END
>  <UniqueID>  (40) 
37

>  <SMILES>  (40) 
Cc1onc(-c2ccccc2)c1C(=O)Nc1ccccc1F

>  <Energy>  (40) 
79.65642155129608

>  <Genealogy>  (40) 
Cc1onc(-c2ccccc2)c1C(=O)Nc1ccccc1F (3D coordinates assigned)
Cc1onc(-c2ccccc2)c1C(=O)Nc1ccccc1F (optimized conformer: 79.65642155129608 kcal/mol)

>  <smiles>  (40) 
Cc1onc(-c2ccccc2)c1C(=O)Nc1ccccc1F

>  <score_type>  (40) 
oracle

>  <origin>  (40) 
adgpu

>  <m_score__min__energy>  (40) 
-8.2100000000000009

>  <m_primary>  (40) 
energy

$$$$
40:0
     RDKit          3D

 58 61  0  0  0  0  0  0  0  0999 V2000
   -4.2030   14.5120  -32.0350 C   0  0  0  0  0  0  0  0  0  0  0  0
   -3.3810   15.2780  -33.0400 C   0  0  0  0  0  0  0  0  0  0  0  0
   -2.0240   15.4980  -32.7450 C   0  0  0  0  0  0  0  0  0  0  0  0
   -1.2430   16.3260  -33.5500 C   0  0  0  0  0  0  0  0  0  0  0  0
   -1.8130   16.9800  -34.6370 C   0  0  0  0  0  0  0  0  0  0  0  0
   -3.1600   16.7820  -34.9440 C   0  0  0  0  0  0  0  0  0  0  0  0
   -3.9520   15.8860  -34.1960 C   0  0  0  0  0  0  0  0  0  0  0  0
   -5.4190   15.7310  -34.5790 C   0  0  0  0  0  0  0  0  0  0  0  0
   -6.3260   16.8570  -34.2110 N   0  0  0  0  0  0  0  0  0  0  0  0
   -6.0960   18.1240  -34.9460 C   0  0  0  0  0  0  0  0  0  0  0  0
   -5.0280   19.0120  -34.3060 C   0  0  0  0  0  0  0  0  0  0  0  0
   -5.3280   19.2070  -32.8890 N   0  0  0  0  0  0  0  0  0  0  0  0
   -4.9610   20.4350  -32.2360 C   0  0  0  0  0  0  0  0  0  0  0  0
   -3.6350   20.6650  -31.8330 C   0  0  0  0  0  0  0  0  0  0  0  0
   -3.2910   21.8470  -31.1720 C   0  0  0  0  0  0  0  0  0  0  0  0
   -4.2690   22.8190  -30.8970 C   0  0  0  0  0  0  0  0  0  0  0  0
   -3.9020   24.0560  -30.1710 C   0  0  0  0  0  0  0  0  0  0  0  0
   -3.8550   25.1490  -30.7970 O   0  0  0  0  0  0  0  0  0  0  0  0
   -3.6400   24.0630  -28.7590 N   0  0  0  0  0  0  0  0  0  0  0  0
   -2.4240   23.6430  -28.1200 C   0  0  0  0  0  0  0  0  0  0  0  0
   -2.3990   22.5080  -27.2870 C   0  0  0  0  0  0  0  0  0  0  0  0
   -1.2090   22.1060  -26.6740 C   0  0  0  0  0  0  0  0  0  0  0  0
   -0.0320   22.8170  -26.9000 C   0  0  0  0  0  0  0  0  0  0  0  0
   -0.0360   23.9260  -27.7510 C   0  0  0  0  0  0  0  0  0  0  0  0
   -1.2250   24.3420  -28.3700 C   0  0  0  0  0  0  0  0  0  0  0  0
   -1.2060   25.4860  -29.2340 N   0  0  0  0  0  0  0  0  0  0  0  0
   -5.5900   22.5980  -31.3240 C   0  0  0  0  0  0  0  0  0  0  0  0
   -5.9320   21.4140  -31.9810 C   0  0  0  0  0  0  0  0  0  0  0  0
   -5.5510   18.0090  -32.0800 C   0  0  0  0  0  0  0  0  0  0  0  0
   -6.5590   17.0630  -32.7580 C   0  0  0  0  0  0  0  0  0  0  0  0
   -3.8971   14.7971  -31.0176 H   0  0  0  0  0  0  0  0  0  0  0  0
   -5.2682   14.7471  -32.1770 H   0  0  0  0  0  0  0  0  0  0  0  0
   -4.0435   13.4329  -32.1770 H   0  0  0  0  0  0  0  0  0  0  0  0
   -1.5729   15.0107  -31.8680 H   0  0  0  0  0  0  0  0  0  0  0  0
   -0.1749   16.4622  -33.3252 H   0  0  0  0  0  0  0  0  0  0  0  0
   -1.2017   17.6538  -35.2553 H   0  0  0  0  0  0  0  0  0  0  0  0
   -3.6110   17.3332  -35.7823 H   0  0  0  0  0  0  0  0  0  0  0  0
   -5.4679   15.6057  -35.6707 H   0  0  0  0  0  0  0  0  0  0  0  0
   -5.7803   14.8663  -34.0031 H   0  0  0  0  0  0  0  0  0  0  0  0
   -7.2560   16.5310  -34.5730 H   0  0  0  0  0  0  0  0  0  0  0  0
   -5.7785   17.8801  -35.9706 H   0  0  0  0  0  0  0  0  0  0  0  0
   -7.0408   18.6869  -34.9264 H   0  0  0  0  0  0  0  0  0  0  0  0
   -4.0442   18.5305  -34.4078 H   0  0  0  0  0  0  0  0  0  0  0  0
   -5.0178   19.9886  -34.8121 H   0  0  0  0  0  0  0  0  0  0  0  0
   -2.8624   19.9096  -32.0392 H   0  0  0  0  0  0  0  0  0  0  0  0
   -2.2487   22.0181  -30.8649 H   0  0  0  0  0  0  0  0  0  0  0  0
   -3.3220   21.9340  -27.1176 H   0  0  0  0  0  0  0  0  0  0  0  0
   -1.2015   21.2273  -26.0123 H   0  0  0  0  0  0  0  0  0  0  0  0
    0.9012   22.5052  -26.4082 H   0  0  0  0  0  0  0  0  0  0  0  0
    0.8984   24.4760  -27.9366 H   0  0  0  0  0  0  0  0  0  0  0  0
   -0.3850   26.1300  -29.2720 H   0  0  0  0  0  0  0  0  0  0  0  0
   -1.9970   25.6680  -29.8900 H   0  0  0  0  0  0  0  0  0  0  0  0
   -6.3591   23.3624  -31.1395 H   0  0  0  0  0  0  0  0  0  0  0  0
   -6.9713   21.2481  -32.3010 H   0  0  0  0  0  0  0  0  0  0  0  0
   -4.5950   17.4810  -31.9485 H   0  0  0  0  0  0  0  0  0  0  0  0
   -5.9599   18.3159  -31.1060 H   0  0  0  0  0  0  0  0  0  0  0  0
   -6.5024   16.0846  -32.2584 H   0  0  0  0  0  0  0  0  0  0  0  0
   -7.5472   17.5367  -32.6626 H   0  0  0  0  0  0  0  0  0  0  0  0
  1  2  1  0
  2  3  2  0
  3  4  1  0
  4  5  2  0
  5  6  1  0
  6  7  2  0
  7  8  1  0
  8  9  1  0
  9 10  1  0
 10 11  1  0
 11 12  1  0
 12 13  1  0
 13 14  2  0
 14 15  1  0
 15 16  2  0
 16 17  1  0
 17 18  2  0
 17 19  1  0
 19 20  1  0
 20 21  2  0
 21 22  1  0
 22 23  2  0
 23 24  1  0
 24 25  2  0
 25 26  1  0
 16 27  1  0
 27 28  2  0
 12 29  1  0
 29 30  1  0
  7  2  1  0
 30  9  1  0
 28 13  1  0
 25 20  1  0
  1 31  1  0
  1 32  1  0
  1 33  1  0
  3 34  1  0
  4 35  1  0
  5 36  1  0
  6 37  1  0
  8 38  1  0
  8 39  1  0
  9 40  1  0
 10 41  1  0
 10 42  1  0
 11 43  1  0
 11 44  1  0
 14 45  1  0
 15 46  1  0
 21 47  1  0
 22 48  1  0
 23 49  1  0
 24 50  1  0
 26 51  1  0
 26 52  1  0
 27 53  1  0
 28 54  1  0
 29 55  1  0
 29 56  1  0
 30 57  1  0
 30 58  1  0
M  CHG  2   9   1  19  -1
M  END
>  <UniqueID>  (41) 
38

>  <SMILES>  (41) 
Cc1ccccc1C[NH+]1CCN(c2ccc(C(=O)[N-]c3ccccc3N)cc2)CC1

>  <Energy>  (41) 
86.79253956013277

>  <Genealogy>  (41) 
Cc1ccccc1C[NH+]1CCN(c2ccc(C(=O)[N-]c3ccccc3N)cc2)CC1 (protonated)
Cc1ccccc1C[NH+]1CCN(c2ccc(C(=O)[N-]c3ccccc3N)cc2)CC1 (3D coordinates assigned)
Cc1ccccc1C[NH+]1CCN(c2ccc(C(=O)[N-]c3ccccc3N)cc2)CC1 (nonaromatic ring conformer: 86.79253956013277 kcal/mol)

>  <smiles>  (41) 
Cc1ccccc1CN1CCN(c2ccc(C(=O)Nc3ccccc3N)cc2)CC1

>  <score_type>  (41) 
oracle

>  <origin>  (41) 
adgpu

>  <m_score__min__energy>  (41) 
-10.24

>  <m_primary>  (41) 
energy

$$$$
41:0
     RDKit          3D

 45 48  0  0  0  0  0  0  0  0999 V2000
   -7.3830   23.7479  -30.6129 H   0  0  0  0  0  0  0  0  0  0  0  0
   -7.7830   22.7860  -30.9660 C   0  0  0  0  0  0  0  0  0  0  0  0
   -8.5860   22.0120  -30.1240 C   0  0  0  0  0  0  0  0  0  0  0  0
   -8.8133   22.3630  -29.1066 H   0  0  0  0  0  0  0  0  0  0  0  0
   -9.1010   20.7920  -30.5730 C   0  0  0  0  0  0  0  0  0  0  0  0
   -9.7288   20.1836  -29.9054 H   0  0  0  0  0  0  0  0  0  0  0  0
   -8.8200   20.3400  -31.8730 C   0  0  0  0  0  0  0  0  0  0  0  0
   -9.3780   19.0260  -32.3540 C   0  0  0  0  0  0  0  0  0  0  0  0
   -9.7123   19.1359  -33.3962 H   0  0  0  0  0  0  0  0  0  0  0  0
  -10.2231   18.7442  -31.7087 H   0  0  0  0  0  0  0  0  0  0  0  0
   -8.3620   17.9730  -32.2840 N   0  0  0  0  0  0  0  0  0  0  0  0
   -8.6640   17.0450  -31.9090 H   0  0  0  0  0  0  0  0  0  0  0  0
   -7.0040   18.1140  -32.7510 C   0  0  0  0  0  0  0  0  0  0  0  0
   -6.5430   17.2710  -33.7700 C   0  0  0  0  0  0  0  0  0  0  0  0
   -7.2129   16.5054  -34.1885 H   0  0  0  0  0  0  0  0  0  0  0  0
   -5.2430   17.3930  -34.2590 C   0  0  0  0  0  0  0  0  0  0  0  0
   -4.8962   16.7228  -35.0593 H   0  0  0  0  0  0  0  0  0  0  0  0
   -4.3740   18.3630  -33.7390 C   0  0  0  0  0  0  0  0  0  0  0  0
   -4.8150   19.2230  -32.7060 C   0  0  0  0  0  0  0  0  0  0  0  0
   -6.1320   19.0790  -32.2140 C   0  0  0  0  0  0  0  0  0  0  0  0
   -6.4805   19.7308  -31.3993 H   0  0  0  0  0  0  0  0  0  0  0  0
   -3.9380   20.2200  -32.2060 C   0  0  0  0  0  0  0  0  0  0  0  0
   -4.3930   21.0370  -31.2880 N   0  0  0  0  0  0  0  0  0  0  0  0
   -3.8030   22.2250  -30.7480 C   0  0  0  0  0  0  0  0  0  0  0  0
   -4.3140   23.4900  -31.0810 C   0  0  0  0  0  0  0  0  0  0  0  0
   -5.1390   23.5761  -31.8034 H   0  0  0  0  0  0  0  0  0  0  0  0
   -3.7760   24.6400  -30.4960 C   0  0  0  0  0  0  0  0  0  0  0  0
   -4.1625   25.6312  -30.7755 H   0  0  0  0  0  0  0  0  0  0  0  0
   -2.7460   24.5310  -29.5550 C   0  0  0  0  0  0  0  0  0  0  0  0
   -2.2100   25.6740  -28.9760 O   0  0  0  0  0  0  0  0  0  0  0  0
   -2.2580   23.2690  -29.1970 C   0  0  0  0  0  0  0  0  0  0  0  0
   -1.4502   23.1830  -28.4553 H   0  0  0  0  0  0  0  0  0  0  0  0
   -2.7950   22.1180  -29.7800 C   0  0  0  0  0  0  0  0  0  0  0  0
   -2.4260   21.1265  -29.4787 H   0  0  0  0  0  0  0  0  0  0  0  0
   -2.6090   20.2690  -32.7200 C   0  0  0  0  0  0  0  0  0  0  0  0
   -1.5650   21.1030  -32.1700 C   0  0  0  0  0  0  0  0  0  0  0  0
   -0.7200   21.7620  -31.7330 N   0  0  0  0  0  0  0  0  0  0  0  0
   -2.2360   19.3910  -33.7420 C   0  0  0  0  0  0  0  0  0  0  0  0
   -1.2175   19.4406  -34.1546 H   0  0  0  0  0  0  0  0  0  0  0  0
   -3.1120   18.4790  -34.2320 N   0  0  0  0  0  0  0  0  0  0  0  0
   -2.7860   17.8420  -34.9960 H   0  0  0  0  0  0  0  0  0  0  0  0
   -7.9980   21.1170  -32.7090 C   0  0  0  0  0  0  0  0  0  0  0  0
   -7.7555   20.7629  -33.7218 H   0  0  0  0  0  0  0  0  0  0  0  0
   -7.4880   22.3380  -32.2570 C   0  0  0  0  0  0  0  0  0  0  0  0
   -6.8538   22.9469  -32.9181 H   0  0  0  0  0  0  0  0  0  0  0  0
  1  2  1  0
  2  3  2  0
  3  4  1  0
  3  5  1  0
  5  6  1  0
  5  7  2  0
  7  8  1  0
  8  9  1  0
  8 10  1  0
  8 11  1  0
 11 12  1  0
 11 13  1  0
 13 14  2  0
 14 15  1  0
 14 16  1  0
 16 17  1  0
 16 18  2  0
 18 19  1  0
 19 20  2  0
 20 21  1  0
 19 22  1  0
 22 23  2  0
 23 24  1  0
 24 25  2  0
 25 26  1  0
 25 27  1  0
 27 28  1  0
 27 29  2  0
 29 30  1  0
 29 31  1  0
 31 32  1  0
 31 33  2  0
 33 34  1  0
 22 35  1  0
 35 36  1  0
 36 37  3  0
 35 38  2  0
 38 39  1  0
 38 40  1  0
 40 41  1  0
  7 42  1  0
 42 43  1  0
 42 44  2  0
 44 45  1  0
 44  2  1  0
 20 13  1  0
 33 24  1  0
 40 18  1  0
M  CHG  1  30  -1
M  END
>  <UniqueID>  (42) 
39

>  <SMILES>  (42) 
N#Cc1c[nH]c2ccc(NCc3ccccc3)cc2/c1=N/c1ccc([O-])cc1

>  <Energy>  (42) 
69.09820934949332

>  <Genealogy>  (42) 
N#Cc1c[nH]c2ccc(NCc3ccccc3)cc2c1=Nc1ccc([O-])cc1 (protonated)
N#Cc1c[nH]c2ccc(NCc3ccccc3)cc2/c1=N/c1ccc([O-])cc1 (cis-trans isomerization)
N#Cc1c[nH]c2ccc(NCc3ccccc3)cc2/c1=N/c1ccc([O-])cc1 (3D coordinates assigned)
N#Cc1c[nH]c2ccc(NCc3ccccc3)cc2/c1=N/c1ccc([O-])cc1 (optimized conformer: 69.09820934949332 kcal/mol)

>  <smiles>  (42) 
N#Cc1c[nH]c2ccc(NCc3ccccc3)cc2c1=Nc1ccc(O)cc1

>  <score_type>  (42) 
oracle

>  <origin>  (42) 
adgpu

>  <m_score__min__energy>  (42) 
-10.880000000000001

>  <m_primary>  (42) 
energy

$$$$
42:0
     RDKit          3D

 40 41  0  0  0  0  0  0  0  0999 V2000
   -6.5030   17.1240  -33.8520 C   0  0  0  0  0  0  0  0  0  0  0  0
   -6.0610   18.4730  -33.4850 N   0  0  0  0  0  0  0  0  0  0  0  0
   -4.7370   18.9570  -33.8870 C   0  0  0  0  0  0  0  0  0  0  0  0
   -6.9410   19.3370  -32.7380 C   0  0  0  0  0  0  0  0  0  0  0  0
   -8.1230   18.8640  -32.2610 N   0  0  0  0  0  0  0  0  0  0  0  0
   -8.9650   19.6650  -31.5590 C   0  0  0  0  0  0  0  0  0  0  0  0
   -8.6250   20.9950  -31.3190 C   0  0  0  0  0  0  0  0  0  0  0  0
   -7.4010   21.4820  -31.8090 C   0  0  0  0  0  0  0  0  0  0  0  0
   -6.9830   22.8510  -31.5920 N   0  0  0  0  0  0  0  0  0  0  0  0
   -6.8370   23.7830  -32.7160 C   0  0  0  0  0  0  0  0  0  0  0  0
   -6.6170   23.2990  -30.2410 C   0  0  0  0  0  0  0  0  0  0  0  0
   -5.1920   23.7520  -30.2150 C   0  0  0  0  0  0  0  0  0  0  0  0
   -4.7750   24.9390  -30.6970 N   0  0  0  0  0  0  0  0  0  0  0  0
   -3.4870   24.9270  -30.5340 O   0  0  0  0  0  0  0  0  0  0  0  0
   -3.1230   23.7920  -29.9920 C   0  0  0  0  0  0  0  0  0  0  0  0
   -1.7160   23.4410  -29.6380 C   0  0  0  0  0  0  0  0  0  0  0  0
   -1.0530   24.6300  -28.4900 S   0  0  0  0  0  0  0  0  0  0  0  0
   -1.8470   24.4700  -26.9050 C   0  0  0  0  0  0  0  0  0  0  0  0
   -1.2720   26.0200  -29.0200 O   0  0  0  0  0  0  0  0  0  0  0  0
    0.4210   24.3910  -28.3270 O   0  0  0  0  0  0  0  0  0  0  0  0
   -4.1780   22.9880  -29.7630 N   0  0  0  0  0  0  0  0  0  0  0  0
   -6.5940   20.6310  -32.5030 N   0  0  0  0  0  0  0  0  0  0  0  0
   -6.6944   16.5400  -32.9397 H   0  0  0  0  0  0  0  0  0  0  0  0
   -7.4266   17.1896  -34.4458 H   0  0  0  0  0  0  0  0  0  0  0  0
   -5.7196   16.6303  -34.4458 H   0  0  0  0  0  0  0  0  0  0  0  0
   -4.1387   19.1757  -32.9902 H   0  0  0  0  0  0  0  0  0  0  0  0
   -4.2310   18.1857  -34.4862 H   0  0  0  0  0  0  0  0  0  0  0  0
   -4.8478   19.8728  -34.4862 H   0  0  0  0  0  0  0  0  0  0  0  0
   -9.9163   19.2638  -31.1794 H   0  0  0  0  0  0  0  0  0  0  0  0
   -9.3032   21.6526  -30.7555 H   0  0  0  0  0  0  0  0  0  0  0  0
   -6.6776   24.8007  -32.3301 H   0  0  0  0  0  0  0  0  0  0  0  0
   -5.9747   23.4845  -33.3302 H   0  0  0  0  0  0  0  0  0  0  0  0
   -7.7493   23.7625  -33.3302 H   0  0  0  0  0  0  0  0  0  0  0  0
   -7.2692   24.1343  -29.9461 H   0  0  0  0  0  0  0  0  0  0  0  0
   -6.7398   22.4607  -29.5395 H   0  0  0  0  0  0  0  0  0  0  0  0
   -1.6959   22.4420  -29.1779 H   0  0  0  0  0  0  0  0  0  0  0  0
   -1.1047   23.4469  -30.5525 H   0  0  0  0  0  0  0  0  0  0  0  0
   -1.1053   24.6195  -26.1066 H   0  0  0  0  0  0  0  0  0  0  0  0
   -2.6406   25.2263  -26.8145 H   0  0  0  0  0  0  0  0  0  0  0  0
   -2.2858   23.4654  -26.8145 H   0  0  0  0  0  0  0  0  0  0  0  0
  1  2  1  0
  2  3  1  0
  2  4  1  0
  4  5  2  0
  5  6  1  0
  6  7  2  0
  7  8  1  0
  8  9  1  0
  9 10  1  0
  9 11  1  0
 11 12  1  0
 12 13  2  0
 13 14  1  0
 14 15  1  0
 15 16  1  0
 16 17  1  0
 17 18  1  0
 17 19  2  0
 17 20  2  0
 15 21  2  0
  8 22  2  0
 22  4  1  0
 21 12  1  0
  1 23  1  0
  1 24  1  0
  1 25  1  0
  3 26  1  0
  3 27  1  0
  3 28  1  0
  6 29  1  0
  7 30  1  0
 10 31  1  0
 10 32  1  0
 10 33  1  0
 11 34  1  0
 11 35  1  0
 16 36  1  0
 16 37  1  0
 18 38  1  0
 18 39  1  0
 18 40  1  0
M  END
>  <UniqueID>  (43) 
40

>  <SMILES>  (43) 
CN(C)c1nccc(N(C)Cc2noc(CS(C)(=O)=O)n2)n1

>  <Energy>  (43) 
58.497044636704715

>  <Genealogy>  (43) 
CN(C)c1nccc(N(C)Cc2noc(CS(C)(=O)=O)n2)n1 (3D coordinates assigned)
CN(C)c1nccc(N(C)Cc2noc(CS(C)(=O)=O)n2)n1 (optimized conformer: 58.497044636704715 kcal/mol)

>  <smiles>  (43) 
CN(C)c1nccc(N(C)Cc2noc(CS(C)(=O)=O)n2)n1

>  <score_type>  (43) 
oracle

>  <origin>  (43) 
adgpu

>  <m_score__min__energy>  (43) 
-8.6500000000000004

>  <m_primary>  (43) 
energy

$$$$
43:0
     RDKit          3D

 59 62  0  0  0  0  0  0  0  0999 V2000
   -0.2680   16.0360  -32.6700 C   0  0  0  0  0  0  0  0  0  0  0  0
   -1.6420   16.4540  -33.1200 C   0  0  0  0  0  0  0  0  0  0  0  0
   -2.7500   15.6870  -32.7250 C   0  0  0  0  0  0  0  0  0  0  0  0
   -4.0400   16.0540  -33.1130 C   0  0  0  0  0  0  0  0  0  0  0  0
   -4.2430   17.1870  -33.9060 C   0  0  0  0  0  0  0  0  0  0  0  0
   -5.8760   17.7170  -34.3090 S   0  0  0  0  0  0  0  0  0  0  0  0
   -5.8210   18.5450  -35.5620 O   0  0  0  0  0  0  0  0  0  0  0  0
   -6.7520   16.5190  -34.5540 O   0  0  0  0  0  0  0  0  0  0  0  0
   -6.5360   18.6750  -33.0070 N   0  0  0  0  0  0  0  0  0  0  0  0
   -7.8750   18.1980  -32.6370 C   0  0  0  0  0  0  0  0  0  0  0  0
   -8.3750   18.9970  -31.4160 C   0  0  0  0  0  0  0  0  0  0  0  0
   -7.6960   20.2360  -31.2390 O   0  0  0  0  0  0  0  0  0  0  0  0
   -7.5380   20.8940  -32.4770 C   0  0  0  0  0  0  0  0  0  0  0  0
   -6.5920   20.0960  -33.3990 C   0  0  0  0  0  0  0  0  0  0  0  0
   -3.1420   17.9460  -34.3220 C   0  0  0  0  0  0  0  0  0  0  0  0
   -1.8470   17.6110  -33.9040 C   0  0  0  0  0  0  0  0  0  0  0  0
   -0.7550   18.4620  -34.2820 N   0  0  0  0  0  0  0  0  0  0  0  0
   -0.8830   19.8830  -34.4330 C   0  0  0  0  0  0  0  0  0  0  0  0
   -0.4800   20.4220  -35.4970 O   0  0  0  0  0  0  0  0  0  0  0  0
   -1.4990   20.7160  -33.3790 C   0  0  0  0  0  0  0  0  0  0  0  0
   -0.7470   21.1120  -32.2610 C   0  0  0  0  0  0  0  0  0  0  0  0
   -1.3210   21.9060  -31.2680 C   0  0  0  0  0  0  0  0  0  0  0  0
   -2.6540   22.3170  -31.3740 C   0  0  0  0  0  0  0  0  0  0  0  0
   -3.3470   23.3510  -30.1290 S   0  0  0  0  0  0  0  0  0  0  0  0
   -3.7260   22.5170  -28.9380 O   0  0  0  0  0  0  0  0  0  0  0  0
   -2.3220   24.3620  -29.6950 O   0  0  0  0  0  0  0  0  0  0  0  0
   -4.7700   24.1460  -30.7530 N   0  0  0  0  0  0  0  0  0  0  0  0
   -5.8420   23.1860  -31.0060 C   0  0  0  0  0  0  0  0  0  0  0  0
   -7.1440   23.9620  -30.9150 C   0  0  0  0  0  0  0  0  0  0  0  0
   -6.8200   25.1860  -30.0740 C   0  0  0  0  0  0  0  0  0  0  0  0
   -5.3270   25.0940  -29.7870 C   0  0  0  0  0  0  0  0  0  0  0  0
   -3.4160   21.9110  -32.4790 C   0  0  0  0  0  0  0  0  0  0  0  0
   -2.8450   21.1040  -33.4700 C   0  0  0  0  0  0  0  0  0  0  0  0
   -0.2299   16.0244  -31.5707 H   0  0  0  0  0  0  0  0  0  0  0  0
   -0.0463   15.0298  -33.0552 H   0  0  0  0  0  0  0  0  0  0  0  0
    0.4765   16.7483  -33.0552 H   0  0  0  0  0  0  0  0  0  0  0  0
   -2.6005   14.7905  -32.1054 H   0  0  0  0  0  0  0  0  0  0  0  0
   -4.9008   15.4485  -32.7930 H   0  0  0  0  0  0  0  0  0  0  0  0
   -8.5648   18.3449  -33.4811 H   0  0  0  0  0  0  0  0  0  0  0  0
   -7.8316   17.1276  -32.3873 H   0  0  0  0  0  0  0  0  0  0  0  0
   -9.4476   19.2021  -31.5480 H   0  0  0  0  0  0  0  0  0  0  0  0
   -8.1775   18.3860  -30.5229 H   0  0  0  0  0  0  0  0  0  0  0  0
   -8.5201   20.9906  -32.9630 H   0  0  0  0  0  0  0  0  0  0  0  0
   -7.1030   21.8883  -32.2974 H   0  0  0  0  0  0  0  0  0  0  0  0
   -6.9556   20.1682  -34.4347 H   0  0  0  0  0  0  0  0  0  0  0  0
   -5.5811   20.5209  -33.3115 H   0  0  0  0  0  0  0  0  0  0  0  0
   -3.2950   18.8123  -34.9824 H   0  0  0  0  0  0  0  0  0  0  0  0
    0.3019   20.7939  -32.1677 H   0  0  0  0  0  0  0  0  0  0  0  0
   -0.7223   22.2106  -30.3969 H   0  0  0  0  0  0  0  0  0  0  0  0
   -5.7304   22.7467  -32.0083 H   0  0  0  0  0  0  0  0  0  0  0  0
   -5.8181   22.3612  -30.2785 H   0  0  0  0  0  0  0  0  0  0  0  0
   -7.4854   24.2616  -31.9168 H   0  0  0  0  0  0  0  0  0  0  0  0
   -7.9512   23.3604  -30.4718 H   0  0  0  0  0  0  0  0  0  0  0  0
   -7.0492   26.1070  -30.6301 H   0  0  0  0  0  0  0  0  0  0  0  0
   -7.4140   25.2162  -29.1486 H   0  0  0  0  0  0  0  0  0  0  0  0
   -4.8561   26.0805  -29.9094 H   0  0  0  0  0  0  0  0  0  0  0  0
   -5.1425   24.7611  -28.7549 H   0  0  0  0  0  0  0  0  0  0  0  0
   -4.4657   22.2277  -32.5673 H   0  0  0  0  0  0  0  0  0  0  0  0
   -3.4538   20.7723  -34.3240 H   0  0  0  0  0  0  0  0  0  0  0  0
  1  2  1  0
  2  3  2  0
  3  4  1  0
  4  5  2  0
  5  6  1  0
  6  7  2  0
  6  8  2  0
  6  9  1  0
  9 10  1  0
 10 11  1  0
 11 12  1  0
 12 13  1  0
 13 14  1  0
  5 15  1  0
 15 16  2  0
 16 17  1  0
 17 18  1  0
 18 19  2  0
 18 20  1  0
 20 21  2  0
 21 22  1  0
 22 23  2  0
 23 24  1  0
 24 25  2  0
 24 26  2  0
 24 27  1  0
 27 28  1  0
 28 29  1  0
 29 30  1  0
 30 31  1  0
 23 32  1  0
 32 33  2  0
 16  2  1  0
 33 20  1  0
 14  9  1  0
 31 27  1  0
  1 34  1  0
  1 35  1  0
  1 36  1  0
  3 37  1  0
  4 38  1  0
 10 39  1  0
 10 40  1  0
 11 41  1  0
 11 42  1  0
 13 43  1  0
 13 44  1  0
 14 45  1  0
 14 46  1  0
 15 47  1  0
 21 48  1  0
 22 49  1  0
 28 50  1  0
 28 51  1  0
 29 52  1  0
 29 53  1  0
 30 54  1  0
 30 55  1  0
 31 56  1  0
 31 57  1  0
 32 58  1  0
 33 59  1  0
M  CHG  1  17  -1
M  END
>  <UniqueID>  (44) 
41

>  <SMILES>  (44) 
Cc1ccc(S(=O)(=O)N2CCOCC2)cc1[N-]C(=O)c1ccc(S(=O)(=O)N2CCCC2)cc1

>  <Energy>  (44) 
77.13000449807734

>  <Genealogy>  (44) 
Cc1ccc(S(=O)(=O)N2CCOCC2)cc1[N-]C(=O)c1ccc(S(=O)(=O)N2CCCC2)cc1 (protonated)
Cc1ccc(S(=O)(=O)N2CCOCC2)cc1[N-]C(=O)c1ccc(S(=O)(=O)N2CCCC2)cc1 (3D coordinates assigned)
Cc1ccc(S(=O)(=O)N2CCOCC2)cc1[N-]C(=O)c1ccc(S(=O)(=O)N2CCCC2)cc1 (nonaromatic ring conformer: 77.13000449807734 kcal/mol)

>  <smiles>  (44) 
Cc1ccc(S(=O)(=O)N2CCOCC2)cc1NC(=O)c1ccc(S(=O)(=O)N2CCCC2)cc1

>  <score_type>  (44) 
oracle

>  <origin>  (44) 
adgpu

>  <m_score__min__energy>  (44) 
-13.119999999999999

>  <m_primary>  (44) 
energy

$$$$
44:0
     RDKit          3D

 37 39  0  0  0  0  0  0  0  0999 V2000
   -6.1370   17.1490  -34.1990 C   0  0  0  0  0  0  0  0  0  0  0  0
   -7.2360   17.0430  -33.1470 C   0  0  0  0  0  0  0  0  0  0  0  0
   -7.6930   18.4070  -32.7170 C   0  0  0  0  0  0  0  0  0  0  0  0
   -6.7630   19.3970  -32.3700 C   0  0  0  0  0  0  0  0  0  0  0  0
   -7.2060   20.6790  -31.9990 C   0  0  0  0  0  0  0  0  0  0  0  0
   -6.2500   21.6970  -31.6370 N   0  0  0  0  0  0  0  0  0  0  0  0
   -5.1210   21.5590  -30.9140 C   0  0  0  0  0  0  0  0  0  0  0  0
   -4.5440   22.8130  -30.8410 C   0  0  0  0  0  0  0  0  0  0  0  0
   -3.2860   23.1970  -30.1590 C   0  0  0  0  0  0  0  0  0  0  0  0
   -2.3300   22.2330  -29.7910 C   0  0  0  0  0  0  0  0  0  0  0  0
   -1.1490   22.6130  -29.1470 C   0  0  0  0  0  0  0  0  0  0  0  0
   -0.9000   23.9670  -28.8580 C   0  0  0  0  0  0  0  0  0  0  0  0
    0.2740   24.3920  -28.2140 O   0  0  0  0  0  0  0  0  0  0  0  0
    0.3050   25.0640  -26.9590 C   0  0  0  0  0  0  0  0  0  0  0  0
   -1.8490   24.9290  -29.2240 C   0  0  0  0  0  0  0  0  0  0  0  0
   -1.6210   26.2720  -28.9460 O   0  0  0  0  0  0  0  0  0  0  0  0
   -3.0310   24.5490  -29.8670 C   0  0  0  0  0  0  0  0  0  0  0  0
   -5.3330   23.6700  -31.5200 N   0  0  0  0  0  0  0  0  0  0  0  0
   -6.3540   22.9700  -31.9890 N   0  0  0  0  0  0  0  0  0  0  0  0
   -8.5900   20.9370  -31.9980 C   0  0  0  0  0  0  0  0  0  0  0  0
   -9.4830   19.9270  -32.3620 C   0  0  0  0  0  0  0  0  0  0  0  0
   -9.0210   18.6990  -32.7140 N   0  0  0  0  0  0  0  0  0  0  0  0
   -5.1607   17.2432  -33.7011 H   0  0  0  0  0  0  0  0  0  0  0  0
   -6.1426   16.2461  -34.8274 H   0  0  0  0  0  0  0  0  0  0  0  0
   -6.3150   18.0341  -34.8274 H   0  0  0  0  0  0  0  0  0  0  0  0
   -8.0894   16.4932  -33.5706 H   0  0  0  0  0  0  0  0  0  0  0  0
   -6.8364   16.5116  -32.2707 H   0  0  0  0  0  0  0  0  0  0  0  0
   -5.6866   19.1709  -32.3879 H   0  0  0  0  0  0  0  0  0  0  0  0
   -4.7344   20.6303  -30.4691 H   0  0  0  0  0  0  0  0  0  0  0  0
   -2.5133   21.1711  -30.0119 H   0  0  0  0  0  0  0  0  0  0  0  0
   -0.4100   21.8488  -28.8645 H   0  0  0  0  0  0  0  0  0  0  0  0
    0.2709   24.3240  -26.1459 H   0  0  0  0  0  0  0  0  0  0  0  0
    1.2312   25.6522  -26.8808 H   0  0  0  0  0  0  0  0  0  0  0  0
   -0.5631   25.7350  -26.8808 H   0  0  0  0  0  0  0  0  0  0  0  0
   -3.7689   25.3151  -30.1473 H   0  0  0  0  0  0  0  0  0  0  0  0
   -8.9664   21.9301  -31.7117 H   0  0  0  0  0  0  0  0  0  0  0  0
  -10.5647   20.1266  -32.3637 H   0  0  0  0  0  0  0  0  0  0  0  0
  1  2  1  0
  2  3  1  0
  3  4  2  0
  4  5  1  0
  5  6  1  0
  6  7  1  0
  7  8  2  0
  8  9  1  0
  9 10  2  0
 10 11  1  0
 11 12  2  0
 12 13  1  0
 13 14  1  0
 12 15  1  0
 15 16  1  0
 15 17  2  0
  8 18  1  0
 18 19  2  0
  5 20  2  0
 20 21  1  0
 21 22  2  0
 22  3  1  0
 19  6  1  0
 17  9  1  0
  1 23  1  0
  1 24  1  0
  1 25  1  0
  2 26  1  0
  2 27  1  0
  4 28  1  0
  7 29  1  0
 10 30  1  0
 11 31  1  0
 14 32  1  0
 14 33  1  0
 14 34  1  0
 17 35  1  0
 20 36  1  0
 21 37  1  0
M  CHG  1  16  -1
M  END
>  <UniqueID>  (45) 
42

>  <SMILES>  (45) 
CCc1cc(-n2cc(-c3ccc(OC)c([O-])c3)nn2)ccn1

>  <Energy>  (45) 
74.70435469613547

>  <Genealogy>  (45) 
CCc1cc(-n2cc(-c3ccc(OC)c([O-])c3)nn2)ccn1 (protonated)
CCc1cc(-n2cc(-c3ccc(OC)c([O-])c3)nn2)ccn1 (3D coordinates assigned)
CCc1cc(-n2cc(-c3ccc(OC)c([O-])c3)nn2)ccn1 (optimized conformer: 74.70435469613547 kcal/mol)

>  <smiles>  (45) 
CCc1cc(-n2cc(-c3ccc(OC)c(O)c3)nn2)ccn1

>  <score_type>  (45) 
oracle

>  <origin>  (45) 
adgpu

>  <m_score__min__energy>  (45) 
-10.460000000000001

>  <m_primary>  (45) 
energy

$$$$
45:0
     RDKit          3D

 51 53  0  0  0  0  0  0  0  0999 V2000
   -5.4118   22.9636  -29.8219 H   0  0  0  0  0  0  0  0  0  0  0  0
   -5.5440   23.7730  -30.5550 C   0  0  0  0  0  0  0  0  0  0  0  0
   -4.9790   25.1070  -30.2580 C   0  0  0  0  0  0  0  0  0  0  0  0
   -5.7450   26.0890  -30.0660 O   0  0  0  0  0  0  0  0  0  0  0  0
   -3.5660   25.2980  -30.1090 N   0  0  0  0  0  0  0  0  0  0  0  0
   -2.6540   24.4220  -29.4290 C   0  0  0  0  0  0  0  0  0  0  0  0
   -1.4370   24.9320  -28.9820 C   0  0  0  0  0  0  0  0  0  0  0  0
   -1.1985   25.9933  -29.1459 H   0  0  0  0  0  0  0  0  0  0  0  0
   -0.5110   24.1050  -28.3240 C   0  0  0  0  0  0  0  0  0  0  0  0
    0.7160   24.5980  -27.8490 O   0  0  0  0  0  0  0  0  0  0  0  0
    1.0050   24.8680  -26.4800 C   0  0  0  0  0  0  0  0  0  0  0  0
    0.3513   24.2573  -25.8399 H   0  0  0  0  0  0  0  0  0  0  0  0
    2.0565   24.6213  -26.2717 H   0  0  0  0  0  0  0  0  0  0  0  0
    0.8302   25.9339  -26.2717 H   0  0  0  0  0  0  0  0  0  0  0  0
   -0.8000   22.7440  -28.1240 C   0  0  0  0  0  0  0  0  0  0  0  0
    0.1730   21.9840  -27.4470 O   0  0  0  0  0  0  0  0  0  0  0  0
    0.6910   20.7190  -27.8460 C   0  0  0  0  0  0  0  0  0  0  0  0
    0.9345   20.1244  -26.9532 H   0  0  0  0  0  0  0  0  0  0  0  0
   -0.0618   20.1874  -28.4465 H   0  0  0  0  0  0  0  0  0  0  0  0
    1.6005   20.8681  -28.4465 H   0  0  0  0  0  0  0  0  0  0  0  0
   -2.0250   22.2100  -28.6020 C   0  0  0  0  0  0  0  0  0  0  0  0
   -2.3210   20.8500  -28.4120 O   0  0  0  0  0  0  0  0  0  0  0  0
   -2.7230   20.2650  -27.1770 C   0  0  0  0  0  0  0  0  0  0  0  0
   -2.3172   20.8555  -26.3423 H   0  0  0  0  0  0  0  0  0  0  0  0
   -3.8213   20.2525  -27.1175 H   0  0  0  0  0  0  0  0  0  0  0  0
   -2.3409   19.2352  -27.1175 H   0  0  0  0  0  0  0  0  0  0  0  0
   -2.9310   23.0580  -29.2670 C   0  0  0  0  0  0  0  0  0  0  0  0
   -3.8693   22.6441  -29.6649 H   0  0  0  0  0  0  0  0  0  0  0  0
   -6.2110   23.5190  -31.6870 C   0  0  0  0  0  0  0  0  0  0  0  0
   -6.3652   24.3444  -32.3976 H   0  0  0  0  0  0  0  0  0  0  0  0
   -6.7510   22.1880  -32.0320 C   0  0  0  0  0  0  0  0  0  0  0  0
   -8.0540   21.7000  -32.0110 C   0  0  0  0  0  0  0  0  0  0  0  0
   -9.3030   22.4210  -31.6190 C   0  0  0  0  0  0  0  0  0  0  0  0
   -9.3738   22.4619  -30.5220 H   0  0  0  0  0  0  0  0  0  0  0  0
   -9.2782   23.4437  -32.0232 H   0  0  0  0  0  0  0  0  0  0  0  0
  -10.1763   21.8880  -32.0232 H   0  0  0  0  0  0  0  0  0  0  0  0
   -8.0580   20.4260  -32.4490 N   0  0  0  0  0  0  0  0  0  0  0  0
   -6.8130   20.0910  -32.7560 N   0  0  0  0  0  0  0  0  0  0  0  0
   -6.4430   18.7950  -33.2720 C   0  0  0  0  0  0  0  0  0  0  0  0
   -6.8550   17.6270  -32.6030 C   0  0  0  0  0  0  0  0  0  0  0  0
   -7.4605   17.7080  -31.6882 H   0  0  0  0  0  0  0  0  0  0  0  0
   -6.5020   16.3650  -33.0900 C   0  0  0  0  0  0  0  0  0  0  0  0
   -6.8318   15.4594  -32.5598 H   0  0  0  0  0  0  0  0  0  0  0  0
   -5.7310   16.2530  -34.2490 C   0  0  0  0  0  0  0  0  0  0  0  0
   -5.4555   15.2594  -34.6322 H   0  0  0  0  0  0  0  0  0  0  0  0
   -5.3100   17.4010  -34.9210 C   0  0  0  0  0  0  0  0  0  0  0  0
   -4.7010   17.3105  -35.8326 H   0  0  0  0  0  0  0  0  0  0  0  0
   -5.6600   18.6670  -34.4390 C   0  0  0  0  0  0  0  0  0  0  0  0
   -5.3229   19.5678  -34.9728 H   0  0  0  0  0  0  0  0  0  0  0  0
   -5.9980   21.1430  -32.5270 C   0  0  0  0  0  0  0  0  0  0  0  0
   -4.9128   21.1635  -32.7056 H   0  0  0  0  0  0  0  0  0  0  0  0
  1  2  1  0
  2  3  1  0
  3  4  2  0
  3  5  1  0
  5  6  1  0
  6  7  2  0
  7  8  1  0
  7  9  1  0
  9 10  1  0
 10 11  1  0
 11 12  1  0
 11 13  1  0
 11 14  1  0
  9 15  2  0
 15 16  1  0
 16 17  1  0
 17 18  1  0
 17 19  1  0
 17 20  1  0
 15 21  1  0
 21 22  1  0
 22 23  1  0
 23 24  1  0
 23 25  1  0
 23 26  1  0
 21 27  2  0
 27 28  1  0
  2 29  2  0
 29 30  1  0
 29 31  1  0
 31 32  1  0
 32 33  1  0
 33 34  1  0
 33 35  1  0
 33 36  1  0
 32 37  2  0
 37 38  1  0
 38 39  1  0
 39 40  2  0
 40 41  1  0
 40 42  1  0
 42 43  1  0
 42 44  2  0
 44 45  1  0
 44 46  1  0
 46 47  1  0
 46 48  2  0
 48 49  1  0
 38 50  1  0
 50 51  1  0
 27  6  1  0
 50 31  2  0
 48 39  1  0
M  CHG  1   5  -1
M  END
>  <UniqueID>  (46) 
43

>  <SMILES>  (46) 
COc1cc([N-]C(=O)/C=C/c2cn(-c3ccccc3)nc2C)cc(OC)c1OC

>  <Energy>  (46) 
92.06741584196519

>  <Genealogy>  (46) 
COc1cc([N-]C(=O)C=Cc2cn(-c3ccccc3)nc2C)cc(OC)c1OC (protonated)
COc1cc([N-]C(=O)/C=C/c2cn(-c3ccccc3)nc2C)cc(OC)c1OC (cis-trans isomerization)
COc1cc([N-]C(=O)/C=C/c2cn(-c3ccccc3)nc2C)cc(OC)c1OC (3D coordinates assigned)
COc1cc([N-]C(=O)/C=C/c2cn(-c3ccccc3)nc2C)cc(OC)c1OC (optimized conformer: 92.06741584196519 kcal/mol)

>  <smiles>  (46) 
COc1cc(NC(=O)C=Cc2cn(-c3ccccc3)nc2C)cc(OC)c1OC

>  <score_type>  (46) 
oracle

>  <origin>  (46) 
adgpu

>  <m_score__min__energy>  (46) 
-10.56

>  <m_primary>  (46) 
energy

$$$$
46:0
     RDKit          3D

 42 43  0  0  0  0  0  0  0  0999 V2000
   -0.3564   25.3096  -29.7562 H   0  0  0  0  0  0  0  0  0  0  0  0
   -1.0450   24.9880  -28.9610 C   0  0  0  0  0  0  0  0  0  0  0  0
   -2.3810   24.9210  -29.2060 N   0  0  0  0  0  0  0  0  0  0  0  0
   -3.2730   24.5380  -28.2500 C   0  0  0  0  0  0  0  0  0  0  0  0
   -4.5430   24.4740  -28.5100 N   0  0  0  0  0  0  0  0  0  0  0  0
   -5.2290   24.8510  -30.0570 S   0  0  0  0  0  0  0  0  0  0  0  0
   -4.2380   25.6460  -30.8600 O   0  0  0  0  0  0  0  0  0  0  0  0
   -6.4690   25.6790  -29.8630 O   0  0  0  0  0  0  0  0  0  0  0  0
   -5.6630   23.3630  -30.8930 C   0  0  0  0  0  0  0  0  0  0  0  0
   -6.9360   23.2310  -31.4550 C   0  0  0  0  0  0  0  0  0  0  0  0
   -7.6522   24.0632  -31.3883 H   0  0  0  0  0  0  0  0  0  0  0  0
   -7.3040   22.0480  -32.1010 C   0  0  0  0  0  0  0  0  0  0  0  0
   -8.3088   21.9607  -32.5400 H   0  0  0  0  0  0  0  0  0  0  0  0
   -6.4060   20.9630  -32.1990 C   0  0  0  0  0  0  0  0  0  0  0  0
   -6.7880   19.7260  -32.8710 N   0  0  0  0  0  0  0  0  0  0  0  0
   -6.1260   19.2890  -34.1120 C   0  0  0  0  0  0  0  0  0  0  0  0
   -5.1098   19.7089  -34.1453 H   0  0  0  0  0  0  0  0  0  0  0  0
   -6.7166   19.6442  -34.9694 H   0  0  0  0  0  0  0  0  0  0  0  0
   -6.0400   17.7660  -34.1760 C   0  0  0  0  0  0  0  0  0  0  0  0
   -6.0169   17.3568  -33.1552 H   0  0  0  0  0  0  0  0  0  0  0  0
   -6.9173   17.3713  -34.7095 H   0  0  0  0  0  0  0  0  0  0  0  0
   -5.1239   17.4726  -34.7095 H   0  0  0  0  0  0  0  0  0  0  0  0
   -7.8540   18.8600  -32.3370 C   0  0  0  0  0  0  0  0  0  0  0  0
   -7.7608   17.8581  -32.7813 H   0  0  0  0  0  0  0  0  0  0  0  0
   -7.7488   18.8059  -31.2434 H   0  0  0  0  0  0  0  0  0  0  0  0
   -9.2330   19.4280  -32.6680 C   0  0  0  0  0  0  0  0  0  0  0  0
   -9.7717   19.6499  -31.7350 H   0  0  0  0  0  0  0  0  0  0  0  0
   -9.1180   20.3520  -33.2537 H   0  0  0  0  0  0  0  0  0  0  0  0
   -9.8022   18.6911  -33.2537 H   0  0  0  0  0  0  0  0  0  0  0  0
   -5.1230   21.1140  -31.6240 C   0  0  0  0  0  0  0  0  0  0  0  0
   -4.4003   20.2870  -31.6860 H   0  0  0  0  0  0  0  0  0  0  0  0
   -4.7600   22.2990  -30.9780 C   0  0  0  0  0  0  0  0  0  0  0  0
   -3.7582   22.3951  -30.5339 H   0  0  0  0  0  0  0  0  0  0  0  0
   -2.8130   24.2090  -26.9700 C   0  0  0  0  0  0  0  0  0  0  0  0
   -3.5232   23.9030  -26.1878 H   0  0  0  0  0  0  0  0  0  0  0  0
   -1.4460   24.2720  -26.6930 C   0  0  0  0  0  0  0  0  0  0  0  0
   -1.0771   24.0264  -25.6862 H   0  0  0  0  0  0  0  0  0  0  0  0
   -0.5440   24.6480  -27.6970 C   0  0  0  0  0  0  0  0  0  0  0  0
    0.9230   24.7550  -27.4060 C   0  0  0  0  0  0  0  0  0  0  0  0
    1.0810   24.7665  -26.3175 H   0  0  0  0  0  0  0  0  0  0  0  0
    1.4474   23.8927  -27.8435 H   0  0  0  0  0  0  0  0  0  0  0  0
    1.3168   25.6843  -27.8435 H   0  0  0  0  0  0  0  0  0  0  0  0
  1  2  1  0
  2  3  1  0
  3  4  1  0
  4  5  2  0
  5  6  1  0
  6  7  2  0
  6  8  2  0
  6  9  1  0
  9 10  2  0
 10 11  1  0
 10 12  1  0
 12 13  1  0
 12 14  2  0
 14 15  1  0
 15 16  1  0
 16 17  1  0
 16 18  1  0
 16 19  1  0
 19 20  1  0
 19 21  1  0
 19 22  1  0
 15 23  1  0
 23 24  1  0
 23 25  1  0
 23 26  1  0
 26 27  1  0
 26 28  1  0
 26 29  1  0
 14 30  1  0
 30 31  1  0
 30 32  2  0
 32 33  1  0
  4 34  1  0
 34 35  1  0
 34 36  2  0
 36 37  1  0
 36 38  1  0
 38 39  1  0
 39 40  1  0
 39 41  1  0
 39 42  1  0
 38  2  2  0
 32  9  1  0
M  CHG  1   3  -1
M  END
>  <UniqueID>  (47) 
44

>  <SMILES>  (47) 
CCN(CC)c1ccc(S(=O)(=O)/N=c2/ccc(C)c[n-]2)cc1

>  <Energy>  (47) 
43.485147194279996

>  <Genealogy>  (47) 
CCN(CC)c1ccc(S(=O)(=O)N=c2ccc(C)c[n-]2)cc1 (protonated)
CCN(CC)c1ccc(S(=O)(=O)/N=c2/ccc(C)c[n-]2)cc1 (cis-trans isomerization)
CCN(CC)c1ccc(S(=O)(=O)/N=c2/ccc(C)c[n-]2)cc1 (3D coordinates assigned)
CCN(CC)c1ccc(S(=O)(=O)/N=c2/ccc(C)c[n-]2)cc1 (optimized conformer: 43.485147194279996 kcal/mol)

>  <smiles>  (47) 
CCN(CC)c1ccc(S(=O)(=O)N=c2ccc(C)c[nH]2)cc1

>  <score_type>  (47) 
oracle

>  <origin>  (47) 
adgpu

>  <m_score__min__energy>  (47) 
-9.7799999999999994

>  <m_primary>  (47) 
energy

$$$$
47:0
     RDKit          3D

 54 57  0  0  0  0  0  0  0  0999 V2000
   -2.5270   25.2820  -29.0460 N   0  0  0  0  0  0  0  0  0  0  0  0
   -1.8840   24.3690  -28.1450 C   0  0  0  0  0  0  0  0  0  0  0  0
   -1.5140   24.8190  -26.8680 C   0  0  0  0  0  0  0  0  0  0  0  0
   -0.8340   23.9750  -25.9870 C   0  0  0  0  0  0  0  0  0  0  0  0
   -0.5150   22.6740  -26.3710 C   0  0  0  0  0  0  0  0  0  0  0  0
   -0.8810   22.2080  -27.6360 C   0  0  0  0  0  0  0  0  0  0  0  0
   -1.5770   23.0400  -28.5280 C   0  0  0  0  0  0  0  0  0  0  0  0
   -1.9780   22.4960  -29.8430 C   0  0  0  0  0  0  0  0  0  0  0  0
   -1.1620   21.5710  -30.5050 C   0  0  0  0  0  0  0  0  0  0  0  0
   -1.5410   21.0590  -31.7460 C   0  0  0  0  0  0  0  0  0  0  0  0
   -2.7520   21.4530  -32.3460 C   0  0  0  0  0  0  0  0  0  0  0  0
   -3.1530   20.9610  -33.6010 O   0  0  0  0  0  0  0  0  0  0  0  0
   -3.0420   19.6080  -34.0440 C   0  0  0  0  0  0  0  0  0  0  0  0
   -4.2650   18.8210  -33.6620 C   0  0  0  0  0  0  0  0  0  0  0  0
   -4.9990   18.1490  -34.6520 C   0  0  0  0  0  0  0  0  0  0  0  0
   -6.1280   17.4010  -34.3070 C   0  0  0  0  0  0  0  0  0  0  0  0
   -6.5350   17.3230  -32.9730 C   0  0  0  0  0  0  0  0  0  0  0  0
   -5.8050   17.9800  -31.9790 C   0  0  0  0  0  0  0  0  0  0  0  0
   -4.6690   18.7220  -32.3200 C   0  0  0  0  0  0  0  0  0  0  0  0
   -3.5810   22.3820  -31.6760 C   0  0  0  0  0  0  0  0  0  0  0  0
   -4.9230   22.7920  -32.2430 C   0  0  0  0  0  0  0  0  0  0  0  0
   -6.0310   22.7760  -31.1780 C   0  0  0  0  0  0  0  0  0  0  0  0
   -7.1970   21.9070  -31.5800 C   0  0  0  0  0  0  0  0  0  0  0  0
   -8.4210   22.0020  -30.8950 C   0  0  0  0  0  0  0  0  0  0  0  0
   -9.5000   21.1950  -31.2660 C   0  0  0  0  0  0  0  0  0  0  0  0
   -9.3680   20.2920  -32.3240 C   0  0  0  0  0  0  0  0  0  0  0  0
   -8.1500   20.1840  -33.0020 C   0  0  0  0  0  0  0  0  0  0  0  0
   -7.0650   20.9800  -32.6260 C   0  0  0  0  0  0  0  0  0  0  0  0
   -3.1710   22.9140  -30.4410 C   0  0  0  0  0  0  0  0  0  0  0  0
   -3.5360   25.5300  -28.9540 H   0  0  0  0  0  0  0  0  0  0  0  0
   -2.0090   25.6710  -29.8650 H   0  0  0  0  0  0  0  0  0  0  0  0
   -1.7617   25.8451  -26.5584 H   0  0  0  0  0  0  0  0  0  0  0  0
   -0.5498   24.3380  -24.9883 H   0  0  0  0  0  0  0  0  0  0  0  0
    0.0256   22.0133  -25.6773 H   0  0  0  0  0  0  0  0  0  0  0  0
   -0.6221   21.1818  -27.9357 H   0  0  0  0  0  0  0  0  0  0  0  0
   -0.2173   21.2463  -30.0443 H   0  0  0  0  0  0  0  0  0  0  0  0
   -0.8869   20.3400  -32.2610 H   0  0  0  0  0  0  0  0  0  0  0  0
   -2.9312   19.5944  -35.1383 H   0  0  0  0  0  0  0  0  0  0  0  0
   -2.1636   19.1504  -33.5655 H   0  0  0  0  0  0  0  0  0  0  0  0
   -4.6841   18.2114  -35.7041 H   0  0  0  0  0  0  0  0  0  0  0  0
   -6.6967   16.8731  -35.0867 H   0  0  0  0  0  0  0  0  0  0  0  0
   -7.4309   16.7439  -32.7048 H   0  0  0  0  0  0  0  0  0  0  0  0
   -6.1236   17.9138  -30.9282 H   0  0  0  0  0  0  0  0  0  0  0  0
   -4.0900   19.2298  -31.5345 H   0  0  0  0  0  0  0  0  0  0  0  0
   -4.8391   23.8097  -32.6520 H   0  0  0  0  0  0  0  0  0  0  0  0
   -5.1952   22.0681  -33.0252 H   0  0  0  0  0  0  0  0  0  0  0  0
   -5.6115   22.3921  -30.2364 H   0  0  0  0  0  0  0  0  0  0  0  0
   -6.4018   23.8051  -31.0617 H   0  0  0  0  0  0  0  0  0  0  0  0
   -8.5299   22.7143  -30.0638 H   0  0  0  0  0  0  0  0  0  0  0  0
  -10.4544   21.2708  -30.7244 H   0  0  0  0  0  0  0  0  0  0  0  0
  -10.2218   19.6664  -32.6234 H   0  0  0  0  0  0  0  0  0  0  0  0
   -8.0457   19.4709  -33.8331 H   0  0  0  0  0  0  0  0  0  0  0  0
   -6.1038   20.8800  -33.1515 H   0  0  0  0  0  0  0  0  0  0  0  0
   -3.7957   23.6677  -29.9393 H   0  0  0  0  0  0  0  0  0  0  0  0
  1  2  1  0
  2  3  2  0
  3  4  1  0
  4  5  2  0
  5  6  1  0
  6  7  2  0
  7  8  1  0
  8  9  2  0
  9 10  1  0
 10 11  2  0
 11 12  1  0
 12 13  1  0
 13 14  1  0
 14 15  2  0
 15 16  1  0
 16 17  2  0
 17 18  1  0
 18 19  2  0
 11 20  1  0
 20 21  1  0
 21 22  1  0
 22 23  1  0
 23 24  2  0
 24 25  1  0
 25 26  2  0
 26 27  1  0
 27 28  2  0
 20 29  2  0
  7  2  1  0
 29  8  1  0
 19 14  1  0
 28 23  1  0
  1 30  1  0
  1 31  1  0
  3 32  1  0
  4 33  1  0
  5 34  1  0
  6 35  1  0
  9 36  1  0
 10 37  1  0
 13 38  1  0
 13 39  1  0
 15 40  1  0
 16 41  1  0
 17 42  1  0
 18 43  1  0
 19 44  1  0
 21 45  1  0
 21 46  1  0
 22 47  1  0
 22 48  1  0
 24 49  1  0
 25 50  1  0
 26 51  1  0
 27 52  1  0
 28 53  1  0
 29 54  1  0
M  END
>  <UniqueID>  (48) 
45

>  <SMILES>  (48) 
Nc1ccccc1-c1ccc(OCc2ccccc2)c(CCc2ccccc2)c1

>  <Energy>  (48) 
59.908611888190954

>  <Genealogy>  (48) 
Nc1ccccc1-c1ccc(OCc2ccccc2)c(CCc2ccccc2)c1 (3D coordinates assigned)
Nc1ccccc1-c1ccc(OCc2ccccc2)c(CCc2ccccc2)c1 (optimized conformer: 59.908611888190954 kcal/mol)

>  <smiles>  (48) 
Nc1ccccc1-c1ccc(OCc2ccccc2)c(CCc2ccccc2)c1

>  <score_type>  (48) 
oracle

>  <origin>  (48) 
adgpu

>  <m_score__min__energy>  (48) 
-9.8900000000000006

>  <m_primary>  (48) 
energy

$$$$
48:0
     RDKit          3D

 33 35  0  0  0  0  0  0  0  0999 V2000
   -3.9685   16.2164  -35.6554 H   0  0  0  0  0  0  0  0  0  0  0  0
   -3.8110   17.0990  -35.0180 C   0  0  0  0  0  0  0  0  0  0  0  0
   -2.5480   17.5170  -34.7380 N   0  0  0  0  0  0  0  0  0  0  0  0
   -2.3150   18.6020  -33.9540 C   0  0  0  0  0  0  0  0  0  0  0  0
   -1.2817   18.9156  -33.7442 H   0  0  0  0  0  0  0  0  0  0  0  0
   -3.3840   19.3200  -33.4140 C   0  0  0  0  0  0  0  0  0  0  0  0
   -3.1941   20.1992  -32.7808 H   0  0  0  0  0  0  0  0  0  0  0  0
   -4.7040   18.9160  -33.6820 C   0  0  0  0  0  0  0  0  0  0  0  0
   -5.8550   19.6620  -33.1180 C   0  0  0  0  0  0  0  0  0  0  0  0
   -5.7050   20.9520  -32.7100 N   0  0  0  0  0  0  0  0  0  0  0  0
   -6.7400   21.6590  -32.1820 C   0  0  0  0  0  0  0  0  0  0  0  0
   -6.5880   23.0330  -31.7920 N   0  0  0  0  0  0  0  0  0  0  0  0
   -5.5690   23.5920  -31.2050 C   0  0  0  0  0  0  0  0  0  0  0  0
   -5.4660   25.2160  -30.8500 S   0  0  0  0  0  0  0  0  0  0  0  0
   -3.9800   25.2250  -30.1120 N   0  0  0  0  0  0  0  0  0  0  0  0
   -3.4850   26.0570  -29.7220 H   0  0  0  0  0  0  0  0  0  0  0  0
   -3.5380   23.9410  -30.1100 C   0  0  0  0  0  0  0  0  0  0  0  0
   -2.2030   23.5640  -29.5510 C   0  0  0  0  0  0  0  0  0  0  0  0
   -2.2487   23.5769  -28.4520 H   0  0  0  0  0  0  0  0  0  0  0  0
   -1.9333   22.5546  -29.8949 H   0  0  0  0  0  0  0  0  0  0  0  0
   -1.4451   24.2832  -29.8949 H   0  0  0  0  0  0  0  0  0  0  0  0
   -4.3990   23.0010  -30.7200 C   0  0  0  0  0  0  0  0  0  0  0  0
   -4.1742   21.9275  -30.8035 H   0  0  0  0  0  0  0  0  0  0  0  0
   -7.9960   21.0590  -32.0820 C   0  0  0  0  0  0  0  0  0  0  0  0
   -8.8546   21.6200  -31.6844 H   0  0  0  0  0  0  0  0  0  0  0  0
   -8.1430   19.7330  -32.4960 C   0  0  0  0  0  0  0  0  0  0  0  0
   -9.4720   19.0540  -32.4080 C   0  0  0  0  0  0  0  0  0  0  0  0
   -9.7436   18.9152  -31.3511 H   0  0  0  0  0  0  0  0  0  0  0  0
  -10.2338   19.6734  -32.9041 H   0  0  0  0  0  0  0  0  0  0  0  0
   -9.4165   18.0738  -32.9041 H   0  0  0  0  0  0  0  0  0  0  0  0
   -7.0740   19.0660  -33.0060 N   0  0  0  0  0  0  0  0  0  0  0  0
   -4.9090   17.7880  -34.4980 C   0  0  0  0  0  0  0  0  0  0  0  0
   -5.9307   17.4500  -34.7256 H   0  0  0  0  0  0  0  0  0  0  0  0
  1  2  1  0
  2  3  2  0
  3  4  1  0
  4  5  1  0
  4  6  2  0
  6  7  1  0
  6  8  1  0
  8  9  1  0
  9 10  2  0
 10 11  1  0
 11 12  1  0
 12 13  2  0
 13 14  1  0
 14 15  1  0
 15 16  1  0
 15 17  1  0
 17 18  1  0
 18 19  1  0
 18 20  1  0
 18 21  1  0
 17 22  2  0
 22 23  1  0
 11 24  2  0
 24 25  1  0
 24 26  1  0
 26 27  1  0
 27 28  1  0
 27 29  1  0
 27 30  1  0
 26 31  2  0
  8 32  2  0
 32 33  1  0
 32  2  1  0
 31  9  1  0
 22 13  1  0
M  END
>  <UniqueID>  (49) 
46

>  <SMILES>  (49) 
Cc1cc(/N=c2\cc(C)[nH]s2)nc(-c2ccncc2)n1

>  <Energy>  (49) 
74.2337822162206

>  <Genealogy>  (49) 
Cc1cc(/N=c2\cc(C)[nH]s2)nc(-c2ccncc2)n1 (cis-trans isomerization)
Cc1cc(/N=c2\cc(C)[nH]s2)nc(-c2ccncc2)n1 (3D coordinates assigned)
Cc1cc(/N=c2\cc(C)[nH]s2)nc(-c2ccncc2)n1 (optimized conformer: 74.2337822162206 kcal/mol)

>  <smiles>  (49) 
Cc1cc(N=c2cc(C)[nH]s2)nc(-c2ccncc2)n1

>  <score_type>  (49) 
oracle

>  <origin>  (49) 
adgpu

>  <m_score__min__energy>  (49) 
-7.96

>  <m_primary>  (49) 
energy

$$$$
49:0
     RDKit          3D

 52 55  0  0  0  0  0  0  0  0999 V2000
   -1.2880   28.5490  -33.7930 N   0  0  0  0  0  0  0  0  0  0  0  0
   -0.1610   28.7720  -35.0840 S   0  0  0  0  0  0  0  0  0  0  0  0
    0.9770   29.6340  -34.6120 O   0  0  0  0  0  0  0  0  0  0  0  0
   -0.8420   29.4610  -36.2350 O   0  0  0  0  0  0  0  0  0  0  0  0
    0.4450   27.2050  -35.6120 C   0  0  0  0  0  0  0  0  0  0  0  0
    1.8040   26.8850  -35.4790 C   0  0  0  0  0  0  0  0  0  0  0  0
    2.2750   25.6320  -35.8840 C   0  0  0  0  0  0  0  0  0  0  0  0
    1.3830   24.6750  -36.4050 C   0  0  0  0  0  0  0  0  0  0  0  0
    1.8270   23.3790  -36.8330 N   0  0  0  0  0  0  0  0  0  0  0  0
    2.1840   22.2700  -35.9960 C   0  0  0  0  0  0  0  0  0  0  0  0
    3.3910   21.9140  -35.9540 O   0  0  0  0  0  0  0  0  0  0  0  0
    1.1840   21.5180  -35.2030 C   0  0  0  0  0  0  0  0  0  0  0  0
    1.5180   20.2620  -34.6700 C   0  0  0  0  0  0  0  0  0  0  0  0
    0.6080   19.5660  -33.8700 C   0  0  0  0  0  0  0  0  0  0  0  0
   -0.6540   20.1090  -33.6020 C   0  0  0  0  0  0  0  0  0  0  0  0
   -1.7570   19.2430  -32.5360 S   0  0  0  0  0  0  0  0  0  0  0  0
   -2.2060   17.9880  -33.2300 O   0  0  0  0  0  0  0  0  0  0  0  0
   -1.0720   18.8660  -31.2520 O   0  0  0  0  0  0  0  0  0  0  0  0
   -3.1440   20.2390  -32.2290 N   0  0  0  0  0  0  0  0  0  0  0  0
   -3.1000   21.5250  -31.5980 C   0  0  0  0  0  0  0  0  0  0  0  0
   -4.1610   22.4130  -31.8050 C   0  0  0  0  0  0  0  0  0  0  0  0
   -4.1630   23.6680  -31.1900 C   0  0  0  0  0  0  0  0  0  0  0  0
   -3.1160   24.0370  -30.3390 C   0  0  0  0  0  0  0  0  0  0  0  0
   -3.1310   25.2890  -29.7340 O   0  0  0  0  0  0  0  0  0  0  0  0
   -2.0640   23.1410  -30.0950 C   0  0  0  0  0  0  0  0  0  0  0  0
   -0.7020   23.5940  -29.0100 S   0  0  0  0  0  0  0  0  0  0  0  0
   -0.5420   21.9550  -28.3200 C   0  0  0  0  0  0  0  0  0  0  0  0
    0.6100   21.2370  -28.3740 N   0  0  0  0  0  0  0  0  0  0  0  0
    0.4530   19.9970  -27.8320 C   0  0  0  0  0  0  0  0  0  0  0  0
   -0.8170   19.7490  -27.3360 C   0  0  0  0  0  0  0  0  0  0  0  0
   -1.2860   18.4870  -26.8690 N   0  0  0  0  0  0  0  0  0  0  0  0
   -0.5100   17.5080  -26.8760 O   0  0  0  0  0  0  0  0  0  0  0  0
   -2.3550   18.4710  -26.0030 O   0  0  0  0  0  0  0  0  0  0  0  0
   -1.7970   21.0870  -27.6030 S   0  0  0  0  0  0  0  0  0  0  0  0
   -2.0540   21.8900  -30.7330 C   0  0  0  0  0  0  0  0  0  0  0  0
   -1.0100   21.3460  -34.1590 C   0  0  0  0  0  0  0  0  0  0  0  0
   -0.1000   22.0410  -34.9640 C   0  0  0  0  0  0  0  0  0  0  0  0
    0.0320   25.0080  -36.5570 C   0  0  0  0  0  0  0  0  0  0  0  0
   -0.4380   26.2630  -36.1570 C   0  0  0  0  0  0  0  0  0  0  0  0
   -1.5490   29.5020  -33.4510 H   0  0  0  0  0  0  0  0  0  0  0  0
    2.5017   27.6220  -35.0547 H   0  0  0  0  0  0  0  0  0  0  0  0
    3.3451   25.3934  -35.7953 H   0  0  0  0  0  0  0  0  0  0  0  0
    2.5036   19.8229  -34.8841 H   0  0  0  0  0  0  0  0  0  0  0  0
    0.8844   18.5879  -33.4493 H   0  0  0  0  0  0  0  0  0  0  0  0
   -4.9987   22.1217  -32.4557 H   0  0  0  0  0  0  0  0  0  0  0  0
   -4.9909   24.3681  -31.3758 H   0  0  0  0  0  0  0  0  0  0  0  0
    1.2649   19.2560  -27.7915 H   0  0  0  0  0  0  0  0  0  0  0  0
   -1.2229   21.1918  -30.5548 H   0  0  0  0  0  0  0  0  0  0  0  0
   -2.0057   21.7705  -33.9630 H   0  0  0  0  0  0  0  0  0  0  0  0
   -0.3907   23.0024  -35.4127 H   0  0  0  0  0  0  0  0  0  0  0  0
   -0.6648   24.2776  -36.9940 H   0  0  0  0  0  0  0  0  0  0  0  0
   -1.5036   26.5114  -36.2705 H   0  0  0  0  0  0  0  0  0  0  0  0
  1  2  1  0
  2  3  2  0
  2  4  2  0
  2  5  1  0
  5  6  2  0
  6  7  1  0
  7  8  2  0
  8  9  1  0
  9 10  1  0
 10 11  2  0
 10 12  1  0
 12 13  2  0
 13 14  1  0
 14 15  2  0
 15 16  1  0
 16 17  2  0
 16 18  2  0
 16 19  1  0
 19 20  1  0
 20 21  2  0
 21 22  1  0
 22 23  2  0
 23 24  1  0
 23 25  1  0
 25 26  1  0
 26 27  1  0
 27 28  2  0
 28 29  1  0
 29 30  2  0
 30 31  1  0
 31 32  2  0
 31 33  1  0
 30 34  1  0
 25 35  2  0
 15 36  1  0
 36 37  2  0
  8 38  1  0
 38 39  2  0
 39  5  1  0
 37 12  1  0
 35 20  1  0
 34 27  1  0
  1 40  1  0
  6 41  1  0
  7 42  1  0
 13 43  1  0
 14 44  1  0
 21 45  1  0
 22 46  1  0
 29 47  1  0
 35 48  1  0
 36 49  1  0
 37 50  1  0
 38 51  1  0
 39 52  1  0
M  CHG  6   1  -1   9  -1  19  -1  24  -1  31   1  33  -1
M  END
>  <UniqueID>  (50) 
47

>  <SMILES>  (50) 
[NH-]S(=O)(=O)c1ccc([N-]C(=O)c2ccc(S(=O)(=O)[N-]c3ccc([O-])c(Sc4ncc([N+](=O)[O-])s4)c3)cc2)cc1

>  <Energy>  (50) 
107.09081924602073

>  <Genealogy>  (50) 
[NH-]S(=O)(=O)c1ccc([N-]C(=O)c2ccc(S(=O)(=O)[N-]c3ccc([O-])c(Sc4ncc([N+](=O)[O-])s4)c3)cc2)cc1 (protonated)
[NH-]S(=O)(=O)c1ccc([N-]C(=O)c2ccc(S(=O)(=O)[N-]c3ccc([O-])c(Sc4ncc([N+](=O)[O-])s4)c3)cc2)cc1 (3D coordinates assigned)
[NH-]S(=O)(=O)c1ccc([N-]C(=O)c2ccc(S(=O)(=O)[N-]c3ccc([O-])c(Sc4ncc([N+](=O)[O-])s4)c3)cc2)cc1 (optimized conformer: 107.09081924602073 kcal/mol)

>  <smiles>  (50) 
NS(=O)(=O)c1ccc(NC(=O)c2ccc(S(=O)(=O)Nc3ccc(O)c(Sc4ncc([N+](=O)[O-])s4)c3)cc2)cc1

>  <score_type>  (50) 
oracle

>  <origin>  (50) 
adgpu

>  <m_score__min__energy>  (50) 
-14.51

>  <m_primary>  (50) 
energy

$$$$
