0:0
     RDKit          3D

 37 39  0  0  0  0  0  0  0  0999 V2000
   -6.8370   15.6720  -34.2140 C   0  0  0  0  0  0  0  0  0  0  0  0
   -6.2770   17.0140  -33.8180 C   0  0  0  0  0  0  0  0  0  0  0  0
   -7.0330   17.8550  -32.9870 C   0  0  0  0  0  0  0  0  0  0  0  0
   -6.5410   19.1010  -32.5980 C   0  0  0  0  0  0  0  0  0  0  0  0
   -5.2820   19.5400  -33.0350 C   0  0  0  0  0  0  0  0  0  0  0  0
   -4.7440   20.8600  -32.6280 C   0  0  0  0  0  0  0  0  0  0  0  0
   -3.8200   21.3820  -33.3100 O   0  0  0  0  0  0  0  0  0  0  0  0
   -5.2550   21.5450  -31.4710 N   0  0  0  0  0  0  0  0  0  0  0  0
   -4.7520   22.8180  -31.0290 C   0  0  0  0  0  0  0  0  0  0  0  0
   -5.5270   23.9740  -31.1890 C   0  0  0  0  0  0  0  0  0  0  0  0
   -5.0450   25.1950  -30.7090 C   0  0  0  0  0  0  0  0  0  0  0  0
   -5.7340   26.2390  -30.8480 O   0  0  0  0  0  0  0  0  0  0  0  0
   -3.8670   25.2620  -30.1010 O   0  0  0  0  0  0  0  0  0  0  0  0
   -3.0930   24.1960  -29.9170 C   0  0  0  0  0  0  0  0  0  0  0  0
   -1.8630   24.3420  -29.2670 C   0  0  0  0  0  0  0  0  0  0  0  0
   -1.0360   23.2330  -29.0740 C   0  0  0  0  0  0  0  0  0  0  0  0
   -1.4300   21.9740  -29.5320 C   0  0  0  0  0  0  0  0  0  0  0  0
   -2.6580   21.8140  -30.1830 C   0  0  0  0  0  0  0  0  0  0  0  0
   -3.5070   22.9210  -30.3740 C   0  0  0  0  0  0  0  0  0  0  0  0
   -4.5130   18.6910  -33.8500 C   0  0  0  0  0  0  0  0  0  0  0  0
   -4.9950   17.4310  -34.2430 C   0  0  0  0  0  0  0  0  0  0  0  0
   -4.1440   16.5590  -35.1300 C   0  0  0  0  0  0  0  0  0  0  0  0
   -7.0782   15.0940  -33.3097 H   0  0  0  0  0  0  0  0  0  0  0  0
   -7.7496   15.8171  -34.8107 H   0  0  0  0  0  0  0  0  0  0  0  0
   -6.0919   15.1254  -34.8107 H   0  0  0  0  0  0  0  0  0  0  0  0
   -8.0239   17.5282  -32.6387 H   0  0  0  0  0  0  0  0  0  0  0  0
   -7.1456   19.7453  -31.9427 H   0  0  0  0  0  0  0  0  0  0  0  0
   -6.0350   21.1190  -30.9240 H   0  0  0  0  0  0  0  0  0  0  0  0
   -6.5060   23.9212  -31.6879 H   0  0  0  0  0  0  0  0  0  0  0  0
   -1.5464   25.3321  -28.9071 H   0  0  0  0  0  0  0  0  0  0  0  0
   -0.0710   23.3518  -28.5595 H   0  0  0  0  0  0  0  0  0  0  0  0
   -0.7726   21.1051  -29.3804 H   0  0  0  0  0  0  0  0  0  0  0  0
   -2.9610   20.8210  -30.5465 H   0  0  0  0  0  0  0  0  0  0  0  0
   -3.5179   19.0184  -34.1855 H   0  0  0  0  0  0  0  0  0  0  0  0
   -3.5107   15.9100  -34.5073 H   0  0  0  0  0  0  0  0  0  0  0  0
   -4.7929   15.9380  -35.7650 H   0  0  0  0  0  0  0  0  0  0  0  0
   -3.5073   17.1926  -35.7650 H   0  0  0  0  0  0  0  0  0  0  0  0
  1  2  1  0
  2  3  2  0
  3  4  1  0
  4  5  2  0
  5  6  1  0
  6  7  2  0
  6  8  1  0
  8  9  1  0
  9 10  2  0
 10 11  1  0
 11 12  2  0
 11 13  1  0
 13 14  1  0
 14 15  2  0
 15 16  1  0
 16 17  2  0
 17 18  1  0
 18 19  2  0
  5 20  1  0
 20 21  2  0
 21 22  1  0
 21  2  1  0
 19  9  1  0
 19 14  1  0
  1 23  1  0
  1 24  1  0
  1 25  1  0
  3 26  1  0
  4 27  1  0
  8 28  1  0
 10 29  1  0
 15 30  1  0
 16 31  1  0
 17 32  1  0
 18 33  1  0
 20 34  1  0
 22 35  1  0
 22 36  1  0
 22 37  1  0
M  END
>  <UniqueID>  (1) 
1

>  <SMILES>  (1) 
Cc1ccc(C(=O)Nc2cc(=O)oc3ccccc23)cc1C

>  <Energy>  (1) 
52.465442309051774

>  <Genealogy>  (1) 
Cc1ccc(C(=O)Nc2cc(=O)oc3ccccc23)cc1C (3D coordinates assigned)
Cc1ccc(C(=O)Nc2cc(=O)oc3ccccc23)cc1C (optimized conformer: 52.465442309051774 kcal/mol)

>  <smiles>  (1) 
Cc1ccc(C(=O)Nc2cc(=O)oc3ccccc23)cc1C

>  <score_type>  (1) 
oracle

>  <origin>  (1) 
adgpu

>  <m_score__min__energy>  (1) 
-7.79

>  <m_primary>  (1) 
energy

$$$$
1:0
     RDKit          3D

 42 44  0  0  0  0  0  0  0  0999 V2000
   -3.9239   16.5194  -35.7396 H   0  0  0  0  0  0  0  0  0  0  0  0
   -4.6280   16.8980  -34.9840 C   0  0  0  0  0  0  0  0  0  0  0  0
   -5.1590   18.1420  -35.1050 N   0  0  0  0  0  0  0  0  0  0  0  0
   -6.0300   18.6320  -34.1840 C   0  0  0  0  0  0  0  0  0  0  0  0
   -6.4471   19.6434  -34.2988 H   0  0  0  0  0  0  0  0  0  0  0  0
   -6.3950   17.8340  -33.0800 C   0  0  0  0  0  0  0  0  0  0  0  0
   -7.2270   18.2340  -32.1620 N   0  0  0  0  0  0  0  0  0  0  0  0
   -8.0390   19.7700  -32.1010 S   0  0  0  0  0  0  0  0  0  0  0  0
   -9.1230   19.7140  -31.0610 O   0  0  0  0  0  0  0  0  0  0  0  0
   -8.6610   20.0480  -33.4400 O   0  0  0  0  0  0  0  0  0  0  0  0
   -6.8880   21.0520  -31.7340 C   0  0  0  0  0  0  0  0  0  0  0  0
   -5.5140   20.7770  -31.7290 C   0  0  0  0  0  0  0  0  0  0  0  0
   -5.1562   19.7631  -31.9615 H   0  0  0  0  0  0  0  0  0  0  0  0
   -4.5970   21.7890  -31.4290 C   0  0  0  0  0  0  0  0  0  0  0  0
   -3.5191   21.5697  -31.4383 H   0  0  0  0  0  0  0  0  0  0  0  0
   -5.0410   23.0790  -31.1170 C   0  0  0  0  0  0  0  0  0  0  0  0
   -4.0740   24.1010  -30.8420 N   0  0  0  0  0  0  0  0  0  0  0  0
   -3.6560   24.5290  -29.5410 C   0  0  0  0  0  0  0  0  0  0  0  0
   -4.5070   24.5610  -28.6140 O   0  0  0  0  0  0  0  0  0  0  0  0
   -2.3000   24.9470  -29.3030 N   0  0  0  0  0  0  0  0  0  0  0  0
   -1.6140   24.8860  -30.0890 H   0  0  0  0  0  0  0  0  0  0  0  0
   -1.7960   25.3610  -28.0220 C   0  0  0  0  0  0  0  0  0  0  0  0
   -2.2900   24.8130  -26.8250 C   0  0  0  0  0  0  0  0  0  0  0  0
   -3.0652   24.0333  -26.8591 H   0  0  0  0  0  0  0  0  0  0  0  0
   -1.8010   25.2540  -25.5920 C   0  0  0  0  0  0  0  0  0  0  0  0
   -2.1927   24.8188  -24.6607 H   0  0  0  0  0  0  0  0  0  0  0  0
   -0.8130   26.2490  -25.5360 C   0  0  0  0  0  0  0  0  0  0  0  0
   -0.3180   26.7490  -24.2120 C   0  0  0  0  0  0  0  0  0  0  0  0
   -0.8413   26.2205  -23.4015 H   0  0  0  0  0  0  0  0  0  0  0  0
    0.7635   26.5648  -24.1315 H   0  0  0  0  0  0  0  0  0  0  0  0
   -0.5131   27.8286  -24.1315 H   0  0  0  0  0  0  0  0  0  0  0  0
   -0.3510   26.8260  -26.7270 C   0  0  0  0  0  0  0  0  0  0  0  0
    0.4000   27.6289  -26.6909 H   0  0  0  0  0  0  0  0  0  0  0  0
   -0.8400   26.3860  -27.9600 C   0  0  0  0  0  0  0  0  0  0  0  0
   -0.4726   26.8467  -28.8888 H   0  0  0  0  0  0  0  0  0  0  0  0
   -6.4180   23.3610  -31.1560 C   0  0  0  0  0  0  0  0  0  0  0  0
   -6.7745   24.3808  -30.9489 H   0  0  0  0  0  0  0  0  0  0  0  0
   -7.3360   22.3500  -31.4570 C   0  0  0  0  0  0  0  0  0  0  0  0
   -8.4127   22.5746  -31.4763 H   0  0  0  0  0  0  0  0  0  0  0  0
   -5.8540   16.5900  -32.9710 N   0  0  0  0  0  0  0  0  0  0  0  0
   -4.9830   16.1050  -33.8940 C   0  0  0  0  0  0  0  0  0  0  0  0
   -4.5615   15.0951  -33.7821 H   0  0  0  0  0  0  0  0  0  0  0  0
  1  2  1  0
  2  3  1  0
  3  4  2  0
  4  5  1  0
  4  6  1  0
  6  7  2  0
  7  8  1  0
  8  9  2  0
  8 10  2  0
  8 11  1  0
 11 12  2  0
 12 13  1  0
 12 14  1  0
 14 15  1  0
 14 16  2  0
 16 17  1  0
 17 18  1  0
 18 19  2  0
 18 20  1  0
 20 21  1  0
 20 22  1  0
 22 23  2  0
 23 24  1  0
 23 25  1  0
 25 26  1  0
 25 27  2  0
 27 28  1  0
 28 29  1  0
 28 30  1  0
 28 31  1  0
 27 32  1  0
 32 33  1  0
 32 34  2  0
 34 35  1  0
 16 36  1  0
 36 37  1  0
 36 38  2  0
 38 39  1  0
  6 40  1  0
 40 41  1  0
 41 42  1  0
 41  2  2  0
 38 11  1  0
 34 22  1  0
M  CHG  2  17  -1  40  -1
M  END
>  <UniqueID>  (2) 
2

>  <SMILES>  (2) 
Cc1ccc(NC(=O)[N-]c2ccc(S(=O)(=O)/N=c3\cncc[n-]3)cc2)cc1

>  <Energy>  (2) 
59.424315911957365

>  <Genealogy>  (2) 
Cc1ccc(NC(=O)[N-]c2ccc(S(=O)(=O)N=c3cncc[n-]3)cc2)cc1 (protonated)
Cc1ccc(NC(=O)[N-]c2ccc(S(=O)(=O)/N=c3\cncc[n-]3)cc2)cc1 (cis-trans isomerization)
Cc1ccc(NC(=O)[N-]c2ccc(S(=O)(=O)/N=c3\cncc[n-]3)cc2)cc1 (3D coordinates assigned)
Cc1ccc(NC(=O)[N-]c2ccc(S(=O)(=O)/N=c3\cncc[n-]3)cc2)cc1 (optimized conformer: 59.424315911957365 kcal/mol)

>  <smiles>  (2) 
Cc1ccc(NC(=O)Nc2ccc(S(=O)(=O)N=c3cncc[nH]3)cc2)cc1

>  <score_type>  (2) 
oracle

>  <origin>  (2) 
adgpu

>  <m_score__min__energy>  (2) 
-10.65

>  <m_primary>  (2) 
energy

$$$$
2:0
     RDKit          3D

 30 31  0  0  0  0  0  0  0  0999 V2000
   -5.5520   16.8110  -34.2250 C   0  0  0  0  0  0  0  0  0  0  0  0
   -6.8150   16.9170  -33.5750 O   0  0  0  0  0  0  0  0  0  0  0  0
   -7.3120   18.0950  -32.9980 C   0  0  0  0  0  0  0  0  0  0  0  0
   -8.2870   18.0860  -31.9840 C   0  0  0  0  0  0  0  0  0  0  0  0
   -8.7520   19.2880  -31.4420 C   0  0  0  0  0  0  0  0  0  0  0  0
   -8.2530   20.5110  -31.9080 C   0  0  0  0  0  0  0  0  0  0  0  0
   -8.8520   22.0220  -31.2310 S   0  0  0  0  0  0  0  0  0  0  0  0
   -9.0390   23.0140  -32.3450 O   0  0  0  0  0  0  0  0  0  0  0  0
  -10.1700   21.8080  -30.5400 O   0  0  0  0  0  0  0  0  0  0  0  0
   -7.7120   22.6600  -30.0900 N   0  0  0  0  0  0  0  0  0  0  0  0
   -6.3260   22.9100  -30.3590 C   0  0  0  0  0  0  0  0  0  0  0  0
   -5.5050   21.8290  -30.7050 C   0  0  0  0  0  0  0  0  0  0  0  0
   -4.1460   22.0260  -30.9670 C   0  0  0  0  0  0  0  0  0  0  0  0
   -3.5970   23.3080  -30.8860 C   0  0  0  0  0  0  0  0  0  0  0  0
   -4.4070   24.3950  -30.5450 C   0  0  0  0  0  0  0  0  0  0  0  0
   -3.8610   25.6700  -30.4680 O   0  0  0  0  0  0  0  0  0  0  0  0
   -5.7680   24.2000  -30.2830 C   0  0  0  0  0  0  0  0  0  0  0  0
   -7.2790   20.5230  -32.9150 C   0  0  0  0  0  0  0  0  0  0  0  0
   -6.8140   19.3210  -33.4550 C   0  0  0  0  0  0  0  0  0  0  0  0
   -4.7553   16.7441  -33.4695 H   0  0  0  0  0  0  0  0  0  0  0  0
   -5.5378   15.9085  -34.8537 H   0  0  0  0  0  0  0  0  0  0  0  0
   -5.3876   17.6985  -34.8537 H   0  0  0  0  0  0  0  0  0  0  0  0
   -8.6853   17.1290  -31.6159 H   0  0  0  0  0  0  0  0  0  0  0  0
   -9.5122   19.2732  -30.6471 H   0  0  0  0  0  0  0  0  0  0  0  0
   -5.9328   20.8177  -30.7710 H   0  0  0  0  0  0  0  0  0  0  0  0
   -3.5086   21.1711  -31.2371 H   0  0  0  0  0  0  0  0  0  0  0  0
   -2.5272   23.4621  -31.0906 H   0  0  0  0  0  0  0  0  0  0  0  0
   -6.4035   25.0575  -30.0169 H   0  0  0  0  0  0  0  0  0  0  0  0
   -6.8796   21.4803  -33.2812 H   0  0  0  0  0  0  0  0  0  0  0  0
   -6.0499   19.3382  -34.2461 H   0  0  0  0  0  0  0  0  0  0  0  0
  1  2  1  0
  2  3  1  0
  3  4  2  0
  4  5  1  0
  5  6  2  0
  6  7  1  0
  7  8  2  0
  7  9  2  0
  7 10  1  0
 10 11  1  0
 11 12  2  0
 12 13  1  0
 13 14  2  0
 14 15  1  0
 15 16  1  0
 15 17  2  0
  6 18  1  0
 18 19  2  0
 19  3  1  0
 17 11  1  0
  1 20  1  0
  1 21  1  0
  1 22  1  0
  4 23  1  0
  5 24  1  0
 12 25  1  0
 13 26  1  0
 14 27  1  0
 17 28  1  0
 18 29  1  0
 19 30  1  0
M  CHG  2  10  -1  16  -1
M  END
>  <UniqueID>  (3) 
3

>  <SMILES>  (3) 
COc1ccc(S(=O)(=O)[N-]c2cccc([O-])c2)cc1

>  <Energy>  (3) 
33.025241316536984

>  <Genealogy>  (3) 
COc1ccc(S(=O)(=O)[N-]c2cccc([O-])c2)cc1 (protonated)
COc1ccc(S(=O)(=O)[N-]c2cccc([O-])c2)cc1 (3D coordinates assigned)
COc1ccc(S(=O)(=O)[N-]c2cccc([O-])c2)cc1 (optimized conformer: 33.025241316536984 kcal/mol)

>  <smiles>  (3) 
COc1ccc(S(=O)(=O)Nc2cccc(O)c2)cc1

>  <score_type>  (3) 
oracle

>  <origin>  (3) 
adgpu

>  <m_score__min__energy>  (3) 
-10.039999999999999

>  <m_primary>  (3) 
energy

$$$$
3:0
     RDKit          3D

 49 51  0  0  0  0  0  0  0  0999 V2000
   -7.4330   20.3740  -32.7460 C   0  0  0  0  0  0  0  0  0  0  0  0
   -6.8420   21.6170  -32.1520 C   0  0  0  0  0  0  0  0  0  0  0  0
   -5.4560   21.8360  -32.2030 C   0  0  0  0  0  0  0  0  0  0  0  0
   -4.8990   22.9690  -31.6050 C   0  0  0  0  0  0  0  0  0  0  0  0
   -5.7160   23.8890  -30.9280 C   0  0  0  0  0  0  0  0  0  0  0  0
   -5.1070   25.0800  -30.2330 C   0  0  0  0  0  0  0  0  0  0  0  0
   -3.6650   25.1520  -30.4690 N   0  0  0  0  0  0  0  0  0  0  0  0
   -2.6410   24.7580  -29.5440 C   0  0  0  0  0  0  0  0  0  0  0  0
   -2.0110   25.6500  -28.9160 O   0  0  0  0  0  0  0  0  0  0  0  0
   -2.2630   23.3470  -29.3540 C   0  0  0  0  0  0  0  0  0  0  0  0
   -2.9750   22.5510  -28.4450 C   0  0  0  0  0  0  0  0  0  0  0  0
   -2.5790   21.2330  -28.2030 C   0  0  0  0  0  0  0  0  0  0  0  0
   -1.4650   20.6940  -28.8630 C   0  0  0  0  0  0  0  0  0  0  0  0
   -1.0700   19.3390  -28.5880 N   0  0  0  0  0  0  0  0  0  0  0  0
   -1.0560   18.7620  -27.2750 C   0  0  0  0  0  0  0  0  0  0  0  0
   -1.6010   19.3610  -26.3090 O   0  0  0  0  0  0  0  0  0  0  0  0
   -0.4990   17.4540  -27.0950 N   0  0  0  0  0  0  0  0  0  0  0  0
    0.8500   17.0570  -27.3770 C   0  0  0  0  0  0  0  0  0  0  0  0
    1.2010   15.7110  -27.2190 C   0  0  0  0  0  0  0  0  0  0  0  0
    2.4970   15.2770  -27.5080 C   0  0  0  0  0  0  0  0  0  0  0  0
    3.4520   16.1850  -27.9710 C   0  0  0  0  0  0  0  0  0  0  0  0
    3.1160   17.5370  -28.1440 C   0  0  0  0  0  0  0  0  0  0  0  0
    4.1240   18.4990  -28.6980 C   0  0  0  0  0  0  0  0  0  0  0  0
    1.8080   17.9640  -27.8670 C   0  0  0  0  0  0  0  0  0  0  0  0
   -0.7880   21.4750  -29.8150 C   0  0  0  0  0  0  0  0  0  0  0  0
   -1.1850   22.7920  -30.0580 C   0  0  0  0  0  0  0  0  0  0  0  0
   -7.1040   23.6710  -30.8840 C   0  0  0  0  0  0  0  0  0  0  0  0
   -7.6600   22.5370  -31.4790 C   0  0  0  0  0  0  0  0  0  0  0  0
   -7.7540   19.6988  -31.9391 H   0  0  0  0  0  0  0  0  0  0  0  0
   -8.3005   20.6412  -33.3674 H   0  0  0  0  0  0  0  0  0  0  0  0
   -6.6782   19.8699  -33.3674 H   0  0  0  0  0  0  0  0  0  0  0  0
   -4.8058   21.1121  -32.7162 H   0  0  0  0  0  0  0  0  0  0  0  0
   -3.8143   23.1415  -31.6647 H   0  0  0  0  0  0  0  0  0  0  0  0
   -5.5789   25.9976  -30.6143 H   0  0  0  0  0  0  0  0  0  0  0  0
   -5.2774   24.9759  -29.1513 H   0  0  0  0  0  0  0  0  0  0  0  0
   -3.8485   22.9658  -27.9206 H   0  0  0  0  0  0  0  0  0  0  0  0
   -3.1444   20.6144  -27.4905 H   0  0  0  0  0  0  0  0  0  0  0  0
   -0.8750   18.7060  -29.3950 H   0  0  0  0  0  0  0  0  0  0  0  0
    0.4503   14.9894  -26.8645 H   0  0  0  0  0  0  0  0  0  0  0  0
    2.7656   14.2192  -27.3708 H   0  0  0  0  0  0  0  0  0  0  0  0
    4.4707   15.8396  -28.2008 H   0  0  0  0  0  0  0  0  0  0  0  0
    4.6477   18.9988  -27.8698 H   0  0  0  0  0  0  0  0  0  0  0  0
    4.8520   17.9522  -29.3153 H   0  0  0  0  0  0  0  0  0  0  0  0
    3.6118   19.2517  -29.3153 H   0  0  0  0  0  0  0  0  0  0  0  0
    1.5297   19.0150  -28.0341 H   0  0  0  0  0  0  0  0  0  0  0  0
    0.0588   21.0471  -30.3716 H   0  0  0  0  0  0  0  0  0  0  0  0
   -0.6495   23.3964  -30.8050 H   0  0  0  0  0  0  0  0  0  0  0  0
   -7.7559   24.3982  -30.3778 H   0  0  0  0  0  0  0  0  0  0  0  0
   -8.7447   22.3640  -31.4199 H   0  0  0  0  0  0  0  0  0  0  0  0
  1  2  1  0
  2  3  2  0
  3  4  1  0
  4  5  2  0
  5  6  1  0
  6  7  1  0
  7  8  1  0
  8  9  2  0
  8 10  1  0
 10 11  2  0
 11 12  1  0
 12 13  2  0
 13 14  1  0
 14 15  1  0
 15 16  2  0
 15 17  1  0
 17 18  1  0
 18 19  2  0
 19 20  1  0
 20 21  2  0
 21 22  1  0
 22 23  1  0
 22 24  2  0
 13 25  1  0
 25 26  2  0
  5 27  1  0
 27 28  2  0
 28  2  1  0
 26 10  1  0
 24 18  1  0
  1 29  1  0
  1 30  1  0
  1 31  1  0
  3 32  1  0
  4 33  1  0
  6 34  1  0
  6 35  1  0
 11 36  1  0
 12 37  1  0
 14 38  1  0
 19 39  1  0
 20 40  1  0
 21 41  1  0
 23 42  1  0
 23 43  1  0
 23 44  1  0
 24 45  1  0
 25 46  1  0
 26 47  1  0
 27 48  1  0
 28 49  1  0
M  CHG  2   7  -1  17  -1
M  END
>  <UniqueID>  (4) 
4

>  <SMILES>  (4) 
Cc1ccc(C[N-]C(=O)c2ccc(NC(=O)[N-]c3cccc(C)c3)cc2)cc1

>  <Energy>  (4) 
57.90681208262371

>  <Genealogy>  (4) 
Cc1ccc(C[N-]C(=O)c2ccc(NC(=O)[N-]c3cccc(C)c3)cc2)cc1 (protonated)
Cc1ccc(C[N-]C(=O)c2ccc(NC(=O)[N-]c3cccc(C)c3)cc2)cc1 (3D coordinates assigned)
Cc1ccc(C[N-]C(=O)c2ccc(NC(=O)[N-]c3cccc(C)c3)cc2)cc1 (optimized conformer: 57.90681208262371 kcal/mol)

>  <smiles>  (4) 
Cc1ccc(CNC(=O)c2ccc(NC(=O)Nc3cccc(C)c3)cc2)cc1

>  <score_type>  (4) 
oracle

>  <origin>  (4) 
adgpu

>  <m_score__min__energy>  (4) 
-11.56

>  <m_primary>  (4) 
energy

$$$$
4:0
     RDKit          3D

 61 65  0  0  0  0  0  0  0  0999 V2000
   -3.7840   12.2310  -33.9990 C   0  0  0  0  0  0  0  0  0  0  0  0
   -4.2510   13.2120  -34.9200 O   0  0  0  0  0  0  0  0  0  0  0  0
   -5.0130   14.3390  -34.5690 C   0  0  0  0  0  0  0  0  0  0  0  0
   -6.4180   14.2910  -34.5060 C   0  0  0  0  0  0  0  0  0  0  0  0
   -7.1520   15.4160  -34.1270 C   0  0  0  0  0  0  0  0  0  0  0  0
   -6.4990   16.6180  -33.8150 C   0  0  0  0  0  0  0  0  0  0  0  0
   -7.2310   17.7840  -33.3970 N   0  0  0  0  0  0  0  0  0  0  0  0
   -6.7980   18.6840  -32.3680 C   0  0  0  0  0  0  0  0  0  0  0  0
   -5.8010   18.4020  -31.6490 O   0  0  0  0  0  0  0  0  0  0  0  0
   -7.5070   19.9140  -32.1770 N   0  0  0  0  0  0  0  0  0  0  0  0
   -6.9930   21.1150  -31.5820 C   0  0  0  0  0  0  0  0  0  0  0  0
   -7.8210   22.2080  -31.2730 C   0  0  0  0  0  0  0  0  0  0  0  0
   -7.2750   23.3710  -30.7200 C   0  0  0  0  0  0  0  0  0  0  0  0
   -5.8980   23.4600  -30.4800 C   0  0  0  0  0  0  0  0  0  0  0  0
   -5.1980   24.9290  -29.8090 S   0  0  0  0  0  0  0  0  0  0  0  0
   -3.9370   25.4950  -30.8460 N   0  0  0  0  0  0  0  0  0  0  0  0
   -4.6390   24.6440  -28.4450 O   0  0  0  0  0  0  0  0  0  0  0  0
   -6.2530   25.9920  -29.6860 O   0  0  0  0  0  0  0  0  0  0  0  0
   -5.0680   22.3810  -30.8120 C   0  0  0  0  0  0  0  0  0  0  0  0
   -5.6130   21.2190  -31.3650 C   0  0  0  0  0  0  0  0  0  0  0  0
   -5.1000   16.6650  -33.8560 C   0  0  0  0  0  0  0  0  0  0  0  0
   -4.3500   15.5430  -34.2480 C   0  0  0  0  0  0  0  0  0  0  0  0
   -2.8720   15.6430  -34.3140 C   0  0  0  0  0  0  0  0  0  0  0  0
   -2.0990   15.5360  -33.1470 C   0  0  0  0  0  0  0  0  0  0  0  0
   -0.7070   15.6370  -33.2090 C   0  0  0  0  0  0  0  0  0  0  0  0
   -0.0620   15.8540  -34.4320 C   0  0  0  0  0  0  0  0  0  0  0  0
    1.3390   15.9430  -34.4370 O   0  0  0  0  0  0  0  0  0  0  0  0
    2.0910   17.1240  -34.1560 C   0  0  0  0  0  0  0  0  0  0  0  0
    1.1890   18.2250  -33.6970 C   0  0  0  0  0  0  0  0  0  0  0  0
    0.3460   18.8790  -34.5390 N   0  0  0  0  0  0  0  0  0  0  0  0
   -0.2500   19.7590  -33.7240 C   0  0  0  0  0  0  0  0  0  0  0  0
   -1.2200   20.7040  -34.0490 C   0  0  0  0  0  0  0  0  0  0  0  0
   -1.7020   21.5300  -33.0150 C   0  0  0  0  0  0  0  0  0  0  0  0
   -1.2040   21.3900  -31.6990 C   0  0  0  0  0  0  0  0  0  0  0  0
   -0.2240   20.4240  -31.4080 C   0  0  0  0  0  0  0  0  0  0  0  0
    0.2280   19.6260  -32.4560 C   0  0  0  0  0  0  0  0  0  0  0  0
    1.1520   18.6560  -32.4090 N   0  0  0  0  0  0  0  0  0  0  0  0
   -0.8360   15.9780  -35.6020 C   0  0  0  0  0  0  0  0  0  0  0  0
   -2.2280   15.8730  -35.5410 C   0  0  0  0  0  0  0  0  0  0  0  0
   -3.9520   12.5840  -32.9708 H   0  0  0  0  0  0  0  0  0  0  0  0
   -4.3306   11.2897  -34.1575 H   0  0  0  0  0  0  0  0  0  0  0  0
   -2.7087   12.0618  -34.1575 H   0  0  0  0  0  0  0  0  0  0  0  0
   -6.9429   13.3577  -34.7579 H   0  0  0  0  0  0  0  0  0  0  0  0
   -8.2492   15.3599  -34.0726 H   0  0  0  0  0  0  0  0  0  0  0  0
   -8.1860   17.9350  -33.7950 H   0  0  0  0  0  0  0  0  0  0  0  0
   -8.9022   22.1486  -31.4668 H   0  0  0  0  0  0  0  0  0  0  0  0
   -7.9299   24.2194  -30.4725 H   0  0  0  0  0  0  0  0  0  0  0  0
   -3.0320   25.2870  -30.3690 H   0  0  0  0  0  0  0  0  0  0  0  0
   -3.9842   22.4488  -30.6368 H   0  0  0  0  0  0  0  0  0  0  0  0
   -4.9536   20.3800  -31.6318 H   0  0  0  0  0  0  0  0  0  0  0  0
   -4.5805   17.5937  -33.5773 H   0  0  0  0  0  0  0  0  0  0  0  0
   -2.5924   15.3716  -32.1777 H   0  0  0  0  0  0  0  0  0  0  0  0
   -0.1124   15.5451  -32.2881 H   0  0  0  0  0  0  0  0  0  0  0  0
    2.8256   16.9057  -33.3669 H   0  0  0  0  0  0  0  0  0  0  0  0
    2.6038   17.4451  -35.0747 H   0  0  0  0  0  0  0  0  0  0  0  0
   -1.5967   20.8019  -35.0778 H   0  0  0  0  0  0  0  0  0  0  0  0
   -2.4694   22.2875  -33.2322 H   0  0  0  0  0  0  0  0  0  0  0  0
   -1.5853   22.0405  -30.8981 H   0  0  0  0  0  0  0  0  0  0  0  0
    0.1714   20.3031  -30.3887 H   0  0  0  0  0  0  0  0  0  0  0  0
   -0.3424   16.1583  -36.5684 H   0  0  0  0  0  0  0  0  0  0  0  0
   -2.8238   15.9712  -36.4604 H   0  0  0  0  0  0  0  0  0  0  0  0
  1  2  1  0
  2  3  1  0
  3  4  2  0
  4  5  1  0
  5  6  2  0
  6  7  1  0
  7  8  1  0
  8  9  2  0
  8 10  1  0
 10 11  1  0
 11 12  2  0
 12 13  1  0
 13 14  2  0
 14 15  1  0
 15 16  1  0
 15 17  2  0
 15 18  2  0
 14 19  1  0
 19 20  2  0
  6 21  1  0
 21 22  2  0
 22 23  1  0
 23 24  2  0
 24 25  1  0
 25 26  2  0
 26 27  1  0
 27 28  1  0
 28 29  1  0
 29 30  2  0
 30 31  1  0
 31 32  2  0
 32 33  1  0
 33 34  2  0
 34 35  1  0
 35 36  2  0
 36 37  1  0
 26 38  1  0
 38 39  2  0
 22  3  1  0
 39 23  1  0
 20 11  1  0
 37 29  1  0
 36 31  1  0
  1 40  1  0
  1 41  1  0
  1 42  1  0
  4 43  1  0
  5 44  1  0
  7 45  1  0
 12 46  1  0
 13 47  1  0
 16 48  1  0
 19 49  1  0
 20 50  1  0
 21 51  1  0
 24 52  1  0
 25 53  1  0
 28 54  1  0
 28 55  1  0
 32 56  1  0
 33 57  1  0
 34 58  1  0
 35 59  1  0
 38 60  1  0
 39 61  1  0
M  CHG  3  10  -1  16  -1  37  -1
M  END
>  <UniqueID>  (5) 
5

>  <SMILES>  (5) 
COc1ccc(NC(=O)[N-]c2ccc(S([NH-])(=O)=O)cc2)cc1-c1ccc(OCc2nc3ccccc3[n-]2)cc1

>  <Energy>  (5) 
113.81035911235587

>  <Genealogy>  (5) 
COc1ccc(NC(=O)[N-]c2ccc(S([NH-])(=O)=O)cc2)cc1-c1ccc(OCc2nc3ccccc3[n-]2)cc1 (protonated)
COc1ccc(NC(=O)[N-]c2ccc(S([NH-])(=O)=O)cc2)cc1-c1ccc(OCc2nc3ccccc3[n-]2)cc1 (3D coordinates assigned)
COc1ccc(NC(=O)[N-]c2ccc(S([NH-])(=O)=O)cc2)cc1-c1ccc(OCc2nc3ccccc3[n-]2)cc1 (optimized conformer: 113.81035911235587 kcal/mol)

>  <smiles>  (5) 
COc1ccc(NC(=O)Nc2ccc(S(N)(=O)=O)cc2)cc1-c1ccc(OCc2nc3ccccc3[nH]2)cc1

>  <score_type>  (5) 
oracle

>  <origin>  (5) 
adgpu

>  <m_score__min__energy>  (5) 
-11.26

>  <m_primary>  (5) 
energy

$$$$
5:0
     RDKit          3D

 50 52  0  0  0  0  0  0  0  0999 V2000
   -6.4610   25.9030  -29.2610 C   0  0  0  0  0  0  0  0  0  0  0  0
   -6.2030   25.4530  -30.5860 O   0  0  0  0  0  0  0  0  0  0  0  0
   -6.2820   24.1140  -31.0010 C   0  0  0  0  0  0  0  0  0  0  0  0
   -7.5120   23.4930  -31.2900 C   0  0  0  0  0  0  0  0  0  0  0  0
   -7.5520   22.1630  -31.7120 C   0  0  0  0  0  0  0  0  0  0  0  0
   -6.3650   21.4340  -31.8560 C   0  0  0  0  0  0  0  0  0  0  0  0
   -6.3930   19.7740  -32.4460 S   0  0  0  0  0  0  0  0  0  0  0  0
   -5.9360   18.8710  -31.3350 O   0  0  0  0  0  0  0  0  0  0  0  0
   -7.7950   19.3870  -32.8270 O   0  0  0  0  0  0  0  0  0  0  0  0
   -5.3190   19.5910  -33.8180 N   0  0  0  0  0  0  0  0  0  0  0  0
   -5.7390   18.4940  -34.7130 C   0  0  0  0  0  0  0  0  0  0  0  0
   -5.4580   17.0990  -34.1230 C   0  0  0  0  0  0  0  0  0  0  0  0
   -4.1100   17.0170  -33.3840 C   0  0  0  0  0  0  0  0  0  0  0  0
   -3.1990   18.1960  -33.7220 C   0  0  0  0  0  0  0  0  0  0  0  0
   -3.8940   19.5330  -33.4010 C   0  0  0  0  0  0  0  0  0  0  0  0
   -5.1400   22.0450  -31.5710 C   0  0  0  0  0  0  0  0  0  0  0  0
   -5.0920   23.3780  -31.1250 C   0  0  0  0  0  0  0  0  0  0  0  0
   -3.8420   24.0330  -30.8620 N   0  0  0  0  0  0  0  0  0  0  0  0
   -3.2450   24.2280  -29.5750 C   0  0  0  0  0  0  0  0  0  0  0  0
   -2.3710   25.1200  -29.3970 O   0  0  0  0  0  0  0  0  0  0  0  0
   -3.6720   23.3710  -28.4280 C   0  0  0  0  0  0  0  0  0  0  0  0
   -2.7750   22.1680  -28.3330 C   0  0  0  0  0  0  0  0  0  0  0  0
   -1.6310   22.0730  -29.1410 C   0  0  0  0  0  0  0  0  0  0  0  0
   -0.8220   20.9350  -29.0860 C   0  0  0  0  0  0  0  0  0  0  0  0
   -1.1500   19.8770  -28.2310 C   0  0  0  0  0  0  0  0  0  0  0  0
   -0.1080   18.4610  -28.1860 Cl  0  0  0  0  0  0  0  0  0  0  0  0
   -2.3020   19.9580  -27.4300 C   0  0  0  0  0  0  0  0  0  0  0  0
   -2.7570   18.6460  -26.3510 Cl  0  0  0  0  0  0  0  0  0  0  0  0
   -3.1120   21.0990  -27.4880 C   0  0  0  0  0  0  0  0  0  0  0  0
   -6.0471   25.1812  -28.5415 H   0  0  0  0  0  0  0  0  0  0  0  0
   -5.9885   26.8846  -29.1086 H   0  0  0  0  0  0  0  0  0  0  0  0
   -7.5468   25.9911  -29.1086 H   0  0  0  0  0  0  0  0  0  0  0  0
   -8.4484   24.0600  -31.1825 H   0  0  0  0  0  0  0  0  0  0  0  0
   -8.5186   21.6862  -31.9320 H   0  0  0  0  0  0  0  0  0  0  0  0
   -6.8194   18.5859  -34.8979 H   0  0  0  0  0  0  0  0  0  0  0  0
   -5.1560   18.5836  -35.6415 H   0  0  0  0  0  0  0  0  0  0  0  0
   -6.2616   16.8501  -33.4143 H   0  0  0  0  0  0  0  0  0  0  0  0
   -5.4157   16.3898  -34.9628 H   0  0  0  0  0  0  0  0  0  0  0  0
   -4.2988   17.0134  -32.3003 H   0  0  0  0  0  0  0  0  0  0  0  0
   -3.6035   16.0941  -33.7028 H   0  0  0  0  0  0  0  0  0  0  0  0
   -2.2747   18.1188  -33.1307 H   0  0  0  0  0  0  0  0  0  0  0  0
   -2.9688   18.1672  -34.7973 H   0  0  0  0  0  0  0  0  0  0  0  0
   -3.8451   19.6956  -32.3142 H   0  0  0  0  0  0  0  0  0  0  0  0
   -3.3646   20.3107  -33.9710 H   0  0  0  0  0  0  0  0  0  0  0  0
   -4.2057   21.4782  -31.6967 H   0  0  0  0  0  0  0  0  0  0  0  0
   -3.6073   23.9500  -27.4950 H   0  0  0  0  0  0  0  0  0  0  0  0
   -4.7092   23.0406  -28.5864 H   0  0  0  0  0  0  0  0  0  0  0  0
   -1.3703   22.8979  -29.8204 H   0  0  0  0  0  0  0  0  0  0  0  0
    0.0764   20.8706  -29.7174 H   0  0  0  0  0  0  0  0  0  0  0  0
   -4.0182   21.1579  -26.8673 H   0  0  0  0  0  0  0  0  0  0  0  0
  1  2  1  0
  2  3  1  0
  3  4  2  0
  4  5  1  0
  5  6  2  0
  6  7  1  0
  7  8  2  0
  7  9  2  0
  7 10  1  0
 10 11  1  0
 11 12  1  0
 12 13  1  0
 13 14  1  0
 14 15  1  0
  6 16  1  0
 16 17  2  0
 17 18  1  0
 18 19  1  0
 19 20  2  0
 19 21  1  0
 21 22  1  0
 22 23  2  0
 23 24  1  0
 24 25  2  0
 25 26  1  0
 25 27  1  0
 27 28  1  0
 27 29  2  0
 17  3  1  0
 29 22  1  0
 15 10  1  0
  1 30  1  0
  1 31  1  0
  1 32  1  0
  4 33  1  0
  5 34  1  0
 11 35  1  0
 11 36  1  0
 12 37  1  0
 12 38  1  0
 13 39  1  0
 13 40  1  0
 14 41  1  0
 14 42  1  0
 15 43  1  0
 15 44  1  0
 16 45  1  0
 21 46  1  0
 21 47  1  0
 23 48  1  0
 24 49  1  0
 29 50  1  0
M  CHG  1  18  -1
M  END
>  <UniqueID>  (6) 
6

>  <SMILES>  (6) 
COc1ccc(S(=O)(=O)N2CCCCC2)cc1[N-]C(=O)Cc1ccc(Cl)c(Cl)c1

>  <Energy>  (6) 
59.492234906201226

>  <Genealogy>  (6) 
COc1ccc(S(=O)(=O)N2CCCCC2)cc1[N-]C(=O)Cc1ccc(Cl)c(Cl)c1 (protonated)
COc1ccc(S(=O)(=O)N2CCCCC2)cc1[N-]C(=O)Cc1ccc(Cl)c(Cl)c1 (3D coordinates assigned)
COc1ccc(S(=O)(=O)N2CCCCC2)cc1[N-]C(=O)Cc1ccc(Cl)c(Cl)c1 (nonaromatic ring conformer: 59.492234906201226 kcal/mol)

>  <smiles>  (6) 
COc1ccc(S(=O)(=O)N2CCCCC2)cc1NC(=O)Cc1ccc(Cl)c(Cl)c1

>  <score_type>  (6) 
oracle

>  <origin>  (6) 
adgpu

>  <m_score__min__energy>  (6) 
-11.859999999999999

>  <m_primary>  (6) 
energy

$$$$
6:0
     RDKit          3D

 50 53  0  0  0  0  0  0  0  0999 V2000
   -6.3780   25.6500  -29.4530 C   0  0  0  0  0  0  0  0  0  0  0  0
   -5.3950   24.5000  -29.2630 C   0  0  0  0  0  0  0  0  0  0  0  0
   -4.2810   24.5730  -30.2730 C   0  0  0  0  0  0  0  0  0  0  0  0
   -4.0690   25.6760  -30.8480 O   0  0  0  0  0  0  0  0  0  0  0  0
   -3.4540   23.4300  -30.5850 N   0  0  0  0  0  0  0  0  0  0  0  0
   -2.0970   23.3160  -30.0400 C   0  0  0  0  0  0  0  0  0  0  0  0
   -1.9160   24.2860  -28.9170 C   0  0  0  0  0  0  0  0  0  0  0  0
   -1.1970   25.4320  -29.0500 N   0  0  0  0  0  0  0  0  0  0  0  0
   -1.2230   25.9340  -27.8080 C   0  0  0  0  0  0  0  0  0  0  0  0
   -0.6280   27.1080  -27.3530 C   0  0  0  0  0  0  0  0  0  0  0  0
   -0.7800   27.4380  -25.9870 C   0  0  0  0  0  0  0  0  0  0  0  0
   -0.1260   28.6690  -25.4350 C   0  0  0  0  0  0  0  0  0  0  0  0
   -1.4960   26.5660  -25.1270 C   0  0  0  0  0  0  0  0  0  0  0  0
   -2.0780   25.3860  -25.6260 C   0  0  0  0  0  0  0  0  0  0  0  0
   -1.9200   25.1090  -26.9810 C   0  0  0  0  0  0  0  0  0  0  0  0
   -2.3680   24.0430  -27.6590 N   0  0  0  0  0  0  0  0  0  0  0  0
   -3.9910   22.3040  -31.2950 C   0  0  0  0  0  0  0  0  0  0  0  0
   -5.3430   22.2820  -31.6590 C   0  0  0  0  0  0  0  0  0  0  0  0
   -5.8610   21.1940  -32.3680 C   0  0  0  0  0  0  0  0  0  0  0  0
   -5.0290   20.1320  -32.7430 C   0  0  0  0  0  0  0  0  0  0  0  0
   -5.5960   19.0250  -33.4580 N   0  0  0  0  0  0  0  0  0  0  0  0
   -6.8070   18.3330  -33.1310 C   0  0  0  0  0  0  0  0  0  0  0  0
   -7.1360   17.3350  -33.8260 O   0  0  0  0  0  0  0  0  0  0  0  0
   -7.6330   18.7330  -31.9310 C   0  0  0  0  0  0  0  0  0  0  0  0
   -8.7500   19.7180  -32.2410 C   0  0  0  0  0  0  0  0  0  0  0  0
   -9.0870   18.2770  -31.9040 C   0  0  0  0  0  0  0  0  0  0  0  0
   -3.6780   20.1440  -32.3560 C   0  0  0  0  0  0  0  0  0  0  0  0
   -3.1610   21.2310  -31.6460 C   0  0  0  0  0  0  0  0  0  0  0  0
   -6.6984   26.0248  -28.4697 H   0  0  0  0  0  0  0  0  0  0  0  0
   -5.8897   26.4610  -30.0132 H   0  0  0  0  0  0  0  0  0  0  0  0
   -7.2551   25.2939  -30.0132 H   0  0  0  0  0  0  0  0  0  0  0  0
   -4.9677   24.5550  -28.2509 H   0  0  0  0  0  0  0  0  0  0  0  0
   -5.9335   23.5509  -29.4017 H   0  0  0  0  0  0  0  0  0  0  0  0
   -1.9384   22.2932  -29.6675 H   0  0  0  0  0  0  0  0  0  0  0  0
   -1.3685   23.5404  -30.8330 H   0  0  0  0  0  0  0  0  0  0  0  0
   -0.0584   27.7572  -28.0343 H   0  0  0  0  0  0  0  0  0  0  0  0
   -0.1452   28.6329  -24.3358 H   0  0  0  0  0  0  0  0  0  0  0  0
    0.9167   28.7173  -25.7821 H   0  0  0  0  0  0  0  0  0  0  0  0
   -0.6696   29.5600  -25.7821 H   0  0  0  0  0  0  0  0  0  0  0  0
   -1.5971   26.8146  -24.0602 H   0  0  0  0  0  0  0  0  0  0  0  0
   -2.6386   24.7058  -24.9679 H   0  0  0  0  0  0  0  0  0  0  0  0
   -5.9987   23.1222  -31.3866 H   0  0  0  0  0  0  0  0  0  0  0  0
   -6.9284   21.1721  -32.6328 H   0  0  0  0  0  0  0  0  0  0  0  0
   -6.7998   18.6720  -31.2154 H   0  0  0  0  0  0  0  0  0  0  0  0
   -8.9895   20.5197  -31.5269 H   0  0  0  0  0  0  0  0  0  0  0  0
   -8.9793   20.3939  -33.0780 H   0  0  0  0  0  0  0  0  0  0  0  0
   -9.5697   18.0347  -30.9457 H   0  0  0  0  0  0  0  0  0  0  0  0
   -9.6605   17.4771  -32.3952 H   0  0  0  0  0  0  0  0  0  0  0  0
   -3.0261   19.2959  -32.6125 H   0  0  0  0  0  0  0  0  0  0  0  0
   -2.0985   21.2443  -31.3616 H   0  0  0  0  0  0  0  0  0  0  0  0
  1  2  1  0
  2  3  1  0
  3  4  2  0
  3  5  1  0
  5  6  1  0
  6  7  1  0
  7  8  2  0
  8  9  1  0
  9 10  2  0
 10 11  1  0
 11 12  1  0
 11 13  2  0
 13 14  1  0
 14 15  2  0
 15 16  1  0
  5 17  1  0
 17 18  2  0
 18 19  1  0
 19 20  2  0
 20 21  1  0
 21 22  1  0
 22 23  2  0
 22 24  1  0
 24 25  1  0
 25 26  1  0
 20 27  1  0
 27 28  2  0
 16  7  1  0
 28 17  1  0
 15  9  1  0
 26 24  1  0
  1 29  1  0
  1 30  1  0
  1 31  1  0
  2 32  1  0
  2 33  1  0
  6 34  1  0
  6 35  1  0
 10 36  1  0
 12 37  1  0
 12 38  1  0
 12 39  1  0
 13 40  1  0
 14 41  1  0
 18 42  1  0
 19 43  1  0
 24 44  1  0
 25 45  1  0
 25 46  1  0
 26 47  1  0
 26 48  1  0
 27 49  1  0
 28 50  1  0
M  CHG  2  16  -1  21  -1
M  END
>  <UniqueID>  (7) 
7

>  <SMILES>  (7) 
CCC(=O)N(Cc1nc2cc(C)ccc2[n-]1)c1ccc([N-]C(=O)C2CC2)cc1

>  <Energy>  (7) 
356.0921408725076

>  <Genealogy>  (7) 
CCC(=O)N(Cc1nc2cc(C)ccc2[n-]1)c1ccc([N-]C(=O)C2CC2)cc1 (protonated)
CCC(=O)N(Cc1nc2cc(C)ccc2[n-]1)c1ccc([N-]C(=O)C2CC2)cc1 (3D coordinates assigned)
CCC(=O)N(Cc1nc2cc(C)ccc2[n-]1)c1ccc([N-]C(=O)C2CC2)cc1 (nonaromatic ring conformer: 356.0921408725076 kcal/mol)

>  <smiles>  (7) 
CCC(=O)N(Cc1nc2cc(C)ccc2[nH]1)c1ccc(NC(=O)C2CC2)cc1

>  <score_type>  (7) 
oracle

>  <origin>  (7) 
adgpu

>  <m_score__min__energy>  (7) 
-10.68

>  <m_primary>  (7) 
energy

$$$$
7:0
     RDKit          3D

 48 50  0  0  1  0  0  0  0  0999 V2000
    0.5690   21.3160  -27.7560 C   0  0  0  0  0  0  0  0  0  0  0  0
    0.8950   22.6770  -27.8110 O   0  0  0  0  0  0  0  0  0  0  0  0
   -0.0550   23.6090  -28.1520 C   0  0  0  0  0  0  0  0  0  0  0  0
   -1.2690   23.1300  -28.6550 C   0  0  0  0  0  0  0  0  0  0  0  0
   -2.2620   24.0600  -29.0130 C   0  0  0  0  0  0  0  0  0  0  0  0
   -3.3460   23.5380  -29.4680 N   0  0  0  0  0  0  0  0  0  0  0  0
   -4.6650   24.5010  -29.9560 S   0  0  0  0  0  0  0  0  0  0  0  0
   -5.2980   25.1300  -28.7410 O   0  0  0  0  0  0  0  0  0  0  0  0
   -4.2090   25.5970  -30.8590 O   0  0  0  0  0  0  0  0  0  0  0  0
   -5.9110   23.5120  -30.6960 C   0  0  0  0  0  0  0  0  0  0  0  0
   -7.0480   24.1080  -31.2470 C   0  0  0  0  0  0  0  0  0  0  0  0
   -8.0210   23.2820  -31.8010 C   0  0  0  0  0  0  0  0  0  0  0  0
   -7.8920   21.9200  -31.8210 C   0  0  0  0  0  0  0  0  0  0  0  0
   -8.9380   21.1510  -32.3920 N   0  0  0  0  0  0  0  0  0  0  0  0
   -8.9820   19.4380  -32.3770 S   0  0  0  0  0  0  0  0  0  0  0  0
  -10.1790   18.8840  -33.0890 O   0  0  0  0  0  0  0  0  0  0  0  0
   -9.1380   19.0080  -30.9340 O   0  0  0  0  0  0  0  0  0  0  0  0
   -7.5640   18.6810  -33.0080 C   0  0  0  0  0  0  0  0  0  0  0  0
   -6.6920   19.4590  -33.7850 C   0  0  0  0  0  0  0  0  0  0  0  0
   -5.5470   18.9470  -34.3320 C   0  0  0  0  0  0  0  0  0  0  0  0
   -5.2120   17.6230  -34.1280 C   0  0  0  0  0  0  0  0  0  0  0  0
   -6.0800   16.8540  -33.3560 C   0  0  0  0  0  0  0  0  0  0  0  0
   -7.2290   17.3540  -32.8040 C   0  0  0  0  0  0  0  0  0  0  0  0
   -6.7550   21.3750  -31.2700 C   0  0  0  0  0  0  0  0  0  0  0  0
   -5.7490   22.1370  -30.7000 C   0  0  0  0  0  0  0  0  0  0  0  0
   -2.0800   25.3750  -28.8890 N   0  0  0  0  0  0  0  0  0  0  0  0
   -0.9040   25.8100  -28.4030 C   0  0  0  0  0  0  0  0  0  0  0  0
   -0.7190   27.1830  -28.2750 O   0  0  0  0  0  0  0  0  0  0  0  0
   -0.4620   27.8290  -27.0570 C   0  0  0  0  0  0  0  0  0  0  0  0
    0.0720   24.9340  -28.0480 N   0  0  0  0  0  0  0  0  0  0  0  0
    0.4931   20.9993  -26.7053 H   0  0  0  0  0  0  0  0  0  0  0  0
   -0.3945   21.1491  -28.2597 H   0  0  0  0  0  0  0  0  0  0  0  0
    1.3523   20.7307  -28.2597 H   0  0  0  0  0  0  0  0  0  0  0  0
   -1.4435   22.0498  -28.7682 H   0  0  0  0  0  0  0  0  0  0  0  0
   -7.1708   25.2011  -31.2430 H   0  0  0  0  0  0  0  0  0  0  0  0
   -8.9222   23.7383  -32.2366 H   0  0  0  0  0  0  0  0  0  0  0  0
   -9.7150   21.7230  -32.8440 H   0  0  0  0  0  0  0  0  0  0  0  0
   -6.9374   20.5168  -33.9604 H   0  0  0  0  0  0  0  0  0  0  0  0
   -4.8916   19.5919  -34.9359 H   0  0  0  0  0  0  0  0  0  0  0  0
   -4.2957   17.1924  -34.5582 H   0  0  0  0  0  0  0  0  0  0  0  0
   -5.8309   15.7968  -33.1819 H   0  0  0  0  0  0  0  0  0  0  0  0
   -7.8818   16.7047  -32.2020 H   0  0  0  0  0  0  0  0  0  0  0  0
   -6.6396   20.2811  -31.2829 H   0  0  0  0  0  0  0  0  0  0  0  0
   -4.8540   21.6671  -30.2663 H   0  0  0  0  0  0  0  0  0  0  0  0
   -2.8580   26.0040  -29.1780 H   0  0  0  0  0  0  0  0  0  0  0  0
   -0.7278   27.1610  -26.2244 H   0  0  0  0  0  0  0  0  0  0  0  0
    0.6062   28.0843  -26.9956 H   0  0  0  0  0  0  0  0  0  0  0  0
   -1.0629   28.7483  -26.9956 H   0  0  0  0  0  0  0  0  0  0  0  0
  1  2  1  0
  2  3  1  0
  3  4  2  0
  4  5  1  0
  5  6  2  0
  6  7  1  0
  7  8  2  0
  7  9  2  0
  7 10  1  0
 10 11  2  0
 11 12  1  0
 12 13  2  0
 13 14  1  0
 14 15  1  0
 15 16  2  0
 15 17  2  0
 15 18  1  0
 18 19  2  0
 19 20  1  0
 20 21  2  0
 21 22  1  0
 22 23  2  0
 13 24  1  0
 24 25  2  0
  5 26  1  0
 26 27  1  0
 27 28  1  0
 28 29  1  0
 27 30  2  0
 30  3  1  0
 25 10  1  0
 23 18  1  0
  1 31  1  0
  1 32  1  0
  1 33  1  0
  4 34  1  0
 11 35  1  0
 12 36  1  0
 14 37  1  0
 19 38  1  0
 20 39  1  0
 21 40  1  0
 22 41  1  0
 23 42  1  0
 24 43  1  0
 25 44  1  0
 26 45  1  0
 29 46  1  0
 29 47  1  0
 29 48  1  0
M  END
>  <smiles>  (8) 
COc1cc(=NS(=O)(=O)c2ccc(NS(=O)(=O)c3ccccc3)cc2)[nH]c(OC)n1

>  <score_type>  (8) 
oracle

>  <origin>  (8) 
adgpu

>  <m_score__min__energy>  (8) 
-9.9600000000000009

>  <m_primary>  (8) 
energy

$$$$
8:0
     RDKit          3D

 43 45  0  0  0  0  0  0  0  0999 V2000
   -6.1020   25.5780  -29.7390 C   0  0  0  0  0  0  0  0  0  0  0  0
   -5.0420   25.0420  -30.6520 C   0  0  0  0  0  0  0  0  0  0  0  0
   -5.3870   24.4020  -31.6790 O   0  0  0  0  0  0  0  0  0  0  0  0
   -3.6470   25.2640  -30.4070 N   0  0  0  0  0  0  0  0  0  0  0  0
   -2.8530   24.5950  -29.4190 C   0  0  0  0  0  0  0  0  0  0  0  0
   -3.3100   23.3770  -28.8980 C   0  0  0  0  0  0  0  0  0  0  0  0
   -2.5730   22.7030  -27.9080 C   0  0  0  0  0  0  0  0  0  0  0  0
   -3.0070   21.4420  -27.3770 N   0  0  0  0  0  0  0  0  0  0  0  0
   -2.4280   20.1620  -27.6630 C   0  0  0  0  0  0  0  0  0  0  0  0
   -2.7290   19.1840  -26.9320 O   0  0  0  0  0  0  0  0  0  0  0  0
   -1.5410   19.9430  -28.8210 C   0  0  0  0  0  0  0  0  0  0  0  0
   -1.6480   20.5260  -30.0680 C   0  0  0  0  0  0  0  0  0  0  0  0
   -0.6020   19.9780  -30.7840 C   0  0  0  0  0  0  0  0  0  0  0  0
   -0.2020   20.3150  -32.1690 C   0  0  0  0  0  0  0  0  0  0  0  0
    1.1090   20.0050  -32.5700 C   0  0  0  0  0  0  0  0  0  0  0  0
    1.5620   20.3320  -33.8470 C   0  0  0  0  0  0  0  0  0  0  0  0
    0.7180   20.9860  -34.7500 C   0  0  0  0  0  0  0  0  0  0  0  0
    1.1990   21.3140  -36.1330 C   0  0  0  0  0  0  0  0  0  0  0  0
   -0.6040   21.2640  -34.3800 C   0  0  0  0  0  0  0  0  0  0  0  0
   -1.0840   20.9220  -33.1020 C   0  0  0  0  0  0  0  0  0  0  0  0
   -2.5270   21.2090  -32.7810 C   0  0  0  0  0  0  0  0  0  0  0  0
    0.0860   19.1290  -29.9950 N   0  0  0  0  0  0  0  0  0  0  0  0
   -0.4920   19.0980  -28.8050 N   0  0  0  0  0  0  0  0  0  0  0  0
   -1.3620   23.2450  -27.4650 C   0  0  0  0  0  0  0  0  0  0  0  0
   -0.9170   24.4730  -27.9570 C   0  0  0  0  0  0  0  0  0  0  0  0
   -1.6670   25.1610  -28.9180 C   0  0  0  0  0  0  0  0  0  0  0  0
   -1.2400   26.4130  -29.3430 O   0  0  0  0  0  0  0  0  0  0  0  0
   -5.7974   25.4240  -28.6933 H   0  0  0  0  0  0  0  0  0  0  0  0
   -6.2382   26.6533  -29.9267 H   0  0  0  0  0  0  0  0  0  0  0  0
   -7.0487   25.0503  -29.9267 H   0  0  0  0  0  0  0  0  0  0  0  0
   -4.2522   22.9449  -29.2662 H   0  0  0  0  0  0  0  0  0  0  0  0
   -2.3939   21.2578  -30.4117 H   0  0  0  0  0  0  0  0  0  0  0  0
    1.7862   19.4978  -31.8670 H   0  0  0  0  0  0  0  0  0  0  0  0
    2.5887   20.0743  -34.1460 H   0  0  0  0  0  0  0  0  0  0  0  0
    2.1063   21.9327  -36.0686 H   0  0  0  0  0  0  0  0  0  0  0  0
    1.4277   20.3829  -36.6721 H   0  0  0  0  0  0  0  0  0  0  0  0
    0.4157   21.8669  -36.6721 H   0  0  0  0  0  0  0  0  0  0  0  0
   -1.2762   21.7564  -35.0981 H   0  0  0  0  0  0  0  0  0  0  0  0
   -2.6615   21.2358  -31.6896 H   0  0  0  0  0  0  0  0  0  0  0  0
   -2.8116   22.1813  -33.2095 H   0  0  0  0  0  0  0  0  0  0  0  0
   -3.1620   20.4196  -33.2095 H   0  0  0  0  0  0  0  0  0  0  0  0
   -0.7571   22.7005  -26.7249 H   0  0  0  0  0  0  0  0  0  0  0  0
    0.0265   24.9017  -27.5882 H   0  0  0  0  0  0  0  0  0  0  0  0
  1  2  1  0
  2  3  2  0
  2  4  1  0
  4  5  1  0
  5  6  2  0
  6  7  1  0
  7  8  1  0
  8  9  1  0
  9 10  2  0
  9 11  1  0
 11 12  1  0
 12 13  2  0
 13 14  1  0
 14 15  2  0
 15 16  1  0
 16 17  2  0
 17 18  1  0
 17 19  1  0
 19 20  2  0
 20 21  1  0
 13 22  1  0
 22 23  1  0
  7 24  2  0
 24 25  1  0
 25 26  2  0
 26 27  1  0
 26  5  1  0
 23 11  2  0
 20 14  1  0
  1 28  1  0
  1 29  1  0
  1 30  1  0
  6 31  1  0
 12 32  1  0
 15 33  1  0
 16 34  1  0
 18 35  1  0
 18 36  1  0
 18 37  1  0
 19 38  1  0
 21 39  1  0
 21 40  1  0
 21 41  1  0
 24 42  1  0
 25 43  1  0
M  CHG  4   4  -1   8  -1  22  -1  27  -1
M  END
>  <UniqueID>  (9) 
8

>  <SMILES>  (9) 
CC(=O)[N-]c1cc([N-]C(=O)c2cc(-c3ccc(C)cc3C)[n-]n2)ccc1[O-]

>  <Energy>  (9) 
89.42342378885262

>  <Genealogy>  (9) 
CC(=O)[N-]c1cc([N-]C(=O)c2cc(-c3ccc(C)cc3C)[n-]n2)ccc1[O-] (protonated)
CC(=O)[N-]c1cc([N-]C(=O)c2cc(-c3ccc(C)cc3C)[n-]n2)ccc1[O-] (3D coordinates assigned)
CC(=O)[N-]c1cc([N-]C(=O)c2cc(-c3ccc(C)cc3C)[n-]n2)ccc1[O-] (optimized conformer: 89.42342378885262 kcal/mol)

>  <smiles>  (9) 
CC(=O)Nc1cc(NC(=O)c2cc(-c3ccc(C)cc3C)[nH]n2)ccc1O

>  <score_type>  (9) 
oracle

>  <origin>  (9) 
adgpu

>  <m_score__min__energy>  (9) 
-12.470000000000001

>  <m_primary>  (9) 
energy

$$$$
9:0
     RDKit          3D

 43 47  0  0  0  0  0  0  0  0999 V2000
   -5.2320   15.5780  -31.5300 N   0  0  0  0  0  0  0  0  0  0  0  0
   -5.5270   16.6650  -32.4110 C   0  0  0  0  0  0  0  0  0  0  0  0
   -5.1750   16.5900  -33.7640 C   0  0  0  0  0  0  0  0  0  0  0  0
   -5.4650   17.6520  -34.6240 C   0  0  0  0  0  0  0  0  0  0  0  0
   -6.1020   18.7950  -34.1390 C   0  0  0  0  0  0  0  0  0  0  0  0
   -6.4560   18.8920  -32.7810 C   0  0  0  0  0  0  0  0  0  0  0  0
   -7.1210   20.0640  -32.2720 N   0  0  0  0  0  0  0  0  0  0  0  0
   -8.3680   20.1180  -31.7530 C   0  0  0  0  0  0  0  0  0  0  0  0
   -8.6260   21.4280  -31.4010 C   0  0  0  0  0  0  0  0  0  0  0  0
   -9.8140   21.9100  -30.8590 O   0  0  0  0  0  0  0  0  0  0  0  0
   -7.5510   22.1900  -31.6740 N   0  0  0  0  0  0  0  0  0  0  0  0
   -7.4260   23.6380  -31.5230 C   0  0  0  0  0  0  0  0  0  0  0  0
   -6.0490   23.9800  -31.0570 C   0  0  0  0  0  0  0  0  0  0  0  0
   -5.3540   23.2490  -30.1650 N   0  0  0  0  0  0  0  0  0  0  0  0
   -4.2190   23.9750  -30.0550 C   0  0  0  0  0  0  0  0  0  0  0  0
   -3.0890   23.6050  -29.1770 C   0  0  0  0  0  0  0  0  0  0  0  0
   -3.1980   22.4920  -28.2990 C   0  0  0  0  0  0  0  0  0  0  0  0
   -2.1280   22.1330  -27.4580 C   0  0  0  0  0  0  0  0  0  0  0  0
   -0.9710   22.9040  -27.5190 C   0  0  0  0  0  0  0  0  0  0  0  0
    0.1580   22.7450  -26.8140 N   0  0  0  0  0  0  0  0  0  0  0  0
    0.9370   23.7600  -27.2700 C   0  0  0  0  0  0  0  0  0  0  0  0
    0.3490   24.5370  -28.2180 N   0  0  0  0  0  0  0  0  0  0  0  0
   -0.8590   23.9690  -28.3530 C   0  0  0  0  0  0  0  0  0  0  0  0
   -1.8920   24.3580  -29.2010 C   0  0  0  0  0  0  0  0  0  0  0  0
   -4.2380   25.0760  -30.8320 N   0  0  0  0  0  0  0  0  0  0  0  0
   -5.3860   25.0440  -31.4340 O   0  0  0  0  0  0  0  0  0  0  0  0
   -6.6560   21.3350  -32.2120 C   0  0  0  0  0  0  0  0  0  0  0  0
   -5.5060   21.6830  -32.5950 O   0  0  0  0  0  0  0  0  0  0  0  0
   -6.1690   17.8140  -31.9230 C   0  0  0  0  0  0  0  0  0  0  0  0
   -4.8260   14.6870  -31.8950 H   0  0  0  0  0  0  0  0  0  0  0  0
   -5.4170   15.6550  -30.5040 H   0  0  0  0  0  0  0  0  0  0  0  0
   -4.6691   15.6930  -34.1506 H   0  0  0  0  0  0  0  0  0  0  0  0
   -5.1903   17.5870  -35.6872 H   0  0  0  0  0  0  0  0  0  0  0  0
   -6.3289   19.6258  -34.8233 H   0  0  0  0  0  0  0  0  0  0  0  0
   -9.0559   19.2682  -31.6324 H   0  0  0  0  0  0  0  0  0  0  0  0
  -10.1180   21.6210  -29.9360 H   0  0  0  0  0  0  0  0  0  0  0  0
   -7.6152   24.1240  -32.4915 H   0  0  0  0  0  0  0  0  0  0  0  0
   -8.1587   23.9910  -30.7823 H   0  0  0  0  0  0  0  0  0  0  0  0
   -4.1283   21.9054  -28.2768 H   0  0  0  0  0  0  0  0  0  0  0  0
   -2.2036   21.2730  -26.7763 H   0  0  0  0  0  0  0  0  0  0  0  0
    1.9585   23.9384  -26.9028 H   0  0  0  0  0  0  0  0  0  0  0  0
   -1.7808   25.2246  -29.8694 H   0  0  0  0  0  0  0  0  0  0  0  0
   -6.4501   17.8723  -30.8611 H   0  0  0  0  0  0  0  0  0  0  0  0
  1  2  1  0
  2  3  2  0
  3  4  1  0
  4  5  2  0
  5  6  1  0
  6  7  1  0
  7  8  1  0
  8  9  2  0
  9 10  1  0
  9 11  1  0
 11 12  1  0
 12 13  1  0
 13 14  2  0
 14 15  1  0
 15 16  1  0
 16 17  2  0
 17 18  1  0
 18 19  2  0
 19 20  1  0
 20 21  1  0
 21 22  2  0
 22 23  1  0
 23 24  2  0
 15 25  2  0
 25 26  1  0
 11 27  1  0
 27 28  2  0
  6 29  2  0
 29  2  1  0
 27  7  1  0
 26 13  1  0
 24 16  1  0
 23 19  1  0
  1 30  1  0
  1 31  1  0
  3 32  1  0
  4 33  1  0
  5 34  1  0
  8 35  1  0
 10 36  1  0
 12 37  1  0
 12 38  1  0
 17 39  1  0
 18 40  1  0
 21 41  1  0
 24 42  1  0
 29 43  1  0
M  CHG  1  20  -1
M  END
>  <UniqueID>  (10) 
9

>  <SMILES>  (10) 
Nc1cccc(-n2cc(O)n(Cc3nc(-c4ccc5[n-]cnc5c4)no3)c2=O)c1

>  <Energy>  (10) 
153.0327799108237

>  <Genealogy>  (10) 
Nc1cccc(-n2cc(O)n(Cc3nc(-c4ccc5[n-]cnc5c4)no3)c2=O)c1 (protonated)
Nc1cccc(-n2cc(O)n(Cc3nc(-c4ccc5[n-]cnc5c4)no3)c2=O)c1 (3D coordinates assigned)
Nc1cccc(-n2cc(O)n(Cc3nc(-c4ccc5[n-]cnc5c4)no3)c2=O)c1 (optimized conformer: 153.0327799108237 kcal/mol)

>  <smiles>  (10) 
Nc1cccc(-n2cc(O)n(Cc3nc(-c4ccc5[nH]cnc5c4)no3)c2=O)c1

>  <score_type>  (10) 
oracle

>  <origin>  (10) 
adgpu

>  <m_score__min__energy>  (10) 
-9.7100000000000009

>  <m_primary>  (10) 
energy

$$$$
10:0
     RDKit          3D

 44 46  0  0  1  0  0  0  0  0999 V2000
   -9.8980   20.8190  -32.2140 C   0  0  0  0  0  0  0  0  0  0  0  0
   -8.4330   21.1120  -32.1520 C   0  0  0  0  0  0  0  0  0  0  0  0
   -7.5180   20.3940  -32.9090 C   0  0  0  0  0  0  0  0  0  0  0  0
   -6.1640   20.6440  -32.8670 C   0  0  0  0  0  0  0  0  0  0  0  0
   -5.3270   19.9700  -33.5760 N   0  0  0  0  0  0  0  0  0  0  0  0
   -5.7800   18.9190  -34.4460 C   0  0  0  0  0  0  0  0  0  0  0  0
   -5.4020   17.5900  -33.8490 C   0  0  0  0  0  0  0  0  0  0  0  0
   -5.7290   17.2960  -32.5260 C   0  0  0  0  0  0  0  0  0  0  0  0
   -5.3890   16.0740  -31.9550 C   0  0  0  0  0  0  0  0  0  0  0  0
   -4.7090   15.1460  -32.7420 C   0  0  0  0  0  0  0  0  0  0  0  0
   -4.3910   13.9650  -32.1580 F   0  0  0  0  0  0  0  0  0  0  0  0
   -4.3970   15.4520  -34.0340 C   0  0  0  0  0  0  0  0  0  0  0  0
   -3.5390   14.2410  -34.9770 Cl  0  0  0  0  0  0  0  0  0  0  0  0
   -4.7280   16.6580  -34.6130 C   0  0  0  0  0  0  0  0  0  0  0  0
   -5.7570   21.6390  -32.0430 N   0  0  0  0  0  0  0  0  0  0  0  0
   -4.5190   22.1070  -31.7930 C   0  0  0  0  0  0  0  0  0  0  0  0
   -4.5890   23.1490  -30.8630 C   0  0  0  0  0  0  0  0  0  0  0  0
   -3.4390   23.9140  -30.3390 C   0  0  0  0  0  0  0  0  0  0  0  0
   -3.5550   25.1600  -30.3610 O   0  0  0  0  0  0  0  0  0  0  0  0
   -2.2920   23.2390  -29.8530 N   0  0  0  0  0  0  0  0  0  0  0  0
   -1.1180   23.8500  -29.3280 C   0  0  0  0  0  0  0  0  0  0  0  0
   -1.3090   24.9370  -28.3320 C   0  0  0  0  0  0  0  0  0  0  0  0
   -1.5120   26.1460  -28.9260 O   0  0  0  0  0  0  0  0  0  0  0  0
   -5.9140   23.2760  -30.5730 C   0  0  0  0  0  0  0  0  0  0  0  0
   -6.6280   22.3450  -31.3000 C   0  0  0  0  0  0  0  0  0  0  0  0
   -7.9540   22.0860  -31.3530 N   0  0  0  0  0  0  0  0  0  0  0  0
  -10.2994   20.7387  -31.1930 H   0  0  0  0  0  0  0  0  0  0  0  0
  -10.4123   21.6321  -32.7473 H   0  0  0  0  0  0  0  0  0  0  0  0
  -10.0600   19.8707  -32.7473 H   0  0  0  0  0  0  0  0  0  0  0  0
   -7.8881   19.5946  -33.5678 H   0  0  0  0  0  0  0  0  0  0  0  0
   -6.8730   18.9764  -34.5553 H   0  0  0  0  0  0  0  0  0  0  0  0
   -5.3115   19.0282  -35.4352 H   0  0  0  0  0  0  0  0  0  0  0  0
   -6.2653   18.0435  -31.9231 H   0  0  0  0  0  0  0  0  0  0  0  0
   -5.6496   15.8462  -30.9109 H   0  0  0  0  0  0  0  0  0  0  0  0
   -4.4617   16.8729  -35.6584 H   0  0  0  0  0  0  0  0  0  0  0  0
   -3.5936   21.7273  -32.2507 H   0  0  0  0  0  0  0  0  0  0  0  0
   -2.3520   22.1730  -29.8990 H   0  0  0  0  0  0  0  0  0  0  0  0
   -0.5203   23.0614  -28.8476 H   0  0  0  0  0  0  0  0  0  0  0  0
   -0.6389   24.3352  -30.1911 H   0  0  0  0  0  0  0  0  0  0  0  0
   -2.1827   24.6971  -27.7082 H   0  0  0  0  0  0  0  0  0  0  0  0
   -0.3934   25.0064  -27.7264 H   0  0  0  0  0  0  0  0  0  0  0  0
   -2.4610   26.4280  -28.9690 H   0  0  0  0  0  0  0  0  0  0  0  0
   -6.3461   24.0045  -29.8712 H   0  0  0  0  0  0  0  0  0  0  0  0
   -8.6300   22.6360  -30.7760 H   0  0  0  0  0  0  0  0  0  0  0  0
  1  2  1  0
  2  3  2  0
  3  4  1  0
  4  5  2  0
  5  6  1  0
  6  7  1  0
  7  8  2  0
  8  9  1  0
  9 10  2  0
 10 11  1  0
 10 12  1  0
 12 13  1  0
 12 14  2  0
  4 15  1  0
 15 16  1  0
 16 17  2  0
 17 18  1  0
 18 19  2  0
 18 20  1  0
 20 21  1  0
 21 22  1  0
 22 23  1  0
 17 24  1  0
 24 25  2  0
 25 26  1  0
 26  2  1  0
 14  7  1  0
 25 15  1  0
  1 27  1  0
  1 28  1  0
  1 29  1  0
  3 30  1  0
  6 31  1  0
  6 32  1  0
  8 33  1  0
  9 34  1  0
 14 35  1  0
 16 36  1  0
 20 37  1  0
 21 38  1  0
 21 39  1  0
 22 40  1  0
 22 41  1  0
 23 42  1  0
 24 43  1  0
 26 44  1  0
M  END
>  <smiles>  (11) 
Cc1cc(=NCc2ccc(F)c(Cl)c2)n2cc(C(=O)NCCO)cc2[nH]1

>  <score_type>  (11) 
oracle

>  <origin>  (11) 
adgpu

>  <m_score__min__energy>  (11) 
-8.6400000000000006

>  <m_primary>  (11) 
energy

$$$$
11:0
     RDKit          3D

 40 43  0  0  0  0  0  0  0  0999 V2000
   -1.3140   17.7680  -34.8340 H   0  0  0  0  0  0  0  0  0  0  0  0
   -2.2160   17.6530  -34.3230 N   0  0  0  0  0  0  0  0  0  0  0  0
   -2.9040   18.6210  -33.7990 C   0  0  0  0  0  0  0  0  0  0  0  0
   -4.0960   18.3170  -33.2200 N   0  0  0  0  0  0  0  0  0  0  0  0
   -4.9220   19.2620  -32.7050 C   0  0  0  0  0  0  0  0  0  0  0  0
   -5.8701   18.9623  -32.2347 H   0  0  0  0  0  0  0  0  0  0  0  0
   -4.5740   20.6170  -32.7690 C   0  0  0  0  0  0  0  0  0  0  0  0
   -5.4790   21.6630  -32.2240 C   0  0  0  0  0  0  0  0  0  0  0  0
   -6.8740   21.5190  -32.3220 C   0  0  0  0  0  0  0  0  0  0  0  0
   -7.2994   20.6280  -32.8069 H   0  0  0  0  0  0  0  0  0  0  0  0
   -7.7220   22.5010  -31.8070 C   0  0  0  0  0  0  0  0  0  0  0  0
   -8.8123   22.3804  -31.8887 H   0  0  0  0  0  0  0  0  0  0  0  0
   -7.1930   23.6350  -31.1890 C   0  0  0  0  0  0  0  0  0  0  0  0
   -7.8692   24.4030  -30.7854 H   0  0  0  0  0  0  0  0  0  0  0  0
   -5.8020   23.8020  -31.0790 C   0  0  0  0  0  0  0  0  0  0  0  0
   -5.2410   25.0100  -30.4260 C   0  0  0  0  0  0  0  0  0  0  0  0
   -5.9890   25.7800  -29.7640 O   0  0  0  0  0  0  0  0  0  0  0  0
   -3.8520   25.3140  -30.5340 N   0  0  0  0  0  0  0  0  0  0  0  0
   -3.5100   26.0260  -31.2180 H   0  0  0  0  0  0  0  0  0  0  0  0
   -4.9510   22.8090  -31.6010 C   0  0  0  0  0  0  0  0  0  0  0  0
   -3.8607   22.9305  -31.5209 H   0  0  0  0  0  0  0  0  0  0  0  0
   -3.3450   20.9620  -33.3520 C   0  0  0  0  0  0  0  0  0  0  0  0
   -3.0535   22.0207  -33.4159 H   0  0  0  0  0  0  0  0  0  0  0  0
   -2.4820   19.9750  -33.8550 C   0  0  0  0  0  0  0  0  0  0  0  0
   -1.1670   20.4000  -34.3860 C   0  0  0  0  0  0  0  0  0  0  0  0
   -0.2960   19.5290  -34.9610 N   0  0  0  0  0  0  0  0  0  0  0  0
    0.7070   20.3280  -35.3520 C   0  0  0  0  0  0  0  0  0  0  0  0
    1.8820   19.9650  -36.0040 C   0  0  0  0  0  0  0  0  0  0  0  0
    2.0872   18.9143  -36.2566 H   0  0  0  0  0  0  0  0  0  0  0  0
    2.8060   20.9870  -36.3330 C   0  0  0  0  0  0  0  0  0  0  0  0
    4.0720   20.6530  -37.0250 C   0  0  0  0  0  0  0  0  0  0  0  0
    4.9280   19.9160  -36.4640 O   0  0  0  0  0  0  0  0  0  0  0  0
    4.3400   21.1590  -38.3310 N   0  0  0  0  0  0  0  0  0  0  0  0
    3.8020   20.8190  -39.1590 H   0  0  0  0  0  0  0  0  0  0  0  0
    2.5030   22.3340  -35.9920 C   0  0  0  0  0  0  0  0  0  0  0  0
    3.2169   23.1321  -36.2437 H   0  0  0  0  0  0  0  0  0  0  0  0
    1.3000   22.6580  -35.3360 C   0  0  0  0  0  0  0  0  0  0  0  0
    1.0583   23.6984  -35.0729 H   0  0  0  0  0  0  0  0  0  0  0  0
    0.4280   21.6190  -35.0320 C   0  0  0  0  0  0  0  0  0  0  0  0
   -0.7640   21.6990  -34.4240 N   0  0  0  0  0  0  0  0  0  0  0  0
  1  2  1  0
  2  3  2  0
  3  4  1  0
  4  5  1  0
  5  6  1  0
  5  7  2  0
  7  8  1  0
  8  9  2  0
  9 10  1  0
  9 11  1  0
 11 12  1  0
 11 13  2  0
 13 14  1  0
 13 15  1  0
 15 16  1  0
 16 17  2  0
 16 18  1  0
 18 19  1  0
 15 20  2  0
 20 21  1  0
  7 22  1  0
 22 23  1  0
 22 24  2  0
 24 25  1  0
 25 26  2  0
 26 27  1  0
 27 28  2  0
 28 29  1  0
 28 30  1  0
 30 31  1  0
 31 32  2  0
 31 33  1  0
 33 34  1  0
 30 35  2  0
 35 36  1  0
 35 37  1  0
 37 38  1  0
 37 39  2  0
 39 40  1  0
 24  3  1  0
 40 25  1  0
 20  8  1  0
 39 27  1  0
M  CHG  4   4  -1  18  -1  33  -1  40  -1
M  END
>  <UniqueID>  (12) 
10

>  <SMILES>  (12) 
[H]/N=c1/[n-]cc(-c2cccc(C([NH-])=O)c2)cc1-c1nc2cc(C([NH-])=O)ccc2[n-]1

>  <Energy>  (12) 
93.31239458730329

>  <Genealogy>  (12) 
N=c1[n-]cc(-c2cccc(C([NH-])=O)c2)cc1-c1nc2cc(C([NH-])=O)ccc2[n-]1 (protonated)
[H]/N=c1/[n-]cc(-c2cccc(C([NH-])=O)c2)cc1-c1nc2cc(C([NH-])=O)ccc2[n-]1 (cis-trans isomerization)
[H]/N=c1/[n-]cc(-c2cccc(C([NH-])=O)c2)cc1-c1nc2cc(C([NH-])=O)ccc2[n-]1 (3D coordinates assigned)
[H]/N=c1/[n-]cc(-c2cccc(C([NH-])=O)c2)cc1-c1nc2cc(C([NH-])=O)ccc2[n-]1 (optimized conformer: 93.31239458730329 kcal/mol)

>  <smiles>  (12) 
N=c1[nH]cc(-c2cccc(C(N)=O)c2)cc1-c1nc2cc(C(N)=O)ccc2[nH]1

>  <score_type>  (12) 
oracle

>  <origin>  (12) 
adgpu

>  <m_score__min__energy>  (12) 
-12.279999999999999

>  <m_primary>  (12) 
energy

$$$$
12:0
     RDKit          3D

 43 45  0  0  0  0  0  0  0  0999 V2000
   -2.1734   26.5794  -24.4917 H   0  0  0  0  0  0  0  0  0  0  0  0
   -1.8710   26.3160  -25.5160 C   0  0  0  0  0  0  0  0  0  0  0  0
   -2.4870   25.2470  -26.1720 C   0  0  0  0  0  0  0  0  0  0  0  0
   -3.2822   24.6793  -25.6666 H   0  0  0  0  0  0  0  0  0  0  0  0
   -2.0940   24.8930  -27.4780 C   0  0  0  0  0  0  0  0  0  0  0  0
   -2.7230   23.8230  -28.2030 N   0  0  0  0  0  0  0  0  0  0  0  0
   -3.4320   23.9330  -29.2870 C   0  0  0  0  0  0  0  0  0  0  0  0
   -3.7730   25.1060  -29.8650 N   0  0  0  0  0  0  0  0  0  0  0  0
   -4.5420   24.9520  -30.9400 N   0  0  0  0  0  0  0  0  0  0  0  0
   -4.8200   23.6580  -31.2170 C   0  0  0  0  0  0  0  0  0  0  0  0
   -5.6920   23.2210  -32.3570 C   0  0  0  0  0  0  0  0  0  0  0  0
   -5.1849   22.4035  -32.8904 H   0  0  0  0  0  0  0  0  0  0  0  0
   -5.8521   24.0999  -32.9988 H   0  0  0  0  0  0  0  0  0  0  0  0
   -7.0840   22.7240  -31.9090 C   0  0  1  0  0  0  0  0  0  0  0  0
   -7.7937   22.9859  -32.7075 H   0  0  0  0  0  0  0  0  0  0  0  0
   -7.1180   21.2130  -31.7560 C   0  0  0  0  0  0  0  0  0  0  0  0
   -7.8690   20.7130  -30.8730 O   0  0  0  0  0  0  0  0  0  0  0  0
   -6.2660   20.3020  -32.5750 C   0  0  0  0  0  0  0  0  0  0  0  0
   -6.8690   19.4600  -33.5290 C   0  0  0  0  0  0  0  0  0  0  0  0
   -7.9603   19.4854  -33.6644 H   0  0  0  0  0  0  0  0  0  0  0  0
   -6.0960   18.5920  -34.3060 C   0  0  0  0  0  0  0  0  0  0  0  0
   -6.5852   17.9448  -35.0488 H   0  0  0  0  0  0  0  0  0  0  0  0
   -4.7090   18.5380  -34.1490 C   0  0  0  0  0  0  0  0  0  0  0  0
   -3.9800   17.6510  -34.9530 O   0  0  0  0  0  0  0  0  0  0  0  0
   -3.8250   16.2620  -34.6810 C   0  0  0  0  0  0  0  0  0  0  0  0
   -3.8071   16.1012  -33.5930 H   0  0  0  0  0  0  0  0  0  0  0  0
   -4.6667   15.7062  -35.1200 H   0  0  0  0  0  0  0  0  0  0  0  0
   -2.8815   15.9055  -35.1200 H   0  0  0  0  0  0  0  0  0  0  0  0
   -4.0980   19.3720  -33.1960 C   0  0  0  0  0  0  0  0  0  0  0  0
   -3.0066   19.3398  -33.0623 H   0  0  0  0  0  0  0  0  0  0  0  0
   -4.8670   20.2420  -32.4170 C   0  0  0  0  0  0  0  0  0  0  0  0
   -4.3750   20.8861  -31.6733 H   0  0  0  0  0  0  0  0  0  0  0  0
   -7.5580   23.4350  -30.6300 C   0  0  0  0  0  0  0  0  0  0  0  0
   -7.1926   22.8870  -29.7490 H   0  0  0  0  0  0  0  0  0  0  0  0
   -7.1629   24.4614  -30.6132 H   0  0  0  0  0  0  0  0  0  0  0  0
   -8.6575   23.4650  -30.6132 H   0  0  0  0  0  0  0  0  0  0  0  0
   -4.1040   22.6200  -30.0940 S   0  0  0  0  0  0  0  0  0  0  0  0
   -1.1130   25.6560  -28.1250 C   0  0  0  0  0  0  0  0  0  0  0  0
   -0.8261   25.4128  -29.1587 H   0  0  0  0  0  0  0  0  0  0  0  0
   -0.4960   26.7240  -27.4670 C   0  0  0  0  0  0  0  0  0  0  0  0
    0.2845   27.3070  -27.9778 H   0  0  0  0  0  0  0  0  0  0  0  0
   -0.8700   27.0520  -26.1600 C   0  0  0  0  0  0  0  0  0  0  0  0
   -0.0980   28.3940  -25.3350 Cl  0  0  0  0  0  0  0  0  0  0  0  0
  1  2  1  0
  2  3  2  0
  3  4  1  0
  3  5  1  0
  5  6  1  0
  6  7  2  0
  7  8  1  0
  8  9  1  0
  9 10  2  0
 10 11  1  0
 11 12  1  0
 11 13  1  0
 11 14  1  0
 14 15  1  6
 14 16  1  0
 16 17  2  0
 16 18  1  0
 18 19  2  0
 19 20  1  0
 19 21  1  0
 21 22  1  0
 21 23  2  0
 23 24  1  0
 24 25  1  0
 25 26  1  0
 25 27  1  0
 25 28  1  0
 23 29  1  0
 29 30  1  0
 29 31  2  0
 31 32  1  0
 14 33  1  0
 33 34  1  0
 33 35  1  0
 33 36  1  0
 10 37  1  0
  5 38  2  0
 38 39  1  0
 38 40  1  0
 40 41  1  0
 40 42  2  0
 42 43  1  0
 42  2  1  0
 37  7  1  0
 31 18  1  0
M  CHG  1   8  -1
M  END
>  <UniqueID>  (13) 
11

>  <SMILES>  (13) 
COc1ccc(C(=O)[C@@H](C)Cc2n[n-]/c(=N\c3ccc(Cl)cc3)s2)cc1

>  <Energy>  (13) 
83.45116807941902

>  <Genealogy>  (13) 
COc1ccc(C(=O)C(C)Cc2n[n-]c(=Nc3ccc(Cl)cc3)s2)cc1 (protonated)
COc1ccc(C(=O)[C@@H](C)Cc2n[n-]c(=Nc3ccc(Cl)cc3)s2)cc1 (chirality)
COc1ccc(C(=O)[C@@H](C)Cc2n[n-]/c(=N\c3ccc(Cl)cc3)s2)cc1 (cis-trans isomerization)
COc1ccc(C(=O)[C@@H](C)Cc2n[n-]/c(=N\c3ccc(Cl)cc3)s2)cc1 (3D coordinates assigned)
COc1ccc(C(=O)[C@@H](C)Cc2n[n-]/c(=N\c3ccc(Cl)cc3)s2)cc1 (optimized conformer: 83.45116807941902 kcal/mol)

>  <smiles>  (13) 
COc1ccc(C(=O)C(C)Cc2n[nH]c(=Nc3ccc(Cl)cc3)s2)cc1

>  <score_type>  (13) 
oracle

>  <origin>  (13) 
adgpu

>  <m_score__min__energy>  (13) 
-10.369999999999999

>  <m_primary>  (13) 
energy

$$$$
13:0
     RDKit          3D

 33 34  0  0  0  0  0  0  0  0999 V2000
   -3.2330   23.7730  -27.5120 C   0  0  0  0  0  0  0  0  0  0  0  0
   -3.7800   24.1770  -28.8400 C   0  0  0  0  0  0  0  0  0  0  0  0
   -4.9890   23.7840  -29.3700 C   0  0  0  0  0  0  0  0  0  0  0  0
   -5.0000   24.3600  -30.6230 C   0  0  0  0  0  0  0  0  0  0  0  0
   -6.1150   24.2710  -31.6310 C   0  0  0  0  0  0  0  0  0  0  0  0
   -6.2560   22.9240  -32.2390 N   0  0  1  0  0  0  0  0  0  0  0  0
   -4.9400   22.2850  -32.4390 C   0  0  0  0  0  0  0  0  0  0  0  0
   -7.1770   22.0660  -31.4480 C   0  0  0  0  0  0  0  0  0  0  0  0
   -8.1860   21.2890  -32.3130 C   0  0  0  0  0  0  0  0  0  0  0  0
   -7.7180   19.9330  -32.5930 N   0  0  0  0  0  0  0  0  0  0  0  0
   -8.0930   18.8030  -31.9720 C   0  0  0  0  0  0  0  0  0  0  0  0
   -7.3870   17.7610  -32.5290 C   0  0  0  0  0  0  0  0  0  0  0  0
   -6.5710   18.2330  -33.4950 N   0  0  0  0  0  0  0  0  0  0  0  0
   -6.7990   19.5630  -33.5050 C   0  0  0  0  0  0  0  0  0  0  0  0
   -3.8560   25.0450  -30.8210 N   0  0  0  0  0  0  0  0  0  0  0  0
   -3.1070   24.9260  -29.7350 N   0  0  0  0  0  0  0  0  0  0  0  0
   -3.8411   24.2221  -26.7129 H   0  0  0  0  0  0  0  0  0  0  0  0
   -3.2609   22.6770  -27.4220 H   0  0  0  0  0  0  0  0  0  0  0  0
   -2.1937   24.1220  -27.4220 H   0  0  0  0  0  0  0  0  0  0  0  0
   -5.7638   23.1578  -28.9035 H   0  0  0  0  0  0  0  0  0  0  0  0
   -7.0597   24.5273  -31.1291 H   0  0  0  0  0  0  0  0  0  0  0  0
   -5.8726   24.9702  -32.4449 H   0  0  0  0  0  0  0  0  0  0  0  0
   -6.6740   23.0810  -33.1860 H   0  0  0  0  0  0  0  0  0  0  0  0
   -4.4868   22.0650  -31.4611 H   0  0  0  0  0  0  0  0  0  0  0  0
   -5.0687   21.3491  -33.0024 H   0  0  0  0  0  0  0  0  0  0  0  0
   -4.2841   22.9649  -33.0024 H   0  0  0  0  0  0  0  0  0  0  0  0
   -6.5757   21.3417  -30.8789 H   0  0  0  0  0  0  0  0  0  0  0  0
   -7.7575   22.7320  -30.7927 H   0  0  0  0  0  0  0  0  0  0  0  0
   -9.1460   21.2328  -31.7790 H   0  0  0  0  0  0  0  0  0  0  0  0
   -8.3010   21.8192  -33.2699 H   0  0  0  0  0  0  0  0  0  0  0  0
   -8.8330   18.7241  -31.1620 H   0  0  0  0  0  0  0  0  0  0  0  0
   -7.4744   16.7054  -32.2324 H   0  0  0  0  0  0  0  0  0  0  0  0
   -6.2913   20.2658  -34.1820 H   0  0  0  0  0  0  0  0  0  0  0  0
  1  2  1  0
  2  3  1  0
  3  4  2  0
  4  5  1  0
  5  6  1  0
  6  7  1  0
  6  8  1  0
  8  9  1  0
  9 10  1  0
 10 11  1  0
 11 12  2  0
 12 13  1  0
 13 14  2  0
  4 15  1  0
 15 16  1  0
 16  2  2  0
 14 10  1  0
  1 17  1  0
  1 18  1  0
  1 19  1  0
  3 20  1  0
  5 21  1  0
  5 22  1  0
  6 23  1  6
  7 24  1  0
  7 25  1  0
  7 26  1  0
  8 27  1  0
  8 28  1  0
  9 29  1  0
  9 30  1  0
 11 31  1  0
 12 32  1  0
 14 33  1  0
M  CHG  2   6   1  15  -1
M  END
>  <UniqueID>  (14) 
12

>  <SMILES>  (14) 
Cc1cc(C[N@@H+](C)CCn2ccnc2)[n-]n1

>  <Energy>  (14) 
90.17804223107447

>  <Genealogy>  (14) 
Cc1cc(C[NH+](C)CCn2ccnc2)[n-]n1 (protonated)
Cc1cc(C[N@@H+](C)CCn2ccnc2)[n-]n1 (chirality)
Cc1cc(C[N@@H+](C)CCn2ccnc2)[n-]n1 (3D coordinates assigned)
Cc1cc(C[N@@H+](C)CCn2ccnc2)[n-]n1 (optimized conformer: 90.17804223107447 kcal/mol)

>  <smiles>  (14) 
Cc1cc(CN(C)CCn2ccnc2)[nH]n1

>  <score_type>  (14) 
oracle

>  <origin>  (14) 
adgpu

>  <m_score__min__energy>  (14) 
-7.3899999999999997

>  <m_primary>  (14) 
energy

$$$$
14:0
     RDKit          3D

 42 44  0  0  0  0  0  0  0  0999 V2000
   -3.6820   16.5370  -33.8220 N   0  0  0  0  0  0  0  0  0  0  0  0
   -4.4830   17.9760  -34.3460 S   0  0  0  0  0  0  0  0  0  0  0  0
   -3.5100   19.1210  -34.3540 O   0  0  0  0  0  0  0  0  0  0  0  0
   -5.0090   17.7710  -35.7390 O   0  0  0  0  0  0  0  0  0  0  0  0
   -5.8060   18.3380  -33.2410 C   0  0  0  0  0  0  0  0  0  0  0  0
   -6.1260   17.4610  -32.1970 C   0  0  0  0  0  0  0  0  0  0  0  0
   -7.1780   17.7600  -31.3270 C   0  0  0  0  0  0  0  0  0  0  0  0
   -7.9060   18.9420  -31.4870 C   0  0  0  0  0  0  0  0  0  0  0  0
   -7.5730   19.8430  -32.5140 C   0  0  0  0  0  0  0  0  0  0  0  0
   -8.2970   21.0700  -32.7020 N   0  0  0  0  0  0  0  0  0  0  0  0
   -8.3110   22.1820  -31.7970 C   0  0  0  0  0  0  0  0  0  0  0  0
   -9.4200   22.5960  -31.3640 O   0  0  0  0  0  0  0  0  0  0  0  0
   -7.0680   22.8800  -31.3960 C   0  0  0  0  0  0  0  0  0  0  0  0
   -5.8170   22.3950  -31.8150 C   0  0  0  0  0  0  0  0  0  0  0  0
   -4.6460   23.0830  -31.4840 C   0  0  0  0  0  0  0  0  0  0  0  0
   -4.7070   24.2650  -30.7370 C   0  0  0  0  0  0  0  0  0  0  0  0
   -3.4930   24.9730  -30.4500 N   0  0  0  0  0  0  0  0  0  0  0  0
   -2.5150   24.5960  -29.4720 C   0  0  0  0  0  0  0  0  0  0  0  0
   -1.8100   25.4970  -28.9440 O   0  0  0  0  0  0  0  0  0  0  0  0
   -2.3420   23.1890  -29.0360 C   0  0  0  0  0  0  0  0  0  0  0  0
   -3.2520   22.5950  -28.1420 C   0  0  0  0  0  0  0  0  0  0  0  0
   -3.0870   21.2640  -27.7480 C   0  0  0  0  0  0  0  0  0  0  0  0
   -2.0110   20.5170  -28.2320 C   0  0  0  0  0  0  0  0  0  0  0  0
   -1.0910   21.1040  -29.1050 C   0  0  0  0  0  0  0  0  0  0  0  0
   -0.0420   20.3790  -29.5700 F   0  0  0  0  0  0  0  0  0  0  0  0
   -1.2500   22.4350  -29.5010 C   0  0  0  0  0  0  0  0  0  0  0  0
   -5.9500   24.7160  -30.2610 C   0  0  0  0  0  0  0  0  0  0  0  0
   -7.1210   24.0300  -30.5930 C   0  0  0  0  0  0  0  0  0  0  0  0
   -6.5360   19.5240  -33.4000 C   0  0  0  0  0  0  0  0  0  0  0  0
   -3.6850   15.8740  -34.6290 H   0  0  0  0  0  0  0  0  0  0  0  0
   -5.5481   16.5349  -32.0615 H   0  0  0  0  0  0  0  0  0  0  0  0
   -7.4335   17.0636  -30.5147 H   0  0  0  0  0  0  0  0  0  0  0  0
   -8.7414   19.1681  -30.8081 H   0  0  0  0  0  0  0  0  0  0  0  0
   -5.7592   21.4693  -32.4064 H   0  0  0  0  0  0  0  0  0  0  0  0
   -3.6712   22.6932  -31.8125 H   0  0  0  0  0  0  0  0  0  0  0  0
   -4.0971   23.1808  -27.7514 H   0  0  0  0  0  0  0  0  0  0  0  0
   -3.8066   20.8038  -27.0549 H   0  0  0  0  0  0  0  0  0  0  0  0
   -1.8877   19.4675  -27.9264 H   0  0  0  0  0  0  0  0  0  0  0  0
   -0.5170   22.8951  -30.1800 H   0  0  0  0  0  0  0  0  0  0  0  0
   -6.0011   25.6120  -29.6250 H   0  0  0  0  0  0  0  0  0  0  0  0
   -8.0909   24.3936  -30.2226 H   0  0  0  0  0  0  0  0  0  0  0  0
   -6.2929   20.2087  -34.2259 H   0  0  0  0  0  0  0  0  0  0  0  0
  1  2  1  0
  2  3  2  0
  2  4  2  0
  2  5  1  0
  5  6  2  0
  6  7  1  0
  7  8  2  0
  8  9  1  0
  9 10  1  0
 10 11  1  0
 11 12  2  0
 11 13  1  0
 13 14  2  0
 14 15  1  0
 15 16  2  0
 16 17  1  0
 17 18  1  0
 18 19  2  0
 18 20  1  0
 20 21  2  0
 21 22  1  0
 22 23  2  0
 23 24  1  0
 24 25  1  0
 24 26  2  0
 16 27  1  0
 27 28  2  0
  9 29  2  0
 29  5  1  0
 28 13  1  0
 26 20  1  0
  1 30  1  0
  6 31  1  0
  7 32  1  0
  8 33  1  0
 14 34  1  0
 15 35  1  0
 21 36  1  0
 22 37  1  0
 23 38  1  0
 26 39  1  0
 27 40  1  0
 28 41  1  0
 29 42  1  0
M  CHG  3   1  -1  10  -1  17  -1
M  END
>  <UniqueID>  (15) 
13

>  <SMILES>  (15) 
[NH-]S(=O)(=O)c1cccc([N-]C(=O)c2ccc([N-]C(=O)c3cccc(F)c3)cc2)c1

>  <Energy>  (15) 
57.30901103843692

>  <Genealogy>  (15) 
[NH-]S(=O)(=O)c1cccc([N-]C(=O)c2ccc([N-]C(=O)c3cccc(F)c3)cc2)c1 (protonated)
[NH-]S(=O)(=O)c1cccc([N-]C(=O)c2ccc([N-]C(=O)c3cccc(F)c3)cc2)c1 (3D coordinates assigned)
[NH-]S(=O)(=O)c1cccc([N-]C(=O)c2ccc([N-]C(=O)c3cccc(F)c3)cc2)c1 (optimized conformer: 57.30901103843692 kcal/mol)

>  <smiles>  (15) 
NS(=O)(=O)c1cccc(NC(=O)c2ccc(NC(=O)c3cccc(F)c3)cc2)c1

>  <score_type>  (15) 
oracle

>  <origin>  (15) 
adgpu

>  <m_score__min__energy>  (15) 
-11.85

>  <m_primary>  (15) 
energy

$$$$
15:0
     RDKit          3D

 29 30  0  0  0  0  0  0  0  0999 V2000
   -9.1290   22.4290  -31.8830 C   0  0  0  0  0  0  0  0  0  0  0  0
   -7.6320   22.5210  -31.8710 C   0  0  0  0  0  0  0  0  0  0  0  0
   -6.8590   21.5240  -32.4790 C   0  0  0  0  0  0  0  0  0  0  0  0
   -5.4680   21.6240  -32.4920 C   0  0  0  0  0  0  0  0  0  0  0  0
   -4.8250   22.7240  -31.9130 C   0  0  0  0  0  0  0  0  0  0  0  0
   -3.4290   22.7250  -31.8930 O   0  0  0  0  0  0  0  0  0  0  0  0
   -5.5970   23.7690  -31.3460 C   0  0  0  0  0  0  0  0  0  0  0  0
   -4.9910   25.0080  -30.8110 C   0  0  0  0  0  0  0  0  0  0  0  0
   -5.6880   26.0480  -30.6730 O   0  0  0  0  0  0  0  0  0  0  0  0
   -3.6040   25.0130  -30.4470 N   0  0  0  0  0  0  0  0  0  0  0  0
   -3.0180   24.3950  -29.2900 C   0  0  0  0  0  0  0  0  0  0  0  0
   -3.5710   23.2380  -28.7080 C   0  0  0  0  0  0  0  0  0  0  0  0
   -2.9590   22.6490  -27.5970 C   0  0  0  0  0  0  0  0  0  0  0  0
   -1.7890   23.1980  -27.0670 C   0  0  0  0  0  0  0  0  0  0  0  0
   -1.2210   24.3310  -27.6540 C   0  0  0  0  0  0  0  0  0  0  0  0
   -1.8290   24.9250  -28.7660 C   0  0  0  0  0  0  0  0  0  0  0  0
   -1.2490   26.0480  -29.3450 O   0  0  0  0  0  0  0  0  0  0  0  0
   -6.9990   23.6460  -31.3220 C   0  0  0  0  0  0  0  0  0  0  0  0
   -9.5032   22.4060  -30.8489 H   0  0  0  0  0  0  0  0  0  0  0  0
   -9.5459   23.3032  -32.4045 H   0  0  0  0  0  0  0  0  0  0  0  0
   -9.4357   21.5103  -32.4045 H   0  0  0  0  0  0  0  0  0  0  0  0
   -7.3507   20.6590  -32.9480 H   0  0  0  0  0  0  0  0  0  0  0  0
   -4.8698   20.8297  -32.9624 H   0  0  0  0  0  0  0  0  0  0  0  0
   -2.8790   23.3690  -31.3420 H   0  0  0  0  0  0  0  0  0  0  0  0
   -4.4866   22.7964  -29.1283 H   0  0  0  0  0  0  0  0  0  0  0  0
   -3.4001   21.7512  -27.1394 H   0  0  0  0  0  0  0  0  0  0  0  0
   -1.3150   22.7380  -26.1874 H   0  0  0  0  0  0  0  0  0  0  0  0
   -0.2945   24.7571  -27.2417 H   0  0  0  0  0  0  0  0  0  0  0  0
   -7.6061   24.4424  -30.8668 H   0  0  0  0  0  0  0  0  0  0  0  0
  1  2  1  0
  2  3  2  0
  3  4  1  0
  4  5  2  0
  5  6  1  0
  5  7  1  0
  7  8  1  0
  8  9  2  0
  8 10  1  0
 10 11  1  0
 11 12  2  0
 12 13  1  0
 13 14  2  0
 14 15  1  0
 15 16  2  0
 16 17  1  0
  7 18  2  0
 18  2  1  0
 16 11  1  0
  1 19  1  0
  1 20  1  0
  1 21  1  0
  3 22  1  0
  4 23  1  0
  6 24  1  0
 12 25  1  0
 13 26  1  0
 14 27  1  0
 15 28  1  0
 18 29  1  0
M  CHG  2  10  -1  17  -1
M  END
>  <UniqueID>  (16) 
14

>  <SMILES>  (16) 
Cc1ccc(O)c(C(=O)[N-]c2ccccc2[O-])c1

>  <Energy>  (16) 
38.44605500850362

>  <Genealogy>  (16) 
Cc1ccc(O)c(C(=O)[N-]c2ccccc2[O-])c1 (protonated)
Cc1ccc(O)c(C(=O)[N-]c2ccccc2[O-])c1 (3D coordinates assigned)
Cc1ccc(O)c(C(=O)[N-]c2ccccc2[O-])c1 (optimized conformer: 38.44605500850362 kcal/mol)

>  <smiles>  (16) 
Cc1ccc(O)c(C(=O)Nc2ccccc2O)c1

>  <score_type>  (16) 
oracle

>  <origin>  (16) 
adgpu

>  <m_score__min__energy>  (16) 
-11.609999999999999

>  <m_primary>  (16) 
energy

$$$$
16:0
     RDKit          3D

 34 36  0  0  0  0  0  0  0  0999 V2000
   -3.0320   24.0130  -27.0520 C   0  0  0  0  0  0  0  0  0  0  0  0
   -3.5880   24.1290  -28.4320 C   0  0  0  0  0  0  0  0  0  0  0  0
   -5.0240   23.4330  -28.9650 S   0  0  0  0  0  0  0  0  0  0  0  0
   -4.9110   24.1320  -30.4940 C   0  0  0  0  0  0  0  0  0  0  0  0
   -5.9410   24.0000  -31.5680 C   0  0  0  0  0  0  0  0  0  0  0  0
   -5.9730   22.5900  -32.0750 C   0  0  0  0  0  0  0  0  0  0  0  0
   -7.1160   21.7970  -31.9140 C   0  0  0  0  0  0  0  0  0  0  0  0
   -7.1030   20.4760  -32.3630 C   0  0  0  0  0  0  0  0  0  0  0  0
   -5.9520   19.9430  -32.9640 C   0  0  0  0  0  0  0  0  0  0  0  0
   -5.9230   18.5380  -33.4450 C   0  0  0  0  0  0  0  0  0  0  0  0
   -6.9300   17.6310  -33.0640 C   0  0  0  0  0  0  0  0  0  0  0  0
   -6.9000   16.3090  -33.5160 C   0  0  0  0  0  0  0  0  0  0  0  0
   -5.8690   15.8770  -34.3530 C   0  0  0  0  0  0  0  0  0  0  0  0
   -4.8630   16.7640  -34.7420 C   0  0  0  0  0  0  0  0  0  0  0  0
   -3.8420   16.3190  -35.5800 O   0  0  0  0  0  0  0  0  0  0  0  0
   -4.8880   18.0910  -34.2890 C   0  0  0  0  0  0  0  0  0  0  0  0
   -4.8240   20.7730  -33.0950 C   0  0  0  0  0  0  0  0  0  0  0  0
   -4.8610   22.0570  -32.6490 N   0  0  0  0  0  0  0  0  0  0  0  0
   -3.8180   24.9210  -30.6020 N   0  0  0  0  0  0  0  0  0  0  0  0
   -3.0850   24.9200  -29.4600 C   0  0  0  0  0  0  0  0  0  0  0  0
   -1.9220   25.6690  -29.3370 O   0  0  0  0  0  0  0  0  0  0  0  0
   -3.8342   24.1804  -26.3182 H   0  0  0  0  0  0  0  0  0  0  0  0
   -2.6094   23.0074  -26.9103 H   0  0  0  0  0  0  0  0  0  0  0  0
   -2.2425   24.7658  -26.9103 H   0  0  0  0  0  0  0  0  0  0  0  0
   -6.9283   24.2634  -31.1606 H   0  0  0  0  0  0  0  0  0  0  0  0
   -5.6877   24.6769  -32.3972 H   0  0  0  0  0  0  0  0  0  0  0  0
   -8.0164   22.2121  -31.4376 H   0  0  0  0  0  0  0  0  0  0  0  0
   -7.9992   19.8492  -32.2454 H   0  0  0  0  0  0  0  0  0  0  0  0
   -7.7459   17.9651  -32.4062 H   0  0  0  0  0  0  0  0  0  0  0  0
   -7.6904   15.6070  -33.2118 H   0  0  0  0  0  0  0  0  0  0  0  0
   -5.8493   14.8356  -34.7067 H   0  0  0  0  0  0  0  0  0  0  0  0
   -3.6890   16.7320  -36.4940 H   0  0  0  0  0  0  0  0  0  0  0  0
   -4.0936   18.7876  -34.5951 H   0  0  0  0  0  0  0  0  0  0  0  0
   -3.9075   20.3815  -33.5605 H   0  0  0  0  0  0  0  0  0  0  0  0
  1  2  1  0
  2  3  1  0
  3  4  1  0
  4  5  1  0
  5  6  1  0
  6  7  2  0
  7  8  1  0
  8  9  2  0
  9 10  1  0
 10 11  2  0
 11 12  1  0
 12 13  2  0
 13 14  1  0
 14 15  1  0
 14 16  2  0
  9 17  1  0
 17 18  2  0
  4 19  2  0
 19 20  1  0
 20 21  1  0
 20  2  2  0
 18  6  1  0
 16 10  1  0
  1 22  1  0
  1 23  1  0
  1 24  1  0
  5 25  1  0
  5 26  1  0
  7 27  1  0
  8 28  1  0
 11 29  1  0
 12 30  1  0
 13 31  1  0
 15 32  1  0
 16 33  1  0
 17 34  1  0
M  CHG  1  21  -1
M  END
>  <UniqueID>  (17) 
15

>  <SMILES>  (17) 
Cc1sc(Cc2ccc(-c3cccc(O)c3)cn2)nc1[O-]

>  <Energy>  (17) 
68.52143390662371

>  <Genealogy>  (17) 
Cc1sc(Cc2ccc(-c3cccc(O)c3)cn2)nc1[O-] (protonated)
Cc1sc(Cc2ccc(-c3cccc(O)c3)cn2)nc1[O-] (3D coordinates assigned)
Cc1sc(Cc2ccc(-c3cccc(O)c3)cn2)nc1[O-] (optimized conformer: 68.52143390662371 kcal/mol)

>  <smiles>  (17) 
Cc1sc(Cc2ccc(-c3cccc(O)c3)cn2)nc1O

>  <score_type>  (17) 
oracle

>  <origin>  (17) 
adgpu

>  <m_score__min__energy>  (17) 
-10.93

>  <m_primary>  (17) 
energy

$$$$
17:0
     RDKit          3D

 57 61  0  0  0  0  0  0  0  0999 V2000
    0.1650   21.5570  -33.0000 O   0  0  0  0  0  0  0  0  0  0  0  0
   -0.6630   21.1880  -32.1220 C   0  0  0  0  0  0  0  0  0  0  0  0
   -0.4060   21.4390  -30.7310 N   0  0  0  0  0  0  0  0  0  0  0  0
   -0.8240   20.6500  -29.6050 C   0  0  0  0  0  0  0  0  0  0  0  0
   -0.0950   19.5220  -29.1720 C   0  0  0  0  0  0  0  0  0  0  0  0
   -0.5190   18.7990  -28.0550 C   0  0  0  0  0  0  0  0  0  0  0  0
   -1.6750   19.1820  -27.3680 C   0  0  0  0  0  0  0  0  0  0  0  0
   -2.4180   20.2790  -27.8040 C   0  0  0  0  0  0  0  0  0  0  0  0
   -2.0080   21.0050  -28.9290 C   0  0  0  0  0  0  0  0  0  0  0  0
   -2.7670   22.1520  -29.3380 N   0  0  0  0  0  0  0  0  0  0  0  0
   -4.0170   21.9370  -30.0810 C   0  0  0  0  0  0  0  0  0  0  0  0
   -4.5060   23.2000  -30.8380 C   0  0  0  0  0  0  0  0  0  0  0  0
   -3.6000   24.2890  -30.7900 O   0  0  0  0  0  0  0  0  0  0  0  0
   -3.2480   24.5540  -29.4550 C   0  0  0  0  0  0  0  0  0  0  0  0
   -2.2700   23.4870  -28.9870 C   0  0  0  0  0  0  0  0  0  0  0  0
   -1.9270   20.5300  -32.5290 C   0  0  0  0  0  0  0  0  0  0  0  0
   -2.9940   21.2850  -33.0600 C   0  0  0  0  0  0  0  0  0  0  0  0
   -4.1720   20.6570  -33.4760 C   0  0  0  0  0  0  0  0  0  0  0  0
   -4.3030   19.2640  -33.3690 C   0  0  0  0  0  0  0  0  0  0  0  0
   -5.7550   18.4500  -33.9370 S   0  0  0  0  0  0  0  0  0  0  0  0
   -6.0940   18.9420  -35.3200 O   0  0  0  0  0  0  0  0  0  0  0  0
   -5.5490   16.9610  -33.9930 O   0  0  0  0  0  0  0  0  0  0  0  0
   -7.0640   18.8030  -32.8550 N   0  0  0  0  0  0  0  0  0  0  0  0
   -7.9730   17.8020  -32.2970 C   0  0  0  0  0  0  0  0  0  0  0  0
   -9.0130   18.5990  -31.4670 C   0  0  0  0  0  0  0  0  0  0  0  0
   -8.5900   20.0180  -31.6460 C   0  0  0  0  0  0  0  0  0  0  0  0
   -9.1780   21.1690  -31.1140 C   0  0  0  0  0  0  0  0  0  0  0  0
   -8.6140   22.4170  -31.4300 C   0  0  0  0  0  0  0  0  0  0  0  0
   -7.4820   22.4930  -32.2660 C   0  0  0  0  0  0  0  0  0  0  0  0
   -6.9050   21.3200  -32.7850 C   0  0  0  0  0  0  0  0  0  0  0  0
   -7.4850   20.0930  -32.4500 C   0  0  0  0  0  0  0  0  0  0  0  0
   -3.2550   18.5090  -32.8310 C   0  0  0  0  0  0  0  0  0  0  0  0
   -2.0770   19.1340  -32.4090 C   0  0  0  0  0  0  0  0  0  0  0  0
    0.8094   19.2115  -29.7156 H   0  0  0  0  0  0  0  0  0  0  0  0
    0.0577   17.9263  -27.7149 H   0  0  0  0  0  0  0  0  0  0  0  0
   -1.9992   18.6169  -26.4817 H   0  0  0  0  0  0  0  0  0  0  0  0
   -3.3287   20.5747  -27.2625 H   0  0  0  0  0  0  0  0  0  0  0  0
   -3.8540   21.1324  -30.8131 H   0  0  0  0  0  0  0  0  0  0  0  0
   -4.7926   21.6773  -29.3455 H   0  0  0  0  0  0  0  0  0  0  0  0
   -4.6670   22.9305  -31.8922 H   0  0  0  0  0  0  0  0  0  0  0  0
   -5.4286   23.5320  -30.3394 H   0  0  0  0  0  0  0  0  0  0  0  0
   -2.7753   25.5449  -29.3866 H   0  0  0  0  0  0  0  0  0  0  0  0
   -4.1469   24.5421  -28.8211 H   0  0  0  0  0  0  0  0  0  0  0  0
   -1.2957   23.6504  -29.4709 H   0  0  0  0  0  0  0  0  0  0  0  0
   -2.1637   23.5535  -27.8942 H   0  0  0  0  0  0  0  0  0  0  0  0
   -2.8983   22.3773  -33.1475 H   0  0  0  0  0  0  0  0  0  0  0  0
   -4.9975   21.2560  -33.8879 H   0  0  0  0  0  0  0  0  0  0  0  0
   -8.4715   17.2442  -33.1034 H   0  0  0  0  0  0  0  0  0  0  0  0
   -7.4378   17.0656  -31.6795 H   0  0  0  0  0  0  0  0  0  0  0  0
  -10.0301   18.4403  -31.8548 H   0  0  0  0  0  0  0  0  0  0  0  0
   -9.0439   18.2917  -30.4112 H   0  0  0  0  0  0  0  0  0  0  0  0
  -10.0619   21.0997  -30.4629 H   0  0  0  0  0  0  0  0  0  0  0  0
   -9.0578   23.3377  -31.0233 H   0  0  0  0  0  0  0  0  0  0  0  0
   -7.0482   23.4731  -32.5135 H   0  0  0  0  0  0  0  0  0  0  0  0
   -6.0206   21.3669  -33.4374 H   0  0  0  0  0  0  0  0  0  0  0  0
   -3.3581   17.4177  -32.7394 H   0  0  0  0  0  0  0  0  0  0  0  0
   -1.2623   18.5318  -31.9806 H   0  0  0  0  0  0  0  0  0  0  0  0
  1  2  2  0
  2  3  1  0
  3  4  1  0
  4  5  2  0
  5  6  1  0
  6  7  2  0
  7  8  1  0
  8  9  2  0
  9 10  1  0
 10 11  1  0
 11 12  1  0
 12 13  1  0
 13 14  1  0
 14 15  1  0
  2 16  1  0
 16 17  2  0
 17 18  1  0
 18 19  2  0
 19 20  1  0
 20 21  2  0
 20 22  2  0
 20 23  1  0
 23 24  1  0
 24 25  1  0
 25 26  1  0
 26 27  2  0
 27 28  1  0
 28 29  2  0
 29 30  1  0
 30 31  2  0
 19 32  1  0
 32 33  2  0
  9  4  1  0
 15 10  1  0
 33 16  1  0
 31 23  1  0
 31 26  1  0
  5 34  1  0
  6 35  1  0
  7 36  1  0
  8 37  1  0
 11 38  1  0
 11 39  1  0
 12 40  1  0
 12 41  1  0
 14 42  1  0
 14 43  1  0
 15 44  1  0
 15 45  1  0
 17 46  1  0
 18 47  1  0
 24 48  1  0
 24 49  1  0
 25 50  1  0
 25 51  1  0
 27 52  1  0
 28 53  1  0
 29 54  1  0
 30 55  1  0
 32 56  1  0
 33 57  1  0
M  CHG  1   3  -1
M  END
>  <UniqueID>  (18) 
16

>  <SMILES>  (18) 
O=C([N-]c1ccccc1N1CCOCC1)c1ccc(S(=O)(=O)N2CCc3ccccc32)cc1

>  <Energy>  (18) 
92.75904024108252

>  <Genealogy>  (18) 
O=C([N-]c1ccccc1N1CCOCC1)c1ccc(S(=O)(=O)N2CCc3ccccc32)cc1 (protonated)
O=C([N-]c1ccccc1N1CCOCC1)c1ccc(S(=O)(=O)N2CCc3ccccc32)cc1 (3D coordinates assigned)
O=C([N-]c1ccccc1N1CCOCC1)c1ccc(S(=O)(=O)N2CCc3ccccc32)cc1 (nonaromatic ring conformer: 92.75904024108252 kcal/mol)

>  <smiles>  (18) 
O=C(Nc1ccccc1N1CCOCC1)c1ccc(S(=O)(=O)N2CCc3ccccc32)cc1

>  <score_type>  (18) 
oracle

>  <origin>  (18) 
adgpu

>  <m_score__min__energy>  (18) 
-11.9

>  <m_primary>  (18) 
energy

$$$$
18:0
     RDKit          3D

 65 67  0  0  0  0  0  0  0  0999 V2000
   -7.2440   22.3160  -30.3310 C   0  0  0  0  0  0  0  0  0  0  0  0
   -6.3290   23.1540  -31.2290 C   0  0  0  0  0  0  0  0  0  0  0  0
   -6.9800   23.4080  -32.5930 C   0  0  0  0  0  0  0  0  0  0  0  0
   -4.9980   22.5210  -31.3690 N   0  0  0  0  0  0  0  0  0  0  0  0
   -3.9670   22.7670  -30.3860 C   0  0  0  0  0  0  0  0  0  0  0  0
   -3.4990   24.0690  -30.1570 C   0  0  0  0  0  0  0  0  0  0  0  0
   -4.0340   25.1140  -30.8370 F   0  0  0  0  0  0  0  0  0  0  0  0
   -2.4910   24.2880  -29.2030 C   0  0  0  0  0  0  0  0  0  0  0  0
   -1.9760   25.5670  -28.9560 O   0  0  0  0  0  0  0  0  0  0  0  0
   -1.4410   25.9910  -27.7310 C   0  0  0  0  0  0  0  0  0  0  0  0
   -0.3710   26.8910  -27.7370 C   0  0  0  0  0  0  0  0  0  0  0  0
    0.1940   27.3300  -26.5360 C   0  0  0  0  0  0  0  0  0  0  0  0
   -0.3100   26.8800  -25.3030 C   0  0  0  0  0  0  0  0  0  0  0  0
    0.2810   27.3430  -24.0210 C   0  0  0  0  0  0  0  0  0  0  0  0
    0.3350   28.7430  -23.7230 N   0  0  0  0  0  0  0  0  0  0  0  0
    0.7470   26.4890  -23.1580 N   0  0  0  0  0  0  0  0  0  0  0  0
   -1.4040   25.9970  -25.3000 C   0  0  0  0  0  0  0  0  0  0  0  0
   -1.9710   25.5630  -26.5010 C   0  0  0  0  0  0  0  0  0  0  0  0
   -2.0170   23.2410  -28.4780 N   0  0  0  0  0  0  0  0  0  0  0  0
   -2.4440   21.9640  -28.6800 C   0  0  0  0  0  0  0  0  0  0  0  0
   -1.9470   20.9020  -27.9120 O   0  0  0  0  0  0  0  0  0  0  0  0
   -1.0940   19.8880  -28.3720 C   0  0  0  0  0  0  0  0  0  0  0  0
   -0.6290   18.8580  -27.5360 C   0  0  0  0  0  0  0  0  0  0  0  0
    0.2170   17.8690  -28.0460 C   0  0  0  0  0  0  0  0  0  0  0  0
    0.6170   17.9040  -29.3840 C   0  0  0  0  0  0  0  0  0  0  0  0
    0.1880   18.9470  -30.2240 C   0  0  0  0  0  0  0  0  0  0  0  0
    0.6320   19.0170  -31.6380 C   0  0  0  0  0  0  0  0  0  0  0  0
    0.6460   20.2790  -32.3170 N   0  0  0  0  0  0  0  0  0  0  0  0
    0.9990   17.9410  -32.2710 N   0  0  0  0  0  0  0  0  0  0  0  0
   -0.6620   19.9380  -29.7040 C   0  0  0  0  0  0  0  0  0  0  0  0
   -3.4240   21.7070  -29.6420 C   0  0  0  0  0  0  0  0  0  0  0  0
   -3.8550   20.4350  -29.8340 F   0  0  0  0  0  0  0  0  0  0  0  0
   -4.7220   21.6390  -32.5260 C   0  0  0  0  0  0  0  0  0  0  0  0
   -5.3220   20.2460  -32.3080 C   0  0  0  0  0  0  0  0  0  0  0  0
   -3.2180   21.5460  -32.8190 C   0  0  0  0  0  0  0  0  0  0  0  0
   -7.0146   22.5261  -29.2759 H   0  0  0  0  0  0  0  0  0  0  0  0
   -8.2939   22.5724  -30.5361 H   0  0  0  0  0  0  0  0  0  0  0  0
   -7.0807   21.2477  -30.5361 H   0  0  0  0  0  0  0  0  0  0  0  0
   -6.1801   24.1318  -30.7476 H   0  0  0  0  0  0  0  0  0  0  0  0
   -7.9956   23.8043  -32.4465 H   0  0  0  0  0  0  0  0  0  0  0  0
   -6.3794   24.1377  -33.1558 H   0  0  0  0  0  0  0  0  0  0  0  0
   -7.0323   22.4643  -33.1558 H   0  0  0  0  0  0  0  0  0  0  0  0
    0.0293   27.2565  -28.6942 H   0  0  0  0  0  0  0  0  0  0  0  0
    1.0397   28.0331  -26.5558 H   0  0  0  0  0  0  0  0  0  0  0  0
    0.7150   29.0810  -22.8110 H   0  0  0  0  0  0  0  0  0  0  0  0
    0.0280   29.4560  -24.4210 H   0  0  0  0  0  0  0  0  0  0  0  0
    0.6980   25.4590  -23.3210 H   0  0  0  0  0  0  0  0  0  0  0  0
    1.1670   26.8150  -22.2590 H   0  0  0  0  0  0  0  0  0  0  0  0
   -1.8173   25.6446  -24.3435 H   0  0  0  0  0  0  0  0  0  0  0  0
   -2.8358   24.8835  -26.4842 H   0  0  0  0  0  0  0  0  0  0  0  0
   -0.9314   18.8302  -26.4787 H   0  0  0  0  0  0  0  0  0  0  0  0
    0.5695   17.0591  -27.3905 H   0  0  0  0  0  0  0  0  0  0  0  0
    1.2697   17.1130  -29.7818 H   0  0  0  0  0  0  0  0  0  0  0  0
    0.4780   21.1690  -31.8020 H   0  0  0  0  0  0  0  0  0  0  0  0
    0.8880   20.3350  -33.3320 H   0  0  0  0  0  0  0  0  0  0  0  0
    0.9660   16.9980  -31.8180 H   0  0  0  0  0  0  0  0  0  0  0  0
    1.3150   17.9890  -33.2650 H   0  0  0  0  0  0  0  0  0  0  0  0
   -0.9925   20.7638  -30.3512 H   0  0  0  0  0  0  0  0  0  0  0  0
   -5.2047   22.0884  -33.4064 H   0  0  0  0  0  0  0  0  0  0  0  0
   -5.4072   20.0482  -31.2293 H   0  0  0  0  0  0  0  0  0  0  0  0
   -6.3196   20.2002  -32.7691 H   0  0  0  0  0  0  0  0  0  0  0  0
   -4.6699   19.4896  -32.7691 H   0  0  0  0  0  0  0  0  0  0  0  0
   -2.6612   21.5116  -31.8710 H   0  0  0  0  0  0  0  0  0  0  0  0
   -3.0130   20.6335  -33.3980 H   0  0  0  0  0  0  0  0  0  0  0  0
   -2.9021   22.4263  -33.3980 H   0  0  0  0  0  0  0  0  0  0  0  0
  1  2  1  0
  2  3  1  0
  2  4  1  0
  4  5  1  0
  5  6  2  0
  6  7  1  0
  6  8  1  0
  8  9  1  0
  9 10  1  0
 10 11  2  0
 11 12  1  0
 12 13  2  0
 13 14  1  0
 14 15  1  0
 14 16  2  0
 13 17  1  0
 17 18  2  0
  8 19  2  0
 19 20  1  0
 20 21  1  0
 21 22  1  0
 22 23  2  0
 23 24  1  0
 24 25  2  0
 25 26  1  0
 26 27  1  0
 27 28  1  0
 27 29  2  0
 26 30  2  0
 20 31  2  0
 31 32  1  0
  4 33  1  0
 33 34  1  0
 33 35  1  0
 31  5  1  0
 18 10  1  0
 30 22  1  0
  1 36  1  0
  1 37  1  0
  1 38  1  0
  2 39  1  0
  3 40  1  0
  3 41  1  0
  3 42  1  0
 11 43  1  0
 12 44  1  0
 15 45  1  0
 15 46  1  0
 16 47  1  0
 16 48  1  0
 17 49  1  0
 18 50  1  0
 23 51  1  0
 24 52  1  0
 25 53  1  0
 28 54  1  0
 28 55  1  0
 29 56  1  0
 29 57  1  0
 30 58  1  0
 33 59  1  0
 34 60  1  0
 34 61  1  0
 34 62  1  0
 35 63  1  0
 35 64  1  0
 35 65  1  0
M  CHG  2  16   1  29   1
M  END
>  <UniqueID>  (19) 
17

>  <SMILES>  (19) 
CC(C)N(c1c(F)c(Oc2ccc(C(N)=[NH2+])cc2)nc(Oc2cccc(C(N)=[NH2+])c2)c1F)C(C)C

>  <Energy>  (19) 
81.66337076842136

>  <Genealogy>  (19) 
CC(C)N(c1c(F)c(Oc2ccc(C(N)=[NH2+])cc2)nc(Oc2cccc(C(N)=[NH2+])c2)c1F)C(C)C (protonated)
CC(C)N(c1c(F)c(Oc2ccc(C(N)=[NH2+])cc2)nc(Oc2cccc(C(N)=[NH2+])c2)c1F)C(C)C (3D coordinates assigned)
CC(C)N(c1c(F)c(Oc2ccc(C(N)=[NH2+])cc2)nc(Oc2cccc(C(N)=[NH2+])c2)c1F)C(C)C (optimized conformer: 81.66337076842136 kcal/mol)

>  <smiles>  (19) 
CC(C)N(c1c(F)c(Oc2ccc(C(=N)N)cc2)nc(Oc2cccc(C(=N)N)c2)c1F)C(C)C

>  <score_type>  (19) 
oracle

>  <origin>  (19) 
adgpu

>  <m_score__min__energy>  (19) 
-10.119999999999999

>  <m_primary>  (19) 
energy

$$$$
19:0
     RDKit          3D

 53 56  0  0  0  0  0  0  0  0999 V2000
   -6.4270   17.3060  -31.9940 C   0  0  0  0  0  0  0  0  0  0  0  0
   -7.1230   18.2560  -32.9810 C   0  0  2  0  0  0  0  0  0  0  0  0
   -6.1540   19.3510  -33.5000 C   0  0  0  0  0  0  0  0  0  0  0  0
   -6.5150   20.7600  -32.9980 C   0  0  0  0  0  0  0  0  0  0  0  0
   -6.8870   20.7320  -31.5650 N   0  0  1  0  0  0  0  0  0  0  0  0
   -7.0250   22.0660  -31.0020 C   0  0  0  0  0  0  0  0  0  0  0  0
   -8.1820   22.4940  -30.7320 O   0  0  0  0  0  0  0  0  0  0  0  0
   -5.8660   22.9500  -30.7030 C   0  0  0  0  0  0  0  0  0  0  0  0
   -6.0760   24.1330  -29.9770 C   0  0  0  0  0  0  0  0  0  0  0  0
   -4.9930   24.9270  -29.5860 C   0  0  0  0  0  0  0  0  0  0  0  0
   -3.6880   24.5510  -29.9170 C   0  0  0  0  0  0  0  0  0  0  0  0
   -2.5890   25.2730  -29.3470 N   0  0  0  0  0  0  0  0  0  0  0  0
   -1.7090   24.7230  -27.9560 S   0  0  0  0  0  0  0  0  0  0  0  0
   -2.3690   25.2400  -26.7100 O   0  0  0  0  0  0  0  0  0  0  0  0
   -0.3010   25.2470  -28.0310 O   0  0  0  0  0  0  0  0  0  0  0  0
   -1.7120   22.9590  -27.9150 C   0  0  0  0  0  0  0  0  0  0  0  0
   -2.8820   22.2580  -27.5900 C   0  0  0  0  0  0  0  0  0  0  0  0
   -2.8520   20.8710  -27.4300 C   0  0  0  0  0  0  0  0  0  0  0  0
   -1.6480   20.1680  -27.5810 C   0  0  0  0  0  0  0  0  0  0  0  0
   -1.5970   18.7800  -27.3820 C   0  0  0  0  0  0  0  0  0  0  0  0
   -0.3860   18.0950  -27.5190 C   0  0  0  0  0  0  0  0  0  0  0  0
    0.7800   18.7880  -27.8530 C   0  0  0  0  0  0  0  0  0  0  0  0
    0.7430   20.1700  -28.0560 C   0  0  0  0  0  0  0  0  0  0  0  0
   -0.4670   20.8700  -27.9250 C   0  0  0  0  0  0  0  0  0  0  0  0
   -0.5140   22.2580  -28.1080 C   0  0  0  0  0  0  0  0  0  0  0  0
   -3.4830   23.4240  -30.7290 C   0  0  0  0  0  0  0  0  0  0  0  0
   -4.5610   22.6280  -31.1150 C   0  0  0  0  0  0  0  0  0  0  0  0
   -8.0850   19.9000  -31.2700 C   0  0  0  0  0  0  0  0  0  0  0  0
   -8.3990   18.8630  -32.3660 C   0  0  0  0  0  0  0  0  0  0  0  0
   -6.6546   17.6167  -30.9636 H   0  0  0  0  0  0  0  0  0  0  0  0
   -6.7886   16.2798  -32.1559 H   0  0  0  0  0  0  0  0  0  0  0  0
   -5.3396   17.3414  -32.1559 H   0  0  0  0  0  0  0  0  0  0  0  0
   -7.4310   17.6616  -33.8538 H   0  0  0  0  0  0  0  0  0  0  0  0
   -5.1363   19.1080  -33.1606 H   0  0  0  0  0  0  0  0  0  0  0  0
   -6.2288   19.3634  -34.5974 H   0  0  0  0  0  0  0  0  0  0  0  0
   -5.6476   21.4231  -33.1319 H   0  0  0  0  0  0  0  0  0  0  0  0
   -7.3744   21.1294  -33.5767 H   0  0  0  0  0  0  0  0  0  0  0  0
   -6.0760   20.2910  -31.0680 H   0  0  0  0  0  0  0  0  0  0  0  0
   -7.0996   24.4377  -29.7137 H   0  0  0  0  0  0  0  0  0  0  0  0
   -5.1689   25.8510  -29.0157 H   0  0  0  0  0  0  0  0  0  0  0  0
   -3.8284   22.8034  -27.4604 H   0  0  0  0  0  0  0  0  0  0  0  0
   -3.7765   20.3278  -27.1846 H   0  0  0  0  0  0  0  0  0  0  0  0
   -2.5119   18.2296  -27.1176 H   0  0  0  0  0  0  0  0  0  0  0  0
   -0.3512   17.0066  -27.3633 H   0  0  0  0  0  0  0  0  0  0  0  0
    1.7304   18.2440  -27.9565 H   0  0  0  0  0  0  0  0  0  0  0  0
    1.6641   20.7108  -28.3191 H   0  0  0  0  0  0  0  0  0  0  0  0
    0.3952   22.8012  -28.4051 H   0  0  0  0  0  0  0  0  0  0  0  0
   -2.4666   23.1676  -31.0625 H   0  0  0  0  0  0  0  0  0  0  0  0
   -4.3893   21.7431  -31.7454 H   0  0  0  0  0  0  0  0  0  0  0  0
   -7.9132   19.3655  -30.3241 H   0  0  0  0  0  0  0  0  0  0  0  0
   -8.9463   20.5819  -31.2138 H   0  0  0  0  0  0  0  0  0  0  0  0
   -8.9987   18.0531  -31.9251 H   0  0  0  0  0  0  0  0  0  0  0  0
   -8.9469   19.3780  -33.1689 H   0  0  0  0  0  0  0  0  0  0  0  0
  1  2  1  0
  2  3  1  0
  3  4  1  0
  4  5  1  0
  5  6  1  0
  6  7  2  0
  6  8  1  0
  8  9  2  0
  9 10  1  0
 10 11  2  0
 11 12  1  0
 12 13  1  0
 13 14  2  0
 13 15  2  0
 13 16  1  0
 16 17  2  0
 17 18  1  0
 18 19  2  0
 19 20  1  0
 20 21  2  0
 21 22  1  0
 22 23  2  0
 23 24  1  0
 24 25  2  0
 11 26  1  0
 26 27  2  0
  5 28  1  0
 28 29  1  0
 29  2  1  0
 27  8  1  0
 25 16  1  0
 24 19  1  0
  1 30  1  0
  1 31  1  0
  1 32  1  0
  2 33  1  6
  3 34  1  0
  3 35  1  0
  4 36  1  0
  4 37  1  0
  5 38  1  1
  9 39  1  0
 10 40  1  0
 17 41  1  0
 18 42  1  0
 20 43  1  0
 21 44  1  0
 22 45  1  0
 23 46  1  0
 25 47  1  0
 26 48  1  0
 27 49  1  0
 28 50  1  0
 28 51  1  0
 29 52  1  0
 29 53  1  0
M  CHG  2   5   1  12  -1
M  END
>  <UniqueID>  (20) 
18

>  <SMILES>  (20) 
CC1CC[NH+](C(=O)c2ccc([N-]S(=O)(=O)c3ccc4ccccc4c3)cc2)CC1

>  <Energy>  (20) 
75.26446827791291

>  <Genealogy>  (20) 
CC1CC[NH+](C(=O)c2ccc([N-]S(=O)(=O)c3ccc4ccccc4c3)cc2)CC1 (protonated)
CC1CC[NH+](C(=O)c2ccc([N-]S(=O)(=O)c3ccc4ccccc4c3)cc2)CC1 (3D coordinates assigned)
CC1CC[NH+](C(=O)c2ccc([N-]S(=O)(=O)c3ccc4ccccc4c3)cc2)CC1 (nonaromatic ring conformer: 75.26446827791291 kcal/mol)

>  <smiles>  (20) 
CC1CCN(C(=O)c2ccc(NS(=O)(=O)c3ccc4ccccc4c3)cc2)CC1

>  <score_type>  (20) 
oracle

>  <origin>  (20) 
adgpu

>  <m_score__min__energy>  (20) 
-11.99

>  <m_primary>  (20) 
energy

$$$$
20:0
     RDKit          3D

 46 48  0  0  0  0  0  0  0  0999 V2000
   -1.9470   20.4440  -33.6770 C   0  0  0  0  0  0  0  0  0  0  0  0
   -1.5160   20.1070  -32.3240 N   0  0  0  0  0  0  0  0  0  0  0  0
   -0.6630   19.1300  -32.0520 N   0  0  0  0  0  0  0  0  0  0  0  0
   -0.4780   19.1060  -30.7170 C   0  0  0  0  0  0  0  0  0  0  0  0
   -1.2360   20.1000  -30.1300 C   0  0  0  0  0  0  0  0  0  0  0  0
   -1.4090   20.4540  -28.2640 Br  0  0  0  0  0  0  0  0  0  0  0  0
   -1.8850   20.7190  -31.1810 C   0  0  0  0  0  0  0  0  0  0  0  0
   -2.8610   21.8230  -31.0780 C   0  0  0  0  0  0  0  0  0  0  0  0
   -4.1830   21.5950  -31.4910 C   0  0  0  0  0  0  0  0  0  0  0  0
   -5.1580   22.5960  -31.3560 C   0  0  0  0  0  0  0  0  0  0  0  0
   -6.5210   22.3570  -31.7430 N   0  0  0  0  0  0  0  0  0  0  0  0
   -7.0760   21.0510  -31.9770 C   0  0  0  0  0  0  0  0  0  0  0  0
   -8.3850   20.7750  -31.5600 C   0  0  0  0  0  0  0  0  0  0  0  0
   -8.9590   19.5280  -31.8150 C   0  0  0  0  0  0  0  0  0  0  0  0
   -8.2360   18.5510  -32.5040 C   0  0  0  0  0  0  0  0  0  0  0  0
   -6.9320   18.8170  -32.9400 C   0  0  0  0  0  0  0  0  0  0  0  0
   -6.0460   17.6140  -33.8740 S   0  0  0  0  0  0  0  0  0  0  0  0
   -6.0720   17.9910  -35.3300 O   0  0  0  0  0  0  0  0  0  0  0  0
   -6.6950   16.2710  -33.6960 O   0  0  0  0  0  0  0  0  0  0  0  0
   -4.4060   17.5620  -33.3050 N   0  0  0  0  0  0  0  0  0  0  0  0
   -3.3810   17.1930  -34.0260 C   0  0  0  0  0  0  0  0  0  0  0  0
   -3.5220   16.8040  -35.3990 N   0  0  0  0  0  0  0  0  0  0  0  0
   -2.0770   17.1760  -33.4390 N   0  0  0  0  0  0  0  0  0  0  0  0
   -6.3560   20.0690  -32.6820 C   0  0  0  0  0  0  0  0  0  0  0  0
   -4.8120   23.8150  -30.7660 C   0  0  0  0  0  0  0  0  0  0  0  0
   -3.4950   24.0580  -30.3630 C   0  0  0  0  0  0  0  0  0  0  0  0
   -3.1660   25.2840  -29.8010 O   0  0  0  0  0  0  0  0  0  0  0  0
   -2.5110   23.0740  -30.5260 C   0  0  0  0  0  0  0  0  0  0  0  0
   -1.1990   23.3700  -30.1480 O   0  0  0  0  0  0  0  0  0  0  0  0
   -2.8127   21.1209  -33.6281 H   0  0  0  0  0  0  0  0  0  0  0  0
   -1.1234   20.9401  -34.2113 H   0  0  0  0  0  0  0  0  0  0  0  0
   -2.2298   19.5250  -34.2113 H   0  0  0  0  0  0  0  0  0  0  0  0
    0.1754   18.4036  -30.1787 H   0  0  0  0  0  0  0  0  0  0  0  0
   -4.4578   20.6222  -31.9248 H   0  0  0  0  0  0  0  0  0  0  0  0
   -7.1510   23.1830  -31.8560 H   0  0  0  0  0  0  0  0  0  0  0  0
   -8.9636   21.5451  -31.0288 H   0  0  0  0  0  0  0  0  0  0  0  0
   -9.9824   19.3144  -31.4728 H   0  0  0  0  0  0  0  0  0  0  0  0
   -8.6922   17.5703  -32.7045 H   0  0  0  0  0  0  0  0  0  0  0  0
   -4.2530   17.8370  -32.3080 H   0  0  0  0  0  0  0  0  0  0  0  0
   -2.6730   16.5500  -35.9520 H   0  0  0  0  0  0  0  0  0  0  0  0
   -4.4400   16.7740  -35.8910 H   0  0  0  0  0  0  0  0  0  0  0  0
   -1.9350   17.4430  -32.4390 H   0  0  0  0  0  0  0  0  0  0  0  0
   -1.2460   16.9010  -34.0030 H   0  0  0  0  0  0  0  0  0  0  0  0
   -5.3359   20.2847  -33.0326 H   0  0  0  0  0  0  0  0  0  0  0  0
   -5.5804   24.5880  -30.6177 H   0  0  0  0  0  0  0  0  0  0  0  0
   -0.8490   24.3170  -30.0780 H   0  0  0  0  0  0  0  0  0  0  0  0
  1  2  1  0
  2  3  1  0
  3  4  2  0
  4  5  1  0
  5  6  1  0
  5  7  2  0
  7  8  1  0
  8  9  2  0
  9 10  1  0
 10 11  1  0
 11 12  1  0
 12 13  2  0
 13 14  1  0
 14 15  2  0
 15 16  1  0
 16 17  1  0
 17 18  2  0
 17 19  2  0
 17 20  1  0
 20 21  2  3
 21 22  1  0
 21 23  1  0
 16 24  2  0
 10 25  2  0
 25 26  1  0
 26 27  1  0
 26 28  2  0
 28 29  1  0
  7  2  1  0
 28  8  1  0
 24 12  1  0
  1 30  1  0
  1 31  1  0
  1 32  1  0
  4 33  1  0
  9 34  1  0
 11 35  1  0
 13 36  1  0
 14 37  1  0
 15 38  1  0
 20 39  1  0
 22 40  1  0
 22 41  1  0
 23 42  1  0
 23 43  1  0
 24 44  1  0
 25 45  1  0
 29 46  1  0
M  CHG  2  20   1  27  -1
M  END
>  <UniqueID>  (21) 
19

>  <SMILES>  (21) 
Cn1ncc(Br)c1-c1cc(Nc2cccc(S(=O)(=O)[NH+]=C(N)N)c2)cc([O-])c1O

>  <Energy>  (21) 
91.28924869458541

>  <Genealogy>  (21) 
Cn1ncc(Br)c1-c1cc(Nc2cccc(S(=O)(=O)[NH+]=C(N)N)c2)cc([O-])c1O (protonated)
Cn1ncc(Br)c1-c1cc(Nc2cccc(S(=O)(=O)[NH+]=C(N)N)c2)cc([O-])c1O (3D coordinates assigned)
Cn1ncc(Br)c1-c1cc(Nc2cccc(S(=O)(=O)[NH+]=C(N)N)c2)cc([O-])c1O (optimized conformer: 91.28924869458541 kcal/mol)

>  <smiles>  (21) 
Cn1ncc(Br)c1-c1cc(Nc2cccc(S(=O)(=O)N=C(N)N)c2)cc(O)c1O

>  <score_type>  (21) 
oracle

>  <origin>  (21) 
adgpu

>  <m_score__min__energy>  (21) 
-12.26

>  <m_primary>  (21) 
energy

$$$$
21:0
     RDKit          3D

 44 46  0  0  0  0  0  0  0  0999 V2000
   -2.3770   25.2950  -29.3340 N   0  0  0  0  0  0  0  0  0  0  0  0
   -1.4630   24.2990  -28.8800 C   0  0  0  0  0  0  0  0  0  0  0  0
   -0.5610   24.6150  -28.0590 O   0  0  0  0  0  0  0  0  0  0  0  0
   -1.5220   22.9250  -29.4190 C   0  0  0  0  0  0  0  0  0  0  0  0
   -2.5520   22.6000  -30.3220 C   0  0  0  0  0  0  0  0  0  0  0  0
   -2.7010   21.2910  -30.8110 C   0  0  0  0  0  0  0  0  0  0  0  0
   -3.7900   20.9400  -31.7560 C   0  0  0  0  0  0  0  0  0  0  0  0
   -4.8610   20.0950  -31.5240 C   0  0  0  0  0  0  0  0  0  0  0  0
   -5.5690   20.1270  -32.7070 C   0  0  0  0  0  0  0  0  0  0  0  0
   -6.8130   19.3880  -32.9940 C   0  0  0  0  0  0  0  0  0  0  0  0
   -6.7810   18.1300  -33.0170 O   0  0  0  0  0  0  0  0  0  0  0  0
   -8.0650   20.0470  -33.2370 N   0  0  0  0  0  0  0  0  0  0  0  0
   -8.7740   20.9290  -32.3140 C   0  0  0  0  0  0  0  0  0  0  0  0
   -7.8440   21.9560  -31.7210 C   0  0  0  0  0  0  0  0  0  0  0  0
   -7.5430   21.9360  -30.3500 C   0  0  0  0  0  0  0  0  0  0  0  0
   -6.6710   22.8830  -29.8030 C   0  0  0  0  0  0  0  0  0  0  0  0
   -6.1030   23.8820  -30.6140 C   0  0  0  0  0  0  0  0  0  0  0  0
   -5.1640   24.8830  -30.0430 C   0  0  0  0  0  0  0  0  0  0  0  0
   -4.9300   24.9150  -28.6290 N   0  0  0  0  0  0  0  0  0  0  0  0
   -4.5420   25.7270  -30.8120 N   0  0  0  0  0  0  0  0  0  0  0  0
   -6.4300   23.9160  -31.9790 C   0  0  0  0  0  0  0  0  0  0  0  0
   -7.2980   22.9670  -32.5260 C   0  0  0  0  0  0  0  0  0  0  0  0
   -4.9460   20.9170  -33.5480 O   0  0  0  0  0  0  0  0  0  0  0  0
   -3.8740   21.4230  -33.0130 N   0  0  0  0  0  0  0  0  0  0  0  0
   -1.7970   20.3030  -30.3900 C   0  0  0  0  0  0  0  0  0  0  0  0
   -0.7630   20.6190  -29.5100 C   0  0  0  0  0  0  0  0  0  0  0  0
   -0.6010   21.9230  -29.0340 C   0  0  0  0  0  0  0  0  0  0  0  0
    0.4990   22.1890  -28.2160 O   0  0  0  0  0  0  0  0  0  0  0  0
   -2.6820   25.3300  -30.3310 H   0  0  0  0  0  0  0  0  0  0  0  0
   -3.2513   23.3832  -30.6500 H   0  0  0  0  0  0  0  0  0  0  0  0
   -5.0934   19.5297  -30.6094 H   0  0  0  0  0  0  0  0  0  0  0  0
   -9.5792   21.4450  -32.8575 H   0  0  0  0  0  0  0  0  0  0  0  0
   -9.1873   20.3194  -31.4969 H   0  0  0  0  0  0  0  0  0  0  0  0
   -7.9956   21.1710  -29.7020 H   0  0  0  0  0  0  0  0  0  0  0  0
   -6.4277   22.8462  -28.7309 H   0  0  0  0  0  0  0  0  0  0  0  0
   -5.4850   24.3180  -27.9770 H   0  0  0  0  0  0  0  0  0  0  0  0
   -4.2490   25.5910  -28.2170 H   0  0  0  0  0  0  0  0  0  0  0  0
   -3.8880   26.4350  -30.4090 H   0  0  0  0  0  0  0  0  0  0  0  0
   -4.6580   25.7150  -31.8490 H   0  0  0  0  0  0  0  0  0  0  0  0
   -5.9992   24.6964  -32.6235 H   0  0  0  0  0  0  0  0  0  0  0  0
   -7.5547   23.0131  -33.5946 H   0  0  0  0  0  0  0  0  0  0  0  0
   -1.9053   19.2718  -30.7572 H   0  0  0  0  0  0  0  0  0  0  0  0
   -0.0659   19.8321  -29.1862 H   0  0  0  0  0  0  0  0  0  0  0  0
    0.6820   23.0980  -27.8100 H   0  0  0  0  0  0  0  0  0  0  0  0
  1  2  1  0
  2  3  2  0
  2  4  1  0
  4  5  2  0
  5  6  1  0
  6  7  1  0
  7  8  1  0
  8  9  2  0
  9 10  1  0
 10 11  2  0
 10 12  1  0
 12 13  1  0
 13 14  1  0
 14 15  2  0
 15 16  1  0
 16 17  2  0
 17 18  1  0
 18 19  1  0
 18 20  2  0
 17 21  1  0
 21 22  2  0
  9 23  1  0
 23 24  1  0
  6 25  2  0
 25 26  1  0
 26 27  2  0
 27 28  1  0
 27  4  1  0
 24  7  2  0
 22 14  1  0
  1 29  1  0
  5 30  1  0
  8 31  1  0
 13 32  1  0
 13 33  1  0
 15 34  1  0
 16 35  1  0
 19 36  1  0
 19 37  1  0
 20 38  1  0
 20 39  1  0
 21 40  1  0
 22 41  1  0
 25 42  1  0
 26 43  1  0
 28 44  1  0
M  CHG  3   1  -1  12  -1  20   1
M  END
>  <UniqueID>  (22) 
20

>  <SMILES>  (22) 
[NH-]C(=O)c1cc(-c2cc(C(=O)[N-]Cc3ccc(C(N)=[NH2+])cc3)on2)ccc1O

>  <Energy>  (22) 
84.70061171802239

>  <Genealogy>  (22) 
[NH-]C(=O)c1cc(-c2cc(C(=O)[N-]Cc3ccc(C(N)=[NH2+])cc3)on2)ccc1O (protonated)
[NH-]C(=O)c1cc(-c2cc(C(=O)[N-]Cc3ccc(C(N)=[NH2+])cc3)on2)ccc1O (3D coordinates assigned)
[NH-]C(=O)c1cc(-c2cc(C(=O)[N-]Cc3ccc(C(N)=[NH2+])cc3)on2)ccc1O (optimized conformer: 84.70061171802239 kcal/mol)

>  <smiles>  (22) 
N=C(N)c1ccc(CNC(=O)c2cc(-c3ccc(O)c(C(N)=O)c3)no2)cc1

>  <score_type>  (22) 
oracle

>  <origin>  (22) 
adgpu

>  <m_score__min__energy>  (22) 
-11.130000000000001

>  <m_primary>  (22) 
energy

$$$$
22:0
     RDKit          3D

 38 39  0  0  0  0  0  0  0  0999 V2000
   -0.8300   26.2830  -28.1080 C   0  0  0  0  0  0  0  0  0  0  0  0
   -1.5520   25.6490  -29.1590 O   0  0  0  0  0  0  0  0  0  0  0  0
   -2.4400   24.5760  -28.9800 C   0  0  0  0  0  0  0  0  0  0  0  0
   -2.1700   23.5290  -28.0810 C   0  0  0  0  0  0  0  0  0  0  0  0
   -3.0770   22.4810  -27.9300 C   0  0  0  0  0  0  0  0  0  0  0  0
   -4.2580   22.4630  -28.6710 C   0  0  0  0  0  0  0  0  0  0  0  0
   -4.5510   23.4950  -29.5770 C   0  0  0  0  0  0  0  0  0  0  0  0
   -5.8370   23.4220  -30.3760 C   0  0  0  0  0  0  0  0  0  0  0  0
   -5.7800   24.2370  -31.6040 N   0  0  0  0  0  0  0  0  0  0  0  0
   -6.7450   23.8000  -32.6230 C   0  0  0  0  0  0  0  0  0  0  0  0
   -7.2100   22.3940  -32.3510 C   0  0  0  0  0  0  0  0  0  0  0  0
   -8.4690   22.1550  -31.7760 C   0  0  0  0  0  0  0  0  0  0  0  0
   -8.8990   20.8460  -31.5400 C   0  0  0  0  0  0  0  0  0  0  0  0
   -8.0720   19.7590  -31.8640 C   0  0  0  0  0  0  0  0  0  0  0  0
   -8.5520   18.3550  -31.6470 C   0  0  0  0  0  0  0  0  0  0  0  0
   -6.8220   19.9960  -32.4540 C   0  0  0  0  0  0  0  0  0  0  0  0
   -6.3910   21.3050  -32.6900 C   0  0  0  0  0  0  0  0  0  0  0  0
   -3.6290   24.5630  -29.7270 C   0  0  0  0  0  0  0  0  0  0  0  0
   -3.8630   25.6250  -30.6050 O   0  0  0  0  0  0  0  0  0  0  0  0
   -1.2192   25.9412  -27.1376 H   0  0  0  0  0  0  0  0  0  0  0  0
    0.2361   26.0239  -28.1873 H   0  0  0  0  0  0  0  0  0  0  0  0
   -0.9491   27.3737  -28.1873 H   0  0  0  0  0  0  0  0  0  0  0  0
   -1.2394   23.5369  -27.4945 H   0  0  0  0  0  0  0  0  0  0  0  0
   -2.8602   21.6658  -27.2240 H   0  0  0  0  0  0  0  0  0  0  0  0
   -4.9674   21.6319  -28.5446 H   0  0  0  0  0  0  0  0  0  0  0  0
   -6.0210   22.3740  -30.6552 H   0  0  0  0  0  0  0  0  0  0  0  0
   -6.6473   23.8182  -29.7464 H   0  0  0  0  0  0  0  0  0  0  0  0
   -4.8190   24.1810  -32.0160 H   0  0  0  0  0  0  0  0  0  0  0  0
   -7.6130   24.4756  -32.6109 H   0  0  0  0  0  0  0  0  0  0  0  0
   -6.2541   23.8248  -33.6071 H   0  0  0  0  0  0  0  0  0  0  0  0
   -9.1193   23.0014  -31.5103 H   0  0  0  0  0  0  0  0  0  0  0  0
   -9.8903   20.6669  -31.0982 H   0  0  0  0  0  0  0  0  0  0  0  0
   -8.6208   18.1537  -30.5678 H   0  0  0  0  0  0  0  0  0  0  0  0
   -9.5435   18.2312  -32.1070 H   0  0  0  0  0  0  0  0  0  0  0  0
   -7.8438   17.6501  -32.1070 H   0  0  0  0  0  0  0  0  0  0  0  0
   -6.1781   19.1487  -32.7322 H   0  0  0  0  0  0  0  0  0  0  0  0
   -5.4048   21.4827  -33.1438 H   0  0  0  0  0  0  0  0  0  0  0  0
   -4.0500   25.5070  -31.5920 H   0  0  0  0  0  0  0  0  0  0  0  0
  1  2  1  0
  2  3  1  0
  3  4  2  0
  4  5  1  0
  5  6  2  0
  6  7  1  0
  7  8  1  0
  8  9  1  0
  9 10  1  0
 10 11  1  0
 11 12  2  0
 12 13  1  0
 13 14  2  0
 14 15  1  0
 14 16  1  0
 16 17  2  0
  7 18  2  0
 18 19  1  0
 18  3  1  0
 17 11  1  0
  1 20  1  0
  1 21  1  0
  1 22  1  0
  4 23  1  0
  5 24  1  0
  6 25  1  0
  8 26  1  0
  8 27  1  0
  9 28  1  0
 10 29  1  0
 10 30  1  0
 12 31  1  0
 13 32  1  0
 15 33  1  0
 15 34  1  0
 15 35  1  0
 16 36  1  0
 17 37  1  0
 19 38  1  0
M  END
>  <UniqueID>  (23) 
21

>  <SMILES>  (23) 
COc1cccc(CNCc2ccc(C)cc2)c1O

>  <Energy>  (23) 
38.425565146744965

>  <Genealogy>  (23) 
COc1cccc(CNCc2ccc(C)cc2)c1O (3D coordinates assigned)
COc1cccc(CNCc2ccc(C)cc2)c1O (optimized conformer: 38.425565146744965 kcal/mol)

>  <smiles>  (23) 
COc1cccc(CNCc2ccc(C)cc2)c1O

>  <score_type>  (23) 
oracle

>  <origin>  (23) 
adgpu

>  <m_score__min__energy>  (23) 
-9.0800000000000001

>  <m_primary>  (23) 
energy

$$$$
23:0
     RDKit          3D

 26 28  0  0  0  0  0  0  0  0999 V2000
   -6.9430   15.3550  -34.4160 O   0  0  0  0  0  0  0  0  0  0  0  0
   -6.7150   16.6300  -33.9150 C   0  0  0  0  0  0  0  0  0  0  0  0
   -5.9080   17.5250  -34.6200 C   0  0  0  0  0  0  0  0  0  0  0  0
   -5.6770   18.8090  -34.1190 C   0  0  0  0  0  0  0  0  0  0  0  0
   -6.2520   19.2200  -32.8970 C   0  0  0  0  0  0  0  0  0  0  0  0
   -6.0050   20.5920  -32.3600 C   0  0  0  0  0  0  0  0  0  0  0  0
   -4.7470   21.1670  -32.1360 C   0  0  0  0  0  0  0  0  0  0  0  0
   -5.0020   22.4260  -31.6430 C   0  0  0  0  0  0  0  0  0  0  0  0
   -4.1310   23.4390  -31.2480 C   0  0  0  0  0  0  0  0  0  0  0  0
   -4.6910   24.6410  -30.7760 C   0  0  0  0  0  0  0  0  0  0  0  0
   -3.8620   25.6780  -30.3710 O   0  0  0  0  0  0  0  0  0  0  0  0
   -6.0950   24.7960  -30.7140 C   0  0  0  0  0  0  0  0  0  0  0  0
   -6.9470   23.7530  -31.1210 C   0  0  0  0  0  0  0  0  0  0  0  0
   -6.3600   22.5760  -31.5830 C   0  0  0  0  0  0  0  0  0  0  0  0
   -6.9850   21.4690  -32.0150 N   0  0  0  0  0  0  0  0  0  0  0  0
   -7.0630   18.3030  -32.1980 C   0  0  0  0  0  0  0  0  0  0  0  0
   -7.2910   17.0200  -32.7060 C   0  0  0  0  0  0  0  0  0  0  0  0
   -5.4524   17.2184  -35.5731 H   0  0  0  0  0  0  0  0  0  0  0  0
   -5.0404   19.5068  -34.6828 H   0  0  0  0  0  0  0  0  0  0  0  0
   -3.7634   20.7087  -32.3162 H   0  0  0  0  0  0  0  0  0  0  0  0
   -3.0407   23.3038  -31.3032 H   0  0  0  0  0  0  0  0  0  0  0  0
   -6.5244   25.7391  -30.3448 H   0  0  0  0  0  0  0  0  0  0  0  0
   -8.0406   23.8627  -31.0761 H   0  0  0  0  0  0  0  0  0  0  0  0
   -8.0190   21.3390  -32.0650 H   0  0  0  0  0  0  0  0  0  0  0  0
   -7.5213   18.5996  -31.2430 H   0  0  0  0  0  0  0  0  0  0  0  0
   -7.9271   16.3157  -32.1499 H   0  0  0  0  0  0  0  0  0  0  0  0
  1  2  1  0
  2  3  2  0
  3  4  1  0
  4  5  2  0
  5  6  1  0
  6  7  2  0
  7  8  1  0
  8  9  2  0
  9 10  1  0
 10 11  1  0
 10 12  2  0
 12 13  1  0
 13 14  2  0
 14 15  1  0
  5 16  1  0
 16 17  2  0
 17  2  1  0
 15  6  1  0
 14  8  1  0
  3 18  1  0
  4 19  1  0
  7 20  1  0
  9 21  1  0
 12 22  1  0
 13 23  1  0
 15 24  1  0
 16 25  1  0
 17 26  1  0
M  CHG  2   1  -1  11  -1
M  END
>  <UniqueID>  (24) 
22

>  <SMILES>  (24) 
[O-]c1ccc(-c2cc3cc([O-])ccc3[nH]2)cc1

>  <Energy>  (24) 
64.57889547984493

>  <Genealogy>  (24) 
[O-]c1ccc(-c2cc3cc([O-])ccc3[nH]2)cc1 (protonated)
[O-]c1ccc(-c2cc3cc([O-])ccc3[nH]2)cc1 (3D coordinates assigned)
[O-]c1ccc(-c2cc3cc([O-])ccc3[nH]2)cc1 (optimized conformer: 64.57889547984493 kcal/mol)

>  <smiles>  (24) 
Oc1ccc(-c2cc3cc(O)ccc3[nH]2)cc1

>  <score_type>  (24) 
oracle

>  <origin>  (24) 
adgpu

>  <m_score__min__energy>  (24) 
-9.7699999999999996

>  <m_primary>  (24) 
energy

$$$$
24:0
     RDKit          3D

 54 58  0  0  0  0  0  0  0  0999 V2000
   -3.5300   24.1070  -30.8020 O   0  0  0  0  0  0  0  0  0  0  0  0
   -3.1040   22.9880  -30.4070 C   0  0  0  0  0  0  0  0  0  0  0  0
   -2.3770   22.8940  -29.1670 N   0  0  0  0  0  0  0  0  0  0  0  0
   -2.2130   23.9930  -28.2540 C   0  0  0  0  0  0  0  0  0  0  0  0
   -3.1420   24.2360  -27.2230 C   0  0  0  0  0  0  0  0  0  0  0  0
   -2.9490   25.3000  -26.3350 C   0  0  0  0  0  0  0  0  0  0  0  0
   -1.8250   26.1190  -26.4600 C   0  0  0  0  0  0  0  0  0  0  0  0
   -0.8710   25.8530  -27.4520 C   0  0  0  0  0  0  0  0  0  0  0  0
   -1.0660   24.7990  -28.3500 C   0  0  0  0  0  0  0  0  0  0  0  0
    0.2720   26.6540  -27.5260 O   0  0  0  0  0  0  0  0  0  0  0  0
    0.6200   27.5460  -26.4630 C   0  0  0  0  0  0  0  0  0  0  0  0
   -0.6420   28.2000  -25.8840 C   0  0  0  0  0  0  0  0  0  0  0  0
   -1.6300   27.2060  -25.6020 O   0  0  0  0  0  0  0  0  0  0  0  0
   -3.3580   21.7900  -31.2440 C   0  0  0  0  0  0  0  0  0  0  0  0
   -2.5990   21.5840  -32.4090 C   0  0  0  0  0  0  0  0  0  0  0  0
   -2.8020   20.4500  -33.2000 C   0  0  0  0  0  0  0  0  0  0  0  0
   -3.7470   19.4860  -32.8240 C   0  0  0  0  0  0  0  0  0  0  0  0
   -3.9460   18.0030  -33.7680 S   0  0  0  0  0  0  0  0  0  0  0  0
   -4.0020   16.8280  -32.8320 O   0  0  0  0  0  0  0  0  0  0  0  0
   -2.7330   17.8370  -34.6400 O   0  0  0  0  0  0  0  0  0  0  0  0
   -5.3710   18.0150  -34.7950 N   0  0  0  0  0  0  0  0  0  0  0  0
   -6.2600   16.8570  -34.5940 C   0  0  0  0  0  0  0  0  0  0  0  0
   -6.9820   16.8830  -33.2390 C   0  0  0  0  0  0  0  0  0  0  0  0
   -7.4200   18.2650  -32.8270 C   0  0  0  0  0  0  0  0  0  0  0  0
   -8.2100   18.4140  -31.6770 C   0  0  0  0  0  0  0  0  0  0  0  0
   -8.5810   19.6870  -31.2330 C   0  0  0  0  0  0  0  0  0  0  0  0
   -8.1660   20.8200  -31.9360 C   0  0  0  0  0  0  0  0  0  0  0  0
   -7.3750   20.6850  -33.0780 C   0  0  0  0  0  0  0  0  0  0  0  0
   -6.9760   19.4130  -33.5180 C   0  0  0  0  0  0  0  0  0  0  0  0
   -6.1070   19.2890  -34.7470 C   0  0  0  0  0  0  0  0  0  0  0  0
   -4.5270   19.7010  -31.6800 C   0  0  0  0  0  0  0  0  0  0  0  0
   -4.3280   20.8350  -30.8890 C   0  0  0  0  0  0  0  0  0  0  0  0
   -1.8950   22.0010  -28.9210 H   0  0  0  0  0  0  0  0  0  0  0  0
   -4.0231   23.5863  -27.1157 H   0  0  0  0  0  0  0  0  0  0  0  0
   -3.6829   25.4913  -25.5383 H   0  0  0  0  0  0  0  0  0  0  0  0
   -0.3198   24.6004  -29.1334 H   0  0  0  0  0  0  0  0  0  0  0  0
    1.1337   26.9829  -25.6699 H   0  0  0  0  0  0  0  0  0  0  0  0
    1.2825   28.3312  -26.8562 H   0  0  0  0  0  0  0  0  0  0  0  0
   -0.3832   28.7286  -24.9547 H   0  0  0  0  0  0  0  0  0  0  0  0
   -1.0477   28.9096  -26.6201 H   0  0  0  0  0  0  0  0  0  0  0  0
   -1.8379   22.3226  -32.7009 H   0  0  0  0  0  0  0  0  0  0  0  0
   -2.2175   20.3135  -34.1218 H   0  0  0  0  0  0  0  0  0  0  0  0
   -7.0154   16.8520  -35.3936 H   0  0  0  0  0  0  0  0  0  0  0  0
   -5.6332   15.9533  -34.6156 H   0  0  0  0  0  0  0  0  0  0  0  0
   -7.8715   16.2391  -33.3042 H   0  0  0  0  0  0  0  0  0  0  0  0
   -6.2688   16.5262  -32.4813 H   0  0  0  0  0  0  0  0  0  0  0  0
   -8.5396   17.5238  -31.1212 H   0  0  0  0  0  0  0  0  0  0  0  0
   -9.1997   19.7959  -30.3300 H   0  0  0  0  0  0  0  0  0  0  0  0
   -8.4631   21.8207  -31.5891 H   0  0  0  0  0  0  0  0  0  0  0  0
   -7.0626   21.5799  -33.6361 H   0  0  0  0  0  0  0  0  0  0  0  0
   -6.7466   19.3599  -35.6391 H   0  0  0  0  0  0  0  0  0  0  0  0
   -5.3653   20.1006  -34.7133 H   0  0  0  0  0  0  0  0  0  0  0  0
   -5.3019   18.9712  -31.4027 H   0  0  0  0  0  0  0  0  0  0  0  0
   -4.9337   20.9822  -29.9827 H   0  0  0  0  0  0  0  0  0  0  0  0
  1  2  2  0
  2  3  1  0
  3  4  1  0
  4  5  2  0
  5  6  1  0
  6  7  2  0
  7  8  1  0
  8  9  2  0
  8 10  1  0
 10 11  1  0
 11 12  1  0
 12 13  1  0
  2 14  1  0
 14 15  2  0
 15 16  1  0
 16 17  2  0
 17 18  1  0
 18 19  2  0
 18 20  2  0
 18 21  1  0
 21 22  1  0
 22 23  1  0
 23 24  1  0
 24 25  2  0
 25 26  1  0
 26 27  2  0
 27 28  1  0
 28 29  2  0
 29 30  1  0
 17 31  1  0
 31 32  2  0
  9  4  1  0
 32 14  1  0
 13  7  1  0
 30 21  1  0
 29 24  1  0
  3 33  1  0
  5 34  1  0
  6 35  1  0
  9 36  1  0
 11 37  1  0
 11 38  1  0
 12 39  1  0
 12 40  1  0
 15 41  1  0
 16 42  1  0
 22 43  1  0
 22 44  1  0
 23 45  1  0
 23 46  1  0
 25 47  1  0
 26 48  1  0
 27 49  1  0
 28 50  1  0
 30 51  1  0
 30 52  1  0
 31 53  1  0
 32 54  1  0
M  END
>  <UniqueID>  (25) 
23

>  <SMILES>  (25) 
O=C(Nc1ccc2c(c1)OCCO2)c1ccc(S(=O)(=O)N2CCc3ccccc3C2)cc1

>  <Energy>  (25) 
70.38220834546405

>  <Genealogy>  (25) 
O=C(Nc1ccc2c(c1)OCCO2)c1ccc(S(=O)(=O)N2CCc3ccccc3C2)cc1 (3D coordinates assigned)
O=C(Nc1ccc2c(c1)OCCO2)c1ccc(S(=O)(=O)N2CCc3ccccc3C2)cc1 (nonaromatic ring conformer: 70.38220834546405 kcal/mol)

>  <smiles>  (25) 
O=C(Nc1ccc2c(c1)OCCO2)c1ccc(S(=O)(=O)N2CCc3ccccc3C2)cc1

>  <score_type>  (25) 
oracle

>  <origin>  (25) 
adgpu

>  <m_score__min__energy>  (25) 
-9.5600000000000005

>  <m_primary>  (25) 
energy

$$$$
25:0
     RDKit          3D

 44 46  0  0  0  0  0  0  0  0999 V2000
    2.3800   18.2440  -28.5280 C   0  0  0  0  0  0  0  0  0  0  0  0
    1.0060   18.8360  -28.6300 C   0  0  0  0  0  0  0  0  0  0  0  0
    0.5480   19.3460  -29.8520 C   0  0  0  0  0  0  0  0  0  0  0  0
   -0.7220   19.9350  -29.9490 C   0  0  0  0  0  0  0  0  0  0  0  0
   -1.1960   20.4730  -31.2710 C   0  0  0  0  0  0  0  0  0  0  0  0
   -1.5510   19.9910  -28.8080 C   0  0  0  0  0  0  0  0  0  0  0  0
   -2.8490   20.5120  -28.8950 O   0  0  0  0  0  0  0  0  0  0  0  0
   -3.1390   21.7910  -29.3920 C   0  0  0  0  0  0  0  0  0  0  0  0
   -2.2610   22.8390  -29.1050 C   0  0  0  0  0  0  0  0  0  0  0  0
   -2.5190   24.1290  -29.5760 C   0  0  0  0  0  0  0  0  0  0  0  0
   -1.6560   25.1360  -29.2880 F   0  0  0  0  0  0  0  0  0  0  0  0
   -3.6620   24.3830  -30.3430 C   0  0  0  0  0  0  0  0  0  0  0  0
   -3.9040   25.6720  -30.8060 O   0  0  0  0  0  0  0  0  0  0  0  0
   -4.5530   23.3400  -30.6500 C   0  0  0  0  0  0  0  0  0  0  0  0
   -5.7430   23.6110  -31.4110 N   0  0  0  0  0  0  0  0  0  0  0  0
   -6.7430   22.6230  -31.7170 C   0  0  0  0  0  0  0  0  0  0  0  0
   -8.0730   22.8400  -31.3260 C   0  0  0  0  0  0  0  0  0  0  0  0
   -9.0600   21.8940  -31.6230 C   0  0  0  0  0  0  0  0  0  0  0  0
   -8.7270   20.7310  -32.3230 C   0  0  0  0  0  0  0  0  0  0  0  0
   -7.4100   20.5160  -32.7350 C   0  0  0  0  0  0  0  0  0  0  0  0
   -6.4220   21.4620  -32.4440 C   0  0  0  0  0  0  0  0  0  0  0  0
   -4.2950   22.0500  -30.1520 C   0  0  0  0  0  0  0  0  0  0  0  0
   -1.0750   19.5250  -27.5690 C   0  0  0  0  0  0  0  0  0  0  0  0
   -1.9540   19.5810  -26.3510 C   0  0  0  0  0  0  0  0  0  0  0  0
    0.2010   18.9470  -27.4880 C   0  0  0  0  0  0  0  0  0  0  0  0
    2.6512   18.1272  -27.4684 H   0  0  0  0  0  0  0  0  0  0  0  0
    2.3930   17.2604  -29.0204 H   0  0  0  0  0  0  0  0  0  0  0  0
    3.1037   18.9101  -29.0204 H   0  0  0  0  0  0  0  0  0  0  0  0
    1.1897   19.2841  -30.7433 H   0  0  0  0  0  0  0  0  0  0  0  0
   -1.9142   21.2882  -31.0989 H   0  0  0  0  0  0  0  0  0  0  0  0
   -0.3363   20.8559  -31.8405 H   0  0  0  0  0  0  0  0  0  0  0  0
   -1.6841   19.6684  -31.8405 H   0  0  0  0  0  0  0  0  0  0  0  0
   -1.3600   22.6473  -28.5038 H   0  0  0  0  0  0  0  0  0  0  0  0
   -5.9050   24.5870  -31.7450 H   0  0  0  0  0  0  0  0  0  0  0  0
   -8.3409   23.7585  -30.7833 H   0  0  0  0  0  0  0  0  0  0  0  0
  -10.0990   22.0657  -31.3053 H   0  0  0  0  0  0  0  0  0  0  0  0
   -9.5026   19.9846  -32.5495 H   0  0  0  0  0  0  0  0  0  0  0  0
   -7.1496   19.6019  -33.2888 H   0  0  0  0  0  0  0  0  0  0  0  0
   -5.3892   21.2976  -32.7851 H   0  0  0  0  0  0  0  0  0  0  0  0
   -5.0042   21.2350  -30.3587 H   0  0  0  0  0  0  0  0  0  0  0  0
   -1.3297   19.5412  -25.4462 H   0  0  0  0  0  0  0  0  0  0  0  0
   -2.5307   20.5177  -26.3577 H   0  0  0  0  0  0  0  0  0  0  0  0
   -2.6449   18.7250  -26.3577 H   0  0  0  0  0  0  0  0  0  0  0  0
    0.5725   18.5781  -26.5206 H   0  0  0  0  0  0  0  0  0  0  0  0
  1  2  1  0
  2  3  2  0
  3  4  1  0
  4  5  1  0
  4  6  2  0
  6  7  1  0
  7  8  1  0
  8  9  2  0
  9 10  1  0
 10 11  1  0
 10 12  2  0
 12 13  1  0
 12 14  1  0
 14 15  1  0
 15 16  1  0
 16 17  2  0
 17 18  1  0
 18 19  2  0
 19 20  1  0
 20 21  2  0
 14 22  2  0
  6 23  1  0
 23 24  1  0
 23 25  2  0
 25  2  1  0
 22  8  1  0
 21 16  1  0
  1 26  1  0
  1 27  1  0
  1 28  1  0
  3 29  1  0
  5 30  1  0
  5 31  1  0
  5 32  1  0
  9 33  1  0
 15 34  1  0
 17 35  1  0
 18 36  1  0
 19 37  1  0
 20 38  1  0
 21 39  1  0
 22 40  1  0
 24 41  1  0
 24 42  1  0
 24 43  1  0
 25 44  1  0
M  CHG  1  13  -1
M  END
>  <UniqueID>  (26) 
24

>  <SMILES>  (26) 
Cc1cc(C)c(Oc2cc(F)c([O-])c(Nc3ccccc3)c2)c(C)c1

>  <Energy>  (26) 
57.77362842542439

>  <Genealogy>  (26) 
Cc1cc(C)c(Oc2cc(F)c([O-])c(Nc3ccccc3)c2)c(C)c1 (protonated)
Cc1cc(C)c(Oc2cc(F)c([O-])c(Nc3ccccc3)c2)c(C)c1 (3D coordinates assigned)
Cc1cc(C)c(Oc2cc(F)c([O-])c(Nc3ccccc3)c2)c(C)c1 (optimized conformer: 57.77362842542439 kcal/mol)

>  <smiles>  (26) 
Cc1cc(C)c(Oc2cc(F)c(O)c(Nc3ccccc3)c2)c(C)c1

>  <score_type>  (26) 
oracle

>  <origin>  (26) 
adgpu

>  <m_score__min__energy>  (26) 
-10.91

>  <m_primary>  (26) 
energy

$$$$
26:0
     RDKit          3D

 62 65  0  0  0  0  0  0  0  0999 V2000
   -5.2760   25.6630  -30.5350 C   0  0  0  0  0  0  0  0  0  0  0  0
   -3.9620   25.1680  -30.7710 O   0  0  0  0  0  0  0  0  0  0  0  0
   -3.4870   23.9240  -30.3230 C   0  0  0  0  0  0  0  0  0  0  0  0
   -2.5080   23.8180  -29.3150 C   0  0  0  0  0  0  0  0  0  0  0  0
   -2.0240   22.5650  -28.9300 C   0  0  0  0  0  0  0  0  0  0  0  0
   -2.5010   21.4090  -29.5490 C   0  0  0  0  0  0  0  0  0  0  0  0
   -3.4750   21.5010  -30.5440 C   0  0  0  0  0  0  0  0  0  0  0  0
   -3.9900   22.7490  -30.9160 C   0  0  0  0  0  0  0  0  0  0  0  0
   -5.0020   22.8030  -31.9230 N   0  0  0  0  0  0  0  0  0  0  0  0
   -6.6980   22.8000  -31.5590 S   0  0  0  0  0  0  0  0  0  0  0  0
   -6.9400   23.1450  -30.1170 O   0  0  0  0  0  0  0  0  0  0  0  0
   -7.3750   23.8440  -32.4030 O   0  0  0  0  0  0  0  0  0  0  0  0
   -7.3560   21.1990  -31.9330 C   0  0  0  0  0  0  0  0  0  0  0  0
   -6.4730   20.2150  -32.4080 C   0  0  0  0  0  0  0  0  0  0  0  0
   -6.9170   18.9160  -32.6670 C   0  0  0  0  0  0  0  0  0  0  0  0
   -5.9800   17.9360  -33.1370 N   0  0  0  0  0  0  0  0  0  0  0  0
   -4.9990   18.1590  -34.1600 C   0  0  0  0  0  0  0  0  0  0  0  0
   -5.2660   17.8250  -35.3440 O   0  0  0  0  0  0  0  0  0  0  0  0
   -3.6990   18.7950  -33.8580 C   0  0  0  0  0  0  0  0  0  0  0  0
   -3.5940   20.1940  -33.7730 C   0  0  0  0  0  0  0  0  0  0  0  0
   -2.3780   20.7930  -33.4390 C   0  0  0  0  0  0  0  0  0  0  0  0
   -1.2530   20.0020  -33.1680 C   0  0  0  0  0  0  0  0  0  0  0  0
    0.2620   20.7590  -32.6710 S   0  0  0  0  0  0  0  0  0  0  0  0
    1.2320   19.6880  -32.2530 O   0  0  0  0  0  0  0  0  0  0  0  0
    0.0090   21.6480  -31.4840 O   0  0  0  0  0  0  0  0  0  0  0  0
    0.9620   21.7160  -33.9560 N   0  0  0  0  0  0  0  0  0  0  0  0
   -0.0190   21.9300  -35.0350 C   0  0  0  0  0  0  0  0  0  0  0  0
    0.6700   22.4820  -36.3010 C   0  0  0  0  0  0  0  0  0  0  0  0
    1.9380   23.0200  -35.9870 O   0  0  0  0  0  0  0  0  0  0  0  0
    2.8120   21.9880  -35.5560 C   0  0  0  0  0  0  0  0  0  0  0  0
    2.1720   21.0770  -34.4850 C   0  0  0  0  0  0  0  0  0  0  0  0
   -1.3460   18.6070  -33.2780 C   0  0  0  0  0  0  0  0  0  0  0  0
   -2.5600   18.0080  -33.6310 C   0  0  0  0  0  0  0  0  0  0  0  0
   -8.2730   18.6040  -32.4930 C   0  0  0  0  0  0  0  0  0  0  0  0
   -9.1610   19.5680  -32.0190 C   0  0  0  0  0  0  0  0  0  0  0  0
   -8.7170   20.8650  -31.7140 C   0  0  0  0  0  0  0  0  0  0  0  0
   -9.7220   21.8680  -31.2080 C   0  0  0  0  0  0  0  0  0  0  0  0
   -5.4535   25.7299  -29.4515 H   0  0  0  0  0  0  0  0  0  0  0  0
   -5.3782   26.6613  -30.9856 H   0  0  0  0  0  0  0  0  0  0  0  0
   -6.0114   24.9803  -30.9856 H   0  0  0  0  0  0  0  0  0  0  0  0
   -2.1228   24.7264  -28.8287 H   0  0  0  0  0  0  0  0  0  0  0  0
   -1.2652   22.4897  -28.1372 H   0  0  0  0  0  0  0  0  0  0  0  0
   -2.1091   20.4249  -29.2525 H   0  0  0  0  0  0  0  0  0  0  0  0
   -3.8401   20.5888  -31.0386 H   0  0  0  0  0  0  0  0  0  0  0  0
   -5.4169   20.4710  -32.5784 H   0  0  0  0  0  0  0  0  0  0  0  0
   -4.4758   20.8211  -33.9710 H   0  0  0  0  0  0  0  0  0  0  0  0
   -2.3025   21.8892  -33.3883 H   0  0  0  0  0  0  0  0  0  0  0  0
   -0.5038   20.9726  -35.2767 H   0  0  0  0  0  0  0  0  0  0  0  0
   -0.7656   22.6617  -34.6926 H   0  0  0  0  0  0  0  0  0  0  0  0
    0.7942   21.6666  -37.0288 H   0  0  0  0  0  0  0  0  0  0  0  0
    0.0429   23.2804  -36.7245 H   0  0  0  0  0  0  0  0  0  0  0  0
    3.0853   21.3717  -36.4252 H   0  0  0  0  0  0  0  0  0  0  0  0
    3.6940   22.4652  -35.1040 H   0  0  0  0  0  0  0  0  0  0  0  0
    1.9075   20.1098  -34.9374 H   0  0  0  0  0  0  0  0  0  0  0  0
    2.8886   20.9162  -33.6660 H   0  0  0  0  0  0  0  0  0  0  0  0
   -0.4615   17.9818  -33.0861 H   0  0  0  0  0  0  0  0  0  0  0  0
   -2.6218   16.9143  -33.7311 H   0  0  0  0  0  0  0  0  0  0  0  0
   -8.6375   17.5940  -32.7317 H   0  0  0  0  0  0  0  0  0  0  0  0
  -10.2215   19.3101  -31.8823 H   0  0  0  0  0  0  0  0  0  0  0  0
   -9.7200   21.8661  -30.1080 H   0  0  0  0  0  0  0  0  0  0  0  0
   -9.4552   22.8707  -31.5734 H   0  0  0  0  0  0  0  0  0  0  0  0
  -10.7241   21.5992  -31.5734 H   0  0  0  0  0  0  0  0  0  0  0  0
  1  2  1  0
  2  3  1  0
  3  4  2  0
  4  5  1  0
  5  6  2  0
  6  7  1  0
  7  8  2  0
  8  9  1  0
  9 10  1  0
 10 11  2  0
 10 12  2  0
 10 13  1  0
 13 14  2  0
 14 15  1  0
 15 16  1  0
 16 17  1  0
 17 18  2  0
 17 19  1  0
 19 20  2  0
 20 21  1  0
 21 22  2  0
 22 23  1  0
 23 24  2  0
 23 25  2  0
 23 26  1  0
 26 27  1  0
 27 28  1  0
 28 29  1  0
 29 30  1  0
 30 31  1  0
 22 32  1  0
 32 33  2  0
 15 34  2  0
 34 35  1  0
 35 36  2  0
 36 37  1  0
  8  3  1  0
 36 13  1  0
 33 19  1  0
 31 26  1  0
  1 38  1  0
  1 39  1  0
  1 40  1  0
  4 41  1  0
  5 42  1  0
  6 43  1  0
  7 44  1  0
 14 45  1  0
 20 46  1  0
 21 47  1  0
 27 48  1  0
 27 49  1  0
 28 50  1  0
 28 51  1  0
 30 52  1  0
 30 53  1  0
 31 54  1  0
 31 55  1  0
 32 56  1  0
 33 57  1  0
 34 58  1  0
 35 59  1  0
 37 60  1  0
 37 61  1  0
 37 62  1  0
M  CHG  2   9  -1  16  -1
M  END
>  <UniqueID>  (27) 
25

>  <SMILES>  (27) 
COc1ccccc1[N-]S(=O)(=O)c1cc([N-]C(=O)c2ccc(S(=O)(=O)N3CCOCC3)cc2)ccc1C

>  <Energy>  (27) 
89.32989071302121

>  <Genealogy>  (27) 
COc1ccccc1[N-]S(=O)(=O)c1cc([N-]C(=O)c2ccc(S(=O)(=O)N3CCOCC3)cc2)ccc1C (protonated)
COc1ccccc1[N-]S(=O)(=O)c1cc([N-]C(=O)c2ccc(S(=O)(=O)N3CCOCC3)cc2)ccc1C (3D coordinates assigned)
COc1ccccc1[N-]S(=O)(=O)c1cc([N-]C(=O)c2ccc(S(=O)(=O)N3CCOCC3)cc2)ccc1C (nonaromatic ring conformer: 89.32989071302121 kcal/mol)

>  <smiles>  (27) 
COc1ccccc1NS(=O)(=O)c1cc(NC(=O)c2ccc(S(=O)(=O)N3CCOCC3)cc2)ccc1C

>  <score_type>  (27) 
oracle

>  <origin>  (27) 
adgpu

>  <m_score__min__energy>  (27) 
-13.01

>  <m_primary>  (27) 
energy

$$$$
27:0
     RDKit          3D

 36 38  0  0  0  0  0  0  0  0999 V2000
   -5.5670   25.6510  -31.0370 O   0  0  0  0  0  0  0  0  0  0  0  0
   -4.6250   24.8360  -30.8410 C   0  0  0  0  0  0  0  0  0  0  0  0
   -3.4770   25.2810  -30.1060 N   0  0  0  0  0  0  0  0  0  0  0  0
   -2.7950   24.5500  -29.0750 C   0  0  0  0  0  0  0  0  0  0  0  0
   -3.4110   23.4760  -28.4070 C   0  0  0  0  0  0  0  0  0  0  0  0
   -2.7300   22.7910  -27.3970 C   0  0  0  0  0  0  0  0  0  0  0  0
   -1.4390   23.1790  -27.0360 C   0  0  0  0  0  0  0  0  0  0  0  0
   -0.8270   24.2580  -27.6780 C   0  0  0  0  0  0  0  0  0  0  0  0
   -1.5040   24.9500  -28.6950 C   0  0  0  0  0  0  0  0  0  0  0  0
   -0.8970   26.0300  -29.3330 O   0  0  0  0  0  0  0  0  0  0  0  0
   -4.7110   23.4740  -31.4170 C   0  0  0  0  0  0  0  0  0  0  0  0
   -5.9360   22.9600  -31.8780 C   0  0  0  0  0  0  0  0  0  0  0  0
   -6.0080   21.6740  -32.4170 C   0  0  0  0  0  0  0  0  0  0  0  0
   -4.8590   20.8670  -32.4790 C   0  0  0  0  0  0  0  0  0  0  0  0
   -4.8950   19.5490  -33.0440 N   0  0  0  0  0  0  0  0  0  0  0  0
   -6.0450   18.9040  -33.6060 C   0  0  0  0  0  0  0  0  0  0  0  0
   -5.9200   18.2720  -34.6870 O   0  0  0  0  0  0  0  0  0  0  0  0
   -7.3550   18.9040  -32.9280 C   0  0  0  0  0  0  0  0  0  0  0  0
   -8.3670   19.8330  -33.0870 C   0  0  0  0  0  0  0  0  0  0  0  0
   -9.3780   19.4280  -32.2410 C   0  0  0  0  0  0  0  0  0  0  0  0
   -8.9200   18.2870  -31.6150 C   0  0  0  0  0  0  0  0  0  0  0  0
   -7.7110   18.0020  -32.0430 O   0  0  0  0  0  0  0  0  0  0  0  0
   -3.6380   21.3770  -32.0280 C   0  0  0  0  0  0  0  0  0  0  0  0
   -3.5640   22.6650  -31.4890 C   0  0  0  0  0  0  0  0  0  0  0  0
   -4.4327   23.1742  -28.6808 H   0  0  0  0  0  0  0  0  0  0  0  0
   -3.2123   21.9448  -26.8858 H   0  0  0  0  0  0  0  0  0  0  0  0
   -0.9027   22.6344  -26.2449 H   0  0  0  0  0  0  0  0  0  0  0  0
    0.1878   24.5664  -27.3862 H   0  0  0  0  0  0  0  0  0  0  0  0
   -1.2700   26.4190  -30.1900 H   0  0  0  0  0  0  0  0  0  0  0  0
   -6.8450   23.5761  -31.8135 H   0  0  0  0  0  0  0  0  0  0  0  0
   -6.9676   21.2910  -32.7945 H   0  0  0  0  0  0  0  0  0  0  0  0
   -8.3658   20.7111  -33.7495 H   0  0  0  0  0  0  0  0  0  0  0  0
  -10.3528   19.9162  -32.0948 H   0  0  0  0  0  0  0  0  0  0  0  0
   -9.4820   17.7042  -30.8703 H   0  0  0  0  0  0  0  0  0  0  0  0
   -2.7294   20.7609  -32.0976 H   0  0  0  0  0  0  0  0  0  0  0  0
   -2.6015   23.0477  -31.1188 H   0  0  0  0  0  0  0  0  0  0  0  0
  1  2  2  0
  2  3  1  0
  3  4  1  0
  4  5  2  0
  5  6  1  0
  6  7  2  0
  7  8  1  0
  8  9  2  0
  9 10  1  0
  2 11  1  0
 11 12  2  0
 12 13  1  0
 13 14  2  0
 14 15  1  0
 15 16  1  0
 16 17  2  0
 16 18  1  0
 18 19  2  0
 19 20  1  0
 20 21  2  0
 21 22  1  0
 14 23  1  0
 23 24  2  0
  9  4  1  0
 24 11  1  0
 22 18  1  0
  5 25  1  0
  6 26  1  0
  7 27  1  0
  8 28  1  0
 10 29  1  0
 12 30  1  0
 13 31  1  0
 19 32  1  0
 20 33  1  0
 21 34  1  0
 23 35  1  0
 24 36  1  0
M  CHG  2   3  -1  15  -1
M  END
>  <UniqueID>  (28) 
26

>  <SMILES>  (28) 
O=C([N-]c1ccccc1O)c1ccc([N-]C(=O)c2ccco2)cc1

>  <Energy>  (28) 
76.4627815539051

>  <Genealogy>  (28) 
O=C([N-]c1ccccc1O)c1ccc([N-]C(=O)c2ccco2)cc1 (protonated)
O=C([N-]c1ccccc1O)c1ccc([N-]C(=O)c2ccco2)cc1 (3D coordinates assigned)
O=C([N-]c1ccccc1O)c1ccc([N-]C(=O)c2ccco2)cc1 (optimized conformer: 76.4627815539051 kcal/mol)

>  <smiles>  (28) 
O=C(Nc1ccccc1O)c1ccc(NC(=O)c2ccco2)cc1

>  <score_type>  (28) 
oracle

>  <origin>  (28) 
adgpu

>  <m_score__min__energy>  (28) 
-11.18

>  <m_primary>  (28) 
energy

$$$$
28:0
     RDKit          3D

 67 72  0  0  0  0  0  0  0  0999 V2000
   -3.5160   14.0940  -38.9200 C   0  0  0  0  0  0  0  0  0  0  0  0
   -2.4500   13.4470  -38.0870 C   0  0  0  0  0  0  0  0  0  0  0  0
   -2.0930   12.0910  -38.2730 C   0  0  0  0  0  0  0  0  0  0  0  0
   -1.0670   11.5070  -37.4990 C   0  0  0  0  0  0  0  0  0  0  0  0
   -0.3740   12.2710  -36.5410 C   0  0  0  0  0  0  0  0  0  0  0  0
   -0.7360   13.6060  -36.3930 C   0  0  0  0  0  0  0  0  0  0  0  0
   -0.2080   14.5080  -35.5540 N   0  0  0  0  0  0  0  0  0  0  0  0
   -0.9290   15.6260  -35.8320 C   0  0  0  0  0  0  0  0  0  0  0  0
   -0.7120   16.9040  -35.1440 C   0  0  0  0  0  0  0  0  0  0  0  0
   -0.0560   18.0110  -35.6650 C   0  0  0  0  0  0  0  0  0  0  0  0
    0.0160   19.0870  -34.7710 C   0  0  0  0  0  0  0  0  0  0  0  0
   -0.5850   18.8310  -33.5360 C   0  0  0  0  0  0  0  0  0  0  0  0
   -0.6560   19.7530  -32.3760 C   0  0  0  0  0  0  0  0  0  0  0  0
   -1.1420   21.0650  -32.5240 C   0  0  0  0  0  0  0  0  0  0  0  0
   -1.1810   21.9380  -31.4330 C   0  0  0  0  0  0  0  0  0  0  0  0
   -0.7460   21.5170  -30.1650 C   0  0  0  0  0  0  0  0  0  0  0  0
   -0.7680   22.4560  -29.0190 C   0  0  0  0  0  0  0  0  0  0  0  0
   -0.2980   23.6180  -29.1600 O   0  0  0  0  0  0  0  0  0  0  0  0
   -1.3570   22.0720  -27.7650 N   0  0  0  0  0  0  0  0  0  0  0  0
   -1.0880   22.7490  -26.5260 C   0  0  0  0  0  0  0  0  0  0  0  0
   -0.7060   22.0040  -25.4000 C   0  0  0  0  0  0  0  0  0  0  0  0
   -0.4180   22.6440  -24.1940 C   0  0  0  0  0  0  0  0  0  0  0  0
   -0.4980   24.0360  -24.1010 C   0  0  0  0  0  0  0  0  0  0  0  0
   -0.8680   24.8010  -25.2190 C   0  0  0  0  0  0  0  0  0  0  0  0
   -0.9090   26.2770  -25.1390 C   0  0  0  0  0  0  0  0  0  0  0  0
   -1.6350   26.8260  -24.2650 O   0  0  0  0  0  0  0  0  0  0  0  0
   -0.1300   27.0980  -26.0300 N   0  0  0  0  0  0  0  0  0  0  0  0
    1.2540   26.7310  -26.3540 C   0  0  0  0  0  0  0  0  0  0  0  0
    2.0700   27.9720  -26.7520 C   0  0  0  0  0  0  0  0  0  0  0  0
    1.7390   29.1410  -25.9070 N   0  0  0  0  0  0  0  0  0  0  0  0
    2.2160   28.9670  -24.5240 C   0  0  0  0  0  0  0  0  0  0  0  0
    0.3030   29.5240  -25.9540 C   0  0  0  0  0  0  0  0  0  0  0  0
   -0.6260   28.4060  -26.4620 C   0  0  0  0  0  0  0  0  0  0  0  0
   -1.1460   24.1530  -26.4340 C   0  0  0  0  0  0  0  0  0  0  0  0
   -0.2620   20.2070  -30.0150 C   0  0  0  0  0  0  0  0  0  0  0  0
   -0.2150   19.3360  -31.1080 C   0  0  0  0  0  0  0  0  0  0  0  0
   -1.2050   17.2610  -33.5770 S   0  0  0  0  0  0  0  0  0  0  0  0
   -1.8720   15.4640  -36.7970 N   0  0  0  0  0  0  0  0  0  0  0  0
   -1.7280   14.1730  -37.1340 C   0  0  0  0  0  0  0  0  0  0  0  0
   -4.2691   14.5511  -38.2613 H   0  0  0  0  0  0  0  0  0  0  0  0
   -3.0644   14.8705  -39.5549 H   0  0  0  0  0  0  0  0  0  0  0  0
   -3.9964   13.3350  -39.5549 H   0  0  0  0  0  0  0  0  0  0  0  0
   -2.6190   11.4867  -39.0268 H   0  0  0  0  0  0  0  0  0  0  0  0
   -0.8074   10.4482  -37.6454 H   0  0  0  0  0  0  0  0  0  0  0  0
    0.4263   11.8276  -35.9304 H   0  0  0  0  0  0  0  0  0  0  0  0
    0.3659   18.0403  -36.6804 H   0  0  0  0  0  0  0  0  0  0  0  0
    0.5001   20.0434  -35.0180 H   0  0  0  0  0  0  0  0  0  0  0  0
   -1.4948   21.4072  -33.5081 H   0  0  0  0  0  0  0  0  0  0  0  0
   -1.5555   22.9634  -31.5683 H   0  0  0  0  0  0  0  0  0  0  0  0
   -2.1060   21.3440  -27.7730 H   0  0  0  0  0  0  0  0  0  0  0  0
   -0.6331   20.9086  -25.4684 H   0  0  0  0  0  0  0  0  0  0  0  0
   -0.1272   22.0512  -23.3142 H   0  0  0  0  0  0  0  0  0  0  0  0
   -0.2701   24.5349  -23.1475 H   0  0  0  0  0  0  0  0  0  0  0  0
    1.7179   26.2616  -25.4740 H   0  0  0  0  0  0  0  0  0  0  0  0
    1.2433   26.0298  -27.2015 H   0  0  0  0  0  0  0  0  0  0  0  0
    3.1406   27.7446  -26.6419 H   0  0  0  0  0  0  0  0  0  0  0  0
    1.8246   28.2229  -27.7945 H   0  0  0  0  0  0  0  0  0  0  0  0
    1.4201   29.2573  -23.8224 H   0  0  0  0  0  0  0  0  0  0  0  0
    2.4842   27.9131  -24.3585 H   0  0  0  0  0  0  0  0  0  0  0  0
    3.0998   29.6006  -24.3585 H   0  0  0  0  0  0  0  0  0  0  0  0
   -0.0143   29.8028  -24.9383 H   0  0  0  0  0  0  0  0  0  0  0  0
    0.2186   30.3572  -26.6672 H   0  0  0  0  0  0  0  0  0  0  0  0
   -1.6369   28.5624  -26.0576 H   0  0  0  0  0  0  0  0  0  0  0  0
   -0.6516   28.4338  -27.5614 H   0  0  0  0  0  0  0  0  0  0  0  0
   -1.4112   24.7472  -27.3209 H   0  0  0  0  0  0  0  0  0  0  0  0
    0.0832   19.8631  -29.0288 H   0  0  0  0  0  0  0  0  0  0  0  0
    0.1708   18.3146  -30.9743 H   0  0  0  0  0  0  0  0  0  0  0  0
  1  2  1  0
  2  3  2  0
  3  4  1  0
  4  5  2  0
  5  6  1  0
  6  7  1  0
  7  8  1  0
  8  9  1  0
  9 10  2  0
 10 11  1  0
 11 12  2  0
 12 13  1  0
 13 14  2  0
 14 15  1  0
 15 16  2  0
 16 17  1  0
 17 18  2  0
 17 19  1  0
 19 20  1  0
 20 21  2  0
 21 22  1  0
 22 23  2  0
 23 24  1  0
 24 25  1  0
 25 26  2  0
 25 27  1  0
 27 28  1  0
 28 29  1  0
 29 30  1  0
 30 31  1  0
 30 32  1  0
 32 33  1  0
 24 34  2  0
 16 35  1  0
 35 36  2  0
 12 37  1  0
  8 38  2  0
 38 39  1  0
 39  2  1  0
 39  6  2  0
 37  9  1  0
 36 13  1  0
 34 20  1  0
 33 27  1  0
  1 40  1  0
  1 41  1  0
  1 42  1  0
  3 43  1  0
  4 44  1  0
  5 45  1  0
 10 46  1  0
 11 47  1  0
 14 48  1  0
 15 49  1  0
 19 50  1  0
 21 51  1  0
 22 52  1  0
 23 53  1  0
 28 54  1  0
 28 55  1  0
 29 56  1  0
 29 57  1  0
 31 58  1  0
 31 59  1  0
 31 60  1  0
 32 61  1  0
 32 62  1  0
 33 63  1  0
 33 64  1  0
 34 65  1  0
 35 66  1  0
 36 67  1  0
M  CHG  1   7  -1
M  END
>  <UniqueID>  (29) 
27

>  <SMILES>  (29) 
Cc1cccc2[n-]c(-c3ccc(-c4ccc(C(=O)Nc5cccc(C(=O)N6CCN(C)CC6)c5)cc4)s3)nc12

>  <Energy>  (29) 
154.69649702566142

>  <Genealogy>  (29) 
Cc1cccc2[n-]c(-c3ccc(-c4ccc(C(=O)Nc5cccc(C(=O)N6CCN(C)CC6)c5)cc4)s3)nc12 (protonated)
Cc1cccc2[n-]c(-c3ccc(-c4ccc(C(=O)Nc5cccc(C(=O)N6CCN(C)CC6)c5)cc4)s3)nc12 (3D coordinates assigned)
Cc1cccc2[n-]c(-c3ccc(-c4ccc(C(=O)Nc5cccc(C(=O)N6CCN(C)CC6)c5)cc4)s3)nc12 (nonaromatic ring conformer: 154.69649702566142 kcal/mol)

>  <smiles>  (29) 
Cc1cccc2[nH]c(-c3ccc(-c4ccc(C(=O)Nc5cccc(C(=O)N6CCN(C)CC6)c5)cc4)s3)nc12

>  <score_type>  (29) 
oracle

>  <origin>  (29) 
adgpu

>  <m_score__min__energy>  (29) 
-7.7800000000000002

>  <m_primary>  (29) 
energy

$$$$
29:0
     RDKit          3D

 41 43  0  0  0  0  0  0  0  0999 V2000
   -0.3554   22.7382  -26.1186 H   0  0  0  0  0  0  0  0  0  0  0  0
   -1.0820   23.1000  -26.8610 C   0  0  0  0  0  0  0  0  0  0  0  0
   -2.1650   22.2980  -27.2260 C   0  0  0  0  0  0  0  0  0  0  0  0
   -2.2841   21.3000  -26.7790 H   0  0  0  0  0  0  0  0  0  0  0  0
   -3.0990   22.7610  -28.1590 C   0  0  0  0  0  0  0  0  0  0  0  0
   -3.9451   22.1211  -28.4498 H   0  0  0  0  0  0  0  0  0  0  0  0
   -2.9620   24.0400  -28.7270 C   0  0  0  0  0  0  0  0  0  0  0  0
   -3.9870   24.5290  -29.6760 C   0  0  0  0  0  0  0  0  0  0  0  0
   -3.6460   25.3000  -30.6120 O   0  0  0  0  0  0  0  0  0  0  0  0
   -5.3680   24.1660  -29.5460 N   0  0  0  0  0  0  0  0  0  0  0  0
   -5.9820   23.0430  -30.1930 C   0  0  0  0  0  0  0  0  0  0  0  0
   -5.1810   22.1350  -30.8940 C   0  0  0  0  0  0  0  0  0  0  0  0
   -4.0872   22.2518  -30.8895 H   0  0  0  0  0  0  0  0  0  0  0  0
   -5.7660   21.0800  -31.6000 C   0  0  0  0  0  0  0  0  0  0  0  0
   -5.1328   20.3793  -32.1640 H   0  0  0  0  0  0  0  0  0  0  0  0
   -7.1570   20.9130  -31.5910 C   0  0  0  0  0  0  0  0  0  0  0  0
   -7.9040   19.6430  -32.5520 S   0  0  0  0  0  0  0  0  0  0  0  0
   -9.1910   20.1830  -33.1070 O   0  0  0  0  0  0  0  0  0  0  0  0
   -8.2170   18.4330  -31.7160 O   0  0  0  0  0  0  0  0  0  0  0  0
   -6.8880   19.1820  -33.8820 N   0  0  0  0  0  0  0  0  0  0  0  0
   -5.9690   18.2610  -33.9600 C   0  0  0  0  0  0  0  0  0  0  0  0
   -5.2900   18.0710  -35.0680 O   0  0  0  0  0  0  0  0  0  0  0  0
   -4.4070   17.1270  -34.9300 N   0  0  0  0  0  0  0  0  0  0  0  0
   -4.5110   16.6690  -33.6700 C   0  0  0  0  0  0  0  0  0  0  0  0
   -3.6370   15.5910  -33.1140 C   0  0  0  0  0  0  0  0  0  0  0  0
   -3.6655   15.6262  -32.0149 H   0  0  0  0  0  0  0  0  0  0  0  0
   -3.9988   14.6112  -33.4590 H   0  0  0  0  0  0  0  0  0  0  0  0
   -2.6035   15.7424  -33.4590 H   0  0  0  0  0  0  0  0  0  0  0  0
   -5.5160   17.3520  -32.9990 C   0  0  0  0  0  0  0  0  0  0  0  0
   -5.8750   17.1600  -31.5540 C   0  0  0  0  0  0  0  0  0  0  0  0
   -5.0824   17.5839  -30.9198 H   0  0  0  0  0  0  0  0  0  0  0  0
   -6.8264   17.6697  -31.3417 H   0  0  0  0  0  0  0  0  0  0  0  0
   -5.9792   16.0857  -31.3417 H   0  0  0  0  0  0  0  0  0  0  0  0
   -7.9550   21.7760  -30.8290 C   0  0  0  0  0  0  0  0  0  0  0  0
   -9.0420   21.6159  -30.7759 H   0  0  0  0  0  0  0  0  0  0  0  0
   -7.3720   22.8390  -30.1370 C   0  0  0  0  0  0  0  0  0  0  0  0
   -8.0024   23.5195  -29.5458 H   0  0  0  0  0  0  0  0  0  0  0  0
   -1.8480   24.8310  -28.3750 C   0  0  0  0  0  0  0  0  0  0  0  0
   -1.6390   26.0740  -28.9640 O   0  0  0  0  0  0  0  0  0  0  0  0
   -0.9210   24.3610  -27.4380 C   0  0  0  0  0  0  0  0  0  0  0  0
   -0.0622   24.9875  -27.1550 H   0  0  0  0  0  0  0  0  0  0  0  0
  1  2  1  0
  2  3  2  0
  3  4  1  0
  3  5  1  0
  5  6  1  0
  5  7  2  0
  7  8  1  0
  8  9  2  0
  8 10  1  0
 10 11  1  0
 11 12  2  0
 12 13  1  0
 12 14  1  0
 14 15  1  0
 14 16  2  0
 16 17  1  0
 17 18  2  0
 17 19  2  0
 17 20  1  0
 20 21  2  0
 21 22  1  0
 22 23  1  0
 23 24  1  0
 24 25  1  0
 25 26  1  0
 25 27  1  0
 25 28  1  0
 24 29  2  0
 29 30  1  0
 30 31  1  0
 30 32  1  0
 30 33  1  0
 16 34  1  0
 34 35  1  0
 34 36  2  0
 36 37  1  0
  7 38  1  0
 38 39  1  0
 38 40  2  0
 40 41  1  0
 40  2  1  0
 36 11  1  0
 29 21  1  0
M  CHG  3  10  -1  23  -1  39  -1
M  END
>  <UniqueID>  (30) 
28

>  <SMILES>  (30) 
Cc1[n-]o/c(=N/S(=O)(=O)c2ccc([N-]C(=O)c3ccccc3[O-])cc2)c1C

>  <Energy>  (30) 
89.84349913466367

>  <Genealogy>  (30) 
Cc1[n-]oc(=NS(=O)(=O)c2ccc([N-]C(=O)c3ccccc3[O-])cc2)c1C (protonated)
Cc1[n-]o/c(=N/S(=O)(=O)c2ccc([N-]C(=O)c3ccccc3[O-])cc2)c1C (cis-trans isomerization)
Cc1[n-]o/c(=N/S(=O)(=O)c2ccc([N-]C(=O)c3ccccc3[O-])cc2)c1C (3D coordinates assigned)
Cc1[n-]o/c(=N/S(=O)(=O)c2ccc([N-]C(=O)c3ccccc3[O-])cc2)c1C (optimized conformer: 89.84349913466367 kcal/mol)

>  <smiles>  (30) 
Cc1[nH]oc(=NS(=O)(=O)c2ccc(NC(=O)c3ccccc3O)cc2)c1C

>  <score_type>  (30) 
oracle

>  <origin>  (30) 
adgpu

>  <m_score__min__energy>  (30) 
-13.220000000000001

>  <m_primary>  (30) 
energy

$$$$
30:0
     RDKit          3D

 28 29  0  0  0  0  0  0  0  0999 V2000
   -3.6680   21.8260  -32.1810 C   0  0  0  0  0  0  0  0  0  0  0  0
   -4.6320   22.8240  -32.6230 N   0  0  0  0  0  0  0  0  0  0  0  0
   -5.3390   23.6360  -31.6830 C   0  0  0  0  0  0  0  0  0  0  0  0
   -6.6550   23.7330  -31.2590 C   0  0  0  0  0  0  0  0  0  0  0  0
   -7.8870   23.0670  -31.5550 N   0  0  0  0  0  0  0  0  0  0  0  0
   -7.9810   21.6630  -31.8350 C   0  0  0  0  0  0  0  0  0  0  0  0
   -9.0240   20.8850  -31.3030 C   0  0  0  0  0  0  0  0  0  0  0  0
   -9.1070   19.5220  -31.6020 C   0  0  0  0  0  0  0  0  0  0  0  0
   -8.1690   18.9300  -32.4500 C   0  0  0  0  0  0  0  0  0  0  0  0
   -7.1490   19.7050  -33.0230 C   0  0  0  0  0  0  0  0  0  0  0  0
   -6.1230   19.0660  -33.9120 C   0  0  0  0  0  0  0  0  0  0  0  0
   -7.0560   21.0690  -32.7060 C   0  0  0  0  0  0  0  0  0  0  0  0
   -6.3110   24.7960  -30.4470 C   0  0  0  0  0  0  0  0  0  0  0  0
   -6.9390   25.5550  -29.6630 O   0  0  0  0  0  0  0  0  0  0  0  0
   -4.9950   24.6770  -30.8410 C   0  0  0  0  0  0  0  0  0  0  0  0
   -3.9260   25.2810  -30.5620 O   0  0  0  0  0  0  0  0  0  0  0  0
   -3.6440   21.8011  -31.0815 H   0  0  0  0  0  0  0  0  0  0  0  0
   -3.9619   20.8375  -32.5638 H   0  0  0  0  0  0  0  0  0  0  0  0
   -2.6699   22.0855  -32.5638 H   0  0  0  0  0  0  0  0  0  0  0  0
   -4.7860   22.9670  -33.6460 H   0  0  0  0  0  0  0  0  0  0  0  0
   -8.7540   23.6480  -31.5960 H   0  0  0  0  0  0  0  0  0  0  0  0
   -9.7769   21.3500  -30.6496 H   0  0  0  0  0  0  0  0  0  0  0  0
   -9.9141   18.9137  -31.1677 H   0  0  0  0  0  0  0  0  0  0  0  0
   -8.2297   17.8538  -32.6694 H   0  0  0  0  0  0  0  0  0  0  0  0
   -5.3507   18.5850  -33.2938 H   0  0  0  0  0  0  0  0  0  0  0  0
   -6.6079   18.3099  -34.5470 H   0  0  0  0  0  0  0  0  0  0  0  0
   -5.6583   19.8346  -34.5470 H   0  0  0  0  0  0  0  0  0  0  0  0
   -6.2510   21.6772  -33.1443 H   0  0  0  0  0  0  0  0  0  0  0  0
  1  2  1  0
  2  3  1  0
  3  4  2  0
  4  5  1  0
  5  6  1  0
  6  7  2  0
  7  8  1  0
  8  9  2  0
  9 10  1  0
 10 11  1  0
 10 12  2  0
  4 13  1  0
 13 14  2  0
 13 15  1  0
 15 16  2  0
 15  3  1  0
 12  6  1  0
  1 17  1  0
  1 18  1  0
  1 19  1  0
  2 20  1  0
  5 21  1  0
  7 22  1  0
  8 23  1  0
  9 24  1  0
 11 25  1  0
 11 26  1  0
 11 27  1  0
 12 28  1  0
M  END
>  <UniqueID>  (31) 
29

>  <SMILES>  (31) 
CNc1c(Nc2cccc(C)c2)c(=O)c1=O

>  <Energy>  (31) 
17.97769136987803

>  <Genealogy>  (31) 
CNc1c(Nc2cccc(C)c2)c(=O)c1=O (3D coordinates assigned)
CNc1c(Nc2cccc(C)c2)c(=O)c1=O (optimized conformer: 17.97769136987803 kcal/mol)

>  <smiles>  (31) 
CNc1c(Nc2cccc(C)c2)c(=O)c1=O

>  <score_type>  (31) 
oracle

>  <origin>  (31) 
adgpu

>  <m_score__min__energy>  (31) 
-7.3499999999999996

>  <m_primary>  (31) 
energy

$$$$
31:0
     RDKit          3D

 47 50  0  0  0  0  0  0  0  0999 V2000
   -1.2700   19.6040  -34.2300 C   0  0  0  0  0  0  0  0  0  0  0  0
   -2.6500   19.9570  -33.7590 C   0  0  0  0  0  0  0  0  0  0  0  0
   -2.9310   21.2320  -33.2460 C   0  0  0  0  0  0  0  0  0  0  0  0
   -4.2210   21.5480  -32.8110 C   0  0  0  0  0  0  0  0  0  0  0  0
   -5.2510   20.5970  -32.8920 C   0  0  0  0  0  0  0  0  0  0  0  0
   -6.6170   20.9190  -32.4210 C   0  0  0  0  0  0  0  0  0  0  0  0
   -7.7510   20.1860  -32.7220 C   0  0  0  0  0  0  0  0  0  0  0  0
   -8.7830   20.7420  -31.9940 C   0  0  0  0  0  0  0  0  0  0  0  0
   -8.3320   21.7820  -31.2700 N   0  0  0  0  0  0  0  0  0  0  0  0
   -7.0160   21.9120  -31.5300 C   0  0  0  0  0  0  0  0  0  0  0  0
   -6.1980   23.0050  -30.9650 C   0  0  0  0  0  0  0  0  0  0  0  0
   -6.2910   24.3160  -31.4490 C   0  0  0  0  0  0  0  0  0  0  0  0
   -5.5010   25.3020  -30.8610 C   0  0  0  0  0  0  0  0  0  0  0  0
   -4.6820   24.9850  -29.8250 N   0  0  0  0  0  0  0  0  0  0  0  0
   -4.6220   23.7140  -29.3390 C   0  0  0  0  0  0  0  0  0  0  0  0
   -3.8230   23.4020  -28.3600 N   0  0  0  0  0  0  0  0  0  0  0  0
   -2.9940   24.3010  -27.6050 C   0  0  0  0  0  0  0  0  0  0  0  0
   -3.4680   24.7860  -26.3800 C   0  0  0  0  0  0  0  0  0  0  0  0
   -2.7060   25.6850  -25.6290 C   0  0  0  0  0  0  0  0  0  0  0  0
   -1.4660   26.1300  -26.1080 C   0  0  0  0  0  0  0  0  0  0  0  0
   -0.4900   27.2590  -25.1730 S   0  0  0  0  0  0  0  0  0  0  0  0
   -0.9230   27.1440  -23.5020 N   0  0  0  0  0  0  0  0  0  0  0  0
    0.9640   26.9250  -25.3470 O   0  0  0  0  0  0  0  0  0  0  0  0
   -0.7260   28.6660  -25.6470 O   0  0  0  0  0  0  0  0  0  0  0  0
   -1.0000   25.6720  -27.3460 C   0  0  0  0  0  0  0  0  0  0  0  0
   -1.7610   24.7710  -28.0970 C   0  0  0  0  0  0  0  0  0  0  0  0
   -5.3760   22.7410  -29.9140 N   0  0  0  0  0  0  0  0  0  0  0  0
   -4.9620   19.3160  -33.3890 C   0  0  0  0  0  0  0  0  0  0  0  0
   -3.6720   19.0000  -33.8240 C   0  0  0  0  0  0  0  0  0  0  0  0
   -0.6173   19.4370  -33.3605 H   0  0  0  0  0  0  0  0  0  0  0  0
   -1.3130   18.6879  -34.8374 H   0  0  0  0  0  0  0  0  0  0  0  0
   -0.8679   20.4282  -34.8374 H   0  0  0  0  0  0  0  0  0  0  0  0
   -2.1326   21.9863  -33.1858 H   0  0  0  0  0  0  0  0  0  0  0  0
   -4.4307   22.5477  -32.4027 H   0  0  0  0  0  0  0  0  0  0  0  0
   -7.8171   19.3281  -33.4073 H   0  0  0  0  0  0  0  0  0  0  0  0
   -9.8238   20.3862  -32.0043 H   0  0  0  0  0  0  0  0  0  0  0  0
   -8.9080   22.3900  -30.6450 H   0  0  0  0  0  0  0  0  0  0  0  0
   -6.9733   24.5622  -32.2759 H   0  0  0  0  0  0  0  0  0  0  0  0
   -5.5407   26.3356  -31.2354 H   0  0  0  0  0  0  0  0  0  0  0  0
   -4.4485   24.4566  -26.0056 H   0  0  0  0  0  0  0  0  0  0  0  0
   -3.0803   26.0445  -24.6591 H   0  0  0  0  0  0  0  0  0  0  0  0
   -1.9390   27.3800  -23.4330 H   0  0  0  0  0  0  0  0  0  0  0  0
   -0.4040   27.8990  -22.9990 H   0  0  0  0  0  0  0  0  0  0  0  0
   -0.0306   26.0226  -27.7298 H   0  0  0  0  0  0  0  0  0  0  0  0
   -1.3952   24.4279  -29.0760 H   0  0  0  0  0  0  0  0  0  0  0  0
   -5.7561   18.5562  -33.4363 H   0  0  0  0  0  0  0  0  0  0  0  0
   -3.4578   17.9960  -34.2191 H   0  0  0  0  0  0  0  0  0  0  0  0
  1  2  1  0
  2  3  2  0
  3  4  1  0
  4  5  2  0
  5  6  1  0
  6  7  1  0
  7  8  2  0
  8  9  1  0
  9 10  1  0
 10 11  1  0
 11 12  1  0
 12 13  2  0
 13 14  1  0
 14 15  1  0
 15 16  2  3
 16 17  1  0
 17 18  2  0
 18 19  1  0
 19 20  2  0
 20 21  1  0
 21 22  1  0
 21 23  2  0
 21 24  2  0
 20 25  1  0
 25 26  2  0
 15 27  1  0
  5 28  1  0
 28 29  2  0
 29  2  1  0
 10  6  2  0
 27 11  2  0
 26 17  1  0
  1 30  1  0
  1 31  1  0
  1 32  1  0
  3 33  1  0
  4 34  1  0
  7 35  1  0
  8 36  1  0
  9 37  1  0
 12 38  1  0
 13 39  1  0
 18 40  1  0
 19 41  1  0
 22 42  1  0
 22 43  1  0
 25 44  1  0
 26 45  1  0
 28 46  1  0
 29 47  1  0
M  CHG  1  14  -1
M  END
>  <UniqueID>  (32) 
30

>  <SMILES>  (32) 
Cc1ccc(-c2cc[nH]c2-c2cc[n-]c(=Nc3ccc(S(N)(=O)=O)cc3)n2)cc1

>  <Energy>  (32) 
90.10384609989619

>  <Genealogy>  (32) 
Cc1ccc(-c2cc[nH]c2-c2cc[n-]c(=Nc3ccc(S(N)(=O)=O)cc3)n2)cc1 (protonated)
Cc1ccc(-c2cc[nH]c2-c2cc[n-]c(=Nc3ccc(S(N)(=O)=O)cc3)n2)cc1 (3D coordinates assigned)
Cc1ccc(-c2cc[nH]c2-c2cc[n-]c(=Nc3ccc(S(N)(=O)=O)cc3)n2)cc1 (optimized conformer: 90.10384609989619 kcal/mol)

>  <smiles>  (32) 
Cc1ccc(-c2cc[nH]c2-c2cc[nH]c(=Nc3ccc(S(N)(=O)=O)cc3)n2)cc1

>  <score_type>  (32) 
oracle

>  <origin>  (32) 
adgpu

>  <m_score__min__energy>  (32) 
-10.07

>  <m_primary>  (32) 
energy

$$$$
32:0
     RDKit          3D

 38 41  0  0  0  0  0  0  0  0999 V2000
   -0.4320   19.8760  -27.1580 O   0  0  0  0  0  0  0  0  0  0  0  0
    0.1140   20.7410  -28.2600 S   0  0  0  0  0  0  0  0  0  0  0  0
    1.3050   20.0550  -28.8680 O   0  0  0  0  0  0  0  0  0  0  0  0
    0.6060   22.2650  -27.6010 N   0  0  0  0  0  0  0  0  0  0  0  0
   -0.2250   23.4250  -27.6570 C   0  0  0  0  0  0  0  0  0  0  0  0
   -1.4880   23.4550  -27.0820 C   0  0  0  0  0  0  0  0  0  0  0  0
   -2.1270   24.9850  -27.3580 S   0  0  0  0  0  0  0  0  0  0  0  0
   -0.7770   25.5370  -28.1930 C   0  0  0  0  0  0  0  0  0  0  0  0
    0.1670   24.5740  -28.2720 N   0  0  0  0  0  0  0  0  0  0  0  0
   -1.0980   21.0040  -29.5100 C   0  0  0  0  0  0  0  0  0  0  0  0
   -2.4560   20.7780  -29.2500 C   0  0  0  0  0  0  0  0  0  0  0  0
   -3.4110   21.0190  -30.2420 C   0  0  0  0  0  0  0  0  0  0  0  0
   -3.0160   21.5010  -31.5030 C   0  0  0  0  0  0  0  0  0  0  0  0
   -3.9420   21.7420  -32.5290 O   0  0  0  0  0  0  0  0  0  0  0  0
   -5.3360   21.6350  -32.4080 C   0  0  0  0  0  0  0  0  0  0  0  0
   -6.0060   20.4770  -32.8440 C   0  0  0  0  0  0  0  0  0  0  0  0
   -7.3810   20.3610  -32.6560 C   0  0  0  0  0  0  0  0  0  0  0  0
   -8.0700   21.3540  -32.0400 N   0  0  0  0  0  0  0  0  0  0  0  0
   -7.4560   22.4820  -31.5980 C   0  0  0  0  0  0  0  0  0  0  0  0
   -6.0730   22.6600  -31.7750 C   0  0  0  0  0  0  0  0  0  0  0  0
   -5.4380   23.9100  -31.2930 C   0  0  0  0  0  0  0  0  0  0  0  0
   -6.0730   25.0450  -30.8220 C   0  0  0  0  0  0  0  0  0  0  0  0
   -5.0440   25.8880  -30.4660 C   0  0  0  0  0  0  0  0  0  0  0  0
   -3.8650   25.2840  -30.7030 N   0  0  0  0  0  0  0  0  0  0  0  0
   -4.1040   24.0800  -31.2010 N   0  0  0  0  0  0  0  0  0  0  0  0
   -1.6570   21.7060  -31.7640 C   0  0  0  0  0  0  0  0  0  0  0  0
   -0.7020   21.4670  -30.7710 C   0  0  0  0  0  0  0  0  0  0  0  0
   -1.9796   22.6303  -26.5452 H   0  0  0  0  0  0  0  0  0  0  0  0
   -0.6757   26.5465  -28.6180 H   0  0  0  0  0  0  0  0  0  0  0  0
   -2.7716   20.4099  -28.2626 H   0  0  0  0  0  0  0  0  0  0  0  0
   -4.4750   20.8311  -30.0357 H   0  0  0  0  0  0  0  0  0  0  0  0
   -5.4455   19.6659  -33.3318 H   0  0  0  0  0  0  0  0  0  0  0  0
   -7.9093   19.4625  -33.0076 H   0  0  0  0  0  0  0  0  0  0  0  0
   -8.0464   23.2633  -31.0970 H   0  0  0  0  0  0  0  0  0  0  0  0
   -7.1545   25.2318  -30.7485 H   0  0  0  0  0  0  0  0  0  0  0  0
   -5.1668   26.8995  -30.0516 H   0  0  0  0  0  0  0  0  0  0  0  0
   -1.3378   22.0573  -32.7563 H   0  0  0  0  0  0  0  0  0  0  0  0
    0.3633   21.6431  -30.9809 H   0  0  0  0  0  0  0  0  0  0  0  0
  1  2  2  0
  2  3  2  0
  2  4  1  0
  4  5  1  0
  5  6  2  0
  6  7  1  0
  7  8  1  0
  8  9  2  0
  2 10  1  0
 10 11  2  0
 11 12  1  0
 12 13  2  0
 13 14  1  0
 14 15  1  0
 15 16  2  0
 16 17  1  0
 17 18  2  0
 18 19  1  0
 19 20  2  0
 20 21  1  0
 21 22  1  0
 22 23  2  0
 23 24  1  0
 24 25  1  0
 13 26  1  0
 26 27  2  0
  9  5  1  0
 27 10  1  0
 20 15  1  0
 25 21  2  0
  6 28  1  0
  8 29  1  0
 11 30  1  0
 12 31  1  0
 16 32  1  0
 17 33  1  0
 19 34  1  0
 22 35  1  0
 23 36  1  0
 26 37  1  0
 27 38  1  0
M  CHG  2   4  -1  24  -1
M  END
>  <UniqueID>  (33) 
31

>  <SMILES>  (33) 
O=S(=O)([N-]c1cscn1)c1ccc(Oc2ccncc2-c2cc[n-]n2)cc1

>  <Energy>  (33) 
113.59426988373727

>  <Genealogy>  (33) 
O=S(=O)([N-]c1cscn1)c1ccc(Oc2ccncc2-c2cc[n-]n2)cc1 (protonated)
O=S(=O)([N-]c1cscn1)c1ccc(Oc2ccncc2-c2cc[n-]n2)cc1 (3D coordinates assigned)
O=S(=O)([N-]c1cscn1)c1ccc(Oc2ccncc2-c2cc[n-]n2)cc1 (optimized conformer: 113.59426988373727 kcal/mol)

>  <smiles>  (33) 
O=S(=O)(Nc1cscn1)c1ccc(Oc2ccncc2-c2cc[nH]n2)cc1

>  <score_type>  (33) 
oracle

>  <origin>  (33) 
adgpu

>  <m_score__min__energy>  (33) 
-11.06

>  <m_primary>  (33) 
energy

$$$$
33:0
     RDKit          3D

 31 32  0  0  0  0  0  0  0  0999 V2000
   -3.2130   25.6720  -31.5950 H   0  0  0  0  0  0  0  0  0  0  0  0
   -3.8770   25.6660  -30.8280 O   0  0  0  0  0  0  0  0  0  0  0  0
   -4.8820   24.7060  -30.7440 C   0  0  0  0  0  0  0  0  0  0  0  0
   -6.1210   25.0180  -30.1690 C   0  0  0  0  0  0  0  0  0  0  0  0
   -6.3061   26.0298  -29.7791 H   0  0  0  0  0  0  0  0  0  0  0  0
   -7.1210   24.0470  -30.0900 C   0  0  0  0  0  0  0  0  0  0  0  0
   -8.0925   24.2950  -29.6375 H   0  0  0  0  0  0  0  0  0  0  0  0
   -6.8900   22.7600  -30.5850 C   0  0  0  0  0  0  0  0  0  0  0  0
   -7.6811   21.9985  -30.5204 H   0  0  0  0  0  0  0  0  0  0  0  0
   -5.6490   22.4340  -31.1660 C   0  0  0  0  0  0  0  0  0  0  0  0
   -5.3790   21.0820  -31.6960 C   0  0  0  0  0  0  0  0  0  0  0  0
   -4.3588   20.6732  -31.6504 H   0  0  0  0  0  0  0  0  0  0  0  0
   -6.3350   20.3700  -32.2160 N   0  0  0  0  0  0  0  0  0  0  0  0
   -6.2200   19.0410  -32.7580 C   0  0  0  0  0  0  0  0  0  0  0  0
   -5.0620   18.6070  -33.4360 C   0  0  0  0  0  0  0  0  0  0  0  0
   -4.2159   19.2975  -33.5680 H   0  0  0  0  0  0  0  0  0  0  0  0
   -4.9810   17.3080  -33.9410 C   0  0  0  0  0  0  0  0  0  0  0  0
   -4.0753   16.9842  -34.4748 H   0  0  0  0  0  0  0  0  0  0  0  0
   -6.0450   16.4160  -33.7720 C   0  0  0  0  0  0  0  0  0  0  0  0
   -5.9590   15.0860  -34.2910 N   0  0  0  0  0  0  0  0  0  0  0  0
   -6.8180   14.5680  -34.5810 H   0  0  0  0  0  0  0  0  0  0  0  0
   -5.0350   14.6100  -34.3910 H   0  0  0  0  0  0  0  0  0  0  0  0
   -7.1930   16.8320  -33.0870 C   0  0  0  0  0  0  0  0  0  0  0  0
   -8.0301   16.1314  -32.9510 H   0  0  0  0  0  0  0  0  0  0  0  0
   -7.2860   18.1350  -32.5720 C   0  0  0  0  0  0  0  0  0  0  0  0
   -8.5280   18.5640  -31.8380 C   0  0  0  0  0  0  0  0  0  0  0  0
   -8.3525   18.5034  -30.7538 H   0  0  0  0  0  0  0  0  0  0  0  0
   -8.7764   19.6000  -32.1119 H   0  0  0  0  0  0  0  0  0  0  0  0
   -9.3628   17.9021  -32.1119 H   0  0  0  0  0  0  0  0  0  0  0  0
   -4.6490   23.4180  -31.2390 C   0  0  0  0  0  0  0  0  0  0  0  0
   -3.6752   23.1741  -31.6888 H   0  0  0  0  0  0  0  0  0  0  0  0
  1  2  1  0
  2  3  1  0
  3  4  2  0
  4  5  1  0
  4  6  1  0
  6  7  1  0
  6  8  2  0
  8  9  1  0
  8 10  1  0
 10 11  1  0
 11 12  1  0
 11 13  2  0
 13 14  1  0
 14 15  2  0
 15 16  1  0
 15 17  1  0
 17 18  1  0
 17 19  2  0
 19 20  1  0
 20 21  1  0
 20 22  1  0
 19 23  1  0
 23 24  1  0
 23 25  2  0
 25 26  1  0
 26 27  1  0
 26 28  1  0
 26 29  1  0
 10 30  2  0
 30 31  1  0
 30  3  1  0
 25 14  1  0
M  END
>  <UniqueID>  (34) 
32

>  <SMILES>  (34) 
Cc1cc(N)ccc1/N=C/c1cccc(O)c1

>  <Energy>  (34) 
32.967540545723956

>  <Genealogy>  (34) 
Cc1cc(N)ccc1/N=C/c1cccc(O)c1 (cis-trans isomerization)
Cc1cc(N)ccc1/N=C/c1cccc(O)c1 (3D coordinates assigned)
Cc1cc(N)ccc1/N=C/c1cccc(O)c1 (optimized conformer: 32.967540545723956 kcal/mol)

>  <smiles>  (34) 
Cc1cc(N)ccc1N=Cc1cccc(O)c1

>  <score_type>  (34) 
oracle

>  <origin>  (34) 
adgpu

>  <m_score__min__energy>  (34) 
-7.9900000000000002

>  <m_primary>  (34) 
energy

$$$$
34:0
     RDKit          3D

 20 21  0  0  0  0  0  0  0  0999 V2000
   -9.3130   19.9990  -32.7250 C   0  0  0  0  0  0  0  0  0  0  0  0
   -8.2280   20.9080  -32.2290 C   0  0  0  0  0  0  0  0  0  0  0  0
   -8.5110   21.8850  -31.2650 C   0  0  0  0  0  0  0  0  0  0  0  0
   -7.4930   22.7100  -30.7740 C   0  0  0  0  0  0  0  0  0  0  0  0
   -6.1700   22.5590  -31.2310 C   0  0  0  0  0  0  0  0  0  0  0  0
   -5.0840   23.4270  -30.7190 C   0  0  0  0  0  0  0  0  0  0  0  0
   -4.8800   24.6970  -31.1420 N   0  0  0  0  0  0  0  0  0  0  0  0
   -3.8490   25.2990  -30.5510 N   0  0  0  0  0  0  0  0  0  0  0  0
   -3.2240   24.5100  -29.6520 C   0  0  0  0  0  0  0  0  0  0  0  0
   -1.9300   24.9880  -28.7800 S   0  0  0  0  0  0  0  0  0  0  0  0
   -3.9420   22.9960  -29.5490 S   0  0  0  0  0  0  0  0  0  0  0  0
   -5.8900   21.5650  -32.1850 C   0  0  0  0  0  0  0  0  0  0  0  0
   -6.9090   20.7420  -32.6740 C   0  0  0  0  0  0  0  0  0  0  0  0
   -9.8411   19.5565  -31.8675 H   0  0  0  0  0  0  0  0  0  0  0  0
  -10.0236   20.5754  -33.3356 H   0  0  0  0  0  0  0  0  0  0  0  0
   -8.8700   19.1984  -33.3356 H   0  0  0  0  0  0  0  0  0  0  0  0
   -9.5391   22.0040  -30.8923 H   0  0  0  0  0  0  0  0  0  0  0  0
   -7.7280   23.4816  -30.0260 H   0  0  0  0  0  0  0  0  0  0  0  0
   -4.8606   21.4337  -32.5498 H   0  0  0  0  0  0  0  0  0  0  0  0
   -6.6746   19.9603  -33.4116 H   0  0  0  0  0  0  0  0  0  0  0  0
  1  2  1  0
  2  3  2  0
  3  4  1  0
  4  5  2  0
  5  6  1  0
  6  7  2  0
  7  8  1  0
  8  9  1  0
  9 10  2  0
  9 11  1  0
  5 12  1  0
 12 13  2  0
 13  2  1  0
 11  6  1  0
  1 14  1  0
  1 15  1  0
  1 16  1  0
  3 17  1  0
  4 18  1  0
 12 19  1  0
 13 20  1  0
M  CHG  1   8  -1
M  END
>  <UniqueID>  (35) 
33

>  <SMILES>  (35) 
Cc1ccc(-c2n[n-]c(=S)s2)cc1

>  <Energy>  (35) 
55.02682356043823

>  <Genealogy>  (35) 
Cc1ccc(-c2n[n-]c(=S)s2)cc1 (protonated)
Cc1ccc(-c2n[n-]c(=S)s2)cc1 (3D coordinates assigned)
Cc1ccc(-c2n[n-]c(=S)s2)cc1 (optimized conformer: 55.02682356043823 kcal/mol)

>  <smiles>  (35) 
Cc1ccc(-c2n[nH]c(=S)s2)cc1

>  <score_type>  (35) 
oracle

>  <origin>  (35) 
adgpu

>  <m_score__min__energy>  (35) 
-8.6400000000000006

>  <m_primary>  (35) 
energy

$$$$
35:0
     RDKit          3D

 54 57  0  0  0  0  0  0  0  0999 V2000
   -4.1280   25.0040  -30.7080 N   0  0  0  0  0  0  0  0  0  0  0  0
   -4.9590   24.2050  -30.8240 C   0  0  0  0  0  0  0  0  0  0  0  0
   -5.9990   23.2150  -30.9490 C   0  0  0  0  0  0  0  0  0  0  0  0
   -7.0740   23.2530  -30.0480 C   0  0  0  0  0  0  0  0  0  0  0  0
   -8.0650   22.2670  -30.0940 C   0  0  0  0  0  0  0  0  0  0  0  0
   -7.9850   21.2340  -31.0310 C   0  0  0  0  0  0  0  0  0  0  0  0
   -6.9180   21.1870  -31.9290 C   0  0  0  0  0  0  0  0  0  0  0  0
   -5.9310   22.1850  -31.9130 C   0  0  0  0  0  0  0  0  0  0  0  0
   -4.5790   22.0740  -33.0980 S   0  0  0  0  0  0  0  0  0  0  0  0
   -4.6590   20.2750  -33.2100 C   0  0  0  0  0  0  0  0  0  0  0  0
   -5.6590   19.7080  -34.0170 C   0  0  0  0  0  0  0  0  0  0  0  0
   -5.7170   18.3280  -34.2070 C   0  0  0  0  0  0  0  0  0  0  0  0
   -4.7910   17.4970  -33.5800 C   0  0  0  0  0  0  0  0  0  0  0  0
   -3.8110   18.0420  -32.7490 C   0  0  0  0  0  0  0  0  0  0  0  0
   -3.7390   19.4310  -32.5420 C   0  0  0  0  0  0  0  0  0  0  0  0
   -2.7200   19.9560  -31.6090 C   0  0  0  0  0  0  0  0  0  0  0  0
   -1.5230   19.5730  -31.7130 O   0  0  0  0  0  0  0  0  0  0  0  0
   -3.0960   20.8830  -30.5760 N   0  0  0  0  0  0  0  0  0  0  0  0
   -2.1580   21.5860  -29.7460 C   0  0  0  0  0  0  0  0  0  0  0  0
   -1.7500   22.8760  -30.1140 C   0  0  0  0  0  0  0  0  0  0  0  0
   -0.8270   23.5750  -29.3340 C   0  0  0  0  0  0  0  0  0  0  0  0
   -0.2950   22.9910  -28.1770 C   0  0  0  0  0  0  0  0  0  0  0  0
    0.8500   23.8810  -27.1760 S   0  0  0  0  0  0  0  0  0  0  0  0
    1.6740   22.8980  -26.3950 O   0  0  0  0  0  0  0  0  0  0  0  0
    1.7810   24.6580  -28.0650 O   0  0  0  0  0  0  0  0  0  0  0  0
    0.0620   24.9760  -26.0570 N   0  0  0  0  0  0  0  0  0  0  0  0
   -1.3780   24.6870  -25.8950 C   0  0  0  0  0  0  0  0  0  0  0  0
   -2.2760   25.6400  -26.7030 C   0  0  0  0  0  0  0  0  0  0  0  0
   -1.6010   26.0980  -27.8510 O   0  0  0  0  0  0  0  0  0  0  0  0
   -0.5510   26.9670  -27.4750 C   0  0  0  0  0  0  0  0  0  0  0  0
    0.3470   26.3900  -26.3560 C   0  0  0  0  0  0  0  0  0  0  0  0
   -0.6760   21.6910  -27.8220 C   0  0  0  0  0  0  0  0  0  0  0  0
   -1.6010   20.9900  -28.6000 C   0  0  0  0  0  0  0  0  0  0  0  0
   -7.1375   24.0603  -29.3036 H   0  0  0  0  0  0  0  0  0  0  0  0
   -8.9097   22.3051  -29.3904 H   0  0  0  0  0  0  0  0  0  0  0  0
   -8.7634   20.4574  -31.0609 H   0  0  0  0  0  0  0  0  0  0  0  0
   -6.8499   20.3626  -32.6541 H   0  0  0  0  0  0  0  0  0  0  0  0
   -6.4020   20.3576  -34.5028 H   0  0  0  0  0  0  0  0  0  0  0  0
   -6.4949   17.8947  -34.8528 H   0  0  0  0  0  0  0  0  0  0  0  0
   -4.8323   16.4095  -33.7402 H   0  0  0  0  0  0  0  0  0  0  0  0
   -3.0882   17.3788  -32.2513 H   0  0  0  0  0  0  0  0  0  0  0  0
   -4.1110   20.9550  -30.3320 H   0  0  0  0  0  0  0  0  0  0  0  0
   -2.1598   23.3402  -31.0231 H   0  0  0  0  0  0  0  0  0  0  0  0
   -0.5163   24.5881  -29.6290 H   0  0  0  0  0  0  0  0  0  0  0  0
   -1.5688   23.6568  -26.2301 H   0  0  0  0  0  0  0  0  0  0  0  0
   -1.6241   24.8246  -24.8318 H   0  0  0  0  0  0  0  0  0  0  0  0
   -3.1883   25.1064  -27.0080 H   0  0  0  0  0  0  0  0  0  0  0  0
   -2.5351   26.5042  -26.0738 H   0  0  0  0  0  0  0  0  0  0  0  0
    0.0741   27.1627  -28.3587 H   0  0  0  0  0  0  0  0  0  0  0  0
   -1.0119   27.8856  -27.0828 H   0  0  0  0  0  0  0  0  0  0  0  0
    1.3974   26.4763  -26.6708 H   0  0  0  0  0  0  0  0  0  0  0  0
    0.1421   26.9661  -25.4416 H   0  0  0  0  0  0  0  0  0  0  0  0
   -0.2450   21.2195  -26.9265 H   0  0  0  0  0  0  0  0  0  0  0  0
   -1.8946   19.9688  -28.3154 H   0  0  0  0  0  0  0  0  0  0  0  0
  1  2  3  0
  2  3  1  0
  3  4  2  0
  4  5  1  0
  5  6  2  0
  6  7  1  0
  7  8  2  0
  8  9  1  0
  9 10  1  0
 10 11  2  0
 11 12  1  0
 12 13  2  0
 13 14  1  0
 14 15  2  0
 15 16  1  0
 16 17  2  0
 16 18  1  0
 18 19  1  0
 19 20  2  0
 20 21  1  0
 21 22  2  0
 22 23  1  0
 23 24  2  0
 23 25  2  0
 23 26  1  0
 26 27  1  0
 27 28  1  0
 28 29  1  0
 29 30  1  0
 30 31  1  0
 22 32  1  0
 32 33  2  0
  8  3  1  0
 15 10  1  0
 33 19  1  0
 31 26  1  0
  4 34  1  0
  5 35  1  0
  6 36  1  0
  7 37  1  0
 11 38  1  0
 12 39  1  0
 13 40  1  0
 14 41  1  0
 18 42  1  0
 20 43  1  0
 21 44  1  0
 27 45  1  0
 27 46  1  0
 28 47  1  0
 28 48  1  0
 30 49  1  0
 30 50  1  0
 31 51  1  0
 31 52  1  0
 32 53  1  0
 33 54  1  0
M  END
>  <UniqueID>  (36) 
34

>  <SMILES>  (36) 
N#Cc1ccccc1Sc1ccccc1C(=O)Nc1ccc(S(=O)(=O)N2CCOCC2)cc1

>  <Energy>  (36) 
71.94536539469787

>  <Genealogy>  (36) 
N#Cc1ccccc1Sc1ccccc1C(=O)Nc1ccc(S(=O)(=O)N2CCOCC2)cc1 (3D coordinates assigned)
N#Cc1ccccc1Sc1ccccc1C(=O)Nc1ccc(S(=O)(=O)N2CCOCC2)cc1 (nonaromatic ring conformer: 71.94536539469787 kcal/mol)

>  <smiles>  (36) 
N#Cc1ccccc1Sc1ccccc1C(=O)Nc1ccc(S(=O)(=O)N2CCOCC2)cc1

>  <score_type>  (36) 
oracle

>  <origin>  (36) 
adgpu

>  <m_score__min__energy>  (36) 
-10.220000000000001

>  <m_primary>  (36) 
energy

$$$$
36:0
     RDKit          3D

 75 79  0  0  0  0  0  0  0  0999 V2000
   -5.6170   25.0960  -30.3190 C   0  0  0  0  0  0  0  0  0  0  0  0
   -6.4030   23.7820  -30.2760 C   0  0  0  0  0  0  0  0  0  0  0  0
   -7.5810   23.7720  -31.2580 C   0  0  0  0  0  0  0  0  0  0  0  0
   -7.8920   22.3850  -31.7560 C   0  0  0  0  0  0  0  0  0  0  0  0
   -9.2060   21.8920  -31.7070 C   0  0  0  0  0  0  0  0  0  0  0  0
   -9.4940   20.6080  -32.1720 C   0  0  0  0  0  0  0  0  0  0  0  0
   -8.4760   19.8040  -32.6900 C   0  0  0  0  0  0  0  0  0  0  0  0
   -7.1510   20.2740  -32.7440 C   0  0  0  0  0  0  0  0  0  0  0  0
   -6.0870   19.4100  -33.3100 C   0  0  0  0  0  0  0  0  0  0  0  0
   -4.9210   18.9860  -32.6990 C   0  0  0  0  0  0  0  0  0  0  0  0
   -4.2640   18.2380  -33.6110 N   0  0  0  0  0  0  0  0  0  0  0  0
   -2.9830   17.5900  -33.4750 C   0  0  0  0  0  0  0  0  0  0  0  0
   -2.9030   16.3100  -32.8980 C   0  0  0  0  0  0  0  0  0  0  0  0
   -1.6750   15.6540  -32.7840 C   0  0  0  0  0  0  0  0  0  0  0  0
   -0.5050   16.2610  -33.2530 C   0  0  0  0  0  0  0  0  0  0  0  0
    1.0280   15.4000  -33.1370 S   0  0  0  0  0  0  0  0  0  0  0  0
    1.7370   15.4540  -34.4610 O   0  0  0  0  0  0  0  0  0  0  0  0
    0.7880   13.9600  -32.7810 O   0  0  0  0  0  0  0  0  0  0  0  0
    1.9790   16.1230  -31.8800 N   0  0  0  0  0  0  0  0  0  0  0  0
    1.4300   16.8900  -30.8050 C   0  0  0  0  0  0  0  0  0  0  0  0
    1.2190   18.2610  -30.9870 C   0  0  0  0  0  0  0  0  0  0  0  0
    0.7110   19.0430  -29.9450 C   0  0  0  0  0  0  0  0  0  0  0  0
    0.3780   18.4530  -28.7160 C   0  0  0  0  0  0  0  0  0  0  0  0
   -0.1820   19.2930  -27.5960 C   0  0  0  0  0  0  0  0  0  0  0  0
   -1.6850   19.0330  -27.4120 C   0  0  0  0  0  0  0  0  0  0  0  0
   -2.4540   20.2800  -27.5370 N   0  0  0  0  0  0  0  0  0  0  0  0
   -1.7040   21.3130  -28.2660 C   0  0  0  0  0  0  0  0  0  0  0  0
   -2.6620   22.1810  -29.1080 C   0  0  2  0  0  0  0  0  0  0  0  0
   -3.9840   22.0530  -28.6450 O   0  0  0  0  0  0  0  0  0  0  0  0
   -2.5820   21.8730  -30.5930 C   0  0  0  0  0  0  0  0  0  0  0  0
   -1.3990   21.3760  -31.1760 C   0  0  0  0  0  0  0  0  0  0  0  0
   -1.3410   21.1390  -32.5490 C   0  0  0  0  0  0  0  0  0  0  0  0
   -2.4620   21.4010  -33.3370 C   0  0  0  0  0  0  0  0  0  0  0  0
   -3.6020   21.8700  -32.7630 N   0  0  0  0  0  0  0  0  0  0  0  0
   -3.6870   22.1070  -31.4280 C   0  0  0  0  0  0  0  0  0  0  0  0
    0.5550   17.0680  -28.5490 C   0  0  0  0  0  0  0  0  0  0  0  0
    1.0810   16.2930  -29.5850 C   0  0  0  0  0  0  0  0  0  0  0  0
   -0.5690   17.5400  -33.8170 C   0  0  0  0  0  0  0  0  0  0  0  0
   -1.7980   18.2010  -33.9300 C   0  0  0  0  0  0  0  0  0  0  0  0
   -4.9940   18.2080  -34.7170 N   0  0  0  0  0  0  0  0  0  0  0  0
   -6.1050   18.9110  -34.5640 N   0  0  0  0  0  0  0  0  0  0  0  0
   -6.8670   21.5690  -32.2660 C   0  0  0  0  0  0  0  0  0  0  0  0
   -5.4139   25.4355  -29.2926 H   0  0  0  0  0  0  0  0  0  0  0  0
   -4.6655   24.9370  -30.8476 H   0  0  0  0  0  0  0  0  0  0  0  0
   -6.2071   25.8591  -30.8476 H   0  0  0  0  0  0  0  0  0  0  0  0
   -5.7234   22.9555  -30.5313 H   0  0  0  0  0  0  0  0  0  0  0  0
   -6.8119   23.6693  -29.2611 H   0  0  0  0  0  0  0  0  0  0  0  0
   -8.4699   24.1739  -30.7497 H   0  0  0  0  0  0  0  0  0  0  0  0
   -7.3040   24.3891  -32.1255 H   0  0  0  0  0  0  0  0  0  0  0  0
  -10.0119   22.5206  -31.3003 H   0  0  0  0  0  0  0  0  0  0  0  0
  -10.5255   20.2281  -32.1305 H   0  0  0  0  0  0  0  0  0  0  0  0
   -8.7122   18.7949  -33.0588 H   0  0  0  0  0  0  0  0  0  0  0  0
   -4.5938   19.2131  -31.6736 H   0  0  0  0  0  0  0  0  0  0  0  0
   -3.8175   15.8200  -32.5324 H   0  0  0  0  0  0  0  0  0  0  0  0
   -1.6277   14.6561  -32.3236 H   0  0  0  0  0  0  0  0  0  0  0  0
    1.4541   18.7265  -31.9555 H   0  0  0  0  0  0  0  0  0  0  0  0
    0.5719   20.1246  -30.0892 H   0  0  0  0  0  0  0  0  0  0  0  0
    0.3432   19.0439  -26.6621 H   0  0  0  0  0  0  0  0  0  0  0  0
   -0.0379   20.3541  -27.8476 H   0  0  0  0  0  0  0  0  0  0  0  0
   -2.0240   18.3226  -28.1804 H   0  0  0  0  0  0  0  0  0  0  0  0
   -1.8488   18.6193  -26.4060 H   0  0  0  0  0  0  0  0  0  0  0  0
   -3.3140   20.0660  -28.0910 H   0  0  0  0  0  0  0  0  0  0  0  0
   -1.1745   21.9530  -27.5449 H   0  0  0  0  0  0  0  0  0  0  0  0
   -0.9835   20.8232  -28.9376 H   0  0  0  0  0  0  0  0  0  0  0  0
   -2.3376   23.2246  -28.9827 H   0  0  0  0  0  0  0  0  0  0  0  0
   -3.9530   21.6340  -27.7450 H   0  0  0  0  0  0  0  0  0  0  0  0
   -0.5196   21.1746  -30.5467 H   0  0  0  0  0  0  0  0  0  0  0  0
   -0.4198   20.7490  -33.0065 H   0  0  0  0  0  0  0  0  0  0  0  0
   -2.4237   21.2282  -34.4227 H   0  0  0  0  0  0  0  0  0  0  0  0
   -4.6267   22.4844  -30.9984 H   0  0  0  0  0  0  0  0  0  0  0  0
    0.2775   16.5922  -27.5968 H   0  0  0  0  0  0  0  0  0  0  0  0
    1.2219   15.2113  -29.4436 H   0  0  0  0  0  0  0  0  0  0  0  0
    0.3502   18.0282  -34.1731 H   0  0  0  0  0  0  0  0  0  0  0  0
   -1.8386   19.2051  -34.3775 H   0  0  0  0  0  0  0  0  0  0  0  0
   -5.8336   21.9449  -32.2922 H   0  0  0  0  0  0  0  0  0  0  0  0
  1  2  1  0
  2  3  1  0
  3  4  1  0
  4  5  2  0
  5  6  1  0
  6  7  2  0
  7  8  1  0
  8  9  1  0
  9 10  2  0
 10 11  1  0
 11 12  1  0
 12 13  2  0
 13 14  1  0
 14 15  2  0
 15 16  1  0
 16 17  2  0
 16 18  2  0
 16 19  1  0
 19 20  1  0
 20 21  2  0
 21 22  1  0
 22 23  2  0
 23 24  1  0
 24 25  1  0
 25 26  1  0
 26 27  1  0
 27 28  1  0
 28 29  1  0
 28 30  1  0
 30 31  2  0
 31 32  1  0
 32 33  2  0
 33 34  1  0
 34 35  2  0
 23 36  1  0
 36 37  2  0
 15 38  1  0
 38 39  2  0
 11 40  1  0
 40 41  2  0
  8 42  2  0
 42  4  1  0
 41  9  1  0
 39 12  1  0
 37 20  1  0
 35 30  1  0
  1 43  1  0
  1 44  1  0
  1 45  1  0
  2 46  1  0
  2 47  1  0
  3 48  1  0
  3 49  1  0
  5 50  1  0
  6 51  1  0
  7 52  1  0
 10 53  1  0
 13 54  1  0
 14 55  1  0
 21 56  1  0
 22 57  1  0
 24 58  1  0
 24 59  1  0
 25 60  1  0
 25 61  1  0
 26 62  1  0
 27 63  1  0
 27 64  1  0
 28 65  1  6
 29 66  1  0
 31 67  1  0
 32 68  1  0
 33 69  1  0
 35 70  1  0
 36 71  1  0
 37 72  1  0
 38 73  1  0
 39 74  1  0
 42 75  1  0
M  CHG  1  19  -1
M  END
>  <UniqueID>  (37) 
35

>  <SMILES>  (37) 
CCCc1cccc(-c2cn(-c3ccc(S(=O)(=O)[N-]c4ccc(CCNC[C@H](O)c5cccnc5)cc4)cc3)nn2)c1

>  <Energy>  (37) 
121.70356764612222

>  <Genealogy>  (37) 
CCCc1cccc(-c2cn(-c3ccc(S(=O)(=O)[N-]c4ccc(CCNCC(O)c5cccnc5)cc4)cc3)nn2)c1 (protonated)
CCCc1cccc(-c2cn(-c3ccc(S(=O)(=O)[N-]c4ccc(CCNC[C@H](O)c5cccnc5)cc4)cc3)nn2)c1 (chirality)
CCCc1cccc(-c2cn(-c3ccc(S(=O)(=O)[N-]c4ccc(CCNC[C@H](O)c5cccnc5)cc4)cc3)nn2)c1 (3D coordinates assigned)
CCCc1cccc(-c2cn(-c3ccc(S(=O)(=O)[N-]c4ccc(CCNC[C@H](O)c5cccnc5)cc4)cc3)nn2)c1 (optimized conformer: 121.70356764612222 kcal/mol)

>  <smiles>  (37) 
CCCc1cccc(-c2cn(-c3ccc(S(=O)(=O)Nc4ccc(CCNCC(O)c5cccnc5)cc4)cc3)nn2)c1

>  <score_type>  (37) 
oracle

>  <origin>  (37) 
adgpu

>  <m_score__min__energy>  (37) 
-11.710000000000001

>  <m_primary>  (37) 
energy

$$$$
37:0
     RDKit          3D

 44 46  0  0  0  0  0  0  0  0999 V2000
   -8.9050   23.0040  -32.0260 C   0  0  0  0  0  0  0  0  0  0  0  0
   -8.0960   22.6860  -30.8980 O   0  0  0  0  0  0  0  0  0  0  0  0
   -6.8540   23.2770  -30.6170 C   0  0  0  0  0  0  0  0  0  0  0  0
   -6.7370   24.3930  -29.7660 C   0  0  0  0  0  0  0  0  0  0  0  0
   -5.4870   24.9570  -29.5040 C   0  0  0  0  0  0  0  0  0  0  0  0
   -4.3280   24.4010  -30.0660 C   0  0  0  0  0  0  0  0  0  0  0  0
   -3.0250   24.9550  -29.8250 N   0  0  0  0  0  0  0  0  0  0  0  0
   -1.8640   24.2480  -29.3690 C   0  0  0  0  0  0  0  0  0  0  0  0
   -0.7530   24.8410  -29.3170 O   0  0  0  0  0  0  0  0  0  0  0  0
   -1.9890   22.8380  -28.9050 C   0  0  0  0  0  0  0  0  0  0  0  0
   -2.6330   22.5720  -27.6790 C   0  0  0  0  0  0  0  0  0  0  0  0
   -2.7670   21.2640  -27.2120 C   0  0  0  0  0  0  0  0  0  0  0  0
   -2.2650   20.2000  -27.9560 C   0  0  0  0  0  0  0  0  0  0  0  0
   -1.6280   20.4380  -29.1740 C   0  0  0  0  0  0  0  0  0  0  0  0
   -1.4820   21.7520  -29.6650 C   0  0  0  0  0  0  0  0  0  0  0  0
   -0.8490   22.0010  -30.8940 O   0  0  0  0  0  0  0  0  0  0  0  0
   -0.8460   21.1080  -32.0030 C   0  0  0  0  0  0  0  0  0  0  0  0
   -4.4420   23.3070  -30.9290 C   0  0  0  0  0  0  0  0  0  0  0  0
   -5.6980   22.7420  -31.2170 C   0  0  0  0  0  0  0  0  0  0  0  0
   -5.8050   21.5910  -32.0730 N   0  0  0  0  0  0  0  0  0  0  0  0
   -4.7150   21.0740  -32.8530 C   0  0  0  0  0  0  0  0  0  0  0  0
   -3.6540   21.7410  -32.9890 O   0  0  0  0  0  0  0  0  0  0  0  0
   -4.8460   19.7750  -33.5310 C   0  0  0  0  0  0  0  0  0  0  0  0
   -3.8150   18.8980  -33.8100 C   0  0  0  0  0  0  0  0  0  0  0  0
   -4.4020   17.8240  -34.4440 C   0  0  0  0  0  0  0  0  0  0  0  0
   -5.7510   18.1110  -34.5130 C   0  0  0  0  0  0  0  0  0  0  0  0
   -5.9840   19.2800  -33.9610 O   0  0  0  0  0  0  0  0  0  0  0  0
   -9.8778   23.3864  -31.6834 H   0  0  0  0  0  0  0  0  0  0  0  0
   -8.4025   23.7715  -32.6330 H   0  0  0  0  0  0  0  0  0  0  0  0
   -9.0596   22.0997  -32.6330 H   0  0  0  0  0  0  0  0  0  0  0  0
   -7.6376   24.8237  -29.3041 H   0  0  0  0  0  0  0  0  0  0  0  0
   -5.4105   25.8412  -28.8541 H   0  0  0  0  0  0  0  0  0  0  0  0
   -3.0344   23.4055  -27.0838 H   0  0  0  0  0  0  0  0  0  0  0  0
   -3.2709   21.0731  -26.2530 H   0  0  0  0  0  0  0  0  0  0  0  0
   -2.3707   19.1705  -27.5831 H   0  0  0  0  0  0  0  0  0  0  0  0
   -1.2355   19.5921  -29.7575 H   0  0  0  0  0  0  0  0  0  0  0  0
   -0.8425   20.0703  -31.6381 H   0  0  0  0  0  0  0  0  0  0  0  0
   -1.7447   21.2789  -32.6138 H   0  0  0  0  0  0  0  0  0  0  0  0
    0.0516   21.2849  -32.6138 H   0  0  0  0  0  0  0  0  0  0  0  0
   -3.5376   22.8822  -31.3890 H   0  0  0  0  0  0  0  0  0  0  0  0
   -6.7450   21.1510  -32.1940 H   0  0  0  0  0  0  0  0  0  0  0  0
   -2.7485   19.0296  -33.5751 H   0  0  0  0  0  0  0  0  0  0  0  0
   -3.8979   16.9211  -34.8191 H   0  0  0  0  0  0  0  0  0  0  0  0
   -6.5149   17.4593  -34.9622 H   0  0  0  0  0  0  0  0  0  0  0  0
  1  2  1  0
  2  3  1  0
  3  4  2  0
  4  5  1  0
  5  6  2  0
  6  7  1  0
  7  8  1  0
  8  9  2  0
  8 10  1  0
 10 11  2  0
 11 12  1  0
 12 13  2  0
 13 14  1  0
 14 15  2  0
 15 16  1  0
 16 17  1  0
  6 18  1  0
 18 19  2  0
 19 20  1  0
 20 21  1  0
 21 22  2  0
 21 23  1  0
 23 24  2  0
 24 25  1  0
 25 26  2  0
 26 27  1  0
 19  3  1  0
 27 23  1  0
 15 10  1  0
  1 28  1  0
  1 29  1  0
  1 30  1  0
  4 31  1  0
  5 32  1  0
 11 33  1  0
 12 34  1  0
 13 35  1  0
 14 36  1  0
 17 37  1  0
 17 38  1  0
 17 39  1  0
 18 40  1  0
 20 41  1  0
 24 42  1  0
 25 43  1  0
 26 44  1  0
M  CHG  1   7  -1
M  END
>  <UniqueID>  (38) 
36

>  <SMILES>  (38) 
COc1ccc([N-]C(=O)c2ccccc2OC)cc1NC(=O)c1ccco1

>  <Energy>  (38) 
80.61768467919771

>  <Genealogy>  (38) 
COc1ccc([N-]C(=O)c2ccccc2OC)cc1NC(=O)c1ccco1 (protonated)
COc1ccc([N-]C(=O)c2ccccc2OC)cc1NC(=O)c1ccco1 (3D coordinates assigned)
COc1ccc([N-]C(=O)c2ccccc2OC)cc1NC(=O)c1ccco1 (optimized conformer: 80.61768467919771 kcal/mol)

>  <smiles>  (38) 
COc1ccc(NC(=O)c2ccccc2OC)cc1NC(=O)c1ccco1

>  <score_type>  (38) 
oracle

>  <origin>  (38) 
adgpu

>  <m_score__min__energy>  (38) 
-9.2100000000000009

>  <m_primary>  (38) 
energy

$$$$
38:0
     RDKit          3D

 37 38  0  0  0  0  0  0  0  0999 V2000
   -1.6040   26.8160  -25.2410 C   0  0  0  0  0  0  0  0  0  0  0  0
   -0.9710   25.4830  -25.2650 N   0  0  0  0  0  0  0  0  0  0  0  0
    0.0950   25.4230  -24.2490 C   0  0  0  0  0  0  0  0  0  0  0  0
   -0.4130   25.1710  -26.6020 C   0  0  0  0  0  0  0  0  0  0  0  0
   -1.4250   24.4720  -27.4890 C   0  0  0  0  0  0  0  0  0  0  0  0
   -1.9650   25.1700  -28.5860 C   0  0  0  0  0  0  0  0  0  0  0  0
   -2.9660   24.5970  -29.3720 C   0  0  0  0  0  0  0  0  0  0  0  0
   -3.4890   25.3000  -30.4510 O   0  0  0  0  0  0  0  0  0  0  0  0
   -3.4480   23.3240  -29.0690 C   0  0  0  0  0  0  0  0  0  0  0  0
   -2.9230   22.6160  -27.9870 C   0  0  0  0  0  0  0  0  0  0  0  0
   -1.8970   23.1670  -27.2060 C   0  0  0  0  0  0  0  0  0  0  0  0
   -1.2290   22.1900  -25.8440 S   0  0  0  0  0  0  0  0  0  0  0  0
   -0.8440   20.7660  -26.8810 C   0  0  0  0  0  0  0  0  0  0  0  0
    0.1860   20.8720  -27.8270 C   0  0  0  0  0  0  0  0  0  0  0  0
    0.4920   19.7980  -28.6650 C   0  0  0  0  0  0  0  0  0  0  0  0
   -0.2230   18.6040  -28.5590 C   0  0  0  0  0  0  0  0  0  0  0  0
   -1.2350   18.4770  -27.6060 C   0  0  0  0  0  0  0  0  0  0  0  0
   -1.5490   19.5460  -26.7530 C   0  0  0  0  0  0  0  0  0  0  0  0
   -2.5640   19.3670  -25.7560 N   0  0  0  0  0  0  0  0  0  0  0  0
   -1.7540   27.1319  -24.1981 H   0  0  0  0  0  0  0  0  0  0  0  0
   -0.9536   27.5401  -25.7535 H   0  0  0  0  0  0  0  0  0  0  0  0
   -2.5762   26.7695  -25.7535 H   0  0  0  0  0  0  0  0  0  0  0  0
   -1.6940   24.7700  -25.0090 H   0  0  0  0  0  0  0  0  0  0  0  0
   -0.3536   25.4482  -23.2449 H   0  0  0  0  0  0  0  0  0  0  0  0
    0.6666   24.4913  -24.3719 H   0  0  0  0  0  0  0  0  0  0  0  0
    0.7676   26.2847  -24.3719 H   0  0  0  0  0  0  0  0  0  0  0  0
   -0.1042   26.1092  -27.0861 H   0  0  0  0  0  0  0  0  0  0  0  0
    0.4435   24.4947  -26.4642 H   0  0  0  0  0  0  0  0  0  0  0  0
   -1.5942   26.1774  -28.8261 H   0  0  0  0  0  0  0  0  0  0  0  0
   -4.2432   22.8772  -29.6838 H   0  0  0  0  0  0  0  0  0  0  0  0
   -3.3171   21.6180  -27.7449 H   0  0  0  0  0  0  0  0  0  0  0  0
    0.7571   21.8085  -27.9094 H   0  0  0  0  0  0  0  0  0  0  0  0
    1.2967   19.8929  -29.4089 H   0  0  0  0  0  0  0  0  0  0  0  0
    0.0112   17.7622  -29.2272 H   0  0  0  0  0  0  0  0  0  0  0  0
   -1.7908   17.5314  -27.5230 H   0  0  0  0  0  0  0  0  0  0  0  0
   -2.3530   18.8500  -24.8730 H   0  0  0  0  0  0  0  0  0  0  0  0
   -3.5190   19.7720  -25.8580 H   0  0  0  0  0  0  0  0  0  0  0  0
  1  2  1  0
  2  3  1  0
  2  4  1  0
  4  5  1  0
  5  6  2  0
  6  7  1  0
  7  8  1  0
  7  9  2  0
  9 10  1  0
 10 11  2  0
 11 12  1  0
 12 13  1  0
 13 14  2  0
 14 15  1  0
 15 16  2  0
 16 17  1  0
 17 18  2  0
 18 19  1  0
 11  5  1  0
 18 13  1  0
  1 20  1  0
  1 21  1  0
  1 22  1  0
  2 23  1  0
  3 24  1  0
  3 25  1  0
  3 26  1  0
  4 27  1  0
  4 28  1  0
  6 29  1  0
  9 30  1  0
 10 31  1  0
 14 32  1  0
 15 33  1  0
 16 34  1  0
 17 35  1  0
 19 36  1  0
 19 37  1  0
M  CHG  2   2   1   8  -1
M  END
>  <UniqueID>  (39) 
37

>  <SMILES>  (39) 
C[NH+](C)Cc1cc([O-])ccc1Sc1ccccc1N

>  <Energy>  (39) 
35.541588488486504

>  <Genealogy>  (39) 
C[NH+](C)Cc1cc([O-])ccc1Sc1ccccc1N (protonated)
C[NH+](C)Cc1cc([O-])ccc1Sc1ccccc1N (3D coordinates assigned)
C[NH+](C)Cc1cc([O-])ccc1Sc1ccccc1N (optimized conformer: 35.541588488486504 kcal/mol)

>  <smiles>  (39) 
CN(C)Cc1cc(O)ccc1Sc1ccccc1N

>  <score_type>  (39) 
oracle

>  <origin>  (39) 
adgpu

>  <m_score__min__energy>  (39) 
-8.2699999999999996

>  <m_primary>  (39) 
energy

$$$$
39:0
     RDKit          3D

 44 45  0  0  0  0  0  0  0  0999 V2000
   -6.9734   23.4832  -32.0588 H   0  0  0  0  0  0  0  0  0  0  0  0
   -6.1490   22.7560  -32.0190 C   0  0  0  0  0  0  0  0  0  0  0  0
   -6.2540   21.5480  -32.7160 C   0  0  0  0  0  0  0  0  0  0  0  0
   -7.1587   21.3315  -33.3031 H   0  0  0  0  0  0  0  0  0  0  0  0
   -5.2140   20.6140  -32.6700 C   0  0  0  0  0  0  0  0  0  0  0  0
   -5.3780   19.0810  -33.5240 S   0  0  0  0  0  0  0  0  0  0  0  0
   -6.1880   19.3160  -34.7690 O   0  0  0  0  0  0  0  0  0  0  0  0
   -4.0230   18.5640  -33.9240 O   0  0  0  0  0  0  0  0  0  0  0  0
   -6.1840   17.9160  -32.5030 N   0  0  0  0  0  0  0  0  0  0  0  0
   -6.8300   16.9030  -33.3510 C   0  0  0  0  0  0  0  0  0  0  0  0
   -7.3126   16.1462  -32.7151 H   0  0  0  0  0  0  0  0  0  0  0  0
   -7.5876   17.3855  -33.9861 H   0  0  0  0  0  0  0  0  0  0  0  0
   -6.0730   16.4196  -33.9861 H   0  0  0  0  0  0  0  0  0  0  0  0
   -7.1690   18.6000  -31.6410 C   0  0  0  0  0  0  0  0  0  0  0  0
   -6.8581   19.6460  -31.5025 H   0  0  0  0  0  0  0  0  0  0  0  0
   -7.2090   18.0738  -30.6759 H   0  0  0  0  0  0  0  0  0  0  0  0
   -8.5760   18.5740  -32.2660 C   0  0  0  0  0  0  0  0  0  0  0  0
   -9.2353   17.9814  -31.6147 H   0  0  0  0  0  0  0  0  0  0  0  0
   -8.4759   18.1347  -33.2695 H   0  0  0  0  0  0  0  0  0  0  0  0
   -9.1960   19.9730  -32.4440 C   0  0  0  0  0  0  0  0  0  0  0  0
  -10.2698   19.8555  -32.6515 H   0  0  0  0  0  0  0  0  0  0  0  0
   -8.6654   20.4621  -33.2742 H   0  0  0  0  0  0  0  0  0  0  0  0
   -9.0340   20.8650  -31.2140 C   0  0  0  0  0  0  0  0  0  0  0  0
   -9.1443   20.2577  -30.3035 H   0  0  0  0  0  0  0  0  0  0  0  0
   -8.0368   21.3293  -31.2265 H   0  0  0  0  0  0  0  0  0  0  0  0
   -9.8042   21.6502  -31.2265 H   0  0  0  0  0  0  0  0  0  0  0  0
   -4.0690   20.8900  -31.9100 C   0  0  0  0  0  0  0  0  0  0  0  0
   -3.2514   20.1556  -31.8626 H   0  0  0  0  0  0  0  0  0  0  0  0
   -3.9640   22.0970  -31.2120 C   0  0  0  0  0  0  0  0  0  0  0  0
   -3.0645   22.3044  -30.6138 H   0  0  0  0  0  0  0  0  0  0  0  0
   -4.9970   23.0470  -31.2680 C   0  0  0  0  0  0  0  0  0  0  0  0
   -4.8790   24.3230  -30.5190 C   0  0  0  0  0  0  0  0  0  0  0  0
   -5.9190   24.8850  -30.0890 O   0  0  0  0  0  0  0  0  0  0  0  0
   -3.6160   24.9770  -30.3220 N   0  0  0  0  0  0  0  0  0  0  0  0
   -2.7220   24.6610  -29.4300 C   0  0  0  0  0  0  0  0  0  0  0  0
   -1.5370   25.2920  -29.3330 N   0  0  0  0  0  0  0  0  0  0  0  0
   -0.9110   24.7500  -28.3280 O   0  0  0  0  0  0  0  0  0  0  0  0
   -1.6380   23.8090  -27.7680 C   0  0  0  0  0  0  0  0  0  0  0  0
   -1.2090   22.9920  -26.5960 C   0  0  0  0  0  0  0  0  0  0  0  0
   -1.4824   23.5126  -25.6664 H   0  0  0  0  0  0  0  0  0  0  0  0
   -1.7093   22.0129  -26.6287 H   0  0  0  0  0  0  0  0  0  0  0  0
   -0.1190   22.8480  -26.6287 H   0  0  0  0  0  0  0  0  0  0  0  0
   -2.8360   23.7010  -28.4380 C   0  0  0  0  0  0  0  0  0  0  0  0
   -3.6761   23.0204  -28.2355 H   0  0  0  0  0  0  0  0  0  0  0  0
  1  2  1  0
  2  3  2  0
  3  4  1  0
  3  5  1  0
  5  6  1  0
  6  7  2  0
  6  8  2  0
  6  9  1  0
  9 10  1  0
 10 11  1  0
 10 12  1  0
 10 13  1  0
  9 14  1  0
 14 15  1  0
 14 16  1  0
 14 17  1  0
 17 18  1  0
 17 19  1  0
 17 20  1  0
 20 21  1  0
 20 22  1  0
 20 23  1  0
 23 24  1  0
 23 25  1  0
 23 26  1  0
  5 27  2  0
 27 28  1  0
 27 29  1  0
 29 30  1  0
 29 31  2  0
 31 32  1  0
 32 33  2  0
 32 34  1  0
 34 35  2  0
 35 36  1  0
 36 37  1  0
 37 38  1  0
 38 39  1  0
 39 40  1  0
 39 41  1  0
 39 42  1  0
 38 43  2  0
 43 44  1  0
 31  2  1  0
 43 35  1  0
M  CHG  1  36  -1
M  END
>  <UniqueID>  (40) 
38

>  <SMILES>  (40) 
CCCCN(C)S(=O)(=O)c1ccc(C(=O)/N=c2\cc(C)o[n-]2)cc1

>  <Energy>  (40) 
76.3612417344804

>  <Genealogy>  (40) 
CCCCN(C)S(=O)(=O)c1ccc(C(=O)N=c2cc(C)o[n-]2)cc1 (protonated)
CCCCN(C)S(=O)(=O)c1ccc(C(=O)/N=c2\cc(C)o[n-]2)cc1 (cis-trans isomerization)
CCCCN(C)S(=O)(=O)c1ccc(C(=O)/N=c2\cc(C)o[n-]2)cc1 (3D coordinates assigned)
CCCCN(C)S(=O)(=O)c1ccc(C(=O)/N=c2\cc(C)o[n-]2)cc1 (optimized conformer: 76.3612417344804 kcal/mol)

>  <smiles>  (40) 
CCCCN(C)S(=O)(=O)c1ccc(C(=O)N=c2cc(C)o[nH]2)cc1

>  <score_type>  (40) 
oracle

>  <origin>  (40) 
adgpu

>  <m_score__min__energy>  (40) 
-10.24

>  <m_primary>  (40) 
energy

$$$$
40:0
     RDKit          3D

 48 51  0  0  0  0  0  0  0  0999 V2000
   -4.1990   17.8560  -34.6000 C   0  0  0  0  0  0  0  0  0  0  0  0
   -3.2560   18.7790  -33.9570 N   0  0  0  0  0  0  0  0  0  0  0  0
   -1.8160   18.6380  -34.2050 C   0  0  0  0  0  0  0  0  0  0  0  0
   -3.7750   19.8230  -33.0970 C   0  0  0  0  0  0  0  0  0  0  0  0
   -2.9290   20.6290  -32.3150 C   0  0  0  0  0  0  0  0  0  0  0  0
   -3.4940   21.6270  -31.5040 C   0  0  0  0  0  0  0  0  0  0  0  0
   -2.6590   22.5080  -30.6440 C   0  0  0  0  0  0  0  0  0  0  0  0
   -3.1880   23.6650  -30.0380 C   0  0  0  0  0  0  0  0  0  0  0  0
   -2.3830   24.4750  -29.2330 C   0  0  0  0  0  0  0  0  0  0  0  0
   -1.0330   24.1500  -29.0220 C   0  0  0  0  0  0  0  0  0  0  0  0
   -0.2000   24.9340  -28.2090 O   0  0  0  0  0  0  0  0  0  0  0  0
   -0.5460   25.4480  -26.9500 C   0  0  0  0  0  0  0  0  0  0  0  0
   -0.5350   24.5870  -25.8460 C   0  0  0  0  0  0  0  0  0  0  0  0
   -0.8590   25.0660  -24.5730 C   0  0  0  0  0  0  0  0  0  0  0  0
   -1.1840   26.4130  -24.3930 C   0  0  0  0  0  0  0  0  0  0  0  0
   -1.1780   27.2840  -25.4850 C   0  0  0  0  0  0  0  0  0  0  0  0
   -0.8560   26.8080  -26.7590 C   0  0  0  0  0  0  0  0  0  0  0  0
   -0.5130   22.9860  -29.5920 C   0  0  0  0  0  0  0  0  0  0  0  0
   -1.3150   22.1710  -30.3970 C   0  0  0  0  0  0  0  0  0  0  0  0
   -4.8470   21.7730  -31.4880 N   0  0  0  0  0  0  0  0  0  0  0  0
   -5.6630   20.9910  -32.2410 C   0  0  0  0  0  0  0  0  0  0  0  0
   -7.1330   21.1810  -32.1970 C   0  0  0  0  0  0  0  0  0  0  0  0
   -8.0030   20.0910  -32.3780 C   0  0  0  0  0  0  0  0  0  0  0  0
   -9.3850   20.2910  -32.3310 C   0  0  0  0  0  0  0  0  0  0  0  0
   -9.8880   21.5340  -32.1100 N   0  0  0  0  0  0  0  0  0  0  0  0
   -9.0750   22.6090  -31.9310 C   0  0  0  0  0  0  0  0  0  0  0  0
   -7.6870   22.4540  -31.9700 C   0  0  0  0  0  0  0  0  0  0  0  0
   -5.1180   20.0320  -33.0340 N   0  0  0  0  0  0  0  0  0  0  0  0
   -4.7592   17.3077  -33.8283 H   0  0  0  0  0  0  0  0  0  0  0  0
   -4.9005   18.4262  -35.2268 H   0  0  0  0  0  0  0  0  0  0  0  0
   -3.6440   17.1425  -35.2268 H   0  0  0  0  0  0  0  0  0  0  0  0
   -1.2820   18.5857  -33.2448 H   0  0  0  0  0  0  0  0  0  0  0  0
   -1.6310   17.7174  -34.7780 H   0  0  0  0  0  0  0  0  0  0  0  0
   -1.4560   19.5052  -34.7780 H   0  0  0  0  0  0  0  0  0  0  0  0
   -1.8394   20.4800  -32.3380 H   0  0  0  0  0  0  0  0  0  0  0  0
   -4.2426   23.9325  -30.1999 H   0  0  0  0  0  0  0  0  0  0  0  0
   -2.8092   25.3728  -28.7616 H   0  0  0  0  0  0  0  0  0  0  0  0
   -0.2700   23.5279  -25.9809 H   0  0  0  0  0  0  0  0  0  0  0  0
   -0.8580   24.3815  -23.7120 H   0  0  0  0  0  0  0  0  0  0  0  0
   -1.4444   26.7873  -23.3919 H   0  0  0  0  0  0  0  0  0  0  0  0
   -1.4270   28.3459  -25.3421 H   0  0  0  0  0  0  0  0  0  0  0  0
   -0.8447   27.4983  -27.6154 H   0  0  0  0  0  0  0  0  0  0  0  0
    0.5350   22.7082  -29.4064 H   0  0  0  0  0  0  0  0  0  0  0  0
   -0.8916   21.2581  -30.8413 H   0  0  0  0  0  0  0  0  0  0  0  0
   -7.5968   19.0844  -32.5560 H   0  0  0  0  0  0  0  0  0  0  0  0
  -10.0676   19.4402  -32.4732 H   0  0  0  0  0  0  0  0  0  0  0  0
   -9.5112   23.6034  -31.7550 H   0  0  0  0  0  0  0  0  0  0  0  0
   -7.0300   23.3240  -31.8238 H   0  0  0  0  0  0  0  0  0  0  0  0
  1  2  1  0
  2  3  1  0
  2  4  1  0
  4  5  2  0
  5  6  1  0
  6  7  1  0
  7  8  2  0
  8  9  1  0
  9 10  2  0
 10 11  1  0
 11 12  1  0
 12 13  2  0
 13 14  1  0
 14 15  2  0
 15 16  1  0
 16 17  2  0
 10 18  1  0
 18 19  2  0
  6 20  2  0
 20 21  1  0
 21 22  1  0
 22 23  2  0
 23 24  1  0
 24 25  2  0
 25 26  1  0
 26 27  2  0
 21 28  2  0
 28  4  1  0
 19  7  1  0
 27 22  1  0
 17 12  1  0
  1 29  1  0
  1 30  1  0
  1 31  1  0
  3 32  1  0
  3 33  1  0
  3 34  1  0
  5 35  1  0
  8 36  1  0
  9 37  1  0
 13 38  1  0
 14 39  1  0
 15 40  1  0
 16 41  1  0
 17 42  1  0
 18 43  1  0
 19 44  1  0
 23 45  1  0
 24 46  1  0
 26 47  1  0
 27 48  1  0
M  END
>  <UniqueID>  (41) 
39

>  <SMILES>  (41) 
CN(C)c1cc(-c2ccc(Oc3ccccc3)cc2)nc(-c2ccncc2)n1

>  <Energy>  (41) 
64.7728375382706

>  <Genealogy>  (41) 
CN(C)c1cc(-c2ccc(Oc3ccccc3)cc2)nc(-c2ccncc2)n1 (3D coordinates assigned)
CN(C)c1cc(-c2ccc(Oc3ccccc3)cc2)nc(-c2ccncc2)n1 (optimized conformer: 64.7728375382706 kcal/mol)

>  <smiles>  (41) 
CN(C)c1cc(-c2ccc(Oc3ccccc3)cc2)nc(-c2ccncc2)n1

>  <score_type>  (41) 
oracle

>  <origin>  (41) 
adgpu

>  <m_score__min__energy>  (41) 
-8.3900000000000006

>  <m_primary>  (41) 
energy

$$$$
41:0
     RDKit          3D

 40 42  0  0  0  0  0  0  0  0999 V2000
   -3.8670   25.2800  -30.4770 O   0  0  0  0  0  0  0  0  0  0  0  0
   -3.9880   24.1230  -29.9860 C   0  0  0  0  0  0  0  0  0  0  0  0
   -3.0510   23.6690  -28.9960 N   0  0  0  0  0  0  0  0  0  0  0  0
   -2.2540   24.5560  -28.1900 C   0  0  0  0  0  0  0  0  0  0  0  0
   -2.7200   25.0310  -26.9520 C   0  0  0  0  0  0  0  0  0  0  0  0
   -1.9200   25.8680  -26.1740 C   0  0  0  0  0  0  0  0  0  0  0  0
   -0.6500   26.2190  -26.6330 C   0  0  0  0  0  0  0  0  0  0  0  0
   -0.2010   25.7430  -27.8230 N   0  0  0  0  0  0  0  0  0  0  0  0
   -0.9590   24.9250  -28.6030 C   0  0  0  0  0  0  0  0  0  0  0  0
   -0.4940   24.5120  -29.6970 O   0  0  0  0  0  0  0  0  0  0  0  0
   -5.0690   23.2340  -30.4760 C   0  0  0  0  0  0  0  0  0  0  0  0
   -4.7830   21.9380  -30.9430 C   0  0  0  0  0  0  0  0  0  0  0  0
   -5.8100   21.1040  -31.3960 C   0  0  0  0  0  0  0  0  0  0  0  0
   -7.1400   21.5440  -31.3770 C   0  0  0  0  0  0  0  0  0  0  0  0
   -8.4360   20.4910  -31.9570 S   0  0  0  0  0  0  0  0  0  0  0  0
   -9.4780   21.3290  -32.6430 O   0  0  0  0  0  0  0  0  0  0  0  0
   -9.0820   19.8180  -30.7790 O   0  0  0  0  0  0  0  0  0  0  0  0
   -7.8690   19.2660  -33.0690 N   0  0  0  0  0  0  0  0  0  0  0  0
   -7.4260   18.0580  -32.3780 C   0  0  0  0  0  0  0  0  0  0  0  0
   -6.4250   17.3800  -33.3000 C   0  0  0  0  0  0  0  0  0  0  0  0
   -5.9600   18.4660  -34.2590 C   0  0  0  0  0  0  0  0  0  0  0  0
   -6.7160   19.7190  -33.8440 C   0  0  0  0  0  0  0  0  0  0  0  0
   -7.4300   22.8340  -30.9150 C   0  0  0  0  0  0  0  0  0  0  0  0
   -6.4060   23.6690  -30.4610 C   0  0  0  0  0  0  0  0  0  0  0  0
   -2.8650   22.6430  -28.9310 H   0  0  0  0  0  0  0  0  0  0  0  0
   -3.7195   24.7416  -26.5952 H   0  0  0  0  0  0  0  0  0  0  0  0
   -2.2866   26.2473  -25.2087 H   0  0  0  0  0  0  0  0  0  0  0  0
   -0.0118   26.8820  -26.0304 H   0  0  0  0  0  0  0  0  0  0  0  0
   -3.7436   21.5780  -30.9518 H   0  0  0  0  0  0  0  0  0  0  0  0
   -5.5723   20.0970  -31.7693 H   0  0  0  0  0  0  0  0  0  0  0  0
   -6.9471   18.3198  -31.4229 H   0  0  0  0  0  0  0  0  0  0  0  0
   -8.2734   17.3942  -32.1515 H   0  0  0  0  0  0  0  0  0  0  0  0
   -5.5753   16.9864  -32.7229 H   0  0  0  0  0  0  0  0  0  0  0  0
   -6.8714   16.5273  -33.8326 H   0  0  0  0  0  0  0  0  0  0  0  0
   -4.8751   18.6225  -34.1670 H   0  0  0  0  0  0  0  0  0  0  0  0
   -6.1553   18.1979  -35.3078 H   0  0  0  0  0  0  0  0  0  0  0  0
   -6.0732   20.3649  -33.2279 H   0  0  0  0  0  0  0  0  0  0  0  0
   -7.0294   20.3050  -34.7206 H   0  0  0  0  0  0  0  0  0  0  0  0
   -8.4702   23.1918  -30.9096 H   0  0  0  0  0  0  0  0  0  0  0  0
   -6.6478   24.6754  -30.0886 H   0  0  0  0  0  0  0  0  0  0  0  0
  1  2  2  0
  2  3  1  0
  3  4  1  0
  4  5  2  0
  5  6  1  0
  6  7  2  0
  7  8  1  0
  8  9  1  0
  9 10  2  0
  2 11  1  0
 11 12  2  0
 12 13  1  0
 13 14  2  0
 14 15  1  0
 15 16  2  0
 15 17  2  0
 15 18  1  0
 18 19  1  0
 19 20  1  0
 20 21  1  0
 21 22  1  0
 14 23  1  0
 23 24  2  0
  9  4  1  0
 24 11  1  0
 22 18  1  0
  3 25  1  0
  5 26  1  0
  6 27  1  0
  7 28  1  0
 12 29  1  0
 13 30  1  0
 19 31  1  0
 19 32  1  0
 20 33  1  0
 20 34  1  0
 21 35  1  0
 21 36  1  0
 22 37  1  0
 22 38  1  0
 23 39  1  0
 24 40  1  0
M  CHG  1   8  -1
M  END
>  <UniqueID>  (42) 
40

>  <SMILES>  (42) 
O=C(Nc1ccc[n-]c1=O)c1ccc(S(=O)(=O)N2CCCC2)cc1

>  <Energy>  (42) 
49.73948365486167

>  <Genealogy>  (42) 
O=C(Nc1ccc[n-]c1=O)c1ccc(S(=O)(=O)N2CCCC2)cc1 (protonated)
O=C(Nc1ccc[n-]c1=O)c1ccc(S(=O)(=O)N2CCCC2)cc1 (3D coordinates assigned)
O=C(Nc1ccc[n-]c1=O)c1ccc(S(=O)(=O)N2CCCC2)cc1 (nonaromatic ring conformer: 49.73948365486167 kcal/mol)

>  <smiles>  (42) 
O=C(Nc1ccc[nH]c1=O)c1ccc(S(=O)(=O)N2CCCC2)cc1

>  <score_type>  (42) 
oracle

>  <origin>  (42) 
adgpu

>  <m_score__min__energy>  (42) 
-9.9399999999999995

>  <m_primary>  (42) 
energy

$$$$
42:0
     RDKit          3D

 22 23  0  0  0  0  0  0  0  0999 V2000
   -5.9760   24.0440  -31.4770 C   0  0  0  0  0  0  0  0  0  0  0  0
   -4.7570   23.4460  -30.8310 C   0  0  0  0  0  0  0  0  0  0  0  0
   -4.6400   22.0550  -30.7090 C   0  0  0  0  0  0  0  0  0  0  0  0
   -3.5150   21.4890  -30.1140 C   0  0  0  0  0  0  0  0  0  0  0  0
   -2.4840   22.3040  -29.6280 C   0  0  0  0  0  0  0  0  0  0  0  0
   -1.3570   21.7220  -29.0310 C   0  0  0  0  0  0  0  0  0  0  0  0
   -0.3260   22.5220  -28.5440 C   0  0  0  0  0  0  0  0  0  0  0  0
   -0.4010   23.9120  -28.6440 C   0  0  0  0  0  0  0  0  0  0  0  0
    0.6510   24.6800  -28.1440 O   0  0  0  0  0  0  0  0  0  0  0  0
   -1.5220   24.5160  -29.2390 C   0  0  0  0  0  0  0  0  0  0  0  0
   -1.5710   25.9050  -29.3250 O   0  0  0  0  0  0  0  0  0  0  0  0
   -2.5810   23.7180  -29.7400 C   0  0  0  0  0  0  0  0  0  0  0  0
   -3.7300   24.2790  -30.3480 C   0  0  0  0  0  0  0  0  0  0  0  0
   -3.8670   25.6590  -30.4790 O   0  0  0  0  0  0  0  0  0  0  0  0
   -6.6733   24.3861  -30.6980 H   0  0  0  0  0  0  0  0  0  0  0  0
   -5.6777   24.8981  -32.1028 H   0  0  0  0  0  0  0  0  0  0  0  0
   -6.4688   23.2854  -32.1028 H   0  0  0  0  0  0  0  0  0  0  0  0
   -5.4431   21.4048  -31.0862 H   0  0  0  0  0  0  0  0  0  0  0  0
   -3.4354   20.3955  -30.0251 H   0  0  0  0  0  0  0  0  0  0  0  0
   -1.2865   20.6275  -28.9467 H   0  0  0  0  0  0  0  0  0  0  0  0
    0.5537   22.0548  -28.0772 H   0  0  0  0  0  0  0  0  0  0  0  0
    0.6670   25.6890  -28.2190 H   0  0  0  0  0  0  0  0  0  0  0  0
  1  2  1  0
  2  3  2  0
  3  4  1  0
  4  5  2  0
  5  6  1  0
  6  7  2  0
  7  8  1  0
  8  9  1  0
  8 10  2  0
 10 11  1  0
 10 12  1  0
 12 13  2  0
 13 14  1  0
 13  2  1  0
 12  5  1  0
  1 15  1  0
  1 16  1  0
  1 17  1  0
  3 18  1  0
  4 19  1  0
  6 20  1  0
  7 21  1  0
  9 22  1  0
M  CHG  2  11  -1  14  -1
M  END
>  <UniqueID>  (43) 
41

>  <SMILES>  (43) 
Cc1ccc2ccc(O)c([O-])c2c1[O-]

>  <Energy>  (43) 
28.97830680074531

>  <Genealogy>  (43) 
Cc1ccc2ccc(O)c([O-])c2c1[O-] (protonated)
Cc1ccc2ccc(O)c([O-])c2c1[O-] (3D coordinates assigned)
Cc1ccc2ccc(O)c([O-])c2c1[O-] (optimized conformer: 28.97830680074531 kcal/mol)

>  <smiles>  (43) 
Cc1ccc2ccc(O)c(O)c2c1O

>  <score_type>  (43) 
oracle

>  <origin>  (43) 
adgpu

>  <m_score__min__energy>  (43) 
-11.92

>  <m_primary>  (43) 
energy

$$$$
43:0
     RDKit          3D

 30 31  0  0  0  0  0  0  0  0999 V2000
   -8.7170   21.7890  -30.4760 C   0  0  0  0  0  0  0  0  0  0  0  0
   -8.0390   20.7570  -31.3410 C   0  0  0  0  0  0  0  0  0  0  0  0
   -8.7420   19.5960  -31.6990 C   0  0  0  0  0  0  0  0  0  0  0  0
   -8.1410   18.6220  -32.4940 C   0  0  0  0  0  0  0  0  0  0  0  0
   -6.8360   18.7960  -32.9520 C   0  0  0  0  0  0  0  0  0  0  0  0
   -6.1160   19.9560  -32.6290 C   0  0  0  0  0  0  0  0  0  0  0  0
   -4.7100   20.1150  -33.1470 C   0  0  0  0  0  0  0  0  0  0  0  0
   -6.7160   20.9460  -31.8110 C   0  0  0  0  0  0  0  0  0  0  0  0
   -5.9650   22.1700  -31.4530 C   0  0  0  0  0  0  0  0  0  0  0  0
   -6.4480   23.4270  -31.8340 C   0  0  0  0  0  0  0  0  0  0  0  0
   -5.7410   24.5800  -31.4980 C   0  0  0  0  0  0  0  0  0  0  0  0
   -4.5420   24.4930  -30.7800 C   0  0  0  0  0  0  0  0  0  0  0  0
   -3.8670   25.6680  -30.4670 O   0  0  0  0  0  0  0  0  0  0  0  0
   -4.0400   23.2310  -30.3890 C   0  0  0  0  0  0  0  0  0  0  0  0
   -2.7720   23.0930  -29.6280 C   0  0  0  0  0  0  0  0  0  0  0  0
   -2.3960   21.9740  -29.1900 O   0  0  0  0  0  0  0  0  0  0  0  0
   -1.9730   24.2070  -29.3870 O   0  0  0  0  0  0  0  0  0  0  0  0
   -4.7660   22.0760  -30.7340 C   0  0  0  0  0  0  0  0  0  0  0  0
   -8.5552   21.5427  -29.4162 H   0  0  0  0  0  0  0  0  0  0  0  0
   -8.2946   22.7818  -30.6903 H   0  0  0  0  0  0  0  0  0  0  0  0
   -9.7959   21.7955  -30.6903 H   0  0  0  0  0  0  0  0  0  0  0  0
   -9.7752   19.4539  -31.3493 H   0  0  0  0  0  0  0  0  0  0  0  0
   -8.6986   17.7122  -32.7612 H   0  0  0  0  0  0  0  0  0  0  0  0
   -6.3669   18.0175  -33.5717 H   0  0  0  0  0  0  0  0  0  0  0  0
   -4.0136   20.1938  -32.2992 H   0  0  0  0  0  0  0  0  0  0  0  0
   -4.4441   19.2412  -33.7600 H   0  0  0  0  0  0  0  0  0  0  0  0
   -4.6459   21.0261  -33.7600 H   0  0  0  0  0  0  0  0  0  0  0  0
   -7.3879   23.5051  -32.4000 H   0  0  0  0  0  0  0  0  0  0  0  0
   -6.1274   25.5650  -31.7988 H   0  0  0  0  0  0  0  0  0  0  0  0
   -4.3876   21.0872  -30.4356 H   0  0  0  0  0  0  0  0  0  0  0  0
  1  2  1  0
  2  3  2  0
  3  4  1  0
  4  5  2  0
  5  6  1  0
  6  7  1  0
  6  8  2  0
  8  9  1  0
  9 10  2  0
 10 11  1  0
 11 12  2  0
 12 13  1  0
 12 14  1  0
 14 15  1  0
 15 16  2  0
 15 17  1  0
 14 18  2  0
  8  2  1  0
 18  9  1  0
  1 19  1  0
  1 20  1  0
  1 21  1  0
  3 22  1  0
  4 23  1  0
  5 24  1  0
  7 25  1  0
  7 26  1  0
  7 27  1  0
 10 28  1  0
 11 29  1  0
 18 30  1  0
M  CHG  2  13  -1  17  -1
M  END
>  <UniqueID>  (44) 
42

>  <SMILES>  (44) 
Cc1cccc(C)c1-c1ccc([O-])c(C(=O)[O-])c1

>  <Energy>  (44) 
40.99474529432808

>  <Genealogy>  (44) 
Cc1cccc(C)c1-c1ccc([O-])c(C(=O)[O-])c1 (protonated)
Cc1cccc(C)c1-c1ccc([O-])c(C(=O)[O-])c1 (3D coordinates assigned)
Cc1cccc(C)c1-c1ccc([O-])c(C(=O)[O-])c1 (optimized conformer: 40.99474529432808 kcal/mol)

>  <smiles>  (44) 
Cc1cccc(C)c1-c1ccc(O)c(C(=O)O)c1

>  <score_type>  (44) 
oracle

>  <origin>  (44) 
adgpu

>  <m_score__min__energy>  (44) 
-11.470000000000001

>  <m_primary>  (44) 
energy

$$$$
44:0
     RDKit          3D

 53 56  0  0  0  0  0  0  0  0999 V2000
   -3.4680   16.8130  -34.7460 C   0  0  0  0  0  0  0  0  0  0  0  0
   -3.4400   18.2340  -34.6880 O   0  0  0  0  0  0  0  0  0  0  0  0
   -2.6380   18.9730  -33.8020 C   0  0  0  0  0  0  0  0  0  0  0  0
   -1.8570   18.2730  -32.8800 C   0  0  0  0  0  0  0  0  0  0  0  0
   -1.0730   18.9640  -31.9500 C   0  0  0  0  0  0  0  0  0  0  0  0
   -1.0690   20.3650  -31.9150 C   0  0  0  0  0  0  0  0  0  0  0  0
   -0.2990   21.0260  -30.8940 N   0  0  0  0  0  0  0  0  0  0  0  0
   -0.6490   20.9890  -29.1900 S   0  0  0  0  0  0  0  0  0  0  0  0
    0.6080   20.8380  -28.3880 O   0  0  0  0  0  0  0  0  0  0  0  0
   -1.5730   19.8410  -28.8970 O   0  0  0  0  0  0  0  0  0  0  0  0
   -1.3880   22.5250  -28.7450 C   0  0  0  0  0  0  0  0  0  0  0  0
   -1.2370   22.9960  -27.4360 C   0  0  0  0  0  0  0  0  0  0  0  0
   -1.8560   24.1840  -27.0410 C   0  0  0  0  0  0  0  0  0  0  0  0
   -2.6210   24.9130  -27.9560 C   0  0  0  0  0  0  0  0  0  0  0  0
   -2.7480   24.4800  -29.2810 C   0  0  0  0  0  0  0  0  0  0  0  0
   -3.5170   25.2830  -30.1870 N   0  0  0  0  0  0  0  0  0  0  0  0
   -4.8950   25.1120  -30.5420 C   0  0  0  0  0  0  0  0  0  0  0  0
   -5.7060   26.0700  -30.4200 O   0  0  0  0  0  0  0  0  0  0  0  0
   -5.3810   23.7820  -30.9760 C   0  0  0  0  0  0  0  0  0  0  0  0
   -4.6070   22.9860  -31.8390 C   0  0  0  0  0  0  0  0  0  0  0  0
   -5.0500   21.7180  -32.2240 C   0  0  0  0  0  0  0  0  0  0  0  0
   -6.2720   21.2130  -31.7490 C   0  0  0  0  0  0  0  0  0  0  0  0
   -6.7310   19.8580  -32.1440 C   0  0  0  0  0  0  0  0  0  0  0  0
   -7.9360   19.3330  -31.6360 C   0  0  0  0  0  0  0  0  0  0  0  0
   -8.3650   18.0550  -32.0110 C   0  0  0  0  0  0  0  0  0  0  0  0
   -7.6020   17.2920  -32.8980 C   0  0  0  0  0  0  0  0  0  0  0  0
   -6.4090   17.8040  -33.4110 C   0  0  0  0  0  0  0  0  0  0  0  0
   -5.9730   19.0800  -33.0380 C   0  0  0  0  0  0  0  0  0  0  0  0
   -7.0460   22.0080  -30.8880 C   0  0  0  0  0  0  0  0  0  0  0  0
   -6.6100   23.2810  -30.5100 C   0  0  0  0  0  0  0  0  0  0  0  0
   -2.1490   23.2640  -29.6690 C   0  0  0  0  0  0  0  0  0  0  0  0
   -1.8140   21.0740  -32.8720 C   0  0  0  0  0  0  0  0  0  0  0  0
   -2.5960   20.3830  -33.8060 C   0  0  0  0  0  0  0  0  0  0  0  0
   -3.4761   16.4044  -33.7247 H   0  0  0  0  0  0  0  0  0  0  0  0
   -4.3728   16.4855  -35.2791 H   0  0  0  0  0  0  0  0  0  0  0  0
   -2.5768   16.4502  -35.2791 H   0  0  0  0  0  0  0  0  0  0  0  0
   -1.8583   17.1730  -32.8850 H   0  0  0  0  0  0  0  0  0  0  0  0
   -0.4522   18.4009  -31.2376 H   0  0  0  0  0  0  0  0  0  0  0  0
   -0.6289   22.4288  -26.7159 H   0  0  0  0  0  0  0  0  0  0  0  0
   -1.7414   24.5464  -26.0088 H   0  0  0  0  0  0  0  0  0  0  0  0
   -3.1273   25.8343  -27.6322 H   0  0  0  0  0  0  0  0  0  0  0  0
   -3.6448   23.3647  -32.2141 H   0  0  0  0  0  0  0  0  0  0  0  0
   -4.4366   21.1098  -32.9050 H   0  0  0  0  0  0  0  0  0  0  0  0
   -8.5429   19.9313  -30.9406 H   0  0  0  0  0  0  0  0  0  0  0  0
   -9.3046   17.6505  -31.6066 H   0  0  0  0  0  0  0  0  0  0  0  0
   -7.9412   16.2878  -33.1922 H   0  0  0  0  0  0  0  0  0  0  0  0
   -5.8100   17.2025  -34.1105 H   0  0  0  0  0  0  0  0  0  0  0  0
   -5.0319   19.4773  -33.4462 H   0  0  0  0  0  0  0  0  0  0  0  0
   -8.0045   21.6252  -30.5075 H   0  0  0  0  0  0  0  0  0  0  0  0
   -7.2326   23.8956  -29.8432 H   0  0  0  0  0  0  0  0  0  0  0  0
   -2.2770   22.8924  -30.6964 H   0  0  0  0  0  0  0  0  0  0  0  0
   -1.7831   22.1735  -32.8878 H   0  0  0  0  0  0  0  0  0  0  0  0
   -3.1821   20.9442  -34.5486 H   0  0  0  0  0  0  0  0  0  0  0  0
  1  2  1  0
  2  3  1  0
  3  4  2  0
  4  5  1  0
  5  6  2  0
  6  7  1  0
  7  8  1  0
  8  9  2  0
  8 10  2  0
  8 11  1  0
 11 12  2  0
 12 13  1  0
 13 14  2  0
 14 15  1  0
 15 16  1  0
 16 17  1  0
 17 18  2  0
 17 19  1  0
 19 20  2  0
 20 21  1  0
 21 22  2  0
 22 23  1  0
 23 24  2  0
 24 25  1  0
 25 26  2  0
 26 27  1  0
 27 28  2  0
 22 29  1  0
 29 30  2  0
 15 31  2  0
  6 32  1  0
 32 33  2  0
 33  3  1  0
 31 11  1  0
 30 19  1  0
 28 23  1  0
  1 34  1  0
  1 35  1  0
  1 36  1  0
  4 37  1  0
  5 38  1  0
 12 39  1  0
 13 40  1  0
 14 41  1  0
 20 42  1  0
 21 43  1  0
 24 44  1  0
 25 45  1  0
 26 46  1  0
 27 47  1  0
 28 48  1  0
 29 49  1  0
 30 50  1  0
 31 51  1  0
 32 52  1  0
 33 53  1  0
M  CHG  2   7  -1  16  -1
M  END
>  <UniqueID>  (45) 
43

>  <SMILES>  (45) 
COc1ccc([N-]S(=O)(=O)c2cccc([N-]C(=O)c3ccc(-c4ccccc4)cc3)c2)cc1

>  <Energy>  (45) 
73.42173205769285

>  <Genealogy>  (45) 
COc1ccc([N-]S(=O)(=O)c2cccc([N-]C(=O)c3ccc(-c4ccccc4)cc3)c2)cc1 (protonated)
COc1ccc([N-]S(=O)(=O)c2cccc([N-]C(=O)c3ccc(-c4ccccc4)cc3)c2)cc1 (3D coordinates assigned)
COc1ccc([N-]S(=O)(=O)c2cccc([N-]C(=O)c3ccc(-c4ccccc4)cc3)c2)cc1 (optimized conformer: 73.42173205769285 kcal/mol)

>  <smiles>  (45) 
COc1ccc(NS(=O)(=O)c2cccc(NC(=O)c3ccc(-c4ccccc4)cc3)c2)cc1

>  <score_type>  (45) 
oracle

>  <origin>  (45) 
adgpu

>  <m_score__min__energy>  (45) 
-11.84

>  <m_primary>  (45) 
energy

$$$$
45:0
     RDKit          3D

 39 41  0  0  0  0  0  0  0  0999 V2000
   -5.7930   25.3000  -29.1470 N   0  0  0  0  0  0  0  0  0  0  0  0
   -5.0950   24.8700  -30.3200 C   0  0  0  0  0  0  0  0  0  0  0  0
   -4.2390   25.6390  -30.8340 O   0  0  0  0  0  0  0  0  0  0  0  0
   -5.3470   23.5400  -30.9270 C   0  0  0  0  0  0  0  0  0  0  0  0
   -6.6670   23.0860  -31.0960 C   0  0  0  0  0  0  0  0  0  0  0  0
   -6.9210   21.8330  -31.6610 C   0  0  0  0  0  0  0  0  0  0  0  0
   -5.8620   21.0030  -32.0640 C   0  0  0  0  0  0  0  0  0  0  0  0
   -6.1320   19.6710  -32.6650 C   0  0  0  0  0  0  0  0  0  0  0  0
   -6.7860   18.6710  -31.9250 C   0  0  0  0  0  0  0  0  0  0  0  0
   -7.0360   17.4180  -32.4920 C   0  0  0  0  0  0  0  0  0  0  0  0
   -6.6390   17.1360  -33.8040 C   0  0  0  0  0  0  0  0  0  0  0  0
   -6.9120   15.8590  -34.3210 O   0  0  0  0  0  0  0  0  0  0  0  0
   -6.0630   14.7180  -34.1900 C   0  0  0  0  0  0  0  0  0  0  0  0
   -4.6230   15.1350  -34.0550 C   0  0  0  0  0  0  0  0  0  0  0  0
   -3.9380   14.9290  -32.8480 C   0  0  0  0  0  0  0  0  0  0  0  0
   -2.5990   15.3110  -32.7420 C   0  0  0  0  0  0  0  0  0  0  0  0
   -1.9620   15.8680  -33.8060 N   0  0  0  0  0  0  0  0  0  0  0  0
   -2.5970   16.0680  -34.9920 C   0  0  0  0  0  0  0  0  0  0  0  0
   -3.9370   15.7010  -35.1400 C   0  0  0  0  0  0  0  0  0  0  0  0
   -5.9890   18.1370  -34.5510 C   0  0  0  0  0  0  0  0  0  0  0  0
   -5.7370   19.3900  -33.9850 C   0  0  0  0  0  0  0  0  0  0  0  0
   -4.5430   21.4510  -31.8840 C   0  0  0  0  0  0  0  0  0  0  0  0
   -4.2870   22.7040  -31.3180 C   0  0  0  0  0  0  0  0  0  0  0  0
   -5.6390   26.2640  -28.7760 H   0  0  0  0  0  0  0  0  0  0  0  0
   -6.3910   24.6510  -28.5930 H   0  0  0  0  0  0  0  0  0  0  0  0
   -7.5070   23.7224  -30.7808 H   0  0  0  0  0  0  0  0  0  0  0  0
   -7.9593   21.4940  -31.7912 H   0  0  0  0  0  0  0  0  0  0  0  0
   -7.1035   18.8759  -30.8919 H   0  0  0  0  0  0  0  0  0  0  0  0
   -7.5500   16.6458  -31.9009 H   0  0  0  0  0  0  0  0  0  0  0  0
   -6.3589   14.1492  -33.2962 H   0  0  0  0  0  0  0  0  0  0  0  0
   -6.1667   14.0964  -35.0916 H   0  0  0  0  0  0  0  0  0  0  0  0
   -4.4522   14.4697  -31.9909 H   0  0  0  0  0  0  0  0  0  0  0  0
   -2.0586   15.1609  -31.7957 H   0  0  0  0  0  0  0  0  0  0  0  0
   -2.0548   16.5194  -35.8360 H   0  0  0  0  0  0  0  0  0  0  0  0
   -4.4505   15.8548  -36.1006 H   0  0  0  0  0  0  0  0  0  0  0  0
   -5.6777   17.9318  -35.5859 H   0  0  0  0  0  0  0  0  0  0  0  0
   -5.2253   20.1629  -34.5773 H   0  0  0  0  0  0  0  0  0  0  0  0
   -3.7033   20.8102  -32.1912 H   0  0  0  0  0  0  0  0  0  0  0  0
   -3.2483   23.0377  -31.1778 H   0  0  0  0  0  0  0  0  0  0  0  0
  1  2  1  0
  2  3  2  0
  2  4  1  0
  4  5  2  0
  5  6  1  0
  6  7  2  0
  7  8  1  0
  8  9  2  0
  9 10  1  0
 10 11  2  0
 11 12  1  0
 12 13  1  0
 13 14  1  0
 14 15  2  0
 15 16  1  0
 16 17  2  0
 17 18  1  0
 18 19  2  0
 11 20  1  0
 20 21  2  0
  7 22  1  0
 22 23  2  0
 23  4  1  0
 21  8  1  0
 19 14  1  0
  1 24  1  0
  1 25  1  0
  5 26  1  0
  6 27  1  0
  9 28  1  0
 10 29  1  0
 13 30  1  0
 13 31  1  0
 15 32  1  0
 16 33  1  0
 18 34  1  0
 19 35  1  0
 20 36  1  0
 21 37  1  0
 22 38  1  0
 23 39  1  0
M  END
>  <UniqueID>  (46) 
44

>  <SMILES>  (46) 
NC(=O)c1ccc(-c2ccc(OCc3ccncc3)cc2)cc1

>  <Energy>  (46) 
49.02616510089939

>  <Genealogy>  (46) 
NC(=O)c1ccc(-c2ccc(OCc3ccncc3)cc2)cc1 (3D coordinates assigned)
NC(=O)c1ccc(-c2ccc(OCc3ccncc3)cc2)cc1 (optimized conformer: 49.02616510089939 kcal/mol)

>  <smiles>  (46) 
NC(=O)c1ccc(-c2ccc(OCc3ccncc3)cc2)cc1

>  <score_type>  (46) 
oracle

>  <origin>  (46) 
adgpu

>  <m_score__min__energy>  (46) 
-8.3399999999999999

>  <m_primary>  (46) 
energy

$$$$
46:0
     RDKit          3D

 33 35  0  0  0  0  0  0  0  0999 V2000
    2.5851   28.0486  -26.2770 H   0  0  0  0  0  0  0  0  0  0  0  0
    1.7190   27.4590  -26.6120 C   0  0  0  0  0  0  0  0  0  0  0  0
    1.8850   26.1680  -26.9970 N   0  0  0  0  0  0  0  0  0  0  0  0
    0.8400   25.4060  -27.4200 C   0  0  0  0  0  0  0  0  0  0  0  0
    1.0125   24.3629  -27.7235 H   0  0  0  0  0  0  0  0  0  0  0  0
   -0.4600   25.9430  -27.4720 C   0  0  0  0  0  0  0  0  0  0  0  0
   -1.5960   25.1010  -27.9330 C   0  0  0  0  0  0  0  0  0  0  0  0
   -2.1710   25.2960  -29.1540 N   0  0  0  0  0  0  0  0  0  0  0  0
   -3.1890   24.4420  -29.3830 C   0  0  0  0  0  0  0  0  0  0  0  0
   -3.8410   24.4320  -30.5080 N   0  0  0  0  0  0  0  0  0  0  0  0
   -4.9620   23.5980  -30.8390 C   0  0  0  0  0  0  0  0  0  0  0  0
   -6.2760   24.0970  -30.8520 C   0  0  0  0  0  0  0  0  0  0  0  0
   -6.4666   25.1435  -30.5720 H   0  0  0  0  0  0  0  0  0  0  0  0
   -7.3420   23.2700  -31.2190 C   0  0  0  0  0  0  0  0  0  0  0  0
   -8.3697   23.6622  -31.2071 H   0  0  0  0  0  0  0  0  0  0  0  0
   -7.1050   21.9430  -31.6020 C   0  0  0  0  0  0  0  0  0  0  0  0
   -8.4490   20.8970  -32.0490 S   0  0  0  0  0  0  0  0  0  0  0  0
   -8.7740   19.9700  -30.9110 O   0  0  0  0  0  0  0  0  0  0  0  0
   -9.6630   21.7300  -32.3540 O   0  0  0  0  0  0  0  0  0  0  0  0
   -8.0220   19.9690  -33.4430 N   0  0  0  0  0  0  0  0  0  0  0  0
   -8.4680   20.4330  -34.2670 H   0  0  0  0  0  0  0  0  0  0  0  0
   -8.4780   19.0350  -33.3400 H   0  0  0  0  0  0  0  0  0  0  0  0
   -5.7930   21.4520  -31.6150 C   0  0  0  0  0  0  0  0  0  0  0  0
   -5.6005   20.4112  -31.9146 H   0  0  0  0  0  0  0  0  0  0  0  0
   -4.7280   22.2790  -31.2490 C   0  0  0  0  0  0  0  0  0  0  0  0
   -3.6989   21.8919  -31.2830 H   0  0  0  0  0  0  0  0  0  0  0  0
   -3.4160   23.3890  -28.0870 S   0  0  0  0  0  0  0  0  0  0  0  0
   -2.1690   24.0670  -27.1840 C   0  0  0  0  0  0  0  0  0  0  0  0
   -1.8574   23.7516  -26.1773 H   0  0  0  0  0  0  0  0  0  0  0  0
   -0.6400   27.2790  -27.0700 C   0  0  0  0  0  0  0  0  0  0  0  0
   -1.6441   27.7277  -27.0936 H   0  0  0  0  0  0  0  0  0  0  0  0
    0.4510   28.0380  -26.6410 C   0  0  0  0  0  0  0  0  0  0  0  0
    0.3111   29.0834  -26.3287 H   0  0  0  0  0  0  0  0  0  0  0  0
  1  2  1  0
  2  3  2  0
  3  4  1  0
  4  5  1  0
  4  6  2  0
  6  7  1  0
  7  8  1  0
  8  9  1  0
  9 10  2  0
 10 11  1  0
 11 12  2  0
 12 13  1  0
 12 14  1  0
 14 15  1  0
 14 16  2  0
 16 17  1  0
 17 18  2  0
 17 19  2  0
 17 20  1  0
 20 21  1  0
 20 22  1  0
 16 23  1  0
 23 24  1  0
 23 25  2  0
 25 26  1  0
  9 27  1  0
 27 28  1  0
 28 29  1  0
  6 30  1  0
 30 31  1  0
 30 32  2  0
 32 33  1  0
 32  2  1  0
 28  7  2  0
 25 11  1  0
M  CHG  1   8  -1
M  END
>  <UniqueID>  (47) 
45

>  <SMILES>  (47) 
NS(=O)(=O)c1ccc(/N=c2/[n-]c(-c3cccnc3)cs2)cc1

>  <Energy>  (47) 
74.76637057077671

>  <Genealogy>  (47) 
NS(=O)(=O)c1ccc(N=c2[n-]c(-c3cccnc3)cs2)cc1 (protonated)
NS(=O)(=O)c1ccc(/N=c2/[n-]c(-c3cccnc3)cs2)cc1 (cis-trans isomerization)
NS(=O)(=O)c1ccc(/N=c2/[n-]c(-c3cccnc3)cs2)cc1 (3D coordinates assigned)
NS(=O)(=O)c1ccc(/N=c2/[n-]c(-c3cccnc3)cs2)cc1 (optimized conformer: 74.76637057077671 kcal/mol)

>  <smiles>  (47) 
NS(=O)(=O)c1ccc(N=c2[nH]c(-c3cccnc3)cs2)cc1

>  <score_type>  (47) 
oracle

>  <origin>  (47) 
adgpu

>  <m_score__min__energy>  (47) 
-9.5199999999999996

>  <m_primary>  (47) 
energy

$$$$
47:0
     RDKit          3D

 42 44  0  0  0  0  0  0  0  0999 V2000
   -6.9050   24.6930  -30.0710 C   0  0  0  0  0  0  0  0  0  0  0  0
   -7.8950   24.1160  -30.9190 O   0  0  0  0  0  0  0  0  0  0  0  0
   -7.8600   22.7980  -31.3950 C   0  0  0  0  0  0  0  0  0  0  0  0
   -8.7480   21.8040  -30.9380 C   0  0  0  0  0  0  0  0  0  0  0  0
   -8.6410   20.4910  -31.4070 C   0  0  0  0  0  0  0  0  0  0  0  0
   -7.6370   20.1480  -32.3280 C   0  0  0  0  0  0  0  0  0  0  0  0
   -7.4670   18.7210  -32.7790 C   0  0  0  0  0  0  0  0  0  0  0  0
   -6.0740   18.4490  -33.2560 C   0  0  0  0  0  0  0  0  0  0  0  0
   -5.7830   18.0230  -34.5000 N   0  0  0  0  0  0  0  0  0  0  0  0
   -4.4730   17.8430  -34.5340 N   0  0  0  0  0  0  0  0  0  0  0  0
   -4.0200   18.1630  -33.3100 C   0  0  0  0  0  0  0  0  0  0  0  0
   -2.2970   18.1010  -32.8280 S   0  0  0  0  0  0  0  0  0  0  0  0
   -1.8780   19.7030  -33.5970 C   0  0  0  0  0  0  0  0  0  0  0  0
   -2.2770   20.8460  -32.7060 C   0  0  0  0  0  0  0  0  0  0  0  0
   -1.4230   21.2660  -31.6750 C   0  0  0  0  0  0  0  0  0  0  0  0
   -1.7910   22.3260  -30.8420 C   0  0  0  0  0  0  0  0  0  0  0  0
   -3.0180   22.9750  -31.0260 C   0  0  0  0  0  0  0  0  0  0  0  0
   -3.4470   24.3350  -29.9940 S   0  0  0  0  0  0  0  0  0  0  0  0
   -2.0120   25.0430  -29.3410 N   0  0  0  0  0  0  0  0  0  0  0  0
   -4.1810   25.3780  -30.7880 O   0  0  0  0  0  0  0  0  0  0  0  0
   -4.3280   23.8550  -28.8760 O   0  0  0  0  0  0  0  0  0  0  0  0
   -3.8840   22.5440  -32.0400 C   0  0  0  0  0  0  0  0  0  0  0  0
   -3.5160   21.4850  -32.8750 C   0  0  0  0  0  0  0  0  0  0  0  0
   -4.9950   18.5280  -32.5150 O   0  0  0  0  0  0  0  0  0  0  0  0
   -6.7800   21.1480  -32.8140 C   0  0  0  0  0  0  0  0  0  0  0  0
   -6.8950   22.4620  -32.3530 C   0  0  0  0  0  0  0  0  0  0  0  0
   -7.1834   24.5308  -29.0192 H   0  0  0  0  0  0  0  0  0  0  0  0
   -5.9316   24.2208  -30.2697 H   0  0  0  0  0  0  0  0  0  0  0  0
   -6.8361   25.7727  -30.2697 H   0  0  0  0  0  0  0  0  0  0  0  0
   -9.5296   22.0623  -30.2084 H   0  0  0  0  0  0  0  0  0  0  0  0
   -9.3456   19.7238  -31.0535 H   0  0  0  0  0  0  0  0  0  0  0  0
   -7.6910   18.0521  -31.9350 H   0  0  0  0  0  0  0  0  0  0  0  0
   -8.1557   18.5441  -33.6183 H   0  0  0  0  0  0  0  0  0  0  0  0
   -0.7930   19.7452  -33.7730 H   0  0  0  0  0  0  0  0  0  0  0  0
   -2.4249   19.7905  -34.5474 H   0  0  0  0  0  0  0  0  0  0  0  0
   -0.4592   20.7585  -31.5217 H   0  0  0  0  0  0  0  0  0  0  0  0
   -1.1140   22.6518  -30.0385 H   0  0  0  0  0  0  0  0  0  0  0  0
   -1.6080   25.6650  -30.0770 H   0  0  0  0  0  0  0  0  0  0  0  0
   -4.8558   23.0403  -32.1792 H   0  0  0  0  0  0  0  0  0  0  0  0
   -4.2005   21.1505  -33.6685 H   0  0  0  0  0  0  0  0  0  0  0  0
   -6.0138   20.8958  -33.5618 H   0  0  0  0  0  0  0  0  0  0  0  0
   -6.2223   23.2388  -32.7456 H   0  0  0  0  0  0  0  0  0  0  0  0
  1  2  1  0
  2  3  1  0
  3  4  2  0
  4  5  1  0
  5  6  2  0
  6  7  1  0
  7  8  1  0
  8  9  2  0
  9 10  1  0
 10 11  2  0
 11 12  1  0
 12 13  1  0
 13 14  1  0
 14 15  2  0
 15 16  1  0
 16 17  2  0
 17 18  1  0
 18 19  1  0
 18 20  2  0
 18 21  2  0
 17 22  1  0
 22 23  2  0
 11 24  1  0
  6 25  1  0
 25 26  2  0
 26  3  1  0
 24  8  1  0
 23 14  1  0
  1 27  1  0
  1 28  1  0
  1 29  1  0
  4 30  1  0
  5 31  1  0
  7 32  1  0
  7 33  1  0
 13 34  1  0
 13 35  1  0
 15 36  1  0
 16 37  1  0
 19 38  1  0
 22 39  1  0
 23 40  1  0
 25 41  1  0
 26 42  1  0
M  CHG  1  19  -1
M  END
>  <UniqueID>  (48) 
46

>  <SMILES>  (48) 
COc1ccc(Cc2nnc(SCc3ccc(S([NH-])(=O)=O)cc3)o2)cc1

>  <Energy>  (48) 
68.56382426429518

>  <Genealogy>  (48) 
COc1ccc(Cc2nnc(SCc3ccc(S([NH-])(=O)=O)cc3)o2)cc1 (protonated)
COc1ccc(Cc2nnc(SCc3ccc(S([NH-])(=O)=O)cc3)o2)cc1 (3D coordinates assigned)
COc1ccc(Cc2nnc(SCc3ccc(S([NH-])(=O)=O)cc3)o2)cc1 (optimized conformer: 68.56382426429518 kcal/mol)

>  <smiles>  (48) 
COc1ccc(Cc2nnc(SCc3ccc(S(N)(=O)=O)cc3)o2)cc1

>  <score_type>  (48) 
oracle

>  <origin>  (48) 
adgpu

>  <m_score__min__energy>  (48) 
-10.550000000000001

>  <m_primary>  (48) 
energy

$$$$
