0:0
     RDKit          3D

 42 44  0  0  0  0  0  0  0  0999 V2000
   -3.6353   21.0204  -33.0883 H   0  0  0  0  0  0  0  0  0  0  0  0
   -3.9500   20.2070  -32.4180 C   0  0  0  0  0  0  0  0  0  0  0  0
   -3.4090   20.0980  -31.2410 N   0  0  0  0  0  0  0  0  0  0  0  0
   -2.4050   20.9600  -30.6770 C   0  0  0  0  0  0  0  0  0  0  0  0
   -1.0510   20.5830  -30.5610 C   0  0  0  0  0  0  0  0  0  0  0  0
   -0.7269   19.5892  -30.9035 H   0  0  0  0  0  0  0  0  0  0  0  0
   -0.1200   21.4690  -30.0120 C   0  0  0  0  0  0  0  0  0  0  0  0
    0.9346   21.1693  -29.9222 H   0  0  0  0  0  0  0  0  0  0  0  0
   -0.5230   22.7330  -29.5770 C   0  0  0  0  0  0  0  0  0  0  0  0
    0.2132   23.4242  -29.1408 H   0  0  0  0  0  0  0  0  0  0  0  0
   -1.8620   23.1220  -29.6950 C   0  0  0  0  0  0  0  0  0  0  0  0
   -2.3780   24.7100  -29.1370 S   0  0  0  0  0  0  0  0  0  0  0  0
   -1.2450   25.6810  -29.3170 O   0  0  0  0  0  0  0  0  0  0  0  0
   -2.7580   24.6620  -27.6840 O   0  0  0  0  0  0  0  0  0  0  0  0
   -3.7410   25.2550  -30.0610 N   0  0  0  0  0  0  0  0  0  0  0  0
   -4.8990   24.4660  -30.3690 C   0  0  0  0  0  0  0  0  0  0  0  0
   -5.3870   23.5840  -29.3960 C   0  0  0  0  0  0  0  0  0  0  0  0
   -4.8755   23.5032  -28.4255 H   0  0  0  0  0  0  0  0  0  0  0  0
   -6.5200   22.8060  -29.6510 C   0  0  0  0  0  0  0  0  0  0  0  0
   -6.8977   22.1171  -28.8811 H   0  0  0  0  0  0  0  0  0  0  0  0
   -7.1740   22.9020  -30.8830 C   0  0  0  0  0  0  0  0  0  0  0  0
   -8.5970   21.9270  -31.2010 Cl  0  0  0  0  0  0  0  0  0  0  0  0
   -6.6930   23.7790  -31.8610 C   0  0  0  0  0  0  0  0  0  0  0  0
   -7.2076   23.8563  -32.8301 H   0  0  0  0  0  0  0  0  0  0  0  0
   -5.5600   24.5570  -31.6090 C   0  0  0  0  0  0  0  0  0  0  0  0
   -5.1831   25.2429  -32.3820 H   0  0  0  0  0  0  0  0  0  0  0  0
   -2.7940   22.2380  -30.2550 C   0  0  0  0  0  0  0  0  0  0  0  0
   -3.8428   22.5511  -30.3645 H   0  0  0  0  0  0  0  0  0  0  0  0
   -4.9830   19.2500  -32.8650 C   0  0  0  0  0  0  0  0  0  0  0  0
   -4.7010   18.3790  -33.9290 C   0  0  0  0  0  0  0  0  0  0  0  0
   -3.7195   18.4212  -34.4238 H   0  0  0  0  0  0  0  0  0  0  0  0
   -5.6580   17.4590  -34.3640 C   0  0  0  0  0  0  0  0  0  0  0  0
   -5.4256   16.7771  -35.1953 H   0  0  0  0  0  0  0  0  0  0  0  0
   -6.9090   17.4030  -33.7460 C   0  0  0  0  0  0  0  0  0  0  0  0
   -7.6558   16.6703  -34.0858 H   0  0  0  0  0  0  0  0  0  0  0  0
   -7.2170   18.2780  -32.6930 C   0  0  0  0  0  0  0  0  0  0  0  0
   -8.5480   18.1920  -32.0070 C   0  0  0  0  0  0  0  0  0  0  0  0
   -8.4000   18.2016  -30.9170 H   0  0  0  0  0  0  0  0  0  0  0  0
   -9.1680   19.0520  -32.3004 H   0  0  0  0  0  0  0  0  0  0  0  0
   -9.0522   17.2594  -32.3004 H   0  0  0  0  0  0  0  0  0  0  0  0
   -6.2450   19.1880  -32.2450 C   0  0  0  0  0  0  0  0  0  0  0  0
   -6.4722   19.8578  -31.4025 H   0  0  0  0  0  0  0  0  0  0  0  0
  1  2  1  0
  2  3  2  0
  3  4  1  0
  4  5  2  0
  5  6  1  0
  5  7  1  0
  7  8  1  0
  7  9  2  0
  9 10  1  0
  9 11  1  0
 11 12  1  0
 12 13  2  0
 12 14  2  0
 12 15  1  0
 15 16  1  0
 16 17  2  0
 17 18  1  0
 17 19  1  0
 19 20  1  0
 19 21  2  0
 21 22  1  0
 21 23  1  0
 23 24  1  0
 23 25  2  0
 25 26  1  0
 11 27  2  0
 27 28  1  0
  2 29  1  0
 29 30  2  0
 30 31  1  0
 30 32  1  0
 32 33  1  0
 32 34  2  0
 34 35  1  0
 34 36  1  0
 36 37  1  0
 37 38  1  0
 37 39  1  0
 37 40  1  0
 36 41  2  0
 41 42  1  0
 27  4  1  0
 41 29  1  0
 25 16  1  0
M  CHG  1  15  -1
M  END
>  <UniqueID>  (1) 
1

>  <SMILES>  (1) 
Cc1cccc(/C=N/c2cccc(S(=O)(=O)[N-]c3ccc(Cl)cc3)c2)c1

>  <Energy>  (1) 
49.3764106168023

>  <Genealogy>  (1) 
Cc1cccc(C=Nc2cccc(S(=O)(=O)[N-]c3ccc(Cl)cc3)c2)c1 (protonated)
Cc1cccc(/C=N/c2cccc(S(=O)(=O)[N-]c3ccc(Cl)cc3)c2)c1 (cis-trans isomerization)
Cc1cccc(/C=N/c2cccc(S(=O)(=O)[N-]c3ccc(Cl)cc3)c2)c1 (3D coordinates assigned)
Cc1cccc(/C=N/c2cccc(S(=O)(=O)[N-]c3ccc(Cl)cc3)c2)c1 (optimized conformer: 49.3764106168023 kcal/mol)

>  <smiles>  (1) 
Cc1cccc(C=Nc2cccc(S(=O)(=O)Nc3ccc(Cl)cc3)c2)c1

>  <score_type>  (1) 
oracle

>  <origin>  (1) 
adgpu

>  <m_score__min__energy>  (1) 
-10.66

>  <m_primary>  (1) 
energy

$$$$
1:0
     RDKit          3D

 41 43  0  0  0  0  0  0  0  0999 V2000
   -1.1780   15.8220  -35.2190 C   0  0  0  0  0  0  0  0  0  0  0  0
   -1.5250   17.0490  -34.5860 O   0  0  0  0  0  0  0  0  0  0  0  0
   -2.8410   17.4960  -34.3950 C   0  0  0  0  0  0  0  0  0  0  0  0
   -3.0380   18.7520  -33.8120 C   0  0  0  0  0  0  0  0  0  0  0  0
   -4.3280   19.2550  -33.6270 C   0  0  0  0  0  0  0  0  0  0  0  0
   -5.4460   18.5070  -34.0330 C   0  0  0  0  0  0  0  0  0  0  0  0
   -6.7780   19.0190  -33.8830 N   0  0  0  0  0  0  0  0  0  0  0  0
   -7.4590   19.4020  -32.3330 S   0  0  0  0  0  0  0  0  0  0  0  0
   -6.8740   18.5250  -31.2620 O   0  0  0  0  0  0  0  0  0  0  0  0
   -8.9390   19.1490  -32.3900 O   0  0  0  0  0  0  0  0  0  0  0  0
   -7.1600   21.0990  -31.9520 C   0  0  0  0  0  0  0  0  0  0  0  0
   -8.2160   22.0210  -31.9100 C   0  0  0  0  0  0  0  0  0  0  0  0
   -7.9660   23.3610  -31.6030 C   0  0  0  0  0  0  0  0  0  0  0  0
   -6.6600   23.7930  -31.3570 C   0  0  0  0  0  0  0  0  0  0  0  0
   -5.5930   22.8900  -31.4260 C   0  0  0  0  0  0  0  0  0  0  0  0
   -4.2610   23.3650  -31.1820 N   0  0  0  0  0  0  0  0  0  0  0  0
   -3.9260   24.5690  -30.4820 C   0  0  0  0  0  0  0  0  0  0  0  0
   -4.4230   25.6740  -30.8320 O   0  0  0  0  0  0  0  0  0  0  0  0
   -3.0390   24.5090  -29.3170 C   0  0  0  0  0  0  0  0  0  0  0  0
   -3.1780   23.6630  -28.2340 C   0  0  0  0  0  0  0  0  0  0  0  0
   -2.1250   23.9600  -27.3950 C   0  0  0  0  0  0  0  0  0  0  0  0
   -1.4110   24.9650  -28.0170 C   0  0  0  0  0  0  0  0  0  0  0  0
   -1.9790   25.2700  -29.1600 O   0  0  0  0  0  0  0  0  0  0  0  0
   -5.8540   21.5350  -31.6910 C   0  0  0  0  0  0  0  0  0  0  0  0
   -5.2520   17.2340  -34.5840 C   0  0  0  0  0  0  0  0  0  0  0  0
   -3.9610   16.7310  -34.7720 C   0  0  0  0  0  0  0  0  0  0  0  0
   -0.9631   15.0622  -34.4531 H   0  0  0  0  0  0  0  0  0  0  0  0
   -2.0156   15.4834  -35.8465 H   0  0  0  0  0  0  0  0  0  0  0  0
   -0.2871   15.9723  -35.8465 H   0  0  0  0  0  0  0  0  0  0  0  0
   -2.1696   19.3489  -33.4964 H   0  0  0  0  0  0  0  0  0  0  0  0
   -4.4693   20.2415  -33.1612 H   0  0  0  0  0  0  0  0  0  0  0  0
   -7.2350   19.4600  -34.7130 H   0  0  0  0  0  0  0  0  0  0  0  0
   -9.2434   21.6884  -32.1192 H   0  0  0  0  0  0  0  0  0  0  0  0
   -8.7992   24.0776  -31.5548 H   0  0  0  0  0  0  0  0  0  0  0  0
   -6.4698   24.8474  -31.1080 H   0  0  0  0  0  0  0  0  0  0  0  0
   -3.9640   22.9102  -28.0744 H   0  0  0  0  0  0  0  0  0  0  0  0
   -1.8993   23.4911  -26.4259 H   0  0  0  0  0  0  0  0  0  0  0  0
   -0.5031   25.4385  -27.6151 H   0  0  0  0  0  0  0  0  0  0  0  0
   -5.0263   20.8105  -31.6936 H   0  0  0  0  0  0  0  0  0  0  0  0
   -6.1220   16.6252  -34.8711 H   0  0  0  0  0  0  0  0  0  0  0  0
   -3.8201   15.7344  -35.2159 H   0  0  0  0  0  0  0  0  0  0  0  0
  1  2  1  0
  2  3  1  0
  3  4  2  0
  4  5  1  0
  5  6  2  0
  6  7  1  0
  7  8  1  0
  8  9  2  0
  8 10  2  0
  8 11  1  0
 11 12  2  0
 12 13  1  0
 13 14  2  0
 14 15  1  0
 15 16  1  0
 16 17  1  0
 17 18  2  0
 17 19  1  0
 19 20  2  0
 20 21  1  0
 21 22  2  0
 22 23  1  0
 15 24  2  0
  6 25  1  0
 25 26  2  0
 26  3  1  0
 24 11  1  0
 23 19  1  0
  1 27  1  0
  1 28  1  0
  1 29  1  0
  4 30  1  0
  5 31  1  0
  7 32  1  0
 12 33  1  0
 13 34  1  0
 14 35  1  0
 20 36  1  0
 21 37  1  0
 22 38  1  0
 24 39  1  0
 25 40  1  0
 26 41  1  0
M  CHG  1  16  -1
M  END
>  <UniqueID>  (2) 
2

>  <SMILES>  (2) 
COc1ccc(NS(=O)(=O)c2cccc([N-]C(=O)c3ccco3)c2)cc1

>  <Energy>  (2) 
74.69583665472375

>  <Genealogy>  (2) 
COc1ccc(NS(=O)(=O)c2cccc([N-]C(=O)c3ccco3)c2)cc1 (protonated)
COc1ccc(NS(=O)(=O)c2cccc([N-]C(=O)c3ccco3)c2)cc1 (3D coordinates assigned)
COc1ccc(NS(=O)(=O)c2cccc([N-]C(=O)c3ccco3)c2)cc1 (optimized conformer: 74.69583665472375 kcal/mol)

>  <smiles>  (2) 
COc1ccc(NS(=O)(=O)c2cccc(NC(=O)c3ccco3)c2)cc1

>  <score_type>  (2) 
oracle

>  <origin>  (2) 
adgpu

>  <m_score__min__energy>  (2) 
-10.119999999999999

>  <m_primary>  (2) 
energy

$$$$
2:0
     RDKit          3D

 38 40  0  0  0  0  0  0  0  0999 V2000
   -0.0940   23.3770  -24.8050 C   0  0  0  0  0  0  0  0  0  0  0  0
   -0.5420   22.7240  -25.9890 O   0  0  0  0  0  0  0  0  0  0  0  0
   -1.2430   23.3570  -27.0250 C   0  0  0  0  0  0  0  0  0  0  0  0
   -0.8120   24.5680  -27.6000 C   0  0  0  0  0  0  0  0  0  0  0  0
   -1.5460   25.1600  -28.6330 C   0  0  0  0  0  0  0  0  0  0  0  0
   -2.7190   24.5490  -29.1100 C   0  0  0  0  0  0  0  0  0  0  0  0
   -3.4970   25.1150  -30.1730 N   0  0  0  0  0  0  0  0  0  0  0  0
   -5.2230   25.0110  -30.3120 S   0  0  0  0  0  0  0  0  0  0  0  0
   -5.8390   25.2510  -28.9630 O   0  0  0  0  0  0  0  0  0  0  0  0
   -5.7020   26.0690  -31.2650 O   0  0  0  0  0  0  0  0  0  0  0  0
   -5.6900   23.4100  -30.8750 C   0  0  0  0  0  0  0  0  0  0  0  0
   -4.7300   22.5540  -31.4280 C   0  0  0  0  0  0  0  0  0  0  0  0
   -5.0980   21.2860  -31.8890 C   0  0  0  0  0  0  0  0  0  0  0  0
   -6.4330   20.8550  -31.7970 C   0  0  0  0  0  0  0  0  0  0  0  0
   -6.8240   19.5160  -32.2850 C   0  0  0  0  0  0  0  0  0  0  0  0
   -7.9620   18.8870  -31.9230 N   0  0  0  0  0  0  0  0  0  0  0  0
   -7.9370   17.7550  -32.5580 O   0  0  0  0  0  0  0  0  0  0  0  0
   -6.8450   17.6790  -33.2740 C   0  0  0  0  0  0  0  0  0  0  0  0
   -6.4980   16.5270  -34.1540 C   0  0  0  0  0  0  0  0  0  0  0  0
   -6.0860   18.7840  -33.1480 N   0  0  0  0  0  0  0  0  0  0  0  0
   -7.3910   21.7160  -31.2340 C   0  0  0  0  0  0  0  0  0  0  0  0
   -7.0210   22.9850  -30.7750 C   0  0  0  0  0  0  0  0  0  0  0  0
   -3.1450   23.3460  -28.5350 C   0  0  0  0  0  0  0  0  0  0  0  0
   -2.4120   22.7550  -27.5020 C   0  0  0  0  0  0  0  0  0  0  0  0
   -0.4664   22.8343  -23.9237 H   0  0  0  0  0  0  0  0  0  0  0  0
    1.0058   23.3924  -24.7885 H   0  0  0  0  0  0  0  0  0  0  0  0
   -0.4754   24.4086  -24.7885 H   0  0  0  0  0  0  0  0  0  0  0  0
    0.1065   25.0508  -27.2349 H   0  0  0  0  0  0  0  0  0  0  0  0
   -1.2040   26.1078  -29.0742 H   0  0  0  0  0  0  0  0  0  0  0  0
   -3.6820   22.8802  -31.5002 H   0  0  0  0  0  0  0  0  0  0  0  0
   -4.3381   20.6217  -32.3263 H   0  0  0  0  0  0  0  0  0  0  0  0
   -6.2361   15.6574  -33.5334 H   0  0  0  0  0  0  0  0  0  0  0  0
   -7.3609   16.2777  -34.7890 H   0  0  0  0  0  0  0  0  0  0  0  0
   -5.6410   16.7958  -34.7890 H   0  0  0  0  0  0  0  0  0  0  0  0
   -8.4385   21.3900  -31.1537 H   0  0  0  0  0  0  0  0  0  0  0  0
   -7.7776   23.6508  -30.3343 H   0  0  0  0  0  0  0  0  0  0  0  0
   -4.0634   22.8621  -28.8988 H   0  0  0  0  0  0  0  0  0  0  0  0
   -2.7574   21.8085  -27.0605 H   0  0  0  0  0  0  0  0  0  0  0  0
  1  2  1  0
  2  3  1  0
  3  4  2  0
  4  5  1  0
  5  6  2  0
  6  7  1  0
  7  8  1  0
  8  9  2  0
  8 10  2  0
  8 11  1  0
 11 12  2  0
 12 13  1  0
 13 14  2  0
 14 15  1  0
 15 16  2  0
 16 17  1  0
 17 18  1  0
 18 19  1  0
 18 20  2  0
 14 21  1  0
 21 22  2  0
  6 23  1  0
 23 24  2  0
 24  3  1  0
 22 11  1  0
 20 15  1  0
  1 25  1  0
  1 26  1  0
  1 27  1  0
  4 28  1  0
  5 29  1  0
 12 30  1  0
 13 31  1  0
 19 32  1  0
 19 33  1  0
 19 34  1  0
 21 35  1  0
 22 36  1  0
 23 37  1  0
 24 38  1  0
M  CHG  1   7  -1
M  END
>  <UniqueID>  (3) 
3

>  <SMILES>  (3) 
COc1ccc([N-]S(=O)(=O)c2ccc(-c3noc(C)n3)cc2)cc1

>  <Energy>  (3) 
74.63325430355967

>  <Genealogy>  (3) 
COc1ccc([N-]S(=O)(=O)c2ccc(-c3noc(C)n3)cc2)cc1 (protonated)
COc1ccc([N-]S(=O)(=O)c2ccc(-c3noc(C)n3)cc2)cc1 (3D coordinates assigned)
COc1ccc([N-]S(=O)(=O)c2ccc(-c3noc(C)n3)cc2)cc1 (optimized conformer: 74.63325430355967 kcal/mol)

>  <smiles>  (3) 
COc1ccc(NS(=O)(=O)c2ccc(-c3noc(C)n3)cc2)cc1

>  <score_type>  (3) 
oracle

>  <origin>  (3) 
adgpu

>  <m_score__min__energy>  (3) 
-9.3200000000000003

>  <m_primary>  (3) 
energy

$$$$
3:0
     RDKit          3D

 43 44  0  0  0  0  0  0  0  0999 V2000
   -2.0260   20.5150  -33.8150 C   0  0  0  0  0  0  0  0  0  0  0  0
   -2.7890   19.3800  -34.2120 O   0  0  0  0  0  0  0  0  0  0  0  0
   -4.0570   19.0620  -33.7050 C   0  0  0  0  0  0  0  0  0  0  0  0
   -5.0340   18.4020  -34.4730 C   0  0  0  0  0  0  0  0  0  0  0  0
   -6.2880   18.1150  -33.9250 C   0  0  0  0  0  0  0  0  0  0  0  0
   -6.5980   18.5050  -32.6110 C   0  0  0  0  0  0  0  0  0  0  0  0
   -7.9430   18.1910  -31.9910 C   0  0  0  0  0  0  0  0  0  0  0  0
   -8.9050   19.3920  -31.9410 C   0  0  0  0  0  0  0  0  0  0  0  0
   -8.3230   20.6040  -32.5330 N   0  0  0  0  0  0  0  0  0  0  0  0
   -8.6390   22.0240  -31.5720 S   0  0  0  0  0  0  0  0  0  0  0  0
   -9.5260   22.9610  -32.3420 O   0  0  0  0  0  0  0  0  0  0  0  0
   -9.3270   21.6620  -30.2840 O   0  0  0  0  0  0  0  0  0  0  0  0
   -7.1150   22.8400  -31.2440 C   0  0  0  0  0  0  0  0  0  0  0  0
   -5.9270   22.4210  -31.8590 C   0  0  0  0  0  0  0  0  0  0  0  0
   -4.7300   23.0990  -31.6080 C   0  0  0  0  0  0  0  0  0  0  0  0
   -4.7130   24.2130  -30.7520 C   0  0  0  0  0  0  0  0  0  0  0  0
   -3.5020   24.9260  -30.4680 N   0  0  0  0  0  0  0  0  0  0  0  0
   -2.6200   24.7030  -29.3590 C   0  0  0  0  0  0  0  0  0  0  0  0
   -2.8530   23.6100  -28.3610 C   0  0  0  0  0  0  0  0  0  0  0  0
   -1.5990   25.4300  -29.2400 O   0  0  0  0  0  0  0  0  0  0  0  0
   -5.8930   24.6010  -30.1080 C   0  0  0  0  0  0  0  0  0  0  0  0
   -7.0910   23.9240  -30.3590 C   0  0  0  0  0  0  0  0  0  0  0  0
   -5.6050   19.1270  -31.8360 C   0  0  0  0  0  0  0  0  0  0  0  0
   -4.3520   19.4130  -32.3840 C   0  0  0  0  0  0  0  0  0  0  0  0
   -1.9908   20.5673  -32.7168 H   0  0  0  0  0  0  0  0  0  0  0  0
   -1.0035   20.4261  -34.2108 H   0  0  0  0  0  0  0  0  0  0  0  0
   -2.4943   21.4283  -34.2108 H   0  0  0  0  0  0  0  0  0  0  0  0
   -4.8101   18.1103  -35.5097 H   0  0  0  0  0  0  0  0  0  0  0  0
   -7.0374   17.5800  -34.5269 H   0  0  0  0  0  0  0  0  0  0  0  0
   -8.4173   17.3921  -32.5799 H   0  0  0  0  0  0  0  0  0  0  0  0
   -7.7517   17.8928  -30.9496 H   0  0  0  0  0  0  0  0  0  0  0  0
   -9.8204   19.1340  -32.4937 H   0  0  0  0  0  0  0  0  0  0  0  0
   -9.1180   19.6058  -30.8832 H   0  0  0  0  0  0  0  0  0  0  0  0
   -8.7900   20.7550  -33.4570 H   0  0  0  0  0  0  0  0  0  0  0  0
   -5.9364   21.5574  -32.5402 H   0  0  0  0  0  0  0  0  0  0  0  0
   -3.7979   22.7587  -32.0827 H   0  0  0  0  0  0  0  0  0  0  0  0
   -2.7660   24.0181  -27.3432 H   0  0  0  0  0  0  0  0  0  0  0  0
   -3.8604   23.1920  -28.5035 H   0  0  0  0  0  0  0  0  0  0  0  0
   -2.1036   22.8175  -28.5035 H   0  0  0  0  0  0  0  0  0  0  0  0
   -5.8785   25.4431  -29.4004 H   0  0  0  0  0  0  0  0  0  0  0  0
   -8.0171   24.2445  -29.8593 H   0  0  0  0  0  0  0  0  0  0  0  0
   -5.8157   19.3910  -30.7891 H   0  0  0  0  0  0  0  0  0  0  0  0
   -3.5912   19.9185  -31.7711 H   0  0  0  0  0  0  0  0  0  0  0  0
  1  2  1  0
  2  3  1  0
  3  4  2  0
  4  5  1  0
  5  6  2  0
  6  7  1  0
  7  8  1  0
  8  9  1  0
  9 10  1  0
 10 11  2  0
 10 12  2  0
 10 13  1  0
 13 14  2  0
 14 15  1  0
 15 16  2  0
 16 17  1  0
 17 18  1  0
 18 19  1  0
 18 20  2  0
 16 21  1  0
 21 22  2  0
  6 23  1  0
 23 24  2  0
 24  3  1  0
 22 13  1  0
  1 25  1  0
  1 26  1  0
  1 27  1  0
  4 28  1  0
  5 29  1  0
  7 30  1  0
  7 31  1  0
  8 32  1  0
  8 33  1  0
  9 34  1  0
 14 35  1  0
 15 36  1  0
 19 37  1  0
 19 38  1  0
 19 39  1  0
 21 40  1  0
 22 41  1  0
 23 42  1  0
 24 43  1  0
M  CHG  1  17  -1
M  END
>  <UniqueID>  (4) 
4

>  <SMILES>  (4) 
COc1ccc(CCNS(=O)(=O)c2ccc([N-]C(C)=O)cc2)cc1

>  <Energy>  (4) 
40.663553560107744

>  <Genealogy>  (4) 
COc1ccc(CCNS(=O)(=O)c2ccc([N-]C(C)=O)cc2)cc1 (protonated)
COc1ccc(CCNS(=O)(=O)c2ccc([N-]C(C)=O)cc2)cc1 (3D coordinates assigned)
COc1ccc(CCNS(=O)(=O)c2ccc([N-]C(C)=O)cc2)cc1 (optimized conformer: 40.663553560107744 kcal/mol)

>  <smiles>  (4) 
COc1ccc(CCNS(=O)(=O)c2ccc(NC(C)=O)cc2)cc1

>  <score_type>  (4) 
oracle

>  <origin>  (4) 
adgpu

>  <m_score__min__energy>  (4) 
-10.460000000000001

>  <m_primary>  (4) 
energy

$$$$
4:0
     RDKit          3D

 33 34  0  0  0  0  0  0  0  0999 V2000
   -2.6530   25.3040  -26.2070 C   0  0  0  0  0  0  0  0  0  0  0  0
   -3.8040   24.5530  -26.8840 C   0  0  0  0  0  0  0  0  0  0  0  0
   -3.4030   23.8090  -28.1820 C   0  0  1  0  0  0  0  0  0  0  0  0
   -2.8070   24.7120  -29.2410 C   0  0  0  0  0  0  0  0  0  0  0  0
   -1.7510   25.3610  -29.0060 O   0  0  0  0  0  0  0  0  0  0  0  0
   -3.5260   24.9290  -30.4620 N   0  0  0  0  0  0  0  0  0  0  0  0
   -4.8200   24.4010  -30.7890 C   0  0  0  0  0  0  0  0  0  0  0  0
   -4.9830   23.2670  -31.6030 C   0  0  0  0  0  0  0  0  0  0  0  0
   -6.2640   22.7800  -31.8680 C   0  0  0  0  0  0  0  0  0  0  0  0
   -7.3700   23.4200  -31.3060 C   0  0  0  0  0  0  0  0  0  0  0  0
   -7.1940   24.5020  -30.5020 N   0  0  0  0  0  0  0  0  0  0  0  0
   -5.9570   24.9950  -30.2300 C   0  0  0  0  0  0  0  0  0  0  0  0
   -2.5230   22.6060  -27.8810 C   0  0  0  0  0  0  0  0  0  0  0  0
   -3.0920   21.3190  -27.8440 C   0  0  0  0  0  0  0  0  0  0  0  0
   -2.3060   20.2040  -27.5400 C   0  0  0  0  0  0  0  0  0  0  0  0
   -0.9470   20.3600  -27.2600 C   0  0  0  0  0  0  0  0  0  0  0  0
   -0.3710   21.6320  -27.2790 C   0  0  0  0  0  0  0  0  0  0  0  0
   -1.1540   22.7510  -27.5810 C   0  0  0  0  0  0  0  0  0  0  0  0
   -2.7613   25.2333  -25.1146 H   0  0  0  0  0  0  0  0  0  0  0  0
   -1.6948   24.8568  -26.5101 H   0  0  0  0  0  0  0  0  0  0  0  0
   -2.6764   26.3611  -26.5101 H   0  0  0  0  0  0  0  0  0  0  0  0
   -4.1996   23.8142  -26.1715 H   0  0  0  0  0  0  0  0  0  0  0  0
   -4.5482   25.3101  -27.1718 H   0  0  0  0  0  0  0  0  0  0  0  0
   -4.3385   23.4345  -28.6231 H   0  0  0  0  0  0  0  0  0  0  0  0
   -4.1029   22.7642  -32.0304 H   0  0  0  0  0  0  0  0  0  0  0  0
   -6.4007   21.9000  -32.5137 H   0  0  0  0  0  0  0  0  0  0  0  0
   -8.3844   23.0487  -31.5138 H   0  0  0  0  0  0  0  0  0  0  0  0
   -5.8490   25.8658  -29.5667 H   0  0  0  0  0  0  0  0  0  0  0  0
   -4.1636   21.1898  -28.0560 H   0  0  0  0  0  0  0  0  0  0  0  0
   -2.7589   19.2017  -27.5213 H   0  0  0  0  0  0  0  0  0  0  0  0
   -0.3298   19.4805  -27.0243 H   0  0  0  0  0  0  0  0  0  0  0  0
    0.6993   21.7540  -27.0563 H   0  0  0  0  0  0  0  0  0  0  0  0
   -0.6975   23.7518  -27.5843 H   0  0  0  0  0  0  0  0  0  0  0  0
  1  2  1  0
  2  3  1  0
  3  4  1  0
  4  5  2  0
  4  6  1  0
  6  7  1  0
  7  8  2  0
  8  9  1  0
  9 10  2  0
 10 11  1  0
 11 12  2  0
  3 13  1  0
 13 14  2  0
 14 15  1  0
 15 16  2  0
 16 17  1  0
 17 18  2  0
 12  7  1  0
 18 13  1  0
  1 19  1  0
  1 20  1  0
  1 21  1  0
  2 22  1  0
  2 23  1  0
  3 24  1  6
  8 25  1  0
  9 26  1  0
 10 27  1  0
 12 28  1  0
 14 29  1  0
 15 30  1  0
 16 31  1  0
 17 32  1  0
 18 33  1  0
M  CHG  1   6  -1
M  END
>  <UniqueID>  (5) 
5

>  <SMILES>  (5) 
CC[C@@H](C(=O)[N-]c1cccnc1)c1ccccc1

>  <Energy>  (5) 
36.890127814664574

>  <Genealogy>  (5) 
CCC(C(=O)[N-]c1cccnc1)c1ccccc1 (protonated)
CC[C@@H](C(=O)[N-]c1cccnc1)c1ccccc1 (chirality)
CC[C@@H](C(=O)[N-]c1cccnc1)c1ccccc1 (3D coordinates assigned)
CC[C@@H](C(=O)[N-]c1cccnc1)c1ccccc1 (optimized conformer: 36.890127814664574 kcal/mol)

>  <smiles>  (5) 
CCC(C(=O)Nc1cccnc1)c1ccccc1

>  <score_type>  (5) 
oracle

>  <origin>  (5) 
adgpu

>  <m_score__min__energy>  (5) 
-8.1799999999999997

>  <m_primary>  (5) 
energy

$$$$
5:0
     RDKit          3D

 22 23  0  0  0  0  0  0  0  0999 V2000
   -1.9140   23.9400  -28.8180 H   0  0  0  0  0  0  0  0  0  0  0  0
   -2.3890   24.7110  -29.3370 N   0  0  0  0  0  0  0  0  0  0  0  0
   -3.4780   24.4970  -30.0020 C   0  0  0  0  0  0  0  0  0  0  0  0
   -4.0800   23.2960  -30.0830 N   0  0  0  0  0  0  0  0  0  0  0  0
   -5.1470   23.5840  -30.8660 C   0  0  0  0  0  0  0  0  0  0  0  0
   -6.1590   22.5840  -31.2730 C   0  0  0  0  0  0  0  0  0  0  0  0
   -7.4860   22.6900  -30.8220 C   0  0  0  0  0  0  0  0  0  0  0  0
   -7.7736   23.5218  -30.1621 H   0  0  0  0  0  0  0  0  0  0  0  0
   -8.4430   21.7460  -31.2060 C   0  0  0  0  0  0  0  0  0  0  0  0
   -9.4812   21.8453  -30.8564 H   0  0  0  0  0  0  0  0  0  0  0  0
   -8.0850   20.6730  -32.0350 C   0  0  0  0  0  0  0  0  0  0  0  0
   -9.1200   19.6820  -32.4780 C   0  0  0  0  0  0  0  0  0  0  0  0
   -9.5943   19.2279  -31.5955 H   0  0  0  0  0  0  0  0  0  0  0  0
   -9.8835   20.1944  -33.0817 H   0  0  0  0  0  0  0  0  0  0  0  0
   -8.6413   18.8969  -33.0817 H   0  0  0  0  0  0  0  0  0  0  0  0
   -6.7660   20.5730  -32.5000 C   0  0  0  0  0  0  0  0  0  0  0  0
   -6.4827   19.7473  -33.1693 H   0  0  0  0  0  0  0  0  0  0  0  0
   -5.8090   21.5180  -32.1170 C   0  0  0  0  0  0  0  0  0  0  0  0
   -4.7746   21.4255  -32.4796 H   0  0  0  0  0  0  0  0  0  0  0  0
   -5.1860   24.8830  -31.2350 N   0  0  0  0  0  0  0  0  0  0  0  0
   -4.1280   25.4500  -30.6840 N   0  0  0  0  0  0  0  0  0  0  0  0
   -3.8690   26.4570  -30.7790 H   0  0  0  0  0  0  0  0  0  0  0  0
  1  2  1  0
  2  3  2  0
  3  4  1  0
  4  5  2  0
  5  6  1  0
  6  7  2  0
  7  8  1  0
  7  9  1  0
  9 10  1  0
  9 11  2  0
 11 12  1  0
 12 13  1  0
 12 14  1  0
 12 15  1  0
 11 16  1  0
 16 17  1  0
 16 18  2  0
 18 19  1  0
  5 20  1  0
 20 21  1  0
 21 22  1  0
 21  3  1  0
 18  6  1  0
M  CHG  1  20  -1
M  END
>  <UniqueID>  (6) 
6

>  <SMILES>  (6) 
[H]/N=c1\nc(-c2ccc(C)cc2)[n-][nH]1

>  <Energy>  (6) 
55.25240002765417

>  <Genealogy>  (6) 
Cc1ccc(-c2nc(=N)[nH][n-]2)cc1 (protonated)
[H]/N=c1\nc(-c2ccc(C)cc2)[n-][nH]1 (cis-trans isomerization)
[H]/N=c1\nc(-c2ccc(C)cc2)[n-][nH]1 (3D coordinates assigned)
[H]/N=c1\nc(-c2ccc(C)cc2)[n-][nH]1 (optimized conformer: 55.25240002765417 kcal/mol)

>  <smiles>  (6) 
Cc1ccc(-c2nc(=N)[nH][nH]2)cc1

>  <score_type>  (6) 
oracle

>  <origin>  (6) 
adgpu

>  <m_score__min__energy>  (6) 
-7.46

>  <m_primary>  (6) 
energy

$$$$
6:0
     RDKit          3D

 29 30  0  0  0  0  0  0  0  0999 V2000
   -4.8250   24.5270  -28.4760 N   0  0  0  0  0  0  0  0  0  0  0  0
   -5.1910   24.9940  -30.1000 S   0  0  0  0  0  0  0  0  0  0  0  0
   -6.0580   26.2220  -30.0840 O   0  0  0  0  0  0  0  0  0  0  0  0
   -3.9150   25.3150  -30.8280 O   0  0  0  0  0  0  0  0  0  0  0  0
   -6.0310   23.6810  -30.9180 C   0  0  0  0  0  0  0  0  0  0  0  0
   -7.4250   23.5750  -30.8330 C   0  0  0  0  0  0  0  0  0  0  0  0
   -8.0960   22.5410  -31.4930 C   0  0  0  0  0  0  0  0  0  0  0  0
   -7.3750   21.5970  -32.2510 C   0  0  0  0  0  0  0  0  0  0  0  0
   -7.9960   20.5360  -32.9290 O   0  0  0  0  0  0  0  0  0  0  0  0
   -8.3630   19.2870  -32.3430 C   0  0  0  0  0  0  0  0  0  0  0  0
   -7.2630   18.2790  -32.5110 C   0  0  0  0  0  0  0  0  0  0  0  0
   -6.7310   17.5980  -31.4070 C   0  0  0  0  0  0  0  0  0  0  0  0
   -5.7480   16.6780  -31.5980 N   0  0  0  0  0  0  0  0  0  0  0  0
   -5.2780   16.3990  -32.8420 C   0  0  0  0  0  0  0  0  0  0  0  0
   -4.0110   15.2070  -33.0510 Cl  0  0  0  0  0  0  0  0  0  0  0  0
   -5.8150   17.0650  -33.9450 C   0  0  0  0  0  0  0  0  0  0  0  0
   -6.7970   17.9860  -33.7550 N   0  0  0  0  0  0  0  0  0  0  0  0
   -5.9820   21.7170  -32.3400 C   0  0  0  0  0  0  0  0  0  0  0  0
   -5.3130   22.7510  -31.6800 C   0  0  0  0  0  0  0  0  0  0  0  0
   -4.3160   25.3250  -28.0360 H   0  0  0  0  0  0  0  0  0  0  0  0
   -5.7360   24.4360  -27.9720 H   0  0  0  0  0  0  0  0  0  0  0  0
   -7.9948   24.3089  -30.2441 H   0  0  0  0  0  0  0  0  0  0  0  0
   -9.1909   22.4642  -31.4202 H   0  0  0  0  0  0  0  0  0  0  0  0
   -8.5571   19.4344  -31.2703 H   0  0  0  0  0  0  0  0  0  0  0  0
   -9.2665   18.9120  -32.8460 H   0  0  0  0  0  0  0  0  0  0  0  0
   -7.1059   17.8063  -30.3941 H   0  0  0  0  0  0  0  0  0  0  0  0
   -5.4471   16.8467  -34.9584 H   0  0  0  0  0  0  0  0  0  0  0  0
   -5.4095   20.9903  -32.9351 H   0  0  0  0  0  0  0  0  0  0  0  0
   -4.2191   22.8348  -31.7592 H   0  0  0  0  0  0  0  0  0  0  0  0
  1  2  1  0
  2  3  2  0
  2  4  2  0
  2  5  1  0
  5  6  2  0
  6  7  1  0
  7  8  2  0
  8  9  1  0
  9 10  1  0
 10 11  1  0
 11 12  2  0
 12 13  1  0
 13 14  2  0
 14 15  1  0
 14 16  1  0
 16 17  2  0
  8 18  1  0
 18 19  2  0
 19  5  1  0
 17 11  1  0
  1 20  1  0
  1 21  1  0
  6 22  1  0
  7 23  1  0
 10 24  1  0
 10 25  1  0
 12 26  1  0
 16 27  1  0
 18 28  1  0
 19 29  1  0
M  END
>  <UniqueID>  (7) 
7

>  <SMILES>  (7) 
NS(=O)(=O)c1ccc(OCc2cnc(Cl)cn2)cc1

>  <Energy>  (7) 
29.484746974016264

>  <Genealogy>  (7) 
NS(=O)(=O)c1ccc(OCc2cnc(Cl)cn2)cc1 (3D coordinates assigned)
NS(=O)(=O)c1ccc(OCc2cnc(Cl)cn2)cc1 (optimized conformer: 29.484746974016264 kcal/mol)

>  <smiles>  (7) 
NS(=O)(=O)c1ccc(OCc2cnc(Cl)cn2)cc1

>  <score_type>  (7) 
oracle

>  <origin>  (7) 
adgpu

>  <m_score__min__energy>  (7) 
-8.3900000000000006

>  <m_primary>  (7) 
energy

$$$$
7:0
     RDKit          3D

 42 43  0  0  0  0  0  0  0  0999 V2000
   -2.7620   20.2200  -27.4020 C   0  0  0  0  0  0  0  0  0  0  0  0
   -2.5700   21.5430  -28.0830 C   0  0  0  0  0  0  0  0  0  0  0  0
   -2.2200   22.6770  -27.3360 C   0  0  0  0  0  0  0  0  0  0  0  0
   -2.0970   23.9270  -27.9610 C   0  0  0  0  0  0  0  0  0  0  0  0
   -1.6970   25.1330  -27.1610 C   0  0  0  0  0  0  0  0  0  0  0  0
   -2.2970   24.0340  -29.3450 C   0  0  0  0  0  0  0  0  0  0  0  0
   -2.6410   22.9010  -30.1030 C   0  0  0  0  0  0  0  0  0  0  0  0
   -2.8940   22.9770  -31.5140 N   0  0  0  0  0  0  0  0  0  0  0  0
   -3.1950   21.8810  -32.3890 C   0  0  0  0  0  0  0  0  0  0  0  0
   -2.2610   21.2550  -32.9610 O   0  0  0  0  0  0  0  0  0  0  0  0
   -4.6060   21.4720  -32.5950 C   0  0  0  0  0  0  0  0  0  0  0  0
   -4.8690   20.1910  -33.1160 C   0  0  0  0  0  0  0  0  0  0  0  0
   -6.1850   19.7200  -33.2560 C   0  0  0  0  0  0  0  0  0  0  0  0
   -6.4420   18.4050  -33.7840 N   0  0  0  0  0  0  0  0  0  0  0  0
   -6.0710   18.0970  -34.9370 O   0  0  0  0  0  0  0  0  0  0  0  0
   -7.1060   17.4650  -33.0300 O   0  0  0  0  0  0  0  0  0  0  0  0
   -7.2480   20.5440  -32.8610 C   0  0  0  0  0  0  0  0  0  0  0  0
   -7.0090   21.8220  -32.3550 C   0  0  0  0  0  0  0  0  0  0  0  0
   -8.3900   22.8200  -31.9100 Cl  0  0  0  0  0  0  0  0  0  0  0  0
   -5.6930   22.3070  -32.2360 C   0  0  0  0  0  0  0  0  0  0  0  0
   -5.4770   23.6520  -31.7810 N   0  0  0  0  0  0  0  0  0  0  0  0
   -6.0280   24.1180  -30.5080 C   0  0  0  0  0  0  0  0  0  0  0  0
   -5.2850   25.3630  -30.0230 C   0  0  0  0  0  0  0  0  0  0  0  0
   -4.2080   25.6630  -30.8680 O   0  0  0  0  0  0  0  0  0  0  0  0
   -2.8050   21.6680  -29.4600 C   0  0  0  0  0  0  0  0  0  0  0  0
   -2.7413   20.3625  -26.3115 H   0  0  0  0  0  0  0  0  0  0  0  0
   -3.7316   19.7927  -27.6976 H   0  0  0  0  0  0  0  0  0  0  0  0
   -1.9539   19.5347  -27.6976 H   0  0  0  0  0  0  0  0  0  0  0  0
   -2.0410   22.5860  -26.2545 H   0  0  0  0  0  0  0  0  0  0  0  0
   -1.7733   24.9030  -26.0880 H   0  0  0  0  0  0  0  0  0  0  0  0
   -0.6599   25.4070  -27.4044 H   0  0  0  0  0  0  0  0  0  0  0  0
   -2.3648   25.9725  -27.4044 H   0  0  0  0  0  0  0  0  0  0  0  0
   -2.1841   25.0097  -29.8402 H   0  0  0  0  0  0  0  0  0  0  0  0
   -4.0296   19.5478  -33.4187 H   0  0  0  0  0  0  0  0  0  0  0  0
   -8.2818   20.1790  -32.9510 H   0  0  0  0  0  0  0  0  0  0  0  0
   -4.6680   24.1830  -32.1770 H   0  0  0  0  0  0  0  0  0  0  0  0
   -7.0922   24.3617  -30.6424 H   0  0  0  0  0  0  0  0  0  0  0  0
   -5.9115   23.3213  -29.7585 H   0  0  0  0  0  0  0  0  0  0  0  0
   -5.9805   26.2151  -30.0095 H   0  0  0  0  0  0  0  0  0  0  0  0
   -4.8958   25.1689  -29.0126 H   0  0  0  0  0  0  0  0  0  0  0  0
   -3.8490   24.7950  -31.1890 H   0  0  0  0  0  0  0  0  0  0  0  0
   -3.1212   20.7888  -30.0405 H   0  0  0  0  0  0  0  0  0  0  0  0
  1  2  1  0
  2  3  2  0
  3  4  1  0
  4  5  1  0
  4  6  2  0
  6  7  1  0
  7  8  1  0
  8  9  1  0
  9 10  2  0
  9 11  1  0
 11 12  2  0
 12 13  1  0
 13 14  1  0
 14 15  2  0
 14 16  1  0
 13 17  2  0
 17 18  1  0
 18 19  1  0
 18 20  2  0
 20 21  1  0
 21 22  1  0
 22 23  1  0
 23 24  1  0
  7 25  2  0
 25  2  1  0
 20 11  1  0
  1 26  1  0
  1 27  1  0
  1 28  1  0
  3 29  1  0
  5 30  1  0
  5 31  1  0
  5 32  1  0
  6 33  1  0
 12 34  1  0
 17 35  1  0
 21 36  1  0
 22 37  1  0
 22 38  1  0
 23 39  1  0
 23 40  1  0
 24 41  1  0
 25 42  1  0
M  CHG  3   8  -1  14   1  16  -1
M  END
>  <UniqueID>  (8) 
8

>  <SMILES>  (8) 
Cc1cc(C)cc([N-]C(=O)c2cc([N+](=O)[O-])cc(Cl)c2NCCO)c1

>  <Energy>  (8) 
51.167973626644915

>  <Genealogy>  (8) 
Cc1cc(C)cc([N-]C(=O)c2cc([N+](=O)[O-])cc(Cl)c2NCCO)c1 (protonated)
Cc1cc(C)cc([N-]C(=O)c2cc([N+](=O)[O-])cc(Cl)c2NCCO)c1 (3D coordinates assigned)
Cc1cc(C)cc([N-]C(=O)c2cc([N+](=O)[O-])cc(Cl)c2NCCO)c1 (optimized conformer: 51.167973626644915 kcal/mol)

>  <smiles>  (8) 
Cc1cc(C)cc(NC(=O)c2cc([N+](=O)[O-])cc(Cl)c2NCCO)c1

>  <score_type>  (8) 
oracle

>  <origin>  (8) 
adgpu

>  <m_score__min__energy>  (8) 
-8.8000000000000007

>  <m_primary>  (8) 
energy

$$$$
8:0
     RDKit          3D

 41 43  0  0  0  0  0  0  0  0999 V2000
   -2.4410   21.3900  -32.7020 C   0  0  0  0  0  0  0  0  0  0  0  0
   -1.6130   21.9080  -31.5300 C   0  0  0  0  0  0  0  0  0  0  0  0
   -2.4820   22.2670  -30.4030 N   0  0  0  0  0  0  0  0  0  0  0  0
   -3.8150   22.7700  -30.6260 C   0  0  0  0  0  0  0  0  0  0  0  0
   -4.0810   24.0960  -30.4740 N   0  0  0  0  0  0  0  0  0  0  0  0
   -5.3280   24.5930  -30.6790 C   0  0  0  0  0  0  0  0  0  0  0  0
   -5.5890   26.0520  -30.4720 C   0  0  0  0  0  0  0  0  0  0  0  0
   -6.3670   23.7310  -31.0430 C   0  0  0  0  0  0  0  0  0  0  0  0
   -6.0850   22.3670  -31.2110 C   0  0  0  0  0  0  0  0  0  0  0  0
   -7.1360   21.3890  -31.5950 C   0  0  0  0  0  0  0  0  0  0  0  0
   -8.5010   21.7360  -31.5870 C   0  0  0  0  0  0  0  0  0  0  0  0
   -9.4730   20.8010  -31.9610 C   0  0  0  0  0  0  0  0  0  0  0  0
   -9.0950   19.5150  -32.3520 C   0  0  0  0  0  0  0  0  0  0  0  0
  -10.0390   18.6120  -32.7140 F   0  0  0  0  0  0  0  0  0  0  0  0
   -7.7440   19.1620  -32.3750 C   0  0  0  0  0  0  0  0  0  0  0  0
   -6.7690   20.0920  -32.0030 C   0  0  0  0  0  0  0  0  0  0  0  0
   -4.8160   21.9260  -30.9910 N   0  0  0  0  0  0  0  0  0  0  0  0
   -2.0500   21.9580  -29.0680 C   0  0  0  0  0  0  0  0  0  0  0  0
   -2.2280   20.6610  -28.5630 C   0  0  0  0  0  0  0  0  0  0  0  0
   -1.8090   20.3470  -27.2660 C   0  0  0  0  0  0  0  0  0  0  0  0
   -1.2140   21.3260  -26.4680 C   0  0  0  0  0  0  0  0  0  0  0  0
   -1.0390   22.6220  -26.9610 C   0  0  0  0  0  0  0  0  0  0  0  0
   -1.4560   22.9440  -28.2590 C   0  0  0  0  0  0  0  0  0  0  0  0
   -1.2540   24.5920  -28.8380 Cl  0  0  0  0  0  0  0  0  0  0  0  0
   -3.3154   20.8430  -32.3197 H   0  0  0  0  0  0  0  0  0  0  0  0
   -2.7786   22.2382  -33.3156 H   0  0  0  0  0  0  0  0  0  0  0  0
   -1.8259   20.7154  -33.3156 H   0  0  0  0  0  0  0  0  0  0  0  0
   -0.9103   21.1247  -31.2096 H   0  0  0  0  0  0  0  0  0  0  0  0
   -1.0624   22.8039  -31.8530 H   0  0  0  0  0  0  0  0  0  0  0  0
   -5.6277   26.2683  -29.3942 H   0  0  0  0  0  0  0  0  0  0  0  0
   -4.7815   26.6382  -30.9348 H   0  0  0  0  0  0  0  0  0  0  0  0
   -6.5497   26.3219  -30.9348 H   0  0  0  0  0  0  0  0  0  0  0  0
   -7.3865   24.1152  -31.1948 H   0  0  0  0  0  0  0  0  0  0  0  0
   -8.8053   22.7489  -31.2847 H   0  0  0  0  0  0  0  0  0  0  0  0
  -10.5370   21.0799  -31.9469 H   0  0  0  0  0  0  0  0  0  0  0  0
   -7.4465   18.1499  -32.6865 H   0  0  0  0  0  0  0  0  0  0  0  0
   -5.7065   19.8085  -32.0291 H   0  0  0  0  0  0  0  0  0  0  0  0
   -2.6986   19.8887  -29.1892 H   0  0  0  0  0  0  0  0  0  0  0  0
   -1.9483   19.3285  -26.8746 H   0  0  0  0  0  0  0  0  0  0  0  0
   -0.8823   21.0768  -25.4492 H   0  0  0  0  0  0  0  0  0  0  0  0
   -0.5725   23.3913  -26.3281 H   0  0  0  0  0  0  0  0  0  0  0  0
  1  2  1  0
  2  3  1  0
  3  4  1  0
  4  5  2  0
  5  6  1  0
  6  7  1  0
  6  8  2  0
  8  9  1  0
  9 10  1  0
 10 11  2  0
 11 12  1  0
 12 13  2  0
 13 14  1  0
 13 15  1  0
 15 16  2  0
  9 17  2  0
  3 18  1  0
 18 19  2  0
 19 20  1  0
 20 21  2  0
 21 22  1  0
 22 23  2  0
 23 24  1  0
 17  4  1  0
 23 18  1  0
 16 10  1  0
  1 25  1  0
  1 26  1  0
  1 27  1  0
  2 28  1  0
  2 29  1  0
  7 30  1  0
  7 31  1  0
  7 32  1  0
  8 33  1  0
 11 34  1  0
 12 35  1  0
 15 36  1  0
 16 37  1  0
 19 38  1  0
 20 39  1  0
 21 40  1  0
 22 41  1  0
M  END
>  <UniqueID>  (9) 
9

>  <SMILES>  (9) 
CCN(c1nc(C)cc(-c2ccc(F)cc2)n1)c1ccccc1Cl

>  <Energy>  (9) 
50.040265955033796

>  <Genealogy>  (9) 
CCN(c1nc(C)cc(-c2ccc(F)cc2)n1)c1ccccc1Cl (3D coordinates assigned)
CCN(c1nc(C)cc(-c2ccc(F)cc2)n1)c1ccccc1Cl (optimized conformer: 50.040265955033796 kcal/mol)

>  <smiles>  (9) 
CCN(c1nc(C)cc(-c2ccc(F)cc2)n1)c1ccccc1Cl

>  <score_type>  (9) 
oracle

>  <origin>  (9) 
adgpu

>  <m_score__min__energy>  (9) 
-8.0399999999999991

>  <m_primary>  (9) 
energy

$$$$
9:0
     RDKit          3D

 36 37  0  0  0  0  0  0  0  0999 V2000
   -1.2658   17.7857  -26.5945 H   0  0  0  0  0  0  0  0  0  0  0  0
   -1.5180   18.7470  -27.0660 C   0  0  0  0  0  0  0  0  0  0  0  0
   -2.7790   19.3130  -26.8670 C   0  0  0  0  0  0  0  0  0  0  0  0
   -3.5190   18.7970  -26.2376 H   0  0  0  0  0  0  0  0  0  0  0  0
   -3.1030   20.5340  -27.4660 C   0  0  0  0  0  0  0  0  0  0  0  0
   -4.0983   20.9741  -27.3057 H   0  0  0  0  0  0  0  0  0  0  0  0
   -2.1640   21.2040  -28.2730 C   0  0  0  0  0  0  0  0  0  0  0  0
   -2.5060   22.5010  -28.9100 C   0  0  0  0  0  0  0  0  0  0  0  0
   -1.7580   23.6550  -28.6260 C   0  0  0  0  0  0  0  0  0  0  0  0
   -0.9084   23.6045  -27.9292 H   0  0  0  0  0  0  0  0  0  0  0  0
   -2.0970   24.8680  -29.2320 C   0  0  0  0  0  0  0  0  0  0  0  0
   -1.3480   26.0510  -28.9520 N   0  0  0  0  0  0  0  0  0  0  0  0
   -1.2370   26.7880  -29.6840 H   0  0  0  0  0  0  0  0  0  0  0  0
   -0.9020   26.1970  -28.0190 H   0  0  0  0  0  0  0  0  0  0  0  0
   -3.1490   24.9250  -30.0910 N   0  0  0  0  0  0  0  0  0  0  0  0
   -3.9040   23.8360  -30.3950 C   0  0  0  0  0  0  0  0  0  0  0  0
   -4.8960   23.9840  -31.2290 N   0  0  0  0  0  0  0  0  0  0  0  0
   -5.8420   22.9620  -31.6790 C   0  0  0  0  0  0  0  0  0  0  0  0
   -5.3175   21.9994  -31.7702 H   0  0  0  0  0  0  0  0  0  0  0  0
   -6.2542   23.2655  -32.6526 H   0  0  0  0  0  0  0  0  0  0  0  0
   -6.9960   22.8140  -30.6790 C   0  0  0  0  0  0  0  0  0  0  0  0
   -7.0866   23.7414  -30.0944 H   0  0  0  0  0  0  0  0  0  0  0  0
   -6.7801   21.9615  -30.0182 H   0  0  0  0  0  0  0  0  0  0  0  0
   -8.3200   22.5470  -31.4040 C   0  0  0  0  0  0  0  0  0  0  0  0
   -8.3523   23.1474  -32.3251 H   0  0  0  0  0  0  0  0  0  0  0  0
   -9.1468   22.8225  -30.7328 H   0  0  0  0  0  0  0  0  0  0  0  0
   -8.4620   21.0720  -31.7660 C   0  0  0  0  0  0  0  0  0  0  0  0
   -8.5197   20.4725  -30.8456 H   0  0  0  0  0  0  0  0  0  0  0  0
   -9.3784   20.9260  -32.3567 H   0  0  0  0  0  0  0  0  0  0  0  0
   -7.5903   20.7539  -32.3567 H   0  0  0  0  0  0  0  0  0  0  0  0
   -3.5840   22.5950  -29.8060 C   0  0  0  0  0  0  0  0  0  0  0  0
   -4.1781   21.7014  -30.0480 H   0  0  0  0  0  0  0  0  0  0  0  0
   -0.8950   20.6250  -28.4650 C   0  0  0  0  0  0  0  0  0  0  0  0
   -0.1493   21.1370  -29.0910 H   0  0  0  0  0  0  0  0  0  0  0  0
   -0.5770   19.4020  -27.8640 C   0  0  0  0  0  0  0  0  0  0  0  0
    0.4161   18.9554  -28.0203 H   0  0  0  0  0  0  0  0  0  0  0  0
  1  2  1  0
  2  3  2  0
  3  4  1  0
  3  5  1  0
  5  6  1  0
  5  7  2  0
  7  8  1  0
  8  9  1  0
  9 10  1  0
  9 11  2  0
 11 12  1  0
 12 13  1  0
 12 14  1  0
 11 15  1  0
 15 16  1  0
 16 17  2  0
 17 18  1  0
 18 19  1  0
 18 20  1  0
 18 21  1  0
 21 22  1  0
 21 23  1  0
 21 24  1  0
 24 25  1  0
 24 26  1  0
 24 27  1  0
 27 28  1  0
 27 29  1  0
 27 30  1  0
 16 31  1  0
 31 32  1  0
  7 33  1  0
 33 34  1  0
 33 35  2  0
 35 36  1  0
 35  2  1  0
 31  8  2  0
M  CHG  1  15  -1
M  END
>  <UniqueID>  (10) 
10

>  <SMILES>  (10) 
CCCC/N=c1\cc(-c2ccccc2)cc(N)[n-]1

>  <Energy>  (10) 
35.71450562383818

>  <Genealogy>  (10) 
CCCCN=c1cc(-c2ccccc2)cc(N)[n-]1 (protonated)
CCCC/N=c1\cc(-c2ccccc2)cc(N)[n-]1 (cis-trans isomerization)
CCCC/N=c1\cc(-c2ccccc2)cc(N)[n-]1 (3D coordinates assigned)
CCCC/N=c1\cc(-c2ccccc2)cc(N)[n-]1 (optimized conformer: 35.71450562383818 kcal/mol)

>  <smiles>  (10) 
CCCCN=c1cc(-c2ccccc2)cc(N)[nH]1

>  <score_type>  (10) 
oracle

>  <origin>  (10) 
adgpu

>  <m_score__min__energy>  (10) 
-8.9199999999999999

>  <m_primary>  (10) 
energy

$$$$
10:0
     RDKit          3D

 30 31  0  0  0  0  0  0  0  0999 V2000
   -2.6650   23.0180  -30.8160 C   0  0  0  0  0  0  0  0  0  0  0  0
   -3.7280   23.9560  -30.2320 C   0  0  1  0  0  0  0  0  0  0  0  0
   -3.4970   25.2860  -30.6190 O   0  0  0  0  0  0  0  0  0  0  0  0
   -5.1240   23.5180  -30.6430 C   0  0  0  0  0  0  0  0  0  0  0  0
   -5.2660   22.2520  -31.2460 C   0  0  0  0  0  0  0  0  0  0  0  0
   -6.5190   21.7760  -31.6640 C   0  0  0  0  0  0  0  0  0  0  0  0
   -6.6480   20.4350  -32.2910 C   0  0  0  0  0  0  0  0  0  0  0  0
   -7.5650   19.4920  -31.7950 C   0  0  0  0  0  0  0  0  0  0  0  0
   -7.6750   18.2370  -32.3970 C   0  0  0  0  0  0  0  0  0  0  0  0
   -6.8660   17.9300  -33.4910 C   0  0  0  0  0  0  0  0  0  0  0  0
   -5.9820   18.8470  -33.9620 N   0  0  0  0  0  0  0  0  0  0  0  0
   -5.8560   20.0770  -33.3970 C   0  0  0  0  0  0  0  0  0  0  0  0
   -7.6470   22.5860  -31.4800 C   0  0  0  0  0  0  0  0  0  0  0  0
   -7.5260   23.8470  -30.8990 C   0  0  0  0  0  0  0  0  0  0  0  0
   -6.2790   24.3340  -30.4830 C   0  0  0  0  0  0  0  0  0  0  0  0
   -6.2230   25.6500  -29.9120 N   0  0  0  0  0  0  0  0  0  0  0  0
   -2.1146   22.5323  -29.9967 H   0  0  0  0  0  0  0  0  0  0  0  0
   -3.1531   22.2509  -31.4351 H   0  0  0  0  0  0  0  0  0  0  0  0
   -1.9646   23.5978  -31.4351 H   0  0  0  0  0  0  0  0  0  0  0  0
   -3.6561   23.9003  -29.1358 H   0  0  0  0  0  0  0  0  0  0  0  0
   -3.2660   25.2720  -31.5850 H   0  0  0  0  0  0  0  0  0  0  0  0
   -4.3755   21.6230  -31.3924 H   0  0  0  0  0  0  0  0  0  0  0  0
   -8.1973   19.7434  -30.9307 H   0  0  0  0  0  0  0  0  0  0  0  0
   -8.3927   17.4975  -32.0122 H   0  0  0  0  0  0  0  0  0  0  0  0
   -6.9441   16.9442  -33.9727 H   0  0  0  0  0  0  0  0  0  0  0  0
   -5.1312   20.7958  -33.8067 H   0  0  0  0  0  0  0  0  0  0  0  0
   -8.6362   22.2238  -31.7966 H   0  0  0  0  0  0  0  0  0  0  0  0
   -8.4228   24.4697  -30.7648 H   0  0  0  0  0  0  0  0  0  0  0  0
   -7.1040   26.1610  -29.6830 H   0  0  0  0  0  0  0  0  0  0  0  0
   -5.3340   26.1600  -29.7320 H   0  0  0  0  0  0  0  0  0  0  0  0
  1  2  1  0
  2  3  1  0
  2  4  1  0
  4  5  2  0
  5  6  1  0
  6  7  1  0
  7  8  2  0
  8  9  1  0
  9 10  2  0
 10 11  1  0
 11 12  2  0
  6 13  2  0
 13 14  1  0
 14 15  2  0
 15 16  1  0
 15  4  1  0
 12  7  1  0
  1 17  1  0
  1 18  1  0
  1 19  1  0
  2 20  1  1
  3 21  1  0
  5 22  1  0
  8 23  1  0
  9 24  1  0
 10 25  1  0
 12 26  1  0
 13 27  1  0
 14 28  1  0
 16 29  1  0
 16 30  1  0
M  END
>  <UniqueID>  (11) 
11

>  <SMILES>  (11) 
C[C@@H](O)c1cc(-c2cccnc2)ccc1N

>  <Energy>  (11) 
37.67430762006025

>  <Genealogy>  (11) 
C[C@@H](O)c1cc(-c2cccnc2)ccc1N (chirality)
C[C@@H](O)c1cc(-c2cccnc2)ccc1N (3D coordinates assigned)
C[C@@H](O)c1cc(-c2cccnc2)ccc1N (optimized conformer: 37.67430762006025 kcal/mol)

>  <smiles>  (11) 
CC(O)c1cc(-c2cccnc2)ccc1N

>  <score_type>  (11) 
oracle

>  <origin>  (11) 
adgpu

>  <m_score__min__energy>  (11) 
-7.3600000000000003

>  <m_primary>  (11) 
energy

$$$$
11:0
     RDKit          3D

 47 49  0  0  0  0  0  0  0  0999 V2000
   -1.0010   26.0590  -27.8600 C   0  0  0  0  0  0  0  0  0  0  0  0
   -1.8080   25.6580  -28.9640 O   0  0  0  0  0  0  0  0  0  0  0  0
   -2.5100   24.4460  -29.0320 C   0  0  0  0  0  0  0  0  0  0  0  0
   -1.8260   23.2630  -28.7320 C   0  0  0  0  0  0  0  0  0  0  0  0
   -2.4830   22.0320  -28.7810 C   0  0  0  0  0  0  0  0  0  0  0  0
   -3.8330   21.9710  -29.1320 C   0  0  0  0  0  0  0  0  0  0  0  0
   -4.5390   23.1460  -29.4370 C   0  0  0  0  0  0  0  0  0  0  0  0
   -6.0070   23.0780  -29.7920 C   0  0  0  0  0  0  0  0  0  0  0  0
   -6.2830   22.0750  -30.8520 N   0  0  1  0  0  0  0  0  0  0  0  0
   -7.7010   22.0610  -31.2920 C   0  0  0  0  0  0  0  0  0  0  0  0
   -8.2190   20.6840  -31.6160 C   0  0  0  0  0  0  0  0  0  0  0  0
   -9.3660   20.3980  -32.3280 C   0  0  0  0  0  0  0  0  0  0  0  0
   -9.4460   19.0230  -32.3660 C   0  0  0  0  0  0  0  0  0  0  0  0
   -8.3450   18.5570  -31.6760 C   0  0  0  0  0  0  0  0  0  0  0  0
   -7.6330   19.5700  -31.2430 O   0  0  0  0  0  0  0  0  0  0  0  0
   -5.3970   22.2520  -31.9890 C   0  0  0  0  0  0  0  0  0  0  0  0
   -5.0850   23.4150  -32.3720 O   0  0  0  0  0  0  0  0  0  0  0  0
   -4.9010   21.0870  -32.7610 C   0  0  0  0  0  0  0  0  0  0  0  0
   -5.6570   20.1170  -33.3960 C   0  0  0  0  0  0  0  0  0  0  0  0
   -4.8170   19.2550  -33.9970 N   0  0  0  0  0  0  0  0  0  0  0  0
   -5.2100   18.1290  -34.8330 C   0  0  0  0  0  0  0  0  0  0  0  0
   -3.5630   19.6280  -33.8050 N   0  0  0  0  0  0  0  0  0  0  0  0
   -3.5840   20.7400  -33.0440 C   0  0  0  0  0  0  0  0  0  0  0  0
   -2.3510   21.4710  -32.6250 C   0  0  0  0  0  0  0  0  0  0  0  0
   -3.8720   24.3820  -29.3890 C   0  0  0  0  0  0  0  0  0  0  0  0
   -1.5129   25.8047  -26.9202 H   0  0  0  0  0  0  0  0  0  0  0  0
   -0.0339   25.5366  -27.9038 H   0  0  0  0  0  0  0  0  0  0  0  0
   -0.8333   27.1453  -27.9038 H   0  0  0  0  0  0  0  0  0  0  0  0
   -0.7621   23.3030  -28.4553 H   0  0  0  0  0  0  0  0  0  0  0  0
   -1.9358   21.1081  -28.5425 H   0  0  0  0  0  0  0  0  0  0  0  0
   -4.3457   20.9985  -29.1698 H   0  0  0  0  0  0  0  0  0  0  0  0
   -6.5769   22.8070  -28.8911 H   0  0  0  0  0  0  0  0  0  0  0  0
   -6.3075   24.0645  -30.1747 H   0  0  0  0  0  0  0  0  0  0  0  0
   -6.0760   21.1360  -30.4380 H   0  0  0  0  0  0  0  0  0  0  0  0
   -8.3191   22.4843  -30.4866 H   0  0  0  0  0  0  0  0  0  0  0  0
   -7.7571   22.6525  -32.2177 H   0  0  0  0  0  0  0  0  0  0  0  0
  -10.0695   21.1175  -32.7724 H   0  0  0  0  0  0  0  0  0  0  0  0
  -10.2286   18.4190  -32.8484 H   0  0  0  0  0  0  0  0  0  0  0  0
   -8.1016   17.4966  -31.5138 H   0  0  0  0  0  0  0  0  0  0  0  0
   -6.7555   20.0606  -33.4073 H   0  0  0  0  0  0  0  0  0  0  0  0
   -5.5051   17.2835  -34.1942 H   0  0  0  0  0  0  0  0  0  0  0  0
   -6.0588   18.4225  -35.4681 H   0  0  0  0  0  0  0  0  0  0  0  0
   -4.3629   17.8306  -35.4681 H   0  0  0  0  0  0  0  0  0  0  0  0
   -2.2986   21.5021  -31.5267 H   0  0  0  0  0  0  0  0  0  0  0  0
   -1.4651   20.9521  -33.0198 H   0  0  0  0  0  0  0  0  0  0  0  0
   -2.3811   22.4973  -33.0198 H   0  0  0  0  0  0  0  0  0  0  0  0
   -4.4168   25.3062  -29.6318 H   0  0  0  0  0  0  0  0  0  0  0  0
  1  2  1  0
  2  3  1  0
  3  4  2  0
  4  5  1  0
  5  6  2  0
  6  7  1  0
  7  8  1  0
  8  9  1  0
  9 10  1  0
 10 11  1  0
 11 12  2  0
 12 13  1  0
 13 14  2  0
 14 15  1  0
  9 16  1  0
 16 17  2  0
 16 18  1  0
 18 19  2  0
 19 20  1  0
 20 21  1  0
 20 22  1  0
 22 23  2  0
 23 24  1  0
  7 25  2  0
 25  3  1  0
 15 11  1  0
 23 18  1  0
  1 26  1  0
  1 27  1  0
  1 28  1  0
  4 29  1  0
  5 30  1  0
  6 31  1  0
  8 32  1  0
  8 33  1  0
  9 34  1  1
 10 35  1  0
 10 36  1  0
 12 37  1  0
 13 38  1  0
 14 39  1  0
 19 40  1  0
 21 41  1  0
 21 42  1  0
 21 43  1  0
 24 44  1  0
 24 45  1  0
 24 46  1  0
 25 47  1  0
M  CHG  1   9   1
M  END
>  <UniqueID>  (12) 
12

>  <SMILES>  (12) 
COc1cccc(C[N@@H+](Cc2ccco2)C(=O)c2cn(C)nc2C)c1

>  <Energy>  (12) 
105.88114428608225

>  <Genealogy>  (12) 
COc1cccc(C[NH+](Cc2ccco2)C(=O)c2cn(C)nc2C)c1 (protonated)
COc1cccc(C[N@@H+](Cc2ccco2)C(=O)c2cn(C)nc2C)c1 (chirality)
COc1cccc(C[N@@H+](Cc2ccco2)C(=O)c2cn(C)nc2C)c1 (3D coordinates assigned)
COc1cccc(C[N@@H+](Cc2ccco2)C(=O)c2cn(C)nc2C)c1 (optimized conformer: 105.88114428608225 kcal/mol)

>  <smiles>  (12) 
COc1cccc(CN(Cc2ccco2)C(=O)c2cn(C)nc2C)c1

>  <score_type>  (12) 
oracle

>  <origin>  (12) 
adgpu

>  <m_score__min__energy>  (12) 
-7.8499999999999996

>  <m_primary>  (12) 
energy

$$$$
12:0
     RDKit          3D

 74 79  0  0  0  0  0  0  0  0999 V2000
   -4.6360   13.2450  -30.8540 C   0  0  0  0  0  0  0  0  0  0  0  0
   -3.5120   13.5030  -31.8660 C   0  0  0  0  0  0  0  0  0  0  0  0
   -3.8520   13.1280  -33.2610 N   0  0  0  0  0  0  0  0  0  0  0  0
   -3.1440   13.9270  -34.2880 C   0  0  0  0  0  0  0  0  0  0  0  0
   -2.1470   14.9010  -33.6620 C   0  0  0  0  0  0  0  0  0  0  0  0
   -5.3150   13.1090  -33.4950 C   0  0  0  0  0  0  0  0  0  0  0  0
   -5.6760   14.0460  -34.6470 C   0  0  0  0  0  0  0  0  0  0  0  0
   -6.6080   15.0220  -34.1900 O   0  0  0  0  0  0  0  0  0  0  0  0
   -6.2540   16.3020  -33.7370 C   0  0  0  0  0  0  0  0  0  0  0  0
   -4.9470   16.8120  -33.8580 C   0  0  0  0  0  0  0  0  0  0  0  0
   -4.6310   18.0730  -33.3450 C   0  0  0  0  0  0  0  0  0  0  0  0
   -5.6140   18.8500  -32.7090 C   0  0  0  0  0  0  0  0  0  0  0  0
   -5.2660   20.1560  -32.1060 C   0  0  0  0  0  0  0  0  0  0  0  0
   -4.2610   20.3060  -31.2000 N   0  0  0  0  0  0  0  0  0  0  0  0
   -4.3360   21.6080  -30.8890 C   0  0  0  0  0  0  0  0  0  0  0  0
   -3.5610   22.3100  -29.9700 C   0  0  0  0  0  0  0  0  0  0  0  0
   -3.8480   23.6800  -29.7670 C   0  0  0  0  0  0  0  0  0  0  0  0
   -3.0720   24.4690  -28.7850 C   0  0  0  0  0  0  0  0  0  0  0  0
   -2.0150   25.2510  -29.1360 N   0  0  0  0  0  0  0  0  0  0  0  0
   -1.6130   25.7500  -27.9580 C   0  0  0  0  0  0  0  0  0  0  0  0
   -0.5420   26.6080  -27.7160 C   0  0  0  0  0  0  0  0  0  0  0  0
   -0.2870   26.9870  -26.3780 C   0  0  0  0  0  0  0  0  0  0  0  0
    0.8260   27.8450  -26.0660 N   0  0  0  0  0  0  0  0  0  0  0  0
    2.2030   27.3430  -26.0930 C   0  0  0  0  0  0  0  0  0  0  0  0
    2.8830   27.5710  -24.7280 C   0  0  0  0  0  0  0  0  0  0  0  0
    2.3620   28.7470  -23.9840 N   0  0  0  0  0  0  0  0  0  0  0  0
    1.4280   28.3490  -22.9160 C   0  0  0  0  0  0  0  0  0  0  0  0
    1.7850   29.7810  -24.8680 C   0  0  0  0  0  0  0  0  0  0  0  0
    0.5950   29.2400  -25.6790 C   0  0  0  0  0  0  0  0  0  0  0  0
   -1.1140   26.4870  -25.3390 C   0  0  0  0  0  0  0  0  0  0  0  0
   -2.1880   25.6240  -25.6270 C   0  0  0  0  0  0  0  0  0  0  0  0
   -2.4010   25.2790  -26.9570 C   0  0  0  0  0  0  0  0  0  0  0  0
   -3.3400   24.4610  -27.4510 N   0  0  0  0  0  0  0  0  0  0  0  0
   -4.8960   24.2910  -30.5100 C   0  0  0  0  0  0  0  0  0  0  0  0
   -5.6580   23.5430  -31.4270 C   0  0  0  0  0  0  0  0  0  0  0  0
   -5.3440   22.1970  -31.5820 C   0  0  0  0  0  0  0  0  0  0  0  0
   -5.9580   21.2970  -32.3650 N   0  0  0  0  0  0  0  0  0  0  0  0
   -6.9250   18.3500  -32.6180 C   0  0  0  0  0  0  0  0  0  0  0  0
   -7.2390   17.0880  -33.1300 C   0  0  0  0  0  0  0  0  0  0  0  0
   -4.2379   13.3364  -29.8326 H   0  0  0  0  0  0  0  0  0  0  0  0
   -5.4389   13.9822  -31.0019 H   0  0  0  0  0  0  0  0  0  0  0  0
   -5.0370   12.2314  -31.0019 H   0  0  0  0  0  0  0  0  0  0  0  0
   -3.2696   14.5758  -31.8464 H   0  0  0  0  0  0  0  0  0  0  0  0
   -2.6645   12.8692  -31.5658 H   0  0  0  0  0  0  0  0  0  0  0  0
   -2.6016   13.2443  -34.9586 H   0  0  0  0  0  0  0  0  0  0  0  0
   -3.8927   14.5129  -34.8412 H   0  0  0  0  0  0  0  0  0  0  0  0
   -2.2117   14.8378  -32.5657 H   0  0  0  0  0  0  0  0  0  0  0  0
   -1.1281   14.6407  -33.9848 H   0  0  0  0  0  0  0  0  0  0  0  0
   -2.3834   15.9257  -33.9848 H   0  0  0  0  0  0  0  0  0  0  0  0
   -5.6297   12.0854  -33.7466 H   0  0  0  0  0  0  0  0  0  0  0  0
   -5.8294   13.4459  -32.5829 H   0  0  0  0  0  0  0  0  0  0  0  0
   -4.7671   14.5483  -35.0099 H   0  0  0  0  0  0  0  0  0  0  0  0
   -6.1250   13.4648  -35.4659 H   0  0  0  0  0  0  0  0  0  0  0  0
   -4.1708   16.2148  -34.3589 H   0  0  0  0  0  0  0  0  0  0  0  0
   -3.6057   18.4599  -33.4398 H   0  0  0  0  0  0  0  0  0  0  0  0
   -2.7492   21.8138  -29.4179 H   0  0  0  0  0  0  0  0  0  0  0  0
    0.0853   26.9788  -28.5400 H   0  0  0  0  0  0  0  0  0  0  0  0
    2.1923   26.2662  -26.3176 H   0  0  0  0  0  0  0  0  0  0  0  0
    2.7658   27.8842  -26.8678 H   0  0  0  0  0  0  0  0  0  0  0  0
    2.7284   26.6742  -24.1101 H   0  0  0  0  0  0  0  0  0  0  0  0
    3.9464   27.7669  -24.9301 H   0  0  0  0  0  0  0  0  0  0  0  0
    1.8871   28.5446  -21.9357 H   0  0  0  0  0  0  0  0  0  0  0  0
    0.4978   28.9289  -23.0075 H   0  0  0  0  0  0  0  0  0  0  0  0
    1.2019   27.2764  -23.0075 H   0  0  0  0  0  0  0  0  0  0  0  0
    1.4416   30.6250  -24.2518 H   0  0  0  0  0  0  0  0  0  0  0  0
    2.5645   30.0996  -25.5757 H   0  0  0  0  0  0  0  0  0  0  0  0
   -0.3167   29.2990  -25.0664 H   0  0  0  0  0  0  0  0  0  0  0  0
    0.4814   29.8465  -26.5896 H   0  0  0  0  0  0  0  0  0  0  0  0
   -0.9136   26.7770  -24.2970 H   0  0  0  0  0  0  0  0  0  0  0  0
   -2.8364   25.2360  -24.8276 H   0  0  0  0  0  0  0  0  0  0  0  0
   -5.1132   25.3597  -30.3663 H   0  0  0  0  0  0  0  0  0  0  0  0
   -6.4736   24.0069  -32.0012 H   0  0  0  0  0  0  0  0  0  0  0  0
   -7.7089   18.9563  -32.1406 H   0  0  0  0  0  0  0  0  0  0  0  0
   -8.2692   16.7098  -33.0550 H   0  0  0  0  0  0  0  0  0  0  0  0
  1  2  1  0
  2  3  1  0
  3  4  1  0
  4  5  1  0
  3  6  1  0
  6  7  1  0
  7  8  1  0
  8  9  1  0
  9 10  2  0
 10 11  1  0
 11 12  2  0
 12 13  1  0
 13 14  2  0
 14 15  1  0
 15 16  2  0
 16 17  1  0
 17 18  1  0
 18 19  2  0
 19 20  1  0
 20 21  2  0
 21 22  1  0
 22 23  1  0
 23 24  1  0
 24 25  1  0
 25 26  1  0
 26 27  1  0
 26 28  1  0
 28 29  1  0
 22 30  2  0
 30 31  1  0
 31 32  2  0
 32 33  1  0
 17 34  2  0
 34 35  1  0
 35 36  2  0
 36 37  1  0
 12 38  1  0
 38 39  2  0
 39  9  1  0
 37 13  1  0
 36 15  1  0
 33 18  1  0
 32 20  1  0
 29 23  1  0
  1 40  1  0
  1 41  1  0
  1 42  1  0
  2 43  1  0
  2 44  1  0
  4 45  1  0
  4 46  1  0
  5 47  1  0
  5 48  1  0
  5 49  1  0
  6 50  1  0
  6 51  1  0
  7 52  1  0
  7 53  1  0
 10 54  1  0
 11 55  1  0
 16 56  1  0
 21 57  1  0
 24 58  1  0
 24 59  1  0
 25 60  1  0
 25 61  1  0
 27 62  1  0
 27 63  1  0
 27 64  1  0
 28 65  1  0
 28 66  1  0
 29 67  1  0
 29 68  1  0
 30 69  1  0
 31 70  1  0
 34 71  1  0
 35 72  1  0
 38 73  1  0
 39 74  1  0
M  CHG  2  33  -1  37  -1
M  END
>  <UniqueID>  (13) 
13

>  <SMILES>  (13) 
CCN(CC)CCOc1ccc(-c2nc3cc(-c4nc5cc(N6CCN(C)CC6)ccc5[n-]4)ccc3[n-]2)cc1

>  <Energy>  (13) 
162.56813810658585

>  <Genealogy>  (13) 
CCN(CC)CCOc1ccc(-c2nc3cc(-c4nc5cc(N6CCN(C)CC6)ccc5[n-]4)ccc3[n-]2)cc1 (protonated)
CCN(CC)CCOc1ccc(-c2nc3cc(-c4nc5cc(N6CCN(C)CC6)ccc5[n-]4)ccc3[n-]2)cc1 (3D coordinates assigned)
CCN(CC)CCOc1ccc(-c2nc3cc(-c4nc5cc(N6CCN(C)CC6)ccc5[n-]4)ccc3[n-]2)cc1 (nonaromatic ring conformer: 162.56813810658585 kcal/mol)

>  <smiles>  (13) 
CCN(CC)CCOc1ccc(-c2nc3cc(-c4nc5cc(N6CCN(C)CC6)ccc5[nH]4)ccc3[nH]2)cc1

>  <score_type>  (13) 
oracle

>  <origin>  (13) 
adgpu

>  <m_score__min__energy>  (13) 
-9.4700000000000006

>  <m_primary>  (13) 
energy

$$$$
13:0
     RDKit          3D

 53 56  0  0  0  0  0  0  0  0999 V2000
   -3.1240   14.2810  -37.4720 N   0  0  0  0  0  0  0  0  0  0  0  0
   -3.0270   14.9700  -36.5480 C   0  0  0  0  0  0  0  0  0  0  0  0
   -2.9040   15.8480  -35.3700 C   0  0  1  0  0  0  0  0  0  0  0  0
   -1.5920   16.6560  -35.4190 C   0  0  0  0  0  0  0  0  0  0  0  0
   -1.5580   17.7770  -34.4060 C   0  0  0  0  0  0  0  0  0  0  0  0
   -1.9730   17.5520  -33.0850 C   0  0  0  0  0  0  0  0  0  0  0  0
   -1.9020   18.5770  -32.1380 C   0  0  0  0  0  0  0  0  0  0  0  0
   -1.4090   19.8430  -32.4940 C   0  0  0  0  0  0  0  0  0  0  0  0
   -1.3120   20.9140  -31.4750 C   0  0  0  0  0  0  0  0  0  0  0  0
   -2.2990   21.9130  -31.4080 C   0  0  0  0  0  0  0  0  0  0  0  0
   -2.2080   22.9370  -30.4630 C   0  0  0  0  0  0  0  0  0  0  0  0
   -1.1260   22.9840  -29.5760 C   0  0  0  0  0  0  0  0  0  0  0  0
   -1.0160   24.2700  -28.3790 S   0  0  0  0  0  0  0  0  0  0  0  0
   -1.8200   25.6790  -28.9750 N   0  0  0  0  0  0  0  0  0  0  0  0
    0.4280   24.5930  -28.1080 O   0  0  0  0  0  0  0  0  0  0  0  0
   -1.6600   23.8270  -27.0950 O   0  0  0  0  0  0  0  0  0  0  0  0
   -0.1430   21.9880  -29.6320 C   0  0  0  0  0  0  0  0  0  0  0  0
   -0.2300   20.9600  -30.5780 C   0  0  0  0  0  0  0  0  0  0  0  0
    0.7270   19.9980  -30.5960 F   0  0  0  0  0  0  0  0  0  0  0  0
   -0.9940   20.0690  -33.8190 C   0  0  0  0  0  0  0  0  0  0  0  0
   -0.5360   21.2870  -34.2040 F   0  0  0  0  0  0  0  0  0  0  0  0
   -1.0700   19.0430  -34.7660 C   0  0  0  0  0  0  0  0  0  0  0  0
   -4.0660   16.7390  -35.2820 N   0  0  0  0  0  0  0  0  0  0  0  0
   -5.1690   16.4750  -34.4040 C   0  0  0  0  0  0  0  0  0  0  0  0
   -5.2200   15.3930  -33.7560 O   0  0  0  0  0  0  0  0  0  0  0  0
   -6.2670   17.4960  -34.2580 C   0  0  2  0  0  0  0  0  0  0  0  0
   -5.9470   18.7510  -34.9650 N   0  0  0  0  0  0  0  0  0  0  0  0
   -6.1590   19.7780  -33.9310 C   0  0  2  0  0  0  0  0  0  0  0  0
   -4.9510   19.7460  -32.9840 C   0  0  0  0  0  0  0  0  0  0  0  0
   -5.2100   18.4660  -32.1770 C   0  0  0  0  0  0  0  0  0  0  0  0
   -6.5180   17.9360  -32.8010 C   0  0  1  0  0  0  0  0  0  0  0  0
   -7.2600   19.2210  -33.0570 C   0  0  0  0  0  0  0  0  0  0  0  0
   -2.8753   15.2202  -34.4672 H   0  0  0  0  0  0  0  0  0  0  0  0
   -0.7518   15.9750  -35.2183 H   0  0  0  0  0  0  0  0  0  0  0  0
   -1.5188   17.1096  -36.4184 H   0  0  0  0  0  0  0  0  0  0  0  0
   -2.3564   16.5632  -32.7930 H   0  0  0  0  0  0  0  0  0  0  0  0
   -2.2347   18.3910  -31.1061 H   0  0  0  0  0  0  0  0  0  0  0  0
   -3.1494   21.8878  -32.1053 H   0  0  0  0  0  0  0  0  0  0  0  0
   -2.9895   23.7097  -30.4154 H   0  0  0  0  0  0  0  0  0  0  0  0
   -1.2460   26.0460  -29.7680 H   0  0  0  0  0  0  0  0  0  0  0  0
    0.7023   22.0137  -28.9285 H   0  0  0  0  0  0  0  0  0  0  0  0
   -0.7451   19.2292  -35.8003 H   0  0  0  0  0  0  0  0  0  0  0  0
   -4.0940   17.6080  -35.8630 H   0  0  0  0  0  0  0  0  0  0  0  0
   -7.1467   16.9814  -34.6720 H   0  0  0  0  0  0  0  0  0  0  0  0
   -6.6530   18.9000  -35.7240 H   0  0  0  0  0  0  0  0  0  0  0  0
   -6.3432   20.7657  -34.3789 H   0  0  0  0  0  0  0  0  0  0  0  0
   -4.0063   19.6810  -33.5437 H   0  0  0  0  0  0  0  0  0  0  0  0
   -4.8509   20.6485  -32.3631 H   0  0  0  0  0  0  0  0  0  0  0  0
   -4.3892   17.7445  -32.3020 H   0  0  0  0  0  0  0  0  0  0  0  0
   -5.2799   18.6380  -31.0928 H   0  0  0  0  0  0  0  0  0  0  0  0
   -6.9677   17.1441  -32.1840 H   0  0  0  0  0  0  0  0  0  0  0  0
   -8.2110   19.0774  -33.5908 H   0  0  0  0  0  0  0  0  0  0  0  0
   -7.6033   19.8140  -32.1965 H   0  0  0  0  0  0  0  0  0  0  0  0
  1  2  3  0
  2  3  1  0
  3  4  1  0
  4  5  1  0
  5  6  2  0
  6  7  1  0
  7  8  2  0
  8  9  1  0
  9 10  2  0
 10 11  1  0
 11 12  2  0
 12 13  1  0
 13 14  1  0
 13 15  2  0
 13 16  2  0
 12 17  1  0
 17 18  2  0
 18 19  1  0
  8 20  1  0
 20 21  1  0
 20 22  2  0
  3 23  1  0
 23 24  1  0
 24 25  2  0
 24 26  1  0
 26 27  1  0
 27 28  1  0
 28 29  1  0
 29 30  1  0
 30 31  1  0
 31 32  1  0
 22  5  1  0
 31 26  1  0
 18  9  1  0
 32 28  1  0
  3 33  1  1
  4 34  1  0
  4 35  1  0
  6 36  1  0
  7 37  1  0
 10 38  1  0
 11 39  1  0
 14 40  1  0
 17 41  1  0
 22 42  1  0
 23 43  1  0
 26 44  1  6
 27 45  1  0
 28 46  1  6
 29 47  1  0
 29 48  1  0
 30 49  1  0
 30 50  1  0
 31 51  1  1
 32 52  1  0
 32 53  1  0
M  CHG  1  14  -1
M  END
>  <UniqueID>  (14) 
14

>  <SMILES>  (14) 
N#C[C@@H](Cc1ccc(-c2ccc(S([NH-])(=O)=O)cc2F)c(F)c1)NC(=O)[C@@H]1NC2CCC1C2

>  <Energy>  (14) 
82.6712852232563

>  <Genealogy>  (14) 
N#CC(Cc1ccc(-c2ccc(S([NH-])(=O)=O)cc2F)c(F)c1)NC(=O)C1NC2CCC1C2 (protonated)
N#C[C@@H](Cc1ccc(-c2ccc(S([NH-])(=O)=O)cc2F)c(F)c1)NC(=O)[C@@H]1NC2CCC1C2 (chirality)
N#C[C@@H](Cc1ccc(-c2ccc(S([NH-])(=O)=O)cc2F)c(F)c1)NC(=O)[C@@H]1NC2CCC1C2 (3D coordinates assigned)
N#C[C@@H](Cc1ccc(-c2ccc(S([NH-])(=O)=O)cc2F)c(F)c1)NC(=O)[C@@H]1NC2CCC1C2 (nonaromatic ring conformer: 82.6712852232563 kcal/mol)

>  <smiles>  (14) 
N#CC(Cc1ccc(-c2ccc(S(N)(=O)=O)cc2F)c(F)c1)NC(=O)C1NC2CCC1C2

>  <score_type>  (14) 
oracle

>  <origin>  (14) 
adgpu

>  <m_score__min__energy>  (14) 
-10.67

>  <m_primary>  (14) 
energy

$$$$
14:0
     RDKit          3D

 54 56  0  0  0  0  0  0  0  0999 V2000
   -3.9910   20.1050  -31.9030 C   0  0  0  0  0  0  0  0  0  0  0  0
   -4.2370   21.6010  -32.0860 C   0  0  0  0  0  0  0  0  0  0  0  0
   -3.0340   22.4630  -31.6680 C   0  0  0  0  0  0  0  0  0  0  0  0
   -2.9600   22.6540  -30.1630 C   0  0  0  0  0  0  0  0  0  0  0  0
   -3.4100   23.8780  -29.6180 C   0  0  0  0  0  0  0  0  0  0  0  0
   -3.9200   24.8620  -30.4860 O   0  0  0  0  0  0  0  0  0  0  0  0
   -5.2730   25.3210  -30.5260 C   0  0  0  0  0  0  0  0  0  0  0  0
   -6.2080   24.1870  -30.8470 C   0  0  0  0  0  0  0  0  0  0  0  0
   -6.5060   23.8810  -32.1840 C   0  0  0  0  0  0  0  0  0  0  0  0
   -7.3680   22.8240  -32.4910 C   0  0  0  0  0  0  0  0  0  0  0  0
   -7.9550   22.0680  -31.4700 C   0  0  0  0  0  0  0  0  0  0  0  0
   -8.8120   20.9750  -31.8240 N   0  0  0  0  0  0  0  0  0  0  0  0
   -8.5030   19.5810  -31.6870 C   0  0  0  0  0  0  0  0  0  0  0  0
   -9.1140   18.8810  -30.8330 O   0  0  0  0  0  0  0  0  0  0  0  0
   -7.5030   18.9500  -32.5810 C   0  0  0  0  0  0  0  0  0  0  0  0
   -6.8650   19.7020  -33.5870 C   0  0  0  0  0  0  0  0  0  0  0  0
   -5.9120   19.1060  -34.4200 C   0  0  0  0  0  0  0  0  0  0  0  0
   -5.5890   17.7580  -34.2640 C   0  0  0  0  0  0  0  0  0  0  0  0
   -6.2170   17.0000  -33.2730 C   0  0  0  0  0  0  0  0  0  0  0  0
   -7.1670   17.5910  -32.4330 C   0  0  0  0  0  0  0  0  0  0  0  0
   -7.6360   22.3550  -30.1310 C   0  0  0  0  0  0  0  0  0  0  0  0
   -6.7650   23.4070  -29.8230 C   0  0  0  0  0  0  0  0  0  0  0  0
   -3.3360   24.0900  -28.2310 C   0  0  0  0  0  0  0  0  0  0  0  0
   -2.8320   23.1050  -27.3890 C   0  0  0  0  0  0  0  0  0  0  0  0
   -2.4100   21.8720  -27.9000 C   0  0  0  0  0  0  0  0  0  0  0  0
   -1.9290   20.8410  -26.9450 C   0  0  0  0  0  0  0  0  0  0  0  0
   -1.2360   21.2030  -25.6670 C   0  0  0  0  0  0  0  0  0  0  0  0
   -2.0910   19.6220  -27.2180 O   0  0  0  0  0  0  0  0  0  0  0  0
   -2.4620   21.6420  -29.2940 C   0  0  0  0  0  0  0  0  0  0  0  0
   -1.9970   20.4160  -29.7820 O   0  0  0  0  0  0  0  0  0  0  0  0
   -3.9521   19.8684  -30.8294 H   0  0  0  0  0  0  0  0  0  0  0  0
   -4.8081   19.5387  -32.3739 H   0  0  0  0  0  0  0  0  0  0  0  0
   -3.0356   19.8302  -32.3739 H   0  0  0  0  0  0  0  0  0  0  0  0
   -4.4543   21.7933  -33.1470 H   0  0  0  0  0  0  0  0  0  0  0  0
   -5.0813   21.8775  -31.4374 H   0  0  0  0  0  0  0  0  0  0  0  0
   -2.1107   21.9715  -32.0085 H   0  0  0  0  0  0  0  0  0  0  0  0
   -3.1530   23.4548  -32.1287 H   0  0  0  0  0  0  0  0  0  0  0  0
   -5.5404   25.7436  -29.5463 H   0  0  0  0  0  0  0  0  0  0  0  0
   -5.3641   26.0880  -31.3092 H   0  0  0  0  0  0  0  0  0  0  0  0
   -6.0591   24.4758  -32.9943 H   0  0  0  0  0  0  0  0  0  0  0  0
   -7.5863   22.5849  -33.5423 H   0  0  0  0  0  0  0  0  0  0  0  0
   -7.1177   20.7645  -33.7184 H   0  0  0  0  0  0  0  0  0  0  0  0
   -5.4160   19.7021  -35.2002 H   0  0  0  0  0  0  0  0  0  0  0  0
   -4.8400   17.2921  -34.9212 H   0  0  0  0  0  0  0  0  0  0  0  0
   -5.9641   15.9362  -33.1528 H   0  0  0  0  0  0  0  0  0  0  0  0
   -7.6547   16.9897  -31.6516 H   0  0  0  0  0  0  0  0  0  0  0  0
   -8.0725   21.7506  -29.3222 H   0  0  0  0  0  0  0  0  0  0  0  0
   -6.5164   23.6227  -28.7734 H   0  0  0  0  0  0  0  0  0  0  0  0
   -3.6803   25.0448  -27.8070 H   0  0  0  0  0  0  0  0  0  0  0  0
   -2.7640   23.2970  -26.3080 H   0  0  0  0  0  0  0  0  0  0  0  0
   -1.8505   20.8820  -24.8130 H   0  0  0  0  0  0  0  0  0  0  0  0
   -0.2585   20.7003  -25.6248 H   0  0  0  0  0  0  0  0  0  0  0  0
   -1.0902   22.2925  -25.6248 H   0  0  0  0  0  0  0  0  0  0  0  0
   -1.9790   19.5560  -29.2570 H   0  0  0  0  0  0  0  0  0  0  0  0
  1  2  1  0
  2  3  1  0
  3  4  1  0
  4  5  2  0
  5  6  1  0
  6  7  1  0
  7  8  1  0
  8  9  2  0
  9 10  1  0
 10 11  2  0
 11 12  1  0
 12 13  1  0
 13 14  2  0
 13 15  1  0
 15 16  2  0
 16 17  1  0
 17 18  2  0
 18 19  1  0
 19 20  2  0
 11 21  1  0
 21 22  2  0
  5 23  1  0
 23 24  2  0
 24 25  1  0
 25 26  1  0
 26 27  1  0
 26 28  2  0
 25 29  2  0
 29 30  1  0
 29  4  1  0
 22  8  1  0
 20 15  1  0
  1 31  1  0
  1 32  1  0
  1 33  1  0
  2 34  1  0
  2 35  1  0
  3 36  1  0
  3 37  1  0
  7 38  1  0
  7 39  1  0
  9 40  1  0
 10 41  1  0
 16 42  1  0
 17 43  1  0
 18 44  1  0
 19 45  1  0
 20 46  1  0
 21 47  1  0
 22 48  1  0
 23 49  1  0
 24 50  1  0
 27 51  1  0
 27 52  1  0
 27 53  1  0
 30 54  1  0
M  CHG  1  12  -1
M  END
>  <UniqueID>  (15) 
15

>  <SMILES>  (15) 
CCCc1c(OCc2ccc([N-]C(=O)c3ccccc3)cc2)ccc(C(C)=O)c1O

>  <Energy>  (15) 
62.92756913995862

>  <Genealogy>  (15) 
CCCc1c(OCc2ccc([N-]C(=O)c3ccccc3)cc2)ccc(C(C)=O)c1O (protonated)
CCCc1c(OCc2ccc([N-]C(=O)c3ccccc3)cc2)ccc(C(C)=O)c1O (3D coordinates assigned)
CCCc1c(OCc2ccc([N-]C(=O)c3ccccc3)cc2)ccc(C(C)=O)c1O (optimized conformer: 62.92756913995862 kcal/mol)

>  <smiles>  (15) 
CCCc1c(OCc2ccc(NC(=O)c3ccccc3)cc2)ccc(C(C)=O)c1O

>  <score_type>  (15) 
oracle

>  <origin>  (15) 
adgpu

>  <m_score__min__energy>  (15) 
-10.619999999999999

>  <m_primary>  (15) 
energy

$$$$
15:0
     RDKit          3D

 38 40  0  0  0  0  0  0  0  0999 V2000
   -9.1890   18.9310  -33.5410 H   0  0  0  0  0  0  0  0  0  0  0  0
   -8.7080   19.7290  -33.0690 N   0  0  0  0  0  0  0  0  0  0  0  0
   -7.4160   19.8070  -32.9780 C   0  0  0  0  0  0  0  0  0  0  0  0
   -6.8190   20.9080  -32.3340 C   0  0  0  0  0  0  0  0  0  0  0  0
   -7.6460   21.9760  -31.8100 C   0  0  0  0  0  0  0  0  0  0  0  0
   -8.3070   22.8290  -31.3920 N   0  0  0  0  0  0  0  0  0  0  0  0
   -5.4120   20.9750  -32.2500 C   0  0  0  0  0  0  0  0  0  0  0  0
   -4.7140   22.0960  -31.5720 C   0  0  0  0  0  0  0  0  0  0  0  0
   -3.4200   21.9240  -31.0590 C   0  0  0  0  0  0  0  0  0  0  0  0
   -2.9211   20.9479  -31.1504 H   0  0  0  0  0  0  0  0  0  0  0  0
   -2.7610   22.9840  -30.4330 C   0  0  0  0  0  0  0  0  0  0  0  0
   -0.9990   22.7130  -29.7370 Br  0  0  0  0  0  0  0  0  0  0  0  0
   -3.3880   24.2330  -30.3230 C   0  0  0  0  0  0  0  0  0  0  0  0
   -2.7300   25.2890  -29.6990 O   0  0  0  0  0  0  0  0  0  0  0  0
   -4.6750   24.4260  -30.8420 C   0  0  0  0  0  0  0  0  0  0  0  0
   -5.2650   25.6940  -30.7150 O   0  0  0  0  0  0  0  0  0  0  0  0
   -6.1820   26.0570  -29.6880 C   0  0  0  0  0  0  0  0  0  0  0  0
   -5.7226   25.8752  -28.7052 H   0  0  0  0  0  0  0  0  0  0  0  0
   -6.4353   27.1232  -29.7827 H   0  0  0  0  0  0  0  0  0  0  0  0
   -7.0965   25.4530  -29.7827 H   0  0  0  0  0  0  0  0  0  0  0  0
   -5.3340   23.3520  -31.4700 C   0  0  0  0  0  0  0  0  0  0  0  0
   -6.3426   23.4978  -31.8841 H   0  0  0  0  0  0  0  0  0  0  0  0
   -4.6460   19.9530  -32.8250 C   0  0  0  0  0  0  0  0  0  0  0  0
   -3.5480   19.9995  -32.7777 H   0  0  0  0  0  0  0  0  0  0  0  0
   -5.2710   18.8720  -33.4600 C   0  0  0  0  0  0  0  0  0  0  0  0
   -4.4590   17.7820  -34.0590 C   0  0  0  0  0  0  0  0  0  0  0  0
   -5.0070   16.5000  -34.2500 C   0  0  0  0  0  0  0  0  0  0  0  0
   -6.0474   16.3001  -33.9540 H   0  0  0  0  0  0  0  0  0  0  0  0
   -4.2360   15.4790  -34.8140 C   0  0  0  0  0  0  0  0  0  0  0  0
   -4.6715   14.4795  -34.9602 H   0  0  0  0  0  0  0  0  0  0  0  0
   -2.9150   15.7250  -35.1920 C   0  0  0  0  0  0  0  0  0  0  0  0
   -2.3109   14.9195  -35.6351 H   0  0  0  0  0  0  0  0  0  0  0  0
   -2.3600   16.9930  -35.0080 C   0  0  0  0  0  0  0  0  0  0  0  0
   -1.3191   17.1861  -35.3067 H   0  0  0  0  0  0  0  0  0  0  0  0
   -3.1270   18.0180  -34.4440 C   0  0  0  0  0  0  0  0  0  0  0  0
   -2.6854   19.0152  -34.3007 H   0  0  0  0  0  0  0  0  0  0  0  0
   -6.6340   18.8240  -33.5170 N   0  0  0  0  0  0  0  0  0  0  0  0
   -7.0960   18.0270  -34.0100 H   0  0  0  0  0  0  0  0  0  0  0  0
  1  2  1  0
  2  3  2  0
  3  4  1  0
  4  5  1  0
  5  6  3  0
  4  7  2  0
  7  8  1  0
  8  9  2  0
  9 10  1  0
  9 11  1  0
 11 12  1  0
 11 13  2  0
 13 14  1  0
 13 15  1  0
 15 16  1  0
 16 17  1  0
 17 18  1  0
 17 19  1  0
 17 20  1  0
 15 21  2  0
 21 22  1  0
  7 23  1  0
 23 24  1  0
 23 25  2  0
 25 26  1  0
 26 27  2  0
 27 28  1  0
 27 29  1  0
 29 30  1  0
 29 31  2  0
 31 32  1  0
 31 33  1  0
 33 34  1  0
 33 35  2  0
 35 36  1  0
 25 37  1  0
 37 38  1  0
 37  3  1  0
 21  8  1  0
 35 26  1  0
M  CHG  1  14  -1
M  END
>  <UniqueID>  (16) 
16

>  <SMILES>  (16) 
[H]/N=c1\[nH]c(-c2ccccc2)cc(-c2cc(Br)c([O-])c(OC)c2)c1C#N

>  <Energy>  (16) 
54.39709805969956

>  <Genealogy>  (16) 
COc1cc(-c2cc(-c3ccccc3)[nH]c(=N)c2C#N)cc(Br)c1[O-] (protonated)
[H]/N=c1\[nH]c(-c2ccccc2)cc(-c2cc(Br)c([O-])c(OC)c2)c1C#N (cis-trans isomerization)
[H]/N=c1\[nH]c(-c2ccccc2)cc(-c2cc(Br)c([O-])c(OC)c2)c1C#N (3D coordinates assigned)
[H]/N=c1\[nH]c(-c2ccccc2)cc(-c2cc(Br)c([O-])c(OC)c2)c1C#N (optimized conformer: 54.39709805969956 kcal/mol)

>  <smiles>  (16) 
COc1cc(-c2cc(-c3ccccc3)[nH]c(=N)c2C#N)cc(Br)c1O

>  <score_type>  (16) 
oracle

>  <origin>  (16) 
adgpu

>  <m_score__min__energy>  (16) 
-11.99

>  <m_primary>  (16) 
energy

$$$$
16:0
     RDKit          3D

 41 43  0  0  0  0  0  0  0  0999 V2000
   -6.5500   16.1890  -33.7970 C   0  0  0  0  0  0  0  0  0  0  0  0
   -6.7550   17.6290  -33.4230 C   0  0  0  0  0  0  0  0  0  0  0  0
   -6.1120   18.6450  -34.1460 C   0  0  0  0  0  0  0  0  0  0  0  0
   -6.3320   19.9870  -33.8210 C   0  0  0  0  0  0  0  0  0  0  0  0
   -7.2180   20.3310  -32.7850 C   0  0  0  0  0  0  0  0  0  0  0  0
   -7.4510   21.6640  -32.4180 O   0  0  0  0  0  0  0  0  0  0  0  0
   -6.5240   22.5080  -31.7870 C   0  0  0  0  0  0  0  0  0  0  0  0
   -6.9260   23.6400  -31.0570 C   0  0  0  0  0  0  0  0  0  0  0  0
   -5.9740   24.4470  -30.4280 C   0  0  0  0  0  0  0  0  0  0  0  0
   -4.6110   24.1230  -30.4910 C   0  0  0  0  0  0  0  0  0  0  0  0
   -3.6520   24.9820  -29.8540 N   0  0  0  0  0  0  0  0  0  0  0  0
   -2.3890   24.5400  -29.3360 C   0  0  0  0  0  0  0  0  0  0  0  0
   -2.1570   23.3090  -29.1840 O   0  0  0  0  0  0  0  0  0  0  0  0
   -1.4320   25.5130  -28.9060 N   0  0  0  0  0  0  0  0  0  0  0  0
   -1.2880   26.0090  -27.5670 C   0  0  0  0  0  0  0  0  0  0  0  0
   -0.2840   26.9500  -27.3040 C   0  0  0  0  0  0  0  0  0  0  0  0
   -0.1030   27.4500  -26.0110 C   0  0  0  0  0  0  0  0  0  0  0  0
   -0.9120   26.9970  -24.9660 C   0  0  0  0  0  0  0  0  0  0  0  0
   -0.7330   27.4800  -23.7110 F   0  0  0  0  0  0  0  0  0  0  0  0
   -1.8950   26.0350  -25.2110 C   0  0  0  0  0  0  0  0  0  0  0  0
   -2.0820   25.5320  -26.5040 C   0  0  0  0  0  0  0  0  0  0  0  0
   -2.9920   24.5440  -26.6970 F   0  0  0  0  0  0  0  0  0  0  0  0
   -4.2120   22.9890  -31.2230 C   0  0  0  0  0  0  0  0  0  0  0  0
   -5.1650   22.1840  -31.8520 C   0  0  0  0  0  0  0  0  0  0  0  0
   -7.8540   19.3140  -32.0630 C   0  0  0  0  0  0  0  0  0  0  0  0
   -7.6360   17.9710  -32.3870 C   0  0  0  0  0  0  0  0  0  0  0  0
   -6.4636   15.5817  -32.8839 H   0  0  0  0  0  0  0  0  0  0  0  0
   -7.4073   15.8387  -34.3905 H   0  0  0  0  0  0  0  0  0  0  0  0
   -5.6290   16.0919  -34.3905 H   0  0  0  0  0  0  0  0  0  0  0  0
   -5.4326   18.3850  -34.9711 H   0  0  0  0  0  0  0  0  0  0  0  0
   -5.8091   20.7778  -34.3788 H   0  0  0  0  0  0  0  0  0  0  0  0
   -7.9941   23.8917  -30.9805 H   0  0  0  0  0  0  0  0  0  0  0  0
   -6.2965   25.3439  -29.8789 H   0  0  0  0  0  0  0  0  0  0  0  0
   -3.9150   25.9800  -29.6880 H   0  0  0  0  0  0  0  0  0  0  0  0
    0.3662   27.2978  -28.1202 H   0  0  0  0  0  0  0  0  0  0  0  0
    0.6771   28.2007  -25.8163 H   0  0  0  0  0  0  0  0  0  0  0  0
   -2.5242   25.6716  -24.3851 H   0  0  0  0  0  0  0  0  0  0  0  0
   -3.1445   22.7353  -31.3002 H   0  0  0  0  0  0  0  0  0  0  0  0
   -4.8438   21.2878  -32.4030 H   0  0  0  0  0  0  0  0  0  0  0  0
   -8.5301   19.5731  -31.2349 H   0  0  0  0  0  0  0  0  0  0  0  0
   -8.1573   17.1804  -31.8273 H   0  0  0  0  0  0  0  0  0  0  0  0
  1  2  1  0
  2  3  2  0
  3  4  1  0
  4  5  2  0
  5  6  1  0
  6  7  1  0
  7  8  2  0
  8  9  1  0
  9 10  2  0
 10 11  1  0
 11 12  1  0
 12 13  2  0
 12 14  1  0
 14 15  1  0
 15 16  2  0
 16 17  1  0
 17 18  2  0
 18 19  1  0
 18 20  1  0
 20 21  2  0
 21 22  1  0
 10 23  1  0
 23 24  2  0
  5 25  1  0
 25 26  2  0
 26  2  1  0
 24  7  1  0
 21 15  1  0
  1 27  1  0
  1 28  1  0
  1 29  1  0
  3 30  1  0
  4 31  1  0
  8 32  1  0
  9 33  1  0
 11 34  1  0
 16 35  1  0
 17 36  1  0
 20 37  1  0
 23 38  1  0
 24 39  1  0
 25 40  1  0
 26 41  1  0
M  CHG  1  14  -1
M  END
>  <UniqueID>  (17) 
17

>  <SMILES>  (17) 
Cc1ccc(Oc2ccc(NC(=O)[N-]c3ccc(F)cc3F)cc2)cc1

>  <Energy>  (17) 
57.62732114379163

>  <Genealogy>  (17) 
Cc1ccc(Oc2ccc(NC(=O)[N-]c3ccc(F)cc3F)cc2)cc1 (protonated)
Cc1ccc(Oc2ccc(NC(=O)[N-]c3ccc(F)cc3F)cc2)cc1 (3D coordinates assigned)
Cc1ccc(Oc2ccc(NC(=O)[N-]c3ccc(F)cc3F)cc2)cc1 (optimized conformer: 57.62732114379163 kcal/mol)

>  <smiles>  (17) 
Cc1ccc(Oc2ccc(NC(=O)Nc3ccc(F)cc3F)cc2)cc1

>  <score_type>  (17) 
oracle

>  <origin>  (17) 
adgpu

>  <m_score__min__energy>  (17) 
-10.210000000000001

>  <m_primary>  (17) 
energy

$$$$
17:0
     RDKit          3D

 32 34  0  0  0  0  0  0  0  0999 V2000
   -2.4797   23.2037  -26.6392 H   0  0  0  0  0  0  0  0  0  0  0  0
   -2.7960   23.5910  -27.6190 C   0  0  0  0  0  0  0  0  0  0  0  0
   -4.1050   23.0390  -28.5230 S   0  0  0  0  0  0  0  0  0  0  0  0
   -3.8310   24.1270  -29.7840 C   0  0  0  0  0  0  0  0  0  0  0  0
   -4.5590   24.2700  -30.8520 N   0  0  0  0  0  0  0  0  0  0  0  0
   -5.6800   23.4590  -31.2370 C   0  0  0  0  0  0  0  0  0  0  0  0
   -6.9940   23.7920  -30.8660 C   0  0  0  0  0  0  0  0  0  0  0  0
   -7.1849   24.7123  -30.2944 H   0  0  0  0  0  0  0  0  0  0  0  0
   -8.0600   22.9590  -31.2200 C   0  0  0  0  0  0  0  0  0  0  0  0
   -9.0883   23.2400  -30.9487 H   0  0  0  0  0  0  0  0  0  0  0  0
   -7.8230   21.7660  -31.9200 C   0  0  0  0  0  0  0  0  0  0  0  0
   -8.9690   20.8910  -32.3330 C   0  0  0  0  0  0  0  0  0  0  0  0
   -9.4761   20.5038  -31.4370 H   0  0  0  0  0  0  0  0  0  0  0  0
   -9.6807   21.4776  -32.9325 H   0  0  0  0  0  0  0  0  0  0  0  0
   -8.5906   20.0499  -32.9325 H   0  0  0  0  0  0  0  0  0  0  0  0
   -6.5090   21.4260  -32.2760 C   0  0  0  0  0  0  0  0  0  0  0  0
   -6.3160   20.5001  -32.8376 H   0  0  0  0  0  0  0  0  0  0  0  0
   -5.4440   22.2590  -31.9200 C   0  0  0  0  0  0  0  0  0  0  0  0
   -4.4144   21.9702  -32.1779 H   0  0  0  0  0  0  0  0  0  0  0  0
   -2.7680   24.9170  -29.5230 N   0  0  0  0  0  0  0  0  0  0  0  0
   -2.4420   25.6680  -30.1710 H   0  0  0  0  0  0  0  0  0  0  0  0
   -2.1820   24.6240  -28.3270 C   0  0  0  0  0  0  0  0  0  0  0  0
   -1.0010   25.3450  -27.8180 C   0  0  0  0  0  0  0  0  0  0  0  0
    0.2720   24.9800  -28.0780 N   0  0  0  0  0  0  0  0  0  0  0  0
    1.0440   25.8350  -27.4720 O   0  0  0  0  0  0  0  0  0  0  0  0
    0.3360   26.7380  -26.8370 C   0  0  0  0  0  0  0  0  0  0  0  0
    0.9120   27.8500  -26.0270 C   0  0  0  0  0  0  0  0  0  0  0  0
    0.7945   27.6233  -24.9571 H   0  0  0  0  0  0  0  0  0  0  0  0
    1.9806   27.9603  -26.2633 H   0  0  0  0  0  0  0  0  0  0  0  0
    0.3856   28.7865  -26.2633 H   0  0  0  0  0  0  0  0  0  0  0  0
   -1.0030   26.4730  -27.0190 C   0  0  0  0  0  0  0  0  0  0  0  0
   -1.8673   27.0265  -26.6233 H   0  0  0  0  0  0  0  0  0  0  0  0
  1  2  1  0
  2  3  1  0
  3  4  1  0
  4  5  2  0
  5  6  1  0
  6  7  2  0
  7  8  1  0
  7  9  1  0
  9 10  1  0
  9 11  2  0
 11 12  1  0
 12 13  1  0
 12 14  1  0
 12 15  1  0
 11 16  1  0
 16 17  1  0
 16 18  2  0
 18 19  1  0
  4 20  1  0
 20 21  1  0
 20 22  1  0
 22 23  1  0
 23 24  2  0
 24 25  1  0
 25 26  1  0
 26 27  1  0
 27 28  1  0
 27 29  1  0
 27 30  1  0
 26 31  2  0
 31 32  1  0
 22  2  2  0
 31 23  1  0
 18  6  1  0
M  END
>  <UniqueID>  (18) 
18

>  <SMILES>  (18) 
Cc1ccc(/N=c2/[nH]c(-c3cc(C)on3)cs2)cc1

>  <Energy>  (18) 
99.22606671774626

>  <Genealogy>  (18) 
Cc1ccc(/N=c2/[nH]c(-c3cc(C)on3)cs2)cc1 (cis-trans isomerization)
Cc1ccc(/N=c2/[nH]c(-c3cc(C)on3)cs2)cc1 (3D coordinates assigned)
Cc1ccc(/N=c2/[nH]c(-c3cc(C)on3)cs2)cc1 (optimized conformer: 99.22606671774626 kcal/mol)

>  <smiles>  (18) 
Cc1ccc(N=c2[nH]c(-c3cc(C)on3)cs2)cc1

>  <score_type>  (18) 
oracle

>  <origin>  (18) 
adgpu

>  <m_score__min__energy>  (18) 
-8.3599999999999994

>  <m_primary>  (18) 
energy

$$$$
18:0
     RDKit          3D

 45 48  0  0  0  0  0  0  0  0999 V2000
   -1.2380   25.5120  -29.2670 O   0  0  0  0  0  0  0  0  0  0  0  0
   -2.4040   24.5750  -29.1380 S   0  0  0  0  0  0  0  0  0  0  0  0
   -3.0640   24.7950  -27.8050 O   0  0  0  0  0  0  0  0  0  0  0  0
   -3.5540   24.9170  -30.3930 N   0  0  0  0  0  0  0  0  0  0  0  0
   -4.7580   24.1750  -30.6420 C   0  0  0  0  0  0  0  0  0  0  0  0
   -5.9580   24.8720  -30.8230 C   0  0  0  0  0  0  0  0  0  0  0  0
   -7.1400   24.1830  -31.1110 C   0  0  0  0  0  0  0  0  0  0  0  0
   -7.1270   22.7910  -31.2370 C   0  0  0  0  0  0  0  0  0  0  0  0
   -5.9390   22.0760  -31.0600 C   0  0  0  0  0  0  0  0  0  0  0  0
   -5.9490   20.6860  -31.2620 O   0  0  0  0  0  0  0  0  0  0  0  0
   -5.2200   20.0350  -32.2640 C   0  0  0  0  0  0  0  0  0  0  0  0
   -5.8040   19.0190  -33.0330 C   0  0  0  0  0  0  0  0  0  0  0  0
   -5.0480   18.3490  -33.9940 C   0  0  0  0  0  0  0  0  0  0  0  0
   -3.7090   18.6910  -34.2000 C   0  0  0  0  0  0  0  0  0  0  0  0
   -3.1120   19.7220  -33.4500 C   0  0  0  0  0  0  0  0  0  0  0  0
   -1.6840   20.0750  -33.6510 C   0  0  0  0  0  0  0  0  0  0  0  0
   -0.5980   19.2750  -33.3330 C   0  0  0  0  0  0  0  0  0  0  0  0
    0.5300   19.9970  -33.6670 C   0  0  0  0  0  0  0  0  0  0  0  0
    0.0910   21.2010  -34.1760 C   0  0  0  0  0  0  0  0  0  0  0  0
   -1.2520   21.2460  -34.1640 N   0  0  0  0  0  0  0  0  0  0  0  0
   -3.8870   20.3990  -32.4900 C   0  0  0  0  0  0  0  0  0  0  0  0
   -4.7600   22.7730  -30.7380 C   0  0  0  0  0  0  0  0  0  0  0  0
   -1.8170   22.9160  -29.2690 C   0  0  0  0  0  0  0  0  0  0  0  0
   -1.1260   22.4950  -30.4150 C   0  0  0  0  0  0  0  0  0  0  0  0
   -0.5930   21.2040  -30.4780 C   0  0  0  0  0  0  0  0  0  0  0  0
   -0.7480   20.3270  -29.3990 C   0  0  0  0  0  0  0  0  0  0  0  0
   -0.0660   18.7140  -29.4730 Cl  0  0  0  0  0  0  0  0  0  0  0  0
   -1.4450   20.7410  -28.2600 C   0  0  0  0  0  0  0  0  0  0  0  0
   -1.9790   22.0320  -28.1930 C   0  0  0  0  0  0  0  0  0  0  0  0
   -5.9713   25.9686  -30.7382 H   0  0  0  0  0  0  0  0  0  0  0  0
   -8.0816   24.7372  -31.2386 H   0  0  0  0  0  0  0  0  0  0  0  0
   -8.0572   22.2550  -31.4769 H   0  0  0  0  0  0  0  0  0  0  0  0
   -6.8593   18.7501  -32.8782 H   0  0  0  0  0  0  0  0  0  0  0  0
   -5.5074   17.5483  -34.5922 H   0  0  0  0  0  0  0  0  0  0  0  0
   -3.1171   18.1508  -34.9536 H   0  0  0  0  0  0  0  0  0  0  0  0
   -0.6288   18.2643  -32.9000 H   0  0  0  0  0  0  0  0  0  0  0  0
    1.5752   19.6748  -33.5500 H   0  0  0  0  0  0  0  0  0  0  0  0
    0.7451   22.0074  -34.5391 H   0  0  0  0  0  0  0  0  0  0  0  0
   -1.8340   22.0410  -34.5090 H   0  0  0  0  0  0  0  0  0  0  0  0
   -3.4414   21.2218  -31.9118 H   0  0  0  0  0  0  0  0  0  0  0  0
   -3.8294   22.2143  -30.5594 H   0  0  0  0  0  0  0  0  0  0  0  0
   -1.0033   23.1818  -31.2655 H   0  0  0  0  0  0  0  0  0  0  0  0
   -0.0508   20.8772  -31.3776 H   0  0  0  0  0  0  0  0  0  0  0  0
   -1.5738   20.0496  -27.4142 H   0  0  0  0  0  0  0  0  0  0  0  0
   -2.5267   22.3541  -27.2951 H   0  0  0  0  0  0  0  0  0  0  0  0
  1  2  2  0
  2  3  2  0
  2  4  1  0
  4  5  1  0
  5  6  2  0
  6  7  1  0
  7  8  2  0
  8  9  1  0
  9 10  1  0
 10 11  1  0
 11 12  2  0
 12 13  1  0
 13 14  2  0
 14 15  1  0
 15 16  1  0
 16 17  2  0
 17 18  1  0
 18 19  2  0
 19 20  1  0
 15 21  2  0
  9 22  2  0
  2 23  1  0
 23 24  2  0
 24 25  1  0
 25 26  2  0
 26 27  1  0
 26 28  1  0
 28 29  2  0
 22  5  1  0
 29 23  1  0
 21 11  1  0
 20 16  1  0
  6 30  1  0
  7 31  1  0
  8 32  1  0
 12 33  1  0
 13 34  1  0
 14 35  1  0
 17 36  1  0
 18 37  1  0
 19 38  1  0
 20 39  1  0
 21 40  1  0
 22 41  1  0
 24 42  1  0
 25 43  1  0
 28 44  1  0
 29 45  1  0
M  CHG  1   4  -1
M  END
>  <UniqueID>  (19) 
19

>  <SMILES>  (19) 
O=S(=O)([N-]c1cccc(Oc2cccc(-c3ccc[nH]3)c2)c1)c1ccc(Cl)cc1

>  <Energy>  (19) 
83.61809429700587

>  <Genealogy>  (19) 
O=S(=O)([N-]c1cccc(Oc2cccc(-c3ccc[nH]3)c2)c1)c1ccc(Cl)cc1 (protonated)
O=S(=O)([N-]c1cccc(Oc2cccc(-c3ccc[nH]3)c2)c1)c1ccc(Cl)cc1 (3D coordinates assigned)
O=S(=O)([N-]c1cccc(Oc2cccc(-c3ccc[nH]3)c2)c1)c1ccc(Cl)cc1 (optimized conformer: 83.61809429700587 kcal/mol)

>  <smiles>  (19) 
O=S(=O)(Nc1cccc(Oc2cccc(-c3ccc[nH]3)c2)c1)c1ccc(Cl)cc1

>  <score_type>  (19) 
oracle

>  <origin>  (19) 
adgpu

>  <m_score__min__energy>  (19) 
-11.710000000000001

>  <m_primary>  (19) 
energy

$$$$
19:0
     RDKit          3D

 41 44  0  0  0  0  0  0  0  0999 V2000
   -6.1180   17.8330  -31.4350 O   0  0  0  0  0  0  0  0  0  0  0  0
   -6.6320   18.4480  -32.7060 S   0  0  0  0  0  0  0  0  0  0  0  0
   -7.4370   17.4270  -33.4580 O   0  0  0  0  0  0  0  0  0  0  0  0
   -5.2870   18.9470  -33.6790 N   0  0  0  0  0  0  0  0  0  0  0  0
   -4.1320   19.6500  -33.1990 C   0  0  0  0  0  0  0  0  0  0  0  0
   -4.0830   21.0550  -33.1420 C   0  0  0  0  0  0  0  0  0  0  0  0
   -2.9440   21.7030  -32.6570 C   0  0  0  0  0  0  0  0  0  0  0  0
   -1.8340   20.9560  -32.2220 C   0  0  0  0  0  0  0  0  0  0  0  0
   -0.6710   21.5590  -31.7200 O   0  0  0  0  0  0  0  0  0  0  0  0
   -0.6260   22.3930  -30.5650 C   0  0  0  0  0  0  0  0  0  0  0  0
   -1.4620   21.7800  -29.4670 C   0  0  0  0  0  0  0  0  0  0  0  0
   -0.9140   20.7080  -28.7370 C   0  0  0  0  0  0  0  0  0  0  0  0
   -1.6520   20.0710  -27.7400 C   0  0  0  0  0  0  0  0  0  0  0  0
   -2.9480   20.4900  -27.4560 C   0  0  0  0  0  0  0  0  0  0  0  0
   -3.5120   21.5490  -28.1670 C   0  0  0  0  0  0  0  0  0  0  0  0
   -2.7870   22.2170  -29.1730 C   0  0  0  0  0  0  0  0  0  0  0  0
   -3.4550   23.3420  -29.8800 C   0  0  0  0  0  0  0  0  0  0  0  0
   -3.0530   24.6260  -29.8000 N   0  0  0  0  0  0  0  0  0  0  0  0
   -3.8810   25.2950  -30.5860 N   0  0  0  0  0  0  0  0  0  0  0  0
   -4.7510   24.4600  -31.1300 N   0  0  0  0  0  0  0  0  0  0  0  0
   -4.5090   23.2290  -30.7110 N   0  0  0  0  0  0  0  0  0  0  0  0
   -1.8840   19.5600  -32.2850 C   0  0  0  0  0  0  0  0  0  0  0  0
   -3.0220   18.9110  -32.7700 C   0  0  0  0  0  0  0  0  0  0  0  0
   -3.0490   17.5550  -32.8160 F   0  0  0  0  0  0  0  0  0  0  0  0
   -7.6280   19.8340  -32.3060 C   0  0  0  0  0  0  0  0  0  0  0  0
   -9.0130   19.8760  -32.3520 C   0  0  0  0  0  0  0  0  0  0  0  0
   -9.5340   21.1140  -31.9590 C   0  0  0  0  0  0  0  0  0  0  0  0
   -8.5610   22.0400  -31.6030 C   0  0  0  0  0  0  0  0  0  0  0  0
   -7.0500   21.3200  -31.7780 S   0  0  0  0  0  0  0  0  0  0  0  0
   -4.9461   21.6466  -33.4811 H   0  0  0  0  0  0  0  0  0  0  0  0
   -2.9151   22.8018  -32.6151 H   0  0  0  0  0  0  0  0  0  0  0  0
    0.4150   22.4891  -30.2227 H   0  0  0  0  0  0  0  0  0  0  0  0
   -1.0234   23.3875  -30.8159 H   0  0  0  0  0  0  0  0  0  0  0  0
    0.1092   20.3687  -28.9559 H   0  0  0  0  0  0  0  0  0  0  0  0
   -1.2090   19.2361  -27.1773 H   0  0  0  0  0  0  0  0  0  0  0  0
   -3.5285   19.9854  -26.6697 H   0  0  0  0  0  0  0  0  0  0  0  0
   -4.5397   21.8677  -27.9384 H   0  0  0  0  0  0  0  0  0  0  0  0
   -1.0198   18.9678  -31.9498 H   0  0  0  0  0  0  0  0  0  0  0  0
   -9.6368   19.0256  -32.6646 H   0  0  0  0  0  0  0  0  0  0  0  0
  -10.6116   21.3333  -31.9343 H   0  0  0  0  0  0  0  0  0  0  0  0
   -8.7470   23.0698  -31.2640 H   0  0  0  0  0  0  0  0  0  0  0  0
  1  2  2  0
  2  3  2  0
  2  4  1  0
  4  5  1  0
  5  6  2  0
  6  7  1  0
  7  8  2  0
  8  9  1  0
  9 10  1  0
 10 11  1  0
 11 12  2  0
 12 13  1  0
 13 14  2  0
 14 15  1  0
 15 16  2  0
 16 17  1  0
 17 18  1  0
 18 19  2  0
 19 20  1  0
 20 21  1  0
  8 22  1  0
 22 23  2  0
 23 24  1  0
  2 25  1  0
 25 26  2  0
 26 27  1  0
 27 28  2  0
 28 29  1  0
 23  5  1  0
 29 25  1  0
 16 11  1  0
 21 17  2  0
  6 30  1  0
  7 31  1  0
 10 32  1  0
 10 33  1  0
 12 34  1  0
 13 35  1  0
 14 36  1  0
 15 37  1  0
 22 38  1  0
 26 39  1  0
 27 40  1  0
 28 41  1  0
M  CHG  2   4  -1  20  -1
M  END
>  <UniqueID>  (20) 
20

>  <SMILES>  (20) 
O=S(=O)([N-]c1ccc(OCc2ccccc2-c2nn[n-]n2)cc1F)c1cccs1

>  <Energy>  (20) 
117.09837732111613

>  <Genealogy>  (20) 
O=S(=O)([N-]c1ccc(OCc2ccccc2-c2nn[n-]n2)cc1F)c1cccs1 (protonated)
O=S(=O)([N-]c1ccc(OCc2ccccc2-c2nn[n-]n2)cc1F)c1cccs1 (3D coordinates assigned)
O=S(=O)([N-]c1ccc(OCc2ccccc2-c2nn[n-]n2)cc1F)c1cccs1 (optimized conformer: 117.09837732111613 kcal/mol)

>  <smiles>  (20) 
O=S(=O)(Nc1ccc(OCc2ccccc2-c2nn[nH]n2)cc1F)c1cccs1

>  <score_type>  (20) 
oracle

>  <origin>  (20) 
adgpu

>  <m_score__min__energy>  (20) 
-11.289999999999999

>  <m_primary>  (20) 
energy

$$$$
20:0
     RDKit          3D

 50 53  0  0  0  0  0  0  0  0999 V2000
   -1.8822   22.7792  -31.0645 H   0  0  0  0  0  0  0  0  0  0  0  0
   -2.9810   22.7430  -31.1020 C   0  0  0  0  0  0  0  0  0  0  0  0
   -3.6210   21.6550  -31.7030 C   0  0  0  0  0  0  0  0  0  0  0  0
   -3.0240   20.8400  -32.1382 H   0  0  0  0  0  0  0  0  0  0  0  0
   -5.0220   21.5990  -31.7530 C   0  0  0  0  0  0  0  0  0  0  0  0
   -5.7080   20.4170  -32.3680 C   0  0  0  0  0  0  0  0  0  0  0  0
   -6.0895   19.7597  -31.5727 H   0  0  0  0  0  0  0  0  0  0  0  0
   -6.5458   20.7627  -32.9913 H   0  0  0  0  0  0  0  0  0  0  0  0
   -4.9922   19.8610  -32.9913 H   0  0  0  0  0  0  0  0  0  0  0  0
   -5.7750   22.6230  -31.1580 C   0  0  0  0  0  0  0  0  0  0  0  0
   -6.8737   22.5694  -31.1672 H   0  0  0  0  0  0  0  0  0  0  0  0
   -5.1370   23.7120  -30.5530 C   0  0  0  0  0  0  0  0  0  0  0  0
   -6.2120   25.0740  -29.7370 Br  0  0  0  0  0  0  0  0  0  0  0  0
   -3.7310   23.7860  -30.5480 C   0  0  0  0  0  0  0  0  0  0  0  0
   -3.0520   24.8970  -29.9470 N   0  0  0  0  0  0  0  0  0  0  0  0
   -2.2260   24.8770  -28.9330 C   0  0  0  0  0  0  0  0  0  0  0  0
   -1.6120   26.0450  -28.5980 N   0  0  0  0  0  0  0  0  0  0  0  0
   -0.7040   26.1220  -27.5920 C   0  0  0  0  0  0  0  0  0  0  0  0
   -0.0810   27.3370  -27.2830 C   0  0  0  0  0  0  0  0  0  0  0  0
   -0.3320   28.2459  -27.8495 H   0  0  0  0  0  0  0  0  0  0  0  0
    0.8630   27.3910  -26.2500 C   0  0  0  0  0  0  0  0  0  0  0  0
    1.3533   28.3445  -26.0040 H   0  0  0  0  0  0  0  0  0  0  0  0
    1.1840   26.2350  -25.5300 C   0  0  0  0  0  0  0  0  0  0  0  0
    1.9272   26.2823  -24.7205 H   0  0  0  0  0  0  0  0  0  0  0  0
    0.5630   25.0190  -25.8360 C   0  0  0  0  0  0  0  0  0  0  0  0
    0.8165   24.1114  -25.2685 H   0  0  0  0  0  0  0  0  0  0  0  0
   -0.3820   24.9620  -26.8670 C   0  0  0  0  0  0  0  0  0  0  0  0
   -1.0020   23.7970  -27.1720 N   0  0  0  0  0  0  0  0  0  0  0  0
   -1.9260   23.7110  -28.1710 C   0  0  0  0  0  0  0  0  0  0  0  0
   -2.5260   22.5820  -28.3980 N   0  0  0  0  0  0  0  0  0  0  0  0
   -2.1880   21.1120  -27.5450 S   0  0  0  0  0  0  0  0  0  0  0  0
   -3.4600   20.3290  -27.3800 O   0  0  0  0  0  0  0  0  0  0  0  0
   -1.6370   21.4300  -26.1840 O   0  0  0  0  0  0  0  0  0  0  0  0
   -1.0430   20.1630  -28.4860 C   0  0  0  0  0  0  0  0  0  0  0  0
   -0.7240   20.5220  -29.7990 C   0  0  0  0  0  0  0  0  0  0  0  0
   -1.1640   21.4277  -30.2419 H   0  0  0  0  0  0  0  0  0  0  0  0
    0.1510   19.7350  -30.5500 C   0  0  0  0  0  0  0  0  0  0  0  0
    0.3990   20.0274  -31.5810 H   0  0  0  0  0  0  0  0  0  0  0  0
    0.7180   18.5720  -30.0000 C   0  0  0  0  0  0  0  0  0  0  0  0
    1.6490   17.7370  -30.8390 C   0  0  0  0  0  0  0  0  0  0  0  0
    2.3058   17.1479  -30.1820 H   0  0  0  0  0  0  0  0  0  0  0  0
    1.0609   17.0580  -31.4739 H   0  0  0  0  0  0  0  0  0  0  0  0
    2.2603   18.3952  -31.4739 H   0  0  0  0  0  0  0  0  0  0  0  0
    0.3860   18.1980  -28.6750 C   0  0  0  0  0  0  0  0  0  0  0  0
    0.9540   16.9520  -28.0490 C   0  0  0  0  0  0  0  0  0  0  0  0
    0.9135   17.0409  -26.9533 H   0  0  0  0  0  0  0  0  0  0  0  0
    0.3645   16.0799  -28.3682 H   0  0  0  0  0  0  0  0  0  0  0  0
    1.9990   16.8249  -28.3682 H   0  0  0  0  0  0  0  0  0  0  0  0
   -0.4900   19.0050  -27.9290 C   0  0  0  0  0  0  0  0  0  0  0  0
   -0.7435   18.7231  -26.8964 H   0  0  0  0  0  0  0  0  0  0  0  0
  1  2  1  0
  2  3  2  0
  3  4  1  0
  3  5  1  0
  5  6  1  0
  6  7  1  0
  6  8  1  0
  6  9  1  0
  5 10  2  0
 10 11  1  0
 10 12  1  0
 12 13  1  0
 12 14  2  0
 14 15  1  0
 15 16  2  0
 16 17  1  0
 17 18  1  0
 18 19  2  0
 19 20  1  0
 19 21  1  0
 21 22  1  0
 21 23  2  0
 23 24  1  0
 23 25  1  0
 25 26  1  0
 25 27  2  0
 27 28  1  0
 28 29  1  0
 29 30  2  0
 30 31  1  0
 31 32  2  0
 31 33  2  0
 31 34  1  0
 34 35  2  0
 35 36  1  0
 35 37  1  0
 37 38  1  0
 37 39  2  0
 39 40  1  0
 40 41  1  0
 40 42  1  0
 40 43  1  0
 39 44  1  0
 44 45  1  0
 45 46  1  0
 45 47  1  0
 45 48  1  0
 44 49  2  0
 49 50  1  0
 14  2  1  0
 29 16  1  0
 49 34  1  0
 27 18  1  0
M  CHG  2  17  -1  28  -1
M  END
>  <UniqueID>  (21) 
21

>  <SMILES>  (21) 
Cc1ccc(/N=c2/[n-]c3ccccc3[n-]/c2=N\S(=O)(=O)c2ccc(C)c(C)c2)c(Br)c1

>  <Energy>  (21) 
72.37088202948385

>  <Genealogy>  (21) 
Cc1ccc(N=c2[n-]c3ccccc3[n-]c2=NS(=O)(=O)c2ccc(C)c(C)c2)c(Br)c1 (protonated)
Cc1ccc(/N=c2/[n-]c3ccccc3[n-]/c2=N\S(=O)(=O)c2ccc(C)c(C)c2)c(Br)c1 (cis-trans isomerization)
Cc1ccc(/N=c2/[n-]c3ccccc3[n-]/c2=N\S(=O)(=O)c2ccc(C)c(C)c2)c(Br)c1 (3D coordinates assigned)
Cc1ccc(/N=c2/[n-]c3ccccc3[n-]/c2=N\S(=O)(=O)c2ccc(C)c(C)c2)c(Br)c1 (optimized conformer: 72.37088202948385 kcal/mol)

>  <smiles>  (21) 
Cc1ccc(N=c2[nH]c3ccccc3[nH]c2=NS(=O)(=O)c2ccc(C)c(C)c2)c(Br)c1

>  <score_type>  (21) 
oracle

>  <origin>  (21) 
adgpu

>  <m_score__min__energy>  (21) 
-11.81

>  <m_primary>  (21) 
energy

$$$$
21:0
     RDKit          3D

 48 51  0  0  0  0  0  0  0  0999 V2000
   -7.6879   25.5431  -30.0484 H   0  0  0  0  0  0  0  0  0  0  0  0
   -6.8610   24.9120  -30.4060 C   0  0  0  0  0  0  0  0  0  0  0  0
   -5.2240   25.1440  -30.0770 S   0  0  0  0  0  0  0  0  0  0  0  0
   -4.7460   23.8000  -30.9610 C   0  0  0  0  0  0  0  0  0  0  0  0
   -3.5010   23.4570  -31.1220 N   0  0  0  0  0  0  0  0  0  0  0  0
   -3.0220   22.2870  -31.8010 C   0  0  0  0  0  0  0  0  0  0  0  0
   -3.6100   21.8450  -32.9990 C   0  0  0  0  0  0  0  0  0  0  0  0
   -4.4289   22.4223  -33.4531 H   0  0  0  0  0  0  0  0  0  0  0  0
   -3.1580   20.6750  -33.6150 C   0  0  0  0  0  0  0  0  0  0  0  0
   -3.6023   20.3515  -34.5679 H   0  0  0  0  0  0  0  0  0  0  0  0
   -2.1380   19.9090  -33.0230 C   0  0  0  0  0  0  0  0  0  0  0  0
   -1.6510   18.7410  -33.6300 O   0  0  0  0  0  0  0  0  0  0  0  0
   -2.1700   17.4510  -33.4450 C   0  0  0  0  0  0  0  0  0  0  0  0
   -1.3370   16.3380  -33.2360 C   0  0  0  0  0  0  0  0  0  0  0  0
   -0.2453   16.4686  -33.2016 H   0  0  0  0  0  0  0  0  0  0  0  0
   -1.8920   15.0670  -33.0720 C   0  0  0  0  0  0  0  0  0  0  0  0
   -1.2365   14.2003  -32.9014 H   0  0  0  0  0  0  0  0  0  0  0  0
   -3.2770   14.8930  -33.1240 C   0  0  0  0  0  0  0  0  0  0  0  0
   -3.7091   13.8905  -32.9888 H   0  0  0  0  0  0  0  0  0  0  0  0
   -4.1220   15.9970  -33.3490 C   0  0  0  0  0  0  0  0  0  0  0  0
   -5.5190   15.8800  -33.4140 O   0  0  0  0  0  0  0  0  0  0  0  0
   -6.3800   16.6980  -34.2080 C   0  0  0  0  0  0  0  0  0  0  0  0
   -5.8465   17.0037  -35.1201 H   0  0  0  0  0  0  0  0  0  0  0  0
   -7.2782   16.1176  -34.4655 H   0  0  0  0  0  0  0  0  0  0  0  0
   -6.8020   17.9270  -33.4480 C   0  0  0  0  0  0  0  0  0  0  0  0
   -6.3340   19.1970  -33.8260 C   0  0  0  0  0  0  0  0  0  0  0  0
   -5.6602   19.2981  -34.6896 H   0  0  0  0  0  0  0  0  0  0  0  0
   -6.7220   20.3330  -33.1080 C   0  0  0  0  0  0  0  0  0  0  0  0
   -6.3597   21.3259  -33.4129 H   0  0  0  0  0  0  0  0  0  0  0  0
   -7.5700   20.2080  -32.0030 C   0  0  0  0  0  0  0  0  0  0  0  0
   -7.8750   21.1024  -31.4399 H   0  0  0  0  0  0  0  0  0  0  0  0
   -8.0300   18.9470  -31.6140 C   0  0  0  0  0  0  0  0  0  0  0  0
   -8.6965   18.8496  -30.7443 H   0  0  0  0  0  0  0  0  0  0  0  0
   -7.6440   17.8090  -32.3290 C   0  0  0  0  0  0  0  0  0  0  0  0
   -8.0009   16.8172  -32.0143 H   0  0  0  0  0  0  0  0  0  0  0  0
   -3.5550   17.2660  -33.5160 C   0  0  0  0  0  0  0  0  0  0  0  0
   -4.2081   18.1305  -33.7059 H   0  0  0  0  0  0  0  0  0  0  0  0
   -1.5620   20.3450  -31.8200 C   0  0  0  0  0  0  0  0  0  0  0  0
   -0.2800   19.4170  -31.0590 Cl  0  0  0  0  0  0  0  0  0  0  0  0
   -2.0180   21.5170  -31.2060 C   0  0  0  0  0  0  0  0  0  0  0  0
   -1.5828   21.8351  -30.2471 H   0  0  0  0  0  0  0  0  0  0  0  0
   -5.8060   23.1760  -31.5300 N   0  0  0  0  0  0  0  0  0  0  0  0
   -5.7460   22.3610  -32.1780 H   0  0  0  0  0  0  0  0  0  0  0  0
   -6.9830   23.7810  -31.2100 C   0  0  0  0  0  0  0  0  0  0  0  0
   -8.2920   23.3170  -31.7640 C   0  0  0  0  0  0  0  0  0  0  0  0
   -8.9752   23.0748  -30.9366 H   0  0  0  0  0  0  0  0  0  0  0  0
   -8.7320   24.1139  -32.3815 H   0  0  0  0  0  0  0  0  0  0  0  0
   -8.1318   22.4209  -32.3815 H   0  0  0  0  0  0  0  0  0  0  0  0
  1  2  1  0
  2  3  1  0
  3  4  1  0
  4  5  2  0
  5  6  1  0
  6  7  2  0
  7  8  1  0
  7  9  1  0
  9 10  1  0
  9 11  2  0
 11 12  1  0
 12 13  1  0
 13 14  2  0
 14 15  1  0
 14 16  1  0
 16 17  1  0
 16 18  2  0
 18 19  1  0
 18 20  1  0
 20 21  1  0
 21 22  1  0
 22 23  1  0
 22 24  1  0
 22 25  1  0
 25 26  2  0
 26 27  1  0
 26 28  1  0
 28 29  1  0
 28 30  2  0
 30 31  1  0
 30 32  1  0
 32 33  1  0
 32 34  2  0
 34 35  1  0
 20 36  2  0
 36 37  1  0
 11 38  1  0
 38 39  1  0
 38 40  2  0
 40 41  1  0
  4 42  1  0
 42 43  1  0
 42 44  1  0
 44 45  1  0
 45 46  1  0
 45 47  1  0
 45 48  1  0
 44  2  2  0
 40  6  1  0
 36 13  1  0
 34 25  1  0
M  END
>  <UniqueID>  (22) 
22

>  <SMILES>  (22) 
Cc1cs/c(=N/c2ccc(Oc3cccc(OCc4ccccc4)c3)c(Cl)c2)[nH]1

>  <Energy>  (22) 
94.70860175219059

>  <Genealogy>  (22) 
Cc1cs/c(=N/c2ccc(Oc3cccc(OCc4ccccc4)c3)c(Cl)c2)[nH]1 (cis-trans isomerization)
Cc1cs/c(=N/c2ccc(Oc3cccc(OCc4ccccc4)c3)c(Cl)c2)[nH]1 (3D coordinates assigned)
Cc1cs/c(=N/c2ccc(Oc3cccc(OCc4ccccc4)c3)c(Cl)c2)[nH]1 (optimized conformer: 94.70860175219059 kcal/mol)

>  <smiles>  (22) 
Cc1csc(=Nc2ccc(Oc3cccc(OCc4ccccc4)c3)c(Cl)c2)[nH]1

>  <score_type>  (22) 
oracle

>  <origin>  (22) 
adgpu

>  <m_score__min__energy>  (22) 
-9.9299999999999997

>  <m_primary>  (22) 
energy

$$$$
22:0
     RDKit          3D

 37 40  0  0  0  0  0  0  0  0999 V2000
   -1.2320   26.1850  -29.3430 O   0  0  0  0  0  0  0  0  0  0  0  0
   -1.0250   25.4560  -28.1740 C   0  0  0  0  0  0  0  0  0  0  0  0
   -1.3180   24.0790  -28.1350 C   0  0  0  0  0  0  0  0  0  0  0  0
   -1.8960   23.3920  -29.3700 C   0  0  2  0  0  0  0  0  0  0  0  0
   -3.3590   23.2880  -29.2570 N   0  0  0  0  0  0  0  0  0  0  0  0
   -4.2410   24.0840  -29.7880 C   0  0  0  0  0  0  0  0  0  0  0  0
   -5.5660   23.8900  -29.6310 N   0  0  0  0  0  0  0  0  0  0  0  0
   -6.1160   24.9140  -30.3060 C   0  0  0  0  0  0  0  0  0  0  0  0
   -5.1200   25.6930  -30.8450 C   0  0  0  0  0  0  0  0  0  0  0  0
   -3.9240   25.1740  -30.5190 N   0  0  0  0  0  0  0  0  0  0  0  0
   -1.2160   22.0740  -29.7390 C   0  0  0  0  0  0  0  0  0  0  0  0
   -0.7580   21.8860  -31.0590 C   0  0  0  0  0  0  0  0  0  0  0  0
   -0.1690   20.6790  -31.4460 C   0  0  0  0  0  0  0  0  0  0  0  0
   -0.0540   19.6320  -30.5320 C   0  0  0  0  0  0  0  0  0  0  0  0
   -0.5410   19.7840  -29.2330 C   0  0  0  0  0  0  0  0  0  0  0  0
   -1.1310   20.9890  -28.8400 C   0  0  0  0  0  0  0  0  0  0  0  0
   -1.1400   23.3810  -26.9240 C   0  0  0  0  0  0  0  0  0  0  0  0
   -0.6450   24.0230  -25.7840 C   0  0  0  0  0  0  0  0  0  0  0  0
   -0.4450   23.0640  -24.3180 Cl  0  0  0  0  0  0  0  0  0  0  0  0
   -0.3300   25.3950  -25.8340 C   0  0  0  0  0  0  0  0  0  0  0  0
    0.1710   26.0900  -24.7180 C   0  0  0  0  0  0  0  0  0  0  0  0
    0.4600   27.4510  -24.8140 C   0  0  0  0  0  0  0  0  0  0  0  0
    0.2480   28.1150  -26.0210 C   0  0  0  0  0  0  0  0  0  0  0  0
   -0.2350   27.4390  -27.0950 N   0  0  0  0  0  0  0  0  0  0  0  0
   -0.5270   26.1090  -27.0390 C   0  0  0  0  0  0  0  0  0  0  0  0
   -1.6675   24.0376  -30.2308 H   0  0  0  0  0  0  0  0  0  0  0  0
   -7.1951   25.0997  -30.4107 H   0  0  0  0  0  0  0  0  0  0  0  0
   -5.2772   26.5991  -31.4485 H   0  0  0  0  0  0  0  0  0  0  0  0
   -0.8654   22.6985  -31.7927 H   0  0  0  0  0  0  0  0  0  0  0  0
    0.2044   20.5547  -32.4732 H   0  0  0  0  0  0  0  0  0  0  0  0
    0.4203   18.6868  -30.8348 H   0  0  0  0  0  0  0  0  0  0  0  0
   -0.4604   18.9534  -28.5163 H   0  0  0  0  0  0  0  0  0  0  0  0
   -1.5326   21.0925  -27.8212 H   0  0  0  0  0  0  0  0  0  0  0  0
   -1.3949   22.3121  -26.8742 H   0  0  0  0  0  0  0  0  0  0  0  0
    0.3350   25.5593  -23.7686 H   0  0  0  0  0  0  0  0  0  0  0  0
    0.8525   27.9966  -23.9432 H   0  0  0  0  0  0  0  0  0  0  0  0
    0.4724   29.1887  -26.1037 H   0  0  0  0  0  0  0  0  0  0  0  0
  1  2  1  0
  2  3  2  0
  3  4  1  0
  4  5  1  0
  5  6  2  3
  6  7  1  0
  7  8  1  0
  8  9  2  0
  9 10  1  0
  4 11  1  0
 11 12  2  0
 12 13  1  0
 13 14  2  0
 14 15  1  0
 15 16  2  0
  3 17  1  0
 17 18  2  0
 18 19  1  0
 18 20  1  0
 20 21  2  0
 21 22  1  0
 22 23  2  0
 23 24  1  0
 24 25  2  0
 25  2  1  0
 10  6  1  0
 16 11  1  0
 25 20  1  0
  4 26  1  6
  8 27  1  0
  9 28  1  0
 12 29  1  0
 13 30  1  0
 14 31  1  0
 15 32  1  0
 16 33  1  0
 17 34  1  0
 21 35  1  0
 22 36  1  0
 23 37  1  0
M  CHG  3   1  -1   7  -1  10  -1
M  END
>  <UniqueID>  (23) 
23

>  <SMILES>  (23) 
[O-]c1c([C@H](N=c2[n-]cc[n-]2)c2ccccc2)cc(Cl)c2cccnc12

>  <Energy>  (23) 
81.81159250748924

>  <Genealogy>  (23) 
[O-]c1c(C(N=c2[n-]cc[n-]2)c2ccccc2)cc(Cl)c2cccnc12 (protonated)
[O-]c1c([C@H](N=c2[n-]cc[n-]2)c2ccccc2)cc(Cl)c2cccnc12 (chirality)
[O-]c1c([C@H](N=c2[n-]cc[n-]2)c2ccccc2)cc(Cl)c2cccnc12 (3D coordinates assigned)
[O-]c1c([C@H](N=c2[n-]cc[n-]2)c2ccccc2)cc(Cl)c2cccnc12 (optimized conformer: 81.81159250748924 kcal/mol)

>  <smiles>  (23) 
Oc1c(C(N=c2[nH]cc[nH]2)c2ccccc2)cc(Cl)c2cccnc12

>  <score_type>  (23) 
oracle

>  <origin>  (23) 
adgpu

>  <m_score__min__energy>  (23) 
-12.24

>  <m_primary>  (23) 
energy

$$$$
23:0
     RDKit          3D

 45 47  0  0  0  0  0  0  0  0999 V2000
   -4.2630   25.6990  -30.5550 N   0  0  0  0  0  0  0  0  0  0  0  0
   -4.1820   23.9890  -30.3220 S   0  0  0  0  0  0  0  0  0  0  0  0
   -4.0250   23.6890  -28.8570 O   0  0  0  0  0  0  0  0  0  0  0  0
   -2.9900   23.4410  -31.0550 O   0  0  0  0  0  0  0  0  0  0  0  0
   -5.6540   23.2410  -30.9320 C   0  0  0  0  0  0  0  0  0  0  0  0
   -6.8280   23.9960  -31.0570 C   0  0  0  0  0  0  0  0  0  0  0  0
   -7.9860   23.4090  -31.5720 C   0  0  0  0  0  0  0  0  0  0  0  0
   -7.9800   22.0680  -31.9610 C   0  0  0  0  0  0  0  0  0  0  0  0
   -6.8180   21.2940  -31.8270 C   0  0  0  0  0  0  0  0  0  0  0  0
   -6.8310   19.9230  -32.2590 N   0  0  0  0  0  0  0  0  0  0  0  0
   -7.9040   19.0050  -31.9950 C   0  0  0  0  0  0  0  0  0  0  0  0
   -9.0070   19.4190  -31.5410 O   0  0  0  0  0  0  0  0  0  0  0  0
   -7.7550   17.5570  -32.3470 C   0  0  0  0  0  0  0  0  0  0  0  0
   -6.4180   17.3170  -32.9920 C   0  0  0  0  0  0  0  0  0  0  0  0
   -5.3870   16.6910  -32.2760 C   0  0  0  0  0  0  0  0  0  0  0  0
   -4.1340   16.5000  -32.8650 C   0  0  0  0  0  0  0  0  0  0  0  0
   -3.8960   16.9170  -34.1810 C   0  0  0  0  0  0  0  0  0  0  0  0
   -2.5830   16.7290  -34.7370 N   0  0  0  0  0  0  0  0  0  0  0  0
   -1.6020   17.5840  -34.7320 C   0  0  0  0  0  0  0  0  0  0  0  0
   -1.7660   18.8450  -34.2440 N   0  0  0  0  0  0  0  0  0  0  0  0
   -0.7500   19.7500  -34.2570 C   0  0  0  0  0  0  0  0  0  0  0  0
   -0.9630   21.1310  -33.7100 C   0  0  0  0  0  0  0  0  0  0  0  0
   -0.4190   22.0610  -34.5750 F   0  0  0  0  0  0  0  0  0  0  0  0
   -2.3140   21.3910  -33.5620 F   0  0  0  0  0  0  0  0  0  0  0  0
   -0.3490   21.2430  -32.4750 F   0  0  0  0  0  0  0  0  0  0  0  0
    0.4880   19.3810  -34.7940 C   0  0  0  0  0  0  0  0  0  0  0  0
    0.6380   18.0910  -35.3010 C   0  0  0  0  0  0  0  0  0  0  0  0
   -0.4050   17.2230  -35.2630 N   0  0  0  0  0  0  0  0  0  0  0  0
   -4.9170   17.5830  -34.8840 C   0  0  0  0  0  0  0  0  0  0  0  0
   -6.1690   17.7750  -34.2940 C   0  0  0  0  0  0  0  0  0  0  0  0
   -5.6470   21.8960  -31.3300 C   0  0  0  0  0  0  0  0  0  0  0  0
   -3.4970   25.9530  -31.2180 H   0  0  0  0  0  0  0  0  0  0  0  0
   -6.8375   25.0520  -30.7492 H   0  0  0  0  0  0  0  0  0  0  0  0
   -8.9053   24.0048  -31.6714 H   0  0  0  0  0  0  0  0  0  0  0  0
   -8.8929   21.6154  -32.3754 H   0  0  0  0  0  0  0  0  0  0  0  0
   -6.0560   19.5980  -32.8800 H   0  0  0  0  0  0  0  0  0  0  0  0
   -7.8319   16.9505  -31.4325 H   0  0  0  0  0  0  0  0  0  0  0  0
   -8.5508   17.2741  -33.0518 H   0  0  0  0  0  0  0  0  0  0  0  0
   -5.5655   16.3487  -31.2460 H   0  0  0  0  0  0  0  0  0  0  0  0
   -3.3286   16.0186  -32.2909 H   0  0  0  0  0  0  0  0  0  0  0  0
    1.3255   20.0938  -34.8157 H   0  0  0  0  0  0  0  0  0  0  0  0
    1.6004   17.7769  -35.7313 H   0  0  0  0  0  0  0  0  0  0  0  0
   -4.7287   17.9540  -35.9023 H   0  0  0  0  0  0  0  0  0  0  0  0
   -6.9643   18.2886  -34.8542 H   0  0  0  0  0  0  0  0  0  0  0  0
   -4.7205   21.3081  -31.2532 H   0  0  0  0  0  0  0  0  0  0  0  0
  1  2  1  0
  2  3  2  0
  2  4  2  0
  2  5  1  0
  5  6  2  0
  6  7  1  0
  7  8  2  0
  8  9  1  0
  9 10  1  0
 10 11  1  0
 11 12  2  0
 11 13  1  0
 13 14  1  0
 14 15  2  0
 15 16  1  0
 16 17  2  0
 17 18  1  0
 18 19  2  3
 19 20  1  0
 20 21  2  0
 21 22  1  0
 22 23  1  0
 22 24  1  0
 22 25  1  0
 21 26  1  0
 26 27  2  0
 27 28  1  0
 17 29  1  0
 29 30  2  0
  9 31  2  0
 31  5  1  0
 30 14  1  0
 28 19  1  0
  1 32  1  0
  6 33  1  0
  7 34  1  0
  8 35  1  0
 10 36  1  0
 13 37  1  0
 13 38  1  0
 15 39  1  0
 16 40  1  0
 26 41  1  0
 27 42  1  0
 29 43  1  0
 30 44  1  0
 31 45  1  0
M  CHG  2   1  -1  28  -1
M  END
>  <UniqueID>  (24) 
24

>  <SMILES>  (24) 
[NH-]S(=O)(=O)c1cccc(NC(=O)Cc2ccc(N=c3nc(C(F)(F)F)cc[n-]3)cc2)c1

>  <Energy>  (24) 
54.87860265174059

>  <Genealogy>  (24) 
[NH-]S(=O)(=O)c1cccc(NC(=O)Cc2ccc(N=c3nc(C(F)(F)F)cc[n-]3)cc2)c1 (protonated)
[NH-]S(=O)(=O)c1cccc(NC(=O)Cc2ccc(N=c3nc(C(F)(F)F)cc[n-]3)cc2)c1 (3D coordinates assigned)
[NH-]S(=O)(=O)c1cccc(NC(=O)Cc2ccc(N=c3nc(C(F)(F)F)cc[n-]3)cc2)c1 (optimized conformer: 54.87860265174059 kcal/mol)

>  <smiles>  (24) 
NS(=O)(=O)c1cccc(NC(=O)Cc2ccc(N=c3nc(C(F)(F)F)cc[nH]3)cc2)c1

>  <score_type>  (24) 
oracle

>  <origin>  (24) 
adgpu

>  <m_score__min__energy>  (24) 
-11.84

>  <m_primary>  (24) 
energy

$$$$
24:0
     RDKit          3D

 52 56  0  0  1  0  0  0  0  0999 V2000
   -0.9780   19.9400  -32.8030 C   0  0  0  0  0  0  0  0  0  0  0  0
   -2.3320   20.1940  -33.1390 N   0  0  0  0  0  0  0  0  0  0  0  0
   -2.6890   21.5500  -33.4090 C   0  0  0  0  0  0  0  0  0  0  0  0
   -3.6220   22.1380  -32.3700 C   0  0  0  0  0  0  0  0  0  0  0  0
   -3.7430   21.2130  -31.2290 N   0  0  0  0  0  0  0  0  0  0  0  0
   -3.3770   21.5790  -29.9110 C   0  0  0  0  0  0  0  0  0  0  0  0
   -2.3520   20.7750  -29.3620 C   0  0  0  0  0  0  0  0  0  0  0  0
   -1.8270   21.0270  -28.1230 C   0  0  0  0  0  0  0  0  0  0  0  0
   -2.3260   22.0900  -27.4250 C   0  0  0  0  0  0  0  0  0  0  0  0
   -3.3250   22.8760  -27.9560 C   0  0  0  0  0  0  0  0  0  0  0  0
   -3.8840   22.6440  -29.2190 C   0  0  0  0  0  0  0  0  0  0  0  0
   -4.9890   23.4770  -29.6450 C   0  0  0  0  0  0  0  0  0  0  0  0
   -6.0290   22.8810  -30.3550 C   0  0  0  0  0  0  0  0  0  0  0  0
   -7.1560   23.6180  -30.7410 C   0  0  0  0  0  0  0  0  0  0  0  0
   -8.1200   23.0730  -31.3970 N   0  0  0  0  0  0  0  0  0  0  0  0
   -8.0150   21.6930  -31.7210 C   0  0  0  0  0  0  0  0  0  0  0  0
   -8.7430   20.7110  -31.0650 C   0  0  0  0  0  0  0  0  0  0  0  0
   -8.6190   19.3630  -31.4040 C   0  0  0  0  0  0  0  0  0  0  0  0
   -7.7360   19.0190  -32.4320 C   0  0  0  0  0  0  0  0  0  0  0  0
   -7.3850   17.8470  -32.9960 N   0  0  0  0  0  0  0  0  0  0  0  0
   -6.4940   18.0330  -33.9530 N   0  0  0  0  0  0  0  0  0  0  0  0
   -6.2100   19.3540  -34.0680 C   0  0  0  0  0  0  0  0  0  0  0  0
   -6.9970   19.9780  -33.1030 C   0  0  0  0  0  0  0  0  0  0  0  0
   -7.1490   21.3040  -32.7360 C   0  0  0  0  0  0  0  0  0  0  0  0
   -7.2370   24.9190  -30.4240 N   0  0  0  0  0  0  0  0  0  0  0  0
   -6.2390   25.4970  -29.7430 C   0  0  0  0  0  0  0  0  0  0  0  0
   -5.1450   24.7750  -29.3700 N   0  0  0  0  0  0  0  0  0  0  0  0
   -4.2310   19.8730  -31.5770 C   0  0  0  0  0  0  0  0  0  0  0  0
   -3.3190   19.3310  -32.6250 C   0  0  0  0  0  0  0  0  0  0  0  0
   -0.8694   19.9196  -31.7086 H   0  0  0  0  0  0  0  0  0  0  0  0
   -0.6727   18.9689  -33.2199 H   0  0  0  0  0  0  0  0  0  0  0  0
   -0.3415   20.7344  -33.2199 H   0  0  0  0  0  0  0  0  0  0  0  0
   -1.7706   22.1548  -33.4368 H   0  0  0  0  0  0  0  0  0  0  0  0
   -3.2208   21.5633  -34.3718 H   0  0  0  0  0  0  0  0  0  0  0  0
   -3.2191   23.0997  -32.0196 H   0  0  0  0  0  0  0  0  0  0  0  0
   -4.6142   22.2939  -32.8187 H   0  0  0  0  0  0  0  0  0  0  0  0
   -1.9666   19.9256  -29.9450 H   0  0  0  0  0  0  0  0  0  0  0  0
   -1.0303   20.3949  -27.7037 H   0  0  0  0  0  0  0  0  0  0  0  0
   -1.9253   22.3211  -26.4270 H   0  0  0  0  0  0  0  0  0  0  0  0
   -3.7000   23.7226  -27.3622 H   0  0  0  0  0  0  0  0  0  0  0  0
   -5.9641   21.8146  -30.6167 H   0  0  0  0  0  0  0  0  0  0  0  0
   -9.4335   21.0015  -30.2595 H   0  0  0  0  0  0  0  0  0  0  0  0
   -9.2001   18.5921  -30.8768 H   0  0  0  0  0  0  0  0  0  0  0  0
   -7.7750   16.9180  -32.7060 H   0  0  0  0  0  0  0  0  0  0  0  0
   -5.5100   19.8295  -34.7708 H   0  0  0  0  0  0  0  0  0  0  0  0
   -6.5665   22.0734  -33.2639 H   0  0  0  0  0  0  0  0  0  0  0  0
   -6.3029   26.5638  -29.4825 H   0  0  0  0  0  0  0  0  0  0  0  0
   -4.4180   25.3130  -28.8770 H   0  0  0  0  0  0  0  0  0  0  0  0
   -4.2139   19.2233  -30.6896 H   0  0  0  0  0  0  0  0  0  0  0  0
   -5.2666   19.9176  -31.9451 H   0  0  0  0  0  0  0  0  0  0  0  0
   -2.8031   18.4602  -32.1942 H   0  0  0  0  0  0  0  0  0  0  0  0
   -3.9745   19.1142  -33.4813 H   0  0  0  0  0  0  0  0  0  0  0  0
  1  2  1  0
  2  3  1  0
  3  4  1  0
  4  5  1  0
  5  6  1  0
  6  7  2  0
  7  8  1  0
  8  9  2  0
  9 10  1  0
 10 11  2  0
 11 12  1  0
 12 13  2  0
 13 14  1  0
 14 15  2  0
 15 16  1  0
 16 17  2  0
 17 18  1  0
 18 19  2  0
 19 20  1  0
 20 21  1  0
 21 22  2  0
 22 23  1  0
 23 24  2  0
 14 25  1  0
 25 26  2  0
 26 27  1  0
  5 28  1  0
 28 29  1  0
 29  2  1  0
 11  6  1  0
 27 12  1  0
 24 16  1  0
 23 19  1  0
  1 30  1  0
  1 31  1  0
  1 32  1  0
  3 33  1  0
  3 34  1  0
  4 35  1  0
  4 36  1  0
  7 37  1  0
  8 38  1  0
  9 39  1  0
 10 40  1  0
 13 41  1  0
 17 42  1  0
 18 43  1  0
 20 44  1  0
 22 45  1  0
 24 46  1  0
 26 47  1  0
 27 48  1  0
 28 49  1  0
 28 50  1  0
 29 51  1  0
 29 52  1  0
M  END
>  <smiles>  (25) 
CN1CCN(c2ccccc2-c2cc(=Nc3ccc4[nH]ncc4c3)nc[nH]2)CC1

>  <score_type>  (25) 
oracle

>  <origin>  (25) 
adgpu

>  <m_score__min__energy>  (25) 
-9.3200000000000003

>  <m_primary>  (25) 
energy

$$$$
25:0
     RDKit          3D

 52 54  0  0  0  0  0  0  0  0999 V2000
   -8.5490   21.9210  -30.1780 C   0  0  0  0  0  0  0  0  0  0  0  0
   -8.2000   20.7770  -31.1400 C   0  0  1  0  0  0  0  0  0  0  0  0
   -9.2730   20.5500  -32.1760 C   0  0  0  0  0  0  0  0  0  0  0  0
   -9.1440   19.4790  -33.1100 N   0  0  0  0  0  0  0  0  0  0  0  0
  -10.2580   21.3320  -32.2620 O   0  0  0  0  0  0  0  0  0  0  0  0
   -6.9020   21.0180  -31.7880 N   0  0  0  0  0  0  0  0  0  0  0  0
   -6.0600   22.1100  -31.3890 C   0  0  0  0  0  0  0  0  0  0  0  0
   -4.9840   21.8920  -30.5170 C   0  0  0  0  0  0  0  0  0  0  0  0
   -4.1770   22.9620  -30.1170 C   0  0  0  0  0  0  0  0  0  0  0  0
   -4.4450   24.2530  -30.5810 C   0  0  0  0  0  0  0  0  0  0  0  0
   -3.6620   25.2890  -30.1920 F   0  0  0  0  0  0  0  0  0  0  0  0
   -5.5240   24.4760  -31.4420 C   0  0  0  0  0  0  0  0  0  0  0  0
   -6.3320   23.4090  -31.8430 C   0  0  0  0  0  0  0  0  0  0  0  0
   -6.2680   19.8510  -32.9040 S   0  0  0  0  0  0  0  0  0  0  0  0
   -6.9050   20.0430  -34.2530 O   0  0  0  0  0  0  0  0  0  0  0  0
   -6.5890   18.4610  -32.4300 O   0  0  0  0  0  0  0  0  0  0  0  0
   -4.5250   20.0560  -33.0290 C   0  0  0  0  0  0  0  0  0  0  0  0
   -3.6700   18.9930  -32.7070 C   0  0  0  0  0  0  0  0  0  0  0  0
   -2.2850   19.1610  -32.7710 C   0  0  0  0  0  0  0  0  0  0  0  0
   -1.7410   20.3960  -33.1510 C   0  0  0  0  0  0  0  0  0  0  0  0
    0.0040   20.6060  -33.2550 S   0  0  0  0  0  0  0  0  0  0  0  0
    0.6040   19.4200  -33.9600 O   0  0  0  0  0  0  0  0  0  0  0  0
    0.3200   21.8440  -34.0510 O   0  0  0  0  0  0  0  0  0  0  0  0
    0.6680   20.7220  -31.6460 N   0  0  0  0  0  0  0  0  0  0  0  0
    1.0670   19.4100  -31.1380 C   0  0  0  0  0  0  0  0  0  0  0  0
    0.9740   19.4860  -29.6220 C   0  0  0  0  0  0  0  0  0  0  0  0
    0.0570   20.6660  -29.3330 C   0  0  0  0  0  0  0  0  0  0  0  0
   -0.3260   21.2210  -30.6960 C   0  0  0  0  0  0  0  0  0  0  0  0
   -2.5960   21.4570  -33.4770 C   0  0  0  0  0  0  0  0  0  0  0  0
   -3.9820   21.2900  -33.4120 C   0  0  0  0  0  0  0  0  0  0  0  0
   -8.4427   21.5726  -29.1401 H   0  0  0  0  0  0  0  0  0  0  0  0
   -7.8681   22.7672  -30.3523 H   0  0  0  0  0  0  0  0  0  0  0  0
   -9.5863   22.2431  -30.3523 H   0  0  0  0  0  0  0  0  0  0  0  0
   -8.1324   19.8606  -30.5354 H   0  0  0  0  0  0  0  0  0  0  0  0
   -9.8720   19.3290  -33.8430 H   0  0  0  0  0  0  0  0  0  0  0  0
   -8.3160   18.8440  -33.0810 H   0  0  0  0  0  0  0  0  0  0  0  0
   -4.7741   20.8777  -30.1468 H   0  0  0  0  0  0  0  0  0  0  0  0
   -3.3305   22.7874  -29.4366 H   0  0  0  0  0  0  0  0  0  0  0  0
   -5.7369   25.4927  -31.8040 H   0  0  0  0  0  0  0  0  0  0  0  0
   -7.1833   23.5880  -32.5162 H   0  0  0  0  0  0  0  0  0  0  0  0
   -4.0912   18.0234  -32.4029 H   0  0  0  0  0  0  0  0  0  0  0  0
   -1.6189   18.3217  -32.5225 H   0  0  0  0  0  0  0  0  0  0  0  0
    0.3901   18.6323  -31.5215 H   0  0  0  0  0  0  0  0  0  0  0  0
    2.0864   19.1521  -31.4611 H   0  0  0  0  0  0  0  0  0  0  0  0
    0.5465   18.5576  -29.2154 H   0  0  0  0  0  0  0  0  0  0  0  0
    1.9628   19.6123  -29.1569 H   0  0  0  0  0  0  0  0  0  0  0  0
   -0.8382   20.3334  -28.7872 H   0  0  0  0  0  0  0  0  0  0  0  0
    0.5495   21.4236  -28.7058 H   0  0  0  0  0  0  0  0  0  0  0  0
   -1.3300   20.8721  -30.9792 H   0  0  0  0  0  0  0  0  0  0  0  0
   -0.3461   22.3208  -30.6846 H   0  0  0  0  0  0  0  0  0  0  0  0
   -2.1747   22.4252  -33.7853 H   0  0  0  0  0  0  0  0  0  0  0  0
   -4.6482   22.1289  -33.6620 H   0  0  0  0  0  0  0  0  0  0  0  0
  1  2  1  0
  2  3  1  0
  3  4  1  0
  3  5  2  0
  2  6  1  0
  6  7  1  0
  7  8  2  0
  8  9  1  0
  9 10  2  0
 10 11  1  0
 10 12  1  0
 12 13  2  0
  6 14  1  0
 14 15  2  0
 14 16  2  0
 14 17  1  0
 17 18  2  0
 18 19  1  0
 19 20  2  0
 20 21  1  0
 21 22  2  0
 21 23  2  0
 21 24  1  0
 24 25  1  0
 25 26  1  0
 26 27  1  0
 27 28  1  0
 20 29  1  0
 29 30  2  0
 13  7  1  0
 30 17  1  0
 28 24  1  0
  1 31  1  0
  1 32  1  0
  1 33  1  0
  2 34  1  1
  4 35  1  0
  4 36  1  0
  8 37  1  0
  9 38  1  0
 12 39  1  0
 13 40  1  0
 18 41  1  0
 19 42  1  0
 25 43  1  0
 25 44  1  0
 26 45  1  0
 26 46  1  0
 27 47  1  0
 27 48  1  0
 28 49  1  0
 28 50  1  0
 29 51  1  0
 30 52  1  0
M  END
>  <UniqueID>  (26) 
25

>  <SMILES>  (26) 
C[C@@H](C(N)=O)N(c1ccc(F)cc1)S(=O)(=O)c1ccc(S(=O)(=O)N2CCCC2)cc1

>  <Energy>  (26) 
55.51342969754377

>  <Genealogy>  (26) 
C[C@@H](C(N)=O)N(c1ccc(F)cc1)S(=O)(=O)c1ccc(S(=O)(=O)N2CCCC2)cc1 (chirality)
C[C@@H](C(N)=O)N(c1ccc(F)cc1)S(=O)(=O)c1ccc(S(=O)(=O)N2CCCC2)cc1 (3D coordinates assigned)
C[C@@H](C(N)=O)N(c1ccc(F)cc1)S(=O)(=O)c1ccc(S(=O)(=O)N2CCCC2)cc1 (nonaromatic ring conformer: 55.51342969754377 kcal/mol)

>  <smiles>  (26) 
CC(C(N)=O)N(c1ccc(F)cc1)S(=O)(=O)c1ccc(S(=O)(=O)N2CCCC2)cc1

>  <score_type>  (26) 
oracle

>  <origin>  (26) 
adgpu

>  <m_score__min__energy>  (26) 
-9.5

>  <m_primary>  (26) 
energy

$$$$
26:0
     RDKit          3D

 30 31  0  0  0  0  0  0  0  0999 V2000
   -2.5460   26.4250  -28.9700 H   0  0  0  0  0  0  0  0  0  0  0  0
   -1.9830   25.5830  -28.9620 O   0  0  0  0  0  0  0  0  0  0  0  0
   -2.4360   24.3750  -29.4960 C   0  0  0  0  0  0  0  0  0  0  0  0
   -1.7650   23.1880  -29.1720 C   0  0  0  0  0  0  0  0  0  0  0  0
   -0.2430   23.2170  -28.0110 Br  0  0  0  0  0  0  0  0  0  0  0  0
   -2.2020   21.9680  -29.6940 C   0  0  0  0  0  0  0  0  0  0  0  0
   -1.6696   21.0410  -29.4349 H   0  0  0  0  0  0  0  0  0  0  0  0
   -3.3160   21.9170  -30.5470 C   0  0  0  0  0  0  0  0  0  0  0  0
   -3.7930   20.6370  -31.1120 C   0  0  0  0  0  0  0  0  0  0  0  0
   -3.2452   19.7087  -30.8926 H   0  0  0  0  0  0  0  0  0  0  0  0
   -4.8520   20.5950  -31.8650 N   0  0  0  0  0  0  0  0  0  0  0  0
   -5.4300   19.4240  -32.4670 C   0  0  0  0  0  0  0  0  0  0  0  0
   -5.1370   19.1590  -33.8120 C   0  0  0  0  0  0  0  0  0  0  0  0
   -4.4750   19.8381  -34.3693 H   0  0  0  0  0  0  0  0  0  0  0  0
   -5.6780   18.0400  -34.4520 C   0  0  0  0  0  0  0  0  0  0  0  0
   -5.4355   17.8386  -35.5059 H   0  0  0  0  0  0  0  0  0  0  0  0
   -6.5270   17.1770  -33.7530 C   0  0  0  0  0  0  0  0  0  0  0  0
   -7.0530   16.0940  -34.3750 F   0  0  0  0  0  0  0  0  0  0  0  0
   -6.8390   17.4380  -32.4170 C   0  0  0  0  0  0  0  0  0  0  0  0
   -7.5119   16.7619  -31.8692 H   0  0  0  0  0  0  0  0  0  0  0  0
   -6.2990   18.5560  -31.7730 C   0  0  0  0  0  0  0  0  0  0  0  0
   -6.5527   18.7591  -30.7221 H   0  0  0  0  0  0  0  0  0  0  0  0
   -3.9860   23.1060  -30.8710 C   0  0  0  0  0  0  0  0  0  0  0  0
   -4.8588   23.0734  -31.5397 H   0  0  0  0  0  0  0  0  0  0  0  0
   -3.5540   24.3410  -30.3500 C   0  0  0  0  0  0  0  0  0  0  0  0
   -4.2080   25.5460  -30.6570 O   0  0  0  0  0  0  0  0  0  0  0  0
   -5.6020   25.7780  -30.4820 C   0  0  0  0  0  0  0  0  0  0  0  0
   -5.8352   25.8168  -29.4077 H   0  0  0  0  0  0  0  0  0  0  0  0
   -5.8764   26.7342  -30.9516 H   0  0  0  0  0  0  0  0  0  0  0  0
   -6.1713   24.9622  -30.9516 H   0  0  0  0  0  0  0  0  0  0  0  0
  1  2  1  0
  2  3  1  0
  3  4  2  0
  4  5  1  0
  4  6  1  0
  6  7  1  0
  6  8  2  0
  8  9  1  0
  9 10  1  0
  9 11  2  0
 11 12  1  0
 12 13  2  0
 13 14  1  0
 13 15  1  0
 15 16  1  0
 15 17  2  0
 17 18  1  0
 17 19  1  0
 19 20  1  0
 19 21  2  0
 21 22  1  0
  8 23  1  0
 23 24  1  0
 23 25  2  0
 25 26  1  0
 26 27  1  0
 27 28  1  0
 27 29  1  0
 27 30  1  0
 25  3  1  0
 21 12  1  0
M  END
>  <UniqueID>  (27) 
26

>  <SMILES>  (27) 
COc1cc(/C=N/c2ccc(F)cc2)cc(Br)c1O

>  <Energy>  (27) 
33.42993743396258

>  <Genealogy>  (27) 
COc1cc(/C=N/c2ccc(F)cc2)cc(Br)c1O (cis-trans isomerization)
COc1cc(/C=N/c2ccc(F)cc2)cc(Br)c1O (3D coordinates assigned)
COc1cc(/C=N/c2ccc(F)cc2)cc(Br)c1O (optimized conformer: 33.42993743396258 kcal/mol)

>  <smiles>  (27) 
COc1cc(C=Nc2ccc(F)cc2)cc(Br)c1O

>  <score_type>  (27) 
oracle

>  <origin>  (27) 
adgpu

>  <m_score__min__energy>  (27) 
-7.8899999999999997

>  <m_primary>  (27) 
energy

$$$$
27:0
     RDKit          3D

 41 43  0  0  0  0  0  0  0  0999 V2000
    1.5400   24.5280  -29.1410 H   0  0  0  0  0  0  0  0  0  0  0  0
    1.1040   24.2990  -28.2190 N   0  0  0  0  0  0  0  0  0  0  0  0
   -0.1720   24.3850  -28.0110 C   0  0  0  0  0  0  0  0  0  0  0  0
   -0.6720   24.0710  -26.7860 N   0  0  0  0  0  0  0  0  0  0  0  0
   -2.0010   24.1400  -26.5150 C   0  0  0  0  0  0  0  0  0  0  0  0
   -2.3715   23.8755  -25.5136 H   0  0  0  0  0  0  0  0  0  0  0  0
   -2.8980   24.5460  -27.5050 C   0  0  0  0  0  0  0  0  0  0  0  0
   -3.9753   24.5957  -27.2882 H   0  0  0  0  0  0  0  0  0  0  0  0
   -2.4200   24.8890  -28.7730 C   0  0  0  0  0  0  0  0  0  0  0  0
   -3.3410   25.2910  -29.7530 O   0  0  0  0  0  0  0  0  0  0  0  0
   -4.4460   24.5320  -30.1590 C   0  0  0  0  0  0  0  0  0  0  0  0
   -5.7180   25.1070  -30.0730 C   0  0  0  0  0  0  0  0  0  0  0  0
   -5.8262   26.1423  -29.7174 H   0  0  0  0  0  0  0  0  0  0  0  0
   -6.8510   24.3770  -30.4350 C   0  0  0  0  0  0  0  0  0  0  0  0
   -7.8454   24.8429  -30.3709 H   0  0  0  0  0  0  0  0  0  0  0  0
   -6.7290   23.0560  -30.8790 C   0  0  0  0  0  0  0  0  0  0  0  0
   -7.9140   22.3370  -31.2480 N   0  0  0  0  0  0  0  0  0  0  0  0
   -7.9530   21.1030  -31.9720 C   0  0  0  0  0  0  0  0  0  0  0  0
   -8.9770   20.8310  -32.6540 O   0  0  0  0  0  0  0  0  0  0  0  0
   -6.8930   20.1430  -31.8460 N   0  0  0  0  0  0  0  0  0  0  0  0
   -6.3060   20.1790  -30.9820 H   0  0  0  0  0  0  0  0  0  0  0  0
   -6.6610   19.0730  -32.7780 C   0  0  0  0  0  0  0  0  0  0  0  0
   -7.0800   17.7720  -32.4530 C   0  0  0  0  0  0  0  0  0  0  0  0
   -7.5971   17.5867  -31.5000 H   0  0  0  0  0  0  0  0  0  0  0  0
   -6.8440   16.7110  -33.3330 C   0  0  0  0  0  0  0  0  0  0  0  0
   -7.1859   15.6975  -33.0761 H   0  0  0  0  0  0  0  0  0  0  0  0
   -6.1750   16.9370  -34.5370 C   0  0  0  0  0  0  0  0  0  0  0  0
   -5.9964   16.1028  -35.2314 H   0  0  0  0  0  0  0  0  0  0  0  0
   -5.7320   18.2220  -34.8610 C   0  0  0  0  0  0  0  0  0  0  0  0
   -5.1977   18.3967  -35.8065 H   0  0  0  0  0  0  0  0  0  0  0  0
   -5.9670   19.2860  -33.9850 C   0  0  0  0  0  0  0  0  0  0  0  0
   -5.6082   20.2942  -34.2396 H   0  0  0  0  0  0  0  0  0  0  0  0
   -5.4500   22.4910  -31.0190 C   0  0  0  0  0  0  0  0  0  0  0  0
   -5.3466   21.4645  -31.4007 H   0  0  0  0  0  0  0  0  0  0  0  0
   -4.3020   23.2250  -30.6760 C   0  0  0  0  0  0  0  0  0  0  0  0
   -2.9470   22.5970  -30.8580 C   0  0  0  0  0  0  0  0  0  0  0  0
   -2.5029   22.3912  -29.8729 H   0  0  0  0  0  0  0  0  0  0  0  0
   -3.0514   21.6554  -31.4171 H   0  0  0  0  0  0  0  0  0  0  0  0
   -2.2960   23.2852  -31.4171 H   0  0  0  0  0  0  0  0  0  0  0  0
   -1.0410   24.7970  -29.0330 C   0  0  0  0  0  0  0  0  0  0  0  0
   -0.6467   25.0459  -30.0293 H   0  0  0  0  0  0  0  0  0  0  0  0
  1  2  1  0
  2  3  2  0
  3  4  1  0
  4  5  1  0
  5  6  1  0
  5  7  2  0
  7  8  1  0
  7  9  1  0
  9 10  1  0
 10 11  1  0
 11 12  2  0
 12 13  1  0
 12 14  1  0
 14 15  1  0
 14 16  2  0
 16 17  1  0
 17 18  1  0
 18 19  2  0
 18 20  1  0
 20 21  1  0
 20 22  1  0
 22 23  2  0
 23 24  1  0
 23 25  1  0
 25 26  1  0
 25 27  2  0
 27 28  1  0
 27 29  1  0
 29 30  1  0
 29 31  2  0
 31 32  1  0
 16 33  1  0
 33 34  1  0
 33 35  2  0
 35 36  1  0
 36 37  1  0
 36 38  1  0
 36 39  1  0
  9 40  2  0
 40 41  1  0
 40  3  1  0
 35 11  1  0
 31 22  1  0
M  CHG  2   4  -1  17  -1
M  END
>  <UniqueID>  (28) 
27

>  <SMILES>  (28) 
[H]/N=c1\cc(Oc2ccc([N-]C(=O)Nc3ccccc3)cc2C)cc[n-]1

>  <Energy>  (28) 
59.275098955822116

>  <Genealogy>  (28) 
Cc1cc([N-]C(=O)Nc2ccccc2)ccc1Oc1cc[n-]c(=N)c1 (protonated)
[H]/N=c1\cc(Oc2ccc([N-]C(=O)Nc3ccccc3)cc2C)cc[n-]1 (cis-trans isomerization)
[H]/N=c1\cc(Oc2ccc([N-]C(=O)Nc3ccccc3)cc2C)cc[n-]1 (3D coordinates assigned)
[H]/N=c1\cc(Oc2ccc([N-]C(=O)Nc3ccccc3)cc2C)cc[n-]1 (optimized conformer: 59.275098955822116 kcal/mol)

>  <smiles>  (28) 
Cc1cc(NC(=O)Nc2ccccc2)ccc1Oc1cc[nH]c(=N)c1

>  <score_type>  (28) 
oracle

>  <origin>  (28) 
adgpu

>  <m_score__min__energy>  (28) 
-10.130000000000001

>  <m_primary>  (28) 
energy

$$$$
28:0
     RDKit          3D

 40 41  0  0  0  0  0  0  0  0999 V2000
   -0.0670   19.3230  -30.8390 C   0  0  0  0  0  0  0  0  0  0  0  0
   -0.7510   20.6210  -30.5150 C   0  0  0  0  0  0  0  0  0  0  0  0
   -0.4150   21.3380  -29.3550 C   0  0  0  0  0  0  0  0  0  0  0  0
   -1.0850   22.5250  -29.0410 C   0  0  0  0  0  0  0  0  0  0  0  0
   -2.1060   23.0020  -29.8780 C   0  0  0  0  0  0  0  0  0  0  0  0
   -3.0090   24.4580  -29.4540 S   0  0  0  0  0  0  0  0  0  0  0  0
   -3.9750   24.1630  -28.3380 O   0  0  0  0  0  0  0  0  0  0  0  0
   -2.0340   25.4970  -28.9670 O   0  0  0  0  0  0  0  0  0  0  0  0
   -3.8770   25.1030  -30.8220 N   0  0  0  0  0  0  0  0  0  0  0  0
   -5.1220   25.7690  -30.4290 C   0  0  0  0  0  0  0  0  0  0  0  0
   -6.2530   24.7620  -30.2100 C   0  0  0  0  0  0  0  0  0  0  0  0
   -5.7460   23.4000  -30.3930 N   0  0  0  0  0  0  0  0  0  0  0  0
   -6.0530   22.8720  -32.0210 S   0  0  0  0  0  0  0  0  0  0  0  0
   -6.8170   23.9390  -32.7560 O   0  0  0  0  0  0  0  0  0  0  0  0
   -4.7430   22.6380  -32.7210 O   0  0  0  0  0  0  0  0  0  0  0  0
   -6.9720   21.3670  -32.0110 C   0  0  0  0  0  0  0  0  0  0  0  0
   -8.3740   21.3910  -31.9650 C   0  0  0  0  0  0  0  0  0  0  0  0
   -9.0970   20.1920  -31.9510 C   0  0  0  0  0  0  0  0  0  0  0  0
   -8.4250   18.9660  -31.9850 C   0  0  0  0  0  0  0  0  0  0  0  0
   -9.1280   17.8060  -31.9670 F   0  0  0  0  0  0  0  0  0  0  0  0
   -7.0280   18.9390  -32.0380 C   0  0  0  0  0  0  0  0  0  0  0  0
   -6.3020   20.1350  -32.0530 C   0  0  0  0  0  0  0  0  0  0  0  0
   -2.4520   22.2800  -31.0290 C   0  0  0  0  0  0  0  0  0  0  0  0
   -1.7800   21.0950  -31.3460 C   0  0  0  0  0  0  0  0  0  0  0  0
    0.2042   18.8084  -29.9054 H   0  0  0  0  0  0  0  0  0  0  0  0
   -0.7468   18.6865  -31.4244 H   0  0  0  0  0  0  0  0  0  0  0  0
    0.8424   19.5239  -31.4244 H   0  0  0  0  0  0  0  0  0  0  0  0
    0.3783   20.9646  -28.6907 H   0  0  0  0  0  0  0  0  0  0  0  0
   -0.8110   23.0863  -28.1355 H   0  0  0  0  0  0  0  0  0  0  0  0
   -4.9511   26.3231  -29.4942 H   0  0  0  0  0  0  0  0  0  0  0  0
   -5.4193   26.4502  -31.2399 H   0  0  0  0  0  0  0  0  0  0  0  0
   -6.6466   24.8711  -29.1887 H   0  0  0  0  0  0  0  0  0  0  0  0
   -7.0552   24.9522  -30.9383 H   0  0  0  0  0  0  0  0  0  0  0  0
   -4.7060   23.4200  -30.2740 H   0  0  0  0  0  0  0  0  0  0  0  0
   -8.9061   22.3534  -31.9399 H   0  0  0  0  0  0  0  0  0  0  0  0
  -10.1961   20.2144  -31.9132 H   0  0  0  0  0  0  0  0  0  0  0  0
   -6.4985   17.9753  -32.0680 H   0  0  0  0  0  0  0  0  0  0  0  0
   -5.2032   20.1093  -32.0978 H   0  0  0  0  0  0  0  0  0  0  0  0
   -3.2550   22.6469  -31.6852 H   0  0  0  0  0  0  0  0  0  0  0  0
   -2.0581   20.5321  -32.2492 H   0  0  0  0  0  0  0  0  0  0  0  0
  1  2  1  0
  2  3  2  0
  3  4  1  0
  4  5  2  0
  5  6  1  0
  6  7  2  0
  6  8  2  0
  6  9  1  0
  9 10  1  0
 10 11  1  0
 11 12  1  0
 12 13  1  0
 13 14  2  0
 13 15  2  0
 13 16  1  0
 16 17  2  0
 17 18  1  0
 18 19  2  0
 19 20  1  0
 19 21  1  0
 21 22  2  0
  5 23  1  0
 23 24  2  0
 24  2  1  0
 22 16  1  0
  1 25  1  0
  1 26  1  0
  1 27  1  0
  3 28  1  0
  4 29  1  0
 10 30  1  0
 10 31  1  0
 11 32  1  0
 11 33  1  0
 12 34  1  0
 17 35  1  0
 18 36  1  0
 21 37  1  0
 22 38  1  0
 23 39  1  0
 24 40  1  0
M  CHG  1   9  -1
M  END
>  <UniqueID>  (29) 
28

>  <SMILES>  (29) 
Cc1ccc(S(=O)(=O)[N-]CCNS(=O)(=O)c2ccc(F)cc2)cc1

>  <Energy>  (29) 
33.24479822556594

>  <Genealogy>  (29) 
Cc1ccc(S(=O)(=O)[N-]CCNS(=O)(=O)c2ccc(F)cc2)cc1 (protonated)
Cc1ccc(S(=O)(=O)[N-]CCNS(=O)(=O)c2ccc(F)cc2)cc1 (3D coordinates assigned)
Cc1ccc(S(=O)(=O)[N-]CCNS(=O)(=O)c2ccc(F)cc2)cc1 (optimized conformer: 33.24479822556594 kcal/mol)

>  <smiles>  (29) 
Cc1ccc(S(=O)(=O)NCCNS(=O)(=O)c2ccc(F)cc2)cc1

>  <score_type>  (29) 
oracle

>  <origin>  (29) 
adgpu

>  <m_score__min__energy>  (29) 
-10.18

>  <m_primary>  (29) 
energy

$$$$
29:0
     RDKit          3D

 52 54  0  0  0  0  0  0  0  0999 V2000
   -3.5260   16.4320  -33.1150 C   0  0  0  0  0  0  0  0  0  0  0  0
   -4.1930   15.7440  -34.3060 C   0  0  0  0  0  0  0  0  0  0  0  0
   -5.7280   15.7890  -34.2280 C   0  0  0  0  0  0  0  0  0  0  0  0
   -6.2290   17.1300  -33.7570 C   0  0  0  0  0  0  0  0  0  0  0  0
   -5.8090   18.3000  -34.4050 C   0  0  0  0  0  0  0  0  0  0  0  0
   -6.3520   19.5340  -34.0480 C   0  0  0  0  0  0  0  0  0  0  0  0
   -7.3260   19.6190  -33.0390 C   0  0  0  0  0  0  0  0  0  0  0  0
   -7.9480   20.8460  -32.7590 O   0  0  0  0  0  0  0  0  0  0  0  0
   -7.2600   21.9450  -32.2250 C   0  0  0  0  0  0  0  0  0  0  0  0
   -7.9720   23.0080  -31.6710 C   0  0  0  0  0  0  0  0  0  0  0  0
   -7.2930   24.0810  -31.0850 C   0  0  0  0  0  0  0  0  0  0  0  0
   -5.8860   24.1080  -31.0360 C   0  0  0  0  0  0  0  0  0  0  0  0
   -5.2250   25.1840  -30.3440 N   0  0  0  0  0  0  0  0  0  0  0  0
   -5.8810   26.0520  -29.7340 O   0  0  0  0  0  0  0  0  0  0  0  0
   -3.8680   25.3650  -30.4860 O   0  0  0  0  0  0  0  0  0  0  0  0
   -5.1600   23.0460  -31.6340 C   0  0  0  0  0  0  0  0  0  0  0  0
   -3.7210   23.0530  -31.6860 N   0  0  0  0  0  0  0  0  0  0  0  0
   -2.9460   21.9150  -32.1090 C   0  0  0  0  0  0  0  0  0  0  0  0
   -3.0450   21.4570  -33.4300 C   0  0  0  0  0  0  0  0  0  0  0  0
   -2.3430   20.3180  -33.8380 C   0  0  0  0  0  0  0  0  0  0  0  0
   -1.5260   19.6260  -32.9320 C   0  0  0  0  0  0  0  0  0  0  0  0
   -0.7830   18.4020  -33.3810 C   0  0  0  0  0  0  0  0  0  0  0  0
   -1.3930   20.1060  -31.6210 C   0  0  0  0  0  0  0  0  0  0  0  0
   -2.0890   21.2470  -31.2140 C   0  0  0  0  0  0  0  0  0  0  0  0
   -5.8600   21.9980  -32.2480 C   0  0  0  0  0  0  0  0  0  0  0  0
   -7.6910   18.4630  -32.3260 C   0  0  0  0  0  0  0  0  0  0  0  0
   -8.7330   18.5350  -31.2460 C   0  0  0  0  0  0  0  0  0  0  0  0
   -7.1610   17.2180  -32.7100 C   0  0  0  0  0  0  0  0  0  0  0  0
   -3.9285   16.0169  -32.1792 H   0  0  0  0  0  0  0  0  0  0  0  0
   -2.4399   16.2619  -33.1544 H   0  0  0  0  0  0  0  0  0  0  0  0
   -3.7296   17.5123  -33.1544 H   0  0  0  0  0  0  0  0  0  0  0  0
   -3.8718   16.2477  -35.2296 H   0  0  0  0  0  0  0  0  0  0  0  0
   -3.8886   14.6870  -34.2949 H   0  0  0  0  0  0  0  0  0  0  0  0
   -6.1407   15.5864  -35.2273 H   0  0  0  0  0  0  0  0  0  0  0  0
   -6.0543   15.0297  -33.5021 H   0  0  0  0  0  0  0  0  0  0  0  0
   -5.0485   18.2446  -35.1978 H   0  0  0  0  0  0  0  0  0  0  0  0
   -6.0153   20.4474  -34.5601 H   0  0  0  0  0  0  0  0  0  0  0  0
   -9.0717   23.0027  -31.6949 H   0  0  0  0  0  0  0  0  0  0  0  0
   -7.8664   24.9160  -30.6561 H   0  0  0  0  0  0  0  0  0  0  0  0
   -3.2280   23.9650  -31.5540 H   0  0  0  0  0  0  0  0  0  0  0  0
   -3.6783   21.9963  -34.1498 H   0  0  0  0  0  0  0  0  0  0  0  0
   -2.4322   19.9630  -34.8753 H   0  0  0  0  0  0  0  0  0  0  0  0
   -0.4404   17.8377  -32.5011 H   0  0  0  0  0  0  0  0  0  0  0  0
   -1.4497   17.7695  -33.9855 H   0  0  0  0  0  0  0  0  0  0  0  0
    0.0858   18.7016  -33.9855 H   0  0  0  0  0  0  0  0  0  0  0  0
   -0.7377   19.5817  -30.9099 H   0  0  0  0  0  0  0  0  0  0  0  0
   -1.9666   21.6255  -30.1884 H   0  0  0  0  0  0  0  0  0  0  0  0
   -5.2989   21.2012  -32.7581 H   0  0  0  0  0  0  0  0  0  0  0  0
   -8.2436   18.5012  -30.2615 H   0  0  0  0  0  0  0  0  0  0  0  0
   -9.2972   19.4743  -31.3429 H   0  0  0  0  0  0  0  0  0  0  0  0
   -9.4211   17.6823  -31.3429 H   0  0  0  0  0  0  0  0  0  0  0  0
   -7.4793   16.3050  -32.1855 H   0  0  0  0  0  0  0  0  0  0  0  0
  1  2  1  0
  2  3  1  0
  3  4  1  0
  4  5  2  0
  5  6  1  0
  6  7  2  0
  7  8  1  0
  8  9  1  0
  9 10  2  0
 10 11  1  0
 11 12  2  0
 12 13  1  0
 13 14  2  0
 13 15  1  0
 12 16  1  0
 16 17  1  0
 17 18  1  0
 18 19  2  0
 19 20  1  0
 20 21  2  0
 21 22  1  0
 21 23  1  0
 23 24  2  0
 16 25  2  0
  7 26  1  0
 26 27  1  0
 26 28  2  0
 28  4  1  0
 25  9  1  0
 24 18  1  0
  1 29  1  0
  1 30  1  0
  1 31  1  0
  2 32  1  0
  2 33  1  0
  3 34  1  0
  3 35  1  0
  5 36  1  0
  6 37  1  0
 10 38  1  0
 11 39  1  0
 17 40  1  0
 19 41  1  0
 20 42  1  0
 22 43  1  0
 22 44  1  0
 22 45  1  0
 23 46  1  0
 24 47  1  0
 25 48  1  0
 27 49  1  0
 27 50  1  0
 27 51  1  0
 28 52  1  0
M  CHG  2  13   1  15  -1
M  END
>  <UniqueID>  (30) 
29

>  <SMILES>  (30) 
CCCc1ccc(Oc2ccc([N+](=O)[O-])c(Nc3ccc(C)cc3)c2)c(C)c1

>  <Energy>  (30) 
62.12553285193305

>  <Genealogy>  (30) 
CCCc1ccc(Oc2ccc([N+](=O)[O-])c(Nc3ccc(C)cc3)c2)c(C)c1 (3D coordinates assigned)
CCCc1ccc(Oc2ccc([N+](=O)[O-])c(Nc3ccc(C)cc3)c2)c(C)c1 (optimized conformer: 62.12553285193305 kcal/mol)

>  <smiles>  (30) 
CCCc1ccc(Oc2ccc([N+](=O)[O-])c(Nc3ccc(C)cc3)c2)c(C)c1

>  <score_type>  (30) 
oracle

>  <origin>  (30) 
adgpu

>  <m_score__min__energy>  (30) 
-9.6600000000000001

>  <m_primary>  (30) 
energy

$$$$
30:0
     RDKit          3D

 51 54  0  0  0  0  0  0  0  0999 V2000
    0.4800   16.8160  -27.3290 N   0  0  0  0  0  0  0  0  0  0  0  0
    0.3230   18.1310  -27.8610 C   0  0  0  0  0  0  0  0  0  0  0  0
    1.2560   18.6310  -28.5450 O   0  0  0  0  0  0  0  0  0  0  0  0
   -0.9190   18.9020  -27.6130 C   0  0  0  0  0  0  0  0  0  0  0  0
   -1.9140   18.3970  -26.7580 C   0  0  0  0  0  0  0  0  0  0  0  0
   -3.0950   19.1130  -26.5470 C   0  0  0  0  0  0  0  0  0  0  0  0
   -3.2880   20.3470  -27.1710 C   0  0  0  0  0  0  0  0  0  0  0  0
   -2.2950   20.8890  -27.9920 C   0  0  0  0  0  0  0  0  0  0  0  0
   -2.5540   22.1490  -28.6350 N   0  0  0  0  0  0  0  0  0  0  0  0
   -2.1910   23.3380  -28.2410 C   0  0  0  0  0  0  0  0  0  0  0  0
   -1.5370   23.4980  -27.0570 N   0  0  0  0  0  0  0  0  0  0  0  0
   -1.0970   24.7080  -26.6350 C   0  0  0  0  0  0  0  0  0  0  0  0
   -0.4140   24.8360  -25.4220 C   0  0  0  0  0  0  0  0  0  0  0  0
    0.0490   26.0900  -25.0110 C   0  0  0  0  0  0  0  0  0  0  0  0
   -0.1760   27.2270  -25.8070 C   0  0  0  0  0  0  0  0  0  0  0  0
    0.3540   28.5710  -25.3780 C   0  0  0  0  0  0  0  0  0  0  0  0
   -0.5790   29.2390  -24.4740 N   0  0  0  0  0  0  0  0  0  0  0  0
   -0.8500   27.0900  -27.0330 C   0  0  0  0  0  0  0  0  0  0  0  0
   -1.3130   25.8360  -27.4420 C   0  0  0  0  0  0  0  0  0  0  0  0
   -1.9820   25.6930  -28.6130 N   0  0  0  0  0  0  0  0  0  0  0  0
   -2.4590   24.4900  -29.0380 C   0  0  0  0  0  0  0  0  0  0  0  0
   -3.1180   24.4670  -30.1650 N   0  0  0  0  0  0  0  0  0  0  0  0
   -3.8310   23.3700  -30.7530 C   0  0  0  0  0  0  0  0  0  0  0  0
   -5.1790   23.1680  -30.4360 C   0  0  0  0  0  0  0  0  0  0  0  0
   -5.8700   22.0820  -30.9800 C   0  0  0  0  0  0  0  0  0  0  0  0
   -5.2130   21.1820  -31.8250 C   0  0  0  0  0  0  0  0  0  0  0  0
   -3.8540   21.3620  -32.1250 C   0  0  0  0  0  0  0  0  0  0  0  0
   -3.0000   20.2160  -33.1560 S   0  0  0  0  0  0  0  0  0  0  0  0
   -1.8870   21.0600  -34.1750 N   0  0  0  0  0  0  0  0  0  0  0  0
   -3.9780   19.4680  -34.0210 O   0  0  0  0  0  0  0  0  0  0  0  0
   -2.2560   19.2330  -32.2950 O   0  0  0  0  0  0  0  0  0  0  0  0
   -3.1650   22.4520  -31.5780 C   0  0  0  0  0  0  0  0  0  0  0  0
   -1.1240   20.1470  -28.2380 C   0  0  0  0  0  0  0  0  0  0  0  0
   -0.2380   16.4060  -26.6910 H   0  0  0  0  0  0  0  0  0  0  0  0
   -1.7618   17.4322  -26.2520 H   0  0  0  0  0  0  0  0  0  0  0  0
   -3.8746   18.7036  -25.8877 H   0  0  0  0  0  0  0  0  0  0  0  0
   -4.2281   20.8965  -27.0154 H   0  0  0  0  0  0  0  0  0  0  0  0
   -0.2409   23.9514  -24.7915 H   0  0  0  0  0  0  0  0  0  0  0  0
    0.5923   26.1874  -24.0595 H   0  0  0  0  0  0  0  0  0  0  0  0
    1.3155   28.4304  -24.8625 H   0  0  0  0  0  0  0  0  0  0  0  0
    0.4836   29.1977  -26.2727 H   0  0  0  0  0  0  0  0  0  0  0  0
   -1.4130   28.6240  -24.3360 H   0  0  0  0  0  0  0  0  0  0  0  0
   -0.1170   29.3610  -23.5430 H   0  0  0  0  0  0  0  0  0  0  0  0
   -1.0133   27.9708  -27.6714 H   0  0  0  0  0  0  0  0  0  0  0  0
   -5.6948   23.8643  -29.7584 H   0  0  0  0  0  0  0  0  0  0  0  0
   -6.9340   21.9346  -30.7428 H   0  0  0  0  0  0  0  0  0  0  0  0
   -5.7624   20.3316  -32.2552 H   0  0  0  0  0  0  0  0  0  0  0  0
   -2.0470   20.7240  -35.1520 H   0  0  0  0  0  0  0  0  0  0  0  0
   -2.1590   22.0680  -34.1570 H   0  0  0  0  0  0  0  0  0  0  0  0
   -2.0957   22.5887  -31.7967 H   0  0  0  0  0  0  0  0  0  0  0  0
   -0.3620   20.5437  -28.9250 H   0  0  0  0  0  0  0  0  0  0  0  0
  1  2  1  0
  2  3  2  0
  2  4  1  0
  4  5  2  0
  5  6  1  0
  6  7  2  0
  7  8  1  0
  8  9  1  0
  9 10  2  3
 10 11  1  0
 11 12  1  0
 12 13  2  0
 13 14  1  0
 14 15  2  0
 15 16  1  0
 16 17  1  0
 15 18  1  0
 18 19  2  0
 19 20  1  0
 20 21  1  0
 21 22  2  3
 22 23  1  0
 23 24  2  0
 24 25  1  0
 25 26  2  0
 26 27  1  0
 27 28  1  0
 28 29  1  0
 28 30  2  0
 28 31  2  0
 27 32  2  0
  8 33  2  0
 33  4  1  0
 21 10  1  0
 32 23  1  0
 19 12  1  0
  1 34  1  0
  5 35  1  0
  6 36  1  0
  7 37  1  0
 13 38  1  0
 14 39  1  0
 16 40  1  0
 16 41  1  0
 17 42  1  0
 17 43  1  0
 18 44  1  0
 24 45  1  0
 25 46  1  0
 26 47  1  0
 29 48  1  0
 29 49  1  0
 32 50  1  0
 33 51  1  0
M  CHG  3   1  -1  11  -1  20  -1
M  END
>  <UniqueID>  (31) 
30

>  <SMILES>  (31) 
[NH-]C(=O)c1cccc(N=c2[n-]c3ccc(CN)cc3[n-]c2=Nc2cccc(S(N)(=O)=O)c2)c1

>  <Energy>  (31) 
75.62539864040919

>  <Genealogy>  (31) 
[NH-]C(=O)c1cccc(N=c2[n-]c3ccc(CN)cc3[n-]c2=Nc2cccc(S(N)(=O)=O)c2)c1 (protonated)
[NH-]C(=O)c1cccc(N=c2[n-]c3ccc(CN)cc3[n-]c2=Nc2cccc(S(N)(=O)=O)c2)c1 (3D coordinates assigned)
[NH-]C(=O)c1cccc(N=c2[n-]c3ccc(CN)cc3[n-]c2=Nc2cccc(S(N)(=O)=O)c2)c1 (optimized conformer: 75.62539864040919 kcal/mol)

>  <smiles>  (31) 
NCc1ccc2[nH]c(=Nc3cccc(C(N)=O)c3)c(=Nc3cccc(S(N)(=O)=O)c3)[nH]c2c1

>  <score_type>  (31) 
oracle

>  <origin>  (31) 
adgpu

>  <m_score__min__energy>  (31) 
-12.449999999999999

>  <m_primary>  (31) 
energy

$$$$
31:0
     RDKit          3D

 31 33  0  0  0  0  0  0  0  0999 V2000
   -3.0293   19.7071  -34.7827 H   0  0  0  0  0  0  0  0  0  0  0  0
   -3.3650   20.0700  -33.8000 C   0  0  0  0  0  0  0  0  0  0  0  0
   -3.5690   21.3290  -33.4890 O   0  0  0  0  0  0  0  0  0  0  0  0
   -3.9670   21.3960  -32.2390 C   0  0  0  0  0  0  0  0  0  0  0  0
   -4.2790   22.6440  -31.5190 C   0  0  0  0  0  0  0  0  0  0  0  0
   -3.3550   23.2250  -30.7050 N   0  0  0  0  0  0  0  0  0  0  0  0
   -3.8060   24.3860  -30.1800 C   0  0  0  0  0  0  0  0  0  0  0  0
   -3.1160   25.1310  -29.3720 N   0  0  0  0  0  0  0  0  0  0  0  0
   -1.7650   24.8030  -28.9350 C   0  0  0  0  0  0  0  0  0  0  0  0
   -1.7273   24.7938  -27.8357 H   0  0  0  0  0  0  0  0  0  0  0  0
   -1.4859   23.8110  -29.3197 H   0  0  0  0  0  0  0  0  0  0  0  0
   -1.0621   25.5566  -29.3197 H   0  0  0  0  0  0  0  0  0  0  0  0
   -5.3580   24.7530  -30.6890 S   0  0  0  0  0  0  0  0  0  0  0  0
   -5.4790   23.3640  -31.6410 C   0  0  0  0  0  0  0  0  0  0  0  0
   -6.7070   22.9570  -32.3510 C   0  0  0  0  0  0  0  0  0  0  0  0
   -7.2890   23.7950  -33.0930 O   0  0  0  0  0  0  0  0  0  0  0  0
   -7.2420   21.5770  -32.2570 C   0  0  0  0  0  0  0  0  0  0  0  0
   -8.2150   21.2400  -31.2970 C   0  0  0  0  0  0  0  0  0  0  0  0
   -8.5812   22.0060  -30.5976 H   0  0  0  0  0  0  0  0  0  0  0  0
   -8.7190   19.9370  -31.2270 C   0  0  0  0  0  0  0  0  0  0  0  0
   -9.4755   19.6810  -30.4706 H   0  0  0  0  0  0  0  0  0  0  0  0
   -8.2640   18.9610  -32.1150 C   0  0  0  0  0  0  0  0  0  0  0  0
   -8.6587   17.9360  -32.0547 H   0  0  0  0  0  0  0  0  0  0  0  0
   -7.3080   19.2850  -33.0800 C   0  0  0  0  0  0  0  0  0  0  0  0
   -6.9526   18.5159  -33.7816 H   0  0  0  0  0  0  0  0  0  0  0  0
   -6.8020   20.5870  -33.1550 C   0  0  0  0  0  0  0  0  0  0  0  0
   -6.0545   20.8388  -33.9217 H   0  0  0  0  0  0  0  0  0  0  0  0
   -4.0220   20.1240  -31.6980 C   0  0  0  0  0  0  0  0  0  0  0  0
   -4.3140   19.8502  -30.6734 H   0  0  0  0  0  0  0  0  0  0  0  0
   -3.6350   19.2710  -32.7090 C   0  0  0  0  0  0  0  0  0  0  0  0
   -3.5573   18.1750  -32.6563 H   0  0  0  0  0  0  0  0  0  0  0  0
  1  2  1  0
  2  3  1  0
  3  4  1  0
  4  5  1  0
  5  6  1  0
  6  7  1  0
  7  8  2  0
  8  9  1  0
  9 10  1  0
  9 11  1  0
  9 12  1  0
  7 13  1  0
 13 14  1  0
 14 15  1  0
 15 16  2  0
 15 17  1  0
 17 18  2  0
 18 19  1  0
 18 20  1  0
 20 21  1  0
 20 22  2  0
 22 23  1  0
 22 24  1  0
 24 25  1  0
 24 26  2  0
 26 27  1  0
  4 28  2  0
 28 29  1  0
 28 30  1  0
 30 31  1  0
 30  2  2  0
 14  5  2  0
 26 17  1  0
M  CHG  1   6  -1
M  END
>  <UniqueID>  (32) 
31

>  <SMILES>  (32) 
C/N=c1\[n-]c(-c2ccco2)c(C(=O)c2ccccc2)s1

>  <Energy>  (32) 
94.99171450855383

>  <Genealogy>  (32) 
CN=c1[n-]c(-c2ccco2)c(C(=O)c2ccccc2)s1 (protonated)
C/N=c1\[n-]c(-c2ccco2)c(C(=O)c2ccccc2)s1 (cis-trans isomerization)
C/N=c1\[n-]c(-c2ccco2)c(C(=O)c2ccccc2)s1 (3D coordinates assigned)
C/N=c1\[n-]c(-c2ccco2)c(C(=O)c2ccccc2)s1 (optimized conformer: 94.99171450855383 kcal/mol)

>  <smiles>  (32) 
CN=c1[nH]c(-c2ccco2)c(C(=O)c2ccccc2)s1

>  <score_type>  (32) 
oracle

>  <origin>  (32) 
adgpu

>  <m_score__min__energy>  (32) 
-8.3800000000000008

>  <m_primary>  (32) 
energy

$$$$
32:0
     RDKit          3D

 51 53  0  0  0  0  0  0  0  0999 V2000
   -9.6080   20.9490  -31.9030 C   0  0  0  0  0  0  0  0  0  0  0  0
   -8.2850   21.6670  -31.8410 C   0  0  0  0  0  0  0  0  0  0  0  0
   -8.2860   23.0680  -31.7490 C   0  0  0  0  0  0  0  0  0  0  0  0
   -7.0880   23.7790  -31.6770 C   0  0  0  0  0  0  0  0  0  0  0  0
   -5.8630   23.1020  -31.7010 C   0  0  0  0  0  0  0  0  0  0  0  0
   -4.6140   23.8030  -31.6300 N   0  0  0  0  0  0  0  0  0  0  0  0
   -3.8390   24.0250  -30.4430 C   0  0  0  0  0  0  0  0  0  0  0  0
   -3.6650   25.2070  -30.0530 O   0  0  0  0  0  0  0  0  0  0  0  0
   -3.3180   22.8940  -29.6360 C   0  0  0  0  0  0  0  0  0  0  0  0
   -2.6620   21.8400  -30.2960 C   0  0  0  0  0  0  0  0  0  0  0  0
   -2.0850   20.7930  -29.5730 C   0  0  0  0  0  0  0  0  0  0  0  0
   -2.1470   20.7910  -28.1810 C   0  0  0  0  0  0  0  0  0  0  0  0
   -2.8000   21.8240  -27.5080 C   0  0  0  0  0  0  0  0  0  0  0  0
   -3.4150   22.8640  -28.2220 C   0  0  0  0  0  0  0  0  0  0  0  0
   -4.2250   24.1740  -27.2830 S   0  0  0  0  0  0  0  0  0  0  0  0
   -2.6890   25.0210  -26.8880 C   0  0  0  0  0  0  0  0  0  0  0  0
   -2.5440   25.6540  -25.6460 C   0  0  0  0  0  0  0  0  0  0  0  0
   -1.3540   26.3170  -25.3290 C   0  0  0  0  0  0  0  0  0  0  0  0
   -0.2990   26.3390  -26.2470 C   0  0  0  0  0  0  0  0  0  0  0  0
    1.1940   27.1710  -25.8510 Cl  0  0  0  0  0  0  0  0  0  0  0  0
   -0.4340   25.6930  -27.4800 C   0  0  0  0  0  0  0  0  0  0  0  0
   -1.6240   25.0310  -27.7980 C   0  0  0  0  0  0  0  0  0  0  0  0
   -5.8510   21.7050  -31.7470 C   0  0  0  0  0  0  0  0  0  0  0  0
   -7.0490   20.9730  -31.8180 C   0  0  0  0  0  0  0  0  0  0  0  0
   -6.9440   19.2040  -31.9180 S   0  0  0  0  0  0  0  0  0  0  0  0
   -5.7200   18.7340  -31.1780 O   0  0  0  0  0  0  0  0  0  0  0  0
   -8.1450   18.5850  -31.2600 O   0  0  0  0  0  0  0  0  0  0  0  0
   -6.8490   18.6990  -33.5880 N   0  0  0  0  0  0  0  0  0  0  0  0
   -5.6490   19.2650  -34.2180 C   0  0  0  0  0  0  0  0  0  0  0  0
   -6.8300   17.2330  -33.6650 C   0  0  0  0  0  0  0  0  0  0  0  0
   -9.9675   20.7539  -30.8819 H   0  0  0  0  0  0  0  0  0  0  0  0
  -10.3396   21.5738  -32.4362 H   0  0  0  0  0  0  0  0  0  0  0  0
   -9.4828   19.9950  -32.4362 H   0  0  0  0  0  0  0  0  0  0  0  0
   -9.2424   23.6112  -31.7335 H   0  0  0  0  0  0  0  0  0  0  0  0
   -7.1060   24.8762  -31.6010 H   0  0  0  0  0  0  0  0  0  0  0  0
   -2.6024   21.8397  -31.3944 H   0  0  0  0  0  0  0  0  0  0  0  0
   -1.5819   19.9705  -30.1025 H   0  0  0  0  0  0  0  0  0  0  0  0
   -1.6803   19.9736  -27.6118 H   0  0  0  0  0  0  0  0  0  0  0  0
   -2.8331   21.8233  -26.4085 H   0  0  0  0  0  0  0  0  0  0  0  0
   -3.3686   25.6293  -24.9184 H   0  0  0  0  0  0  0  0  0  0  0  0
   -1.2478   26.8214  -24.3572 H   0  0  0  0  0  0  0  0  0  0  0  0
    0.3970   25.7057  -28.2006 H   0  0  0  0  0  0  0  0  0  0  0  0
   -1.7241   24.5168  -28.7652 H   0  0  0  0  0  0  0  0  0  0  0  0
   -4.8898   21.1705  -31.7273 H   0  0  0  0  0  0  0  0  0  0  0  0
   -7.6940   19.0520  -34.0940 H   0  0  0  0  0  0  0  0  0  0  0  0
   -4.9471   19.5961  -33.4384 H   0  0  0  0  0  0  0  0  0  0  0  0
   -5.1674   18.4991  -34.8437 H   0  0  0  0  0  0  0  0  0  0  0  0
   -5.9337   20.1237  -34.8437 H   0  0  0  0  0  0  0  0  0  0  0  0
   -6.8245   16.8125  -32.6486 H   0  0  0  0  0  0  0  0  0  0  0  0
   -7.7237   16.8824  -34.2021 H   0  0  0  0  0  0  0  0  0  0  0  0
   -5.9275   16.9057  -34.2021 H   0  0  0  0  0  0  0  0  0  0  0  0
  1  2  1  0
  2  3  2  0
  3  4  1  0
  4  5  2  0
  5  6  1  0
  6  7  1  0
  7  8  2  0
  7  9  1  0
  9 10  2  0
 10 11  1  0
 11 12  2  0
 12 13  1  0
 13 14  2  0
 14 15  1  0
 15 16  1  0
 16 17  2  0
 17 18  1  0
 18 19  2  0
 19 20  1  0
 19 21  1  0
 21 22  2  0
  5 23  1  0
 23 24  2  0
 24 25  1  0
 25 26  2  0
 25 27  2  0
 25 28  1  0
 28 29  1  0
 28 30  1  0
 24  2  1  0
 14  9  1  0
 22 16  1  0
  1 31  1  0
  1 32  1  0
  1 33  1  0
  3 34  1  0
  4 35  1  0
 10 36  1  0
 11 37  1  0
 12 38  1  0
 13 39  1  0
 17 40  1  0
 18 41  1  0
 21 42  1  0
 22 43  1  0
 23 44  1  0
 28 45  1  0
 29 46  1  0
 29 47  1  0
 29 48  1  0
 30 49  1  0
 30 50  1  0
 30 51  1  0
M  CHG  2   6  -1  28   1
M  END
>  <UniqueID>  (33) 
32

>  <SMILES>  (33) 
Cc1ccc([N-]C(=O)c2ccccc2Sc2ccc(Cl)cc2)cc1S(=O)(=O)[NH+](C)C

>  <Energy>  (33) 
58.09102637705988

>  <Genealogy>  (33) 
Cc1ccc([N-]C(=O)c2ccccc2Sc2ccc(Cl)cc2)cc1S(=O)(=O)[NH+](C)C (protonated)
Cc1ccc([N-]C(=O)c2ccccc2Sc2ccc(Cl)cc2)cc1S(=O)(=O)[NH+](C)C (3D coordinates assigned)
Cc1ccc([N-]C(=O)c2ccccc2Sc2ccc(Cl)cc2)cc1S(=O)(=O)[NH+](C)C (optimized conformer: 58.09102637705988 kcal/mol)

>  <smiles>  (33) 
Cc1ccc(NC(=O)c2ccccc2Sc2ccc(Cl)cc2)cc1S(=O)(=O)N(C)C

>  <score_type>  (33) 
oracle

>  <origin>  (33) 
adgpu

>  <m_score__min__energy>  (33) 
-11.5

>  <m_primary>  (33) 
energy

$$$$
33:0
     RDKit          3D

 36 38  0  0  1  0  0  0  0  0999 V2000
   -9.4930   19.4340  -32.8630 N   0  0  0  0  0  0  0  0  0  0  0  0
   -8.7340   20.2700  -32.5750 C   0  0  0  0  0  0  0  0  0  0  0  0
   -7.7910   21.3120  -32.2040 C   0  0  0  0  0  0  0  0  0  0  0  0
   -6.4600   21.0970  -32.5320 C   0  0  0  0  0  0  0  0  0  0  0  0
   -5.5530   22.0780  -32.1860 C   0  0  0  0  0  0  0  0  0  0  0  0
   -5.9560   23.2470  -31.5290 C   0  0  0  0  0  0  0  0  0  0  0  0
   -4.9170   24.1730  -31.2330 N   0  0  0  0  0  0  0  0  0  0  0  0
   -4.2900   24.0340  -30.1210 C   0  0  0  0  0  0  0  0  0  0  0  0
   -4.5660   23.0450  -29.2010 C   0  0  0  0  0  0  0  0  0  0  0  0
   -3.8210   22.9960  -28.0320 C   0  0  0  0  0  0  0  0  0  0  0  0
   -2.8490   23.8750  -27.7740 N   0  0  0  0  0  0  0  0  0  0  0  0
   -2.5870   24.8470  -28.6920 C   0  0  0  0  0  0  0  0  0  0  0  0
   -1.6770   25.7300  -28.5320 N   0  0  0  0  0  0  0  0  0  0  0  0
   -0.8710   25.7460  -27.3600 C   0  0  0  0  0  0  0  0  0  0  0  0
   -1.2970   26.1950  -26.1450 C   0  0  0  0  0  0  0  0  0  0  0  0
   -0.4320   26.1710  -25.0500 C   0  0  0  0  0  0  0  0  0  0  0  0
    0.8450   25.7020  -25.1760 C   0  0  0  0  0  0  0  0  0  0  0  0
    1.7030   25.6830  -24.0700 O   0  0  0  0  0  0  0  0  0  0  0  0
    1.2910   25.2450  -26.3920 C   0  0  0  0  0  0  0  0  0  0  0  0
    0.4260   25.2760  -27.4580 C   0  0  0  0  0  0  0  0  0  0  0  0
   -3.3050   24.9190  -29.8510 N   0  0  0  0  0  0  0  0  0  0  0  0
   -7.2740   23.4510  -31.2080 C   0  0  0  0  0  0  0  0  0  0  0  0
   -8.2030   22.4630  -31.5550 C   0  0  0  0  0  0  0  0  0  0  0  0
   -6.1400   20.1798  -33.0480 H   0  0  0  0  0  0  0  0  0  0  0  0
   -4.4899   21.9384  -32.4318 H   0  0  0  0  0  0  0  0  0  0  0  0
   -5.3614   22.3092  -29.3903 H   0  0  0  0  0  0  0  0  0  0  0  0
   -4.0374   22.2089  -27.2946 H   0  0  0  0  0  0  0  0  0  0  0  0
   -2.2620   23.8800  -26.9130 H   0  0  0  0  0  0  0  0  0  0  0  0
   -2.3222   26.5761  -26.0279 H   0  0  0  0  0  0  0  0  0  0  0  0
   -0.7829   26.5344  -24.0729 H   0  0  0  0  0  0  0  0  0  0  0  0
    1.3650   25.3570  -23.1740 H   0  0  0  0  0  0  0  0  0  0  0  0
    2.3161   24.8635  -26.5091 H   0  0  0  0  0  0  0  0  0  0  0  0
    0.7804   24.9108  -28.4332 H   0  0  0  0  0  0  0  0  0  0  0  0
   -3.0910   25.6730  -30.5470 H   0  0  0  0  0  0  0  0  0  0  0  0
   -7.5929   24.3680  -30.6909 H   0  0  0  0  0  0  0  0  0  0  0  0
   -9.2664   22.6022  -31.3105 H   0  0  0  0  0  0  0  0  0  0  0  0
  1  2  3  0
  2  3  1  0
  3  4  2  0
  4  5  1  0
  5  6  2  0
  6  7  1  0
  7  8  2  0
  8  9  1  0
  9 10  2  0
 10 11  1  0
 11 12  1  0
 12 13  2  0
 13 14  1  0
 14 15  2  0
 15 16  1  0
 16 17  2  0
 17 18  1  0
 17 19  1  0
 19 20  2  0
 12 21  1  0
  6 22  1  0
 22 23  2  0
 23  3  1  0
 21  8  1  0
 20 14  1  0
  4 24  1  0
  5 25  1  0
  9 26  1  0
 10 27  1  0
 11 28  1  0
 15 29  1  0
 16 30  1  0
 18 31  1  0
 19 32  1  0
 20 33  1  0
 21 34  1  0
 22 35  1  0
 23 36  1  0
M  END
>  <smiles>  (34) 
N#Cc1ccc(N=c2cc[nH]c(=Nc3ccc(O)cc3)[nH]2)cc1

>  <score_type>  (34) 
oracle

>  <origin>  (34) 
adgpu

>  <m_score__min__energy>  (34) 
-9.0800000000000001

>  <m_primary>  (34) 
energy

$$$$
34:0
     RDKit          3D

 49 52  0  0  0  0  0  0  0  0999 V2000
   -9.7680   20.9540  -32.2390 C   0  0  0  0  0  0  0  0  0  0  0  0
   -9.3120   22.2970  -32.1230 O   0  0  0  0  0  0  0  0  0  0  0  0
   -8.0690   22.6680  -31.5870 C   0  0  0  0  0  0  0  0  0  0  0  0
   -7.1000   23.3620  -32.3380 C   0  0  0  0  0  0  0  0  0  0  0  0
   -5.8750   23.7080  -31.7580 C   0  0  0  0  0  0  0  0  0  0  0  0
   -5.6040   23.3720  -30.4250 C   0  0  0  0  0  0  0  0  0  0  0  0
   -4.0500   23.8010  -29.7190 S   0  0  0  0  0  0  0  0  0  0  0  0
   -4.2370   24.2000  -28.2810 O   0  0  0  0  0  0  0  0  0  0  0  0
   -3.4900   24.9750  -30.4730 O   0  0  0  0  0  0  0  0  0  0  0  0
   -2.9700   22.4280  -29.8450 N   0  0  0  0  0  0  0  0  0  0  0  0
   -3.0840   21.5180  -28.6800 C   0  0  0  0  0  0  0  0  0  0  0  0
   -1.9650   21.7110  -27.6400 C   0  0  0  0  0  0  0  0  0  0  0  0
   -1.5340   23.1150  -27.6350 N   0  0  0  0  0  0  0  0  0  0  0  0
   -0.7460   23.4960  -26.4420 C   0  0  0  0  0  0  0  0  0  0  0  0
   -0.8000   24.9740  -26.1130 C   0  0  0  0  0  0  0  0  0  0  0  0
   -1.2170   25.4070  -24.8270 C   0  0  0  0  0  0  0  0  0  0  0  0
   -1.2720   26.7790  -24.5170 C   0  0  0  0  0  0  0  0  0  0  0  0
   -0.9150   27.6840  -25.5100 C   0  0  0  0  0  0  0  0  0  0  0  0
   -0.5290   27.2790  -26.7450 C   0  0  0  0  0  0  0  0  0  0  0  0
   -0.4600   25.9340  -27.0940 C   0  0  0  0  0  0  0  0  0  0  0  0
   -0.2400   28.3840  -27.5220 O   0  0  0  0  0  0  0  0  0  0  0  0
   -0.4590   29.5570  -26.7240 C   0  0  0  0  0  0  0  0  0  0  0  0
   -0.8900   29.0630  -25.4470 O   0  0  0  0  0  0  0  0  0  0  0  0
   -0.8960   23.5020  -28.9100 C   0  0  0  0  0  0  0  0  0  0  0  0
   -1.5820   22.8400  -30.1250 C   0  0  0  0  0  0  0  0  0  0  0  0
   -6.5660   22.6780  -29.6780 C   0  0  0  0  0  0  0  0  0  0  0  0
   -7.7900   22.3310  -30.2580 C   0  0  0  0  0  0  0  0  0  0  0  0
   -9.9127   20.5279  -31.2352 H   0  0  0  0  0  0  0  0  0  0  0  0
  -10.7224   20.9367  -32.7857 H   0  0  0  0  0  0  0  0  0  0  0  0
   -9.0214   20.3592  -32.7857 H   0  0  0  0  0  0  0  0  0  0  0  0
   -7.3073   23.6327  -33.3838 H   0  0  0  0  0  0  0  0  0  0  0  0
   -5.1210   24.2463  -32.3511 H   0  0  0  0  0  0  0  0  0  0  0  0
   -4.0513   21.7001  -28.1889 H   0  0  0  0  0  0  0  0  0  0  0  0
   -2.9979   20.4900  -29.0619 H   0  0  0  0  0  0  0  0  0  0  0  0
   -2.3415   21.4401  -26.6426 H   0  0  0  0  0  0  0  0  0  0  0  0
   -1.1111   21.0676  -27.8985 H   0  0  0  0  0  0  0  0  0  0  0  0
   -1.1330   22.9352  -25.5785 H   0  0  0  0  0  0  0  0  0  0  0  0
    0.3045   23.2583  -26.6657 H   0  0  0  0  0  0  0  0  0  0  0  0
   -1.4995   24.6642  -24.0664 H   0  0  0  0  0  0  0  0  0  0  0  0
   -1.5873   27.1239  -23.5212 H   0  0  0  0  0  0  0  0  0  0  0  0
   -0.1500   25.6263  -28.1036 H   0  0  0  0  0  0  0  0  0  0  0  0
    0.4719   30.1339  -26.6211 H   0  0  0  0  0  0  0  0  0  0  0  0
   -1.1998   30.2323  -27.1770 H   0  0  0  0  0  0  0  0  0  0  0  0
   -0.9565   24.5948  -29.0200 H   0  0  0  0  0  0  0  0  0  0  0  0
    0.1497   23.1618  -28.8834 H   0  0  0  0  0  0  0  0  0  0  0  0
   -1.5901   23.5582  -30.9581 H   0  0  0  0  0  0  0  0  0  0  0  0
   -1.0115   21.9328  -30.3729 H   0  0  0  0  0  0  0  0  0  0  0  0
   -6.3574   22.4057  -28.6328 H   0  0  0  0  0  0  0  0  0  0  0  0
   -8.5402   21.7883  -29.6642 H   0  0  0  0  0  0  0  0  0  0  0  0
  1  2  1  0
  2  3  1  0
  3  4  2  0
  4  5  1  0
  5  6  2  0
  6  7  1  0
  7  8  2  0
  7  9  2  0
  7 10  1  0
 10 11  1  0
 11 12  1  0
 12 13  1  0
 13 14  1  0
 14 15  1  0
 15 16  2  0
 16 17  1  0
 17 18  2  0
 18 19  1  0
 19 20  2  0
 19 21  1  0
 21 22  1  0
 22 23  1  0
 13 24  1  0
 24 25  1  0
  6 26  1  0
 26 27  2  0
 27  3  1  0
 25 10  1  0
 20 15  1  0
 23 18  1  0
  1 28  1  0
  1 29  1  0
  1 30  1  0
  4 31  1  0
  5 32  1  0
 11 33  1  0
 11 34  1  0
 12 35  1  0
 12 36  1  0
 14 37  1  0
 14 38  1  0
 16 39  1  0
 17 40  1  0
 20 41  1  0
 22 42  1  0
 22 43  1  0
 24 44  1  0
 24 45  1  0
 25 46  1  0
 25 47  1  0
 26 48  1  0
 27 49  1  0
M  END
>  <UniqueID>  (35) 
33

>  <SMILES>  (35) 
COc1ccc(S(=O)(=O)N2CCN(Cc3ccc4c(c3)OCO4)CC2)cc1

>  <Energy>  (35) 
91.9118920929219

>  <Genealogy>  (35) 
COc1ccc(S(=O)(=O)N2CCN(Cc3ccc4c(c3)OCO4)CC2)cc1 (3D coordinates assigned)
COc1ccc(S(=O)(=O)N2CCN(Cc3ccc4c(c3)OCO4)CC2)cc1 (nonaromatic ring conformer: 91.9118920929219 kcal/mol)

>  <smiles>  (35) 
COc1ccc(S(=O)(=O)N2CCN(Cc3ccc4c(c3)OCO4)CC2)cc1

>  <score_type>  (35) 
oracle

>  <origin>  (35) 
adgpu

>  <m_score__min__energy>  (35) 
-8.3000000000000007

>  <m_primary>  (35) 
energy

$$$$
35:0
     RDKit          3D

 35 37  0  0  0  0  0  0  0  0999 V2000
   -6.5560   16.8780  -34.2110 O   0  0  0  0  0  0  0  0  0  0  0  0
   -5.7400   17.7590  -34.5900 C   0  0  0  0  0  0  0  0  0  0  0  0
   -4.9820   17.5280  -35.7310 O   0  0  0  0  0  0  0  0  0  0  0  0
   -5.5900   19.0220  -33.8320 C   0  0  0  0  0  0  0  0  0  0  0  0
   -4.3170   19.5010  -33.4820 C   0  0  0  0  0  0  0  0  0  0  0  0
   -4.1800   20.6940  -32.7660 C   0  0  0  0  0  0  0  0  0  0  0  0
   -5.3120   21.4330  -32.3790 C   0  0  0  0  0  0  0  0  0  0  0  0
   -5.1520   22.6630  -31.6410 N   0  0  0  0  0  0  0  0  0  0  0  0
   -4.0270   23.1160  -31.0430 C   0  0  0  0  0  0  0  0  0  0  0  0
   -4.3240   24.3350  -30.4650 C   0  0  0  0  0  0  0  0  0  0  0  0
   -3.4700   25.2110  -29.7180 N   0  0  0  0  0  0  0  0  0  0  0  0
   -2.1620   24.9200  -29.2080 C   0  0  0  0  0  0  0  0  0  0  0  0
   -1.2420   25.7740  -29.3130 O   0  0  0  0  0  0  0  0  0  0  0  0
   -1.8800   23.6170  -28.5440 C   0  0  0  0  0  0  0  0  0  0  0  0
   -2.9580   22.7910  -28.1630 C   0  0  0  0  0  0  0  0  0  0  0  0
   -2.7330   21.5620  -27.5400 C   0  0  0  0  0  0  0  0  0  0  0  0
   -1.4310   21.1340  -27.2840 C   0  0  0  0  0  0  0  0  0  0  0  0
   -1.2090   19.9100  -26.6650 O   0  0  0  0  0  0  0  0  0  0  0  0
   -0.3490   21.9360  -27.6520 C   0  0  0  0  0  0  0  0  0  0  0  0
   -0.5600   23.1740  -28.2790 C   0  0  0  0  0  0  0  0  0  0  0  0
    0.5420   23.9540  -28.6260 O   0  0  0  0  0  0  0  0  0  0  0  0
   -5.6490   24.5730  -30.7470 C   0  0  0  0  0  0  0  0  0  0  0  0
   -6.1310   23.5430  -31.4660 N   0  0  0  0  0  0  0  0  0  0  0  0
   -6.5860   20.9530  -32.7370 C   0  0  0  0  0  0  0  0  0  0  0  0
   -6.7230   19.7610  -33.4530 C   0  0  0  0  0  0  0  0  0  0  0  0
   -3.4210   18.9333  -33.7734 H   0  0  0  0  0  0  0  0  0  0  0  0
   -3.1761   21.0584  -32.5026 H   0  0  0  0  0  0  0  0  0  0  0  0
   -3.0524   22.6064  -31.0208 H   0  0  0  0  0  0  0  0  0  0  0  0
   -3.9893   23.1194  -28.3593 H   0  0  0  0  0  0  0  0  0  0  0  0
   -3.5852   20.9297  -27.2503 H   0  0  0  0  0  0  0  0  0  0  0  0
    0.6769   21.5950  -27.4490 H   0  0  0  0  0  0  0  0  0  0  0  0
    0.4430   24.9180  -28.9200 H   0  0  0  0  0  0  0  0  0  0  0  0
   -6.2207   25.4598  -30.4358 H   0  0  0  0  0  0  0  0  0  0  0  0
   -7.4826   21.5220  -32.4502 H   0  0  0  0  0  0  0  0  0  0  0  0
   -7.7260   19.3983  -33.7221 H   0  0  0  0  0  0  0  0  0  0  0  0
  1  2  2  0
  2  3  1  0
  2  4  1  0
  4  5  2  0
  5  6  1  0
  6  7  2  0
  7  8  1  0
  8  9  1  0
  9 10  2  0
 10 11  1  0
 11 12  1  0
 12 13  2  0
 12 14  1  0
 14 15  2  0
 15 16  1  0
 16 17  2  0
 17 18  1  0
 17 19  1  0
 19 20  2  0
 20 21  1  0
 10 22  1  0
 22 23  2  0
  7 24  1  0
 24 25  2  0
 25  4  1  0
 23  8  1  0
 20 14  1  0
  5 26  1  0
  6 27  1  0
  9 28  1  0
 15 29  1  0
 16 30  1  0
 19 31  1  0
 21 32  1  0
 22 33  1  0
 24 34  1  0
 25 35  1  0
M  CHG  3   3  -1  11  -1  18  -1
M  END
>  <UniqueID>  (36) 
34

>  <SMILES>  (36) 
O=C([O-])c1ccc(-n2cc([N-]C(=O)c3ccc([O-])cc3O)cn2)cc1

>  <Energy>  (36) 
76.77706781919625

>  <Genealogy>  (36) 
O=C([O-])c1ccc(-n2cc([N-]C(=O)c3ccc([O-])cc3O)cn2)cc1 (protonated)
O=C([O-])c1ccc(-n2cc([N-]C(=O)c3ccc([O-])cc3O)cn2)cc1 (3D coordinates assigned)
O=C([O-])c1ccc(-n2cc([N-]C(=O)c3ccc([O-])cc3O)cn2)cc1 (optimized conformer: 76.77706781919625 kcal/mol)

>  <smiles>  (36) 
O=C(O)c1ccc(-n2cc(NC(=O)c3ccc(O)cc3O)cn2)cc1

>  <score_type>  (36) 
oracle

>  <origin>  (36) 
adgpu

>  <m_score__min__energy>  (36) 
-10.369999999999999

>  <m_primary>  (36) 
energy

$$$$
36:0
     RDKit          3D

 35 37  0  0  0  0  0  0  0  0999 V2000
   -1.5323   19.1811  -27.7674 H   0  0  0  0  0  0  0  0  0  0  0  0
   -1.6170   20.1020  -28.3630 C   0  0  0  0  0  0  0  0  0  0  0  0
   -2.4170   21.0690  -27.8860 C   0  0  0  0  0  0  0  0  0  0  0  0
   -2.8133   20.9384  -26.8682 H   0  0  0  0  0  0  0  0  0  0  0  0
   -2.8100   22.2940  -28.6130 C   0  0  0  0  0  0  0  0  0  0  0  0
   -3.9720   22.2840  -29.3980 C   0  0  0  0  0  0  0  0  0  0  0  0
   -4.6037   21.3840  -29.4283 H   0  0  0  0  0  0  0  0  0  0  0  0
   -4.3320   23.4110  -30.1420 C   0  0  0  0  0  0  0  0  0  0  0  0
   -5.2500   23.3982  -30.7479 H   0  0  0  0  0  0  0  0  0  0  0  0
   -3.5280   24.5550  -30.1180 C   0  0  0  0  0  0  0  0  0  0  0  0
   -3.8980   25.6760  -30.8510 O   0  0  0  0  0  0  0  0  0  0  0  0
   -2.3540   24.5670  -29.3560 C   0  0  0  0  0  0  0  0  0  0  0  0
   -1.5470   25.6980  -29.3350 O   0  0  0  0  0  0  0  0  0  0  0  0
   -1.9870   23.4350  -28.6210 C   0  0  0  0  0  0  0  0  0  0  0  0
   -1.0494   23.4369  -28.0458 H   0  0  0  0  0  0  0  0  0  0  0  0
   -0.8420   20.1670  -29.6160 C   0  0  0  0  0  0  0  0  0  0  0  0
    0.4210   19.7170  -29.7170 N   0  0  0  0  0  0  0  0  0  0  0  0
    0.8210   19.9800  -30.9480 N   0  0  0  0  0  0  0  0  0  0  0  0
   -0.2000   20.6060  -31.5610 C   0  0  0  0  0  0  0  0  0  0  0  0
   -0.1560   21.0110  -32.9790 C   0  0  0  0  0  0  0  0  0  0  0  0
    0.7826   21.4508  -33.3471 H   0  0  0  0  0  0  0  0  0  0  0  0
   -1.1630   20.8890  -33.8590 C   0  0  0  0  0  0  0  0  0  0  0  0
   -0.9364   21.0955  -34.9154 H   0  0  0  0  0  0  0  0  0  0  0  0
   -2.5490   20.5010  -33.5280 C   0  0  0  0  0  0  0  0  0  0  0  0
   -3.4390   21.4760  -33.0530 C   0  0  0  0  0  0  0  0  0  0  0  0
   -3.1137   22.5242  -32.9790 H   0  0  0  0  0  0  0  0  0  0  0  0
   -4.7380   21.1220  -32.6730 C   0  0  0  0  0  0  0  0  0  0  0  0
   -5.4333   21.8926  -32.3086 H   0  0  0  0  0  0  0  0  0  0  0  0
   -5.1530   19.7900  -32.7560 C   0  0  0  0  0  0  0  0  0  0  0  0
   -6.4470   19.4410  -32.3880 O   0  0  0  0  0  0  0  0  0  0  0  0
   -4.2650   18.8070  -33.2050 C   0  0  0  0  0  0  0  0  0  0  0  0
   -4.5913   17.7584  -33.2677 H   0  0  0  0  0  0  0  0  0  0  0  0
   -2.9630   19.1570  -33.5740 C   0  0  0  0  0  0  0  0  0  0  0  0
   -2.2588   18.3781  -33.9019 H   0  0  0  0  0  0  0  0  0  0  0  0
   -1.2730   20.7410  -30.7560 N   0  0  0  0  0  0  0  0  0  0  0  0
  1  2  1  0
  2  3  2  0
  3  4  1  0
  3  5  1  0
  5  6  2  0
  6  7  1  0
  6  8  1  0
  8  9  1  0
  8 10  2  0
 10 11  1  0
 10 12  1  0
 12 13  1  0
 12 14  2  0
 14 15  1  0
  2 16  1  0
 16 17  2  0
 17 18  1  0
 18 19  1  0
 19 20  1  0
 20 21  1  0
 20 22  2  0
 22 23  1  0
 22 24  1  0
 24 25  2  0
 25 26  1  0
 25 27  1  0
 27 28  1  0
 27 29  2  0
 29 30  1  0
 29 31  1  0
 31 32  1  0
 31 33  2  0
 33 34  1  0
 19 35  2  0
 14  5  1  0
 35 16  1  0
 33 24  1  0
M  CHG  4  11  -1  13  -1  18  -1  30  -1
M  END
>  <UniqueID>  (37) 
35

>  <SMILES>  (37) 
[O-]c1ccc(/C=C\c2nc(/C=C\c3ccc([O-])c([O-])c3)n[n-]2)cc1

>  <Energy>  (37) 
79.81164595369017

>  <Genealogy>  (37) 
[O-]c1ccc(C=Cc2nc(C=Cc3ccc([O-])c([O-])c3)n[n-]2)cc1 (protonated)
[O-]c1ccc(/C=C\c2nc(/C=C\c3ccc([O-])c([O-])c3)n[n-]2)cc1 (cis-trans isomerization)
[O-]c1ccc(/C=C\c2nc(/C=C\c3ccc([O-])c([O-])c3)n[n-]2)cc1 (3D coordinates assigned)
[O-]c1ccc(/C=C\c2nc(/C=C\c3ccc([O-])c([O-])c3)n[n-]2)cc1 (optimized conformer: 79.81164595369017 kcal/mol)

>  <smiles>  (37) 
Oc1ccc(C=Cc2nc(C=Cc3ccc(O)c(O)c3)n[nH]2)cc1

>  <score_type>  (37) 
oracle

>  <origin>  (37) 
adgpu

>  <m_score__min__energy>  (37) 
-13.16

>  <m_primary>  (37) 
energy

$$$$
37:0
     RDKit          3D

 63 66  0  0  0  0  0  0  0  0999 V2000
    0.4850   17.6520  -30.5120 C   0  0  0  0  0  0  0  0  0  0  0  0
   -0.7520   18.2740  -30.8580 O   0  0  0  0  0  0  0  0  0  0  0  0
   -0.8940   19.2680  -31.8420 C   0  0  0  0  0  0  0  0  0  0  0  0
   -0.2260   20.5060  -31.7480 C   0  0  0  0  0  0  0  0  0  0  0  0
   -0.3830   21.4720  -32.7460 C   0  0  0  0  0  0  0  0  0  0  0  0
   -1.2020   21.2170  -33.8450 C   0  0  0  0  0  0  0  0  0  0  0  0
   -1.8720   19.9960  -33.9480 C   0  0  0  0  0  0  0  0  0  0  0  0
   -1.7260   19.0140  -32.9540 C   0  0  0  0  0  0  0  0  0  0  0  0
   -2.4370   17.6890  -33.1090 C   0  0  0  0  0  0  0  0  0  0  0  0
   -3.4280   17.7130  -34.2760 C   0  0  0  0  0  0  0  0  0  0  0  0
   -4.6300   18.4740  -33.9280 N   0  0  0  0  0  0  0  0  0  0  0  0
   -5.6210   17.9780  -33.0120 C   0  0  0  0  0  0  0  0  0  0  0  0
   -5.4710   16.8450  -32.4790 O   0  0  0  0  0  0  0  0  0  0  0  0
   -6.8030   18.7910  -32.6440 C   0  0  0  0  0  0  0  0  0  0  0  0
   -8.0040   18.1430  -32.3090 C   0  0  0  0  0  0  0  0  0  0  0  0
   -9.1330   18.8830  -31.9620 C   0  0  0  0  0  0  0  0  0  0  0  0
   -9.0630   20.2740  -31.9620 C   0  0  0  0  0  0  0  0  0  0  0  0
   -7.9070   20.8940  -32.3080 N   0  0  0  0  0  0  0  0  0  0  0  0
   -6.7850   20.2020  -32.6580 C   0  0  0  0  0  0  0  0  0  0  0  0
   -5.6230   20.8950  -33.0210 O   0  0  0  0  0  0  0  0  0  0  0  0
   -5.0860   21.9580  -32.2860 C   0  0  0  0  0  0  0  0  0  0  0  0
   -3.7510   21.8940  -31.8720 C   0  0  0  0  0  0  0  0  0  0  0  0
   -3.1970   22.9290  -31.1160 C   0  0  0  0  0  0  0  0  0  0  0  0
   -3.9810   24.0380  -30.7530 C   0  0  0  0  0  0  0  0  0  0  0  0
   -3.4650   25.0730  -29.9050 N   0  0  0  0  0  0  0  0  0  0  0  0
   -2.3240   24.9430  -29.0420 C   0  0  0  0  0  0  0  0  0  0  0  0
   -1.2910   25.6130  -29.2950 O   0  0  0  0  0  0  0  0  0  0  0  0
   -2.3310   24.0750  -27.8990 N   0  0  0  0  0  0  0  0  0  0  0  0
   -2.0660   22.6650  -27.9200 C   0  0  0  0  0  0  0  0  0  0  0  0
   -0.7370   22.2300  -28.0080 C   0  0  0  0  0  0  0  0  0  0  0  0
   -0.4380   20.8600  -28.0840 C   0  0  0  0  0  0  0  0  0  0  0  0
    0.9800   20.4020  -28.2510 C   0  0  0  0  0  0  0  0  0  0  0  0
   -1.4830   19.9250  -28.0730 C   0  0  0  0  0  0  0  0  0  0  0  0
   -2.8070   20.3520  -27.9490 C   0  0  0  0  0  0  0  0  0  0  0  0
   -3.1030   21.7150  -27.8610 C   0  0  0  0  0  0  0  0  0  0  0  0
   -4.3930   22.1030  -27.7060 F   0  0  0  0  0  0  0  0  0  0  0  0
   -5.2960   24.1340  -31.2230 C   0  0  0  0  0  0  0  0  0  0  0  0
   -5.8500   23.0980  -31.9790 C   0  0  0  0  0  0  0  0  0  0  0  0
    0.5782   17.6051  -29.4170 H   0  0  0  0  0  0  0  0  0  0  0  0
    0.5117   16.6333  -30.9262 H   0  0  0  0  0  0  0  0  0  0  0  0
    1.3186   18.2381  -30.9262 H   0  0  0  0  0  0  0  0  0  0  0  0
    0.4227   20.7130  -30.8841 H   0  0  0  0  0  0  0  0  0  0  0  0
    0.1409   22.4357  -32.6640 H   0  0  0  0  0  0  0  0  0  0  0  0
   -1.3205   21.9774  -34.6309 H   0  0  0  0  0  0  0  0  0  0  0  0
   -2.5200   19.8014  -34.8153 H   0  0  0  0  0  0  0  0  0  0  0  0
   -1.6900   16.9024  -33.2914 H   0  0  0  0  0  0  0  0  0  0  0  0
   -2.9994   17.4907  -32.1847 H   0  0  0  0  0  0  0  0  0  0  0  0
   -2.9462   18.1802  -35.1476 H   0  0  0  0  0  0  0  0  0  0  0  0
   -3.7226   16.6787  -34.5070 H   0  0  0  0  0  0  0  0  0  0  0  0
   -4.6830   19.4670  -34.2480 H   0  0  0  0  0  0  0  0  0  0  0  0
   -8.0535   17.0442  -32.3207 H   0  0  0  0  0  0  0  0  0  0  0  0
  -10.0696   18.3737  -31.6910 H   0  0  0  0  0  0  0  0  0  0  0  0
   -9.9444   20.8695  -31.6817 H   0  0  0  0  0  0  0  0  0  0  0  0
   -3.1349   21.0241  -32.1434 H   0  0  0  0  0  0  0  0  0  0  0  0
   -2.1437   22.8764  -30.8034 H   0  0  0  0  0  0  0  0  0  0  0  0
    0.0789   22.9677  -28.0176 H   0  0  0  0  0  0  0  0  0  0  0  0
    1.4367   20.2545  -27.2612 H   0  0  0  0  0  0  0  0  0  0  0  0
    0.9957   19.4531  -28.8072 H   0  0  0  0  0  0  0  0  0  0  0  0
    1.5478   21.1624  -28.8072 H   0  0  0  0  0  0  0  0  0  0  0  0
   -1.2592   18.8517  -28.1623 H   0  0  0  0  0  0  0  0  0  0  0  0
   -3.6205   19.6121  -27.9205 H   0  0  0  0  0  0  0  0  0  0  0  0
   -5.8952   25.0282  -30.9963 H   0  0  0  0  0  0  0  0  0  0  0  0
   -6.8878   23.1743  -32.3355 H   0  0  0  0  0  0  0  0  0  0  0  0
  1  2  1  0
  2  3  1  0
  3  4  2  0
  4  5  1  0
  5  6  2  0
  6  7  1  0
  7  8  2  0
  8  9  1  0
  9 10  1  0
 10 11  1  0
 11 12  1  0
 12 13  2  0
 12 14  1  0
 14 15  2  0
 15 16  1  0
 16 17  2  0
 17 18  1  0
 18 19  2  0
 19 20  1  0
 20 21  1  0
 21 22  2  0
 22 23  1  0
 23 24  2  0
 24 25  1  0
 25 26  1  0
 26 27  2  0
 26 28  1  0
 28 29  1  0
 29 30  2  0
 30 31  1  0
 31 32  1  0
 31 33  2  0
 33 34  1  0
 34 35  2  0
 35 36  1  0
 24 37  1  0
 37 38  2  0
  8  3  1  0
 19 14  1  0
 38 21  1  0
 35 29  1  0
  1 39  1  0
  1 40  1  0
  1 41  1  0
  4 42  1  0
  5 43  1  0
  6 44  1  0
  7 45  1  0
  9 46  1  0
  9 47  1  0
 10 48  1  0
 10 49  1  0
 11 50  1  0
 15 51  1  0
 16 52  1  0
 17 53  1  0
 22 54  1  0
 23 55  1  0
 30 56  1  0
 32 57  1  0
 32 58  1  0
 32 59  1  0
 33 60  1  0
 34 61  1  0
 37 62  1  0
 38 63  1  0
M  CHG  2  25  -1  28  -1
M  END
>  <UniqueID>  (38) 
36

>  <SMILES>  (38) 
COc1ccccc1CCNC(=O)c1cccnc1Oc1ccc([N-]C(=O)[N-]c2cc(C)ccc2F)cc1

>  <Energy>  (38) 
77.62403602145733

>  <Genealogy>  (38) 
COc1ccccc1CCNC(=O)c1cccnc1Oc1ccc([N-]C(=O)[N-]c2cc(C)ccc2F)cc1 (protonated)
COc1ccccc1CCNC(=O)c1cccnc1Oc1ccc([N-]C(=O)[N-]c2cc(C)ccc2F)cc1 (3D coordinates assigned)
COc1ccccc1CCNC(=O)c1cccnc1Oc1ccc([N-]C(=O)[N-]c2cc(C)ccc2F)cc1 (optimized conformer: 77.62403602145733 kcal/mol)

>  <smiles>  (38) 
COc1ccccc1CCNC(=O)c1cccnc1Oc1ccc(NC(=O)Nc2cc(C)ccc2F)cc1

>  <score_type>  (38) 
oracle

>  <origin>  (38) 
adgpu

>  <m_score__min__energy>  (38) 
-11.800000000000001

>  <m_primary>  (38) 
energy

$$$$
38:0
     RDKit          3D

 40 42  0  0  0  0  0  0  0  0999 V2000
   -4.2000   26.2610  -30.8180 H   0  0  0  0  0  0  0  0  0  0  0  0
   -3.8490   25.2950  -30.6290 N   0  0  0  0  0  0  0  0  0  0  0  0
   -4.5630   24.2480  -30.8930 C   0  0  0  0  0  0  0  0  0  0  0  0
   -5.8010   24.4040  -31.4340 N   0  0  0  0  0  0  0  0  0  0  0  0
   -6.5940   23.3440  -31.7310 C   0  0  0  0  0  0  0  0  0  0  0  0
   -7.5902   23.5025  -32.1697 H   0  0  0  0  0  0  0  0  0  0  0  0
   -6.1330   22.0440  -31.4740 C   0  0  0  0  0  0  0  0  0  0  0  0
   -6.9500   20.8410  -31.7850 C   0  0  0  0  0  0  0  0  0  0  0  0
   -8.3060   20.7610  -31.4150 C   0  0  0  0  0  0  0  0  0  0  0  0
   -8.7802   21.6043  -30.8917 H   0  0  0  0  0  0  0  0  0  0  0  0
   -9.0530   19.6180  -31.7080 C   0  0  0  0  0  0  0  0  0  0  0  0
  -10.1129   19.5666  -31.4184 H   0  0  0  0  0  0  0  0  0  0  0  0
   -8.4590   18.5410  -32.3670 C   0  0  0  0  0  0  0  0  0  0  0  0
   -9.0555   17.6463  -32.5986 H   0  0  0  0  0  0  0  0  0  0  0  0
   -7.1110   18.5910  -32.7350 C   0  0  0  0  0  0  0  0  0  0  0  0
   -6.5610   17.4790  -33.3910 O   0  0  0  0  0  0  0  0  0  0  0  0
   -5.7900   17.5500  -34.5860 C   0  0  0  0  0  0  0  0  0  0  0  0
   -4.7248   17.6481  -34.3298 H   0  0  0  0  0  0  0  0  0  0  0  0
   -5.9425   16.6340  -35.1757 H   0  0  0  0  0  0  0  0  0  0  0  0
   -6.1072   18.4227  -35.1757 H   0  0  0  0  0  0  0  0  0  0  0  0
   -6.3580   19.7440  -32.4380 C   0  0  0  0  0  0  0  0  0  0  0  0
   -5.2955   19.7873  -32.7196 H   0  0  0  0  0  0  0  0  0  0  0  0
   -4.8900   21.8900  -30.9430 N   0  0  0  0  0  0  0  0  0  0  0  0
   -4.0830   22.9430  -30.6380 C   0  0  0  0  0  0  0  0  0  0  0  0
   -2.7480   22.6560  -30.0620 C   0  0  0  0  0  0  0  0  0  0  0  0
   -1.7480   22.6060  -30.8300 O   0  0  0  0  0  0  0  0  0  0  0  0
   -2.5800   22.4080  -28.6610 N   0  0  0  0  0  0  0  0  0  0  0  0
   -1.7490   23.1940  -27.7950 C   0  0  0  0  0  0  0  0  0  0  0  0
   -1.3930   22.6590  -26.5510 C   0  0  0  0  0  0  0  0  0  0  0  0
   -1.7770   21.6730  -26.2506 H   0  0  0  0  0  0  0  0  0  0  0  0
   -0.5530   23.3690  -25.6880 C   0  0  0  0  0  0  0  0  0  0  0  0
   -0.0960   22.6770  -24.1420 Cl  0  0  0  0  0  0  0  0  0  0  0  0
   -0.0720   24.6260  -26.0600 C   0  0  0  0  0  0  0  0  0  0  0  0
    0.6035   25.1766  -25.3888 H   0  0  0  0  0  0  0  0  0  0  0  0
   -0.4480   25.1850  -27.2840 C   0  0  0  0  0  0  0  0  0  0  0  0
   -0.0730   26.1793  -27.5682 H   0  0  0  0  0  0  0  0  0  0  0  0
   -1.3010   24.4870  -28.1540 C   0  0  0  0  0  0  0  0  0  0  0  0
   -1.7460   25.1300  -29.3550 N   0  0  0  0  0  0  0  0  0  0  0  0
   -1.6780   24.6630  -30.2860 H   0  0  0  0  0  0  0  0  0  0  0  0
   -2.2410   26.0490  -29.3130 H   0  0  0  0  0  0  0  0  0  0  0  0
  1  2  1  0
  2  3  2  0
  3  4  1  0
  4  5  1  0
  5  6  1  0
  5  7  2  0
  7  8  1  0
  8  9  2  0
  9 10  1  0
  9 11  1  0
 11 12  1  0
 11 13  2  0
 13 14  1  0
 13 15  1  0
 15 16  1  0
 16 17  1  0
 17 18  1  0
 17 19  1  0
 17 20  1  0
 15 21  2  0
 21 22  1  0
  7 23  1  0
 23 24  2  0
 24 25  1  0
 25 26  2  0
 25 27  1  0
 27 28  1  0
 28 29  2  0
 29 30  1  0
 29 31  1  0
 31 32  1  0
 31 33  2  0
 33 34  1  0
 33 35  1  0
 35 36  1  0
 35 37  2  0
 37 38  1  0
 38 39  1  0
 38 40  1  0
 24  3  1  0
 37 28  1  0
 21  8  1  0
M  CHG  2   4  -1  27  -1
M  END
>  <UniqueID>  (39) 
37

>  <SMILES>  (39) 
[H]/N=c1\[n-]cc(-c2cccc(OC)c2)nc1C(=O)[N-]c1cc(Cl)ccc1N

>  <Energy>  (39) 
56.317624611541945

>  <Genealogy>  (39) 
COc1cccc(-c2c[n-]c(=N)c(C(=O)[N-]c3cc(Cl)ccc3N)n2)c1 (protonated)
[H]/N=c1\[n-]cc(-c2cccc(OC)c2)nc1C(=O)[N-]c1cc(Cl)ccc1N (cis-trans isomerization)
[H]/N=c1\[n-]cc(-c2cccc(OC)c2)nc1C(=O)[N-]c1cc(Cl)ccc1N (3D coordinates assigned)
[H]/N=c1\[n-]cc(-c2cccc(OC)c2)nc1C(=O)[N-]c1cc(Cl)ccc1N (optimized conformer: 56.317624611541945 kcal/mol)

>  <smiles>  (39) 
COc1cccc(-c2c[nH]c(=N)c(C(=O)Nc3cc(Cl)ccc3N)n2)c1

>  <score_type>  (39) 
oracle

>  <origin>  (39) 
adgpu

>  <m_score__min__energy>  (39) 
-11.4

>  <m_primary>  (39) 
energy

$$$$
39:0
     RDKit          3D

 44 46  0  0  0  0  0  0  0  0999 V2000
   -0.0070   24.8590  -28.4630 O   0  0  0  0  0  0  0  0  0  0  0  0
   -1.0630   24.3840  -28.9600 C   0  0  0  0  0  0  0  0  0  0  0  0
   -2.1160   25.2790  -29.3430 N   0  0  0  0  0  0  0  0  0  0  0  0
   -3.5320   24.9240  -29.3710 C   0  0  0  0  0  0  0  0  0  0  0  0
   -3.9680   24.6810  -30.7470 N   0  0  0  0  0  0  0  0  0  0  0  0
   -4.9670   23.7090  -31.1000 C   0  0  0  0  0  0  0  0  0  0  0  0
   -6.2430   23.7930  -30.5180 C   0  0  0  0  0  0  0  0  0  0  0  0
   -7.2330   22.8620  -30.8410 C   0  0  0  0  0  0  0  0  0  0  0  0
   -6.9580   21.8270  -31.7440 C   0  0  0  0  0  0  0  0  0  0  0  0
   -8.1890   20.6280  -32.1360 S   0  0  0  0  0  0  0  0  0  0  0  0
   -8.5940   19.8540  -30.9120 O   0  0  0  0  0  0  0  0  0  0  0  0
   -9.3950   21.3380  -32.6830 O   0  0  0  0  0  0  0  0  0  0  0  0
   -7.5870   19.5240  -33.3350 N   0  0  0  0  0  0  0  0  0  0  0  0
   -6.8900   18.4470  -33.1110 C   0  0  0  0  0  0  0  0  0  0  0  0
   -6.4780   17.6760  -34.2080 C   0  0  0  0  0  0  0  0  0  0  0  0
   -5.7190   16.5240  -33.9980 C   0  0  0  0  0  0  0  0  0  0  0  0
   -5.3750   16.1480  -32.7010 C   0  0  0  0  0  0  0  0  0  0  0  0
   -5.8030   16.9300  -31.6270 C   0  0  0  0  0  0  0  0  0  0  0  0
   -6.5470   18.0500  -31.8440 N   0  0  0  0  0  0  0  0  0  0  0  0
   -5.6880   21.7360  -32.3270 C   0  0  0  0  0  0  0  0  0  0  0  0
   -4.6970   22.6690  -32.0090 C   0  0  0  0  0  0  0  0  0  0  0  0
   -1.1750   22.9250  -29.1590 C   0  0  0  0  0  0  0  0  0  0  0  0
   -1.3380   22.4150  -30.4570 C   0  0  0  0  0  0  0  0  0  0  0  0
   -1.4230   21.0360  -30.6690 C   0  0  0  0  0  0  0  0  0  0  0  0
   -1.3530   20.1560  -29.5870 C   0  0  0  0  0  0  0  0  0  0  0  0
   -1.2000   20.6540  -28.2900 C   0  0  0  0  0  0  0  0  0  0  0  0
   -1.1150   22.0340  -28.0670 C   0  0  0  0  0  0  0  0  0  0  0  0
   -0.8850   22.6100  -26.4190 Cl  0  0  0  0  0  0  0  0  0  0  0  0
   -3.6896   24.0134  -28.7743 H   0  0  0  0  0  0  0  0  0  0  0  0
   -4.1176   25.7555  -28.9518 H   0  0  0  0  0  0  0  0  0  0  0  0
   -3.4800   25.1890  -31.5210 H   0  0  0  0  0  0  0  0  0  0  0  0
   -6.4642   24.5984  -29.8022 H   0  0  0  0  0  0  0  0  0  0  0  0
   -8.2309   22.9418  -30.3852 H   0  0  0  0  0  0  0  0  0  0  0  0
   -6.7521   17.9782  -35.2295 H   0  0  0  0  0  0  0  0  0  0  0  0
   -5.3932   15.9145  -34.8538 H   0  0  0  0  0  0  0  0  0  0  0  0
   -4.7726   15.2445  -32.5255 H   0  0  0  0  0  0  0  0  0  0  0  0
   -5.5379   16.6401  -30.5995 H   0  0  0  0  0  0  0  0  0  0  0  0
   -6.8460   18.5890  -31.0040 H   0  0  0  0  0  0  0  0  0  0  0  0
   -5.4692   20.9263  -33.0387 H   0  0  0  0  0  0  0  0  0  0  0  0
   -3.7019   22.5901  -32.4711 H   0  0  0  0  0  0  0  0  0  0  0  0
   -1.3992   23.1045  -31.3119 H   0  0  0  0  0  0  0  0  0  0  0  0
   -1.5452   20.6435  -31.6893 H   0  0  0  0  0  0  0  0  0  0  0  0
   -1.4183   19.0709  -29.7554 H   0  0  0  0  0  0  0  0  0  0  0  0
   -1.1461   19.9582  -27.4397 H   0  0  0  0  0  0  0  0  0  0  0  0
  1  2  2  0
  2  3  1  0
  3  4  1  0
  4  5  1  0
  5  6  1  0
  6  7  2  0
  7  8  1  0
  8  9  2  0
  9 10  1  0
 10 11  2  0
 10 12  2  0
 10 13  1  0
 13 14  2  3
 14 15  1  0
 15 16  2  0
 16 17  1  0
 17 18  2  0
 18 19  1  0
  9 20  1  0
 20 21  2  0
  2 22  1  0
 22 23  2  0
 23 24  1  0
 24 25  2  0
 25 26  1  0
 26 27  2  0
 27 28  1  0
 21  6  1  0
 27 22  1  0
 19 14  1  0
  4 29  1  0
  4 30  1  0
  5 31  1  0
  7 32  1  0
  8 33  1  0
 15 34  1  0
 16 35  1  0
 17 36  1  0
 18 37  1  0
 19 38  1  0
 20 39  1  0
 21 40  1  0
 23 41  1  0
 24 42  1  0
 25 43  1  0
 26 44  1  0
M  CHG  1   3  -1
M  END
>  <UniqueID>  (40) 
38

>  <SMILES>  (40) 
O=C([N-]CNc1ccc(S(=O)(=O)N=c2cccc[nH]2)cc1)c1ccccc1Cl

>  <Energy>  (40) 
56.04515799800424

>  <Genealogy>  (40) 
O=C([N-]CNc1ccc(S(=O)(=O)N=c2cccc[nH]2)cc1)c1ccccc1Cl (protonated)
O=C([N-]CNc1ccc(S(=O)(=O)N=c2cccc[nH]2)cc1)c1ccccc1Cl (3D coordinates assigned)
O=C([N-]CNc1ccc(S(=O)(=O)N=c2cccc[nH]2)cc1)c1ccccc1Cl (optimized conformer: 56.04515799800424 kcal/mol)

>  <smiles>  (40) 
O=C(NCNc1ccc(S(=O)(=O)N=c2cccc[nH]2)cc1)c1ccccc1Cl

>  <score_type>  (40) 
oracle

>  <origin>  (40) 
adgpu

>  <m_score__min__energy>  (40) 
-12.06

>  <m_primary>  (40) 
energy

$$$$
40:0
     RDKit          3D

 49 52  0  0  0  0  0  0  0  0999 V2000
   -1.2420   26.0120  -28.2520 C   0  0  0  0  0  0  0  0  0  0  0  0
   -1.9910   24.9720  -28.8730 O   0  0  0  0  0  0  0  0  0  0  0  0
   -1.9860   23.6300  -28.4580 C   0  0  0  0  0  0  0  0  0  0  0  0
   -0.8440   23.0290  -27.8900 C   0  0  0  0  0  0  0  0  0  0  0  0
   -0.8750   21.6860  -27.5050 C   0  0  0  0  0  0  0  0  0  0  0  0
   -2.0340   20.9300  -27.6920 C   0  0  0  0  0  0  0  0  0  0  0  0
   -3.1710   21.5190  -28.2500 C   0  0  0  0  0  0  0  0  0  0  0  0
   -3.1610   22.8760  -28.6130 C   0  0  0  0  0  0  0  0  0  0  0  0
   -4.3120   23.5010  -29.1950 N   0  0  0  0  0  0  0  0  0  0  0  0
   -4.5760   23.7320  -30.8940 S   0  0  0  0  0  0  0  0  0  0  0  0
   -4.5460   25.2050  -31.1910 O   0  0  0  0  0  0  0  0  0  0  0  0
   -3.5190   23.0520  -31.7170 O   0  0  0  0  0  0  0  0  0  0  0  0
   -6.1420   23.0450  -31.3110 C   0  0  0  0  0  0  0  0  0  0  0  0
   -7.2210   23.8990  -31.5610 C   0  0  0  0  0  0  0  0  0  0  0  0
   -8.4710   23.3750  -31.8910 C   0  0  0  0  0  0  0  0  0  0  0  0
   -8.6510   21.9910  -31.9770 C   0  0  0  0  0  0  0  0  0  0  0  0
   -7.5760   21.1150  -31.7340 C   0  0  0  0  0  0  0  0  0  0  0  0
   -7.7660   19.6480  -31.8310 C   0  0  0  0  0  0  0  0  0  0  0  0
   -8.4180   19.0450  -30.9360 O   0  0  0  0  0  0  0  0  0  0  0  0
   -7.1590   18.9230  -32.9150 N   0  0  0  0  0  0  0  0  0  0  0  0
   -5.9190   18.9230  -33.3160 C   0  0  0  0  0  0  0  0  0  0  0  0
   -4.8930   19.5870  -32.7280 N   0  0  0  0  0  0  0  0  0  0  0  0
   -3.7100   19.3900  -33.3830 C   0  0  0  0  0  0  0  0  0  0  0  0
   -2.4410   20.0210  -32.9430 C   0  0  0  0  0  0  0  0  0  0  0  0
   -2.1780   20.2350  -31.5790 C   0  0  0  0  0  0  0  0  0  0  0  0
   -0.9690   20.8080  -31.1790 C   0  0  0  0  0  0  0  0  0  0  0  0
   -0.0300   21.1690  -32.1440 C   0  0  0  0  0  0  0  0  0  0  0  0
   -0.2970   20.9690  -33.4620 N   0  0  0  0  0  0  0  0  0  0  0  0
   -1.4650   20.4100  -33.8780 C   0  0  0  0  0  0  0  0  0  0  0  0
   -3.8010   18.5530  -34.4980 C   0  0  0  0  0  0  0  0  0  0  0  0
   -5.4010   18.0540  -34.6540 S   0  0  0  0  0  0  0  0  0  0  0  0
   -6.3200   21.6550  -31.3980 C   0  0  0  0  0  0  0  0  0  0  0  0
   -1.3134   25.9128  -27.1588 H   0  0  0  0  0  0  0  0  0  0  0  0
   -0.1882   25.9384  -28.5588 H   0  0  0  0  0  0  0  0  0  0  0  0
   -1.6458   26.9881  -28.5588 H   0  0  0  0  0  0  0  0  0  0  0  0
    0.0738   23.6188  -27.7495 H   0  0  0  0  0  0  0  0  0  0  0  0
    0.0153   21.2236  -27.0538 H   0  0  0  0  0  0  0  0  0  0  0  0
   -2.0516   19.8697  -27.3996 H   0  0  0  0  0  0  0  0  0  0  0  0
   -4.0786   20.9174  -28.4059 H   0  0  0  0  0  0  0  0  0  0  0  0
   -7.0834   24.9885  -31.4971 H   0  0  0  0  0  0  0  0  0  0  0  0
   -9.3165   24.0517  -32.0839 H   0  0  0  0  0  0  0  0  0  0  0  0
   -9.6394   21.5839  -32.2363 H   0  0  0  0  0  0  0  0  0  0  0  0
   -4.9700   20.1850  -31.8800 H   0  0  0  0  0  0  0  0  0  0  0  0
   -2.9264   19.9504  -30.8247 H   0  0  0  0  0  0  0  0  0  0  0  0
   -0.7594   20.9731  -30.1118 H   0  0  0  0  0  0  0  0  0  0  0  0
    0.9277   21.6160  -31.8389 H   0  0  0  0  0  0  0  0  0  0  0  0
   -1.6475   20.2612  -34.9525 H   0  0  0  0  0  0  0  0  0  0  0  0
   -2.9698   18.2689  -35.1602 H   0  0  0  0  0  0  0  0  0  0  0  0
   -5.4716   20.9828  -31.2021 H   0  0  0  0  0  0  0  0  0  0  0  0
  1  2  1  0
  2  3  1  0
  3  4  2  0
  4  5  1  0
  5  6  2  0
  6  7  1  0
  7  8  2  0
  8  9  1  0
  9 10  1  0
 10 11  2  0
 10 12  2  0
 10 13  1  0
 13 14  2  0
 14 15  1  0
 15 16  2  0
 16 17  1  0
 17 18  1  0
 18 19  2  0
 18 20  1  0
 20 21  2  3
 21 22  1  0
 22 23  1  0
 23 24  1  0
 24 25  2  0
 25 26  1  0
 26 27  2  0
 27 28  1  0
 28 29  2  0
 23 30  2  0
 30 31  1  0
 17 32  2  0
  8  3  1  0
 32 13  1  0
 31 21  1  0
 29 24  1  0
  1 33  1  0
  1 34  1  0
  1 35  1  0
  4 36  1  0
  5 37  1  0
  6 38  1  0
  7 39  1  0
 14 40  1  0
 15 41  1  0
 16 42  1  0
 22 43  1  0
 25 44  1  0
 26 45  1  0
 27 46  1  0
 29 47  1  0
 30 48  1  0
 32 49  1  0
M  CHG  1   9  -1
M  END
>  <UniqueID>  (41) 
39

>  <SMILES>  (41) 
COc1ccccc1[N-]S(=O)(=O)c1cccc(C(=O)N=c2[nH]c(-c3cccnc3)cs2)c1

>  <Energy>  (41) 
101.50506328731107

>  <Genealogy>  (41) 
COc1ccccc1[N-]S(=O)(=O)c1cccc(C(=O)N=c2[nH]c(-c3cccnc3)cs2)c1 (protonated)
COc1ccccc1[N-]S(=O)(=O)c1cccc(C(=O)N=c2[nH]c(-c3cccnc3)cs2)c1 (3D coordinates assigned)
COc1ccccc1[N-]S(=O)(=O)c1cccc(C(=O)N=c2[nH]c(-c3cccnc3)cs2)c1 (optimized conformer: 101.50506328731107 kcal/mol)

>  <smiles>  (41) 
COc1ccccc1NS(=O)(=O)c1cccc(C(=O)N=c2[nH]c(-c3cccnc3)cs2)c1

>  <score_type>  (41) 
oracle

>  <origin>  (41) 
adgpu

>  <m_score__min__energy>  (41) 
-11.449999999999999

>  <m_primary>  (41) 
energy

$$$$
41:0
     RDKit          3D

 39 41  0  0  0  0  0  0  0  0999 V2000
   -1.7180   24.9720  -28.4100 C   0  0  0  0  0  0  0  0  0  0  0  0
   -2.7300   25.2970  -29.3580 O   0  0  0  0  0  0  0  0  0  0  0  0
   -3.7620   24.4280  -29.7430 C   0  0  0  0  0  0  0  0  0  0  0  0
   -4.9790   24.9820  -30.1540 C   0  0  0  0  0  0  0  0  0  0  0  0
   -6.0370   24.1590  -30.5500 C   0  0  0  0  0  0  0  0  0  0  0  0
   -5.8870   22.7610  -30.5540 C   0  0  0  0  0  0  0  0  0  0  0  0
   -6.9700   21.8890  -30.9220 N   0  0  0  0  0  0  0  0  0  0  0  0
   -8.2670   22.3470  -31.3370 C   0  0  0  0  0  0  0  0  0  0  0  0
   -8.4340   23.5320  -31.7340 O   0  0  0  0  0  0  0  0  0  0  0  0
   -9.4380   21.4130  -31.2980 C   0  0  0  0  0  0  0  0  0  0  0  0
   -9.3920   20.2620  -32.7130 S   0  0  0  0  0  0  0  0  0  0  0  0
   -7.6850   19.7820  -32.4570 C   0  0  0  0  0  0  0  0  0  0  0  0
   -7.2890   18.8610  -31.5610 N   0  0  0  0  0  0  0  0  0  0  0  0
   -5.9700   18.7990  -31.6570 N   0  0  0  0  0  0  0  0  0  0  0  0
   -5.6150   19.6840  -32.6100 C   0  0  0  0  0  0  0  0  0  0  0  0
   -4.2260   19.9420  -33.0360 C   0  0  0  0  0  0  0  0  0  0  0  0
   -3.7210   21.2540  -33.0430 C   0  0  0  0  0  0  0  0  0  0  0  0
   -2.4050   21.5010  -33.4440 C   0  0  0  0  0  0  0  0  0  0  0  0
   -1.5820   20.4440  -33.8390 C   0  0  0  0  0  0  0  0  0  0  0  0
   -2.0750   19.1360  -33.8350 C   0  0  0  0  0  0  0  0  0  0  0  0
   -3.3910   18.8840  -33.4350 C   0  0  0  0  0  0  0  0  0  0  0  0
   -6.6680   20.2900  -33.1090 O   0  0  0  0  0  0  0  0  0  0  0  0
   -4.6750   22.2050  -30.1210 C   0  0  0  0  0  0  0  0  0  0  0  0
   -3.6170   23.0280  -29.7250 C   0  0  0  0  0  0  0  0  0  0  0  0
   -2.1147   25.0994  -27.3920 H   0  0  0  0  0  0  0  0  0  0  0  0
   -1.4035   23.9277  -28.5529 H   0  0  0  0  0  0  0  0  0  0  0  0
   -0.8542   25.6379  -28.5529 H   0  0  0  0  0  0  0  0  0  0  0  0
   -5.1044   26.0748  -30.1656 H   0  0  0  0  0  0  0  0  0  0  0  0
   -6.9923   24.6075  -30.8602 H   0  0  0  0  0  0  0  0  0  0  0  0
   -6.7940   20.8600  -30.9140 H   0  0  0  0  0  0  0  0  0  0  0  0
   -9.4086   20.8359  -30.3620 H   0  0  0  0  0  0  0  0  0  0  0  0
  -10.3640   22.0042  -31.3529 H   0  0  0  0  0  0  0  0  0  0  0  0
   -4.3645   22.0900  -32.7315 H   0  0  0  0  0  0  0  0  0  0  0  0
   -2.0167   22.5302  -33.4485 H   0  0  0  0  0  0  0  0  0  0  0  0
   -0.5463   20.6407  -34.1531 H   0  0  0  0  0  0  0  0  0  0  0  0
   -1.4268   18.3038  -34.1469 H   0  0  0  0  0  0  0  0  0  0  0  0
   -3.7746   17.8530  -33.4326 H   0  0  0  0  0  0  0  0  0  0  0  0
   -4.5557   21.1119  -30.0927 H   0  0  0  0  0  0  0  0  0  0  0  0
   -2.6672   22.5798  -29.3979 H   0  0  0  0  0  0  0  0  0  0  0  0
  1  2  1  0
  2  3  1  0
  3  4  2  0
  4  5  1  0
  5  6  2  0
  6  7  1  0
  7  8  1  0
  8  9  2  0
  8 10  1  0
 10 11  1  0
 11 12  1  0
 12 13  2  0
 13 14  1  0
 14 15  2  0
 15 16  1  0
 16 17  2  0
 17 18  1  0
 18 19  2  0
 19 20  1  0
 20 21  2  0
 15 22  1  0
  6 23  1  0
 23 24  2  0
 24  3  1  0
 22 12  1  0
 21 16  1  0
  1 25  1  0
  1 26  1  0
  1 27  1  0
  4 28  1  0
  5 29  1  0
  7 30  1  0
 10 31  1  0
 10 32  1  0
 17 33  1  0
 18 34  1  0
 19 35  1  0
 20 36  1  0
 21 37  1  0
 23 38  1  0
 24 39  1  0
M  END
>  <UniqueID>  (42) 
40

>  <SMILES>  (42) 
COc1ccc(NC(=O)CSc2nnc(-c3ccccc3)o2)cc1

>  <Energy>  (42) 
73.20550588029073

>  <Genealogy>  (42) 
COc1ccc(NC(=O)CSc2nnc(-c3ccccc3)o2)cc1 (3D coordinates assigned)
COc1ccc(NC(=O)CSc2nnc(-c3ccccc3)o2)cc1 (optimized conformer: 73.20550588029073 kcal/mol)

>  <smiles>  (42) 
COc1ccc(NC(=O)CSc2nnc(-c3ccccc3)o2)cc1

>  <score_type>  (42) 
oracle

>  <origin>  (42) 
adgpu

>  <m_score__min__energy>  (42) 
-7.9699999999999998

>  <m_primary>  (42) 
energy

$$$$
42:0
     RDKit          3D

 37 38  0  0  0  0  0  0  0  0999 V2000
   -9.7640   21.8710  -31.2330 C   0  0  0  0  0  0  0  0  0  0  0  0
   -8.7800   20.9250  -31.8730 C   0  0  0  0  0  0  0  0  0  0  0  0
   -9.1850   19.6060  -32.1320 C   0  0  0  0  0  0  0  0  0  0  0  0
   -8.3050   18.6920  -32.7050 C   0  0  0  0  0  0  0  0  0  0  0  0
   -7.0060   19.0780  -33.0240 C   0  0  0  0  0  0  0  0  0  0  0  0
   -6.5760   20.3950  -32.8010 C   0  0  0  0  0  0  0  0  0  0  0  0
   -5.2100   20.7520  -33.0760 N   0  0  0  0  0  0  0  0  0  0  0  0
   -4.0920   19.9350  -32.6990 C   0  0  0  0  0  0  0  0  0  0  0  0
   -4.2680   18.7390  -32.3370 O   0  0  0  0  0  0  0  0  0  0  0  0
   -2.7040   20.4960  -32.7190 C   0  0  0  0  0  0  0  0  0  0  0  0
   -2.5510   21.4910  -31.6580 N   0  0  0  0  0  0  0  0  0  0  0  0
   -3.1820   22.6760  -31.5900 C   0  0  0  0  0  0  0  0  0  0  0  0
   -2.6950   23.3400  -30.4850 C   0  0  0  0  0  0  0  0  0  0  0  0
   -3.0910   24.6420  -30.0500 N   0  0  0  0  0  0  0  0  0  0  0  0
   -4.0700   25.2140  -30.5710 O   0  0  0  0  0  0  0  0  0  0  0  0
   -2.3930   25.2740  -29.0470 O   0  0  0  0  0  0  0  0  0  0  0  0
   -1.7570   22.5970  -29.8620 N   0  0  0  0  0  0  0  0  0  0  0  0
   -1.6980   21.4700  -30.6060 C   0  0  0  0  0  0  0  0  0  0  0  0
   -0.7270   20.3680  -30.3230 C   0  0  0  0  0  0  0  0  0  0  0  0
   -7.4730   21.3410  -32.2410 C   0  0  0  0  0  0  0  0  0  0  0  0
   -7.0170   22.7640  -32.0070 C   0  0  0  0  0  0  0  0  0  0  0  0
   -9.6859   21.7960  -30.1383 H   0  0  0  0  0  0  0  0  0  0  0  0
   -9.5396   22.9011  -31.5468 H   0  0  0  0  0  0  0  0  0  0  0  0
  -10.7845   21.6062  -31.5468 H   0  0  0  0  0  0  0  0  0  0  0  0
  -10.2084   19.2914  -31.8795 H   0  0  0  0  0  0  0  0  0  0  0  0
   -8.6368   17.6627  -32.9061 H   0  0  0  0  0  0  0  0  0  0  0  0
   -6.3099   18.3434  -33.4551 H   0  0  0  0  0  0  0  0  0  0  0  0
   -5.0200   21.6510  -33.5750 H   0  0  0  0  0  0  0  0  0  0  0  0
   -1.9801   19.6826  -32.5627 H   0  0  0  0  0  0  0  0  0  0  0  0
   -2.5224   20.9753  -33.6923 H   0  0  0  0  0  0  0  0  0  0  0  0
   -3.9466   23.0474  -32.2881 H   0  0  0  0  0  0  0  0  0  0  0  0
   -0.6187   20.2451  -29.2353 H   0  0  0  0  0  0  0  0  0  0  0  0
   -1.0980   19.4305  -30.7628 H   0  0  0  0  0  0  0  0  0  0  0  0
    0.2498   20.6180  -30.7628 H   0  0  0  0  0  0  0  0  0  0  0  0
   -6.9554   22.9562  -30.9257 H   0  0  0  0  0  0  0  0  0  0  0  0
   -6.0267   22.9113  -32.4626 H   0  0  0  0  0  0  0  0  0  0  0  0
   -7.7373   23.4595  -32.4626 H   0  0  0  0  0  0  0  0  0  0  0  0
  1  2  1  0
  2  3  2  0
  3  4  1  0
  4  5  2  0
  5  6  1  0
  6  7  1  0
  7  8  1  0
  8  9  2  0
  8 10  1  0
 10 11  1  0
 11 12  1  0
 12 13  2  0
 13 14  1  0
 14 15  2  0
 14 16  1  0
 13 17  1  0
 17 18  2  0
 18 19  1  0
  6 20  2  0
 20 21  1  0
 20  2  1  0
 18 11  1  0
  1 22  1  0
  1 23  1  0
  1 24  1  0
  3 25  1  0
  4 26  1  0
  5 27  1  0
  7 28  1  0
 10 29  1  0
 10 30  1  0
 12 31  1  0
 19 32  1  0
 19 33  1  0
 19 34  1  0
 21 35  1  0
 21 36  1  0
 21 37  1  0
M  CHG  2  14   1  16  -1
M  END
>  <UniqueID>  (43) 
41

>  <SMILES>  (43) 
Cc1cccc(NC(=O)Cn2cc([N+](=O)[O-])nc2C)c1C

>  <Energy>  (43) 
68.6963138893941

>  <Genealogy>  (43) 
Cc1cccc(NC(=O)Cn2cc([N+](=O)[O-])nc2C)c1C (3D coordinates assigned)
Cc1cccc(NC(=O)Cn2cc([N+](=O)[O-])nc2C)c1C (optimized conformer: 68.6963138893941 kcal/mol)

>  <smiles>  (43) 
Cc1cccc(NC(=O)Cn2cc([N+](=O)[O-])nc2C)c1C

>  <score_type>  (43) 
oracle

>  <origin>  (43) 
adgpu

>  <m_score__min__energy>  (43) 
-8.3300000000000001

>  <m_primary>  (43) 
energy

$$$$
43:0
     RDKit          3D

 44 46  0  0  0  0  0  0  0  0999 V2000
    4.1060   19.7810  -28.6350 C   0  0  0  0  0  0  0  0  0  0  0  0
    2.9540   19.5540  -27.8290 O   0  0  0  0  0  0  0  0  0  0  0  0
    2.4000   18.2900  -27.5630 C   0  0  0  0  0  0  0  0  0  0  0  0
    3.1990   17.2090  -27.1350 C   0  0  0  0  0  0  0  0  0  0  0  0
    2.6350   15.9490  -26.9310 C   0  0  0  0  0  0  0  0  0  0  0  0
    1.2730   15.7480  -27.1530 C   0  0  0  0  0  0  0  0  0  0  0  0
    0.4680   16.8090  -27.5690 C   0  0  0  0  0  0  0  0  0  0  0  0
    1.0160   18.0890  -27.7590 C   0  0  0  0  0  0  0  0  0  0  0  0
    0.1290   19.1920  -28.1880 C   0  0  0  0  0  0  0  0  0  0  0  0
   -0.8660   18.9270  -28.9160 O   0  0  0  0  0  0  0  0  0  0  0  0
    0.3920   20.5460  -27.7790 N   0  0  0  0  0  0  0  0  0  0  0  0
   -0.4010   21.6730  -28.1860 C   0  0  0  0  0  0  0  0  0  0  0  0
   -0.4190   22.0480  -29.5370 C   0  0  0  0  0  0  0  0  0  0  0  0
   -1.1830   23.1390  -29.9600 C   0  0  0  0  0  0  0  0  0  0  0  0
   -1.9400   23.8700  -29.0380 C   0  0  0  0  0  0  0  0  0  0  0  0
   -2.7480   24.9580  -29.5090 N   0  0  0  0  0  0  0  0  0  0  0  0
   -3.8370   24.8550  -30.4380 C   0  0  0  0  0  0  0  0  0  0  0  0
   -4.6020   25.8410  -30.5900 O   0  0  0  0  0  0  0  0  0  0  0  0
   -4.0800   23.6630  -31.1970 N   0  0  0  0  0  0  0  0  0  0  0  0
   -5.3630   23.0840  -31.4740 C   0  0  0  0  0  0  0  0  0  0  0  0
   -6.5190   23.7980  -31.1310 C   0  0  0  0  0  0  0  0  0  0  0  0
   -7.7830   23.2490  -31.3610 C   0  0  0  0  0  0  0  0  0  0  0  0
   -7.9020   21.9870  -31.9500 C   0  0  0  0  0  0  0  0  0  0  0  0
   -6.7550   21.2780  -32.3230 C   0  0  0  0  0  0  0  0  0  0  0  0
   -6.9040   19.6970  -33.0680 Cl  0  0  0  0  0  0  0  0  0  0  0  0
   -5.4890   21.8300  -32.0980 C   0  0  0  0  0  0  0  0  0  0  0  0
   -1.8740   23.5380  -27.6750 C   0  0  0  0  0  0  0  0  0  0  0  0
   -1.1130   22.4450  -27.2530 C   0  0  0  0  0  0  0  0  0  0  0  0
    4.9785   19.9529  -27.9875 H   0  0  0  0  0  0  0  0  0  0  0  0
    4.2883   18.9015  -29.2700 H   0  0  0  0  0  0  0  0  0  0  0  0
    3.9410   20.6639  -29.2700 H   0  0  0  0  0  0  0  0  0  0  0  0
    4.2745   17.3604  -26.9608 H   0  0  0  0  0  0  0  0  0  0  0  0
    3.2658   15.1130  -26.5945 H   0  0  0  0  0  0  0  0  0  0  0  0
    0.8327   14.7516  -26.9999 H   0  0  0  0  0  0  0  0  0  0  0  0
   -0.6042   16.6422  -27.7497 H   0  0  0  0  0  0  0  0  0  0  0  0
    1.2470   20.7420  -27.2130 H   0  0  0  0  0  0  0  0  0  0  0  0
    0.1727   21.4792  -30.2694 H   0  0  0  0  0  0  0  0  0  0  0  0
   -1.1892   23.4243  -31.0224 H   0  0  0  0  0  0  0  0  0  0  0  0
   -6.4307   24.7965  -30.6780 H   0  0  0  0  0  0  0  0  0  0  0  0
   -8.6856   23.8106  -31.0782 H   0  0  0  0  0  0  0  0  0  0  0  0
   -8.8975   21.5512  -32.1203 H   0  0  0  0  0  0  0  0  0  0  0  0
   -4.5886   21.2808  -32.4105 H   0  0  0  0  0  0  0  0  0  0  0  0
   -2.4235   24.1408  -26.9370 H   0  0  0  0  0  0  0  0  0  0  0  0
   -1.0711   22.1875  -26.1844 H   0  0  0  0  0  0  0  0  0  0  0  0
  1  2  1  0
  2  3  1  0
  3  4  2  0
  4  5  1  0
  5  6  2  0
  6  7  1  0
  7  8  2  0
  8  9  1  0
  9 10  2  0
  9 11  1  0
 11 12  1  0
 12 13  2  0
 13 14  1  0
 14 15  2  0
 15 16  1  0
 16 17  1  0
 17 18  2  0
 17 19  1  0
 19 20  1  0
 20 21  2  0
 21 22  1  0
 22 23  2  0
 23 24  1  0
 24 25  1  0
 24 26  2  0
 15 27  1  0
 27 28  2  0
  8  3  1  0
 28 12  1  0
 26 20  1  0
  1 29  1  0
  1 30  1  0
  1 31  1  0
  4 32  1  0
  5 33  1  0
  6 34  1  0
  7 35  1  0
 11 36  1  0
 13 37  1  0
 14 38  1  0
 21 39  1  0
 22 40  1  0
 23 41  1  0
 26 42  1  0
 27 43  1  0
 28 44  1  0
M  CHG  2  16  -1  19  -1
M  END
>  <UniqueID>  (44) 
42

>  <SMILES>  (44) 
COc1ccccc1C(=O)Nc1ccc([N-]C(=O)[N-]c2cccc(Cl)c2)cc1

>  <Energy>  (44) 
61.37581510730213

>  <Genealogy>  (44) 
COc1ccccc1C(=O)Nc1ccc([N-]C(=O)[N-]c2cccc(Cl)c2)cc1 (protonated)
COc1ccccc1C(=O)Nc1ccc([N-]C(=O)[N-]c2cccc(Cl)c2)cc1 (3D coordinates assigned)
COc1ccccc1C(=O)Nc1ccc([N-]C(=O)[N-]c2cccc(Cl)c2)cc1 (optimized conformer: 61.37581510730213 kcal/mol)

>  <smiles>  (44) 
COc1ccccc1C(=O)Nc1ccc(NC(=O)Nc2cccc(Cl)c2)cc1

>  <score_type>  (44) 
oracle

>  <origin>  (44) 
adgpu

>  <m_score__min__energy>  (44) 
-10.4

>  <m_primary>  (44) 
energy

$$$$
44:0
     RDKit          3D

 63 67  0  0  0  0  0  0  0  0999 V2000
   -3.9240   25.6590  -30.8340 O   0  0  0  0  0  0  0  0  0  0  0  0
   -4.1630   24.6130  -30.1710 C   0  0  0  0  0  0  0  0  0  0  0  0
   -5.4640   24.4910  -29.4180 C   0  0  0  0  0  0  0  0  0  0  0  0
   -6.4970   23.7610  -30.2380 C   0  0  0  0  0  0  0  0  0  0  0  0
   -7.2210   22.6910  -29.6780 C   0  0  0  0  0  0  0  0  0  0  0  0
   -8.1570   21.9920  -30.4510 C   0  0  0  0  0  0  0  0  0  0  0  0
   -8.3700   22.3480  -31.7850 C   0  0  0  0  0  0  0  0  0  0  0  0
   -7.6470   23.4060  -32.3510 C   0  0  0  0  0  0  0  0  0  0  0  0
   -6.7100   24.1080  -31.5830 C   0  0  0  0  0  0  0  0  0  0  0  0
   -3.2030   23.5520  -30.1840 N   0  0  0  0  0  0  0  0  0  0  0  0
   -3.2010   22.4420  -31.0970 C   0  0  0  0  0  0  0  0  0  0  0  0
   -4.4030   21.9090  -31.5930 C   0  0  0  0  0  0  0  0  0  0  0  0
   -4.3830   20.7960  -32.4400 C   0  0  0  0  0  0  0  0  0  0  0  0
   -3.1690   20.2020  -32.7880 C   0  0  0  0  0  0  0  0  0  0  0  0
   -1.9600   20.7090  -32.2730 C   0  0  0  0  0  0  0  0  0  0  0  0
   -0.7270   20.1360  -32.6150 O   0  0  0  0  0  0  0  0  0  0  0  0
   -0.0980   20.3060  -33.8550 C   0  0  0  0  0  0  0  0  0  0  0  0
    0.0140   19.2420  -34.7660 C   0  0  0  0  0  0  0  0  0  0  0  0
    0.6490   19.4310  -35.9980 C   0  0  0  0  0  0  0  0  0  0  0  0
    1.1680   20.6820  -36.3290 C   0  0  0  0  0  0  0  0  0  0  0  0
    1.0680   21.7540  -35.4270 C   0  0  0  0  0  0  0  0  0  0  0  0
    1.5390   23.0620  -35.8110 N   0  0  0  0  0  0  0  0  0  0  0  0
    0.6330   23.9840  -36.2600 C   0  0  0  0  0  0  0  0  0  0  0  0
    1.0330   25.2880  -36.5630 C   0  0  0  0  0  0  0  0  0  0  0  0
    2.3750   25.6600  -36.3890 C   0  0  0  0  0  0  0  0  0  0  0  0
    2.8410   26.9650  -36.6220 O   0  0  0  0  0  0  0  0  0  0  0  0
    2.0530   28.0470  -37.1260 C   0  0  0  0  0  0  0  0  0  0  0  0
    0.7540   28.1630  -36.3680 C   0  0  0  0  0  0  0  0  0  0  0  0
    0.7490   28.2430  -34.9660 C   0  0  0  0  0  0  0  0  0  0  0  0
   -0.4600   28.3600  -34.2690 C   0  0  0  0  0  0  0  0  0  0  0  0
   -1.6720   28.3880  -34.9680 C   0  0  0  0  0  0  0  0  0  0  0  0
   -1.6770   28.2890  -36.3620 C   0  0  0  0  0  0  0  0  0  0  0  0
   -0.4700   28.1720  -37.0610 C   0  0  0  0  0  0  0  0  0  0  0  0
    3.2900   24.7010  -35.9560 C   0  0  0  0  0  0  0  0  0  0  0  0
    2.8600   23.4010  -35.6670 C   0  0  0  0  0  0  0  0  0  0  0  0
    3.6990   22.5570  -35.2470 O   0  0  0  0  0  0  0  0  0  0  0  0
    0.4520   21.5510  -34.1800 C   0  0  0  0  0  0  0  0  0  0  0  0
   -1.9850   21.8290  -31.4290 C   0  0  0  0  0  0  0  0  0  0  0  0
   -5.2885   23.9365  -28.4843 H   0  0  0  0  0  0  0  0  0  0  0  0
   -5.8394   25.5020  -29.2013 H   0  0  0  0  0  0  0  0  0  0  0  0
   -7.0510   22.4031  -28.6301 H   0  0  0  0  0  0  0  0  0  0  0  0
   -8.7252   21.1614  -30.0069 H   0  0  0  0  0  0  0  0  0  0  0  0
   -9.1051   21.7978  -32.3907 H   0  0  0  0  0  0  0  0  0  0  0  0
   -7.8158   23.6860  -33.4013 H   0  0  0  0  0  0  0  0  0  0  0  0
   -6.1391   24.9332  -32.0337 H   0  0  0  0  0  0  0  0  0  0  0  0
   -5.3627   22.3686  -31.3142 H   0  0  0  0  0  0  0  0  0  0  0  0
   -5.3261   20.3881  -32.8326 H   0  0  0  0  0  0  0  0  0  0  0  0
   -3.1563   19.3359  -33.4660 H   0  0  0  0  0  0  0  0  0  0  0  0
   -0.3997   18.2557  -34.5091 H   0  0  0  0  0  0  0  0  0  0  0  0
    0.7388   18.5932  -36.7052 H   0  0  0  0  0  0  0  0  0  0  0  0
    1.6587   20.8303  -37.3023 H   0  0  0  0  0  0  0  0  0  0  0  0
   -0.4213   23.6955  -36.3837 H   0  0  0  0  0  0  0  0  0  0  0  0
    0.3003   26.0188  -36.9358 H   0  0  0  0  0  0  0  0  0  0  0  0
    2.6179   28.9848  -37.0189 H   0  0  0  0  0  0  0  0  0  0  0  0
    1.8269   27.8546  -38.1852 H   0  0  0  0  0  0  0  0  0  0  0  0
    1.6992   28.2136  -34.4126 H   0  0  0  0  0  0  0  0  0  0  0  0
   -0.4569   28.4299  -33.1712 H   0  0  0  0  0  0  0  0  0  0  0  0
   -2.6207   28.4879  -34.4203 H   0  0  0  0  0  0  0  0  0  0  0  0
   -2.6304   28.3030  -36.9104 H   0  0  0  0  0  0  0  0  0  0  0  0
   -0.4787   28.0867  -38.1577 H   0  0  0  0  0  0  0  0  0  0  0  0
    4.3513   24.9667  -35.8414 H   0  0  0  0  0  0  0  0  0  0  0  0
    0.4019   22.3764  -33.4546 H   0  0  0  0  0  0  0  0  0  0  0  0
   -1.0435   22.2292  -31.0247 H   0  0  0  0  0  0  0  0  0  0  0  0
  1  2  2  0
  2  3  1  0
  3  4  1  0
  4  5  2  0
  5  6  1  0
  6  7  2  0
  7  8  1  0
  8  9  2  0
  2 10  1  0
 10 11  1  0
 11 12  2  0
 12 13  1  0
 13 14  2  0
 14 15  1  0
 15 16  1  0
 16 17  1  0
 17 18  2  0
 18 19  1  0
 19 20  2  0
 20 21  1  0
 21 22  1  0
 22 23  1  0
 23 24  2  0
 24 25  1  0
 25 26  1  0
 26 27  1  0
 27 28  1  0
 28 29  2  0
 29 30  1  0
 30 31  2  0
 31 32  1  0
 32 33  2  0
 25 34  2  0
 34 35  1  0
 35 36  2  0
 21 37  2  0
 15 38  2  0
  9  4  1  0
 38 11  1  0
 37 17  1  0
 35 22  1  0
 33 28  1  0
  3 39  1  0
  3 40  1  0
  5 41  1  0
  6 42  1  0
  7 43  1  0
  8 44  1  0
  9 45  1  0
 12 46  1  0
 13 47  1  0
 14 48  1  0
 18 49  1  0
 19 50  1  0
 20 51  1  0
 23 52  1  0
 24 53  1  0
 27 54  1  0
 27 55  1  0
 29 56  1  0
 30 57  1  0
 31 58  1  0
 32 59  1  0
 33 60  1  0
 34 61  1  0
 37 62  1  0
 38 63  1  0
M  CHG  1  10  -1
M  END
>  <UniqueID>  (45) 
43

>  <SMILES>  (45) 
O=C(Cc1ccccc1)[N-]c1cccc(Oc2cccc(-n3ccc(OCc4ccccc4)cc3=O)c2)c1

>  <Energy>  (45) 
90.01746398065566

>  <Genealogy>  (45) 
O=C(Cc1ccccc1)[N-]c1cccc(Oc2cccc(-n3ccc(OCc4ccccc4)cc3=O)c2)c1 (protonated)
O=C(Cc1ccccc1)[N-]c1cccc(Oc2cccc(-n3ccc(OCc4ccccc4)cc3=O)c2)c1 (3D coordinates assigned)
O=C(Cc1ccccc1)[N-]c1cccc(Oc2cccc(-n3ccc(OCc4ccccc4)cc3=O)c2)c1 (optimized conformer: 90.01746398065566 kcal/mol)

>  <smiles>  (45) 
O=C(Cc1ccccc1)Nc1cccc(Oc2cccc(-n3ccc(OCc4ccccc4)cc3=O)c2)c1

>  <score_type>  (45) 
oracle

>  <origin>  (45) 
adgpu

>  <m_score__min__energy>  (45) 
-11.789999999999999

>  <m_primary>  (45) 
energy

$$$$
45:0
     RDKit          3D

 43 46  0  0  0  0  0  0  0  0999 V2000
   -7.1513   23.7242  -31.3840 H   0  0  0  0  0  0  0  0  0  0  0  0
   -6.2980   23.0740  -31.6270 C   0  0  0  0  0  0  0  0  0  0  0  0
   -6.5050   21.7940  -32.0240 N   0  0  0  0  0  0  0  0  0  0  0  0
   -5.4770   20.9590  -32.3350 C   0  0  0  0  0  0  0  0  0  0  0  0
   -5.8040   19.6010  -32.8250 C   0  0  0  0  0  0  0  0  0  0  0  0
   -5.7790   19.3320  -34.2030 C   0  0  0  0  0  0  0  0  0  0  0  0
   -5.5253   20.1332  -34.9127 H   0  0  0  0  0  0  0  0  0  0  0  0
   -6.0750   18.0510  -34.6770 C   0  0  0  0  0  0  0  0  0  0  0  0
   -6.0648   17.8497  -35.7584 H   0  0  0  0  0  0  0  0  0  0  0  0
   -6.3840   17.0250  -33.7790 C   0  0  0  0  0  0  0  0  0  0  0  0
   -6.6223   16.0188  -34.1541 H   0  0  0  0  0  0  0  0  0  0  0  0
   -6.3900   17.2780  -32.4060 C   0  0  0  0  0  0  0  0  0  0  0  0
   -6.6282   16.4689  -31.6998 H   0  0  0  0  0  0  0  0  0  0  0  0
   -6.0940   18.5570  -31.9270 C   0  0  0  0  0  0  0  0  0  0  0  0
   -6.0877   18.7485  -30.8438 H   0  0  0  0  0  0  0  0  0  0  0  0
   -4.1510   21.4460  -32.2300 C   0  0  0  0  0  0  0  0  0  0  0  0
   -2.9560   20.6030  -32.4650 C   0  0  0  0  0  0  0  0  0  0  0  0
   -2.6500   20.1710  -33.7660 C   0  0  0  0  0  0  0  0  0  0  0  0
   -3.3056   20.4505  -34.6039 H   0  0  0  0  0  0  0  0  0  0  0  0
   -1.5170   19.3880  -34.0010 C   0  0  0  0  0  0  0  0  0  0  0  0
   -1.2884   19.0454  -35.0210 H   0  0  0  0  0  0  0  0  0  0  0  0
   -0.6730   19.0390  -32.9420 C   0  0  0  0  0  0  0  0  0  0  0  0
    0.2151   18.4171  -33.1277 H   0  0  0  0  0  0  0  0  0  0  0  0
   -0.9590   19.4810  -31.6480 C   0  0  0  0  0  0  0  0  0  0  0  0
   -0.2921   19.2109  -30.8160 H   0  0  0  0  0  0  0  0  0  0  0  0
   -2.0910   20.2660  -31.4080 C   0  0  0  0  0  0  0  0  0  0  0  0
   -2.3059   20.6212  -30.3893 H   0  0  0  0  0  0  0  0  0  0  0  0
   -3.9580   22.7390  -31.8510 N   0  0  0  0  0  0  0  0  0  0  0  0
   -4.9890   23.5610  -31.5290 C   0  0  0  0  0  0  0  0  0  0  0  0
   -4.7100   24.9200  -31.1580 N   0  0  0  0  0  0  0  0  0  0  0  0
   -4.0680   25.2900  -30.1150 N   0  0  0  0  0  0  0  0  0  0  0  0
   -3.4010   24.4070  -29.1970 C   0  0  0  0  0  0  0  0  0  0  0  0
   -2.0420   24.5630  -28.8580 C   0  0  0  0  0  0  0  0  0  0  0  0
   -1.2650   25.6560  -29.3570 N   0  0  0  0  0  0  0  0  0  0  0  0
   -0.3860   25.5070  -29.8990 H   0  0  0  0  0  0  0  0  0  0  0  0
   -1.6110   26.6340  -29.2430 H   0  0  0  0  0  0  0  0  0  0  0  0
   -1.4630   23.6800  -28.0040 N   0  0  0  0  0  0  0  0  0  0  0  0
   -2.1700   22.6630  -27.4480 C   0  0  0  0  0  0  0  0  0  0  0  0
   -1.5990   21.8610  -26.6650 O   0  0  0  0  0  0  0  0  0  0  0  0
   -3.4920   22.5200  -27.7290 N   0  0  0  0  0  0  0  0  0  0  0  0
   -4.0330   21.7410  -27.2870 H   0  0  0  0  0  0  0  0  0  0  0  0
   -4.1200   23.3730  -28.5840 C   0  0  0  0  0  0  0  0  0  0  0  0
   -5.3470   23.2190  -28.8330 O   0  0  0  0  0  0  0  0  0  0  0  0
  1  2  1  0
  2  3  2  0
  3  4  1  0
  4  5  1  0
  5  6  2  0
  6  7  1  0
  6  8  1  0
  8  9  1  0
  8 10  2  0
 10 11  1  0
 10 12  1  0
 12 13  1  0
 12 14  2  0
 14 15  1  0
  4 16  2  0
 16 17  1  0
 17 18  2  0
 18 19  1  0
 18 20  1  0
 20 21  1  0
 20 22  2  0
 22 23  1  0
 22 24  1  0
 24 25  1  0
 24 26  2  0
 26 27  1  0
 16 28  1  0
 28 29  2  0
 29 30  1  0
 30 31  2  0
 31 32  1  0
 32 33  2  0
 33 34  1  0
 34 35  1  0
 34 36  1  0
 33 37  1  0
 37 38  1  0
 38 39  2  0
 38 40  1  0
 40 41  1  0
 40 42  1  0
 42 43  2  0
 29  2  1  0
 42 32  1  0
 14  5  1  0
 26 17  1  0
M  CHG  1  37  -1
M  END
>  <UniqueID>  (46) 
44

>  <SMILES>  (46) 
Nc1[n-]c(=O)[nH]c(=O)c1/N=N\c1cnc(-c2ccccc2)c(-c2ccccc2)n1

>  <Energy>  (46) 
76.75024001410893

>  <Genealogy>  (46) 
Nc1[n-]c(=O)[nH]c(=O)c1N=Nc1cnc(-c2ccccc2)c(-c2ccccc2)n1 (protonated)
Nc1[n-]c(=O)[nH]c(=O)c1/N=N\c1cnc(-c2ccccc2)c(-c2ccccc2)n1 (cis-trans isomerization)
Nc1[n-]c(=O)[nH]c(=O)c1/N=N\c1cnc(-c2ccccc2)c(-c2ccccc2)n1 (3D coordinates assigned)
Nc1[n-]c(=O)[nH]c(=O)c1/N=N\c1cnc(-c2ccccc2)c(-c2ccccc2)n1 (optimized conformer: 76.75024001410893 kcal/mol)

>  <smiles>  (46) 
Nc1[nH]c(=O)[nH]c(=O)c1N=Nc1cnc(-c2ccccc2)c(-c2ccccc2)n1

>  <score_type>  (46) 
oracle

>  <origin>  (46) 
adgpu

>  <m_score__min__energy>  (46) 
-10.09

>  <m_primary>  (46) 
energy

$$$$
46:0
     RDKit          3D

 27 28  0  0  0  0  0  0  0  0999 V2000
   -4.4760   21.2410  -30.4930 N   0  0  0  0  0  0  0  0  0  0  0  0
   -4.3380   22.5300  -30.4640 C   0  0  0  0  0  0  0  0  0  0  0  0
   -5.3390   23.3430  -31.0030 C   0  0  0  0  0  0  0  0  0  0  0  0
   -5.1870   24.7300  -30.9670 C   0  0  0  0  0  0  0  0  0  0  0  0
   -4.0730   25.2800  -30.4160 N   0  0  0  0  0  0  0  0  0  0  0  0
   -3.0750   24.5210  -29.8850 C   0  0  0  0  0  0  0  0  0  0  0  0
   -1.9290   25.1820  -29.3260 N   0  0  0  0  0  0  0  0  0  0  0  0
   -1.0130   24.5790  -27.9810 S   0  0  0  0  0  0  0  0  0  0  0  0
   -1.6830   23.3500  -27.4370 O   0  0  0  0  0  0  0  0  0  0  0  0
    0.3680   24.2140  -28.4530 O   0  0  0  0  0  0  0  0  0  0  0  0
   -0.9360   25.7940  -26.7100 C   0  0  0  0  0  0  0  0  0  0  0  0
   -1.2650   25.4490  -25.3910 C   0  0  0  0  0  0  0  0  0  0  0  0
   -1.2170   26.4140  -24.3790 C   0  0  0  0  0  0  0  0  0  0  0  0
   -0.8370   27.7250  -24.6800 C   0  0  0  0  0  0  0  0  0  0  0  0
   -0.5030   28.0730  -25.9930 C   0  0  0  0  0  0  0  0  0  0  0  0
   -0.5510   27.1100  -27.0060 C   0  0  0  0  0  0  0  0  0  0  0  0
   -3.1990   23.1190  -29.8970 C   0  0  0  0  0  0  0  0  0  0  0  0
   -3.7560   20.5910  -30.1030 H   0  0  0  0  0  0  0  0  0  0  0  0
   -6.2377   22.8942  -31.4512 H   0  0  0  0  0  0  0  0  0  0  0  0
   -5.9703   25.3791  -31.3854 H   0  0  0  0  0  0  0  0  0  0  0  0
   -1.5810   26.0500  -29.7910 H   0  0  0  0  0  0  0  0  0  0  0  0
   -1.5615   24.4171  -25.1515 H   0  0  0  0  0  0  0  0  0  0  0  0
   -1.4784   26.1408  -23.3460 H   0  0  0  0  0  0  0  0  0  0  0  0
   -0.8006   28.4834  -23.8840 H   0  0  0  0  0  0  0  0  0  0  0  0
   -0.2025   29.1045  -26.2289 H   0  0  0  0  0  0  0  0  0  0  0  0
   -0.2862   27.3852  -28.0376 H   0  0  0  0  0  0  0  0  0  0  0  0
   -2.4074   22.4895  -29.4643 H   0  0  0  0  0  0  0  0  0  0  0  0
  1  2  2  3
  2  3  1  0
  3  4  2  0
  4  5  1  0
  5  6  1  0
  6  7  1  0
  7  8  1  0
  8  9  2  0
  8 10  2  0
  8 11  1  0
 11 12  2  0
 12 13  1  0
 13 14  2  0
 14 15  1  0
 15 16  2  0
  6 17  2  0
 17  2  1  0
 16 11  1  0
  1 18  1  0
  3 19  1  0
  4 20  1  0
  7 21  1  0
 12 22  1  0
 13 23  1  0
 14 24  1  0
 15 25  1  0
 16 26  1  0
 17 27  1  0
M  CHG  1   5  -1
M  END
>  <UniqueID>  (47) 
45

>  <SMILES>  (47) 
N=c1cc[n-]c(NS(=O)(=O)c2ccccc2)c1

>  <Energy>  (47) 
31.262102041448536

>  <Genealogy>  (47) 
N=c1cc[n-]c(NS(=O)(=O)c2ccccc2)c1 (protonated)
N=c1cc[n-]c(NS(=O)(=O)c2ccccc2)c1 (3D coordinates assigned)
N=c1cc[n-]c(NS(=O)(=O)c2ccccc2)c1 (optimized conformer: 31.262102041448536 kcal/mol)

>  <smiles>  (47) 
N=c1cc[nH]c(NS(=O)(=O)c2ccccc2)c1

>  <score_type>  (47) 
oracle

>  <origin>  (47) 
adgpu

>  <m_score__min__energy>  (47) 
-8.0800000000000001

>  <m_primary>  (47) 
energy

$$$$
47:0
     RDKit          3D

 40 43  0  0  1  0  0  0  0  0999 V2000
   -1.2220   24.7940  -25.2480 C   0  0  0  0  0  0  0  0  0  0  0  0
   -1.7260   24.4990  -26.6190 C   0  0  0  0  0  0  0  0  0  0  0  0
   -1.0780   23.6410  -27.5020 C   0  0  0  0  0  0  0  0  0  0  0  0
   -1.8760   23.6500  -28.6540 C   0  0  0  0  0  0  0  0  0  0  0  0
   -1.5610   22.8900  -29.8180 N   0  0  0  0  0  0  0  0  0  0  0  0
   -2.4640   22.7400  -30.7020 C   0  0  0  0  0  0  0  0  0  0  0  0
   -3.7080   23.2500  -30.6240 N   0  0  0  0  0  0  0  0  0  0  0  0
   -4.6050   23.0350  -31.6240 C   0  0  0  0  0  0  0  0  0  0  0  0
   -5.7660   23.5570  -31.4680 N   0  0  0  0  0  0  0  0  0  0  0  0
   -6.8320   23.4250  -32.4310 C   0  0  0  0  0  0  0  0  0  0  0  0
   -7.5790   22.1390  -32.3180 C   0  0  0  0  0  0  0  0  0  0  0  0
   -6.9630   20.9510  -32.7130 C   0  0  0  0  0  0  0  0  0  0  0  0
   -7.6110   19.7300  -32.6290 C   0  0  0  0  0  0  0  0  0  0  0  0
   -8.9020   19.6590  -32.1460 C   0  0  0  0  0  0  0  0  0  0  0  0
   -9.4910   20.8410  -31.7620 C   0  0  0  0  0  0  0  0  0  0  0  0
   -8.8670   22.0490  -31.8400 C   0  0  0  0  0  0  0  0  0  0  0  0
   -4.3050   22.3220  -32.7130 N   0  0  0  0  0  0  0  0  0  0  0  0
   -3.0730   21.7960  -32.8280 C   0  0  0  0  0  0  0  0  0  0  0  0
   -2.5030   21.0520  -33.7910 N   0  0  0  0  0  0  0  0  0  0  0  0
   -1.2340   20.7970  -33.3890 C   0  0  0  0  0  0  0  0  0  0  0  0
   -0.9970   21.3640  -32.2000 N   0  0  0  0  0  0  0  0  0  0  0  0
   -2.1400   21.9990  -31.8280 C   0  0  0  0  0  0  0  0  0  0  0  0
   -2.9200   24.4710  -28.4300 N   0  0  0  0  0  0  0  0  0  0  0  0
   -2.8490   24.9890  -27.2170 N   0  0  0  0  0  0  0  0  0  0  0  0
   -1.9214   24.3846  -24.5042 H   0  0  0  0  0  0  0  0  0  0  0  0
   -0.2326   24.3324  -25.1139 H   0  0  0  0  0  0  0  0  0  0  0  0
   -1.1400   25.8827  -25.1139 H   0  0  0  0  0  0  0  0  0  0  0  0
   -0.1467   23.0804  -27.3334 H   0  0  0  0  0  0  0  0  0  0  0  0
   -3.9620   23.8100  -29.7830 H   0  0  0  0  0  0  0  0  0  0  0  0
   -7.5402   24.2534  -32.2824 H   0  0  0  0  0  0  0  0  0  0  0  0
   -6.3708   23.4450  -33.4294 H   0  0  0  0  0  0  0  0  0  0  0  0
   -5.9346   20.9852  -33.1018 H   0  0  0  0  0  0  0  0  0  0  0  0
   -7.0946   18.8128  -32.9486 H   0  0  0  0  0  0  0  0  0  0  0  0
   -9.4358   18.7001  -32.0715 H   0  0  0  0  0  0  0  0  0  0  0  0
  -10.5190   20.8090  -31.3718 H   0  0  0  0  0  0  0  0  0  0  0  0
   -9.3955   22.9587  -31.5190 H   0  0  0  0  0  0  0  0  0  0  0  0
   -4.9870   22.1640  -33.4630 H   0  0  0  0  0  0  0  0  0  0  0  0
   -2.9730   20.7350  -34.6850 H   0  0  0  0  0  0  0  0  0  0  0  0
   -0.5018   20.2070  -33.9597 H   0  0  0  0  0  0  0  0  0  0  0  0
   -3.5180   25.6650  -26.7530 H   0  0  0  0  0  0  0  0  0  0  0  0
  1  2  1  0
  2  3  2  0
  3  4  1  0
  4  5  1  0
  5  6  2  0
  6  7  1  0
  7  8  1  0
  8  9  2  0
  9 10  1  0
 10 11  1  0
 11 12  2  0
 12 13  1  0
 13 14  2  0
 14 15  1  0
 15 16  2  0
  8 17  1  0
 17 18  1  0
 18 19  1  0
 19 20  1  0
 20 21  2  0
 21 22  1  0
  4 23  2  0
 23 24  1  0
 24  2  1  0
 22  6  1  0
 16 11  1  0
 22 18  2  0
  1 25  1  0
  1 26  1  0
  1 27  1  0
  3 28  1  0
  7 29  1  0
 10 30  1  0
 10 31  1  0
 12 32  1  0
 13 33  1  0
 14 34  1  0
 15 35  1  0
 16 36  1  0
 17 37  1  0
 19 38  1  0
 20 39  1  0
 24 40  1  0
M  END
>  <smiles>  (48) 
Cc1cc(N=c2[nH]c(=NCc3ccccc3)[nH]c3[nH]cnc23)n[nH]1

>  <score_type>  (48) 
oracle

>  <origin>  (48) 
adgpu

>  <m_score__min__energy>  (48) 
-8.4399999999999995

>  <m_primary>  (48) 
energy

$$$$
