0:0
     RDKit          3D

 57 60  0  0  0  0  0  0  0  0999 V2000
   -7.1417   12.0390  -34.7042 H   0  0  0  0  0  0  0  0  0  0  0  0
   -6.7490   13.0610  -34.5980 C   0  0  0  0  0  0  0  0  0  0  0  0
   -7.4411   13.9044  -34.4579 H   0  0  0  0  0  0  0  0  0  0  0  0
   -5.4370   13.2770  -34.6390 C   0  0  0  0  0  0  0  0  0  0  0  0
   -4.7740   12.4107  -34.7804 H   0  0  0  0  0  0  0  0  0  0  0  0
   -4.8140   14.6200  -34.5050 C   0  0  0  0  0  0  0  0  0  0  0  0
   -5.5460   15.6490  -33.9090 C   0  0  0  0  0  0  0  0  0  0  0  0
   -6.5682   15.4488  -33.5554 H   0  0  0  0  0  0  0  0  0  0  0  0
   -5.0020   16.9360  -33.7520 C   0  0  0  0  0  0  0  0  0  0  0  0
   -5.9020   17.9740  -33.2050 C   0  0  0  0  0  0  0  0  0  0  0  0
   -6.4830   18.8920  -34.0250 N   0  0  0  0  0  0  0  0  0  0  0  0
   -7.3110   19.8560  -33.5410 C   0  0  0  0  0  0  0  0  0  0  0  0
   -7.7605   20.5923  -34.2235 H   0  0  0  0  0  0  0  0  0  0  0  0
   -7.5900   19.9070  -32.1620 C   0  0  0  0  0  0  0  0  0  0  0  0
   -8.4670   20.9060  -31.5900 N   0  0  0  0  0  0  0  0  0  0  0  0
   -7.9800   21.7220  -30.4720 C   0  0  0  0  0  0  0  0  0  0  0  0
   -8.2633   21.2474  -29.5210 H   0  0  0  0  0  0  0  0  0  0  0  0
   -6.8846   21.8049  -30.5284 H   0  0  0  0  0  0  0  0  0  0  0  0
   -8.4271   22.7255  -30.5284 H   0  0  0  0  0  0  0  0  0  0  0  0
   -9.8270   21.1100  -32.1010 C   0  0  0  0  0  0  0  0  0  0  0  0
  -10.5241   21.2146  -31.2566 H   0  0  0  0  0  0  0  0  0  0  0  0
   -9.8551   22.0224  -32.7148 H   0  0  0  0  0  0  0  0  0  0  0  0
  -10.1215   20.2460  -32.7148 H   0  0  0  0  0  0  0  0  0  0  0  0
   -7.0160   18.9720  -31.3530 N   0  0  0  0  0  0  0  0  0  0  0  0
   -6.1900   18.0100  -31.8350 C   0  0  0  0  0  0  0  0  0  0  0  0
   -5.7503   17.2648  -31.1558 H   0  0  0  0  0  0  0  0  0  0  0  0
   -3.6630   17.1690  -34.1980 C   0  0  0  0  0  0  0  0  0  0  0  0
   -3.0110   18.2940  -34.0430 N   0  0  0  0  0  0  0  0  0  0  0  0
   -3.3310   19.4760  -33.2970 C   0  0  0  0  0  0  0  0  0  0  0  0
   -4.1750   20.4670  -33.8190 C   0  0  0  0  0  0  0  0  0  0  0  0
   -4.5983   20.3512  -34.8276 H   0  0  0  0  0  0  0  0  0  0  0  0
   -4.4800   21.6020  -33.0610 C   0  0  0  0  0  0  0  0  0  0  0  0
   -5.0911   22.4033  -33.5020 H   0  0  0  0  0  0  0  0  0  0  0  0
   -4.0130   21.7290  -31.7400 C   0  0  0  0  0  0  0  0  0  0  0  0
   -4.3120   22.9030  -30.9540 N   0  0  0  0  0  0  0  0  0  0  0  0
   -5.6500   23.5090  -30.9480 C   0  0  0  0  0  0  0  0  0  0  0  0
   -6.2576   23.0525  -31.7432 H   0  0  0  0  0  0  0  0  0  0  0  0
   -6.1153   23.3336  -29.9668 H   0  0  0  0  0  0  0  0  0  0  0  0
   -5.5560   25.0320  -31.1910 C   0  0  0  0  0  0  0  0  0  0  0  0
   -5.6981   25.2225  -32.2650 H   0  0  0  0  0  0  0  0  0  0  0  0
   -6.3352   25.5061  -30.5761 H   0  0  0  0  0  0  0  0  0  0  0  0
   -4.2640   25.6160  -30.7800 N   0  0  0  0  0  0  0  0  0  0  0  0
   -3.5970   25.5710  -31.5890 H   0  0  0  0  0  0  0  0  0  0  0  0
   -3.6670   24.9000  -29.6410 C   0  0  0  0  0  0  0  0  0  0  0  0
   -2.7557   25.4264  -29.3209 H   0  0  0  0  0  0  0  0  0  0  0  0
   -4.3980   24.8694  -28.8196 H   0  0  0  0  0  0  0  0  0  0  0  0
   -3.3050   23.4570  -30.0360 C   0  0  0  0  0  0  0  0  0  0  0  0
   -2.3231   23.4535  -30.5318 H   0  0  0  0  0  0  0  0  0  0  0  0
   -3.2749   22.8377  -29.1274 H   0  0  0  0  0  0  0  0  0  0  0  0
   -3.2300   20.6920  -31.1990 C   0  0  0  0  0  0  0  0  0  0  0  0
   -2.8740   20.7626  -30.1606 H   0  0  0  0  0  0  0  0  0  0  0  0
   -2.9010   19.5740  -31.9690 C   0  0  0  0  0  0  0  0  0  0  0  0
   -2.2998   18.7650  -31.5284 H   0  0  0  0  0  0  0  0  0  0  0  0
   -3.0020   16.1570  -34.8340 N   0  0  0  0  0  0  0  0  0  0  0  0
   -2.0330   16.3210  -35.1980 H   0  0  0  0  0  0  0  0  0  0  0  0
   -3.5320   14.9130  -34.9880 C   0  0  0  0  0  0  0  0  0  0  0  0
   -2.9488   14.1309  -35.4961 H   0  0  0  0  0  0  0  0  0  0  0  0
  1  2  1  0
  2  3  1  0
  2  4  2  0
  4  5  1  0
  4  6  1  0
  6  7  1  0
  7  8  1  0
  7  9  2  0
  9 10  1  0
 10 11  2  0
 11 12  1  0
 12 13  1  0
 12 14  2  0
 14 15  1  0
 15 16  1  0
 16 17  1  0
 16 18  1  0
 16 19  1  0
 15 20  1  0
 20 21  1  0
 20 22  1  0
 20 23  1  0
 14 24  1  0
 24 25  2  0
 25 26  1  0
  9 27  1  0
 27 28  2  0
 28 29  1  0
 29 30  2  0
 30 31  1  0
 30 32  1  0
 32 33  1  0
 32 34  2  0
 34 35  1  0
 35 36  1  0
 36 37  1  0
 36 38  1  0
 36 39  1  0
 39 40  1  0
 39 41  1  0
 39 42  1  0
 42 43  1  0
 42 44  1  0
 44 45  1  0
 44 46  1  0
 44 47  1  0
 47 48  1  0
 47 49  1  0
 34 50  1  0
 50 51  1  0
 50 52  2  0
 52 53  1  0
 27 54  1  0
 54 55  1  0
 54 56  1  0
 56 57  1  0
 56  6  2  0
 25 10  1  0
 52 29  1  0
 47 35  1  0
M  END
>  <UniqueID>  (1) 
1

>  <SMILES>  (1) 
C=Cc1c[nH]/c(=N/c2ccc(N3CCNCC3)cc2)c(-c2cnc(N(C)C)cn2)c1

>  <Energy>  (1) 
90.17224194776901

>  <Genealogy>  (1) 
C=Cc1c[nH]/c(=N/c2ccc(N3CCNCC3)cc2)c(-c2cnc(N(C)C)cn2)c1 (cis-trans isomerization)
C=Cc1c[nH]/c(=N/c2ccc(N3CCNCC3)cc2)c(-c2cnc(N(C)C)cn2)c1 (3D coordinates assigned)
C=Cc1c[nH]/c(=N/c2ccc(N3CCNCC3)cc2)c(-c2cnc(N(C)C)cn2)c1 (nonaromatic ring conformer: 90.17224194776901 kcal/mol)

>  <smiles>  (1) 
C=Cc1c[nH]c(=Nc2ccc(N3CCNCC3)cc2)c(-c2cnc(N(C)C)cn2)c1

>  <score_type>  (1) 
oracle

>  <origin>  (1) 
adgpu

>  <m_score__min__energy>  (1) 
-8.25

>  <m_primary>  (1) 
energy

$$$$
1:0
     RDKit          3D

 47 50  0  0  0  0  0  0  0  0999 V2000
   -6.1920   25.6480  -29.4120 C   0  0  0  0  0  0  0  0  0  0  0  0
   -6.0020   24.2700  -30.0580 C   0  0  0  0  0  0  0  0  0  0  0  0
   -7.2210   23.3680  -29.7830 C   0  0  0  0  0  0  0  0  0  0  0  0
   -6.9790   21.9690  -30.3630 C   0  0  0  0  0  0  0  0  0  0  0  0
   -6.4390   22.0430  -31.7260 N   0  0  0  0  0  0  0  0  0  0  0  0
   -5.8890   20.8670  -32.3310 C   0  0  0  0  0  0  0  0  0  0  0  0
   -6.7030   19.8010  -32.5590 N   0  0  0  0  0  0  0  0  0  0  0  0
   -6.2420   18.6700  -33.1540 C   0  0  0  0  0  0  0  0  0  0  0  0
   -7.0950   17.5840  -33.3820 C   0  0  0  0  0  0  0  0  0  0  0  0
   -6.6030   16.4320  -34.0060 C   0  0  0  0  0  0  0  0  0  0  0  0
   -5.2610   16.3650  -34.4030 C   0  0  0  0  0  0  0  0  0  0  0  0
   -4.4060   17.4500  -34.1770 C   0  0  0  0  0  0  0  0  0  0  0  0
   -4.8940   18.6020  -33.5510 C   0  0  0  0  0  0  0  0  0  0  0  0
   -4.0780   19.6610  -33.3170 N   0  0  0  0  0  0  0  0  0  0  0  0
   -4.5270   20.7900  -32.6970 C   0  0  0  0  0  0  0  0  0  0  0  0
   -3.5700   21.9320  -32.4610 C   0  0  0  0  0  0  0  0  0  0  0  0
   -3.2310   22.0620  -30.9990 C   0  0  0  0  0  0  0  0  0  0  0  0
   -3.3190   20.9430  -30.1520 C   0  0  0  0  0  0  0  0  0  0  0  0
   -2.9660   21.0510  -28.8030 C   0  0  0  0  0  0  0  0  0  0  0  0
   -2.5140   22.2720  -28.2920 C   0  0  0  0  0  0  0  0  0  0  0  0
   -2.4120   23.3880  -29.1310 C   0  0  0  0  0  0  0  0  0  0  0  0
   -1.8340   24.9160  -28.4910 Cl  0  0  0  0  0  0  0  0  0  0  0  0
   -2.7650   23.2830  -30.4810 C   0  0  0  0  0  0  0  0  0  0  0  0
   -6.3790   23.3220  -32.4410 C   0  0  0  0  0  0  0  0  0  0  0  0
   -5.7010   24.4020  -31.5780 C   0  0  0  0  0  0  0  0  0  0  0  0
   -6.1778   25.5447  -28.3170 H   0  0  0  0  0  0  0  0  0  0  0  0
   -5.3775   26.3165  -29.7279 H   0  0  0  0  0  0  0  0  0  0  0  0
   -7.1570   26.0711  -29.7279 H   0  0  0  0  0  0  0  0  0  0  0  0
   -5.1266   23.7869  -29.5995 H   0  0  0  0  0  0  0  0  0  0  0  0
   -7.3790   23.2900  -28.6972 H   0  0  0  0  0  0  0  0  0  0  0  0
   -8.1103   23.8074  -30.2585 H   0  0  0  0  0  0  0  0  0  0  0  0
   -6.2624   21.4344  -29.7222 H   0  0  0  0  0  0  0  0  0  0  0  0
   -7.9410   21.4368  -30.3990 H   0  0  0  0  0  0  0  0  0  0  0  0
   -8.1490   17.6358  -33.0716 H   0  0  0  0  0  0  0  0  0  0  0  0
   -7.2715   15.5770  -34.1852 H   0  0  0  0  0  0  0  0  0  0  0  0
   -4.8784   15.4577  -34.8934 H   0  0  0  0  0  0  0  0  0  0  0  0
   -3.3531   17.3970  -34.4908 H   0  0  0  0  0  0  0  0  0  0  0  0
   -2.6460   21.7497  -33.0292 H   0  0  0  0  0  0  0  0  0  0  0  0
   -4.0501   22.8645  -32.7926 H   0  0  0  0  0  0  0  0  0  0  0  0
   -3.6668   19.9791  -30.5519 H   0  0  0  0  0  0  0  0  0  0  0  0
   -3.0440   20.1745  -28.1430 H   0  0  0  0  0  0  0  0  0  0  0  0
   -2.2385   22.3554  -27.2303 H   0  0  0  0  0  0  0  0  0  0  0  0
   -2.6775   24.1596  -31.1397 H   0  0  0  0  0  0  0  0  0  0  0  0
   -5.8040   23.1892  -33.3693 H   0  0  0  0  0  0  0  0  0  0  0  0
   -7.4052   23.6464  -32.6682 H   0  0  0  0  0  0  0  0  0  0  0  0
   -4.6131   24.3302  -31.7238 H   0  0  0  0  0  0  0  0  0  0  0  0
   -6.1056   25.3722  -31.9020 H   0  0  0  0  0  0  0  0  0  0  0  0
  1  2  1  0
  2  3  1  0
  3  4  1  0
  4  5  1  0
  5  6  1  0
  6  7  2  0
  7  8  1  0
  8  9  2  0
  9 10  1  0
 10 11  2  0
 11 12  1  0
 12 13  2  0
 13 14  1  0
 14 15  2  0
 15 16  1  0
 16 17  1  0
 17 18  2  0
 18 19  1  0
 19 20  2  0
 20 21  1  0
 21 22  1  0
 21 23  2  0
  5 24  1  0
 24 25  1  0
 25  2  1  0
 15  6  1  0
 23 17  1  0
 13  8  1  0
  1 26  1  0
  1 27  1  0
  1 28  1  0
  2 29  1  0
  3 30  1  0
  3 31  1  0
  4 32  1  0
  4 33  1  0
  9 34  1  0
 10 35  1  0
 11 36  1  0
 12 37  1  0
 16 38  1  0
 16 39  1  0
 18 40  1  0
 19 41  1  0
 20 42  1  0
 23 43  1  0
 24 44  1  0
 24 45  1  0
 25 46  1  0
 25 47  1  0
M  END
>  <UniqueID>  (2) 
2

>  <SMILES>  (2) 
CC1CCN(c2nc3ccccc3nc2Cc2cccc(Cl)c2)CC1

>  <Energy>  (2) 
58.8885273231164

>  <Genealogy>  (2) 
CC1CCN(c2nc3ccccc3nc2Cc2cccc(Cl)c2)CC1 (3D coordinates assigned)
CC1CCN(c2nc3ccccc3nc2Cc2cccc(Cl)c2)CC1 (nonaromatic ring conformer: 58.8885273231164 kcal/mol)

>  <smiles>  (2) 
CC1CCN(c2nc3ccccc3nc2Cc2cccc(Cl)c2)CC1

>  <score_type>  (2) 
oracle

>  <origin>  (2) 
adgpu

>  <m_score__min__energy>  (2) 
-8.5099999999999998

>  <m_primary>  (2) 
energy

$$$$
2:0
     RDKit          3D

 46 48  0  0  0  0  0  0  0  0999 V2000
   -3.1090   21.1550  -34.7060 H   0  0  0  0  0  0  0  0  0  0  0  0
   -3.2240   21.5360  -33.7420 N   0  0  0  0  0  0  0  0  0  0  0  0
   -2.2860   21.4760  -32.8490 C   0  0  0  0  0  0  0  0  0  0  0  0
   -2.3790   21.9580  -31.5620 C   0  0  0  0  0  0  0  0  0  0  0  0
   -3.7540   22.7360  -30.7860 S   0  0  0  0  0  0  0  0  0  0  0  0
   -3.6250   22.6550  -29.2900 O   0  0  0  0  0  0  0  0  0  0  0  0
   -3.7870   24.1860  -31.1830 O   0  0  0  0  0  0  0  0  0  0  0  0
   -5.2350   21.9230  -31.2790 C   0  0  0  0  0  0  0  0  0  0  0  0
   -5.1980   20.5670  -31.6160 C   0  0  0  0  0  0  0  0  0  0  0  0
   -4.2541   20.0079  -31.5356 H   0  0  0  0  0  0  0  0  0  0  0  0
   -6.3540   19.9200  -32.0540 C   0  0  0  0  0  0  0  0  0  0  0  0
   -6.3160   18.8514  -32.3124 H   0  0  0  0  0  0  0  0  0  0  0  0
   -7.5660   20.6210  -32.1680 C   0  0  0  0  0  0  0  0  0  0  0  0
   -8.7950   19.8960  -32.6500 C   0  0  0  0  0  0  0  0  0  0  0  0
   -9.3801   19.5509  -31.7848 H   0  0  0  0  0  0  0  0  0  0  0  0
   -9.4076   20.5774  -33.2586 H   0  0  0  0  0  0  0  0  0  0  0  0
   -8.4949   19.0302  -33.2586 H   0  0  0  0  0  0  0  0  0  0  0  0
   -7.6110   21.9930  -31.8210 C   0  0  0  0  0  0  0  0  0  0  0  0
   -8.8840   22.7880  -31.9410 C   0  0  0  0  0  0  0  0  0  0  0  0
   -9.2641   23.0254  -30.9364 H   0  0  0  0  0  0  0  0  0  0  0  0
   -8.6832   23.7215  -32.4871 H   0  0  0  0  0  0  0  0  0  0  0  0
   -9.6347   22.1979  -32.4871 H   0  0  0  0  0  0  0  0  0  0  0  0
   -6.4380   22.6310  -31.3820 C   0  0  0  0  0  0  0  0  0  0  0  0
   -6.4658   23.6981  -31.1166 H   0  0  0  0  0  0  0  0  0  0  0  0
   -1.1510   21.6530  -31.0010 C   0  0  0  0  0  0  0  0  0  0  0  0
   -0.6310   22.0070  -29.3230 S   0  0  0  0  0  0  0  0  0  0  0  0
   -1.4100   20.5120  -28.6380 C   0  0  0  0  0  0  0  0  0  0  0  0
   -1.3866   20.5570  -27.5392 H   0  0  0  0  0  0  0  0  0  0  0  0
   -2.4537   20.4527  -28.9804 H   0  0  0  0  0  0  0  0  0  0  0  0
   -0.8607   19.6226  -28.9804 H   0  0  0  0  0  0  0  0  0  0  0  0
   -0.3760   21.0190  -31.9050 N   0  0  0  0  0  0  0  0  0  0  0  0
   -1.0660   20.9240  -33.0330 N   0  0  0  0  0  0  0  0  0  0  0  0
   -0.5600   20.2380  -34.2220 C   0  0  0  0  0  0  0  0  0  0  0  0
    0.0120   19.3505  -33.9135 H   0  0  0  0  0  0  0  0  0  0  0  0
   -1.4103   19.9368  -34.8515 H   0  0  0  0  0  0  0  0  0  0  0  0
    0.3340   21.1560  -35.0110 C   0  0  0  0  0  0  0  0  0  0  0  0
   -0.1080   22.4450  -35.3510 C   0  0  0  0  0  0  0  0  0  0  0  0
   -1.1142   22.7741  -35.0523 H   0  0  0  0  0  0  0  0  0  0  0  0
    0.7230   23.3130  -36.0670 C   0  0  0  0  0  0  0  0  0  0  0  0
    0.1460   24.9200  -36.4760 Cl  0  0  0  0  0  0  0  0  0  0  0  0
    2.0060   22.8960  -36.4500 C   0  0  0  0  0  0  0  0  0  0  0  0
    2.8340   23.7590  -37.1620 O   0  0  0  0  0  0  0  0  0  0  0  0
    2.4530   21.6100  -36.1160 C   0  0  0  0  0  0  0  0  0  0  0  0
    4.0570   21.0710  -36.5870 Cl  0  0  0  0  0  0  0  0  0  0  0  0
    1.6200   20.7450  -35.4000 C   0  0  0  0  0  0  0  0  0  0  0  0
    1.9736   19.7365  -35.1396 H   0  0  0  0  0  0  0  0  0  0  0  0
  1  2  1  0
  2  3  2  0
  3  4  1  0
  4  5  1  0
  5  6  2  0
  5  7  2  0
  5  8  1  0
  8  9  2  0
  9 10  1  0
  9 11  1  0
 11 12  1  0
 11 13  2  0
 13 14  1  0
 14 15  1  0
 14 16  1  0
 14 17  1  0
 13 18  1  0
 18 19  1  0
 19 20  1  0
 19 21  1  0
 19 22  1  0
 18 23  2  0
 23 24  1  0
  4 25  2  0
 25 26  1  0
 26 27  1  0
 27 28  1  0
 27 29  1  0
 27 30  1  0
 25 31  1  0
 31 32  1  0
 32 33  1  0
 33 34  1  0
 33 35  1  0
 33 36  1  0
 36 37  2  0
 37 38  1  0
 37 39  1  0
 39 40  1  0
 39 41  2  0
 41 42  1  0
 41 43  1  0
 43 44  1  0
 43 45  2  0
 45 46  1  0
 32  3  1  0
 45 36  1  0
 23  8  1  0
M  CHG  2  31  -1  42  -1
M  END
>  <UniqueID>  (3) 
3

>  <SMILES>  (3) 
[H]/N=c1/c(S(=O)(=O)c2ccc(C)c(C)c2)c(SC)[n-]n1Cc1cc(Cl)c([O-])c(Cl)c1

>  <Energy>  (3) 
77.32090554968126

>  <Genealogy>  (3) 
CSc1[n-]n(Cc2cc(Cl)c([O-])c(Cl)c2)c(=N)c1S(=O)(=O)c1ccc(C)c(C)c1 (protonated)
[H]/N=c1/c(S(=O)(=O)c2ccc(C)c(C)c2)c(SC)[n-]n1Cc1cc(Cl)c([O-])c(Cl)c1 (cis-trans isomerization)
[H]/N=c1/c(S(=O)(=O)c2ccc(C)c(C)c2)c(SC)[n-]n1Cc1cc(Cl)c([O-])c(Cl)c1 (3D coordinates assigned)
[H]/N=c1/c(S(=O)(=O)c2ccc(C)c(C)c2)c(SC)[n-]n1Cc1cc(Cl)c([O-])c(Cl)c1 (optimized conformer: 77.32090554968126 kcal/mol)

>  <smiles>  (3) 
CSc1[nH]n(Cc2cc(Cl)c(O)c(Cl)c2)c(=N)c1S(=O)(=O)c1ccc(C)c(C)c1

>  <score_type>  (3) 
oracle

>  <origin>  (3) 
adgpu

>  <m_score__min__energy>  (3) 
-10.57

>  <m_primary>  (3) 
energy

$$$$
3:0
     RDKit          3D

 53 55  0  0  0  0  0  0  0  0999 V2000
    2.3650   24.5640  -27.8270 C   0  0  0  0  0  0  0  0  0  0  0  0
    1.3430   23.6030  -27.5850 O   0  0  0  0  0  0  0  0  0  0  0  0
    0.1350   23.5290  -28.2980 C   0  0  0  0  0  0  0  0  0  0  0  0
   -0.3190   22.3280  -28.8730 C   0  0  0  0  0  0  0  0  0  0  0  0
   -1.5230   22.2920  -29.5780 C   0  0  0  0  0  0  0  0  0  0  0  0
   -2.2980   23.4540  -29.7270 C   0  0  0  0  0  0  0  0  0  0  0  0
   -3.5850   23.4200  -30.4650 C   0  0  0  0  0  0  0  0  0  0  0  0
   -4.1150   24.5020  -30.8370 O   0  0  0  0  0  0  0  0  0  0  0  0
   -4.2130   22.1690  -30.7950 N   0  0  0  0  0  0  0  0  0  0  0  0
   -5.6180   22.0310  -31.0680 C   0  0  0  0  0  0  0  0  0  0  0  0
   -6.4610   23.1340  -30.9080 C   0  0  0  0  0  0  0  0  0  0  0  0
   -7.8190   23.0310  -31.2010 C   0  0  0  0  0  0  0  0  0  0  0  0
   -8.3660   21.8240  -31.6680 C   0  0  0  0  0  0  0  0  0  0  0  0
   -9.8360   21.7870  -31.9910 C   0  0  0  0  0  0  0  0  0  0  0  0
   -7.5280   20.6840  -31.8060 C   0  0  0  0  0  0  0  0  0  0  0  0
   -8.1770   19.1200  -32.3830 S   0  0  0  0  0  0  0  0  0  0  0  0
   -9.4770   19.3830  -33.0900 O   0  0  0  0  0  0  0  0  0  0  0  0
   -8.4500   18.2370  -31.1970 O   0  0  0  0  0  0  0  0  0  0  0  0
   -7.1250   18.2110  -33.4470 N   0  0  0  0  0  0  0  0  0  0  0  0
   -6.1650   19.0730  -34.1640 C   0  0  0  0  0  0  0  0  0  0  0  0
   -4.8960   18.3010  -34.5490 C   0  0  0  0  0  0  0  0  0  0  0  0
   -5.2390   16.9780  -34.8980 O   0  0  0  0  0  0  0  0  0  0  0  0
   -5.6350   16.2480  -33.7460 C   0  0  0  0  0  0  0  0  0  0  0  0
   -6.5160   17.0560  -32.7670 C   0  0  0  0  0  0  0  0  0  0  0  0
   -6.1530   20.8240  -31.5440 C   0  0  0  0  0  0  0  0  0  0  0  0
   -1.8490   24.6500  -29.1420 C   0  0  0  0  0  0  0  0  0  0  0  0
   -0.6340   24.6940  -28.4300 C   0  0  0  0  0  0  0  0  0  0  0  0
   -0.1570   25.8760  -27.8410 O   0  0  0  0  0  0  0  0  0  0  0  0
   -0.7330   26.4970  -26.6950 C   0  0  0  0  0  0  0  0  0  0  0  0
    2.7567   24.9323  -26.8673 H   0  0  0  0  0  0  0  0  0  0  0  0
    3.1793   24.0968  -28.4003 H   0  0  0  0  0  0  0  0  0  0  0  0
    1.9488   25.4054  -28.4003 H   0  0  0  0  0  0  0  0  0  0  0  0
    0.2791   21.4110  -28.7662 H   0  0  0  0  0  0  0  0  0  0  0  0
   -1.8679   21.3459  -30.0206 H   0  0  0  0  0  0  0  0  0  0  0  0
   -3.6000   21.3350  -30.9450 H   0  0  0  0  0  0  0  0  0  0  0  0
   -6.0499   24.0889  -30.5487 H   0  0  0  0  0  0  0  0  0  0  0  0
   -8.4716   23.9060  -31.0650 H   0  0  0  0  0  0  0  0  0  0  0  0
  -10.4164   21.7724  -31.0567 H   0  0  0  0  0  0  0  0  0  0  0  0
  -10.1054   22.6786  -32.5761 H   0  0  0  0  0  0  0  0  0  0  0  0
  -10.0602   20.8829  -32.5761 H   0  0  0  0  0  0  0  0  0  0  0  0
   -6.6419   19.4559  -35.0783 H   0  0  0  0  0  0  0  0  0  0  0  0
   -5.8777   19.8993  -33.4972 H   0  0  0  0  0  0  0  0  0  0  0  0
   -4.4132   18.7930  -35.4062 H   0  0  0  0  0  0  0  0  0  0  0  0
   -4.2018   18.2872  -33.6958 H   0  0  0  0  0  0  0  0  0  0  0  0
   -6.2018   15.3641  -34.0736 H   0  0  0  0  0  0  0  0  0  0  0  0
   -4.7155   15.9820  -33.2040 H   0  0  0  0  0  0  0  0  0  0  0  0
   -7.3126   16.4054  -32.3770 H   0  0  0  0  0  0  0  0  0  0  0  0
   -5.8852   17.4225  -31.9437 H   0  0  0  0  0  0  0  0  0  0  0  0
   -5.4827   19.9690  -31.7159 H   0  0  0  0  0  0  0  0  0  0  0  0
   -2.4537   25.5635  -29.2412 H   0  0  0  0  0  0  0  0  0  0  0  0
   -0.3140   26.0453  -25.7837 H   0  0  0  0  0  0  0  0  0  0  0  0
   -0.5063   27.5733  -26.7083 H   0  0  0  0  0  0  0  0  0  0  0  0
   -1.8233   26.3517  -26.7083 H   0  0  0  0  0  0  0  0  0  0  0  0
  1  2  1  0
  2  3  1  0
  3  4  2  0
  4  5  1  0
  5  6  2  0
  6  7  1  0
  7  8  2  0
  7  9  1  0
  9 10  1  0
 10 11  2  0
 11 12  1  0
 12 13  2  0
 13 14  1  0
 13 15  1  0
 15 16  1  0
 16 17  2  0
 16 18  2  0
 16 19  1  0
 19 20  1  0
 20 21  1  0
 21 22  1  0
 22 23  1  0
 23 24  1  0
 15 25  2  0
  6 26  1  0
 26 27  2  0
 27 28  1  0
 28 29  1  0
 27  3  1  0
 25 10  1  0
 24 19  1  0
  1 30  1  0
  1 31  1  0
  1 32  1  0
  4 33  1  0
  5 34  1  0
  9 35  1  0
 11 36  1  0
 12 37  1  0
 14 38  1  0
 14 39  1  0
 14 40  1  0
 20 41  1  0
 20 42  1  0
 21 43  1  0
 21 44  1  0
 23 45  1  0
 23 46  1  0
 24 47  1  0
 24 48  1  0
 25 49  1  0
 26 50  1  0
 29 51  1  0
 29 52  1  0
 29 53  1  0
M  END
>  <UniqueID>  (4) 
4

>  <SMILES>  (4) 
COc1ccc(C(=O)Nc2ccc(C)c(S(=O)(=O)N3CCOCC3)c2)cc1OC

>  <Energy>  (4) 
72.63414930975657

>  <Genealogy>  (4) 
COc1ccc(C(=O)Nc2ccc(C)c(S(=O)(=O)N3CCOCC3)c2)cc1OC (3D coordinates assigned)
COc1ccc(C(=O)Nc2ccc(C)c(S(=O)(=O)N3CCOCC3)c2)cc1OC (nonaromatic ring conformer: 72.63414930975657 kcal/mol)

>  <smiles>  (4) 
COc1ccc(C(=O)Nc2ccc(C)c(S(=O)(=O)N3CCOCC3)c2)cc1OC

>  <score_type>  (4) 
oracle

>  <origin>  (4) 
adgpu

>  <m_score__min__energy>  (4) 
-9.0399999999999991

>  <m_primary>  (4) 
energy

$$$$
4:0
     RDKit          3D

 26 28  0  0  0  0  0  0  0  0999 V2000
   -6.5100   23.7690  -30.2690 O   0  0  0  0  0  0  0  0  0  0  0  0
   -5.4640   23.0810  -30.4080 C   0  0  0  0  0  0  0  0  0  0  0  0
   -4.2220   23.5070  -29.7360 C   0  0  0  0  0  0  0  0  0  0  0  0
   -3.5480   22.8470  -28.7180 C   0  0  0  0  0  0  0  0  0  0  0  0
   -2.4680   23.5510  -28.3140 N   0  0  0  0  0  0  0  0  0  0  0  0
   -2.4600   24.6630  -29.0740 C   0  0  0  0  0  0  0  0  0  0  0  0
   -1.4930   25.6580  -28.9630 O   0  0  0  0  0  0  0  0  0  0  0  0
   -3.5200   24.6730  -29.9480 C   0  0  0  0  0  0  0  0  0  0  0  0
   -3.8200   25.6680  -30.8700 O   0  0  0  0  0  0  0  0  0  0  0  0
   -5.5320   21.8350  -31.1890 C   0  0  0  0  0  0  0  0  0  0  0  0
   -4.4380   21.1320  -31.6810 C   0  0  0  0  0  0  0  0  0  0  0  0
   -4.8470   20.0420  -32.3680 N   0  0  0  0  0  0  0  0  0  0  0  0
   -6.1910   20.0380  -32.3000 C   0  0  0  0  0  0  0  0  0  0  0  0
   -7.0650   19.0870  -32.8340 C   0  0  0  0  0  0  0  0  0  0  0  0
   -6.4330   17.5900  -33.8430 Br  0  0  0  0  0  0  0  0  0  0  0  0
   -8.4420   19.2530  -32.5990 C   0  0  0  0  0  0  0  0  0  0  0  0
   -8.9130   20.3410  -31.8330 C   0  0  0  0  0  0  0  0  0  0  0  0
   -8.0130   21.2820  -31.3040 C   0  0  0  0  0  0  0  0  0  0  0  0
   -8.4650   22.2890  -30.5190 F   0  0  0  0  0  0  0  0  0  0  0  0
   -6.6500   21.1150  -31.5770 C   0  0  0  0  0  0  0  0  0  0  0  0
   -3.8530   21.8782  -28.2957 H   0  0  0  0  0  0  0  0  0  0  0  0
   -1.6120   26.5550  -29.4180 H   0  0  0  0  0  0  0  0  0  0  0  0
   -3.3874   21.4220  -31.5322 H   0  0  0  0  0  0  0  0  0  0  0  0
   -4.2340   19.3440  -32.8420 H   0  0  0  0  0  0  0  0  0  0  0  0
   -9.1576   18.5289  -33.0156 H   0  0  0  0  0  0  0  0  0  0  0  0
   -9.9917   20.4532  -31.6488 H   0  0  0  0  0  0  0  0  0  0  0  0
  1  2  2  0
  2  3  1  0
  3  4  2  0
  4  5  1  0
  5  6  1  0
  6  7  1  0
  6  8  2  0
  8  9  1  0
  2 10  1  0
 10 11  2  0
 11 12  1  0
 12 13  1  0
 13 14  2  0
 14 15  1  0
 14 16  1  0
 16 17  2  0
 17 18  1  0
 18 19  1  0
 18 20  2  0
  8  3  1  0
 20 10  1  0
 20 13  1  0
  4 21  1  0
  7 22  1  0
 11 23  1  0
 12 24  1  0
 16 25  1  0
 17 26  1  0
M  CHG  2   5  -1   9  -1
M  END
>  <UniqueID>  (5) 
5

>  <SMILES>  (5) 
O=C(c1c[n-]c(O)c1[O-])c1c[nH]c2c(Br)ccc(F)c12

>  <Energy>  (5) 
94.50535398630797

>  <Genealogy>  (5) 
O=C(c1c[n-]c(O)c1[O-])c1c[nH]c2c(Br)ccc(F)c12 (protonated)
O=C(c1c[n-]c(O)c1[O-])c1c[nH]c2c(Br)ccc(F)c12 (3D coordinates assigned)
O=C(c1c[n-]c(O)c1[O-])c1c[nH]c2c(Br)ccc(F)c12 (optimized conformer: 94.50535398630797 kcal/mol)

>  <smiles>  (5) 
O=C(c1c[nH]c(O)c1O)c1c[nH]c2c(Br)ccc(F)c12

>  <score_type>  (5) 
oracle

>  <origin>  (5) 
adgpu

>  <m_score__min__energy>  (5) 
-11.99

>  <m_primary>  (5) 
energy

$$$$
5:0
     RDKit          3D

 34 36  0  0  0  0  0  0  0  0999 V2000
   -8.0530   20.6680  -31.1330 O   0  0  0  0  0  0  0  0  0  0  0  0
   -7.1050   20.6070  -31.9630 C   0  0  0  0  0  0  0  0  0  0  0  0
   -6.9040   19.5570  -32.7880 N   0  0  0  0  0  0  0  0  0  0  0  0
   -7.6710   18.3150  -32.8550 C   0  0  0  0  0  0  0  0  0  0  0  0
   -6.7380   17.1420  -32.9830 C   0  0  0  0  0  0  0  0  0  0  0  0
   -5.8190   16.8570  -31.9610 C   0  0  0  0  0  0  0  0  0  0  0  0
   -4.9790   15.7430  -32.0600 C   0  0  0  0  0  0  0  0  0  0  0  0
   -5.0590   14.9010  -33.1730 C   0  0  0  0  0  0  0  0  0  0  0  0
   -4.0070   13.5020  -33.2950 Cl  0  0  0  0  0  0  0  0  0  0  0  0
   -5.9830   15.1730  -34.1880 C   0  0  0  0  0  0  0  0  0  0  0  0
   -6.8230   16.2860  -34.0930 C   0  0  0  0  0  0  0  0  0  0  0  0
   -5.7740   19.8390  -33.4670 C   0  0  0  0  0  0  0  0  0  0  0  0
   -5.3260   21.0740  -33.0420 C   0  0  0  0  0  0  0  0  0  0  0  0
   -4.1980   21.7360  -33.5210 O   0  0  0  0  0  0  0  0  0  0  0  0
   -6.1590   21.5620  -32.0980 N   0  0  0  0  0  0  0  0  0  0  0  0
   -6.0490   22.8090  -31.3840 C   0  0  0  0  0  0  0  0  0  0  0  0
   -7.1840   23.3960  -30.7960 C   0  0  0  0  0  0  0  0  0  0  0  0
   -7.0740   24.6060  -30.1040 C   0  0  0  0  0  0  0  0  0  0  0  0
   -5.8340   25.2410  -29.9930 C   0  0  0  0  0  0  0  0  0  0  0  0
   -4.7000   24.6650  -30.5730 C   0  0  0  0  0  0  0  0  0  0  0  0
   -3.4670   25.2940  -30.4590 O   0  0  0  0  0  0  0  0  0  0  0  0
   -4.8060   23.4550  -31.2670 C   0  0  0  0  0  0  0  0  0  0  0  0
   -8.2696   18.2063  -31.9385 H   0  0  0  0  0  0  0  0  0  0  0  0
   -8.3346   18.3466  -33.7317 H   0  0  0  0  0  0  0  0  0  0  0  0
   -5.7592   17.5120  -31.0793 H   0  0  0  0  0  0  0  0  0  0  0  0
   -4.2542   15.5291  -31.2607 H   0  0  0  0  0  0  0  0  0  0  0  0
   -6.0484   14.5093  -35.0628 H   0  0  0  0  0  0  0  0  0  0  0  0
   -7.5527   16.4920  -34.8899 H   0  0  0  0  0  0  0  0  0  0  0  0
   -5.2950   19.2001  -34.2236 H   0  0  0  0  0  0  0  0  0  0  0  0
   -4.2770   22.4440  -34.2410 H   0  0  0  0  0  0  0  0  0  0  0  0
   -8.1626   22.9009  -30.8810 H   0  0  0  0  0  0  0  0  0  0  0  0
   -7.9655   25.0592  -29.6459 H   0  0  0  0  0  0  0  0  0  0  0  0
   -5.7504   26.1937  -29.4495 H   0  0  0  0  0  0  0  0  0  0  0  0
   -3.9115   23.0065  -31.7238 H   0  0  0  0  0  0  0  0  0  0  0  0
  1  2  2  0
  2  3  1  0
  3  4  1  0
  4  5  1  0
  5  6  2  0
  6  7  1  0
  7  8  2  0
  8  9  1  0
  8 10  1  0
 10 11  2  0
  3 12  1  0
 12 13  2  0
 13 14  1  0
 13 15  1  0
 15 16  1  0
 16 17  2  0
 17 18  1  0
 18 19  2  0
 19 20  1  0
 20 21  1  0
 20 22  2  0
 15  2  1  0
 22 16  1  0
 11  5  1  0
  4 23  1  0
  4 24  1  0
  6 25  1  0
  7 26  1  0
 10 27  1  0
 11 28  1  0
 12 29  1  0
 14 30  1  0
 17 31  1  0
 18 32  1  0
 19 33  1  0
 22 34  1  0
M  CHG  1  21  -1
M  END
>  <UniqueID>  (6) 
6

>  <SMILES>  (6) 
O=c1n(Cc2ccc(Cl)cc2)cc(O)n1-c1cccc([O-])c1

>  <Energy>  (6) 
73.71451475128067

>  <Genealogy>  (6) 
O=c1n(Cc2ccc(Cl)cc2)cc(O)n1-c1cccc([O-])c1 (protonated)
O=c1n(Cc2ccc(Cl)cc2)cc(O)n1-c1cccc([O-])c1 (3D coordinates assigned)
O=c1n(Cc2ccc(Cl)cc2)cc(O)n1-c1cccc([O-])c1 (optimized conformer: 73.71451475128067 kcal/mol)

>  <smiles>  (6) 
O=c1n(Cc2ccc(Cl)cc2)cc(O)n1-c1cccc(O)c1

>  <score_type>  (6) 
oracle

>  <origin>  (6) 
adgpu

>  <m_score__min__energy>  (6) 
-10.92

>  <m_primary>  (6) 
energy

$$$$
6:0
     RDKit          3D

 48 51  0  0  0  0  0  0  0  0999 V2000
   -4.3190   23.3070  -31.4330 O   0  0  0  0  0  0  0  0  0  0  0  0
   -5.1250   22.9340  -30.5380 C   0  0  0  0  0  0  0  0  0  0  0  0
   -4.7900   23.1130  -29.1500 N   0  0  0  0  0  0  0  0  0  0  0  0
   -3.4890   23.5190  -28.6950 C   0  0  0  0  0  0  0  0  0  0  0  0
   -2.8280   22.8170  -27.6720 C   0  0  0  0  0  0  0  0  0  0  0  0
   -1.5430   23.1950  -27.2730 C   0  0  0  0  0  0  0  0  0  0  0  0
   -0.9040   24.2690  -27.8960 C   0  0  0  0  0  0  0  0  0  0  0  0
   -1.5490   24.9680  -28.9190 C   0  0  0  0  0  0  0  0  0  0  0  0
   -2.8350   24.5930  -29.3240 C   0  0  0  0  0  0  0  0  0  0  0  0
   -3.4640   25.2970  -30.3450 O   0  0  0  0  0  0  0  0  0  0  0  0
   -6.3980   22.2870  -30.9420 C   0  0  0  0  0  0  0  0  0  0  0  0
   -7.5550   23.0650  -31.1240 C   0  0  0  0  0  0  0  0  0  0  0  0
   -8.7400   22.4770  -31.5710 C   0  0  0  0  0  0  0  0  0  0  0  0
   -8.7770   21.1140  -31.8680 C   0  0  0  0  0  0  0  0  0  0  0  0
   -7.6310   20.3260  -31.7100 C   0  0  0  0  0  0  0  0  0  0  0  0
   -7.6420   18.6280  -32.2050 S   0  0  0  0  0  0  0  0  0  0  0  0
   -6.9850   17.8070  -31.1290 O   0  0  0  0  0  0  0  0  0  0  0  0
   -9.0690   18.1740  -32.3180 O   0  0  0  0  0  0  0  0  0  0  0  0
   -6.8560   18.3630  -33.7550 N   0  0  0  0  0  0  0  0  0  0  0  0
   -6.0190   17.1510  -33.8010 C   0  0  0  0  0  0  0  0  0  0  0  0
   -4.7550   17.2640  -32.9340 C   0  0  0  0  0  0  0  0  0  0  0  0
   -4.1170   18.6280  -32.9970 C   0  0  0  0  0  0  0  0  0  0  0  0
   -2.8810   18.8300  -32.3620 C   0  0  0  0  0  0  0  0  0  0  0  0
   -2.3100   20.1040  -32.3170 C   0  0  0  0  0  0  0  0  0  0  0  0
   -2.9670   21.1860  -32.9040 C   0  0  0  0  0  0  0  0  0  0  0  0
   -4.1990   21.0000  -33.5340 C   0  0  0  0  0  0  0  0  0  0  0  0
   -4.7920   19.7280  -33.5690 C   0  0  0  0  0  0  0  0  0  0  0  0
   -6.1290   19.5470  -34.2470 C   0  0  0  0  0  0  0  0  0  0  0  0
   -6.4550   20.9100  -31.2240 C   0  0  0  0  0  0  0  0  0  0  0  0
   -5.4880   22.8590  -28.4170 H   0  0  0  0  0  0  0  0  0  0  0  0
   -3.3246   21.9659  -27.1831 H   0  0  0  0  0  0  0  0  0  0  0  0
   -1.0343   22.6457  -26.4671 H   0  0  0  0  0  0  0  0  0  0  0  0
    0.1076   24.5647  -27.5811 H   0  0  0  0  0  0  0  0  0  0  0  0
   -1.0450   25.8151  -29.4073 H   0  0  0  0  0  0  0  0  0  0  0  0
   -7.5264   24.1442  -30.9128 H   0  0  0  0  0  0  0  0  0  0  0  0
   -9.6461   23.0894  -31.6892 H   0  0  0  0  0  0  0  0  0  0  0  0
   -9.7106   20.6570  -32.2278 H   0  0  0  0  0  0  0  0  0  0  0  0
   -6.6153   16.2988  -33.4429 H   0  0  0  0  0  0  0  0  0  0  0  0
   -5.6936   17.0138  -34.8428 H   0  0  0  0  0  0  0  0  0  0  0  0
   -5.0265   17.0521  -31.8893 H   0  0  0  0  0  0  0  0  0  0  0  0
   -4.0235   16.5406  -33.3233 H   0  0  0  0  0  0  0  0  0  0  0  0
   -2.3595   17.9802  -31.8974 H   0  0  0  0  0  0  0  0  0  0  0  0
   -1.3412   20.2545  -31.8182 H   0  0  0  0  0  0  0  0  0  0  0  0
   -2.5134   22.1875  -32.8703 H   0  0  0  0  0  0  0  0  0  0  0  0
   -4.7074   21.8541  -34.0051 H   0  0  0  0  0  0  0  0  0  0  0  0
   -6.7429   20.4405  -34.0605 H   0  0  0  0  0  0  0  0  0  0  0  0
   -5.9419   19.4017  -35.3212 H   0  0  0  0  0  0  0  0  0  0  0  0
   -5.5649   20.2846  -31.0607 H   0  0  0  0  0  0  0  0  0  0  0  0
  1  2  2  0
  2  3  1  0
  3  4  1  0
  4  5  2  0
  5  6  1  0
  6  7  2  0
  7  8  1  0
  8  9  2  0
  9 10  1  0
  2 11  1  0
 11 12  2  0
 12 13  1  0
 13 14  2  0
 14 15  1  0
 15 16  1  0
 16 17  2  0
 16 18  2  0
 16 19  1  0
 19 20  1  0
 20 21  1  0
 21 22  1  0
 22 23  2  0
 23 24  1  0
 24 25  2  0
 25 26  1  0
 26 27  2  0
 27 28  1  0
 15 29  2  0
  9  4  1  0
 29 11  1  0
 28 19  1  0
 27 22  1  0
  3 30  1  0
  5 31  1  0
  6 32  1  0
  7 33  1  0
  8 34  1  0
 12 35  1  0
 13 36  1  0
 14 37  1  0
 20 38  1  0
 20 39  1  0
 21 40  1  0
 21 41  1  0
 23 42  1  0
 24 43  1  0
 25 44  1  0
 26 45  1  0
 28 46  1  0
 28 47  1  0
 29 48  1  0
M  CHG  1  10  -1
M  END
>  <UniqueID>  (7) 
7

>  <SMILES>  (7) 
O=C(Nc1ccccc1[O-])c1cccc(S(=O)(=O)N2CCc3ccccc3C2)c1

>  <Energy>  (7) 
62.02829265400438

>  <Genealogy>  (7) 
O=C(Nc1ccccc1[O-])c1cccc(S(=O)(=O)N2CCc3ccccc3C2)c1 (protonated)
O=C(Nc1ccccc1[O-])c1cccc(S(=O)(=O)N2CCc3ccccc3C2)c1 (3D coordinates assigned)
O=C(Nc1ccccc1[O-])c1cccc(S(=O)(=O)N2CCc3ccccc3C2)c1 (nonaromatic ring conformer: 62.02829265400438 kcal/mol)

>  <smiles>  (7) 
O=C(Nc1ccccc1O)c1cccc(S(=O)(=O)N2CCc3ccccc3C2)c1

>  <score_type>  (7) 
oracle

>  <origin>  (7) 
adgpu

>  <m_score__min__energy>  (7) 
-13.43

>  <m_primary>  (7) 
energy

$$$$
7:0
     RDKit          3D

 47 49  0  0  0  0  0  0  0  0999 V2000
   -0.3920   28.9000  -27.1450 C   0  0  0  0  0  0  0  0  0  0  0  0
   -0.4540   27.6180  -27.7660 O   0  0  0  0  0  0  0  0  0  0  0  0
   -0.6240   26.4060  -27.0780 C   0  0  0  0  0  0  0  0  0  0  0  0
   -0.0640   26.1750  -25.8020 C   0  0  0  0  0  0  0  0  0  0  0  0
   -0.2220   24.9380  -25.1720 C   0  0  0  0  0  0  0  0  0  0  0  0
   -0.9310   23.9140  -25.8020 C   0  0  0  0  0  0  0  0  0  0  0  0
   -1.5060   24.1340  -27.0540 C   0  0  0  0  0  0  0  0  0  0  0  0
   -1.3670   25.3760  -27.6900 C   0  0  0  0  0  0  0  0  0  0  0  0
   -1.9900   25.6160  -28.9530 N   0  0  0  0  0  0  0  0  0  0  0  0
   -3.1900   24.5520  -29.6110 S   0  0  0  0  0  0  0  0  0  0  0  0
   -3.8420   25.2260  -30.7810 O   0  0  0  0  0  0  0  0  0  0  0  0
   -4.2390   24.2810  -28.5660 O   0  0  0  0  0  0  0  0  0  0  0  0
   -2.4520   23.0460  -30.1480 C   0  0  0  0  0  0  0  0  0  0  0  0
   -1.0620   22.8760  -30.1020 C   0  0  0  0  0  0  0  0  0  0  0  0
   -0.4810   21.7070  -30.5990 C   0  0  0  0  0  0  0  0  0  0  0  0
   -1.2830   20.7120  -31.1640 C   0  0  0  0  0  0  0  0  0  0  0  0
   -2.6710   20.8790  -31.2390 C   0  0  0  0  0  0  0  0  0  0  0  0
   -3.4630   19.8480  -31.8490 N   0  0  0  0  0  0  0  0  0  0  0  0
   -4.5330   20.0530  -32.7870 C   0  0  0  0  0  0  0  0  0  0  0  0
   -4.3160   19.8450  -34.0110 O   0  0  0  0  0  0  0  0  0  0  0  0
   -5.8580   20.5420  -32.3570 C   0  0  0  0  0  0  0  0  0  0  0  0
   -6.8570   19.6230  -31.9880 C   0  0  0  0  0  0  0  0  0  0  0  0
   -8.1330   20.0700  -31.6330 C   0  0  0  0  0  0  0  0  0  0  0  0
   -8.4350   21.4390  -31.6610 C   0  0  0  0  0  0  0  0  0  0  0  0
   -9.7990   21.9270  -31.2690 C   0  0  0  0  0  0  0  0  0  0  0  0
   -7.4370   22.3610  -32.0140 C   0  0  0  0  0  0  0  0  0  0  0  0
   -6.1500   21.9180  -32.3570 C   0  0  0  0  0  0  0  0  0  0  0  0
   -5.1700   22.8410  -32.7210 O   0  0  0  0  0  0  0  0  0  0  0  0
   -3.2570   22.0350  -30.6890 C   0  0  0  0  0  0  0  0  0  0  0  0
   -0.3979   28.7785  -26.0517 H   0  0  0  0  0  0  0  0  0  0  0  0
    0.5320   29.4119  -27.4521 H   0  0  0  0  0  0  0  0  0  0  0  0
   -1.2622   29.4986  -27.4521 H   0  0  0  0  0  0  0  0  0  0  0  0
    0.5006   26.9749  -25.3006 H   0  0  0  0  0  0  0  0  0  0  0  0
    0.2139   24.7705  -24.1760 H   0  0  0  0  0  0  0  0  0  0  0  0
   -1.0363   22.9348  -25.3120 H   0  0  0  0  0  0  0  0  0  0  0  0
   -2.0717   23.3285  -27.5451 H   0  0  0  0  0  0  0  0  0  0  0  0
   -0.4267   23.6651  -29.6734 H   0  0  0  0  0  0  0  0  0  0  0  0
    0.6091   21.5696  -30.5455 H   0  0  0  0  0  0  0  0  0  0  0  0
   -0.8211   19.7922  -31.5521 H   0  0  0  0  0  0  0  0  0  0  0  0
   -6.6328   18.5461  -31.9788 H   0  0  0  0  0  0  0  0  0  0  0  0
   -8.9031   19.3451  -31.3305 H   0  0  0  0  0  0  0  0  0  0  0  0
   -9.8772   21.9550  -30.1721 H   0  0  0  0  0  0  0  0  0  0  0  0
   -9.9572   22.9375  -31.6738 H   0  0  0  0  0  0  0  0  0  0  0  0
  -10.5623   21.2462  -31.6738 H   0  0  0  0  0  0  0  0  0  0  0  0
   -7.6649   23.4371  -32.0219 H   0  0  0  0  0  0  0  0  0  0  0  0
   -4.6700   22.7660  -33.6000 H   0  0  0  0  0  0  0  0  0  0  0  0
   -4.3515   22.1449  -30.6840 H   0  0  0  0  0  0  0  0  0  0  0  0
  1  2  1  0
  2  3  1  0
  3  4  2  0
  4  5  1  0
  5  6  2  0
  6  7  1  0
  7  8  2  0
  8  9  1  0
  9 10  1  0
 10 11  2  0
 10 12  2  0
 10 13  1  0
 13 14  2  0
 14 15  1  0
 15 16  2  0
 16 17  1  0
 17 18  1  0
 18 19  1  0
 19 20  2  0
 19 21  1  0
 21 22  2  0
 22 23  1  0
 23 24  2  0
 24 25  1  0
 24 26  1  0
 26 27  2  0
 27 28  1  0
 17 29  2  0
  8  3  1  0
 29 13  1  0
 27 21  1  0
  1 30  1  0
  1 31  1  0
  1 32  1  0
  4 33  1  0
  5 34  1  0
  6 35  1  0
  7 36  1  0
 14 37  1  0
 15 38  1  0
 16 39  1  0
 22 40  1  0
 23 41  1  0
 25 42  1  0
 25 43  1  0
 25 44  1  0
 26 45  1  0
 28 46  1  0
 29 47  1  0
M  CHG  2   9  -1  18  -1
M  END
>  <UniqueID>  (8) 
8

>  <SMILES>  (8) 
COc1ccccc1[N-]S(=O)(=O)c1cccc([N-]C(=O)c2ccc(C)cc2O)c1

>  <Energy>  (8) 
63.13166849287429

>  <Genealogy>  (8) 
COc1ccccc1[N-]S(=O)(=O)c1cccc([N-]C(=O)c2ccc(C)cc2O)c1 (protonated)
COc1ccccc1[N-]S(=O)(=O)c1cccc([N-]C(=O)c2ccc(C)cc2O)c1 (3D coordinates assigned)
COc1ccccc1[N-]S(=O)(=O)c1cccc([N-]C(=O)c2ccc(C)cc2O)c1 (optimized conformer: 63.13166849287429 kcal/mol)

>  <smiles>  (8) 
COc1ccccc1NS(=O)(=O)c1cccc(NC(=O)c2ccc(C)cc2O)c1

>  <score_type>  (8) 
oracle

>  <origin>  (8) 
adgpu

>  <m_score__min__energy>  (8) 
-10.98

>  <m_primary>  (8) 
energy

$$$$
8:0
     RDKit          3D

 63 68  0  0  0  0  0  0  0  0999 V2000
   -6.7360   17.4180  -30.8010 O   0  0  0  0  0  0  0  0  0  0  0  0
   -6.3780   17.5740  -31.9990 C   0  0  0  0  0  0  0  0  0  0  0  0
   -5.4900   16.6850  -32.7380 C   0  0  0  0  0  0  0  0  0  0  0  0
   -4.8930   15.4850  -32.3700 C   0  0  0  0  0  0  0  0  0  0  0  0
   -4.0430   14.8560  -33.2970 C   0  0  0  0  0  0  0  0  0  0  0  0
   -3.7930   15.4300  -34.5700 C   0  0  0  0  0  0  0  0  0  0  0  0
   -2.8530   14.6850  -35.5020 C   0  0  0  0  0  0  0  0  0  0  0  0
   -1.6510   15.4540  -36.0340 C   0  0  0  0  0  0  0  0  0  0  0  0
   -2.8170   15.1260  -36.9600 C   0  0  0  0  0  0  0  0  0  0  0  0
   -4.4180   16.6610  -34.9070 C   0  0  0  0  0  0  0  0  0  0  0  0
   -5.2600   17.2550  -33.9690 C   0  0  0  0  0  0  0  0  0  0  0  0
   -6.0050   18.5070  -34.0200 C   0  0  0  0  0  0  0  0  0  0  0  0
   -5.9950   19.3270  -34.9760 O   0  0  0  0  0  0  0  0  0  0  0  0
   -6.7420   18.6970  -32.8080 N   0  0  0  0  0  0  0  0  0  0  0  0
   -7.2090   19.9550  -32.3070 C   0  0  0  0  0  0  0  0  0  0  0  0
   -8.5880   20.1860  -32.2260 C   0  0  0  0  0  0  0  0  0  0  0  0
   -9.0740   21.4040  -31.7540 C   0  0  0  0  0  0  0  0  0  0  0  0
   -8.1870   22.3990  -31.3450 C   0  0  0  0  0  0  0  0  0  0  0  0
   -6.8010   22.1850  -31.3960 C   0  0  0  0  0  0  0  0  0  0  0  0
   -5.9160   23.2650  -30.9150 C   0  0  0  0  0  0  0  0  0  0  0  0
   -6.1290   24.5880  -31.3200 C   0  0  0  0  0  0  0  0  0  0  0  0
   -5.2770   25.5900  -30.8590 C   0  0  0  0  0  0  0  0  0  0  0  0
   -4.2460   25.2790  -30.0310 N   0  0  0  0  0  0  0  0  0  0  0  0
   -3.9970   24.0020  -29.6220 C   0  0  0  0  0  0  0  0  0  0  0  0
   -2.8860   23.7360  -28.7340 N   0  0  0  0  0  0  0  0  0  0  0  0
   -2.3170   24.8320  -27.9220 C   0  0  0  0  0  0  0  0  0  0  0  0
   -1.0460   25.4610  -28.5310 C   0  0  0  0  0  0  0  0  0  0  0  0
    0.1970   24.7320  -28.2160 N   0  0  0  0  0  0  0  0  0  0  0  0
    0.0530   23.2940  -27.9240 C   0  0  0  0  0  0  0  0  0  0  0  0
   -0.7250   22.5020  -28.9940 C   0  0  1  0  0  0  0  0  0  0  0  0
   -0.1920   21.2290  -29.1150 F   0  0  0  0  0  0  0  0  0  0  0  0
   -2.2470   22.4080  -28.7530 C   0  0  0  0  0  0  0  0  0  0  0  0
   -4.8380   22.9670  -30.0730 C   0  0  0  0  0  0  0  0  0  0  0  0
   -6.2960   20.9550  -31.8970 C   0  0  0  0  0  0  0  0  0  0  0  0
   -4.8070   20.6820  -31.9810 C   0  0  0  0  0  0  0  0  0  0  0  0
   -4.3060   21.0860  -33.2250 O   0  0  0  0  0  0  0  0  0  0  0  0
   -5.0801   15.0399  -31.3816 H   0  0  0  0  0  0  0  0  0  0  0  0
   -3.5637   13.9025  -33.0305 H   0  0  0  0  0  0  0  0  0  0  0  0
   -2.9980   13.7252  -34.9846 H   0  0  0  0  0  0  0  0  0  0  0  0
   -1.4772   16.4923  -35.7150 H   0  0  0  0  0  0  0  0  0  0  0  0
   -0.5651   15.2799  -36.0589 H   0  0  0  0  0  0  0  0  0  0  0  0
   -3.4847   15.9275  -37.3090 H   0  0  0  0  0  0  0  0  0  0  0  0
   -2.9213   14.6172  -37.9297 H   0  0  0  0  0  0  0  0  0  0  0  0
   -4.2414   17.1334  -35.8846 H   0  0  0  0  0  0  0  0  0  0  0  0
   -9.2925   19.4006  -32.5371 H   0  0  0  0  0  0  0  0  0  0  0  0
  -10.1586   21.5805  -31.7041 H   0  0  0  0  0  0  0  0  0  0  0  0
   -8.5771   23.3602  -30.9791 H   0  0  0  0  0  0  0  0  0  0  0  0
   -6.9612   24.8345  -31.9959 H   0  0  0  0  0  0  0  0  0  0  0  0
   -5.4396   26.6337  -31.1659 H   0  0  0  0  0  0  0  0  0  0  0  0
   -3.0786   25.6190  -27.8188 H   0  0  0  0  0  0  0  0  0  0  0  0
   -2.0279   24.3975  -26.9537 H   0  0  0  0  0  0  0  0  0  0  0  0
   -1.1634   25.4873  -29.6244 H   0  0  0  0  0  0  0  0  0  0  0  0
   -0.9459   26.4639  -28.0902 H   0  0  0  0  0  0  0  0  0  0  0  0
    0.6500   25.1960  -27.3940 H   0  0  0  0  0  0  0  0  0  0  0  0
    1.0592   22.8581  -27.8371 H   0  0  0  0  0  0  0  0  0  0  0  0
   -0.5284   23.2192  -26.9932 H   0  0  0  0  0  0  0  0  0  0  0  0
   -0.6069   23.0723  -29.9272 H   0  0  0  0  0  0  0  0  0  0  0  0
   -2.6976   21.8085  -29.5577 H   0  0  0  0  0  0  0  0  0  0  0  0
   -2.4072   21.9398  -27.7706 H   0  0  0  0  0  0  0  0  0  0  0  0
   -4.6488   21.9281  -29.7650 H   0  0  0  0  0  0  0  0  0  0  0  0
   -4.2910   21.2382  -31.1845 H   0  0  0  0  0  0  0  0  0  0  0  0
   -4.6348   19.6023  -31.8606 H   0  0  0  0  0  0  0  0  0  0  0  0
   -5.0350   20.9450  -33.8840 H   0  0  0  0  0  0  0  0  0  0  0  0
  1  2  2  0
  2  3  1  0
  3  4  2  0
  4  5  1  0
  5  6  2  0
  6  7  1  0
  7  8  1  0
  8  9  1  0
  6 10  1  0
 10 11  2  0
 11 12  1  0
 12 13  2  0
 12 14  1  0
 14 15  1  0
 15 16  2  0
 16 17  1  0
 17 18  2  0
 18 19  1  0
 19 20  1  0
 20 21  2  0
 21 22  1  0
 22 23  2  0
 23 24  1  0
 24 25  1  0
 25 26  1  0
 26 27  1  0
 27 28  1  0
 28 29  1  0
 29 30  1  0
 30 31  1  0
 30 32  1  0
 24 33  2  0
 19 34  2  0
 34 35  1  0
 35 36  1  0
 14  2  1  0
 34 15  1  0
 11  3  1  0
 33 20  1  0
  9  7  1  0
 32 25  1  0
  4 37  1  0
  5 38  1  0
  7 39  1  0
  8 40  1  0
  8 41  1  0
  9 42  1  0
  9 43  1  0
 10 44  1  0
 16 45  1  0
 17 46  1  0
 18 47  1  0
 21 48  1  0
 22 49  1  0
 26 50  1  0
 26 51  1  0
 27 52  1  0
 27 53  1  0
 28 54  1  0
 29 55  1  0
 29 56  1  0
 30 57  1  6
 32 58  1  0
 32 59  1  0
 33 60  1  0
 35 61  1  0
 35 62  1  0
 36 63  1  0
M  END
>  <UniqueID>  (9) 
9

>  <SMILES>  (9) 
O=C1c2ccc(C3CC3)cc2C(=O)N1c1cccc(-c2ccnc(N3CCNC[C@@H](F)C3)c2)c1CO

>  <Energy>  (9) 
397.8608938076911

>  <Genealogy>  (9) 
O=C1c2ccc(C3CC3)cc2C(=O)N1c1cccc(-c2ccnc(N3CCNC[C@@H](F)C3)c2)c1CO (chirality)
O=C1c2ccc(C3CC3)cc2C(=O)N1c1cccc(-c2ccnc(N3CCNC[C@@H](F)C3)c2)c1CO (3D coordinates assigned)
O=C1c2ccc(C3CC3)cc2C(=O)N1c1cccc(-c2ccnc(N3CCNC[C@@H](F)C3)c2)c1CO (nonaromatic ring conformer: 397.8608938076911 kcal/mol)

>  <smiles>  (9) 
O=C1c2ccc(C3CC3)cc2C(=O)N1c1cccc(-c2ccnc(N3CCNCC(F)C3)c2)c1CO

>  <score_type>  (9) 
oracle

>  <origin>  (9) 
adgpu

>  <m_score__min__energy>  (9) 
-8.5199999999999996

>  <m_primary>  (9) 
energy

$$$$
9:0
     RDKit          3D

 61 64  0  0  0  0  0  0  0  0999 V2000
   -7.9300   12.9820  -35.5720 C   0  0  0  0  0  0  0  0  0  0  0  0
   -7.1480   13.8300  -34.6150 C   0  0  0  0  0  0  0  0  0  0  0  0
   -6.3980   13.2660  -33.7750 O   0  0  0  0  0  0  0  0  0  0  0  0
   -7.2580   15.2600  -34.5970 N   0  0  0  0  0  0  0  0  0  0  0  0
   -6.3160   16.1850  -34.0370 C   0  0  0  0  0  0  0  0  0  0  0  0
   -6.7880   17.2240  -33.2270 C   0  0  0  0  0  0  0  0  0  0  0  0
   -5.8960   18.1280  -32.6450 C   0  0  0  0  0  0  0  0  0  0  0  0
   -4.5140   17.9890  -32.8350 C   0  0  0  0  0  0  0  0  0  0  0  0
   -3.6170   18.9460  -32.2460 N   0  0  0  0  0  0  0  0  0  0  0  0
   -3.6640   20.3570  -32.5170 C   0  0  0  0  0  0  0  0  0  0  0  0
   -4.1690   20.7680  -33.5980 O   0  0  0  0  0  0  0  0  0  0  0  0
   -3.0870   21.3350  -31.5620 C   0  0  0  0  0  0  0  0  0  0  0  0
   -2.0340   20.9730  -30.7070 C   0  0  0  0  0  0  0  0  0  0  0  0
   -1.5040   21.8980  -29.8050 C   0  0  0  0  0  0  0  0  0  0  0  0
   -2.0230   23.1960  -29.7310 C   0  0  0  0  0  0  0  0  0  0  0  0
   -1.4780   24.1300  -28.7860 N   0  0  0  0  0  0  0  0  0  0  0  0
   -2.3650   25.0340  -28.0500 C   0  0  0  0  0  0  0  0  0  0  0  0
   -1.9750   25.0530  -26.5690 C   0  0  0  0  0  0  0  0  0  0  0  0
   -0.5190   25.1960  -26.3860 N   0  0  0  0  0  0  0  0  0  0  0  0
    0.0250   25.3890  -25.0620 C   0  0  0  0  0  0  0  0  0  0  0  0
   -0.8110   25.1750  -23.8350 C   0  0  0  0  0  0  0  0  0  0  0  0
    1.2210   25.7610  -24.9170 O   0  0  0  0  0  0  0  0  0  0  0  0
    0.3630   25.2590  -27.5630 C   0  0  0  0  0  0  0  0  0  0  0  0
   -0.0260   24.1820  -28.5840 C   0  0  0  0  0  0  0  0  0  0  0  0
   -3.1020   23.5620  -30.5540 C   0  0  0  0  0  0  0  0  0  0  0  0
   -3.6500   24.8860  -30.4520 N   0  0  0  0  0  0  0  0  0  0  0  0
   -5.0340   25.2380  -30.5750 C   0  0  0  0  0  0  0  0  0  0  0  0
   -5.3650   26.4450  -30.4410 O   0  0  0  0  0  0  0  0  0  0  0  0
   -6.0820   24.2260  -30.7980 C   0  0  0  0  0  0  0  0  0  0  0  0
   -6.7710   23.5120  -29.8210 C   0  0  0  0  0  0  0  0  0  0  0  0
   -7.7290   22.6380  -30.3490 C   0  0  0  0  0  0  0  0  0  0  0  0
   -7.8100   22.6660  -31.7350 C   0  0  0  0  0  0  0  0  0  0  0  0
   -6.6880   23.7820  -32.3030 S   0  0  0  0  0  0  0  0  0  0  0  0
   -3.6130   22.6360  -31.4800 C   0  0  0  0  0  0  0  0  0  0  0  0
   -4.0380   16.9370  -33.6400 C   0  0  0  0  0  0  0  0  0  0  0  0
   -4.9320   16.0330  -34.2240 C   0  0  0  0  0  0  0  0  0  0  0  0
   -8.5702   12.2878  -35.0079 H   0  0  0  0  0  0  0  0  0  0  0  0
   -8.5571   13.6268  -36.2052 H   0  0  0  0  0  0  0  0  0  0  0  0
   -7.2366   12.4091  -36.2052 H   0  0  0  0  0  0  0  0  0  0  0  0
   -7.8681   17.3295  -33.0475 H   0  0  0  0  0  0  0  0  0  0  0  0
   -6.2814   18.9562  -32.0322 H   0  0  0  0  0  0  0  0  0  0  0  0
   -2.8250   18.5820  -31.6690 H   0  0  0  0  0  0  0  0  0  0  0  0
   -1.6234   19.9533  -30.7479 H   0  0  0  0  0  0  0  0  0  0  0  0
   -0.6723   21.6044  -29.1476 H   0  0  0  0  0  0  0  0  0  0  0  0
   -2.2764   26.0493  -28.4638 H   0  0  0  0  0  0  0  0  0  0  0  0
   -3.4029   24.6828  -28.1474 H   0  0  0  0  0  0  0  0  0  0  0  0
   -2.4798   25.8987  -26.0791 H   0  0  0  0  0  0  0  0  0  0  0  0
   -2.2824   24.0956  -26.1231 H   0  0  0  0  0  0  0  0  0  0  0  0
   -0.1935   25.3331  -22.9385 H   0  0  0  0  0  0  0  0  0  0  0  0
   -1.6490   25.8876  -23.8334 H   0  0  0  0  0  0  0  0  0  0  0  0
   -1.2035   24.1474  -23.8334 H   0  0  0  0  0  0  0  0  0  0  0  0
    0.2725   26.2506  -28.0305 H   0  0  0  0  0  0  0  0  0  0  0  0
    1.4001   25.0852  -27.2402 H   0  0  0  0  0  0  0  0  0  0  0  0
    0.4603   24.4081  -29.5444 H   0  0  0  0  0  0  0  0  0  0  0  0
    0.3032   23.2061  -28.1976 H   0  0  0  0  0  0  0  0  0  0  0  0
   -6.5817   23.6234  -28.7431 H   0  0  0  0  0  0  0  0  0  0  0  0
   -8.3594   21.9889  -29.7235 H   0  0  0  0  0  0  0  0  0  0  0  0
   -8.4903   22.0626  -32.3540 H   0  0  0  0  0  0  0  0  0  0  0  0
   -4.4345   22.9331  -32.1486 H   0  0  0  0  0  0  0  0  0  0  0  0
   -2.9571   16.8250  -33.8109 H   0  0  0  0  0  0  0  0  0  0  0  0
   -4.5496   15.1999  -34.8320 H   0  0  0  0  0  0  0  0  0  0  0  0
  1  2  1  0
  2  3  2  0
  2  4  1  0
  4  5  1  0
  5  6  2  0
  6  7  1  0
  7  8  2  0
  8  9  1  0
  9 10  1  0
 10 11  2  0
 10 12  1  0
 12 13  2  0
 13 14  1  0
 14 15  2  0
 15 16  1  0
 16 17  1  0
 17 18  1  0
 18 19  1  0
 19 20  1  0
 20 21  1  0
 20 22  2  0
 19 23  1  0
 23 24  1  0
 15 25  1  0
 25 26  1  0
 26 27  1  0
 27 28  2  0
 27 29  1  0
 29 30  2  0
 30 31  1  0
 31 32  2  0
 32 33  1  0
 25 34  2  0
  8 35  1  0
 35 36  2  0
 36  5  1  0
 34 12  1  0
 24 16  1  0
 33 29  1  0
  1 37  1  0
  1 38  1  0
  1 39  1  0
  6 40  1  0
  7 41  1  0
  9 42  1  0
 13 43  1  0
 14 44  1  0
 17 45  1  0
 17 46  1  0
 18 47  1  0
 18 48  1  0
 21 49  1  0
 21 50  1  0
 21 51  1  0
 23 52  1  0
 23 53  1  0
 24 54  1  0
 24 55  1  0
 30 56  1  0
 31 57  1  0
 32 58  1  0
 34 59  1  0
 35 60  1  0
 36 61  1  0
M  CHG  2   4  -1  26  -1
M  END
>  <UniqueID>  (10) 
10

>  <SMILES>  (10) 
CC(=O)[N-]c1ccc(NC(=O)c2ccc(N3CCN(C(C)=O)CC3)c([N-]C(=O)c3cccs3)c2)cc1

>  <Energy>  (10) 
107.62004108925511

>  <Genealogy>  (10) 
CC(=O)[N-]c1ccc(NC(=O)c2ccc(N3CCN(C(C)=O)CC3)c([N-]C(=O)c3cccs3)c2)cc1 (protonated)
CC(=O)[N-]c1ccc(NC(=O)c2ccc(N3CCN(C(C)=O)CC3)c([N-]C(=O)c3cccs3)c2)cc1 (3D coordinates assigned)
CC(=O)[N-]c1ccc(NC(=O)c2ccc(N3CCN(C(C)=O)CC3)c([N-]C(=O)c3cccs3)c2)cc1 (nonaromatic ring conformer: 107.62004108925511 kcal/mol)

>  <smiles>  (10) 
CC(=O)Nc1ccc(NC(=O)c2ccc(N3CCN(C(C)=O)CC3)c(NC(=O)c3cccs3)c2)cc1

>  <score_type>  (10) 
oracle

>  <origin>  (10) 
adgpu

>  <m_score__min__energy>  (10) 
-10.09

>  <m_primary>  (10) 
energy

$$$$
10:0
     RDKit          3D

 60 65  0  0  0  0  0  0  0  0999 V2000
    3.0990   26.4440  -36.7360 O   0  0  0  0  0  0  0  0  0  0  0  0
    2.2570   25.5310  -36.9360 C   0  0  0  0  0  0  0  0  0  0  0  0
    2.6910   24.1660  -36.8720 N   0  0  0  0  0  0  0  0  0  0  0  0
    1.9130   23.0600  -36.3940 C   0  0  0  0  0  0  0  0  0  0  0  0
    2.4550   21.7720  -36.4630 C   0  0  0  0  0  0  0  0  0  0  0  0
    1.7280   20.6710  -35.9970 C   0  0  0  0  0  0  0  0  0  0  0  0
    0.4510   20.8440  -35.4330 C   0  0  0  0  0  0  0  0  0  0  0  0
   -0.3310   19.6760  -34.9560 C   0  0  0  0  0  0  0  0  0  0  0  0
   -1.5520   19.8600  -34.3560 N   0  0  0  0  0  0  0  0  0  0  0  0
   -2.3150   18.8140  -33.9160 C   0  0  0  0  0  0  0  0  0  0  0  0
   -3.5970   19.0600  -33.3030 N   0  0  0  0  0  0  0  0  0  0  0  0
   -3.8150   20.3260  -32.5830 C   0  0  0  0  0  0  0  0  0  0  0  0
   -4.6910   20.0900  -31.3530 C   0  0  0  0  0  0  0  0  0  0  0  0
   -5.8810   19.3330  -31.7520 N   0  0  0  0  0  0  0  0  0  0  0  0
   -7.1890   19.9390  -31.8600 C   0  0  0  0  0  0  0  0  0  0  0  0
   -8.2360   19.3080  -32.5590 C   0  0  0  0  0  0  0  0  0  0  0  0
   -9.4900   19.9190  -32.6180 C   0  0  0  0  0  0  0  0  0  0  0  0
   -9.7010   21.1410  -31.9770 C   0  0  0  0  0  0  0  0  0  0  0  0
   -8.6470   21.7370  -31.2820 C   0  0  0  0  0  0  0  0  0  0  0  0
   -7.4310   21.1300  -31.2390 N   0  0  0  0  0  0  0  0  0  0  0  0
   -5.6260   18.0210  -32.3520 C   0  0  0  0  0  0  0  0  0  0  0  0
   -4.7570   18.2020  -33.6000 C   0  0  0  0  0  0  0  0  0  0  0  0
   -1.8020   17.5310  -34.1150 C   0  0  0  0  0  0  0  0  0  0  0  0
   -2.3490   16.3370  -33.8440 N   0  0  0  0  0  0  0  0  0  0  0  0
   -1.4010   15.4700  -34.2930 C   0  0  0  0  0  0  0  0  0  0  0  0
   -0.3050   16.0640  -34.8360 N   0  0  0  0  0  0  0  0  0  0  0  0
   -0.5990   17.3630  -34.7040 C   0  0  0  0  0  0  0  0  0  0  0  0
    0.1520   18.4050  -35.1320 N   0  0  0  0  0  0  0  0  0  0  0  0
   -0.0740   22.1460  -35.3320 C   0  0  0  0  0  0  0  0  0  0  0  0
    0.6530   23.2430  -35.8030 C   0  0  0  0  0  0  0  0  0  0  0  0
    0.9140   25.8570  -37.3300 N   0  0  0  0  0  0  0  0  0  0  0  0
    0.3130   27.1510  -37.1520 C   0  0  0  0  0  0  0  0  0  0  0  0
   -0.2980   27.4630  -35.9270 C   0  0  0  0  0  0  0  0  0  0  0  0
   -0.8720   28.7210  -35.7210 C   0  0  0  0  0  0  0  0  0  0  0  0
   -0.8270   29.6840  -36.7330 C   0  0  0  0  0  0  0  0  0  0  0  0
   -0.2020   29.3930  -37.9480 C   0  0  0  0  0  0  0  0  0  0  0  0
    0.3730   28.1350  -38.1580 C   0  0  0  0  0  0  0  0  0  0  0  0
    3.4594   21.6239  -36.8864 H   0  0  0  0  0  0  0  0  0  0  0  0
    2.1587   19.6616  -36.0723 H   0  0  0  0  0  0  0  0  0  0  0  0
   -2.8446   20.7348  -32.2649 H   0  0  0  0  0  0  0  0  0  0  0  0
   -4.3209   21.0371  -33.2527 H   0  0  0  0  0  0  0  0  0  0  0  0
   -4.1256   19.5191  -30.6018 H   0  0  0  0  0  0  0  0  0  0  0  0
   -4.9927   21.0557  -30.9211 H   0  0  0  0  0  0  0  0  0  0  0  0
   -8.0671   18.3408  -33.0549 H   0  0  0  0  0  0  0  0  0  0  0  0
  -10.3113   19.4377  -33.1693 H   0  0  0  0  0  0  0  0  0  0  0  0
  -10.6861   21.6286  -32.0190 H   0  0  0  0  0  0  0  0  0  0  0  0
   -8.8003   22.6979  -30.7690 H   0  0  0  0  0  0  0  0  0  0  0  0
   -5.1018   17.3802  -31.6277 H   0  0  0  0  0  0  0  0  0  0  0  0
   -6.5797   17.5483  -32.6295 H   0  0  0  0  0  0  0  0  0  0  0  0
   -4.4015   17.2178  -33.9390 H   0  0  0  0  0  0  0  0  0  0  0  0
   -5.3600   18.6798  -34.3862 H   0  0  0  0  0  0  0  0  0  0  0  0
   -1.5123   14.3779  -34.2224 H   0  0  0  0  0  0  0  0  0  0  0  0
   -1.0642   22.3015  -34.8789 H   0  0  0  0  0  0  0  0  0  0  0  0
    0.2350   24.2562  -35.7099 H   0  0  0  0  0  0  0  0  0  0  0  0
    0.3820   25.1390  -37.8740 H   0  0  0  0  0  0  0  0  0  0  0  0
   -0.3253   26.7122  -35.1235 H   0  0  0  0  0  0  0  0  0  0  0  0
   -1.3591   28.9530  -34.7624 H   0  0  0  0  0  0  0  0  0  0  0  0
   -1.2840   30.6716  -36.5726 H   0  0  0  0  0  0  0  0  0  0  0  0
   -0.1619   30.1543  -38.7410 H   0  0  0  0  0  0  0  0  0  0  0  0
    0.8737   27.9136  -39.1121 H   0  0  0  0  0  0  0  0  0  0  0  0
  1  2  2  0
  2  3  1  0
  3  4  1  0
  4  5  2  0
  5  6  1  0
  6  7  2  0
  7  8  1  0
  8  9  2  0
  9 10  1  0
 10 11  1  0
 11 12  1  0
 12 13  1  0
 13 14  1  0
 14 15  1  0
 15 16  2  0
 16 17  1  0
 17 18  2  0
 18 19  1  0
 19 20  2  0
 14 21  1  0
 21 22  1  0
 10 23  2  0
 23 24  1  0
 24 25  2  0
 25 26  1  0
 26 27  1  0
 27 28  2  0
  7 29  1  0
 29 30  2  0
  2 31  1  0
 31 32  1  0
 32 33  2  0
 33 34  1  0
 34 35  2  0
 35 36  1  0
 36 37  2  0
 30  4  1  0
 37 32  1  0
 28  8  1  0
 22 11  1  0
 27 23  1  0
 20 15  1  0
  5 38  1  0
  6 39  1  0
 12 40  1  0
 12 41  1  0
 13 42  1  0
 13 43  1  0
 16 44  1  0
 17 45  1  0
 18 46  1  0
 19 47  1  0
 21 48  1  0
 21 49  1  0
 22 50  1  0
 22 51  1  0
 25 52  1  0
 29 53  1  0
 30 54  1  0
 31 55  1  0
 33 56  1  0
 34 57  1  0
 35 58  1  0
 36 59  1  0
 37 60  1  0
M  CHG  2   3  -1  26  -1
M  END
>  <UniqueID>  (11) 
11

>  <SMILES>  (11) 
O=C([N-]c1ccc(-c2nc(N3CCN(c4ccccn4)CC3)c3nc[n-]c3n2)cc1)Nc1ccccc1

>  <Energy>  (11) 
121.46966902980975

>  <Genealogy>  (11) 
O=C([N-]c1ccc(-c2nc(N3CCN(c4ccccn4)CC3)c3nc[n-]c3n2)cc1)Nc1ccccc1 (protonated)
O=C([N-]c1ccc(-c2nc(N3CCN(c4ccccn4)CC3)c3nc[n-]c3n2)cc1)Nc1ccccc1 (3D coordinates assigned)
O=C([N-]c1ccc(-c2nc(N3CCN(c4ccccn4)CC3)c3nc[n-]c3n2)cc1)Nc1ccccc1 (nonaromatic ring conformer: 121.46966902980975 kcal/mol)

>  <smiles>  (11) 
O=C(Nc1ccccc1)Nc1ccc(-c2nc(N3CCN(c4ccccn4)CC3)c3nc[nH]c3n2)cc1

>  <score_type>  (11) 
oracle

>  <origin>  (11) 
adgpu

>  <m_score__min__energy>  (11) 
-10.390000000000001

>  <m_primary>  (11) 
energy

$$$$
11:0
     RDKit          3D

 48 50  0  0  0  0  0  0  0  0999 V2000
   -5.0052   20.1241  -33.6694 H   0  0  0  0  0  0  0  0  0  0  0  0
   -5.4240   20.8130  -32.9210 C   0  0  0  0  0  0  0  0  0  0  0  0
   -6.7500   20.6550  -32.4990 C   0  0  0  0  0  0  0  0  0  0  0  0
   -7.6070   19.5750  -33.0910 C   0  0  0  0  0  0  0  0  0  0  0  0
   -8.0708   18.9905  -32.2827 H   0  0  0  0  0  0  0  0  0  0  0  0
   -8.3928   20.0296  -33.7121 H   0  0  0  0  0  0  0  0  0  0  0  0
   -6.9857   18.9131  -33.7121 H   0  0  0  0  0  0  0  0  0  0  0  0
   -7.2910   21.5530  -31.5690 C   0  0  0  0  0  0  0  0  0  0  0  0
   -8.3401   21.4469  -31.2556 H   0  0  0  0  0  0  0  0  0  0  0  0
   -6.5070   22.5860  -31.0340 C   0  0  0  0  0  0  0  0  0  0  0  0
   -7.0940   23.5130  -30.0050 C   0  0  0  0  0  0  0  0  0  0  0  0
   -6.8575   23.1396  -28.9977 H   0  0  0  0  0  0  0  0  0  0  0  0
   -6.6680   24.5191  -30.1324 H   0  0  0  0  0  0  0  0  0  0  0  0
   -8.1857   23.5582  -30.1324 H   0  0  0  0  0  0  0  0  0  0  0  0
   -5.1610   22.7160  -31.4320 C   0  0  0  0  0  0  0  0  0  0  0  0
   -4.3420   23.7540  -30.8700 N   0  0  0  0  0  0  0  0  0  0  0  0
   -3.3640   23.6210  -30.0120 C   0  0  0  0  0  0  0  0  0  0  0  0
   -2.9470   22.3670  -29.4900 C   0  0  0  0  0  0  0  0  0  0  0  0
   -3.5260   21.3030  -29.8400 O   0  0  0  0  0  0  0  0  0  0  0  0
   -1.8990   22.3110  -28.5990 N   0  0  0  0  0  0  0  0  0  0  0  0
   -1.4360   21.0250  -28.0260 C   0  0  1  0  0  0  0  0  0  0  0  0
   -1.5368   20.2009  -28.7476 H   0  0  0  0  0  0  0  0  0  0  0  0
    0.0720   21.1010  -27.7290 C   0  0  0  0  0  0  0  0  0  0  0  0
    0.2314   21.1090  -26.6406 H   0  0  0  0  0  0  0  0  0  0  0  0
    0.5765   20.2271  -28.1670 H   0  0  0  0  0  0  0  0  0  0  0  0
    0.4861   22.0212  -28.1670 H   0  0  0  0  0  0  0  0  0  0  0  0
   -2.3500   20.6120  -26.8380 C   0  0  0  0  0  0  0  0  0  0  0  0
   -2.5300   21.6560  -26.5418 H   0  0  0  0  0  0  0  0  0  0  0  0
   -2.0640   19.3450  -26.0330 C   0  0  0  0  0  0  0  0  0  0  0  0
   -1.1381   18.7781  -26.2102 H   0  0  0  0  0  0  0  0  0  0  0  0
   -2.0092   19.0999  -24.9621 H   0  0  0  0  0  0  0  0  0  0  0  0
   -3.1650   19.3470  -27.0790 C   0  0  0  0  0  0  0  0  0  0  0  0
   -3.0362   18.7803  -28.0130 H   0  0  0  0  0  0  0  0  0  0  0  0
   -4.2375   19.1027  -27.0773 H   0  0  0  0  0  0  0  0  0  0  0  0
   -1.2790   23.4650  -28.2070 C   0  0  0  0  0  0  0  0  0  0  0  0
   -0.4432   23.4198  -27.4933 H   0  0  0  0  0  0  0  0  0  0  0  0
   -1.6980   24.7000  -28.7050 C   0  0  0  0  0  0  0  0  0  0  0  0
   -0.9850   25.9580  -28.3030 C   0  0  0  0  0  0  0  0  0  0  0  0
   -0.9478   26.0237  -27.2056 H   0  0  0  0  0  0  0  0  0  0  0  0
    0.0390   25.9433  -28.7044 H   0  0  0  0  0  0  0  0  0  0  0  0
   -1.5237   26.8290  -28.7044 H   0  0  0  0  0  0  0  0  0  0  0  0
   -2.7140   24.7450  -29.6050 N   0  0  0  0  0  0  0  0  0  0  0  0
   -3.0100   25.6710  -29.9940 H   0  0  0  0  0  0  0  0  0  0  0  0
   -4.6240   21.8410  -32.3990 C   0  0  0  0  0  0  0  0  0  0  0  0
   -3.1890   21.9660  -32.8310 C   0  0  0  0  0  0  0  0  0  0  0  0
   -2.5423   22.0223  -31.9430 H   0  0  0  0  0  0  0  0  0  0  0  0
   -2.9096   21.0888  -33.4330 H   0  0  0  0  0  0  0  0  0  0  0  0
   -3.0655   22.8783  -33.4330 H   0  0  0  0  0  0  0  0  0  0  0  0
  1  2  1  0
  2  3  2  0
  3  4  1  0
  4  5  1  0
  4  6  1  0
  4  7  1  0
  3  8  1  0
  8  9  1  0
  8 10  2  0
 10 11  1  0
 11 12  1  0
 11 13  1  0
 11 14  1  0
 10 15  1  0
 15 16  1  0
 16 17  2  0
 17 18  1  0
 18 19  2  0
 18 20  1  0
 20 21  1  0
 21 22  1  6
 21 23  1  0
 23 24  1  0
 23 25  1  0
 23 26  1  0
 21 27  1  0
 27 28  1  0
 27 29  1  0
 29 30  1  0
 29 31  1  0
 29 32  1  0
 32 33  1  0
 32 34  1  0
 20 35  1  0
 35 36  1  0
 35 37  2  0
 37 38  1  0
 38 39  1  0
 38 40  1  0
 38 41  1  0
 37 42  1  0
 42 43  1  0
 15 44  2  0
 44 45  1  0
 45 46  1  0
 45 47  1  0
 45 48  1  0
 44  2  1  0
 42 17  1  0
 32 27  1  0
M  END
>  <UniqueID>  (12) 
12

>  <SMILES>  (12) 
Cc1cc(C)c(/N=c2/[nH]c(C)cn([C@@H](C)C3CC3)c2=O)c(C)c1

>  <Energy>  (12) 
330.45021702771794

>  <Genealogy>  (12) 
Cc1cc(C)c(N=c2[nH]c(C)cn([C@@H](C)C3CC3)c2=O)c(C)c1 (chirality)
Cc1cc(C)c(/N=c2/[nH]c(C)cn([C@@H](C)C3CC3)c2=O)c(C)c1 (cis-trans isomerization)
Cc1cc(C)c(/N=c2/[nH]c(C)cn([C@@H](C)C3CC3)c2=O)c(C)c1 (3D coordinates assigned)
Cc1cc(C)c(/N=c2/[nH]c(C)cn([C@@H](C)C3CC3)c2=O)c(C)c1 (nonaromatic ring conformer: 330.45021702771794 kcal/mol)

>  <smiles>  (12) 
Cc1cc(C)c(N=c2[nH]c(C)cn(C(C)C3CC3)c2=O)c(C)c1

>  <score_type>  (12) 
oracle

>  <origin>  (12) 
adgpu

>  <m_score__min__energy>  (12) 
-8.2100000000000009

>  <m_primary>  (12) 
energy

$$$$
12:0
     RDKit          3D

 29 30  0  0  0  0  0  0  0  0999 V2000
   -2.3920   19.7110  -27.1800 C   0  0  0  0  0  0  0  0  0  0  0  0
   -1.6330   20.9160  -27.5390 N   0  0  0  0  0  0  0  0  0  0  0  0
   -2.2850   22.1040  -27.7070 C   0  0  0  0  0  0  0  0  0  0  0  0
   -1.5820   23.2610  -28.0520 C   0  0  0  0  0  0  0  0  0  0  0  0
   -2.4350   24.7960  -28.2490 S   0  0  0  0  0  0  0  0  0  0  0  0
   -1.4590   25.9210  -28.0520 O   0  0  0  0  0  0  0  0  0  0  0  0
   -3.5400   24.9220  -27.2390 O   0  0  0  0  0  0  0  0  0  0  0  0
   -3.1140   24.9150  -29.8410 N   0  0  0  0  0  0  0  0  0  0  0  0
   -4.4510   24.5380  -30.2000 C   0  0  0  0  0  0  0  0  0  0  0  0
   -4.6340   23.4120  -31.0130 C   0  0  0  0  0  0  0  0  0  0  0  0
   -5.9210   23.0050  -31.3790 C   0  0  0  0  0  0  0  0  0  0  0  0
   -7.0340   23.7220  -30.9350 C   0  0  0  0  0  0  0  0  0  0  0  0
   -6.8620   24.8470  -30.1250 C   0  0  0  0  0  0  0  0  0  0  0  0
   -5.5770   25.2580  -29.7580 C   0  0  0  0  0  0  0  0  0  0  0  0
   -0.2000   23.1590  -28.2460 C   0  0  0  0  0  0  0  0  0  0  0  0
    0.4760   24.1710  -28.5780 O   0  0  0  0  0  0  0  0  0  0  0  0
    0.4190   21.9610  -28.0840 N   0  0  0  0  0  0  0  0  0  0  0  0
   -0.2800   20.8470  -27.7360 C   0  0  0  0  0  0  0  0  0  0  0  0
    0.3320   19.7510  -27.5990 O   0  0  0  0  0  0  0  0  0  0  0  0
   -2.4464   19.6247  -26.0847 H   0  0  0  0  0  0  0  0  0  0  0  0
   -3.4090   19.7816  -27.5932 H   0  0  0  0  0  0  0  0  0  0  0  0
   -1.8891   18.8242  -27.5932 H   0  0  0  0  0  0  0  0  0  0  0  0
   -3.3753   22.1505  -27.5692 H   0  0  0  0  0  0  0  0  0  0  0  0
   -3.7602   22.8445  -31.3657 H   0  0  0  0  0  0  0  0  0  0  0  0
   -6.0566   22.1193  -32.0171 H   0  0  0  0  0  0  0  0  0  0  0  0
   -8.0459   23.4010  -31.2230 H   0  0  0  0  0  0  0  0  0  0  0  0
   -7.7394   25.4107  -29.7752 H   0  0  0  0  0  0  0  0  0  0  0  0
   -5.4456   26.1461  -29.1224 H   0  0  0  0  0  0  0  0  0  0  0  0
    1.4530   21.8930  -28.2320 H   0  0  0  0  0  0  0  0  0  0  0  0
  1  2  1  0
  2  3  1  0
  3  4  2  0
  4  5  1  0
  5  6  2  0
  5  7  2  0
  5  8  1  0
  8  9  1  0
  9 10  2  0
 10 11  1  0
 11 12  2  0
 12 13  1  0
 13 14  2  0
  4 15  1  0
 15 16  2  0
 15 17  1  0
 17 18  1  0
 18 19  2  0
 18  2  1  0
 14  9  1  0
  1 20  1  0
  1 21  1  0
  1 22  1  0
  3 23  1  0
 10 24  1  0
 11 25  1  0
 12 26  1  0
 13 27  1  0
 14 28  1  0
 17 29  1  0
M  CHG  1   8  -1
M  END
>  <UniqueID>  (13) 
13

>  <SMILES>  (13) 
Cn1cc(S(=O)(=O)[N-]c2ccccc2)c(=O)[nH]c1=O

>  <Energy>  (13) 
35.6283397268774

>  <Genealogy>  (13) 
Cn1cc(S(=O)(=O)[N-]c2ccccc2)c(=O)[nH]c1=O (protonated)
Cn1cc(S(=O)(=O)[N-]c2ccccc2)c(=O)[nH]c1=O (3D coordinates assigned)
Cn1cc(S(=O)(=O)[N-]c2ccccc2)c(=O)[nH]c1=O (optimized conformer: 35.6283397268774 kcal/mol)

>  <smiles>  (13) 
Cn1cc(S(=O)(=O)Nc2ccccc2)c(=O)[nH]c1=O

>  <score_type>  (13) 
oracle

>  <origin>  (13) 
adgpu

>  <m_score__min__energy>  (13) 
-7.8600000000000003

>  <m_primary>  (13) 
energy

$$$$
13:0
     RDKit          3D

 46 49  0  0  0  0  0  0  0  0999 V2000
   -3.2095   23.5269  -26.0499 H   0  0  0  0  0  0  0  0  0  0  0  0
   -3.1970   23.8410  -27.1040 C   0  0  0  0  0  0  0  0  0  0  0  0
   -2.2390   24.7560  -27.5480 C   0  0  0  0  0  0  0  0  0  0  0  0
   -1.5033   25.1687  -26.8420 H   0  0  0  0  0  0  0  0  0  0  0  0
   -2.2160   25.1470  -28.8910 C   0  0  0  0  0  0  0  0  0  0  0  0
   -1.2490   26.0400  -29.3360 O   0  0  0  0  0  0  0  0  0  0  0  0
   -3.1610   24.6340  -29.7870 C   0  0  0  0  0  0  0  0  0  0  0  0
   -3.1332   24.9343  -30.8449 H   0  0  0  0  0  0  0  0  0  0  0  0
   -4.1480   23.7340  -29.3380 C   0  0  0  0  0  0  0  0  0  0  0  0
   -5.1160   23.1560  -30.2290 N   0  0  0  0  0  0  0  0  0  0  0  0
   -4.9570   22.0960  -30.9670 C   0  0  0  0  0  0  0  0  0  0  0  0
   -5.9600   21.6140  -31.7450 N   0  0  0  0  0  0  0  0  0  0  0  0
   -5.3760   20.5670  -32.3470 C   0  0  0  0  0  0  0  0  0  0  0  0
   -5.9440   19.6910  -33.2680 C   0  0  0  0  0  0  0  0  0  0  0  0
   -6.9906   19.8026  -33.5876 H   0  0  0  0  0  0  0  0  0  0  0  0
   -5.1340   18.6570  -33.7770 C   0  0  0  0  0  0  0  0  0  0  0  0
   -5.8140   17.5540  -34.9660 Cl  0  0  0  0  0  0  0  0  0  0  0  0
   -3.7830   18.5290  -33.3510 C   0  0  0  0  0  0  0  0  0  0  0  0
   -2.9550   17.4770  -33.8610 N   0  0  0  0  0  0  0  0  0  0  0  0
   -3.2560   16.0810  -33.5430 C   0  0  0  0  0  0  0  0  0  0  0  0
   -4.3309   15.9728  -33.3360 H   0  0  0  0  0  0  0  0  0  0  0  0
   -2.6859   15.7693  -32.6554 H   0  0  0  0  0  0  0  0  0  0  0  0
   -2.8720   15.2060  -34.7410 C   0  0  0  0  0  0  0  0  0  0  0  0
   -3.5055   15.4864  -35.5954 H   0  0  0  0  0  0  0  0  0  0  0  0
   -3.0213   14.1584  -34.4405 H   0  0  0  0  0  0  0  0  0  0  0  0
   -1.4410   15.3510  -35.1440 N   0  0  0  0  0  0  0  0  0  0  0  0
   -0.9100   14.5600  -34.7070 H   0  0  0  0  0  0  0  0  0  0  0  0
   -1.2780   15.2250  -36.6140 C   0  0  0  0  0  0  0  0  0  0  0  0
   -0.2697   14.8396  -36.8256 H   0  0  0  0  0  0  0  0  0  0  0  0
   -1.4301   16.2215  -37.0543 H   0  0  0  0  0  0  0  0  0  0  0  0
   -2.3090   14.2760  -37.2390 C   0  0  0  0  0  0  0  0  0  0  0  0
   -2.8662   13.7631  -36.4412 H   0  0  0  0  0  0  0  0  0  0  0  0
   -3.0082   14.8531  -37.8619 H   0  0  0  0  0  0  0  0  0  0  0  0
   -1.7917   13.5314  -37.8619 H   0  0  0  0  0  0  0  0  0  0  0  0
   -0.7950   16.6020  -34.6530 C   0  0  0  0  0  0  0  0  0  0  0  0
    0.0514   16.8419  -35.3134 H   0  0  0  0  0  0  0  0  0  0  0  0
   -0.4698   16.4199  -33.6181 H   0  0  0  0  0  0  0  0  0  0  0  0
   -1.7520   17.8020  -34.6290 C   0  0  0  0  0  0  0  0  0  0  0  0
   -2.0378   18.0589  -35.6597 H   0  0  0  0  0  0  0  0  0  0  0  0
   -1.2444   18.6551  -34.1550 H   0  0  0  0  0  0  0  0  0  0  0  0
   -3.2490   19.4440  -32.4200 C   0  0  0  0  0  0  0  0  0  0  0  0
   -2.2050   19.3655  -32.0824 H   0  0  0  0  0  0  0  0  0  0  0  0
   -4.0840   20.4490  -31.9420 C   0  0  0  0  0  0  0  0  0  0  0  0
   -3.7820   21.4150  -31.0620 N   0  0  0  0  0  0  0  0  0  0  0  0
   -4.1400   23.3240  -27.9980 C   0  0  0  0  0  0  0  0  0  0  0  0
   -4.8806   22.5904  -27.6469 H   0  0  0  0  0  0  0  0  0  0  0  0
  1  2  1  0
  2  3  2  0
  3  4  1  0
  3  5  1  0
  5  6  1  0
  5  7  2  0
  7  8  1  0
  7  9  1  0
  9 10  1  0
 10 11  2  0
 11 12  1  0
 12 13  1  0
 13 14  2  0
 14 15  1  0
 14 16  1  0
 16 17  1  0
 16 18  2  0
 18 19  1  0
 19 20  1  0
 20 21  1  0
 20 22  1  0
 20 23  1  0
 23 24  1  0
 23 25  1  0
 23 26  1  0
 26 27  1  0
 26 28  1  0
 28 29  1  0
 28 30  1  0
 28 31  1  0
 31 32  1  0
 31 33  1  0
 31 34  1  0
 26 35  1  0
 35 36  1  0
 35 37  1  0
 35 38  1  0
 38 39  1  0
 38 40  1  0
 18 41  1  0
 41 42  1  0
 41 43  2  0
 43 44  1  0
  9 45  2  0
 45 46  1  0
 45  2  1  0
 44 11  1  0
 43 13  1  0
 38 19  1  0
M  CHG  4   6  -1  12  -1  26   1  44  -1
M  END
>  <UniqueID>  (14) 
14

>  <SMILES>  (14) 
CC[NH+]1CCN(c2cc3[n-]/c(=N\c4cccc([O-])c4)[n-]c3cc2Cl)CC1

>  <Energy>  (14) 
102.71837250734413

>  <Genealogy>  (14) 
CC[NH+]1CCN(c2cc3[n-]c(=Nc4cccc([O-])c4)[n-]c3cc2Cl)CC1 (protonated)
CC[NH+]1CCN(c2cc3[n-]/c(=N\c4cccc([O-])c4)[n-]c3cc2Cl)CC1 (cis-trans isomerization)
CC[NH+]1CCN(c2cc3[n-]/c(=N\c4cccc([O-])c4)[n-]c3cc2Cl)CC1 (3D coordinates assigned)
CC[NH+]1CCN(c2cc3[n-]/c(=N\c4cccc([O-])c4)[n-]c3cc2Cl)CC1 (nonaromatic ring conformer: 102.71837250734413 kcal/mol)

>  <smiles>  (14) 
CCN1CCN(c2cc3[nH]c(=Nc4cccc(O)c4)[nH]c3cc2Cl)CC1

>  <score_type>  (14) 
oracle

>  <origin>  (14) 
adgpu

>  <m_score__min__energy>  (14) 
-10.06

>  <m_primary>  (14) 
energy

$$$$
14:0
     RDKit          3D

 28 30  0  0  0  0  0  0  0  0999 V2000
   -2.9280   18.8940  -26.1730 C   0  0  0  0  0  0  0  0  0  0  0  0
   -1.3630   18.8900  -27.1010 S   0  0  0  0  0  0  0  0  0  0  0  0
   -1.9160   20.1360  -28.2590 C   0  0  0  0  0  0  0  0  0  0  0  0
   -1.3960   20.2900  -29.4960 N   0  0  0  0  0  0  0  0  0  0  0  0
   -1.9590   21.2850  -30.1790 N   0  0  0  0  0  0  0  0  0  0  0  0
   -2.9420   21.9110  -29.4940 C   0  0  0  0  0  0  0  0  0  0  0  0
   -3.6330   23.0670  -29.9880 N   0  0  0  0  0  0  0  0  0  0  0  0
   -4.6200   23.0960  -30.9070 C   0  0  0  0  0  0  0  0  0  0  0  0
   -5.3520   21.6540  -31.6850 S   0  0  0  0  0  0  0  0  0  0  0  0
   -6.9510   22.4750  -31.9660 C   0  0  0  0  0  0  0  0  0  0  0  0
   -4.9620   24.3570  -31.2270 N   0  0  0  0  0  0  0  0  0  0  0  0
   -4.1990   25.1600  -30.5000 N   0  0  0  0  0  0  0  0  0  0  0  0
   -3.3950   24.3770  -29.7530 C   0  0  0  0  0  0  0  0  0  0  0  0
   -2.4690   24.9200  -28.7450 C   0  0  0  0  0  0  0  0  0  0  0  0
   -2.3620   24.4840  -27.4390 C   0  0  0  0  0  0  0  0  0  0  0  0
   -1.3650   25.2470  -26.8710 C   0  0  0  0  0  0  0  0  0  0  0  0
   -0.9210   26.0960  -27.8640 C   0  0  0  0  0  0  0  0  0  0  0  0
   -1.5950   25.8750  -28.9690 O   0  0  0  0  0  0  0  0  0  0  0  0
   -3.1290   21.2600  -27.9480 S   0  0  0  0  0  0  0  0  0  0  0  0
   -2.7144   18.8935  -25.0939 H   0  0  0  0  0  0  0  0  0  0  0  0
   -3.5056   19.7936  -26.4320 H   0  0  0  0  0  0  0  0  0  0  0  0
   -3.5102   17.9973  -26.4320 H   0  0  0  0  0  0  0  0  0  0  0  0
   -7.4158   22.7136  -30.9980 H   0  0  0  0  0  0  0  0  0  0  0  0
   -6.7918   23.4029  -32.5350 H   0  0  0  0  0  0  0  0  0  0  0  0
   -7.6123   21.8049  -32.5350 H   0  0  0  0  0  0  0  0  0  0  0  0
   -2.9506   23.6919  -26.9530 H   0  0  0  0  0  0  0  0  0  0  0  0
   -0.9975   25.1907  -25.8357 H   0  0  0  0  0  0  0  0  0  0  0  0
   -0.1234   26.8445  -27.7476 H   0  0  0  0  0  0  0  0  0  0  0  0
  1  2  1  0
  2  3  1  0
  3  4  2  0
  4  5  1  0
  5  6  2  0
  6  7  1  0
  7  8  1  0
  8  9  1  0
  9 10  1  0
  8 11  2  0
 11 12  1  0
 12 13  2  0
 13 14  1  0
 14 15  2  0
 15 16  1  0
 16 17  2  0
 17 18  1  0
  6 19  1  0
 19  3  1  0
 13  7  1  0
 18 14  1  0
  1 20  1  0
  1 21  1  0
  1 22  1  0
 10 23  1  0
 10 24  1  0
 10 25  1  0
 15 26  1  0
 16 27  1  0
 17 28  1  0
M  END
>  <UniqueID>  (15) 
15

>  <SMILES>  (15) 
CSc1nnc(-n2c(SC)nnc2-c2ccco2)s1

>  <Energy>  (15) 
122.85146584639017

>  <Genealogy>  (15) 
CSc1nnc(-n2c(SC)nnc2-c2ccco2)s1 (3D coordinates assigned)
CSc1nnc(-n2c(SC)nnc2-c2ccco2)s1 (optimized conformer: 122.85146584639017 kcal/mol)

>  <smiles>  (15) 
CSc1nnc(-n2c(SC)nnc2-c2ccco2)s1

>  <score_type>  (15) 
oracle

>  <origin>  (15) 
adgpu

>  <m_score__min__energy>  (15) 
-7.2400000000000002

>  <m_primary>  (15) 
energy

$$$$
15:0
     RDKit          3D

 58 61  0  0  0  0  0  0  0  0999 V2000
    1.3017   25.1678  -36.6078 H   0  0  0  0  0  0  0  0  0  0  0  0
    0.8990   24.2830  -36.0930 C   0  0  0  0  0  0  0  0  0  0  0  0
   -0.0880   24.3297  -35.6096 H   0  0  0  0  0  0  0  0  0  0  0  0
    1.6060   23.1560  -36.0550 C   0  0  0  0  0  0  0  0  0  0  0  0
    2.5904   23.1328  -36.5454 H   0  0  0  0  0  0  0  0  0  0  0  0
    1.1210   21.9370  -35.3810 C   0  0  0  0  0  0  0  0  0  0  0  0
    1.8540   20.9110  -35.3190 O   0  0  0  0  0  0  0  0  0  0  0  0
   -0.2090   21.9130  -34.8360 N   0  0  0  0  0  0  0  0  0  0  0  0
   -0.8720   22.6610  -35.1410 H   0  0  0  0  0  0  0  0  0  0  0  0
   -0.7250   20.8490  -34.0190 C   0  0  0  0  0  0  0  0  0  0  0  0
    0.1060   20.2590  -33.0560 C   0  0  0  0  0  0  0  0  0  0  0  0
    1.1415   20.6108  -32.9383 H   0  0  0  0  0  0  0  0  0  0  0  0
   -0.3730   19.2270  -32.2450 C   0  0  0  0  0  0  0  0  0  0  0  0
    0.2777   18.7865  -31.4752 H   0  0  0  0  0  0  0  0  0  0  0  0
   -1.6760   18.7540  -32.4100 C   0  0  0  0  0  0  0  0  0  0  0  0
   -2.0552   17.9566  -31.7539 H   0  0  0  0  0  0  0  0  0  0  0  0
   -2.5030   19.2880  -33.4050 C   0  0  0  0  0  0  0  0  0  0  0  0
   -3.8360   18.7660  -33.5470 N   0  0  0  0  0  0  0  0  0  0  0  0
   -4.9350   19.3310  -33.1370 C   0  0  0  0  0  0  0  0  0  0  0  0
   -4.9260   20.5710  -32.5750 N   0  0  0  0  0  0  0  0  0  0  0  0
   -6.0670   21.1950  -32.1810 C   0  0  0  0  0  0  0  0  0  0  0  0
   -5.9940   22.5360  -31.5470 C   0  0  0  0  0  0  0  0  0  0  0  0
   -7.1810   23.1240  -31.0720 C   0  0  0  0  0  0  0  0  0  0  0  0
   -8.1416   22.6104  -31.2253 H   0  0  0  0  0  0  0  0  0  0  0  0
   -7.1530   24.3490  -30.4100 C   0  0  0  0  0  0  0  0  0  0  0  0
   -8.0914   24.8064  -30.0632 H   0  0  0  0  0  0  0  0  0  0  0  0
   -5.9420   24.9960  -30.1860 C   0  0  0  0  0  0  0  0  0  0  0  0
   -5.9281   25.9594  -29.6553 H   0  0  0  0  0  0  0  0  0  0  0  0
   -4.7370   24.4290  -30.6320 C   0  0  0  0  0  0  0  0  0  0  0  0
   -3.4870   25.0950  -30.3830 N   0  0  0  0  0  0  0  0  0  0  0  0
   -2.5480   24.7720  -29.3470 C   0  0  0  0  0  0  0  0  0  0  0  0
   -1.7490   25.6650  -28.9590 O   0  0  0  0  0  0  0  0  0  0  0  0
   -2.4600   23.4140  -28.7610 C   0  0  0  0  0  0  0  0  0  0  0  0
   -1.2710   22.6690  -28.8410 C   0  0  0  0  0  0  0  0  0  0  0  0
   -0.3889   23.0994  -29.3378 H   0  0  0  0  0  0  0  0  0  0  0  0
   -1.2020   21.3860  -28.2940 C   0  0  0  0  0  0  0  0  0  0  0  0
   -0.2662   20.8124  -28.3663 H   0  0  0  0  0  0  0  0  0  0  0  0
   -2.3170   20.8210  -27.6520 C   0  0  0  0  0  0  0  0  0  0  0  0
   -2.2220   19.4570  -27.0150 C   0  0  0  0  0  0  0  0  0  0  0  0
   -1.8310   19.5990  -25.6960 F   0  0  0  0  0  0  0  0  0  0  0  0
   -1.2950   18.6710  -27.6780 F   0  0  0  0  0  0  0  0  0  0  0  0
   -3.4460   18.8130  -27.0570 F   0  0  0  0  0  0  0  0  0  0  0  0
   -3.4900   21.5850  -27.5310 C   0  0  0  0  0  0  0  0  0  0  0  0
   -4.3578   21.1715  -26.9963 H   0  0  0  0  0  0  0  0  0  0  0  0
   -3.5630   22.8670  -28.0850 C   0  0  0  0  0  0  0  0  0  0  0  0
   -4.4905   23.4509  -27.9907 H   0  0  0  0  0  0  0  0  0  0  0  0
   -4.7590   23.2170  -31.3600 C   0  0  0  0  0  0  0  0  0  0  0  0
   -3.4630   22.6410  -31.8890 C   0  0  0  0  0  0  0  0  0  0  0  0
   -2.8179   22.3543  -31.0454 H   0  0  0  0  0  0  0  0  0  0  0  0
   -3.6794   21.7543  -32.5030 H   0  0  0  0  0  0  0  0  0  0  0  0
   -2.9499   23.3958  -32.5030 H   0  0  0  0  0  0  0  0  0  0  0  0
   -7.2920   20.5330  -32.3630 C   0  0  0  0  0  0  0  0  0  0  0  0
   -8.2320   21.0103  -32.0491 H   0  0  0  0  0  0  0  0  0  0  0  0
   -7.3070   19.2980  -32.9300 N   0  0  0  0  0  0  0  0  0  0  0  0
   -6.1600   18.6840  -33.3220 C   0  0  0  0  0  0  0  0  0  0  0  0
   -6.1953   17.6852  -33.7815 H   0  0  0  0  0  0  0  0  0  0  0  0
   -2.0300   20.3530  -34.1970 C   0  0  0  0  0  0  0  0  0  0  0  0
   -2.6850   20.7997  -34.9595 H   0  0  0  0  0  0  0  0  0  0  0  0
  1  2  1  0
  2  3  1  0
  2  4  2  0
  4  5  1  0
  4  6  1  0
  6  7  2  0
  6  8  1  0
  8  9  1  0
  8 10  1  0
 10 11  2  0
 11 12  1  0
 11 13  1  0
 13 14  1  0
 13 15  2  0
 15 16  1  0
 15 17  1  0
 17 18  1  0
 18 19  2  0
 19 20  1  0
 20 21  1  0
 21 22  1  0
 22 23  2  0
 23 24  1  0
 23 25  1  0
 25 26  1  0
 25 27  2  0
 27 28  1  0
 27 29  1  0
 29 30  1  0
 30 31  1  0
 31 32  2  0
 31 33  1  0
 33 34  2  0
 34 35  1  0
 34 36  1  0
 36 37  1  0
 36 38  2  0
 38 39  1  0
 39 40  1  0
 39 41  1  0
 39 42  1  0
 38 43  1  0
 43 44  1  0
 43 45  2  0
 45 46  1  0
 29 47  2  0
 47 48  1  0
 48 49  1  0
 48 50  1  0
 48 51  1  0
 21 52  2  0
 52 53  1  0
 52 54  1  0
 54 55  2  0
 55 56  1  0
 17 57  2  0
 57 58  1  0
 57 10  1  0
 55 19  1  0
 47 22  1  0
 45 33  1  0
M  CHG  2  20  -1  30  -1
M  END
>  <UniqueID>  (16) 
16

>  <SMILES>  (16) 
C=CC(=O)Nc1cccc(/N=c2/cncc(-c3cccc([N-]C(=O)c4ccc(C(F)(F)F)cc4)c3C)[n-]2)c1

>  <Energy>  (16) 
84.14658657984306

>  <Genealogy>  (16) 
C=CC(=O)Nc1cccc(N=c2cncc(-c3cccc([N-]C(=O)c4ccc(C(F)(F)F)cc4)c3C)[n-]2)c1 (protonated)
C=CC(=O)Nc1cccc(/N=c2/cncc(-c3cccc([N-]C(=O)c4ccc(C(F)(F)F)cc4)c3C)[n-]2)c1 (cis-trans isomerization)
C=CC(=O)Nc1cccc(/N=c2/cncc(-c3cccc([N-]C(=O)c4ccc(C(F)(F)F)cc4)c3C)[n-]2)c1 (3D coordinates assigned)
C=CC(=O)Nc1cccc(/N=c2/cncc(-c3cccc([N-]C(=O)c4ccc(C(F)(F)F)cc4)c3C)[n-]2)c1 (optimized conformer: 84.14658657984306 kcal/mol)

>  <smiles>  (16) 
C=CC(=O)Nc1cccc(N=c2cncc(-c3cccc(NC(=O)c4ccc(C(F)(F)F)cc4)c3C)[nH]2)c1

>  <score_type>  (16) 
oracle

>  <origin>  (16) 
adgpu

>  <m_score__min__energy>  (16) 
-12.52

>  <m_primary>  (16) 
energy

$$$$
16:0
     RDKit          3D

 59 63  0  0  0  0  0  0  0  0999 V2000
   -4.0006   20.0269  -33.9567 H   0  0  0  0  0  0  0  0  0  0  0  0
   -4.7330   20.5580  -33.3310 C   0  0  0  0  0  0  0  0  0  0  0  0
   -6.0310   20.0410  -33.1930 C   0  0  0  0  0  0  0  0  0  0  0  0
   -6.4230   18.8460  -33.8900 N   0  0  0  0  0  0  0  0  0  0  0  0
   -6.0870   17.6270  -33.5800 C   0  0  0  0  0  0  0  0  0  0  0  0
   -6.4500   16.5660  -34.3230 N   0  0  0  0  0  0  0  0  0  0  0  0
   -5.9860   15.4900  -33.7090 N   0  0  0  0  0  0  0  0  0  0  0  0
   -6.1210   14.1360  -34.2270 C   0  0  0  0  0  0  0  0  0  0  0  0
   -6.1916   13.4279  -33.3882 H   0  0  0  0  0  0  0  0  0  0  0  0
   -7.0304   14.0677  -34.8421 H   0  0  0  0  0  0  0  0  0  0  0  0
   -5.2430   13.8895  -34.8421 H   0  0  0  0  0  0  0  0  0  0  0  0
   -5.3260   15.8410  -32.5880 C   0  0  0  0  0  0  0  0  0  0  0  0
   -4.8299   15.1493  -31.8912 H   0  0  0  0  0  0  0  0  0  0  0  0
   -5.3770   17.2140  -32.4610 C   0  0  0  0  0  0  0  0  0  0  0  0
   -4.9534   17.8367  -31.6592 H   0  0  0  0  0  0  0  0  0  0  0  0
   -6.9820   20.7480  -32.4330 C   0  0  0  0  0  0  0  0  0  0  0  0
   -8.3810   20.2200  -32.2770 C   0  0  0  0  0  0  0  0  0  0  0  0
   -8.6215   20.1292  -31.2075 H   0  0  0  0  0  0  0  0  0  0  0  0
   -9.0897   20.9125  -32.7547 H   0  0  0  0  0  0  0  0  0  0  0  0
   -8.4554   19.2319  -32.7547 H   0  0  0  0  0  0  0  0  0  0  0  0
   -6.6020   21.9240  -31.7710 C   0  0  0  0  0  0  0  0  0  0  0  0
   -7.3299   22.4475  -31.1337 H   0  0  0  0  0  0  0  0  0  0  0  0
   -5.3030   22.4430  -31.9110 C   0  0  0  0  0  0  0  0  0  0  0  0
   -4.8950   23.6490  -31.2390 N   0  0  0  0  0  0  0  0  0  0  0  0
   -3.8110   23.8060  -30.5380 C   0  0  0  0  0  0  0  0  0  0  0  0
   -2.9300   22.8080  -30.2660 N   0  0  0  0  0  0  0  0  0  0  0  0
   -2.0230   23.4550  -29.5120 C   0  0  0  0  0  0  0  0  0  0  0  0
   -0.8680   22.9120  -28.9310 C   0  0  0  0  0  0  0  0  0  0  0  0
   -0.4750   21.4940  -29.1310 C   0  0  0  0  0  0  0  0  0  0  0  0
   -0.1250   20.6930  -28.0300 C   0  0  0  0  0  0  0  0  0  0  0  0
   -0.1379   21.1212  -27.0168 H   0  0  0  0  0  0  0  0  0  0  0  0
    0.2390   19.3570  -28.2140 C   0  0  0  0  0  0  0  0  0  0  0  0
    0.5055   18.7372  -27.3452 H   0  0  0  0  0  0  0  0  0  0  0  0
    0.2660   18.8030  -29.5010 C   0  0  0  0  0  0  0  0  0  0  0  0
    0.7110   17.1150  -29.7220 S   0  0  0  0  0  0  0  0  0  0  0  0
    2.2020   16.9900  -29.8650 O   0  0  0  0  0  0  0  0  0  0  0  0
    0.2730   16.3170  -28.5250 O   0  0  0  0  0  0  0  0  0  0  0  0
   -0.0780   16.4810  -31.1840 C   0  0  0  0  0  0  0  0  0  0  0  0
   -0.9054   15.8162  -30.8951 H   0  0  0  0  0  0  0  0  0  0  0  0
   -0.4709   17.3174  -31.7806 H   0  0  0  0  0  0  0  0  0  0  0  0
    0.6542   15.9172  -31.7806 H   0  0  0  0  0  0  0  0  0  0  0  0
   -0.0820   19.5950  -30.6020 C   0  0  0  0  0  0  0  0  0  0  0  0
   -0.0705   19.1630  -31.6135 H   0  0  0  0  0  0  0  0  0  0  0  0
   -0.4440   20.9330  -30.4200 C   0  0  0  0  0  0  0  0  0  0  0  0
   -0.7064   21.5512  -31.2912 H   0  0  0  0  0  0  0  0  0  0  0  0
   -0.0870   23.7840  -28.1400 C   0  0  0  0  0  0  0  0  0  0  0  0
    0.8255   23.4081  -27.6543 H   0  0  0  0  0  0  0  0  0  0  0  0
   -0.4650   25.1300  -27.9670 C   0  0  0  0  0  0  0  0  0  0  0  0
    0.1506   25.8031  -27.3522 H   0  0  0  0  0  0  0  0  0  0  0  0
   -1.6300   25.6060  -28.5830 C   0  0  0  0  0  0  0  0  0  0  0  0
   -1.9461   26.6528  -28.4638 H   0  0  0  0  0  0  0  0  0  0  0  0
   -2.3560   24.7390  -29.3300 N   0  0  0  0  0  0  0  0  0  0  0  0
   -3.4830   24.9880  -29.9660 N   0  0  0  0  0  0  0  0  0  0  0  0
   -4.3570   21.7470  -32.6790 C   0  0  0  0  0  0  0  0  0  0  0  0
   -3.0590   22.2740  -32.7810 O   0  0  0  0  0  0  0  0  0  0  0  0
   -1.9170   21.5320  -33.1970 C   0  0  0  0  0  0  0  0  0  0  0  0
   -1.3689   21.1759  -32.3123 H   0  0  0  0  0  0  0  0  0  0  0  0
   -2.2393   20.6703  -33.8000 H   0  0  0  0  0  0  0  0  0  0  0  0
   -1.2606   22.1766  -33.8000 H   0  0  0  0  0  0  0  0  0  0  0  0
  1  2  1  0
  2  3  2  0
  3  4  1  0
  4  5  2  0
  5  6  1  0
  6  7  1  0
  7  8  1  0
  8  9  1  0
  8 10  1  0
  8 11  1  0
  7 12  1  0
 12 13  1  0
 12 14  2  0
 14 15  1  0
  3 16  1  0
 16 17  1  0
 17 18  1  0
 17 19  1  0
 17 20  1  0
 16 21  2  0
 21 22  1  0
 21 23  1  0
 23 24  1  0
 24 25  2  0
 25 26  1  0
 26 27  2  0
 27 28  1  0
 28 29  1  0
 29 30  2  0
 30 31  1  0
 30 32  1  0
 32 33  1  0
 32 34  2  0
 34 35  1  0
 35 36  2  0
 35 37  2  0
 35 38  1  0
 38 39  1  0
 38 40  1  0
 38 41  1  0
 34 42  1  0
 42 43  1  0
 42 44  2  0
 44 45  1  0
 28 46  2  0
 46 47  1  0
 46 48  1  0
 48 49  1  0
 48 50  2  0
 50 51  1  0
 50 52  1  0
 52 53  1  0
 23 54  2  0
 54 55  1  0
 55 56  1  0
 56 57  1  0
 56 58  1  0
 56 59  1  0
 54  2  1  0
 14  5  1  0
 53 25  1  0
 52 27  1  0
 44 29  1  0
M  CHG  2   6  -1  53  -1
M  END
>  <UniqueID>  (17) 
17

>  <SMILES>  (17) 
COc1cc(/N=c2\ccn(C)[n-]2)c(C)cc1/N=c1\nc2c(-c3ccc(S(C)(=O)=O)cc3)cccn2[n-]1

>  <Energy>  (17) 
147.3854345337743

>  <Genealogy>  (17) 
COc1cc(N=c2ccn(C)[n-]2)c(C)cc1N=c1nc2c(-c3ccc(S(C)(=O)=O)cc3)cccn2[n-]1 (protonated)
COc1cc(/N=c2\ccn(C)[n-]2)c(C)cc1/N=c1\nc2c(-c3ccc(S(C)(=O)=O)cc3)cccn2[n-]1 (cis-trans isomerization)
COc1cc(/N=c2\ccn(C)[n-]2)c(C)cc1/N=c1\nc2c(-c3ccc(S(C)(=O)=O)cc3)cccn2[n-]1 (3D coordinates assigned)
COc1cc(/N=c2\ccn(C)[n-]2)c(C)cc1/N=c1\nc2c(-c3ccc(S(C)(=O)=O)cc3)cccn2[n-]1 (optimized conformer: 147.3854345337743 kcal/mol)

>  <smiles>  (17) 
COc1cc(N=c2ccn(C)[nH]2)c(C)cc1N=c1nc2c(-c3ccc(S(C)(=O)=O)cc3)cccn2[nH]1

>  <score_type>  (17) 
oracle

>  <origin>  (17) 
adgpu

>  <m_score__min__energy>  (17) 
-10.460000000000001

>  <m_primary>  (17) 
energy

$$$$
17:0
     RDKit          3D

 42 44  0  0  0  0  0  0  0  0999 V2000
   -8.4090   18.9560  -32.0340 C   0  0  0  0  0  0  0  0  0  0  0  0
   -8.6060   20.3310  -32.3500 O   0  0  0  0  0  0  0  0  0  0  0  0
   -7.8240   21.3780  -31.8400 C   0  0  0  0  0  0  0  0  0  0  0  0
   -8.0550   21.9480  -30.5720 C   0  0  0  0  0  0  0  0  0  0  0  0
   -7.2500   22.9960  -30.1160 C   0  0  0  0  0  0  0  0  0  0  0  0
   -6.2080   23.4850  -30.9130 C   0  0  0  0  0  0  0  0  0  0  0  0
   -5.1780   24.7990  -30.3570 S   0  0  0  0  0  0  0  0  0  0  0  0
   -5.4700   25.1490  -28.9220 O   0  0  0  0  0  0  0  0  0  0  0  0
   -5.4380   26.0050  -31.2130 O   0  0  0  0  0  0  0  0  0  0  0  0
   -3.5150   24.3360  -30.5190 N   0  0  0  0  0  0  0  0  0  0  0  0
   -2.9230   23.1660  -29.9240 C   0  0  0  0  0  0  0  0  0  0  0  0
   -3.4530   21.8890  -30.1680 C   0  0  0  0  0  0  0  0  0  0  0  0
   -2.8670   20.7590  -29.6050 C   0  0  0  0  0  0  0  0  0  0  0  0
   -1.7370   20.8830  -28.7910 C   0  0  0  0  0  0  0  0  0  0  0  0
   -1.1870   22.1490  -28.5270 C   0  0  0  0  0  0  0  0  0  0  0  0
   -1.7830   23.3050  -29.0990 C   0  0  0  0  0  0  0  0  0  0  0  0
   -1.2120   24.6530  -28.8910 C   0  0  0  0  0  0  0  0  0  0  0  0
   -1.9440   25.6730  -28.9680 O   0  0  0  0  0  0  0  0  0  0  0  0
    0.1280   24.7970  -28.5490 O   0  0  0  0  0  0  0  0  0  0  0  0
   -0.0440   22.2000  -27.5320 C   0  0  0  0  0  0  0  0  0  0  0  0
    1.0010   21.1080  -27.8300 C   0  0  0  0  0  0  0  0  0  0  0  0
    0.4000   19.7270  -28.1900 C   0  0  0  0  0  0  0  0  0  0  0  0
   -1.1350   19.6720  -28.1260 C   0  0  0  0  0  0  0  0  0  0  0  0
   -5.9730   22.9150  -32.1690 C   0  0  0  0  0  0  0  0  0  0  0  0
   -6.7770   21.8700  -32.6290 C   0  0  0  0  0  0  0  0  0  0  0  0
   -8.3909   18.8298  -30.9414 H   0  0  0  0  0  0  0  0  0  0  0  0
   -9.2310   18.3608  -32.4583 H   0  0  0  0  0  0  0  0  0  0  0  0
   -7.4529   18.6156  -32.4583 H   0  0  0  0  0  0  0  0  0  0  0  0
   -8.8706   21.5674  -29.9396 H   0  0  0  0  0  0  0  0  0  0  0  0
   -7.4361   23.4385  -29.1263 H   0  0  0  0  0  0  0  0  0  0  0  0
   -4.3396   21.7805  -30.8101 H   0  0  0  0  0  0  0  0  0  0  0  0
   -3.2945   19.7646  -29.8012 H   0  0  0  0  0  0  0  0  0  0  0  0
    0.4400   23.1860  -27.5913 H   0  0  0  0  0  0  0  0  0  0  0  0
   -0.4505   22.0284  -26.5244 H   0  0  0  0  0  0  0  0  0  0  0  0
    1.6189   21.4450  -28.6754 H   0  0  0  0  0  0  0  0  0  0  0  0
    1.5792   20.9667  -26.9049 H   0  0  0  0  0  0  0  0  0  0  0  0
    0.7120   19.4711  -29.2133 H   0  0  0  0  0  0  0  0  0  0  0  0
    0.7735   19.0144  -27.4399 H   0  0  0  0  0  0  0  0  0  0  0  0
   -1.4861   18.7652  -28.6402 H   0  0  0  0  0  0  0  0  0  0  0  0
   -1.4457   19.6554  -27.0709 H   0  0  0  0  0  0  0  0  0  0  0  0
   -5.1517   23.2915  -32.7965 H   0  0  0  0  0  0  0  0  0  0  0  0
   -6.5864   21.4299  -33.6189 H   0  0  0  0  0  0  0  0  0  0  0  0
  1  2  1  0
  2  3  1  0
  3  4  2  0
  4  5  1  0
  5  6  2  0
  6  7  1  0
  7  8  2  0
  7  9  2  0
  7 10  1  0
 10 11  1  0
 11 12  2  0
 12 13  1  0
 13 14  2  0
 14 15  1  0
 15 16  2  0
 16 17  1  0
 17 18  2  0
 17 19  1  0
 15 20  1  0
 20 21  1  0
 21 22  1  0
 22 23  1  0
  6 24  1  0
 24 25  2  0
 25  3  1  0
 16 11  1  0
 23 14  1  0
  1 26  1  0
  1 27  1  0
  1 28  1  0
  4 29  1  0
  5 30  1  0
 12 31  1  0
 13 32  1  0
 20 33  1  0
 20 34  1  0
 21 35  1  0
 21 36  1  0
 22 37  1  0
 22 38  1  0
 23 39  1  0
 23 40  1  0
 24 41  1  0
 25 42  1  0
M  CHG  2  10  -1  19  -1
M  END
>  <UniqueID>  (18) 
18

>  <SMILES>  (18) 
COc1ccc(S(=O)(=O)[N-]c2ccc3c(c2C(=O)[O-])CCCC3)cc1

>  <Energy>  (18) 
59.953477050285194

>  <Genealogy>  (18) 
COc1ccc(S(=O)(=O)[N-]c2ccc3c(c2C(=O)[O-])CCCC3)cc1 (protonated)
COc1ccc(S(=O)(=O)[N-]c2ccc3c(c2C(=O)[O-])CCCC3)cc1 (3D coordinates assigned)
COc1ccc(S(=O)(=O)[N-]c2ccc3c(c2C(=O)[O-])CCCC3)cc1 (nonaromatic ring conformer: 59.953477050285194 kcal/mol)

>  <smiles>  (18) 
COc1ccc(S(=O)(=O)Nc2ccc3c(c2C(=O)O)CCCC3)cc1

>  <score_type>  (18) 
oracle

>  <origin>  (18) 
adgpu

>  <m_score__min__energy>  (18) 
-11.630000000000001

>  <m_primary>  (18) 
energy

$$$$
18:0
     RDKit          3D

 25 26  0  0  0  0  0  0  0  0999 V2000
   -6.0400   25.3420  -30.3710 C   0  0  0  0  0  0  0  0  0  0  0  0
   -5.2140   24.1810  -30.8260 C   0  0  0  0  0  0  0  0  0  0  0  0
   -3.8640   24.2020  -30.8400 N   0  0  0  0  0  0  0  0  0  0  0  0
   -3.5190   22.9660  -31.2590 C   0  0  0  0  0  0  0  0  0  0  0  0
   -4.6520   22.2180  -31.4830 C   0  0  0  0  0  0  0  0  0  0  0  0
   -5.7150   22.9870  -31.2040 N   0  0  0  0  0  0  0  0  0  0  0  0
   -7.3800   22.5100  -31.2930 S   0  0  0  0  0  0  0  0  0  0  0  0
   -8.0070   22.6690  -29.9360 O   0  0  0  0  0  0  0  0  0  0  0  0
   -8.1120   23.3840  -32.2720 O   0  0  0  0  0  0  0  0  0  0  0  0
   -7.4830   20.8400  -31.8360 C   0  0  0  0  0  0  0  0  0  0  0  0
   -8.4100   19.9730  -31.2400 C   0  0  0  0  0  0  0  0  0  0  0  0
   -8.5130   18.6490  -31.6720 C   0  0  0  0  0  0  0  0  0  0  0  0
   -7.6890   18.1820  -32.7020 C   0  0  0  0  0  0  0  0  0  0  0  0
   -6.7610   19.0410  -33.3000 C   0  0  0  0  0  0  0  0  0  0  0  0
   -5.7300   18.4560  -34.5910 Cl  0  0  0  0  0  0  0  0  0  0  0  0
   -6.6570   20.3680  -32.8670 C   0  0  0  0  0  0  0  0  0  0  0  0
   -6.0596   25.3695  -29.2715 H   0  0  0  0  0  0  0  0  0  0  0  0
   -5.6021   26.2758  -30.7534 H   0  0  0  0  0  0  0  0  0  0  0  0
   -7.0658   25.2345  -30.7534 H   0  0  0  0  0  0  0  0  0  0  0  0
   -2.4877   22.6104  -31.4001 H   0  0  0  0  0  0  0  0  0  0  0  0
   -4.6809   21.1744  -31.8295 H   0  0  0  0  0  0  0  0  0  0  0  0
   -9.0583   20.3370  -30.4294 H   0  0  0  0  0  0  0  0  0  0  0  0
   -9.2424   17.9728  -31.2022 H   0  0  0  0  0  0  0  0  0  0  0  0
   -7.7710   17.1390  -33.0416 H   0  0  0  0  0  0  0  0  0  0  0  0
   -5.9257   21.0425  -33.3363 H   0  0  0  0  0  0  0  0  0  0  0  0
  1  2  1  0
  2  3  2  0
  3  4  1  0
  4  5  2  0
  5  6  1  0
  6  7  1  0
  7  8  2  0
  7  9  2  0
  7 10  1  0
 10 11  2  0
 11 12  1  0
 12 13  2  0
 13 14  1  0
 14 15  1  0
 14 16  2  0
  6  2  1  0
 16 10  1  0
  1 17  1  0
  1 18  1  0
  1 19  1  0
  4 20  1  0
  5 21  1  0
 11 22  1  0
 12 23  1  0
 13 24  1  0
 16 25  1  0
M  END
>  <UniqueID>  (19) 
19

>  <SMILES>  (19) 
Cc1nccn1S(=O)(=O)c1cccc(Cl)c1

>  <Energy>  (19) 
54.79598846987091

>  <Genealogy>  (19) 
Cc1nccn1S(=O)(=O)c1cccc(Cl)c1 (3D coordinates assigned)
Cc1nccn1S(=O)(=O)c1cccc(Cl)c1 (optimized conformer: 54.79598846987091 kcal/mol)

>  <smiles>  (19) 
Cc1nccn1S(=O)(=O)c1cccc(Cl)c1

>  <score_type>  (19) 
oracle

>  <origin>  (19) 
adgpu

>  <m_score__min__energy>  (19) 
-7.3399999999999999

>  <m_primary>  (19) 
energy

$$$$
19:0
     RDKit          3D

 45 47  0  0  0  0  0  0  0  0999 V2000
   -7.2610   17.9840  -31.6040 C   0  0  0  0  0  0  0  0  0  0  0  0
   -8.4020   18.8360  -31.6250 O   0  0  0  0  0  0  0  0  0  0  0  0
   -8.3450   20.2380  -31.6090 C   0  0  0  0  0  0  0  0  0  0  0  0
   -9.4970   20.9540  -31.9630 C   0  0  0  0  0  0  0  0  0  0  0  0
   -9.4810   22.3500  -32.0010 C   0  0  0  0  0  0  0  0  0  0  0  0
   -8.3140   23.0480  -31.6820 C   0  0  0  0  0  0  0  0  0  0  0  0
   -7.1540   22.3490  -31.3030 C   0  0  0  0  0  0  0  0  0  0  0  0
   -5.9110   23.0770  -30.9730 C   0  0  0  0  0  0  0  0  0  0  0  0
   -5.8200   24.4690  -31.1070 C   0  0  0  0  0  0  0  0  0  0  0  0
   -4.6280   25.0740  -30.8690 N   0  0  0  0  0  0  0  0  0  0  0  0
   -3.5560   24.3670  -30.5010 N   0  0  0  0  0  0  0  0  0  0  0  0
   -3.6310   23.0210  -30.3460 C   0  0  0  0  0  0  0  0  0  0  0  0
   -2.1930   22.0930  -29.8080 S   0  0  0  0  0  0  0  0  0  0  0  0
   -1.4940   21.9070  -31.4890 C   0  0  0  0  0  0  0  0  0  0  0  0
   -2.4410   21.2880  -32.4900 C   0  0  0  0  0  0  0  0  0  0  0  0
   -2.2360   21.5070  -33.7160 O   0  0  0  0  0  0  0  0  0  0  0  0
   -3.5300   20.4300  -32.0880 N   0  0  0  0  0  0  0  0  0  0  0  0
   -4.2370   19.5770  -33.0100 C   0  0  0  0  0  0  0  0  0  0  0  0
   -5.4470   19.9980  -33.5910 C   0  0  0  0  0  0  0  0  0  0  0  0
   -6.1110   19.1820  -34.5060 C   0  0  0  0  0  0  0  0  0  0  0  0
   -5.5800   17.9410  -34.8550 C   0  0  0  0  0  0  0  0  0  0  0  0
   -4.3760   17.5120  -34.2930 C   0  0  0  0  0  0  0  0  0  0  0  0
   -3.6930   18.3260  -33.3650 C   0  0  0  0  0  0  0  0  0  0  0  0
   -2.4930   17.9160  -32.7610 O   0  0  0  0  0  0  0  0  0  0  0  0
   -1.2030   18.0860  -33.3360 C   0  0  0  0  0  0  0  0  0  0  0  0
   -4.8050   22.3830  -30.5880 N   0  0  0  0  0  0  0  0  0  0  0  0
   -7.1780   20.9460  -31.2580 C   0  0  0  0  0  0  0  0  0  0  0  0
   -6.9795   17.7738  -30.5616 H   0  0  0  0  0  0  0  0  0  0  0  0
   -7.4985   17.0404  -32.1171 H   0  0  0  0  0  0  0  0  0  0  0  0
   -6.4237   18.4797  -32.1171 H   0  0  0  0  0  0  0  0  0  0  0  0
  -10.4210   20.4120  -32.2129 H   0  0  0  0  0  0  0  0  0  0  0  0
  -10.3901   22.9014  -32.2830 H   0  0  0  0  0  0  0  0  0  0  0  0
   -8.3022   24.1470  -31.7273 H   0  0  0  0  0  0  0  0  0  0  0  0
   -6.6993   25.0614  -31.4000 H   0  0  0  0  0  0  0  0  0  0  0  0
   -1.2082   22.9039  -31.8557 H   0  0  0  0  0  0  0  0  0  0  0  0
   -0.6372   21.2228  -31.4004 H   0  0  0  0  0  0  0  0  0  0  0  0
   -3.9080   20.4910  -31.1170 H   0  0  0  0  0  0  0  0  0  0  0  0
   -5.8717   20.9764  -33.3219 H   0  0  0  0  0  0  0  0  0  0  0  0
   -7.0574   19.5186  -34.9543 H   0  0  0  0  0  0  0  0  0  0  0  0
   -6.1102   17.2991  -35.5739 H   0  0  0  0  0  0  0  0  0  0  0  0
   -3.9579   16.5345  -34.5752 H   0  0  0  0  0  0  0  0  0  0  0  0
   -0.4549   18.1846  -32.5356 H   0  0  0  0  0  0  0  0  0  0  0  0
   -0.9610   17.2120  -33.9585 H   0  0  0  0  0  0  0  0  0  0  0  0
   -1.1956   18.9929  -33.9585 H   0  0  0  0  0  0  0  0  0  0  0  0
   -6.2786   20.3948  -30.9462 H   0  0  0  0  0  0  0  0  0  0  0  0
  1  2  1  0
  2  3  1  0
  3  4  2  0
  4  5  1  0
  5  6  2  0
  6  7  1  0
  7  8  1  0
  8  9  2  0
  9 10  1  0
 10 11  2  0
 11 12  1  0
 12 13  1  0
 13 14  1  0
 14 15  1  0
 15 16  2  0
 15 17  1  0
 17 18  1  0
 18 19  2  0
 19 20  1  0
 20 21  2  0
 21 22  1  0
 22 23  2  0
 23 24  1  0
 24 25  1  0
 12 26  2  0
  7 27  2  0
 27  3  1  0
 26  8  1  0
 23 18  1  0
  1 28  1  0
  1 29  1  0
  1 30  1  0
  4 31  1  0
  5 32  1  0
  6 33  1  0
  9 34  1  0
 14 35  1  0
 14 36  1  0
 17 37  1  0
 19 38  1  0
 20 39  1  0
 21 40  1  0
 22 41  1  0
 25 42  1  0
 25 43  1  0
 25 44  1  0
 27 45  1  0
M  END
>  <UniqueID>  (20) 
20

>  <SMILES>  (20) 
COc1cccc(-c2cnnc(SCC(=O)Nc3ccccc3OC)n2)c1

>  <Energy>  (20) 
51.05998738720956

>  <Genealogy>  (20) 
COc1cccc(-c2cnnc(SCC(=O)Nc3ccccc3OC)n2)c1 (3D coordinates assigned)
COc1cccc(-c2cnnc(SCC(=O)Nc3ccccc3OC)n2)c1 (optimized conformer: 51.05998738720956 kcal/mol)

>  <smiles>  (20) 
COc1cccc(-c2cnnc(SCC(=O)Nc3ccccc3OC)n2)c1

>  <score_type>  (20) 
oracle

>  <origin>  (20) 
adgpu

>  <m_score__min__energy>  (20) 
-8.7100000000000009

>  <m_primary>  (20) 
energy

$$$$
20:0
     RDKit          3D

 55 59  0  0  0  0  0  0  0  0999 V2000
    3.1760   18.4090  -32.4540 C   0  0  0  0  0  0  0  0  0  0  0  0
    1.9430   18.9290  -31.7630 C   0  0  0  0  0  0  0  0  0  0  0  0
    1.8090   18.7940  -30.3730 C   0  0  0  0  0  0  0  0  0  0  0  0
    0.6880   19.3110  -29.7210 C   0  0  0  0  0  0  0  0  0  0  0  0
    0.4970   19.1240  -27.8290 Br  0  0  0  0  0  0  0  0  0  0  0  0
   -0.2910   19.9690  -30.4670 C   0  0  0  0  0  0  0  0  0  0  0  0
   -0.1430   20.1070  -31.8110 N   0  0  0  0  0  0  0  0  0  0  0  0
    0.9380   19.6140  -32.4770 C   0  0  0  0  0  0  0  0  0  0  0  0
    1.0490   19.7790  -33.7640 N   0  0  0  0  0  0  0  0  0  0  0  0
   -0.1110   20.6260  -34.7340 S   0  0  0  0  0  0  0  0  0  0  0  0
    0.2330   22.0890  -34.7550 O   0  0  0  0  0  0  0  0  0  0  0  0
   -0.0650   20.0990  -36.1410 O   0  0  0  0  0  0  0  0  0  0  0  0
   -1.7170   20.4290  -34.0380 C   0  0  0  0  0  0  0  0  0  0  0  0
   -2.4590   21.5630  -33.6830 C   0  0  0  0  0  0  0  0  0  0  0  0
   -3.7260   21.4240  -33.1070 C   0  0  0  0  0  0  0  0  0  0  0  0
   -4.2590   20.1450  -32.8680 C   0  0  0  0  0  0  0  0  0  0  0  0
   -5.5690   19.9560  -32.3110 N   0  0  0  0  0  0  0  0  0  0  0  0
   -6.5920   20.9520  -32.1660 C   0  0  0  0  0  0  0  0  0  0  0  0
   -7.7350   20.7490  -32.6530 O   0  0  0  0  0  0  0  0  0  0  0  0
   -6.2790   22.2380  -31.4800 C   0  0  0  0  0  0  0  0  0  0  0  0
   -5.0670   22.3710  -30.7740 C   0  0  0  0  0  0  0  0  0  0  0  0
   -4.7400   23.5670  -30.1110 C   0  0  0  0  0  0  0  0  0  0  0  0
   -3.4630   23.7160  -29.3720 C   0  0  0  0  0  0  0  0  0  0  0  0
   -2.7610   22.7050  -28.7100 C   0  0  0  0  0  0  0  0  0  0  0  0
   -1.6500   23.3350  -28.2000 C   0  0  0  0  0  0  0  0  0  0  0  0
   -0.5830   22.8390  -27.4530 C   0  0  0  0  0  0  0  0  0  0  0  0
    0.4250   23.7460  -27.0760 C   0  0  0  0  0  0  0  0  0  0  0  0
    0.3390   25.1080  -27.4460 C   0  0  0  0  0  0  0  0  0  0  0  0
   -0.7520   25.5740  -28.2030 C   0  0  0  0  0  0  0  0  0  0  0  0
   -1.7310   24.6520  -28.5650 C   0  0  0  0  0  0  0  0  0  0  0  0
   -2.8170   24.8670  -29.2650 O   0  0  0  0  0  0  0  0  0  0  0  0
   -5.6440   24.6370  -30.1500 C   0  0  0  0  0  0  0  0  0  0  0  0
   -6.8480   24.5200  -30.8450 C   0  0  0  0  0  0  0  0  0  0  0  0
   -7.1760   23.3310  -31.5070 C   0  0  0  0  0  0  0  0  0  0  0  0
   -8.3930   23.2410  -32.1840 O   0  0  0  0  0  0  0  0  0  0  0  0
   -3.5230   19.0150  -33.2520 C   0  0  0  0  0  0  0  0  0  0  0  0
   -2.2550   19.1550  -33.8230 C   0  0  0  0  0  0  0  0  0  0  0  0
    3.9146   18.0975  -31.7007 H   0  0  0  0  0  0  0  0  0  0  0  0
    2.9080   17.5473  -33.0830 H   0  0  0  0  0  0  0  0  0  0  0  0
    3.6060   19.2024  -33.0830 H   0  0  0  0  0  0  0  0  0  0  0  0
    2.5901   18.2789  -29.7947 H   0  0  0  0  0  0  0  0  0  0  0  0
   -1.1824   20.3759  -29.9672 H   0  0  0  0  0  0  0  0  0  0  0  0
   -2.0437   22.5664  -33.8579 H   0  0  0  0  0  0  0  0  0  0  0  0
   -4.3076   22.3186  -32.8400 H   0  0  0  0  0  0  0  0  0  0  0  0
   -4.3648   21.5249  -30.7409 H   0  0  0  0  0  0  0  0  0  0  0  0
   -3.0354   21.6438  -28.6176 H   0  0  0  0  0  0  0  0  0  0  0  0
   -0.5306   21.7777  -27.1686 H   0  0  0  0  0  0  0  0  0  0  0  0
    1.2859   23.3928  -26.4893 H   0  0  0  0  0  0  0  0  0  0  0  0
    1.1303   25.8081  -27.1400 H   0  0  0  0  0  0  0  0  0  0  0  0
   -0.8289   26.6307  -28.4988 H   0  0  0  0  0  0  0  0  0  0  0  0
   -5.4027   25.5754  -29.6292 H   0  0  0  0  0  0  0  0  0  0  0  0
   -7.5459   25.3698  -30.8730 H   0  0  0  0  0  0  0  0  0  0  0  0
   -8.7510   22.3560  -32.5240 H   0  0  0  0  0  0  0  0  0  0  0  0
   -3.9467   18.0109  -33.1027 H   0  0  0  0  0  0  0  0  0  0  0  0
   -1.6783   18.2615  -34.1042 H   0  0  0  0  0  0  0  0  0  0  0  0
  1  2  1  0
  2  3  2  0
  3  4  1  0
  4  5  1  0
  4  6  2  0
  6  7  1  0
  7  8  1  0
  8  9  2  3
  9 10  1  0
 10 11  2  0
 10 12  2  0
 10 13  1  0
 13 14  2  0
 14 15  1  0
 15 16  2  0
 16 17  1  0
 17 18  1  0
 18 19  2  0
 18 20  1  0
 20 21  2  0
 21 22  1  0
 22 23  1  0
 23 24  2  0
 24 25  1  0
 25 26  2  0
 26 27  1  0
 27 28  2  0
 28 29  1  0
 29 30  2  0
 30 31  1  0
 22 32  2  0
 32 33  1  0
 33 34  2  0
 34 35  1  0
 16 36  1  0
 36 37  2  0
  8  2  1  0
 37 13  1  0
 34 20  1  0
 31 23  1  0
 30 25  1  0
  1 38  1  0
  1 39  1  0
  1 40  1  0
  3 41  1  0
  6 42  1  0
 14 43  1  0
 15 44  1  0
 21 45  1  0
 24 46  1  0
 26 47  1  0
 27 48  1  0
 28 49  1  0
 29 50  1  0
 32 51  1  0
 33 52  1  0
 35 53  1  0
 36 54  1  0
 37 55  1  0
M  CHG  2   7  -1  17  -1
M  END
>  <UniqueID>  (21) 
21

>  <SMILES>  (21) 
Cc1cc(Br)c[n-]c1=NS(=O)(=O)c1ccc([N-]C(=O)c2cc(-c3cc4ccccc4o3)ccc2O)cc1

>  <Energy>  (21) 
106.50589093059355

>  <Genealogy>  (21) 
Cc1cc(Br)c[n-]c1=NS(=O)(=O)c1ccc([N-]C(=O)c2cc(-c3cc4ccccc4o3)ccc2O)cc1 (protonated)
Cc1cc(Br)c[n-]c1=NS(=O)(=O)c1ccc([N-]C(=O)c2cc(-c3cc4ccccc4o3)ccc2O)cc1 (3D coordinates assigned)
Cc1cc(Br)c[n-]c1=NS(=O)(=O)c1ccc([N-]C(=O)c2cc(-c3cc4ccccc4o3)ccc2O)cc1 (optimized conformer: 106.50589093059355 kcal/mol)

>  <smiles>  (21) 
Cc1cc(Br)c[nH]c1=NS(=O)(=O)c1ccc(NC(=O)c2cc(-c3cc4ccccc4o3)ccc2O)cc1

>  <score_type>  (21) 
oracle

>  <origin>  (21) 
adgpu

>  <m_score__min__energy>  (21) 
-11.57

>  <m_primary>  (21) 
energy

$$$$
21:0
     RDKit          3D

 56 59  0  0  0  0  0  0  0  0999 V2000
   -5.3630   15.3480  -32.4330 O   0  0  0  0  0  0  0  0  0  0  0  0
   -5.2830   16.2930  -33.2670 C   0  0  0  0  0  0  0  0  0  0  0  0
   -6.4620   17.0160  -33.6520 N   0  0  0  0  0  0  0  0  0  0  0  0
   -6.9610   18.2280  -33.0700 C   0  0  0  0  0  0  0  0  0  0  0  0
   -6.4950   19.4500  -33.5680 C   0  0  0  0  0  0  0  0  0  0  0  0
   -6.9680   20.6580  -33.0460 C   0  0  0  0  0  0  0  0  0  0  0  0
   -7.9580   20.6600  -32.0460 C   0  0  0  0  0  0  0  0  0  0  0  0
   -8.4590   21.9520  -31.4510 C   0  0  0  0  0  0  0  0  0  0  0  0
   -9.8200   21.9000  -31.2040 F   0  0  0  0  0  0  0  0  0  0  0  0
   -7.8110   22.2020  -30.2530 F   0  0  0  0  0  0  0  0  0  0  0  0
   -8.2020   22.9900  -32.3270 F   0  0  0  0  0  0  0  0  0  0  0  0
   -8.4190   19.4340  -31.5410 C   0  0  0  0  0  0  0  0  0  0  0  0
   -7.9380   18.2260  -32.0580 C   0  0  0  0  0  0  0  0  0  0  0  0
   -3.9630   16.6820  -33.8140 C   0  0  0  0  0  0  0  0  0  0  0  0
   -3.3850   15.9510  -34.8670 C   0  0  0  0  0  0  0  0  0  0  0  0
   -2.1400   16.3150  -35.3820 C   0  0  0  0  0  0  0  0  0  0  0  0
   -1.4610   17.4190  -34.8670 C   0  0  0  0  0  0  0  0  0  0  0  0
   -2.0300   18.1840  -33.8350 C   0  0  0  0  0  0  0  0  0  0  0  0
   -1.2930   19.3960  -33.2880 C   0  0  0  0  0  0  0  0  0  0  0  0
   -2.1780   20.4500  -32.7220 N   0  0  0  0  0  0  0  0  0  0  0  0
   -3.3010   20.7890  -33.6280 C   0  0  0  0  0  0  0  0  0  0  0  0
   -4.0540   22.0240  -33.1100 C   0  0  0  0  0  0  0  0  0  0  0  0
   -4.2880   21.9200  -31.6660 N   0  0  0  0  0  0  0  0  0  0  0  0
   -4.7760   23.0560  -30.9300 C   0  0  0  0  0  0  0  0  0  0  0  0
   -5.6270   23.9930  -31.5440 C   0  0  0  0  0  0  0  0  0  0  0  0
   -6.1130   25.0870  -30.8210 C   0  0  0  0  0  0  0  0  0  0  0  0
   -5.7440   25.2620  -29.4860 C   0  0  0  0  0  0  0  0  0  0  0  0
   -4.8860   24.3430  -28.8710 C   0  0  0  0  0  0  0  0  0  0  0  0
   -4.4010   23.2450  -29.5890 C   0  0  0  0  0  0  0  0  0  0  0  0
   -4.0260   20.6460  -30.9890 C   0  0  0  0  0  0  0  0  0  0  0  0
   -2.6060   20.1470  -31.3230 C   0  0  0  0  0  0  0  0  0  0  0  0
   -3.2680   17.7910  -33.2960 C   0  0  0  0  0  0  0  0  0  0  0  0
   -5.7500   19.4604  -34.3773 H   0  0  0  0  0  0  0  0  0  0  0  0
   -6.5644   21.6110  -33.4188 H   0  0  0  0  0  0  0  0  0  0  0  0
   -9.1645   19.4229  -30.7322 H   0  0  0  0  0  0  0  0  0  0  0  0
   -8.3252   17.2716  -31.6718 H   0  0  0  0  0  0  0  0  0  0  0  0
   -3.9181   15.0858  -35.2880 H   0  0  0  0  0  0  0  0  0  0  0  0
   -1.6922   15.7285  -36.1978 H   0  0  0  0  0  0  0  0  0  0  0  0
   -0.4750   17.6922  -35.2708 H   0  0  0  0  0  0  0  0  0  0  0  0
   -0.6125   19.0552  -32.4938 H   0  0  0  0  0  0  0  0  0  0  0  0
   -0.7653   19.8526  -34.1383 H   0  0  0  0  0  0  0  0  0  0  0  0
   -1.5780   21.3110  -32.6700 H   0  0  0  0  0  0  0  0  0  0  0  0
   -2.9051   21.0008  -34.6322 H   0  0  0  0  0  0  0  0  0  0  0  0
   -3.9967   19.9378  -33.6674 H   0  0  0  0  0  0  0  0  0  0  0  0
   -3.4558   22.9241  -33.3150 H   0  0  0  0  0  0  0  0  0  0  0  0
   -5.0254   22.0868  -33.6223 H   0  0  0  0  0  0  0  0  0  0  0  0
   -5.9117   23.8644  -32.5987 H   0  0  0  0  0  0  0  0  0  0  0  0
   -6.7864   25.8100  -31.3045 H   0  0  0  0  0  0  0  0  0  0  0  0
   -6.1275   26.1221  -28.9175 H   0  0  0  0  0  0  0  0  0  0  0  0
   -4.5924   24.4846  -27.8204 H   0  0  0  0  0  0  0  0  0  0  0  0
   -3.7240   22.5273  -29.1025 H   0  0  0  0  0  0  0  0  0  0  0  0
   -4.1150   20.7874  -29.9018 H   0  0  0  0  0  0  0  0  0  0  0  0
   -4.7582   19.9003  -31.3322 H   0  0  0  0  0  0  0  0  0  0  0  0
   -1.8976   20.6262  -30.6313 H   0  0  0  0  0  0  0  0  0  0  0  0
   -2.6168   19.0519  -31.2195 H   0  0  0  0  0  0  0  0  0  0  0  0
   -3.6992   18.3582  -32.4579 H   0  0  0  0  0  0  0  0  0  0  0  0
  1  2  2  0
  2  3  1  0
  3  4  1  0
  4  5  2  0
  5  6  1  0
  6  7  2  0
  7  8  1  0
  8  9  1  0
  8 10  1  0
  8 11  1  0
  7 12  1  0
 12 13  2  0
  2 14  1  0
 14 15  2  0
 15 16  1  0
 16 17  2  0
 17 18  1  0
 18 19  1  0
 19 20  1  0
 20 21  1  0
 21 22  1  0
 22 23  1  0
 23 24  1  0
 24 25  2  0
 25 26  1  0
 26 27  2  0
 27 28  1  0
 28 29  2  0
 23 30  1  0
 30 31  1  0
 18 32  2  0
 13  4  1  0
 32 14  1  0
 31 20  1  0
 29 24  1  0
  5 33  1  0
  6 34  1  0
 12 35  1  0
 13 36  1  0
 15 37  1  0
 16 38  1  0
 17 39  1  0
 19 40  1  0
 19 41  1  0
 20 42  1  0
 21 43  1  0
 21 44  1  0
 22 45  1  0
 22 46  1  0
 25 47  1  0
 26 48  1  0
 27 49  1  0
 28 50  1  0
 29 51  1  0
 30 52  1  0
 30 53  1  0
 31 54  1  0
 31 55  1  0
 32 56  1  0
M  CHG  2   3  -1  20   1
M  END
>  <UniqueID>  (22) 
22

>  <SMILES>  (22) 
O=C([N-]c1ccc(C(F)(F)F)cc1)c1cccc(C[NH+]2CCN(c3ccccc3)CC2)c1

>  <Energy>  (22) 
78.860903465607

>  <Genealogy>  (22) 
O=C([N-]c1ccc(C(F)(F)F)cc1)c1cccc(C[NH+]2CCN(c3ccccc3)CC2)c1 (protonated)
O=C([N-]c1ccc(C(F)(F)F)cc1)c1cccc(C[NH+]2CCN(c3ccccc3)CC2)c1 (3D coordinates assigned)
O=C([N-]c1ccc(C(F)(F)F)cc1)c1cccc(C[NH+]2CCN(c3ccccc3)CC2)c1 (nonaromatic ring conformer: 78.860903465607 kcal/mol)

>  <smiles>  (22) 
O=C(Nc1ccc(C(F)(F)F)cc1)c1cccc(CN2CCN(c3ccccc3)CC2)c1

>  <score_type>  (22) 
oracle

>  <origin>  (22) 
adgpu

>  <m_score__min__energy>  (22) 
-9.7699999999999996

>  <m_primary>  (22) 
energy

$$$$
22:0
     RDKit          3D

 40 41  0  0  0  0  0  0  0  0999 V2000
   -6.7760   24.3680  -30.0970 C   0  0  0  0  0  0  0  0  0  0  0  0
   -6.4620   23.1560  -30.8730 N   0  0  0  0  0  0  0  0  0  0  0  0
   -7.5600   22.8580  -31.8160 C   0  0  0  0  0  0  0  0  0  0  0  0
   -7.6850   21.3700  -32.0170 C   0  0  0  0  0  0  0  0  0  0  0  0
   -6.7210   20.6630  -32.7560 C   0  0  0  0  0  0  0  0  0  0  0  0
   -6.8380   19.2790  -32.9200 C   0  0  0  0  0  0  0  0  0  0  0  0
   -7.9130   18.5930  -32.3480 C   0  0  0  0  0  0  0  0  0  0  0  0
   -8.8750   19.2900  -31.6120 C   0  0  0  0  0  0  0  0  0  0  0  0
   -8.7640   20.6740  -31.4470 C   0  0  0  0  0  0  0  0  0  0  0  0
   -5.1740   23.3150  -31.5840 C   0  0  0  0  0  0  0  0  0  0  0  0
   -4.0320   23.2410  -30.6020 C   0  0  0  0  0  0  0  0  0  0  0  0
   -3.5750   21.9810  -30.1810 C   0  0  0  0  0  0  0  0  0  0  0  0
   -2.5300   21.8680  -29.2560 C   0  0  0  0  0  0  0  0  0  0  0  0
   -2.1020   20.5580  -28.8610 N   0  0  0  0  0  0  0  0  0  0  0  0
   -1.8350   20.0450  -27.2270 S   0  0  0  0  0  0  0  0  0  0  0  0
   -3.2630   19.1480  -26.6640 C   0  0  0  0  0  0  0  0  0  0  0  0
   -0.6330   19.1460  -27.1650 O   0  0  0  0  0  0  0  0  0  0  0  0
   -1.6270   21.2430  -26.3440 O   0  0  0  0  0  0  0  0  0  0  0  0
   -1.9370   23.0340  -28.7430 C   0  0  0  0  0  0  0  0  0  0  0  0
   -2.3900   24.2910  -29.1530 C   0  0  0  0  0  0  0  0  0  0  0  0
   -3.4340   24.4020  -30.0760 C   0  0  0  0  0  0  0  0  0  0  0  0
   -3.8700   25.6660  -30.4580 O   0  0  0  0  0  0  0  0  0  0  0  0
   -6.7171   24.1408  -29.0223 H   0  0  0  0  0  0  0  0  0  0  0  0
   -6.0532   25.1594  -30.3446 H   0  0  0  0  0  0  0  0  0  0  0  0
   -7.7921   24.7089  -30.3446 H   0  0  0  0  0  0  0  0  0  0  0  0
   -8.5040   23.2502  -31.4098 H   0  0  0  0  0  0  0  0  0  0  0  0
   -7.3407   23.3333  -32.7835 H   0  0  0  0  0  0  0  0  0  0  0  0
   -5.8727   21.1993  -33.2063 H   0  0  0  0  0  0  0  0  0  0  0  0
   -6.0824   18.7292  -33.5004 H   0  0  0  0  0  0  0  0  0  0  0  0
   -8.0019   17.5042  -32.4772 H   0  0  0  0  0  0  0  0  0  0  0  0
   -9.7205   18.7492  -31.1619 H   0  0  0  0  0  0  0  0  0  0  0  0
   -9.5242   21.2197  -30.8689 H   0  0  0  0  0  0  0  0  0  0  0  0
   -5.0671   22.5124  -32.3286 H   0  0  0  0  0  0  0  0  0  0  0  0
   -5.1564   24.2935  -32.0862 H   0  0  0  0  0  0  0  0  0  0  0  0
   -4.0444   21.0712  -30.5834 H   0  0  0  0  0  0  0  0  0  0  0  0
   -3.2794   19.1377  -25.5642 H   0  0  0  0  0  0  0  0  0  0  0  0
   -4.1743   19.6362  -27.0397 H   0  0  0  0  0  0  0  0  0  0  0  0
   -3.2188   18.1151  -27.0397 H   0  0  0  0  0  0  0  0  0  0  0  0
   -1.1142   22.9573  -28.0169 H   0  0  0  0  0  0  0  0  0  0  0  0
   -1.9217   25.1995  -28.7465 H   0  0  0  0  0  0  0  0  0  0  0  0
  1  2  1  0
  2  3  1  0
  3  4  1  0
  4  5  2  0
  5  6  1  0
  6  7  2  0
  7  8  1  0
  8  9  2  0
  2 10  1  0
 10 11  1  0
 11 12  2  0
 12 13  1  0
 13 14  1  0
 14 15  1  0
 15 16  1  0
 15 17  2  0
 15 18  2  0
 13 19  2  0
 19 20  1  0
 20 21  2  0
 21 22  1  0
  9  4  1  0
 21 11  1  0
  1 23  1  0
  1 24  1  0
  1 25  1  0
  3 26  1  0
  3 27  1  0
  5 28  1  0
  6 29  1  0
  7 30  1  0
  8 31  1  0
  9 32  1  0
 10 33  1  0
 10 34  1  0
 12 35  1  0
 16 36  1  0
 16 37  1  0
 16 38  1  0
 19 39  1  0
 20 40  1  0
M  CHG  2  14  -1  22  -1
M  END
>  <UniqueID>  (23) 
23

>  <SMILES>  (23) 
CN(Cc1ccccc1)Cc1cc([N-]S(C)(=O)=O)ccc1[O-]

>  <Energy>  (23) 
39.80639334480414

>  <Genealogy>  (23) 
CN(Cc1ccccc1)Cc1cc([N-]S(C)(=O)=O)ccc1[O-] (protonated)
CN(Cc1ccccc1)Cc1cc([N-]S(C)(=O)=O)ccc1[O-] (3D coordinates assigned)
CN(Cc1ccccc1)Cc1cc([N-]S(C)(=O)=O)ccc1[O-] (optimized conformer: 39.80639334480414 kcal/mol)

>  <smiles>  (23) 
CN(Cc1ccccc1)Cc1cc(NS(C)(=O)=O)ccc1O

>  <score_type>  (23) 
oracle

>  <origin>  (23) 
adgpu

>  <m_score__min__energy>  (23) 
-11.050000000000001

>  <m_primary>  (23) 
energy

$$$$
23:0
     RDKit          3D

 47 49  0  0  0  0  0  0  0  0999 V2000
   -5.4141   26.7483  -30.9066 H   0  0  0  0  0  0  0  0  0  0  0  0
   -5.0920   25.6990  -30.8340 C   0  0  0  0  0  0  0  0  0  0  0  0
   -3.8690   25.2900  -30.4330 N   0  0  0  0  0  0  0  0  0  0  0  0
   -3.8580   23.9670  -30.4670 N   0  0  0  0  0  0  0  0  0  0  0  0
   -2.6890   23.1550  -30.1450 C   0  0  0  0  0  0  0  0  0  0  0  0
   -2.5832   23.0815  -29.0526 H   0  0  0  0  0  0  0  0  0  0  0  0
   -2.8137   22.1481  -30.5699 H   0  0  0  0  0  0  0  0  0  0  0  0
   -1.7889   23.6234  -30.5699 H   0  0  0  0  0  0  0  0  0  0  0  0
   -5.0510   23.5230  -30.9000 C   0  0  0  0  0  0  0  0  0  0  0  0
   -5.3340   22.2650  -31.0730 N   0  0  0  0  0  0  0  0  0  0  0  0
   -6.8640   21.6720  -31.6390 S   0  0  0  0  0  0  0  0  0  0  0  0
   -7.8040   21.5480  -30.4730 O   0  0  0  0  0  0  0  0  0  0  0  0
   -7.4330   22.6550  -32.6250 O   0  0  0  0  0  0  0  0  0  0  0  0
   -6.6710   20.0890  -32.3860 C   0  0  0  0  0  0  0  0  0  0  0  0
   -6.2550   19.9820  -33.7190 C   0  0  0  0  0  0  0  0  0  0  0  0
   -6.0669   20.8909  -34.3093 H   0  0  0  0  0  0  0  0  0  0  0  0
   -6.0780   18.7230  -34.3020 C   0  0  0  0  0  0  0  0  0  0  0  0
   -5.7627   18.6469  -35.3531 H   0  0  0  0  0  0  0  0  0  0  0  0
   -6.3000   17.5570  -33.5550 C   0  0  0  0  0  0  0  0  0  0  0  0
   -6.1060   16.2750  -34.1720 N   0  0  0  0  0  0  0  0  0  0  0  0
   -6.9500   15.7550  -34.5050 H   0  0  0  0  0  0  0  0  0  0  0  0
   -4.8130   15.7000  -34.4170 C   0  0  0  0  0  0  0  0  0  0  0  0
   -4.7230   14.1090  -34.8110 S   0  0  0  0  0  0  0  0  0  0  0  0
   -3.6680   16.5540  -34.5770 N   0  0  0  0  0  0  0  0  0  0  0  0
   -3.8390   17.5480  -34.8450 H   0  0  0  0  0  0  0  0  0  0  0  0
   -2.3220   16.1750  -34.2500 C   0  0  0  0  0  0  0  0  0  0  0  0
   -2.0620   15.0160  -33.8250 O   0  0  0  0  0  0  0  0  0  0  0  0
   -1.2240   17.1900  -34.3220 C   0  0  0  0  0  0  0  0  0  0  0  0
   -0.3841   16.8654  -33.6902 H   0  0  0  0  0  0  0  0  0  0  0  0
   -0.8863   17.2877  -35.3643 H   0  0  0  0  0  0  0  0  0  0  0  0
   -1.7300   18.5200  -33.8360 C   0  0  0  0  0  0  0  0  0  0  0  0
   -1.1800   19.7120  -34.3380 C   0  0  0  0  0  0  0  0  0  0  0  0
   -0.4060   19.6722  -35.1186 H   0  0  0  0  0  0  0  0  0  0  0  0
   -1.6130   20.9480  -33.8490 C   0  0  0  0  0  0  0  0  0  0  0  0
   -1.1853   21.8781  -34.2515 H   0  0  0  0  0  0  0  0  0  0  0  0
   -2.5880   21.0040  -32.8500 C   0  0  0  0  0  0  0  0  0  0  0  0
   -2.9280   21.9774  -32.4668 H   0  0  0  0  0  0  0  0  0  0  0  0
   -3.1310   19.8230  -32.3380 C   0  0  0  0  0  0  0  0  0  0  0  0
   -3.8959   19.8680  -31.5487 H   0  0  0  0  0  0  0  0  0  0  0  0
   -2.7050   18.5840  -32.8260 C   0  0  0  0  0  0  0  0  0  0  0  0
   -3.1342   17.6569  -32.4183 H   0  0  0  0  0  0  0  0  0  0  0  0
   -6.7520   17.6690  -32.2270 C   0  0  0  0  0  0  0  0  0  0  0  0
   -6.9639   16.7616  -31.6424 H   0  0  0  0  0  0  0  0  0  0  0  0
   -6.9330   18.9290  -31.6470 C   0  0  0  0  0  0  0  0  0  0  0  0
   -7.2823   19.0087  -30.6070 H   0  0  0  0  0  0  0  0  0  0  0  0
   -5.8800   24.6040  -31.1400 C   0  0  0  0  0  0  0  0  0  0  0  0
   -6.9222   24.5950  -31.4919 H   0  0  0  0  0  0  0  0  0  0  0  0
  1  2  1  0
  2  3  1  0
  3  4  1  0
  4  5  1  0
  5  6  1  0
  5  7  1  0
  5  8  1  0
  4  9  1  0
  9 10  2  0
 10 11  1  0
 11 12  2  0
 11 13  2  0
 11 14  1  0
 14 15  2  0
 15 16  1  0
 15 17  1  0
 17 18  1  0
 17 19  2  0
 19 20  1  0
 20 21  1  0
 20 22  1  0
 22 23  2  0
 22 24  1  0
 24 25  1  0
 24 26  1  0
 26 27  2  0
 26 28  1  0
 28 29  1  0
 28 30  1  0
 28 31  1  0
 31 32  2  0
 32 33  1  0
 32 34  1  0
 34 35  1  0
 34 36  2  0
 36 37  1  0
 36 38  1  0
 38 39  1  0
 38 40  2  0
 40 41  1  0
 19 42  1  0
 42 43  1  0
 42 44  2  0
 44 45  1  0
  9 46  1  0
 46 47  1  0
 46  2  2  0
 44 14  1  0
 40 31  1  0
M  CHG  1   3  -1
M  END
>  <UniqueID>  (24) 
24

>  <SMILES>  (24) 
Cn1[n-]cc/c1=N\S(=O)(=O)c1ccc(NC(=S)NC(=O)Cc2ccccc2)cc1

>  <Energy>  (24) 
81.64851872983625

>  <Genealogy>  (24) 
Cn1[n-]ccc1=NS(=O)(=O)c1ccc(NC(=S)NC(=O)Cc2ccccc2)cc1 (protonated)
Cn1[n-]cc/c1=N\S(=O)(=O)c1ccc(NC(=S)NC(=O)Cc2ccccc2)cc1 (cis-trans isomerization)
Cn1[n-]cc/c1=N\S(=O)(=O)c1ccc(NC(=S)NC(=O)Cc2ccccc2)cc1 (3D coordinates assigned)
Cn1[n-]cc/c1=N\S(=O)(=O)c1ccc(NC(=S)NC(=O)Cc2ccccc2)cc1 (optimized conformer: 81.64851872983625 kcal/mol)

>  <smiles>  (24) 
Cn1[nH]ccc1=NS(=O)(=O)c1ccc(NC(=S)NC(=O)Cc2ccccc2)cc1

>  <score_type>  (24) 
oracle

>  <origin>  (24) 
adgpu

>  <m_score__min__energy>  (24) 
-10.15

>  <m_primary>  (24) 
energy

$$$$
24:0
     RDKit          3D

 58 60  0  0  0  0  0  0  0  0999 V2000
   -3.4700   25.6550  -30.0390 H   0  0  0  0  0  0  0  0  0  0  0  0
   -4.0610   25.2900  -30.8180 N   0  0  0  0  0  0  0  0  0  0  0  0
   -5.4590   25.0700  -30.6390 C   0  0  0  0  0  0  0  0  0  0  0  0
   -6.1540   25.9590  -30.0750 O   0  0  0  0  0  0  0  0  0  0  0  0
   -6.0900   23.8130  -31.1070 C   0  0  0  0  0  0  0  0  0  0  0  0
   -7.4190   23.8050  -31.5660 C   0  0  0  0  0  0  0  0  0  0  0  0
   -7.9941   24.7424  -31.5905 H   0  0  0  0  0  0  0  0  0  0  0  0
   -8.0140   22.6150  -31.9910 C   0  0  0  0  0  0  0  0  0  0  0  0
   -9.0582   22.6169  -32.3369 H   0  0  0  0  0  0  0  0  0  0  0  0
   -7.2870   21.4230  -31.9780 C   0  0  0  0  0  0  0  0  0  0  0  0
   -7.7652   20.4875  -32.3039 H   0  0  0  0  0  0  0  0  0  0  0  0
   -5.9540   21.4110  -31.5530 C   0  0  0  0  0  0  0  0  0  0  0  0
   -5.2570   20.1940  -31.5640 O   0  0  0  0  0  0  0  0  0  0  0  0
   -3.9300   20.0400  -31.9940 C   0  0  0  0  0  0  0  0  0  0  0  0
   -2.8980   20.4330  -31.2050 N   0  0  0  0  0  0  0  0  0  0  0  0
   -1.6100   20.3140  -31.6150 C   0  0  0  0  0  0  0  0  0  0  0  0
   -0.6230   20.6510  -30.8390 N   0  0  0  0  0  0  0  0  0  0  0  0
   -0.7450   21.2440  -29.5340 C   0  0  0  0  0  0  0  0  0  0  0  0
   -1.3680   22.4940  -29.3560 C   0  0  0  0  0  0  0  0  0  0  0  0
   -1.7602   23.0364  -30.2289 H   0  0  0  0  0  0  0  0  0  0  0  0
   -1.4930   23.0530  -28.0790 C   0  0  0  0  0  0  0  0  0  0  0  0
   -2.2810   24.6180  -27.8880 S   0  0  0  0  0  0  0  0  0  0  0  0
   -2.1360   25.0820  -26.4650 O   0  0  0  0  0  0  0  0  0  0  0  0
   -3.7400   24.4650  -28.2090 O   0  0  0  0  0  0  0  0  0  0  0  0
   -1.5940   25.8010  -28.9610 N   0  0  0  0  0  0  0  0  0  0  0  0
   -0.8300   26.7800  -28.1990 C   0  0  0  0  0  0  0  0  0  0  0  0
   -0.9714   26.5988  -27.1233 H   0  0  0  0  0  0  0  0  0  0  0  0
    0.2372   26.6876  -28.4492 H   0  0  0  0  0  0  0  0  0  0  0  0
   -1.1789   27.7927  -28.4492 H   0  0  0  0  0  0  0  0  0  0  0  0
   -0.9590   22.3800  -26.9740 C   0  0  0  0  0  0  0  0  0  0  0  0
   -1.0428   22.8208  -25.9697 H   0  0  0  0  0  0  0  0  0  0  0  0
   -0.3200   21.1500  -27.1440 C   0  0  0  0  0  0  0  0  0  0  0  0
    0.0972   20.6265  -26.2711 H   0  0  0  0  0  0  0  0  0  0  0  0
   -0.2060   20.5770  -28.4190 C   0  0  0  0  0  0  0  0  0  0  0  0
    0.4350   19.2980  -28.5720 N   0  0  0  0  0  0  0  0  0  0  0  0
   -0.1630   18.1160  -27.9370 C   0  0  0  0  0  0  0  0  0  0  0  0
   -1.0144   17.7709  -28.5420 H   0  0  0  0  0  0  0  0  0  0  0  0
   -0.5034   18.3866  -26.9266 H   0  0  0  0  0  0  0  0  0  0  0  0
    0.8650   16.9950  -27.8300 C   0  0  0  0  0  0  0  0  0  0  0  0
    1.0630   16.7791  -26.7697 H   0  0  0  0  0  0  0  0  0  0  0  0
    0.4749   16.0916  -28.3215 H   0  0  0  0  0  0  0  0  0  0  0  0
    1.7988   17.3056  -28.3215 H   0  0  0  0  0  0  0  0  0  0  0  0
    1.7690   19.2280  -29.1830 C   0  0  0  0  0  0  0  0  0  0  0  0
    1.9794   18.1858  -29.4652 H   0  0  0  0  0  0  0  0  0  0  0  0
    1.7796   19.8812  -30.0680 H   0  0  0  0  0  0  0  0  0  0  0  0
    2.8490   19.7090  -28.2170 C   0  0  0  0  0  0  0  0  0  0  0  0
    2.5089   19.5575  -27.1819 H   0  0  0  0  0  0  0  0  0  0  0  0
    3.7735   19.1375  -28.3865 H   0  0  0  0  0  0  0  0  0  0  0  0
    3.0427   20.7785  -28.3865 H   0  0  0  0  0  0  0  0  0  0  0  0
   -1.3530   19.7880  -32.8410 N   0  0  0  0  0  0  0  0  0  0  0  0
   -2.3480   19.4040  -33.6420 N   0  0  0  0  0  0  0  0  0  0  0  0
   -3.6480   19.5120  -33.2580 C   0  0  0  0  0  0  0  0  0  0  0  0
   -4.7410   19.0800  -34.1840 C   0  0  0  0  0  0  0  0  0  0  0  0
   -5.6058   18.7382  -33.5963 H   0  0  0  0  0  0  0  0  0  0  0  0
   -5.0405   19.9274  -34.8182 H   0  0  0  0  0  0  0  0  0  0  0  0
   -4.3803   18.2568  -34.8182 H   0  0  0  0  0  0  0  0  0  0  0  0
   -5.3660   22.6070  -31.0960 C   0  0  0  0  0  0  0  0  0  0  0  0
   -4.3299   22.5976  -30.7267 H   0  0  0  0  0  0  0  0  0  0  0  0
  1  2  1  0
  2  3  1  0
  3  4  2  0
  3  5  1  0
  5  6  2  0
  6  7  1  0
  6  8  1  0
  8  9  1  0
  8 10  2  0
 10 11  1  0
 10 12  1  0
 12 13  1  0
 13 14  1  0
 14 15  1  0
 15 16  1  0
 16 17  2  0
 17 18  1  0
 18 19  2  0
 19 20  1  0
 19 21  1  0
 21 22  1  0
 22 23  2  0
 22 24  2  0
 22 25  1  0
 25 26  1  0
 26 27  1  0
 26 28  1  0
 26 29  1  0
 21 30  2  0
 30 31  1  0
 30 32  1  0
 32 33  1  0
 32 34  2  0
 34 35  1  0
 35 36  1  0
 36 37  1  0
 36 38  1  0
 36 39  1  0
 39 40  1  0
 39 41  1  0
 39 42  1  0
 35 43  1  0
 43 44  1  0
 43 45  1  0
 43 46  1  0
 46 47  1  0
 46 48  1  0
 46 49  1  0
 16 50  1  0
 50 51  2  0
 51 52  1  0
 52 53  1  0
 53 54  1  0
 53 55  1  0
 53 56  1  0
 12 57  2  0
 57 58  1  0
 57  5  1  0
 52 14  2  0
 34 18  1  0
M  CHG  3   2  -1  15  -1  25  -1
M  END
>  <UniqueID>  (25) 
25

>  <SMILES>  (25) 
CCN(CC)c1ccc(S(=O)(=O)[N-]C)cc1/N=c1/nnc(C)c(Oc2cccc(C([NH-])=O)c2)[n-]1

>  <Energy>  (25) 
63.01574067849626

>  <Genealogy>  (25) 
CCN(CC)c1ccc(S(=O)(=O)[N-]C)cc1N=c1nnc(C)c(Oc2cccc(C([NH-])=O)c2)[n-]1 (protonated)
CCN(CC)c1ccc(S(=O)(=O)[N-]C)cc1/N=c1/nnc(C)c(Oc2cccc(C([NH-])=O)c2)[n-]1 (cis-trans isomerization)
CCN(CC)c1ccc(S(=O)(=O)[N-]C)cc1/N=c1/nnc(C)c(Oc2cccc(C([NH-])=O)c2)[n-]1 (3D coordinates assigned)
CCN(CC)c1ccc(S(=O)(=O)[N-]C)cc1/N=c1/nnc(C)c(Oc2cccc(C([NH-])=O)c2)[n-]1 (optimized conformer: 63.01574067849626 kcal/mol)

>  <smiles>  (25) 
CCN(CC)c1ccc(S(=O)(=O)NC)cc1N=c1nnc(C)c(Oc2cccc(C(N)=O)c2)[nH]1

>  <score_type>  (25) 
oracle

>  <origin>  (25) 
adgpu

>  <m_score__min__energy>  (25) 
-12.68

>  <m_primary>  (25) 
energy

$$$$
25:0
     RDKit          3D

 52 54  0  0  0  0  0  0  0  0999 V2000
   -6.8460   25.3090  -29.7870 C   0  0  0  0  0  0  0  0  0  0  0  0
   -5.8920   24.2900  -30.2390 N   0  0  0  0  0  0  0  0  0  0  0  0
   -4.4830   24.5650  -30.1270 C   0  0  0  0  0  0  0  0  0  0  0  0
   -3.9960   25.5290  -30.7770 O   0  0  0  0  0  0  0  0  0  0  0  0
   -3.6000   23.7310  -29.2730 C   0  0  0  0  0  0  0  0  0  0  0  0
   -2.9150   22.6230  -29.8070 C   0  0  0  0  0  0  0  0  0  0  0  0
   -2.1070   21.8260  -28.9910 C   0  0  0  0  0  0  0  0  0  0  0  0
   -1.9490   22.1380  -27.6350 C   0  0  0  0  0  0  0  0  0  0  0  0
   -0.9470   21.1190  -26.6030 S   0  0  0  0  0  0  0  0  0  0  0  0
    0.4270   21.0180  -27.2060 O   0  0  0  0  0  0  0  0  0  0  0  0
   -0.8250   21.7480  -25.2410 O   0  0  0  0  0  0  0  0  0  0  0  0
   -1.6450   19.5230  -26.4700 N   0  0  0  0  0  0  0  0  0  0  0  0
   -3.0520   19.5560  -26.8890 C   0  0  0  0  0  0  0  0  0  0  0  0
   -0.8850   18.5660  -27.2890 C   0  0  0  0  0  0  0  0  0  0  0  0
   -2.6080   23.2540  -27.1020 C   0  0  0  0  0  0  0  0  0  0  0  0
   -3.4270   24.0450  -27.9130 C   0  0  0  0  0  0  0  0  0  0  0  0
   -6.3440   23.1140  -30.9530 C   0  0  0  0  0  0  0  0  0  0  0  0
   -5.4920   22.4660  -31.8680 C   0  0  0  0  0  0  0  0  0  0  0  0
   -5.9180   21.3260  -32.5550 C   0  0  0  0  0  0  0  0  0  0  0  0
   -7.1970   20.7940  -32.3240 C   0  0  0  0  0  0  0  0  0  0  0  0
   -7.6620   19.6540  -32.9970 O   0  0  0  0  0  0  0  0  0  0  0  0
   -6.8650   18.5880  -33.4460 C   0  0  0  0  0  0  0  0  0  0  0  0
   -6.0110   18.7160  -34.5600 C   0  0  0  0  0  0  0  0  0  0  0  0
   -5.2090   17.6430  -34.9610 C   0  0  0  0  0  0  0  0  0  0  0  0
   -5.2440   16.4410  -34.2520 C   0  0  0  0  0  0  0  0  0  0  0  0
   -6.0770   16.3120  -33.1360 C   0  0  0  0  0  0  0  0  0  0  0  0
   -6.8810   17.3830  -32.7310 C   0  0  0  0  0  0  0  0  0  0  0  0
   -8.0520   21.4390  -31.4270 C   0  0  0  0  0  0  0  0  0  0  0  0
   -7.6330   22.5850  -30.7430 C   0  0  0  0  0  0  0  0  0  0  0  0
   -6.8661   25.3304  -28.6874 H   0  0  0  0  0  0  0  0  0  0  0  0
   -6.5379   26.2941  -30.1674 H   0  0  0  0  0  0  0  0  0  0  0  0
   -7.8492   25.0664  -30.1674 H   0  0  0  0  0  0  0  0  0  0  0  0
   -3.0165   22.3824  -30.8756 H   0  0  0  0  0  0  0  0  0  0  0  0
   -1.5935   20.9507  -29.4155 H   0  0  0  0  0  0  0  0  0  0  0  0
   -1.5970   19.2230  -25.4690 H   0  0  0  0  0  0  0  0  0  0  0  0
   -3.6992   19.5712  -25.9996 H   0  0  0  0  0  0  0  0  0  0  0  0
   -3.2343   20.4587  -27.4906 H   0  0  0  0  0  0  0  0  0  0  0  0
   -3.2765   18.6629  -27.4906 H   0  0  0  0  0  0  0  0  0  0  0  0
   -0.3365   17.8753  -26.6316 H   0  0  0  0  0  0  0  0  0  0  0  0
   -1.5784   17.9950  -27.9239 H   0  0  0  0  0  0  0  0  0  0  0  0
   -0.1718   19.1121  -27.9239 H   0  0  0  0  0  0  0  0  0  0  0  0
   -2.4801   23.5090  -26.0396 H   0  0  0  0  0  0  0  0  0  0  0  0
   -3.9396   24.9189  -27.4846 H   0  0  0  0  0  0  0  0  0  0  0  0
   -4.4806   22.8612  -32.0438 H   0  0  0  0  0  0  0  0  0  0  0  0
   -5.2476   20.8426  -33.2809 H   0  0  0  0  0  0  0  0  0  0  0  0
   -5.9753   19.6642  -35.1164 H   0  0  0  0  0  0  0  0  0  0  0  0
   -4.5501   17.7462  -35.8357 H   0  0  0  0  0  0  0  0  0  0  0  0
   -4.6166   15.5956  -34.5710 H   0  0  0  0  0  0  0  0  0  0  0  0
   -6.1001   15.3660  -32.5752 H   0  0  0  0  0  0  0  0  0  0  0  0
   -7.5283   17.2787  -31.8477 H   0  0  0  0  0  0  0  0  0  0  0  0
   -9.0637   21.0421  -31.2571 H   0  0  0  0  0  0  0  0  0  0  0  0
   -8.3158   23.0775  -30.0350 H   0  0  0  0  0  0  0  0  0  0  0  0
  1  2  1  0
  2  3  1  0
  3  4  2  0
  3  5  1  0
  5  6  2  0
  6  7  1  0
  7  8  2  0
  8  9  1  0
  9 10  2  0
  9 11  2  0
  9 12  1  0
 12 13  1  0
 12 14  1  0
  8 15  1  0
 15 16  2  0
  2 17  1  0
 17 18  2  0
 18 19  1  0
 19 20  2  0
 20 21  1  0
 21 22  1  0
 22 23  2  0
 23 24  1  0
 24 25  2  0
 25 26  1  0
 26 27  2  0
 20 28  1  0
 28 29  2  0
 16  5  1  0
 29 17  1  0
 27 22  1  0
  1 30  1  0
  1 31  1  0
  1 32  1  0
  6 33  1  0
  7 34  1  0
 12 35  1  0
 13 36  1  0
 13 37  1  0
 13 38  1  0
 14 39  1  0
 14 40  1  0
 14 41  1  0
 15 42  1  0
 16 43  1  0
 18 44  1  0
 19 45  1  0
 23 46  1  0
 24 47  1  0
 25 48  1  0
 26 49  1  0
 27 50  1  0
 28 51  1  0
 29 52  1  0
M  CHG  1  12   1
M  END
>  <UniqueID>  (26) 
26

>  <SMILES>  (26) 
CN(C(=O)c1ccc(S(=O)(=O)[NH+](C)C)cc1)c1ccc(Oc2ccccc2)cc1

>  <Energy>  (26) 
67.81247833284966

>  <Genealogy>  (26) 
CN(C(=O)c1ccc(S(=O)(=O)[NH+](C)C)cc1)c1ccc(Oc2ccccc2)cc1 (protonated)
CN(C(=O)c1ccc(S(=O)(=O)[NH+](C)C)cc1)c1ccc(Oc2ccccc2)cc1 (3D coordinates assigned)
CN(C(=O)c1ccc(S(=O)(=O)[NH+](C)C)cc1)c1ccc(Oc2ccccc2)cc1 (optimized conformer: 67.81247833284966 kcal/mol)

>  <smiles>  (26) 
CN(C(=O)c1ccc(S(=O)(=O)N(C)C)cc1)c1ccc(Oc2ccccc2)cc1

>  <score_type>  (26) 
oracle

>  <origin>  (26) 
adgpu

>  <m_score__min__energy>  (26) 
-9.4800000000000004

>  <m_primary>  (26) 
energy

$$$$
26:0
     RDKit          3D

 24 24  0  0  0  0  0  0  0  0999 V2000
   -1.2430   28.2790  -37.5020 C   0  0  0  0  0  0  0  0  0  0  0  0
   -1.0900   28.9960  -36.1670 C   0  0  0  0  0  0  0  0  0  0  0  0
   -1.1070   27.8170  -34.7710 S   0  0  0  0  0  0  0  0  0  0  0  0
    0.3530   26.9040  -35.3070 C   0  0  0  0  0  0  0  0  0  0  0  0
    1.5820   27.3890  -34.9700 N   0  0  0  0  0  0  0  0  0  0  0  0
    2.7330   26.7580  -35.3410 C   0  0  0  0  0  0  0  0  0  0  0  0
    4.0620   27.3020  -34.9090 C   0  0  0  0  0  0  0  0  0  0  0  0
    2.6670   25.5670  -36.0690 C   0  0  0  0  0  0  0  0  0  0  0  0
    1.4240   25.0520  -36.4410 C   0  0  0  0  0  0  0  0  0  0  0  0
    1.3730   23.9860  -37.1110 O   0  0  0  0  0  0  0  0  0  0  0  0
    0.2460   25.7220  -36.0710 C   0  0  0  0  0  0  0  0  0  0  0  0
   -1.0330   25.2050  -36.4710 N   0  0  0  0  0  0  0  0  0  0  0  0
   -1.4695   27.2174  -37.3242 H   0  0  0  0  0  0  0  0  0  0  0  0
   -2.0634   28.7383  -38.0730 H   0  0  0  0  0  0  0  0  0  0  0  0
   -0.3066   28.3635  -38.0730 H   0  0  0  0  0  0  0  0  0  0  0  0
   -0.1356   29.5430  -36.1619 H   0  0  0  0  0  0  0  0  0  0  0  0
   -1.9370   29.6875  -36.0464 H   0  0  0  0  0  0  0  0  0  0  0  0
    1.6390   28.2660  -34.4060 H   0  0  0  0  0  0  0  0  0  0  0  0
    4.1105   27.3218  -33.8102 H   0  0  0  0  0  0  0  0  0  0  0  0
    4.8654   26.6604  -35.2999 H   0  0  0  0  0  0  0  0  0  0  0  0
    4.1850   28.3228  -35.2999 H   0  0  0  0  0  0  0  0  0  0  0  0
    3.5902   25.0378  -36.3476 H   0  0  0  0  0  0  0  0  0  0  0  0
   -1.1590   24.1930  -36.6950 H   0  0  0  0  0  0  0  0  0  0  0  0
   -1.8740   25.8150  -36.5620 H   0  0  0  0  0  0  0  0  0  0  0  0
  1  2  1  0
  2  3  1  0
  3  4  1  0
  4  5  1  0
  5  6  1  0
  6  7  1  0
  6  8  2  0
  8  9  1  0
  9 10  2  0
  9 11  1  0
 11 12  1  0
 11  4  2  0
  1 13  1  0
  1 14  1  0
  1 15  1  0
  2 16  1  0
  2 17  1  0
  5 18  1  0
  7 19  1  0
  7 20  1  0
  7 21  1  0
  8 22  1  0
 12 23  1  0
 12 24  1  0
M  END
>  <UniqueID>  (27) 
27

>  <SMILES>  (27) 
CCSc1[nH]c(C)cc(=O)c1N

>  <Energy>  (27) 
16.603514623683704

>  <Genealogy>  (27) 
CCSc1[nH]c(C)cc(=O)c1N (3D coordinates assigned)
CCSc1[nH]c(C)cc(=O)c1N (optimized conformer: 16.603514623683704 kcal/mol)

>  <smiles>  (27) 
CCSc1[nH]c(C)cc(=O)c1N

>  <score_type>  (27) 
oracle

>  <origin>  (27) 
adgpu

>  <m_score__min__energy>  (27) 
-4.8899999999999997

>  <m_primary>  (27) 
energy

$$$$
27:0
     RDKit          3D

 25 26  0  0  0  0  0  0  0  0999 V2000
   -1.2970   21.9610  -30.7870 C   0  0  0  0  0  0  0  0  0  0  0  0
   -2.0260   22.0430  -29.4850 C   0  0  0  0  0  0  0  0  0  0  0  0
   -2.2370   21.0050  -28.7100 O   0  0  0  0  0  0  0  0  0  0  0  0
   -2.9000   21.3970  -27.6450 C   0  0  0  0  0  0  0  0  0  0  0  0
   -3.1400   22.7540  -27.7170 C   0  0  0  0  0  0  0  0  0  0  0  0
   -2.5780   23.1760  -28.9070 C   0  0  0  0  0  0  0  0  0  0  0  0
   -2.5800   24.5580  -29.4200 C   0  0  0  0  0  0  0  0  0  0  0  0
   -1.7550   25.3990  -28.9730 O   0  0  0  0  0  0  0  0  0  0  0  0
   -3.4930   24.9190  -30.4640 N   0  0  0  0  0  0  0  0  0  0  0  0
   -4.7510   24.2930  -30.7550 C   0  0  0  0  0  0  0  0  0  0  0  0
   -4.7580   23.1290  -31.5360 C   0  0  0  0  0  0  0  0  0  0  0  0
   -5.9610   22.4780  -31.8270 C   0  0  0  0  0  0  0  0  0  0  0  0
   -7.1670   22.9760  -31.3250 C   0  0  0  0  0  0  0  0  0  0  0  0
   -8.6750   22.1560  -31.6870 Cl  0  0  0  0  0  0  0  0  0  0  0  0
   -7.1670   24.1220  -30.5240 C   0  0  0  0  0  0  0  0  0  0  0  0
   -5.9660   24.7770  -30.2330 C   0  0  0  0  0  0  0  0  0  0  0  0
   -0.2203   21.8399  -30.5974 H   0  0  0  0  0  0  0  0  0  0  0  0
   -1.6675   21.0989  -31.3610 H   0  0  0  0  0  0  0  0  0  0  0  0
   -1.4667   22.8839  -31.3610 H   0  0  0  0  0  0  0  0  0  0  0  0
   -3.2161   20.7417  -26.8200 H   0  0  0  0  0  0  0  0  0  0  0  0
   -3.6702   23.3732  -26.9784 H   0  0  0  0  0  0  0  0  0  0  0  0
   -3.8108   22.7249  -31.9226 H   0  0  0  0  0  0  0  0  0  0  0  0
   -5.9583   21.5727  -32.4518 H   0  0  0  0  0  0  0  0  0  0  0  0
   -8.1145   24.5096  -30.1215 H   0  0  0  0  0  0  0  0  0  0  0  0
   -5.9705   25.6728  -29.5946 H   0  0  0  0  0  0  0  0  0  0  0  0
  1  2  1  0
  2  3  1  0
  3  4  1  0
  4  5  2  0
  5  6  1  0
  6  7  1  0
  7  8  2  0
  7  9  1  0
  9 10  1  0
 10 11  2  0
 11 12  1  0
 12 13  2  0
 13 14  1  0
 13 15  1  0
 15 16  2  0
  6  2  2  0
 16 10  1  0
  1 17  1  0
  1 18  1  0
  1 19  1  0
  4 20  1  0
  5 21  1  0
 11 22  1  0
 12 23  1  0
 15 24  1  0
 16 25  1  0
M  CHG  1   9  -1
M  END
>  <UniqueID>  (28) 
28

>  <SMILES>  (28) 
Cc1occc1C(=O)[N-]c1ccc(Cl)cc1

>  <Energy>  (28) 
54.01639219260758

>  <Genealogy>  (28) 
Cc1occc1C(=O)[N-]c1ccc(Cl)cc1 (protonated)
Cc1occc1C(=O)[N-]c1ccc(Cl)cc1 (3D coordinates assigned)
Cc1occc1C(=O)[N-]c1ccc(Cl)cc1 (optimized conformer: 54.01639219260758 kcal/mol)

>  <smiles>  (28) 
Cc1occc1C(=O)Nc1ccc(Cl)cc1

>  <score_type>  (28) 
oracle

>  <origin>  (28) 
adgpu

>  <m_score__min__energy>  (28) 
-7.7300000000000004

>  <m_primary>  (28) 
energy

$$$$
28:0
     RDKit          3D

 53 55  0  0  0  0  0  0  0  0999 V2000
   -5.6980   23.8690  -31.2660 C   0  0  0  0  0  0  0  0  0  0  0  0
   -4.3880   24.0840  -30.5770 C   0  0  0  0  0  0  0  0  0  0  0  0
   -3.8850   25.3040  -30.3070 N   0  0  0  0  0  0  0  0  0  0  0  0
   -2.7350   25.1230  -29.7290 O   0  0  0  0  0  0  0  0  0  0  0  0
   -2.4550   23.8470  -29.6020 C   0  0  0  0  0  0  0  0  0  0  0  0
   -1.3480   23.4500  -29.0400 N   0  0  0  0  0  0  0  0  0  0  0  0
   -0.7880   21.8390  -28.7060 S   0  0  0  0  0  0  0  0  0  0  0  0
   -1.8400   21.1330  -27.9000 O   0  0  0  0  0  0  0  0  0  0  0  0
    0.4740   21.8910  -27.8940 O   0  0  0  0  0  0  0  0  0  0  0  0
   -0.5520   20.9380  -30.1990 C   0  0  0  0  0  0  0  0  0  0  0  0
   -0.7580   21.5590  -31.4380 C   0  0  0  0  0  0  0  0  0  0  0  0
   -0.5450   20.8520  -32.6250 C   0  0  0  0  0  0  0  0  0  0  0  0
   -0.1070   19.5160  -32.5860 C   0  0  0  0  0  0  0  0  0  0  0  0
    0.1290   18.7510  -33.7770 N   0  0  0  0  0  0  0  0  0  0  0  0
   -0.8560   18.1420  -34.6230 C   0  0  0  0  0  0  0  0  0  0  0  0
   -0.5240   17.6610  -35.7400 O   0  0  0  0  0  0  0  0  0  0  0  0
   -2.2590   18.0290  -34.1630 C   0  0  0  0  0  0  0  0  0  0  0  0
   -3.0950   19.1610  -34.1260 C   0  0  0  0  0  0  0  0  0  0  0  0
   -4.4160   19.0540  -33.6820 C   0  0  0  0  0  0  0  0  0  0  0  0
   -4.9280   17.8130  -33.2820 C   0  0  0  0  0  0  0  0  0  0  0  0
   -6.6030   17.6920  -32.7450 S   0  0  0  0  0  0  0  0  0  0  0  0
   -6.6150   17.4090  -31.2690 O   0  0  0  0  0  0  0  0  0  0  0  0
   -7.2920   16.5610  -33.4600 O   0  0  0  0  0  0  0  0  0  0  0  0
   -7.4470   19.1850  -33.0720 N   0  0  0  0  0  0  0  0  0  0  0  0
   -8.8560   19.0650  -32.6710 C   0  0  0  0  0  0  0  0  0  0  0  0
   -6.8000   20.2920  -32.3550 C   0  0  0  0  0  0  0  0  0  0  0  0
   -4.1020   16.6820  -33.3150 C   0  0  0  0  0  0  0  0  0  0  0  0
   -2.7780   16.7890  -33.7500 C   0  0  0  0  0  0  0  0  0  0  0  0
    0.0610   18.8890  -31.3440 C   0  0  0  0  0  0  0  0  0  0  0  0
   -0.1570   19.5940  -30.1560 C   0  0  0  0  0  0  0  0  0  0  0  0
   -3.5090   23.1030  -30.1400 C   0  0  0  0  0  0  0  0  0  0  0  0
   -3.6720   21.6260  -30.3460 C   0  0  0  0  0  0  0  0  0  0  0  0
   -6.4906   23.7389  -30.5144 H   0  0  0  0  0  0  0  0  0  0  0  0
   -5.9289   24.7413  -31.8952 H   0  0  0  0  0  0  0  0  0  0  0  0
   -5.6380   22.9687  -31.8952 H   0  0  0  0  0  0  0  0  0  0  0  0
   -1.0888   22.6074  -31.4768 H   0  0  0  0  0  0  0  0  0  0  0  0
   -0.7207   21.3426  -33.5937 H   0  0  0  0  0  0  0  0  0  0  0  0
   -2.7055   20.1377  -34.4491 H   0  0  0  0  0  0  0  0  0  0  0  0
   -5.0561   19.9479  -33.6465 H   0  0  0  0  0  0  0  0  0  0  0  0
   -7.4010   19.3780  -34.1000 H   0  0  0  0  0  0  0  0  0  0  0  0
   -8.9256   19.0591  -31.5732 H   0  0  0  0  0  0  0  0  0  0  0  0
   -9.4247   19.9180  -33.0698 H   0  0  0  0  0  0  0  0  0  0  0  0
   -9.2722   18.1282  -33.0698 H   0  0  0  0  0  0  0  0  0  0  0  0
   -6.8939   20.1313  -31.2709 H   0  0  0  0  0  0  0  0  0  0  0  0
   -5.7354   20.3336  -32.6286 H   0  0  0  0  0  0  0  0  0  0  0  0
   -7.2862   21.2400  -32.6286 H   0  0  0  0  0  0  0  0  0  0  0  0
   -4.4970   15.7058  -32.9973 H   0  0  0  0  0  0  0  0  0  0  0  0
   -2.1365   15.8956  -33.7695 H   0  0  0  0  0  0  0  0  0  0  0  0
    0.3670   17.8332  -31.3032 H   0  0  0  0  0  0  0  0  0  0  0  0
   -0.0183   19.0930  -29.1866 H   0  0  0  0  0  0  0  0  0  0  0  0
   -3.7275   21.1235  -29.3691 H   0  0  0  0  0  0  0  0  0  0  0  0
   -4.5968   21.4343  -30.9100 H   0  0  0  0  0  0  0  0  0  0  0  0
   -2.8113   21.2373  -30.9100 H   0  0  0  0  0  0  0  0  0  0  0  0
  1  2  1  0
  2  3  1  0
  3  4  1  0
  4  5  1  0
  5  6  2  3
  6  7  1  0
  7  8  2  0
  7  9  2  0
  7 10  1  0
 10 11  2  0
 11 12  1  0
 12 13  2  0
 13 14  1  0
 14 15  1  0
 15 16  2  0
 15 17  1  0
 17 18  2  0
 18 19  1  0
 19 20  2  0
 20 21  1  0
 21 22  2  0
 21 23  2  0
 21 24  1  0
 24 25  1  0
 24 26  1  0
 20 27  1  0
 27 28  2  0
 13 29  1  0
 29 30  2  0
  5 31  1  0
 31 32  1  0
 31  2  2  0
 30 10  1  0
 28 17  1  0
  1 33  1  0
  1 34  1  0
  1 35  1  0
 11 36  1  0
 12 37  1  0
 18 38  1  0
 19 39  1  0
 24 40  1  0
 25 41  1  0
 25 42  1  0
 25 43  1  0
 26 44  1  0
 26 45  1  0
 26 46  1  0
 27 47  1  0
 28 48  1  0
 29 49  1  0
 30 50  1  0
 32 51  1  0
 32 52  1  0
 32 53  1  0
M  CHG  3   3  -1  14  -1  24   1
M  END
>  <UniqueID>  (29) 
29

>  <SMILES>  (29) 
Cc1[n-]oc(=NS(=O)(=O)c2ccc([N-]C(=O)c3ccc(S(=O)(=O)[NH+](C)C)cc3)cc2)c1C

>  <Energy>  (29) 
96.35210122182787

>  <Genealogy>  (29) 
Cc1[n-]oc(=NS(=O)(=O)c2ccc([N-]C(=O)c3ccc(S(=O)(=O)[NH+](C)C)cc3)cc2)c1C (protonated)
Cc1[n-]oc(=NS(=O)(=O)c2ccc([N-]C(=O)c3ccc(S(=O)(=O)[NH+](C)C)cc3)cc2)c1C (3D coordinates assigned)
Cc1[n-]oc(=NS(=O)(=O)c2ccc([N-]C(=O)c3ccc(S(=O)(=O)[NH+](C)C)cc3)cc2)c1C (optimized conformer: 96.35210122182787 kcal/mol)

>  <smiles>  (29) 
Cc1[nH]oc(=NS(=O)(=O)c2ccc(NC(=O)c3ccc(S(=O)(=O)N(C)C)cc3)cc2)c1C

>  <score_type>  (29) 
oracle

>  <origin>  (29) 
adgpu

>  <m_score__min__energy>  (29) 
-11.59

>  <m_primary>  (29) 
energy

$$$$
29:0
     RDKit          3D

 62 65  0  0  0  0  0  0  0  0999 V2000
   -6.9020   23.7840  -31.5290 C   0  0  0  0  0  0  0  0  0  0  0  0
   -5.8690   24.2250  -30.5890 N   0  0  0  0  0  0  0  0  0  0  0  0
   -6.2550   25.0180  -29.4210 C   0  0  0  0  0  0  0  0  0  0  0  0
   -4.4760   23.9340  -30.8130 C   0  0  0  0  0  0  0  0  0  0  0  0
   -3.6100   24.7990  -30.5110 O   0  0  0  0  0  0  0  0  0  0  0  0
   -4.0330   22.6370  -31.3760 C   0  0  0  0  0  0  0  0  0  0  0  0
   -3.3670   21.6960  -30.5740 C   0  0  0  0  0  0  0  0  0  0  0  0
   -2.9330   20.4850  -31.1160 C   0  0  0  0  0  0  0  0  0  0  0  0
   -3.1360   20.1890  -32.4810 C   0  0  0  0  0  0  0  0  0  0  0  0
   -2.6750   18.9340  -33.0690 N   0  0  2  0  0  0  0  0  0  0  0  0
   -1.5750   19.1680  -34.0120 C   0  0  0  0  0  0  0  0  0  0  0  0
   -1.0230   20.4640  -34.0980 C   0  0  0  0  0  0  0  0  0  0  0  0
    0.0160   20.7440  -34.9830 C   0  0  0  0  0  0  0  0  0  0  0  0
    0.5270   19.7240  -35.7790 C   0  0  0  0  0  0  0  0  0  0  0  0
    0.0180   18.4690  -35.6800 N   0  0  0  0  0  0  0  0  0  0  0  0
   -0.9990   18.1660  -34.8310 C   0  0  0  0  0  0  0  0  0  0  0  0
   -3.8020   18.0550  -33.5380 C   0  0  0  0  0  0  0  0  0  0  0  0
   -4.8850   18.7840  -34.3910 C   0  0  0  0  0  0  0  0  0  0  0  0
   -6.1440   17.9140  -34.4940 C   0  0  0  0  0  0  0  0  0  0  0  0
   -6.8110   17.7110  -33.1760 N   0  0  0  0  0  0  0  0  0  0  0  0
   -7.9870   18.6090  -33.0030 C   0  0  0  0  0  0  0  0  0  0  0  0
   -8.5870   18.5090  -31.5920 C   0  0  0  0  0  0  0  0  0  0  0  0
   -9.0910   19.9020  -31.2180 C   0  0  0  0  0  0  0  0  0  0  0  0
   -8.6910   20.8340  -32.3510 C   0  0  0  0  0  0  0  0  0  0  0  0
   -7.6280   20.0920  -33.1360 C   0  0  0  0  0  0  0  0  0  0  0  0
   -5.8700   17.8190  -32.0260 C   0  0  0  0  0  0  0  0  0  0  0  0
   -4.4740   17.2770  -32.3630 C   0  0  0  0  0  0  0  0  0  0  0  0
   -3.8050   21.1390  -33.2780 C   0  0  0  0  0  0  0  0  0  0  0  0
   -4.2370   22.3510  -32.7340 C   0  0  0  0  0  0  0  0  0  0  0  0
   -7.7728   23.4123  -30.9690 H   0  0  0  0  0  0  0  0  0  0  0  0
   -7.2072   24.6303  -32.1620 H   0  0  0  0  0  0  0  0  0  0  0  0
   -6.5019   22.9782  -32.1620 H   0  0  0  0  0  0  0  0  0  0  0  0
   -5.9895   24.4725  -28.5034 H   0  0  0  0  0  0  0  0  0  0  0  0
   -5.7253   25.9818  -29.4409 H   0  0  0  0  0  0  0  0  0  0  0  0
   -7.3404   25.1957  -29.4409 H   0  0  0  0  0  0  0  0  0  0  0  0
   -3.1861   21.9147  -29.5113 H   0  0  0  0  0  0  0  0  0  0  0  0
   -2.4263   19.7520  -30.4710 H   0  0  0  0  0  0  0  0  0  0  0  0
   -2.1990   18.3960  -32.3060 H   0  0  0  0  0  0  0  0  0  0  0  0
   -1.4190   21.2651  -33.4566 H   0  0  0  0  0  0  0  0  0  0  0  0
    0.4282   21.7616  -35.0516 H   0  0  0  0  0  0  0  0  0  0  0  0
    1.3420   19.9337  -36.4874 H   0  0  0  0  0  0  0  0  0  0  0  0
   -1.3778   17.1346  -34.7794 H   0  0  0  0  0  0  0  0  0  0  0  0
   -3.3134   17.3351  -34.2110 H   0  0  0  0  0  0  0  0  0  0  0  0
   -5.1416   19.7411  -33.9134 H   0  0  0  0  0  0  0  0  0  0  0  0
   -4.4878   18.9658  -35.4006 H   0  0  0  0  0  0  0  0  0  0  0  0
   -6.8547   18.4025  -35.1768 H   0  0  0  0  0  0  0  0  0  0  0  0
   -5.8362   16.9260  -34.8669 H   0  0  0  0  0  0  0  0  0  0  0  0
   -8.6826   18.2791  -33.7887 H   0  0  0  0  0  0  0  0  0  0  0  0
   -9.4212   17.7920  -31.5867 H   0  0  0  0  0  0  0  0  0  0  0  0
   -7.8343   18.1584  -30.8706 H   0  0  0  0  0  0  0  0  0  0  0  0
  -10.1852   19.8910  -31.1053 H   0  0  0  0  0  0  0  0  0  0  0  0
   -8.6585   20.2344  -30.2628 H   0  0  0  0  0  0  0  0  0  0  0  0
   -9.5579   21.0532  -32.9916 H   0  0  0  0  0  0  0  0  0  0  0  0
   -8.3181   21.7970  -31.9722 H   0  0  0  0  0  0  0  0  0  0  0  0
   -7.6446   20.3990  -34.1922 H   0  0  0  0  0  0  0  0  0  0  0  0
   -6.6169   20.3042  -32.7582 H   0  0  0  0  0  0  0  0  0  0  0  0
   -5.7793   18.8776  -31.7413 H   0  0  0  0  0  0  0  0  0  0  0  0
   -6.2757   17.2147  -31.2012 H   0  0  0  0  0  0  0  0  0  0  0  0
   -3.8363   17.3642  -31.4710 H   0  0  0  0  0  0  0  0  0  0  0  0
   -4.5875   16.2286  -32.6760 H   0  0  0  0  0  0  0  0  0  0  0  0
   -3.9893   20.9238  -34.3409 H   0  0  0  0  0  0  0  0  0  0  0  0
   -4.7417   23.0877  -33.3763 H   0  0  0  0  0  0  0  0  0  0  0  0
  1  2  1  0
  2  3  1  0
  2  4  1  0
  4  5  2  0
  4  6  1  0
  6  7  2  0
  7  8  1  0
  8  9  2  0
  9 10  1  0
 10 11  1  0
 11 12  2  0
 12 13  1  0
 13 14  2  0
 14 15  1  0
 15 16  2  0
 10 17  1  0
 17 18  1  0
 18 19  1  0
 19 20  1  0
 20 21  1  0
 21 22  1  0
 22 23  1  0
 23 24  1  0
 24 25  1  0
 20 26  1  0
 26 27  1  0
  9 28  1  0
 28 29  2  0
 29  6  1  0
 16 11  1  0
 27 17  1  0
 25 21  1  0
  1 30  1  0
  1 31  1  0
  1 32  1  0
  3 33  1  0
  3 34  1  0
  3 35  1  0
  7 36  1  0
  8 37  1  0
 10 38  1  1
 12 39  1  0
 13 40  1  0
 14 41  1  0
 16 42  1  0
 17 43  1  0
 18 44  1  0
 18 45  1  0
 19 46  1  0
 19 47  1  0
 21 48  1  0
 22 49  1  0
 22 50  1  0
 23 51  1  0
 23 52  1  0
 24 53  1  0
 24 54  1  0
 25 55  1  0
 25 56  1  0
 26 57  1  0
 26 58  1  0
 27 59  1  0
 27 60  1  0
 28 61  1  0
 29 62  1  0
M  CHG  1  10   1
M  END
>  <UniqueID>  (30) 
30

>  <SMILES>  (30) 
CN(C)C(=O)c1ccc([N@H+](c2cccnc2)C2CCN(C3CCCC3)CC2)cc1

>  <Energy>  (30) 
99.97597351547844

>  <Genealogy>  (30) 
CN(C)C(=O)c1ccc([NH+](c2cccnc2)C2CCN(C3CCCC3)CC2)cc1 (protonated)
CN(C)C(=O)c1ccc([N@H+](c2cccnc2)C2CCN(C3CCCC3)CC2)cc1 (chirality)
CN(C)C(=O)c1ccc([N@H+](c2cccnc2)C2CCN(C3CCCC3)CC2)cc1 (3D coordinates assigned)
CN(C)C(=O)c1ccc([N@H+](c2cccnc2)C2CCN(C3CCCC3)CC2)cc1 (nonaromatic ring conformer: 99.97597351547844 kcal/mol)

>  <smiles>  (30) 
CN(C)C(=O)c1ccc(N(c2cccnc2)C2CCN(C3CCCC3)CC2)cc1

>  <score_type>  (30) 
oracle

>  <origin>  (30) 
adgpu

>  <m_score__min__energy>  (30) 
-8.7400000000000002

>  <m_primary>  (30) 
energy

$$$$
30:0
     RDKit          3D

 45 48  0  0  0  0  0  0  0  0999 V2000
    0.4931   23.3587  -28.8939 H   0  0  0  0  0  0  0  0  0  0  0  0
   -0.5910   23.3720  -28.7080 C   0  0  0  0  0  0  0  0  0  0  0  0
   -1.4050   24.1350  -29.4860 N   0  0  0  0  0  0  0  0  0  0  0  0
   -2.7520   24.1880  -29.2980 C   0  0  0  0  0  0  0  0  0  0  0  0
   -3.4580   24.9450  -30.0870 N   0  0  0  0  0  0  0  0  0  0  0  0
   -5.1800   25.1710  -30.0370 S   0  0  0  0  0  0  0  0  0  0  0  0
   -5.6300   25.2240  -28.6040 O   0  0  0  0  0  0  0  0  0  0  0  0
   -5.5540   26.4440  -30.7430 O   0  0  0  0  0  0  0  0  0  0  0  0
   -5.9630   23.8190  -30.8470 C   0  0  0  0  0  0  0  0  0  0  0  0
   -6.7370   24.0400  -31.9940 C   0  0  0  0  0  0  0  0  0  0  0  0
   -6.8479   25.0595  -32.3918 H   0  0  0  0  0  0  0  0  0  0  0  0
   -7.3690   22.9700  -32.6350 C   0  0  0  0  0  0  0  0  0  0  0  0
   -7.9811   23.1514  -33.5308 H   0  0  0  0  0  0  0  0  0  0  0  0
   -7.2240   21.6610  -32.1370 C   0  0  0  0  0  0  0  0  0  0  0  0
   -7.8530   20.5640  -32.7430 O   0  0  0  0  0  0  0  0  0  0  0  0
   -7.2220   19.3690  -33.1160 C   0  0  0  0  0  0  0  0  0  0  0  0
   -6.2560   19.3230  -34.1350 C   0  0  0  0  0  0  0  0  0  0  0  0
   -5.9858   20.2427  -34.6746 H   0  0  0  0  0  0  0  0  0  0  0  0
   -5.6360   18.1140  -34.4670 C   0  0  0  0  0  0  0  0  0  0  0  0
   -4.8877   18.0887  -35.2729 H   0  0  0  0  0  0  0  0  0  0  0  0
   -5.9600   16.9320  -33.7810 C   0  0  0  0  0  0  0  0  0  0  0  0
   -5.2950   15.6580  -34.1460 C   0  0  0  0  0  0  0  0  0  0  0  0
   -5.9200   14.4620  -34.1550 N   0  0  0  0  0  0  0  0  0  0  0  0
   -5.0440   13.5720  -34.5210 O   0  0  0  0  0  0  0  0  0  0  0  0
   -3.8780   14.1260  -34.7520 C   0  0  0  0  0  0  0  0  0  0  0  0
   -2.6550   13.3890  -35.1910 C   0  0  0  0  0  0  0  0  0  0  0  0
   -2.6090   13.3450  -36.5710 F   0  0  0  0  0  0  0  0  0  0  0  0
   -1.5240   14.0270  -34.7190 F   0  0  0  0  0  0  0  0  0  0  0  0
   -2.6880   12.0990  -34.6930 F   0  0  0  0  0  0  0  0  0  0  0  0
   -3.9750   15.4820  -34.5270 C   0  0  0  0  0  0  0  0  0  0  0  0
   -3.1891   16.2451  -34.6265 H   0  0  0  0  0  0  0  0  0  0  0  0
   -6.9140   16.9880  -32.7470 C   0  0  0  0  0  0  0  0  0  0  0  0
   -7.1750   16.0732  -32.1948 H   0  0  0  0  0  0  0  0  0  0  0  0
   -7.5320   18.1980  -32.4170 C   0  0  0  0  0  0  0  0  0  0  0  0
   -8.2684   18.2292  -31.6005 H   0  0  0  0  0  0  0  0  0  0  0  0
   -6.4730   21.4500  -30.9760 C   0  0  0  0  0  0  0  0  0  0  0  0
   -6.3788   20.4344  -30.5640 H   0  0  0  0  0  0  0  0  0  0  0  0
   -5.8410   22.5200  -30.3350 C   0  0  0  0  0  0  0  0  0  0  0  0
   -5.2466   22.3418  -29.4267 H   0  0  0  0  0  0  0  0  0  0  0  0
   -3.3280   23.4250  -28.2610 C   0  0  0  0  0  0  0  0  0  0  0  0
   -4.4145   23.4513  -28.0910 H   0  0  0  0  0  0  0  0  0  0  0  0
   -2.5080   22.6360  -27.4520 C   0  0  0  0  0  0  0  0  0  0  0  0
   -2.9475   22.0383  -26.6399 H   0  0  0  0  0  0  0  0  0  0  0  0
   -1.1310   22.6060  -27.6740 C   0  0  0  0  0  0  0  0  0  0  0  0
   -0.3280   21.8420  -26.8940 F   0  0  0  0  0  0  0  0  0  0  0  0
  1  2  1  0
  2  3  1  0
  3  4  1  0
  4  5  2  0
  5  6  1  0
  6  7  2  0
  6  8  2  0
  6  9  1  0
  9 10  2  0
 10 11  1  0
 10 12  1  0
 12 13  1  0
 12 14  2  0
 14 15  1  0
 15 16  1  0
 16 17  2  0
 17 18  1  0
 17 19  1  0
 19 20  1  0
 19 21  2  0
 21 22  1  0
 22 23  2  0
 23 24  1  0
 24 25  1  0
 25 26  1  0
 26 27  1  0
 26 28  1  0
 26 29  1  0
 25 30  2  0
 30 31  1  0
 21 32  1  0
 32 33  1  0
 32 34  2  0
 34 35  1  0
 14 36  1  0
 36 37  1  0
 36 38  2  0
 38 39  1  0
  4 40  1  0
 40 41  1  0
 40 42  2  0
 42 43  1  0
 42 44  1  0
 44 45  1  0
 44  2  2  0
 38  9  1  0
 34 16  1  0
 30 22  1  0
M  CHG  1   3  -1
M  END
>  <UniqueID>  (31) 
31

>  <SMILES>  (31) 
O=S(=O)(/N=c1\ccc(F)c[n-]1)c1ccc(Oc2ccc(-c3cc(C(F)(F)F)on3)cc2)cc1

>  <Energy>  (31) 
93.9428578106988

>  <Genealogy>  (31) 
O=S(=O)(N=c1ccc(F)c[n-]1)c1ccc(Oc2ccc(-c3cc(C(F)(F)F)on3)cc2)cc1 (protonated)
O=S(=O)(/N=c1\ccc(F)c[n-]1)c1ccc(Oc2ccc(-c3cc(C(F)(F)F)on3)cc2)cc1 (cis-trans isomerization)
O=S(=O)(/N=c1\ccc(F)c[n-]1)c1ccc(Oc2ccc(-c3cc(C(F)(F)F)on3)cc2)cc1 (3D coordinates assigned)
O=S(=O)(/N=c1\ccc(F)c[n-]1)c1ccc(Oc2ccc(-c3cc(C(F)(F)F)on3)cc2)cc1 (optimized conformer: 93.9428578106988 kcal/mol)

>  <smiles>  (31) 
O=S(=O)(N=c1ccc(F)c[nH]1)c1ccc(Oc2ccc(-c3cc(C(F)(F)F)on3)cc2)cc1

>  <score_type>  (31) 
oracle

>  <origin>  (31) 
adgpu

>  <m_score__min__energy>  (31) 
-9.8399999999999999

>  <m_primary>  (31) 
energy

$$$$
31:0
     RDKit          3D

 41 43  0  0  0  0  0  0  0  0999 V2000
   -9.8530   22.3290  -32.3510 O   0  0  0  0  0  0  0  0  0  0  0  0
   -8.6140   21.9910  -31.5730 S   0  0  0  0  0  0  0  0  0  0  0  0
   -8.9640   21.8940  -30.1140 O   0  0  0  0  0  0  0  0  0  0  0  0
   -7.4390   23.2500  -31.7930 N   0  0  0  0  0  0  0  0  0  0  0  0
   -6.2050   23.3360  -31.0570 C   0  0  0  0  0  0  0  0  0  0  0  0
   -6.0250   24.3890  -30.1480 C   0  0  0  0  0  0  0  0  0  0  0  0
   -4.8380   24.5080  -29.4220 C   0  0  0  0  0  0  0  0  0  0  0  0
   -3.8080   23.5670  -29.5820 C   0  0  0  0  0  0  0  0  0  0  0  0
   -2.5770   23.6970  -28.8420 N   0  0  0  0  0  0  0  0  0  0  0  0
   -1.4050   22.8970  -29.2160 C   0  0  0  0  0  0  0  0  0  0  0  0
   -0.1330   23.4650  -28.5680 C   0  0  0  0  0  0  0  0  0  0  0  0
   -0.1480   24.9330  -28.6110 N   0  0  0  0  0  0  0  0  0  0  0  0
   -1.2500   25.5150  -27.8160 C   0  0  0  0  0  0  0  0  0  0  0  0
   -2.4800   24.5950  -27.6860 C   0  0  0  0  0  0  0  0  0  0  0  0
   -3.9850   22.5120  -30.4930 C   0  0  0  0  0  0  0  0  0  0  0  0
   -5.1730   22.3940  -31.2190 C   0  0  0  0  0  0  0  0  0  0  0  0
   -7.9760   20.4590  -32.1620 C   0  0  0  0  0  0  0  0  0  0  0  0
   -6.9460   20.4490  -33.1140 C   0  0  0  0  0  0  0  0  0  0  0  0
   -6.4310   19.2340  -33.5780 C   0  0  0  0  0  0  0  0  0  0  0  0
   -6.9430   18.0260  -33.0970 C   0  0  0  0  0  0  0  0  0  0  0  0
   -6.4430   16.8490  -33.5470 F   0  0  0  0  0  0  0  0  0  0  0  0
   -7.9750   18.0310  -32.1540 C   0  0  0  0  0  0  0  0  0  0  0  0
   -8.4920   19.2440  -31.6860 C   0  0  0  0  0  0  0  0  0  0  0  0
   -7.6220   23.9370  -32.5580 H   0  0  0  0  0  0  0  0  0  0  0  0
   -6.8268   25.1284  -30.0056 H   0  0  0  0  0  0  0  0  0  0  0  0
   -4.7089   25.3448  -28.7198 H   0  0  0  0  0  0  0  0  0  0  0  0
   -1.5516   21.8608  -28.8771 H   0  0  0  0  0  0  0  0  0  0  0  0
   -1.2895   22.9271  -30.3095 H   0  0  0  0  0  0  0  0  0  0  0  0
   -0.0810   23.1336  -27.5204 H   0  0  0  0  0  0  0  0  0  0  0  0
    0.7436   23.1008  -29.1237 H   0  0  0  0  0  0  0  0  0  0  0  0
   -0.2560   25.2340  -29.6090 H   0  0  0  0  0  0  0  0  0  0  0  0
   -0.8715   25.7320  -26.8062 H   0  0  0  0  0  0  0  0  0  0  0  0
   -1.5826   26.4198  -28.3458 H   0  0  0  0  0  0  0  0  0  0  0  0
   -2.3874   23.9949  -26.7687 H   0  0  0  0  0  0  0  0  0  0  0  0
   -3.3859   25.2176  -27.6433 H   0  0  0  0  0  0  0  0  0  0  0  0
   -3.1824   21.7735  -30.6357 H   0  0  0  0  0  0  0  0  0  0  0  0
   -5.3022   21.5583  -31.9224 H   0  0  0  0  0  0  0  0  0  0  0  0
   -6.5425   21.3982  -33.4964 H   0  0  0  0  0  0  0  0  0  0  0  0
   -5.6215   19.2295  -34.3228 H   0  0  0  0  0  0  0  0  0  0  0  0
   -8.3812   17.0799  -31.7794 H   0  0  0  0  0  0  0  0  0  0  0  0
   -9.3040   19.2452  -30.9440 H   0  0  0  0  0  0  0  0  0  0  0  0
  1  2  2  0
  2  3  2  0
  2  4  1  0
  4  5  1  0
  5  6  2  0
  6  7  1  0
  7  8  2  0
  8  9  1  0
  9 10  1  0
 10 11  1  0
 11 12  1  0
 12 13  1  0
 13 14  1  0
  8 15  1  0
 15 16  2  0
  2 17  1  0
 17 18  2  0
 18 19  1  0
 19 20  2  0
 20 21  1  0
 20 22  1  0
 22 23  2  0
 16  5  1  0
 23 17  1  0
 14  9  1  0
  4 24  1  0
  6 25  1  0
  7 26  1  0
 10 27  1  0
 10 28  1  0
 11 29  1  0
 11 30  1  0
 12 31  1  0
 13 32  1  0
 13 33  1  0
 14 34  1  0
 14 35  1  0
 15 36  1  0
 16 37  1  0
 18 38  1  0
 19 39  1  0
 22 40  1  0
 23 41  1  0
M  END
>  <UniqueID>  (32) 
32

>  <SMILES>  (32) 
O=S(=O)(Nc1ccc(N2CCNCC2)cc1)c1ccc(F)cc1

>  <Energy>  (32) 
53.44647862475549

>  <Genealogy>  (32) 
O=S(=O)(Nc1ccc(N2CCNCC2)cc1)c1ccc(F)cc1 (3D coordinates assigned)
O=S(=O)(Nc1ccc(N2CCNCC2)cc1)c1ccc(F)cc1 (nonaromatic ring conformer: 53.44647862475549 kcal/mol)

>  <smiles>  (32) 
O=S(=O)(Nc1ccc(N2CCNCC2)cc1)c1ccc(F)cc1

>  <score_type>  (32) 
oracle

>  <origin>  (32) 
adgpu

>  <m_score__min__energy>  (32) 
-8.4700000000000006

>  <m_primary>  (32) 
energy

$$$$
32:0
     RDKit          3D

 39 41  0  0  0  0  0  0  0  0999 V2000
   -7.7870   12.9700  -35.5270 C   0  0  0  0  0  0  0  0  0  0  0  0
   -6.7140   13.8190  -34.9130 C   0  0  0  0  0  0  0  0  0  0  0  0
   -5.3730   13.4170  -34.9770 C   0  0  0  0  0  0  0  0  0  0  0  0
   -4.3800   14.1870  -34.3690 C   0  0  0  0  0  0  0  0  0  0  0  0
   -4.7160   15.3590  -33.6880 C   0  0  0  0  0  0  0  0  0  0  0  0
   -6.0570   15.7770  -33.6080 C   0  0  0  0  0  0  0  0  0  0  0  0
   -6.4390   17.0100  -32.8770 C   0  0  0  0  0  0  0  0  0  0  0  0
   -6.3150   17.0350  -31.6210 O   0  0  0  0  0  0  0  0  0  0  0  0
   -6.9370   18.1680  -33.5740 N   0  0  0  0  0  0  0  0  0  0  0  0
   -7.4090   19.3560  -32.9160 C   0  0  0  0  0  0  0  0  0  0  0  0
   -8.7820   19.6090  -32.7560 C   0  0  0  0  0  0  0  0  0  0  0  0
   -9.2130   20.7810  -32.1340 C   0  0  0  0  0  0  0  0  0  0  0  0
   -8.2850   21.7200  -31.6790 C   0  0  0  0  0  0  0  0  0  0  0  0
   -6.9060   21.5000  -31.8530 C   0  0  0  0  0  0  0  0  0  0  0  0
   -5.9170   22.5030  -31.3830 C   0  0  0  0  0  0  0  0  0  0  0  0
   -4.6120   22.1130  -31.0420 C   0  0  0  0  0  0  0  0  0  0  0  0
   -3.6950   23.0700  -30.6020 C   0  0  0  0  0  0  0  0  0  0  0  0
   -4.0580   24.3780  -30.5020 N   0  0  0  0  0  0  0  0  0  0  0  0
   -3.1320   25.2990  -30.0660 O   0  0  0  0  0  0  0  0  0  0  0  0
   -5.3190   24.7860  -30.8250 C   0  0  0  0  0  0  0  0  0  0  0  0
   -5.6380   26.0010  -30.7230 O   0  0  0  0  0  0  0  0  0  0  0  0
   -6.2660   23.8580  -31.2700 C   0  0  0  0  0  0  0  0  0  0  0  0
   -6.4800   20.3150  -32.4820 C   0  0  0  0  0  0  0  0  0  0  0  0
   -7.0530   14.9860  -34.2110 C   0  0  0  0  0  0  0  0  0  0  0  0
   -8.3823   12.4990  -34.7309 H   0  0  0  0  0  0  0  0  0  0  0  0
   -8.4402   13.5985  -36.1502 H   0  0  0  0  0  0  0  0  0  0  0  0
   -7.3256   12.1898  -36.1502 H   0  0  0  0  0  0  0  0  0  0  0  0
   -5.1022   12.4923  -35.5077 H   0  0  0  0  0  0  0  0  0  0  0  0
   -3.3285   13.8693  -34.4265 H   0  0  0  0  0  0  0  0  0  0  0  0
   -3.9271   15.9592  -33.2111 H   0  0  0  0  0  0  0  0  0  0  0  0
   -6.9150   18.1840  -34.6170 H   0  0  0  0  0  0  0  0  0  0  0  0
   -9.5198   18.8801  -33.1226 H   0  0  0  0  0  0  0  0  0  0  0  0
  -10.2891   20.9663  -32.0013 H   0  0  0  0  0  0  0  0  0  0  0  0
   -8.6339   22.6370  -31.1817 H   0  0  0  0  0  0  0  0  0  0  0  0
   -4.3130   21.0574  -31.1211 H   0  0  0  0  0  0  0  0  0  0  0  0
   -2.6726   22.7647  -30.3345 H   0  0  0  0  0  0  0  0  0  0  0  0
   -7.2820   24.1891  -31.5309 H   0  0  0  0  0  0  0  0  0  0  0  0
   -5.4052   20.1380  -32.6355 H   0  0  0  0  0  0  0  0  0  0  0  0
   -8.1084   15.2857  -34.1311 H   0  0  0  0  0  0  0  0  0  0  0  0
  1  2  1  0
  2  3  2  0
  3  4  1  0
  4  5  2  0
  5  6  1  0
  6  7  1  0
  7  8  2  0
  7  9  1  0
  9 10  1  0
 10 11  2  0
 11 12  1  0
 12 13  2  0
 13 14  1  0
 14 15  1  0
 15 16  1  0
 16 17  2  0
 17 18  1  0
 18 19  1  0
 18 20  1  0
 20 21  2  0
 20 22  1  0
 14 23  2  0
  6 24  2  0
 24  2  1  0
 23 10  1  0
 22 15  2  0
  1 25  1  0
  1 26  1  0
  1 27  1  0
  3 28  1  0
  4 29  1  0
  5 30  1  0
  9 31  1  0
 11 32  1  0
 12 33  1  0
 13 34  1  0
 16 35  1  0
 17 36  1  0
 22 37  1  0
 23 38  1  0
 24 39  1  0
M  CHG  1  19  -1
M  END
>  <UniqueID>  (33) 
33

>  <SMILES>  (33) 
Cc1cccc(C(=O)Nc2cccc(-c3ccn([O-])c(=O)c3)c2)c1

>  <Energy>  (33) 
54.23862030709509

>  <Genealogy>  (33) 
Cc1cccc(C(=O)Nc2cccc(-c3ccn([O-])c(=O)c3)c2)c1 (protonated)
Cc1cccc(C(=O)Nc2cccc(-c3ccn([O-])c(=O)c3)c2)c1 (3D coordinates assigned)
Cc1cccc(C(=O)Nc2cccc(-c3ccn([O-])c(=O)c3)c2)c1 (optimized conformer: 54.23862030709509 kcal/mol)

>  <smiles>  (33) 
Cc1cccc(C(=O)Nc2cccc(-c3ccn(O)c(=O)c3)c2)c1

>  <score_type>  (33) 
oracle

>  <origin>  (33) 
adgpu

>  <m_score__min__energy>  (33) 
-11.91

>  <m_primary>  (33) 
energy

$$$$
33:0
     RDKit          3D

 44 46  0  0  0  0  0  0  0  0999 V2000
   -0.3760   30.9090  -24.6780 C   0  0  0  0  0  0  0  0  0  0  0  0
   -0.4760   29.5820  -25.3690 C   0  0  0  0  0  0  0  0  0  0  0  0
   -0.7380   28.4100  -24.6420 C   0  0  0  0  0  0  0  0  0  0  0  0
   -0.8010   27.1760  -25.2950 C   0  0  0  0  0  0  0  0  0  0  0  0
   -0.6060   27.1000  -26.6800 C   0  0  0  0  0  0  0  0  0  0  0  0
   -0.7130   25.5420  -27.4970 S   0  0  0  0  0  0  0  0  0  0  0  0
   -1.3370   24.5160  -26.5930 O   0  0  0  0  0  0  0  0  0  0  0  0
    0.6750   25.0850  -27.8500 O   0  0  0  0  0  0  0  0  0  0  0  0
   -1.6520   25.6650  -28.9490 N   0  0  0  0  0  0  0  0  0  0  0  0
   -2.6350   24.7010  -29.3290 C   0  0  0  0  0  0  0  0  0  0  0  0
   -2.5310   23.3880  -28.8670 C   0  0  0  0  0  0  0  0  0  0  0  0
   -3.5250   22.4750  -29.2260 C   0  0  0  0  0  0  0  0  0  0  0  0
   -3.4750   21.2870  -28.8100 O   0  0  0  0  0  0  0  0  0  0  0  0
   -4.5500   22.8680  -30.0250 N   0  0  0  0  0  0  0  0  0  0  0  0
   -4.6220   24.1430  -30.4870 C   0  0  0  0  0  0  0  0  0  0  0  0
   -5.9420   24.6250  -31.5930 S   0  0  0  0  0  0  0  0  0  0  0  0
   -6.6170   22.9640  -31.6400 C   0  0  0  0  0  0  0  0  0  0  0  0
   -7.6970   22.6330  -30.8180 C   0  0  0  0  0  0  0  0  0  0  0  0
   -8.2240   21.3410  -30.8370 C   0  0  0  0  0  0  0  0  0  0  0  0
   -7.6760   20.3580  -31.6800 C   0  0  0  0  0  0  0  0  0  0  0  0
   -8.2720   18.9750  -31.6860 C   0  0  0  0  0  0  0  0  0  0  0  0
   -6.5790   20.6890  -32.5120 C   0  0  0  0  0  0  0  0  0  0  0  0
   -5.9540   19.6650  -33.4210 C   0  0  0  0  0  0  0  0  0  0  0  0
   -6.0630   21.9980  -32.4860 C   0  0  0  0  0  0  0  0  0  0  0  0
   -3.6750   25.0500  -30.1340 N   0  0  0  0  0  0  0  0  0  0  0  0
   -0.3320   28.2670  -27.4060 C   0  0  0  0  0  0  0  0  0  0  0  0
   -0.2660   29.5020  -26.7530 C   0  0  0  0  0  0  0  0  0  0  0  0
   -0.3875   30.7569  -23.5886 H   0  0  0  0  0  0  0  0  0  0  0  0
    0.5620   31.4043  -24.9692 H   0  0  0  0  0  0  0  0  0  0  0  0
   -1.2292   31.5393  -24.9692 H   0  0  0  0  0  0  0  0  0  0  0  0
   -0.8943   28.4631  -23.5545 H   0  0  0  0  0  0  0  0  0  0  0  0
   -1.0045   26.2611  -24.7192 H   0  0  0  0  0  0  0  0  0  0  0  0
   -1.6855   23.0794  -28.2346 H   0  0  0  0  0  0  0  0  0  0  0  0
   -8.1334   23.3933  -30.1536 H   0  0  0  0  0  0  0  0  0  0  0  0
   -9.0751   21.0895  -30.1871 H   0  0  0  0  0  0  0  0  0  0  0  0
   -8.4187   18.6345  -30.6504 H   0  0  0  0  0  0  0  0  0  0  0  0
   -9.2411   18.9956  -32.2060 H   0  0  0  0  0  0  0  0  0  0  0  0
   -7.5915   18.2847  -32.2060 H   0  0  0  0  0  0  0  0  0  0  0  0
   -5.4754   18.8809  -32.8158 H   0  0  0  0  0  0  0  0  0  0  0  0
   -6.7315   19.2149  -34.0557 H   0  0  0  0  0  0  0  0  0  0  0  0
   -5.1983   20.1508  -34.0557 H   0  0  0  0  0  0  0  0  0  0  0  0
   -5.2167   22.2636  -33.1366 H   0  0  0  0  0  0  0  0  0  0  0  0
   -0.1684   28.2115  -28.4923 H   0  0  0  0  0  0  0  0  0  0  0  0
   -0.0484   30.4144  -27.3276 H   0  0  0  0  0  0  0  0  0  0  0  0
  1  2  1  0
  2  3  2  0
  3  4  1  0
  4  5  2  0
  5  6  1  0
  6  7  2  0
  6  8  2  0
  6  9  1  0
  9 10  1  0
 10 11  2  0
 11 12  1  0
 12 13  2  0
 12 14  1  0
 14 15  2  0
 15 16  1  0
 16 17  1  0
 17 18  2  0
 18 19  1  0
 19 20  2  0
 20 21  1  0
 20 22  1  0
 22 23  1  0
 22 24  2  0
 15 25  1  0
  5 26  1  0
 26 27  2  0
 27  2  1  0
 25 10  1  0
 24 17  1  0
  1 28  1  0
  1 29  1  0
  1 30  1  0
  3 31  1  0
  4 32  1  0
 11 33  1  0
 18 34  1  0
 19 35  1  0
 21 36  1  0
 21 37  1  0
 21 38  1  0
 23 39  1  0
 23 40  1  0
 23 41  1  0
 24 42  1  0
 26 43  1  0
 27 44  1  0
M  CHG  2   9  -1  25  -1
M  END
>  <UniqueID>  (34) 
34

>  <SMILES>  (34) 
Cc1ccc(S(=O)(=O)[N-]c2cc(=O)nc(Sc3ccc(C)c(C)c3)[n-]2)cc1

>  <Energy>  (34) 
41.32072199403231

>  <Genealogy>  (34) 
Cc1ccc(S(=O)(=O)[N-]c2cc(=O)nc(Sc3ccc(C)c(C)c3)[n-]2)cc1 (protonated)
Cc1ccc(S(=O)(=O)[N-]c2cc(=O)nc(Sc3ccc(C)c(C)c3)[n-]2)cc1 (3D coordinates assigned)
Cc1ccc(S(=O)(=O)[N-]c2cc(=O)nc(Sc3ccc(C)c(C)c3)[n-]2)cc1 (optimized conformer: 41.32072199403231 kcal/mol)

>  <smiles>  (34) 
Cc1ccc(S(=O)(=O)Nc2cc(=O)nc(Sc3ccc(C)c(C)c3)[nH]2)cc1

>  <score_type>  (34) 
oracle

>  <origin>  (34) 
adgpu

>  <m_score__min__energy>  (34) 
-12.56

>  <m_primary>  (34) 
energy

$$$$
34:0
     RDKit          3D

 37 39  0  0  0  0  0  0  0  0999 V2000
   -3.8570   18.3530  -34.0900 C   0  0  0  0  0  0  0  0  0  0  0  0
   -2.9310   19.3730  -33.7290 O   0  0  0  0  0  0  0  0  0  0  0  0
   -3.2560   20.4990  -32.9580 C   0  0  0  0  0  0  0  0  0  0  0  0
   -2.6000   20.6790  -31.7340 C   0  0  0  0  0  0  0  0  0  0  0  0
   -2.8880   21.7840  -30.9280 C   0  0  0  0  0  0  0  0  0  0  0  0
   -3.8380   22.7280  -31.3420 C   0  0  0  0  0  0  0  0  0  0  0  0
   -4.2290   24.1140  -30.3280 S   0  0  0  0  0  0  0  0  0  0  0  0
   -4.4870   25.3060  -31.2080 O   0  0  0  0  0  0  0  0  0  0  0  0
   -3.0770   24.4350  -29.4150 O   0  0  0  0  0  0  0  0  0  0  0  0
   -5.6510   23.7780  -29.3880 N   0  0  0  0  0  0  0  0  0  0  0  0
   -6.8450   23.9870  -30.2070 C   0  0  0  0  0  0  0  0  0  0  0  0
   -7.3210   22.6750  -30.7430 C   0  0  0  0  0  0  0  0  0  0  0  0
   -8.5400   22.4530  -31.3660 C   0  0  0  0  0  0  0  0  0  0  0  0
   -8.5460   21.1720  -31.7540 N   0  0  0  0  0  0  0  0  0  0  0  0
   -9.5030   20.4620  -32.4050 C   0  0  0  0  0  0  0  0  0  0  0  0
   -9.2400   19.1160  -32.6980 C   0  0  0  0  0  0  0  0  0  0  0  0
   -8.0080   18.5510  -32.3170 C   0  0  0  0  0  0  0  0  0  0  0  0
   -7.0470   19.3260  -31.6480 C   0  0  0  0  0  0  0  0  0  0  0  0
   -7.3630   20.6570  -31.3800 C   0  0  0  0  0  0  0  0  0  0  0  0
   -6.5660   21.5490  -30.7580 N   0  0  0  0  0  0  0  0  0  0  0  0
   -4.5010   22.5520  -32.5630 C   0  0  0  0  0  0  0  0  0  0  0  0
   -4.2130   21.4470  -33.3690 C   0  0  0  0  0  0  0  0  0  0  0  0
   -4.2721   17.8957  -33.1797 H   0  0  0  0  0  0  0  0  0  0  0  0
   -4.6720   18.7914  -34.6846 H   0  0  0  0  0  0  0  0  0  0  0  0
   -3.3421   17.5840  -34.6846 H   0  0  0  0  0  0  0  0  0  0  0  0
   -1.8512   19.9440  -31.4038 H   0  0  0  0  0  0  0  0  0  0  0  0
   -2.3683   21.9131  -29.9671 H   0  0  0  0  0  0  0  0  0  0  0  0
   -5.6070   22.7650  -29.1270 H   0  0  0  0  0  0  0  0  0  0  0  0
   -7.6364   24.4400  -29.5917 H   0  0  0  0  0  0  0  0  0  0  0  0
   -6.6010   24.6571  -31.0445 H   0  0  0  0  0  0  0  0  0  0  0  0
   -9.3457   23.1873  -31.5128 H   0  0  0  0  0  0  0  0  0  0  0  0
  -10.4562   20.9287  -32.6940 H   0  0  0  0  0  0  0  0  0  0  0  0
   -9.9908   18.5061  -33.2217 H   0  0  0  0  0  0  0  0  0  0  0  0
   -7.7969   17.4958  -32.5449 H   0  0  0  0  0  0  0  0  0  0  0  0
   -6.0796   18.8982  -31.3462 H   0  0  0  0  0  0  0  0  0  0  0  0
   -5.2518   23.2868  -32.8892 H   0  0  0  0  0  0  0  0  0  0  0  0
   -4.7358   21.3173  -34.3281 H   0  0  0  0  0  0  0  0  0  0  0  0
  1  2  1  0
  2  3  1  0
  3  4  2  0
  4  5  1  0
  5  6  2  0
  6  7  1  0
  7  8  2  0
  7  9  2  0
  7 10  1  0
 10 11  1  0
 11 12  1  0
 12 13  2  0
 13 14  1  0
 14 15  1  0
 15 16  2  0
 16 17  1  0
 17 18  2  0
 18 19  1  0
 19 20  2  0
  6 21  1  0
 21 22  2  0
 22  3  1  0
 20 12  1  0
 19 14  1  0
  1 23  1  0
  1 24  1  0
  1 25  1  0
  4 26  1  0
  5 27  1  0
 10 28  1  0
 11 29  1  0
 11 30  1  0
 13 31  1  0
 15 32  1  0
 16 33  1  0
 17 34  1  0
 18 35  1  0
 21 36  1  0
 22 37  1  0
M  END
>  <UniqueID>  (35) 
35

>  <SMILES>  (35) 
COc1ccc(S(=O)(=O)NCc2cn3ccccc3n2)cc1

>  <Energy>  (35) 
69.66178861481012

>  <Genealogy>  (35) 
COc1ccc(S(=O)(=O)NCc2cn3ccccc3n2)cc1 (3D coordinates assigned)
COc1ccc(S(=O)(=O)NCc2cn3ccccc3n2)cc1 (optimized conformer: 69.66178861481012 kcal/mol)

>  <smiles>  (35) 
COc1ccc(S(=O)(=O)NCc2cn3ccccc3n2)cc1

>  <score_type>  (35) 
oracle

>  <origin>  (35) 
adgpu

>  <m_score__min__energy>  (35) 
-7.9800000000000004

>  <m_primary>  (35) 
energy

$$$$
35:0
     RDKit          3D

 60 64  0  0  0  0  0  0  0  0999 V2000
   -2.2874   20.1127  -26.5593 H   0  0  0  0  0  0  0  0  0  0  0  0
   -1.7510   20.9260  -27.0700 C   0  0  0  0  0  0  0  0  0  0  0  0
   -1.8360   21.0510  -28.4570 C   0  0  0  0  0  0  0  0  0  0  0  0
   -2.4241   20.3245  -29.0369 H   0  0  0  0  0  0  0  0  0  0  0  0
   -1.1750   22.0990  -29.1160 C   0  0  0  0  0  0  0  0  0  0  0  0
   -1.2220   22.2190  -30.5470 N   0  0  0  0  0  0  0  0  0  0  0  0
   -2.2130   22.6600  -31.2260 N   0  0  0  0  0  0  0  0  0  0  0  0
   -3.3910   23.2670  -30.6780 C   0  0  0  0  0  0  0  0  0  0  0  0
   -3.4940   24.4720  -29.9930 C   0  0  0  0  0  0  0  0  0  0  0  0
   -2.4250   25.2860  -29.6370 O   0  0  0  0  0  0  0  0  0  0  0  0
   -4.7840   24.8000  -29.7410 N   0  0  0  0  0  0  0  0  0  0  0  0
   -5.4920   23.7970  -30.3000 C   0  0  0  0  0  0  0  0  0  0  0  0
   -6.8790   23.6740  -30.3270 C   0  0  0  0  0  0  0  0  0  0  0  0
   -7.5235   24.4269  -29.8497 H   0  0  0  0  0  0  0  0  0  0  0  0
   -7.4320   22.5580  -30.9830 C   0  0  0  0  0  0  0  0  0  0  0  0
   -8.5242   22.4318  -31.0168 H   0  0  0  0  0  0  0  0  0  0  0  0
   -6.5950   21.5960  -31.6000 C   0  0  0  0  0  0  0  0  0  0  0  0
   -7.2840   20.1840  -32.3950 S   0  0  0  0  0  0  0  0  0  0  0  0
   -7.2660   20.4150  -33.8800 O   0  0  0  0  0  0  0  0  0  0  0  0
   -8.7080   19.9920  -31.9530 O   0  0  0  0  0  0  0  0  0  0  0  0
   -6.3230   18.7790  -31.9870 N   0  0  0  0  0  0  0  0  0  0  0  0
   -7.0700   17.5130  -32.2020 C   0  0  0  0  0  0  0  0  0  0  0  0
   -7.1118   16.9700  -31.2463 H   0  0  0  0  0  0  0  0  0  0  0  0
   -8.0661   17.7921  -32.5761 H   0  0  0  0  0  0  0  0  0  0  0  0
   -6.4440   16.5860  -33.2570 C   0  0  0  0  0  0  0  0  0  0  0  0
   -5.5636   16.0881  -32.8246 H   0  0  0  0  0  0  0  0  0  0  0  0
   -7.1911   15.8384  -33.5617 H   0  0  0  0  0  0  0  0  0  0  0  0
   -6.0160   17.3860  -34.4860 C   0  0  0  0  0  0  0  0  0  0  0  0
   -5.5320   16.7054  -35.2019 H   0  0  0  0  0  0  0  0  0  0  0  0
   -6.9147   17.8474  -34.9212 H   0  0  0  0  0  0  0  0  0  0  0  0
   -5.0300   18.5120  -34.1260 C   0  0  0  0  0  0  0  0  0  0  0  0
   -4.0224   18.2108  -34.4484 H   0  0  0  0  0  0  0  0  0  0  0  0
   -5.3726   19.4230  -34.6386 H   0  0  0  0  0  0  0  0  0  0  0  0
   -4.9890   18.8230  -32.6180 C   0  0  0  0  0  0  0  0  0  0  0  0
   -4.3423   18.0828  -32.1242 H   0  0  0  0  0  0  0  0  0  0  0  0
   -4.6019   19.8461  -32.5018 H   0  0  0  0  0  0  0  0  0  0  0  0
   -5.1950   21.7480  -31.5550 C   0  0  0  0  0  0  0  0  0  0  0  0
   -4.5285   21.0105  -32.0260 H   0  0  0  0  0  0  0  0  0  0  0  0
   -4.6820   22.8620  -30.8950 C   0  0  0  0  0  0  0  0  0  0  0  0
   -0.3850   22.9920  -28.3770 C   0  0  0  0  0  0  0  0  0  0  0  0
    0.2920   24.0110  -29.0410 O   0  0  0  0  0  0  0  0  0  0  0  0
   -0.3000   22.8780  -26.9740 C   0  0  0  0  0  0  0  0  0  0  0  0
    0.5190   23.8330  -26.1920 C   0  0  0  0  0  0  0  0  0  0  0  0
    1.7610   23.6390  -26.0910 O   0  0  0  0  0  0  0  0  0  0  0  0
   -0.0790   24.9650  -25.5330 N   0  0  0  0  0  0  0  0  0  0  0  0
    0.5750   25.5430  -24.3560 C   0  0  0  0  0  0  0  0  0  0  0  0
    1.0393   24.7400  -23.7647 H   0  0  0  0  0  0  0  0  0  0  0  0
    1.3466   26.2560  -24.6820 H   0  0  0  0  0  0  0  0  0  0  0  0
   -0.4590   26.2740  -23.4970 C   0  0  0  0  0  0  0  0  0  0  0  0
   -1.1521   25.5381  -23.0633 H   0  0  0  0  0  0  0  0  0  0  0  0
    0.0680   26.8205  -22.7010 H   0  0  0  0  0  0  0  0  0  0  0  0
   -1.1940   27.2020  -24.2730 O   0  0  0  0  0  0  0  0  0  0  0  0
   -1.9590   26.5140  -25.2440 C   0  0  0  0  0  0  0  0  0  0  0  0
   -2.5941   25.7696  -24.7415 H   0  0  0  0  0  0  0  0  0  0  0  0
   -2.5790   27.2434  -25.7858 H   0  0  0  0  0  0  0  0  0  0  0  0
   -1.0490   25.8010  -26.2490 C   0  0  0  0  0  0  0  0  0  0  0  0
   -1.6595   25.1680  -26.9097 H   0  0  0  0  0  0  0  0  0  0  0  0
   -0.5111   26.5505  -26.8481 H   0  0  0  0  0  0  0  0  0  0  0  0
   -0.9870   21.8300  -26.3270 C   0  0  0  0  0  0  0  0  0  0  0  0
   -0.8970   21.6630  -24.9490 O   0  0  0  0  0  0  0  0  0  0  0  0
  1  2  1  0
  2  3  2  0
  3  4  1  0
  3  5  1  0
  5  6  1  0
  6  7  2  0
  7  8  1  0
  8  9  2  0
  9 10  1  0
  9 11  1  0
 11 12  1  0
 12 13  2  0
 13 14  1  0
 13 15  1  0
 15 16  1  0
 15 17  2  0
 17 18  1  0
 18 19  2  0
 18 20  2  0
 18 21  1  0
 21 22  1  0
 22 23  1  0
 22 24  1  0
 22 25  1  0
 25 26  1  0
 25 27  1  0
 25 28  1  0
 28 29  1  0
 28 30  1  0
 28 31  1  0
 31 32  1  0
 31 33  1  0
 31 34  1  0
 34 35  1  0
 34 36  1  0
 17 37  1  0
 37 38  1  0
 37 39  2  0
  5 40  2  0
 40 41  1  0
 40 42  1  0
 42 43  1  0
 43 44  2  0
 43 45  1  0
 45 46  1  0
 46 47  1  0
 46 48  1  0
 46 49  1  0
 49 50  1  0
 49 51  1  0
 49 52  1  0
 52 53  1  0
 53 54  1  0
 53 55  1  0
 53 56  1  0
 56 57  1  0
 56 58  1  0
 42 59  2  0
 59 60  1  0
 59  2  1  0
 39  8  1  0
 56 45  1  0
 39 12  1  0
 34 21  1  0
M  CHG  4  10  -1  11  -1  41  -1  60  -1
M  END
>  <UniqueID>  (36) 
36

>  <SMILES>  (36) 
O=C(c1c([O-])ccc(/N=N\c2c([O-])[n-]c3ccc(S(=O)(=O)N4CCCCC4)cc23)c1[O-])N1CCOCC1

>  <Energy>  (36) 
126.79398626339086

>  <Genealogy>  (36) 
O=C(c1c([O-])ccc(N=Nc2c([O-])[n-]c3ccc(S(=O)(=O)N4CCCCC4)cc23)c1[O-])N1CCOCC1 (protonated)
O=C(c1c([O-])ccc(/N=N\c2c([O-])[n-]c3ccc(S(=O)(=O)N4CCCCC4)cc23)c1[O-])N1CCOCC1 (cis-trans isomerization)
O=C(c1c([O-])ccc(/N=N\c2c([O-])[n-]c3ccc(S(=O)(=O)N4CCCCC4)cc23)c1[O-])N1CCOCC1 (3D coordinates assigned)
O=C(c1c([O-])ccc(/N=N\c2c([O-])[n-]c3ccc(S(=O)(=O)N4CCCCC4)cc23)c1[O-])N1CCOCC1 (nonaromatic ring conformer: 126.79398626339086 kcal/mol)

>  <smiles>  (36) 
O=C(c1c(O)ccc(N=Nc2c(O)[nH]c3ccc(S(=O)(=O)N4CCCCC4)cc23)c1O)N1CCOCC1

>  <score_type>  (36) 
oracle

>  <origin>  (36) 
adgpu

>  <m_score__min__energy>  (36) 
-15.35

>  <m_primary>  (36) 
energy

$$$$
36:0
     RDKit          3D

 32 33  0  0  0  0  0  0  0  0999 V2000
   -9.6200   21.0520  -32.0860 C   0  0  0  0  0  0  0  0  0  0  0  0
   -8.3000   20.9000  -32.2110 C   0  0  0  0  0  0  0  0  0  0  0  0
   -7.7270   20.1300  -33.1560 N   0  0  0  0  0  0  0  0  0  0  0  0
   -6.3920   20.2170  -32.9780 C   0  0  0  0  0  0  0  0  0  0  0  0
   -5.5140   19.6220  -33.7900 C   0  0  0  0  0  0  0  0  0  0  0  0
   -6.1020   21.0440  -31.8930 C   0  0  0  0  0  0  0  0  0  0  0  0
   -4.7770   21.3740  -31.3260 C   0  0  0  0  0  0  0  0  0  0  0  0
   -3.8260   20.5570  -31.4580 O   0  0  0  0  0  0  0  0  0  0  0  0
   -4.5490   22.6430  -30.6950 N   0  0  0  0  0  0  0  0  0  0  0  0
   -3.3920   22.9260  -29.8930 C   0  0  0  0  0  0  0  0  0  0  0  0
   -2.7230   21.8680  -29.2570 C   0  0  0  0  0  0  0  0  0  0  0  0
   -1.5900   22.1140  -28.4770 C   0  0  0  0  0  0  0  0  0  0  0  0
   -1.1060   23.4170  -28.3360 C   0  0  0  0  0  0  0  0  0  0  0  0
   -1.7490   24.4740  -28.9860 C   0  0  0  0  0  0  0  0  0  0  0  0
   -2.8810   24.2350  -29.7730 C   0  0  0  0  0  0  0  0  0  0  0  0
   -3.4700   25.2960  -30.4520 O   0  0  0  0  0  0  0  0  0  0  0  0
   -7.3290   21.4900  -31.4180 C   0  0  0  0  0  0  0  0  0  0  0  0
   -7.6070   22.5660  -30.0030 S   0  0  0  0  0  0  0  0  0  0  0  0
   -7.2320   24.0840  -30.9340 C   0  0  0  0  0  0  0  0  0  0  0  0
  -10.0268   21.6958  -31.2922 H   0  0  0  0  0  0  0  0  0  0  0  0
  -10.3012   20.5335  -32.7767 H   0  0  0  0  0  0  0  0  0  0  0  0
   -8.2220   19.5840  -33.8980 H   0  0  0  0  0  0  0  0  0  0  0  0
   -4.4349   19.7232  -33.6021 H   0  0  0  0  0  0  0  0  0  0  0  0
   -5.8701   19.0308  -34.6466 H   0  0  0  0  0  0  0  0  0  0  0  0
   -5.1660   23.4410  -30.9680 H   0  0  0  0  0  0  0  0  0  0  0  0
   -3.0932   20.8387  -29.3735 H   0  0  0  0  0  0  0  0  0  0  0  0
   -1.0784   21.2806  -27.9733 H   0  0  0  0  0  0  0  0  0  0  0  0
   -0.2197   23.6108  -27.7140 H   0  0  0  0  0  0  0  0  0  0  0  0
   -1.3634   25.4986  -28.8784 H   0  0  0  0  0  0  0  0  0  0  0  0
   -7.0292   24.9049  -30.2305 H   0  0  0  0  0  0  0  0  0  0  0  0
   -6.3481   23.9169  -31.5671 H   0  0  0  0  0  0  0  0  0  0  0  0
   -8.0920   24.3477  -31.5671 H   0  0  0  0  0  0  0  0  0  0  0  0
  1  2  2  0
  2  3  1  0
  3  4  1  0
  4  5  2  0
  4  6  1  0
  6  7  1  0
  7  8  2  0
  7  9  1  0
  9 10  1  0
 10 11  2  0
 11 12  1  0
 12 13  2  0
 13 14  1  0
 14 15  2  0
 15 16  1  0
  6 17  2  0
 17 18  1  0
 18 19  1  0
 17  2  1  0
 15 10  1  0
  1 20  1  0
  1 21  1  0
  3 22  1  0
  5 23  1  0
  5 24  1  0
  9 25  1  0
 11 26  1  0
 12 27  1  0
 13 28  1  0
 14 29  1  0
 19 30  1  0
 19 31  1  0
 19 32  1  0
M  CHG  1  16  -1
M  END
>  <UniqueID>  (37) 
37

>  <SMILES>  (37) 
C=c1[nH]c(=C)c(C(=O)Nc2ccccc2[O-])c1SC

>  <Energy>  (37) 
63.76830816265913

>  <Genealogy>  (37) 
C=c1[nH]c(=C)c(C(=O)Nc2ccccc2[O-])c1SC (protonated)
C=c1[nH]c(=C)c(C(=O)Nc2ccccc2[O-])c1SC (3D coordinates assigned)
C=c1[nH]c(=C)c(C(=O)Nc2ccccc2[O-])c1SC (optimized conformer: 63.76830816265913 kcal/mol)

>  <smiles>  (37) 
C=c1[nH]c(=C)c(C(=O)Nc2ccccc2O)c1SC

>  <score_type>  (37) 
oracle

>  <origin>  (37) 
adgpu

>  <m_score__min__energy>  (37) 
-9.8699999999999992

>  <m_primary>  (37) 
energy

$$$$
37:0
     RDKit          3D

 46 48  0  0  0  0  0  0  0  0999 V2000
   -1.4690   26.0260  -28.9490 N   0  0  0  0  0  0  0  0  0  0  0  0
   -0.7030   24.7850  -28.0230 S   0  0  0  0  0  0  0  0  0  0  0  0
    0.6770   24.5470  -28.5720 O   0  0  0  0  0  0  0  0  0  0  0  0
   -0.5790   25.2240  -26.5920 O   0  0  0  0  0  0  0  0  0  0  0  0
   -1.6620   23.3000  -28.1090 C   0  0  0  0  0  0  0  0  0  0  0  0
   -1.0560   22.0800  -27.7680 C   0  0  0  0  0  0  0  0  0  0  0  0
   -1.7910   20.8930  -27.7880 C   0  0  0  0  0  0  0  0  0  0  0  0
   -3.1360   20.9100  -28.1530 C   0  0  0  0  0  0  0  0  0  0  0  0
   -3.7510   22.1130  -28.5030 C   0  0  0  0  0  0  0  0  0  0  0  0
   -3.0270   23.3200  -28.4840 C   0  0  0  0  0  0  0  0  0  0  0  0
   -3.6740   24.5510  -28.8570 N   0  0  0  0  0  0  0  0  0  0  0  0
   -4.9440   24.6150  -30.0360 S   0  0  0  0  0  0  0  0  0  0  0  0
   -4.7510   25.8270  -30.9030 O   0  0  0  0  0  0  0  0  0  0  0  0
   -6.2690   24.7170  -29.3360 O   0  0  0  0  0  0  0  0  0  0  0  0
   -4.9290   23.1430  -31.0030 C   0  0  0  0  0  0  0  0  0  0  0  0
   -3.7520   22.7080  -31.6250 C   0  0  0  0  0  0  0  0  0  0  0  0
   -3.7460   21.5220  -32.3670 C   0  0  0  0  0  0  0  0  0  0  0  0
   -4.9170   20.7550  -32.4960 C   0  0  0  0  0  0  0  0  0  0  0  0
   -4.9100   19.4910  -33.2770 C   0  0  0  0  0  0  0  0  0  0  0  0
   -6.1010   18.9860  -33.8290 C   0  0  0  0  0  0  0  0  0  0  0  0
   -6.0910   17.8010  -34.5680 C   0  0  0  0  0  0  0  0  0  0  0  0
   -4.8970   17.1050  -34.7650 C   0  0  0  0  0  0  0  0  0  0  0  0
   -3.7020   17.5850  -34.2120 C   0  0  0  0  0  0  0  0  0  0  0  0
   -2.4060   16.8540  -34.4570 C   0  0  0  0  0  0  0  0  0  0  0  0
   -1.3770   17.7640  -34.9560 N   0  0  0  0  0  0  0  0  0  0  0  0
   -3.7110   18.7830  -33.4800 C   0  0  0  0  0  0  0  0  0  0  0  0
   -6.0960   21.2010  -31.8710 C   0  0  0  0  0  0  0  0  0  0  0  0
   -6.1000   22.3870  -31.1320 C   0  0  0  0  0  0  0  0  0  0  0  0
   -1.6140   25.6430  -29.9110 H   0  0  0  0  0  0  0  0  0  0  0  0
    0.0062   22.0593  -27.4829 H   0  0  0  0  0  0  0  0  0  0  0  0
   -1.3079   19.9432  -27.5153 H   0  0  0  0  0  0  0  0  0  0  0  0
   -3.7136   19.9740  -28.1652 H   0  0  0  0  0  0  0  0  0  0  0  0
   -4.8111   22.1180  -28.7964 H   0  0  0  0  0  0  0  0  0  0  0  0
   -3.4630   25.4310  -28.3400 H   0  0  0  0  0  0  0  0  0  0  0  0
   -2.8300   23.3003  -31.5299 H   0  0  0  0  0  0  0  0  0  0  0  0
   -2.8179   21.1871  -32.8532 H   0  0  0  0  0  0  0  0  0  0  0  0
   -7.0463   19.5278  -33.6777 H   0  0  0  0  0  0  0  0  0  0  0  0
   -7.0275   17.4146  -34.9965 H   0  0  0  0  0  0  0  0  0  0  0  0
   -4.8941   16.1772  -35.3559 H   0  0  0  0  0  0  0  0  0  0  0  0
   -2.0623   16.4053  -33.5133 H   0  0  0  0  0  0  0  0  0  0  0  0
   -2.5810   16.0747  -35.2134 H   0  0  0  0  0  0  0  0  0  0  0  0
   -0.5150   17.6490  -34.3750 H   0  0  0  0  0  0  0  0  0  0  0  0
   -1.1360   17.4930  -35.9380 H   0  0  0  0  0  0  0  0  0  0  0  0
   -2.7713   19.1721  -33.0610 H   0  0  0  0  0  0  0  0  0  0  0  0
   -7.0205   20.6124  -31.9647 H   0  0  0  0  0  0  0  0  0  0  0  0
   -7.0277   22.7281  -30.6494 H   0  0  0  0  0  0  0  0  0  0  0  0
  1  2  1  0
  2  3  2  0
  2  4  2  0
  2  5  1  0
  5  6  2  0
  6  7  1  0
  7  8  2  0
  8  9  1  0
  9 10  2  0
 10 11  1  0
 11 12  1  0
 12 13  2  0
 12 14  2  0
 12 15  1  0
 15 16  2  0
 16 17  1  0
 17 18  2  0
 18 19  1  0
 19 20  2  0
 20 21  1  0
 21 22  2  0
 22 23  1  0
 23 24  1  0
 24 25  1  0
 23 26  2  0
 18 27  1  0
 27 28  2  0
 10  5  1  0
 28 15  1  0
 26 19  1  0
  1 29  1  0
  6 30  1  0
  7 31  1  0
  8 32  1  0
  9 33  1  0
 11 34  1  0
 16 35  1  0
 17 36  1  0
 20 37  1  0
 21 38  1  0
 22 39  1  0
 24 40  1  0
 24 41  1  0
 25 42  1  0
 25 43  1  0
 26 44  1  0
 27 45  1  0
 28 46  1  0
M  CHG  1   1  -1
M  END
>  <UniqueID>  (38) 
38

>  <SMILES>  (38) 
[NH-]S(=O)(=O)c1ccccc1NS(=O)(=O)c1ccc(-c2cccc(CN)c2)cc1

>  <Energy>  (38) 
56.75678485956096

>  <Genealogy>  (38) 
[NH-]S(=O)(=O)c1ccccc1NS(=O)(=O)c1ccc(-c2cccc(CN)c2)cc1 (protonated)
[NH-]S(=O)(=O)c1ccccc1NS(=O)(=O)c1ccc(-c2cccc(CN)c2)cc1 (3D coordinates assigned)
[NH-]S(=O)(=O)c1ccccc1NS(=O)(=O)c1ccc(-c2cccc(CN)c2)cc1 (optimized conformer: 56.75678485956096 kcal/mol)

>  <smiles>  (38) 
NCc1cccc(-c2ccc(S(=O)(=O)Nc3ccccc3S(N)(=O)=O)cc2)c1

>  <score_type>  (38) 
oracle

>  <origin>  (38) 
adgpu

>  <m_score__min__energy>  (38) 
-12.369999999999999

>  <m_primary>  (38) 
energy

$$$$
38:0
     RDKit          3D

 50 53  0  0  0  0  0  0  0  0999 V2000
   -8.3475   24.3528  -31.7049 H   0  0  0  0  0  0  0  0  0  0  0  0
   -7.4030   23.7890  -31.7010 C   0  0  0  0  0  0  0  0  0  0  0  0
   -6.2580   24.3900  -31.2890 N   0  0  0  0  0  0  0  0  0  0  0  0
   -5.0750   23.7220  -31.2640 C   0  0  0  0  0  0  0  0  0  0  0  0
   -3.9010   24.4160  -30.8170 N   0  0  0  0  0  0  0  0  0  0  0  0
   -3.4870   24.5070  -29.5840 C   0  0  0  0  0  0  0  0  0  0  0  0
   -2.3260   25.1730  -29.3360 N   0  0  0  0  0  0  0  0  0  0  0  0
   -1.8220   25.3180  -28.0790 C   0  0  0  0  0  0  0  0  0  0  0  0
   -0.5390   26.0570  -27.8720 C   0  0  0  0  0  0  0  0  0  0  0  0
   -0.3488   26.1666  -26.7941 H   0  0  0  0  0  0  0  0  0  0  0  0
    0.2862   25.4958  -28.3348 H   0  0  0  0  0  0  0  0  0  0  0  0
   -0.6104   27.0524  -28.3348 H   0  0  0  0  0  0  0  0  0  0  0  0
   -2.5080   24.7710  -26.9890 C   0  0  0  0  0  0  0  0  0  0  0  0
   -2.1081   24.8786  -25.9699 H   0  0  0  0  0  0  0  0  0  0  0  0
   -3.7040   24.0880  -27.2080 C   0  0  0  0  0  0  0  0  0  0  0  0
   -4.2534   23.6555  -26.3588 H   0  0  0  0  0  0  0  0  0  0  0  0
   -4.2040   23.9530  -28.5030 C   0  0  0  0  0  0  0  0  0  0  0  0
   -5.1493   23.4191  -28.6798 H   0  0  0  0  0  0  0  0  0  0  0  0
   -5.0260   22.3830  -31.7080 C   0  0  0  0  0  0  0  0  0  0  0  0
   -3.8310   21.6450  -31.7640 C   0  0  0  0  0  0  0  0  0  0  0  0
   -2.8826   22.1125  -31.4607 H   0  0  0  0  0  0  0  0  0  0  0  0
   -3.8450   20.3190  -32.2040 C   0  0  0  0  0  0  0  0  0  0  0  0
   -2.9055   19.7479  -32.2387 H   0  0  0  0  0  0  0  0  0  0  0  0
   -5.0460   19.7060  -32.6030 C   0  0  0  0  0  0  0  0  0  0  0  0
   -5.0560   18.2950  -33.0670 C   0  0  0  0  0  0  0  0  0  0  0  0
   -3.8630   17.5530  -33.1250 C   0  0  0  0  0  0  0  0  0  0  0  0
   -2.9138   18.0214  -32.8257 H   0  0  0  0  0  0  0  0  0  0  0  0
   -3.8740   16.2250  -33.5600 C   0  0  0  0  0  0  0  0  0  0  0  0
   -2.9343   15.6549  -33.6034 H   0  0  0  0  0  0  0  0  0  0  0  0
   -5.0770   15.6170  -33.9410 C   0  0  0  0  0  0  0  0  0  0  0  0
   -5.0910   13.9360  -34.4780 S   0  0  0  0  0  0  0  0  0  0  0  0
   -4.2420   13.8030  -35.7120 O   0  0  0  0  0  0  0  0  0  0  0  0
   -6.4980   13.5440  -34.8400 O   0  0  0  0  0  0  0  0  0  0  0  0
   -4.4900   12.8600  -33.2410 N   0  0  0  0  0  0  0  0  0  0  0  0
   -4.6670   13.4710  -31.9180 C   0  0  0  0  0  0  0  0  0  0  0  0
   -4.4511   12.7259  -31.1381 H   0  0  0  0  0  0  0  0  0  0  0  0
   -3.9786   14.3224  -31.8122 H   0  0  0  0  0  0  0  0  0  0  0  0
   -5.7039   13.8226  -31.8122 H   0  0  0  0  0  0  0  0  0  0  0  0
   -3.0700   12.5700  -33.4790 C   0  0  0  0  0  0  0  0  0  0  0  0
   -2.5508   12.4640  -32.5150 H   0  0  0  0  0  0  0  0  0  0  0  0
   -2.9775   11.6344  -34.0501 H   0  0  0  0  0  0  0  0  0  0  0  0
   -2.6181   13.3944  -34.0501 H   0  0  0  0  0  0  0  0  0  0  0  0
   -6.2700   16.3490  -33.8860 C   0  0  0  0  0  0  0  0  0  0  0  0
   -7.2172   15.8766  -34.1853 H   0  0  0  0  0  0  0  0  0  0  0  0
   -6.2610   17.6780  -33.4520 C   0  0  0  0  0  0  0  0  0  0  0  0
   -7.2024   18.2455  -33.4111 H   0  0  0  0  0  0  0  0  0  0  0  0
   -6.2390   20.4520  -32.5600 C   0  0  0  0  0  0  0  0  0  0  0  0
   -7.1852   19.9863  -32.8728 H   0  0  0  0  0  0  0  0  0  0  0  0
   -6.2310   21.7800  -32.1230 C   0  0  0  0  0  0  0  0  0  0  0  0
   -7.3860   22.4950  -32.1080 N   0  0  0  0  0  0  0  0  0  0  0  0
  1  2  1  0
  2  3  2  0
  3  4  1  0
  4  5  1  0
  5  6  2  0
  6  7  1  0
  7  8  1  0
  8  9  1  0
  9 10  1  0
  9 11  1  0
  9 12  1  0
  8 13  2  0
 13 14  1  0
 13 15  1  0
 15 16  1  0
 15 17  2  0
 17 18  1  0
  4 19  2  0
 19 20  1  0
 20 21  1  0
 20 22  2  0
 22 23  1  0
 22 24  1  0
 24 25  1  0
 25 26  2  0
 26 27  1  0
 26 28  1  0
 28 29  1  0
 28 30  2  0
 30 31  1  0
 31 32  2  0
 31 33  2  0
 31 34  1  0
 34 35  1  0
 35 36  1  0
 35 37  1  0
 35 38  1  0
 34 39  1  0
 39 40  1  0
 39 41  1  0
 39 42  1  0
 30 43  1  0
 43 44  1  0
 43 45  2  0
 45 46  1  0
 24 47  2  0
 47 48  1  0
 47 49  1  0
 49 50  2  0
 50  2  1  0
 17  6  1  0
 49 19  1  0
 45 25  1  0
M  CHG  1   7  -1
M  END
>  <UniqueID>  (39) 
39

>  <SMILES>  (39) 
Cc1ccc/c(=N\c2ncnc3cc(-c4ccc(S(=O)(=O)N(C)C)cc4)ccc23)[n-]1

>  <Energy>  (39) 
71.63709103101802

>  <Genealogy>  (39) 
Cc1cccc(=Nc2ncnc3cc(-c4ccc(S(=O)(=O)N(C)C)cc4)ccc23)[n-]1 (protonated)
Cc1ccc/c(=N\c2ncnc3cc(-c4ccc(S(=O)(=O)N(C)C)cc4)ccc23)[n-]1 (cis-trans isomerization)
Cc1ccc/c(=N\c2ncnc3cc(-c4ccc(S(=O)(=O)N(C)C)cc4)ccc23)[n-]1 (3D coordinates assigned)
Cc1ccc/c(=N\c2ncnc3cc(-c4ccc(S(=O)(=O)N(C)C)cc4)ccc23)[n-]1 (optimized conformer: 71.63709103101802 kcal/mol)

>  <smiles>  (39) 
Cc1cccc(=Nc2ncnc3cc(-c4ccc(S(=O)(=O)N(C)C)cc4)ccc23)[nH]1

>  <score_type>  (39) 
oracle

>  <origin>  (39) 
adgpu

>  <m_score__min__energy>  (39) 
-10.84

>  <m_primary>  (39) 
energy

$$$$
39:0
     RDKit          3D

 39 41  0  0  0  0  0  0  0  0999 V2000
   -5.0880   16.4380  -33.9910 C   0  0  0  0  0  0  0  0  0  0  0  0
   -6.0700   17.3730  -33.3640 C   0  0  0  0  0  0  0  0  0  0  0  0
   -7.2110   16.9850  -32.8400 O   0  0  0  0  0  0  0  0  0  0  0  0
   -7.9140   18.0010  -32.4250 N   0  0  0  0  0  0  0  0  0  0  0  0
   -7.1990   19.1160  -32.6790 C   0  0  0  0  0  0  0  0  0  0  0  0
   -7.6860   20.4840  -32.3950 C   0  0  0  0  0  0  0  0  0  0  0  0
   -9.0570   20.7430  -32.2090 C   0  0  0  0  0  0  0  0  0  0  0  0
   -9.4990   22.0410  -31.9340 C   0  0  0  0  0  0  0  0  0  0  0  0
   -8.5830   23.0920  -31.8550 C   0  0  0  0  0  0  0  0  0  0  0  0
   -7.2220   22.8490  -32.0590 C   0  0  0  0  0  0  0  0  0  0  0  0
   -6.7740   21.5520  -32.3330 C   0  0  0  0  0  0  0  0  0  0  0  0
   -5.9970   18.7510  -33.2540 C   0  0  0  0  0  0  0  0  0  0  0  0
   -5.0540   19.6370  -33.8710 N   0  0  0  0  0  0  0  0  0  0  0  0
   -3.9740   20.2950  -33.2010 C   0  0  0  0  0  0  0  0  0  0  0  0
   -3.0790   20.8840  -33.8620 O   0  0  0  0  0  0  0  0  0  0  0  0
   -3.9000   20.3010  -31.7710 N   0  0  0  0  0  0  0  0  0  0  0  0
   -3.1930   21.2560  -30.9660 C   0  0  0  0  0  0  0  0  0  0  0  0
   -1.8660   21.0420  -30.5580 C   0  0  0  0  0  0  0  0  0  0  0  0
   -1.2010   22.0020  -29.7890 C   0  0  0  0  0  0  0  0  0  0  0  0
   -1.8470   23.1940  -29.4350 C   0  0  0  0  0  0  0  0  0  0  0  0
   -1.0000   24.3890  -28.4590 S   0  0  0  0  0  0  0  0  0  0  0  0
   -1.4540   25.9770  -28.9680 N   0  0  0  0  0  0  0  0  0  0  0  0
   -1.3590   24.2000  -27.0120 O   0  0  0  0  0  0  0  0  0  0  0  0
    0.4870   24.2280  -28.6140 O   0  0  0  0  0  0  0  0  0  0  0  0
   -3.1640   23.4190  -29.8610 C   0  0  0  0  0  0  0  0  0  0  0  0
   -3.8270   22.4590  -30.6320 C   0  0  0  0  0  0  0  0  0  0  0  0
   -4.5317   15.9084  -33.2036 H   0  0  0  0  0  0  0  0  0  0  0  0
   -5.6239   15.7081  -34.6156 H   0  0  0  0  0  0  0  0  0  0  0  0
   -4.3853   17.0090  -34.6156 H   0  0  0  0  0  0  0  0  0  0  0  0
   -9.7841   19.9207  -32.2803 H   0  0  0  0  0  0  0  0  0  0  0  0
  -10.5708   22.2345  -31.7796 H   0  0  0  0  0  0  0  0  0  0  0  0
   -8.9326   24.1109  -31.6323 H   0  0  0  0  0  0  0  0  0  0  0  0
   -6.5018   23.6786  -32.0041 H   0  0  0  0  0  0  0  0  0  0  0  0
   -5.7027   21.3672  -32.5007 H   0  0  0  0  0  0  0  0  0  0  0  0
   -1.3477   20.1151  -30.8447 H   0  0  0  0  0  0  0  0  0  0  0  0
   -0.1669   21.8208  -29.4607 H   0  0  0  0  0  0  0  0  0  0  0  0
   -1.2260   26.0490  -29.9850 H   0  0  0  0  0  0  0  0  0  0  0  0
   -3.6769   24.3530  -29.5880 H   0  0  0  0  0  0  0  0  0  0  0  0
   -4.8534   22.6502  -30.9784 H   0  0  0  0  0  0  0  0  0  0  0  0
  1  2  1  0
  2  3  1  0
  3  4  1  0
  4  5  2  0
  5  6  1  0
  6  7  2  0
  7  8  1  0
  8  9  2  0
  9 10  1  0
 10 11  2  0
  5 12  1  0
 12 13  1  0
 13 14  1  0
 14 15  2  0
 14 16  1  0
 16 17  1  0
 17 18  2  0
 18 19  1  0
 19 20  2  0
 20 21  1  0
 21 22  1  0
 21 23  2  0
 21 24  2  0
 20 25  1  0
 25 26  2  0
 12  2  2  0
 26 17  1  0
 11  6  1  0
  1 27  1  0
  1 28  1  0
  1 29  1  0
  7 30  1  0
  8 31  1  0
  9 32  1  0
 10 33  1  0
 11 34  1  0
 18 35  1  0
 19 36  1  0
 22 37  1  0
 25 38  1  0
 26 39  1  0
M  CHG  3  13  -1  16  -1  22  -1
M  END
>  <UniqueID>  (40) 
40

>  <SMILES>  (40) 
Cc1onc(-c2ccccc2)c1[N-]C(=O)[N-]c1ccc(S([NH-])(=O)=O)cc1

>  <Energy>  (40) 
82.72189195637867

>  <Genealogy>  (40) 
Cc1onc(-c2ccccc2)c1[N-]C(=O)[N-]c1ccc(S([NH-])(=O)=O)cc1 (protonated)
Cc1onc(-c2ccccc2)c1[N-]C(=O)[N-]c1ccc(S([NH-])(=O)=O)cc1 (3D coordinates assigned)
Cc1onc(-c2ccccc2)c1[N-]C(=O)[N-]c1ccc(S([NH-])(=O)=O)cc1 (optimized conformer: 82.72189195637867 kcal/mol)

>  <smiles>  (40) 
Cc1onc(-c2ccccc2)c1NC(=O)Nc1ccc(S(N)(=O)=O)cc1

>  <score_type>  (40) 
oracle

>  <origin>  (40) 
adgpu

>  <m_score__min__energy>  (40) 
-11.31

>  <m_primary>  (40) 
energy

$$$$
40:0
     RDKit          3D

 29 30  0  0  0  0  0  0  0  0999 V2000
   -6.2600   25.6730  -29.5040 C   0  0  0  0  0  0  0  0  0  0  0  0
   -6.0880   24.4990  -30.4280 C   0  0  0  0  0  0  0  0  0  0  0  0
   -7.2150   23.7720  -30.8450 C   0  0  0  0  0  0  0  0  0  0  0  0
   -7.0740   22.6810  -31.7030 C   0  0  0  0  0  0  0  0  0  0  0  0
   -5.8080   22.3060  -32.1510 C   0  0  0  0  0  0  0  0  0  0  0  0
   -4.6740   23.0160  -31.7480 C   0  0  0  0  0  0  0  0  0  0  0  0
   -3.4700   22.5990  -32.2050 F   0  0  0  0  0  0  0  0  0  0  0  0
   -4.8020   24.1260  -30.8820 C   0  0  0  0  0  0  0  0  0  0  0  0
   -3.6720   24.8970  -30.4330 N   0  0  0  0  0  0  0  0  0  0  0  0
   -2.6600   24.5950  -29.0590 S   0  0  0  0  0  0  0  0  0  0  0  0
   -3.4830   24.5660  -27.8020 O   0  0  0  0  0  0  0  0  0  0  0  0
   -1.6020   25.6600  -28.9670 O   0  0  0  0  0  0  0  0  0  0  0  0
   -1.8830   23.0380  -29.2650 C   0  0  0  0  0  0  0  0  0  0  0  0
   -1.9010   22.0070  -28.3540 C   0  0  0  0  0  0  0  0  0  0  0  0
   -1.1890   21.0000  -28.8810 N   0  0  0  0  0  0  0  0  0  0  0  0
   -0.8590   19.7350  -28.2370 C   0  0  0  0  0  0  0  0  0  0  0  0
   -0.7370   21.4420  -30.0700 C   0  0  0  0  0  0  0  0  0  0  0  0
   -1.1520   22.6980  -30.3460 N   0  0  0  0  0  0  0  0  0  0  0  0
   -6.2096   25.3288  -28.4605 H   0  0  0  0  0  0  0  0  0  0  0  0
   -5.4595   26.4047  -29.6878 H   0  0  0  0  0  0  0  0  0  0  0  0
   -7.2368   26.1443  -29.6878 H   0  0  0  0  0  0  0  0  0  0  0  0
   -8.2152   24.0647  -30.4929 H   0  0  0  0  0  0  0  0  0  0  0  0
   -7.9613   22.1168  -32.0260 H   0  0  0  0  0  0  0  0  0  0  0  0
   -5.7011   21.4447  -32.8268 H   0  0  0  0  0  0  0  0  0  0  0  0
   -2.4051   22.0084  -27.3763 H   0  0  0  0  0  0  0  0  0  0  0  0
   -0.8917   19.8602  -27.1446 H   0  0  0  0  0  0  0  0  0  0  0  0
   -1.5872   18.9683  -28.5401 H   0  0  0  0  0  0  0  0  0  0  0  0
    0.1509   19.4217  -28.5401 H   0  0  0  0  0  0  0  0  0  0  0  0
   -0.1008   20.8469  -30.7417 H   0  0  0  0  0  0  0  0  0  0  0  0
  1  2  1  0
  2  3  2  0
  3  4  1  0
  4  5  2  0
  5  6  1  0
  6  7  1  0
  6  8  2  0
  8  9  1  0
  9 10  1  0
 10 11  2  0
 10 12  2  0
 10 13  1  0
 13 14  2  0
 14 15  1  0
 15 16  1  0
 15 17  1  0
 17 18  2  0
  8  2  1  0
 18 13  1  0
  1 19  1  0
  1 20  1  0
  1 21  1  0
  3 22  1  0
  4 23  1  0
  5 24  1  0
 14 25  1  0
 16 26  1  0
 16 27  1  0
 16 28  1  0
 17 29  1  0
M  CHG  1   9  -1
M  END
>  <UniqueID>  (41) 
41

>  <SMILES>  (41) 
Cc1cccc(F)c1[N-]S(=O)(=O)c1cn(C)cn1

>  <Energy>  (41) 
64.02285884014898

>  <Genealogy>  (41) 
Cc1cccc(F)c1[N-]S(=O)(=O)c1cn(C)cn1 (protonated)
Cc1cccc(F)c1[N-]S(=O)(=O)c1cn(C)cn1 (3D coordinates assigned)
Cc1cccc(F)c1[N-]S(=O)(=O)c1cn(C)cn1 (optimized conformer: 64.02285884014898 kcal/mol)

>  <smiles>  (41) 
Cc1cccc(F)c1NS(=O)(=O)c1cn(C)cn1

>  <score_type>  (41) 
oracle

>  <origin>  (41) 
adgpu

>  <m_score__min__energy>  (41) 
-7.6900000000000004

>  <m_primary>  (41) 
energy

$$$$
41:0
     RDKit          3D

 62 65  0  0  0  0  0  0  0  0999 V2000
    2.2828   21.5455  -35.7146 H   0  0  0  0  0  0  0  0  0  0  0  0
    1.4210   21.5360  -35.0310 C   0  0  0  0  0  0  0  0  0  0  0  0
    0.2060   22.0490  -35.3450 N   0  0  0  0  0  0  0  0  0  0  0  0
   -0.5070   21.8150  -34.2260 C   0  0  0  0  0  0  0  0  0  0  0  0
   -1.5599   22.1018  -34.0874 H   0  0  0  0  0  0  0  0  0  0  0  0
    0.2390   21.1840  -33.3000 N   0  0  0  0  0  0  0  0  0  0  0  0
   -0.1600   20.8530  -31.9610 C   0  0  0  0  0  0  0  0  0  0  0  0
   -0.6370   21.8760  -31.1240 C   0  0  0  0  0  0  0  0  0  0  0  0
   -0.7573   22.8938  -31.5235 H   0  0  0  0  0  0  0  0  0  0  0  0
   -0.9600   21.6150  -29.7910 C   0  0  0  0  0  0  0  0  0  0  0  0
   -1.3319   22.4250  -29.1463 H   0  0  0  0  0  0  0  0  0  0  0  0
   -0.8110   20.3270  -29.2770 C   0  0  0  0  0  0  0  0  0  0  0  0
   -1.0503   20.1258  -28.2224 H   0  0  0  0  0  0  0  0  0  0  0  0
   -0.3590   19.2930  -30.0980 C   0  0  0  0  0  0  0  0  0  0  0  0
   -0.2412   18.2809  -29.6836 H   0  0  0  0  0  0  0  0  0  0  0  0
   -0.0520   19.5320  -31.4520 C   0  0  0  0  0  0  0  0  0  0  0  0
    0.3900   18.3710  -32.3060 C   0  0  0  0  0  0  0  0  0  0  0  0
    0.3896   17.4529  -31.7001 H   0  0  0  0  0  0  0  0  0  0  0  0
    1.4033   18.5689  -32.6856 H   0  0  0  0  0  0  0  0  0  0  0  0
   -0.5180   18.2040  -33.4350 N   0  0  0  0  0  0  0  0  0  0  0  0
   -1.9360   18.4020  -33.3800 C   0  0  0  0  0  0  0  0  0  0  0  0
   -2.6540   17.5080  -32.8610 O   0  0  0  0  0  0  0  0  0  0  0  0
   -2.5890   19.6470  -33.9180 C   0  0  0  0  0  0  0  0  0  0  0  0
   -2.4669   19.6752  -35.0108 H   0  0  0  0  0  0  0  0  0  0  0  0
   -2.1109   20.5241  -33.4574 H   0  0  0  0  0  0  0  0  0  0  0  0
   -4.0230   19.6650  -33.5920 N   0  0  0  0  0  0  0  0  0  0  0  0
   -4.8290   18.8710  -34.2980 N   0  0  0  0  0  0  0  0  0  0  0  0
   -6.1670   18.8290  -34.0890 C   0  0  0  0  0  0  0  0  0  0  0  0
   -6.7942   18.1530  -34.6887 H   0  0  0  0  0  0  0  0  0  0  0  0
   -6.7520   19.6390  -33.1170 C   0  0  0  0  0  0  0  0  0  0  0  0
   -8.1730   19.4910  -32.9260 C   0  0  0  0  0  0  0  0  0  0  0  0
   -9.3150   19.3600  -32.7820 N   0  0  0  0  0  0  0  0  0  0  0  0
   -5.9160   20.5000  -32.3530 C   0  0  0  0  0  0  0  0  0  0  0  0
   -6.3350   21.3430  -31.4430 N   0  0  0  0  0  0  0  0  0  0  0  0
   -7.6790   21.7120  -30.9950 C   0  0  0  0  0  0  0  0  0  0  0  0
   -8.1431   20.8440  -30.5038 H   0  0  0  0  0  0  0  0  0  0  0  0
   -8.2629   22.0227  -31.8739 H   0  0  0  0  0  0  0  0  0  0  0  0
   -7.6390   22.8850  -30.0030 C   0  0  0  0  0  0  0  0  0  0  0  0
   -7.9177   22.5167  -29.0047 H   0  0  0  0  0  0  0  0  0  0  0  0
   -8.3451   23.6526  -30.3525 H   0  0  0  0  0  0  0  0  0  0  0  0
   -6.2670   23.5090  -29.9280 C   0  0  0  0  0  0  0  0  0  0  0  0
   -5.9000   24.5300  -30.8190 C   0  0  0  0  0  0  0  0  0  0  0  0
   -6.6118   24.8699  -31.5857 H   0  0  0  0  0  0  0  0  0  0  0  0
   -4.6350   25.1160  -30.7360 C   0  0  0  0  0  0  0  0  0  0  0  0
   -4.3647   25.9338  -31.4202 H   0  0  0  0  0  0  0  0  0  0  0  0
   -3.7100   24.6680  -29.7870 C   0  0  0  0  0  0  0  0  0  0  0  0
   -2.4570   25.2690  -29.7220 O   0  0  0  0  0  0  0  0  0  0  0  0
   -4.0510   23.6190  -28.9120 C   0  0  0  0  0  0  0  0  0  0  0  0
   -3.0830   23.1330  -27.8670 C   0  0  0  0  0  0  0  0  0  0  0  0
   -2.2263   22.6481  -28.3579 H   0  0  0  0  0  0  0  0  0  0  0  0
   -3.5863   22.4092  -27.2091 H   0  0  0  0  0  0  0  0  0  0  0  0
   -2.6100   24.2730  -27.0700 N   0  0  0  0  0  0  0  0  0  0  0  0
   -2.8350   25.1500  -27.5960 H   0  0  0  0  0  0  0  0  0  0  0  0
   -1.1580   24.2180  -26.9130 C   0  0  0  0  0  0  0  0  0  0  0  0
   -0.9050   24.2084  -25.8425 H   0  0  0  0  0  0  0  0  0  0  0  0
   -0.7720   23.3046  -27.3892 H   0  0  0  0  0  0  0  0  0  0  0  0
   -0.7041   25.0996  -27.3892 H   0  0  0  0  0  0  0  0  0  0  0  0
   -5.3390   23.0630  -28.9750 C   0  0  0  0  0  0  0  0  0  0  0  0
   -5.6235   22.2688  -28.2691 H   0  0  0  0  0  0  0  0  0  0  0  0
   -4.5300   20.4640  -32.5980 C   0  0  0  0  0  0  0  0  0  0  0  0
   -3.7590   21.1940  -31.9100 O   0  0  0  0  0  0  0  0  0  0  0  0
    1.4570   21.0130  -33.7890 N   0  0  0  0  0  0  0  0  0  0  0  0
  1  2  1  0
  2  3  1  0
  3  4  2  0
  4  5  1  0
  4  6  1  0
  6  7  1  0
  7  8  2  0
  8  9  1  0
  8 10  1  0
 10 11  1  0
 10 12  2  0
 12 13  1  0
 12 14  1  0
 14 15  1  0
 14 16  2  0
 16 17  1  0
 17 18  1  0
 17 19  1  0
 17 20  1  0
 20 21  1  0
 21 22  2  0
 21 23  1  0
 23 24  1  0
 23 25  1  0
 23 26  1  0
 26 27  1  0
 27 28  1  0
 28 29  1  0
 28 30  2  0
 30 31  1  0
 31 32  3  0
 30 33  1  0
 33 34  2  0
 34 35  1  0
 35 36  1  0
 35 37  1  0
 35 38  1  0
 38 39  1  0
 38 40  1  0
 38 41  1  0
 41 42  2  0
 42 43  1  0
 42 44  1  0
 44 45  1  0
 44 46  2  0
 46 47  1  0
 46 48  1  0
 48 49  1  0
 49 50  1  0
 49 51  1  0
 49 52  1  0
 52 53  1  0
 52 54  1  0
 54 55  1  0
 54 56  1  0
 54 57  1  0
 48 58  2  0
 58 59  1  0
 33 60  1  0
 60 61  2  0
  6 62  1  0
 62  2  2  0
 16  7  1  0
 60 26  1  0
 58 41  1  0
M  CHG  3  20  -1  27  -1  47  -1
M  END
>  <UniqueID>  (42) 
42

>  <SMILES>  (42) 
CNCc1cc(CC/N=c2\c(C#N)c[n-]n(CC(=O)[N-]Cc3ccccc3-n3cncn3)c2=O)ccc1[O-]

>  <Energy>  (42) 
106.50104448766145

>  <Genealogy>  (42) 
CNCc1cc(CCN=c2c(C#N)c[n-]n(CC(=O)[N-]Cc3ccccc3-n3cncn3)c2=O)ccc1[O-] (protonated)
CNCc1cc(CC/N=c2\c(C#N)c[n-]n(CC(=O)[N-]Cc3ccccc3-n3cncn3)c2=O)ccc1[O-] (cis-trans isomerization)
CNCc1cc(CC/N=c2\c(C#N)c[n-]n(CC(=O)[N-]Cc3ccccc3-n3cncn3)c2=O)ccc1[O-] (3D coordinates assigned)
CNCc1cc(CC/N=c2\c(C#N)c[n-]n(CC(=O)[N-]Cc3ccccc3-n3cncn3)c2=O)ccc1[O-] (optimized conformer: 106.50104448766145 kcal/mol)

>  <smiles>  (42) 
CNCc1cc(CCN=c2c(C#N)c[nH]n(CC(=O)NCc3ccccc3-n3cncn3)c2=O)ccc1O

>  <score_type>  (42) 
oracle

>  <origin>  (42) 
adgpu

>  <m_score__min__energy>  (42) 
-12.279999999999999

>  <m_primary>  (42) 
energy

$$$$
42:0
     RDKit          3D

 43 45  0  0  0  0  0  0  0  0999 V2000
   -7.9611   25.2355  -29.6044 H   0  0  0  0  0  0  0  0  0  0  0  0
   -7.0900   24.7320  -30.0490 C   0  0  0  0  0  0  0  0  0  0  0  0
   -5.8320   25.3370  -29.9940 C   0  0  0  0  0  0  0  0  0  0  0  0
   -5.7131   26.3161  -29.5068 H   0  0  0  0  0  0  0  0  0  0  0  0
   -4.7250   24.6980  -30.5580 C   0  0  0  0  0  0  0  0  0  0  0  0
   -3.4720   25.2990  -30.5000 O   0  0  0  0  0  0  0  0  0  0  0  0
   -4.8740   23.4530  -31.1790 C   0  0  0  0  0  0  0  0  0  0  0  0
   -3.9992   22.9545  -31.6220 H   0  0  0  0  0  0  0  0  0  0  0  0
   -6.1370   22.8350  -31.2400 C   0  0  0  0  0  0  0  0  0  0  0  0
   -6.3060   21.5120  -31.8940 C   0  0  0  0  0  0  0  0  0  0  0  0
   -7.5720   20.9180  -31.9830 C   0  0  0  0  0  0  0  0  0  0  0  0
   -8.4567   21.4211  -31.5655 H   0  0  0  0  0  0  0  0  0  0  0  0
   -7.6910   19.6780  -32.6100 C   0  0  0  0  0  0  0  0  0  0  0  0
   -9.0240   19.0070  -32.7170 C   0  0  0  0  0  0  0  0  0  0  0  0
   -9.4169   18.8092  -31.7088 H   0  0  0  0  0  0  0  0  0  0  0  0
   -9.7214   19.6615  -33.2604 H   0  0  0  0  0  0  0  0  0  0  0  0
   -8.9137   18.0570  -33.2604 H   0  0  0  0  0  0  0  0  0  0  0  0
   -6.5820   19.0570  -33.0880 N   0  0  0  0  0  0  0  0  0  0  0  0
   -5.3510   19.6200  -32.9820 C   0  0  0  0  0  0  0  0  0  0  0  0
   -4.3270   18.9720  -33.4650 N   0  0  0  0  0  0  0  0  0  0  0  0
   -2.9410   19.3290  -33.3570 C   0  0  0  0  0  0  0  0  0  0  0  0
   -2.1230   18.6210  -32.4750 C   0  0  0  0  0  0  0  0  0  0  0  0
   -2.5373   17.7781  -31.9024 H   0  0  0  0  0  0  0  0  0  0  0  0
   -0.7820   18.9760  -32.3150 C   0  0  0  0  0  0  0  0  0  0  0  0
   -0.1421   18.4009  -31.6296 H   0  0  0  0  0  0  0  0  0  0  0  0
   -0.2440   20.0660  -33.0260 C   0  0  0  0  0  0  0  0  0  0  0  0
    1.1010   20.4490  -32.8980 O   0  0  0  0  0  0  0  0  0  0  0  0
    2.2010   19.7170  -33.4290 C   0  0  0  0  0  0  0  0  0  0  0  0
    2.8062   19.3143  -32.6034 H   0  0  0  0  0  0  0  0  0  0  0  0
    1.8257   18.8879  -34.0469 H   0  0  0  0  0  0  0  0  0  0  0  0
    2.8208   20.3834  -34.0469 H   0  0  0  0  0  0  0  0  0  0  0  0
   -1.0690   20.8050  -33.8890 C   0  0  0  0  0  0  0  0  0  0  0  0
   -0.5090   21.8920  -34.5800 O   0  0  0  0  0  0  0  0  0  0  0  0
    0.3020   21.7760  -35.7440 C   0  0  0  0  0  0  0  0  0  0  0  0
    1.3505   21.6260  -35.4469 H   0  0  0  0  0  0  0  0  0  0  0  0
   -0.0360   20.9171  -36.3423 H   0  0  0  0  0  0  0  0  0  0  0  0
    0.2183   22.6953  -36.3423 H   0  0  0  0  0  0  0  0  0  0  0  0
   -2.4220   20.4430  -34.0370 C   0  0  0  0  0  0  0  0  0  0  0  0
   -3.0775   21.0375  -34.6904 H   0  0  0  0  0  0  0  0  0  0  0  0
   -5.2230   20.8580  -32.4100 N   0  0  0  0  0  0  0  0  0  0  0  0
   -4.3030   21.3480  -32.4090 H   0  0  0  0  0  0  0  0  0  0  0  0
   -7.2440   23.4880  -30.6680 C   0  0  0  0  0  0  0  0  0  0  0  0
   -8.2371   23.0168  -30.7080 H   0  0  0  0  0  0  0  0  0  0  0  0
  1  2  1  0
  2  3  2  0
  3  4  1  0
  3  5  1  0
  5  6  1  0
  5  7  2  0
  7  8  1  0
  7  9  1  0
  9 10  1  0
 10 11  2  0
 11 12  1  0
 11 13  1  0
 13 14  1  0
 14 15  1  0
 14 16  1  0
 14 17  1  0
 13 18  2  0
 18 19  1  0
 19 20  2  0
 20 21  1  0
 21 22  2  0
 22 23  1  0
 22 24  1  0
 24 25  1  0
 24 26  2  0
 26 27  1  0
 27 28  1  0
 28 29  1  0
 28 30  1  0
 28 31  1  0
 26 32  1  0
 32 33  1  0
 33 34  1  0
 34 35  1  0
 34 36  1  0
 34 37  1  0
 32 38  2  0
 38 39  1  0
 19 40  1  0
 40 41  1  0
  9 42  2  0
 42 43  1  0
 42  2  1  0
 40 10  1  0
 38 21  1  0
M  CHG  1   6  -1
M  END
>  <UniqueID>  (43) 
43

>  <SMILES>  (43) 
COc1ccc(/N=c2/nc(C)cc(-c3cccc([O-])c3)[nH]2)cc1OC

>  <Energy>  (43) 
56.70900771959605

>  <Genealogy>  (43) 
COc1ccc(N=c2nc(C)cc(-c3cccc([O-])c3)[nH]2)cc1OC (protonated)
COc1ccc(/N=c2/nc(C)cc(-c3cccc([O-])c3)[nH]2)cc1OC (cis-trans isomerization)
COc1ccc(/N=c2/nc(C)cc(-c3cccc([O-])c3)[nH]2)cc1OC (3D coordinates assigned)
COc1ccc(/N=c2/nc(C)cc(-c3cccc([O-])c3)[nH]2)cc1OC (optimized conformer: 56.70900771959605 kcal/mol)

>  <smiles>  (43) 
COc1ccc(N=c2nc(C)cc(-c3cccc(O)c3)[nH]2)cc1OC

>  <score_type>  (43) 
oracle

>  <origin>  (43) 
adgpu

>  <m_score__min__energy>  (43) 
-10.85

>  <m_primary>  (43) 
energy

$$$$
43:0
     RDKit          3D

 31 32  0  0  0  0  0  0  0  0999 V2000
   -1.6651   26.7240  -27.3336 H   0  0  0  0  0  0  0  0  0  0  0  0
   -0.8640   26.0120  -27.5810 C   0  0  0  0  0  0  0  0  0  0  0  0
   -1.1160   24.9690  -28.4120 N   0  0  0  0  0  0  0  0  0  0  0  0
   -0.1430   24.0710  -28.7310 C   0  0  0  0  0  0  0  0  0  0  0  0
   -0.3730   23.0820  -29.5450 N   0  0  0  0  0  0  0  0  0  0  0  0
   -1.6320   22.7400  -30.1420 C   0  0  0  0  0  0  0  0  0  0  0  0
   -1.6430   21.9340  -31.1100 O   0  0  0  0  0  0  0  0  0  0  0  0
   -2.8730   23.2200  -29.5960 N   0  0  0  0  0  0  0  0  0  0  0  0
   -2.9010   23.4370  -28.5740 H   0  0  0  0  0  0  0  0  0  0  0  0
   -4.1020   23.2750  -30.3440 C   0  0  0  0  0  0  0  0  0  0  0  0
   -4.8260   22.1020  -30.6310 C   0  0  0  0  0  0  0  0  0  0  0  0
   -4.4640   21.1336  -30.2552 H   0  0  0  0  0  0  0  0  0  0  0  0
   -6.0070   22.1550  -31.3930 C   0  0  0  0  0  0  0  0  0  0  0  0
   -6.8020   20.8990  -31.6490 C   0  0  0  0  0  0  0  0  0  0  0  0
   -7.1130   20.7840  -32.9930 F   0  0  0  0  0  0  0  0  0  0  0  0
   -6.0570   19.8020  -31.2620 F   0  0  0  0  0  0  0  0  0  0  0  0
   -7.9880   20.9140  -30.9330 F   0  0  0  0  0  0  0  0  0  0  0  0
   -6.4790   23.4020  -31.8370 C   0  0  0  0  0  0  0  0  0  0  0  0
   -7.4239   23.4614  -32.3971 H   0  0  0  0  0  0  0  0  0  0  0  0
   -5.7550   24.5660  -31.5710 C   0  0  0  0  0  0  0  0  0  0  0  0
   -6.1210   25.5347  -31.9421 H   0  0  0  0  0  0  0  0  0  0  0  0
   -4.5680   24.5070  -30.8360 C   0  0  0  0  0  0  0  0  0  0  0  0
   -3.8650   25.6790  -30.5850 O   0  0  0  0  0  0  0  0  0  0  0  0
    1.1070   24.2280  -28.2180 N   0  0  0  0  0  0  0  0  0  0  0  0
    1.4030   25.2560  -27.3790 C   0  0  0  0  0  0  0  0  0  0  0  0
    2.7890   25.4050  -26.8400 C   0  0  0  0  0  0  0  0  0  0  0  0
    2.7572   25.4016  -25.7405 H   0  0  0  0  0  0  0  0  0  0  0  0
    3.4110   24.5685  -27.1914 H   0  0  0  0  0  0  0  0  0  0  0  0
    3.2190   26.3545  -27.1914 H   0  0  0  0  0  0  0  0  0  0  0  0
    0.4100   26.1810  -27.0410 C   0  0  0  0  0  0  0  0  0  0  0  0
    0.6289   27.0212  -26.3657 H   0  0  0  0  0  0  0  0  0  0  0  0
  1  2  1  0
  2  3  2  0
  3  4  1  0
  4  5  2  0
  5  6  1  0
  6  7  2  0
  6  8  1  0
  8  9  1  0
  8 10  1  0
 10 11  2  0
 11 12  1  0
 11 13  1  0
 13 14  1  0
 14 15  1  0
 14 16  1  0
 14 17  1  0
 13 18  2  0
 18 19  1  0
 18 20  1  0
 20 21  1  0
 20 22  2  0
 22 23  1  0
  4 24  1  0
 24 25  1  0
 25 26  1  0
 26 27  1  0
 26 28  1  0
 26 29  1  0
 25 30  2  0
 30 31  1  0
 30  2  1  0
 22 10  1  0
M  CHG  2  23  -1  24  -1
M  END
>  <UniqueID>  (44) 
44

>  <SMILES>  (44) 
Cc1ccn/c(=N\C(=O)Nc2cc(C(F)(F)F)ccc2[O-])[n-]1

>  <Energy>  (44) 
39.912553948318816

>  <Genealogy>  (44) 
Cc1ccnc(=NC(=O)Nc2cc(C(F)(F)F)ccc2[O-])[n-]1 (protonated)
Cc1ccn/c(=N\C(=O)Nc2cc(C(F)(F)F)ccc2[O-])[n-]1 (cis-trans isomerization)
Cc1ccn/c(=N\C(=O)Nc2cc(C(F)(F)F)ccc2[O-])[n-]1 (3D coordinates assigned)
Cc1ccn/c(=N\C(=O)Nc2cc(C(F)(F)F)ccc2[O-])[n-]1 (optimized conformer: 39.912553948318816 kcal/mol)

>  <smiles>  (44) 
Cc1ccnc(=NC(=O)Nc2cc(C(F)(F)F)ccc2O)[nH]1

>  <score_type>  (44) 
oracle

>  <origin>  (44) 
adgpu

>  <m_score__min__energy>  (44) 
-9.6899999999999995

>  <m_primary>  (44) 
energy

$$$$
44:0
     RDKit          3D

 43 45  0  0  0  0  0  0  0  0999 V2000
   -8.3170   21.8720  -30.5640 C   0  0  0  0  0  0  0  0  0  0  0  0
   -7.2560   22.5220  -31.8340 S   0  0  0  0  0  0  0  0  0  0  0  0
   -6.7660   21.4000  -32.7050 O   0  0  0  0  0  0  0  0  0  0  0  0
   -8.0240   23.4930  -32.6840 O   0  0  0  0  0  0  0  0  0  0  0  0
   -5.8860   23.3360  -31.0860 C   0  0  0  0  0  0  0  0  0  0  0  0
   -6.0220   24.6430  -30.6010 C   0  0  0  0  0  0  0  0  0  0  0  0
   -4.9320   25.2970  -30.0220 C   0  0  0  0  0  0  0  0  0  0  0  0
   -3.6830   24.6570  -29.9420 C   0  0  0  0  0  0  0  0  0  0  0  0
   -2.5450   25.2940  -29.3450 N   0  0  0  0  0  0  0  0  0  0  0  0
   -1.3780   24.6340  -28.8330 C   0  0  0  0  0  0  0  0  0  0  0  0
   -0.5030   24.2390  -29.6480 O   0  0  0  0  0  0  0  0  0  0  0  0
   -1.1410   24.4840  -27.3770 C   0  0  0  0  0  0  0  0  0  0  0  0
   -1.4540   25.5520  -26.5170 C   0  0  0  0  0  0  0  0  0  0  0  0
   -1.2160   25.4510  -25.1440 C   0  0  0  0  0  0  0  0  0  0  0  0
   -0.6620   24.2870  -24.6140 C   0  0  0  0  0  0  0  0  0  0  0  0
   -0.3420   23.2190  -25.4540 C   0  0  0  0  0  0  0  0  0  0  0  0
   -0.5660   23.3080  -26.8400 C   0  0  0  0  0  0  0  0  0  0  0  0
   -0.3040   22.1700  -27.6800 N   0  0  0  0  0  0  0  0  0  0  0  0
   -0.7560   20.8350  -27.3920 C   0  0  0  0  0  0  0  0  0  0  0  0
   -1.9540   20.6030  -26.6900 C   0  0  0  0  0  0  0  0  0  0  0  0
   -2.3610   19.2970  -26.4030 C   0  0  0  0  0  0  0  0  0  0  0  0
   -1.5740   18.2130  -26.8000 C   0  0  0  0  0  0  0  0  0  0  0  0
   -0.3730   18.4350  -27.4810 C   0  0  0  0  0  0  0  0  0  0  0  0
    0.0370   19.7400  -27.7690 C   0  0  0  0  0  0  0  0  0  0  0  0
   -3.5540   23.3440  -30.4100 C   0  0  0  0  0  0  0  0  0  0  0  0
   -4.6460   22.6890  -30.9890 C   0  0  0  0  0  0  0  0  0  0  0  0
   -7.9041   22.1249  -29.5763 H   0  0  0  0  0  0  0  0  0  0  0  0
   -9.3208   22.3103  -30.6650 H   0  0  0  0  0  0  0  0  0  0  0  0
   -8.3825   20.7786  -30.6650 H   0  0  0  0  0  0  0  0  0  0  0  0
   -6.9917   25.1568  -30.6764 H   0  0  0  0  0  0  0  0  0  0  0  0
   -5.0514   26.3167  -29.6271 H   0  0  0  0  0  0  0  0  0  0  0  0
   -1.8897   26.4743  -26.9287 H   0  0  0  0  0  0  0  0  0  0  0  0
   -1.4663   26.2916  -24.4801 H   0  0  0  0  0  0  0  0  0  0  0  0
   -0.4767   24.2099  -23.5325 H   0  0  0  0  0  0  0  0  0  0  0  0
    0.0887   22.3005  -25.0288 H   0  0  0  0  0  0  0  0  0  0  0  0
    0.2200   22.3310  -28.5720 H   0  0  0  0  0  0  0  0  0  0  0  0
   -2.5724   21.4531  -26.3660 H   0  0  0  0  0  0  0  0  0  0  0  0
   -3.3034   19.1222  -25.8632 H   0  0  0  0  0  0  0  0  0  0  0  0
   -1.8988   17.1860  -26.5771 H   0  0  0  0  0  0  0  0  0  0  0  0
    0.2494   17.5823  -27.7902 H   0  0  0  0  0  0  0  0  0  0  0  0
    0.9881   19.9100  -28.2949 H   0  0  0  0  0  0  0  0  0  0  0  0
   -2.5885   22.8244  -30.3219 H   0  0  0  0  0  0  0  0  0  0  0  0
   -4.5315   21.6632  -31.3693 H   0  0  0  0  0  0  0  0  0  0  0  0
  1  2  1  0
  2  3  2  0
  2  4  2  0
  2  5  1  0
  5  6  2  0
  6  7  1  0
  7  8  2  0
  8  9  1  0
  9 10  1  0
 10 11  2  0
 10 12  1  0
 12 13  2  0
 13 14  1  0
 14 15  2  0
 15 16  1  0
 16 17  2  0
 17 18  1  0
 18 19  1  0
 19 20  2  0
 20 21  1  0
 21 22  2  0
 22 23  1  0
 23 24  2  0
  8 25  1  0
 25 26  2  0
 26  5  1  0
 17 12  1  0
 24 19  1  0
  1 27  1  0
  1 28  1  0
  1 29  1  0
  6 30  1  0
  7 31  1  0
 13 32  1  0
 14 33  1  0
 15 34  1  0
 16 35  1  0
 18 36  1  0
 20 37  1  0
 21 38  1  0
 22 39  1  0
 23 40  1  0
 24 41  1  0
 25 42  1  0
 26 43  1  0
M  CHG  1   9  -1
M  END
>  <UniqueID>  (45) 
45

>  <SMILES>  (45) 
CS(=O)(=O)c1ccc([N-]C(=O)c2ccccc2Nc2ccccc2)cc1

>  <Energy>  (45) 
56.865057534927075

>  <Genealogy>  (45) 
CS(=O)(=O)c1ccc([N-]C(=O)c2ccccc2Nc2ccccc2)cc1 (protonated)
CS(=O)(=O)c1ccc([N-]C(=O)c2ccccc2Nc2ccccc2)cc1 (3D coordinates assigned)
CS(=O)(=O)c1ccc([N-]C(=O)c2ccccc2Nc2ccccc2)cc1 (optimized conformer: 56.865057534927075 kcal/mol)

>  <smiles>  (45) 
CS(=O)(=O)c1ccc(NC(=O)c2ccccc2Nc2ccccc2)cc1

>  <score_type>  (45) 
oracle

>  <origin>  (45) 
adgpu

>  <m_score__min__energy>  (45) 
-10.42

>  <m_primary>  (45) 
energy

$$$$
45:0
     RDKit          3D

 44 46  0  0  0  0  0  0  0  0999 V2000
   -3.8360   17.2280  -33.0870 C   0  0  0  0  0  0  0  0  0  0  0  0
   -4.8780   16.1990  -33.0590 N   0  0  0  0  0  0  0  0  0  0  0  0
   -4.5320   14.8420  -32.6340 C   0  0  0  0  0  0  0  0  0  0  0  0
   -6.2220   16.4790  -33.4930 C   0  0  0  0  0  0  0  0  0  0  0  0
   -6.8620   15.5940  -34.1250 O   0  0  0  0  0  0  0  0  0  0  0  0
   -6.8820   17.7740  -33.2040 C   0  0  0  0  0  0  0  0  0  0  0  0
   -7.9410   17.8360  -32.2820 C   0  0  0  0  0  0  0  0  0  0  0  0
   -8.5580   19.0560  -31.9920 C   0  0  0  0  0  0  0  0  0  0  0  0
   -8.1120   20.2370  -32.5970 C   0  0  0  0  0  0  0  0  0  0  0  0
   -8.7750   21.4700  -32.2840 N   0  0  0  0  0  0  0  0  0  0  0  0
   -8.1390   22.7120  -31.9480 C   0  0  0  0  0  0  0  0  0  0  0  0
   -8.7640   23.7850  -32.1620 O   0  0  0  0  0  0  0  0  0  0  0  0
   -6.8020   22.7630  -31.3130 C   0  0  0  0  0  0  0  0  0  0  0  0
   -6.6690   22.9340  -29.9240 C   0  0  0  0  0  0  0  0  0  0  0  0
   -5.4030   22.9780  -29.3330 C   0  0  0  0  0  0  0  0  0  0  0  0
   -4.2490   22.8580  -30.1200 C   0  0  0  0  0  0  0  0  0  0  0  0
   -2.9480   22.9140  -29.5110 N   0  0  0  0  0  0  0  0  0  0  0  0
   -2.1980   24.0180  -29.3240 C   0  0  0  0  0  0  0  0  0  0  0  0
   -2.5880   25.3000  -29.6950 O   0  0  0  0  0  0  0  0  0  0  0  0
   -0.9880   23.7050  -28.7400 C   0  0  0  0  0  0  0  0  0  0  0  0
   -0.9950   22.3330  -28.5580 C   0  0  0  0  0  0  0  0  0  0  0  0
   -2.2110   21.8860  -29.0350 C   0  0  0  0  0  0  0  0  0  0  0  0
   -2.6280   20.5570  -28.9900 O   0  0  0  0  0  0  0  0  0  0  0  0
   -4.3780   22.7140  -31.5100 C   0  0  0  0  0  0  0  0  0  0  0  0
   -5.6420   22.6690  -32.1010 C   0  0  0  0  0  0  0  0  0  0  0  0
   -7.0590   20.1790  -33.5250 C   0  0  0  0  0  0  0  0  0  0  0  0
   -6.4410   18.9590  -33.8160 C   0  0  0  0  0  0  0  0  0  0  0  0
   -3.5610   17.4995  -32.0571 H   0  0  0  0  0  0  0  0  0  0  0  0
   -2.9511   16.8396  -33.6125 H   0  0  0  0  0  0  0  0  0  0  0  0
   -4.2133   18.1177  -33.6125 H   0  0  0  0  0  0  0  0  0  0  0  0
   -4.5197   14.7939  -31.5351 H   0  0  0  0  0  0  0  0  0  0  0  0
   -5.2784   14.1342  -33.0237 H   0  0  0  0  0  0  0  0  0  0  0  0
   -3.5378   14.5780  -33.0237 H   0  0  0  0  0  0  0  0  0  0  0  0
   -8.2867   16.9176  -31.7850 H   0  0  0  0  0  0  0  0  0  0  0  0
   -9.3992   19.0884  -31.2840 H   0  0  0  0  0  0  0  0  0  0  0  0
   -7.5677   23.0339  -29.2976 H   0  0  0  0  0  0  0  0  0  0  0  0
   -5.3117   23.1075  -28.2445 H   0  0  0  0  0  0  0  0  0  0  0  0
   -0.1815   24.4038  -28.4732 H   0  0  0  0  0  0  0  0  0  0  0  0
   -0.1923   21.7211  -28.1208 H   0  0  0  0  0  0  0  0  0  0  0  0
   -2.9200   20.1170  -28.1280 H   0  0  0  0  0  0  0  0  0  0  0  0
   -3.4779   22.6361  -32.1375 H   0  0  0  0  0  0  0  0  0  0  0  0
   -5.7308   22.5591  -33.1919 H   0  0  0  0  0  0  0  0  0  0  0  0
   -6.7190   21.0978  -34.0252 H   0  0  0  0  0  0  0  0  0  0  0  0
   -5.6039   18.9269  -34.5289 H   0  0  0  0  0  0  0  0  0  0  0  0
  1  2  1  0
  2  3  1  0
  2  4  1  0
  4  5  2  0
  4  6  1  0
  6  7  2  0
  7  8  1  0
  8  9  2  0
  9 10  1  0
 10 11  1  0
 11 12  2  0
 11 13  1  0
 13 14  2  0
 14 15  1  0
 15 16  2  0
 16 17  1  0
 17 18  1  0
 18 19  1  0
 18 20  2  0
 20 21  1  0
 21 22  2  0
 22 23  1  0
 16 24  1  0
 24 25  2  0
  9 26  1  0
 26 27  2  0
 27  6  1  0
 25 13  1  0
 22 17  1  0
  1 28  1  0
  1 29  1  0
  1 30  1  0
  3 31  1  0
  3 32  1  0
  3 33  1  0
  7 34  1  0
  8 35  1  0
 14 36  1  0
 15 37  1  0
 20 38  1  0
 21 39  1  0
 23 40  1  0
 24 41  1  0
 25 42  1  0
 26 43  1  0
 27 44  1  0
M  CHG  2  10  -1  19  -1
M  END
>  <UniqueID>  (46) 
46

>  <SMILES>  (46) 
CN(C)C(=O)c1ccc([N-]C(=O)c2ccc(-n3c([O-])ccc3O)cc2)cc1

>  <Energy>  (46) 
89.65365190897975

>  <Genealogy>  (46) 
CN(C)C(=O)c1ccc([N-]C(=O)c2ccc(-n3c([O-])ccc3O)cc2)cc1 (protonated)
CN(C)C(=O)c1ccc([N-]C(=O)c2ccc(-n3c([O-])ccc3O)cc2)cc1 (3D coordinates assigned)
CN(C)C(=O)c1ccc([N-]C(=O)c2ccc(-n3c([O-])ccc3O)cc2)cc1 (optimized conformer: 89.65365190897975 kcal/mol)

>  <smiles>  (46) 
CN(C)C(=O)c1ccc(NC(=O)c2ccc(-n3c(O)ccc3O)cc2)cc1

>  <score_type>  (46) 
oracle

>  <origin>  (46) 
adgpu

>  <m_score__min__energy>  (46) 
-10.59

>  <m_primary>  (46) 
energy

$$$$
46:0
     RDKit          3D

 55 57  0  0  0  0  0  0  0  0999 V2000
    1.3910   22.7430  -35.3940 H   0  0  0  0  0  0  0  0  0  0  0  0
    0.7060   22.2920  -34.8010 O   0  0  0  0  0  0  0  0  0  0  0  0
    0.3180   20.9640  -34.9870 C   0  0  0  0  0  0  0  0  0  0  0  0
    0.8810   20.2400  -36.0380 C   0  0  0  0  0  0  0  0  0  0  0  0
    1.7800   20.8540  -36.9030 O   0  0  0  0  0  0  0  0  0  0  0  0
    0.5540   18.9000  -36.2230 C   0  0  0  0  0  0  0  0  0  0  0  0
    0.9910   18.3463  -37.0670 H   0  0  0  0  0  0  0  0  0  0  0  0
   -0.3270   18.2450  -35.3460 C   0  0  0  0  0  0  0  0  0  0  0  0
   -0.6090   16.7750  -35.5900 C   0  0  0  0  0  0  0  0  0  0  0  0
   -0.2707   16.5092  -36.6024 H   0  0  0  0  0  0  0  0  0  0  0  0
   -0.0698   16.1892  -34.8310 H   0  0  0  0  0  0  0  0  0  0  0  0
   -1.9880   16.4870  -35.4760 O   0  0  0  0  0  0  0  0  0  0  0  0
   -2.2830   15.2480  -36.0820 C   0  0  0  0  0  0  0  0  0  0  0  0
   -2.4629   14.4924  -35.3030 H   0  0  0  0  0  0  0  0  0  0  0  0
   -3.1818   15.3507  -36.7078 H   0  0  0  0  0  0  0  0  0  0  0  0
   -1.4344   14.9346  -36.7078 H   0  0  0  0  0  0  0  0  0  0  0  0
   -0.9160   18.9730  -34.2740 C   0  0  0  0  0  0  0  0  0  0  0  0
   -1.7400   18.2810  -33.2060 C   0  0  0  0  0  0  0  0  0  0  0  0
   -1.3985   17.2411  -33.0967 H   0  0  0  0  0  0  0  0  0  0  0  0
   -1.6180   18.8112  -32.2499 H   0  0  0  0  0  0  0  0  0  0  0  0
   -3.1520   18.2920  -33.5910 N   0  0  0  0  0  0  0  0  0  0  0  0
   -3.4480   17.6350  -34.3480 H   0  0  0  0  0  0  0  0  0  0  0  0
   -4.1100   19.2540  -33.1180 C   0  0  0  0  0  0  0  0  0  0  0  0
   -3.9070   19.8660  -31.8740 C   0  0  0  0  0  0  0  0  0  0  0  0
   -3.0157   19.6143  -31.2805 H   0  0  0  0  0  0  0  0  0  0  0  0
   -4.8290   20.7940  -31.3820 C   0  0  0  0  0  0  0  0  0  0  0  0
   -4.6631   21.2655  -30.4021 H   0  0  0  0  0  0  0  0  0  0  0  0
   -5.9630   21.1250  -32.1330 C   0  0  0  0  0  0  0  0  0  0  0  0
   -7.1270   22.2930  -31.5120 S   0  0  0  0  0  0  0  0  0  0  0  0
   -8.3950   22.1890  -32.3130 O   0  0  0  0  0  0  0  0  0  0  0  0
   -7.4330   22.0120  -30.0680 O   0  0  0  0  0  0  0  0  0  0  0  0
   -6.4990   23.9050  -31.6550 N   0  0  0  0  0  0  0  0  0  0  0  0
   -5.4310   24.3320  -31.0530 C   0  0  0  0  0  0  0  0  0  0  0  0
   -4.9700   25.5880  -31.1950 N   0  0  0  0  0  0  0  0  0  0  0  0
   -3.8920   25.6680  -30.4700 O   0  0  0  0  0  0  0  0  0  0  0  0
   -3.6420   24.5290  -29.8660 C   0  0  0  0  0  0  0  0  0  0  0  0
   -2.4670   24.2840  -28.9810 C   0  0  0  0  0  0  0  0  0  0  0  0
   -2.7806   24.3494  -27.9287 H   0  0  0  0  0  0  0  0  0  0  0  0
   -2.0602   23.2817  -29.1808 H   0  0  0  0  0  0  0  0  0  0  0  0
   -1.6935   25.0402  -29.1808 H   0  0  0  0  0  0  0  0  0  0  0  0
   -4.6090   23.6080  -30.2090 C   0  0  0  0  0  0  0  0  0  0  0  0
   -4.7031   22.5593  -29.8908 H   0  0  0  0  0  0  0  0  0  0  0  0
   -6.1570   20.5390  -33.3890 C   0  0  0  0  0  0  0  0  0  0  0  0
   -7.0398   20.8066  -33.9883 H   0  0  0  0  0  0  0  0  0  0  0  0
   -5.2320   19.6140  -33.8850 C   0  0  0  0  0  0  0  0  0  0  0  0
   -5.3831   19.1668  -34.8786 H   0  0  0  0  0  0  0  0  0  0  0  0
   -0.6110   20.3500  -34.1290 C   0  0  0  0  0  0  0  0  0  0  0  0
   -1.2080   21.1080  -33.1120 O   0  0  0  0  0  0  0  0  0  0  0  0
   -0.4930   21.5160  -31.9440 C   0  0  0  0  0  0  0  0  0  0  0  0
   -0.0436   22.5037  -32.1241 H   0  0  0  0  0  0  0  0  0  0  0  0
    0.2875   20.7702  -31.7325 H   0  0  0  0  0  0  0  0  0  0  0  0
   -1.4210   21.6030  -30.7380 C   0  0  0  0  0  0  0  0  0  0  0  0
   -0.8272   21.5473  -29.8137 H   0  0  0  0  0  0  0  0  0  0  0  0
   -1.9689   22.5565  -30.7650 H   0  0  0  0  0  0  0  0  0  0  0  0
   -2.1366   20.7680  -30.7650 H   0  0  0  0  0  0  0  0  0  0  0  0
  1  2  1  0
  2  3  1  0
  3  4  2  0
  4  5  1  0
  4  6  1  0
  6  7  1  0
  6  8  2  0
  8  9  1  0
  9 10  1  0
  9 11  1  0
  9 12  1  0
 12 13  1  0
 13 14  1  0
 13 15  1  0
 13 16  1  0
  8 17  1  0
 17 18  1  0
 18 19  1  0
 18 20  1  0
 18 21  1  0
 21 22  1  0
 21 23  1  0
 23 24  2  0
 24 25  1  0
 24 26  1  0
 26 27  1  0
 26 28  2  0
 28 29  1  0
 29 30  2  0
 29 31  2  0
 29 32  1  0
 32 33  2  0
 33 34  1  0
 34 35  1  0
 35 36  1  0
 36 37  1  0
 37 38  1  0
 37 39  1  0
 37 40  1  0
 36 41  2  0
 41 42  1  0
 28 43  1  0
 43 44  1  0
 43 45  2  0
 45 46  1  0
 17 47  2  0
 47 48  1  0
 48 49  1  0
 49 50  1  0
 49 51  1  0
 49 52  1  0
 52 53  1  0
 52 54  1  0
 52 55  1  0
 47  3  1  0
 45 23  1  0
 41 33  1  0
M  CHG  2   5  -1  34  -1
M  END
>  <UniqueID>  (47) 
47

>  <SMILES>  (47) 
CCOc1c(O)c([O-])cc(COC)c1CNc1ccc(S(=O)(=O)/N=c2\cc(C)o[n-]2)cc1

>  <Energy>  (47) 
98.5134646614542

>  <Genealogy>  (47) 
CCOc1c(O)c([O-])cc(COC)c1CNc1ccc(S(=O)(=O)N=c2cc(C)o[n-]2)cc1 (protonated)
CCOc1c(O)c([O-])cc(COC)c1CNc1ccc(S(=O)(=O)/N=c2\cc(C)o[n-]2)cc1 (cis-trans isomerization)
CCOc1c(O)c([O-])cc(COC)c1CNc1ccc(S(=O)(=O)/N=c2\cc(C)o[n-]2)cc1 (3D coordinates assigned)
CCOc1c(O)c([O-])cc(COC)c1CNc1ccc(S(=O)(=O)/N=c2\cc(C)o[n-]2)cc1 (optimized conformer: 98.5134646614542 kcal/mol)

>  <smiles>  (47) 
CCOc1c(O)c(O)cc(COC)c1CNc1ccc(S(=O)(=O)N=c2cc(C)o[nH]2)cc1

>  <score_type>  (47) 
oracle

>  <origin>  (47) 
adgpu

>  <m_score__min__energy>  (47) 
-11.35

>  <m_primary>  (47) 
energy

$$$$
47:0
     RDKit          3D

 51 54  0  0  0  0  0  0  0  0999 V2000
   -9.3570   20.2120  -31.8210 C   0  0  0  0  0  0  0  0  0  0  0  0
   -8.0520   20.8810  -31.5320 C   0  0  0  0  0  0  0  0  0  0  0  0
   -7.0100   20.1810  -31.4180 O   0  0  0  0  0  0  0  0  0  0  0  0
   -7.9840   22.3120  -31.4770 N   0  0  0  0  0  0  0  0  0  0  0  0
   -6.8310   23.0380  -31.0180 C   0  0  0  0  0  0  0  0  0  0  0  0
   -6.4520   24.2160  -31.6770 C   0  0  0  0  0  0  0  0  0  0  0  0
   -5.3470   24.9490  -31.2360 C   0  0  0  0  0  0  0  0  0  0  0  0
   -4.6050   24.5170  -30.1310 C   0  0  0  0  0  0  0  0  0  0  0  0
   -3.4720   25.2890  -29.7120 N   0  0  0  0  0  0  0  0  0  0  0  0
   -2.2370   24.7920  -29.1720 C   0  0  0  0  0  0  0  0  0  0  0  0
   -1.2810   25.5960  -29.0180 O   0  0  0  0  0  0  0  0  0  0  0  0
   -2.0270   23.3450  -28.8250 C   0  0  0  0  0  0  0  0  0  0  0  0
   -0.5040   22.7050  -29.6040 S   0  0  0  0  0  0  0  0  0  0  0  0
   -1.3840   21.5350  -30.6530 C   0  0  0  0  0  0  0  0  0  0  0  0
   -2.5170   21.9560  -31.2650 N   0  0  0  0  0  0  0  0  0  0  0  0
   -3.2450   21.1320  -32.0570 C   0  0  0  0  0  0  0  0  0  0  0  0
   -4.4210   21.5980  -32.6570 C   0  0  0  0  0  0  0  0  0  0  0  0
   -5.1740   20.7480  -33.4730 C   0  0  0  0  0  0  0  0  0  0  0  0
   -4.7530   19.4330  -33.6910 C   0  0  0  0  0  0  0  0  0  0  0  0
   -3.5800   18.9610  -33.0930 C   0  0  0  0  0  0  0  0  0  0  0  0
   -2.8180   19.8100  -32.2680 C   0  0  0  0  0  0  0  0  0  0  0  0
   -1.6390   19.3840  -31.6330 C   0  0  0  0  0  0  0  0  0  0  0  0
   -1.2220   18.2030  -31.8090 O   0  0  0  0  0  0  0  0  0  0  0  0
   -0.9440   20.2470  -30.8260 N   0  0  0  0  0  0  0  0  0  0  0  0
    0.2470   19.7910  -30.1560 C   0  0  0  0  0  0  0  0  0  0  0  0
    1.4400   19.6400  -30.8800 C   0  0  0  0  0  0  0  0  0  0  0  0
    2.6020   19.2000  -30.2410 C   0  0  0  0  0  0  0  0  0  0  0  0
    2.5810   18.9060  -28.8750 C   0  0  0  0  0  0  0  0  0  0  0  0
    1.3970   19.0510  -28.1450 C   0  0  0  0  0  0  0  0  0  0  0  0
    0.2290   19.4910  -28.7790 C   0  0  0  0  0  0  0  0  0  0  0  0
   -1.2400   19.6730  -27.8280 Cl  0  0  0  0  0  0  0  0  0  0  0  0
   -5.0210   23.3750  -29.4280 C   0  0  0  0  0  0  0  0  0  0  0  0
   -6.1190   22.6330  -29.8740 C   0  0  0  0  0  0  0  0  0  0  0  0
   -9.8556   19.9564  -30.8744 H   0  0  0  0  0  0  0  0  0  0  0  0
   -9.9976   20.8929  -32.4007 H   0  0  0  0  0  0  0  0  0  0  0  0
   -9.1782   19.2944  -32.4007 H   0  0  0  0  0  0  0  0  0  0  0  0
   -8.7840   22.8550  -31.8730 H   0  0  0  0  0  0  0  0  0  0  0  0
   -7.0280   24.5654  -32.5466 H   0  0  0  0  0  0  0  0  0  0  0  0
   -5.0586   25.8716  -31.7609 H   0  0  0  0  0  0  0  0  0  0  0  0
   -1.9429   23.2447  -27.7328 H   0  0  0  0  0  0  0  0  0  0  0  0
   -2.8841   22.7652  -29.1981 H   0  0  0  0  0  0  0  0  0  0  0  0
   -4.7527   22.6329  -32.4865 H   0  0  0  0  0  0  0  0  0  0  0  0
   -6.0982   21.1144  -33.9437 H   0  0  0  0  0  0  0  0  0  0  0  0
   -5.3462   18.7672  -34.3350 H   0  0  0  0  0  0  0  0  0  0  0  0
   -3.2526   17.9255  -33.2675 H   0  0  0  0  0  0  0  0  0  0  0  0
    1.4602   19.8692  -31.9557 H   0  0  0  0  0  0  0  0  0  0  0  0
    3.5341   19.0849  -30.8136 H   0  0  0  0  0  0  0  0  0  0  0  0
    3.4968   18.5601  -28.3734 H   0  0  0  0  0  0  0  0  0  0  0  0
    1.3834   18.8187  -27.0699 H   0  0  0  0  0  0  0  0  0  0  0  0
   -4.4806   23.0626  -28.5222 H   0  0  0  0  0  0  0  0  0  0  0  0
   -6.4274   21.7290  -29.3283 H   0  0  0  0  0  0  0  0  0  0  0  0
  1  2  1  0
  2  3  2  0
  2  4  1  0
  4  5  1  0
  5  6  2  0
  6  7  1  0
  7  8  2  0
  8  9  1  0
  9 10  1  0
 10 11  2  0
 10 12  1  0
 12 13  1  0
 13 14  1  0
 14 15  2  0
 15 16  1  0
 16 17  2  0
 17 18  1  0
 18 19  2  0
 19 20  1  0
 20 21  2  0
 21 22  1  0
 22 23  2  0
 22 24  1  0
 24 25  1  0
 25 26  2  0
 26 27  1  0
 27 28  2  0
 28 29  1  0
 29 30  2  0
 30 31  1  0
  8 32  1  0
 32 33  2  0
 33  5  1  0
 24 14  1  0
 30 25  1  0
 21 16  1  0
  1 34  1  0
  1 35  1  0
  1 36  1  0
  4 37  1  0
  6 38  1  0
  7 39  1  0
 12 40  1  0
 12 41  1  0
 17 42  1  0
 18 43  1  0
 19 44  1  0
 20 45  1  0
 26 46  1  0
 27 47  1  0
 28 48  1  0
 29 49  1  0
 32 50  1  0
 33 51  1  0
M  CHG  1   9  -1
M  END
>  <UniqueID>  (48) 
48

>  <SMILES>  (48) 
CC(=O)Nc1ccc([N-]C(=O)CSc2nc3ccccc3c(=O)n2-c2ccccc2Cl)cc1

>  <Energy>  (48) 
70.8219255936595

>  <Genealogy>  (48) 
CC(=O)Nc1ccc([N-]C(=O)CSc2nc3ccccc3c(=O)n2-c2ccccc2Cl)cc1 (protonated)
CC(=O)Nc1ccc([N-]C(=O)CSc2nc3ccccc3c(=O)n2-c2ccccc2Cl)cc1 (3D coordinates assigned)
CC(=O)Nc1ccc([N-]C(=O)CSc2nc3ccccc3c(=O)n2-c2ccccc2Cl)cc1 (optimized conformer: 70.8219255936595 kcal/mol)

>  <smiles>  (48) 
CC(=O)Nc1ccc(NC(=O)CSc2nc3ccccc3c(=O)n2-c2ccccc2Cl)cc1

>  <score_type>  (48) 
oracle

>  <origin>  (48) 
adgpu

>  <m_score__min__energy>  (48) 
-12.51

>  <m_primary>  (48) 
energy

$$$$
48:0
     RDKit          3D

 38 40  0  0  0  0  0  0  0  0999 V2000
   -5.3760   26.2410  -28.9800 H   0  0  0  0  0  0  0  0  0  0  0  0
   -5.9940   25.6640  -29.5380 O   0  0  0  0  0  0  0  0  0  0  0  0
   -5.5260   24.5820  -30.2830 C   0  0  0  0  0  0  0  0  0  0  0  0
   -6.4450   23.6810  -30.8250 C   0  0  0  0  0  0  0  0  0  0  0  0
   -7.5209   23.8331  -30.6541 H   0  0  0  0  0  0  0  0  0  0  0  0
   -6.0120   22.5840  -31.5850 C   0  0  0  0  0  0  0  0  0  0  0  0
   -7.0310   21.6660  -32.1360 C   0  0  0  0  0  0  0  0  0  0  0  0
   -8.1950   22.1110  -32.3330 O   0  0  0  0  0  0  0  0  0  0  0  0
   -6.7110   20.2610  -32.4940 C   0  0  0  0  0  0  0  0  0  0  0  0
   -6.6660   19.2540  -31.5090 C   0  0  0  0  0  0  0  0  0  0  0  0
   -6.8712   19.5075  -30.4585 H   0  0  0  0  0  0  0  0  0  0  0  0
   -6.3620   17.9340  -31.8590 C   0  0  0  0  0  0  0  0  0  0  0  0
   -6.3332   17.1536  -31.0844 H   0  0  0  0  0  0  0  0  0  0  0  0
   -6.0950   17.6050  -33.1900 C   0  0  0  0  0  0  0  0  0  0  0  0
   -5.7930   16.2930  -33.5350 O   0  0  0  0  0  0  0  0  0  0  0  0
   -6.1290   18.5970  -34.1740 C   0  0  0  0  0  0  0  0  0  0  0  0
   -5.9160   18.3382  -35.2217 H   0  0  0  0  0  0  0  0  0  0  0  0
   -6.4330   19.9170  -33.8300 C   0  0  0  0  0  0  0  0  0  0  0  0
   -6.4551   20.6929  -34.6094 H   0  0  0  0  0  0  0  0  0  0  0  0
   -4.6260   22.3620  -31.7650 C   0  0  0  0  0  0  0  0  0  0  0  0
   -4.1300   21.1780  -32.5130 C   0  0  0  0  0  0  0  0  0  0  0  0
   -4.6564   20.8897  -33.4349 H   0  0  0  0  0  0  0  0  0  0  0  0
   -3.1070   20.4610  -32.1400 N   0  0  0  0  0  0  0  0  0  0  0  0
   -2.3650   20.6130  -30.9220 C   0  0  0  0  0  0  0  0  0  0  0  0
   -3.0480   20.5400  -29.7000 C   0  0  0  0  0  0  0  0  0  0  0  0
   -4.1356   20.3754  -29.6907 H   0  0  0  0  0  0  0  0  0  0  0  0
   -2.3560   20.6750  -28.4940 C   0  0  0  0  0  0  0  0  0  0  0  0
   -2.8962   20.5985  -27.5389 H   0  0  0  0  0  0  0  0  0  0  0  0
   -0.9790   20.9070  -28.5000 C   0  0  0  0  0  0  0  0  0  0  0  0
   -0.4337   21.0033  -27.5495 H   0  0  0  0  0  0  0  0  0  0  0  0
   -0.2930   21.0170  -29.7130 C   0  0  0  0  0  0  0  0  0  0  0  0
    0.7900   21.2096  -29.7144 H   0  0  0  0  0  0  0  0  0  0  0  0
   -0.9790   20.8830  -30.9260 C   0  0  0  0  0  0  0  0  0  0  0  0
   -0.0930   21.1280  -32.4260 Cl  0  0  0  0  0  0  0  0  0  0  0  0
   -3.7110   23.2910  -31.2390 C   0  0  0  0  0  0  0  0  0  0  0  0
   -2.6338   23.1514  -31.4125 H   0  0  0  0  0  0  0  0  0  0  0  0
   -4.1550   24.3900  -30.4980 C   0  0  0  0  0  0  0  0  0  0  0  0
   -3.2260   25.2850  -29.9800 O   0  0  0  0  0  0  0  0  0  0  0  0
  1  2  1  0
  2  3  1  0
  3  4  2  0
  4  5  1  0
  4  6  1  0
  6  7  1  0
  7  8  2  0
  7  9  1  0
  9 10  2  0
 10 11  1  0
 10 12  1  0
 12 13  1  0
 12 14  2  0
 14 15  1  0
 14 16  1  0
 16 17  1  0
 16 18  2  0
 18 19  1  0
  6 20  2  0
 20 21  1  0
 21 22  1  0
 21 23  2  0
 23 24  1  0
 24 25  2  0
 25 26  1  0
 25 27  1  0
 27 28  1  0
 27 29  2  0
 29 30  1  0
 29 31  1  0
 31 32  1  0
 31 33  2  0
 33 34  1  0
 20 35  1  0
 35 36  1  0
 35 37  2  0
 37 38  1  0
 37  3  1  0
 18  9  1  0
 33 24  1  0
M  CHG  2  15  -1  38  -1
M  END
>  <UniqueID>  (49) 
49

>  <SMILES>  (49) 
O=C(c1ccc([O-])cc1)c1cc(O)c([O-])cc1/C=N\c1ccccc1Cl

>  <Energy>  (49) 
63.72403446166583

>  <Genealogy>  (49) 
O=C(c1ccc([O-])cc1)c1cc(O)c([O-])cc1C=Nc1ccccc1Cl (protonated)
O=C(c1ccc([O-])cc1)c1cc(O)c([O-])cc1/C=N\c1ccccc1Cl (cis-trans isomerization)
O=C(c1ccc([O-])cc1)c1cc(O)c([O-])cc1/C=N\c1ccccc1Cl (3D coordinates assigned)
O=C(c1ccc([O-])cc1)c1cc(O)c([O-])cc1/C=N\c1ccccc1Cl (optimized conformer: 63.72403446166583 kcal/mol)

>  <smiles>  (49) 
O=C(c1ccc(O)cc1)c1cc(O)c(O)cc1C=Nc1ccccc1Cl

>  <score_type>  (49) 
oracle

>  <origin>  (49) 
adgpu

>  <m_score__min__energy>  (49) 
-10.9

>  <m_primary>  (49) 
energy

$$$$
49:0
     RDKit          3D

 55 57  0  0  0  0  0  0  0  0999 V2000
   -5.6410   25.4810  -30.0220 C   0  0  0  0  0  0  0  0  0  0  0  0
   -4.9360   24.9960  -31.1420 O   0  0  0  0  0  0  0  0  0  0  0  0
   -5.6390   23.9220  -31.7430 C   0  0  0  0  0  0  0  0  0  0  0  0
   -6.9540   23.6880  -30.9970 C   0  0  0  0  0  0  0  0  0  0  0  0
   -7.6680   22.4760  -31.5360 C   0  0  0  0  0  0  0  0  0  0  0  0
   -9.0690   22.4100  -31.5160 C   0  0  0  0  0  0  0  0  0  0  0  0
   -9.7270   21.2680  -31.9720 C   0  0  0  0  0  0  0  0  0  0  0  0
   -8.9960   20.1690  -32.4450 C   0  0  0  0  0  0  0  0  0  0  0  0
   -9.6680   19.0430  -32.9240 O   0  0  0  0  0  0  0  0  0  0  0  0
   -7.5870   20.2140  -32.4490 C   0  0  0  0  0  0  0  0  0  0  0  0
   -6.7870   19.0580  -32.9180 C   0  0  0  0  0  0  0  0  0  0  0  0
   -7.3810   17.7920  -33.0560 C   0  0  0  0  0  0  0  0  0  0  0  0
   -6.6240   16.7000  -33.4880 C   0  0  0  0  0  0  0  0  0  0  0  0
   -5.2680   16.8570  -33.7820 C   0  0  0  0  0  0  0  0  0  0  0  0
   -4.6560   18.1140  -33.6440 C   0  0  0  0  0  0  0  0  0  0  0  0
   -3.1940   18.2870  -33.9690 C   0  0  0  0  0  0  0  0  0  0  0  0
   -2.8480   19.6700  -34.0640 O   0  0  0  0  0  0  0  0  0  0  0  0
   -2.2550   20.4300  -33.0410 C   0  0  0  0  0  0  0  0  0  0  0  0
   -0.9390   20.1330  -32.6770 C   0  0  0  0  0  0  0  0  0  0  0  0
   -0.2930   20.8680  -31.6820 C   0  0  0  0  0  0  0  0  0  0  0  0
   -0.9590   21.9190  -31.0240 C   0  0  0  0  0  0  0  0  0  0  0  0
   -0.3400   22.6820  -30.0180 O   0  0  0  0  0  0  0  0  0  0  0  0
   -0.9700   23.1480  -28.8250 C   0  0  0  0  0  0  0  0  0  0  0  0
   -0.9900   24.6440  -28.7870 C   0  0  0  0  0  0  0  0  0  0  0  0
   -1.9180   25.2780  -29.3570 O   0  0  0  0  0  0  0  0  0  0  0  0
   -0.0130   25.3380  -28.0860 O   0  0  0  0  0  0  0  0  0  0  0  0
   -2.2880   22.2180  -31.3810 C   0  0  0  0  0  0  0  0  0  0  0  0
   -2.9960   23.2820  -30.7320 N   0  0  0  0  0  0  0  0  0  0  0  0
   -2.9300   21.4730  -32.3820 C   0  0  0  0  0  0  0  0  0  0  0  0
   -5.4280   19.2150  -33.2370 C   0  0  0  0  0  0  0  0  0  0  0  0
   -6.9330   21.3730  -31.9980 C   0  0  0  0  0  0  0  0  0  0  0  0
   -5.1455   25.1401  -29.1010 H   0  0  0  0  0  0  0  0  0  0  0  0
   -5.6548   26.5807  -30.0455 H   0  0  0  0  0  0  0  0  0  0  0  0
   -6.6729   25.1008  -30.0455 H   0  0  0  0  0  0  0  0  0  0  0  0
   -5.8528   24.1669  -32.7939 H   0  0  0  0  0  0  0  0  0  0  0  0
   -5.0246   23.0108  -31.6949 H   0  0  0  0  0  0  0  0  0  0  0  0
   -6.7401   23.5349  -29.9289 H   0  0  0  0  0  0  0  0  0  0  0  0
   -7.5993   24.5678  -31.1367 H   0  0  0  0  0  0  0  0  0  0  0  0
   -9.6517   23.2633  -31.1387 H   0  0  0  0  0  0  0  0  0  0  0  0
  -10.8263   21.2292  -31.9605 H   0  0  0  0  0  0  0  0  0  0  0  0
   -9.8640   18.9190  -33.9110 H   0  0  0  0  0  0  0  0  0  0  0  0
   -8.4478   17.6600  -32.8226 H   0  0  0  0  0  0  0  0  0  0  0  0
   -7.0978   15.7133  -33.5969 H   0  0  0  0  0  0  0  0  0  0  0  0
   -4.6772   15.9939  -34.1227 H   0  0  0  0  0  0  0  0  0  0  0  0
   -2.5920   17.8198  -33.1757 H   0  0  0  0  0  0  0  0  0  0  0  0
   -2.9930   17.8093  -34.9393 H   0  0  0  0  0  0  0  0  0  0  0  0
   -0.4070   19.3118  -33.1796 H   0  0  0  0  0  0  0  0  0  0  0  0
    0.7445   20.6241  -31.4099 H   0  0  0  0  0  0  0  0  0  0  0  0
   -2.0032   22.7721  -28.7918 H   0  0  0  0  0  0  0  0  0  0  0  0
   -0.4019   22.7798  -27.9580 H   0  0  0  0  0  0  0  0  0  0  0  0
   -2.5130   24.1790  -30.5020 H   0  0  0  0  0  0  0  0  0  0  0  0
   -4.0030   23.1880  -30.4700 H   0  0  0  0  0  0  0  0  0  0  0  0
   -3.9700   21.7068  -32.6535 H   0  0  0  0  0  0  0  0  0  0  0  0
   -4.9637   20.2098  -33.1674 H   0  0  0  0  0  0  0  0  0  0  0  0
   -5.8339   21.4164  -32.0071 H   0  0  0  0  0  0  0  0  0  0  0  0
  1  2  1  0
  2  3  1  0
  3  4  1  0
  4  5  1  0
  5  6  2  0
  6  7  1  0
  7  8  2  0
  8  9  1  0
  8 10  1  0
 10 11  1  0
 11 12  2  0
 12 13  1  0
 13 14  2  0
 14 15  1  0
 15 16  1  0
 16 17  1  0
 17 18  1  0
 18 19  2  0
 19 20  1  0
 20 21  2  0
 21 22  1  0
 22 23  1  0
 23 24  1  0
 24 25  2  0
 24 26  1  0
 21 27  1  0
 27 28  1  0
 27 29  2  0
 15 30  2  0
 10 31  2  0
 31  5  1  0
 30 11  1  0
 29 18  1  0
  1 32  1  0
  1 33  1  0
  1 34  1  0
  3 35  1  0
  3 36  1  0
  4 37  1  0
  4 38  1  0
  6 39  1  0
  7 40  1  0
  9 41  1  0
 12 42  1  0
 13 43  1  0
 14 44  1  0
 16 45  1  0
 16 46  1  0
 19 47  1  0
 20 48  1  0
 23 49  1  0
 23 50  1  0
 28 51  1  0
 28 52  1  0
 29 53  1  0
 30 54  1  0
 31 55  1  0
M  CHG  1  26  -1
M  END
>  <UniqueID>  (50) 
50

>  <SMILES>  (50) 
COCCc1ccc(O)c(-c2cccc(COc3ccc(OCC(=O)[O-])c(N)c3)c2)c1

>  <Energy>  (50) 
60.6534080438651

>  <Genealogy>  (50) 
COCCc1ccc(O)c(-c2cccc(COc3ccc(OCC(=O)[O-])c(N)c3)c2)c1 (protonated)
COCCc1ccc(O)c(-c2cccc(COc3ccc(OCC(=O)[O-])c(N)c3)c2)c1 (3D coordinates assigned)
COCCc1ccc(O)c(-c2cccc(COc3ccc(OCC(=O)[O-])c(N)c3)c2)c1 (optimized conformer: 60.6534080438651 kcal/mol)

>  <smiles>  (50) 
COCCc1ccc(O)c(-c2cccc(COc3ccc(OCC(=O)O)c(N)c3)c2)c1

>  <score_type>  (50) 
oracle

>  <origin>  (50) 
adgpu

>  <m_score__min__energy>  (50) 
-11.34

>  <m_primary>  (50) 
energy

$$$$
