0:0
     RDKit          3D

 46 47  0  0  0  0  0  0  0  0999 V2000
   -4.5340   17.6140  -34.9550 C   0  0  0  0  0  0  0  0  0  0  0  0
   -5.4230   17.2530  -33.9020 O   0  0  0  0  0  0  0  0  0  0  0  0
   -6.3220   18.1370  -33.2870 C   0  0  0  0  0  0  0  0  0  0  0  0
   -7.1120   17.7630  -32.1820 C   0  0  0  0  0  0  0  0  0  0  0  0
   -7.9970   18.6810  -31.6080 C   0  0  0  0  0  0  0  0  0  0  0  0
   -8.1290   19.9730  -32.1440 C   0  0  0  0  0  0  0  0  0  0  0  0
   -9.0310   20.9690  -31.5320 C   0  0  0  0  0  0  0  0  0  0  0  0
   -8.7960   22.2900  -31.4590 C   0  0  0  0  0  0  0  0  0  0  0  0
   -7.5370   22.9660  -31.8280 C   0  0  0  0  0  0  0  0  0  0  0  0
   -7.4070   23.5410  -32.9440 O   0  0  0  0  0  0  0  0  0  0  0  0
   -6.4620   22.9120  -30.9340 O   0  0  0  0  0  0  0  0  0  0  0  0
   -5.8940   24.0710  -30.3270 C   0  0  0  0  0  0  0  0  0  0  0  0
   -4.4310   24.1680  -30.6550 C   0  0  0  0  0  0  0  0  0  0  0  0
   -3.8960   25.3050  -30.7430 O   0  0  0  0  0  0  0  0  0  0  0  0
   -3.6090   22.9510  -30.8590 C   0  0  0  0  0  0  0  0  0  0  0  0
   -3.7110   22.1860  -32.0390 C   0  0  0  0  0  0  0  0  0  0  0  0
   -4.5850   22.6250  -33.1000 N   0  0  0  0  0  0  0  0  0  0  0  0
   -2.9610   21.0420  -32.1760 N   0  0  0  0  0  0  0  0  0  0  0  0
   -3.0570   20.2470  -33.4160 C   0  0  0  0  0  0  0  0  0  0  0  0
   -2.1240   20.6380  -31.1630 C   0  0  0  0  0  0  0  0  0  0  0  0
   -1.4770   19.5570  -31.2750 O   0  0  0  0  0  0  0  0  0  0  0  0
   -1.9870   21.3890  -30.0250 N   0  0  0  0  0  0  0  0  0  0  0  0
   -1.0910   20.9350  -28.9460 C   0  0  0  0  0  0  0  0  0  0  0  0
   -2.7390   22.5170  -29.8510 C   0  0  0  0  0  0  0  0  0  0  0  0
   -2.6730   23.1620  -28.7660 O   0  0  0  0  0  0  0  0  0  0  0  0
   -7.3190   20.3520  -33.2220 C   0  0  0  0  0  0  0  0  0  0  0  0
   -6.4290   19.4380  -33.7940 C   0  0  0  0  0  0  0  0  0  0  0  0
   -3.5949   17.9953  -34.5275 H   0  0  0  0  0  0  0  0  0  0  0  0
   -4.3224   16.7306  -35.5753 H   0  0  0  0  0  0  0  0  0  0  0  0
   -4.9982   18.3949  -35.5753 H   0  0  0  0  0  0  0  0  0  0  0  0
   -7.0324   16.7463  -31.7697 H   0  0  0  0  0  0  0  0  0  0  0  0
   -8.5937   18.3897  -30.7311 H   0  0  0  0  0  0  0  0  0  0  0  0
   -9.9728   20.5992  -31.1003 H   0  0  0  0  0  0  0  0  0  0  0  0
   -9.6157   22.9246  -31.0911 H   0  0  0  0  0  0  0  0  0  0  0  0
   -6.4101   24.9670  -30.7023 H   0  0  0  0  0  0  0  0  0  0  0  0
   -6.0118   23.9973  -29.2358 H   0  0  0  0  0  0  0  0  0  0  0  0
   -4.2560   22.7450  -34.0820 H   0  0  0  0  0  0  0  0  0  0  0  0
   -5.5870   22.8580  -32.9260 H   0  0  0  0  0  0  0  0  0  0  0  0
   -3.1853   19.1846  -33.1614 H   0  0  0  0  0  0  0  0  0  0  0  0
   -3.9203   20.5897  -34.0053 H   0  0  0  0  0  0  0  0  0  0  0  0
   -2.1370   20.3743  -34.0053 H   0  0  0  0  0  0  0  0  0  0  0  0
   -1.5453   21.1652  -27.9710 H   0  0  0  0  0  0  0  0  0  0  0  0
   -0.9355   19.8494  -29.0309 H   0  0  0  0  0  0  0  0  0  0  0  0
   -0.1236   21.4517  -29.0309 H   0  0  0  0  0  0  0  0  0  0  0  0
   -7.3835   21.3750  -33.6210 H   0  0  0  0  0  0  0  0  0  0  0  0
   -5.8079   19.7432  -34.6490 H   0  0  0  0  0  0  0  0  0  0  0  0
  1  2  1  0
  2  3  1  0
  3  4  2  0
  4  5  1  0
  5  6  2  0
  6  7  1  0
  7  8  2  3
  8  9  1  0
  9 10  2  0
  9 11  1  0
 11 12  1  0
 12 13  1  0
 13 14  2  0
 13 15  1  0
 15 16  2  0
 16 17  1  0
 16 18  1  0
 18 19  1  0
 18 20  1  0
 20 21  2  0
 20 22  1  0
 22 23  1  0
 22 24  1  0
 24 25  2  0
  6 26  1  0
 26 27  2  0
 27  3  1  0
 24 15  1  0
  1 28  1  0
  1 29  1  0
  1 30  1  0
  4 31  1  0
  5 32  1  0
  7 33  1  0
  8 34  1  0
 12 35  1  0
 12 36  1  0
 17 37  1  0
 17 38  1  0
 19 39  1  0
 19 40  1  0
 19 41  1  0
 23 42  1  0
 23 43  1  0
 23 44  1  0
 26 45  1  0
 27 46  1  0
M  END
>  <UniqueID>  (1) 
1

>  <SMILES>  (1) 
COc1ccc(C=CC(=O)OCC(=O)c2c(N)n(C)c(=O)n(C)c2=O)cc1

>  <Energy>  (1) 
67.21384063252047

>  <Genealogy>  (1) 
COc1ccc(C=CC(=O)OCC(=O)c2c(N)n(C)c(=O)n(C)c2=O)cc1 (3D coordinates assigned)
COc1ccc(C=CC(=O)OCC(=O)c2c(N)n(C)c(=O)n(C)c2=O)cc1 (optimized conformer: 67.21384063252047 kcal/mol)

>  <smiles>  (1) 
COc1ccc(C=CC(=O)OCC(=O)c2c(N)n(C)c(=O)n(C)c2=O)cc1

>  <score_type>  (1) 
oracle

>  <origin>  (1) 
adgpu

>  <m_score__min__energy>  (1) 
-8.0099999999999998

>  <m_primary>  (1) 
energy

$$$$
1:0
     RDKit          3D

 71 74  0  0  0  0  0  0  0  0999 V2000
   -2.4810   19.7420  -27.1220 C   0  0  0  0  0  0  0  0  0  0  0  0
   -1.2310   20.5960  -27.3320 C   0  0  0  0  0  0  0  0  0  0  0  0
   -1.2120   21.2830  -28.7060 C   0  0  0  0  0  0  0  0  0  0  0  0
   -1.7820   22.6380  -28.6410 N   0  0  0  0  0  0  0  0  0  0  0  0
   -1.0060   23.7280  -28.0280 C   0  0  0  0  0  0  0  0  0  0  0  0
   -1.0140   24.9480  -28.9480 C   0  0  0  0  0  0  0  0  0  0  0  0
   -2.3560   25.2980  -29.2830 O   0  0  0  0  0  0  0  0  0  0  0  0
   -3.3230   24.3210  -29.5510 C   0  0  0  0  0  0  0  0  0  0  0  0
   -4.5530   24.6920  -30.1020 C   0  0  0  0  0  0  0  0  0  0  0  0
   -5.5180   23.7250  -30.4040 C   0  0  0  0  0  0  0  0  0  0  0  0
   -6.7300   24.1530  -30.9700 O   0  0  0  0  0  0  0  0  0  0  0  0
   -7.2080   23.7930  -32.2670 C   0  0  0  0  0  0  0  0  0  0  0  0
   -7.7230   22.3780  -32.2660 C   0  0  0  0  0  0  0  0  0  0  0  0
   -9.0270   22.0900  -31.8300 C   0  0  0  0  0  0  0  0  0  0  0  0
   -9.4940   20.7740  -31.8310 C   0  0  0  0  0  0  0  0  0  0  0  0
   -8.6680   19.7350  -32.2710 C   0  0  0  0  0  0  0  0  0  0  0  0
   -7.3640   20.0090  -32.7110 C   0  0  0  0  0  0  0  0  0  0  0  0
   -6.4940   18.9160  -33.2040 C   0  0  0  0  0  0  0  0  0  0  0  0
   -6.0930   18.9340  -34.5480 C   0  0  0  0  0  0  0  0  0  0  0  0
   -5.3060   17.9080  -35.0710 C   0  0  0  0  0  0  0  0  0  0  0  0
   -4.9000   16.8380  -34.2530 C   0  0  0  0  0  0  0  0  0  0  0  0
   -4.1270   15.7660  -34.7310 O   0  0  0  0  0  0  0  0  0  0  0  0
   -2.7010   15.7330  -34.7880 C   0  0  0  0  0  0  0  0  0  0  0  0
   -2.1010   16.7600  -33.8200 C   0  0  0  0  0  0  0  0  0  0  0  0
   -1.8310   18.1140  -34.4870 C   0  0  0  0  0  0  0  0  0  0  0  0
   -2.1850   19.5150  -33.4220 S   0  0  0  0  0  0  0  0  0  0  0  0
   -0.8860   20.7320  -33.5190 C   0  0  0  0  0  0  0  0  0  0  0  0
   -2.2730   19.0260  -32.0050 O   0  0  0  0  0  0  0  0  0  0  0  0
   -3.4920   20.1520  -33.8010 O   0  0  0  0  0  0  0  0  0  0  0  0
   -5.2840   16.8250  -32.9080 C   0  0  0  0  0  0  0  0  0  0  0  0
   -6.0620   17.8610  -32.3650 C   0  0  0  0  0  0  0  0  0  0  0  0
   -6.4360   17.8000  -30.9070 C   0  0  0  0  0  0  0  0  0  0  0  0
   -6.9000   21.3340  -32.7170 C   0  0  0  0  0  0  0  0  0  0  0  0
   -5.2410   22.3730  -30.1340 C   0  0  0  0  0  0  0  0  0  0  0  0
   -4.0190   21.9980  -29.5680 C   0  0  0  0  0  0  0  0  0  0  0  0
   -3.0500   22.9710  -29.2590 C   0  0  0  0  0  0  0  0  0  0  0  0
   -2.6632   19.6175  -26.0444 H   0  0  0  0  0  0  0  0  0  0  0  0
   -3.3464   20.2385  -27.5852 H   0  0  0  0  0  0  0  0  0  0  0  0
   -2.3331   18.7553  -27.5852 H   0  0  0  0  0  0  0  0  0  0  0  0
   -1.1967   21.3693  -26.5504 H   0  0  0  0  0  0  0  0  0  0  0  0
   -0.3578   19.9291  -27.2796 H   0  0  0  0  0  0  0  0  0  0  0  0
   -0.1719   21.3496  -29.0577 H   0  0  0  0  0  0  0  0  0  0  0  0
   -1.8228   20.6852  -29.3985 H   0  0  0  0  0  0  0  0  0  0  0  0
   -1.4550   23.9970  -27.0605 H   0  0  0  0  0  0  0  0  0  0  0  0
    0.0310   23.3947  -27.8747 H   0  0  0  0  0  0  0  0  0  0  0  0
   -0.5341   25.7944  -28.4348 H   0  0  0  0  0  0  0  0  0  0  0  0
   -0.4626   24.7090  -29.8693 H   0  0  0  0  0  0  0  0  0  0  0  0
   -4.7640   25.7533  -30.2998 H   0  0  0  0  0  0  0  0  0  0  0  0
   -8.0224   24.4743  -32.5545 H   0  0  0  0  0  0  0  0  0  0  0  0
   -6.3783   23.8688  -32.9853 H   0  0  0  0  0  0  0  0  0  0  0  0
   -9.6824   22.9039  -31.4866 H   0  0  0  0  0  0  0  0  0  0  0  0
  -10.5146   20.5540  -31.4847 H   0  0  0  0  0  0  0  0  0  0  0  0
   -9.0414   18.7003  -32.2722 H   0  0  0  0  0  0  0  0  0  0  0  0
   -6.4026   19.7666  -35.1968 H   0  0  0  0  0  0  0  0  0  0  0  0
   -5.0015   17.9357  -36.1277 H   0  0  0  0  0  0  0  0  0  0  0  0
   -2.3508   14.7275  -34.5118 H   0  0  0  0  0  0  0  0  0  0  0  0
   -2.3800   15.9785  -35.8111 H   0  0  0  0  0  0  0  0  0  0  0  0
   -2.8039   16.9116  -32.9876 H   0  0  0  0  0  0  0  0  0  0  0  0
   -1.1364   16.3634  -33.4705 H   0  0  0  0  0  0  0  0  0  0  0  0
   -0.7706   18.1550  -34.7766 H   0  0  0  0  0  0  0  0  0  0  0  0
   -2.5017   18.1881  -35.3557 H   0  0  0  0  0  0  0  0  0  0  0  0
   -0.5776   21.0209  -32.5034 H   0  0  0  0  0  0  0  0  0  0  0  0
   -0.0253   20.3076  -34.0567 H   0  0  0  0  0  0  0  0  0  0  0  0
   -1.2535   21.6185  -34.0567 H   0  0  0  0  0  0  0  0  0  0  0  0
   -4.9715   15.9894  -32.2646 H   0  0  0  0  0  0  0  0  0  0  0  0
   -5.5364   17.9467  -30.2912 H   0  0  0  0  0  0  0  0  0  0  0  0
   -7.1669   18.5908  -30.6826 H   0  0  0  0  0  0  0  0  0  0  0  0
   -6.8778   16.8179  -30.6826 H   0  0  0  0  0  0  0  0  0  0  0  0
   -5.8847   21.5556  -33.0775 H   0  0  0  0  0  0  0  0  0  0  0  0
   -5.9918   21.6045  -30.3700 H   0  0  0  0  0  0  0  0  0  0  0  0
   -3.8136   20.9370  -29.3630 H   0  0  0  0  0  0  0  0  0  0  0  0
  1  2  1  0
  2  3  1  0
  3  4  1  0
  4  5  1  0
  5  6  1  0
  6  7  1  0
  7  8  1  0
  8  9  2  0
  9 10  1  0
 10 11  1  0
 11 12  1  0
 12 13  1  0
 13 14  2  0
 14 15  1  0
 15 16  2  0
 16 17  1  0
 17 18  1  0
 18 19  2  0
 19 20  1  0
 20 21  2  0
 21 22  1  0
 22 23  1  0
 23 24  1  0
 24 25  1  0
 25 26  1  0
 26 27  1  0
 26 28  2  0
 26 29  2  0
 21 30  1  0
 30 31  2  0
 31 32  1  0
 17 33  2  0
 10 34  2  0
 34 35  1  0
 35 36  2  0
 36  4  1  0
 36  8  1  0
 33 13  1  0
 31 18  1  0
  1 37  1  0
  1 38  1  0
  1 39  1  0
  2 40  1  0
  2 41  1  0
  3 42  1  0
  3 43  1  0
  5 44  1  0
  5 45  1  0
  6 46  1  0
  6 47  1  0
  9 48  1  0
 12 49  1  0
 12 50  1  0
 14 51  1  0
 15 52  1  0
 16 53  1  0
 19 54  1  0
 20 55  1  0
 23 56  1  0
 23 57  1  0
 24 58  1  0
 24 59  1  0
 25 60  1  0
 25 61  1  0
 27 62  1  0
 27 63  1  0
 27 64  1  0
 30 65  1  0
 32 66  1  0
 32 67  1  0
 32 68  1  0
 33 69  1  0
 34 70  1  0
 35 71  1  0
M  END
>  <UniqueID>  (2) 
2

>  <SMILES>  (2) 
CCCN1CCOc2cc(OCc3cccc(-c4ccc(OCCCS(C)(=O)=O)cc4C)c3)ccc21

>  <Energy>  (2) 
69.05399680001563

>  <Genealogy>  (2) 
CCCN1CCOc2cc(OCc3cccc(-c4ccc(OCCCS(C)(=O)=O)cc4C)c3)ccc21 (3D coordinates assigned)
CCCN1CCOc2cc(OCc3cccc(-c4ccc(OCCCS(C)(=O)=O)cc4C)c3)ccc21 (nonaromatic ring conformer: 69.05399680001563 kcal/mol)

>  <smiles>  (2) 
CCCN1CCOc2cc(OCc3cccc(-c4ccc(OCCCS(C)(=O)=O)cc4C)c3)ccc21

>  <score_type>  (2) 
oracle

>  <origin>  (2) 
adgpu

>  <m_score__min__energy>  (2) 
-10.130000000000001

>  <m_primary>  (2) 
energy

$$$$
2:0
     RDKit          3D

 33 34  0  0  0  0  0  0  0  0999 V2000
   -3.0940   25.6730  -30.8160 H   0  0  0  0  0  0  0  0  0  0  0  0
   -4.0820   25.4250  -30.5880 N   0  0  0  0  0  0  0  0  0  0  0  0
   -4.5480   24.2390  -30.8020 C   0  0  0  0  0  0  0  0  0  0  0  0
   -3.7550   23.2780  -31.3400 N   0  0  0  0  0  0  0  0  0  0  0  0
   -4.2370   22.0270  -31.5750 C   0  0  0  0  0  0  0  0  0  0  0  0
   -3.3710   21.0250  -32.1580 N   0  0  0  0  0  0  0  0  0  0  0  0
   -2.0530   21.4280  -32.6610 C   0  0  0  0  0  0  0  0  0  0  0  0
   -1.3836   21.6327  -31.8125 H   0  0  0  0  0  0  0  0  0  0  0  0
   -1.6310   20.6178  -33.2738 H   0  0  0  0  0  0  0  0  0  0  0  0
   -2.1562   22.3356  -33.2738 H   0  0  0  0  0  0  0  0  0  0  0  0
   -3.7930   19.6240  -32.2570 C   0  0  0  0  0  0  0  0  0  0  0  0
   -3.9187   19.2067  -31.2470 H   0  0  0  0  0  0  0  0  0  0  0  0
   -4.7484   19.5663  -32.7991 H   0  0  0  0  0  0  0  0  0  0  0  0
   -3.0284   19.0482  -32.7991 H   0  0  0  0  0  0  0  0  0  0  0  0
   -5.5370   21.7480  -31.2590 N   0  0  0  0  0  0  0  0  0  0  0  0
   -5.9440   20.8020  -31.4300 H   0  0  0  0  0  0  0  0  0  0  0  0
   -6.3330   22.7110  -30.7160 C   0  0  0  0  0  0  0  0  0  0  0  0
   -7.7730   22.4260  -30.4130 C   0  0  0  0  0  0  0  0  0  0  0  0
   -7.8403   21.5092  -29.8089 H   0  0  0  0  0  0  0  0  0  0  0  0
   -8.1937   23.2789  -29.8602 H   0  0  0  0  0  0  0  0  0  0  0  0
   -8.7240   22.1990  -31.9550 S   0  0  0  0  0  0  0  0  0  0  0  0
   -8.1960   20.5030  -32.2180 C   0  0  0  0  0  0  0  0  0  0  0  0
   -8.7050   19.4770  -31.4110 C   0  0  0  0  0  0  0  0  0  0  0  0
   -9.4322   19.7097  -30.6191 H   0  0  0  0  0  0  0  0  0  0  0  0
   -8.2890   18.1580  -31.6120 C   0  0  0  0  0  0  0  0  0  0  0  0
   -8.6828   17.3545  -30.9722 H   0  0  0  0  0  0  0  0  0  0  0  0
   -7.3730   17.8580  -32.6250 C   0  0  0  0  0  0  0  0  0  0  0  0
   -7.0476   16.8191  -32.7823 H   0  0  0  0  0  0  0  0  0  0  0  0
   -6.8700   18.8800  -33.4390 C   0  0  0  0  0  0  0  0  0  0  0  0
   -5.7230   18.5050  -34.7120 Cl  0  0  0  0  0  0  0  0  0  0  0  0
   -7.2830   20.2020  -33.2360 C   0  0  0  0  0  0  0  0  0  0  0  0
   -6.8899   21.0051  -33.8768 H   0  0  0  0  0  0  0  0  0  0  0  0
   -5.8350   23.9530  -30.4930 N   0  0  0  0  0  0  0  0  0  0  0  0
  1  2  1  0
  2  3  2  0
  3  4  1  0
  4  5  2  0
  5  6  1  0
  6  7  1  0
  7  8  1  0
  7  9  1  0
  7 10  1  0
  6 11  1  0
 11 12  1  0
 11 13  1  0
 11 14  1  0
  5 15  1  0
 15 16  1  0
 15 17  1  0
 17 18  1  0
 18 19  1  0
 18 20  1  0
 18 21  1  0
 21 22  1  0
 22 23  2  0
 23 24  1  0
 23 25  1  0
 25 26  1  0
 25 27  2  0
 27 28  1  0
 27 29  1  0
 29 30  1  0
 29 31  2  0
 31 32  1  0
 17 33  2  0
 33  3  1  0
 31 22  1  0
M  END
>  <UniqueID>  (3) 
3

>  <SMILES>  (3) 
[H]/N=c1/nc(CSc2cccc(Cl)c2)[nH]c(N(C)C)n1

>  <Energy>  (3) 
25.68194368899798

>  <Genealogy>  (3) 
[H]/N=c1/nc(CSc2cccc(Cl)c2)[nH]c(N(C)C)n1 (cis-trans isomerization)
[H]/N=c1/nc(CSc2cccc(Cl)c2)[nH]c(N(C)C)n1 (3D coordinates assigned)
[H]/N=c1/nc(CSc2cccc(Cl)c2)[nH]c(N(C)C)n1 (optimized conformer: 25.68194368899798 kcal/mol)

>  <smiles>  (3) 
CN(C)c1nc(=N)nc(CSc2cccc(Cl)c2)[nH]1

>  <score_type>  (3) 
oracle

>  <origin>  (3) 
adgpu

>  <m_score__min__energy>  (3) 
-7.8499999999999996

>  <m_primary>  (3) 
energy

$$$$
3:0
     RDKit          3D

 39 41  0  0  0  0  0  0  0  0999 V2000
   -6.4950   18.8910  -33.2470 C   0  0  0  0  0  0  0  0  0  0  0  0
   -5.1660   19.4900  -33.3240 N   0  0  0  0  0  0  0  0  0  0  0  0
   -4.1220   18.8520  -33.8270 N   0  0  0  0  0  0  0  0  0  0  0  0
   -3.0460   19.6610  -33.7200 C   0  0  0  0  0  0  0  0  0  0  0  0
   -1.6870   19.2850  -34.1780 C   0  0  0  0  0  0  0  0  0  0  0  0
   -1.3270   17.9300  -34.2640 C   0  0  0  0  0  0  0  0  0  0  0  0
   -0.0500   17.5560  -34.6930 C   0  0  0  0  0  0  0  0  0  0  0  0
    0.9000   18.5320  -35.0410 C   0  0  0  0  0  0  0  0  0  0  0  0
    2.2590   18.1530  -35.5030 C   0  0  0  0  0  0  0  0  0  0  0  0
    2.6670   16.7850  -35.5880 N   0  0  0  0  0  0  0  0  0  0  0  0
    3.0840   19.0540  -35.8170 O   0  0  0  0  0  0  0  0  0  0  0  0
    0.5360   19.8880  -34.9660 C   0  0  0  0  0  0  0  0  0  0  0  0
   -0.7390   20.2610  -34.5360 C   0  0  0  0  0  0  0  0  0  0  0  0
   -3.4270   20.8550  -33.1250 C   0  0  0  0  0  0  0  0  0  0  0  0
   -4.7840   20.7160  -32.9000 C   0  0  0  0  0  0  0  0  0  0  0  0
   -5.6540   21.7390  -32.2760 C   0  0  0  0  0  0  0  0  0  0  0  0
   -7.0500   21.6010  -32.2900 C   0  0  0  0  0  0  0  0  0  0  0  0
   -7.8600   22.5800  -31.7120 C   0  0  0  0  0  0  0  0  0  0  0  0
   -7.2870   23.7100  -31.1240 C   0  0  0  0  0  0  0  0  0  0  0  0
   -5.8910   23.8780  -31.1150 C   0  0  0  0  0  0  0  0  0  0  0  0
   -5.2840   25.0810  -30.4970 C   0  0  0  0  0  0  0  0  0  0  0  0
   -3.8790   25.3120  -30.5840 N   0  0  0  0  0  0  0  0  0  0  0  0
   -6.0070   25.9160  -29.8880 O   0  0  0  0  0  0  0  0  0  0  0  0
   -5.0820   22.8860  -31.7000 C   0  0  0  0  0  0  0  0  0  0  0  0
   -6.7789   18.7630  -32.1920 H   0  0  0  0  0  0  0  0  0  0  0  0
   -7.2228   19.5481  -33.7455 H   0  0  0  0  0  0  0  0  0  0  0  0
   -6.4847   17.9105  -33.7455 H   0  0  0  0  0  0  0  0  0  0  0  0
   -2.0578   17.1546  -33.9908 H   0  0  0  0  0  0  0  0  0  0  0  0
    0.2133   16.4900  -34.7587 H   0  0  0  0  0  0  0  0  0  0  0  0
    3.6070   16.5460  -35.9720 H   0  0  0  0  0  0  0  0  0  0  0  0
    2.0860   16.0130  -35.1930 H   0  0  0  0  0  0  0  0  0  0  0  0
    1.2633   20.6632  -35.2491 H   0  0  0  0  0  0  0  0  0  0  0  0
   -1.0045   21.3268  -34.4766 H   0  0  0  0  0  0  0  0  0  0  0  0
   -2.7909   21.7199  -32.8855 H   0  0  0  0  0  0  0  0  0  0  0  0
   -7.5083   20.7175  -32.7585 H   0  0  0  0  0  0  0  0  0  0  0  0
   -8.9535   22.4611  -31.7196 H   0  0  0  0  0  0  0  0  0  0  0  0
   -7.9321   24.4736  -30.6649 H   0  0  0  0  0  0  0  0  0  0  0  0
   -3.4930   26.0430  -31.2210 H   0  0  0  0  0  0  0  0  0  0  0  0
   -3.9890   23.0100  -31.7064 H   0  0  0  0  0  0  0  0  0  0  0  0
  1  2  1  0
  2  3  1  0
  3  4  2  0
  4  5  1  0
  5  6  2  0
  6  7  1  0
  7  8  2  0
  8  9  1  0
  9 10  1  0
  9 11  2  0
  8 12  1  0
 12 13  2  0
  4 14  1  0
 14 15  2  0
 15 16  1  0
 16 17  2  0
 17 18  1  0
 18 19  2  0
 19 20  1  0
 20 21  1  0
 21 22  1  0
 21 23  2  0
 20 24  2  0
 15  2  1  0
 24 16  1  0
 13  5  1  0
  1 25  1  0
  1 26  1  0
  1 27  1  0
  6 28  1  0
  7 29  1  0
 10 30  1  0
 10 31  1  0
 12 32  1  0
 13 33  1  0
 14 34  1  0
 17 35  1  0
 18 36  1  0
 19 37  1  0
 22 38  1  0
 24 39  1  0
M  CHG  1  22  -1
M  END
>  <UniqueID>  (4) 
4

>  <SMILES>  (4) 
Cn1nc(-c2ccc(C(N)=O)cc2)cc1-c1cccc(C([NH-])=O)c1

>  <Energy>  (4) 
78.84703293718596

>  <Genealogy>  (4) 
Cn1nc(-c2ccc(C(N)=O)cc2)cc1-c1cccc(C([NH-])=O)c1 (protonated)
Cn1nc(-c2ccc(C(N)=O)cc2)cc1-c1cccc(C([NH-])=O)c1 (3D coordinates assigned)
Cn1nc(-c2ccc(C(N)=O)cc2)cc1-c1cccc(C([NH-])=O)c1 (optimized conformer: 78.84703293718596 kcal/mol)

>  <smiles>  (4) 
Cn1nc(-c2ccc(C(N)=O)cc2)cc1-c1cccc(C(N)=O)c1

>  <score_type>  (4) 
oracle

>  <origin>  (4) 
adgpu

>  <m_score__min__energy>  (4) 
-10.43

>  <m_primary>  (4) 
energy

$$$$
4:0
     RDKit          3D

 48 51  0  0  0  0  0  0  0  0999 V2000
    0.6540   23.4210  -25.5370 C   0  0  0  0  0  0  0  0  0  0  0  0
    0.6810   22.9120  -26.8670 O   0  0  0  0  0  0  0  0  0  0  0  0
   -0.4000   22.9730  -27.7590 C   0  0  0  0  0  0  0  0  0  0  0  0
   -1.6050   23.5230  -27.3100 C   0  0  0  0  0  0  0  0  0  0  0  0
   -2.7070   23.6170  -28.1630 C   0  0  0  0  0  0  0  0  0  0  0  0
   -2.6230   23.1500  -29.4860 C   0  0  0  0  0  0  0  0  0  0  0  0
   -3.7520   23.2590  -30.3690 N   0  0  0  0  0  0  0  0  0  0  0  0
   -4.3200   24.4000  -30.8200 C   0  0  0  0  0  0  0  0  0  0  0  0
   -3.8900   25.6750  -30.4740 O   0  0  0  0  0  0  0  0  0  0  0  0
   -5.3550   24.1350  -31.6970 C   0  0  0  0  0  0  0  0  0  0  0  0
   -5.4300   22.7590  -31.7670 C   0  0  0  0  0  0  0  0  0  0  0  0
   -6.3410   22.0260  -32.5980 N   0  0  0  0  0  0  0  0  0  0  0  0
   -6.3170   20.5970  -32.7480 C   0  0  0  0  0  0  0  0  0  0  0  0
   -5.6610   19.9830  -33.8290 C   0  0  0  0  0  0  0  0  0  0  0  0
   -5.6330   18.5910  -33.9410 C   0  0  0  0  0  0  0  0  0  0  0  0
   -6.2400   17.7880  -32.9590 C   0  0  0  0  0  0  0  0  0  0  0  0
   -6.2480   16.3880  -33.0450 O   0  0  0  0  0  0  0  0  0  0  0  0
   -5.1150   15.5750  -33.1950 C   0  0  0  0  0  0  0  0  0  0  0  0
   -4.1590   15.9240  -34.1570 C   0  0  0  0  0  0  0  0  0  0  0  0
   -3.0230   15.1320  -34.3460 C   0  0  0  0  0  0  0  0  0  0  0  0
   -2.8380   13.9770  -33.5800 C   0  0  0  0  0  0  0  0  0  0  0  0
   -3.7970   13.6080  -32.6330 C   0  0  0  0  0  0  0  0  0  0  0  0
   -4.9360   14.3970  -32.4440 C   0  0  0  0  0  0  0  0  0  0  0  0
   -6.8940   18.4000  -31.8850 C   0  0  0  0  0  0  0  0  0  0  0  0
   -6.9230   19.7930  -31.7710 C   0  0  0  0  0  0  0  0  0  0  0  0
   -4.4210   22.2480  -30.9650 C   0  0  0  0  0  0  0  0  0  0  0  0
   -4.1000   20.9030  -30.7980 O   0  0  0  0  0  0  0  0  0  0  0  0
   -1.4160   22.5910  -29.9370 C   0  0  0  0  0  0  0  0  0  0  0  0
   -0.3130   22.5030  -29.0840 C   0  0  0  0  0  0  0  0  0  0  0  0
    0.6983   22.5850  -24.8235 H   0  0  0  0  0  0  0  0  0  0  0  0
    1.5183   24.0831  -25.3802 H   0  0  0  0  0  0  0  0  0  0  0  0
   -0.2755   23.9880  -25.3802 H   0  0  0  0  0  0  0  0  0  0  0  0
   -1.6857   23.8852  -26.2745 H   0  0  0  0  0  0  0  0  0  0  0  0
   -3.6457   24.0589  -27.7974 H   0  0  0  0  0  0  0  0  0  0  0  0
   -5.9846   24.8654  -32.2263 H   0  0  0  0  0  0  0  0  0  0  0  0
   -7.1110   22.5610  -33.0590 H   0  0  0  0  0  0  0  0  0  0  0  0
   -5.1666   20.6027  -34.5916 H   0  0  0  0  0  0  0  0  0  0  0  0
   -5.1339   18.1208  -34.8011 H   0  0  0  0  0  0  0  0  0  0  0  0
   -4.3031   16.8274  -34.7679 H   0  0  0  0  0  0  0  0  0  0  0  0
   -2.2733   15.4178  -35.0985 H   0  0  0  0  0  0  0  0  0  0  0  0
   -1.9388   13.3597  -33.7226 H   0  0  0  0  0  0  0  0  0  0  0  0
   -3.6557   12.6955  -32.0353 H   0  0  0  0  0  0  0  0  0  0  0  0
   -5.6947   14.0966  -31.7063 H   0  0  0  0  0  0  0  0  0  0  0  0
   -7.3898   17.7801  -31.1235 H   0  0  0  0  0  0  0  0  0  0  0  0
   -7.4236   20.2612  -30.9107 H   0  0  0  0  0  0  0  0  0  0  0  0
   -4.1800   20.4420  -29.9020 H   0  0  0  0  0  0  0  0  0  0  0  0
   -1.3386   22.2197  -30.9695 H   0  0  0  0  0  0  0  0  0  0  0  0
    0.6276   22.0647  -29.4488 H   0  0  0  0  0  0  0  0  0  0  0  0
  1  2  1  0
  2  3  1  0
  3  4  2  0
  4  5  1  0
  5  6  2  0
  6  7  1  0
  7  8  1  0
  8  9  1  0
  8 10  2  0
 10 11  1  0
 11 12  1  0
 12 13  1  0
 13 14  2  0
 14 15  1  0
 15 16  2  0
 16 17  1  0
 17 18  1  0
 18 19  2  0
 19 20  1  0
 20 21  2  0
 21 22  1  0
 22 23  2  0
 16 24  1  0
 24 25  2  0
 11 26  2  0
 26 27  1  0
  6 28  1  0
 28 29  2  0
 29  3  1  0
 26  7  1  0
 25 13  1  0
 23 18  1  0
  1 30  1  0
  1 31  1  0
  1 32  1  0
  4 33  1  0
  5 34  1  0
 10 35  1  0
 12 36  1  0
 14 37  1  0
 15 38  1  0
 19 39  1  0
 20 40  1  0
 21 41  1  0
 22 42  1  0
 23 43  1  0
 24 44  1  0
 25 45  1  0
 27 46  1  0
 28 47  1  0
 29 48  1  0
M  CHG  1   9  -1
M  END
>  <UniqueID>  (5) 
5

>  <SMILES>  (5) 
COc1ccc(-n2c([O-])cc(Nc3ccc(Oc4ccccc4)cc3)c2O)cc1

>  <Energy>  (5) 
98.51494584740908

>  <Genealogy>  (5) 
COc1ccc(-n2c([O-])cc(Nc3ccc(Oc4ccccc4)cc3)c2O)cc1 (protonated)
COc1ccc(-n2c([O-])cc(Nc3ccc(Oc4ccccc4)cc3)c2O)cc1 (3D coordinates assigned)
COc1ccc(-n2c([O-])cc(Nc3ccc(Oc4ccccc4)cc3)c2O)cc1 (optimized conformer: 98.51494584740908 kcal/mol)

>  <smiles>  (5) 
COc1ccc(-n2c(O)cc(Nc3ccc(Oc4ccccc4)cc3)c2O)cc1

>  <score_type>  (5) 
oracle

>  <origin>  (5) 
adgpu

>  <m_score__min__energy>  (5) 
-9.7799999999999994

>  <m_primary>  (5) 
energy

$$$$
5:0
     RDKit          3D

 25 26  0  0  0  0  0  0  0  0999 V2000
   -3.9040   17.8550  -34.5630 C   0  0  0  0  0  0  0  0  0  0  0  0
   -5.2750   17.7320  -33.9830 C   0  0  0  0  0  0  0  0  0  0  0  0
   -6.1050   16.6980  -34.2230 N   0  0  0  0  0  0  0  0  0  0  0  0
   -7.1830   16.8780  -33.4690 N   0  0  0  0  0  0  0  0  0  0  0  0
   -6.9950   18.0220  -32.7840 C   0  0  0  0  0  0  0  0  0  0  0  0
   -7.9990   18.5290  -31.5950 S   0  0  0  0  0  0  0  0  0  0  0  0
   -5.8120   18.5860  -33.0950 N   0  0  0  0  0  0  0  0  0  0  0  0
   -5.1660   19.6690  -32.4700 N   0  0  0  0  0  0  0  0  0  0  0  0
   -5.7200   20.9940  -32.4980 C   0  0  0  0  0  0  0  0  0  0  0  0
   -6.7960   21.2030  -33.1220 O   0  0  0  0  0  0  0  0  0  0  0  0
   -5.0540   22.1260  -31.8100 C   0  0  0  0  0  0  0  0  0  0  0  0
   -3.6930   22.0290  -31.4670 C   0  0  0  0  0  0  0  0  0  0  0  0
   -3.0470   23.0850  -30.8150 C   0  0  0  0  0  0  0  0  0  0  0  0
   -3.7550   24.2450  -30.4890 C   0  0  0  0  0  0  0  0  0  0  0  0
   -3.1120   25.2920  -29.8410 O   0  0  0  0  0  0  0  0  0  0  0  0
   -5.1100   24.3470  -30.8120 C   0  0  0  0  0  0  0  0  0  0  0  0
   -5.7600   23.2960  -31.4650 C   0  0  0  0  0  0  0  0  0  0  0  0
   -3.1664   17.9212  -33.7497 H   0  0  0  0  0  0  0  0  0  0  0  0
   -3.6877   16.9726  -35.1832 H   0  0  0  0  0  0  0  0  0  0  0  0
   -3.8483   18.7618  -35.1832 H   0  0  0  0  0  0  0  0  0  0  0  0
   -4.2180   19.5070  -32.0660 H   0  0  0  0  0  0  0  0  0  0  0  0
   -3.1321   21.1154  -31.7135 H   0  0  0  0  0  0  0  0  0  0  0  0
   -1.9805   23.0021  -30.5587 H   0  0  0  0  0  0  0  0  0  0  0  0
   -5.6680   25.2584  -30.5513 H   0  0  0  0  0  0  0  0  0  0  0  0
   -6.8286   23.3825  -31.7110 H   0  0  0  0  0  0  0  0  0  0  0  0
  1  2  1  0
  2  3  2  0
  3  4  1  0
  4  5  1  0
  5  6  2  0
  5  7  1  0
  7  8  1  0
  8  9  1  0
  9 10  2  0
  9 11  1  0
 11 12  2  0
 12 13  1  0
 13 14  2  0
 14 15  1  0
 14 16  1  0
 16 17  2  0
  7  2  1  0
 17 11  1  0
  1 18  1  0
  1 19  1  0
  1 20  1  0
  8 21  1  0
 12 22  1  0
 13 23  1  0
 16 24  1  0
 17 25  1  0
M  CHG  2   4  -1  15  -1
M  END
>  <UniqueID>  (6) 
6

>  <SMILES>  (6) 
Cc1n[n-]c(=S)n1NC(=O)c1ccc([O-])cc1

>  <Energy>  (6) 
69.23166679769201

>  <Genealogy>  (6) 
Cc1n[n-]c(=S)n1NC(=O)c1ccc([O-])cc1 (protonated)
Cc1n[n-]c(=S)n1NC(=O)c1ccc([O-])cc1 (3D coordinates assigned)
Cc1n[n-]c(=S)n1NC(=O)c1ccc([O-])cc1 (optimized conformer: 69.23166679769201 kcal/mol)

>  <smiles>  (6) 
Cc1n[nH]c(=S)n1NC(=O)c1ccc(O)cc1

>  <score_type>  (6) 
oracle

>  <origin>  (6) 
adgpu

>  <m_score__min__energy>  (6) 
-9.1500000000000004

>  <m_primary>  (6) 
energy

$$$$
6:0
     RDKit          3D

 44 46  0  0  0  0  0  0  0  0999 V2000
   -1.4720   25.6950  -29.3150 N   0  0  0  0  0  0  0  0  0  0  0  0
   -0.9230   24.7760  -27.9590 S   0  0  0  0  0  0  0  0  0  0  0  0
   -1.3410   25.4560  -26.6870 O   0  0  0  0  0  0  0  0  0  0  0  0
    0.5770   24.6950  -27.9920 O   0  0  0  0  0  0  0  0  0  0  0  0
   -1.6240   23.1550  -28.0200 C   0  0  0  0  0  0  0  0  0  0  0  0
   -0.8040   22.0350  -27.8030 C   0  0  0  0  0  0  0  0  0  0  0  0
   -1.3450   20.7470  -27.8290 C   0  0  0  0  0  0  0  0  0  0  0  0
   -2.7080   20.5640  -28.0720 C   0  0  0  0  0  0  0  0  0  0  0  0
   -3.5310   21.6680  -28.3000 C   0  0  0  0  0  0  0  0  0  0  0  0
   -3.0010   22.9730  -28.2780 C   0  0  0  0  0  0  0  0  0  0  0  0
   -3.8280   24.1220  -28.5170 N   0  0  0  0  0  0  0  0  0  0  0  0
   -4.6780   24.4700  -29.9880 S   0  0  0  0  0  0  0  0  0  0  0  0
   -5.9720   25.1560  -29.6570 O   0  0  0  0  0  0  0  0  0  0  0  0
   -3.8520   25.3930  -30.8420 O   0  0  0  0  0  0  0  0  0  0  0  0
   -5.0320   22.9670  -30.8360 C   0  0  0  0  0  0  0  0  0  0  0  0
   -6.3520   22.5910  -31.1170 C   0  0  0  0  0  0  0  0  0  0  0  0
   -6.6130   21.4080  -31.8140 C   0  0  0  0  0  0  0  0  0  0  0  0
   -5.5570   20.5810  -32.2230 C   0  0  0  0  0  0  0  0  0  0  0  0
   -5.8280   19.3400  -32.9800 C   0  0  0  0  0  0  0  0  0  0  0  0
   -4.8690   18.9100  -33.9110 C   0  0  0  0  0  0  0  0  0  0  0  0
   -5.0340   17.7050  -34.5940 C   0  0  0  0  0  0  0  0  0  0  0  0
   -6.1570   16.9140  -34.3600 C   0  0  0  0  0  0  0  0  0  0  0  0
   -7.1290   17.3360  -33.4510 C   0  0  0  0  0  0  0  0  0  0  0  0
   -6.9950   18.5610  -32.7670 C   0  0  0  0  0  0  0  0  0  0  0  0
   -8.0940   18.9880  -31.8140 C   0  0  0  0  0  0  0  0  0  0  0  0
   -9.2490   19.3440  -32.5270 O   0  0  0  0  0  0  0  0  0  0  0  0
   -4.2370   20.9610  -31.9460 C   0  0  0  0  0  0  0  0  0  0  0  0
   -3.9760   22.1500  -31.2560 C   0  0  0  0  0  0  0  0  0  0  0  0
   -2.5160   25.6680  -29.2970 H   0  0  0  0  0  0  0  0  0  0  0  0
    0.2704   22.1729  -27.6115 H   0  0  0  0  0  0  0  0  0  0  0  0
   -0.6961   19.8755  -27.6577 H   0  0  0  0  0  0  0  0  0  0  0  0
   -3.1331   19.5495  -28.0837 H   0  0  0  0  0  0  0  0  0  0  0  0
   -4.6025   21.5178  -28.4985 H   0  0  0  0  0  0  0  0  0  0  0  0
   -7.1856   23.2288  -30.7880 H   0  0  0  0  0  0  0  0  0  0  0  0
   -7.6510   21.1245  -32.0426 H   0  0  0  0  0  0  0  0  0  0  0  0
   -3.9800   19.5286  -34.1034 H   0  0  0  0  0  0  0  0  0  0  0  0
   -4.2749   17.3780  -35.3199 H   0  0  0  0  0  0  0  0  0  0  0  0
   -6.2776   15.9582  -34.8909 H   0  0  0  0  0  0  0  0  0  0  0  0
   -8.0105   16.7045  -33.2663 H   0  0  0  0  0  0  0  0  0  0  0  0
   -8.3293   18.1548  -31.1355 H   0  0  0  0  0  0  0  0  0  0  0  0
   -7.7480   19.8587  -31.2376 H   0  0  0  0  0  0  0  0  0  0  0  0
   -9.0290   19.2850  -33.4920 H   0  0  0  0  0  0  0  0  0  0  0  0
   -3.4029   20.3223  -32.2722 H   0  0  0  0  0  0  0  0  0  0  0  0
   -2.9375   22.4436  -31.0430 H   0  0  0  0  0  0  0  0  0  0  0  0
  1  2  1  0
  2  3  2  0
  2  4  2  0
  2  5  1  0
  5  6  2  0
  6  7  1  0
  7  8  2  0
  8  9  1  0
  9 10  2  0
 10 11  1  0
 11 12  1  0
 12 13  2  0
 12 14  2  0
 12 15  1  0
 15 16  2  0
 16 17  1  0
 17 18  2  0
 18 19  1  0
 19 20  2  0
 20 21  1  0
 21 22  2  0
 22 23  1  0
 23 24  2  0
 24 25  1  0
 25 26  1  0
 18 27  1  0
 27 28  2  0
 10  5  1  0
 28 15  1  0
 24 19  1  0
  1 29  1  0
  6 30  1  0
  7 31  1  0
  8 32  1  0
  9 33  1  0
 16 34  1  0
 17 35  1  0
 20 36  1  0
 21 37  1  0
 22 38  1  0
 23 39  1  0
 25 40  1  0
 25 41  1  0
 26 42  1  0
 27 43  1  0
 28 44  1  0
M  CHG  2   1  -1  11  -1
M  END
>  <UniqueID>  (7) 
7

>  <SMILES>  (7) 
[NH-]S(=O)(=O)c1ccccc1[N-]S(=O)(=O)c1ccc(-c2ccccc2CO)cc1

>  <Energy>  (7) 
59.84072539553542

>  <Genealogy>  (7) 
[NH-]S(=O)(=O)c1ccccc1[N-]S(=O)(=O)c1ccc(-c2ccccc2CO)cc1 (protonated)
[NH-]S(=O)(=O)c1ccccc1[N-]S(=O)(=O)c1ccc(-c2ccccc2CO)cc1 (3D coordinates assigned)
[NH-]S(=O)(=O)c1ccccc1[N-]S(=O)(=O)c1ccc(-c2ccccc2CO)cc1 (optimized conformer: 59.84072539553542 kcal/mol)

>  <smiles>  (7) 
NS(=O)(=O)c1ccccc1NS(=O)(=O)c1ccc(-c2ccccc2CO)cc1

>  <score_type>  (7) 
oracle

>  <origin>  (7) 
adgpu

>  <m_score__min__energy>  (7) 
-13.48

>  <m_primary>  (7) 
energy

$$$$
7:0
     RDKit          3D

 47 50  0  0  0  0  0  0  0  0999 V2000
   -0.3010   21.1790  -31.1910 C   0  0  0  0  0  0  0  0  0  0  0  0
    0.4620   20.1500  -32.0200 C   0  0  0  0  0  0  0  0  0  0  0  0
    0.0350   20.1930  -33.4290 N   0  0  0  0  0  0  0  0  0  0  0  0
   -1.0790   19.3190  -33.8360 C   0  0  0  0  0  0  0  0  0  0  0  0
   -2.4040   19.8930  -33.3970 C   0  0  0  0  0  0  0  0  0  0  0  0
   -3.3170   19.0970  -32.6850 C   0  0  0  0  0  0  0  0  0  0  0  0
   -4.5500   19.6210  -32.2850 C   0  0  0  0  0  0  0  0  0  0  0  0
   -4.8900   20.9460  -32.5970 C   0  0  0  0  0  0  0  0  0  0  0  0
   -6.1940   21.5010  -32.1720 C   0  0  0  0  0  0  0  0  0  0  0  0
   -7.3490   20.7380  -32.4180 C   0  0  0  0  0  0  0  0  0  0  0  0
   -8.6130   21.2430  -32.1140 C   0  0  0  0  0  0  0  0  0  0  0  0
   -8.7410   22.5170  -31.5640 C   0  0  0  0  0  0  0  0  0  0  0  0
   -7.6060   23.2840  -31.3000 C   0  0  0  0  0  0  0  0  0  0  0  0
   -6.3190   22.7880  -31.5820 C   0  0  0  0  0  0  0  0  0  0  0  0
   -5.1460   23.6140  -31.2040 C   0  0  0  0  0  0  0  0  0  0  0  0
   -5.1120   24.9580  -31.2730 N   0  0  0  0  0  0  0  0  0  0  0  0
   -3.9190   25.2940  -30.8110 N   0  0  0  0  0  0  0  0  0  0  0  0
   -3.2520   24.2050  -30.4650 N   0  0  0  0  0  0  0  0  0  0  0  0
   -3.9950   23.1350  -30.6930 N   0  0  0  0  0  0  0  0  0  0  0  0
   -3.9720   21.7480  -33.2890 C   0  0  0  0  0  0  0  0  0  0  0  0
   -2.7400   21.2250  -33.6890 C   0  0  0  0  0  0  0  0  0  0  0  0
    0.6580   21.1400  -34.3330 C   0  0  0  0  0  0  0  0  0  0  0  0
   -0.0960   21.9350  -35.2230 C   0  0  0  0  0  0  0  0  0  0  0  0
    0.5570   22.8220  -36.0790 C   0  0  0  0  0  0  0  0  0  0  0  0
    1.9510   22.9160  -36.0600 C   0  0  0  0  0  0  0  0  0  0  0  0
    2.6240   23.7940  -36.9070 O   0  0  0  0  0  0  0  0  0  0  0  0
    2.6710   22.1100  -35.1790 C   0  0  0  0  0  0  0  0  0  0  0  0
    2.0170   21.2520  -34.3520 N   0  0  0  0  0  0  0  0  0  0  0  0
   -0.1487   20.9737  -30.1211 H   0  0  0  0  0  0  0  0  0  0  0  0
    0.0693   22.1875  -31.4271 H   0  0  0  0  0  0  0  0  0  0  0  0
   -1.3736   21.1176  -31.4271 H   0  0  0  0  0  0  0  0  0  0  0  0
    1.5388   20.3675  -31.9627 H   0  0  0  0  0  0  0  0  0  0  0  0
    0.2519   19.1477  -31.6183 H   0  0  0  0  0  0  0  0  0  0  0  0
   -1.0757   19.2182  -34.9314 H   0  0  0  0  0  0  0  0  0  0  0  0
   -0.9468   18.3368  -33.3586 H   0  0  0  0  0  0  0  0  0  0  0  0
   -3.0603   18.0556  -32.4409 H   0  0  0  0  0  0  0  0  0  0  0  0
   -5.2563   18.9919  -31.7234 H   0  0  0  0  0  0  0  0  0  0  0  0
   -7.2548   19.7328  -32.8546 H   0  0  0  0  0  0  0  0  0  0  0  0
   -9.5092   20.6355  -32.3084 H   0  0  0  0  0  0  0  0  0  0  0  0
   -9.7396   22.9189  -31.3374 H   0  0  0  0  0  0  0  0  0  0  0  0
   -7.7180   24.2886  -30.8662 H   0  0  0  0  0  0  0  0  0  0  0  0
   -4.2229   22.7942  -33.5182 H   0  0  0  0  0  0  0  0  0  0  0  0
   -2.0283   21.8606  -34.2363 H   0  0  0  0  0  0  0  0  0  0  0  0
   -1.1930   21.8555  -35.2414 H   0  0  0  0  0  0  0  0  0  0  0  0
   -0.0263   23.4484  -36.7700 H   0  0  0  0  0  0  0  0  0  0  0  0
    3.2830   24.4750  -36.5470 H   0  0  0  0  0  0  0  0  0  0  0  0
    3.7691   22.1685  -35.1532 H   0  0  0  0  0  0  0  0  0  0  0  0
  1  2  1  0
  2  3  1  0
  3  4  1  0
  4  5  1  0
  5  6  2  0
  6  7  1  0
  7  8  2  0
  8  9  1  0
  9 10  2  0
 10 11  1  0
 11 12  2  0
 12 13  1  0
 13 14  2  0
 14 15  1  0
 15 16  1  0
 16 17  2  0
 17 18  1  0
 18 19  1  0
  8 20  1  0
 20 21  2  0
  3 22  1  0
 22 23  2  0
 23 24  1  0
 24 25  2  0
 25 26  1  0
 25 27  1  0
 27 28  2  0
 21  5  1  0
 28 22  1  0
 14  9  1  0
 19 15  2  0
  1 29  1  0
  1 30  1  0
  1 31  1  0
  2 32  1  0
  2 33  1  0
  4 34  1  0
  4 35  1  0
  6 36  1  0
  7 37  1  0
 10 38  1  0
 11 39  1  0
 12 40  1  0
 13 41  1  0
 20 42  1  0
 21 43  1  0
 23 44  1  0
 24 45  1  0
 26 46  1  0
 27 47  1  0
M  CHG  1  18  -1
M  END
>  <UniqueID>  (8) 
8

>  <SMILES>  (8) 
CCN(Cc1ccc(-c2ccccc2-c2nn[n-]n2)cc1)c1ccc(O)cn1

>  <Energy>  (8) 
99.98463982882946

>  <Genealogy>  (8) 
CCN(Cc1ccc(-c2ccccc2-c2nn[n-]n2)cc1)c1ccc(O)cn1 (protonated)
CCN(Cc1ccc(-c2ccccc2-c2nn[n-]n2)cc1)c1ccc(O)cn1 (3D coordinates assigned)
CCN(Cc1ccc(-c2ccccc2-c2nn[n-]n2)cc1)c1ccc(O)cn1 (optimized conformer: 99.98463982882946 kcal/mol)

>  <smiles>  (8) 
CCN(Cc1ccc(-c2ccccc2-c2nn[nH]n2)cc1)c1ccc(O)cn1

>  <score_type>  (8) 
oracle

>  <origin>  (8) 
adgpu

>  <m_score__min__energy>  (8) 
-10.75

>  <m_primary>  (8) 
energy

$$$$
8:0
     RDKit          3D

 49 51  0  0  0  0  0  0  0  0999 V2000
   -1.2710   26.5830  -24.7430 C   0  0  0  0  0  0  0  0  0  0  0  0
   -1.7370   25.9120  -26.0020 C   0  0  0  0  0  0  0  0  0  0  0  0
   -2.9320   25.1800  -26.0080 C   0  0  0  0  0  0  0  0  0  0  0  0
   -3.3580   24.5320  -27.1710 C   0  0  0  0  0  0  0  0  0  0  0  0
   -2.5820   24.5930  -28.3400 C   0  0  0  0  0  0  0  0  0  0  0  0
   -3.0400   23.9150  -29.6030 C   0  0  0  0  0  0  0  0  0  0  0  0
   -3.6030   24.8990  -30.5200 N   0  0  0  0  0  0  0  0  0  0  0  0
   -4.9980   25.2200  -30.5750 C   0  0  0  0  0  0  0  0  0  0  0  0
   -5.3710   26.4160  -30.4210 O   0  0  0  0  0  0  0  0  0  0  0  0
   -5.9950   24.1580  -30.8350 C   0  0  0  0  0  0  0  0  0  0  0  0
   -6.5120   23.3900  -29.7750 C   0  0  0  0  0  0  0  0  0  0  0  0
   -7.3880   22.3320  -30.0280 C   0  0  0  0  0  0  0  0  0  0  0  0
   -7.7600   22.0200  -31.3430 C   0  0  0  0  0  0  0  0  0  0  0  0
   -8.5990   20.8000  -31.6180 C   0  0  0  0  0  0  0  0  0  0  0  0
   -8.1540   20.1240  -32.8430 N   0  0  0  0  0  0  0  0  0  0  0  0
   -6.7840   19.0870  -32.5440 S   0  0  0  0  0  0  0  0  0  0  0  0
   -7.0140   18.3160  -31.2750 O   0  0  0  0  0  0  0  0  0  0  0  0
   -6.6250   18.1110  -33.6780 O   0  0  0  0  0  0  0  0  0  0  0  0
   -5.3190   20.0500  -32.3590 C   0  0  0  0  0  0  0  0  0  0  0  0
   -4.8100   20.7630  -33.4550 C   0  0  0  0  0  0  0  0  0  0  0  0
   -3.6180   21.4850  -33.3340 C   0  0  0  0  0  0  0  0  0  0  0  0
   -2.9340   21.5040  -32.1140 C   0  0  0  0  0  0  0  0  0  0  0  0
   -1.7760   22.1970  -31.9980 F   0  0  0  0  0  0  0  0  0  0  0  0
   -3.4460   20.8110  -31.0140 C   0  0  0  0  0  0  0  0  0  0  0  0
   -4.6360   20.0870  -31.1340 C   0  0  0  0  0  0  0  0  0  0  0  0
   -7.2850   22.8110  -32.3980 C   0  0  0  0  0  0  0  0  0  0  0  0
   -6.4070   23.8680  -32.1480 C   0  0  0  0  0  0  0  0  0  0  0  0
   -1.3810   25.3170  -28.3300 C   0  0  0  0  0  0  0  0  0  0  0  0
   -0.9570   25.9660  -27.1670 C   0  0  0  0  0  0  0  0  0  0  0  0
   -1.6534   26.0324  -23.8709 H   0  0  0  0  0  0  0  0  0  0  0  0
   -0.1713   26.5919  -24.7177 H   0  0  0  0  0  0  0  0  0  0  0  0
   -1.6467   27.6165  -24.7177 H   0  0  0  0  0  0  0  0  0  0  0  0
   -3.5382   25.1150  -25.0924 H   0  0  0  0  0  0  0  0  0  0  0  0
   -4.3048   23.9720  -27.1706 H   0  0  0  0  0  0  0  0  0  0  0  0
   -2.1828   23.4191  -30.0819 H   0  0  0  0  0  0  0  0  0  0  0  0
   -3.8103   23.1701  -29.3546 H   0  0  0  0  0  0  0  0  0  0  0  0
   -6.2240   23.6247  -28.7396 H   0  0  0  0  0  0  0  0  0  0  0  0
   -7.7880   21.7406  -29.1912 H   0  0  0  0  0  0  0  0  0  0  0  0
   -8.5116   20.1042  -30.7705 H   0  0  0  0  0  0  0  0  0  0  0  0
   -9.6447   21.1148  -31.7501 H   0  0  0  0  0  0  0  0  0  0  0  0
   -7.8300   20.8620  -33.5100 H   0  0  0  0  0  0  0  0  0  0  0  0
   -5.3504   20.7542  -34.4131 H   0  0  0  0  0  0  0  0  0  0  0  0
   -3.2189   22.0373  -34.1975 H   0  0  0  0  0  0  0  0  0  0  0  0
   -2.9122   20.8351  -30.0525 H   0  0  0  0  0  0  0  0  0  0  0  0
   -5.0380   19.5448  -30.2654 H   0  0  0  0  0  0  0  0  0  0  0  0
   -7.6055   22.5982  -33.4285 H   0  0  0  0  0  0  0  0  0  0  0  0
   -6.0350   24.4782  -32.9843 H   0  0  0  0  0  0  0  0  0  0  0  0
   -0.7693   25.3744  -29.2424 H   0  0  0  0  0  0  0  0  0  0  0  0
   -0.0076   26.5216  -27.1651 H   0  0  0  0  0  0  0  0  0  0  0  0
  1  2  1  0
  2  3  2  0
  3  4  1  0
  4  5  2  0
  5  6  1  0
  6  7  1  0
  7  8  1  0
  8  9  2  0
  8 10  1  0
 10 11  2  0
 11 12  1  0
 12 13  2  0
 13 14  1  0
 14 15  1  0
 15 16  1  0
 16 17  2  0
 16 18  2  0
 16 19  1  0
 19 20  2  0
 20 21  1  0
 21 22  2  0
 22 23  1  0
 22 24  1  0
 24 25  2  0
 13 26  1  0
 26 27  2  0
  5 28  1  0
 28 29  2  0
 29  2  1  0
 27 10  1  0
 25 19  1  0
  1 30  1  0
  1 31  1  0
  1 32  1  0
  3 33  1  0
  4 34  1  0
  6 35  1  0
  6 36  1  0
 11 37  1  0
 12 38  1  0
 14 39  1  0
 14 40  1  0
 15 41  1  0
 20 42  1  0
 21 43  1  0
 24 44  1  0
 25 45  1  0
 26 46  1  0
 27 47  1  0
 28 48  1  0
 29 49  1  0
M  CHG  1   7  -1
M  END
>  <UniqueID>  (9) 
9

>  <SMILES>  (9) 
Cc1ccc(C[N-]C(=O)c2ccc(CNS(=O)(=O)c3ccc(F)cc3)cc2)cc1

>  <Energy>  (9) 
41.87007551253248

>  <Genealogy>  (9) 
Cc1ccc(C[N-]C(=O)c2ccc(CNS(=O)(=O)c3ccc(F)cc3)cc2)cc1 (protonated)
Cc1ccc(C[N-]C(=O)c2ccc(CNS(=O)(=O)c3ccc(F)cc3)cc2)cc1 (3D coordinates assigned)
Cc1ccc(C[N-]C(=O)c2ccc(CNS(=O)(=O)c3ccc(F)cc3)cc2)cc1 (optimized conformer: 41.87007551253248 kcal/mol)

>  <smiles>  (9) 
Cc1ccc(CNC(=O)c2ccc(CNS(=O)(=O)c3ccc(F)cc3)cc2)cc1

>  <score_type>  (9) 
oracle

>  <origin>  (9) 
adgpu

>  <m_score__min__energy>  (9) 
-11.27

>  <m_primary>  (9) 
energy

$$$$
9:0
     RDKit          3D

 48 51  0  0  0  0  0  0  0  0999 V2000
   -1.5070   23.1790  -28.1110 C   0  0  0  0  0  0  0  0  0  0  0  0
   -2.5000   23.8000  -29.0400 C   0  0  0  0  0  0  0  0  0  0  0  0
   -2.4900   25.1060  -29.3660 N   0  0  0  0  0  0  0  0  0  0  0  0
   -3.4750   25.3000  -30.1930 O   0  0  0  0  0  0  0  0  0  0  0  0
   -4.1340   24.1890  -30.4250 C   0  0  0  0  0  0  0  0  0  0  0  0
   -5.1550   24.1610  -31.2320 N   0  0  0  0  0  0  0  0  0  0  0  0
   -6.1710   22.8270  -31.6830 S   0  0  0  0  0  0  0  0  0  0  0  0
   -7.2330   23.2710  -32.6490 O   0  0  0  0  0  0  0  0  0  0  0  0
   -6.7920   22.2190  -30.4570 O   0  0  0  0  0  0  0  0  0  0  0  0
   -5.1690   21.6170  -32.4780 C   0  0  0  0  0  0  0  0  0  0  0  0
   -3.8360   21.9100  -32.7930 C   0  0  0  0  0  0  0  0  0  0  0  0
   -3.0340   20.9500  -33.4180 C   0  0  0  0  0  0  0  0  0  0  0  0
   -3.5540   19.6910  -33.7430 C   0  0  0  0  0  0  0  0  0  0  0  0
   -2.6930   18.7380  -34.3830 N   0  0  0  0  0  0  0  0  0  0  0  0
   -0.9630   18.7220  -34.2640 S   0  0  0  0  0  0  0  0  0  0  0  0
   -0.4590   17.3470  -34.6000 O   0  0  0  0  0  0  0  0  0  0  0  0
   -0.3910   19.7020  -35.2490 O   0  0  0  0  0  0  0  0  0  0  0  0
   -0.4800   19.1190  -32.6180 C   0  0  0  0  0  0  0  0  0  0  0  0
   -0.3000   20.4540  -32.2280 C   0  0  0  0  0  0  0  0  0  0  0  0
    0.0640   20.7620  -30.9140 C   0  0  0  0  0  0  0  0  0  0  0  0
    0.2550   19.7360  -29.9760 C   0  0  0  0  0  0  0  0  0  0  0  0
    0.6190   20.0340  -28.6540 C   0  0  0  0  0  0  0  0  0  0  0  0
    0.8090   19.0010  -27.7300 C   0  0  0  0  0  0  0  0  0  0  0  0
    0.6390   17.6690  -28.1170 C   0  0  0  0  0  0  0  0  0  0  0  0
    0.2750   17.3580  -29.4300 C   0  0  0  0  0  0  0  0  0  0  0  0
    0.0800   18.3850  -30.3680 C   0  0  0  0  0  0  0  0  0  0  0  0
   -0.2880   18.0880  -31.6880 C   0  0  0  0  0  0  0  0  0  0  0  0
   -4.8950   19.4010  -33.4320 C   0  0  0  0  0  0  0  0  0  0  0  0
   -5.6980   20.3620  -32.8110 C   0  0  0  0  0  0  0  0  0  0  0  0
   -3.5450   23.1590  -29.6880 C   0  0  0  0  0  0  0  0  0  0  0  0
   -3.8650   21.6950  -29.6090 C   0  0  0  0  0  0  0  0  0  0  0  0
   -1.8099   23.3684  -27.0706 H   0  0  0  0  0  0  0  0  0  0  0  0
   -1.4664   22.0943  -28.2894 H   0  0  0  0  0  0  0  0  0  0  0  0
   -0.5140   23.6173  -28.2894 H   0  0  0  0  0  0  0  0  0  0  0  0
   -3.4189   22.8979  -32.5481 H   0  0  0  0  0  0  0  0  0  0  0  0
   -1.9863   21.1857  -33.6563 H   0  0  0  0  0  0  0  0  0  0  0  0
   -0.4459   21.2625  -32.9595 H   0  0  0  0  0  0  0  0  0  0  0  0
    0.2011   21.8115  -30.6145 H   0  0  0  0  0  0  0  0  0  0  0  0
    0.7550   21.0806  -28.3440 H   0  0  0  0  0  0  0  0  0  0  0  0
    1.0935   19.2382  -26.6942 H   0  0  0  0  0  0  0  0  0  0  0  0
    0.7923   16.8621  -27.3853 H   0  0  0  0  0  0  0  0  0  0  0  0
    0.1411   16.3079  -29.7291 H   0  0  0  0  0  0  0  0  0  0  0  0
   -0.4267   17.0409  -31.9952 H   0  0  0  0  0  0  0  0  0  0  0  0
   -5.3134   18.4140  -33.6785 H   0  0  0  0  0  0  0  0  0  0  0  0
   -6.7493   20.1327  -32.5826 H   0  0  0  0  0  0  0  0  0  0  0  0
   -3.9315   21.3906  -28.5540 H   0  0  0  0  0  0  0  0  0  0  0  0
   -4.8264   21.5024  -30.1075 H   0  0  0  0  0  0  0  0  0  0  0  0
   -3.0716   21.1188  -30.1075 H   0  0  0  0  0  0  0  0  0  0  0  0
  1  2  1  0
  2  3  1  0
  3  4  1  0
  4  5  1  0
  5  6  2  3
  6  7  1  0
  7  8  2  0
  7  9  2  0
  7 10  1  0
 10 11  2  0
 11 12  1  0
 12 13  2  0
 13 14  1  0
 14 15  1  0
 15 16  2  0
 15 17  2  0
 15 18  1  0
 18 19  2  0
 19 20  1  0
 20 21  2  0
 21 22  1  0
 22 23  2  0
 23 24  1  0
 24 25  2  0
 25 26  1  0
 26 27  2  0
 13 28  1  0
 28 29  2  0
  5 30  1  0
 30 31  1  0
 30  2  2  0
 29 10  1  0
 27 18  1  0
 26 21  1  0
  1 32  1  0
  1 33  1  0
  1 34  1  0
 11 35  1  0
 12 36  1  0
 19 37  1  0
 20 38  1  0
 22 39  1  0
 23 40  1  0
 24 41  1  0
 25 42  1  0
 27 43  1  0
 28 44  1  0
 29 45  1  0
 31 46  1  0
 31 47  1  0
 31 48  1  0
M  CHG  2   3  -1  14  -1
M  END
>  <UniqueID>  (10) 
10

>  <SMILES>  (10) 
Cc1[n-]oc(=NS(=O)(=O)c2ccc([N-]S(=O)(=O)c3ccc4ccccc4c3)cc2)c1C

>  <Energy>  (10) 
98.51742665633475

>  <Genealogy>  (10) 
Cc1[n-]oc(=NS(=O)(=O)c2ccc([N-]S(=O)(=O)c3ccc4ccccc4c3)cc2)c1C (protonated)
Cc1[n-]oc(=NS(=O)(=O)c2ccc([N-]S(=O)(=O)c3ccc4ccccc4c3)cc2)c1C (3D coordinates assigned)
Cc1[n-]oc(=NS(=O)(=O)c2ccc([N-]S(=O)(=O)c3ccc4ccccc4c3)cc2)c1C (optimized conformer: 98.51742665633475 kcal/mol)

>  <smiles>  (10) 
Cc1[nH]oc(=NS(=O)(=O)c2ccc(NS(=O)(=O)c3ccc4ccccc4c3)cc2)c1C

>  <score_type>  (10) 
oracle

>  <origin>  (10) 
adgpu

>  <m_score__min__energy>  (10) 
-12.41

>  <m_primary>  (10) 
energy

$$$$
10:0
     RDKit          3D

 37 39  0  0  0  0  0  0  0  0999 V2000
   -3.0570   24.9030  -27.8210 O   0  0  0  0  0  0  0  0  0  0  0  0
   -2.4000   24.5780  -29.1340 S   0  0  0  0  0  0  0  0  0  0  0  0
   -1.1430   25.3900  -29.2750 O   0  0  0  0  0  0  0  0  0  0  0  0
   -3.4860   24.9290  -30.4370 N   0  0  0  0  0  0  0  0  0  0  0  0
   -4.8360   24.4580  -30.5410 C   0  0  0  0  0  0  0  0  0  0  0  0
   -5.9140   25.1870  -30.0050 C   0  0  0  0  0  0  0  0  0  0  0  0
   -7.2210   24.7100  -30.1350 C   0  0  0  0  0  0  0  0  0  0  0  0
   -7.4660   23.5060  -30.7960 C   0  0  0  0  0  0  0  0  0  0  0  0
   -6.4030   22.7710  -31.3250 C   0  0  0  0  0  0  0  0  0  0  0  0
   -5.0890   23.2400  -31.2000 C   0  0  0  0  0  0  0  0  0  0  0  0
   -3.7460   22.2670  -31.8970 S   0  0  0  0  0  0  0  0  0  0  0  0
   -4.8030   20.8590  -32.2370 C   0  0  0  0  0  0  0  0  0  0  0  0
   -5.4630   20.7530  -33.4680 C   0  0  0  0  0  0  0  0  0  0  0  0
   -6.2790   19.6490  -33.7320 C   0  0  0  0  0  0  0  0  0  0  0  0
   -6.4420   18.6510  -32.7660 C   0  0  0  0  0  0  0  0  0  0  0  0
   -5.7930   18.7590  -31.5320 C   0  0  0  0  0  0  0  0  0  0  0  0
   -4.9770   19.8630  -31.2660 C   0  0  0  0  0  0  0  0  0  0  0  0
   -1.9850   22.8700  -29.2000 C   0  0  0  0  0  0  0  0  0  0  0  0
   -2.7160   21.9450  -28.4380 C   0  0  0  0  0  0  0  0  0  0  0  0
   -2.3760   20.5890  -28.4660 C   0  0  0  0  0  0  0  0  0  0  0  0
   -1.3040   20.1510  -29.2510 C   0  0  0  0  0  0  0  0  0  0  0  0
   -0.5700   21.0700  -30.0070 C   0  0  0  0  0  0  0  0  0  0  0  0
   -0.9070   22.4280  -29.9800 C   0  0  0  0  0  0  0  0  0  0  0  0
   -5.7269   26.1362  -29.4816 H   0  0  0  0  0  0  0  0  0  0  0  0
   -8.0591   25.2854  -29.7150 H   0  0  0  0  0  0  0  0  0  0  0  0
   -8.4965   23.1357  -30.9004 H   0  0  0  0  0  0  0  0  0  0  0  0
   -6.5983   21.8199  -31.8420 H   0  0  0  0  0  0  0  0  0  0  0  0
   -5.3391   21.5390  -34.2275 H   0  0  0  0  0  0  0  0  0  0  0  0
   -6.7934   19.5652  -34.7007 H   0  0  0  0  0  0  0  0  0  0  0  0
   -7.0809   17.7808  -32.9769 H   0  0  0  0  0  0  0  0  0  0  0  0
   -5.9243   17.9758  -30.7709 H   0  0  0  0  0  0  0  0  0  0  0  0
   -4.4708   19.9500  -30.2933 H   0  0  0  0  0  0  0  0  0  0  0  0
   -3.5576   22.2875  -27.8179 H   0  0  0  0  0  0  0  0  0  0  0  0
   -2.9521   19.8658  -27.8701 H   0  0  0  0  0  0  0  0  0  0  0  0
   -1.0386   19.0837  -29.2734 H   0  0  0  0  0  0  0  0  0  0  0  0
    0.2732   20.7253  -30.6236 H   0  0  0  0  0  0  0  0  0  0  0  0
   -0.3251   23.1499  -30.5718 H   0  0  0  0  0  0  0  0  0  0  0  0
  1  2  2  0
  2  3  2  0
  2  4  1  0
  4  5  1  0
  5  6  2  0
  6  7  1  0
  7  8  2  0
  8  9  1  0
  9 10  2  0
 10 11  1  0
 11 12  1  0
 12 13  2  0
 13 14  1  0
 14 15  2  0
 15 16  1  0
 16 17  2  0
  2 18  1  0
 18 19  2  0
 19 20  1  0
 20 21  2  0
 21 22  1  0
 22 23  2  0
 10  5  1  0
 17 12  1  0
 23 18  1  0
  6 24  1  0
  7 25  1  0
  8 26  1  0
  9 27  1  0
 13 28  1  0
 14 29  1  0
 15 30  1  0
 16 31  1  0
 17 32  1  0
 19 33  1  0
 20 34  1  0
 21 35  1  0
 22 36  1  0
 23 37  1  0
M  CHG  1   4  -1
M  END
>  <UniqueID>  (11) 
11

>  <SMILES>  (11) 
O=S(=O)([N-]c1ccccc1Sc1ccccc1)c1ccccc1

>  <Energy>  (11) 
38.67333648471735

>  <Genealogy>  (11) 
O=S(=O)([N-]c1ccccc1Sc1ccccc1)c1ccccc1 (protonated)
O=S(=O)([N-]c1ccccc1Sc1ccccc1)c1ccccc1 (3D coordinates assigned)
O=S(=O)([N-]c1ccccc1Sc1ccccc1)c1ccccc1 (optimized conformer: 38.67333648471735 kcal/mol)

>  <smiles>  (11) 
O=S(=O)(Nc1ccccc1Sc1ccccc1)c1ccccc1

>  <score_type>  (11) 
oracle

>  <origin>  (11) 
adgpu

>  <m_score__min__energy>  (11) 
-9.6899999999999995

>  <m_primary>  (11) 
energy

$$$$
11:0
     RDKit          3D

 51 53  0  0  0  0  0  0  0  0999 V2000
    0.3420   23.5050  -26.2900 C   0  0  0  0  0  0  0  0  0  0  0  0
    0.3290   23.8150  -27.7490 C   0  0  0  0  0  0  0  0  0  0  0  0
    1.0030   24.7870  -28.1830 O   0  0  0  0  0  0  0  0  0  0  0  0
   -0.5340   23.0730  -28.6180 N   0  0  0  0  0  0  0  0  0  0  0  0
   -1.8950   23.3880  -28.9440 C   0  0  0  0  0  0  0  0  0  0  0  0
   -2.3830   23.0320  -30.2070 C   0  0  0  0  0  0  0  0  0  0  0  0
   -3.6970   23.3400  -30.5730 C   0  0  0  0  0  0  0  0  0  0  0  0
   -4.5350   24.0200  -29.6820 C   0  0  0  0  0  0  0  0  0  0  0  0
   -6.1750   24.4470  -30.1650 S   0  0  0  0  0  0  0  0  0  0  0  0
   -6.6610   25.5760  -29.3010 O   0  0  0  0  0  0  0  0  0  0  0  0
   -6.1780   24.9150  -31.5950 O   0  0  0  0  0  0  0  0  0  0  0  0
   -7.2540   23.0920  -29.9920 N   0  0  0  0  0  0  0  0  0  0  0  0
   -7.8480   22.6940  -31.2820 C   0  0  0  0  0  0  0  0  0  0  0  0
   -8.8820   21.5800  -31.0240 C   0  0  0  0  0  0  0  0  0  0  0  0
   -9.1170   20.7470  -32.2910 C   0  0  0  0  0  0  0  0  0  0  0  0
   -7.8860   20.0540  -32.7580 N   0  0  0  0  0  0  0  0  0  0  0  0
   -7.8880   18.6290  -32.3610 C   0  0  0  0  0  0  0  0  0  0  0  0
   -6.6950   17.9060  -32.9370 C   0  0  0  0  0  0  0  0  0  0  0  0
   -6.0400   16.9050  -32.1980 C   0  0  0  0  0  0  0  0  0  0  0  0
   -4.9190   16.2590  -32.7290 C   0  0  0  0  0  0  0  0  0  0  0  0
   -4.4440   16.6090  -33.9960 C   0  0  0  0  0  0  0  0  0  0  0  0
   -5.0860   17.6080  -34.7330 C   0  0  0  0  0  0  0  0  0  0  0  0
   -6.2070   18.2570  -34.2060 C   0  0  0  0  0  0  0  0  0  0  0  0
   -6.6240   20.7250  -32.3480 C   0  0  0  0  0  0  0  0  0  0  0  0
   -6.7710   22.2500  -32.3100 C   0  0  0  0  0  0  0  0  0  0  0  0
   -4.0440   24.4030  -28.4270 C   0  0  0  0  0  0  0  0  0  0  0  0
   -2.7310   24.0950  -28.0600 C   0  0  0  0  0  0  0  0  0  0  0  0
    0.3027   24.4423  -25.7156 H   0  0  0  0  0  0  0  0  0  0  0  0
   -0.5309   22.8844  -26.0392 H   0  0  0  0  0  0  0  0  0  0  0  0
    1.2638   22.9597  -26.0392 H   0  0  0  0  0  0  0  0  0  0  0  0
   -1.7278   22.5060  -30.9169 H   0  0  0  0  0  0  0  0  0  0  0  0
   -4.0731   23.0469  -31.5643 H   0  0  0  0  0  0  0  0  0  0  0  0
   -6.7250   22.2980  -29.5630 H   0  0  0  0  0  0  0  0  0  0  0  0
   -8.3492   23.5645  -31.7303 H   0  0  0  0  0  0  0  0  0  0  0  0
   -8.5108   20.9223  -30.2243 H   0  0  0  0  0  0  0  0  0  0  0  0
   -9.8336   22.0455  -30.7279 H   0  0  0  0  0  0  0  0  0  0  0  0
   -9.8871   19.9911  -32.0776 H   0  0  0  0  0  0  0  0  0  0  0  0
   -9.4336   21.4358  -33.0880 H   0  0  0  0  0  0  0  0  0  0  0  0
   -7.8545   18.5612  -31.2636 H   0  0  0  0  0  0  0  0  0  0  0  0
   -8.8038   18.1584  -32.7481 H   0  0  0  0  0  0  0  0  0  0  0  0
   -6.4103   16.6293  -31.1996 H   0  0  0  0  0  0  0  0  0  0  0  0
   -4.4107   15.4747  -32.1489 H   0  0  0  0  0  0  0  0  0  0  0  0
   -3.5641   16.0977  -34.4135 H   0  0  0  0  0  0  0  0  0  0  0  0
   -4.7090   17.8841  -35.7288 H   0  0  0  0  0  0  0  0  0  0  0  0
   -6.7081   19.0450  -34.7874 H   0  0  0  0  0  0  0  0  0  0  0  0
   -6.3426   20.3702  -31.3455 H   0  0  0  0  0  0  0  0  0  0  0  0
   -5.8505   20.4765  -33.0896 H   0  0  0  0  0  0  0  0  0  0  0  0
   -5.8049   22.6951  -32.0299 H   0  0  0  0  0  0  0  0  0  0  0  0
   -7.0854   22.5909  -33.3075 H   0  0  0  0  0  0  0  0  0  0  0  0
   -4.6946   24.9484  -27.7275 H   0  0  0  0  0  0  0  0  0  0  0  0
   -2.3497   24.4065  -27.0763 H   0  0  0  0  0  0  0  0  0  0  0  0
  1  2  1  0
  2  3  2  0
  2  4  1  0
  4  5  1  0
  5  6  2  0
  6  7  1  0
  7  8  2  0
  8  9  1  0
  9 10  2  0
  9 11  2  0
  9 12  1  0
 12 13  1  0
 13 14  1  0
 14 15  1  0
 15 16  1  0
 16 17  1  0
 17 18  1  0
 18 19  2  0
 19 20  1  0
 20 21  2  0
 21 22  1  0
 22 23  2  0
 16 24  1  0
 24 25  1  0
  8 26  1  0
 26 27  2  0
 27  5  1  0
 25 13  1  0
 23 18  1  0
  1 28  1  0
  1 29  1  0
  1 30  1  0
  6 31  1  0
  7 32  1  0
 12 33  1  0
 13 34  1  0
 14 35  1  0
 14 36  1  0
 15 37  1  0
 15 38  1  0
 17 39  1  0
 17 40  1  0
 19 41  1  0
 20 42  1  0
 21 43  1  0
 22 44  1  0
 23 45  1  0
 24 46  1  0
 24 47  1  0
 25 48  1  0
 25 49  1  0
 26 50  1  0
 27 51  1  0
M  CHG  1   4  -1
M  END
>  <UniqueID>  (12) 
12

>  <SMILES>  (12) 
CC(=O)[N-]c1ccc(S(=O)(=O)NC2CCN(Cc3ccccc3)CC2)cc1

>  <Energy>  (12) 
61.488189975990934

>  <Genealogy>  (12) 
CC(=O)[N-]c1ccc(S(=O)(=O)NC2CCN(Cc3ccccc3)CC2)cc1 (protonated)
CC(=O)[N-]c1ccc(S(=O)(=O)NC2CCN(Cc3ccccc3)CC2)cc1 (3D coordinates assigned)
CC(=O)[N-]c1ccc(S(=O)(=O)NC2CCN(Cc3ccccc3)CC2)cc1 (nonaromatic ring conformer: 61.488189975990934 kcal/mol)

>  <smiles>  (12) 
CC(=O)Nc1ccc(S(=O)(=O)NC2CCN(Cc3ccccc3)CC2)cc1

>  <score_type>  (12) 
oracle

>  <origin>  (12) 
adgpu

>  <m_score__min__energy>  (12) 
-11.1

>  <m_primary>  (12) 
energy

$$$$
12:0
     RDKit          3D

 52 55  0  0  0  0  0  0  0  0999 V2000
    1.4565   22.0900  -36.5274 H   0  0  0  0  0  0  0  0  0  0  0  0
    0.8240   21.4090  -35.9390 C   0  0  0  0  0  0  0  0  0  0  0  0
    0.8720   20.0340  -36.1730 C   0  0  0  0  0  0  0  0  0  0  0  0
    1.5454   19.6322  -36.9445 H   0  0  0  0  0  0  0  0  0  0  0  0
    0.0670   19.1660  -35.4300 C   0  0  0  0  0  0  0  0  0  0  0  0
    0.1136   18.0833  -35.6187 H   0  0  0  0  0  0  0  0  0  0  0  0
   -0.8040   19.6660  -34.4410 C   0  0  0  0  0  0  0  0  0  0  0  0
   -1.6580   18.7310  -33.6660 C   0  0  0  0  0  0  0  0  0  0  0  0
   -1.1720   18.0960  -32.6920 O   0  0  0  0  0  0  0  0  0  0  0  0
   -3.0280   18.5310  -34.0590 N   0  0  0  0  0  0  0  0  0  0  0  0
   -4.0750   19.2390  -33.7360 C   0  0  0  0  0  0  0  0  0  0  0  0
   -4.1160   20.4030  -32.9800 C   0  0  0  0  0  0  0  0  0  0  0  0
   -3.2767   20.9247  -32.4969 H   0  0  0  0  0  0  0  0  0  0  0  0
   -5.4620   20.7590  -32.9730 C   0  0  0  0  0  0  0  0  0  0  0  0
   -6.0590   21.9400  -32.2920 C   0  0  0  0  0  0  0  0  0  0  0  0
   -7.4450   22.0120  -32.0620 C   0  0  0  0  0  0  0  0  0  0  0  0
   -8.0978   21.1946  -32.4021 H   0  0  0  0  0  0  0  0  0  0  0  0
   -7.9980   23.1120  -31.4060 C   0  0  0  0  0  0  0  0  0  0  0  0
   -9.0839   23.1594  -31.2373 H   0  0  0  0  0  0  0  0  0  0  0  0
   -7.1810   24.1520  -30.9630 C   0  0  0  0  0  0  0  0  0  0  0  0
   -7.6259   25.0151  -30.4462 H   0  0  0  0  0  0  0  0  0  0  0  0
   -5.7950   24.1030  -31.1730 C   0  0  0  0  0  0  0  0  0  0  0  0
   -4.9350   25.2170  -30.7000 C   0  0  0  0  0  0  0  0  0  0  0  0
   -5.4420   26.3590  -30.5350 O   0  0  0  0  0  0  0  0  0  0  0  0
   -3.5270   25.0550  -30.4700 N   0  0  0  0  0  0  0  0  0  0  0  0
   -2.8940   24.0010  -29.7280 C   0  0  0  0  0  0  0  0  0  0  0  0
   -2.9240   24.0480  -28.3310 C   0  0  0  0  0  0  0  0  0  0  0  0
   -3.4346   24.8792  -27.8226 H   0  0  0  0  0  0  0  0  0  0  0  0
   -2.3090   23.0450  -27.5770 C   0  0  0  0  0  0  0  0  0  0  0  0
   -2.3229   23.0978  -26.4784 H   0  0  0  0  0  0  0  0  0  0  0  0
   -1.6770   21.9760  -28.2150 C   0  0  0  0  0  0  0  0  0  0  0  0
   -1.1754   21.2012  -27.6166 H   0  0  0  0  0  0  0  0  0  0  0  0
   -1.6780   21.8840  -29.6180 C   0  0  0  0  0  0  0  0  0  0  0  0
   -0.9570   20.7550  -30.3130 C   0  0  0  0  0  0  0  0  0  0  0  0
   -1.8800   19.9720  -30.9840 F   0  0  0  0  0  0  0  0  0  0  0  0
   -0.2820   19.9700  -29.3950 F   0  0  0  0  0  0  0  0  0  0  0  0
   -0.0360   21.2440  -31.2230 F   0  0  0  0  0  0  0  0  0  0  0  0
   -2.2840   22.9070  -30.3700 C   0  0  0  0  0  0  0  0  0  0  0  0
   -2.2811   22.8514  -31.4686 H   0  0  0  0  0  0  0  0  0  0  0  0
   -5.2450   23.0040  -31.8580 C   0  0  0  0  0  0  0  0  0  0  0  0
   -4.1636   22.9755  -32.0574 H   0  0  0  0  0  0  0  0  0  0  0  0
   -6.1590   19.8480  -33.6880 N   0  0  0  0  0  0  0  0  0  0  0  0
   -7.1880   19.8330  -33.8600 H   0  0  0  0  0  0  0  0  0  0  0  0
   -5.3220   18.9280  -34.1390 N   0  0  0  0  0  0  0  0  0  0  0  0
   -5.7090   17.8160  -35.0010 C   0  0  0  0  0  0  0  0  0  0  0  0
   -6.0076   16.9580  -34.3808 H   0  0  0  0  0  0  0  0  0  0  0  0
   -6.5538   18.1211  -35.6360 H   0  0  0  0  0  0  0  0  0  0  0  0
   -4.8573   17.5307  -35.6360 H   0  0  0  0  0  0  0  0  0  0  0  0
   -0.8400   21.0600  -34.2110 C   0  0  0  0  0  0  0  0  0  0  0  0
   -1.6430   21.5950  -33.2550 F   0  0  0  0  0  0  0  0  0  0  0  0
   -0.0270   21.9190  -34.9580 C   0  0  0  0  0  0  0  0  0  0  0  0
   -0.0588   23.0025  -34.7710 H   0  0  0  0  0  0  0  0  0  0  0  0
  1  2  1  0
  2  3  2  0
  3  4  1  0
  3  5  1  0
  5  6  1  0
  5  7  2  0
  7  8  1  0
  8  9  2  0
  8 10  1  0
 10 11  2  0
 11 12  1  0
 12 13  1  0
 12 14  2  0
 14 15  1  0
 15 16  2  0
 16 17  1  0
 16 18  1  0
 18 19  1  0
 18 20  2  0
 20 21  1  0
 20 22  1  0
 22 23  1  0
 23 24  2  0
 23 25  1  0
 25 26  1  0
 26 27  2  0
 27 28  1  0
 27 29  1  0
 29 30  1  0
 29 31  2  0
 31 32  1  0
 31 33  1  0
 33 34  1  0
 34 35  1  0
 34 36  1  0
 34 37  1  0
 33 38  2  0
 38 39  1  0
 22 40  2  0
 40 41  1  0
 14 42  1  0
 42 43  1  0
 42 44  1  0
 44 45  1  0
 45 46  1  0
 45 47  1  0
 45 48  1  0
  7 49  1  0
 49 50  1  0
 49 51  2  0
 51 52  1  0
 51  2  1  0
 44 11  1  0
 40 15  1  0
 38 26  1  0
M  CHG  1  25  -1
M  END
>  <UniqueID>  (13) 
13

>  <SMILES>  (13) 
Cn1[nH]c(-c2cccc(C(=O)[N-]c3cccc(C(F)(F)F)c3)c2)c/c1=N\C(=O)c1ccccc1F

>  <Energy>  (13) 
103.03246057935151

>  <Genealogy>  (13) 
Cn1[nH]c(-c2cccc(C(=O)[N-]c3cccc(C(F)(F)F)c3)c2)cc1=NC(=O)c1ccccc1F (protonated)
Cn1[nH]c(-c2cccc(C(=O)[N-]c3cccc(C(F)(F)F)c3)c2)c/c1=N\C(=O)c1ccccc1F (cis-trans isomerization)
Cn1[nH]c(-c2cccc(C(=O)[N-]c3cccc(C(F)(F)F)c3)c2)c/c1=N\C(=O)c1ccccc1F (3D coordinates assigned)
Cn1[nH]c(-c2cccc(C(=O)[N-]c3cccc(C(F)(F)F)c3)c2)c/c1=N\C(=O)c1ccccc1F (optimized conformer: 103.03246057935151 kcal/mol)

>  <smiles>  (13) 
Cn1[nH]c(-c2cccc(C(=O)Nc3cccc(C(F)(F)F)c3)c2)cc1=NC(=O)c1ccccc1F

>  <score_type>  (13) 
oracle

>  <origin>  (13) 
adgpu

>  <m_score__min__energy>  (13) 
-10.75

>  <m_primary>  (13) 
energy

$$$$
13:0
     RDKit          3D

 45 46  0  0  0  0  0  0  0  0999 V2000
   -6.2630   24.7490  -29.7180 C   0  0  0  0  0  0  0  0  0  0  0  0
   -5.3780   25.7210  -30.4230 C   0  0  0  0  0  0  0  0  0  0  0  0
   -4.1160   25.2430  -30.7730 O   0  0  0  0  0  0  0  0  0  0  0  0
   -3.7240   23.9260  -30.7480 C   0  0  0  0  0  0  0  0  0  0  0  0
   -2.7310   23.4170  -29.9450 C   0  0  0  0  0  0  0  0  0  0  0  0
   -2.4010   22.0620  -29.9870 C   0  0  0  0  0  0  0  0  0  0  0  0
   -1.2860   21.6040  -29.0720 C   0  0  0  0  0  0  0  0  0  0  0  0
   -1.0690   22.3990  -28.0030 N   0  0  0  0  0  0  0  0  0  0  0  0
   -0.8490   23.2100  -26.9150 C   0  0  0  0  0  0  0  0  0  0  0  0
   -0.6570   22.9670  -25.5950 C   0  0  0  0  0  0  0  0  0  0  0  0
   -0.4370   23.9350  -24.6260 C   0  0  0  0  0  0  0  0  0  0  0  0
   -0.4160   25.2350  -25.0540 C   0  0  0  0  0  0  0  0  0  0  0  0
   -0.1920   26.2810  -24.0910 C   0  0  0  0  0  0  0  0  0  0  0  0
   -1.0930   27.3820  -24.0000 N   0  0  0  0  0  0  0  0  0  0  0  0
    0.8330   26.1930  -23.3220 N   0  0  0  0  0  0  0  0  0  0  0  0
   -0.6000   25.5810  -26.3670 C   0  0  0  0  0  0  0  0  0  0  0  0
   -0.8100   24.5960  -27.2710 C   0  0  0  0  0  0  0  0  0  0  0  0
   -0.9900   24.9600  -28.5720 F   0  0  0  0  0  0  0  0  0  0  0  0
   -3.0500   21.1850  -30.8280 C   0  0  0  0  0  0  0  0  0  0  0  0
   -4.0410   21.7150  -31.6230 C   0  0  0  0  0  0  0  0  0  0  0  0
   -4.7200   20.8880  -32.4790 O   0  0  0  0  0  0  0  0  0  0  0  0
   -6.0100   20.3990  -32.2710 C   0  0  0  0  0  0  0  0  0  0  0  0
   -4.3800   23.0570  -31.5930 C   0  0  0  0  0  0  0  0  0  0  0  0
   -5.4060   23.5300  -32.4380 O   0  0  0  0  0  0  0  0  0  0  0  0
   -6.1505   24.8725  -28.6308 H   0  0  0  0  0  0  0  0  0  0  0  0
   -7.3097   24.9335  -30.0017 H   0  0  0  0  0  0  0  0  0  0  0  0
   -5.9814   23.7242  -30.0017 H   0  0  0  0  0  0  0  0  0  0  0  0
   -5.8883   26.0360  -31.3452 H   0  0  0  0  0  0  0  0  0  0  0  0
   -5.2023   26.5398  -29.7098 H   0  0  0  0  0  0  0  0  0  0  0  0
   -2.1896   24.0866  -29.2605 H   0  0  0  0  0  0  0  0  0  0  0  0
   -1.5360   20.5976  -28.7050 H   0  0  0  0  0  0  0  0  0  0  0  0
   -0.3634   21.6307  -29.6704 H   0  0  0  0  0  0  0  0  0  0  0  0
   -1.8370   21.5760  -27.2580 H   0  0  0  0  0  0  0  0  0  0  0  0
   -0.6773   21.9176  -25.2659 H   0  0  0  0  0  0  0  0  0  0  0  0
   -0.2872   23.6715  -23.5686 H   0  0  0  0  0  0  0  0  0  0  0  0
   -1.9660   27.3790  -24.5660 H   0  0  0  0  0  0  0  0  0  0  0  0
   -0.8450   28.1610  -23.3620 H   0  0  0  0  0  0  0  0  0  0  0  0
    1.4950   25.3890  -23.3810 H   0  0  0  0  0  0  0  0  0  0  0  0
    0.9990   26.9480  -22.6250 H   0  0  0  0  0  0  0  0  0  0  0  0
   -0.5775   26.6355  -26.6792 H   0  0  0  0  0  0  0  0  0  0  0  0
   -2.7899   20.1168  -30.8625 H   0  0  0  0  0  0  0  0  0  0  0  0
   -6.2044   20.3253  -31.1908 H   0  0  0  0  0  0  0  0  0  0  0  0
   -6.7397   21.0829  -32.7291 H   0  0  0  0  0  0  0  0  0  0  0  0
   -6.1030   19.4033  -32.7291 H   0  0  0  0  0  0  0  0  0  0  0  0
   -5.7250   22.8750  -33.1590 H   0  0  0  0  0  0  0  0  0  0  0  0
  1  2  1  0
  2  3  1  0
  3  4  1  0
  4  5  2  0
  5  6  1  0
  6  7  1  0
  7  8  1  0
  8  9  1  0
  9 10  2  0
 10 11  1  0
 11 12  2  0
 12 13  1  0
 13 14  1  0
 13 15  2  0
 12 16  1  0
 16 17  2  0
 17 18  1  0
  6 19  2  0
 19 20  1  0
 20 21  1  0
 21 22  1  0
 20 23  2  0
 23 24  1  0
 23  4  1  0
 17  9  1  0
  1 25  1  0
  1 26  1  0
  1 27  1  0
  2 28  1  0
  2 29  1  0
  5 30  1  0
  7 31  1  0
  7 32  1  0
  8 33  1  0
 10 34  1  0
 11 35  1  0
 14 36  1  0
 14 37  1  0
 15 38  1  0
 15 39  1  0
 16 40  1  0
 19 41  1  0
 22 42  1  0
 22 43  1  0
 22 44  1  0
 24 45  1  0
M  CHG  1  15   1
M  END
>  <UniqueID>  (14) 
14

>  <SMILES>  (14) 
CCOc1cc(CNc2ccc(C(N)=[NH2+])cc2F)cc(OC)c1O

>  <Energy>  (14) 
227.0338348674491

>  <Genealogy>  (14) 
CCOc1cc(CNc2ccc(C(N)=[NH2+])cc2F)cc(OC)c1O (protonated)
CCOc1cc(CNc2ccc(C(N)=[NH2+])cc2F)cc(OC)c1O (3D coordinates assigned)
CCOc1cc(CNc2ccc(C(N)=[NH2+])cc2F)cc(OC)c1O (optimized conformer: 227.0338348674491 kcal/mol)

>  <smiles>  (14) 
CCOc1cc(CNc2ccc(C(=N)N)cc2F)cc(OC)c1O

>  <score_type>  (14) 
oracle

>  <origin>  (14) 
adgpu

>  <m_score__min__energy>  (14) 
-7.3399999999999999

>  <m_primary>  (14) 
energy

$$$$
14:0
     RDKit          3D

 56 58  0  0  0  0  0  0  0  0999 V2000
    1.2210   24.2657  -24.6108 H   0  0  0  0  0  0  0  0  0  0  0  0
    1.4280   25.0470  -25.3570 C   0  0  0  0  0  0  0  0  0  0  0  0
    1.8820   24.6450  -26.6980 C   0  0  0  0  0  0  0  0  0  0  0  0
    2.8850   23.8910  -26.8370 O   0  0  0  0  0  0  0  0  0  0  0  0
    1.1400   25.0820  -27.8420 N   0  0  0  0  0  0  0  0  0  0  0  0
   -0.1030   24.5270  -28.2930 C   0  0  0  0  0  0  0  0  0  0  0  0
   -1.3020   25.2550  -28.2330 C   0  0  0  0  0  0  0  0  0  0  0  0
   -1.2978   26.2864  -27.8506 H   0  0  0  0  0  0  0  0  0  0  0  0
   -2.5010   24.6750  -28.6570 C   0  0  0  0  0  0  0  0  0  0  0  0
   -3.4373   25.2491  -28.5959 H   0  0  0  0  0  0  0  0  0  0  0  0
   -2.5180   23.3680  -29.1590 C   0  0  0  0  0  0  0  0  0  0  0  0
   -3.7770   22.7970  -29.5550 N   0  0  0  0  0  0  0  0  0  0  0  0
   -4.0400   22.1850  -30.6730 C   0  0  0  0  0  0  0  0  0  0  0  0
   -5.2810   21.6670  -30.8670 N   0  0  0  0  0  0  0  0  0  0  0  0
   -5.6160   21.0510  -32.0310 C   0  0  0  0  0  0  0  0  0  0  0  0
   -6.9640   20.4770  -32.1870 C   0  0  0  0  0  0  0  0  0  0  0  0
   -7.0730   19.1240  -32.5510 C   0  0  0  0  0  0  0  0  0  0  0  0
   -6.1629   18.5265  -32.7080 H   0  0  0  0  0  0  0  0  0  0  0  0
   -8.3260   18.5320  -32.7150 C   0  0  0  0  0  0  0  0  0  0  0  0
   -8.3999   17.4760  -33.0141 H   0  0  0  0  0  0  0  0  0  0  0  0
   -9.4850   19.2780  -32.5000 C   0  0  0  0  0  0  0  0  0  0  0  0
  -10.4718   18.8094  -32.6295 H   0  0  0  0  0  0  0  0  0  0  0  0
   -9.3940   20.6210  -32.1200 C   0  0  0  0  0  0  0  0  0  0  0  0
  -10.3121   21.1992  -31.9389 H   0  0  0  0  0  0  0  0  0  0  0  0
   -8.1390   21.2400  -31.9670 C   0  0  0  0  0  0  0  0  0  0  0  0
   -8.0890   22.6760  -31.4950 C   0  0  0  0  0  0  0  0  0  0  0  0
   -7.5861   22.7155  -30.5175 H   0  0  0  0  0  0  0  0  0  0  0  0
   -9.1191   23.0535  -31.4156 H   0  0  0  0  0  0  0  0  0  0  0  0
   -7.3260   23.5540  -32.4840 C   0  0  0  0  0  0  0  0  0  0  0  0
   -6.7021   24.2719  -31.9314 H   0  0  0  0  0  0  0  0  0  0  0  0
   -6.6852   22.9222  -33.1166 H   0  0  0  0  0  0  0  0  0  0  0  0
   -8.0410   24.1005  -33.1166 H   0  0  0  0  0  0  0  0  0  0  0  0
   -4.6640   20.9290  -33.0470 C   0  0  0  0  0  0  0  0  0  0  0  0
   -4.9089   20.4173  -33.9894 H   0  0  0  0  0  0  0  0  0  0  0  0
   -3.3970   21.4710  -32.8380 C   0  0  0  0  0  0  0  0  0  0  0  0
   -2.6303   21.3977  -33.6234 H   0  0  0  0  0  0  0  0  0  0  0  0
   -3.1100   22.0900  -31.6630 N   0  0  0  0  0  0  0  0  0  0  0  0
   -1.3260   22.6210  -29.1730 C   0  0  0  0  0  0  0  0  0  0  0  0
   -1.3353   21.5792  -29.5260 H   0  0  0  0  0  0  0  0  0  0  0  0
   -0.1290   23.2000  -28.7390 C   0  0  0  0  0  0  0  0  0  0  0  0
    0.7985   22.6087  -28.7481 H   0  0  0  0  0  0  0  0  0  0  0  0
    1.2580   26.3290  -25.0130 C   0  0  0  0  0  0  0  0  0  0  0  0
    1.4688   27.1149  -25.7532 H   0  0  0  0  0  0  0  0  0  0  0  0
    0.7850   26.7240  -23.6370 C   0  0  0  0  0  0  0  0  0  0  0  0
   -0.1372   27.3152  -23.7367 H   0  0  0  0  0  0  0  0  0  0  0  0
    0.6123   25.8010  -23.0641 H   0  0  0  0  0  0  0  0  0  0  0  0
    1.7890   27.5290  -22.9040 N   0  0  0  0  0  0  0  0  0  0  0  0
    1.7990   27.2450  -21.8950 H   0  0  0  0  0  0  0  0  0  0  0  0
    1.4270   28.9560  -22.9590 C   0  0  0  0  0  0  0  0  0  0  0  0
    1.3274   29.3487  -21.9363 H   0  0  0  0  0  0  0  0  0  0  0  0
    2.2122   29.5132  -23.4909 H   0  0  0  0  0  0  0  0  0  0  0  0
    0.4711   29.0716  -23.4909 H   0  0  0  0  0  0  0  0  0  0  0  0
    3.1430   27.3370  -23.4580 C   0  0  0  0  0  0  0  0  0  0  0  0
    3.8650   27.2346  -22.6345 H   0  0  0  0  0  0  0  0  0  0  0  0
    3.1606   26.4274  -24.0763 H   0  0  0  0  0  0  0  0  0  0  0  0
    3.4128   28.2059  -24.0763 H   0  0  0  0  0  0  0  0  0  0  0  0
  1  2  1  0
  2  3  1  0
  3  4  2  0
  3  5  1  0
  5  6  1  0
  6  7  2  0
  7  8  1  0
  7  9  1  0
  9 10  1  0
  9 11  2  0
 11 12  1  0
 12 13  2  0
 13 14  1  0
 14 15  2  0
 15 16  1  0
 16 17  2  0
 17 18  1  0
 17 19  1  0
 19 20  1  0
 19 21  2  0
 21 22  1  0
 21 23  1  0
 23 24  1  0
 23 25  2  0
 25 26  1  0
 26 27  1  0
 26 28  1  0
 26 29  1  0
 29 30  1  0
 29 31  1  0
 29 32  1  0
 15 33  1  0
 33 34  1  0
 33 35  2  0
 35 36  1  0
 35 37  1  0
 11 38  1  0
 38 39  1  0
 38 40  2  0
 40 41  1  0
  2 42  2  0
 42 43  1  0
 42 44  1  0
 44 45  1  0
 44 46  1  0
 44 47  1  0
 47 48  1  0
 47 49  1  0
 49 50  1  0
 49 51  1  0
 49 52  1  0
 47 53  1  0
 53 54  1  0
 53 55  1  0
 53 56  1  0
 40  6  1  0
 37 13  1  0
 25 16  1  0
M  CHG  3   5  -1  37  -1  47   1
M  END
>  <UniqueID>  (15) 
15

>  <SMILES>  (15) 
CCc1ccccc1-c1cc[n-]/c(=N\c2ccc([N-]C(=O)/C=C/C[NH+](C)C)cc2)n1

>  <Energy>  (15) 
71.43390366186107

>  <Genealogy>  (15) 
CCc1ccccc1-c1cc[n-]c(=Nc2ccc([N-]C(=O)C=CC[NH+](C)C)cc2)n1 (protonated)
CCc1ccccc1-c1cc[n-]/c(=N\c2ccc([N-]C(=O)/C=C/C[NH+](C)C)cc2)n1 (cis-trans isomerization)
CCc1ccccc1-c1cc[n-]/c(=N\c2ccc([N-]C(=O)/C=C/C[NH+](C)C)cc2)n1 (3D coordinates assigned)
CCc1ccccc1-c1cc[n-]/c(=N\c2ccc([N-]C(=O)/C=C/C[NH+](C)C)cc2)n1 (optimized conformer: 71.43390366186107 kcal/mol)

>  <smiles>  (15) 
CCc1ccccc1-c1cc[nH]c(=Nc2ccc(NC(=O)C=CCN(C)C)cc2)n1

>  <score_type>  (15) 
oracle

>  <origin>  (15) 
adgpu

>  <m_score__min__energy>  (15) 
-10.56

>  <m_primary>  (15) 
energy

$$$$
15:0
     RDKit          3D

 57 60  0  0  0  0  0  0  0  0999 V2000
   -4.1930   13.8330  -33.9110 C   0  0  0  0  0  0  0  0  0  0  0  0
   -4.6560   14.6040  -32.7110 C   0  0  0  0  0  0  0  0  0  0  0  0
   -4.4780   14.1000  -31.5700 O   0  0  0  0  0  0  0  0  0  0  0  0
   -5.3160   15.9310  -32.8370 C   0  0  0  0  0  0  0  0  0  0  0  0
   -5.5140   16.5030  -34.1080 C   0  0  0  0  0  0  0  0  0  0  0  0
   -6.1370   17.7470  -34.2430 C   0  0  0  0  0  0  0  0  0  0  0  0
   -6.5900   18.4400  -33.1140 C   0  0  0  0  0  0  0  0  0  0  0  0
   -7.2140   19.7250  -33.2750 N   0  0  0  0  0  0  0  0  0  0  0  0
   -6.7080   20.9500  -32.7120 C   0  0  0  0  0  0  0  0  0  0  0  0
   -7.6060   21.9100  -32.2380 C   0  0  0  0  0  0  0  0  0  0  0  0
   -7.1410   23.0940  -31.6660 C   0  0  0  0  0  0  0  0  0  0  0  0
   -5.7620   23.3380  -31.5350 C   0  0  0  0  0  0  0  0  0  0  0  0
   -5.3130   24.5840  -30.8670 C   0  0  0  0  0  0  0  0  0  0  0  0
   -6.0790   25.5850  -30.8250 O   0  0  0  0  0  0  0  0  0  0  0  0
   -3.9640   24.6850  -30.3840 N   0  0  0  0  0  0  0  0  0  0  0  0
   -3.5430   24.7090  -29.1500 C   0  0  0  0  0  0  0  0  0  0  0  0
   -2.1780   24.9270  -28.9180 C   0  0  0  0  0  0  0  0  0  0  0  0
   -1.6930   24.9600  -27.6110 C   0  0  0  0  0  0  0  0  0  0  0  0
   -2.5670   24.7630  -26.5430 C   0  0  0  0  0  0  0  0  0  0  0  0
   -3.9160   24.5240  -26.8010 C   0  0  0  0  0  0  0  0  0  0  0  0
   -4.3780   24.4950  -28.0830 N   0  0  0  0  0  0  0  0  0  0  0  0
   -4.8430   22.3660  -32.0040 C   0  0  0  0  0  0  0  0  0  0  0  0
   -3.4250   22.6110  -31.9700 N   0  0  0  0  0  0  0  0  0  0  0  0
   -2.4420   21.5850  -32.1810 C   0  0  0  0  0  0  0  0  0  0  0  0
   -2.2050   21.1370  -33.4890 C   0  0  0  0  0  0  0  0  0  0  0  0
   -1.2830   20.1180  -33.7340 C   0  0  0  0  0  0  0  0  0  0  0  0
   -0.5810   19.5410  -32.6750 C   0  0  0  0  0  0  0  0  0  0  0  0
   -0.7850   19.9950  -31.3700 C   0  0  0  0  0  0  0  0  0  0  0  0
   -1.6950   21.0340  -31.1090 C   0  0  0  0  0  0  0  0  0  0  0  0
   -1.8570   21.5240  -29.6950 C   0  0  0  0  0  0  0  0  0  0  0  0
   -5.3300   21.1760  -32.5790 C   0  0  0  0  0  0  0  0  0  0  0  0
   -6.3710   17.8900  -31.8410 C   0  0  0  0  0  0  0  0  0  0  0  0
   -5.7490   16.6450  -31.7040 C   0  0  0  0  0  0  0  0  0  0  0  0
   -3.6525   12.9330  -33.5824 H   0  0  0  0  0  0  0  0  0  0  0  0
   -5.0634   13.5378  -34.5154 H   0  0  0  0  0  0  0  0  0  0  0  0
   -3.5234   14.4626  -34.5154 H   0  0  0  0  0  0  0  0  0  0  0  0
   -5.1745   15.9648  -35.0053 H   0  0  0  0  0  0  0  0  0  0  0  0
   -6.2723   18.1845  -35.2432 H   0  0  0  0  0  0  0  0  0  0  0  0
   -8.1030   19.7710  -33.8230 H   0  0  0  0  0  0  0  0  0  0  0  0
   -8.6884   21.7304  -32.3166 H   0  0  0  0  0  0  0  0  0  0  0  0
   -7.8617   23.8463  -31.3129 H   0  0  0  0  0  0  0  0  0  0  0  0
   -1.4910   25.0717  -29.7648 H   0  0  0  0  0  0  0  0  0  0  0  0
   -0.6243   25.1409  -27.4234 H   0  0  0  0  0  0  0  0  0  0  0  0
   -2.1962   24.7958  -25.5079 H   0  0  0  0  0  0  0  0  0  0  0  0
   -4.6116   24.3579  -25.9652 H   0  0  0  0  0  0  0  0  0  0  0  0
   -5.3850   24.2590  -28.2120 H   0  0  0  0  0  0  0  0  0  0  0  0
   -3.1010   23.6050  -32.0060 H   0  0  0  0  0  0  0  0  0  0  0  0
   -2.7503   21.5925  -34.3287 H   0  0  0  0  0  0  0  0  0  0  0  0
   -1.1096   19.7695  -34.7628 H   0  0  0  0  0  0  0  0  0  0  0  0
    0.1339   18.7276  -32.8682 H   0  0  0  0  0  0  0  0  0  0  0  0
   -0.2289   19.5356  -30.5395 H   0  0  0  0  0  0  0  0  0  0  0  0
   -1.5906   20.7184  -28.9950 H   0  0  0  0  0  0  0  0  0  0  0  0
   -1.1966   22.3878  -29.5283 H   0  0  0  0  0  0  0  0  0  0  0  0
   -2.9021   21.8239  -29.5283 H   0  0  0  0  0  0  0  0  0  0  0  0
   -4.6194   20.4127  -32.9289 H   0  0  0  0  0  0  0  0  0  0  0  0
   -6.6909   18.4422  -30.9451 H   0  0  0  0  0  0  0  0  0  0  0  0
   -5.5967   16.2196  -30.7011 H   0  0  0  0  0  0  0  0  0  0  0  0
  1  2  1  0
  2  3  2  0
  2  4  1  0
  4  5  2  0
  5  6  1  0
  6  7  2  0
  7  8  1  0
  8  9  1  0
  9 10  2  0
 10 11  1  0
 11 12  2  0
 12 13  1  0
 13 14  2  0
 13 15  1  0
 15 16  2  3
 16 17  1  0
 17 18  2  0
 18 19  1  0
 19 20  2  0
 20 21  1  0
 12 22  1  0
 22 23  1  0
 23 24  1  0
 24 25  2  0
 25 26  1  0
 26 27  2  0
 27 28  1  0
 28 29  2  0
 29 30  1  0
 22 31  2  0
  7 32  1  0
 32 33  2  0
 33  4  1  0
 31  9  1  0
 21 16  1  0
 29 24  1  0
  1 34  1  0
  1 35  1  0
  1 36  1  0
  5 37  1  0
  6 38  1  0
  8 39  1  0
 10 40  1  0
 11 41  1  0
 17 42  1  0
 18 43  1  0
 19 44  1  0
 20 45  1  0
 21 46  1  0
 23 47  1  0
 25 48  1  0
 26 49  1  0
 27 50  1  0
 28 51  1  0
 30 52  1  0
 30 53  1  0
 30 54  1  0
 31 55  1  0
 32 56  1  0
 33 57  1  0
M  END
>  <UniqueID>  (16) 
16

>  <SMILES>  (16) 
CC(=O)c1ccc(Nc2ccc(C(=O)N=c3cccc[nH]3)c(Nc3ccccc3C)c2)cc1

>  <Energy>  (16) 
85.34810912047163

>  <Genealogy>  (16) 
CC(=O)c1ccc(Nc2ccc(C(=O)N=c3cccc[nH]3)c(Nc3ccccc3C)c2)cc1 (3D coordinates assigned)
CC(=O)c1ccc(Nc2ccc(C(=O)N=c3cccc[nH]3)c(Nc3ccccc3C)c2)cc1 (optimized conformer: 85.34810912047163 kcal/mol)

>  <smiles>  (16) 
CC(=O)c1ccc(Nc2ccc(C(=O)N=c3cccc[nH]3)c(Nc3ccccc3C)c2)cc1

>  <score_type>  (16) 
oracle

>  <origin>  (16) 
adgpu

>  <m_score__min__energy>  (16) 
-10.77

>  <m_primary>  (16) 
energy

$$$$
16:0
     RDKit          3D

 30 31  0  0  0  0  0  0  0  0999 V2000
   -2.2450   25.1180  -26.2960 C   0  0  0  0  0  0  0  0  0  0  0  0
   -2.1260   23.8490  -27.1330 C   0  0  0  0  0  0  0  0  0  0  0  0
   -3.0310   23.9180  -28.3430 C   0  0  0  0  0  0  0  0  0  0  0  0
   -2.7760   24.8260  -29.3850 C   0  0  0  0  0  0  0  0  0  0  0  0
   -1.6680   25.6640  -29.3430 O   0  0  0  0  0  0  0  0  0  0  0  0
   -3.6180   24.8930  -30.4480 N   0  0  0  0  0  0  0  0  0  0  0  0
   -4.7180   24.1020  -30.5230 C   0  0  0  0  0  0  0  0  0  0  0  0
   -5.8070   24.2170  -31.9370 S   0  0  0  0  0  0  0  0  0  0  0  0
   -7.0210   23.0480  -31.2430 C   0  0  0  0  0  0  0  0  0  0  0  0
   -6.8550   21.7070  -31.8960 C   0  0  0  0  0  0  0  0  0  0  0  0
   -7.9330   20.8080  -31.9540 C   0  0  0  0  0  0  0  0  0  0  0  0
   -7.7670   19.5470  -32.5340 C   0  0  0  0  0  0  0  0  0  0  0  0
   -6.5250   19.1700  -33.0520 C   0  0  0  0  0  0  0  0  0  0  0  0
   -6.3010   17.4450  -33.8420 Br  0  0  0  0  0  0  0  0  0  0  0  0
   -5.4430   20.0550  -32.9850 C   0  0  0  0  0  0  0  0  0  0  0  0
   -5.6060   21.3170  -32.4060 C   0  0  0  0  0  0  0  0  0  0  0  0
   -4.9960   23.2270  -29.5230 N   0  0  0  0  0  0  0  0  0  0  0  0
   -4.1860   23.1210  -28.4380 C   0  0  0  0  0  0  0  0  0  0  0  0
   -4.4840   22.3060  -27.5240 O   0  0  0  0  0  0  0  0  0  0  0  0
   -2.2205   24.8564  -25.2279 H   0  0  0  0  0  0  0  0  0  0  0  0
   -1.4060   25.7904  -26.5282 H   0  0  0  0  0  0  0  0  0  0  0  0
   -3.1944   25.6227  -26.5282 H   0  0  0  0  0  0  0  0  0  0  0  0
   -1.0845   23.7338  -27.4675 H   0  0  0  0  0  0  0  0  0  0  0  0
   -2.4267   22.9896  -26.5158 H   0  0  0  0  0  0  0  0  0  0  0  0
   -6.8582   22.9507  -30.1595 H   0  0  0  0  0  0  0  0  0  0  0  0
   -8.0383   23.4227  -31.4291 H   0  0  0  0  0  0  0  0  0  0  0  0
   -8.9109   21.0973  -31.5417 H   0  0  0  0  0  0  0  0  0  0  0  0
   -8.6163   18.8496  -32.5828 H   0  0  0  0  0  0  0  0  0  0  0  0
   -4.4637   19.7575  -33.3881 H   0  0  0  0  0  0  0  0  0  0  0  0
   -4.7518   22.0078  -32.3496 H   0  0  0  0  0  0  0  0  0  0  0  0
  1  2  1  0
  2  3  1  0
  3  4  2  0
  4  5  1  0
  4  6  1  0
  6  7  1  0
  7  8  1  0
  8  9  1  0
  9 10  1  0
 10 11  2  0
 11 12  1  0
 12 13  2  0
 13 14  1  0
 13 15  1  0
 15 16  2  0
  7 17  2  0
 17 18  1  0
 18 19  2  0
 18  3  1  0
 16 10  1  0
  1 20  1  0
  1 21  1  0
  1 22  1  0
  2 23  1  0
  2 24  1  0
  9 25  1  0
  9 26  1  0
 11 27  1  0
 12 28  1  0
 15 29  1  0
 16 30  1  0
M  CHG  2   5  -1   6  -1
M  END
>  <UniqueID>  (17) 
17

>  <SMILES>  (17) 
CCc1c([O-])[n-]c(SCc2ccc(Br)cc2)nc1=O

>  <Energy>  (17) 
25.233792119696417

>  <Genealogy>  (17) 
CCc1c([O-])[n-]c(SCc2ccc(Br)cc2)nc1=O (protonated)
CCc1c([O-])[n-]c(SCc2ccc(Br)cc2)nc1=O (3D coordinates assigned)
CCc1c([O-])[n-]c(SCc2ccc(Br)cc2)nc1=O (optimized conformer: 25.233792119696417 kcal/mol)

>  <smiles>  (17) 
CCc1c(O)[nH]c(SCc2ccc(Br)cc2)nc1=O

>  <score_type>  (17) 
oracle

>  <origin>  (17) 
adgpu

>  <m_score__min__energy>  (17) 
-11.960000000000001

>  <m_primary>  (17) 
energy

$$$$
17:0
     RDKit          3D

 53 55  0  0  0  0  0  0  0  0999 V2000
   -7.9786   22.0653  -29.1249 H   0  0  0  0  0  0  0  0  0  0  0  0
   -7.5220   22.5950  -29.9740 C   0  0  0  0  0  0  0  0  0  0  0  0
   -7.8720   22.2660  -31.2470 N   0  0  0  0  0  0  0  0  0  0  0  0
   -7.3290   22.9000  -32.3190 C   0  0  0  0  0  0  0  0  0  0  0  0
   -7.6283   22.6098  -33.3369 H   0  0  0  0  0  0  0  0  0  0  0  0
   -6.3920   23.9190  -32.1330 C   0  0  0  0  0  0  0  0  0  0  0  0
   -5.9514   24.4308  -33.0013 H   0  0  0  0  0  0  0  0  0  0  0  0
   -6.0160   24.2860  -30.8310 C   0  0  0  0  0  0  0  0  0  0  0  0
   -5.0180   25.3560  -30.6020 C   0  0  0  0  0  0  0  0  0  0  0  0
   -5.4060   26.5480  -30.4780 O   0  0  0  0  0  0  0  0  0  0  0  0
   -3.6190   25.0720  -30.4670 N   0  0  0  0  0  0  0  0  0  0  0  0
   -3.0390   23.7730  -30.2580 C   0  0  0  0  0  0  0  0  0  0  0  0
   -3.0120   22.8230  -31.2920 C   0  0  0  0  0  0  0  0  0  0  0  0
   -3.4344   23.0778  -32.2752 H   0  0  0  0  0  0  0  0  0  0  0  0
   -2.4550   21.5580  -31.0870 C   0  0  0  0  0  0  0  0  0  0  0  0
   -2.4640   20.6130  -32.1650 N   0  0  0  0  0  0  0  0  0  0  0  0
   -3.4780   19.9150  -32.6110 C   0  0  0  0  0  0  0  0  0  0  0  0
   -4.7970   20.0320  -32.0960 C   0  0  0  0  0  0  0  0  0  0  0  0
   -5.0550   20.8690  -31.1890 O   0  0  0  0  0  0  0  0  0  0  0  0
   -5.8010   19.2310  -32.5970 N   0  0  0  0  0  0  0  0  0  0  0  0
   -7.1860   19.2680  -32.0610 C   0  0  2  0  0  0  0  0  0  0  0  0
   -7.1809   19.9185  -31.1740 H   0  0  0  0  0  0  0  0  0  0  0  0
   -7.6510   17.8830  -31.5880 C   0  0  0  0  0  0  0  0  0  0  0  0
   -7.6604   17.8551  -30.4884 H   0  0  0  0  0  0  0  0  0  0  0  0
   -8.6643   17.6867  -31.9684 H   0  0  0  0  0  0  0  0  0  0  0  0
   -6.9614   17.1150  -31.9684 H   0  0  0  0  0  0  0  0  0  0  0  0
   -8.1590   19.8890  -33.0740 C   0  0  0  0  0  0  0  0  0  0  0  0
   -8.0208   20.9802  -33.0895 H   0  0  0  0  0  0  0  0  0  0  0  0
   -7.9554   19.4719  -34.0713 H   0  0  0  0  0  0  0  0  0  0  0  0
   -9.4640   19.5980  -32.7190 F   0  0  0  0  0  0  0  0  0  0  0  0
   -5.5240   18.3520  -33.6060 C   0  0  0  0  0  0  0  0  0  0  0  0
   -6.3224   17.7054  -33.9990 H   0  0  0  0  0  0  0  0  0  0  0  0
   -4.2390   18.2660  -34.1430 C   0  0  0  0  0  0  0  0  0  0  0  0
   -3.9380   17.2760  -35.2300 C   0  0  0  0  0  0  0  0  0  0  0  0
   -3.6460   16.3154  -34.7805 H   0  0  0  0  0  0  0  0  0  0  0  0
   -4.8330   17.1322  -35.8531 H   0  0  0  0  0  0  0  0  0  0  0  0
   -3.1144   17.6547  -35.8531 H   0  0  0  0  0  0  0  0  0  0  0  0
   -3.2470   19.0350  -33.6230 N   0  0  0  0  0  0  0  0  0  0  0  0
   -2.2770   18.9440  -34.0070 H   0  0  0  0  0  0  0  0  0  0  0  0
   -1.8540   21.2470  -29.8500 C   0  0  0  0  0  0  0  0  0  0  0  0
   -1.2370   19.8960  -29.6070 C   0  0  0  0  0  0  0  0  0  0  0  0
   -1.1562   19.7192  -28.5243 H   0  0  0  0  0  0  0  0  0  0  0  0
   -1.8689   19.1176  -30.0595 H   0  0  0  0  0  0  0  0  0  0  0  0
   -0.2349   19.8638  -30.0595 H   0  0  0  0  0  0  0  0  0  0  0  0
   -1.8720   22.1980  -28.8190 C   0  0  0  0  0  0  0  0  0  0  0  0
   -1.4284   21.9504  -27.8433 H   0  0  0  0  0  0  0  0  0  0  0  0
   -2.4500   23.4630  -29.0180 C   0  0  0  0  0  0  0  0  0  0  0  0
   -2.4630   24.4670  -27.8980 C   0  0  0  0  0  0  0  0  0  0  0  0
   -2.4562   23.9396  -26.9327 H   0  0  0  0  0  0  0  0  0  0  0  0
   -1.5731   25.1094  -27.9711 H   0  0  0  0  0  0  0  0  0  0  0  0
   -3.3692   25.0862  -27.9711 H   0  0  0  0  0  0  0  0  0  0  0  0
   -6.5840   23.6040  -29.7430 C   0  0  0  0  0  0  0  0  0  0  0  0
   -6.2920   23.8628  -28.7145 H   0  0  0  0  0  0  0  0  0  0  0  0
  1  2  1  0
  2  3  2  0
  3  4  1  0
  4  5  1  0
  4  6  2  0
  6  7  1  0
  6  8  1  0
  8  9  1  0
  9 10  2  0
  9 11  1  0
 11 12  1  0
 12 13  2  0
 13 14  1  0
 13 15  1  0
 15 16  1  0
 16 17  2  0
 17 18  1  0
 18 19  2  0
 18 20  1  0
 20 21  1  0
 21 22  1  1
 21 23  1  0
 23 24  1  0
 23 25  1  0
 23 26  1  0
 21 27  1  0
 27 28  1  0
 27 29  1  0
 27 30  1  0
 20 31  1  0
 31 32  1  0
 31 33  2  0
 33 34  1  0
 34 35  1  0
 34 36  1  0
 34 37  1  0
 33 38  1  0
 38 39  1  0
 15 40  2  0
 40 41  1  0
 41 42  1  0
 41 43  1  0
 41 44  1  0
 40 45  1  0
 45 46  1  0
 45 47  2  0
 47 48  1  0
 48 49  1  0
 48 50  1  0
 48 51  1  0
  8 52  2  0
 52 53  1  0
 52  2  1  0
 47 12  1  0
 38 17  1  0
M  CHG  1  11  -1
M  END
>  <UniqueID>  (18) 
18

>  <SMILES>  (18) 
Cc1cn([C@H](C)CF)c(=O)/c(=N\c2cc([N-]C(=O)c3ccncc3)c(C)cc2C)[nH]1

>  <Energy>  (18) 
75.57116642345

>  <Genealogy>  (18) 
Cc1cn(C(C)CF)c(=O)c(=Nc2cc([N-]C(=O)c3ccncc3)c(C)cc2C)[nH]1 (protonated)
Cc1cn([C@H](C)CF)c(=O)c(=Nc2cc([N-]C(=O)c3ccncc3)c(C)cc2C)[nH]1 (chirality)
Cc1cn([C@H](C)CF)c(=O)/c(=N\c2cc([N-]C(=O)c3ccncc3)c(C)cc2C)[nH]1 (cis-trans isomerization)
Cc1cn([C@H](C)CF)c(=O)/c(=N\c2cc([N-]C(=O)c3ccncc3)c(C)cc2C)[nH]1 (3D coordinates assigned)
Cc1cn([C@H](C)CF)c(=O)/c(=N\c2cc([N-]C(=O)c3ccncc3)c(C)cc2C)[nH]1 (optimized conformer: 75.57116642345 kcal/mol)

>  <smiles>  (18) 
Cc1cn(C(C)CF)c(=O)c(=Nc2cc(NC(=O)c3ccncc3)c(C)cc2C)[nH]1

>  <score_type>  (18) 
oracle

>  <origin>  (18) 
adgpu

>  <m_score__min__energy>  (18) 
-9.9499999999999993

>  <m_primary>  (18) 
energy

$$$$
18:0
     RDKit          3D

 39 42  0  0  0  0  0  0  0  0999 V2000
   -7.2320   21.0310  -33.0870 O   0  0  0  0  0  0  0  0  0  0  0  0
   -6.9180   22.0790  -32.2290 C   0  0  0  0  0  0  0  0  0  0  0  0
   -7.8630   23.0740  -31.9670 C   0  0  0  0  0  0  0  0  0  0  0  0
   -7.5460   24.1310  -31.1110 C   0  0  0  0  0  0  0  0  0  0  0  0
   -6.2860   24.1940  -30.5110 C   0  0  0  0  0  0  0  0  0  0  0  0
   -5.3300   23.1930  -30.7590 C   0  0  0  0  0  0  0  0  0  0  0  0
   -3.9890   23.2670  -30.1300 C   0  0  0  0  0  0  0  0  0  0  0  0
   -3.3780   22.0920  -29.6570 C   0  0  0  0  0  0  0  0  0  0  0  0
   -2.1120   22.1310  -29.0460 C   0  0  0  0  0  0  0  0  0  0  0  0
   -1.4780   20.8840  -28.5460 C   0  0  0  0  0  0  0  0  0  0  0  0
   -2.1290   20.0890  -27.5860 C   0  0  0  0  0  0  0  0  0  0  0  0
   -1.5380   18.9150  -27.1140 C   0  0  0  0  0  0  0  0  0  0  0  0
   -0.2830   18.5140  -27.5920 C   0  0  0  0  0  0  0  0  0  0  0  0
    0.3190   17.3360  -27.1220 C   0  0  0  0  0  0  0  0  0  0  0  0
    1.5720   16.9440  -27.6050 C   0  0  0  0  0  0  0  0  0  0  0  0
    2.1540   15.7720  -27.1280 O   0  0  0  0  0  0  0  0  0  0  0  0
    2.2300   17.7300  -28.5600 C   0  0  0  0  0  0  0  0  0  0  0  0
    1.6400   18.9040  -29.0350 C   0  0  0  0  0  0  0  0  0  0  0  0
    0.3830   19.3050  -28.5580 C   0  0  0  0  0  0  0  0  0  0  0  0
   -0.2190   20.4830  -29.0270 C   0  0  0  0  0  0  0  0  0  0  0  0
   -1.4570   23.3660  -28.9140 C   0  0  0  0  0  0  0  0  0  0  0  0
   -2.0500   24.5390  -29.3900 C   0  0  0  0  0  0  0  0  0  0  0  0
   -1.3800   25.7500  -29.2610 O   0  0  0  0  0  0  0  0  0  0  0  0
   -3.3080   24.4940  -30.0010 C   0  0  0  0  0  0  0  0  0  0  0  0
   -3.8660   25.6710  -30.4940 O   0  0  0  0  0  0  0  0  0  0  0  0
   -5.6550   22.1370  -31.6300 C   0  0  0  0  0  0  0  0  0  0  0  0
   -8.8572   23.0249  -32.4351 H   0  0  0  0  0  0  0  0  0  0  0  0
   -8.2900   24.9156  -30.9088 H   0  0  0  0  0  0  0  0  0  0  0  0
   -6.0404   25.0311  -29.8410 H   0  0  0  0  0  0  0  0  0  0  0  0
   -3.8977   21.1287  -29.7665 H   0  0  0  0  0  0  0  0  0  0  0  0
   -3.1137   20.3949  -27.2029 H   0  0  0  0  0  0  0  0  0  0  0  0
   -2.0597   18.3024  -26.3639 H   0  0  0  0  0  0  0  0  0  0  0  0
   -0.1964   16.7190  -26.3712 H   0  0  0  0  0  0  0  0  0  0  0  0
    1.6260   15.1030  -26.5810 H   0  0  0  0  0  0  0  0  0  0  0  0
    3.2159   17.4213  -28.9377 H   0  0  0  0  0  0  0  0  0  0  0  0
    2.1626   19.5157  -29.7852 H   0  0  0  0  0  0  0  0  0  0  0  0
    0.2988   21.0981  -29.7777 H   0  0  0  0  0  0  0  0  0  0  0  0
   -0.4692   23.4108  -28.4321 H   0  0  0  0  0  0  0  0  0  0  0  0
   -4.9126   21.3533  -31.8410 H   0  0  0  0  0  0  0  0  0  0  0  0
  1  2  1  0
  2  3  2  0
  3  4  1  0
  4  5  2  0
  5  6  1  0
  6  7  1  0
  7  8  2  0
  8  9  1  0
  9 10  1  0
 10 11  2  0
 11 12  1  0
 12 13  2  0
 13 14  1  0
 14 15  2  0
 15 16  1  0
 15 17  1  0
 17 18  2  0
 18 19  1  0
 19 20  2  0
  9 21  2  0
 21 22  1  0
 22 23  1  0
 22 24  2  0
 24 25  1  0
  6 26  2  0
 26  2  1  0
 24  7  1  0
 20 10  1  0
 19 13  1  0
  3 27  1  0
  4 28  1  0
  5 29  1  0
  8 30  1  0
 11 31  1  0
 12 32  1  0
 14 33  1  0
 16 34  1  0
 17 35  1  0
 18 36  1  0
 20 37  1  0
 21 38  1  0
 26 39  1  0
M  CHG  3   1  -1  23  -1  25  -1
M  END
>  <UniqueID>  (19) 
19

>  <SMILES>  (19) 
[O-]c1cccc(-c2cc(-c3ccc4cc(O)ccc4c3)cc([O-])c2[O-])c1

>  <Energy>  (19) 
59.1245933279841

>  <Genealogy>  (19) 
[O-]c1cccc(-c2cc(-c3ccc4cc(O)ccc4c3)cc([O-])c2[O-])c1 (protonated)
[O-]c1cccc(-c2cc(-c3ccc4cc(O)ccc4c3)cc([O-])c2[O-])c1 (3D coordinates assigned)
[O-]c1cccc(-c2cc(-c3ccc4cc(O)ccc4c3)cc([O-])c2[O-])c1 (optimized conformer: 59.1245933279841 kcal/mol)

>  <smiles>  (19) 
Oc1cccc(-c2cc(-c3ccc4cc(O)ccc4c3)cc(O)c2O)c1

>  <score_type>  (19) 
oracle

>  <origin>  (19) 
adgpu

>  <m_score__min__energy>  (19) 
-13.640000000000001

>  <m_primary>  (19) 
energy

$$$$
19:0
     RDKit          3D

 27 27  0  0  0  0  0  0  0  0999 V2000
   -1.8630   24.0350  -27.5070 F   0  0  0  0  0  0  0  0  0  0  0  0
   -1.5770   24.2890  -28.8360 C   0  0  0  0  0  0  0  0  0  0  0  0
   -0.4130   23.6240  -29.1800 F   0  0  0  0  0  0  0  0  0  0  0  0
   -1.3910   25.6500  -29.0050 F   0  0  0  0  0  0  0  0  0  0  0  0
   -2.7340   23.8100  -29.7080 C   0  0  0  0  0  0  0  0  0  0  0  0
   -3.5080   24.9560  -30.2050 N   0  0  0  0  0  0  0  0  0  0  0  0
   -4.9140   24.8820  -29.7780 C   0  0  0  0  0  0  0  0  0  0  0  0
   -5.8330   24.6580  -30.9780 C   0  0  0  0  0  0  0  0  0  0  0  0
   -5.2000   23.7890  -31.9140 O   0  0  0  0  0  0  0  0  0  0  0  0
   -5.6480   22.4980  -32.2260 C   0  0  0  0  0  0  0  0  0  0  0  0
   -4.7150   21.5660  -32.6990 C   0  0  0  0  0  0  0  0  0  0  0  0
   -5.1120   20.2660  -33.0240 C   0  0  0  0  0  0  0  0  0  0  0  0
   -6.4490   19.8860  -32.8800 C   0  0  0  0  0  0  0  0  0  0  0  0
   -7.3910   20.8070  -32.4080 C   0  0  0  0  0  0  0  0  0  0  0  0
   -9.0690   20.3280  -32.2270 Cl  0  0  0  0  0  0  0  0  0  0  0  0
   -6.9950   22.1090  -32.0810 C   0  0  0  0  0  0  0  0  0  0  0  0
   -2.3341   23.2445  -30.5625 H   0  0  0  0  0  0  0  0  0  0  0  0
   -3.3933   23.1678  -29.1057 H   0  0  0  0  0  0  0  0  0  0  0  0
   -3.4940   24.9180  -31.2520 H   0  0  0  0  0  0  0  0  0  0  0  0
   -5.0331   24.0474  -29.0715 H   0  0  0  0  0  0  0  0  0  0  0  0
   -5.1873   25.8325  -29.2964 H   0  0  0  0  0  0  0  0  0  0  0  0
   -6.7751   24.2039  -30.6370 H   0  0  0  0  0  0  0  0  0  0  0  0
   -6.0415   25.6237  -31.4617 H   0  0  0  0  0  0  0  0  0  0  0  0
   -3.6614   21.8598  -32.8155 H   0  0  0  0  0  0  0  0  0  0  0  0
   -4.3714   19.5414  -33.3934 H   0  0  0  0  0  0  0  0  0  0  0  0
   -6.7610   18.8631  -33.1376 H   0  0  0  0  0  0  0  0  0  0  0  0
   -7.7373   22.8309  -31.7097 H   0  0  0  0  0  0  0  0  0  0  0  0
  1  2  1  0
  2  3  1  0
  2  4  1  0
  2  5  1  0
  5  6  1  0
  6  7  1  0
  7  8  1  0
  8  9  1  0
  9 10  1  0
 10 11  2  0
 11 12  1  0
 12 13  2  0
 13 14  1  0
 14 15  1  0
 14 16  2  0
 16 10  1  0
  5 17  1  0
  5 18  1  0
  6 19  1  0
  7 20  1  0
  7 21  1  0
  8 22  1  0
  8 23  1  0
 11 24  1  0
 12 25  1  0
 13 26  1  0
 16 27  1  0
M  END
>  <UniqueID>  (20) 
20

>  <SMILES>  (20) 
FC(F)(F)CNCCOc1cccc(Cl)c1

>  <Energy>  (20) 
19.495400398065758

>  <Genealogy>  (20) 
FC(F)(F)CNCCOc1cccc(Cl)c1 (3D coordinates assigned)
FC(F)(F)CNCCOc1cccc(Cl)c1 (optimized conformer: 19.495400398065758 kcal/mol)

>  <smiles>  (20) 
FC(F)(F)CNCCOc1cccc(Cl)c1

>  <score_type>  (20) 
oracle

>  <origin>  (20) 
adgpu

>  <m_score__min__energy>  (20) 
-5.71

>  <m_primary>  (20) 
energy

$$$$
20:0
     RDKit          3D

 47 49  0  0  0  0  0  0  0  0999 V2000
   -6.1640   18.6370  -33.7930 C   0  0  0  0  0  0  0  0  0  0  0  0
   -4.8880   19.4060  -33.6150 C   0  0  0  0  0  0  0  0  0  0  0  0
   -3.6890   18.9220  -34.1600 C   0  0  0  0  0  0  0  0  0  0  0  0
   -2.4930   19.6120  -33.9500 C   0  0  0  0  0  0  0  0  0  0  0  0
   -2.4830   20.7880  -33.1960 C   0  0  0  0  0  0  0  0  0  0  0  0
   -3.6820   21.2920  -32.6550 C   0  0  0  0  0  0  0  0  0  0  0  0
   -3.7100   22.4720  -31.8350 N   0  0  0  0  0  0  0  0  0  0  0  0
   -2.9330   22.7530  -30.8260 C   0  0  0  0  0  0  0  0  0  0  0  0
   -1.9120   21.9250  -30.5020 N   0  0  0  0  0  0  0  0  0  0  0  0
   -1.0700   22.2070  -29.4850 C   0  0  0  0  0  0  0  0  0  0  0  0
   -0.1430   21.3920  -29.2300 O   0  0  0  0  0  0  0  0  0  0  0  0
   -1.2250   23.3580  -28.7540 N   0  0  0  0  0  0  0  0  0  0  0  0
   -0.2860   23.6640  -27.6400 C   0  0  0  0  0  0  0  0  0  0  0  0
    0.2640   25.0940  -27.7390 C   0  0  0  0  0  0  0  0  0  0  0  0
   -0.9210   23.3880  -26.2690 C   0  0  0  0  0  0  0  0  0  0  0  0
   -2.2560   24.2100  -29.0860 C   0  0  0  0  0  0  0  0  0  0  0  0
   -2.4180   25.2810  -28.4380 O   0  0  0  0  0  0  0  0  0  0  0  0
   -3.1120   23.9120  -30.1190 N   0  0  0  0  0  0  0  0  0  0  0  0
   -4.1930   24.8500  -30.4950 C   0  0  0  0  0  0  0  0  0  0  0  0
   -5.4820   24.1030  -30.7310 C   0  0  0  0  0  0  0  0  0  0  0  0
   -6.0540   23.3270  -29.7080 C   0  0  0  0  0  0  0  0  0  0  0  0
   -7.2320   22.6120  -29.9410 C   0  0  0  0  0  0  0  0  0  0  0  0
   -7.8490   22.6640  -31.1950 C   0  0  0  0  0  0  0  0  0  0  0  0
   -9.3260   21.7650  -31.4860 Cl  0  0  0  0  0  0  0  0  0  0  0  0
   -7.2850   23.4350  -32.2180 C   0  0  0  0  0  0  0  0  0  0  0  0
   -6.1070   24.1520  -31.9880 C   0  0  0  0  0  0  0  0  0  0  0  0
   -4.8720   20.5770  -32.8430 C   0  0  0  0  0  0  0  0  0  0  0  0
   -6.5812   18.3856  -32.8067 H   0  0  0  0  0  0  0  0  0  0  0  0
   -6.8867   19.2501  -34.3514 H   0  0  0  0  0  0  0  0  0  0  0  0
   -5.9595   17.7116  -34.3514 H   0  0  0  0  0  0  0  0  0  0  0  0
   -3.6910   17.9964  -34.7544 H   0  0  0  0  0  0  0  0  0  0  0  0
   -1.5559   19.2282  -34.3797 H   0  0  0  0  0  0  0  0  0  0  0  0
   -1.5366   21.3217  -33.0243 H   0  0  0  0  0  0  0  0  0  0  0  0
    0.5710   22.9816  -27.7398 H   0  0  0  0  0  0  0  0  0  0  0  0
    0.4194   25.4979  -26.7277 H   0  0  0  0  0  0  0  0  0  0  0  0
    1.2216   25.0819  -28.2801 H   0  0  0  0  0  0  0  0  0  0  0  0
   -0.4549   25.7267  -28.2801 H   0  0  0  0  0  0  0  0  0  0  0  0
   -0.2236   23.6911  -25.4742 H   0  0  0  0  0  0  0  0  0  0  0  0
   -1.8551   23.9613  -26.1755 H   0  0  0  0  0  0  0  0  0  0  0  0
   -1.1391   22.3139  -26.1755 H   0  0  0  0  0  0  0  0  0  0  0  0
   -4.3396   25.5776  -29.6831 H   0  0  0  0  0  0  0  0  0  0  0  0
   -3.9075   25.3688  -31.4220 H   0  0  0  0  0  0  0  0  0  0  0  0
   -5.5725   23.2823  -28.7200 H   0  0  0  0  0  0  0  0  0  0  0  0
   -7.6749   22.0069  -29.1362 H   0  0  0  0  0  0  0  0  0  0  0  0
   -7.7694   23.4769  -33.2047 H   0  0  0  0  0  0  0  0  0  0  0  0
   -5.6677   24.7571  -32.7948 H   0  0  0  0  0  0  0  0  0  0  0  0
   -5.8028   20.9374  -32.3807 H   0  0  0  0  0  0  0  0  0  0  0  0
  1  2  1  0
  2  3  2  0
  3  4  1  0
  4  5  2  0
  5  6  1  0
  6  7  1  0
  7  8  2  3
  8  9  1  0
  9 10  1  0
 10 11  2  0
 10 12  1  0
 12 13  1  0
 13 14  1  0
 13 15  1  0
 12 16  1  0
 16 17  2  0
 16 18  1  0
 18 19  1  0
 19 20  1  0
 20 21  2  0
 21 22  1  0
 22 23  2  0
 23 24  1  0
 23 25  1  0
 25 26  2  0
  6 27  2  0
 27  2  1  0
 18  8  1  0
 26 20  1  0
  1 28  1  0
  1 29  1  0
  1 30  1  0
  3 31  1  0
  4 32  1  0
  5 33  1  0
 13 34  1  0
 14 35  1  0
 14 36  1  0
 14 37  1  0
 15 38  1  0
 15 39  1  0
 15 40  1  0
 19 41  1  0
 19 42  1  0
 21 43  1  0
 22 44  1  0
 25 45  1  0
 26 46  1  0
 27 47  1  0
M  CHG  1   9  -1
M  END
>  <UniqueID>  (21) 
21

>  <SMILES>  (21) 
Cc1cccc(N=c2[n-]c(=O)n(C(C)C)c(=O)n2Cc2ccc(Cl)cc2)c1

>  <Energy>  (21) 
60.821288563711875

>  <Genealogy>  (21) 
Cc1cccc(N=c2[n-]c(=O)n(C(C)C)c(=O)n2Cc2ccc(Cl)cc2)c1 (protonated)
Cc1cccc(N=c2[n-]c(=O)n(C(C)C)c(=O)n2Cc2ccc(Cl)cc2)c1 (3D coordinates assigned)
Cc1cccc(N=c2[n-]c(=O)n(C(C)C)c(=O)n2Cc2ccc(Cl)cc2)c1 (optimized conformer: 60.821288563711875 kcal/mol)

>  <smiles>  (21) 
Cc1cccc(N=c2[nH]c(=O)n(C(C)C)c(=O)n2Cc2ccc(Cl)cc2)c1

>  <score_type>  (21) 
oracle

>  <origin>  (21) 
adgpu

>  <m_score__min__energy>  (21) 
-8.8100000000000005

>  <m_primary>  (21) 
energy

$$$$
21:0
     RDKit          3D

 51 54  0  0  0  0  0  0  0  0999 V2000
   -9.3120   18.0920  -31.6570 O   0  0  0  0  0  0  0  0  0  0  0  0
   -8.2480   18.7030  -31.9430 C   0  0  0  0  0  0  0  0  0  0  0  0
   -7.1550   18.0110  -32.5530 N   0  0  0  0  0  0  0  0  0  0  0  0
   -6.4900   18.4640  -33.7700 C   0  0  0  0  0  0  0  0  0  0  0  0
   -4.9910   18.1450  -33.7210 C   0  0  0  0  0  0  0  0  0  0  0  0
   -4.1850   19.3640  -33.3460 C   0  0  0  0  0  0  0  0  0  0  0  0
   -2.8940   19.2220  -32.8110 C   0  0  0  0  0  0  0  0  0  0  0  0
   -2.1690   20.3490  -32.4110 C   0  0  0  0  0  0  0  0  0  0  0  0
   -2.7300   21.6240  -32.5330 C   0  0  0  0  0  0  0  0  0  0  0  0
   -4.0180   21.7720  -33.0560 C   0  0  0  0  0  0  0  0  0  0  0  0
   -4.7440   20.6490  -33.4610 C   0  0  0  0  0  0  0  0  0  0  0  0
   -8.1290   20.1380  -31.6750 C   0  0  0  0  0  0  0  0  0  0  0  0
   -6.9950   20.7130  -31.2220 N   0  0  0  0  0  0  0  0  0  0  0  0
   -7.1110   22.0650  -31.0970 C   0  0  0  0  0  0  0  0  0  0  0  0
   -5.9690   22.8970  -30.6410 C   0  0  0  0  0  0  0  0  0  0  0  0
   -5.9700   24.2820  -30.8910 C   0  0  0  0  0  0  0  0  0  0  0  0
   -4.9050   25.0820  -30.4680 C   0  0  0  0  0  0  0  0  0  0  0  0
   -3.8090   24.5100  -29.8020 C   0  0  0  0  0  0  0  0  0  0  0  0
   -2.7280   25.2830  -29.3510 O   0  0  0  0  0  0  0  0  0  0  0  0
   -1.9340   24.9960  -28.2310 C   0  0  0  0  0  0  0  0  0  0  0  0
   -0.6540   24.4720  -28.4300 C   0  0  0  0  0  0  0  0  0  0  0  0
    0.1740   24.1840  -27.3400 C   0  0  0  0  0  0  0  0  0  0  0  0
   -0.2740   24.4120  -26.0270 C   0  0  0  0  0  0  0  0  0  0  0  0
    0.6350   24.1480  -24.8530 C   0  0  0  0  0  0  0  0  0  0  0  0
    1.8920   23.8130  -25.3190 F   0  0  0  0  0  0  0  0  0  0  0  0
    0.7350   25.2700  -24.0500 F   0  0  0  0  0  0  0  0  0  0  0  0
    0.1470   23.1070  -24.0830 F   0  0  0  0  0  0  0  0  0  0  0  0
   -1.5430   24.9830  -25.8310 C   0  0  0  0  0  0  0  0  0  0  0  0
   -2.3680   25.2690  -26.9210 C   0  0  0  0  0  0  0  0  0  0  0  0
   -3.8100   23.1380  -29.5390 C   0  0  0  0  0  0  0  0  0  0  0  0
   -4.8750   22.3330  -29.9580 C   0  0  0  0  0  0  0  0  0  0  0  0
   -8.3620   22.5720  -31.4620 C   0  0  0  0  0  0  0  0  0  0  0  0
   -9.3240   21.2840  -31.9540 S   0  0  0  0  0  0  0  0  0  0  0  0
   -6.9388   17.9566  -34.6367 H   0  0  0  0  0  0  0  0  0  0  0  0
   -6.6165   19.5532  -33.8570 H   0  0  0  0  0  0  0  0  0  0  0  0
   -4.8164   17.3560  -32.9746 H   0  0  0  0  0  0  0  0  0  0  0  0
   -4.6733   17.8116  -34.7200 H   0  0  0  0  0  0  0  0  0  0  0  0
   -2.4515   18.2204  -32.7063 H   0  0  0  0  0  0  0  0  0  0  0  0
   -1.1555   20.2322  -31.9996 H   0  0  0  0  0  0  0  0  0  0  0  0
   -2.1585   22.5095  -32.2178 H   0  0  0  0  0  0  0  0  0  0  0  0
   -4.4608   22.7746  -33.1489 H   0  0  0  0  0  0  0  0  0  0  0  0
   -5.7572   20.7707  -33.8716 H   0  0  0  0  0  0  0  0  0  0  0  0
   -6.8167   24.7390  -31.4242 H   0  0  0  0  0  0  0  0  0  0  0  0
   -4.9254   26.1653  -30.6577 H   0  0  0  0  0  0  0  0  0  0  0  0
   -0.2945   24.2844  -29.4525 H   0  0  0  0  0  0  0  0  0  0  0  0
    1.1814   23.7768  -27.5111 H   0  0  0  0  0  0  0  0  0  0  0  0
   -1.8892   25.2064  -24.8111 H   0  0  0  0  0  0  0  0  0  0  0  0
   -3.3619   25.7098  -26.7544 H   0  0  0  0  0  0  0  0  0  0  0  0
   -2.9657   22.6863  -28.9975 H   0  0  0  0  0  0  0  0  0  0  0  0
   -4.8572   21.2525  -29.7524 H   0  0  0  0  0  0  0  0  0  0  0  0
   -8.6640   23.6293  -31.4324 H   0  0  0  0  0  0  0  0  0  0  0  0
  1  2  2  0
  2  3  1  0
  3  4  1  0
  4  5  1  0
  5  6  1  0
  6  7  2  0
  7  8  1  0
  8  9  2  0
  9 10  1  0
 10 11  2  0
  2 12  1  0
 12 13  2  0
 13 14  1  0
 14 15  1  0
 15 16  2  0
 16 17  1  0
 17 18  2  0
 18 19  1  0
 19 20  1  0
 20 21  2  0
 21 22  1  0
 22 23  2  0
 23 24  1  0
 24 25  1  0
 24 26  1  0
 24 27  1  0
 23 28  1  0
 28 29  2  0
 18 30  1  0
 30 31  2  0
 14 32  2  0
 32 33  1  0
 11  6  1  0
 33 12  1  0
 31 15  1  0
 29 20  1  0
  4 34  1  0
  4 35  1  0
  5 36  1  0
  5 37  1  0
  7 38  1  0
  8 39  1  0
  9 40  1  0
 10 41  1  0
 11 42  1  0
 16 43  1  0
 17 44  1  0
 21 45  1  0
 22 46  1  0
 28 47  1  0
 29 48  1  0
 30 49  1  0
 31 50  1  0
 32 51  1  0
M  CHG  1   3  -1
M  END
>  <UniqueID>  (22) 
22

>  <SMILES>  (22) 
O=C([N-]CCc1ccccc1)c1nc(-c2ccc(Oc3ccc(C(F)(F)F)cc3)cc2)cs1

>  <Energy>  (22) 
88.27795106012046

>  <Genealogy>  (22) 
O=C([N-]CCc1ccccc1)c1nc(-c2ccc(Oc3ccc(C(F)(F)F)cc3)cc2)cs1 (protonated)
O=C([N-]CCc1ccccc1)c1nc(-c2ccc(Oc3ccc(C(F)(F)F)cc3)cc2)cs1 (3D coordinates assigned)
O=C([N-]CCc1ccccc1)c1nc(-c2ccc(Oc3ccc(C(F)(F)F)cc3)cc2)cs1 (optimized conformer: 88.27795106012046 kcal/mol)

>  <smiles>  (22) 
O=C(NCCc1ccccc1)c1nc(-c2ccc(Oc3ccc(C(F)(F)F)cc3)cc2)cs1

>  <score_type>  (22) 
oracle

>  <origin>  (22) 
adgpu

>  <m_score__min__energy>  (22) 
-10.1

>  <m_primary>  (22) 
energy

$$$$
22:0
     RDKit          3D

 23 23  0  0  0  0  0  0  0  0999 V2000
   -4.1250   19.9170  -33.1560 C   0  0  0  0  0  0  0  0  0  0  0  0
   -3.6200   20.7240  -32.0960 O   0  0  0  0  0  0  0  0  0  0  0  0
   -4.2560   21.8720  -31.6010 C   0  0  0  0  0  0  0  0  0  0  0  0
   -3.5480   23.0370  -31.2580 C   0  0  0  0  0  0  0  0  0  0  0  0
   -4.2230   24.1570  -30.7660 C   0  0  0  0  0  0  0  0  0  0  0  0
   -3.4930   25.2990  -30.4550 O   0  0  0  0  0  0  0  0  0  0  0  0
   -5.6200   24.1250  -30.5910 C   0  0  0  0  0  0  0  0  0  0  0  0
   -6.3500   25.3440  -30.0900 C   0  0  0  0  0  0  0  0  0  0  0  0
   -6.3410   22.9700  -30.9560 C   0  0  0  0  0  0  0  0  0  0  0  0
   -7.7390   22.9680  -30.8180 O   0  0  0  0  0  0  0  0  0  0  0  0
   -8.6050   21.9710  -31.3510 C   0  0  0  0  0  0  0  0  0  0  0  0
   -5.6460   21.8480  -31.4500 C   0  0  0  0  0  0  0  0  0  0  0  0
   -4.6643   19.0552  -32.7358 H   0  0  0  0  0  0  0  0  0  0  0  0
   -4.8117   20.5128  -33.7753 H   0  0  0  0  0  0  0  0  0  0  0  0
   -3.2890   19.5599  -33.7753 H   0  0  0  0  0  0  0  0  0  0  0  0
   -2.4550   23.0670  -31.3778 H   0  0  0  0  0  0  0  0  0  0  0  0
   -6.3505   25.3448  -28.9900 H   0  0  0  0  0  0  0  0  0  0  0  0
   -5.8457   26.2501  -30.4571 H   0  0  0  0  0  0  0  0  0  0  0  0
   -7.3868   25.3272  -30.4571 H   0  0  0  0  0  0  0  0  0  0  0  0
   -9.0825   21.4213  -30.5265 H   0  0  0  0  0  0  0  0  0  0  0  0
   -9.3788   22.4498  -31.9691 H   0  0  0  0  0  0  0  0  0  0  0  0
   -8.0226   21.2718  -31.9691 H   0  0  0  0  0  0  0  0  0  0  0  0
   -6.2050   20.9402  -31.7208 H   0  0  0  0  0  0  0  0  0  0  0  0
  1  2  1  0
  2  3  1  0
  3  4  2  0
  4  5  1  0
  5  6  1  0
  5  7  2  0
  7  8  1  0
  7  9  1  0
  9 10  1  0
 10 11  1  0
  9 12  2  0
 12  3  1  0
  1 13  1  0
  1 14  1  0
  1 15  1  0
  4 16  1  0
  8 17  1  0
  8 18  1  0
  8 19  1  0
 11 20  1  0
 11 21  1  0
 11 22  1  0
 12 23  1  0
M  CHG  1   6  -1
M  END
>  <UniqueID>  (23) 
23

>  <SMILES>  (23) 
COc1cc([O-])c(C)c(OC)c1

>  <Energy>  (23) 
20.912391863710198

>  <Genealogy>  (23) 
COc1cc([O-])c(C)c(OC)c1 (protonated)
COc1cc([O-])c(C)c(OC)c1 (3D coordinates assigned)
COc1cc([O-])c(C)c(OC)c1 (optimized conformer: 20.912391863710198 kcal/mol)

>  <smiles>  (23) 
COc1cc(O)c(C)c(OC)c1

>  <score_type>  (23) 
oracle

>  <origin>  (23) 
adgpu

>  <m_score__min__energy>  (23) 
-7.0199999999999996

>  <m_primary>  (23) 
energy

$$$$
23:0
     RDKit          3D

 68 71  0  0  1  0  0  0  0  0999 V2000
   -0.8230   20.6480  -34.4430 C   0  0  0  0  0  0  0  0  0  0  0  0
    0.0970   20.1730  -33.4660 O   0  0  0  0  0  0  0  0  0  0  0  0
   -0.2610   20.3450  -32.1350 C   0  0  0  0  0  0  0  0  0  0  0  0
   -0.7090   21.5480  -31.6230 C   0  0  0  0  0  0  0  0  0  0  0  0
   -1.0630   21.6970  -30.2850 C   0  0  0  0  0  0  0  0  0  0  0  0
   -1.5370   22.9760  -29.7510 C   0  0  0  0  0  0  0  0  0  0  0  0
   -0.7380   23.7610  -29.2200 O   0  0  0  0  0  0  0  0  0  0  0  0
   -2.9150   23.2740  -29.8650 N   0  0  0  0  0  0  0  0  0  0  0  0
   -3.8650   22.3440  -30.4940 C   0  0  0  0  0  0  0  0  0  0  0  0
   -4.5430   23.1210  -31.6080 C   0  0  0  0  0  0  0  0  0  0  0  0
   -4.9690   24.3600  -31.1970 O   0  0  0  0  0  0  0  0  0  0  0  0
   -4.8790   24.6000  -29.8440 C   0  0  0  0  0  0  0  0  0  0  0  0
   -3.4410   24.5390  -29.3460 C   0  0  0  0  0  0  0  0  0  0  0  0
   -0.9720   20.6150  -29.4150 C   0  0  0  0  0  0  0  0  0  0  0  0
   -1.3320   20.7950  -28.0910 O   0  0  0  0  0  0  0  0  0  0  0  0
   -2.2530   19.9140  -27.4670 C   0  0  0  0  0  0  0  0  0  0  0  0
   -0.5260   19.4100  -29.9230 C   0  0  0  0  0  0  0  0  0  0  0  0
   -0.1730   19.2740  -31.2700 C   0  0  0  0  0  0  0  0  0  0  0  0
    0.2720   17.9830  -31.6710 N   0  0  0  0  0  0  0  0  0  0  0  0
   -0.5170   17.2470  -32.3440 C   0  0  0  0  0  0  0  0  0  0  0  0
   -1.7950   17.6150  -32.7200 C   0  0  0  0  0  0  0  0  0  0  0  0
   -2.5510   16.7110  -33.4560 C   0  0  0  0  0  0  0  0  0  0  0  0
   -3.8660   17.0970  -33.8410 N   0  0  0  0  0  0  0  0  0  0  0  0
   -4.8810   16.1010  -33.7570 C   0  0  0  0  0  0  0  0  0  0  0  0
   -4.6070   14.9460  -33.3610 O   0  0  0  0  0  0  0  0  0  0  0  0
   -6.2620   16.5160  -34.1640 C   0  0  0  0  0  0  0  0  0  0  0  0
   -6.6090   17.8390  -33.5800 C   0  0  0  0  0  0  0  0  0  0  0  0
   -6.1130   19.0310  -34.0580 C   0  0  0  0  0  0  0  0  0  0  0  0
   -6.4670   20.2500  -33.4760 C   0  0  0  0  0  0  0  0  0  0  0  0
   -7.3410   20.2300  -32.3930 C   0  0  0  0  0  0  0  0  0  0  0  0
   -7.7530   21.7930  -31.6990 S   0  0  0  0  0  0  0  0  0  0  0  0
   -9.4900   21.8690  -31.3810 C   0  0  0  0  0  0  0  0  0  0  0  0
   -7.3510   22.9160  -32.6110 O   0  0  0  0  0  0  0  0  0  0  0  0
   -6.9770   21.9070  -30.4110 O   0  0  0  0  0  0  0  0  0  0  0  0
   -7.8570   19.0540  -31.8870 C   0  0  0  0  0  0  0  0  0  0  0  0
   -7.4710   17.8810  -32.5030 C   0  0  0  0  0  0  0  0  0  0  0  0
   -2.0830   15.5010  -33.8100 N   0  0  0  0  0  0  0  0  0  0  0  0
   -0.8310   15.1640  -33.4310 C   0  0  0  0  0  0  0  0  0  0  0  0
   -0.0790   16.0240  -32.7170 N   0  0  0  0  0  0  0  0  0  0  0  0
   -1.6924   21.0969  -33.9403 H   0  0  0  0  0  0  0  0  0  0  0  0
   -0.3317   21.4051  -35.0718 H   0  0  0  0  0  0  0  0  0  0  0  0
   -1.1558   19.8090  -35.0718 H   0  0  0  0  0  0  0  0  0  0  0  0
   -0.7884   22.4157  -32.2944 H   0  0  0  0  0  0  0  0  0  0  0  0
   -3.3317   21.4743  -30.9054 H   0  0  0  0  0  0  0  0  0  0  0  0
   -4.5974   21.9655  -29.7658 H   0  0  0  0  0  0  0  0  0  0  0  0
   -3.8289   23.2492  -32.4348 H   0  0  0  0  0  0  0  0  0  0  0  0
   -5.4280   22.5499  -31.9251 H   0  0  0  0  0  0  0  0  0  0  0  0
   -5.2852   25.6003  -29.6334 H   0  0  0  0  0  0  0  0  0  0  0  0
   -5.4516   23.8189  -29.3225 H   0  0  0  0  0  0  0  0  0  0  0  0
   -2.8604   25.3883  -29.7354 H   0  0  0  0  0  0  0  0  0  0  0  0
   -3.3803   24.5934  -28.2490 H   0  0  0  0  0  0  0  0  0  0  0  0
   -2.1614   20.0016  -26.3743 H   0  0  0  0  0  0  0  0  0  0  0  0
   -3.2766   20.1778  -27.7715 H   0  0  0  0  0  0  0  0  0  0  0  0
   -2.0349   18.8797  -27.7715 H   0  0  0  0  0  0  0  0  0  0  0  0
   -0.4468   18.5398  -29.2548 H   0  0  0  0  0  0  0  0  0  0  0  0
   -2.2032   18.5984  -32.4437 H   0  0  0  0  0  0  0  0  0  0  0  0
   -4.0470   18.0740  -34.1650 H   0  0  0  0  0  0  0  0  0  0  0  0
   -6.3102   16.5821  -35.2610 H   0  0  0  0  0  0  0  0  0  0  0  0
   -6.9786   15.7681  -33.7938 H   0  0  0  0  0  0  0  0  0  0  0  0
   -5.4241   19.0230  -34.9155 H   0  0  0  0  0  0  0  0  0  0  0  0
   -6.0666   21.1989  -33.8624 H   0  0  0  0  0  0  0  0  0  0  0  0
   -9.6639   21.8766  -30.2949 H   0  0  0  0  0  0  0  0  0  0  0  0
   -9.9043   22.7861  -31.8251 H   0  0  0  0  0  0  0  0  0  0  0  0
   -9.9828   20.9916  -31.8251 H   0  0  0  0  0  0  0  0  0  0  0  0
   -8.5462   19.0519  -31.0297 H   0  0  0  0  0  0  0  0  0  0  0  0
   -7.8704   16.9319  -32.1162 H   0  0  0  0  0  0  0  0  0  0  0  0
   -2.6370   14.8100  -34.3630 H   0  0  0  0  0  0  0  0  0  0  0  0
   -0.4227   14.1806  -33.7073 H   0  0  0  0  0  0  0  0  0  0  0  0
  1  2  1  0
  2  3  1  0
  3  4  2  0
  4  5  1  0
  5  6  1  0
  6  7  2  0
  6  8  1  0
  8  9  1  0
  9 10  1  0
 10 11  1  0
 11 12  1  0
 12 13  1  0
  5 14  2  0
 14 15  1  0
 15 16  1  0
 14 17  1  0
 17 18  2  0
 18 19  1  0
 19 20  2  0
 20 21  1  0
 21 22  2  0
 22 23  1  0
 23 24  1  0
 24 25  2  0
 24 26  1  0
 26 27  1  0
 27 28  2  0
 28 29  1  0
 29 30  2  0
 30 31  1  0
 31 32  1  0
 31 33  2  0
 31 34  2  0
 30 35  1  0
 35 36  2  0
 22 37  1  0
 37 38  1  0
 38 39  2  0
 18  3  1  0
 39 20  1  0
 13  8  1  0
 36 27  1  0
  1 40  1  0
  1 41  1  0
  1 42  1  0
  4 43  1  0
  9 44  1  0
  9 45  1  0
 10 46  1  0
 10 47  1  0
 12 48  1  0
 12 49  1  0
 13 50  1  0
 13 51  1  0
 16 52  1  0
 16 53  1  0
 16 54  1  0
 17 55  1  0
 21 56  1  0
 23 57  1  0
 26 58  1  0
 26 59  1  0
 28 60  1  0
 29 61  1  0
 32 62  1  0
 32 63  1  0
 32 64  1  0
 35 65  1  0
 36 66  1  0
 37 67  1  0
 38 68  1  0
M  END
>  <smiles>  (24) 
COc1cc(C(=O)N2CCOCC2)c(OC)cc1N=c1cc(NC(=O)Cc2ccc(S(C)(=O)=O)cc2)[nH]cn1

>  <score_type>  (24) 
oracle

>  <origin>  (24) 
adgpu

>  <m_score__min__energy>  (24) 
-10.619999999999999

>  <m_primary>  (24) 
energy

$$$$
24:0
     RDKit          3D

 55 57  0  0  0  0  0  0  0  0999 V2000
   -3.3340   15.9370  -35.6470 C   0  0  0  0  0  0  0  0  0  0  0  0
   -3.8940   15.7290  -34.3540 O   0  0  0  0  0  0  0  0  0  0  0  0
   -4.8900   16.5340  -33.7770 C   0  0  0  0  0  0  0  0  0  0  0  0
   -6.2570   16.2370  -33.9270 C   0  0  0  0  0  0  0  0  0  0  0  0
   -7.2310   17.0830  -33.3930 C   0  0  0  0  0  0  0  0  0  0  0  0
   -6.8560   18.2440  -32.7080 C   0  0  0  0  0  0  0  0  0  0  0  0
   -8.0860   19.3170  -32.0430 S   0  0  0  0  0  0  0  0  0  0  0  0
   -8.7510   18.6520  -30.8670 O   0  0  0  0  0  0  0  0  0  0  0  0
   -9.1130   19.5890  -33.1070 O   0  0  0  0  0  0  0  0  0  0  0  0
   -7.3560   20.8180  -31.5300 N   0  0  0  0  0  0  0  0  0  0  0  0
   -8.2990   21.5900  -30.7080 C   0  0  0  0  0  0  0  0  0  0  0  0
   -7.6050   22.8700  -30.2010 C   0  0  0  0  0  0  0  0  0  0  0  0
   -6.4130   23.1680  -30.9130 O   0  0  0  0  0  0  0  0  0  0  0  0
   -6.6410   23.0690  -32.3060 C   0  0  0  0  0  0  0  0  0  0  0  0
   -6.9420   21.6090  -32.7040 C   0  0  0  0  0  0  0  0  0  0  0  0
   -5.4990   18.5520  -32.5640 C   0  0  0  0  0  0  0  0  0  0  0  0
   -4.5130   17.6890  -33.0550 C   0  0  0  0  0  0  0  0  0  0  0  0
   -3.1390   18.0460  -32.8540 N   0  0  0  0  0  0  0  0  0  0  0  0
   -2.3140   18.7360  -33.7980 C   0  0  0  0  0  0  0  0  0  0  0  0
   -1.5470   18.0960  -34.5680 O   0  0  0  0  0  0  0  0  0  0  0  0
   -2.3590   20.2340  -33.8610 C   0  0  0  0  0  0  0  0  0  0  0  0
   -3.4300   20.8270  -32.9390 C   0  0  0  0  0  0  0  0  0  0  0  0
   -2.8310   21.6550  -31.8300 C   0  0  0  0  0  0  0  0  0  0  0  0
   -1.4940   21.4680  -31.4450 C   0  0  0  0  0  0  0  0  0  0  0  0
   -0.9300   22.2690  -30.4480 C   0  0  0  0  0  0  0  0  0  0  0  0
   -1.6990   23.2560  -29.8160 C   0  0  0  0  0  0  0  0  0  0  0  0
   -0.9510   24.3040  -28.6110 S   0  0  0  0  0  0  0  0  0  0  0  0
   -1.3030   25.9570  -28.9700 N   0  0  0  0  0  0  0  0  0  0  0  0
    0.5410   24.1150  -28.6070 O   0  0  0  0  0  0  0  0  0  0  0  0
   -1.4910   23.9560  -27.2520 O   0  0  0  0  0  0  0  0  0  0  0  0
   -3.0440   23.4210  -30.1740 C   0  0  0  0  0  0  0  0  0  0  0  0
   -3.6070   22.6240  -31.1760 C   0  0  0  0  0  0  0  0  0  0  0  0
   -2.3073   16.3184  -35.5449 H   0  0  0  0  0  0  0  0  0  0  0  0
   -3.3184   14.9847  -36.1973 H   0  0  0  0  0  0  0  0  0  0  0  0
   -3.9438   16.6686  -36.1973 H   0  0  0  0  0  0  0  0  0  0  0  0
   -6.5612   15.3300  -34.4699 H   0  0  0  0  0  0  0  0  0  0  0  0
   -8.2964   16.8360  -33.5112 H   0  0  0  0  0  0  0  0  0  0  0  0
   -9.1759   21.8629  -31.3135 H   0  0  0  0  0  0  0  0  0  0  0  0
   -8.6225   20.9822  -29.8501 H   0  0  0  0  0  0  0  0  0  0  0  0
   -8.3010   23.7146  -30.3116 H   0  0  0  0  0  0  0  0  0  0  0  0
   -7.3298   22.7033  -29.1491 H   0  0  0  0  0  0  0  0  0  0  0  0
   -7.4985   23.7021  -32.5780 H   0  0  0  0  0  0  0  0  0  0  0  0
   -5.7380   23.4029  -32.8380 H   0  0  0  0  0  0  0  0  0  0  0  0
   -7.7513   21.5983  -33.4490 H   0  0  0  0  0  0  0  0  0  0  0  0
   -6.0278   21.1635  -33.1233 H   0  0  0  0  0  0  0  0  0  0  0  0
   -5.2036   19.4835  -32.0589 H   0  0  0  0  0  0  0  0  0  0  0  0
   -1.3772   20.6296  -33.5617 H   0  0  0  0  0  0  0  0  0  0  0  0
   -2.6112   20.5182  -34.8933 H   0  0  0  0  0  0  0  0  0  0  0  0
   -4.0981   21.4649  -33.5363 H   0  0  0  0  0  0  0  0  0  0  0  0
   -3.9795   19.9926  -32.4788 H   0  0  0  0  0  0  0  0  0  0  0  0
   -0.8881   20.6883  -31.9297 H   0  0  0  0  0  0  0  0  0  0  0  0
    0.1212   22.1243  -30.1582 H   0  0  0  0  0  0  0  0  0  0  0  0
   -1.2340   26.0660  -30.0080 H   0  0  0  0  0  0  0  0  0  0  0  0
   -3.6582   24.1790  -29.6658 H   0  0  0  0  0  0  0  0  0  0  0  0
   -4.6632   22.7575  -31.4527 H   0  0  0  0  0  0  0  0  0  0  0  0
  1  2  1  0
  2  3  1  0
  3  4  2  0
  4  5  1  0
  5  6  2  0
  6  7  1  0
  7  8  2  0
  7  9  2  0
  7 10  1  0
 10 11  1  0
 11 12  1  0
 12 13  1  0
 13 14  1  0
 14 15  1  0
  6 16  1  0
 16 17  2  0
 17 18  1  0
 18 19  1  0
 19 20  2  0
 19 21  1  0
 21 22  1  0
 22 23  1  0
 23 24  2  0
 24 25  1  0
 25 26  2  0
 26 27  1  0
 27 28  1  0
 27 29  2  0
 27 30  2  0
 26 31  1  0
 31 32  2  0
 17  3  1  0
 32 23  1  0
 15 10  1  0
  1 33  1  0
  1 34  1  0
  1 35  1  0
  4 36  1  0
  5 37  1  0
 11 38  1  0
 11 39  1  0
 12 40  1  0
 12 41  1  0
 14 42  1  0
 14 43  1  0
 15 44  1  0
 15 45  1  0
 16 46  1  0
 21 47  1  0
 21 48  1  0
 22 49  1  0
 22 50  1  0
 24 51  1  0
 25 52  1  0
 28 53  1  0
 31 54  1  0
 32 55  1  0
M  CHG  2  18  -1  28  -1
M  END
>  <UniqueID>  (25) 
24

>  <SMILES>  (25) 
COc1ccc(S(=O)(=O)N2CCOCC2)cc1[N-]C(=O)CCc1ccc(S([NH-])(=O)=O)cc1

>  <Energy>  (25) 
63.59085997391033

>  <Genealogy>  (25) 
COc1ccc(S(=O)(=O)N2CCOCC2)cc1[N-]C(=O)CCc1ccc(S([NH-])(=O)=O)cc1 (protonated)
COc1ccc(S(=O)(=O)N2CCOCC2)cc1[N-]C(=O)CCc1ccc(S([NH-])(=O)=O)cc1 (3D coordinates assigned)
COc1ccc(S(=O)(=O)N2CCOCC2)cc1[N-]C(=O)CCc1ccc(S([NH-])(=O)=O)cc1 (nonaromatic ring conformer: 63.59085997391033 kcal/mol)

>  <smiles>  (25) 
COc1ccc(S(=O)(=O)N2CCOCC2)cc1NC(=O)CCc1ccc(S(N)(=O)=O)cc1

>  <score_type>  (25) 
oracle

>  <origin>  (25) 
adgpu

>  <m_score__min__energy>  (25) 
-11.85

>  <m_primary>  (25) 
energy

$$$$
25:0
     RDKit          3D

 25 26  0  0  0  0  0  0  0  0999 V2000
   -9.4330   22.7970  -32.2340 O   0  0  0  0  0  0  0  0  0  0  0  0
   -8.8520   21.9240  -31.1590 S   0  0  0  0  0  0  0  0  0  0  0  0
   -9.9470   21.5620  -30.1950 O   0  0  0  0  0  0  0  0  0  0  0  0
   -7.6070   22.8060  -30.3210 N   0  0  0  0  0  0  0  0  0  0  0  0
   -7.2270   24.0120  -31.0600 C   0  0  0  0  0  0  0  0  0  0  0  0
   -5.7630   24.2890  -30.9040 C   0  0  0  0  0  0  0  0  0  0  0  0
   -4.7230   23.4010  -31.0640 C   0  0  0  0  0  0  0  0  0  0  0  0
   -3.5640   24.0370  -30.8110 N   0  0  0  0  0  0  0  0  0  0  0  0
   -3.8330   25.2940  -30.4850 N   0  0  0  0  0  0  0  0  0  0  0  0
   -5.1670   25.4720  -30.5280 C   0  0  0  0  0  0  0  0  0  0  0  0
   -8.1870   20.4730  -31.9030 C   0  0  0  0  0  0  0  0  0  0  0  0
   -8.7030   19.2050  -31.5900 C   0  0  0  0  0  0  0  0  0  0  0  0
   -8.1310   18.0580  -32.1480 C   0  0  0  0  0  0  0  0  0  0  0  0
   -7.0450   18.1690  -33.0200 C   0  0  0  0  0  0  0  0  0  0  0  0
   -6.2560   16.6000  -33.7710 Br  0  0  0  0  0  0  0  0  0  0  0  0
   -6.5300   19.4310  -33.3370 C   0  0  0  0  0  0  0  0  0  0  0  0
   -7.1000   20.5800  -32.7810 C   0  0  0  0  0  0  0  0  0  0  0  0
   -7.4559   23.8692  -32.1264 H   0  0  0  0  0  0  0  0  0  0  0  0
   -7.7933   24.8656  -30.6592 H   0  0  0  0  0  0  0  0  0  0  0  0
   -4.8230   22.3440  -31.3517 H   0  0  0  0  0  0  0  0  0  0  0  0
   -5.6948   26.4098  -30.2999 H   0  0  0  0  0  0  0  0  0  0  0  0
   -9.5586   19.1142  -30.9047 H   0  0  0  0  0  0  0  0  0  0  0  0
   -8.5367   17.0661  -31.9001 H   0  0  0  0  0  0  0  0  0  0  0  0
   -5.6758   19.5190  -34.0244 H   0  0  0  0  0  0  0  0  0  0  0  0
   -6.6942   21.5708  -33.0333 H   0  0  0  0  0  0  0  0  0  0  0  0
  1  2  2  0
  2  3  2  0
  2  4  1  0
  4  5  1  0
  5  6  1  0
  6  7  1  0
  7  8  2  0
  8  9  1  0
  9 10  1  0
  2 11  1  0
 11 12  2  0
 12 13  1  0
 13 14  2  0
 14 15  1  0
 14 16  1  0
 16 17  2  0
 10  6  2  0
 17 11  1  0
  5 18  1  0
  5 19  1  0
  7 20  1  0
 10 21  1  0
 12 22  1  0
 13 23  1  0
 16 24  1  0
 17 25  1  0
M  CHG  2   4  -1   9  -1
M  END
>  <UniqueID>  (26) 
25

>  <SMILES>  (26) 
O=S(=O)([N-]Cc1cn[n-]c1)c1ccc(Br)cc1

>  <Energy>  (26) 
51.285671902772435

>  <Genealogy>  (26) 
O=S(=O)([N-]Cc1cn[n-]c1)c1ccc(Br)cc1 (protonated)
O=S(=O)([N-]Cc1cn[n-]c1)c1ccc(Br)cc1 (3D coordinates assigned)
O=S(=O)([N-]Cc1cn[n-]c1)c1ccc(Br)cc1 (optimized conformer: 51.285671902772435 kcal/mol)

>  <smiles>  (26) 
O=S(=O)(NCc1cn[nH]c1)c1ccc(Br)cc1

>  <score_type>  (26) 
oracle

>  <origin>  (26) 
adgpu

>  <m_score__min__energy>  (26) 
-9.8499999999999996

>  <m_primary>  (26) 
energy

$$$$
26:0
     RDKit          3D

 47 50  0  0  0  0  0  0  0  0999 V2000
   -6.4360   16.6890  -32.2860 C   0  0  0  0  0  0  0  0  0  0  0  0
   -6.3250   18.1180  -32.6060 N   0  0  0  0  0  0  0  0  0  0  0  0
   -7.6670   18.7090  -32.7690 C   0  0  0  0  0  0  0  0  0  0  0  0
   -7.7170   20.0910  -32.1710 C   0  0  0  0  0  0  0  0  0  0  0  0
   -8.9260   20.8030  -32.1220 C   0  0  0  0  0  0  0  0  0  0  0  0
   -8.9630   22.0840  -31.5680 C   0  0  0  0  0  0  0  0  0  0  0  0
   -7.8010   22.6640  -31.0560 C   0  0  0  0  0  0  0  0  0  0  0  0
   -6.5820   21.9630  -31.0860 C   0  0  0  0  0  0  0  0  0  0  0  0
   -5.3440   22.5780  -30.5440 C   0  0  0  0  0  0  0  0  0  0  0  0
   -4.1110   22.3970  -31.1950 C   0  0  0  0  0  0  0  0  0  0  0  0
   -2.9460   22.9790  -30.6860 C   0  0  0  0  0  0  0  0  0  0  0  0
   -2.9900   23.7530  -29.5140 C   0  0  0  0  0  0  0  0  0  0  0  0
   -1.7580   24.3670  -28.9760 C   0  0  0  0  0  0  0  0  0  0  0  0
   -1.6120   25.6780  -28.7100 N   0  0  0  0  0  0  0  0  0  0  0  0
   -0.3770   25.7930  -28.2510 N   0  0  0  0  0  0  0  0  0  0  0  0
    0.2070   24.6070  -28.2350 N   0  0  0  0  0  0  0  0  0  0  0  0
   -0.6320   23.6880  -28.6840 N   0  0  0  0  0  0  0  0  0  0  0  0
   -4.2200   23.9340  -28.8630 C   0  0  0  0  0  0  0  0  0  0  0  0
   -5.3850   23.3540  -29.3710 C   0  0  0  0  0  0  0  0  0  0  0  0
   -6.5520   20.6700  -31.6420 C   0  0  0  0  0  0  0  0  0  0  0  0
   -5.3880   18.3070  -34.0720 S   0  0  0  0  0  0  0  0  0  0  0  0
   -5.2880   16.9950  -34.8000 O   0  0  0  0  0  0  0  0  0  0  0  0
   -6.0520   19.3020  -34.9850 O   0  0  0  0  0  0  0  0  0  0  0  0
   -3.7780   18.9140  -33.6740 C   0  0  0  0  0  0  0  0  0  0  0  0
   -2.7260   18.0020  -33.4990 C   0  0  0  0  0  0  0  0  0  0  0  0
   -1.4390   18.4570  -33.2020 C   0  0  0  0  0  0  0  0  0  0  0  0
   -1.1920   19.8270  -33.0830 C   0  0  0  0  0  0  0  0  0  0  0  0
   -2.2320   20.7430  -33.2630 C   0  0  0  0  0  0  0  0  0  0  0  0
   -3.5230   20.2930  -33.5600 C   0  0  0  0  0  0  0  0  0  0  0  0
   -4.5100   21.2030  -33.7500 F   0  0  0  0  0  0  0  0  0  0  0  0
   -6.4462   16.5575  -31.1939 H   0  0  0  0  0  0  0  0  0  0  0  0
   -7.3679   16.2891  -32.7122 H   0  0  0  0  0  0  0  0  0  0  0  0
   -5.5770   16.1500  -32.7122 H   0  0  0  0  0  0  0  0  0  0  0  0
   -7.9066   18.7705  -33.8408 H   0  0  0  0  0  0  0  0  0  0  0  0
   -8.3989   18.0726  -32.2500 H   0  0  0  0  0  0  0  0  0  0  0  0
   -9.8459   20.3507  -32.5209 H   0  0  0  0  0  0  0  0  0  0  0  0
   -9.9122   22.6389  -31.5348 H   0  0  0  0  0  0  0  0  0  0  0  0
   -7.8390   23.6759  -30.6263 H   0  0  0  0  0  0  0  0  0  0  0  0
   -4.0625   21.7923  -32.1126 H   0  0  0  0  0  0  0  0  0  0  0  0
   -1.9885   22.8300  -31.2066 H   0  0  0  0  0  0  0  0  0  0  0  0
   -4.2672   24.5378  -27.9447 H   0  0  0  0  0  0  0  0  0  0  0  0
   -6.3419   23.5052  -28.8499 H   0  0  0  0  0  0  0  0  0  0  0  0
   -5.6068   20.1077  -31.6623 H   0  0  0  0  0  0  0  0  0  0  0  0
   -2.9158   16.9229  -33.5962 H   0  0  0  0  0  0  0  0  0  0  0  0
   -0.6198   17.7364  -33.0618 H   0  0  0  0  0  0  0  0  0  0  0  0
   -0.1788   20.1847  -32.8476 H   0  0  0  0  0  0  0  0  0  0  0  0
   -2.0349   21.8213  -33.1709 H   0  0  0  0  0  0  0  0  0  0  0  0
  1  2  1  0
  2  3  1  0
  3  4  1  0
  4  5  2  0
  5  6  1  0
  6  7  2  0
  7  8  1  0
  8  9  1  0
  9 10  2  0
 10 11  1  0
 11 12  2  0
 12 13  1  0
 13 14  1  0
 14 15  2  0
 15 16  1  0
 16 17  1  0
 12 18  1  0
 18 19  2  0
  8 20  2  0
  2 21  1  0
 21 22  2  0
 21 23  2  0
 21 24  1  0
 24 25  2  0
 25 26  1  0
 26 27  2  0
 27 28  1  0
 28 29  2  0
 29 30  1  0
 20  4  1  0
 29 24  1  0
 19  9  1  0
 17 13  2  0
  1 31  1  0
  1 32  1  0
  1 33  1  0
  3 34  1  0
  3 35  1  0
  5 36  1  0
  6 37  1  0
  7 38  1  0
 10 39  1  0
 11 40  1  0
 18 41  1  0
 19 42  1  0
 20 43  1  0
 25 44  1  0
 26 45  1  0
 27 46  1  0
 28 47  1  0
M  CHG  1  16  -1
M  END
>  <UniqueID>  (27) 
26

>  <SMILES>  (27) 
CN(Cc1cccc(-c2ccc(-c3nn[n-]n3)cc2)c1)S(=O)(=O)c1ccccc1F

>  <Energy>  (27) 
94.9827507953503

>  <Genealogy>  (27) 
CN(Cc1cccc(-c2ccc(-c3nn[n-]n3)cc2)c1)S(=O)(=O)c1ccccc1F (protonated)
CN(Cc1cccc(-c2ccc(-c3nn[n-]n3)cc2)c1)S(=O)(=O)c1ccccc1F (3D coordinates assigned)
CN(Cc1cccc(-c2ccc(-c3nn[n-]n3)cc2)c1)S(=O)(=O)c1ccccc1F (optimized conformer: 94.9827507953503 kcal/mol)

>  <smiles>  (27) 
CN(Cc1cccc(-c2ccc(-c3nn[nH]n3)cc2)c1)S(=O)(=O)c1ccccc1F

>  <score_type>  (27) 
oracle

>  <origin>  (27) 
adgpu

>  <m_score__min__energy>  (27) 
-11.42

>  <m_primary>  (27) 
energy

$$$$
27:0
     RDKit          3D

 24 25  0  0  0  0  0  0  0  0999 V2000
   -4.3070   24.7290  -31.5780 H   0  0  0  0  0  0  0  0  0  0  0  0
   -3.8700   25.2020  -30.8000 O   0  0  0  0  0  0  0  0  0  0  0  0
   -3.0210   24.5690  -29.8890 C   0  0  0  0  0  0  0  0  0  0  0  0
   -2.0090   25.2980  -29.3510 N   0  0  0  0  0  0  0  0  0  0  0  0
   -1.1010   24.7410  -28.5120 C   0  0  0  0  0  0  0  0  0  0  0  0
   -0.1760   25.4440  -28.0310 O   0  0  0  0  0  0  0  0  0  0  0  0
   -1.1850   23.4250  -28.1980 N   0  0  0  0  0  0  0  0  0  0  0  0
   -2.1810   22.6470  -28.6940 C   0  0  0  0  0  0  0  0  0  0  0  0
   -2.2290   21.4310  -28.3660 O   0  0  0  0  0  0  0  0  0  0  0  0
   -3.1560   23.2020  -29.5460 C   0  0  0  0  0  0  0  0  0  0  0  0
   -4.2750   22.3570  -30.0200 C   0  0  0  0  0  0  0  0  0  0  0  0
   -4.3300   21.3029  -29.7103 H   0  0  0  0  0  0  0  0  0  0  0  0
   -5.1930   22.8470  -30.7980 N   0  0  0  0  0  0  0  0  0  0  0  0
   -6.3500   22.1520  -31.2940 C   0  0  0  0  0  0  0  0  0  0  0  0
   -6.2630   20.9380  -32.0070 C   0  0  0  0  0  0  0  0  0  0  0  0
   -5.2802   20.4805  -32.1933 H   0  0  0  0  0  0  0  0  0  0  0  0
   -7.4240   20.3140  -32.4780 C   0  0  0  0  0  0  0  0  0  0  0  0
   -7.3514   19.3640  -33.0278 H   0  0  0  0  0  0  0  0  0  0  0  0
   -8.6750   20.8940  -32.2520 C   0  0  0  0  0  0  0  0  0  0  0  0
   -9.8260   20.2720  -32.7200 O   0  0  0  0  0  0  0  0  0  0  0  0
   -8.7670   22.1050  -31.5590 C   0  0  0  0  0  0  0  0  0  0  0  0
   -9.7510   22.5647  -31.3843 H   0  0  0  0  0  0  0  0  0  0  0  0
   -7.6100   22.7320  -31.0880 C   0  0  0  0  0  0  0  0  0  0  0  0
   -7.6885   23.6888  -30.5510 H   0  0  0  0  0  0  0  0  0  0  0  0
  1  2  1  0
  2  3  1  0
  3  4  1  0
  4  5  1  0
  5  6  2  0
  5  7  1  0
  7  8  1  0
  8  9  2  0
  8 10  1  0
 10 11  1  0
 11 12  1  0
 11 13  2  0
 13 14  1  0
 14 15  2  0
 15 16  1  0
 15 17  1  0
 17 18  1  0
 17 19  2  0
 19 20  1  0
 19 21  1  0
 21 22  1  0
 21 23  2  0
 23 24  1  0
 10  3  2  0
 23 14  1  0
M  CHG  3   4  -1   7  -1  20  -1
M  END
>  <UniqueID>  (28) 
27

>  <SMILES>  (28) 
O=c1[n-]c(O)c(/C=N/c2ccc([O-])cc2)c(=O)[n-]1

>  <Energy>  (28) 
35.09582788722898

>  <Genealogy>  (28) 
O=c1[n-]c(O)c(C=Nc2ccc([O-])cc2)c(=O)[n-]1 (protonated)
O=c1[n-]c(O)c(/C=N/c2ccc([O-])cc2)c(=O)[n-]1 (cis-trans isomerization)
O=c1[n-]c(O)c(/C=N/c2ccc([O-])cc2)c(=O)[n-]1 (3D coordinates assigned)
O=c1[n-]c(O)c(/C=N/c2ccc([O-])cc2)c(=O)[n-]1 (optimized conformer: 35.09582788722898 kcal/mol)

>  <smiles>  (28) 
O=c1[nH]c(O)c(C=Nc2ccc(O)cc2)c(=O)[nH]1

>  <score_type>  (28) 
oracle

>  <origin>  (28) 
adgpu

>  <m_score__min__energy>  (28) 
-9.5999999999999996

>  <m_primary>  (28) 
energy

$$$$
28:0
     RDKit          3D

 52 54  0  0  0  0  0  0  0  0999 V2000
    4.3370   24.5440  -26.4710 C   0  0  0  0  0  0  0  0  0  0  0  0
    4.9470   24.2250  -25.1890 N   0  0  0  0  0  0  0  0  0  0  0  0
    4.3520   24.4820  -23.9090 C   0  0  0  0  0  0  0  0  0  0  0  0
    4.5490   23.6620  -22.9730 O   0  0  0  0  0  0  0  0  0  0  0  0
    3.5540   25.6890  -23.6320 C   0  0  0  0  0  0  0  0  0  0  0  0
    2.2160   25.7900  -24.0390 C   0  0  0  0  0  0  0  0  0  0  0  0
    1.4850   26.9440  -23.7420 C   0  0  0  0  0  0  0  0  0  0  0  0
    0.1470   27.0210  -24.1530 O   0  0  0  0  0  0  0  0  0  0  0  0
   -0.3640   26.5430  -25.3670 C   0  0  0  0  0  0  0  0  0  0  0  0
   -0.9770   25.2810  -25.4720 C   0  0  0  0  0  0  0  0  0  0  0  0
   -1.4980   24.8510  -26.6950 C   0  0  0  0  0  0  0  0  0  0  0  0
   -1.4280   25.6810  -27.8290 C   0  0  0  0  0  0  0  0  0  0  0  0
   -1.9910   25.2720  -29.0860 N   0  0  0  0  0  0  0  0  0  0  0  0
   -3.2160   24.5380  -29.2130 C   0  0  0  0  0  0  0  0  0  0  0  0
   -3.6630   23.8790  -28.2350 O   0  0  0  0  0  0  0  0  0  0  0  0
   -3.8760   24.4960  -30.4830 N   0  0  0  0  0  0  0  0  0  0  0  0
   -4.9010   23.5790  -30.8960 C   0  0  0  0  0  0  0  0  0  0  0  0
   -6.2620   23.8870  -30.7960 C   0  0  0  0  0  0  0  0  0  0  0  0
   -7.2210   22.9810  -31.2400 C   0  0  0  0  0  0  0  0  0  0  0  0
   -6.8520   21.7530  -31.8130 C   0  0  0  0  0  0  0  0  0  0  0  0
   -8.1720   20.6930  -32.3530 S   0  0  0  0  0  0  0  0  0  0  0  0
   -8.3600   19.3400  -31.2120 C   0  0  0  0  0  0  0  0  0  0  0  0
   -9.4570   21.4740  -32.3750 O   0  0  0  0  0  0  0  0  0  0  0  0
   -7.9320   20.1670  -33.7390 O   0  0  0  0  0  0  0  0  0  0  0  0
   -5.4700   21.4230  -31.9180 C   0  0  0  0  0  0  0  0  0  0  0  0
   -4.9790   20.1340  -32.5510 C   0  0  0  0  0  0  0  0  0  0  0  0
   -3.6010   20.0770  -32.5440 F   0  0  0  0  0  0  0  0  0  0  0  0
   -5.3860   20.0290  -33.8700 F   0  0  0  0  0  0  0  0  0  0  0  0
   -5.4930   19.0550  -31.8560 F   0  0  0  0  0  0  0  0  0  0  0  0
   -4.5180   22.3670  -31.4770 C   0  0  0  0  0  0  0  0  0  0  0  0
   -0.8500   26.9520  -27.7100 C   0  0  0  0  0  0  0  0  0  0  0  0
   -0.3200   27.3770  -26.4880 C   0  0  0  0  0  0  0  0  0  0  0  0
    2.0940   27.9700  -23.0010 C   0  0  0  0  0  0  0  0  0  0  0  0
    3.4180   27.8210  -22.5860 C   0  0  0  0  0  0  0  0  0  0  0  0
    4.1110   26.6960  -22.9030 N   0  0  0  0  0  0  0  0  0  0  0  0
    3.3736   25.0478  -26.3034 H   0  0  0  0  0  0  0  0  0  0  0  0
    5.0043   25.2086  -27.0394 H   0  0  0  0  0  0  0  0  0  0  0  0
    4.1719   23.6168  -27.0394 H   0  0  0  0  0  0  0  0  0  0  0  0
    1.7431   24.9639  -24.5902 H   0  0  0  0  0  0  0  0  0  0  0  0
   -1.0464   24.6303  -24.5878 H   0  0  0  0  0  0  0  0  0  0  0  0
   -1.9654   23.8582  -26.7717 H   0  0  0  0  0  0  0  0  0  0  0  0
   -1.4700   25.5070  -29.9630 H   0  0  0  0  0  0  0  0  0  0  0  0
   -6.5756   24.8491  -30.3647 H   0  0  0  0  0  0  0  0  0  0  0  0
   -8.2875   23.2315  -31.1402 H   0  0  0  0  0  0  0  0  0  0  0  0
   -8.3072   19.7198  -30.1810 H   0  0  0  0  0  0  0  0  0  0  0  0
   -9.3341   18.8556  -31.3749 H   0  0  0  0  0  0  0  0  0  0  0  0
   -7.5549   18.6084  -31.3749 H   0  0  0  0  0  0  0  0  0  0  0  0
   -3.4473   22.1431  -31.5935 H   0  0  0  0  0  0  0  0  0  0  0  0
   -0.8130   27.6195  -28.5835 H   0  0  0  0  0  0  0  0  0  0  0  0
    0.1351   28.3753  -26.4081 H   0  0  0  0  0  0  0  0  0  0  0  0
    1.5327   28.8822  -22.7502 H   0  0  0  0  0  0  0  0  0  0  0  0
    3.9020   28.6166  -22.0006 H   0  0  0  0  0  0  0  0  0  0  0  0
  1  2  1  0
  2  3  1  0
  3  4  2  0
  3  5  1  0
  5  6  2  0
  6  7  1  0
  7  8  1  0
  8  9  1  0
  9 10  2  0
 10 11  1  0
 11 12  2  0
 12 13  1  0
 13 14  1  0
 14 15  2  0
 14 16  1  0
 16 17  1  0
 17 18  2  0
 18 19  1  0
 19 20  2  0
 20 21  1  0
 21 22  1  0
 21 23  2  0
 21 24  2  0
 20 25  1  0
 25 26  1  0
 26 27  1  0
 26 28  1  0
 26 29  1  0
 25 30  2  0
 12 31  1  0
 31 32  2  0
  7 33  2  0
 33 34  1  0
 34 35  2  0
 35  5  1  0
 32  9  1  0
 30 17  1  0
  1 36  1  0
  1 37  1  0
  1 38  1  0
  6 39  1  0
 10 40  1  0
 11 41  1  0
 13 42  1  0
 18 43  1  0
 19 44  1  0
 22 45  1  0
 22 46  1  0
 22 47  1  0
 30 48  1  0
 31 49  1  0
 32 50  1  0
 33 51  1  0
 34 52  1  0
M  CHG  2   2  -1  16  -1
M  END
>  <UniqueID>  (29) 
28

>  <SMILES>  (29) 
C[N-]C(=O)c1cc(Oc2ccc(NC(=O)[N-]c3ccc(S(C)(=O)=O)c(C(F)(F)F)c3)cc2)ccn1

>  <Energy>  (29) 
74.78821315950165

>  <Genealogy>  (29) 
C[N-]C(=O)c1cc(Oc2ccc(NC(=O)[N-]c3ccc(S(C)(=O)=O)c(C(F)(F)F)c3)cc2)ccn1 (protonated)
C[N-]C(=O)c1cc(Oc2ccc(NC(=O)[N-]c3ccc(S(C)(=O)=O)c(C(F)(F)F)c3)cc2)ccn1 (3D coordinates assigned)
C[N-]C(=O)c1cc(Oc2ccc(NC(=O)[N-]c3ccc(S(C)(=O)=O)c(C(F)(F)F)c3)cc2)ccn1 (optimized conformer: 74.78821315950165 kcal/mol)

>  <smiles>  (29) 
CNC(=O)c1cc(Oc2ccc(NC(=O)Nc3ccc(S(C)(=O)=O)c(C(F)(F)F)c3)cc2)ccn1

>  <score_type>  (29) 
oracle

>  <origin>  (29) 
adgpu

>  <m_score__min__energy>  (29) 
-10.41

>  <m_primary>  (29) 
energy

$$$$
29:0
     RDKit          3D

 64 67  0  0  0  0  0  0  0  0999 V2000
   -3.8970   25.6510  -27.4850 H   0  0  0  0  0  0  0  0  0  0  0  0
   -3.9140   24.6480  -27.3450 O   0  0  0  0  0  0  0  0  0  0  0  0
   -3.1940   23.7850  -28.1690 C   0  0  0  0  0  0  0  0  0  0  0  0
   -3.4230   22.4040  -28.1260 C   0  0  0  0  0  0  0  0  0  0  0  0
   -4.1777   21.9950  -27.4382 H   0  0  0  0  0  0  0  0  0  0  0  0
   -2.6960   21.5430  -28.9540 C   0  0  0  0  0  0  0  0  0  0  0  0
   -2.8895   20.4606  -28.9216 H   0  0  0  0  0  0  0  0  0  0  0  0
   -1.7200   22.0520  -29.8270 C   0  0  0  0  0  0  0  0  0  0  0  0
   -0.9700   21.1320  -30.7150 C   0  0  0  0  0  0  0  0  0  0  0  0
    0.2410   21.3780  -30.9620 O   0  0  0  0  0  0  0  0  0  0  0  0
   -1.5690   19.9200  -31.3130 C   0  0  0  0  0  0  0  0  0  0  0  0
   -1.9159   19.1185  -30.6442 H   0  0  0  0  0  0  0  0  0  0  0  0
   -1.7070   19.7570  -32.6370 C   0  0  0  0  0  0  0  0  0  0  0  0
   -1.3618   20.5663  -33.2972 H   0  0  0  0  0  0  0  0  0  0  0  0
   -2.2980   18.5490  -33.2630 C   0  0  0  0  0  0  0  0  0  0  0  0
   -1.6290   17.9580  -34.3450 C   0  0  0  0  0  0  0  0  0  0  0  0
   -0.6852   18.3944  -34.7039 H   0  0  0  0  0  0  0  0  0  0  0  0
   -2.1500   16.8140  -34.9770 C   0  0  0  0  0  0  0  0  0  0  0  0
   -1.5110   16.2090  -36.0710 O   0  0  0  0  0  0  0  0  0  0  0  0
   -1.1000   14.8460  -36.1140 C   0  0  0  0  0  0  0  0  0  0  0  0
   -0.9852   14.4651  -35.0884 H   0  0  0  0  0  0  0  0  0  0  0  0
   -1.8586   14.2508  -36.6434 H   0  0  0  0  0  0  0  0  0  0  0  0
   -0.1388   14.7694  -36.6434 H   0  0  0  0  0  0  0  0  0  0  0  0
   -3.3450   16.2530  -34.5100 C   0  0  0  0  0  0  0  0  0  0  0  0
   -3.8650   15.1290  -35.1430 O   0  0  0  0  0  0  0  0  0  0  0  0
   -4.0130   16.8170  -33.4090 C   0  0  0  0  0  0  0  0  0  0  0  0
   -5.3090   16.2230  -32.9140 C   0  0  0  0  0  0  0  0  0  0  0  0
   -5.5079   16.5880  -31.8956 H   0  0  0  0  0  0  0  0  0  0  0  0
   -5.2192   15.1267  -32.9154 H   0  0  0  0  0  0  0  0  0  0  0  0
   -6.4320   16.6100  -33.7970 N   0  0  0  0  0  0  0  0  0  0  0  0
   -6.0470   17.5170  -34.8880 C   0  0  0  0  0  0  0  0  0  0  0  0
   -6.9129   17.6507  -35.5531 H   0  0  0  0  0  0  0  0  0  0  0  0
   -5.1928   17.0582  -35.4075 H   0  0  0  0  0  0  0  0  0  0  0  0
   -5.5920   18.8990  -34.3960 C   0  0  0  0  0  0  0  0  0  0  0  0
   -5.7641   19.6231  -35.2060 H   0  0  0  0  0  0  0  0  0  0  0  0
   -4.5320   18.7936  -34.1217 H   0  0  0  0  0  0  0  0  0  0  0  0
   -6.2850   19.3920  -33.1850 N   0  0  0  0  0  0  0  0  0  0  0  0
   -5.9490   20.7210  -32.6730 C   0  0  0  0  0  0  0  0  0  0  0  0
   -4.6350   21.2390  -32.7790 C   0  0  0  0  0  0  0  0  0  0  0  0
   -3.8514   20.6319  -33.2560 H   0  0  0  0  0  0  0  0  0  0  0  0
   -4.3170   22.5080  -32.2880 C   0  0  0  0  0  0  0  0  0  0  0  0
   -3.2875   22.8844  -32.3804 H   0  0  0  0  0  0  0  0  0  0  0  0
   -5.2900   23.3030  -31.6820 C   0  0  0  0  0  0  0  0  0  0  0  0
   -4.9170   24.5690  -31.2050 O   0  0  0  0  0  0  0  0  0  0  0  0
   -5.6530   25.3140  -30.2400 C   0  0  0  0  0  0  0  0  0  0  0  0
   -5.3486   25.0059  -29.2289 H   0  0  0  0  0  0  0  0  0  0  0  0
   -5.4505   26.3870  -30.3729 H   0  0  0  0  0  0  0  0  0  0  0  0
   -6.7284   25.1246  -30.3729 H   0  0  0  0  0  0  0  0  0  0  0  0
   -6.6000   22.8130  -31.5740 C   0  0  0  0  0  0  0  0  0  0  0  0
   -7.3770   23.4314  -31.1009 H   0  0  0  0  0  0  0  0  0  0  0  0
   -6.9250   21.5450  -32.0630 C   0  0  0  0  0  0  0  0  0  0  0  0
   -7.9588   21.1803  -31.9722 H   0  0  0  0  0  0  0  0  0  0  0  0
   -7.1950   18.5320  -32.3950 C   0  0  0  0  0  0  0  0  0  0  0  0
   -8.1268   19.0896  -32.2194 H   0  0  0  0  0  0  0  0  0  0  0  0
   -6.6586   18.2819  -31.4678 H   0  0  0  0  0  0  0  0  0  0  0  0
   -7.5550   17.1980  -33.0600 C   0  0  0  0  0  0  0  0  0  0  0  0
   -8.3855   17.3675  -33.7611 H   0  0  0  0  0  0  0  0  0  0  0  0
   -7.8326   16.4939  -32.2618 H   0  0  0  0  0  0  0  0  0  0  0  0
   -3.4870   17.9620  -32.7920 C   0  0  0  0  0  0  0  0  0  0  0  0
   -4.0093   18.4053  -31.9314 H   0  0  0  0  0  0  0  0  0  0  0  0
   -1.5080   23.4420  -29.8790 C   0  0  0  0  0  0  0  0  0  0  0  0
   -0.7638   23.8553  -30.5757 H   0  0  0  0  0  0  0  0  0  0  0  0
   -2.2370   24.3020  -29.0510 C   0  0  0  0  0  0  0  0  0  0  0  0
   -2.0100   25.6720  -29.1080 O   0  0  0  0  0  0  0  0  0  0  0  0
  1  2  1  0
  2  3  1  0
  3  4  2  0
  4  5  1  0
  4  6  1  0
  6  7  1  0
  6  8  2  0
  8  9  1  0
  9 10  2  0
  9 11  1  0
 11 12  1  0
 11 13  2  0
 13 14  1  0
 13 15  1  0
 15 16  2  0
 16 17  1  0
 16 18  1  0
 18 19  1  0
 19 20  1  0
 20 21  1  0
 20 22  1  0
 20 23  1  0
 18 24  2  0
 24 25  1  0
 24 26  1  0
 26 27  1  0
 27 28  1  0
 27 29  1  0
 27 30  1  0
 30 31  1  0
 31 32  1  0
 31 33  1  0
 31 34  1  0
 34 35  1  0
 34 36  1  0
 34 37  1  0
 37 38  1  0
 38 39  2  0
 39 40  1  0
 39 41  1  0
 41 42  1  0
 41 43  2  0
 43 44  1  0
 44 45  1  0
 45 46  1  0
 45 47  1  0
 45 48  1  0
 43 49  1  0
 49 50  1  0
 49 51  2  0
 51 52  1  0
 37 53  1  0
 53 54  1  0
 53 55  1  0
 53 56  1  0
 56 57  1  0
 56 58  1  0
 26 59  2  0
 59 60  1  0
  8 61  1  0
 61 62  1  0
 61 63  2  0
 63 64  1  0
 63  3  1  0
 59 15  1  0
 56 30  1  0
 51 38  1  0
M  CHG  2  25  -1  64  -1
M  END
>  <UniqueID>  (30) 
29

>  <SMILES>  (30) 
COc1ccc(N2CCN(Cc3cc(/C=C/C(=O)c4ccc(O)c([O-])c4)cc(OC)c3[O-])CC2)cc1

>  <Energy>  (30) 
84.84825537210867

>  <Genealogy>  (30) 
COc1ccc(N2CCN(Cc3cc(C=CC(=O)c4ccc(O)c([O-])c4)cc(OC)c3[O-])CC2)cc1 (protonated)
COc1ccc(N2CCN(Cc3cc(/C=C/C(=O)c4ccc(O)c([O-])c4)cc(OC)c3[O-])CC2)cc1 (cis-trans isomerization)
COc1ccc(N2CCN(Cc3cc(/C=C/C(=O)c4ccc(O)c([O-])c4)cc(OC)c3[O-])CC2)cc1 (3D coordinates assigned)
COc1ccc(N2CCN(Cc3cc(/C=C/C(=O)c4ccc(O)c([O-])c4)cc(OC)c3[O-])CC2)cc1 (nonaromatic ring conformer: 84.84825537210867 kcal/mol)

>  <smiles>  (30) 
COc1ccc(N2CCN(Cc3cc(C=CC(=O)c4ccc(O)c(O)c4)cc(OC)c3O)CC2)cc1

>  <score_type>  (30) 
oracle

>  <origin>  (30) 
adgpu

>  <m_score__min__energy>  (30) 
-12.32

>  <m_primary>  (30) 
energy

$$$$
30:0
     RDKit          3D

 46 49  0  0  0  0  0  0  0  0999 V2000
   -3.9320   21.4620  -32.1930 O   0  0  0  0  0  0  0  0  0  0  0  0
   -2.8230   21.8730  -31.7530 C   0  0  0  0  0  0  0  0  0  0  0  0
   -1.5960   21.2990  -32.2360 N   0  0  0  0  0  0  0  0  0  0  0  0
   -1.5190   20.0550  -32.9550 C   0  0  0  0  0  0  0  0  0  0  0  0
   -0.9100   19.9730  -34.2200 C   0  0  0  0  0  0  0  0  0  0  0  0
   -0.8700   18.7550  -34.9080 C   0  0  0  0  0  0  0  0  0  0  0  0
   -1.4550   17.6110  -34.3500 C   0  0  0  0  0  0  0  0  0  0  0  0
   -1.4360   16.0780  -35.2150 S   0  0  0  0  0  0  0  0  0  0  0  0
   -0.6630   16.1930  -36.4990 O   0  0  0  0  0  0  0  0  0  0  0  0
   -0.7850   15.0380  -34.3480 O   0  0  0  0  0  0  0  0  0  0  0  0
   -3.0610   15.5880  -35.5710 N   0  0  0  0  0  0  0  0  0  0  0  0
   -4.2400   16.1420  -34.9700 C   0  0  0  0  0  0  0  0  0  0  0  0
   -5.0340   15.4100  -34.0660 C   0  0  0  0  0  0  0  0  0  0  0  0
   -6.1800   15.9890  -33.5090 C   0  0  0  0  0  0  0  0  0  0  0  0
   -6.5410   17.2950  -33.8490 C   0  0  0  0  0  0  0  0  0  0  0  0
   -5.7590   18.0250  -34.7480 C   0  0  0  0  0  0  0  0  0  0  0  0
   -4.6110   17.4510  -35.3040 C   0  0  0  0  0  0  0  0  0  0  0  0
   -2.0800   17.6940  -33.1010 C   0  0  0  0  0  0  0  0  0  0  0  0
   -2.1180   18.9090  -32.4110 C   0  0  0  0  0  0  0  0  0  0  0  0
   -2.8110   22.9740  -30.7750 C   0  0  0  0  0  0  0  0  0  0  0  0
   -2.0690   23.0430  -29.6110 C   0  0  0  0  0  0  0  0  0  0  0  0
   -2.4100   24.2690  -29.0670 C   0  0  0  0  0  0  0  0  0  0  0  0
   -1.8700   24.8840  -27.8290 C   0  0  0  0  0  0  0  0  0  0  0  0
   -1.8840   24.1390  -26.6360 C   0  0  0  0  0  0  0  0  0  0  0  0
   -1.4010   24.6910  -25.4460 C   0  0  0  0  0  0  0  0  0  0  0  0
   -0.8920   25.9890  -25.4320 C   0  0  0  0  0  0  0  0  0  0  0  0
   -0.8540   26.7360  -26.6110 C   0  0  0  0  0  0  0  0  0  0  0  0
   -1.3310   26.1920  -27.8090 C   0  0  0  0  0  0  0  0  0  0  0  0
   -1.2350   26.9520  -28.9690 O   0  0  0  0  0  0  0  0  0  0  0  0
   -3.2970   24.8830  -29.8750 N   0  0  0  0  0  0  0  0  0  0  0  0
   -3.5450   24.0960  -30.9100 N   0  0  0  0  0  0  0  0  0  0  0  0
   -0.7200   21.8610  -32.1510 H   0  0  0  0  0  0  0  0  0  0  0  0
   -0.4627   20.8710  -34.6711 H   0  0  0  0  0  0  0  0  0  0  0  0
   -0.3777   18.6958  -35.8899 H   0  0  0  0  0  0  0  0  0  0  0  0
   -4.7529   14.3811  -33.7972 H   0  0  0  0  0  0  0  0  0  0  0  0
   -6.7974   15.4149  -32.8024 H   0  0  0  0  0  0  0  0  0  0  0  0
   -7.4412   17.7489  -33.4089 H   0  0  0  0  0  0  0  0  0  0  0  0
   -6.0464   19.0517  -35.0186 H   0  0  0  0  0  0  0  0  0  0  0  0
   -3.9958   18.0309  -36.0077 H   0  0  0  0  0  0  0  0  0  0  0  0
   -2.5435   16.7992  -32.6601 H   0  0  0  0  0  0  0  0  0  0  0  0
   -2.6211   18.9670  -31.4345 H   0  0  0  0  0  0  0  0  0  0  0  0
   -1.3688   22.2957  -29.2095 H   0  0  0  0  0  0  0  0  0  0  0  0
   -2.2788   23.1123  -26.6395 H   0  0  0  0  0  0  0  0  0  0  0  0
   -1.4225   24.1000  -24.5185 H   0  0  0  0  0  0  0  0  0  0  0  0
   -0.5206   26.4243  -24.4926 H   0  0  0  0  0  0  0  0  0  0  0  0
   -0.4469   27.7578  -26.5982 H   0  0  0  0  0  0  0  0  0  0  0  0
  1  2  2  0
  2  3  1  0
  3  4  1  0
  4  5  2  0
  5  6  1  0
  6  7  2  0
  7  8  1  0
  8  9  2  0
  8 10  2  0
  8 11  1  0
 11 12  1  0
 12 13  2  0
 13 14  1  0
 14 15  2  0
 15 16  1  0
 16 17  2  0
  7 18  1  0
 18 19  2  0
  2 20  1  0
 20 21  1  0
 21 22  2  0
 22 23  1  0
 23 24  2  0
 24 25  1  0
 25 26  2  0
 26 27  1  0
 27 28  2  0
 28 29  1  0
 22 30  1  0
 30 31  1  0
 19  4  1  0
 31 20  2  0
 17 12  1  0
 28 23  1  0
  3 32  1  0
  5 33  1  0
  6 34  1  0
 13 35  1  0
 14 36  1  0
 15 37  1  0
 16 38  1  0
 17 39  1  0
 18 40  1  0
 19 41  1  0
 21 42  1  0
 24 43  1  0
 25 44  1  0
 26 45  1  0
 27 46  1  0
M  CHG  3  11  -1  29  -1  30  -1
M  END
>  <UniqueID>  (31) 
30

>  <SMILES>  (31) 
O=C(Nc1ccc(S(=O)(=O)[N-]c2ccccc2)cc1)c1cc(-c2ccccc2[O-])[n-]n1

>  <Energy>  (31) 
90.68063879900086

>  <Genealogy>  (31) 
O=C(Nc1ccc(S(=O)(=O)[N-]c2ccccc2)cc1)c1cc(-c2ccccc2[O-])[n-]n1 (protonated)
O=C(Nc1ccc(S(=O)(=O)[N-]c2ccccc2)cc1)c1cc(-c2ccccc2[O-])[n-]n1 (3D coordinates assigned)
O=C(Nc1ccc(S(=O)(=O)[N-]c2ccccc2)cc1)c1cc(-c2ccccc2[O-])[n-]n1 (optimized conformer: 90.68063879900086 kcal/mol)

>  <smiles>  (31) 
O=C(Nc1ccc(S(=O)(=O)Nc2ccccc2)cc1)c1cc(-c2ccccc2O)[nH]n1

>  <score_type>  (31) 
oracle

>  <origin>  (31) 
adgpu

>  <m_score__min__energy>  (31) 
-12.08

>  <m_primary>  (31) 
energy

$$$$
31:0
     RDKit          3D

 38 40  0  0  1  0  0  0  0  0999 V2000
   -9.8070   20.9790  -32.0620 N   0  0  0  0  0  0  0  0  0  0  0  0
   -8.8400   21.5990  -31.8110 C   0  0  0  0  0  0  0  0  0  0  0  0
   -7.6630   22.3530  -31.4870 C   0  0  0  0  0  0  0  0  0  0  0  0
   -6.5590   22.2750  -32.3150 C   0  0  0  0  0  0  0  0  0  0  0  0
   -5.4050   22.9990  -32.0170 C   0  0  0  0  0  0  0  0  0  0  0  0
   -5.3610   23.7900  -30.9050 C   0  0  0  0  0  0  0  0  0  0  0  0
   -4.1560   24.5110  -30.6430 N   0  0  0  0  0  0  0  0  0  0  0  0
   -3.3720   24.1760  -29.6630 C   0  0  0  0  0  0  0  0  0  0  0  0
   -3.7070   23.1240  -28.8800 N   0  0  0  0  0  0  0  0  0  0  0  0
   -2.9020   22.7570  -27.8510 C   0  0  0  0  0  0  0  0  0  0  0  0
   -1.7600   23.5010  -27.6620 C   0  0  0  0  0  0  0  0  0  0  0  0
   -1.4030   24.5720  -28.4480 C   0  0  0  0  0  0  0  0  0  0  0  0
   -0.3710   25.2760  -28.3090 N   0  0  0  0  0  0  0  0  0  0  0  0
    0.7550   24.9470  -27.0560 S   0  0  0  0  0  0  0  0  0  0  0  0
    2.1730   25.2560  -27.4390 O   0  0  0  0  0  0  0  0  0  0  0  0
    0.7080   23.4460  -26.7530 O   0  0  0  0  0  0  0  0  0  0  0  0
    0.2490   25.7430  -25.5880 C   0  0  0  0  0  0  0  0  0  0  0  0
   -1.1220   25.9390  -25.3700 C   0  0  0  0  0  0  0  0  0  0  0  0
   -1.6030   26.5450  -24.2430 C   0  0  0  0  0  0  0  0  0  0  0  0
   -0.7670   26.9950  -23.2630 C   0  0  0  0  0  0  0  0  0  0  0  0
    0.5980   26.8080  -23.4650 C   0  0  0  0  0  0  0  0  0  0  0  0
    1.0860   26.1910  -24.6110 C   0  0  0  0  0  0  0  0  0  0  0  0
   -2.2560   24.8840  -29.4610 N   0  0  0  0  0  0  0  0  0  0  0  0
   -6.4500   23.8890  -30.0550 C   0  0  0  0  0  0  0  0  0  0  0  0
   -7.5800   23.1630  -30.3710 C   0  0  0  0  0  0  0  0  0  0  0  0
   -6.5908   21.6395  -33.2123 H   0  0  0  0  0  0  0  0  0  0  0  0
   -4.5289   22.9327  -32.6788 H   0  0  0  0  0  0  0  0  0  0  0  0
   -4.5920   22.6300  -29.1080 H   0  0  0  0  0  0  0  0  0  0  0  0
   -3.1503   21.9061  -27.1996 H   0  0  0  0  0  0  0  0  0  0  0  0
   -1.0927   23.2227  -26.8329 H   0  0  0  0  0  0  0  0  0  0  0  0
   -1.8355   25.5931  -26.1324 H   0  0  0  0  0  0  0  0  0  0  0  0
   -2.6890   26.6728  -24.1234 H   0  0  0  0  0  0  0  0  0  0  0  0
   -1.1533   27.4827  -22.3558 H   0  0  0  0  0  0  0  0  0  0  0  0
    1.3069   27.1568  -22.6996 H   0  0  0  0  0  0  0  0  0  0  0  0
    2.1717   26.0617  -24.7316 H   0  0  0  0  0  0  0  0  0  0  0  0
   -2.0570   25.6740  -30.0920 H   0  0  0  0  0  0  0  0  0  0  0  0
   -6.4152   24.5250  -29.1582 H   0  0  0  0  0  0  0  0  0  0  0  0
   -8.4529   23.2322  -29.7052 H   0  0  0  0  0  0  0  0  0  0  0  0
  1  2  3  0
  2  3  1  0
  3  4  2  0
  4  5  1  0
  5  6  2  0
  6  7  1  0
  7  8  2  0
  8  9  1  0
  9 10  1  0
 10 11  2  0
 11 12  1  0
 12 13  2  0
 13 14  1  0
 14 15  2  0
 14 16  2  0
 14 17  1  0
 17 18  2  0
 18 19  1  0
 19 20  2  0
 20 21  1  0
 21 22  2  0
 12 23  1  0
  6 24  1  0
 24 25  2  0
 25  3  1  0
 23  8  1  0
 22 17  1  0
  4 26  1  0
  5 27  1  0
  9 28  1  0
 10 29  1  0
 11 30  1  0
 18 31  1  0
 19 32  1  0
 20 33  1  0
 21 34  1  0
 22 35  1  0
 23 36  1  0
 24 37  1  0
 25 38  1  0
M  END
>  <smiles>  (32) 
N#Cc1ccc(N=c2[nH]ccc(=NS(=O)(=O)c3ccccc3)[nH]2)cc1

>  <score_type>  (32) 
oracle

>  <origin>  (32) 
adgpu

>  <m_score__min__energy>  (32) 
-9.6400000000000006

>  <m_primary>  (32) 
energy

$$$$
32:0
     RDKit          3D

 46 48  0  0  0  0  0  0  0  0999 V2000
   -0.4770   20.0300  -31.7480 C   0  0  0  0  0  0  0  0  0  0  0  0
   -0.2900   19.6610  -30.3850 O   0  0  0  0  0  0  0  0  0  0  0  0
   -0.7930   20.3830  -29.2920 C   0  0  0  0  0  0  0  0  0  0  0  0
   -1.2610   19.6670  -28.1840 C   0  0  0  0  0  0  0  0  0  0  0  0
   -1.7710   20.3300  -27.0620 C   0  0  0  0  0  0  0  0  0  0  0  0
   -2.2220   19.5590  -25.9800 O   0  0  0  0  0  0  0  0  0  0  0  0
   -3.3220   18.6560  -26.0390 C   0  0  0  0  0  0  0  0  0  0  0  0
   -1.8130   21.7350  -27.0530 C   0  0  0  0  0  0  0  0  0  0  0  0
   -1.3450   22.4640  -28.1540 C   0  0  0  0  0  0  0  0  0  0  0  0
   -1.3640   24.2240  -28.1010 S   0  0  0  0  0  0  0  0  0  0  0  0
    0.0380   24.7290  -28.2880 O   0  0  0  0  0  0  0  0  0  0  0  0
   -1.8920   24.7160  -26.7820 O   0  0  0  0  0  0  0  0  0  0  0  0
   -2.3700   24.8340  -29.3770 N   0  0  0  0  0  0  0  0  0  0  0  0
   -3.5310   24.1420  -29.8670 C   0  0  0  0  0  0  0  0  0  0  0  0
   -3.4310   23.1110  -30.8170 C   0  0  0  0  0  0  0  0  0  0  0  0
   -4.5790   22.4690  -31.2910 C   0  0  0  0  0  0  0  0  0  0  0  0
   -5.8530   22.8460  -30.8280 C   0  0  0  0  0  0  0  0  0  0  0  0
   -7.0870   22.1730  -31.3170 C   0  0  0  0  0  0  0  0  0  0  0  0
   -7.1190   20.7980  -31.6010 C   0  0  0  0  0  0  0  0  0  0  0  0
   -8.3160   20.2300  -32.0540 C   0  0  0  0  0  0  0  0  0  0  0  0
   -8.3880   18.7710  -32.3700 C   0  0  0  0  0  0  0  0  0  0  0  0
   -9.4110   21.0150  -32.2250 N   0  0  0  0  0  0  0  0  0  0  0  0
   -9.3650   22.3440  -31.9600 C   0  0  0  0  0  0  0  0  0  0  0  0
   -8.2150   22.9110  -31.5120 N   0  0  0  0  0  0  0  0  0  0  0  0
   -5.9450   23.8590  -29.8590 C   0  0  0  0  0  0  0  0  0  0  0  0
   -4.7980   24.4990  -29.3850 C   0  0  0  0  0  0  0  0  0  0  0  0
   -0.8400   21.7890  -29.2740 C   0  0  0  0  0  0  0  0  0  0  0  0
   -0.9737   21.0102  -31.7977 H   0  0  0  0  0  0  0  0  0  0  0  0
    0.5003   20.0884  -32.2495 H   0  0  0  0  0  0  0  0  0  0  0  0
   -1.1020   19.2764  -32.2495 H   0  0  0  0  0  0  0  0  0  0  0  0
   -1.2274   18.5676  -28.1953 H   0  0  0  0  0  0  0  0  0  0  0  0
   -3.6384   18.3963  -25.0180 H   0  0  0  0  0  0  0  0  0  0  0  0
   -4.1584   19.1314  -26.5723 H   0  0  0  0  0  0  0  0  0  0  0  0
   -3.0187   17.7430  -26.5723 H   0  0  0  0  0  0  0  0  0  0  0  0
   -2.2154   22.2648  -26.1770 H   0  0  0  0  0  0  0  0  0  0  0  0
   -2.0220   25.6710  -29.8950 H   0  0  0  0  0  0  0  0  0  0  0  0
   -2.4420   22.8069  -31.1904 H   0  0  0  0  0  0  0  0  0  0  0  0
   -4.4853   21.6619  -32.0325 H   0  0  0  0  0  0  0  0  0  0  0  0
   -6.2197   20.1783  -31.4699 H   0  0  0  0  0  0  0  0  0  0  0  0
   -8.4165   18.1941  -31.4339 H   0  0  0  0  0  0  0  0  0  0  0  0
   -9.2973   18.5668  -32.9543 H   0  0  0  0  0  0  0  0  0  0  0  0
   -7.5032   18.4783  -32.9543 H   0  0  0  0  0  0  0  0  0  0  0  0
  -10.2612   22.9644  -32.1082 H   0  0  0  0  0  0  0  0  0  0  0  0
   -6.9313   24.1512  -29.4694 H   0  0  0  0  0  0  0  0  0  0  0  0
   -4.8895   25.2904  -28.6265 H   0  0  0  0  0  0  0  0  0  0  0  0
   -0.4792   22.3606  -30.1418 H   0  0  0  0  0  0  0  0  0  0  0  0
  1  2  1  0
  2  3  1  0
  3  4  2  0
  4  5  1  0
  5  6  1  0
  6  7  1  0
  5  8  2  0
  8  9  1  0
  9 10  1  0
 10 11  2  0
 10 12  2  0
 10 13  1  0
 13 14  1  0
 14 15  2  0
 15 16  1  0
 16 17  2  0
 17 18  1  0
 18 19  2  0
 19 20  1  0
 20 21  1  0
 20 22  2  0
 22 23  1  0
 23 24  2  0
 17 25  1  0
 25 26  2  0
  9 27  2  0
 27  3  1  0
 26 14  1  0
 24 18  1  0
  1 28  1  0
  1 29  1  0
  1 30  1  0
  4 31  1  0
  7 32  1  0
  7 33  1  0
  7 34  1  0
  8 35  1  0
 13 36  1  0
 15 37  1  0
 16 38  1  0
 19 39  1  0
 21 40  1  0
 21 41  1  0
 21 42  1  0
 23 43  1  0
 25 44  1  0
 26 45  1  0
 27 46  1  0
M  END
>  <UniqueID>  (33) 
31

>  <SMILES>  (33) 
COc1cc(OC)cc(S(=O)(=O)Nc2ccc(-c3cc(C)ncn3)cc2)c1

>  <Energy>  (33) 
53.068162850839244

>  <Genealogy>  (33) 
COc1cc(OC)cc(S(=O)(=O)Nc2ccc(-c3cc(C)ncn3)cc2)c1 (3D coordinates assigned)
COc1cc(OC)cc(S(=O)(=O)Nc2ccc(-c3cc(C)ncn3)cc2)c1 (optimized conformer: 53.068162850839244 kcal/mol)

>  <smiles>  (33) 
COc1cc(OC)cc(S(=O)(=O)Nc2ccc(-c3cc(C)ncn3)cc2)c1

>  <score_type>  (33) 
oracle

>  <origin>  (33) 
adgpu

>  <m_score__min__energy>  (33) 
-8.6899999999999995

>  <m_primary>  (33) 
energy

$$$$
33:0
     RDKit          3D

 49 53  0  0  0  0  0  0  0  0999 V2000
   -0.4760   17.5220  -27.1250 C   0  0  0  0  0  0  0  0  0  0  0  0
   -0.8270   18.9180  -27.5470 C   0  0  0  0  0  0  0  0  0  0  0  0
   -0.1240   19.5340  -28.5990 C   0  0  0  0  0  0  0  0  0  0  0  0
   -0.4660   20.8260  -29.0100 C   0  0  0  0  0  0  0  0  0  0  0  0
   -1.5140   21.5110  -28.3810 C   0  0  0  0  0  0  0  0  0  0  0  0
   -1.8620   22.8800  -28.8030 C   0  0  0  0  0  0  0  0  0  0  0  0
   -1.2220   24.0330  -28.3530 C   0  0  0  0  0  0  0  0  0  0  0  0
   -0.0560   24.1100  -27.4430 C   0  0  0  0  0  0  0  0  0  0  0  0
    1.0020   23.4990  -27.7540 O   0  0  0  0  0  0  0  0  0  0  0  0
   -0.0930   24.8890  -26.1840 C   0  0  0  0  0  0  0  0  0  0  0  0
    1.0710   25.0220  -25.4050 C   0  0  0  0  0  0  0  0  0  0  0  0
    1.0440   25.7480  -24.2100 C   0  0  0  0  0  0  0  0  0  0  0  0
   -0.1450   26.3370  -23.7740 C   0  0  0  0  0  0  0  0  0  0  0  0
   -1.3120   26.1960  -24.5310 C   0  0  0  0  0  0  0  0  0  0  0  0
   -1.2900   25.4700  -25.7260 C   0  0  0  0  0  0  0  0  0  0  0  0
   -1.8540   25.0820  -28.9930 C   0  0  0  0  0  0  0  0  0  0  0  0
   -1.5290   26.4300  -28.9020 O   0  0  0  0  0  0  0  0  0  0  0  0
   -2.8500   24.5460  -29.7720 C   0  0  0  0  0  0  0  0  0  0  0  0
   -3.7170   25.2870  -30.5660 O   0  0  0  0  0  0  0  0  0  0  0  0
   -2.8680   23.1980  -29.6640 N   0  0  0  0  0  0  0  0  0  0  0  0
   -3.8040   22.3060  -30.3030 C   0  0  0  0  0  0  0  0  0  0  0  0
   -3.3660   21.1570  -30.8920 N   0  0  0  0  0  0  0  0  0  0  0  0
   -4.2200   20.3030  -31.5130 C   0  0  0  0  0  0  0  0  0  0  0  0
   -3.7320   19.1740  -32.0830 F   0  0  0  0  0  0  0  0  0  0  0  0
   -5.5870   20.6000  -31.5600 C   0  0  0  0  0  0  0  0  0  0  0  0
   -6.5150   19.7560  -32.1910 C   0  0  0  0  0  0  0  0  0  0  0  0
   -7.8720   20.1010  -32.2070 C   0  0  0  0  0  0  0  0  0  0  0  0
   -8.3080   21.2760  -31.5850 C   0  0  0  0  0  0  0  0  0  0  0  0
   -7.3880   22.1210  -30.9560 C   0  0  0  0  0  0  0  0  0  0  0  0
   -6.0280   21.7890  -30.9460 C   0  0  0  0  0  0  0  0  0  0  0  0
   -5.1310   22.6060  -30.3400 N   0  0  0  0  0  0  0  0  0  0  0  0
   -2.2340   20.8910  -27.3490 C   0  0  0  0  0  0  0  0  0  0  0  0
   -1.8940   19.5990  -26.9350 C   0  0  0  0  0  0  0  0  0  0  0  0
   -0.4613   17.4637  -26.0266 H   0  0  0  0  0  0  0  0  0  0  0  0
   -1.2257   16.8203  -27.5194 H   0  0  0  0  0  0  0  0  0  0  0  0
    0.5164   17.2583  -27.5194 H   0  0  0  0  0  0  0  0  0  0  0  0
    0.6962   18.9980  -29.0990 H   0  0  0  0  0  0  0  0  0  0  0  0
    0.0892   21.3059  -29.8294 H   0  0  0  0  0  0  0  0  0  0  0  0
    2.0082   24.5520  -25.7379 H   0  0  0  0  0  0  0  0  0  0  0  0
    1.9611   25.8554  -23.6122 H   0  0  0  0  0  0  0  0  0  0  0  0
   -0.1633   26.9113  -22.8360 H   0  0  0  0  0  0  0  0  0  0  0  0
   -2.2492   26.6570  -24.1859 H   0  0  0  0  0  0  0  0  0  0  0  0
   -2.2138   25.3524  -26.3114 H   0  0  0  0  0  0  0  0  0  0  0  0
   -6.1768   18.8261  -32.6716 H   0  0  0  0  0  0  0  0  0  0  0  0
   -8.5980   19.4457  -32.7105 H   0  0  0  0  0  0  0  0  0  0  0  0
   -9.3769   21.5358  -31.5907 H   0  0  0  0  0  0  0  0  0  0  0  0
   -7.7326   23.0455  -30.4697 H   0  0  0  0  0  0  0  0  0  0  0  0
   -3.0670   21.4216  -26.8647 H   0  0  0  0  0  0  0  0  0  0  0  0
   -2.4631   19.1142  -26.1281 H   0  0  0  0  0  0  0  0  0  0  0  0
  1  2  1  0
  2  3  2  0
  3  4  1  0
  4  5  2  0
  5  6  1  0
  6  7  2  0
  7  8  1  0
  8  9  2  0
  8 10  1  0
 10 11  2  0
 11 12  1  0
 12 13  2  0
 13 14  1  0
 14 15  2  0
  7 16  1  0
 16 17  1  0
 16 18  2  0
 18 19  1  0
 18 20  1  0
 20 21  1  0
 21 22  2  0
 22 23  1  0
 23 24  1  0
 23 25  2  0
 25 26  1  0
 26 27  2  0
 27 28  1  0
 28 29  2  0
 29 30  1  0
 30 31  2  0
  5 32  1  0
 32 33  2  0
 33  2  1  0
 20  6  1  0
 31 21  1  0
 15 10  1  0
 30 25  1  0
  1 34  1  0
  1 35  1  0
  1 36  1  0
  3 37  1  0
  4 38  1  0
 11 39  1  0
 12 40  1  0
 13 41  1  0
 14 42  1  0
 15 43  1  0
 26 44  1  0
 27 45  1  0
 28 46  1  0
 29 47  1  0
 32 48  1  0
 33 49  1  0
M  CHG  2  17  -1  19  -1
M  END
>  <UniqueID>  (34) 
32

>  <SMILES>  (34) 
Cc1ccc(-c2c(C(=O)c3ccccc3)c([O-])c([O-])n2-c2nc(F)c3ccccc3n2)cc1

>  <Energy>  (34) 
103.00648525235184

>  <Genealogy>  (34) 
Cc1ccc(-c2c(C(=O)c3ccccc3)c([O-])c([O-])n2-c2nc(F)c3ccccc3n2)cc1 (protonated)
Cc1ccc(-c2c(C(=O)c3ccccc3)c([O-])c([O-])n2-c2nc(F)c3ccccc3n2)cc1 (3D coordinates assigned)
Cc1ccc(-c2c(C(=O)c3ccccc3)c([O-])c([O-])n2-c2nc(F)c3ccccc3n2)cc1 (optimized conformer: 103.00648525235184 kcal/mol)

>  <smiles>  (34) 
Cc1ccc(-c2c(C(=O)c3ccccc3)c(O)c(O)n2-c2nc(F)c3ccccc3n2)cc1

>  <score_type>  (34) 
oracle

>  <origin>  (34) 
adgpu

>  <m_score__min__energy>  (34) 
-15.039999999999999

>  <m_primary>  (34) 
energy

$$$$
34:0
     RDKit          3D

 62 64  0  0  0  0  0  0  0  0999 V2000
   -5.7540   12.9220  -33.5520 C   0  0  0  0  0  0  0  0  0  0  0  0
   -4.9000   13.9870  -34.2310 C   0  0  0  0  0  0  0  0  0  0  0  0
   -5.0940   15.2860  -33.5890 N   0  0  0  0  0  0  0  0  0  0  0  0
   -6.2510   16.1020  -33.8380 C   0  0  0  0  0  0  0  0  0  0  0  0
   -7.2200   15.6240  -34.4890 O   0  0  0  0  0  0  0  0  0  0  0  0
   -6.3340   17.4900  -33.3230 C   0  0  0  0  0  0  0  0  0  0  0  0
   -5.7480   18.5600  -34.0220 C   0  0  0  0  0  0  0  0  0  0  0  0
   -5.8410   19.8650  -33.5280 C   0  0  0  0  0  0  0  0  0  0  0  0
   -6.5180   20.1240  -32.3280 C   0  0  0  0  0  0  0  0  0  0  0  0
   -6.6300   21.5060  -31.8100 C   0  0  0  0  0  0  0  0  0  0  0  0
   -5.4590   22.1710  -31.4090 C   0  0  0  0  0  0  0  0  0  0  0  0
   -5.5090   23.4770  -30.8980 C   0  0  0  0  0  0  0  0  0  0  0  0
   -4.2630   24.1590  -30.4770 C   0  0  0  0  0  0  0  0  0  0  0  0
   -4.0370   25.3340  -30.8700 O   0  0  0  0  0  0  0  0  0  0  0  0
   -3.2730   23.5050  -29.6700 N   0  0  0  0  0  0  0  0  0  0  0  0
   -2.3190   22.5340  -30.1230 C   0  0  0  0  0  0  0  0  0  0  0  0
   -1.1090   22.3150  -29.4420 C   0  0  0  0  0  0  0  0  0  0  0  0
   -0.1930   21.3750  -29.9190 C   0  0  0  0  0  0  0  0  0  0  0  0
   -0.4660   20.6570  -31.0860 C   0  0  0  0  0  0  0  0  0  0  0  0
    0.4390   19.7510  -31.5380 F   0  0  0  0  0  0  0  0  0  0  0  0
   -1.6640   20.8810  -31.7890 C   0  0  0  0  0  0  0  0  0  0  0  0
   -1.9490   20.1300  -33.0650 C   0  0  0  0  0  0  0  0  0  0  0  0
   -1.5340   20.9250  -34.2300 N   0  0  0  0  0  0  0  0  0  0  0  0
   -0.0730   21.1240  -34.2970 C   0  0  0  0  0  0  0  0  0  0  0  0
    0.3170   22.1220  -35.4010 C   0  0  0  0  0  0  0  0  0  0  0  0
    0.5980   19.7720  -34.5480 C   0  0  0  0  0  0  0  0  0  0  0  0
   -2.5790   21.8300  -31.3050 C   0  0  0  0  0  0  0  0  0  0  0  0
   -6.7530   24.1100  -30.7650 C   0  0  0  0  0  0  0  0  0  0  0  0
   -7.9220   23.4660  -31.1690 C   0  0  0  0  0  0  0  0  0  0  0  0
   -7.8770   22.1730  -31.7150 C   0  0  0  0  0  0  0  0  0  0  0  0
   -9.1620   21.5280  -32.1630 C   0  0  0  0  0  0  0  0  0  0  0  0
   -7.1240   19.0630  -31.6410 C   0  0  0  0  0  0  0  0  0  0  0  0
   -7.0330   17.7590  -32.1320 C   0  0  0  0  0  0  0  0  0  0  0  0
   -5.6704   13.0262  -32.4601 H   0  0  0  0  0  0  0  0  0  0  0  0
   -6.8045   13.0476  -33.8530 H   0  0  0  0  0  0  0  0  0  0  0  0
   -5.4032   11.9238  -33.8530 H   0  0  0  0  0  0  0  0  0  0  0  0
   -3.8401   13.7018  -34.1577 H   0  0  0  0  0  0  0  0  0  0  0  0
   -5.2004   14.0638  -35.2864 H   0  0  0  0  0  0  0  0  0  0  0  0
   -4.4060   15.5750  -32.8580 H   0  0  0  0  0  0  0  0  0  0  0  0
   -5.2127   18.3693  -34.9639 H   0  0  0  0  0  0  0  0  0  0  0  0
   -5.3798   20.6940  -34.0848 H   0  0  0  0  0  0  0  0  0  0  0  0
   -4.4887   21.6603  -31.4969 H   0  0  0  0  0  0  0  0  0  0  0  0
   -0.8827   22.8864  -28.5297 H   0  0  0  0  0  0  0  0  0  0  0  0
    0.7463   21.1993  -29.3742 H   0  0  0  0  0  0  0  0  0  0  0  0
   -1.3946   19.1800  -33.0582 H   0  0  0  0  0  0  0  0  0  0  0  0
   -3.0297   19.9359  -33.1316 H   0  0  0  0  0  0  0  0  0  0  0  0
   -2.0200   21.8530  -34.1970 H   0  0  0  0  0  0  0  0  0  0  0  0
    0.2677   21.5470  -33.3404 H   0  0  0  0  0  0  0  0  0  0  0  0
    0.6808   23.0530  -34.9418 H   0  0  0  0  0  0  0  0  0  0  0  0
    1.1111   21.6864  -36.0253 H   0  0  0  0  0  0  0  0  0  0  0  0
   -0.5620   22.3402  -36.0253 H   0  0  0  0  0  0  0  0  0  0  0  0
    0.8344   19.2956  -33.5851 H   0  0  0  0  0  0  0  0  0  0  0  0
   -0.0835   19.1249  -35.1197 H   0  0  0  0  0  0  0  0  0  0  0  0
    1.5255   19.9235  -35.1197 H   0  0  0  0  0  0  0  0  0  0  0  0
   -3.5091   22.0221  -31.8600 H   0  0  0  0  0  0  0  0  0  0  0  0
   -6.8072   25.1226  -30.3386 H   0  0  0  0  0  0  0  0  0  0  0  0
   -8.8901   23.9765  -31.0588 H   0  0  0  0  0  0  0  0  0  0  0  0
   -9.7506   21.2326  -31.2819 H   0  0  0  0  0  0  0  0  0  0  0  0
   -9.7399   22.2429  -32.7671 H   0  0  0  0  0  0  0  0  0  0  0  0
   -8.9341   20.6375  -32.7671 H   0  0  0  0  0  0  0  0  0  0  0  0
   -7.6747   19.2589  -30.7092 H   0  0  0  0  0  0  0  0  0  0  0  0
   -7.5120   16.9349  -31.5829 H   0  0  0  0  0  0  0  0  0  0  0  0
  1  2  1  0
  2  3  1  0
  3  4  1  0
  4  5  2  0
  4  6  1  0
  6  7  2  0
  7  8  1  0
  8  9  2  0
  9 10  1  0
 10 11  2  0
 11 12  1  0
 12 13  1  0
 13 14  2  0
 13 15  1  0
 15 16  1  0
 16 17  2  0
 17 18  1  0
 18 19  2  0
 19 20  1  0
 19 21  1  0
 21 22  1  0
 22 23  1  0
 23 24  1  0
 24 25  1  0
 24 26  1  0
 21 27  2  0
 12 28  2  0
 28 29  1  0
 29 30  2  0
 30 31  1  0
  9 32  1  0
 32 33  2  0
 33  6  1  0
 30 10  1  0
 27 16  1  0
  1 34  1  0
  1 35  1  0
  1 36  1  0
  2 37  1  0
  2 38  1  0
  3 39  1  0
  7 40  1  0
  8 41  1  0
 11 42  1  0
 17 43  1  0
 18 44  1  0
 22 45  1  0
 22 46  1  0
 23 47  1  0
 24 48  1  0
 25 49  1  0
 25 50  1  0
 25 51  1  0
 26 52  1  0
 26 53  1  0
 26 54  1  0
 27 55  1  0
 28 56  1  0
 29 57  1  0
 31 58  1  0
 31 59  1  0
 31 60  1  0
 32 61  1  0
 33 62  1  0
M  CHG  1  15  -1
M  END
>  <UniqueID>  (35) 
33

>  <SMILES>  (35) 
CCNC(=O)c1ccc(-c2cc(C(=O)[N-]c3ccc(F)c(CNC(C)C)c3)ccc2C)cc1

>  <Energy>  (35) 
71.84536194271374

>  <Genealogy>  (35) 
CCNC(=O)c1ccc(-c2cc(C(=O)[N-]c3ccc(F)c(CNC(C)C)c3)ccc2C)cc1 (protonated)
CCNC(=O)c1ccc(-c2cc(C(=O)[N-]c3ccc(F)c(CNC(C)C)c3)ccc2C)cc1 (3D coordinates assigned)
CCNC(=O)c1ccc(-c2cc(C(=O)[N-]c3ccc(F)c(CNC(C)C)c3)ccc2C)cc1 (optimized conformer: 71.84536194271374 kcal/mol)

>  <smiles>  (35) 
CCNC(=O)c1ccc(-c2cc(C(=O)Nc3ccc(F)c(CNC(C)C)c3)ccc2C)cc1

>  <score_type>  (35) 
oracle

>  <origin>  (35) 
adgpu

>  <m_score__min__energy>  (35) 
-11.15

>  <m_primary>  (35) 
energy

$$$$
35:0
     RDKit          3D

 33 34  0  0  0  0  0  0  0  0999 V2000
   -0.0930   23.8560  -25.3270 C   0  0  0  0  0  0  0  0  0  0  0  0
    0.4040   23.3800  -26.5720 O   0  0  0  0  0  0  0  0  0  0  0  0
    0.0140   23.9250  -27.8010 C   0  0  0  0  0  0  0  0  0  0  0  0
    0.8800   24.4510  -28.5530 O   0  0  0  0  0  0  0  0  0  0  0  0
   -1.4100   23.8870  -28.2250 C   0  0  0  0  0  0  0  0  0  0  0  0
   -2.2120   22.7840  -27.8740 C   0  0  0  0  0  0  0  0  0  0  0  0
   -3.5520   22.7230  -28.2610 C   0  0  0  0  0  0  0  0  0  0  0  0
   -4.1210   23.7570  -29.0200 C   0  0  0  0  0  0  0  0  0  0  0  0
   -5.5060   23.7280  -29.4110 N   0  0  0  0  0  0  0  0  0  0  0  0
   -5.9670   23.9530  -30.7520 C   0  0  0  0  0  0  0  0  0  0  0  0
   -5.2460   24.5800  -31.5730 O   0  0  0  0  0  0  0  0  0  0  0  0
   -7.2870   23.5650  -31.1480 N   0  0  0  0  0  0  0  0  0  0  0  0
   -7.6700   22.2790  -31.6530 C   0  0  0  0  0  0  0  0  0  0  0  0
   -9.0200   21.9040  -31.5950 C   0  0  0  0  0  0  0  0  0  0  0  0
   -9.4320   20.6670  -32.1020 C   0  0  0  0  0  0  0  0  0  0  0  0
   -8.5010   19.8040  -32.6850 C   0  0  0  0  0  0  0  0  0  0  0  0
   -7.1570   20.1810  -32.7710 C   0  0  0  0  0  0  0  0  0  0  0  0
   -6.7420   21.4170  -32.2640 C   0  0  0  0  0  0  0  0  0  0  0  0
   -3.3360   24.8670  -29.3550 C   0  0  0  0  0  0  0  0  0  0  0  0
   -1.9920   24.9360  -28.9710 C   0  0  0  0  0  0  0  0  0  0  0  0
   -1.2530   26.0560  -29.3390 O   0  0  0  0  0  0  0  0  0  0  0  0
    0.4344   23.3509  -24.5044 H   0  0  0  0  0  0  0  0  0  0  0  0
    0.0724   24.9412  -25.2569 H   0  0  0  0  0  0  0  0  0  0  0  0
   -1.1701   23.6440  -25.2569 H   0  0  0  0  0  0  0  0  0  0  0  0
   -1.7775   21.9607  -27.2880 H   0  0  0  0  0  0  0  0  0  0  0  0
   -4.1660   21.8583  -27.9689 H   0  0  0  0  0  0  0  0  0  0  0  0
   -6.2260   23.6220  -28.6610 H   0  0  0  0  0  0  0  0  0  0  0  0
   -9.7587   22.5859  -31.1486 H   0  0  0  0  0  0  0  0  0  0  0  0
  -10.4904   20.3735  -32.0415 H   0  0  0  0  0  0  0  0  0  0  0  0
   -8.8249   18.8283  -33.0763 H   0  0  0  0  0  0  0  0  0  0  0  0
   -6.4255   19.5050  -33.2378 H   0  0  0  0  0  0  0  0  0  0  0  0
   -5.6863   21.7156  -32.3435 H   0  0  0  0  0  0  0  0  0  0  0  0
   -3.7810   25.6947  -29.9268 H   0  0  0  0  0  0  0  0  0  0  0  0
  1  2  1  0
  2  3  1  0
  3  4  2  0
  3  5  1  0
  5  6  2  0
  6  7  1  0
  7  8  2  0
  8  9  1  0
  9 10  1  0
 10 11  2  0
 10 12  1  0
 12 13  1  0
 13 14  2  0
 14 15  1  0
 15 16  2  0
 16 17  1  0
 17 18  2  0
  8 19  1  0
 19 20  2  0
 20 21  1  0
 20  5  1  0
 18 13  1  0
  1 22  1  0
  1 23  1  0
  1 24  1  0
  6 25  1  0
  7 26  1  0
  9 27  1  0
 14 28  1  0
 15 29  1  0
 16 30  1  0
 17 31  1  0
 18 32  1  0
 19 33  1  0
M  CHG  2  12  -1  21  -1
M  END
>  <UniqueID>  (36) 
34

>  <SMILES>  (36) 
COC(=O)c1ccc(NC(=O)[N-]c2ccccc2)cc1[O-]

>  <Energy>  (36) 
40.66450992663487

>  <Genealogy>  (36) 
COC(=O)c1ccc(NC(=O)[N-]c2ccccc2)cc1[O-] (protonated)
COC(=O)c1ccc(NC(=O)[N-]c2ccccc2)cc1[O-] (3D coordinates assigned)
COC(=O)c1ccc(NC(=O)[N-]c2ccccc2)cc1[O-] (optimized conformer: 40.66450992663487 kcal/mol)

>  <smiles>  (36) 
COC(=O)c1ccc(NC(=O)Nc2ccccc2)cc1O

>  <score_type>  (36) 
oracle

>  <origin>  (36) 
adgpu

>  <m_score__min__energy>  (36) 
-11.09

>  <m_primary>  (36) 
energy

$$$$
36:0
     RDKit          3D

 36 38  0  0  0  0  0  0  0  0999 V2000
   -4.4190   18.5511  -32.8443 H   0  0  0  0  0  0  0  0  0  0  0  0
   -4.1330   19.5920  -32.6330 C   0  0  0  0  0  0  0  0  0  0  0  0
   -5.1000   20.4280  -32.1900 C   0  0  0  0  0  0  0  0  0  0  0  0
   -6.5080   19.9490  -32.1190 C   0  0  0  0  0  0  0  0  0  0  0  0
   -7.5780   20.7920  -32.4770 C   0  0  0  0  0  0  0  0  0  0  0  0
   -7.3744   21.8157  -32.8242 H   0  0  0  0  0  0  0  0  0  0  0  0
   -8.8980   20.3360  -32.3940 C   0  0  0  0  0  0  0  0  0  0  0  0
   -9.7275   21.0003  -32.6782 H   0  0  0  0  0  0  0  0  0  0  0  0
   -9.1640   19.0390  -31.9510 C   0  0  0  0  0  0  0  0  0  0  0  0
  -10.2025   18.6819  -31.8880 H   0  0  0  0  0  0  0  0  0  0  0  0
   -8.1130   18.1950  -31.5880 C   0  0  0  0  0  0  0  0  0  0  0  0
   -8.3247   17.1740  -31.2376 H   0  0  0  0  0  0  0  0  0  0  0  0
   -6.7920   18.6450  -31.6690 C   0  0  0  0  0  0  0  0  0  0  0  0
   -5.9684   17.9759  -31.3792 H   0  0  0  0  0  0  0  0  0  0  0  0
   -4.7930   21.7990  -31.7070 C   0  0  0  0  0  0  0  0  0  0  0  0
   -5.6240   22.8830  -32.0390 C   0  0  0  0  0  0  0  0  0  0  0  0
   -6.5201   22.7172  -32.6550 H   0  0  0  0  0  0  0  0  0  0  0  0
   -5.3170   24.1710  -31.5900 C   0  0  0  0  0  0  0  0  0  0  0  0
   -5.9756   25.0138  -31.8468 H   0  0  0  0  0  0  0  0  0  0  0  0
   -4.1740   24.3890  -30.8150 C   0  0  0  0  0  0  0  0  0  0  0  0
   -3.8710   25.6690  -30.3680 O   0  0  0  0  0  0  0  0  0  0  0  0
   -3.3340   23.3190  -30.4940 C   0  0  0  0  0  0  0  0  0  0  0  0
   -2.4323   23.4919  -29.8881 H   0  0  0  0  0  0  0  0  0  0  0  0
   -3.6370   22.0300  -30.9410 C   0  0  0  0  0  0  0  0  0  0  0  0
   -2.9682   21.1927  -30.6925 H   0  0  0  0  0  0  0  0  0  0  0  0
   -2.7200   19.9710  -32.8550 C   0  0  0  0  0  0  0  0  0  0  0  0
   -1.7050   19.5850  -31.9590 C   0  0  0  0  0  0  0  0  0  0  0  0
   -1.9543   18.9735  -31.0793 H   0  0  0  0  0  0  0  0  0  0  0  0
   -0.3810   19.9760  -32.1830 C   0  0  0  0  0  0  0  0  0  0  0  0
    0.4109   19.6567  -31.4895 H   0  0  0  0  0  0  0  0  0  0  0  0
   -0.0630   20.7720  -33.2870 C   0  0  0  0  0  0  0  0  0  0  0  0
    1.2530   21.1590  -33.5080 O   0  0  0  0  0  0  0  0  0  0  0  0
   -1.0700   21.1840  -34.1640 C   0  0  0  0  0  0  0  0  0  0  0  0
   -0.8202   21.8170  -35.0282 H   0  0  0  0  0  0  0  0  0  0  0  0
   -2.3950   20.7930  -33.9450 C   0  0  0  0  0  0  0  0  0  0  0  0
   -3.1860   21.1314  -34.6304 H   0  0  0  0  0  0  0  0  0  0  0  0
  1  2  1  0
  2  3  2  0
  3  4  1  0
  4  5  2  0
  5  6  1  0
  5  7  1  0
  7  8  1  0
  7  9  2  0
  9 10  1  0
  9 11  1  0
 11 12  1  0
 11 13  2  0
 13 14  1  0
  3 15  1  0
 15 16  2  0
 16 17  1  0
 16 18  1  0
 18 19  1  0
 18 20  2  0
 20 21  1  0
 20 22  1  0
 22 23  1  0
 22 24  2  0
 24 25  1  0
  2 26  1  0
 26 27  2  0
 27 28  1  0
 27 29  1  0
 29 30  1  0
 29 31  2  0
 31 32  1  0
 31 33  1  0
 33 34  1  0
 33 35  2  0
 35 36  1  0
 13  4  1  0
 24 15  1  0
 35 26  1  0
M  CHG  2  21  -1  32  -1
M  END
>  <UniqueID>  (37) 
35

>  <SMILES>  (37) 
[O-]c1ccc(/C=C(/c2ccccc2)c2ccc([O-])cc2)cc1

>  <Energy>  (37) 
54.24353952502528

>  <Genealogy>  (37) 
[O-]c1ccc(C=C(c2ccccc2)c2ccc([O-])cc2)cc1 (protonated)
[O-]c1ccc(/C=C(/c2ccccc2)c2ccc([O-])cc2)cc1 (cis-trans isomerization)
[O-]c1ccc(/C=C(/c2ccccc2)c2ccc([O-])cc2)cc1 (3D coordinates assigned)
[O-]c1ccc(/C=C(/c2ccccc2)c2ccc([O-])cc2)cc1 (optimized conformer: 54.24353952502528 kcal/mol)

>  <smiles>  (37) 
Oc1ccc(C=C(c2ccccc2)c2ccc(O)cc2)cc1

>  <score_type>  (37) 
oracle

>  <origin>  (37) 
adgpu

>  <m_score__min__energy>  (37) 
-11.029999999999999

>  <m_primary>  (37) 
energy

$$$$
37:0
     RDKit          3D

 45 47  0  0  0  0  0  0  0  0999 V2000
   -0.7100   21.4970  -30.2010 C   0  0  0  0  0  0  0  0  0  0  0  0
   -1.3350   22.8310  -29.9140 C   0  0  0  0  0  0  0  0  0  0  0  0
   -0.6530   23.6970  -29.1170 N   0  0  0  0  0  0  0  0  0  0  0  0
   -1.1530   24.9160  -28.8030 C   0  0  0  0  0  0  0  0  0  0  0  0
   -0.4960   25.6940  -28.0640 O   0  0  0  0  0  0  0  0  0  0  0  0
   -2.3590   25.3000  -29.2870 N   0  0  0  0  0  0  0  0  0  0  0  0
   -3.0910   24.4790  -30.0820 C   0  0  0  0  0  0  0  0  0  0  0  0
   -4.2040   24.8830  -30.5110 O   0  0  0  0  0  0  0  0  0  0  0  0
   -2.6050   23.2000  -30.4160 C   0  0  0  0  0  0  0  0  0  0  0  0
   -3.5550   22.0960  -31.4390 S   0  0  0  0  0  0  0  0  0  0  0  0
   -4.7170   22.8540  -32.0170 O   0  0  0  0  0  0  0  0  0  0  0  0
   -4.0920   20.9320  -30.6530 O   0  0  0  0  0  0  0  0  0  0  0  0
   -2.5790   21.4790  -32.7330 N   0  0  0  0  0  0  0  0  0  0  0  0
   -2.4560   20.0970  -33.0880 C   0  0  0  0  0  0  0  0  0  0  0  0
   -1.2540   19.3850  -32.9240 C   0  0  0  0  0  0  0  0  0  0  0  0
   -1.1780   18.0400  -33.2940 C   0  0  0  0  0  0  0  0  0  0  0  0
   -2.2970   17.3930  -33.8230 C   0  0  0  0  0  0  0  0  0  0  0  0
   -3.5030   18.0870  -33.9810 C   0  0  0  0  0  0  0  0  0  0  0  0
   -4.9250   17.2630  -34.6260 S   0  0  0  0  0  0  0  0  0  0  0  0
   -4.9900   17.4770  -36.1120 O   0  0  0  0  0  0  0  0  0  0  0  0
   -4.7980   15.7860  -34.3740 O   0  0  0  0  0  0  0  0  0  0  0  0
   -6.3970   17.8490  -33.8850 N   0  0  0  0  0  0  0  0  0  0  0  0
   -6.5020   19.3160  -34.0420 C   0  0  0  0  0  0  0  0  0  0  0  0
   -7.5260   19.9110  -33.0710 C   0  0  0  0  0  0  0  0  0  0  0  0
   -7.1070   19.6720  -31.6100 C   0  0  0  0  0  0  0  0  0  0  0  0
   -6.2080   18.4350  -31.4430 C   0  0  0  0  0  0  0  0  0  0  0  0
   -6.5410   17.3610  -32.4900 C   0  0  0  0  0  0  0  0  0  0  0  0
   -3.5740   19.4400  -33.6170 C   0  0  0  0  0  0  0  0  0  0  0  0
   -0.4732   20.9915  -29.2532 H   0  0  0  0  0  0  0  0  0  0  0  0
   -1.4127   20.8798  -30.7801 H   0  0  0  0  0  0  0  0  0  0  0  0
    0.2139   21.6419  -30.7801 H   0  0  0  0  0  0  0  0  0  0  0  0
   -0.3713   19.8887  -32.5032 H   0  0  0  0  0  0  0  0  0  0  0  0
   -0.2343   17.4890  -33.1683 H   0  0  0  0  0  0  0  0  0  0  0  0
   -2.2308   16.3349  -34.1165 H   0  0  0  0  0  0  0  0  0  0  0  0
   -5.5185   19.7680  -33.8460 H   0  0  0  0  0  0  0  0  0  0  0  0
   -6.8334   19.5310  -35.0686 H   0  0  0  0  0  0  0  0  0  0  0  0
   -7.6041   20.9935  -33.2499 H   0  0  0  0  0  0  0  0  0  0  0  0
   -8.4956   19.4203  -33.2414 H   0  0  0  0  0  0  0  0  0  0  0  0
   -6.5586   20.5560  -31.2524 H   0  0  0  0  0  0  0  0  0  0  0  0
   -8.0232   19.4970  -31.0269 H   0  0  0  0  0  0  0  0  0  0  0  0
   -5.1568   18.7369  -31.5604 H   0  0  0  0  0  0  0  0  0  0  0  0
   -6.3804   18.0115  -30.4425 H   0  0  0  0  0  0  0  0  0  0  0  0
   -5.8625   16.5074  -32.3451 H   0  0  0  0  0  0  0  0  0  0  0  0
   -7.5939   17.0763  -32.3471 H   0  0  0  0  0  0  0  0  0  0  0  0
   -4.5173   19.9904  -33.7484 H   0  0  0  0  0  0  0  0  0  0  0  0
  1  2  1  0
  2  3  1  0
  3  4  1  0
  4  5  2  0
  4  6  1  0
  6  7  1  0
  7  8  2  0
  7  9  1  0
  9 10  1  0
 10 11  2  0
 10 12  2  0
 10 13  1  0
 13 14  1  0
 14 15  2  0
 15 16  1  0
 16 17  2  0
 17 18  1  0
 18 19  1  0
 19 20  2  0
 19 21  2  0
 19 22  1  0
 22 23  1  0
 23 24  1  0
 24 25  1  0
 25 26  1  0
 26 27  1  0
 18 28  2  0
  9  2  2  0
 28 14  1  0
 27 22  1  0
  1 29  1  0
  1 30  1  0
  1 31  1  0
 15 32  1  0
 16 33  1  0
 17 34  1  0
 23 35  1  0
 23 36  1  0
 24 37  1  0
 24 38  1  0
 25 39  1  0
 25 40  1  0
 26 41  1  0
 26 42  1  0
 27 43  1  0
 27 44  1  0
 28 45  1  0
M  CHG  3   3  -1   6  -1  13  -1
M  END
>  <UniqueID>  (38) 
36

>  <SMILES>  (38) 
Cc1[n-]c(=O)[n-]c(=O)c1S(=O)(=O)[N-]c1cccc(S(=O)(=O)N2CCCCC2)c1

>  <Energy>  (38) 
57.04932737332576

>  <Genealogy>  (38) 
Cc1[n-]c(=O)[n-]c(=O)c1S(=O)(=O)[N-]c1cccc(S(=O)(=O)N2CCCCC2)c1 (protonated)
Cc1[n-]c(=O)[n-]c(=O)c1S(=O)(=O)[N-]c1cccc(S(=O)(=O)N2CCCCC2)c1 (3D coordinates assigned)
Cc1[n-]c(=O)[n-]c(=O)c1S(=O)(=O)[N-]c1cccc(S(=O)(=O)N2CCCCC2)c1 (nonaromatic ring conformer: 57.04932737332576 kcal/mol)

>  <smiles>  (38) 
Cc1[nH]c(=O)[nH]c(=O)c1S(=O)(=O)Nc1cccc(S(=O)(=O)N2CCCCC2)c1

>  <score_type>  (38) 
oracle

>  <origin>  (38) 
adgpu

>  <m_score__min__energy>  (38) 
-12.92

>  <m_primary>  (38) 
energy

$$$$
38:0
     RDKit          3D

 63 66  0  0  0  0  0  0  0  0999 V2000
   -6.1410   17.0570  -31.9620 C   0  0  0  0  0  0  0  0  0  0  0  0
   -7.3500   17.5540  -32.7530 C   0  0  0  0  0  0  0  0  0  0  0  0
   -8.4280   18.1690  -31.8490 C   0  0  0  0  0  0  0  0  0  0  0  0
   -8.9460   19.4770  -32.3870 C   0  0  0  0  0  0  0  0  0  0  0  0
   -9.9770   19.4640  -33.1120 O   0  0  0  0  0  0  0  0  0  0  0  0
   -8.3520   20.7840  -32.0260 C   0  0  0  0  0  0  0  0  0  0  0  0
   -9.0480   21.9760  -31.9510 C   0  0  0  0  0  0  0  0  0  0  0  0
   -8.2160   22.9600  -31.5610 N   0  0  0  0  0  0  0  0  0  0  0  0
   -7.0100   22.4370  -31.3930 N   0  0  0  0  0  0  0  0  0  0  0  0
   -5.8910   23.2140  -30.9330 C   0  0  0  0  0  0  0  0  0  0  0  0
   -6.0850   24.2060  -29.9590 C   0  0  0  0  0  0  0  0  0  0  0  0
   -4.9960   24.9180  -29.4480 C   0  0  0  0  0  0  0  0  0  0  0  0
   -3.6930   24.6260  -29.8840 C   0  0  0  0  0  0  0  0  0  0  0  0
   -2.5500   25.2970  -29.3350 N   0  0  0  0  0  0  0  0  0  0  0  0
   -1.3970   24.6680  -28.7550 C   0  0  0  0  0  0  0  0  0  0  0  0
   -0.4590   25.4010  -28.3420 O   0  0  0  0  0  0  0  0  0  0  0  0
   -1.2570   23.1930  -28.6740 C   0  0  0  0  0  0  0  0  0  0  0  0
   -1.5680   22.5190  -27.4810 C   0  0  0  0  0  0  0  0  0  0  0  0
   -1.4570   21.1280  -27.4040 C   0  0  0  0  0  0  0  0  0  0  0  0
   -1.0350   20.3950  -28.5150 C   0  0  0  0  0  0  0  0  0  0  0  0
   -0.6980   21.0530  -29.7040 C   0  0  0  0  0  0  0  0  0  0  0  0
   -0.1900   20.1310  -31.1200 S   0  0  0  0  0  0  0  0  0  0  0  0
   -0.8970   18.8030  -31.1180 O   0  0  0  0  0  0  0  0  0  0  0  0
    1.2860   19.8580  -31.0090 O   0  0  0  0  0  0  0  0  0  0  0  0
   -0.5050   20.9580  -32.6340 N   0  0  0  0  0  0  0  0  0  0  0  0
   -0.1770   20.1190  -33.8070 C   0  0  0  0  0  0  0  0  0  0  0  0
   -1.2940   19.1140  -34.1730 C   0  0  0  0  0  0  0  0  0  0  0  0
   -2.4760   19.2950  -33.4190 O   0  0  0  0  0  0  0  0  0  0  0  0
   -2.8640   20.6480  -33.4680 C   0  0  0  0  0  0  0  0  0  0  0  0
   -1.8730   21.5280  -32.6870 C   0  0  0  0  0  0  0  0  0  0  0  0
   -0.7970   22.4490  -29.7750 C   0  0  0  0  0  0  0  0  0  0  0  0
   -3.5010   23.6530  -30.8700 C   0  0  0  0  0  0  0  0  0  0  0  0
   -4.5890   22.9380  -31.3800 C   0  0  0  0  0  0  0  0  0  0  0  0
   -7.0450   21.1140  -31.6870 C   0  0  0  0  0  0  0  0  0  0  0  0
   -5.8410   20.2210  -31.7960 C   0  0  0  0  0  0  0  0  0  0  0  0
   -6.3475   17.1419  -30.8849 H   0  0  0  0  0  0  0  0  0  0  0  0
   -5.9440   16.0050  -32.2158 H   0  0  0  0  0  0  0  0  0  0  0  0
   -5.2611   17.6663  -32.2158 H   0  0  0  0  0  0  0  0  0  0  0  0
   -7.0134   18.3167  -33.4706 H   0  0  0  0  0  0  0  0  0  0  0  0
   -7.7953   16.6880  -33.2646 H   0  0  0  0  0  0  0  0  0  0  0  0
   -9.2672   17.4625  -31.7680 H   0  0  0  0  0  0  0  0  0  0  0  0
   -7.9725   18.3653  -30.8672 H   0  0  0  0  0  0  0  0  0  0  0  0
  -10.1175   22.1013  -32.1755 H   0  0  0  0  0  0  0  0  0  0  0  0
   -7.1000   24.4244  -29.5957 H   0  0  0  0  0  0  0  0  0  0  0  0
   -5.1599   25.7096  -28.7020 H   0  0  0  0  0  0  0  0  0  0  0  0
   -1.9011   23.0900  -26.6018 H   0  0  0  0  0  0  0  0  0  0  0  0
   -1.7027   20.6092  -26.4657 H   0  0  0  0  0  0  0  0  0  0  0  0
   -0.9672   19.2987  -28.4560 H   0  0  0  0  0  0  0  0  0  0  0  0
    0.1650   21.7640  -32.6430 H   0  0  0  0  0  0  0  0  0  0  0  0
   -0.0043   20.7784  -34.6703 H   0  0  0  0  0  0  0  0  0  0  0  0
    0.7165   19.5322  -33.5477 H   0  0  0  0  0  0  0  0  0  0  0  0
   -1.5375   19.2350  -35.2389 H   0  0  0  0  0  0  0  0  0  0  0  0
   -0.9138   18.1068  -33.9473 H   0  0  0  0  0  0  0  0  0  0  0  0
   -2.8905   20.9780  -34.5170 H   0  0  0  0  0  0  0  0  0  0  0  0
   -3.8597   20.7465  -33.0109 H   0  0  0  0  0  0  0  0  0  0  0  0
   -1.8228   22.5139  -33.1722 H   0  0  0  0  0  0  0  0  0  0  0  0
   -2.2401   21.5961  -31.6523 H   0  0  0  0  0  0  0  0  0  0  0  0
   -0.5119   22.9683  -30.7018 H   0  0  0  0  0  0  0  0  0  0  0  0
   -2.4878   23.4489  -31.2466 H   0  0  0  0  0  0  0  0  0  0  0  0
   -4.4240   22.1554  -32.1352 H   0  0  0  0  0  0  0  0  0  0  0  0
   -5.4869   19.9583  -30.7882 H   0  0  0  0  0  0  0  0  0  0  0  0
   -6.1125   19.3042  -32.3398 H   0  0  0  0  0  0  0  0  0  0  0  0
   -5.0424   20.7469  -32.3398 H   0  0  0  0  0  0  0  0  0  0  0  0
  1  2  1  0
  2  3  1  0
  3  4  1  0
  4  5  2  0
  4  6  1  0
  6  7  1  0
  7  8  2  0
  8  9  1  0
  9 10  1  0
 10 11  2  0
 11 12  1  0
 12 13  2  0
 13 14  1  0
 14 15  1  0
 15 16  2  0
 15 17  1  0
 17 18  2  0
 18 19  1  0
 19 20  2  0
 20 21  1  0
 21 22  1  0
 22 23  2  0
 22 24  2  0
 22 25  1  0
 25 26  1  0
 26 27  1  0
 27 28  1  0
 28 29  1  0
 29 30  1  0
 21 31  2  0
 13 32  1  0
 32 33  2  0
  9 34  1  0
 34 35  1  0
 34  6  2  0
 33 10  1  0
 31 17  1  0
 30 25  1  0
  1 36  1  0
  1 37  1  0
  1 38  1  0
  2 39  1  0
  2 40  1  0
  3 41  1  0
  3 42  1  0
  7 43  1  0
 11 44  1  0
 12 45  1  0
 18 46  1  0
 19 47  1  0
 20 48  1  0
 25 49  1  0
 26 50  1  0
 26 51  1  0
 27 52  1  0
 27 53  1  0
 29 54  1  0
 29 55  1  0
 30 56  1  0
 30 57  1  0
 31 58  1  0
 32 59  1  0
 33 60  1  0
 35 61  1  0
 35 62  1  0
 35 63  1  0
M  CHG  2  14  -1  25   1
M  END
>  <UniqueID>  (39) 
37

>  <SMILES>  (39) 
CCCC(=O)c1cnn(-c2ccc([N-]C(=O)c3cccc(S(=O)(=O)[NH+]4CCOCC4)c3)cc2)c1C

>  <Energy>  (39) 
115.89458659990895

>  <Genealogy>  (39) 
CCCC(=O)c1cnn(-c2ccc([N-]C(=O)c3cccc(S(=O)(=O)[NH+]4CCOCC4)c3)cc2)c1C (protonated)
CCCC(=O)c1cnn(-c2ccc([N-]C(=O)c3cccc(S(=O)(=O)[NH+]4CCOCC4)c3)cc2)c1C (3D coordinates assigned)
CCCC(=O)c1cnn(-c2ccc([N-]C(=O)c3cccc(S(=O)(=O)[NH+]4CCOCC4)c3)cc2)c1C (nonaromatic ring conformer: 115.89458659990895 kcal/mol)

>  <smiles>  (39) 
CCCC(=O)c1cnn(-c2ccc(NC(=O)c3cccc(S(=O)(=O)N4CCOCC4)c3)cc2)c1C

>  <score_type>  (39) 
oracle

>  <origin>  (39) 
adgpu

>  <m_score__min__energy>  (39) 
-12.59

>  <m_primary>  (39) 
energy

$$$$
39:0
     RDKit          3D

 58 61  0  0  0  0  0  0  0  0999 V2000
   -5.3880   25.2790  -30.2800 C   0  0  0  0  0  0  0  0  0  0  0  0
   -4.1470   24.8470  -30.8270 O   0  0  0  0  0  0  0  0  0  0  0  0
   -3.3630   23.8040  -30.3070 C   0  0  0  0  0  0  0  0  0  0  0  0
   -2.4920   24.0020  -29.2210 C   0  0  0  0  0  0  0  0  0  0  0  0
   -1.7220   22.9450  -28.7140 C   0  0  0  0  0  0  0  0  0  0  0  0
   -0.8750   23.1630  -27.5700 N   0  0  0  0  0  0  0  0  0  0  0  0
    0.4770   23.6890  -27.7630 C   0  0  0  0  0  0  0  0  0  0  0  0
   -1.2010   22.5290  -26.2930 C   0  0  0  0  0  0  0  0  0  0  0  0
   -1.8170   21.6700  -29.3060 C   0  0  0  0  0  0  0  0  0  0  0  0
   -0.9930   20.5840  -28.8500 N   0  0  0  0  0  0  0  0  0  0  0  0
    0.1760   20.0980  -29.5660 C   0  0  0  0  0  0  0  0  0  0  0  0
    0.5870   18.7820  -28.8770 C   0  0  0  0  0  0  0  0  0  0  0  0
   -0.4800   18.4630  -27.8200 C   0  0  0  0  0  0  0  0  0  0  0  0
   -1.3740   19.6340  -27.8740 C   0  0  0  0  0  0  0  0  0  0  0  0
   -2.3730   19.7840  -27.1190 O   0  0  0  0  0  0  0  0  0  0  0  0
   -2.6890   21.4720  -30.3840 C   0  0  0  0  0  0  0  0  0  0  0  0
   -3.4580   22.5290  -30.8900 C   0  0  0  0  0  0  0  0  0  0  0  0
   -4.5250   22.2580  -32.2700 S   0  0  0  0  0  0  0  0  0  0  0  0
   -3.6880   22.0050  -33.4920 O   0  0  0  0  0  0  0  0  0  0  0  0
   -5.3730   23.4730  -32.5330 O   0  0  0  0  0  0  0  0  0  0  0  0
   -5.5700   20.8980  -31.9530 N   0  0  0  0  0  0  0  0  0  0  0  0
   -5.0050   19.5510  -31.8120 C   0  0  0  0  0  0  0  0  0  0  0  0
   -5.7500   18.5700  -32.7330 C   0  0  2  0  0  0  0  0  0  0  0  0
   -5.4250   18.8320  -34.2060 C   0  0  0  0  0  0  0  0  0  0  0  0
   -7.1610   18.6730  -32.5220 O   0  0  0  0  0  0  0  0  0  0  0  0
   -7.7860   19.8930  -32.2320 C   0  0  0  0  0  0  0  0  0  0  0  0
   -9.1820   19.9730  -32.2120 C   0  0  0  0  0  0  0  0  0  0  0  0
   -9.8110   21.1860  -31.9230 C   0  0  0  0  0  0  0  0  0  0  0  0
   -9.0450   22.3220  -31.6460 C   0  0  0  0  0  0  0  0  0  0  0  0
   -7.6480   22.2480  -31.6560 C   0  0  0  0  0  0  0  0  0  0  0  0
   -7.0060   21.0310  -31.9520 C   0  0  0  0  0  0  0  0  0  0  0  0
   -5.3313   25.2593  -29.1816 H   0  0  0  0  0  0  0  0  0  0  0  0
   -5.6006   26.3040  -30.6178 H   0  0  0  0  0  0  0  0  0  0  0  0
   -6.1912   24.6076  -30.6178 H   0  0  0  0  0  0  0  0  0  0  0  0
   -2.4135   24.9990  -28.7630 H   0  0  0  0  0  0  0  0  0  0  0  0
    0.9432   23.8704  -26.7833 H   0  0  0  0  0  0  0  0  0  0  0  0
    1.0777   22.9590  -28.3254 H   0  0  0  0  0  0  0  0  0  0  0  0
    0.4264   24.6330  -28.3254 H   0  0  0  0  0  0  0  0  0  0  0  0
   -0.8686   23.1754  -25.4673 H   0  0  0  0  0  0  0  0  0  0  0  0
   -2.2885   22.3781  -26.2256 H   0  0  0  0  0  0  0  0  0  0  0  0
   -0.6910   21.5567  -26.2256 H   0  0  0  0  0  0  0  0  0  0  0  0
   -0.0728   19.9141  -30.6216 H   0  0  0  0  0  0  0  0  0  0  0  0
    0.9935   20.8337  -29.5442 H   0  0  0  0  0  0  0  0  0  0  0  0
    0.6371   17.9700  -29.6173 H   0  0  0  0  0  0  0  0  0  0  0  0
    1.5780   18.8817  -28.4100 H   0  0  0  0  0  0  0  0  0  0  0  0
   -1.0231   17.5409  -28.0745 H   0  0  0  0  0  0  0  0  0  0  0  0
   -0.0561   18.2917  -26.8195 H   0  0  0  0  0  0  0  0  0  0  0  0
   -2.7714   20.4741  -30.8394 H   0  0  0  0  0  0  0  0  0  0  0  0
   -3.9401   19.5718  -32.0870 H   0  0  0  0  0  0  0  0  0  0  0  0
   -5.1140   19.2207  -30.7684 H   0  0  0  0  0  0  0  0  0  0  0  0
   -5.4152   17.5523  -32.4837 H   0  0  0  0  0  0  0  0  0  0  0  0
   -4.5704   19.5210  -34.2760 H   0  0  0  0  0  0  0  0  0  0  0  0
   -5.1719   17.8824  -34.7002 H   0  0  0  0  0  0  0  0  0  0  0  0
   -6.2993   19.2809  -34.7002 H   0  0  0  0  0  0  0  0  0  0  0  0
   -9.7860   19.0785  -32.4244 H   0  0  0  0  0  0  0  0  0  0  0  0
  -10.9092   21.2474  -31.9134 H   0  0  0  0  0  0  0  0  0  0  0  0
   -9.5420   23.2768  -31.4195 H   0  0  0  0  0  0  0  0  0  0  0  0
   -7.0497   23.1434  -31.4319 H   0  0  0  0  0  0  0  0  0  0  0  0
  1  2  1  0
  2  3  1  0
  3  4  2  0
  4  5  1  0
  5  6  1  0
  6  7  1  0
  6  8  1  0
  5  9  2  0
  9 10  1  0
 10 11  1  0
 11 12  1  0
 12 13  1  0
 13 14  1  0
 14 15  2  0
  9 16  1  0
 16 17  2  0
 17 18  1  0
 18 19  2  0
 18 20  2  0
 18 21  1  0
 21 22  1  0
 22 23  1  0
 23 24  1  0
 23 25  1  0
 25 26  1  0
 26 27  2  0
 27 28  1  0
 28 29  2  0
 29 30  1  0
 30 31  2  0
 17  3  1  0
 31 21  1  0
 14 10  1  0
 31 26  1  0
  1 32  1  0
  1 33  1  0
  1 34  1  0
  4 35  1  0
  7 36  1  0
  7 37  1  0
  7 38  1  0
  8 39  1  0
  8 40  1  0
  8 41  1  0
 11 42  1  0
 11 43  1  0
 12 44  1  0
 12 45  1  0
 13 46  1  0
 13 47  1  0
 16 48  1  0
 22 49  1  0
 22 50  1  0
 23 51  1  1
 24 52  1  0
 24 53  1  0
 24 54  1  0
 27 55  1  0
 28 56  1  0
 29 57  1  0
 30 58  1  0
M  END
>  <UniqueID>  (40) 
38

>  <SMILES>  (40) 
COc1cc(N(C)C)c(N2CCCC2=O)cc1S(=O)(=O)N1C[C@H](C)Oc2ccccc21

>  <Energy>  (40) 
75.8231215023486

>  <Genealogy>  (40) 
COc1cc(N(C)C)c(N2CCCC2=O)cc1S(=O)(=O)N1C[C@H](C)Oc2ccccc21 (chirality)
COc1cc(N(C)C)c(N2CCCC2=O)cc1S(=O)(=O)N1C[C@H](C)Oc2ccccc21 (3D coordinates assigned)
COc1cc(N(C)C)c(N2CCCC2=O)cc1S(=O)(=O)N1C[C@H](C)Oc2ccccc21 (nonaromatic ring conformer: 75.8231215023486 kcal/mol)

>  <smiles>  (40) 
COc1cc(N(C)C)c(N2CCCC2=O)cc1S(=O)(=O)N1CC(C)Oc2ccccc21

>  <score_type>  (40) 
oracle

>  <origin>  (40) 
adgpu

>  <m_score__min__energy>  (40) 
-9.9100000000000001

>  <m_primary>  (40) 
energy

$$$$
40:0
     RDKit          3D

 53 55  0  0  0  0  0  0  0  0999 V2000
   -5.3000   20.1770  -31.6120 C   0  0  0  0  0  0  0  0  0  0  0  0
   -5.8540   21.5890  -31.6590 C   0  0  0  0  0  0  0  0  0  0  0  0
   -7.2490   21.8210  -31.8800 C   0  0  0  0  0  0  0  0  0  0  0  0
   -8.2580   20.7420  -32.2830 C   0  0  2  0  0  0  0  0  0  0  0  0
   -8.6190   19.9640  -31.1690 O   0  0  0  0  0  0  0  0  0  0  0  0
   -7.7220   19.8870  -33.3680 N   0  0  0  0  0  0  0  0  0  0  0  0
   -7.6550   18.4610  -32.9950 C   0  0  0  0  0  0  0  0  0  0  0  0
   -6.4030   17.7950  -33.5140 C   0  0  0  0  0  0  0  0  0  0  0  0
   -5.8410   16.7050  -32.8330 C   0  0  0  0  0  0  0  0  0  0  0  0
   -4.6930   16.0870  -33.3320 C   0  0  0  0  0  0  0  0  0  0  0  0
   -4.1160   16.5640  -34.5100 C   0  0  0  0  0  0  0  0  0  0  0  0
   -4.6720   17.6190  -35.1620 N   0  0  0  0  0  0  0  0  0  0  0  0
   -5.7920   18.2380  -34.6970 C   0  0  0  0  0  0  0  0  0  0  0  0
   -7.7310   23.1330  -31.7760 C   0  0  0  0  0  0  0  0  0  0  0  0
   -6.8750   24.1820  -31.4930 C   0  0  0  0  0  0  0  0  0  0  0  0
   -5.5140   23.9440  -31.3620 C   0  0  0  0  0  0  0  0  0  0  0  0
   -4.7530   24.9280  -31.1430 O   0  0  0  0  0  0  0  0  0  0  0  0
   -5.0050   22.6720  -31.4770 N   0  0  0  0  0  0  0  0  0  0  0  0
   -3.5270   22.5250  -31.4640 C   0  0  0  0  0  0  0  0  0  0  0  0
   -3.0760   21.7820  -30.2300 C   0  0  0  0  0  0  0  0  0  0  0  0
   -3.6180   22.0920  -28.9720 C   0  0  0  0  0  0  0  0  0  0  0  0
   -3.2000   21.4000  -27.8320 C   0  0  0  0  0  0  0  0  0  0  0  0
   -2.2400   20.3830  -27.9350 C   0  0  0  0  0  0  0  0  0  0  0  0
   -1.7320   19.5150  -26.4910 S   0  0  0  0  0  0  0  0  0  0  0  0
   -3.0890   18.5450  -25.8750 C   0  0  0  0  0  0  0  0  0  0  0  0
   -1.2930   20.4990  -25.4430 O   0  0  0  0  0  0  0  0  0  0  0  0
   -0.5800   18.6010  -26.8110 O   0  0  0  0  0  0  0  0  0  0  0  0
   -1.7020   20.0660  -29.1900 C   0  0  0  0  0  0  0  0  0  0  0  0
   -2.1180   20.7600  -30.3290 C   0  0  0  0  0  0  0  0  0  0  0  0
   -5.1779   19.8657  -30.5640 H   0  0  0  0  0  0  0  0  0  0  0  0
   -5.9964   19.4928  -32.1189 H   0  0  0  0  0  0  0  0  0  0  0  0
   -4.3242   20.1489  -32.1189 H   0  0  0  0  0  0  0  0  0  0  0  0
   -9.1592   21.2443  -32.6644 H   0  0  0  0  0  0  0  0  0  0  0  0
   -9.2640   20.4980  -30.6390 H   0  0  0  0  0  0  0  0  0  0  0  0
   -8.3500   19.9560  -34.2030 H   0  0  0  0  0  0  0  0  0  0  0  0
   -6.7710   20.2040  -33.6650 H   0  0  0  0  0  0  0  0  0  0  0  0
   -7.6707   18.3804  -31.8981 H   0  0  0  0  0  0  0  0  0  0  0  0
   -8.5201   17.9526  -33.4456 H   0  0  0  0  0  0  0  0  0  0  0  0
   -6.3048   16.3372  -31.9059 H   0  0  0  0  0  0  0  0  0  0  0  0
   -4.2474   15.2323  -32.8019 H   0  0  0  0  0  0  0  0  0  0  0  0
   -3.2103   16.0856  -34.9111 H   0  0  0  0  0  0  0  0  0  0  0  0
   -6.2190   19.0876  -35.2501 H   0  0  0  0  0  0  0  0  0  0  0  0
   -8.8033   23.3309  -31.9212 H   0  0  0  0  0  0  0  0  0  0  0  0
   -7.2714   25.2009  -31.3722 H   0  0  0  0  0  0  0  0  0  0  0  0
   -3.2118   21.9661  -32.3575 H   0  0  0  0  0  0  0  0  0  0  0  0
   -3.0718   23.5264  -31.4602 H   0  0  0  0  0  0  0  0  0  0  0  0
   -4.3760   22.8842  -28.8834 H   0  0  0  0  0  0  0  0  0  0  0  0
   -3.6257   21.6541  -26.8501 H   0  0  0  0  0  0  0  0  0  0  0  0
   -3.0765   18.5539  -24.7751 H   0  0  0  0  0  0  0  0  0  0  0  0
   -4.0373   18.9712  -26.2344 H   0  0  0  0  0  0  0  0  0  0  0  0
   -2.9927   17.5098  -26.2344 H   0  0  0  0  0  0  0  0  0  0  0  0
   -0.9498   19.2682  -29.2784 H   0  0  0  0  0  0  0  0  0  0  0  0
   -1.6921   20.5040  -31.3103 H   0  0  0  0  0  0  0  0  0  0  0  0
  1  2  1  0
  2  3  2  0
  3  4  1  0
  4  5  1  0
  4  6  1  0
  6  7  1  0
  7  8  1  0
  8  9  2  0
  9 10  1  0
 10 11  2  0
 11 12  1  0
 12 13  2  0
  3 14  1  0
 14 15  2  0
 15 16  1  0
 16 17  2  0
 16 18  1  0
 18 19  1  0
 19 20  1  0
 20 21  2  0
 21 22  1  0
 22 23  2  0
 23 24  1  0
 24 25  1  0
 24 26  2  0
 24 27  2  0
 23 28  1  0
 28 29  2  0
 18  2  1  0
 29 20  1  0
 13  8  1  0
  1 30  1  0
  1 31  1  0
  1 32  1  0
  4 33  1  6
  5 34  1  0
  6 35  1  0
  6 36  1  0
  7 37  1  0
  7 38  1  0
  9 39  1  0
 10 40  1  0
 11 41  1  0
 13 42  1  0
 14 43  1  0
 15 44  1  0
 19 45  1  0
 19 46  1  0
 21 47  1  0
 22 48  1  0
 25 49  1  0
 25 50  1  0
 25 51  1  0
 28 52  1  0
 29 53  1  0
M  CHG  1   6   1
M  END
>  <UniqueID>  (41) 
39

>  <SMILES>  (41) 
Cc1c([C@H](O)[NH2+]Cc2cccnc2)ccc(=O)n1Cc1ccc(S(C)(=O)=O)cc1

>  <Energy>  (41) 
67.99865289166821

>  <Genealogy>  (41) 
Cc1c(C(O)[NH2+]Cc2cccnc2)ccc(=O)n1Cc1ccc(S(C)(=O)=O)cc1 (protonated)
Cc1c([C@H](O)[NH2+]Cc2cccnc2)ccc(=O)n1Cc1ccc(S(C)(=O)=O)cc1 (chirality)
Cc1c([C@H](O)[NH2+]Cc2cccnc2)ccc(=O)n1Cc1ccc(S(C)(=O)=O)cc1 (3D coordinates assigned)
Cc1c([C@H](O)[NH2+]Cc2cccnc2)ccc(=O)n1Cc1ccc(S(C)(=O)=O)cc1 (optimized conformer: 67.99865289166821 kcal/mol)

>  <smiles>  (41) 
Cc1c(C(O)NCc2cccnc2)ccc(=O)n1Cc1ccc(S(C)(=O)=O)cc1

>  <score_type>  (41) 
oracle

>  <origin>  (41) 
adgpu

>  <m_score__min__energy>  (41) 
-8.2699999999999996

>  <m_primary>  (41) 
energy

$$$$
41:0
     RDKit          3D

 50 54  0  0  0  0  0  0  0  0999 V2000
   -6.8410   23.7990  -32.7580 O   0  0  0  0  0  0  0  0  0  0  0  0
   -5.7580   23.7150  -31.8850 C   0  0  0  0  0  0  0  0  0  0  0  0
   -5.6300   24.6470  -30.8440 C   0  0  0  0  0  0  0  0  0  0  0  0
   -4.5740   24.5510  -29.9350 C   0  0  0  0  0  0  0  0  0  0  0  0
   -3.6420   23.5180  -30.0550 C   0  0  0  0  0  0  0  0  0  0  0  0
   -3.7570   22.5890  -31.0910 C   0  0  0  0  0  0  0  0  0  0  0  0
   -4.7980   22.6880  -32.0270 C   0  0  0  0  0  0  0  0  0  0  0  0
   -4.8810   21.7110  -33.0790 N   0  0  0  0  0  0  0  0  0  0  0  0
   -5.4520   20.4050  -32.9170 C   0  0  0  0  0  0  0  0  0  0  0  0
   -4.8180   19.1970  -33.1600 C   0  0  0  0  0  0  0  0  0  0  0  0
   -3.4140   19.0080  -33.5550 C   0  0  0  0  0  0  0  0  0  0  0  0
   -2.7070   17.8220  -33.4820 C   0  0  0  0  0  0  0  0  0  0  0  0
   -1.4400   18.1080  -33.9450 C   0  0  0  0  0  0  0  0  0  0  0  0
   -1.4590   19.4550  -34.2680 C   0  0  0  0  0  0  0  0  0  0  0  0
   -0.3570   20.2160  -34.7960 N   0  0  0  0  0  0  0  0  0  0  0  0
   -0.3150   21.6750  -34.6100 C   0  0  0  0  0  0  0  0  0  0  0  0
    0.8550   22.3090  -35.3730 C   0  0  0  0  0  0  0  0  0  0  0  0
    2.1690   21.5820  -35.0650 C   0  0  0  0  0  0  0  0  0  0  0  0
    2.0710   20.0440  -35.1890 C   0  0  0  0  0  0  0  0  0  0  0  0
    0.6770   19.5490  -35.5980 C   0  0  0  0  0  0  0  0  0  0  0  0
   -2.6460   19.9620  -34.0250 O   0  0  0  0  0  0  0  0  0  0  0  0
   -5.6810   18.1750  -32.9420 N   0  0  0  0  0  0  0  0  0  0  0  0
   -6.8250   18.7980  -32.5830 C   0  0  0  0  0  0  0  0  0  0  0  0
   -8.0280   18.1690  -32.2750 C   0  0  0  0  0  0  0  0  0  0  0  0
   -9.1290   18.9800  -31.9590 C   0  0  0  0  0  0  0  0  0  0  0  0
   -9.0050   20.3820  -31.9700 C   0  0  0  0  0  0  0  0  0  0  0  0
   -7.7700   20.9640  -32.2900 C   0  0  0  0  0  0  0  0  0  0  0  0
   -6.7220   20.1410  -32.5650 N   0  0  0  0  0  0  0  0  0  0  0  0
   -6.7200   23.7650  -33.7630 H   0  0  0  0  0  0  0  0  0  0  0  0
   -6.3659   25.4583  -30.7432 H   0  0  0  0  0  0  0  0  0  0  0  0
   -4.4765   25.2887  -29.1249 H   0  0  0  0  0  0  0  0  0  0  0  0
   -2.8165   23.4361  -29.3327 H   0  0  0  0  0  0  0  0  0  0  0  0
   -3.0250   21.7721  -31.1743 H   0  0  0  0  0  0  0  0  0  0  0  0
   -4.5310   21.9740  -34.0270 H   0  0  0  0  0  0  0  0  0  0  0  0
   -3.0790   16.8495  -33.1272 H   0  0  0  0  0  0  0  0  0  0  0  0
   -0.5926   17.4129  -34.0382 H   0  0  0  0  0  0  0  0  0  0  0  0
   -1.2570   22.1087  -34.9768 H   0  0  0  0  0  0  0  0  0  0  0  0
   -0.1782   21.8810  -33.5382 H   0  0  0  0  0  0  0  0  0  0  0  0
    0.6551   22.2489  -36.4530 H   0  0  0  0  0  0  0  0  0  0  0  0
    0.9522   23.3582  -35.0573 H   0  0  0  0  0  0  0  0  0  0  0  0
    2.9366   21.9390  -35.7674 H   0  0  0  0  0  0  0  0  0  0  0  0
    2.4226   21.8050  -34.0181 H   0  0  0  0  0  0  0  0  0  0  0  0
    2.7951   19.7092  -35.9463 H   0  0  0  0  0  0  0  0  0  0  0  0
    2.2832   19.6256  -34.1941 H   0  0  0  0  0  0  0  0  0  0  0  0
    0.5107   19.7720  -36.6622 H   0  0  0  0  0  0  0  0  0  0  0  0
    0.6182   18.4641  -35.4263 H   0  0  0  0  0  0  0  0  0  0  0  0
   -8.1129   17.0723  -32.2791 H   0  0  0  0  0  0  0  0  0  0  0  0
  -10.0934   18.5178  -31.7015 H   0  0  0  0  0  0  0  0  0  0  0  0
   -9.8707   21.0166  -31.7293 H   0  0  0  0  0  0  0  0  0  0  0  0
   -7.6516   22.0573  -32.3180 H   0  0  0  0  0  0  0  0  0  0  0  0
  1  2  1  0
  2  3  2  0
  3  4  1  0
  4  5  2  0
  5  6  1  0
  6  7  2  0
  7  8  1  0
  8  9  1  0
  9 10  2  0
 10 11  1  0
 11 12  2  0
 12 13  1  0
 13 14  2  0
 14 15  1  0
 15 16  1  0
 16 17  1  0
 17 18  1  0
 18 19  1  0
 19 20  1  0
 14 21  1  0
 10 22  1  0
 22 23  2  0
 23 24  1  0
 24 25  2  0
 25 26  1  0
 26 27  2  0
 27 28  1  0
  7  2  1  0
 28  9  1  0
 21 11  1  0
 28 23  1  0
 20 15  1  0
  1 29  1  0
  3 30  1  0
  4 31  1  0
  5 32  1  0
  6 33  1  0
  8 34  1  0
 12 35  1  0
 13 36  1  0
 16 37  1  0
 16 38  1  0
 17 39  1  0
 17 40  1  0
 18 41  1  0
 18 42  1  0
 19 43  1  0
 19 44  1  0
 20 45  1  0
 20 46  1  0
 24 47  1  0
 25 48  1  0
 26 49  1  0
 27 50  1  0
M  END
>  <UniqueID>  (42) 
40

>  <SMILES>  (42) 
Oc1ccccc1Nc1c(-c2ccc(N3CCCCC3)o2)nc2ccccn12

>  <Energy>  (42) 
123.71299334569524

>  <Genealogy>  (42) 
Oc1ccccc1Nc1c(-c2ccc(N3CCCCC3)o2)nc2ccccn12 (3D coordinates assigned)
Oc1ccccc1Nc1c(-c2ccc(N3CCCCC3)o2)nc2ccccn12 (nonaromatic ring conformer: 123.71299334569524 kcal/mol)

>  <smiles>  (42) 
Oc1ccccc1Nc1c(-c2ccc(N3CCCCC3)o2)nc2ccccn12

>  <score_type>  (42) 
oracle

>  <origin>  (42) 
adgpu

>  <m_score__min__energy>  (42) 
-9.4700000000000006

>  <m_primary>  (42) 
energy

$$$$
42:0
     RDKit          3D

 39 41  0  0  0  0  0  0  0  0999 V2000
   -4.8220   15.9640  -34.5710 C   0  0  0  0  0  0  0  0  0  0  0  0
   -5.0710   17.3430  -34.1200 N   0  0  0  0  0  0  0  0  0  0  0  0
   -6.2940   17.6790  -33.5840 C   0  0  0  0  0  0  0  0  0  0  0  0
   -7.2260   16.8340  -33.4850 O   0  0  0  0  0  0  0  0  0  0  0  0
   -6.4830   18.9760  -33.1410 C   0  0  0  0  0  0  0  0  0  0  0  0
   -7.5760   19.5210  -32.5760 N   0  0  0  0  0  0  0  0  0  0  0  0
   -7.1690   20.7960  -32.3330 C   0  0  0  0  0  0  0  0  0  0  0  0
   -8.2200   22.0200  -31.5610 S   0  0  0  0  0  0  0  0  0  0  0  0
   -7.2230   23.4210  -32.1650 C   0  0  0  0  0  0  0  0  0  0  0  0
   -6.1040   23.6910  -31.2020 C   0  0  0  0  0  0  0  0  0  0  0  0
   -5.4780   24.9470  -31.1780 C   0  0  0  0  0  0  0  0  0  0  0  0
   -4.4120   25.1870  -30.3050 C   0  0  0  0  0  0  0  0  0  0  0  0
   -3.9520   24.1700  -29.4560 C   0  0  0  0  0  0  0  0  0  0  0  0
   -2.6110   24.4530  -28.3520 S   0  0  0  0  0  0  0  0  0  0  0  0
   -1.6330   25.7410  -28.9620 N   0  0  0  0  0  0  0  0  0  0  0  0
   -3.1250   24.8330  -26.9910 O   0  0  0  0  0  0  0  0  0  0  0  0
   -1.7880   23.2020  -28.2360 O   0  0  0  0  0  0  0  0  0  0  0  0
   -4.5680   22.9130  -29.4880 C   0  0  0  0  0  0  0  0  0  0  0  0
   -5.6350   22.6720  -30.3580 C   0  0  0  0  0  0  0  0  0  0  0  0
   -5.8940   21.0500  -32.7140 N   0  0  0  0  0  0  0  0  0  0  0  0
   -5.4850   19.8790  -33.2250 C   0  0  0  0  0  0  0  0  0  0  0  0
   -4.2600   19.5750  -33.7350 N   0  0  0  0  0  0  0  0  0  0  0  0
   -3.2000   20.5910  -33.7620 C   0  0  0  0  0  0  0  0  0  0  0  0
   -4.0500   18.2810  -34.1670 C   0  0  0  0  0  0  0  0  0  0  0  0
   -2.9130   17.9440  -34.6030 O   0  0  0  0  0  0  0  0  0  0  0  0
   -4.7035   15.3078  -33.6961 H   0  0  0  0  0  0  0  0  0  0  0  0
   -5.6721   15.6173  -35.1769 H   0  0  0  0  0  0  0  0  0  0  0  0
   -3.9044   15.9364  -35.1769 H   0  0  0  0  0  0  0  0  0  0  0  0
   -6.8055   23.1751  -33.1525 H   0  0  0  0  0  0  0  0  0  0  0  0
   -7.8590   24.3147  -32.2478 H   0  0  0  0  0  0  0  0  0  0  0  0
   -5.8273   25.7459  -31.8486 H   0  0  0  0  0  0  0  0  0  0  0  0
   -3.9327   26.1769  -30.2843 H   0  0  0  0  0  0  0  0  0  0  0  0
   -1.6000   25.6330  -30.0010 H   0  0  0  0  0  0  0  0  0  0  0  0
   -4.2104   22.1112  -28.8252 H   0  0  0  0  0  0  0  0  0  0  0  0
   -6.1092   21.6797  -30.3815 H   0  0  0  0  0  0  0  0  0  0  0  0
   -5.3650   21.9440  -32.6160 H   0  0  0  0  0  0  0  0  0  0  0  0
   -2.9216   20.8579  -32.7318 H   0  0  0  0  0  0  0  0  0  0  0  0
   -2.3207   20.1897  -34.2872 H   0  0  0  0  0  0  0  0  0  0  0  0
   -3.5637   21.4865  -34.2872 H   0  0  0  0  0  0  0  0  0  0  0  0
  1  2  1  0
  2  3  1  0
  3  4  2  0
  3  5  1  0
  5  6  1  0
  6  7  2  0
  7  8  1  0
  8  9  1  0
  9 10  1  0
 10 11  2  0
 11 12  1  0
 12 13  2  0
 13 14  1  0
 14 15  1  0
 14 16  2  0
 14 17  2  0
 13 18  1  0
 18 19  2  0
  7 20  1  0
 20 21  1  0
 21 22  1  0
 22 23  1  0
 22 24  1  0
 24 25  2  0
 24  2  1  0
 21  5  2  0
 19 10  1  0
  1 26  1  0
  1 27  1  0
  1 28  1  0
  9 29  1  0
  9 30  1  0
 11 31  1  0
 12 32  1  0
 15 33  1  0
 18 34  1  0
 19 35  1  0
 20 36  1  0
 23 37  1  0
 23 38  1  0
 23 39  1  0
M  CHG  1  15  -1
M  END
>  <UniqueID>  (43) 
41

>  <SMILES>  (43) 
Cn1c(=O)c2nc(SCc3ccc(S([NH-])(=O)=O)cc3)[nH]c2n(C)c1=O

>  <Energy>  (43) 
81.00575781894555

>  <Genealogy>  (43) 
Cn1c(=O)c2nc(SCc3ccc(S([NH-])(=O)=O)cc3)[nH]c2n(C)c1=O (protonated)
Cn1c(=O)c2nc(SCc3ccc(S([NH-])(=O)=O)cc3)[nH]c2n(C)c1=O (3D coordinates assigned)
Cn1c(=O)c2nc(SCc3ccc(S([NH-])(=O)=O)cc3)[nH]c2n(C)c1=O (optimized conformer: 81.00575781894555 kcal/mol)

>  <smiles>  (43) 
Cn1c(=O)c2nc(SCc3ccc(S(N)(=O)=O)cc3)[nH]c2n(C)c1=O

>  <score_type>  (43) 
oracle

>  <origin>  (43) 
adgpu

>  <m_score__min__energy>  (43) 
-10.74

>  <m_primary>  (43) 
energy

$$$$
43:0
     RDKit          3D

 69 73  0  0  1  0  0  0  0  0999 V2000
   -2.6090   19.9640  -27.4830 C   0  0  0  0  0  0  0  0  0  0  0  0
   -2.1620   21.0820  -28.2220 O   0  0  0  0  0  0  0  0  0  0  0  0
   -2.1440   22.3820  -27.7840 C   0  0  0  0  0  0  0  0  0  0  0  0
   -1.1300   22.8630  -26.9530 C   0  0  0  0  0  0  0  0  0  0  0  0
   -1.0980   24.1620  -26.5050 C   0  0  0  0  0  0  0  0  0  0  0  0
   -0.0750   24.6570  -25.6590 N   0  0  0  0  0  0  0  0  0  0  0  0
    1.3190   24.2670  -25.8920 C   0  0  0  0  0  0  0  0  0  0  0  0
    2.0750   24.6060  -24.6280 C   0  0  0  0  0  0  0  0  0  0  0  0
    2.1010   26.0420  -24.4750 N   0  0  0  0  0  0  0  0  0  0  0  0
    2.8780   26.4810  -23.3540 C   0  0  0  0  0  0  0  0  0  0  0  0
    0.7810   26.6160  -24.4990 C   0  0  0  0  0  0  0  0  0  0  0  0
   -0.3030   25.5440  -24.5490 C   0  0  0  0  0  0  0  0  0  0  0  0
   -2.1200   25.0000  -26.9110 C   0  0  0  0  0  0  0  0  0  0  0  0
   -3.1460   24.5420  -27.7410 C   0  0  0  0  0  0  0  0  0  0  0  0
   -3.1550   23.2240  -28.1800 C   0  0  0  0  0  0  0  0  0  0  0  0
   -4.2290   22.8330  -29.0220 N   0  0  0  0  0  0  0  0  0  0  0  0
   -3.9880   22.3340  -30.2030 C   0  0  0  0  0  0  0  0  0  0  0  0
   -2.7140   22.2000  -30.6060 N   0  0  0  0  0  0  0  0  0  0  0  0
   -2.4190   21.6850  -31.8100 C   0  0  0  0  0  0  0  0  0  0  0  0
   -3.4300   21.2800  -32.6570 C   0  0  0  0  0  0  0  0  0  0  0  0
   -3.1790   20.7550  -33.8620 F   0  0  0  0  0  0  0  0  0  0  0  0
   -4.7220   21.4280  -32.2190 C   0  0  0  0  0  0  0  0  0  0  0  0
   -5.6690   21.0490  -33.0140 N   0  0  0  0  0  0  0  0  0  0  0  0
   -6.9980   21.2190  -32.5190 C   0  0  0  0  0  0  0  0  0  0  0  0
   -7.4770   22.5050  -32.3130 C   0  0  0  0  0  0  0  0  0  0  0  0
   -8.7600   22.6730  -31.8330 C   0  0  0  0  0  0  0  0  0  0  0  0
   -9.5910   21.5940  -31.5520 C   0  0  0  0  0  0  0  0  0  0  0  0
   -9.1100   20.3380  -31.7600 C   0  0  0  0  0  0  0  0  0  0  0  0
   -7.8330   20.1470  -32.2370 C   0  0  0  0  0  0  0  0  0  0  0  0
   -7.3390   18.7900  -32.4490 C   0  0  0  0  0  0  0  0  0  0  0  0
   -7.7180   17.8220  -31.7240 O   0  0  0  0  0  0  0  0  0  0  0  0
   -6.4120   18.4850  -33.4770 N   0  0  0  0  0  0  0  0  0  0  0  0
   -6.0030   17.1150  -33.5860 C   0  0  0  0  0  0  0  0  0  0  0  0
   -6.8070   16.1350  -34.1340 C   0  0  0  0  0  0  0  0  0  0  0  0
   -6.3430   14.8170  -34.2030 C   0  0  0  0  0  0  0  0  0  0  0  0
   -5.0710   14.5260  -33.7150 C   0  0  0  0  0  0  0  0  0  0  0  0
   -4.2580   15.4900  -33.1700 C   0  0  0  0  0  0  0  0  0  0  0  0
   -4.7430   16.7900  -33.1110 C   0  0  0  0  0  0  0  0  0  0  0  0
   -5.0020   21.9530  -30.9940 N   0  0  0  0  0  0  0  0  0  0  0  0
   -2.5236   20.1776  -26.4073 H   0  0  0  0  0  0  0  0  0  0  0  0
   -3.6597   19.7554  -27.7331 H   0  0  0  0  0  0  0  0  0  0  0  0
   -1.9918   19.0885  -27.7331 H   0  0  0  0  0  0  0  0  0  0  0  0
   -0.3271   22.1768  -26.6456 H   0  0  0  0  0  0  0  0  0  0  0  0
    1.3830   23.1879  -26.0955 H   0  0  0  0  0  0  0  0  0  0  0  0
    1.7400   24.7935  -26.7613 H   0  0  0  0  0  0  0  0  0  0  0  0
    1.5718   24.1506  -23.7623 H   0  0  0  0  0  0  0  0  0  0  0  0
    3.1021   24.2170  -24.6898 H   0  0  0  0  0  0  0  0  0  0  0  0
    2.3704   26.1942  -22.4212 H   0  0  0  0  0  0  0  0  0  0  0  0
    3.8718   26.0109  -23.3901 H   0  0  0  0  0  0  0  0  0  0  0  0
    2.9882   27.5749  -23.3901 H   0  0  0  0  0  0  0  0  0  0  0  0
    0.6401   27.2226  -23.5922 H   0  0  0  0  0  0  0  0  0  0  0  0
    0.6933   27.2329  -25.4055 H   0  0  0  0  0  0  0  0  0  0  0  0
   -0.2860   24.9663  -23.6130 H   0  0  0  0  0  0  0  0  0  0  0  0
   -1.2821   26.0297  -24.6733 H   0  0  0  0  0  0  0  0  0  0  0  0
   -2.1253   26.0471  -26.5741 H   0  0  0  0  0  0  0  0  0  0  0  0
   -3.9497   25.2274  -28.0481 H   0  0  0  0  0  0  0  0  0  0  0  0
   -1.9720   22.5240  -29.9260 H   0  0  0  0  0  0  0  0  0  0  0  0
   -1.3689   21.5856  -32.1220 H   0  0  0  0  0  0  0  0  0  0  0  0
   -6.8433   23.3778  -32.5291 H   0  0  0  0  0  0  0  0  0  0  0  0
   -9.1373   23.6929  -31.6674 H   0  0  0  0  0  0  0  0  0  0  0  0
  -10.6109   21.7516  -31.1714 H   0  0  0  0  0  0  0  0  0  0  0  0
   -9.7474   19.4677  -31.5450 H   0  0  0  0  0  0  0  0  0  0  0  0
   -6.0510   19.2320  -34.1240 H   0  0  0  0  0  0  0  0  0  0  0  0
   -7.8073   16.3895  -34.5144 H   0  0  0  0  0  0  0  0  0  0  0  0
   -6.9715   14.0243  -34.6350 H   0  0  0  0  0  0  0  0  0  0  0  0
   -4.7054   13.4899  -33.7678 H   0  0  0  0  0  0  0  0  0  0  0  0
   -3.2554   15.2403  -32.7926 H   0  0  0  0  0  0  0  0  0  0  0  0
   -4.1121   17.5797  -32.6771 H   0  0  0  0  0  0  0  0  0  0  0  0
   -5.9650   22.0740  -30.6440 H   0  0  0  0  0  0  0  0  0  0  0  0
  1  2  1  0
  2  3  1  0
  3  4  2  0
  4  5  1  0
  5  6  1  0
  6  7  1  0
  7  8  1  0
  8  9  1  0
  9 10  1  0
  9 11  1  0
 11 12  1  0
  5 13  2  0
 13 14  1  0
 14 15  2  0
 15 16  1  0
 16 17  2  0
 17 18  1  0
 18 19  1  0
 19 20  2  0
 20 21  1  0
 20 22  1  0
 22 23  2  0
 23 24  1  0
 24 25  2  0
 25 26  1  0
 26 27  2  0
 27 28  1  0
 28 29  2  0
 29 30  1  0
 30 31  2  0
 30 32  1  0
 32 33  1  0
 33 34  2  0
 34 35  1  0
 35 36  2  0
 36 37  1  0
 37 38  2  0
 22 39  1  0
 15  3  1  0
 39 17  1  0
 12  6  1  0
 29 24  1  0
 38 33  1  0
  1 40  1  0
  1 41  1  0
  1 42  1  0
  4 43  1  0
  7 44  1  0
  7 45  1  0
  8 46  1  0
  8 47  1  0
 10 48  1  0
 10 49  1  0
 10 50  1  0
 11 51  1  0
 11 52  1  0
 12 53  1  0
 12 54  1  0
 13 55  1  0
 14 56  1  0
 18 57  1  0
 19 58  1  0
 25 59  1  0
 26 60  1  0
 27 61  1  0
 28 62  1  0
 32 63  1  0
 34 64  1  0
 35 65  1  0
 36 66  1  0
 37 67  1  0
 38 68  1  0
 39 69  1  0
M  END
>  <smiles>  (44) 
COc1cc(N2CCN(C)CC2)ccc1N=c1[nH]cc(F)c(=Nc2ccccc2C(=O)Nc2ccccc2)[nH]1

>  <score_type>  (44) 
oracle

>  <origin>  (44) 
adgpu

>  <m_score__min__energy>  (44) 
-10.01

>  <m_primary>  (44) 
energy

$$$$
44:0
     RDKit          3D

 28 29  0  0  0  0  0  0  0  0999 V2000
   -8.4220   22.3090  -31.6410 C   0  0  0  0  0  0  0  0  0  0  0  0
   -7.1380   23.0250  -31.3230 C   0  0  0  0  0  0  0  0  0  0  0  0
   -7.1670   24.2320  -30.6070 C   0  0  0  0  0  0  0  0  0  0  0  0
   -5.9820   24.9080  -30.3080 C   0  0  0  0  0  0  0  0  0  0  0  0
   -4.7440   24.3800  -30.7110 C   0  0  0  0  0  0  0  0  0  0  0  0
   -3.5080   25.0580  -30.4440 N   0  0  0  0  0  0  0  0  0  0  0  0
   -2.5700   24.7330  -29.4120 C   0  0  0  0  0  0  0  0  0  0  0  0
   -2.6080   23.5860  -28.8940 O   0  0  0  0  0  0  0  0  0  0  0  0
   -1.6070   25.7000  -28.9730 N   0  0  0  0  0  0  0  0  0  0  0  0
   -1.2980   26.0520  -27.6160 C   0  0  0  0  0  0  0  0  0  0  0  0
   -1.9370   25.4530  -26.5170 C   0  0  0  0  0  0  0  0  0  0  0  0
   -1.6120   25.8540  -25.2200 C   0  0  0  0  0  0  0  0  0  0  0  0
   -0.6620   26.8590  -25.0300 C   0  0  0  0  0  0  0  0  0  0  0  0
   -0.0700   27.4450  -26.1040 N   0  0  0  0  0  0  0  0  0  0  0  0
   -0.3700   27.0720  -27.3770 C   0  0  0  0  0  0  0  0  0  0  0  0
   -4.7150   23.1940  -31.4520 C   0  0  0  0  0  0  0  0  0  0  0  0
   -5.8980   22.5100  -31.7540 C   0  0  0  0  0  0  0  0  0  0  0  0
   -5.7950   21.0130  -32.6760 Cl  0  0  0  0  0  0  0  0  0  0  0  0
   -8.9265   22.0277  -30.7049 H   0  0  0  0  0  0  0  0  0  0  0  0
   -9.0767   22.9723  -32.2253 H   0  0  0  0  0  0  0  0  0  0  0  0
   -8.2018   21.4034  -32.2253 H   0  0  0  0  0  0  0  0  0  0  0  0
   -8.1307   24.6487  -30.2788 H   0  0  0  0  0  0  0  0  0  0  0  0
   -6.0181   25.8580  -29.7546 H   0  0  0  0  0  0  0  0  0  0  0  0
   -2.6920   24.6695  -26.6785 H   0  0  0  0  0  0  0  0  0  0  0  0
   -2.1005   25.3819  -24.3548 H   0  0  0  0  0  0  0  0  0  0  0  0
   -0.3927   27.1765  -24.0118 H   0  0  0  0  0  0  0  0  0  0  0  0
    0.1197   27.5750  -28.2239 H   0  0  0  0  0  0  0  0  0  0  0  0
   -3.7515   22.7944  -31.8013 H   0  0  0  0  0  0  0  0  0  0  0  0
  1  2  1  0
  2  3  2  0
  3  4  1  0
  4  5  2  0
  5  6  1  0
  6  7  1  0
  7  8  2  0
  7  9  1  0
  9 10  1  0
 10 11  2  0
 11 12  1  0
 12 13  2  0
 13 14  1  0
 14 15  2  0
  5 16  1  0
 16 17  2  0
 17 18  1  0
 17  2  1  0
 15 10  1  0
  1 19  1  0
  1 20  1  0
  1 21  1  0
  3 22  1  0
  4 23  1  0
 11 24  1  0
 12 25  1  0
 13 26  1  0
 15 27  1  0
 16 28  1  0
M  CHG  2   6  -1   9  -1
M  END
>  <UniqueID>  (45) 
42

>  <SMILES>  (45) 
Cc1ccc([N-]C(=O)[N-]c2cccnc2)cc1Cl

>  <Energy>  (45) 
36.70400904523698

>  <Genealogy>  (45) 
Cc1ccc([N-]C(=O)[N-]c2cccnc2)cc1Cl (protonated)
Cc1ccc([N-]C(=O)[N-]c2cccnc2)cc1Cl (3D coordinates assigned)
Cc1ccc([N-]C(=O)[N-]c2cccnc2)cc1Cl (optimized conformer: 36.70400904523698 kcal/mol)

>  <smiles>  (45) 
Cc1ccc(NC(=O)Nc2cccnc2)cc1Cl

>  <score_type>  (45) 
oracle

>  <origin>  (45) 
adgpu

>  <m_score__min__energy>  (45) 
-9.9700000000000006

>  <m_primary>  (45) 
energy

$$$$
45:0
     RDKit          3D

 44 46  0  0  0  0  0  0  0  0999 V2000
    1.2720   21.2500  -34.8540 C   0  0  0  0  0  0  0  0  0  0  0  0
    0.1480   21.5730  -34.0420 O   0  0  0  0  0  0  0  0  0  0  0  0
   -0.8820   20.6750  -33.7180 C   0  0  0  0  0  0  0  0  0  0  0  0
   -1.1870   19.5650  -34.5300 C   0  0  0  0  0  0  0  0  0  0  0  0
   -2.2150   18.6890  -34.1720 C   0  0  0  0  0  0  0  0  0  0  0  0
   -2.9510   18.9140  -33.0090 C   0  0  0  0  0  0  0  0  0  0  0  0
   -2.6610   20.0120  -32.1970 C   0  0  0  0  0  0  0  0  0  0  0  0
   -1.6220   20.8980  -32.5430 C   0  0  0  0  0  0  0  0  0  0  0  0
   -1.2910   22.0290  -31.7250 N   0  0  0  0  0  0  0  0  0  0  0  0
   -2.0880   22.4640  -30.2470 S   0  0  0  0  0  0  0  0  0  0  0  0
   -1.1460   23.2760  -29.4020 O   0  0  0  0  0  0  0  0  0  0  0  0
   -2.4580   21.2150  -29.4990 O   0  0  0  0  0  0  0  0  0  0  0  0
   -3.5580   23.3710  -30.6050 C   0  0  0  0  0  0  0  0  0  0  0  0
   -4.5830   22.7810  -31.3620 C   0  0  0  0  0  0  0  0  0  0  0  0
   -5.7720   23.4770  -31.6190 C   0  0  0  0  0  0  0  0  0  0  0  0
   -6.7830   22.8380  -32.4100 N   0  0  0  0  0  0  0  0  0  0  0  0
   -7.7700   21.9060  -31.9480 C   0  0  0  0  0  0  0  0  0  0  0  0
   -8.7860   22.3120  -31.3240 O   0  0  0  0  0  0  0  0  0  0  0  0
   -7.5870   20.4630  -32.2140 C   0  0  0  0  0  0  0  0  0  0  0  0
   -8.5570   19.5640  -31.7330 C   0  0  0  0  0  0  0  0  0  0  0  0
   -8.3990   18.1880  -31.8990 C   0  0  0  0  0  0  0  0  0  0  0  0
   -7.2710   17.6870  -32.5490 C   0  0  0  0  0  0  0  0  0  0  0  0
   -6.3070   18.5640  -33.0490 C   0  0  0  0  0  0  0  0  0  0  0  0
   -6.4600   19.9490  -32.9070 C   0  0  0  0  0  0  0  0  0  0  0  0
   -5.4960   20.7730  -33.4940 O   0  0  0  0  0  0  0  0  0  0  0  0
   -5.9130   24.7940  -31.1490 C   0  0  0  0  0  0  0  0  0  0  0  0
   -4.8930   25.3880  -30.4030 C   0  0  0  0  0  0  0  0  0  0  0  0
   -3.7190   24.6820  -30.1280 C   0  0  0  0  0  0  0  0  0  0  0  0
   -2.7150   25.2930  -29.3840 O   0  0  0  0  0  0  0  0  0  0  0  0
    2.1299   21.0035  -34.2112 H   0  0  0  0  0  0  0  0  0  0  0  0
    1.0292   20.3853  -35.4891 H   0  0  0  0  0  0  0  0  0  0  0  0
    1.5253   22.1117  -35.4891 H   0  0  0  0  0  0  0  0  0  0  0  0
   -0.6126   19.3869  -35.4511 H   0  0  0  0  0  0  0  0  0  0  0  0
   -2.4440   17.8212  -34.8080 H   0  0  0  0  0  0  0  0  0  0  0  0
   -3.7619   18.2247  -32.7308 H   0  0  0  0  0  0  0  0  0  0  0  0
   -3.2468   20.1861  -31.2824 H   0  0  0  0  0  0  0  0  0  0  0  0
   -4.4515   21.7628  -31.7571 H   0  0  0  0  0  0  0  0  0  0  0  0
   -9.4500   19.9508  -31.2203 H   0  0  0  0  0  0  0  0  0  0  0  0
   -9.1649   17.4971  -31.5168 H   0  0  0  0  0  0  0  0  0  0  0  0
   -7.1412   16.6011  -32.6675 H   0  0  0  0  0  0  0  0  0  0  0  0
   -5.4187   18.1636  -33.5594 H   0  0  0  0  0  0  0  0  0  0  0  0
   -5.5280   21.7820  -33.4550 H   0  0  0  0  0  0  0  0  0  0  0  0
   -6.8306   25.3591  -31.3697 H   0  0  0  0  0  0  0  0  0  0  0  0
   -5.0142   26.4158  -30.0303 H   0  0  0  0  0  0  0  0  0  0  0  0
  1  2  1  0
  2  3  1  0
  3  4  2  0
  4  5  1  0
  5  6  2  0
  6  7  1  0
  7  8  2  0
  8  9  1  0
  9 10  1  0
 10 11  2  0
 10 12  2  0
 10 13  1  0
 13 14  2  0
 14 15  1  0
 15 16  1  0
 16 17  1  0
 17 18  2  0
 17 19  1  0
 19 20  2  0
 20 21  1  0
 21 22  2  0
 22 23  1  0
 23 24  2  0
 24 25  1  0
 15 26  2  0
 26 27  1  0
 27 28  2  0
 28 29  1  0
  8  3  1  0
 28 13  1  0
 24 19  1  0
  1 30  1  0
  1 31  1  0
  1 32  1  0
  4 33  1  0
  5 34  1  0
  6 35  1  0
  7 36  1  0
 14 37  1  0
 20 38  1  0
 21 39  1  0
 22 40  1  0
 23 41  1  0
 25 42  1  0
 26 43  1  0
 27 44  1  0
M  CHG  3   9  -1  16  -1  29  -1
M  END
>  <UniqueID>  (46) 
43

>  <SMILES>  (46) 
COc1ccccc1[N-]S(=O)(=O)c1cc([N-]C(=O)c2ccccc2O)ccc1[O-]

>  <Energy>  (46) 
59.51144851357824

>  <Genealogy>  (46) 
COc1ccccc1[N-]S(=O)(=O)c1cc([N-]C(=O)c2ccccc2O)ccc1[O-] (protonated)
COc1ccccc1[N-]S(=O)(=O)c1cc([N-]C(=O)c2ccccc2O)ccc1[O-] (3D coordinates assigned)
COc1ccccc1[N-]S(=O)(=O)c1cc([N-]C(=O)c2ccccc2O)ccc1[O-] (optimized conformer: 59.51144851357824 kcal/mol)

>  <smiles>  (46) 
COc1ccccc1NS(=O)(=O)c1cc(NC(=O)c2ccccc2O)ccc1O

>  <score_type>  (46) 
oracle

>  <origin>  (46) 
adgpu

>  <m_score__min__energy>  (46) 
-12.84

>  <m_primary>  (46) 
energy

$$$$
46:0
     RDKit          3D

 41 44  0  0  0  0  0  0  0  0999 V2000
   -5.8740   12.2230  -35.2520 C   0  0  0  0  0  0  0  0  0  0  0  0
   -4.8220   13.1600  -35.0420 O   0  0  0  0  0  0  0  0  0  0  0  0
   -5.0130   14.4700  -34.5820 C   0  0  0  0  0  0  0  0  0  0  0  0
   -6.2740   14.9670  -34.2050 C   0  0  0  0  0  0  0  0  0  0  0  0
   -6.3990   16.2830  -33.7540 C   0  0  0  0  0  0  0  0  0  0  0  0
   -5.2620   17.0950  -33.6820 C   0  0  0  0  0  0  0  0  0  0  0  0
   -5.3650   18.4410  -33.2240 N   0  0  0  0  0  0  0  0  0  0  0  0
   -5.2850   19.1560  -31.9370 C   0  0  0  0  0  0  0  0  0  0  0  0
   -5.5230   20.5260  -32.4990 C   0  0  0  0  0  0  0  0  0  0  0  0
   -6.8200   21.1570  -32.0230 C   0  0  0  0  0  0  0  0  0  0  0  0
   -8.0120   20.5910  -32.3700 N   0  0  0  0  0  0  0  0  0  0  0  0
   -9.2000   21.1290  -31.9980 C   0  0  0  0  0  0  0  0  0  0  0  0
   -9.2120   22.2980  -31.2410 C   0  0  0  0  0  0  0  0  0  0  0  0
   -8.0360   22.8610  -30.8660 N   0  0  0  0  0  0  0  0  0  0  0  0
   -6.8370   22.3200  -31.2150 C   0  0  0  0  0  0  0  0  0  0  0  0
   -5.6070   22.9770  -30.7240 C   0  0  0  0  0  0  0  0  0  0  0  0
   -5.2040   24.2100  -31.2500 C   0  0  0  0  0  0  0  0  0  0  0  0
   -4.0890   24.8210  -30.7710 N   0  0  0  0  0  0  0  0  0  0  0  0
   -3.3570   24.2620  -29.7710 C   0  0  0  0  0  0  0  0  0  0  0  0
   -2.2970   24.8540  -29.3270 N   0  0  0  0  0  0  0  0  0  0  0  0
   -3.7440   23.0770  -29.2300 N   0  0  0  0  0  0  0  0  0  0  0  0
   -4.8510   22.4310  -29.6790 C   0  0  0  0  0  0  0  0  0  0  0  0
   -5.5940   19.7790  -33.8010 C   0  0  0  0  0  0  0  0  0  0  0  0
   -4.0520   16.5980  -34.0500 N   0  0  0  0  0  0  0  0  0  0  0  0
   -3.9050   15.3200  -34.4920 C   0  0  0  0  0  0  0  0  0  0  0  0
   -6.2590   11.8801  -34.2803 H   0  0  0  0  0  0  0  0  0  0  0  0
   -6.6851   12.7033  -35.8189 H   0  0  0  0  0  0  0  0  0  0  0  0
   -5.4904   11.3620  -35.8189 H   0  0  0  0  0  0  0  0  0  0  0  0
   -7.1611   14.3194  -34.2654 H   0  0  0  0  0  0  0  0  0  0  0  0
   -7.3823   16.6773  -33.4582 H   0  0  0  0  0  0  0  0  0  0  0  0
   -6.0682   18.8456  -31.2297 H   0  0  0  0  0  0  0  0  0  0  0  0
   -4.3722   19.0116  -31.3403 H   0  0  0  0  0  0  0  0  0  0  0  0
   -4.8719   21.3987  -32.3426 H   0  0  0  0  0  0  0  0  0  0  0  0
  -10.1444   20.6471  -32.2911 H   0  0  0  0  0  0  0  0  0  0  0  0
  -10.1665   22.7607  -30.9498 H   0  0  0  0  0  0  0  0  0  0  0  0
   -5.7900   24.6842  -32.0511 H   0  0  0  0  0  0  0  0  0  0  0  0
   -1.9760   25.7660  -29.7230 H   0  0  0  0  0  0  0  0  0  0  0  0
   -5.1543   21.4778  -29.2214 H   0  0  0  0  0  0  0  0  0  0  0  0
   -6.5755   19.8688  -34.2894 H   0  0  0  0  0  0  0  0  0  0  0  0
   -4.9141   20.1027  -34.6029 H   0  0  0  0  0  0  0  0  0  0  0  0
   -2.9092   14.9524  -34.7804 H   0  0  0  0  0  0  0  0  0  0  0  0
  1  2  1  0
  2  3  1  0
  3  4  2  0
  4  5  1  0
  5  6  2  0
  6  7  1  0
  7  8  1  0
  8  9  1  0
  9 10  1  0
 10 11  2  0
 11 12  1  0
 12 13  2  0
 13 14  1  0
 14 15  2  0
 15 16  1  0
 16 17  1  0
 17 18  2  0
 18 19  1  0
 19 20  2  3
 19 21  1  0
 21 22  1  0
  9 23  1  0
  6 24  1  0
 24 25  2  0
 25  3  1  0
 23  7  1  0
 15 10  1  0
 22 16  2  0
  1 26  1  0
  1 27  1  0
  1 28  1  0
  4 29  1  0
  5 30  1  0
  8 31  1  0
  8 32  1  0
  9 33  1  0
 12 34  1  0
 13 35  1  0
 17 36  1  0
 20 37  1  0
 22 38  1  0
 23 39  1  0
 23 40  1  0
 25 41  1  0
M  CHG  1  21  -1
M  END
>  <UniqueID>  (47) 
44

>  <SMILES>  (47) 
COc1ccc(N2CC(c3nccnc3-c3cnc(=N)[n-]c3)C2)nc1

>  <Energy>  (47) 
100.1200554228629

>  <Genealogy>  (47) 
COc1ccc(N2CC(c3nccnc3-c3cnc(=N)[n-]c3)C2)nc1 (protonated)
COc1ccc(N2CC(c3nccnc3-c3cnc(=N)[n-]c3)C2)nc1 (3D coordinates assigned)
COc1ccc(N2CC(c3nccnc3-c3cnc(=N)[n-]c3)C2)nc1 (nonaromatic ring conformer: 100.1200554228629 kcal/mol)

>  <smiles>  (47) 
COc1ccc(N2CC(c3nccnc3-c3cnc(=N)[nH]c3)C2)nc1

>  <score_type>  (47) 
oracle

>  <origin>  (47) 
adgpu

>  <m_score__min__energy>  (47) 
-8.75

>  <m_primary>  (47) 
energy

$$$$
47:0
     RDKit          3D

 41 44  0  0  0  0  0  0  0  0999 V2000
   -1.7200   14.6030  -35.8220 O   0  0  0  0  0  0  0  0  0  0  0  0
   -2.7100   14.7860  -35.0650 C   0  0  0  0  0  0  0  0  0  0  0  0
   -3.8100   15.5700  -35.5470 N   0  0  0  0  0  0  0  0  0  0  0  0
   -4.4620   16.6410  -34.8490 C   0  0  0  0  0  0  0  0  0  0  0  0
   -3.6960   17.7300  -34.4170 C   0  0  0  0  0  0  0  0  0  0  0  0
   -4.2950   18.7890  -33.7280 C   0  0  0  0  0  0  0  0  0  0  0  0
   -5.6700   18.7630  -33.4450 C   0  0  0  0  0  0  0  0  0  0  0  0
   -6.2980   19.8840  -32.7170 C   0  0  0  0  0  0  0  0  0  0  0  0
   -7.6020   19.9420  -32.3800 N   0  0  0  0  0  0  0  0  0  0  0  0
   -7.7730   21.0910  -31.7470 N   0  0  0  0  0  0  0  0  0  0  0  0
   -6.5680   21.6940  -31.7220 C   0  0  0  0  0  0  0  0  0  0  0  0
   -6.3040   23.0100  -31.1070 C   0  0  0  0  0  0  0  0  0  0  0  0
   -7.3490   23.7560  -30.5350 C   0  0  0  0  0  0  0  0  0  0  0  0
   -7.0900   25.0020  -29.9550 C   0  0  0  0  0  0  0  0  0  0  0  0
   -5.7880   25.5120  -29.9400 C   0  0  0  0  0  0  0  0  0  0  0  0
   -4.7430   24.7760  -30.5060 C   0  0  0  0  0  0  0  0  0  0  0  0
   -3.4490   25.2840  -30.4910 O   0  0  0  0  0  0  0  0  0  0  0  0
   -4.9980   23.5290  -31.0870 C   0  0  0  0  0  0  0  0  0  0  0  0
   -5.6590   20.9570  -32.3160 O   0  0  0  0  0  0  0  0  0  0  0  0
   -6.4330   17.6570  -33.8530 C   0  0  0  0  0  0  0  0  0  0  0  0
   -5.8320   16.6000  -34.5420 C   0  0  0  0  0  0  0  0  0  0  0  0
   -2.7060   14.1770  -33.7160 C   0  0  0  0  0  0  0  0  0  0  0  0
   -3.9360   13.9640  -33.0690 C   0  0  0  0  0  0  0  0  0  0  0  0
   -3.9830   13.3310  -31.8260 C   0  0  0  0  0  0  0  0  0  0  0  0
   -2.8040   12.9080  -31.2110 C   0  0  0  0  0  0  0  0  0  0  0  0
   -1.5730   13.1360  -31.8290 C   0  0  0  0  0  0  0  0  0  0  0  0
   -1.5090   13.7850  -33.0690 C   0  0  0  0  0  0  0  0  0  0  0  0
   -0.2490   14.0490  -33.6080 O   0  0  0  0  0  0  0  0  0  0  0  0
   -2.6153   17.7528  -34.6210 H   0  0  0  0  0  0  0  0  0  0  0  0
   -3.6861   19.6467  -33.4061 H   0  0  0  0  0  0  0  0  0  0  0  0
   -8.3745   23.3582  -30.5436 H   0  0  0  0  0  0  0  0  0  0  0  0
   -7.9119   25.5819  -29.5098 H   0  0  0  0  0  0  0  0  0  0  0  0
   -5.5862   26.4920  -29.4830 H   0  0  0  0  0  0  0  0  0  0  0  0
   -4.1727   22.9523  -31.5301 H   0  0  0  0  0  0  0  0  0  0  0  0
   -7.5094   17.6224  -33.6291 H   0  0  0  0  0  0  0  0  0  0  0  0
   -6.4350   15.7315  -34.8454 H   0  0  0  0  0  0  0  0  0  0  0  0
   -4.8687   14.2989  -33.5463 H   0  0  0  0  0  0  0  0  0  0  0  0
   -4.9509   13.1653  -31.3304 H   0  0  0  0  0  0  0  0  0  0  0  0
   -2.8445   12.3947  -30.2389 H   0  0  0  0  0  0  0  0  0  0  0  0
   -0.6462   12.8035  -31.3386 H   0  0  0  0  0  0  0  0  0  0  0  0
   -0.1100   14.3650  -34.5590 H   0  0  0  0  0  0  0  0  0  0  0  0
  1  2  2  0
  2  3  1  0
  3  4  1  0
  4  5  2  0
  5  6  1  0
  6  7  2  0
  7  8  1  0
  8  9  2  0
  9 10  1  0
 10 11  2  0
 11 12  1  0
 12 13  2  0
 13 14  1  0
 14 15  2  0
 15 16  1  0
 16 17  1  0
 16 18  2  0
 11 19  1  0
  7 20  1  0
 20 21  2  0
  2 22  1  0
 22 23  2  0
 23 24  1  0
 24 25  2  0
 25 26  1  0
 26 27  2  0
 27 28  1  0
 21  4  1  0
 27 22  1  0
 19  8  1  0
 18 12  1  0
  5 29  1  0
  6 30  1  0
 13 31  1  0
 14 32  1  0
 15 33  1  0
 18 34  1  0
 20 35  1  0
 21 36  1  0
 23 37  1  0
 24 38  1  0
 25 39  1  0
 26 40  1  0
 28 41  1  0
M  CHG  2   3  -1  17  -1
M  END
>  <UniqueID>  (48) 
45

>  <SMILES>  (48) 
O=C([N-]c1ccc(-c2nnc(-c3cccc([O-])c3)o2)cc1)c1ccccc1O

>  <Energy>  (48) 
90.62685894520006

>  <Genealogy>  (48) 
O=C([N-]c1ccc(-c2nnc(-c3cccc([O-])c3)o2)cc1)c1ccccc1O (protonated)
O=C([N-]c1ccc(-c2nnc(-c3cccc([O-])c3)o2)cc1)c1ccccc1O (3D coordinates assigned)
O=C([N-]c1ccc(-c2nnc(-c3cccc([O-])c3)o2)cc1)c1ccccc1O (optimized conformer: 90.62685894520006 kcal/mol)

>  <smiles>  (48) 
O=C(Nc1ccc(-c2nnc(-c3cccc(O)c3)o2)cc1)c1ccccc1O

>  <score_type>  (48) 
oracle

>  <origin>  (48) 
adgpu

>  <m_score__min__energy>  (48) 
-10.470000000000001

>  <m_primary>  (48) 
energy

$$$$
48:0
     RDKit          3D

 45 47  0  0  0  0  0  0  0  0999 V2000
   -6.6770   16.8760  -33.8360 C   0  0  0  0  0  0  0  0  0  0  0  0
   -6.2750   18.2220  -33.3090 C   0  0  0  0  0  0  0  0  0  0  0  0
   -6.7920   18.6860  -32.0900 C   0  0  0  0  0  0  0  0  0  0  0  0
   -6.3930   19.9260  -31.5820 C   0  0  0  0  0  0  0  0  0  0  0  0
   -5.4700   20.7120  -32.2840 C   0  0  0  0  0  0  0  0  0  0  0  0
   -5.0680   21.9880  -31.7640 N   0  0  0  0  0  0  0  0  0  0  0  0
   -3.9320   22.3110  -31.1150 C   0  0  0  0  0  0  0  0  0  0  0  0
   -2.8320   21.3540  -30.7560 C   0  0  0  0  0  0  0  0  0  0  0  0
   -1.8360   21.2190  -31.8760 C   0  0  0  0  0  0  0  0  0  0  0  0
   -2.0870   21.5100  -33.2070 C   0  0  0  0  0  0  0  0  0  0  0  0
   -0.9330   21.1990  -33.9000 C   0  0  0  0  0  0  0  0  0  0  0  0
   -0.0290   20.7190  -32.9740 C   0  0  0  0  0  0  0  0  0  0  0  0
   -0.5850   20.7250  -31.7460 N   0  0  0  0  0  0  0  0  0  0  0  0
    0.0610   20.2650  -30.5180 C   0  0  0  0  0  0  0  0  0  0  0  0
   -3.8770   23.6320  -30.8520 N   0  0  0  0  0  0  0  0  0  0  0  0
   -4.9840   24.1720  -31.3430 N   0  0  0  0  0  0  0  0  0  0  0  0
   -5.6990   23.1720  -31.8900 C   0  0  0  0  0  0  0  0  0  0  0  0
   -7.2790   23.4170  -32.7160 S   0  0  0  0  0  0  0  0  0  0  0  0
   -8.3680   22.7910  -31.3730 C   0  0  0  0  0  0  0  0  0  0  0  0
   -7.5910   22.5580  -30.0750 C   0  0  0  0  0  0  0  0  0  0  0  0
   -9.1440   21.5410  -31.7930 C   0  0  0  0  0  0  0  0  0  0  0  0
   -4.9290   20.2350  -33.4860 C   0  0  0  0  0  0  0  0  0  0  0  0
   -5.3250   18.9940  -33.9930 C   0  0  0  0  0  0  0  0  0  0  0  0
   -6.8795   16.1980  -32.9938 H   0  0  0  0  0  0  0  0  0  0  0  0
   -7.5837   16.9786  -34.4503 H   0  0  0  0  0  0  0  0  0  0  0  0
   -5.8625   16.4646  -34.4503 H   0  0  0  0  0  0  0  0  0  0  0  0
   -7.5140   18.0719  -31.5318 H   0  0  0  0  0  0  0  0  0  0  0  0
   -6.8053   20.2857  -30.6277 H   0  0  0  0  0  0  0  0  0  0  0  0
   -2.3141   21.7240  -29.8588 H   0  0  0  0  0  0  0  0  0  0  0  0
   -3.2790   20.3665  -30.5686 H   0  0  0  0  0  0  0  0  0  0  0  0
   -3.0209   21.9098  -33.6289 H   0  0  0  0  0  0  0  0  0  0  0  0
   -0.7667   21.3121  -34.9815 H   0  0  0  0  0  0  0  0  0  0  0  0
    0.9926   20.3819  -33.2038 H   0  0  0  0  0  0  0  0  0  0  0  0
   -0.4866   20.6550  -29.6474 H   0  0  0  0  0  0  0  0  0  0  0  0
    0.0569   19.1653  -30.4913 H   0  0  0  0  0  0  0  0  0  0  0  0
    1.0988   20.6286  -30.4913 H   0  0  0  0  0  0  0  0  0  0  0  0
   -9.1104   23.5786  -31.1766 H   0  0  0  0  0  0  0  0  0  0  0  0
   -8.2473   22.7548  -29.2144 H   0  0  0  0  0  0  0  0  0  0  0  0
   -7.2416   21.5156  -30.0389 H   0  0  0  0  0  0  0  0  0  0  0  0
   -6.7257   23.2362  -30.0389 H   0  0  0  0  0  0  0  0  0  0  0  0
   -9.4801   20.9996  -30.8964 H   0  0  0  0  0  0  0  0  0  0  0  0
  -10.0180   21.8361  -32.3923 H   0  0  0  0  0  0  0  0  0  0  0  0
   -8.4918   20.8887  -32.3923 H   0  0  0  0  0  0  0  0  0  0  0  0
   -4.1901   20.8396  -34.0323 H   0  0  0  0  0  0  0  0  0  0  0  0
   -4.8898   18.6216  -34.9321 H   0  0  0  0  0  0  0  0  0  0  0  0
  1  2  1  0
  2  3  2  0
  3  4  1  0
  4  5  2  0
  5  6  1  0
  6  7  1  0
  7  8  1  0
  8  9  1  0
  9 10  2  0
 10 11  1  0
 11 12  2  0
 12 13  1  0
 13 14  1  0
  7 15  2  0
 15 16  1  0
 16 17  2  0
 17 18  1  0
 18 19  1  0
 19 20  1  0
 19 21  1  0
  5 22  1  0
 22 23  2  0
 23  2  1  0
 17  6  1  0
 13  9  1  0
  1 24  1  0
  1 25  1  0
  1 26  1  0
  3 27  1  0
  4 28  1  0
  8 29  1  0
  8 30  1  0
 10 31  1  0
 11 32  1  0
 12 33  1  0
 14 34  1  0
 14 35  1  0
 14 36  1  0
 19 37  1  0
 20 38  1  0
 20 39  1  0
 20 40  1  0
 21 41  1  0
 21 42  1  0
 21 43  1  0
 22 44  1  0
 23 45  1  0
M  END
>  <UniqueID>  (49) 
46

>  <SMILES>  (49) 
Cc1ccc(-n2c(Cc3cccn3C)nnc2SC(C)C)cc1

>  <Energy>  (49) 
101.61225139788628

>  <Genealogy>  (49) 
Cc1ccc(-n2c(Cc3cccn3C)nnc2SC(C)C)cc1 (3D coordinates assigned)
Cc1ccc(-n2c(Cc3cccn3C)nnc2SC(C)C)cc1 (optimized conformer: 101.61225139788628 kcal/mol)

>  <smiles>  (49) 
Cc1ccc(-n2c(Cc3cccn3C)nnc2SC(C)C)cc1

>  <score_type>  (49) 
oracle

>  <origin>  (49) 
adgpu

>  <m_score__min__energy>  (49) 
-8.0899999999999999

>  <m_primary>  (49) 
energy

$$$$
