0:0
     RDKit          3D

 56 59  0  0  0  0  0  0  0  0999 V2000
    3.5000   18.9100  -33.3410 C   0  0  0  0  0  0  0  0  0  0  0  0
    2.6310   19.6900  -34.1560 O   0  0  0  0  0  0  0  0  0  0  0  0
    1.3090   20.0170  -33.8180 C   0  0  0  0  0  0  0  0  0  0  0  0
    0.8310   19.9550  -32.4950 C   0  0  0  0  0  0  0  0  0  0  0  0
   -0.4950   20.2930  -32.2090 C   0  0  0  0  0  0  0  0  0  0  0  0
   -1.3650   20.6950  -33.2350 C   0  0  0  0  0  0  0  0  0  0  0  0
   -2.7630   21.0530  -32.9250 C   0  0  0  0  0  0  0  0  0  0  0  0
   -3.1580   22.2930  -32.5610 N   0  0  0  0  0  0  0  0  0  0  0  0
   -4.4870   22.1650  -32.3780 C   0  0  0  0  0  0  0  0  0  0  0  0
   -5.3450   23.2730  -31.8110 C   0  0  0  0  0  0  0  0  0  0  0  0
   -4.6280   24.1340  -30.8440 N   0  0  0  0  0  0  0  0  0  0  0  0
   -5.4320   25.3050  -30.4470 C   0  0  0  0  0  0  0  0  0  0  0  0
   -4.1400   23.3820  -29.6710 C   0  0  0  0  0  0  0  0  0  0  0  0
   -2.7970   23.8910  -29.2460 C   0  0  0  0  0  0  0  0  0  0  0  0
   -1.5640   23.4900  -29.7230 C   0  0  0  0  0  0  0  0  0  0  0  0
   -0.6040   24.2400  -29.1460 N   0  0  0  0  0  0  0  0  0  0  0  0
   -1.2000   25.0860  -28.3200 N   0  0  0  0  0  0  0  0  0  0  0  0
   -0.4980   26.1170  -27.5680 C   0  0  0  0  0  0  0  0  0  0  0  0
   -2.5340   24.9180  -28.3660 C   0  0  0  0  0  0  0  0  0  0  0  0
   -4.8460   20.8510  -32.6320 C   0  0  0  0  0  0  0  0  0  0  0  0
   -6.1770   20.2250  -32.5400 C   0  0  0  0  0  0  0  0  0  0  0  0
   -6.3320   18.8340  -32.6480 C   0  0  0  0  0  0  0  0  0  0  0  0
   -7.6010   18.2590  -32.5440 C   0  0  0  0  0  0  0  0  0  0  0  0
   -8.7210   19.0640  -32.3220 C   0  0  0  0  0  0  0  0  0  0  0  0
   -8.5790   20.4540  -32.2050 C   0  0  0  0  0  0  0  0  0  0  0  0
   -9.7740   21.3150  -31.9200 C   0  0  0  0  0  0  0  0  0  0  0  0
   -7.3000   21.0280  -32.2900 C   0  0  0  0  0  0  0  0  0  0  0  0
   -3.7600   20.1960  -32.9600 O   0  0  0  0  0  0  0  0  0  0  0  0
   -0.8860   20.7560  -34.5530 C   0  0  0  0  0  0  0  0  0  0  0  0
    0.4410   20.4180  -34.8390 C   0  0  0  0  0  0  0  0  0  0  0  0
    3.2820   19.1056  -32.2807 H   0  0  0  0  0  0  0  0  0  0  0  0
    3.3447   17.8425  -33.5564 H   0  0  0  0  0  0  0  0  0  0  0  0
    4.5446   19.1793  -33.5564 H   0  0  0  0  0  0  0  0  0  0  0  0
    1.5034   19.6395  -31.6836 H   0  0  0  0  0  0  0  0  0  0  0  0
   -0.8595   20.2436  -31.1723 H   0  0  0  0  0  0  0  0  0  0  0  0
   -5.6981   23.9010  -32.6423 H   0  0  0  0  0  0  0  0  0  0  0  0
   -6.1751   22.7965  -31.2689 H   0  0  0  0  0  0  0  0  0  0  0  0
   -5.4739   25.3660  -29.3495 H   0  0  0  0  0  0  0  0  0  0  0  0
   -4.9705   26.2196  -30.8477 H   0  0  0  0  0  0  0  0  0  0  0  0
   -6.4513   25.2028  -30.8477 H   0  0  0  0  0  0  0  0  0  0  0  0
   -4.8523   23.5023  -28.8414 H   0  0  0  0  0  0  0  0  0  0  0  0
   -4.0497   22.3194  -29.9408 H   0  0  0  0  0  0  0  0  0  0  0  0
   -1.3931   22.6877  -30.4558 H   0  0  0  0  0  0  0  0  0  0  0  0
   -0.6226   25.9339  -26.4905 H   0  0  0  0  0  0  0  0  0  0  0  0
    0.5718   26.0924  -27.8228 H   0  0  0  0  0  0  0  0  0  0  0  0
   -0.9130   27.1034  -27.8228 H   0  0  0  0  0  0  0  0  0  0  0  0
   -3.2806   25.4966  -27.8023 H   0  0  0  0  0  0  0  0  0  0  0  0
   -5.4522   18.1952  -32.8149 H   0  0  0  0  0  0  0  0  0  0  0  0
   -7.7186   17.1693  -32.6372 H   0  0  0  0  0  0  0  0  0  0  0  0
   -9.7176   18.6058  -32.2387 H   0  0  0  0  0  0  0  0  0  0  0  0
   -9.9062   21.4103  -30.8321 H   0  0  0  0  0  0  0  0  0  0  0  0
   -9.6210   22.3117  -32.3594 H   0  0  0  0  0  0  0  0  0  0  0  0
  -10.6710   20.8543  -32.3594 H   0  0  0  0  0  0  0  0  0  0  0  0
   -7.1780   22.1134  -32.1598 H   0  0  0  0  0  0  0  0  0  0  0  0
   -1.5576   21.0712  -35.3652 H   0  0  0  0  0  0  0  0  0  0  0  0
    0.8050   20.4680  -35.8758 H   0  0  0  0  0  0  0  0  0  0  0  0
  1  2  1  0
  2  3  1  0
  3  4  2  0
  4  5  1  0
  5  6  2  0
  6  7  1  0
  7  8  2  0
  8  9  1  0
  9 10  1  0
 10 11  1  0
 11 12  1  0
 11 13  1  0
 13 14  1  0
 14 15  1  0
 15 16  2  0
 16 17  1  0
 17 18  1  0
 17 19  1  0
  9 20  2  0
 20 21  1  0
 21 22  2  0
 22 23  1  0
 23 24  2  0
 24 25  1  0
 25 26  1  0
 25 27  2  0
 20 28  1  0
  6 29  1  0
 29 30  2  0
 30  3  1  0
 28  7  1  0
 19 14  2  0
 27 21  1  0
  1 31  1  0
  1 32  1  0
  1 33  1  0
  4 34  1  0
  5 35  1  0
 10 36  1  0
 10 37  1  0
 12 38  1  0
 12 39  1  0
 12 40  1  0
 13 41  1  0
 13 42  1  0
 15 43  1  0
 18 44  1  0
 18 45  1  0
 18 46  1  0
 19 47  1  0
 22 48  1  0
 23 49  1  0
 24 50  1  0
 26 51  1  0
 26 52  1  0
 26 53  1  0
 27 54  1  0
 29 55  1  0
 30 56  1  0
M  END
>  <UniqueID>  (1) 
1

>  <SMILES>  (1) 
COc1ccc(-c2nc(CN(C)Cc3cnn(C)c3)c(-c3cccc(C)c3)o2)cc1

>  <Energy>  (1) 
122.59323226225777

>  <Genealogy>  (1) 
COc1ccc(-c2nc(CN(C)Cc3cnn(C)c3)c(-c3cccc(C)c3)o2)cc1 (3D coordinates assigned)
COc1ccc(-c2nc(CN(C)Cc3cnn(C)c3)c(-c3cccc(C)c3)o2)cc1 (optimized conformer: 122.59323226225777 kcal/mol)

>  <smiles>  (1) 
COc1ccc(-c2nc(CN(C)Cc3cnn(C)c3)c(-c3cccc(C)c3)o2)cc1

>  <score_type>  (1) 
oracle

>  <origin>  (1) 
adgpu

>  <m_score__min__energy>  (1) 
-8.8499999999999996

>  <m_primary>  (1) 
energy

$$$$
1:0
     RDKit          3D

 45 47  0  0  0  0  0  0  0  0999 V2000
   -3.0220   15.4230  -35.4890 C   0  0  0  0  0  0  0  0  0  0  0  0
   -4.2760   16.0330  -35.2000 O   0  0  0  0  0  0  0  0  0  0  0  0
   -4.4260   17.3320  -34.6940 C   0  0  0  0  0  0  0  0  0  0  0  0
   -5.6550   18.0190  -34.7270 C   0  0  0  0  0  0  0  0  0  0  0  0
   -5.7540   19.3130  -34.2080 C   0  0  0  0  0  0  0  0  0  0  0  0
   -4.6330   19.9370  -33.6340 C   0  0  0  0  0  0  0  0  0  0  0  0
   -4.7030   21.2770  -33.1160 N   0  0  0  0  0  0  0  0  0  0  0  0
   -4.4610   21.6190  -31.7400 C   0  0  0  0  0  0  0  0  0  0  0  0
   -3.9620   20.7690  -30.9530 O   0  0  0  0  0  0  0  0  0  0  0  0
   -4.7460   22.9820  -31.2440 C   0  0  0  0  0  0  0  0  0  0  0  0
   -3.7900   23.6290  -30.4410 C   0  0  0  0  0  0  0  0  0  0  0  0
   -4.0500   24.8870  -29.8990 C   0  0  0  0  0  0  0  0  0  0  0  0
   -5.2680   25.5160  -30.1480 C   0  0  0  0  0  0  0  0  0  0  0  0
   -6.2280   24.8930  -30.9460 C   0  0  0  0  0  0  0  0  0  0  0  0
   -5.9820   23.6260  -31.5100 C   0  0  0  0  0  0  0  0  0  0  0  0
   -6.9510   23.0190  -32.3900 N   0  0  0  0  0  0  0  0  0  0  0  0
   -8.2480   22.5250  -31.9260 C   0  0  0  0  0  0  0  0  0  0  0  0
   -8.2850   21.0210  -31.9720 C   0  0  0  0  0  0  0  0  0  0  0  0
   -9.4360   20.3560  -32.4260 C   0  0  0  0  0  0  0  0  0  0  0  0
   -9.4880   18.9600  -32.4290 C   0  0  0  0  0  0  0  0  0  0  0  0
   -8.3970   18.2180  -31.9670 C   0  0  0  0  0  0  0  0  0  0  0  0
   -7.2540   18.8730  -31.4990 C   0  0  0  0  0  0  0  0  0  0  0  0
   -7.1990   20.2700  -31.4950 C   0  0  0  0  0  0  0  0  0  0  0  0
   -3.4060   19.2600  -33.6250 C   0  0  0  0  0  0  0  0  0  0  0  0
   -3.3070   17.9660  -34.1430 C   0  0  0  0  0  0  0  0  0  0  0  0
   -2.5099   15.1739  -34.5479 H   0  0  0  0  0  0  0  0  0  0  0  0
   -3.1866   14.5043  -36.0712 H   0  0  0  0  0  0  0  0  0  0  0  0
   -2.4009   16.1196  -36.0712 H   0  0  0  0  0  0  0  0  0  0  0  0
   -6.5412   17.5349  -35.1633 H   0  0  0  0  0  0  0  0  0  0  0  0
   -6.7152   19.8463  -34.2490 H   0  0  0  0  0  0  0  0  0  0  0  0
   -4.8980   22.0470  -33.7950 H   0  0  0  0  0  0  0  0  0  0  0  0
   -2.8270   23.1375  -30.2384 H   0  0  0  0  0  0  0  0  0  0  0  0
   -3.2928   25.3833  -29.2742 H   0  0  0  0  0  0  0  0  0  0  0  0
   -5.4732   26.5059  -29.7145 H   0  0  0  0  0  0  0  0  0  0  0  0
   -7.1872   25.3966  -31.1367 H   0  0  0  0  0  0  0  0  0  0  0  0
   -6.7280   22.9410  -33.4090 H   0  0  0  0  0  0  0  0  0  0  0  0
   -8.4142   22.8599  -30.8915 H   0  0  0  0  0  0  0  0  0  0  0  0
   -9.0360   22.9211  -32.5834 H   0  0  0  0  0  0  0  0  0  0  0  0
  -10.3001   20.9370  -32.7807 H   0  0  0  0  0  0  0  0  0  0  0  0
  -10.3880   18.4443  -32.7951 H   0  0  0  0  0  0  0  0  0  0  0  0
   -8.4379   17.1188  -31.9717 H   0  0  0  0  0  0  0  0  0  0  0  0
   -6.3968   18.2885  -31.1335 H   0  0  0  0  0  0  0  0  0  0  0  0
   -6.3020   20.7823  -31.1169 H   0  0  0  0  0  0  0  0  0  0  0  0
   -2.5146   19.7507  -33.2072 H   0  0  0  0  0  0  0  0  0  0  0  0
   -2.3407   17.4411  -34.1174 H   0  0  0  0  0  0  0  0  0  0  0  0
  1  2  1  0
  2  3  1  0
  3  4  2  0
  4  5  1  0
  5  6  2  0
  6  7  1  0
  7  8  1  0
  8  9  2  0
  8 10  1  0
 10 11  2  0
 11 12  1  0
 12 13  2  0
 13 14  1  0
 14 15  2  0
 15 16  1  0
 16 17  1  0
 17 18  1  0
 18 19  2  0
 19 20  1  0
 20 21  2  0
 21 22  1  0
 22 23  2  0
  6 24  1  0
 24 25  2  0
 25  3  1  0
 15 10  1  0
 23 18  1  0
  1 26  1  0
  1 27  1  0
  1 28  1  0
  4 29  1  0
  5 30  1  0
  7 31  1  0
 11 32  1  0
 12 33  1  0
 13 34  1  0
 14 35  1  0
 16 36  1  0
 17 37  1  0
 17 38  1  0
 19 39  1  0
 20 40  1  0
 21 41  1  0
 22 42  1  0
 23 43  1  0
 24 44  1  0
 25 45  1  0
M  END
>  <UniqueID>  (2) 
2

>  <SMILES>  (2) 
COc1ccc(NC(=O)c2ccccc2NCc2ccccc2)cc1

>  <Energy>  (2) 
56.51388311561257

>  <Genealogy>  (2) 
COc1ccc(NC(=O)c2ccccc2NCc2ccccc2)cc1 (3D coordinates assigned)
COc1ccc(NC(=O)c2ccccc2NCc2ccccc2)cc1 (optimized conformer: 56.51388311561257 kcal/mol)

>  <smiles>  (2) 
COc1ccc(NC(=O)c2ccccc2NCc2ccccc2)cc1

>  <score_type>  (2) 
oracle

>  <origin>  (2) 
adgpu

>  <m_score__min__energy>  (2) 
-8.7100000000000009

>  <m_primary>  (2) 
energy

$$$$
2:0
     RDKit          3D

 58 61  0  0  0  0  0  0  0  0999 V2000
   -1.3410   19.0460  -27.4750 C   0  0  0  0  0  0  0  0  0  0  0  0
   -0.5570   20.1770  -28.1380 C   0  0  0  0  0  0  0  0  0  0  0  0
   -0.9620   20.3990  -29.6010 C   0  0  0  0  0  0  0  0  0  0  0  0
   -1.7330   21.6900  -29.7950 C   0  0  0  0  0  0  0  0  0  0  0  0
   -1.1130   22.9260  -29.5170 C   0  0  0  0  0  0  0  0  0  0  0  0
    0.2010   22.9570  -29.0600 O   0  0  0  0  0  0  0  0  0  0  0  0
   -1.8140   24.1330  -29.6990 C   0  0  0  0  0  0  0  0  0  0  0  0
   -1.2080   25.3620  -29.4270 O   0  0  0  0  0  0  0  0  0  0  0  0
   -3.1350   24.1160  -30.1600 C   0  0  0  0  0  0  0  0  0  0  0  0
   -3.8100   25.3250  -30.3390 O   0  0  0  0  0  0  0  0  0  0  0  0
   -3.7720   22.8900  -30.4290 C   0  0  0  0  0  0  0  0  0  0  0  0
   -5.0980   22.8430  -30.8840 C   0  0  0  0  0  0  0  0  0  0  0  0
   -5.7290   21.6120  -31.1190 C   0  0  0  0  0  0  0  0  0  0  0  0
   -7.1380   21.6020  -31.5780 C   0  0  0  0  0  0  0  0  0  0  0  0
   -7.7330   20.4160  -32.0470 C   0  0  0  0  0  0  0  0  0  0  0  0
   -9.0710   20.4120  -32.4590 C   0  0  0  0  0  0  0  0  0  0  0  0
   -9.8250   21.5900  -32.4040 C   0  0  0  0  0  0  0  0  0  0  0  0
   -9.2480   22.7670  -31.9180 C   0  0  0  0  0  0  0  0  0  0  0  0
   -7.9140   22.7730  -31.4980 C   0  0  0  0  0  0  0  0  0  0  0  0
   -4.9960   20.4270  -30.9000 C   0  0  0  0  0  0  0  0  0  0  0  0
   -5.6920   18.8010  -31.2220 S   0  0  0  0  0  0  0  0  0  0  0  0
   -4.6370   18.5220  -32.6430 C   0  0  0  0  0  0  0  0  0  0  0  0
   -5.0190   17.6010  -33.6250 C   0  0  0  0  0  0  0  0  0  0  0  0
   -4.2130   17.4050  -34.7510 C   0  0  0  0  0  0  0  0  0  0  0  0
   -3.0180   18.1160  -34.8930 C   0  0  0  0  0  0  0  0  0  0  0  0
   -2.6130   19.0180  -33.8960 C   0  0  0  0  0  0  0  0  0  0  0  0
   -1.3330   19.7410  -34.0160 C   0  0  0  0  0  0  0  0  0  0  0  0
   -1.0210   20.2820  -35.1110 O   0  0  0  0  0  0  0  0  0  0  0  0
   -0.4400   19.8360  -32.8950 N   0  0  0  0  0  0  0  0  0  0  0  0
    0.1760   21.1260  -32.5750 C   0  0  0  0  0  0  0  0  0  0  0  0
   -0.0490   18.6140  -32.1890 C   0  0  0  0  0  0  0  0  0  0  0  0
   -3.4380   19.2310  -32.7800 C   0  0  0  0  0  0  0  0  0  0  0  0
   -3.7100   20.4970  -30.4720 N   0  0  0  0  0  0  0  0  0  0  0  0
   -3.0760   21.6770  -30.2340 C   0  0  0  0  0  0  0  0  0  0  0  0
   -1.2727   19.1445  -26.3815 H   0  0  0  0  0  0  0  0  0  0  0  0
   -2.3956   19.1012  -27.7830 H   0  0  0  0  0  0  0  0  0  0  0  0
   -0.9193   18.0779  -27.7830 H   0  0  0  0  0  0  0  0  0  0  0  0
   -0.7379   21.1062  -27.5778 H   0  0  0  0  0  0  0  0  0  0  0  0
    0.5064   19.8958  -28.1264 H   0  0  0  0  0  0  0  0  0  0  0  0
   -0.0523   20.4340  -30.2185 H   0  0  0  0  0  0  0  0  0  0  0  0
   -1.6177   19.5674  -29.8986 H   0  0  0  0  0  0  0  0  0  0  0  0
   -1.6110   26.2410  -29.7280 H   0  0  0  0  0  0  0  0  0  0  0  0
   -5.6481   23.7795  -31.0581 H   0  0  0  0  0  0  0  0  0  0  0  0
   -7.1441   19.4879  -32.0901 H   0  0  0  0  0  0  0  0  0  0  0  0
   -9.5301   19.4823  -32.8262 H   0  0  0  0  0  0  0  0  0  0  0  0
  -10.8714   21.5897  -32.7431 H   0  0  0  0  0  0  0  0  0  0  0  0
   -9.8442   23.6899  -31.8659 H   0  0  0  0  0  0  0  0  0  0  0  0
   -7.4690   23.6982  -31.1030 H   0  0  0  0  0  0  0  0  0  0  0  0
   -5.9531   17.0313  -33.5112 H   0  0  0  0  0  0  0  0  0  0  0  0
   -4.5205   16.6890  -35.5274 H   0  0  0  0  0  0  0  0  0  0  0  0
   -2.3941   17.9687  -35.7869 H   0  0  0  0  0  0  0  0  0  0  0  0
    0.2326   21.2444  -31.4829 H   0  0  0  0  0  0  0  0  0  0  0  0
    1.1895   21.1641  -33.0009 H   0  0  0  0  0  0  0  0  0  0  0  0
   -0.4315   21.9381  -33.0009 H   0  0  0  0  0  0  0  0  0  0  0  0
   -0.1035   18.7842  -31.1036 H   0  0  0  0  0  0  0  0  0  0  0  0
   -0.7303   17.7962  -32.4665 H   0  0  0  0  0  0  0  0  0  0  0  0
    0.9805   18.3436  -32.4665 H   0  0  0  0  0  0  0  0  0  0  0  0
   -3.1408   19.9582  -32.0101 H   0  0  0  0  0  0  0  0  0  0  0  0
  1  2  1  0
  2  3  1  0
  3  4  1  0
  4  5  2  0
  5  6  1  0
  5  7  1  0
  7  8  1  0
  7  9  2  0
  9 10  1  0
  9 11  1  0
 11 12  2  0
 12 13  1  0
 13 14  1  0
 14 15  2  0
 15 16  1  0
 16 17  2  0
 17 18  1  0
 18 19  2  0
 13 20  2  0
 20 21  1  0
 21 22  1  0
 22 23  2  0
 23 24  1  0
 24 25  2  0
 25 26  1  0
 26 27  1  0
 27 28  2  0
 27 29  1  0
 29 30  1  0
 29 31  1  0
 26 32  2  0
 20 33  1  0
 33 34  2  0
 34  4  1  0
 34 11  1  0
 19 14  1  0
 32 22  1  0
  1 35  1  0
  1 36  1  0
  1 37  1  0
  2 38  1  0
  2 39  1  0
  3 40  1  0
  3 41  1  0
  8 42  1  0
 12 43  1  0
 15 44  1  0
 16 45  1  0
 17 46  1  0
 18 47  1  0
 19 48  1  0
 23 49  1  0
 24 50  1  0
 25 51  1  0
 30 52  1  0
 30 53  1  0
 30 54  1  0
 31 55  1  0
 31 56  1  0
 31 57  1  0
 32 58  1  0
M  CHG  2   6  -1  10  -1
M  END
>  <UniqueID>  (3) 
3

>  <SMILES>  (3) 
CCCc1c([O-])c(O)c([O-])c2cc(-c3ccccc3)c(Sc3cccc(C(=O)N(C)C)c3)nc12

>  <Energy>  (3) 
66.86263344409934

>  <Genealogy>  (3) 
CCCc1c([O-])c(O)c([O-])c2cc(-c3ccccc3)c(Sc3cccc(C(=O)N(C)C)c3)nc12 (protonated)
CCCc1c([O-])c(O)c([O-])c2cc(-c3ccccc3)c(Sc3cccc(C(=O)N(C)C)c3)nc12 (3D coordinates assigned)
CCCc1c([O-])c(O)c([O-])c2cc(-c3ccccc3)c(Sc3cccc(C(=O)N(C)C)c3)nc12 (optimized conformer: 66.86263344409934 kcal/mol)

>  <smiles>  (3) 
CCCc1c(O)c(O)c(O)c2cc(-c3ccccc3)c(Sc3cccc(C(=O)N(C)C)c3)nc12

>  <score_type>  (3) 
oracle

>  <origin>  (3) 
adgpu

>  <m_score__min__energy>  (3) 
-11.529999999999999

>  <m_primary>  (3) 
energy

$$$$
3:0
     RDKit          3D

 30 31  0  0  0  0  0  0  0  0999 V2000
   -3.2180   16.0330  -34.8090 C   0  0  0  0  0  0  0  0  0  0  0  0
   -4.6410   16.0670  -34.8630 O   0  0  0  0  0  0  0  0  0  0  0  0
   -5.4330   17.0460  -34.2450 C   0  0  0  0  0  0  0  0  0  0  0  0
   -5.3050   18.4180  -34.5360 C   0  0  0  0  0  0  0  0  0  0  0  0
   -6.1190   19.3540  -33.8920 C   0  0  0  0  0  0  0  0  0  0  0  0
   -7.0720   18.9340  -32.9560 C   0  0  0  0  0  0  0  0  0  0  0  0
   -8.0780   20.1170  -32.1270 S   0  0  0  0  0  0  0  0  0  0  0  0
   -9.2350   20.5080  -33.0020 O   0  0  0  0  0  0  0  0  0  0  0  0
   -8.6240   19.5300  -30.8560 O   0  0  0  0  0  0  0  0  0  0  0  0
   -7.1130   21.5310  -31.7550 C   0  0  0  0  0  0  0  0  0  0  0  0
   -7.4570   22.8420  -32.0560 C   0  0  0  0  0  0  0  0  0  0  0  0
   -6.5140   23.7700  -31.6030 C   0  0  0  0  0  0  0  0  0  0  0  0
   -5.4410   23.1770  -30.9500 C   0  0  0  0  0  0  0  0  0  0  0  0
   -4.0870   24.0290  -30.2310 S   0  0  0  0  0  0  0  0  0  0  0  0
   -4.2460   25.7250  -30.5200 N   0  0  0  0  0  0  0  0  0  0  0  0
   -4.0700   23.7850  -28.7470 O   0  0  0  0  0  0  0  0  0  0  0  0
   -2.8050   23.5340  -30.8370 O   0  0  0  0  0  0  0  0  0  0  0  0
   -5.6540   21.5100  -30.9190 S   0  0  0  0  0  0  0  0  0  0  0  0
   -7.1950   17.5720  -32.6570 C   0  0  0  0  0  0  0  0  0  0  0  0
   -6.3820   16.6350  -33.3010 C   0  0  0  0  0  0  0  0  0  0  0  0
   -2.8910   16.0252  -33.7588 H   0  0  0  0  0  0  0  0  0  0  0  0
   -2.8535   15.1259  -35.3133 H   0  0  0  0  0  0  0  0  0  0  0  0
   -2.8106   16.9217  -35.3133 H   0  0  0  0  0  0  0  0  0  0  0  0
   -4.5612   18.7544  -35.2733 H   0  0  0  0  0  0  0  0  0  0  0  0
   -6.0106   20.4244  -34.1212 H   0  0  0  0  0  0  0  0  0  0  0  0
   -8.3748   23.1213  -32.5942 H   0  0  0  0  0  0  0  0  0  0  0  0
   -6.6118   24.8559  -31.7486 H   0  0  0  0  0  0  0  0  0  0  0  0
   -3.5130   25.9860  -31.2160 H   0  0  0  0  0  0  0  0  0  0  0  0
   -7.9335   17.2382  -31.9132 H   0  0  0  0  0  0  0  0  0  0  0  0
   -6.4886   15.5661  -33.0643 H   0  0  0  0  0  0  0  0  0  0  0  0
  1  2  1  0
  2  3  1  0
  3  4  2  0
  4  5  1  0
  5  6  2  0
  6  7  1  0
  7  8  2  0
  7  9  2  0
  7 10  1  0
 10 11  2  0
 11 12  1  0
 12 13  2  0
 13 14  1  0
 14 15  1  0
 14 16  2  0
 14 17  2  0
 13 18  1  0
  6 19  1  0
 19 20  2  0
 20  3  1  0
 18 10  1  0
  1 21  1  0
  1 22  1  0
  1 23  1  0
  4 24  1  0
  5 25  1  0
 11 26  1  0
 12 27  1  0
 15 28  1  0
 19 29  1  0
 20 30  1  0
M  CHG  1  15  -1
M  END
>  <UniqueID>  (4) 
4

>  <SMILES>  (4) 
COc1ccc(S(=O)(=O)c2ccc(S([NH-])(=O)=O)s2)cc1

>  <Energy>  (4) 
57.505608285065314

>  <Genealogy>  (4) 
COc1ccc(S(=O)(=O)c2ccc(S([NH-])(=O)=O)s2)cc1 (protonated)
COc1ccc(S(=O)(=O)c2ccc(S([NH-])(=O)=O)s2)cc1 (3D coordinates assigned)
COc1ccc(S(=O)(=O)c2ccc(S([NH-])(=O)=O)s2)cc1 (optimized conformer: 57.505608285065314 kcal/mol)

>  <smiles>  (4) 
COc1ccc(S(=O)(=O)c2ccc(S(N)(=O)=O)s2)cc1

>  <score_type>  (4) 
oracle

>  <origin>  (4) 
adgpu

>  <m_score__min__energy>  (4) 
-10.039999999999999

>  <m_primary>  (4) 
energy

$$$$
4:0
     RDKit          3D

 45 47  0  0  0  0  0  0  0  0999 V2000
   -0.8210   26.7380  -28.0300 C   0  0  0  0  0  0  0  0  0  0  0  0
   -1.6090   25.9780  -28.9410 O   0  0  0  0  0  0  0  0  0  0  0  0
   -2.1170   24.6960  -28.6740 C   0  0  0  0  0  0  0  0  0  0  0  0
   -1.5830   23.8760  -27.6590 C   0  0  0  0  0  0  0  0  0  0  0  0
   -2.1210   22.6100  -27.4190 C   0  0  0  0  0  0  0  0  0  0  0  0
   -3.1990   22.1520  -28.1790 C   0  0  0  0  0  0  0  0  0  0  0  0
   -3.7350   22.9550  -29.1860 C   0  0  0  0  0  0  0  0  0  0  0  0
   -3.1840   24.2200  -29.4570 C   0  0  0  0  0  0  0  0  0  0  0  0
   -3.7410   25.0740  -30.4670 N   0  0  0  0  0  0  0  0  0  0  0  0
   -5.1170   25.4520  -30.6010 C   0  0  0  0  0  0  0  0  0  0  0  0
   -5.4930   26.5520  -30.1160 O   0  0  0  0  0  0  0  0  0  0  0  0
   -6.1100   24.5960  -31.3380 C   0  0  0  0  0  0  0  0  0  0  0  0
   -5.5510   23.2710  -31.5780 N   0  0  0  0  0  0  0  0  0  0  0  0
   -5.9680   22.1680  -30.9810 N   0  0  0  0  0  0  0  0  0  0  0  0
   -5.2170   21.1560  -31.3810 N   0  0  0  0  0  0  0  0  0  0  0  0
   -4.3220   21.7000  -32.2350 C   0  0  0  0  0  0  0  0  0  0  0  0
   -3.2650   20.9390  -32.9330 C   0  0  0  0  0  0  0  0  0  0  0  0
   -3.4610   19.5880  -33.2560 C   0  0  0  0  0  0  0  0  0  0  0  0
   -2.4630   18.8660  -33.9130 C   0  0  0  0  0  0  0  0  0  0  0  0
   -1.2470   19.4840  -34.2620 C   0  0  0  0  0  0  0  0  0  0  0  0
   -0.2220   18.7900  -34.9240 O   0  0  0  0  0  0  0  0  0  0  0  0
   -0.0460   17.3770  -34.8800 C   0  0  0  0  0  0  0  0  0  0  0  0
   -1.0410   20.8350  -33.9450 C   0  0  0  0  0  0  0  0  0  0  0  0
    0.1810   21.4240  -34.3060 O   0  0  0  0  0  0  0  0  0  0  0  0
    1.4620   20.8840  -33.9920 C   0  0  0  0  0  0  0  0  0  0  0  0
   -2.0520   21.5570  -33.2810 C   0  0  0  0  0  0  0  0  0  0  0  0
   -4.5170   23.0280  -32.3630 N   0  0  0  0  0  0  0  0  0  0  0  0
   -1.0956   26.4731  -26.9983 H   0  0  0  0  0  0  0  0  0  0  0  0
    0.2441   26.5175  -28.1941 H   0  0  0  0  0  0  0  0  0  0  0  0
   -1.0029   27.8104  -28.1941 H   0  0  0  0  0  0  0  0  0  0  0  0
   -0.7382   24.2354  -27.0530 H   0  0  0  0  0  0  0  0  0  0  0  0
   -1.6950   21.9727  -26.6301 H   0  0  0  0  0  0  0  0  0  0  0  0
   -3.6260   21.1573  -27.9836 H   0  0  0  0  0  0  0  0  0  0  0  0
   -4.5942   22.5963  -29.7718 H   0  0  0  0  0  0  0  0  0  0  0  0
   -7.0255   24.5007  -30.7356 H   0  0  0  0  0  0  0  0  0  0  0  0
   -6.3439   25.0676  -32.3038 H   0  0  0  0  0  0  0  0  0  0  0  0
   -4.4073   19.0943  -32.9899 H   0  0  0  0  0  0  0  0  0  0  0  0
   -2.6278   17.8068  -34.1598 H   0  0  0  0  0  0  0  0  0  0  0  0
   -0.0047   17.0451  -33.8321 H   0  0  0  0  0  0  0  0  0  0  0  0
   -0.8900   16.8864  -35.3870 H   0  0  0  0  0  0  0  0  0  0  0  0
    0.8925   17.1084  -35.3870 H   0  0  0  0  0  0  0  0  0  0  0  0
    1.5810   20.8338  -32.8996 H   0  0  0  0  0  0  0  0  0  0  0  0
    1.5480   19.8731  -34.4170 H   0  0  0  0  0  0  0  0  0  0  0  0
    2.2457   21.5283  -34.4170 H   0  0  0  0  0  0  0  0  0  0  0  0
   -1.8901   22.6162  -33.0322 H   0  0  0  0  0  0  0  0  0  0  0  0
  1  2  1  0
  2  3  1  0
  3  4  2  0
  4  5  1  0
  5  6  2  0
  6  7  1  0
  7  8  2  0
  8  9  1  0
  9 10  1  0
 10 11  2  0
 10 12  1  0
 12 13  1  0
 13 14  1  0
 14 15  2  0
 15 16  1  0
 16 17  1  0
 17 18  2  0
 18 19  1  0
 19 20  2  0
 20 21  1  0
 21 22  1  0
 20 23  1  0
 23 24  1  0
 24 25  1  0
 23 26  2  0
 16 27  2  0
  8  3  1  0
 27 13  1  0
 26 17  1  0
  1 28  1  0
  1 29  1  0
  1 30  1  0
  4 31  1  0
  5 32  1  0
  6 33  1  0
  7 34  1  0
 12 35  1  0
 12 36  1  0
 18 37  1  0
 19 38  1  0
 22 39  1  0
 22 40  1  0
 22 41  1  0
 25 42  1  0
 25 43  1  0
 25 44  1  0
 26 45  1  0
M  CHG  1   9  -1
M  END
>  <UniqueID>  (5) 
5

>  <SMILES>  (5) 
COc1ccccc1[N-]C(=O)Cn1nnc(-c2ccc(OC)c(OC)c2)n1

>  <Energy>  (5) 
88.1061245869675

>  <Genealogy>  (5) 
COc1ccccc1[N-]C(=O)Cn1nnc(-c2ccc(OC)c(OC)c2)n1 (protonated)
COc1ccccc1[N-]C(=O)Cn1nnc(-c2ccc(OC)c(OC)c2)n1 (3D coordinates assigned)
COc1ccccc1[N-]C(=O)Cn1nnc(-c2ccc(OC)c(OC)c2)n1 (optimized conformer: 88.1061245869675 kcal/mol)

>  <smiles>  (5) 
COc1ccccc1NC(=O)Cn1nnc(-c2ccc(OC)c(OC)c2)n1

>  <score_type>  (5) 
oracle

>  <origin>  (5) 
adgpu

>  <m_score__min__energy>  (5) 
-10.68

>  <m_primary>  (5) 
energy

$$$$
5:0
     RDKit          3D

 21 22  0  0  0  0  0  0  0  0999 V2000
   -1.0070   23.4120  -27.7750 O   0  0  0  0  0  0  0  0  0  0  0  0
   -2.0360   23.6390  -28.6800 C   0  0  0  0  0  0  0  0  0  0  0  0
   -2.9140   22.6820  -29.1510 C   0  0  0  0  0  0  0  0  0  0  0  0
   -3.7690   23.3430  -30.0260 C   0  0  0  0  0  0  0  0  0  0  0  0
   -4.8610   22.7240  -30.8100 C   0  0  0  0  0  0  0  0  0  0  0  0
   -4.7310   21.3910  -31.2370 C   0  0  0  0  0  0  0  0  0  0  0  0
   -5.7420   20.7850  -31.9870 C   0  0  0  0  0  0  0  0  0  0  0  0
   -6.8960   21.4990  -32.3140 C   0  0  0  0  0  0  0  0  0  0  0  0
   -7.0460   22.8180  -31.8810 C   0  0  0  0  0  0  0  0  0  0  0  0
   -6.0400   23.4350  -31.1210 C   0  0  0  0  0  0  0  0  0  0  0  0
   -6.2280   24.7350  -30.6550 O   0  0  0  0  0  0  0  0  0  0  0  0
   -3.3470   24.6660  -30.0550 C   0  0  0  0  0  0  0  0  0  0  0  0
   -3.8730   25.6780  -30.8500 O   0  0  0  0  0  0  0  0  0  0  0  0
   -2.3050   24.8350  -29.2270 N   0  0  0  0  0  0  0  0  0  0  0  0
   -1.6120   26.0040  -29.0150 O   0  0  0  0  0  0  0  0  0  0  0  0
   -2.9329   21.6142  -28.8874 H   0  0  0  0  0  0  0  0  0  0  0  0
   -3.8265   20.8208  -30.9787 H   0  0  0  0  0  0  0  0  0  0  0  0
   -5.6284   19.7430  -32.3205 H   0  0  0  0  0  0  0  0  0  0  0  0
   -7.6867   21.0229  -32.9124 H   0  0  0  0  0  0  0  0  0  0  0  0
   -7.9581   23.3770  -32.1370 H   0  0  0  0  0  0  0  0  0  0  0  0
   -5.4560   25.3860  -30.5680 H   0  0  0  0  0  0  0  0  0  0  0  0
  1  2  1  0
  2  3  2  0
  3  4  1  0
  4  5  1  0
  5  6  2  0
  6  7  1  0
  7  8  2  0
  8  9  1  0
  9 10  2  0
 10 11  1  0
  4 12  2  0
 12 13  1  0
 12 14  1  0
 14 15  1  0
 14  2  1  0
 10  5  1  0
  3 16  1  0
  6 17  1  0
  7 18  1  0
  8 19  1  0
  9 20  1  0
 11 21  1  0
M  CHG  3   1  -1  13  -1  15  -1
M  END
>  <UniqueID>  (6) 
6

>  <SMILES>  (6) 
[O-]c1cc(-c2ccccc2O)c([O-])n1[O-]

>  <Energy>  (6) 
56.79711538196475

>  <Genealogy>  (6) 
[O-]c1cc(-c2ccccc2O)c([O-])n1[O-] (protonated)
[O-]c1cc(-c2ccccc2O)c([O-])n1[O-] (3D coordinates assigned)
[O-]c1cc(-c2ccccc2O)c([O-])n1[O-] (optimized conformer: 56.79711538196475 kcal/mol)

>  <smiles>  (6) 
Oc1ccccc1-c1cc(O)n(O)c1O

>  <score_type>  (6) 
oracle

>  <origin>  (6) 
adgpu

>  <m_score__min__energy>  (6) 
-11.609999999999999

>  <m_primary>  (6) 
energy

$$$$
6:0
     RDKit          3D

 45 47  0  0  1  0  0  0  0  0999 V2000
    2.1050   23.8880  -27.1290 C   0  0  0  0  0  0  0  0  0  0  0  0
    1.1270   24.1740  -28.1540 N   0  0  0  0  0  0  0  0  0  0  0  0
   -0.0970   24.4530  -27.8860 C   0  0  0  0  0  0  0  0  0  0  0  0
   -1.0160   24.7230  -28.8800 C   0  0  0  0  0  0  0  0  0  0  0  0
   -2.3460   25.0250  -28.5720 C   0  0  0  0  0  0  0  0  0  0  0  0
   -3.1750   25.2770  -29.6450 O   0  0  0  0  0  0  0  0  0  0  0  0
   -3.8580   24.2460  -30.2350 C   0  0  0  0  0  0  0  0  0  0  0  0
   -3.4430   22.9350  -30.2010 C   0  0  0  0  0  0  0  0  0  0  0  0
   -4.1600   21.9290  -30.8080 C   0  0  0  0  0  0  0  0  0  0  0  0
   -5.3550   22.1770  -31.4940 C   0  0  0  0  0  0  0  0  0  0  0  0
   -6.0070   21.1010  -32.0730 N   0  0  0  0  0  0  0  0  0  0  0  0
   -5.4260   19.8910  -32.5300 C   0  0  0  0  0  0  0  0  0  0  0  0
   -4.2090   19.6770  -32.4460 O   0  0  0  0  0  0  0  0  0  0  0  0
   -6.2280   18.8490  -33.1160 N   0  0  0  0  0  0  0  0  0  0  0  0
   -5.5250   17.6830  -33.5360 C   0  0  0  0  0  0  0  0  0  0  0  0
   -4.9640   17.7210  -34.8010 C   0  0  0  0  0  0  0  0  0  0  0  0
   -4.2620   16.6720  -35.3330 C   0  0  0  0  0  0  0  0  0  0  0  0
   -4.1210   15.5380  -34.5540 C   0  0  0  0  0  0  0  0  0  0  0  0
   -3.2240   14.2010  -35.2330 Cl  0  0  0  0  0  0  0  0  0  0  0  0
   -4.6820   15.5030  -33.2890 C   0  0  0  0  0  0  0  0  0  0  0  0
   -4.4930   14.2570  -32.5080 C   0  0  0  0  0  0  0  0  0  0  0  0
   -3.1370   13.9780  -32.4250 F   0  0  0  0  0  0  0  0  0  0  0  0
   -4.9990   14.4990  -31.2330 F   0  0  0  0  0  0  0  0  0  0  0  0
   -5.1480   13.1910  -33.0590 F   0  0  0  0  0  0  0  0  0  0  0  0
   -5.3900   16.5600  -32.7560 C   0  0  0  0  0  0  0  0  0  0  0  0
   -5.7540   23.4930  -31.5160 C   0  0  0  0  0  0  0  0  0  0  0  0
   -5.0290   24.5140  -30.9030 C   0  0  0  0  0  0  0  0  0  0  0  0
   -5.4800   25.7870  -30.9630 F   0  0  0  0  0  0  0  0  0  0  0  0
   -2.7300   25.0500  -27.2910 N   0  0  0  0  0  0  0  0  0  0  0  0
   -1.8110   24.7820  -26.3450 C   0  0  0  0  0  0  0  0  0  0  0  0
   -0.5270   24.4900  -26.6220 N   0  0  0  0  0  0  0  0  0  0  0  0
    1.6472   24.0219  -26.1378 H   0  0  0  0  0  0  0  0  0  0  0  0
    2.4540   22.8502  -27.2345 H   0  0  0  0  0  0  0  0  0  0  0  0
    2.9582   24.5743  -27.2345 H   0  0  0  0  0  0  0  0  0  0  0  0
   -0.6965   24.7002  -29.9323 H   0  0  0  0  0  0  0  0  0  0  0  0
   -2.5112   22.6833  -29.6734 H   0  0  0  0  0  0  0  0  0  0  0  0
   -3.7821   20.8974  -30.7523 H   0  0  0  0  0  0  0  0  0  0  0  0
   -7.0660   21.1520  -32.2070 H   0  0  0  0  0  0  0  0  0  0  0  0
   -7.2650   18.9630  -33.2190 H   0  0  0  0  0  0  0  0  0  0  0  0
   -5.0872   18.6323  -35.4046 H   0  0  0  0  0  0  0  0  0  0  0  0
   -3.8269   16.7294  -36.3416 H   0  0  0  0  0  0  0  0  0  0  0  0
   -5.8282   16.5061  -31.7485 H   0  0  0  0  0  0  0  0  0  0  0  0
   -6.6859   23.7513  -32.0402 H   0  0  0  0  0  0  0  0  0  0  0  0
   -3.7260   25.2770  -27.0820 H   0  0  0  0  0  0  0  0  0  0  0  0
   -2.1257   24.8027  -25.2912 H   0  0  0  0  0  0  0  0  0  0  0  0
  1  2  1  0
  2  3  2  0
  3  4  1  0
  4  5  2  0
  5  6  1  0
  6  7  1  0
  7  8  2  0
  8  9  1  0
  9 10  2  0
 10 11  1  0
 11 12  1  0
 12 13  2  0
 12 14  1  0
 14 15  1  0
 15 16  2  0
 16 17  1  0
 17 18  2  0
 18 19  1  0
 18 20  1  0
 20 21  1  0
 21 22  1  0
 21 23  1  0
 21 24  1  0
 20 25  2  0
 10 26  1  0
 26 27  2  0
 27 28  1  0
  5 29  1  0
 29 30  1  0
 30 31  2  0
 31  3  1  0
 27  7  1  0
 25 15  1  0
  1 32  1  0
  1 33  1  0
  1 34  1  0
  4 35  1  0
  8 36  1  0
  9 37  1  0
 11 38  1  0
 14 39  1  0
 16 40  1  0
 17 41  1  0
 25 42  1  0
 26 43  1  0
 29 44  1  0
 30 45  1  0
M  END
>  <smiles>  (7) 
CN=c1cc(Oc2ccc(NC(=O)Nc3ccc(Cl)c(C(F)(F)F)c3)cc2F)[nH]cn1

>  <score_type>  (7) 
oracle

>  <origin>  (7) 
adgpu

>  <m_score__min__energy>  (7) 
-8.1699999999999999

>  <m_primary>  (7) 
energy

$$$$
7:0
     RDKit          3D

 46 48  0  0  0  0  0  0  0  0999 V2000
   -9.0120   18.5860  -32.2950 C   0  0  0  0  0  0  0  0  0  0  0  0
   -9.1190   19.7150  -31.4340 O   0  0  0  0  0  0  0  0  0  0  0  0
   -8.5500   20.9720  -31.6950 C   0  0  0  0  0  0  0  0  0  0  0  0
   -9.3290   22.1450  -31.7480 C   0  0  0  0  0  0  0  0  0  0  0  0
   -8.7250   23.3820  -31.9840 C   0  0  0  0  0  0  0  0  0  0  0  0
   -7.3450   23.4630  -32.1700 C   0  0  0  0  0  0  0  0  0  0  0  0
   -6.5640   22.3080  -32.1300 C   0  0  0  0  0  0  0  0  0  0  0  0
   -7.1610   21.0540  -31.8960 C   0  0  0  0  0  0  0  0  0  0  0  0
   -6.3850   19.8490  -31.8300 N   0  0  0  0  0  0  0  0  0  0  0  0
   -5.6220   19.0650  -33.1770 S   0  0  0  0  0  0  0  0  0  0  0  0
   -6.1540   19.6410  -34.4580 O   0  0  0  0  0  0  0  0  0  0  0  0
   -5.9510   17.5990  -33.1210 O   0  0  0  0  0  0  0  0  0  0  0  0
   -3.8710   19.2500  -33.1010 C   0  0  0  0  0  0  0  0  0  0  0  0
   -3.0920   18.9430  -34.2180 C   0  0  0  0  0  0  0  0  0  0  0  0
   -1.7040   19.0480  -34.1540 C   0  0  0  0  0  0  0  0  0  0  0  0
   -1.0700   19.4550  -32.9730 C   0  0  0  0  0  0  0  0  0  0  0  0
    0.3270   19.4780  -32.9620 O   0  0  0  0  0  0  0  0  0  0  0  0
   -1.8480   19.7990  -31.8400 C   0  0  0  0  0  0  0  0  0  0  0  0
   -1.2260   20.2920  -30.6310 N   0  0  0  0  0  0  0  0  0  0  0  0
   -1.9660   20.7500  -29.4510 C   0  0  0  0  0  0  0  0  0  0  0  0
   -1.8710   22.2460  -29.2990 C   0  0  0  0  0  0  0  0  0  0  0  0
   -0.8650   22.8200  -28.5000 C   0  0  0  0  0  0  0  0  0  0  0  0
   -0.7770   24.2090  -28.3680 C   0  0  0  0  0  0  0  0  0  0  0  0
   -1.6960   25.0370  -29.0220 C   0  0  0  0  0  0  0  0  0  0  0  0
   -1.6010   26.4170  -28.8880 O   0  0  0  0  0  0  0  0  0  0  0  0
   -2.7090   24.4730  -29.8080 C   0  0  0  0  0  0  0  0  0  0  0  0
   -3.6270   25.2900  -30.4570 O   0  0  0  0  0  0  0  0  0  0  0  0
   -2.7980   23.0820  -29.9430 C   0  0  0  0  0  0  0  0  0  0  0  0
   -3.2490   19.6780  -31.9220 C   0  0  0  0  0  0  0  0  0  0  0  0
   -8.9253   17.6710  -31.6907 H   0  0  0  0  0  0  0  0  0  0  0  0
   -9.9082   18.5227  -32.9297 H   0  0  0  0  0  0  0  0  0  0  0  0
   -8.1199   18.6922  -32.9297 H   0  0  0  0  0  0  0  0  0  0  0  0
  -10.4178   22.0862  -31.6028 H   0  0  0  0  0  0  0  0  0  0  0  0
   -9.3387   24.2940  -32.0233 H   0  0  0  0  0  0  0  0  0  0  0  0
   -6.8716   24.4397  -32.3486 H   0  0  0  0  0  0  0  0  0  0  0  0
   -5.4767   22.3769  -32.2819 H   0  0  0  0  0  0  0  0  0  0  0  0
   -3.5751   18.6174  -35.1510 H   0  0  0  0  0  0  0  0  0  0  0  0
   -1.0992   18.8085  -35.0410 H   0  0  0  0  0  0  0  0  0  0  0  0
    0.9040   18.8270  -33.4740 H   0  0  0  0  0  0  0  0  0  0  0  0
   -0.1890   20.3910  -30.5870 H   0  0  0  0  0  0  0  0  0  0  0  0
   -3.0234   20.4660  -29.5573 H   0  0  0  0  0  0  0  0  0  0  0  0
   -1.5274   20.2793  -28.5588 H   0  0  0  0  0  0  0  0  0  0  0  0
   -0.1450   22.1733  -27.9772 H   0  0  0  0  0  0  0  0  0  0  0  0
    0.0167   24.6521  -27.7485 H   0  0  0  0  0  0  0  0  0  0  0  0
   -3.5979   22.6418  -30.5565 H   0  0  0  0  0  0  0  0  0  0  0  0
   -3.8650   19.9240  -31.0445 H   0  0  0  0  0  0  0  0  0  0  0  0
  1  2  1  0
  2  3  1  0
  3  4  2  0
  4  5  1  0
  5  6  2  0
  6  7  1  0
  7  8  2  0
  8  9  1  0
  9 10  1  0
 10 11  2  0
 10 12  2  0
 10 13  1  0
 13 14  2  0
 14 15  1  0
 15 16  2  0
 16 17  1  0
 16 18  1  0
 18 19  1  0
 19 20  1  0
 20 21  1  0
 21 22  2  0
 22 23  1  0
 23 24  2  0
 24 25  1  0
 24 26  1  0
 26 27  1  0
 26 28  2  0
 18 29  2  0
  8  3  1  0
 29 13  1  0
 28 21  1  0
  1 30  1  0
  1 31  1  0
  1 32  1  0
  4 33  1  0
  5 34  1  0
  6 35  1  0
  7 36  1  0
 14 37  1  0
 15 38  1  0
 17 39  1  0
 19 40  1  0
 20 41  1  0
 20 42  1  0
 22 43  1  0
 23 44  1  0
 28 45  1  0
 29 46  1  0
M  CHG  3   9  -1  25  -1  27  -1
M  END
>  <UniqueID>  (8) 
7

>  <SMILES>  (8) 
COc1ccccc1[N-]S(=O)(=O)c1ccc(O)c(NCc2ccc([O-])c([O-])c2)c1

>  <Energy>  (8) 
52.48869535596582

>  <Genealogy>  (8) 
COc1ccccc1[N-]S(=O)(=O)c1ccc(O)c(NCc2ccc([O-])c([O-])c2)c1 (protonated)
COc1ccccc1[N-]S(=O)(=O)c1ccc(O)c(NCc2ccc([O-])c([O-])c2)c1 (3D coordinates assigned)
COc1ccccc1[N-]S(=O)(=O)c1ccc(O)c(NCc2ccc([O-])c([O-])c2)c1 (optimized conformer: 52.48869535596582 kcal/mol)

>  <smiles>  (8) 
COc1ccccc1NS(=O)(=O)c1ccc(O)c(NCc2ccc(O)c(O)c2)c1

>  <score_type>  (8) 
oracle

>  <origin>  (8) 
adgpu

>  <m_score__min__energy>  (8) 
-13.67

>  <m_primary>  (8) 
energy

$$$$
8:0
     RDKit          3D

 44 46  0  0  0  0  0  0  0  0999 V2000
   -5.8580   24.2680  -32.0090 O   0  0  0  0  0  0  0  0  0  0  0  0
   -5.8340   23.3010  -31.2010 C   0  0  0  0  0  0  0  0  0  0  0  0
   -4.9440   23.3270  -30.0700 N   0  0  0  0  0  0  0  0  0  0  0  0
   -3.9010   24.3040  -29.8960 C   0  0  0  0  0  0  0  0  0  0  0  0
   -3.8490   25.3140  -30.6500 O   0  0  0  0  0  0  0  0  0  0  0  0
   -2.8890   24.1540  -28.8220 C   0  0  0  0  0  0  0  0  0  0  0  0
   -3.1160   23.3040  -27.7240 C   0  0  0  0  0  0  0  0  0  0  0  0
   -2.1510   23.1660  -26.7220 C   0  0  0  0  0  0  0  0  0  0  0  0
   -0.9430   23.8680  -26.8050 C   0  0  0  0  0  0  0  0  0  0  0  0
    0.2750   23.7210  -25.5390 S   0  0  0  0  0  0  0  0  0  0  0  0
    1.6350   23.7360  -26.1810 O   0  0  0  0  0  0  0  0  0  0  0  0
    0.1040   22.4150  -24.8100 O   0  0  0  0  0  0  0  0  0  0  0  0
    0.1330   25.0590  -24.4210 N   0  0  0  0  0  0  0  0  0  0  0  0
    1.0740   26.1350  -24.7580 C   0  0  0  0  0  0  0  0  0  0  0  0
    0.3410   27.1280  -25.6490 C   0  0  0  0  0  0  0  0  0  0  0  0
   -1.1370   26.8230  -25.4730 C   0  0  0  0  0  0  0  0  0  0  0  0
   -1.2040   25.6640  -24.4880 C   0  0  0  0  0  0  0  0  0  0  0  0
   -0.7060   24.7100  -27.8980 C   0  0  0  0  0  0  0  0  0  0  0  0
   -1.6680   24.8470  -28.9020 C   0  0  0  0  0  0  0  0  0  0  0  0
   -6.7450   22.1510  -31.4260 C   0  0  0  0  0  0  0  0  0  0  0  0
   -8.0850   22.2210  -30.9990 C   0  0  0  0  0  0  0  0  0  0  0  0
   -8.9530   21.1450  -31.2110 C   0  0  0  0  0  0  0  0  0  0  0  0
   -8.4980   19.9940  -31.8560 C   0  0  0  0  0  0  0  0  0  0  0  0
   -7.1750   19.9170  -32.2960 C   0  0  0  0  0  0  0  0  0  0  0  0
   -6.3010   20.9890  -32.0860 C   0  0  0  0  0  0  0  0  0  0  0  0
   -5.1090   22.6430  -29.3000 H   0  0  0  0  0  0  0  0  0  0  0  0
   -4.0600   22.7438  -27.6535 H   0  0  0  0  0  0  0  0  0  0  0  0
   -2.3418   22.5032  -25.8651 H   0  0  0  0  0  0  0  0  0  0  0  0
    0.3200   24.7030  -23.4550 H   0  0  0  0  0  0  0  0  0  0  0  0
    1.4148   26.6359  -23.8399 H   0  0  0  0  0  0  0  0  0  0  0  0
    1.9546   25.7285  -25.2769 H   0  0  0  0  0  0  0  0  0  0  0  0
    0.5600   28.1594  -25.3354 H   0  0  0  0  0  0  0  0  0  0  0  0
    0.6524   27.0379  -26.7002 H   0  0  0  0  0  0  0  0  0  0  0  0
   -1.6642   27.7001  -25.0696 H   0  0  0  0  0  0  0  0  0  0  0  0
   -1.6163   26.5704  -26.4304 H   0  0  0  0  0  0  0  0  0  0  0  0
   -1.4988   26.0329  -23.4945 H   0  0  0  0  0  0  0  0  0  0  0  0
   -1.9474   24.9221  -24.8150 H   0  0  0  0  0  0  0  0  0  0  0  0
    0.2408   25.2657  -27.9666 H   0  0  0  0  0  0  0  0  0  0  0  0
   -1.4685   25.5026  -29.7625 H   0  0  0  0  0  0  0  0  0  0  0  0
   -8.4515   23.1277  -30.4955 H   0  0  0  0  0  0  0  0  0  0  0  0
   -9.9966   21.2060  -30.8686 H   0  0  0  0  0  0  0  0  0  0  0  0
   -9.1816   19.1475  -32.0177 H   0  0  0  0  0  0  0  0  0  0  0  0
   -6.8192   19.0113  -32.8089 H   0  0  0  0  0  0  0  0  0  0  0  0
   -5.2610   20.9238  -32.4384 H   0  0  0  0  0  0  0  0  0  0  0  0
  1  2  2  0
  2  3  1  0
  3  4  1  0
  4  5  2  0
  4  6  1  0
  6  7  2  0
  7  8  1  0
  8  9  2  0
  9 10  1  0
 10 11  2  0
 10 12  2  0
 10 13  1  0
 13 14  1  0
 14 15  1  0
 15 16  1  0
 16 17  1  0
  9 18  1  0
 18 19  2  0
  2 20  1  0
 20 21  2  0
 21 22  1  0
 22 23  2  0
 23 24  1  0
 24 25  2  0
 19  6  1  0
 25 20  1  0
 17 13  1  0
  3 26  1  0
  7 27  1  0
  8 28  1  0
 13 29  1  0
 14 30  1  0
 14 31  1  0
 15 32  1  0
 15 33  1  0
 16 34  1  0
 16 35  1  0
 17 36  1  0
 17 37  1  0
 18 38  1  0
 19 39  1  0
 21 40  1  0
 22 41  1  0
 23 42  1  0
 24 43  1  0
 25 44  1  0
M  CHG  1  13   1
M  END
>  <UniqueID>  (9) 
8

>  <SMILES>  (9) 
O=C(NC(=O)c1ccc(S(=O)(=O)[NH+]2CCCC2)cc1)c1ccccc1

>  <Energy>  (9) 
52.30924984879569

>  <Genealogy>  (9) 
O=C(NC(=O)c1ccc(S(=O)(=O)[NH+]2CCCC2)cc1)c1ccccc1 (protonated)
O=C(NC(=O)c1ccc(S(=O)(=O)[NH+]2CCCC2)cc1)c1ccccc1 (3D coordinates assigned)
O=C(NC(=O)c1ccc(S(=O)(=O)[NH+]2CCCC2)cc1)c1ccccc1 (nonaromatic ring conformer: 52.30924984879569 kcal/mol)

>  <smiles>  (9) 
O=C(NC(=O)c1ccc(S(=O)(=O)N2CCCC2)cc1)c1ccccc1

>  <score_type>  (9) 
oracle

>  <origin>  (9) 
adgpu

>  <m_score__min__energy>  (9) 
-9.6300000000000008

>  <m_primary>  (9) 
energy

$$$$
9:0
     RDKit          3D

 45 48  0  0  0  0  0  0  0  0999 V2000
   -4.2550   21.2280  -30.4430 O   0  0  0  0  0  0  0  0  0  0  0  0
   -4.7070   21.9760  -31.6680 S   0  0  0  0  0  0  0  0  0  0  0  0
   -4.3040   23.4170  -31.5200 O   0  0  0  0  0  0  0  0  0  0  0  0
   -6.4690   21.8850  -31.7990 C   0  0  0  0  0  0  0  0  0  0  0  0
   -7.2250   23.0670  -31.8430 C   0  0  0  0  0  0  0  0  0  0  0  0
   -8.6170   23.0160  -31.9320 C   0  0  0  0  0  0  0  0  0  0  0  0
   -9.2770   21.7860  -31.9730 C   0  0  0  0  0  0  0  0  0  0  0  0
   -8.5400   20.5950  -31.9230 C   0  0  0  0  0  0  0  0  0  0  0  0
   -9.1800   19.3490  -31.9570 C   0  0  0  0  0  0  0  0  0  0  0  0
   -8.4220   18.1770  -31.9000 C   0  0  0  0  0  0  0  0  0  0  0  0
   -7.0320   18.2620  -31.8110 C   0  0  0  0  0  0  0  0  0  0  0  0
   -6.4220   19.4770  -31.7800 N   0  0  0  0  0  0  0  0  0  0  0  0
   -7.1290   20.6410  -31.8340 C   0  0  0  0  0  0  0  0  0  0  0  0
   -3.9820   21.2830  -33.1060 N   0  0  0  0  0  0  0  0  0  0  0  0
   -3.9250   19.7960  -33.0220 C   0  0  0  0  0  0  0  0  0  0  0  0
   -2.5120   19.2360  -32.7810 C   0  0  0  0  0  0  0  0  0  0  0  0
   -1.7420   20.1530  -31.9350 N   0  0  0  0  0  0  0  0  0  0  0  0
   -1.1470   19.7110  -30.6990 C   0  0  0  0  0  0  0  0  0  0  0  0
   -0.1040   18.7670  -30.7060 C   0  0  0  0  0  0  0  0  0  0  0  0
    0.4580   18.3270  -29.5050 C   0  0  0  0  0  0  0  0  0  0  0  0
   -0.0160   18.8180  -28.2870 C   0  0  0  0  0  0  0  0  0  0  0  0
   -1.0590   19.7490  -28.2670 C   0  0  0  0  0  0  0  0  0  0  0  0
   -1.6570   20.3630  -26.7350 Cl  0  0  0  0  0  0  0  0  0  0  0  0
   -1.6250   20.1920  -29.4680 C   0  0  0  0  0  0  0  0  0  0  0  0
   -1.6020   21.5470  -32.3670 C   0  0  0  0  0  0  0  0  0  0  0  0
   -2.6740   21.9090  -33.4080 C   0  0  0  0  0  0  0  0  0  0  0  0
   -6.7161   24.0416  -31.8070 H   0  0  0  0  0  0  0  0  0  0  0  0
   -9.1973   23.9497  -31.9700 H   0  0  0  0  0  0  0  0  0  0  0  0
  -10.3741   21.7520  -32.0445 H   0  0  0  0  0  0  0  0  0  0  0  0
  -10.2763   19.2939  -32.0284 H   0  0  0  0  0  0  0  0  0  0  0  0
   -8.9169   17.1949  -31.9251 H   0  0  0  0  0  0  0  0  0  0  0  0
   -6.4281   17.3437  -31.7658 H   0  0  0  0  0  0  0  0  0  0  0  0
   -4.6230   21.5310  -33.8950 H   0  0  0  0  0  0  0  0  0  0  0  0
   -4.5716   19.4714  -32.1934 H   0  0  0  0  0  0  0  0  0  0  0  0
   -4.2585   19.4094  -33.9963 H   0  0  0  0  0  0  0  0  0  0  0  0
   -2.5886   18.2588  -32.2819 H   0  0  0  0  0  0  0  0  0  0  0  0
   -2.0001   19.1243  -33.7482 H   0  0  0  0  0  0  0  0  0  0  0  0
    0.2711   18.3732  -31.6622 H   0  0  0  0  0  0  0  0  0  0  0  0
    1.2761   17.5918  -29.5191 H   0  0  0  0  0  0  0  0  0  0  0  0
    0.4310   18.4725  -27.3432 H   0  0  0  0  0  0  0  0  0  0  0  0
   -2.4487   20.9208  -29.4483 H   0  0  0  0  0  0  0  0  0  0  0  0
   -1.7104   22.2072  -31.4939 H   0  0  0  0  0  0  0  0  0  0  0  0
   -0.6100   21.6752  -32.8248 H   0  0  0  0  0  0  0  0  0  0  0  0
   -2.7992   23.0018  -33.4221 H   0  0  0  0  0  0  0  0  0  0  0  0
   -2.3369   21.5317  -34.3847 H   0  0  0  0  0  0  0  0  0  0  0  0
  1  2  2  0
  2  3  2  0
  2  4  1  0
  4  5  2  0
  5  6  1  0
  6  7  2  0
  7  8  1  0
  8  9  2  0
  9 10  1  0
 10 11  2  0
 11 12  1  0
 12 13  2  0
  2 14  1  0
 14 15  1  0
 15 16  1  0
 16 17  1  0
 17 18  1  0
 18 19  2  0
 19 20  1  0
 20 21  2  0
 21 22  1  0
 22 23  1  0
 22 24  2  0
 17 25  1  0
 25 26  1  0
 13  4  1  0
 26 14  1  0
 13  8  1  0
 24 18  1  0
  5 27  1  0
  6 28  1  0
  7 29  1  0
  9 30  1  0
 10 31  1  0
 11 32  1  0
 14 33  1  0
 15 34  1  0
 15 35  1  0
 16 36  1  0
 16 37  1  0
 19 38  1  0
 20 39  1  0
 21 40  1  0
 24 41  1  0
 25 42  1  0
 25 43  1  0
 26 44  1  0
 26 45  1  0
M  CHG  1  14   1
M  END
>  <UniqueID>  (10) 
9

>  <SMILES>  (10) 
O=S(=O)(c1cccc2cccnc12)[NH+]1CCN(c2cccc(Cl)c2)CC1

>  <Energy>  (10) 
62.78697936042067

>  <Genealogy>  (10) 
O=S(=O)(c1cccc2cccnc12)[NH+]1CCN(c2cccc(Cl)c2)CC1 (protonated)
O=S(=O)(c1cccc2cccnc12)[NH+]1CCN(c2cccc(Cl)c2)CC1 (3D coordinates assigned)
O=S(=O)(c1cccc2cccnc12)[NH+]1CCN(c2cccc(Cl)c2)CC1 (nonaromatic ring conformer: 62.78697936042067 kcal/mol)

>  <smiles>  (10) 
O=S(=O)(c1cccc2cccnc12)N1CCN(c2cccc(Cl)c2)CC1

>  <score_type>  (10) 
oracle

>  <origin>  (10) 
adgpu

>  <m_score__min__energy>  (10) 
-8.0099999999999998

>  <m_primary>  (10) 
energy

$$$$
10:0
     RDKit          3D

 36 38  0  0  0  0  0  0  0  0999 V2000
   -4.3134   16.5276  -35.0750 H   0  0  0  0  0  0  0  0  0  0  0  0
   -5.0130   17.2270  -34.5940 C   0  0  0  0  0  0  0  0  0  0  0  0
   -5.6920   18.1740  -35.2060 O   0  0  0  0  0  0  0  0  0  0  0  0
   -6.4320   18.8310  -34.3620 N   0  0  0  0  0  0  0  0  0  0  0  0
   -7.0560   19.6270  -34.6180 H   0  0  0  0  0  0  0  0  0  0  0  0
   -6.2270   18.2880  -33.1470 C   0  0  0  0  0  0  0  0  0  0  0  0
   -6.7950   18.6720  -32.0440 N   0  0  0  0  0  0  0  0  0  0  0  0
   -7.9400   19.9700  -31.9380 S   0  0  0  0  0  0  0  0  0  0  0  0
   -8.6720   20.0870  -33.2450 O   0  0  0  0  0  0  0  0  0  0  0  0
   -8.9300   19.6640  -30.8490 O   0  0  0  0  0  0  0  0  0  0  0  0
   -7.1100   21.4880  -31.6120 C   0  0  0  0  0  0  0  0  0  0  0  0
   -5.9840   21.8460  -32.3640 C   0  0  0  0  0  0  0  0  0  0  0  0
   -5.6225   21.1788  -33.1603 H   0  0  0  0  0  0  0  0  0  0  0  0
   -5.3180   23.0470  -32.1070 C   0  0  0  0  0  0  0  0  0  0  0  0
   -4.4271   23.3142  -32.6942 H   0  0  0  0  0  0  0  0  0  0  0  0
   -5.7790   23.9160  -31.1030 C   0  0  0  0  0  0  0  0  0  0  0  0
   -5.0790   25.1920  -30.8220 C   0  0  0  0  0  0  0  0  0  0  0  0
   -5.7300   26.2700  -30.8470 O   0  0  0  0  0  0  0  0  0  0  0  0
   -3.6900   25.2380  -30.4680 N   0  0  0  0  0  0  0  0  0  0  0  0
   -3.0520   24.4630  -29.4440 C   0  0  0  0  0  0  0  0  0  0  0  0
   -1.6500   24.4000  -29.3300 C   0  0  0  0  0  0  0  0  0  0  0  0
   -1.0164   24.9452  -30.0450 H   0  0  0  0  0  0  0  0  0  0  0  0
   -1.0610   23.6460  -28.3100 C   0  0  0  0  0  0  0  0  0  0  0  0
    0.0348   23.5890  -28.2320 H   0  0  0  0  0  0  0  0  0  0  0  0
   -1.8620   22.9650  -27.3900 C   0  0  0  0  0  0  0  0  0  0  0  0
   -1.2890   22.2350  -26.4010 F   0  0  0  0  0  0  0  0  0  0  0  0
   -3.2540   23.0420  -27.4850 C   0  0  0  0  0  0  0  0  0  0  0  0
   -3.8847   22.5099  -26.7576 H   0  0  0  0  0  0  0  0  0  0  0  0
   -3.8460   23.7950  -28.5040 C   0  0  0  0  0  0  0  0  0  0  0  0
   -4.9421   23.8629  -28.5674 H   0  0  0  0  0  0  0  0  0  0  0  0
   -6.9030   23.5470  -30.3450 C   0  0  0  0  0  0  0  0  0  0  0  0
   -7.2626   24.2087  -29.5432 H   0  0  0  0  0  0  0  0  0  0  0  0
   -7.5670   22.3450  -30.6030 C   0  0  0  0  0  0  0  0  0  0  0  0
   -8.4526   22.0706  -30.0110 H   0  0  0  0  0  0  0  0  0  0  0  0
   -5.3240   17.2560  -33.2460 C   0  0  0  0  0  0  0  0  0  0  0  0
   -4.9402   16.6077  -32.4445 H   0  0  0  0  0  0  0  0  0  0  0  0
  1  2  1  0
  2  3  1  0
  3  4  1  0
  4  5  1  0
  4  6  1  0
  6  7  2  0
  7  8  1  0
  8  9  2  0
  8 10  2  0
  8 11  1  0
 11 12  2  0
 12 13  1  0
 12 14  1  0
 14 15  1  0
 14 16  2  0
 16 17  1  0
 17 18  2  0
 17 19  1  0
 19 20  1  0
 20 21  2  0
 21 22  1  0
 21 23  1  0
 23 24  1  0
 23 25  2  0
 25 26  1  0
 25 27  1  0
 27 28  1  0
 27 29  2  0
 29 30  1  0
 16 31  1  0
 31 32  1  0
 31 33  2  0
 33 34  1  0
  6 35  1  0
 35 36  1  0
 35  2  2  0
 33 11  1  0
 29 20  1  0
M  CHG  1  19  -1
M  END
>  <UniqueID>  (11) 
10

>  <SMILES>  (11) 
O=C([N-]c1ccc(F)cc1)c1ccc(S(=O)(=O)/N=c2/cco[nH]2)cc1

>  <Energy>  (11) 
80.57304777133774

>  <Genealogy>  (11) 
O=C([N-]c1ccc(F)cc1)c1ccc(S(=O)(=O)N=c2cco[nH]2)cc1 (protonated)
O=C([N-]c1ccc(F)cc1)c1ccc(S(=O)(=O)/N=c2/cco[nH]2)cc1 (cis-trans isomerization)
O=C([N-]c1ccc(F)cc1)c1ccc(S(=O)(=O)/N=c2/cco[nH]2)cc1 (3D coordinates assigned)
O=C([N-]c1ccc(F)cc1)c1ccc(S(=O)(=O)/N=c2/cco[nH]2)cc1 (optimized conformer: 80.57304777133774 kcal/mol)

>  <smiles>  (11) 
O=C(Nc1ccc(F)cc1)c1ccc(S(=O)(=O)N=c2cco[nH]2)cc1

>  <score_type>  (11) 
oracle

>  <origin>  (11) 
adgpu

>  <m_score__min__energy>  (11) 
-10.699999999999999

>  <m_primary>  (11) 
energy

$$$$
11:0
     RDKit          3D

 50 53  0  0  0  0  0  0  0  0999 V2000
   -0.9580   27.2890  -23.8840 N   0  0  0  0  0  0  0  0  0  0  0  0
   -1.2640   26.7310  -24.8510 C   0  0  0  0  0  0  0  0  0  0  0  0
   -1.6450   26.0360  -26.0530 C   0  0  0  0  0  0  0  0  0  0  0  0
   -2.7960   25.2410  -26.0690 C   0  0  0  0  0  0  0  0  0  0  0  0
   -3.1680   24.5690  -27.2380 C   0  0  0  0  0  0  0  0  0  0  0  0
   -2.3850   24.6710  -28.3980 C   0  0  0  0  0  0  0  0  0  0  0  0
   -2.8010   23.9870  -29.5930 N   0  0  0  0  0  0  0  0  0  0  0  0
   -3.8170   24.4650  -30.4840 C   0  0  0  0  0  0  0  0  0  0  0  0
   -4.2350   25.6510  -30.3990 O   0  0  0  0  0  0  0  0  0  0  0  0
   -4.2810   23.6080  -31.5330 N   0  0  0  0  0  0  0  0  0  0  0  0
   -5.5980   23.0460  -31.6590 C   0  0  0  0  0  0  0  0  0  0  0  0
   -6.7490   23.8250  -31.4770 C   0  0  0  0  0  0  0  0  0  0  0  0
   -8.0120   23.2450  -31.5750 C   0  0  0  0  0  0  0  0  0  0  0  0
   -8.1530   21.8800  -31.8460 C   0  0  0  0  0  0  0  0  0  0  0  0
   -9.7960   21.2560  -31.9320 Cl  0  0  0  0  0  0  0  0  0  0  0  0
   -7.0010   21.0730  -32.0180 C   0  0  0  0  0  0  0  0  0  0  0  0
   -7.0870   19.3230  -32.3290 S   0  0  0  0  0  0  0  0  0  0  0  0
   -7.1360   18.5210  -31.0600 O   0  0  0  0  0  0  0  0  0  0  0  0
   -8.3510   19.0390  -33.0910 O   0  0  0  0  0  0  0  0  0  0  0  0
   -5.6860   18.8190  -33.3400 C   0  0  2  0  0  0  0  0  0  0  0  0
   -6.1300   18.2040  -34.6970 C   0  0  0  0  0  0  0  0  0  0  0  0
   -5.3490   16.8960  -34.9560 C   0  0  2  0  0  0  0  0  0  0  0  0
   -5.7240   15.8770  -33.8540 C   0  0  0  0  0  0  0  0  0  0  0  0
   -5.3560   16.4470  -32.4620 C   0  0  0  0  0  0  0  0  0  0  0  0
   -4.7130   17.8470  -32.6120 C   0  0  1  0  0  0  0  0  0  0  0  0
   -3.4880   17.6690  -33.5410 C   0  0  0  0  0  0  0  0  0  0  0  0
   -3.8990   17.1890  -34.8860 N   0  0  0  0  0  0  0  0  0  0  0  0
   -5.7270   21.6720  -31.9060 C   0  0  0  0  0  0  0  0  0  0  0  0
   -4.5760   20.9010  -32.0410 O   0  0  0  0  0  0  0  0  0  0  0  0
   -1.2400   25.4910  -28.3810 C   0  0  0  0  0  0  0  0  0  0  0  0
   -0.8710   26.1640  -27.2120 C   0  0  0  0  0  0  0  0  0  0  0  0
   -3.4093   25.1442  -25.1610 H   0  0  0  0  0  0  0  0  0  0  0  0
   -4.0813   23.9559  -27.2481 H   0  0  0  0  0  0  0  0  0  0  0  0
   -2.2810   23.1250  -29.8740 H   0  0  0  0  0  0  0  0  0  0  0  0
   -6.6547   24.8984  -31.2559 H   0  0  0  0  0  0  0  0  0  0  0  0
   -8.9084   23.8676  -31.4377 H   0  0  0  0  0  0  0  0  0  0  0  0
   -5.1341   19.7499  -33.5371 H   0  0  0  0  0  0  0  0  0  0  0  0
   -7.2077   17.9861  -34.6646 H   0  0  0  0  0  0  0  0  0  0  0  0
   -5.9220   18.9190  -35.5066 H   0  0  0  0  0  0  0  0  0  0  0  0
   -5.5959   16.4844  -35.9457 H   0  0  0  0  0  0  0  0  0  0  0  0
   -6.8054   15.6791  -33.8929 H   0  0  0  0  0  0  0  0  0  0  0  0
   -5.1688   14.9422  -34.0209 H   0  0  0  0  0  0  0  0  0  0  0  0
   -6.2666   16.5288  -31.8503 H   0  0  0  0  0  0  0  0  0  0  0  0
   -4.6370   15.7714  -31.9756 H   0  0  0  0  0  0  0  0  0  0  0  0
   -4.4586   18.2501  -31.6206 H   0  0  0  0  0  0  0  0  0  0  0  0
   -2.9742   18.6359  -33.6466 H   0  0  0  0  0  0  0  0  0  0  0  0
   -2.8175   16.9204  -33.0938 H   0  0  0  0  0  0  0  0  0  0  0  0
   -3.3700   16.3130  -35.1130 H   0  0  0  0  0  0  0  0  0  0  0  0
   -0.6331   25.6026  -29.2916 H   0  0  0  0  0  0  0  0  0  0  0  0
    0.0297   26.7954  -27.2034 H   0  0  0  0  0  0  0  0  0  0  0  0
  1  2  3  0
  2  3  1  0
  3  4  2  0
  4  5  1  0
  5  6  2  0
  6  7  1  0
  7  8  1  0
  8  9  2  0
  8 10  1  0
 10 11  1  0
 11 12  2  0
 12 13  1  0
 13 14  2  0
 14 15  1  0
 14 16  1  0
 16 17  1  0
 17 18  2  0
 17 19  2  0
 17 20  1  0
 20 21  1  0
 21 22  1  0
 22 23  1  0
 23 24  1  0
 24 25  1  0
 25 26  1  0
 26 27  1  0
 16 28  2  0
 28 29  1  0
  6 30  1  0
 30 31  2  0
 31  3  1  0
 28 11  1  0
 25 20  1  0
 27 22  1  0
  4 32  1  0
  5 33  1  0
  7 34  1  0
 12 35  1  0
 13 36  1  0
 20 37  1  6
 21 38  1  0
 21 39  1  0
 22 40  1  6
 23 41  1  0
 23 42  1  0
 24 43  1  0
 24 44  1  0
 25 45  1  1
 26 46  1  0
 26 47  1  0
 27 48  1  0
 30 49  1  0
 31 50  1  0
M  CHG  2  10  -1  29  -1
M  END
>  <UniqueID>  (12) 
11

>  <SMILES>  (12) 
N#Cc1ccc(NC(=O)[N-]c2ccc(Cl)c(S(=O)(=O)[C@@H]3C[C@@H]4CCC3CN4)c2[O-])cc1

>  <Energy>  (12) 
74.73639862592037

>  <Genealogy>  (12) 
N#Cc1ccc(NC(=O)[N-]c2ccc(Cl)c(S(=O)(=O)C3CC4CCC3CN4)c2[O-])cc1 (protonated)
N#Cc1ccc(NC(=O)[N-]c2ccc(Cl)c(S(=O)(=O)[C@@H]3C[C@@H]4CCC3CN4)c2[O-])cc1 (chirality)
N#Cc1ccc(NC(=O)[N-]c2ccc(Cl)c(S(=O)(=O)[C@@H]3C[C@@H]4CCC3CN4)c2[O-])cc1 (3D coordinates assigned)
N#Cc1ccc(NC(=O)[N-]c2ccc(Cl)c(S(=O)(=O)[C@@H]3C[C@@H]4CCC3CN4)c2[O-])cc1 (nonaromatic ring conformer: 74.73639862592037 kcal/mol)

>  <smiles>  (12) 
N#Cc1ccc(NC(=O)Nc2ccc(Cl)c(S(=O)(=O)C3CC4CCC3CN4)c2O)cc1

>  <score_type>  (12) 
oracle

>  <origin>  (12) 
adgpu

>  <m_score__min__energy>  (12) 
-14.18

>  <m_primary>  (12) 
energy

$$$$
12:0
     RDKit          3D

 57 60  0  0  0  0  0  0  0  0999 V2000
   -8.4510   22.7830  -31.6680 C   0  0  0  0  0  0  0  0  0  0  0  0
   -7.1480   23.4100  -31.2530 C   0  0  0  0  0  0  0  0  0  0  0  0
   -7.1640   24.5720  -30.4650 C   0  0  0  0  0  0  0  0  0  0  0  0
   -5.9720   25.1800  -30.0710 C   0  0  0  0  0  0  0  0  0  0  0  0
   -4.7390   24.6530  -30.4840 C   0  0  0  0  0  0  0  0  0  0  0  0
   -3.4950   25.2600  -30.1040 N   0  0  0  0  0  0  0  0  0  0  0  0
   -2.4500   24.6400  -29.3410 C   0  0  0  0  0  0  0  0  0  0  0  0
   -1.6660   25.3760  -28.6840 O   0  0  0  0  0  0  0  0  0  0  0  0
   -2.3020   23.1670  -29.2630 C   0  0  0  0  0  0  0  0  0  0  0  0
   -2.7830   22.4540  -28.1550 C   0  0  0  0  0  0  0  0  0  0  0  0
   -2.6270   21.0710  -28.1060 C   0  0  0  0  0  0  0  0  0  0  0  0
   -2.0070   20.4180  -29.1230 N   0  0  0  0  0  0  0  0  0  0  0  0
   -1.5140   21.0660  -30.2170 C   0  0  0  0  0  0  0  0  0  0  0  0
   -0.8600   20.3030  -31.2630 N   0  0  0  0  0  0  0  0  0  0  0  0
   -0.9110   20.8260  -32.6420 C   0  0  0  0  0  0  0  0  0  0  0  0
    0.0930   20.1300  -33.5650 C   0  0  0  0  0  0  0  0  0  0  0  0
    0.0710   18.7320  -33.3730 O   0  0  0  0  0  0  0  0  0  0  0  0
    0.5760   18.4420  -32.0900 C   0  0  0  0  0  0  0  0  0  0  0  0
   -0.3810   18.9350  -31.0020 C   0  0  0  0  0  0  0  0  0  0  0  0
   -1.6480   22.4680  -30.2910 C   0  0  0  0  0  0  0  0  0  0  0  0
   -4.7150   23.4880  -31.2560 C   0  0  0  0  0  0  0  0  0  0  0  0
   -5.9080   22.8560  -31.6500 C   0  0  0  0  0  0  0  0  0  0  0  0
   -5.8610   21.6890  -32.4900 N   0  0  0  0  0  0  0  0  0  0  0  0
   -6.3910   20.4140  -32.0900 C   0  0  0  0  0  0  0  0  0  0  0  0
   -7.2130   20.3550  -31.1330 O   0  0  0  0  0  0  0  0  0  0  0  0
   -6.0250   19.1720  -32.8120 C   0  0  0  0  0  0  0  0  0  0  0  0
   -6.9900   18.1720  -33.0270 C   0  0  0  0  0  0  0  0  0  0  0  0
   -6.6500   16.9890  -33.6860 C   0  0  0  0  0  0  0  0  0  0  0  0
   -5.3480   16.7900  -34.1470 C   0  0  0  0  0  0  0  0  0  0  0  0
   -4.3700   17.7800  -33.9610 C   0  0  0  0  0  0  0  0  0  0  0  0
   -2.9490   17.5390  -34.4040 C   0  0  0  0  0  0  0  0  0  0  0  0
   -2.2850   16.8130  -33.4320 F   0  0  0  0  0  0  0  0  0  0  0  0
   -2.9200   16.8330  -35.5940 F   0  0  0  0  0  0  0  0  0  0  0  0
   -2.2880   18.7410  -34.5970 F   0  0  0  0  0  0  0  0  0  0  0  0
   -4.7090   18.9570  -33.2660 C   0  0  0  0  0  0  0  0  0  0  0  0
   -9.0264   22.5061  -30.7723 H   0  0  0  0  0  0  0  0  0  0  0  0
   -9.0291   23.5015  -32.2676 H   0  0  0  0  0  0  0  0  0  0  0  0
   -8.2502   21.8829  -32.2676 H   0  0  0  0  0  0  0  0  0  0  0  0
   -8.1257   25.0070  -30.1554 H   0  0  0  0  0  0  0  0  0  0  0  0
   -5.9988   26.0763  -29.4339 H   0  0  0  0  0  0  0  0  0  0  0  0
   -3.2806   22.9842  -27.3296 H   0  0  0  0  0  0  0  0  0  0  0  0
   -3.0067   20.5062  -27.2418 H   0  0  0  0  0  0  0  0  0  0  0  0
   -1.9243   20.6721  -33.0414 H   0  0  0  0  0  0  0  0  0  0  0  0
   -0.6510   21.8943  -32.6066 H   0  0  0  0  0  0  0  0  0  0  0  0
   -0.1646   20.3537  -34.6108 H   0  0  0  0  0  0  0  0  0  0  0  0
    1.1015   20.5005  -33.3291 H   0  0  0  0  0  0  0  0  0  0  0  0
    0.7042   17.3540  -31.9909 H   0  0  0  0  0  0  0  0  0  0  0  0
    1.5412   18.9553  -31.9680 H   0  0  0  0  0  0  0  0  0  0  0  0
   -1.2471   18.2583  -30.9584 H   0  0  0  0  0  0  0  0  0  0  0  0
    0.1669   18.9444  -30.0482 H   0  0  0  0  0  0  0  0  0  0  0  0
   -1.2402   23.0144  -31.1542 H   0  0  0  0  0  0  0  0  0  0  0  0
   -3.7487   23.0592  -31.5599 H   0  0  0  0  0  0  0  0  0  0  0  0
   -5.4880   21.7900  -33.4610 H   0  0  0  0  0  0  0  0  0  0  0  0
   -8.0206   18.3229  -32.6733 H   0  0  0  0  0  0  0  0  0  0  0  0
   -7.4115   16.2107  -33.8424 H   0  0  0  0  0  0  0  0  0  0  0  0
   -5.0865   15.8522  -34.6590 H   0  0  0  0  0  0  0  0  0  0  0  0
   -3.9372   19.7173  -33.0755 H   0  0  0  0  0  0  0  0  0  0  0  0
  1  2  1  0
  2  3  2  0
  3  4  1  0
  4  5  2  0
  5  6  1  0
  6  7  1  0
  7  8  2  0
  7  9  1  0
  9 10  2  0
 10 11  1  0
 11 12  2  0
 12 13  1  0
 13 14  1  0
 14 15  1  0
 15 16  1  0
 16 17  1  0
 17 18  1  0
 18 19  1  0
 13 20  2  0
  5 21  1  0
 21 22  2  0
 22 23  1  0
 23 24  1  0
 24 25  2  0
 24 26  1  0
 26 27  2  0
 27 28  1  0
 28 29  2  0
 29 30  1  0
 30 31  1  0
 31 32  1  0
 31 33  1  0
 31 34  1  0
 30 35  2  0
 22  2  1  0
 35 26  1  0
 20  9  1  0
 19 14  1  0
  1 36  1  0
  1 37  1  0
  1 38  1  0
  3 39  1  0
  4 40  1  0
 10 41  1  0
 11 42  1  0
 15 43  1  0
 15 44  1  0
 16 45  1  0
 16 46  1  0
 18 47  1  0
 18 48  1  0
 19 49  1  0
 19 50  1  0
 20 51  1  0
 21 52  1  0
 23 53  1  0
 27 54  1  0
 28 55  1  0
 29 56  1  0
 35 57  1  0
M  CHG  1   6  -1
M  END
>  <UniqueID>  (13) 
12

>  <SMILES>  (13) 
Cc1ccc([N-]C(=O)c2ccnc(N3CCOCC3)c2)cc1NC(=O)c1cccc(C(F)(F)F)c1

>  <Energy>  (13) 
79.53394028729669

>  <Genealogy>  (13) 
Cc1ccc([N-]C(=O)c2ccnc(N3CCOCC3)c2)cc1NC(=O)c1cccc(C(F)(F)F)c1 (protonated)
Cc1ccc([N-]C(=O)c2ccnc(N3CCOCC3)c2)cc1NC(=O)c1cccc(C(F)(F)F)c1 (3D coordinates assigned)
Cc1ccc([N-]C(=O)c2ccnc(N3CCOCC3)c2)cc1NC(=O)c1cccc(C(F)(F)F)c1 (nonaromatic ring conformer: 79.53394028729669 kcal/mol)

>  <smiles>  (13) 
Cc1ccc(NC(=O)c2ccnc(N3CCOCC3)c2)cc1NC(=O)c1cccc(C(F)(F)F)c1

>  <score_type>  (13) 
oracle

>  <origin>  (13) 
adgpu

>  <m_score__min__energy>  (13) 
-10.93

>  <m_primary>  (13) 
energy

$$$$
13:0
     RDKit          3D

 50 53  0  0  0  0  0  0  0  0999 V2000
   -7.0160   17.5240  -30.9450 O   0  0  0  0  0  0  0  0  0  0  0  0
   -7.0060   18.0560  -32.0900 C   0  0  0  0  0  0  0  0  0  0  0  0
   -8.0440   18.9720  -32.4660 N   0  0  0  0  0  0  0  0  0  0  0  0
   -8.0990   20.3820  -32.2000 C   0  0  0  0  0  0  0  0  0  0  0  0
   -9.3460   21.0210  -32.2370 C   0  0  0  0  0  0  0  0  0  0  0  0
   -9.4540   22.3850  -31.9470 C   0  0  0  0  0  0  0  0  0  0  0  0
   -8.3180   23.1210  -31.6030 C   0  0  0  0  0  0  0  0  0  0  0  0
   -7.0650   22.4930  -31.5520 C   0  0  0  0  0  0  0  0  0  0  0  0
   -5.6150   23.4090  -31.1460 S   0  0  0  0  0  0  0  0  0  0  0  0
   -4.4560   22.9930  -32.0090 O   0  0  0  0  0  0  0  0  0  0  0  0
   -5.8910   24.8690  -31.3840 O   0  0  0  0  0  0  0  0  0  0  0  0
   -5.2230   23.1760  -29.4710 N   0  0  0  0  0  0  0  0  0  0  0  0
   -3.9440   23.4470  -28.8720 C   0  0  0  0  0  0  0  0  0  0  0  0
   -3.5660   22.6990  -27.7460 C   0  0  0  0  0  0  0  0  0  0  0  0
   -2.3260   22.9120  -27.1390 C   0  0  0  0  0  0  0  0  0  0  0  0
   -1.4560   23.8840  -27.6430 C   0  0  0  0  0  0  0  0  0  0  0  0
   -1.8310   24.6550  -28.7450 C   0  0  0  0  0  0  0  0  0  0  0  0
   -3.0810   24.4570  -29.3550 C   0  0  0  0  0  0  0  0  0  0  0  0
   -3.4710   25.2860  -30.4040 O   0  0  0  0  0  0  0  0  0  0  0  0
   -6.9580   21.1230  -31.8400 C   0  0  0  0  0  0  0  0  0  0  0  0
   -5.8860   17.7890  -33.0270 C   0  0  0  0  0  0  0  0  0  0  0  0
   -6.0330   16.7940  -34.0110 C   0  0  0  0  0  0  0  0  0  0  0  0
   -4.9990   16.5250  -34.9060 C   0  0  0  0  0  0  0  0  0  0  0  0
   -3.8110   17.2430  -34.8090 C   0  0  0  0  0  0  0  0  0  0  0  0
   -3.6680   18.1920  -33.8500 N   0  0  0  0  0  0  0  0  0  0  0  0
   -4.6610   18.4960  -32.9640 C   0  0  0  0  0  0  0  0  0  0  0  0
   -4.4620   19.3790  -32.0270 N   0  0  0  0  0  0  0  0  0  0  0  0
   -3.2950   20.1980  -31.8390 C   0  0  0  0  0  0  0  0  0  0  0  0
   -2.9270   20.5560  -30.5300 C   0  0  0  0  0  0  0  0  0  0  0  0
   -1.8120   21.3720  -30.3020 C   0  0  0  0  0  0  0  0  0  0  0  0
   -1.0680   21.8540  -31.3830 C   0  0  0  0  0  0  0  0  0  0  0  0
   -1.4470   21.5330  -32.6940 C   0  0  0  0  0  0  0  0  0  0  0  0
   -2.5600   20.7150  -32.9250 C   0  0  0  0  0  0  0  0  0  0  0  0
  -10.2467   20.4452  -32.4961 H   0  0  0  0  0  0  0  0  0  0  0  0
  -10.4358   22.8791  -31.9900 H   0  0  0  0  0  0  0  0  0  0  0  0
   -8.4060   24.1929  -31.3721 H   0  0  0  0  0  0  0  0  0  0  0  0
   -4.2506   21.9403  -27.3390 H   0  0  0  0  0  0  0  0  0  0  0  0
   -2.0334   22.3142  -26.2632 H   0  0  0  0  0  0  0  0  0  0  0  0
   -0.4751   24.0413  -27.1707 H   0  0  0  0  0  0  0  0  0  0  0  0
   -1.1451   25.4204  -29.1371 H   0  0  0  0  0  0  0  0  0  0  0  0
   -3.7730   24.9130  -31.2950 H   0  0  0  0  0  0  0  0  0  0  0  0
   -5.9780   20.6266  -31.7840 H   0  0  0  0  0  0  0  0  0  0  0  0
   -6.9716   16.2239  -34.0744 H   0  0  0  0  0  0  0  0  0  0  0  0
   -5.1207   15.7535  -35.6806 H   0  0  0  0  0  0  0  0  0  0  0  0
   -2.9877   17.0411  -35.5100 H   0  0  0  0  0  0  0  0  0  0  0  0
   -3.5199   20.1921  -29.6779 H   0  0  0  0  0  0  0  0  0  0  0  0
   -1.5219   21.6334  -29.2736 H   0  0  0  0  0  0  0  0  0  0  0  0
   -0.1850   22.4853  -31.2049 H   0  0  0  0  0  0  0  0  0  0  0  0
   -0.8685   21.9248  -33.5436 H   0  0  0  0  0  0  0  0  0  0  0  0
   -2.8611   20.4756  -33.9555 H   0  0  0  0  0  0  0  0  0  0  0  0
  1  2  2  0
  2  3  1  0
  3  4  1  0
  4  5  2  0
  5  6  1  0
  6  7  2  0
  7  8  1  0
  8  9  1  0
  9 10  2  0
  9 11  2  0
  9 12  1  0
 12 13  1  0
 13 14  2  0
 14 15  1  0
 15 16  2  0
 16 17  1  0
 17 18  2  0
 18 19  1  0
  8 20  2  0
  2 21  1  0
 21 22  2  0
 22 23  1  0
 23 24  2  0
 24 25  1  0
 25 26  1  0
 26 27  2  3
 27 28  1  0
 28 29  2  0
 29 30  1  0
 30 31  2  0
 31 32  1  0
 32 33  2  0
 20  4  1  0
 26 21  1  0
 33 28  1  0
 18 13  1  0
  5 34  1  0
  6 35  1  0
  7 36  1  0
 14 37  1  0
 15 38  1  0
 16 39  1  0
 17 40  1  0
 19 41  1  0
 20 42  1  0
 22 43  1  0
 23 44  1  0
 24 45  1  0
 29 46  1  0
 30 47  1  0
 31 48  1  0
 32 49  1  0
 33 50  1  0
M  CHG  3   3  -1  12  -1  25  -1
M  END
>  <UniqueID>  (14) 
13

>  <SMILES>  (14) 
O=C([N-]c1cccc(S(=O)(=O)[N-]c2ccccc2O)c1)c1ccc[n-]c1=Nc1ccccc1

>  <Energy>  (14) 
76.08027531974614

>  <Genealogy>  (14) 
O=C([N-]c1cccc(S(=O)(=O)[N-]c2ccccc2O)c1)c1ccc[n-]c1=Nc1ccccc1 (protonated)
O=C([N-]c1cccc(S(=O)(=O)[N-]c2ccccc2O)c1)c1ccc[n-]c1=Nc1ccccc1 (3D coordinates assigned)
O=C([N-]c1cccc(S(=O)(=O)[N-]c2ccccc2O)c1)c1ccc[n-]c1=Nc1ccccc1 (optimized conformer: 76.08027531974614 kcal/mol)

>  <smiles>  (14) 
O=C(Nc1cccc(S(=O)(=O)Nc2ccccc2O)c1)c1ccc[nH]c1=Nc1ccccc1

>  <score_type>  (14) 
oracle

>  <origin>  (14) 
adgpu

>  <m_score__min__energy>  (14) 
-11.75

>  <m_primary>  (14) 
energy

$$$$
14:0
     RDKit          3D

 49 51  0  0  0  0  0  0  0  0999 V2000
   -2.9060   23.5630  -28.7780 O   0  0  0  0  0  0  0  0  0  0  0  0
   -2.8950   24.7070  -29.3100 C   0  0  0  0  0  0  0  0  0  0  0  0
   -1.8850   25.6610  -28.9560 N   0  0  0  0  0  0  0  0  0  0  0  0
   -1.3100   25.8570  -27.6560 C   0  0  0  0  0  0  0  0  0  0  0  0
   -2.1150   25.6530  -26.5280 C   0  0  0  0  0  0  0  0  0  0  0  0
   -1.5990   25.8520  -25.2440 C   0  0  0  0  0  0  0  0  0  0  0  0
   -0.2740   26.2700  -25.0770 C   0  0  0  0  0  0  0  0  0  0  0  0
    0.3850   26.5330  -23.4280 S   0  0  0  0  0  0  0  0  0  0  0  0
    2.1090   26.2130  -23.9170 C   0  0  0  0  0  0  0  0  0  0  0  0
    2.9690   26.6690  -22.9370 F   0  0  0  0  0  0  0  0  0  0  0  0
    2.2890   24.8520  -24.0780 F   0  0  0  0  0  0  0  0  0  0  0  0
    0.5270   26.5060  -26.1990 C   0  0  0  0  0  0  0  0  0  0  0  0
    0.0130   26.3060  -27.4840 C   0  0  0  0  0  0  0  0  0  0  0  0
   -3.8980   25.0760  -30.2660 N   0  0  0  0  0  0  0  0  0  0  0  0
   -5.0630   24.2870  -30.5610 C   0  0  0  0  0  0  0  0  0  0  0  0
   -5.7450   24.4930  -31.7680 C   0  0  0  0  0  0  0  0  0  0  0  0
   -6.8910   23.7510  -32.0720 C   0  0  0  0  0  0  0  0  0  0  0  0
   -7.3760   22.7990  -31.1640 C   0  0  0  0  0  0  0  0  0  0  0  0
   -8.8070   21.8430  -31.5590 S   0  0  0  0  0  0  0  0  0  0  0  0
   -9.8420   22.7340  -32.1860 O   0  0  0  0  0  0  0  0  0  0  0  0
   -9.3870   21.2750  -30.2930 O   0  0  0  0  0  0  0  0  0  0  0  0
   -8.4200   20.5360  -32.6550 N   0  0  0  0  0  0  0  0  0  0  0  0
   -9.1840   19.3060  -32.3290 C   0  0  0  0  0  0  0  0  0  0  0  0
   -8.3380   18.2470  -31.6060 C   0  0  0  0  0  0  0  0  0  0  0  0
   -7.1180   17.8410  -32.4510 C   0  0  0  0  0  0  0  0  0  0  0  0
   -6.5960   18.9880  -33.3350 C   0  0  0  0  0  0  0  0  0  0  0  0
   -6.9550   20.3510  -32.7360 C   0  0  0  0  0  0  0  0  0  0  0  0
   -6.7170   22.6140  -29.9420 C   0  0  0  0  0  0  0  0  0  0  0  0
   -5.5720   23.3540  -29.6390 C   0  0  0  0  0  0  0  0  0  0  0  0
   -3.1603   25.3341  -26.6533 H   0  0  0  0  0  0  0  0  0  0  0  0
   -2.2356   25.6797  -24.3636 H   0  0  0  0  0  0  0  0  0  0  0  0
    2.3217   26.7371  -24.8604 H   0  0  0  0  0  0  0  0  0  0  0  0
    1.5639   26.8498  -26.0703 H   0  0  0  0  0  0  0  0  0  0  0  0
    0.6446   26.5002  -28.3634 H   0  0  0  0  0  0  0  0  0  0  0  0
   -3.7140   25.9230  -30.8500 H   0  0  0  0  0  0  0  0  0  0  0  0
   -5.3761   25.2442  -32.4819 H   0  0  0  0  0  0  0  0  0  0  0  0
   -7.4133   23.9148  -33.0261 H   0  0  0  0  0  0  0  0  0  0  0  0
  -10.0301   19.5803  -31.6818 H   0  0  0  0  0  0  0  0  0  0  0  0
   -9.5195   18.8658  -33.2796 H   0  0  0  0  0  0  0  0  0  0  0  0
   -7.9899   18.6586  -30.6471 H   0  0  0  0  0  0  0  0  0  0  0  0
   -8.9608   17.3555  -31.4408 H   0  0  0  0  0  0  0  0  0  0  0  0
   -6.3112   17.5242  -31.7738 H   0  0  0  0  0  0  0  0  0  0  0  0
   -7.4341   17.0260  -33.1187 H   0  0  0  0  0  0  0  0  0  0  0  0
   -5.5020   18.9087  -33.4180 H   0  0  0  0  0  0  0  0  0  0  0  0
   -7.0651   18.9070  -34.3266 H   0  0  0  0  0  0  0  0  0  0  0  0
   -6.5290   20.4207  -31.7242 H   0  0  0  0  0  0  0  0  0  0  0  0
   -6.5426   21.1351  -33.3881 H   0  0  0  0  0  0  0  0  0  0  0  0
   -7.1033   21.8822  -29.2173 H   0  0  0  0  0  0  0  0  0  0  0  0
   -5.0652   23.2066  -28.6739 H   0  0  0  0  0  0  0  0  0  0  0  0
  1  2  2  0
  2  3  1  0
  3  4  1  0
  4  5  2  0
  5  6  1  0
  6  7  2  0
  7  8  1  0
  8  9  1  0
  9 10  1  0
  9 11  1  0
  7 12  1  0
 12 13  2  0
  2 14  1  0
 14 15  1  0
 15 16  2  0
 16 17  1  0
 17 18  2  0
 18 19  1  0
 19 20  2  0
 19 21  2  0
 19 22  1  0
 22 23  1  0
 23 24  1  0
 24 25  1  0
 25 26  1  0
 26 27  1  0
 18 28  1  0
 28 29  2  0
 13  4  1  0
 29 15  1  0
 27 22  1  0
  5 30  1  0
  6 31  1  0
  9 32  1  0
 12 33  1  0
 13 34  1  0
 14 35  1  0
 16 36  1  0
 17 37  1  0
 23 38  1  0
 23 39  1  0
 24 40  1  0
 24 41  1  0
 25 42  1  0
 25 43  1  0
 26 44  1  0
 26 45  1  0
 27 46  1  0
 27 47  1  0
 28 48  1  0
 29 49  1  0
M  CHG  1   3  -1
M  END
>  <UniqueID>  (15) 
14

>  <SMILES>  (15) 
O=C([N-]c1ccc(SC(F)F)cc1)Nc1ccc(S(=O)(=O)N2CCCCC2)cc1

>  <Energy>  (15) 
57.21434257541615

>  <Genealogy>  (15) 
O=C([N-]c1ccc(SC(F)F)cc1)Nc1ccc(S(=O)(=O)N2CCCCC2)cc1 (protonated)
O=C([N-]c1ccc(SC(F)F)cc1)Nc1ccc(S(=O)(=O)N2CCCCC2)cc1 (3D coordinates assigned)
O=C([N-]c1ccc(SC(F)F)cc1)Nc1ccc(S(=O)(=O)N2CCCCC2)cc1 (nonaromatic ring conformer: 57.21434257541615 kcal/mol)

>  <smiles>  (15) 
O=C(Nc1ccc(SC(F)F)cc1)Nc1ccc(S(=O)(=O)N2CCCCC2)cc1

>  <score_type>  (15) 
oracle

>  <origin>  (15) 
adgpu

>  <m_score__min__energy>  (15) 
-11.529999999999999

>  <m_primary>  (15) 
energy

$$$$
15:0
     RDKit          3D

 45 47  0  0  0  0  0  0  0  0999 V2000
    1.2050   27.4870  -22.6050 N   0  0  0  0  0  0  0  0  0  0  0  0
    0.5490   27.9630  -23.7860 C   0  0  0  0  0  0  0  0  0  0  0  0
    0.4000   29.2430  -23.9630 N   0  0  0  0  0  0  0  0  0  0  0  0
    0.0560   26.9960  -24.7990 C   0  0  0  0  0  0  0  0  0  0  0  0
    0.4630   27.1070  -26.1390 C   0  0  0  0  0  0  0  0  0  0  0  0
    0.0060   26.1970  -27.0980 C   0  0  0  0  0  0  0  0  0  0  0  0
   -0.8670   25.1560  -26.7360 C   0  0  0  0  0  0  0  0  0  0  0  0
   -1.3550   24.1930  -27.7550 C   0  0  0  0  0  0  0  0  0  0  0  0
   -0.9730   22.8410  -27.7000 C   0  0  0  0  0  0  0  0  0  0  0  0
   -1.4370   21.9350  -28.6550 C   0  0  0  0  0  0  0  0  0  0  0  0
   -2.2820   22.3660  -29.6800 C   0  0  0  0  0  0  0  0  0  0  0  0
   -2.6670   23.7120  -29.7650 C   0  0  0  0  0  0  0  0  0  0  0  0
   -3.5390   24.1270  -30.8330 N   0  0  0  0  0  0  0  0  0  0  0  0
   -4.8640   23.6110  -31.0300 C   0  0  0  0  0  0  0  0  0  0  0  0
   -5.1000   22.7510  -32.1100 C   0  0  0  0  0  0  0  0  0  0  0  0
   -6.3670   22.2040  -32.3190 C   0  0  0  0  0  0  0  0  0  0  0  0
   -7.4220   22.5010  -31.4420 C   0  0  0  0  0  0  0  0  0  0  0  0
   -8.8010   21.9440  -31.6920 C   0  0  0  0  0  0  0  0  0  0  0  0
   -9.4270   21.6380  -30.4950 F   0  0  0  0  0  0  0  0  0  0  0  0
   -8.7340   20.7880  -32.4510 F   0  0  0  0  0  0  0  0  0  0  0  0
   -9.5560   22.8840  -32.3680 F   0  0  0  0  0  0  0  0  0  0  0  0
   -7.2010   23.4070  -30.3910 C   0  0  0  0  0  0  0  0  0  0  0  0
   -5.9330   23.9690  -30.1790 C   0  0  0  0  0  0  0  0  0  0  0  0
   -5.7590   24.9280  -29.1290 N   0  0  0  0  0  0  0  0  0  0  0  0
   -2.2070   24.6190  -28.7910 C   0  0  0  0  0  0  0  0  0  0  0  0
   -1.2710   25.0440  -25.3950 C   0  0  0  0  0  0  0  0  0  0  0  0
   -0.8140   25.9540  -24.4360 C   0  0  0  0  0  0  0  0  0  0  0  0
    1.2590   26.4660  -22.3940 H   0  0  0  0  0  0  0  0  0  0  0  0
    1.5970   28.1560  -21.9050 H   0  0  0  0  0  0  0  0  0  0  0  0
    0.7430   29.9250  -23.2490 H   0  0  0  0  0  0  0  0  0  0  0  0
   -0.0400   29.6310  -24.8270 H   0  0  0  0  0  0  0  0  0  0  0  0
    1.1465   27.9159  -26.4364 H   0  0  0  0  0  0  0  0  0  0  0  0
    0.3322   26.2966  -28.1438 H   0  0  0  0  0  0  0  0  0  0  0  0
   -0.3037   22.4948  -26.8986 H   0  0  0  0  0  0  0  0  0  0  0  0
   -1.1362   20.8783  -28.6001 H   0  0  0  0  0  0  0  0  0  0  0  0
   -2.6481   21.6450  -30.4257 H   0  0  0  0  0  0  0  0  0  0  0  0
   -3.1440   24.7370  -31.5860 H   0  0  0  0  0  0  0  0  0  0  0  0
   -4.2794   22.5044  -32.7998 H   0  0  0  0  0  0  0  0  0  0  0  0
   -6.5398   21.5363  -33.1759 H   0  0  0  0  0  0  0  0  0  0  0  0
   -8.0334   23.6794  -29.7254 H   0  0  0  0  0  0  0  0  0  0  0  0
   -6.4250   24.9610  -28.3240 H   0  0  0  0  0  0  0  0  0  0  0  0
   -5.0090   25.6520  -29.1640 H   0  0  0  0  0  0  0  0  0  0  0  0
   -2.5173   25.6732  -28.8405 H   0  0  0  0  0  0  0  0  0  0  0  0
   -1.9525   24.2337  -25.0967 H   0  0  0  0  0  0  0  0  0  0  0  0
   -1.1382   25.8531  -23.3897 H   0  0  0  0  0  0  0  0  0  0  0  0
  1  2  1  0
  2  3  2  0
  2  4  1  0
  4  5  2  0
  5  6  1  0
  6  7  2  0
  7  8  1  0
  8  9  2  0
  9 10  1  0
 10 11  2  0
 11 12  1  0
 12 13  1  0
 13 14  1  0
 14 15  2  0
 15 16  1  0
 16 17  2  0
 17 18  1  0
 18 19  1  0
 18 20  1  0
 18 21  1  0
 17 22  1  0
 22 23  2  0
 23 24  1  0
 12 25  2  0
  7 26  1  0
 26 27  2  0
 27  4  1  0
 25  8  1  0
 23 14  1  0
  1 28  1  0
  1 29  1  0
  3 30  1  0
  3 31  1  0
  5 32  1  0
  6 33  1  0
  9 34  1  0
 10 35  1  0
 11 36  1  0
 13 37  1  0
 15 38  1  0
 16 39  1  0
 22 40  1  0
 24 41  1  0
 24 42  1  0
 25 43  1  0
 26 44  1  0
 27 45  1  0
M  CHG  1   3   1
M  END
>  <UniqueID>  (16) 
15

>  <SMILES>  (16) 
NC(=[NH2+])c1ccc(-c2cccc(Nc3ccc(C(F)(F)F)cc3N)c2)cc1

>  <Energy>  (16) 
62.126285400434355

>  <Genealogy>  (16) 
NC(=[NH2+])c1ccc(-c2cccc(Nc3ccc(C(F)(F)F)cc3N)c2)cc1 (protonated)
NC(=[NH2+])c1ccc(-c2cccc(Nc3ccc(C(F)(F)F)cc3N)c2)cc1 (3D coordinates assigned)
NC(=[NH2+])c1ccc(-c2cccc(Nc3ccc(C(F)(F)F)cc3N)c2)cc1 (optimized conformer: 62.126285400434355 kcal/mol)

>  <smiles>  (16) 
N=C(N)c1ccc(-c2cccc(Nc3ccc(C(F)(F)F)cc3N)c2)cc1

>  <score_type>  (16) 
oracle

>  <origin>  (16) 
adgpu

>  <m_score__min__energy>  (16) 
-9.1199999999999992

>  <m_primary>  (16) 
energy

$$$$
16:0
     RDKit          3D

 45 47  0  0  0  0  0  0  0  0999 V2000
   -2.4210   19.9730  -27.1190 C   0  0  0  0  0  0  0  0  0  0  0  0
   -1.5050   21.1920  -27.1400 C   0  0  0  0  0  0  0  0  0  0  0  0
   -2.1820   22.3510  -27.8210 C   0  0  0  0  0  0  0  0  0  0  0  0
   -1.5310   23.5890  -27.9130 C   0  0  0  0  0  0  0  0  0  0  0  0
   -2.1790   24.6930  -28.4920 C   0  0  0  0  0  0  0  0  0  0  0  0
   -1.5420   25.9750  -28.5860 N   0  0  0  0  0  0  0  0  0  0  0  0
   -0.4450   26.4340  -27.7830 C   0  0  0  0  0  0  0  0  0  0  0  0
    0.6480   25.8120  -27.8390 O   0  0  0  0  0  0  0  0  0  0  0  0
   -0.5520   27.6160  -26.9020 C   0  0  0  0  0  0  0  0  0  0  0  0
   -0.1920   28.8990  -27.2600 C   0  0  0  0  0  0  0  0  0  0  0  0
   -0.4490   29.6580  -26.1350 C   0  0  0  0  0  0  0  0  0  0  0  0
   -0.9550   28.8740  -25.1640 N   0  0  0  0  0  0  0  0  0  0  0  0
   -1.0270   27.6390  -25.6360 N   0  0  0  0  0  0  0  0  0  0  0  0
   -1.5720   26.5300  -24.8590 C   0  0  0  0  0  0  0  0  0  0  0  0
   -3.4660   24.5390  -29.0150 C   0  0  0  0  0  0  0  0  0  0  0  0
   -4.1410   23.3110  -28.9060 C   0  0  0  0  0  0  0  0  0  0  0  0
   -5.4700   23.1390  -29.4300 N   0  0  0  0  0  0  0  0  0  0  0  0
   -5.7620   23.0060  -30.8310 C   0  0  0  0  0  0  0  0  0  0  0  0
   -4.9350   23.4310  -31.6840 O   0  0  0  0  0  0  0  0  0  0  0  0
   -7.0470   22.4220  -31.2880 C   0  0  0  0  0  0  0  0  0  0  0  0
   -7.1900   21.0320  -31.4580 C   0  0  0  0  0  0  0  0  0  0  0  0
   -8.4040   20.4930  -31.8960 C   0  0  0  0  0  0  0  0  0  0  0  0
   -9.4850   21.3340  -32.1730 C   0  0  0  0  0  0  0  0  0  0  0  0
   -9.3530   22.7150  -32.0160 C   0  0  0  0  0  0  0  0  0  0  0  0
   -8.1410   23.2590  -31.5800 C   0  0  0  0  0  0  0  0  0  0  0  0
   -3.4890   22.2190  -28.3130 C   0  0  0  0  0  0  0  0  0  0  0  0
   -2.6327   19.6913  -26.0770 H   0  0  0  0  0  0  0  0  0  0  0  0
   -3.3636   20.2137  -27.6324 H   0  0  0  0  0  0  0  0  0  0  0  0
   -1.9275   19.1346  -27.6324 H   0  0  0  0  0  0  0  0  0  0  0  0
   -1.2560   21.4750  -26.1066 H   0  0  0  0  0  0  0  0  0  0  0  0
   -0.5902   20.9389  -27.6959 H   0  0  0  0  0  0  0  0  0  0  0  0
   -0.5058   23.6969  -27.5292 H   0  0  0  0  0  0  0  0  0  0  0  0
    0.2097   29.2408  -28.2253 H   0  0  0  0  0  0  0  0  0  0  0  0
   -0.2678   30.7393  -26.0457 H   0  0  0  0  0  0  0  0  0  0  0  0
   -1.4654   26.7469  -23.7859 H   0  0  0  0  0  0  0  0  0  0  0  0
   -2.6367   26.3998  -25.1028 H   0  0  0  0  0  0  0  0  0  0  0  0
   -1.0246   25.6076  -25.1028 H   0  0  0  0  0  0  0  0  0  0  0  0
   -3.9552   25.3869  -29.5167 H   0  0  0  0  0  0  0  0  0  0  0  0
   -6.2720   23.2380  -28.7670 H   0  0  0  0  0  0  0  0  0  0  0  0
   -6.3414   20.3653  -31.2450 H   0  0  0  0  0  0  0  0  0  0  0  0
   -8.5080   19.4053  -32.0226 H   0  0  0  0  0  0  0  0  0  0  0  0
  -10.4399   20.9080  -32.5147 H   0  0  0  0  0  0  0  0  0  0  0  0
  -10.2041   23.3763  -32.2357 H   0  0  0  0  0  0  0  0  0  0  0  0
   -8.0414   24.3484  -31.4643 H   0  0  0  0  0  0  0  0  0  0  0  0
   -4.0069   21.2518  -28.2333 H   0  0  0  0  0  0  0  0  0  0  0  0
  1  2  1  0
  2  3  1  0
  3  4  2  0
  4  5  1  0
  5  6  1  0
  6  7  1  0
  7  8  2  0
  7  9  1  0
  9 10  2  0
 10 11  1  0
 11 12  2  0
 12 13  1  0
 13 14  1  0
  5 15  2  0
 15 16  1  0
 16 17  1  0
 17 18  1  0
 18 19  2  0
 18 20  1  0
 20 21  2  0
 21 22  1  0
 22 23  2  0
 23 24  1  0
 24 25  2  0
 16 26  2  0
 26  3  1  0
 13  9  1  0
 25 20  1  0
  1 27  1  0
  1 28  1  0
  1 29  1  0
  2 30  1  0
  2 31  1  0
  4 32  1  0
 10 33  1  0
 11 34  1  0
 14 35  1  0
 14 36  1  0
 14 37  1  0
 15 38  1  0
 17 39  1  0
 21 40  1  0
 22 41  1  0
 23 42  1  0
 24 43  1  0
 25 44  1  0
 26 45  1  0
M  CHG  1   6  -1
M  END
>  <UniqueID>  (17) 
16

>  <SMILES>  (17) 
CCc1cc([N-]C(=O)c2ccnn2C)cc(NC(=O)c2ccccc2)c1

>  <Energy>  (17) 
84.79973048577847

>  <Genealogy>  (17) 
CCc1cc([N-]C(=O)c2ccnn2C)cc(NC(=O)c2ccccc2)c1 (protonated)
CCc1cc([N-]C(=O)c2ccnn2C)cc(NC(=O)c2ccccc2)c1 (3D coordinates assigned)
CCc1cc([N-]C(=O)c2ccnn2C)cc(NC(=O)c2ccccc2)c1 (optimized conformer: 84.79973048577847 kcal/mol)

>  <smiles>  (17) 
CCc1cc(NC(=O)c2ccccc2)cc(NC(=O)c2ccnn2C)c1

>  <score_type>  (17) 
oracle

>  <origin>  (17) 
adgpu

>  <m_score__min__energy>  (17) 
-9.5199999999999996

>  <m_primary>  (17) 
energy

$$$$
17:0
     RDKit          3D

 47 49  0  0  1  0  0  0  0  0999 V2000
   -3.3950   14.7240  -35.2300 N   0  0  0  0  0  0  0  0  0  0  0  0
   -4.6010   14.6190  -33.9970 S   0  0  0  0  0  0  0  0  0  0  0  0
   -3.9050   14.1330  -32.7470 O   0  0  0  0  0  0  0  0  0  0  0  0
   -5.6270   13.5910  -34.3650 O   0  0  0  0  0  0  0  0  0  0  0  0
   -5.3370   16.1710  -33.6480 C   0  0  0  0  0  0  0  0  0  0  0  0
   -5.7310   16.3780  -32.3280 C   0  0  0  0  0  0  0  0  0  0  0  0
   -6.3190   17.5870  -31.9980 C   0  0  0  0  0  0  0  0  0  0  0  0
   -6.5130   18.5710  -32.9510 C   0  0  0  0  0  0  0  0  0  0  0  0
   -7.1250   19.8300  -32.6070 N   0  0  0  0  0  0  0  0  0  0  0  0
   -6.3360   20.8450  -32.4410 C   0  0  0  0  0  0  0  0  0  0  0  0
   -6.9030   22.0690  -32.1080 C   0  0  0  0  0  0  0  0  0  0  0  0
   -6.0520   23.1410  -31.9330 C   0  0  0  0  0  0  0  0  0  0  0  0
   -6.4940   24.4460  -31.5930 N   0  0  0  0  0  0  0  0  0  0  0  0
   -6.4150   24.8240  -30.1930 C   0  0  0  0  0  0  0  0  0  0  0  0
   -4.9680   24.8780  -29.8580 C   0  0  0  0  0  0  0  0  0  0  0  0
   -4.1910   25.4190  -30.6920 O   0  0  0  0  0  0  0  0  0  0  0  0
   -4.4480   24.3460  -28.6470 N   0  0  0  0  0  0  0  0  0  0  0  0
   -3.0580   24.4250  -28.3830 C   0  0  0  0  0  0  0  0  0  0  0  0
   -2.2170   23.8800  -29.3580 C   0  0  0  0  0  0  0  0  0  0  0  0
   -0.8510   23.8980  -29.2120 C   0  0  0  0  0  0  0  0  0  0  0  0
   -0.3020   24.4670  -28.0760 C   0  0  0  0  0  0  0  0  0  0  0  0
    1.0610   24.4740  -27.9540 O   0  0  0  0  0  0  0  0  0  0  0  0
   -1.1450   25.0070  -27.1120 C   0  0  0  0  0  0  0  0  0  0  0  0
   -2.5230   24.9950  -27.2490 C   0  0  0  0  0  0  0  0  0  0  0  0
   -4.7190   22.9760  -32.0880 N   0  0  0  0  0  0  0  0  0  0  0  0
   -4.2350   21.7650  -32.4100 C   0  0  0  0  0  0  0  0  0  0  0  0
   -5.0090   20.6790  -32.5940 N   0  0  0  0  0  0  0  0  0  0  0  0
   -6.1110   18.3380  -34.2580 C   0  0  0  0  0  0  0  0  0  0  0  0
   -5.5200   17.1380  -34.6200 C   0  0  0  0  0  0  0  0  0  0  0  0
   -2.4630   14.6280  -34.7900 H   0  0  0  0  0  0  0  0  0  0  0  0
   -3.4110   15.6450  -35.7210 H   0  0  0  0  0  0  0  0  0  0  0  0
   -5.5785   15.5994  -31.5661 H   0  0  0  0  0  0  0  0  0  0  0  0
   -6.6373   17.7684  -30.9608 H   0  0  0  0  0  0  0  0  0  0  0  0
   -7.9909   22.1794  -31.9882 H   0  0  0  0  0  0  0  0  0  0  0  0
   -6.8460   25.0590  -32.3470 H   0  0  0  0  0  0  0  0  0  0  0  0
   -6.8793   25.8090  -30.0374 H   0  0  0  0  0  0  0  0  0  0  0  0
   -6.9475   24.1047  -29.5534 H   0  0  0  0  0  0  0  0  0  0  0  0
   -5.0880   23.8990  -27.9570 H   0  0  0  0  0  0  0  0  0  0  0  0
   -2.6574   23.4282  -30.2591 H   0  0  0  0  0  0  0  0  0  0  0  0
   -0.2020   23.4658  -29.9879 H   0  0  0  0  0  0  0  0  0  0  0  0
    1.6820   24.9850  -28.5630 H   0  0  0  0  0  0  0  0  0  0  0  0
   -0.7035   25.4584  -26.2113 H   0  0  0  0  0  0  0  0  0  0  0  0
   -3.1721   25.4285  -26.4739 H   0  0  0  0  0  0  0  0  0  0  0  0
   -4.0630   23.7840  -31.9570 H   0  0  0  0  0  0  0  0  0  0  0  0
   -3.1471   21.6547  -32.5298 H   0  0  0  0  0  0  0  0  0  0  0  0
   -6.2637   19.1177  -35.0187 H   0  0  0  0  0  0  0  0  0  0  0  0
   -5.2032   16.9583  -35.6580 H   0  0  0  0  0  0  0  0  0  0  0  0
  1  2  1  0
  2  3  2  0
  2  4  2  0
  2  5  1  0
  5  6  2  0
  6  7  1  0
  7  8  2  0
  8  9  1  0
  9 10  2  0
 10 11  1  0
 11 12  2  0
 12 13  1  0
 13 14  1  0
 14 15  1  0
 15 16  2  0
 15 17  1  0
 17 18  1  0
 18 19  2  0
 19 20  1  0
 20 21  2  0
 21 22  1  0
 21 23  1  0
 23 24  2  0
 12 25  1  0
 25 26  1  0
 26 27  2  0
  8 28  1  0
 28 29  2  0
 29  5  1  0
 27 10  1  0
 24 18  1  0
  1 30  1  0
  1 31  1  0
  6 32  1  0
  7 33  1  0
 11 34  1  0
 13 35  1  0
 14 36  1  0
 14 37  1  0
 17 38  1  0
 19 39  1  0
 20 40  1  0
 22 41  1  0
 23 42  1  0
 24 43  1  0
 25 44  1  0
 26 45  1  0
 28 46  1  0
 29 47  1  0
M  END
>  <smiles>  (18) 
NS(=O)(=O)c1ccc(N=c2cc(NCC(=O)Nc3ccc(O)cc3)[nH]cn2)cc1

>  <score_type>  (18) 
oracle

>  <origin>  (18) 
adgpu

>  <m_score__min__energy>  (18) 
-8.5500000000000007

>  <m_primary>  (18) 
energy

$$$$
18:0
     RDKit          3D

 45 48  0  0  1  0  0  0  0  0999 V2000
   -1.1410   19.6520  -33.1330 C   0  0  0  0  0  0  0  0  0  0  0  0
   -2.0280   19.8270  -32.0750 O   0  0  0  0  0  0  0  0  0  0  0  0
   -2.8890   20.9080  -31.9420 C   0  0  0  0  0  0  0  0  0  0  0  0
   -2.6320   21.8240  -30.9570 C   0  0  0  0  0  0  0  0  0  0  0  0
   -3.4640   22.9000  -30.8000 C   0  0  0  0  0  0  0  0  0  0  0  0
   -3.2410   23.8410  -29.8240 C   0  0  0  0  0  0  0  0  0  0  0  0
   -2.2370   23.6930  -29.0590 N   0  0  0  0  0  0  0  0  0  0  0  0
   -1.8720   24.5760  -28.0050 C   0  0  0  0  0  0  0  0  0  0  0  0
   -2.1930   24.1410  -26.7150 C   0  0  0  0  0  0  0  0  0  0  0  0
   -1.8820   24.9210  -25.6080 C   0  0  0  0  0  0  0  0  0  0  0  0
   -1.2440   26.1460  -25.8170 C   0  0  0  0  0  0  0  0  0  0  0  0
   -0.8590   27.1180  -24.4090 Cl  0  0  0  0  0  0  0  0  0  0  0  0
   -0.9410   26.5440  -27.1050 C   0  0  0  0  0  0  0  0  0  0  0  0
   -0.1390   28.0840  -27.3490 Cl  0  0  0  0  0  0  0  0  0  0  0  0
   -1.2410   25.7840  -28.2140 C   0  0  0  0  0  0  0  0  0  0  0  0
   -4.0350   24.9110  -29.6390 N   0  0  0  0  0  0  0  0  0  0  0  0
   -5.1020   25.0550  -30.4630 C   0  0  0  0  0  0  0  0  0  0  0  0
   -5.3480   24.1380  -31.4400 N   0  0  0  0  0  0  0  0  0  0  0  0
   -4.5510   23.0700  -31.6200 C   0  0  0  0  0  0  0  0  0  0  0  0
   -4.7810   22.1280  -32.6030 C   0  0  0  0  0  0  0  0  0  0  0  0
   -3.9880   21.0280  -32.8140 C   0  0  0  0  0  0  0  0  0  0  0  0
   -4.1320   20.0640  -33.7410 O   0  0  0  0  0  0  0  0  0  0  0  0
   -4.9790   19.0330  -34.0060 C   0  0  0  0  0  0  0  0  0  0  0  0
   -6.2690   19.0460  -33.2960 C   0  0  0  0  0  0  0  0  0  0  0  0
   -7.1960   20.0490  -33.3210 C   0  0  0  0  0  0  0  0  0  0  0  0
   -8.3920   19.9350  -32.6080 C   0  0  0  0  0  0  0  0  0  0  0  0
   -8.6720   18.8100  -31.8580 C   0  0  0  0  0  0  0  0  0  0  0  0
   -7.7450   17.8340  -31.8450 N   0  0  0  0  0  0  0  0  0  0  0  0
   -6.5900   17.9240  -32.5250 C   0  0  0  0  0  0  0  0  0  0  0  0
   -0.1338   19.4533  -32.7380 H   0  0  0  0  0  0  0  0  0  0  0  0
   -1.4679   18.8010  -33.7486 H   0  0  0  0  0  0  0  0  0  0  0  0
   -1.1202   20.5634  -33.7486 H   0  0  0  0  0  0  0  0  0  0  0  0
   -1.7622   21.6961  -30.2958 H   0  0  0  0  0  0  0  0  0  0  0  0
   -2.6961   23.1728  -26.5756 H   0  0  0  0  0  0  0  0  0  0  0  0
   -2.1321   24.5821  -24.5918 H   0  0  0  0  0  0  0  0  0  0  0  0
   -0.9869   26.1277  -29.2276 H   0  0  0  0  0  0  0  0  0  0  0  0
   -3.8310   25.6030  -28.8860 H   0  0  0  0  0  0  0  0  0  0  0  0
   -5.7734   25.9179  -30.3419 H   0  0  0  0  0  0  0  0  0  0  0  0
   -5.6539   22.2679  -33.2575 H   0  0  0  0  0  0  0  0  0  0  0  0
   -5.1910   19.0431  -35.0853 H   0  0  0  0  0  0  0  0  0  0  0  0
   -4.4599   18.1301  -33.6520 H   0  0  0  0  0  0  0  0  0  0  0  0
   -6.9985   20.9571  -33.9094 H   0  0  0  0  0  0  0  0  0  0  0  0
   -9.1234   20.7558  -32.6447 H   0  0  0  0  0  0  0  0  0  0  0  0
   -9.6124   18.7154  -31.2952 H   0  0  0  0  0  0  0  0  0  0  0  0
   -5.8748   17.0898  -32.4739 H   0  0  0  0  0  0  0  0  0  0  0  0
  1  2  1  0
  2  3  1  0
  3  4  2  0
  4  5  1  0
  5  6  1  0
  6  7  2  0
  7  8  1  0
  8  9  2  0
  9 10  1  0
 10 11  2  0
 11 12  1  0
 11 13  1  0
 13 14  1  0
 13 15  2  0
  6 16  1  0
 16 17  1  0
 17 18  2  0
 18 19  1  0
 19 20  1  0
 20 21  2  0
 21 22  1  0
 22 23  1  0
 23 24  1  0
 24 25  2  0
 25 26  1  0
 26 27  2  0
 27 28  1  0
 28 29  2  0
 21  3  1  0
 29 24  1  0
 19  5  2  0
 15  8  1  0
  1 30  1  0
  1 31  1  0
  1 32  1  0
  4 33  1  0
  9 34  1  0
 10 35  1  0
 15 36  1  0
 16 37  1  0
 17 38  1  0
 20 39  1  0
 23 40  1  0
 23 41  1  0
 25 42  1  0
 26 43  1  0
 27 44  1  0
 29 45  1  0
M  END
>  <smiles>  (19) 
COc1cc2c(=Nc3ccc(Cl)c(Cl)c3)[nH]cnc2cc1OCc1cccnc1

>  <score_type>  (19) 
oracle

>  <origin>  (19) 
adgpu

>  <m_score__min__energy>  (19) 
-9.0800000000000001

>  <m_primary>  (19) 
energy

$$$$
19:0
     RDKit          3D

 55 57  0  0  0  0  0  0  0  0999 V2000
   -0.4720   17.6170  -35.2690 C   0  0  0  0  0  0  0  0  0  0  0  0
   -1.9580   17.4480  -34.9370 C   0  0  2  0  0  0  0  0  0  0  0  0
   -2.3950   18.4370  -33.8330 C   0  0  0  0  0  0  0  0  0  0  0  0
   -3.6570   17.9680  -33.0800 C   0  0  0  0  0  0  0  0  0  0  0  0
   -4.4800   17.0710  -33.9150 N   0  0  2  0  0  0  0  0  0  0  0  0
   -5.9910   16.7280  -33.1110 S   0  0  0  0  0  0  0  0  0  0  0  0
   -6.8560   15.8700  -33.9950 O   0  0  0  0  0  0  0  0  0  0  0  0
   -5.7370   15.9860  -31.8270 O   0  0  0  0  0  0  0  0  0  0  0  0
   -6.8450   18.2320  -32.7760 C   0  0  0  0  0  0  0  0  0  0  0  0
   -7.9120   18.2610  -31.8680 C   0  0  0  0  0  0  0  0  0  0  0  0
   -8.5700   19.4630  -31.5930 C   0  0  0  0  0  0  0  0  0  0  0  0
   -8.1680   20.6570  -32.2230 C   0  0  0  0  0  0  0  0  0  0  0  0
   -8.8250   21.9120  -31.9620 N   0  0  0  0  0  0  0  0  0  0  0  0
   -8.1100   23.1860  -31.8540 C   0  0  0  0  0  0  0  0  0  0  0  0
   -7.1270   23.1540  -30.7150 C   0  0  0  0  0  0  0  0  0  0  0  0
   -7.5080   22.6310  -29.6320 O   0  0  0  0  0  0  0  0  0  0  0  0
   -5.7840   23.6940  -30.8120 N   0  0  0  0  0  0  0  0  0  0  0  0
   -5.4260   25.0540  -30.4830 C   0  0  0  0  0  0  0  0  0  0  0  0
   -4.3270   25.5590  -30.8320 O   0  0  0  0  0  0  0  0  0  0  0  0
   -4.7180   22.8340  -31.2540 C   0  0  0  0  0  0  0  0  0  0  0  0
   -3.7690   22.3500  -30.3380 C   0  0  0  0  0  0  0  0  0  0  0  0
   -2.7400   21.5080  -30.7690 C   0  0  0  0  0  0  0  0  0  0  0  0
   -2.6520   21.1410  -32.1140 C   0  0  0  0  0  0  0  0  0  0  0  0
   -3.5950   21.6150  -33.0310 C   0  0  0  0  0  0  0  0  0  0  0  0
   -4.6260   22.4570  -32.6040 C   0  0  0  0  0  0  0  0  0  0  0  0
   -7.0940   20.6190  -33.1270 C   0  0  0  0  0  0  0  0  0  0  0  0
   -6.4370   19.4160  -33.4000 C   0  0  0  0  0  0  0  0  0  0  0  0
   -3.7720   15.8050  -34.2180 C   0  0  0  0  0  0  0  0  0  0  0  0
   -2.2690   16.0030  -34.5190 C   0  0  0  0  0  0  0  0  0  0  0  0
    0.1070   17.6828  -34.3360 H   0  0  0  0  0  0  0  0  0  0  0  0
   -0.1265   16.7524  -35.8547 H   0  0  0  0  0  0  0  0  0  0  0  0
   -0.3295   18.5371  -35.8547 H   0  0  0  0  0  0  0  0  0  0  0  0
   -2.5317   17.6733  -35.8481 H   0  0  0  0  0  0  0  0  0  0  0  0
   -1.5728   18.5433  -33.1100 H   0  0  0  0  0  0  0  0  0  0  0  0
   -2.6346   19.3940  -34.3197 H   0  0  0  0  0  0  0  0  0  0  0  0
   -3.3518   17.4302  -32.1703 H   0  0  0  0  0  0  0  0  0  0  0  0
   -4.2582   18.8536  -32.8266 H   0  0  0  0  0  0  0  0  0  0  0  0
   -4.7170   17.5590  -34.8110 H   0  0  0  0  0  0  0  0  0  0  0  0
   -8.2329   17.3343  -31.3698 H   0  0  0  0  0  0  0  0  0  0  0  0
   -9.4074   19.4767  -30.8798 H   0  0  0  0  0  0  0  0  0  0  0  0
   -9.8640   21.9070  -31.8400 H   0  0  0  0  0  0  0  0  0  0  0  0
   -7.5682   23.3758  -32.7923 H   0  0  0  0  0  0  0  0  0  0  0  0
   -8.8417   23.9853  -31.6650 H   0  0  0  0  0  0  0  0  0  0  0  0
   -6.1361   25.6678  -29.9094 H   0  0  0  0  0  0  0  0  0  0  0  0
   -3.8361   22.6348  -29.2776 H   0  0  0  0  0  0  0  0  0  0  0  0
   -1.9983   21.1337  -30.0480 H   0  0  0  0  0  0  0  0  0  0  0  0
   -1.8409   20.4791  -32.4516 H   0  0  0  0  0  0  0  0  0  0  0  0
   -3.5256   21.3250  -34.0898 H   0  0  0  0  0  0  0  0  0  0  0  0
   -5.3678   22.8256  -33.3277 H   0  0  0  0  0  0  0  0  0  0  0  0
   -6.7670   21.5440  -33.6245 H   0  0  0  0  0  0  0  0  0  0  0  0
   -5.5956   19.4000  -34.1084 H   0  0  0  0  0  0  0  0  0  0  0  0
   -3.8693   15.1344  -33.3515 H   0  0  0  0  0  0  0  0  0  0  0  0
   -4.2329   15.3820  -35.1228 H   0  0  0  0  0  0  0  0  0  0  0  0
   -1.6898   15.7608  -33.6157 H   0  0  0  0  0  0  0  0  0  0  0  0
   -1.9962   15.3390  -35.3525 H   0  0  0  0  0  0  0  0  0  0  0  0
  1  2  1  0
  2  3  1  0
  3  4  1  0
  4  5  1  0
  5  6  1  0
  6  7  2  0
  6  8  2  0
  6  9  1  0
  9 10  2  0
 10 11  1  0
 11 12  2  0
 12 13  1  0
 13 14  1  0
 14 15  1  0
 15 16  2  0
 15 17  1  0
 17 18  1  0
 18 19  2  0
 17 20  1  0
 20 21  2  0
 21 22  1  0
 22 23  2  0
 23 24  1  0
 24 25  2  0
 12 26  1  0
 26 27  2  0
  5 28  1  0
 28 29  1  0
 29  2  1  0
 27  9  1  0
 25 20  1  0
  1 30  1  0
  1 31  1  0
  1 32  1  0
  2 33  1  6
  3 34  1  0
  3 35  1  0
  4 36  1  0
  4 37  1  0
  5 38  1  6
 10 39  1  0
 11 40  1  0
 13 41  1  0
 14 42  1  0
 14 43  1  0
 18 44  1  0
 21 45  1  0
 22 46  1  0
 23 47  1  0
 24 48  1  0
 25 49  1  0
 26 50  1  0
 27 51  1  0
 28 52  1  0
 28 53  1  0
 29 54  1  0
 29 55  1  0
M  CHG  1   5   1
M  END
>  <UniqueID>  (20) 
17

>  <SMILES>  (20) 
CC1CC[NH+](S(=O)(=O)c2ccc(NCC(=O)N(C=O)c3ccccc3)cc2)CC1

>  <Energy>  (20) 
66.54583339727945

>  <Genealogy>  (20) 
CC1CC[NH+](S(=O)(=O)c2ccc(NCC(=O)N(C=O)c3ccccc3)cc2)CC1 (protonated)
CC1CC[NH+](S(=O)(=O)c2ccc(NCC(=O)N(C=O)c3ccccc3)cc2)CC1 (3D coordinates assigned)
CC1CC[NH+](S(=O)(=O)c2ccc(NCC(=O)N(C=O)c3ccccc3)cc2)CC1 (nonaromatic ring conformer: 66.54583339727945 kcal/mol)

>  <smiles>  (20) 
CC1CCN(S(=O)(=O)c2ccc(NCC(=O)N(C=O)c3ccccc3)cc2)CC1

>  <score_type>  (20) 
oracle

>  <origin>  (20) 
adgpu

>  <m_score__min__energy>  (20) 
-9.5399999999999991

>  <m_primary>  (20) 
energy

$$$$
20:0
     RDKit          3D

 40 42  0  0  0  0  0  0  0  0999 V2000
   -8.7580   19.7610  -32.7370 O   0  0  0  0  0  0  0  0  0  0  0  0
   -7.5320   19.8250  -32.4400 C   0  0  0  0  0  0  0  0  0  0  0  0
   -6.7110   18.6530  -32.5700 N   0  0  0  0  0  0  0  0  0  0  0  0
   -7.2240   17.4020  -33.1210 C   0  0  0  0  0  0  0  0  0  0  0  0
   -6.1100   16.4170  -33.2850 C   0  0  0  0  0  0  0  0  0  0  0  0
   -6.1910   15.2150  -33.9600 C   0  0  0  0  0  0  0  0  0  0  0  0
   -4.9320   14.6600  -33.8760 C   0  0  0  0  0  0  0  0  0  0  0  0
   -4.1640   15.5570  -33.1600 C   0  0  0  0  0  0  0  0  0  0  0  0
   -4.8950   16.5960  -32.8230 O   0  0  0  0  0  0  0  0  0  0  0  0
   -6.9750   21.1060  -31.9400 C   0  0  0  0  0  0  0  0  0  0  0  0
   -5.7390   21.5960  -32.4010 C   0  0  0  0  0  0  0  0  0  0  0  0
   -5.2270   22.8010  -31.9110 C   0  0  0  0  0  0  0  0  0  0  0  0
   -5.9430   23.5400  -30.9640 C   0  0  0  0  0  0  0  0  0  0  0  0
   -5.2730   25.0430  -30.3350 S   0  0  0  0  0  0  0  0  0  0  0  0
   -5.7310   25.2840  -28.9250 O   0  0  0  0  0  0  0  0  0  0  0  0
   -5.7360   26.1790  -31.2010 O   0  0  0  0  0  0  0  0  0  0  0  0
   -3.5400   24.9740  -30.3640 N   0  0  0  0  0  0  0  0  0  0  0  0
   -2.7180   24.4040  -29.3370 C   0  0  0  0  0  0  0  0  0  0  0  0
   -1.4830   24.9690  -28.9640 C   0  0  0  0  0  0  0  0  0  0  0  0
   -0.7200   24.3850  -27.9480 C   0  0  0  0  0  0  0  0  0  0  0  0
   -1.1760   23.2340  -27.3010 C   0  0  0  0  0  0  0  0  0  0  0  0
   -2.3960   22.6620  -27.6730 C   0  0  0  0  0  0  0  0  0  0  0  0
   -3.1630   23.2450  -28.6870 C   0  0  0  0  0  0  0  0  0  0  0  0
   -7.1830   23.0720  -30.5160 C   0  0  0  0  0  0  0  0  0  0  0  0
   -7.6970   21.8660  -31.0010 C   0  0  0  0  0  0  0  0  0  0  0  0
   -5.7320   18.6540  -32.2040 H   0  0  0  0  0  0  0  0  0  0  0  0
   -7.9794   16.9864  -32.4379 H   0  0  0  0  0  0  0  0  0  0  0  0
   -7.6765   17.6004  -34.1038 H   0  0  0  0  0  0  0  0  0  0  0  0
   -7.0741   14.7900  -34.4595 H   0  0  0  0  0  0  0  0  0  0  0  0
   -4.6050   13.6968  -34.2948 H   0  0  0  0  0  0  0  0  0  0  0  0
   -3.1014   15.4223  -32.9096 H   0  0  0  0  0  0  0  0  0  0  0  0
   -5.1717   21.0269  -33.1522 H   0  0  0  0  0  0  0  0  0  0  0  0
   -4.2557   23.1699  -32.2723 H   0  0  0  0  0  0  0  0  0  0  0  0
   -1.1174   25.8727  -29.4736 H   0  0  0  0  0  0  0  0  0  0  0  0
    0.2417   24.8331  -27.6575 H   0  0  0  0  0  0  0  0  0  0  0  0
   -0.5757   22.7783  -26.4997 H   0  0  0  0  0  0  0  0  0  0  0  0
   -2.7532   21.7525  -27.1678 H   0  0  0  0  0  0  0  0  0  0  0  0
   -4.1221   22.7906  -28.9762 H   0  0  0  0  0  0  0  0  0  0  0  0
   -7.7554   23.6551  -29.7796 H   0  0  0  0  0  0  0  0  0  0  0  0
   -8.6744   21.5078  -30.6456 H   0  0  0  0  0  0  0  0  0  0  0  0
  1  2  2  0
  2  3  1  0
  3  4  1  0
  4  5  1  0
  5  6  2  0
  6  7  1  0
  7  8  2  0
  8  9  1  0
  2 10  1  0
 10 11  2  0
 11 12  1  0
 12 13  2  0
 13 14  1  0
 14 15  2  0
 14 16  2  0
 14 17  1  0
 17 18  1  0
 18 19  2  0
 19 20  1  0
 20 21  2  0
 21 22  1  0
 22 23  2  0
 13 24  1  0
 24 25  2  0
  9  5  1  0
 25 10  1  0
 23 18  1  0
  3 26  1  0
  4 27  1  0
  4 28  1  0
  6 29  1  0
  7 30  1  0
  8 31  1  0
 11 32  1  0
 12 33  1  0
 19 34  1  0
 20 35  1  0
 21 36  1  0
 22 37  1  0
 23 38  1  0
 24 39  1  0
 25 40  1  0
M  CHG  1  17  -1
M  END
>  <UniqueID>  (21) 
18

>  <SMILES>  (21) 
O=C(NCc1ccco1)c1ccc(S(=O)(=O)[N-]c2ccccc2)cc1

>  <Energy>  (21) 
70.94024965682294

>  <Genealogy>  (21) 
O=C(NCc1ccco1)c1ccc(S(=O)(=O)[N-]c2ccccc2)cc1 (protonated)
O=C(NCc1ccco1)c1ccc(S(=O)(=O)[N-]c2ccccc2)cc1 (3D coordinates assigned)
O=C(NCc1ccco1)c1ccc(S(=O)(=O)[N-]c2ccccc2)cc1 (optimized conformer: 70.94024965682294 kcal/mol)

>  <smiles>  (21) 
O=C(NCc1ccco1)c1ccc(S(=O)(=O)Nc2ccccc2)cc1

>  <score_type>  (21) 
oracle

>  <origin>  (21) 
adgpu

>  <m_score__min__energy>  (21) 
-9.2300000000000004

>  <m_primary>  (21) 
energy

$$$$
21:0
     RDKit          3D

 60 63  0  0  0  0  0  0  0  0999 V2000
    0.8620   20.6250  -27.8740 C   0  0  0  0  0  0  0  0  0  0  0  0
    0.4410   21.9250  -27.4760 O   0  0  0  0  0  0  0  0  0  0  0  0
   -0.5570   22.6700  -28.1230 C   0  0  0  0  0  0  0  0  0  0  0  0
   -1.7740   22.0940  -28.5290 C   0  0  0  0  0  0  0  0  0  0  0  0
   -2.7460   22.8680  -29.1680 C   0  0  0  0  0  0  0  0  0  0  0  0
   -2.5080   24.2260  -29.4260 C   0  0  0  0  0  0  0  0  0  0  0  0
   -3.4850   25.0590  -30.0650 N   0  0  0  0  0  0  0  0  0  0  0  0
   -4.8240   24.6910  -30.4160 C   0  0  0  0  0  0  0  0  0  0  0  0
   -5.8080   25.2730  -29.8850 O   0  0  0  0  0  0  0  0  0  0  0  0
   -5.0300   23.6400  -31.3700 N   0  0  0  0  0  0  0  0  0  0  0  0
   -6.2760   22.9460  -31.5640 C   0  0  0  0  0  0  0  0  0  0  0  0
   -7.4740   23.6750  -31.5660 C   0  0  0  0  0  0  0  0  0  0  0  0
   -8.6920   23.0320  -31.7890 C   0  0  0  0  0  0  0  0  0  0  0  0
   -8.7270   21.6560  -32.0270 C   0  0  0  0  0  0  0  0  0  0  0  0
   -7.5380   20.9090  -32.0490 C   0  0  0  0  0  0  0  0  0  0  0  0
   -7.5740   19.4560  -32.3210 C   0  0  0  0  0  0  0  0  0  0  0  0
   -8.3090   18.5760  -31.6120 N   0  0  0  0  0  0  0  0  0  0  0  0
   -8.0720   17.4230  -32.1590 O   0  0  0  0  0  0  0  0  0  0  0  0
   -7.2350   17.5720  -33.1550 C   0  0  0  0  0  0  0  0  0  0  0  0
   -6.7400   16.4460  -34.0180 C   0  0  0  0  0  0  0  0  0  0  0  0
   -5.2670   16.3890  -34.1210 N   0  0  0  0  0  0  0  0  0  0  0  0
   -4.6040   16.1100  -32.8370 C   0  0  0  0  0  0  0  0  0  0  0  0
   -3.1400   15.7010  -33.0920 C   0  0  0  0  0  0  0  0  0  0  0  0
   -2.5460   16.3530  -34.2850 N   0  0  0  0  0  0  0  0  0  0  0  0
   -2.5470   15.4690  -35.4620 C   0  0  0  0  0  0  0  0  0  0  0  0
   -3.1590   17.6640  -34.5830 C   0  0  0  0  0  0  0  0  0  0  0  0
   -4.6880   17.5700  -34.7940 C   0  0  0  0  0  0  0  0  0  0  0  0
   -6.8740   18.8600  -33.3110 N   0  0  0  0  0  0  0  0  0  0  0  0
   -6.3140   21.5620  -31.8210 C   0  0  0  0  0  0  0  0  0  0  0  0
   -1.3080   24.8070  -29.0000 C   0  0  0  0  0  0  0  0  0  0  0  0
   -0.3210   24.0340  -28.3580 C   0  0  0  0  0  0  0  0  0  0  0  0
    0.9000   24.5830  -27.9400 O   0  0  0  0  0  0  0  0  0  0  0  0
    1.2550   24.8220  -26.5820 C   0  0  0  0  0  0  0  0  0  0  0  0
    1.0598   20.0142  -26.9808 H   0  0  0  0  0  0  0  0  0  0  0  0
    0.0713   20.1513  -28.4744 H   0  0  0  0  0  0  0  0  0  0  0  0
    1.7802   20.7048  -28.4744 H   0  0  0  0  0  0  0  0  0  0  0  0
   -1.9620   21.0264  -28.3421 H   0  0  0  0  0  0  0  0  0  0  0  0
   -3.7002   22.4113  -29.4695 H   0  0  0  0  0  0  0  0  0  0  0  0
   -4.2270   23.3960  -31.9940 H   0  0  0  0  0  0  0  0  0  0  0  0
   -7.4533   24.7607  -31.3906 H   0  0  0  0  0  0  0  0  0  0  0  0
   -9.6276   23.6104  -31.7774 H   0  0  0  0  0  0  0  0  0  0  0  0
   -9.6911   21.1548  -32.1981 H   0  0  0  0  0  0  0  0  0  0  0  0
   -7.0966   15.4969  -33.5913 H   0  0  0  0  0  0  0  0  0  0  0  0
   -7.1299   16.6186  -35.0320 H   0  0  0  0  0  0  0  0  0  0  0  0
   -4.6283   17.0123  -32.2083 H   0  0  0  0  0  0  0  0  0  0  0  0
   -5.1291   15.2909  -32.3239 H   0  0  0  0  0  0  0  0  0  0  0  0
   -2.5424   15.9760  -32.2104 H   0  0  0  0  0  0  0  0  0  0  0  0
   -3.1330   14.6167  -33.2769 H   0  0  0  0  0  0  0  0  0  0  0  0
   -2.5482   14.4196  -35.1324 H   0  0  0  0  0  0  0  0  0  0  0  0
   -3.4449   15.6644  -36.0666 H   0  0  0  0  0  0  0  0  0  0  0  0
   -1.6486   15.6624  -36.0666 H   0  0  0  0  0  0  0  0  0  0  0  0
   -2.9604   18.3453  -33.7425 H   0  0  0  0  0  0  0  0  0  0  0  0
   -2.7152   18.0349  -35.5187 H   0  0  0  0  0  0  0  0  0  0  0  0
   -5.1592   18.4771  -34.3876 H   0  0  0  0  0  0  0  0  0  0  0  0
   -4.8772   17.4733  -35.8733 H   0  0  0  0  0  0  0  0  0  0  0  0
   -5.3770   20.9863  -31.8436 H   0  0  0  0  0  0  0  0  0  0  0  0
   -1.1337   25.8799  -29.1686 H   0  0  0  0  0  0  0  0  0  0  0  0
    0.5259   24.3311  -25.9206 H   0  0  0  0  0  0  0  0  0  0  0  0
    2.2583   24.4147  -26.3881 H   0  0  0  0  0  0  0  0  0  0  0  0
    1.2551   25.9048  -26.3881 H   0  0  0  0  0  0  0  0  0  0  0  0
  1  2  1  0
  2  3  1  0
  3  4  2  0
  4  5  1  0
  5  6  2  0
  6  7  1  0
  7  8  1  0
  8  9  2  0
  8 10  1  0
 10 11  1  0
 11 12  2  0
 12 13  1  0
 13 14  2  0
 14 15  1  0
 15 16  1  0
 16 17  2  0
 17 18  1  0
 18 19  1  0
 19 20  1  0
 20 21  1  0
 21 22  1  0
 22 23  1  0
 23 24  1  0
 24 25  1  0
 24 26  1  0
 26 27  1  0
 19 28  2  0
 15 29  2  0
  6 30  1  0
 30 31  2  0
 31 32  1  0
 32 33  1  0
 31  3  1  0
 29 11  1  0
 28 16  1  0
 27 21  1  0
  1 34  1  0
  1 35  1  0
  1 36  1  0
  4 37  1  0
  5 38  1  0
 10 39  1  0
 12 40  1  0
 13 41  1  0
 14 42  1  0
 20 43  1  0
 20 44  1  0
 22 45  1  0
 22 46  1  0
 23 47  1  0
 23 48  1  0
 25 49  1  0
 25 50  1  0
 25 51  1  0
 26 52  1  0
 26 53  1  0
 27 54  1  0
 27 55  1  0
 29 56  1  0
 30 57  1  0
 33 58  1  0
 33 59  1  0
 33 60  1  0
M  CHG  1   7  -1
M  END
>  <UniqueID>  (22) 
19

>  <SMILES>  (22) 
COc1ccc([N-]C(=O)Nc2cccc(-c3noc(CN4CCN(C)CC4)n3)c2)cc1OC

>  <Energy>  (22) 
114.42950158932909

>  <Genealogy>  (22) 
COc1ccc([N-]C(=O)Nc2cccc(-c3noc(CN4CCN(C)CC4)n3)c2)cc1OC (protonated)
COc1ccc([N-]C(=O)Nc2cccc(-c3noc(CN4CCN(C)CC4)n3)c2)cc1OC (3D coordinates assigned)
COc1ccc([N-]C(=O)Nc2cccc(-c3noc(CN4CCN(C)CC4)n3)c2)cc1OC (nonaromatic ring conformer: 114.42950158932909 kcal/mol)

>  <smiles>  (22) 
COc1ccc(NC(=O)Nc2cccc(-c3noc(CN4CCN(C)CC4)n3)c2)cc1OC

>  <score_type>  (22) 
oracle

>  <origin>  (22) 
adgpu

>  <m_score__min__energy>  (22) 
-10.23

>  <m_primary>  (22) 
energy

$$$$
22:0
     RDKit          3D

 55 58  0  0  0  0  0  0  0  0999 V2000
    1.0980   22.6640  -27.0540 C   0  0  0  0  0  0  0  0  0  0  0  0
   -0.1910   22.3730  -26.5220 O   0  0  0  0  0  0  0  0  0  0  0  0
   -1.3830   22.9760  -26.9520 C   0  0  0  0  0  0  0  0  0  0  0  0
   -1.6150   24.3570  -26.8070 C   0  0  0  0  0  0  0  0  0  0  0  0
   -2.7980   24.9310  -27.2740 C   0  0  0  0  0  0  0  0  0  0  0  0
   -3.7730   24.1390  -27.9050 C   0  0  0  0  0  0  0  0  0  0  0  0
   -4.9920   24.7050  -28.4180 N   0  0  0  0  0  0  0  0  0  0  0  0
   -5.3540   24.8260  -30.1120 S   0  0  0  0  0  0  0  0  0  0  0  0
   -4.2140   25.5160  -30.8100 O   0  0  0  0  0  0  0  0  0  0  0  0
   -6.6040   25.6390  -30.2980 O   0  0  0  0  0  0  0  0  0  0  0  0
   -5.6190   23.2190  -30.7790 C   0  0  0  0  0  0  0  0  0  0  0  0
   -6.9090   22.6730  -30.8350 C   0  0  0  0  0  0  0  0  0  0  0  0
   -7.1140   21.4100  -31.4000 C   0  0  0  0  0  0  0  0  0  0  0  0
   -6.0300   20.6730  -31.9110 C   0  0  0  0  0  0  0  0  0  0  0  0
   -6.2490   19.3410  -32.5280 C   0  0  0  0  0  0  0  0  0  0  0  0
   -5.3920   18.8740  -33.5440 C   0  0  0  0  0  0  0  0  0  0  0  0
   -5.5890   17.6120  -34.1130 C   0  0  0  0  0  0  0  0  0  0  0  0
   -6.6440   16.8050  -33.6780 C   0  0  0  0  0  0  0  0  0  0  0  0
   -6.8890   15.2220  -34.3930 Cl  0  0  0  0  0  0  0  0  0  0  0  0
   -7.5040   17.2600  -32.6720 C   0  0  0  0  0  0  0  0  0  0  0  0
   -7.3070   18.5190  -32.0970 C   0  0  0  0  0  0  0  0  0  0  0  0
   -4.7370   21.2230  -31.8390 C   0  0  0  0  0  0  0  0  0  0  0  0
   -4.5360   22.4860  -31.2780 C   0  0  0  0  0  0  0  0  0  0  0  0
   -3.5500   22.7620  -28.0330 C   0  0  0  0  0  0  0  0  0  0  0  0
   -2.3680   22.1770  -27.5590 C   0  0  0  0  0  0  0  0  0  0  0  0
   -2.1650   20.7650  -27.7240 N   0  0  0  0  0  0  0  0  0  0  0  0
   -1.0180   20.2750  -28.4950 C   0  0  0  0  0  0  0  0  0  0  0  0
   -0.8560   18.7610  -28.3110 C   0  0  0  0  0  0  0  0  0  0  0  0
   -1.0180   18.3990  -26.8960 N   0  0  0  0  0  0  0  0  0  0  0  0
   -2.3700   18.6950  -26.3770 C   0  0  0  0  0  0  0  0  0  0  0  0
   -3.1130   19.8150  -27.1360 C   0  0  0  0  0  0  0  0  0  0  0  0
    1.8076   22.8242  -26.2289 H   0  0  0  0  0  0  0  0  0  0  0  0
    1.4387   21.8202  -27.6720 H   0  0  0  0  0  0  0  0  0  0  0  0
    1.0431   23.5724  -27.6720 H   0  0  0  0  0  0  0  0  0  0  0  0
   -0.8570   24.9891  -26.3213 H   0  0  0  0  0  0  0  0  0  0  0  0
   -2.9687   26.0103  -27.1476 H   0  0  0  0  0  0  0  0  0  0  0  0
   -5.7610   24.9420  -27.7520 H   0  0  0  0  0  0  0  0  0  0  0  0
   -7.7623   23.2394  -30.4335 H   0  0  0  0  0  0  0  0  0  0  0  0
   -8.1297   20.9901  -31.4451 H   0  0  0  0  0  0  0  0  0  0  0  0
   -4.5621   19.5066  -33.8921 H   0  0  0  0  0  0  0  0  0  0  0  0
   -4.9131   17.2541  -34.9036 H   0  0  0  0  0  0  0  0  0  0  0  0
   -8.3365   16.6259  -32.3331 H   0  0  0  0  0  0  0  0  0  0  0  0
   -7.9829   18.8692  -31.3030 H   0  0  0  0  0  0  0  0  0  0  0  0
   -3.8789   20.6546  -32.2271 H   0  0  0  0  0  0  0  0  0  0  0  0
   -3.5210   22.9071  -31.2280 H   0  0  0  0  0  0  0  0  0  0  0  0
   -4.3132   22.1312  -28.5122 H   0  0  0  0  0  0  0  0  0  0  0  0
   -1.1773   20.4954  -29.5609 H   0  0  0  0  0  0  0  0  0  0  0  0
   -0.1072   20.7769  -28.1366 H   0  0  0  0  0  0  0  0  0  0  0  0
   -1.6180   18.2392  -28.9086 H   0  0  0  0  0  0  0  0  0  0  0  0
    0.1503   18.4659  -28.6429 H   0  0  0  0  0  0  0  0  0  0  0  0
   -0.3130   18.9360  -26.3340 H   0  0  0  0  0  0  0  0  0  0  0  0
   -2.9723   17.7769  -26.4424 H   0  0  0  0  0  0  0  0  0  0  0  0
   -2.2392   19.0492  -25.3438 H   0  0  0  0  0  0  0  0  0  0  0  0
   -3.7180   19.3667  -27.9379 H   0  0  0  0  0  0  0  0  0  0  0  0
   -3.7565   20.3544  -26.4254 H   0  0  0  0  0  0  0  0  0  0  0  0
  1  2  1  0
  2  3  1  0
  3  4  2  0
  4  5  1  0
  5  6  2  0
  6  7  1  0
  7  8  1  0
  8  9  2  0
  8 10  2  0
  8 11  1  0
 11 12  2  0
 12 13  1  0
 13 14  2  0
 14 15  1  0
 15 16  2  0
 16 17  1  0
 17 18  2  0
 18 19  1  0
 18 20  1  0
 20 21  2  0
 14 22  1  0
 22 23  2  0
  6 24  1  0
 24 25  2  0
 25 26  1  0
 26 27  1  0
 27 28  1  0
 28 29  1  0
 29 30  1  0
 30 31  1  0
 25  3  1  0
 31 26  1  0
 23 11  1  0
 21 15  1  0
  1 32  1  0
  1 33  1  0
  1 34  1  0
  4 35  1  0
  5 36  1  0
  7 37  1  0
 12 38  1  0
 13 39  1  0
 16 40  1  0
 17 41  1  0
 20 42  1  0
 21 43  1  0
 22 44  1  0
 23 45  1  0
 24 46  1  0
 27 47  1  0
 27 48  1  0
 28 49  1  0
 28 50  1  0
 29 51  1  0
 30 52  1  0
 30 53  1  0
 31 54  1  0
 31 55  1  0
M  END
>  <UniqueID>  (23) 
20

>  <SMILES>  (23) 
COc1ccc(NS(=O)(=O)c2ccc(-c3ccc(Cl)cc3)cc2)cc1N1CCNCC1

>  <Energy>  (23) 
75.02007023523464

>  <Genealogy>  (23) 
COc1ccc(NS(=O)(=O)c2ccc(-c3ccc(Cl)cc3)cc2)cc1N1CCNCC1 (3D coordinates assigned)
COc1ccc(NS(=O)(=O)c2ccc(-c3ccc(Cl)cc3)cc2)cc1N1CCNCC1 (nonaromatic ring conformer: 75.02007023523464 kcal/mol)

>  <smiles>  (23) 
COc1ccc(NS(=O)(=O)c2ccc(-c3ccc(Cl)cc3)cc2)cc1N1CCNCC1

>  <score_type>  (23) 
oracle

>  <origin>  (23) 
adgpu

>  <m_score__min__energy>  (23) 
-10.880000000000001

>  <m_primary>  (23) 
energy

$$$$
23:0
     RDKit          3D

 29 31  0  0  0  0  0  0  0  0999 V2000
    0.3340   24.5550  -27.9270 O   0  0  0  0  0  0  0  0  0  0  0  0
   -0.7150   24.0520  -28.6870 C   0  0  0  0  0  0  0  0  0  0  0  0
   -0.7990   22.6810  -28.9350 C   0  0  0  0  0  0  0  0  0  0  0  0
   -1.8500   22.1690  -29.6980 C   0  0  0  0  0  0  0  0  0  0  0  0
   -2.8370   23.0220  -30.2280 C   0  0  0  0  0  0  0  0  0  0  0  0
   -3.9420   22.4450  -31.0370 C   0  0  0  0  0  0  0  0  0  0  0  0
   -4.0760   21.1190  -31.2580 N   0  0  0  0  0  0  0  0  0  0  0  0
   -5.1810   21.0170  -32.0190 C   0  0  0  0  0  0  0  0  0  0  0  0
   -5.7240   19.7280  -32.5160 C   0  0  0  0  0  0  0  0  0  0  0  0
   -5.4900   19.3370  -33.8470 C   0  0  0  0  0  0  0  0  0  0  0  0
   -5.9930   18.1260  -34.3310 C   0  0  0  0  0  0  0  0  0  0  0  0
   -6.7370   17.2870  -33.4910 C   0  0  0  0  0  0  0  0  0  0  0  0
   -7.2430   16.0780  -33.9620 O   0  0  0  0  0  0  0  0  0  0  0  0
   -6.9740   17.6670  -32.1680 C   0  0  0  0  0  0  0  0  0  0  0  0
   -6.4720   18.8770  -31.6800 C   0  0  0  0  0  0  0  0  0  0  0  0
   -5.6910   22.2800  -32.2400 C   0  0  0  0  0  0  0  0  0  0  0  0
   -4.9100   23.1820  -31.6210 N   0  0  0  0  0  0  0  0  0  0  0  0
   -2.7450   24.4100  -29.9730 C   0  0  0  0  0  0  0  0  0  0  0  0
   -3.6940   25.2950  -30.4730 O   0  0  0  0  0  0  0  0  0  0  0  0
   -1.6860   24.9160  -29.2060 C   0  0  0  0  0  0  0  0  0  0  0  0
   -1.6000   26.2830  -28.9570 O   0  0  0  0  0  0  0  0  0  0  0  0
   -0.0350   22.0021  -28.5282 H   0  0  0  0  0  0  0  0  0  0  0  0
   -1.9077   21.0870  -29.8873 H   0  0  0  0  0  0  0  0  0  0  0  0
   -4.9062   19.9899  -34.5125 H   0  0  0  0  0  0  0  0  0  0  0  0
   -5.8043   17.8310  -35.3738 H   0  0  0  0  0  0  0  0  0  0  0  0
   -6.7280   15.2110  -33.8590 H   0  0  0  0  0  0  0  0  0  0  0  0
   -7.5587   17.0107  -31.5066 H   0  0  0  0  0  0  0  0  0  0  0  0
   -6.6626   19.1662  -30.6360 H   0  0  0  0  0  0  0  0  0  0  0  0
   -6.5915   22.5113  -32.8279 H   0  0  0  0  0  0  0  0  0  0  0  0
  1  2  1  0
  2  3  2  0
  3  4  1  0
  4  5  2  0
  5  6  1  0
  6  7  2  0
  7  8  1  0
  8  9  1  0
  9 10  2  0
 10 11  1  0
 11 12  2  0
 12 13  1  0
 12 14  1  0
 14 15  2  0
  8 16  2  0
 16 17  1  0
  5 18  1  0
 18 19  1  0
 18 20  2  0
 20 21  1  0
 20  2  1  0
 17  6  1  0
 15  9  1  0
  3 22  1  0
  4 23  1  0
 10 24  1  0
 11 25  1  0
 13 26  1  0
 14 27  1  0
 15 28  1  0
 16 29  1  0
M  CHG  4   1  -1  17  -1  19  -1  21  -1
M  END
>  <UniqueID>  (24) 
21

>  <SMILES>  (24) 
[O-]c1ccc(-c2nc(-c3ccc(O)cc3)c[n-]2)c([O-])c1[O-]

>  <Energy>  (24) 
63.621054055461215

>  <Genealogy>  (24) 
[O-]c1ccc(-c2nc(-c3ccc(O)cc3)c[n-]2)c([O-])c1[O-] (protonated)
[O-]c1ccc(-c2nc(-c3ccc(O)cc3)c[n-]2)c([O-])c1[O-] (3D coordinates assigned)
[O-]c1ccc(-c2nc(-c3ccc(O)cc3)c[n-]2)c([O-])c1[O-] (optimized conformer: 63.621054055461215 kcal/mol)

>  <smiles>  (24) 
Oc1ccc(-c2c[nH]c(-c3ccc(O)c(O)c3O)n2)cc1

>  <score_type>  (24) 
oracle

>  <origin>  (24) 
adgpu

>  <m_score__min__energy>  (24) 
-13.58

>  <m_primary>  (24) 
energy

$$$$
24:0
     RDKit          3D

 56 59  0  0  0  0  0  0  0  0999 V2000
   -5.5600   25.9600  -30.1240 C   0  0  0  0  0  0  0  0  0  0  0  0
   -5.5300   24.6180  -30.7960 C   0  0  0  0  0  0  0  0  0  0  0  0
   -6.3980   24.3810  -31.8160 N   0  0  0  0  0  0  0  0  0  0  0  0
   -6.4200   23.2210  -32.4700 N   0  0  0  0  0  0  0  0  0  0  0  0
   -5.5710   22.2030  -32.1560 C   0  0  0  0  0  0  0  0  0  0  0  0
   -5.5940   20.9610  -32.9080 N   0  0  1  0  0  0  0  0  0  0  0  0
   -4.2330   20.4010  -33.0450 C   0  0  0  0  0  0  0  0  0  0  0  0
   -6.6100   20.0200  -32.3530 C   0  0  0  0  0  0  0  0  0  0  0  0
   -6.3620   18.5190  -32.7040 C   0  0  0  0  0  0  0  0  0  0  0  0
   -7.6430   17.6620  -32.6590 C   0  0  0  0  0  0  0  0  0  0  0  0
   -8.6350   18.1780  -31.6100 C   0  0  0  0  0  0  0  0  0  0  0  0
   -9.0890   19.6230  -31.9070 C   0  0  0  0  0  0  0  0  0  0  0  0
   -8.0550   20.4380  -32.7110 C   0  0  0  0  0  0  0  0  0  0  0  0
   -4.6500   22.3920  -31.1180 C   0  0  0  0  0  0  0  0  0  0  0  0
   -4.6390   23.5960  -30.4050 C   0  0  0  0  0  0  0  0  0  0  0  0
   -3.7080   23.7490  -29.2650 C   0  0  0  0  0  0  0  0  0  0  0  0
   -2.3490   23.4290  -29.4130 C   0  0  0  0  0  0  0  0  0  0  0  0
   -1.4750   23.5410  -28.3270 C   0  0  0  0  0  0  0  0  0  0  0  0
   -1.9540   23.9660  -27.0820 C   0  0  0  0  0  0  0  0  0  0  0  0
   -0.8380   24.0890  -25.6850 S   0  0  0  0  0  0  0  0  0  0  0  0
   -0.7710   25.8780  -25.7730 C   0  0  0  0  0  0  0  0  0  0  0  0
   -0.5430   26.5120  -27.0000 C   0  0  0  0  0  0  0  0  0  0  0  0
   -0.4840   27.9080  -27.0670 C   0  0  0  0  0  0  0  0  0  0  0  0
   -0.6500   28.6720  -25.9070 C   0  0  0  0  0  0  0  0  0  0  0  0
   -0.8770   28.0400  -24.6800 C   0  0  0  0  0  0  0  0  0  0  0  0
   -0.9350   26.6450  -24.6120 C   0  0  0  0  0  0  0  0  0  0  0  0
   -3.3090   24.2740  -26.9250 C   0  0  0  0  0  0  0  0  0  0  0  0
   -4.1840   24.1660  -28.0110 C   0  0  0  0  0  0  0  0  0  0  0  0
   -5.5570   25.8236  -29.0325 H   0  0  0  0  0  0  0  0  0  0  0  0
   -4.6746   26.5399  -30.4235 H   0  0  0  0  0  0  0  0  0  0  0  0
   -6.4704   26.4998  -30.4235 H   0  0  0  0  0  0  0  0  0  0  0  0
   -5.8950   21.1910  -33.8850 H   0  0  0  0  0  0  0  0  0  0  0  0
   -3.8065   20.2255  -32.0464 H   0  0  0  0  0  0  0  0  0  0  0  0
   -4.2816   19.4498  -33.5953 H   0  0  0  0  0  0  0  0  0  0  0  0
   -3.5981   21.1109  -33.5953 H   0  0  0  0  0  0  0  0  0  0  0  0
   -6.4854   20.0994  -31.2630 H   0  0  0  0  0  0  0  0  0  0  0  0
   -5.9399   18.4628  -33.7182 H   0  0  0  0  0  0  0  0  0  0  0  0
   -5.6742   18.1166  -31.9457 H   0  0  0  0  0  0  0  0  0  0  0  0
   -8.1242   17.6883  -33.6478 H   0  0  0  0  0  0  0  0  0  0  0  0
   -7.3587   16.6351  -32.3857 H   0  0  0  0  0  0  0  0  0  0  0  0
   -9.5182   17.5223  -31.6032 H   0  0  0  0  0  0  0  0  0  0  0  0
   -8.1298   18.1740  -30.6329 H   0  0  0  0  0  0  0  0  0  0  0  0
  -10.0252   19.5827  -32.4831 H   0  0  0  0  0  0  0  0  0  0  0  0
   -9.2178   20.1281  -30.9383 H   0  0  0  0  0  0  0  0  0  0  0  0
   -8.2216   20.2683  -33.7850 H   0  0  0  0  0  0  0  0  0  0  0  0
   -8.1810   21.5019  -32.4613 H   0  0  0  0  0  0  0  0  0  0  0  0
   -3.9360   21.5948  -30.8635 H   0  0  0  0  0  0  0  0  0  0  0  0
   -1.9699   23.0885  -30.3879 H   0  0  0  0  0  0  0  0  0  0  0  0
   -0.4101   23.2949  -28.4511 H   0  0  0  0  0  0  0  0  0  0  0  0
   -0.4101   25.9119  -27.9123 H   0  0  0  0  0  0  0  0  0  0  0  0
   -0.3070   28.4051  -28.0322 H   0  0  0  0  0  0  0  0  0  0  0  0
   -0.6020   29.7697  -25.9598 H   0  0  0  0  0  0  0  0  0  0  0  0
   -1.0099   28.6409  -23.7683 H   0  0  0  0  0  0  0  0  0  0  0  0
   -1.1096   26.1489  -23.6459 H   0  0  0  0  0  0  0  0  0  0  0  0
   -3.6875   24.6018  -25.9456 H   0  0  0  0  0  0  0  0  0  0  0  0
   -5.2492   24.4086  -27.8824 H   0  0  0  0  0  0  0  0  0  0  0  0
  1  2  1  0
  2  3  2  0
  3  4  1  0
  4  5  2  0
  5  6  1  0
  6  7  1  0
  6  8  1  0
  8  9  1  0
  9 10  1  0
 10 11  1  0
 11 12  1  0
 12 13  1  0
  5 14  1  0
 14 15  2  0
 15 16  1  0
 16 17  2  0
 17 18  1  0
 18 19  2  0
 19 20  1  0
 20 21  1  0
 21 22  2  0
 22 23  1  0
 23 24  2  0
 24 25  1  0
 25 26  2  0
 19 27  1  0
 27 28  2  0
 15  2  1  0
 28 16  1  0
 13  8  1  0
 26 21  1  0
  1 29  1  0
  1 30  1  0
  1 31  1  0
  6 32  1  6
  7 33  1  0
  7 34  1  0
  7 35  1  0
  8 36  1  0
  9 37  1  0
  9 38  1  0
 10 39  1  0
 10 40  1  0
 11 41  1  0
 11 42  1  0
 12 43  1  0
 12 44  1  0
 13 45  1  0
 13 46  1  0
 14 47  1  0
 17 48  1  0
 18 49  1  0
 22 50  1  0
 23 51  1  0
 24 52  1  0
 25 53  1  0
 26 54  1  0
 27 55  1  0
 28 56  1  0
M  CHG  1   6   1
M  END
>  <UniqueID>  (25) 
22

>  <SMILES>  (25) 
Cc1nnc([N@@H+](C)C2CCCCC2)cc1-c1ccc(Sc2ccccc2)cc1

>  <Energy>  (25) 
72.63131200498917

>  <Genealogy>  (25) 
Cc1nnc([NH+](C)C2CCCCC2)cc1-c1ccc(Sc2ccccc2)cc1 (protonated)
Cc1nnc([N@@H+](C)C2CCCCC2)cc1-c1ccc(Sc2ccccc2)cc1 (chirality)
Cc1nnc([N@@H+](C)C2CCCCC2)cc1-c1ccc(Sc2ccccc2)cc1 (3D coordinates assigned)
Cc1nnc([N@@H+](C)C2CCCCC2)cc1-c1ccc(Sc2ccccc2)cc1 (nonaromatic ring conformer: 72.63131200498917 kcal/mol)

>  <smiles>  (25) 
Cc1nnc(N(C)C2CCCCC2)cc1-c1ccc(Sc2ccccc2)cc1

>  <score_type>  (25) 
oracle

>  <origin>  (25) 
adgpu

>  <m_score__min__energy>  (25) 
-9.7400000000000002

>  <m_primary>  (25) 
energy

$$$$
25:0
     RDKit          3D

 36 38  0  0  0  0  0  0  0  0999 V2000
   -1.3850   25.6770  -28.9960 O   0  0  0  0  0  0  0  0  0  0  0  0
   -2.3640   24.5470  -29.1530 S   0  0  0  0  0  0  0  0  0  0  0  0
   -3.1060   24.3590  -27.8600 O   0  0  0  0  0  0  0  0  0  0  0  0
   -3.4930   24.9320  -30.4100 N   0  0  0  0  0  0  0  0  0  0  0  0
   -4.7840   24.3300  -30.5750 C   0  0  0  0  0  0  0  0  0  0  0  0
   -4.9300   23.3050  -31.5170 C   0  0  0  0  0  0  0  0  0  0  0  0
   -6.1710   22.6950  -31.7170 C   0  0  0  0  0  0  0  0  0  0  0  0
   -7.2920   23.1030  -30.9670 C   0  0  0  0  0  0  0  0  0  0  0  0
   -8.5610   22.5250  -31.1280 O   0  0  0  0  0  0  0  0  0  0  0  0
   -9.0120   21.8350  -32.2930 C   0  0  0  0  0  0  0  0  0  0  0  0
   -8.4540   20.4380  -32.3370 C   0  0  0  0  0  0  0  0  0  0  0  0
   -7.3390   20.1530  -33.1410 C   0  0  0  0  0  0  0  0  0  0  0  0
   -6.8120   18.8580  -33.1810 C   0  0  0  0  0  0  0  0  0  0  0  0
   -7.3890   17.8430  -32.4140 C   0  0  0  0  0  0  0  0  0  0  0  0
   -8.4930   18.1210  -31.6040 C   0  0  0  0  0  0  0  0  0  0  0  0
   -9.0230   19.4140  -31.5600 C   0  0  0  0  0  0  0  0  0  0  0  0
   -7.1430   24.1260  -30.0250 C   0  0  0  0  0  0  0  0  0  0  0  0
   -5.9010   24.7350  -29.8240 C   0  0  0  0  0  0  0  0  0  0  0  0
   -1.5230   23.0590  -29.5470 C   0  0  0  0  0  0  0  0  0  0  0  0
   -1.7460   22.2300  -30.6200 C   0  0  0  0  0  0  0  0  0  0  0  0
   -0.8960   21.1890  -30.5420 N   0  0  0  0  0  0  0  0  0  0  0  0
   -0.1460   21.3320  -29.4580 N   0  0  0  0  0  0  0  0  0  0  0  0
   -0.5100   22.4670  -28.8320 C   0  0  0  0  0  0  0  0  0  0  0  0
   -4.0601   22.9769  -32.1049 H   0  0  0  0  0  0  0  0  0  0  0  0
   -6.2733   21.8930  -32.4629 H   0  0  0  0  0  0  0  0  0  0  0  0
  -10.1107   21.7841  -32.2791 H   0  0  0  0  0  0  0  0  0  0  0  0
   -8.6649   22.3812  -33.1825 H   0  0  0  0  0  0  0  0  0  0  0  0
   -6.8781   20.9510  -33.7417 H   0  0  0  0  0  0  0  0  0  0  0  0
   -5.9420   18.6385  -33.8173 H   0  0  0  0  0  0  0  0  0  0  0  0
   -6.9741   16.8248  -32.4477 H   0  0  0  0  0  0  0  0  0  0  0  0
   -8.9460   17.3211  -30.9998 H   0  0  0  0  0  0  0  0  0  0  0  0
   -9.8877   19.6306  -30.9155 H   0  0  0  0  0  0  0  0  0  0  0  0
   -8.0121   24.4547  -29.4363 H   0  0  0  0  0  0  0  0  0  0  0  0
   -5.7974   25.5342  -29.0753 H   0  0  0  0  0  0  0  0  0  0  0  0
   -2.4940   22.3902  -31.4105 H   0  0  0  0  0  0  0  0  0  0  0  0
   -0.0694   22.8559  -27.9022 H   0  0  0  0  0  0  0  0  0  0  0  0
  1  2  2  0
  2  3  2  0
  2  4  1  0
  4  5  1  0
  5  6  2  0
  6  7  1  0
  7  8  2  0
  8  9  1  0
  9 10  1  0
 10 11  1  0
 11 12  2  0
 12 13  1  0
 13 14  2  0
 14 15  1  0
 15 16  2  0
  8 17  1  0
 17 18  2  0
  2 19  1  0
 19 20  1  0
 20 21  2  0
 21 22  1  0
 22 23  1  0
 18  5  1  0
 23 19  2  0
 16 11  1  0
  6 24  1  0
  7 25  1  0
 10 26  1  0
 10 27  1  0
 12 28  1  0
 13 29  1  0
 14 30  1  0
 15 31  1  0
 16 32  1  0
 17 33  1  0
 18 34  1  0
 20 35  1  0
 23 36  1  0
M  CHG  2   4  -1  22  -1
M  END
>  <UniqueID>  (26) 
23

>  <SMILES>  (26) 
O=S(=O)([N-]c1ccc(OCc2ccccc2)cc1)c1cn[n-]c1

>  <Energy>  (26) 
71.32724300433142

>  <Genealogy>  (26) 
O=S(=O)([N-]c1ccc(OCc2ccccc2)cc1)c1cn[n-]c1 (protonated)
O=S(=O)([N-]c1ccc(OCc2ccccc2)cc1)c1cn[n-]c1 (3D coordinates assigned)
O=S(=O)([N-]c1ccc(OCc2ccccc2)cc1)c1cn[n-]c1 (optimized conformer: 71.32724300433142 kcal/mol)

>  <smiles>  (26) 
O=S(=O)(Nc1ccc(OCc2ccccc2)cc1)c1cn[nH]c1

>  <score_type>  (26) 
oracle

>  <origin>  (26) 
adgpu

>  <m_score__min__energy>  (26) 
-10.01

>  <m_primary>  (26) 
energy

$$$$
26:0
     RDKit          3D

 68 72  0  0  1  0  0  0  0  0999 V2000
   -8.3320   18.2740  -31.9810 C   0  0  0  0  0  0  0  0  0  0  0  0
   -7.7030   19.5710  -31.5790 C   0  0  0  0  0  0  0  0  0  0  0  0
   -8.4220   20.6810  -32.3040 C   0  0  0  0  0  0  0  0  0  0  0  0
   -6.2800   19.6050  -31.6740 N   0  0  0  0  0  0  0  0  0  0  0  0
   -5.6350   18.9990  -33.1210 S   0  0  0  0  0  0  0  0  0  0  0  0
   -6.3960   19.6820  -34.2510 O   0  0  0  0  0  0  0  0  0  0  0  0
   -5.8230   17.5360  -33.3080 O   0  0  0  0  0  0  0  0  0  0  0  0
   -3.9590   19.4650  -33.3520 C   0  0  0  0  0  0  0  0  0  0  0  0
   -2.9820   18.5560  -33.7200 C   0  0  0  0  0  0  0  0  0  0  0  0
   -1.6810   18.9730  -33.8870 C   0  0  0  0  0  0  0  0  0  0  0  0
   -1.3160   20.3040  -33.6930 C   0  0  0  0  0  0  0  0  0  0  0  0
   -2.3130   21.1860  -33.3270 C   0  0  0  0  0  0  0  0  0  0  0  0
   -3.6290   20.8080  -33.1480 C   0  0  0  0  0  0  0  0  0  0  0  0
   -4.6560   21.7150  -32.7700 N   0  0  0  0  0  0  0  0  0  0  0  0
   -4.4930   22.5510  -31.8020 C   0  0  0  0  0  0  0  0  0  0  0  0
   -3.3140   22.5740  -31.1220 N   0  0  0  0  0  0  0  0  0  0  0  0
   -3.1580   23.4560  -30.1150 C   0  0  0  0  0  0  0  0  0  0  0  0
   -2.0280   23.4500  -29.4880 N   0  0  0  0  0  0  0  0  0  0  0  0
   -1.8020   24.3510  -28.4220 C   0  0  0  0  0  0  0  0  0  0  0  0
   -2.4330   24.2570  -27.2020 C   0  0  0  0  0  0  0  0  0  0  0  0
   -2.1890   25.1660  -26.1660 C   0  0  0  0  0  0  0  0  0  0  0  0
   -1.3020   26.2010  -26.3260 C   0  0  0  0  0  0  0  0  0  0  0  0
   -1.0740   27.1230  -25.2690 N   0  0  0  0  0  0  0  0  0  0  0  0
   -0.8350   28.5190  -25.5930 C   0  0  0  0  0  0  0  0  0  0  0  0
   -0.0520   29.1950  -24.4870 C   0  0  0  0  0  0  0  0  0  0  0  0
    0.8580   28.2900  -23.8300 N   0  0  0  0  0  0  0  0  0  0  0  0
    0.2280   27.1590  -23.2020 C   0  0  0  0  0  0  0  0  0  0  0  0
   -1.0690   26.7730  -23.8710 C   0  0  0  0  0  0  0  0  0  0  0  0
   -0.6660   26.3000  -27.5470 C   0  0  0  0  0  0  0  0  0  0  0  0
   -0.9080   25.3950  -28.5800 C   0  0  0  0  0  0  0  0  0  0  0  0
   -4.1660   24.2940  -29.8000 N   0  0  0  0  0  0  0  0  0  0  0  0
   -5.3450   24.2870  -30.4650 C   0  0  0  0  0  0  0  0  0  0  0  0
   -5.5320   23.3880  -31.5070 C   0  0  0  0  0  0  0  0  0  0  0  0
   -6.8770   23.5880  -32.0470 C   0  0  0  0  0  0  0  0  0  0  0  0
   -7.5980   24.1860  -30.8500 C   0  0  0  0  0  0  0  0  0  0  0  0
   -6.5430   25.0540  -30.3330 N   0  0  0  0  0  0  0  0  0  0  0  0
   -8.6077   17.7055  -31.0805 H   0  0  0  0  0  0  0  0  0  0  0  0
   -9.2335   18.4735  -32.5790 H   0  0  0  0  0  0  0  0  0  0  0  0
   -7.6172   17.6896  -32.5790 H   0  0  0  0  0  0  0  0  0  0  0  0
   -7.8363   19.7128  -30.4964 H   0  0  0  0  0  0  0  0  0  0  0  0
   -8.8678   21.3693  -31.5708 H   0  0  0  0  0  0  0  0  0  0  0  0
   -7.7075   21.2299  -32.9350 H   0  0  0  0  0  0  0  0  0  0  0  0
   -9.2151   20.2534  -32.9350 H   0  0  0  0  0  0  0  0  0  0  0  0
   -5.9340   20.5550  -31.5120 H   0  0  0  0  0  0  0  0  0  0  0  0
   -3.2455   17.4999  -33.8790 H   0  0  0  0  0  0  0  0  0  0  0  0
   -0.9138   18.2410  -34.1795 H   0  0  0  0  0  0  0  0  0  0  0  0
   -0.2764   20.6380  -33.8260 H   0  0  0  0  0  0  0  0  0  0  0  0
   -2.0460   22.2415  -33.1703 H   0  0  0  0  0  0  0  0  0  0  0  0
   -2.5380   21.9350  -31.3580 H   0  0  0  0  0  0  0  0  0  0  0  0
   -3.1521   23.4413  -27.0361 H   0  0  0  0  0  0  0  0  0  0  0  0
   -2.7167   25.0489  -25.2080 H   0  0  0  0  0  0  0  0  0  0  0  0
   -0.2629   28.5800  -26.5306 H   0  0  0  0  0  0  0  0  0  0  0  0
   -1.8034   29.0285  -25.7051 H   0  0  0  0  0  0  0  0  0  0  0  0
    0.5253   30.0258  -24.9189 H   0  0  0  0  0  0  0  0  0  0  0  0
   -0.7711   29.5539  -23.7359 H   0  0  0  0  0  0  0  0  0  0  0  0
    1.7070   28.0700  -24.3860 H   0  0  0  0  0  0  0  0  0  0  0  0
    0.9164   26.3022  -23.2468 H   0  0  0  0  0  0  0  0  0  0  0  0
   -0.0027   27.4395  -22.1637 H   0  0  0  0  0  0  0  0  0  0  0  0
   -1.2095   25.6862  -23.7754 H   0  0  0  0  0  0  0  0  0  0  0  0
   -1.8850   27.3216  -23.3779 H   0  0  0  0  0  0  0  0  0  0  0  0
    0.0527   27.1166  -27.7100 H   0  0  0  0  0  0  0  0  0  0  0  0
   -0.3789   25.5132  -29.5371 H   0  0  0  0  0  0  0  0  0  0  0  0
   -4.0370   24.9770  -29.0210 H   0  0  0  0  0  0  0  0  0  0  0  0
   -6.8685   24.2831  -32.8995 H   0  0  0  0  0  0  0  0  0  0  0  0
   -7.3433   22.6726  -32.4401 H   0  0  0  0  0  0  0  0  0  0  0  0
   -8.4874   24.7584  -31.1522 H   0  0  0  0  0  0  0  0  0  0  0  0
   -7.9922   23.4533  -30.1304 H   0  0  0  0  0  0  0  0  0  0  0  0
   -6.6170   26.0170  -29.9470 H   0  0  0  0  0  0  0  0  0  0  0  0
  1  2  1  0
  2  3  1  0
  2  4  1  0
  4  5  1  0
  5  6  2  0
  5  7  2  0
  5  8  1  0
  8  9  2  0
  9 10  1  0
 10 11  2  0
 11 12  1  0
 12 13  2  0
 13 14  1  0
 14 15  2  0
 15 16  1  0
 16 17  1  0
 17 18  2  0
 18 19  1  0
 19 20  2  0
 20 21  1  0
 21 22  2  0
 22 23  1  0
 23 24  1  0
 24 25  1  0
 25 26  1  0
 26 27  1  0
 27 28  1  0
 22 29  1  0
 29 30  2  0
 17 31  1  0
 31 32  1  0
 32 33  2  0
 33 34  1  0
 34 35  1  0
 35 36  1  0
 13  8  1  0
 33 15  1  0
 30 19  1  0
 36 32  1  0
 28 23  1  0
  1 37  1  0
  1 38  1  0
  1 39  1  0
  2 40  1  0
  3 41  1  0
  3 42  1  0
  3 43  1  0
  4 44  1  0
  9 45  1  0
 10 46  1  0
 11 47  1  0
 12 48  1  0
 16 49  1  0
 20 50  1  0
 21 51  1  0
 24 52  1  0
 24 53  1  0
 25 54  1  0
 25 55  1  0
 26 56  1  0
 27 57  1  0
 27 58  1  0
 28 59  1  0
 28 60  1  0
 29 61  1  0
 30 62  1  0
 31 63  1  0
 34 64  1  0
 34 65  1  0
 35 66  1  0
 35 67  1  0
 36 68  1  0
M  END
>  <smiles>  (27) 
CC(C)NS(=O)(=O)c1ccccc1N=c1[nH]c(=Nc2ccc(N3CCNCC3)cc2)[nH]c2c1CCN2

>  <score_type>  (27) 
oracle

>  <origin>  (27) 
adgpu

>  <m_score__min__energy>  (27) 
-10.52

>  <m_primary>  (27) 
energy

$$$$
27:0
     RDKit          3D

 51 54  0  0  0  0  0  0  0  0999 V2000
   -6.9930   23.0830  -30.5660 C   0  0  0  0  0  0  0  0  0  0  0  0
   -7.7210   22.0180  -31.3440 C   0  0  0  0  0  0  0  0  0  0  0  0
   -9.1240   22.0030  -31.3310 C   0  0  0  0  0  0  0  0  0  0  0  0
   -9.8240   21.0080  -32.0100 C   0  0  0  0  0  0  0  0  0  0  0  0
   -9.1170   20.0290  -32.7060 C   0  0  0  0  0  0  0  0  0  0  0  0
   -7.7600   20.0620  -32.7340 N   0  0  0  0  0  0  0  0  0  0  0  0
   -7.0420   21.0280  -32.0960 C   0  0  0  0  0  0  0  0  0  0  0  0
   -5.5680   20.9860  -32.2030 C   0  0  0  0  0  0  0  0  0  0  0  0
   -4.8510   22.1730  -32.4080 C   0  0  0  0  0  0  0  0  0  0  0  0
   -3.4570   22.1460  -32.5110 C   0  0  0  0  0  0  0  0  0  0  0  0
   -2.7610   20.9330  -32.4020 C   0  0  0  0  0  0  0  0  0  0  0  0
   -1.3270   20.9070  -32.5350 N   0  0  0  0  0  0  0  0  0  0  0  0
   -0.5040   21.4050  -31.4230 C   0  0  0  0  0  0  0  0  0  0  0  0
   -1.3790   22.0010  -30.3530 C   0  0  0  0  0  0  0  0  0  0  0  0
   -2.0090   21.1780  -29.4050 C   0  0  0  0  0  0  0  0  0  0  0  0
   -2.8530   21.7350  -28.4390 C   0  0  0  0  0  0  0  0  0  0  0  0
   -3.0800   23.1130  -28.4170 C   0  0  0  0  0  0  0  0  0  0  0  0
   -2.4630   23.9390  -29.3620 C   0  0  0  0  0  0  0  0  0  0  0  0
   -2.6930   25.3090  -29.3420 O   0  0  0  0  0  0  0  0  0  0  0  0
   -1.6160   23.3870  -30.3270 C   0  0  0  0  0  0  0  0  0  0  0  0
   -0.7090   20.2100  -33.6410 C   0  0  0  0  0  0  0  0  0  0  0  0
   -1.0330   19.0150  -33.8850 O   0  0  0  0  0  0  0  0  0  0  0  0
    0.3080   20.8670  -34.4970 C   0  0  0  0  0  0  0  0  0  0  0  0
   -0.0470   21.9790  -35.2820 C   0  0  0  0  0  0  0  0  0  0  0  0
    0.9000   22.5990  -36.1010 C   0  0  0  0  0  0  0  0  0  0  0  0
    2.2130   22.1240  -36.1390 C   0  0  0  0  0  0  0  0  0  0  0  0
    3.1530   22.7420  -36.9530 O   0  0  0  0  0  0  0  0  0  0  0  0
    2.5810   21.0280  -35.3530 C   0  0  0  0  0  0  0  0  0  0  0  0
    1.6360   20.3990  -34.5330 C   0  0  0  0  0  0  0  0  0  0  0  0
    2.0240   19.2990  -33.7750 O   0  0  0  0  0  0  0  0  0  0  0  0
   -3.4780   19.7480  -32.1580 C   0  0  0  0  0  0  0  0  0  0  0  0
   -2.8240   18.5700  -31.9970 F   0  0  0  0  0  0  0  0  0  0  0  0
   -4.8710   19.7760  -32.0570 C   0  0  0  0  0  0  0  0  0  0  0  0
   -7.1181   22.9001  -29.4886 H   0  0  0  0  0  0  0  0  0  0  0  0
   -5.9232   23.0565  -30.8207 H   0  0  0  0  0  0  0  0  0  0  0  0
   -7.4062   24.0701  -30.8207 H   0  0  0  0  0  0  0  0  0  0  0  0
   -9.6742   22.7811  -30.7817 H   0  0  0  0  0  0  0  0  0  0  0  0
  -10.9238   20.9952  -31.9969 H   0  0  0  0  0  0  0  0  0  0  0  0
   -9.6586   19.2295  -33.2327 H   0  0  0  0  0  0  0  0  0  0  0  0
   -5.3876   23.1299  -32.4882 H   0  0  0  0  0  0  0  0  0  0  0  0
   -2.9028   23.0813  -32.6785 H   0  0  0  0  0  0  0  0  0  0  0  0
    0.0736   20.5714  -30.9971 H   0  0  0  0  0  0  0  0  0  0  0  0
    0.1780   22.1807  -31.8014 H   0  0  0  0  0  0  0  0  0  0  0  0
   -1.8379   20.0915  -29.4225 H   0  0  0  0  0  0  0  0  0  0  0  0
   -3.3390   21.0866  -27.6951 H   0  0  0  0  0  0  0  0  0  0  0  0
   -3.7443   23.5487  -27.6562 H   0  0  0  0  0  0  0  0  0  0  0  0
   -1.1327   24.0393  -31.0692 H   0  0  0  0  0  0  0  0  0  0  0  0
   -1.0773   22.3631  -35.2508 H   0  0  0  0  0  0  0  0  0  0  0  0
    0.6110   23.4631  -36.7173 H   0  0  0  0  0  0  0  0  0  0  0  0
    3.6167   20.6583  -35.3788 H   0  0  0  0  0  0  0  0  0  0  0  0
   -5.4245   18.8456  -31.8621 H   0  0  0  0  0  0  0  0  0  0  0  0
  1  2  1  0
  2  3  2  0
  3  4  1  0
  4  5  2  0
  5  6  1  0
  6  7  2  0
  7  8  1  0
  8  9  2  0
  9 10  1  0
 10 11  2  0
 11 12  1  0
 12 13  1  0
 13 14  1  0
 14 15  2  0
 15 16  1  0
 16 17  2  0
 17 18  1  0
 18 19  1  0
 18 20  2  0
 12 21  1  0
 21 22  2  0
 21 23  1  0
 23 24  2  0
 24 25  1  0
 25 26  2  0
 26 27  1  0
 26 28  1  0
 28 29  2  0
 29 30  1  0
 11 31  1  0
 31 32  1  0
 31 33  2  0
  7  2  1  0
 33  8  1  0
 20 14  1  0
 29 23  1  0
  1 34  1  0
  1 35  1  0
  1 36  1  0
  3 37  1  0
  4 38  1  0
  5 39  1  0
  9 40  1  0
 10 41  1  0
 13 42  1  0
 13 43  1  0
 15 44  1  0
 16 45  1  0
 17 46  1  0
 20 47  1  0
 24 48  1  0
 25 49  1  0
 28 50  1  0
 33 51  1  0
M  CHG  3  19  -1  27  -1  30  -1
M  END
>  <UniqueID>  (28) 
24

>  <SMILES>  (28) 
Cc1cccnc1-c1ccc(N(Cc2cccc([O-])c2)C(=O)c2ccc([O-])cc2[O-])c(F)c1

>  <Energy>  (28) 
72.06180096348156

>  <Genealogy>  (28) 
Cc1cccnc1-c1ccc(N(Cc2cccc([O-])c2)C(=O)c2ccc([O-])cc2[O-])c(F)c1 (protonated)
Cc1cccnc1-c1ccc(N(Cc2cccc([O-])c2)C(=O)c2ccc([O-])cc2[O-])c(F)c1 (3D coordinates assigned)
Cc1cccnc1-c1ccc(N(Cc2cccc([O-])c2)C(=O)c2ccc([O-])cc2[O-])c(F)c1 (optimized conformer: 72.06180096348156 kcal/mol)

>  <smiles>  (28) 
Cc1cccnc1-c1ccc(N(Cc2cccc(O)c2)C(=O)c2ccc(O)cc2O)c(F)c1

>  <score_type>  (28) 
oracle

>  <origin>  (28) 
adgpu

>  <m_score__min__energy>  (28) 
-12.369999999999999

>  <m_primary>  (28) 
energy

$$$$
28:0
     RDKit          3D

 40 42  0  0  0  0  0  0  0  0999 V2000
   -1.4850   25.6740  -29.0470 N   0  0  0  0  0  0  0  0  0  0  0  0
   -1.2290   24.0360  -28.5530 S   0  0  0  0  0  0  0  0  0  0  0  0
    0.2480   23.8100  -28.3920 O   0  0  0  0  0  0  0  0  0  0  0  0
   -1.9180   23.8090  -27.2360 O   0  0  0  0  0  0  0  0  0  0  0  0
   -1.8650   22.9060  -29.7550 C   0  0  0  0  0  0  0  0  0  0  0  0
   -1.3100   21.6210  -29.8700 C   0  0  0  0  0  0  0  0  0  0  0  0
   -1.8120   20.7150  -30.8040 C   0  0  0  0  0  0  0  0  0  0  0  0
   -2.8740   21.0810  -31.6300 C   0  0  0  0  0  0  0  0  0  0  0  0
   -3.4300   22.3580  -31.5330 C   0  0  0  0  0  0  0  0  0  0  0  0
   -2.9300   23.2840  -30.5980 C   0  0  0  0  0  0  0  0  0  0  0  0
   -3.4790   24.6080  -30.4870 N   0  0  0  0  0  0  0  0  0  0  0  0
   -5.0980   24.9860  -29.9940 S   0  0  0  0  0  0  0  0  0  0  0  0
   -5.4610   26.3530  -30.4970 O   0  0  0  0  0  0  0  0  0  0  0  0
   -5.1680   24.9870  -28.4910 O   0  0  0  0  0  0  0  0  0  0  0  0
   -6.2160   23.8100  -30.6770 C   0  0  0  0  0  0  0  0  0  0  0  0
   -7.0750   23.0770  -29.8460 C   0  0  0  0  0  0  0  0  0  0  0  0
   -7.9410   22.1280  -30.3970 C   0  0  0  0  0  0  0  0  0  0  0  0
   -7.9620   21.9000  -31.7780 C   0  0  0  0  0  0  0  0  0  0  0  0
   -8.8430   20.9310  -32.2800 O   0  0  0  0  0  0  0  0  0  0  0  0
   -8.7600   19.5390  -31.9870 C   0  0  0  0  0  0  0  0  0  0  0  0
   -7.4000   19.0410  -32.3510 C   0  0  0  0  0  0  0  0  0  0  0  0
   -6.6330   18.1530  -31.6080 C   0  0  0  0  0  0  0  0  0  0  0  0
   -5.3930   17.9120  -32.1150 N   0  0  0  0  0  0  0  0  0  0  0  0
   -5.1700   18.6130  -33.2470 C   0  0  0  0  0  0  0  0  0  0  0  0
   -3.6740   18.5400  -34.1490 Cl  0  0  0  0  0  0  0  0  0  0  0  0
   -6.4920   19.5650  -33.6660 S   0  0  0  0  0  0  0  0  0  0  0  0
   -7.1020   22.6440  -32.6100 C   0  0  0  0  0  0  0  0  0  0  0  0
   -6.2340   23.5900  -32.0590 C   0  0  0  0  0  0  0  0  0  0  0  0
   -1.5800   25.6700  -30.0870 H   0  0  0  0  0  0  0  0  0  0  0  0
   -0.4735   21.3271  -29.2189 H   0  0  0  0  0  0  0  0  0  0  0  0
   -1.3699   19.7113  -30.8890 H   0  0  0  0  0  0  0  0  0  0  0  0
   -3.2747   20.3620  -32.3597 H   0  0  0  0  0  0  0  0  0  0  0  0
   -4.2641   22.6423  -32.1914 H   0  0  0  0  0  0  0  0  0  0  0  0
   -7.0675   23.2488  -28.7595 H   0  0  0  0  0  0  0  0  0  0  0  0
   -8.6118   21.5554  -29.7396 H   0  0  0  0  0  0  0  0  0  0  0  0
   -8.9356   19.3779  -30.9131 H   0  0  0  0  0  0  0  0  0  0  0  0
   -9.5204   18.9936  -32.5652 H   0  0  0  0  0  0  0  0  0  0  0  0
   -6.9985   17.6820  -30.6835 H   0  0  0  0  0  0  0  0  0  0  0  0
   -7.1141   22.4794  -33.6975 H   0  0  0  0  0  0  0  0  0  0  0  0
   -5.5621   24.1641  -32.7140 H   0  0  0  0  0  0  0  0  0  0  0  0
  1  2  1  0
  2  3  2  0
  2  4  2  0
  2  5  1  0
  5  6  2  0
  6  7  1  0
  7  8  2  0
  8  9  1  0
  9 10  2  0
 10 11  1  0
 11 12  1  0
 12 13  2  0
 12 14  2  0
 12 15  1  0
 15 16  2  0
 16 17  1  0
 17 18  2  0
 18 19  1  0
 19 20  1  0
 20 21  1  0
 21 22  2  0
 22 23  1  0
 23 24  2  0
 24 25  1  0
 24 26  1  0
 18 27  1  0
 27 28  2  0
 10  5  1  0
 28 15  1  0
 26 21  1  0
  1 29  1  0
  6 30  1  0
  7 31  1  0
  8 32  1  0
  9 33  1  0
 16 34  1  0
 17 35  1  0
 20 36  1  0
 20 37  1  0
 22 38  1  0
 27 39  1  0
 28 40  1  0
M  CHG  2   1  -1  11  -1
M  END
>  <UniqueID>  (29) 
25

>  <SMILES>  (29) 
[NH-]S(=O)(=O)c1ccccc1[N-]S(=O)(=O)c1ccc(OCc2cnc(Cl)s2)cc1

>  <Energy>  (29) 
75.00376397970052

>  <Genealogy>  (29) 
[NH-]S(=O)(=O)c1ccccc1[N-]S(=O)(=O)c1ccc(OCc2cnc(Cl)s2)cc1 (protonated)
[NH-]S(=O)(=O)c1ccccc1[N-]S(=O)(=O)c1ccc(OCc2cnc(Cl)s2)cc1 (3D coordinates assigned)
[NH-]S(=O)(=O)c1ccccc1[N-]S(=O)(=O)c1ccc(OCc2cnc(Cl)s2)cc1 (optimized conformer: 75.00376397970052 kcal/mol)

>  <smiles>  (29) 
NS(=O)(=O)c1ccccc1NS(=O)(=O)c1ccc(OCc2cnc(Cl)s2)cc1

>  <score_type>  (29) 
oracle

>  <origin>  (29) 
adgpu

>  <m_score__min__energy>  (29) 
-13.09

>  <m_primary>  (29) 
energy

$$$$
29:0
     RDKit          3D

 58 61  0  0  0  0  0  0  0  0999 V2000
   -5.4210   25.2630  -30.1000 C   0  0  0  0  0  0  0  0  0  0  0  0
   -4.0360   25.0560  -30.3650 O   0  0  0  0  0  0  0  0  0  0  0  0
   -3.4630   23.8060  -30.6480 C   0  0  0  0  0  0  0  0  0  0  0  0
   -2.2780   23.3600  -30.0310 C   0  0  0  0  0  0  0  0  0  0  0  0
   -1.7430   22.1100  -30.3540 C   0  0  0  0  0  0  0  0  0  0  0  0
   -2.3920   21.2750  -31.2770 C   0  0  0  0  0  0  0  0  0  0  0  0
   -1.8010   19.9350  -31.6400 C   0  0  0  0  0  0  0  0  0  0  0  0
   -0.9830   20.0340  -32.8500 N   0  0  0  0  0  0  0  0  0  0  0  0
   -0.1180   21.0140  -33.0650 N   0  0  0  0  0  0  0  0  0  0  0  0
    0.3630   20.9520  -34.2980 N   0  0  0  0  0  0  0  0  0  0  0  0
   -0.2290   19.9020  -34.9040 C   0  0  0  0  0  0  0  0  0  0  0  0
   -1.0760   19.3170  -33.9900 C   0  0  0  0  0  0  0  0  0  0  0  0
   -1.9270   18.1410  -34.2350 C   0  0  0  0  0  0  0  0  0  0  0  0
   -1.3780   17.0610  -34.5940 O   0  0  0  0  0  0  0  0  0  0  0  0
   -3.3400   18.1720  -33.9280 N   0  0  0  0  0  0  0  0  0  0  0  0
   -3.6180   17.3190  -32.7470 C   0  0  0  0  0  0  0  0  0  0  0  0
   -5.1130   16.9510  -32.6050 C   0  0  0  0  0  0  0  0  0  0  0  0
   -5.9580   17.8250  -33.4260 N   0  0  0  0  0  0  0  0  0  0  0  0
   -7.0290   18.5640  -32.8160 C   0  0  0  0  0  0  0  0  0  0  0  0
   -8.0830   17.8540  -32.2240 C   0  0  0  0  0  0  0  0  0  0  0  0
   -9.1200   18.5290  -31.5850 C   0  0  0  0  0  0  0  0  0  0  0  0
   -9.1080   19.9210  -31.5110 C   0  0  0  0  0  0  0  0  0  0  0  0
   -8.0580   20.6600  -32.0830 C   0  0  0  0  0  0  0  0  0  0  0  0
   -8.0770   22.1620  -31.9610 C   0  0  0  0  0  0  0  0  0  0  0  0
   -7.0250   19.9800  -32.7860 C   0  0  0  0  0  0  0  0  0  0  0  0
   -5.9130   20.7490  -33.4620 C   0  0  0  0  0  0  0  0  0  0  0  0
   -5.6260   18.0490  -34.8390 C   0  0  0  0  0  0  0  0  0  0  0  0
   -4.1440   17.7520  -35.0950 C   0  0  0  0  0  0  0  0  0  0  0  0
   -3.5650   21.7290  -31.9050 C   0  0  0  0  0  0  0  0  0  0  0  0
   -4.0960   22.9820  -31.5860 C   0  0  0  0  0  0  0  0  0  0  0  0
   -5.5866   25.2878  -29.0128 H   0  0  0  0  0  0  0  0  0  0  0  0
   -5.7399   26.2188  -30.5413 H   0  0  0  0  0  0  0  0  0  0  0  0
   -6.0054   24.4422  -30.5413 H   0  0  0  0  0  0  0  0  0  0  0  0
   -1.7716   23.9982  -29.2919 H   0  0  0  0  0  0  0  0  0  0  0  0
   -0.8067   21.7781  -29.8816 H   0  0  0  0  0  0  0  0  0  0  0  0
   -1.1730   19.5816  -30.8089 H   0  0  0  0  0  0  0  0  0  0  0  0
   -2.6228   19.2286  -31.8288 H   0  0  0  0  0  0  0  0  0  0  0  0
   -0.0646   19.5730  -35.9407 H   0  0  0  0  0  0  0  0  0  0  0  0
   -3.6050   19.1540  -33.6770 H   0  0  0  0  0  0  0  0  0  0  0  0
   -3.0359   16.3903  -32.8407 H   0  0  0  0  0  0  0  0  0  0  0  0
   -3.3345   17.8933  -31.8527 H   0  0  0  0  0  0  0  0  0  0  0  0
   -5.2574   15.9088  -32.9258 H   0  0  0  0  0  0  0  0  0  0  0  0
   -5.4030   17.0780  -31.5515 H   0  0  0  0  0  0  0  0  0  0  0  0
   -8.0909   16.7548  -32.2646 H   0  0  0  0  0  0  0  0  0  0  0  0
   -9.9502   17.9627  -31.1378 H   0  0  0  0  0  0  0  0  0  0  0  0
   -9.9283   20.4463  -30.9999 H   0  0  0  0  0  0  0  0  0  0  0  0
   -8.0806   22.4435  -30.8976 H   0  0  0  0  0  0  0  0  0  0  0  0
   -7.1841   22.5808  -32.4482 H   0  0  0  0  0  0  0  0  0  0  0  0
   -8.9802   22.5581  -32.4482 H   0  0  0  0  0  0  0  0  0  0  0  0
   -5.2618   21.1993  -32.6984 H   0  0  0  0  0  0  0  0  0  0  0  0
   -5.3231   20.0649  -34.0898 H   0  0  0  0  0  0  0  0  0  0  0  0
   -6.3448   21.5423  -34.0898 H   0  0  0  0  0  0  0  0  0  0  0  0
   -6.2416   17.3864  -35.4651 H   0  0  0  0  0  0  0  0  0  0  0  0
   -5.8268   19.1011  -35.0896 H   0  0  0  0  0  0  0  0  0  0  0  0
   -4.0112   16.6727  -35.2605 H   0  0  0  0  0  0  0  0  0  0  0  0
   -3.8108   18.3072  -35.9842 H   0  0  0  0  0  0  0  0  0  0  0  0
   -4.0672   21.0953  -32.6508 H   0  0  0  0  0  0  0  0  0  0  0  0
   -5.0195   23.3236  -32.0764 H   0  0  0  0  0  0  0  0  0  0  0  0
  1  2  1  0
  2  3  1  0
  3  4  2  0
  4  5  1  0
  5  6  2  0
  6  7  1  0
  7  8  1  0
  8  9  1  0
  9 10  2  0
 10 11  1  0
 11 12  2  0
 12 13  1  0
 13 14  2  0
 13 15  1  0
 15 16  1  0
 16 17  1  0
 17 18  1  0
 18 19  1  0
 19 20  2  0
 20 21  1  0
 21 22  2  0
 22 23  1  0
 23 24  1  0
 23 25  2  0
 25 26  1  0
 18 27  1  0
 27 28  1  0
  6 29  1  0
 29 30  2  0
 30  3  1  0
 12  8  1  0
 28 15  1  0
 25 19  1  0
  1 31  1  0
  1 32  1  0
  1 33  1  0
  4 34  1  0
  5 35  1  0
  7 36  1  0
  7 37  1  0
 11 38  1  0
 15 39  1  0
 16 40  1  0
 16 41  1  0
 17 42  1  0
 17 43  1  0
 20 44  1  0
 21 45  1  0
 22 46  1  0
 24 47  1  0
 24 48  1  0
 24 49  1  0
 26 50  1  0
 26 51  1  0
 26 52  1  0
 27 53  1  0
 27 54  1  0
 28 55  1  0
 28 56  1  0
 29 57  1  0
 30 58  1  0
M  CHG  1  15   1
M  END
>  <UniqueID>  (30) 
26

>  <SMILES>  (30) 
COc1ccc(Cn2nncc2C(=O)[NH+]2CCN(c3cccc(C)c3C)CC2)cc1

>  <Energy>  (30) 
114.37291865656063

>  <Genealogy>  (30) 
COc1ccc(Cn2nncc2C(=O)[NH+]2CCN(c3cccc(C)c3C)CC2)cc1 (protonated)
COc1ccc(Cn2nncc2C(=O)[NH+]2CCN(c3cccc(C)c3C)CC2)cc1 (3D coordinates assigned)
COc1ccc(Cn2nncc2C(=O)[NH+]2CCN(c3cccc(C)c3C)CC2)cc1 (nonaromatic ring conformer: 114.37291865656063 kcal/mol)

>  <smiles>  (30) 
COc1ccc(Cn2nncc2C(=O)N2CCN(c3cccc(C)c3C)CC2)cc1

>  <score_type>  (30) 
oracle

>  <origin>  (30) 
adgpu

>  <m_score__min__energy>  (30) 
-8.9100000000000001

>  <m_primary>  (30) 
energy

$$$$
30:0
     RDKit          3D

 38 39  0  0  0  0  0  0  0  0999 V2000
   -5.5260   19.5310  -33.6680 C   0  0  0  0  0  0  0  0  0  0  0  0
   -5.3610   20.7670  -32.8330 C   0  0  0  0  0  0  0  0  0  0  0  0
   -4.0820   21.2380  -32.5160 C   0  0  0  0  0  0  0  0  0  0  0  0
   -3.9260   22.4050  -31.7690 C   0  0  0  0  0  0  0  0  0  0  0  0
   -5.0450   23.1380  -31.3410 C   0  0  0  0  0  0  0  0  0  0  0  0
   -4.7900   24.6220  -30.4070 S   0  0  0  0  0  0  0  0  0  0  0  0
   -5.3230   25.7770  -31.2070 O   0  0  0  0  0  0  0  0  0  0  0  0
   -5.5650   24.5720  -29.1200 O   0  0  0  0  0  0  0  0  0  0  0  0
   -3.1030   24.9250  -30.0650 N   0  0  0  0  0  0  0  0  0  0  0  0
   -2.3620   23.8640  -29.3540 C   0  0  0  0  0  0  0  0  0  0  0  0
   -1.0920   24.3430  -28.6220 C   0  0  0  0  0  0  0  0  0  0  0  0
   -0.3310   23.1460  -28.0380 C   0  0  0  0  0  0  0  0  0  0  0  0
   -1.2310   22.3220  -27.1060 C   0  0  0  0  0  0  0  0  0  0  0  0
   -2.5050   21.8570  -27.8280 C   0  0  0  0  0  0  0  0  0  0  0  0
   -3.2720   23.0490  -28.4160 C   0  0  0  0  0  0  0  0  0  0  0  0
   -6.3430   22.6800  -31.6780 C   0  0  0  0  0  0  0  0  0  0  0  0
   -7.5810   23.4200  -31.2420 C   0  0  0  0  0  0  0  0  0  0  0  0
   -6.4850   21.4960  -32.4210 C   0  0  0  0  0  0  0  0  0  0  0  0
   -5.6427   18.6570  -33.0103 H   0  0  0  0  0  0  0  0  0  0  0  0
   -6.4184   19.6338  -34.3029 H   0  0  0  0  0  0  0  0  0  0  0  0
   -4.6379   19.3961  -34.3029 H   0  0  0  0  0  0  0  0  0  0  0  0
   -3.1949   20.6847  -32.8579 H   0  0  0  0  0  0  0  0  0  0  0  0
   -2.9154   22.7554  -31.5121 H   0  0  0  0  0  0  0  0  0  0  0  0
   -2.0043   23.1995  -30.1543 H   0  0  0  0  0  0  0  0  0  0  0  0
   -0.4421   24.8745  -29.3328 H   0  0  0  0  0  0  0  0  0  0  0  0
   -1.3837   25.0161  -27.8024 H   0  0  0  0  0  0  0  0  0  0  0  0
    0.0169   22.5048  -28.8613 H   0  0  0  0  0  0  0  0  0  0  0  0
    0.5226   23.5240  -27.4561 H   0  0  0  0  0  0  0  0  0  0  0  0
   -0.6740   21.4396  -26.7579 H   0  0  0  0  0  0  0  0  0  0  0  0
   -1.5250   22.9564  -26.2568 H   0  0  0  0  0  0  0  0  0  0  0  0
   -2.2269   21.1716  -28.6422 H   0  0  0  0  0  0  0  0  0  0  0  0
   -3.1539   21.3484  -27.0998 H   0  0  0  0  0  0  0  0  0  0  0  0
   -4.1381   22.6781  -28.9836 H   0  0  0  0  0  0  0  0  0  0  0  0
   -3.6082   23.6974  -27.5935 H   0  0  0  0  0  0  0  0  0  0  0  0
   -7.6247   23.4461  -30.1432 H   0  0  0  0  0  0  0  0  0  0  0  0
   -7.5502   24.4480  -31.6323 H   0  0  0  0  0  0  0  0  0  0  0  0
   -8.4719   22.9061  -31.6323 H   0  0  0  0  0  0  0  0  0  0  0  0
   -7.4911   21.1366  -32.6827 H   0  0  0  0  0  0  0  0  0  0  0  0
  1  2  1  0
  2  3  2  0
  3  4  1  0
  4  5  2  0
  5  6  1  0
  6  7  2  0
  6  8  2  0
  6  9  1  0
  9 10  1  0
 10 11  1  0
 11 12  1  0
 12 13  1  0
 13 14  1  0
 14 15  1  0
  5 16  1  0
 16 17  1  0
 16 18  2  0
 18  2  1  0
 15 10  1  0
  1 19  1  0
  1 20  1  0
  1 21  1  0
  3 22  1  0
  4 23  1  0
 10 24  1  0
 11 25  1  0
 11 26  1  0
 12 27  1  0
 12 28  1  0
 13 29  1  0
 13 30  1  0
 14 31  1  0
 14 32  1  0
 15 33  1  0
 15 34  1  0
 17 35  1  0
 17 36  1  0
 17 37  1  0
 18 38  1  0
M  CHG  1   9  -1
M  END
>  <UniqueID>  (31) 
27

>  <SMILES>  (31) 
Cc1ccc(S(=O)(=O)[N-]C2CCCCC2)c(C)c1

>  <Energy>  (31) 
35.21229241572631

>  <Genealogy>  (31) 
Cc1ccc(S(=O)(=O)[N-]C2CCCCC2)c(C)c1 (protonated)
Cc1ccc(S(=O)(=O)[N-]C2CCCCC2)c(C)c1 (3D coordinates assigned)
Cc1ccc(S(=O)(=O)[N-]C2CCCCC2)c(C)c1 (nonaromatic ring conformer: 35.21229241572631 kcal/mol)

>  <smiles>  (31) 
Cc1ccc(S(=O)(=O)NC2CCCCC2)c(C)c1

>  <score_type>  (31) 
oracle

>  <origin>  (31) 
adgpu

>  <m_score__min__energy>  (31) 
-8.6699999999999999

>  <m_primary>  (31) 
energy

$$$$
31:0
     RDKit          3D

 42 44  0  0  0  0  0  0  0  0999 V2000
   -3.9070   18.8590  -33.5400 C   0  0  0  0  0  0  0  0  0  0  0  0
   -4.9580   18.4480  -34.5580 C   0  0  0  0  0  0  0  0  0  0  0  0
   -6.0540   17.8320  -33.8900 O   0  0  0  0  0  0  0  0  0  0  0  0
   -6.9910   18.5190  -33.1010 C   0  0  0  0  0  0  0  0  0  0  0  0
   -7.9720   17.8530  -32.3460 C   0  0  0  0  0  0  0  0  0  0  0  0
   -8.8920   18.5840  -31.5900 C   0  0  0  0  0  0  0  0  0  0  0  0
   -8.8340   19.9780  -31.5680 C   0  0  0  0  0  0  0  0  0  0  0  0
   -7.8410   20.6570  -32.2970 C   0  0  0  0  0  0  0  0  0  0  0  0
   -7.7470   22.0570  -32.3160 O   0  0  0  0  0  0  0  0  0  0  0  0
   -6.6810   22.8090  -31.8030 C   0  0  0  0  0  0  0  0  0  0  0  0
   -6.9300   24.0340  -31.2730 N   0  0  0  0  0  0  0  0  0  0  0  0
   -5.9250   24.8000  -30.7740 C   0  0  0  0  0  0  0  0  0  0  0  0
   -4.6080   24.3410  -30.8090 C   0  0  0  0  0  0  0  0  0  0  0  0
   -3.5630   25.1610  -30.2690 N   0  0  0  0  0  0  0  0  0  0  0  0
   -2.5050   24.6970  -28.9730 S   0  0  0  0  0  0  0  0  0  0  0  0
   -3.2060   24.9130  -27.6600 O   0  0  0  0  0  0  0  0  0  0  0  0
   -1.2730   25.5540  -29.0130 O   0  0  0  0  0  0  0  0  0  0  0  0
   -2.0330   23.0110  -29.1620 C   0  0  0  0  0  0  0  0  0  0  0  0
   -2.6490   22.0230  -28.3790 C   0  0  0  0  0  0  0  0  0  0  0  0
   -2.2800   20.6820  -28.5210 C   0  0  0  0  0  0  0  0  0  0  0  0
   -1.3000   20.3210  -29.4510 C   0  0  0  0  0  0  0  0  0  0  0  0
   -0.6840   21.3010  -30.2350 C   0  0  0  0  0  0  0  0  0  0  0  0
   -1.0500   22.6440  -30.0950 C   0  0  0  0  0  0  0  0  0  0  0  0
   -4.3670   23.0790  -31.3720 C   0  0  0  0  0  0  0  0  0  0  0  0
   -5.4020   22.3460  -31.8580 N   0  0  0  0  0  0  0  0  0  0  0  0
   -6.9390   19.9180  -33.0730 C   0  0  0  0  0  0  0  0  0  0  0  0
   -4.3004   18.7052  -32.5243 H   0  0  0  0  0  0  0  0  0  0  0  0
   -3.0029   18.2482  -33.6794 H   0  0  0  0  0  0  0  0  0  0  0  0
   -3.6571   19.9211  -33.6794 H   0  0  0  0  0  0  0  0  0  0  0  0
   -5.3121   19.3382  -35.0985 H   0  0  0  0  0  0  0  0  0  0  0  0
   -4.5174   17.7356  -35.2710 H   0  0  0  0  0  0  0  0  0  0  0  0
   -8.0155   16.7539  -32.3504 H   0  0  0  0  0  0  0  0  0  0  0  0
   -9.6650   18.0586  -31.0100 H   0  0  0  0  0  0  0  0  0  0  0  0
   -9.5673   20.5479  -30.9785 H   0  0  0  0  0  0  0  0  0  0  0  0
   -6.1505   25.7856  -30.3408 H   0  0  0  0  0  0  0  0  0  0  0  0
   -3.4245   22.3043  -27.6513 H   0  0  0  0  0  0  0  0  0  0  0  0
   -2.7606   19.9108  -27.9011 H   0  0  0  0  0  0  0  0  0  0  0  0
   -1.0136   19.2652  -29.5658 H   0  0  0  0  0  0  0  0  0  0  0  0
    0.0896   21.0157  -30.9631 H   0  0  0  0  0  0  0  0  0  0  0  0
   -0.5674   23.4129  -30.7162 H   0  0  0  0  0  0  0  0  0  0  0  0
   -3.3416   22.6837  -31.4198 H   0  0  0  0  0  0  0  0  0  0  0  0
   -6.1788   20.4442  -33.6690 H   0  0  0  0  0  0  0  0  0  0  0  0
  1  2  1  0
  2  3  1  0
  3  4  1  0
  4  5  2  0
  5  6  1  0
  6  7  2  0
  7  8  1  0
  8  9  1  0
  9 10  1  0
 10 11  2  0
 11 12  1  0
 12 13  2  0
 13 14  1  0
 14 15  1  0
 15 16  2  0
 15 17  2  0
 15 18  1  0
 18 19  2  0
 19 20  1  0
 20 21  2  0
 21 22  1  0
 22 23  2  0
 13 24  1  0
 24 25  2  0
  8 26  2  0
 26  4  1  0
 25 10  1  0
 23 18  1  0
  1 27  1  0
  1 28  1  0
  1 29  1  0
  2 30  1  0
  2 31  1  0
  5 32  1  0
  6 33  1  0
  7 34  1  0
 12 35  1  0
 19 36  1  0
 20 37  1  0
 21 38  1  0
 22 39  1  0
 23 40  1  0
 24 41  1  0
 26 42  1  0
M  CHG  1  14  -1
M  END
>  <UniqueID>  (32) 
28

>  <SMILES>  (32) 
CCOc1cccc(Oc2ncc([N-]S(=O)(=O)c3ccccc3)cn2)c1

>  <Energy>  (32) 
50.30018817277947

>  <Genealogy>  (32) 
CCOc1cccc(Oc2ncc([N-]S(=O)(=O)c3ccccc3)cn2)c1 (protonated)
CCOc1cccc(Oc2ncc([N-]S(=O)(=O)c3ccccc3)cn2)c1 (3D coordinates assigned)
CCOc1cccc(Oc2ncc([N-]S(=O)(=O)c3ccccc3)cn2)c1 (optimized conformer: 50.30018817277947 kcal/mol)

>  <smiles>  (32) 
CCOc1cccc(Oc2ncc(NS(=O)(=O)c3ccccc3)cn2)c1

>  <score_type>  (32) 
oracle

>  <origin>  (32) 
adgpu

>  <m_score__min__energy>  (32) 
-9.7699999999999996

>  <m_primary>  (32) 
energy

$$$$
32:0
     RDKit          3D

 43 45  0  0  0  0  0  0  0  0999 V2000
   -9.4368   21.9645  -31.9015 H   0  0  0  0  0  0  0  0  0  0  0  0
   -8.4580   21.4670  -31.9680 C   0  0  0  0  0  0  0  0  0  0  0  0
   -8.4400   20.2080  -32.3090 N   0  0  0  0  0  0  0  0  0  0  0  0
   -7.2940   19.3930  -32.6080 C   0  0  0  0  0  0  0  0  0  0  0  0
   -6.6660   19.5370  -33.8510 C   0  0  0  0  0  0  0  0  0  0  0  0
   -7.0559   20.2632  -34.5795 H   0  0  0  0  0  0  0  0  0  0  0  0
   -5.5470   18.7640  -34.1720 C   0  0  0  0  0  0  0  0  0  0  0  0
   -5.0666   18.8760  -35.1552 H   0  0  0  0  0  0  0  0  0  0  0  0
   -5.0350   17.8460  -33.2440 C   0  0  0  0  0  0  0  0  0  0  0  0
   -3.6530   16.8330  -33.6440 S   0  0  0  0  0  0  0  0  0  0  0  0
   -3.4270   16.8880  -35.1290 O   0  0  0  0  0  0  0  0  0  0  0  0
   -3.8980   15.4010  -33.2540 O   0  0  0  0  0  0  0  0  0  0  0  0
   -2.2340   17.4260  -32.8340 N   0  0  0  0  0  0  0  0  0  0  0  0
   -1.5730   18.5150  -33.1100 C   0  0  0  0  0  0  0  0  0  0  0  0
   -1.9600   19.3910  -34.1480 C   0  0  0  0  0  0  0  0  0  0  0  0
   -2.8462   19.1670  -34.7599 H   0  0  0  0  0  0  0  0  0  0  0  0
   -1.2110   20.5420  -34.3920 C   0  0  0  0  0  0  0  0  0  0  0  0
   -1.5055   21.2293  -35.1988 H   0  0  0  0  0  0  0  0  0  0  0  0
   -0.0890   20.8210  -33.6130 C   0  0  0  0  0  0  0  0  0  0  0  0
    0.5055   21.7278  -33.7983 H   0  0  0  0  0  0  0  0  0  0  0  0
    0.2710   19.9370  -32.5960 C   0  0  0  0  0  0  0  0  0  0  0  0
    1.1559   20.1454  -31.9767 H   0  0  0  0  0  0  0  0  0  0  0  0
   -0.4680   18.8180  -32.3670 N   0  0  0  0  0  0  0  0  0  0  0  0
   -0.1720   18.1750  -31.5980 H   0  0  0  0  0  0  0  0  0  0  0  0
   -5.6360   17.7300  -31.9840 C   0  0  0  0  0  0  0  0  0  0  0  0
   -5.2314   17.0202  -31.2474 H   0  0  0  0  0  0  0  0  0  0  0  0
   -6.7470   18.5120  -31.6590 C   0  0  0  0  0  0  0  0  0  0  0  0
   -7.1953   18.4381  -30.6572 H   0  0  0  0  0  0  0  0  0  0  0  0
   -7.2540   22.2740  -31.6640 C   0  0  0  0  0  0  0  0  0  0  0  0
   -7.3750   23.3810  -30.8130 C   0  0  0  0  0  0  0  0  0  0  0  0
   -8.3579   23.6424  -30.3939 H   0  0  0  0  0  0  0  0  0  0  0  0
   -6.2570   24.1550  -30.4930 C   0  0  0  0  0  0  0  0  0  0  0  0
   -6.4650   25.6720  -29.3450 Br  0  0  0  0  0  0  0  0  0  0  0  0
   -5.0020   23.8230  -31.0170 C   0  0  0  0  0  0  0  0  0  0  0  0
   -3.8920   24.6030  -30.7100 O   0  0  0  0  0  0  0  0  0  0  0  0
   -4.8560   22.7070  -31.8510 C   0  0  0  0  0  0  0  0  0  0  0  0
   -3.5820   22.4140  -32.3640 O   0  0  0  0  0  0  0  0  0  0  0  0
   -2.5170   21.8580  -31.6010 C   0  0  0  0  0  0  0  0  0  0  0  0
   -2.7355   21.9721  -30.5290 H   0  0  0  0  0  0  0  0  0  0  0  0
   -2.4118   20.7899  -31.8422 H   0  0  0  0  0  0  0  0  0  0  0  0
   -1.5805   22.3823  -31.8422 H   0  0  0  0  0  0  0  0  0  0  0  0
   -5.9840   21.9180  -32.1510 C   0  0  0  0  0  0  0  0  0  0  0  0
   -5.8702   21.0165  -32.7710 H   0  0  0  0  0  0  0  0  0  0  0  0
  1  2  1  0
  2  3  2  0
  3  4  1  0
  4  5  2  0
  5  6  1  0
  5  7  1  0
  7  8  1  0
  7  9  2  0
  9 10  1  0
 10 11  2  0
 10 12  2  0
 10 13  1  0
 13 14  2  0
 14 15  1  0
 15 16  1  0
 15 17  2  0
 17 18  1  0
 17 19  1  0
 19 20  1  0
 19 21  2  0
 21 22  1  0
 21 23  1  0
 23 24  1  0
  9 25  1  0
 25 26  1  0
 25 27  2  0
 27 28  1  0
  2 29  1  0
 29 30  2  0
 30 31  1  0
 30 32  1  0
 32 33  1  0
 32 34  2  0
 34 35  1  0
 34 36  1  0
 36 37  1  0
 37 38  1  0
 38 39  1  0
 38 40  1  0
 38 41  1  0
 36 42  2  0
 42 43  1  0
 27  4  1  0
 42 29  1  0
 23 14  1  0
M  CHG  1  35  -1
M  END
>  <UniqueID>  (33) 
29

>  <SMILES>  (33) 
COc1cc(/C=N\c2ccc(S(=O)(=O)/N=c3\cccc[nH]3)cc2)cc(Br)c1[O-]

>  <Energy>  (33) 
59.95235415801037

>  <Genealogy>  (33) 
COc1cc(C=Nc2ccc(S(=O)(=O)N=c3cccc[nH]3)cc2)cc(Br)c1[O-] (protonated)
COc1cc(/C=N\c2ccc(S(=O)(=O)/N=c3\cccc[nH]3)cc2)cc(Br)c1[O-] (cis-trans isomerization)
COc1cc(/C=N\c2ccc(S(=O)(=O)/N=c3\cccc[nH]3)cc2)cc(Br)c1[O-] (3D coordinates assigned)
COc1cc(/C=N\c2ccc(S(=O)(=O)/N=c3\cccc[nH]3)cc2)cc(Br)c1[O-] (optimized conformer: 59.95235415801037 kcal/mol)

>  <smiles>  (33) 
COc1cc(C=Nc2ccc(S(=O)(=O)N=c3cccc[nH]3)cc2)cc(Br)c1O

>  <score_type>  (33) 
oracle

>  <origin>  (33) 
adgpu

>  <m_score__min__energy>  (33) 
-11.82

>  <m_primary>  (33) 
energy

$$$$
33:0
     RDKit          3D

 33 34  0  0  0  0  0  0  0  0999 V2000
   -9.6200   18.5990  -33.6940 H   0  0  0  0  0  0  0  0  0  0  0  0
   -9.7130   19.3500  -33.0200 O   0  0  0  0  0  0  0  0  0  0  0  0
   -8.6140   20.1030  -32.6100 C   0  0  0  0  0  0  0  0  0  0  0  0
   -8.8010   21.3400  -31.9810 C   0  0  0  0  0  0  0  0  0  0  0  0
   -9.8198   21.7185  -31.8112 H   0  0  0  0  0  0  0  0  0  0  0  0
   -7.7020   22.0960  -31.5680 C   0  0  0  0  0  0  0  0  0  0  0  0
   -7.8597   23.0695  -31.0807 H   0  0  0  0  0  0  0  0  0  0  0  0
   -6.3930   21.6190  -31.7720 C   0  0  0  0  0  0  0  0  0  0  0  0
   -5.1920   22.3860  -31.3620 C   0  0  0  0  0  0  0  0  0  0  0  0
   -4.2182   22.0814  -31.7730 H   0  0  0  0  0  0  0  0  0  0  0  0
   -5.2230   23.4300  -30.5190 C   0  0  0  0  0  0  0  0  0  0  0  0
   -6.1925   23.7427  -30.1040 H   0  0  0  0  0  0  0  0  0  0  0  0
   -4.0100   24.1780  -30.1240 C   0  0  0  0  0  0  0  0  0  0  0  0
   -3.8640   25.3480  -30.5660 O   0  0  0  0  0  0  0  0  0  0  0  0
   -2.9800   23.6200  -29.2130 C   0  0  0  0  0  0  0  0  0  0  0  0
   -3.1360   22.3280  -28.6750 C   0  0  0  0  0  0  0  0  0  0  0  0
   -4.0160   21.7261  -28.9458 H   0  0  0  0  0  0  0  0  0  0  0  0
   -2.1800   21.8050  -27.7990 C   0  0  0  0  0  0  0  0  0  0  0  0
   -2.3840   20.1900  -27.1430 Cl  0  0  0  0  0  0  0  0  0  0  0  0
   -1.0680   22.5690  -27.4410 C   0  0  0  0  0  0  0  0  0  0  0  0
   -0.3161   22.1558  -26.7527 H   0  0  0  0  0  0  0  0  0  0  0  0
   -0.9090   23.8580  -27.9560 C   0  0  0  0  0  0  0  0  0  0  0  0
   -0.0337   24.4588  -27.6680 H   0  0  0  0  0  0  0  0  0  0  0  0
   -1.8590   24.3880  -28.8370 C   0  0  0  0  0  0  0  0  0  0  0  0
   -1.6720   25.6700  -29.3430 O   0  0  0  0  0  0  0  0  0  0  0  0
   -6.2130   20.3840  -32.4170 C   0  0  0  0  0  0  0  0  0  0  0  0
   -5.1945   20.0100  -32.5981 H   0  0  0  0  0  0  0  0  0  0  0  0
   -7.3190   19.6180  -32.8350 C   0  0  0  0  0  0  0  0  0  0  0  0
   -7.1720   18.3760  -33.4720 O   0  0  0  0  0  0  0  0  0  0  0  0
   -6.0420   17.9980  -34.2520 C   0  0  0  0  0  0  0  0  0  0  0  0
   -5.2124   17.7205  -33.5851 H   0  0  0  0  0  0  0  0  0  0  0  0
   -6.3053   17.1390  -34.8867 H   0  0  0  0  0  0  0  0  0  0  0  0
   -5.7355   18.8425  -34.8867 H   0  0  0  0  0  0  0  0  0  0  0  0
  1  2  1  0
  2  3  1  0
  3  4  2  0
  4  5  1  0
  4  6  1  0
  6  7  1  0
  6  8  2  0
  8  9  1  0
  9 10  1  0
  9 11  2  0
 11 12  1  0
 11 13  1  0
 13 14  2  0
 13 15  1  0
 15 16  2  0
 16 17  1  0
 16 18  1  0
 18 19  1  0
 18 20  2  0
 20 21  1  0
 20 22  1  0
 22 23  1  0
 22 24  2  0
 24 25  1  0
  8 26  1  0
 26 27  1  0
 26 28  2  0
 28 29  1  0
 29 30  1  0
 30 31  1  0
 30 32  1  0
 30 33  1  0
 28  3  1  0
 24 15  1  0
M  CHG  1  25  -1
M  END
>  <UniqueID>  (34) 
30

>  <SMILES>  (34) 
COc1cc(/C=C/C(=O)c2cc(Cl)ccc2[O-])ccc1O

>  <Energy>  (34) 
40.95503980309207

>  <Genealogy>  (34) 
COc1cc(C=CC(=O)c2cc(Cl)ccc2[O-])ccc1O (protonated)
COc1cc(/C=C/C(=O)c2cc(Cl)ccc2[O-])ccc1O (cis-trans isomerization)
COc1cc(/C=C/C(=O)c2cc(Cl)ccc2[O-])ccc1O (3D coordinates assigned)
COc1cc(/C=C/C(=O)c2cc(Cl)ccc2[O-])ccc1O (optimized conformer: 40.95503980309207 kcal/mol)

>  <smiles>  (34) 
COc1cc(C=CC(=O)c2cc(Cl)ccc2O)ccc1O

>  <score_type>  (34) 
oracle

>  <origin>  (34) 
adgpu

>  <m_score__min__energy>  (34) 
-11.390000000000001

>  <m_primary>  (34) 
energy

$$$$
34:0
     RDKit          3D

 58 61  0  0  0  0  0  0  0  0999 V2000
   -1.0380   12.2450  -37.6000 C   0  0  0  0  0  0  0  0  0  0  0  0
   -0.8770   12.8540  -36.3230 O   0  0  0  0  0  0  0  0  0  0  0  0
   -1.6220   13.9550  -35.8660 C   0  0  0  0  0  0  0  0  0  0  0  0
   -2.9720   13.8380  -35.4880 C   0  0  0  0  0  0  0  0  0  0  0  0
   -3.6830   14.9550  -35.0480 C   0  0  0  0  0  0  0  0  0  0  0  0
   -3.0620   16.2100  -34.9760 C   0  0  0  0  0  0  0  0  0  0  0  0
   -3.8100   17.3740  -34.5750 N   0  0  0  0  0  0  0  0  0  0  0  0
   -5.0010   17.7580  -35.3470 C   0  0  0  0  0  0  0  0  0  0  0  0
   -5.7980   18.8690  -34.6450 C   0  0  0  0  0  0  0  0  0  0  0  0
   -6.0720   18.5750  -33.1370 C   0  0  0  0  0  0  0  0  0  0  0  0
   -7.2580   17.5690  -33.0240 C   0  0  0  0  0  0  0  0  0  0  0  0
   -6.9050   16.2350  -33.5390 C   0  0  0  0  0  0  0  0  0  0  0  0
   -6.6260   15.1880  -33.9440 N   0  0  0  0  0  0  0  0  0  0  0  0
   -6.4250   19.8660  -32.4990 N   0  0  0  0  0  0  0  0  0  0  0  0
   -7.6610   20.4060  -32.3970 C   0  0  0  0  0  0  0  0  0  0  0  0
   -7.5520   21.6740  -31.8720 C   0  0  0  0  0  0  0  0  0  0  0  0
   -6.1900   21.8660  -31.7010 C   0  0  0  0  0  0  0  0  0  0  0  0
   -5.5200   23.0840  -31.1870 C   0  0  0  0  0  0  0  0  0  0  0  0
   -6.1020   24.3540  -31.3340 C   0  0  0  0  0  0  0  0  0  0  0  0
   -5.4410   25.4790  -30.8390 C   0  0  0  0  0  0  0  0  0  0  0  0
   -4.2390   25.3470  -30.2180 N   0  0  0  0  0  0  0  0  0  0  0  0
   -3.6470   24.1340  -30.0540 C   0  0  0  0  0  0  0  0  0  0  0  0
   -2.3180   24.0410  -29.3730 C   0  0  0  0  0  0  0  0  0  0  0  0
   -4.2800   22.9800  -30.5330 C   0  0  0  0  0  0  0  0  0  0  0  0
   -5.5300   20.7640  -32.1080 N   0  0  0  0  0  0  0  0  0  0  0  0
   -4.8080   17.9510  -32.4300 C   0  0  0  0  0  0  0  0  0  0  0  0
   -3.5450   18.0290  -33.2880 C   0  0  0  0  0  0  0  0  0  0  0  0
   -1.7140   16.3290  -35.3510 C   0  0  0  0  0  0  0  0  0  0  0  0
   -0.9870   15.2050  -35.7920 C   0  0  0  0  0  0  0  0  0  0  0  0
    0.3630   15.2890  -36.1670 O   0  0  0  0  0  0  0  0  0  0  0  0
    0.8220   15.3750  -37.5110 C   0  0  0  0  0  0  0  0  0  0  0  0
   -1.3172   11.1890  -37.4700 H   0  0  0  0  0  0  0  0  0  0  0  0
   -1.8289   12.7673  -38.1582 H   0  0  0  0  0  0  0  0  0  0  0  0
   -0.0923   12.3082  -38.1582 H   0  0  0  0  0  0  0  0  0  0  0  0
   -3.4706   12.8589  -35.5397 H   0  0  0  0  0  0  0  0  0  0  0  0
   -4.7382   14.8503  -34.7555 H   0  0  0  0  0  0  0  0  0  0  0  0
   -4.6838   18.1176  -36.3370 H   0  0  0  0  0  0  0  0  0  0  0  0
   -5.6504   16.8749  -35.4386 H   0  0  0  0  0  0  0  0  0  0  0  0
   -5.2288   19.8073  -34.7198 H   0  0  0  0  0  0  0  0  0  0  0  0
   -6.7749   18.9351  -35.1463 H   0  0  0  0  0  0  0  0  0  0  0  0
   -7.5446   17.4762  -31.9661 H   0  0  0  0  0  0  0  0  0  0  0  0
   -8.0896   17.9568  -33.6307 H   0  0  0  0  0  0  0  0  0  0  0  0
   -8.6004   19.9123  -32.6864 H   0  0  0  0  0  0  0  0  0  0  0  0
   -8.3648   22.3780  -31.6399 H   0  0  0  0  0  0  0  0  0  0  0  0
   -7.0744   24.4613  -31.8370 H   0  0  0  0  0  0  0  0  0  0  0  0
   -5.8938   26.4751  -30.9516 H   0  0  0  0  0  0  0  0  0  0  0  0
   -2.4632   24.0512  -28.2827 H   0  0  0  0  0  0  0  0  0  0  0  0
   -1.8196   23.1058  -29.6678 H   0  0  0  0  0  0  0  0  0  0  0  0
   -1.6942   24.8977  -29.6678 H   0  0  0  0  0  0  0  0  0  0  0  0
   -3.8083   21.9955  -30.3979 H   0  0  0  0  0  0  0  0  0  0  0  0
   -4.6278   18.4942  -31.4906 H   0  0  0  0  0  0  0  0  0  0  0  0
   -5.0212   16.8863  -32.2540 H   0  0  0  0  0  0  0  0  0  0  0  0
   -3.2765   19.0823  -33.4569 H   0  0  0  0  0  0  0  0  0  0  0  0
   -2.7117   17.5259  -32.7756 H   0  0  0  0  0  0  0  0  0  0  0  0
   -1.2199   17.3105  -35.3000 H   0  0  0  0  0  0  0  0  0  0  0  0
    1.9032   15.5776  -37.5170 H   0  0  0  0  0  0  0  0  0  0  0  0
    0.6242   14.4242  -38.0276 H   0  0  0  0  0  0  0  0  0  0  0  0
    0.2934   16.1897  -38.0276 H   0  0  0  0  0  0  0  0  0  0  0  0
  1  2  1  0
  2  3  1  0
  3  4  2  0
  4  5  1  0
  5  6  2  0
  6  7  1  0
  7  8  1  0
  8  9  1  0
  9 10  1  0
 10 11  1  0
 11 12  1  0
 12 13  3  0
 10 14  1  0
 14 15  1  0
 15 16  2  0
 16 17  1  0
 17 18  1  0
 18 19  2  0
 19 20  1  0
 20 21  2  0
 21 22  1  0
 22 23  1  0
 22 24  2  0
 17 25  2  0
 10 26  1  0
 26 27  1  0
  6 28  1  0
 28 29  2  0
 29 30  1  0
 30 31  1  0
 29  3  1  0
 27  7  1  0
 25 14  1  0
 24 18  1  0
  1 32  1  0
  1 33  1  0
  1 34  1  0
  4 35  1  0
  5 36  1  0
  8 37  1  0
  8 38  1  0
  9 39  1  0
  9 40  1  0
 11 41  1  0
 11 42  1  0
 15 43  1  0
 16 44  1  0
 19 45  1  0
 20 46  1  0
 23 47  1  0
 23 48  1  0
 23 49  1  0
 24 50  1  0
 26 51  1  0
 26 52  1  0
 27 53  1  0
 27 54  1  0
 28 55  1  0
 31 56  1  0
 31 57  1  0
 31 58  1  0
M  END
>  <UniqueID>  (35) 
31

>  <SMILES>  (35) 
COc1ccc(N2CCC(CC#N)(n3ccc(-c4ccnc(C)c4)n3)CC2)cc1OC

>  <Energy>  (35) 
100.5151047005028

>  <Genealogy>  (35) 
COc1ccc(N2CCC(CC#N)(n3ccc(-c4ccnc(C)c4)n3)CC2)cc1OC (3D coordinates assigned)
COc1ccc(N2CCC(CC#N)(n3ccc(-c4ccnc(C)c4)n3)CC2)cc1OC (nonaromatic ring conformer: 100.5151047005028 kcal/mol)

>  <smiles>  (35) 
COc1ccc(N2CCC(CC#N)(n3ccc(-c4ccnc(C)c4)n3)CC2)cc1OC

>  <score_type>  (35) 
oracle

>  <origin>  (35) 
adgpu

>  <m_score__min__energy>  (35) 
-8.5700000000000003

>  <m_primary>  (35) 
energy

$$$$
35:0
     RDKit          3D

 41 43  0  0  0  0  0  0  0  0999 V2000
   -5.7060   25.9210  -29.7490 O   0  0  0  0  0  0  0  0  0  0  0  0
   -4.8920   25.2920  -30.4740 C   0  0  0  0  0  0  0  0  0  0  0  0
   -3.5050   25.2700  -30.0990 N   0  0  0  0  0  0  0  0  0  0  0  0
   -2.8460   24.2360  -29.3550 C   0  0  0  0  0  0  0  0  0  0  0  0
   -2.2740   23.1230  -29.9920 C   0  0  0  0  0  0  0  0  0  0  0  0
   -1.7660   22.0620  -29.2360 C   0  0  0  0  0  0  0  0  0  0  0  0
   -1.7960   22.1170  -27.8280 C   0  0  0  0  0  0  0  0  0  0  0  0
   -1.3490   21.0620  -27.0170 O   0  0  0  0  0  0  0  0  0  0  0  0
   -1.9760   19.7860  -26.9080 C   0  0  0  0  0  0  0  0  0  0  0  0
   -1.1030   18.7900  -27.3060 F   0  0  0  0  0  0  0  0  0  0  0  0
   -3.1200   19.7490  -27.6860 F   0  0  0  0  0  0  0  0  0  0  0  0
   -2.3270   19.5700  -25.5900 F   0  0  0  0  0  0  0  0  0  0  0  0
   -2.2980   23.2640  -27.2020 C   0  0  0  0  0  0  0  0  0  0  0  0
   -2.8130   24.3200  -27.9590 C   0  0  0  0  0  0  0  0  0  0  0  0
   -5.3860   24.6190  -31.6440 N   0  0  0  0  0  0  0  0  0  0  0  0
   -5.3630   23.2030  -31.8730 C   0  0  0  0  0  0  0  0  0  0  0  0
   -6.3990   22.4180  -31.3600 C   0  0  0  0  0  0  0  0  0  0  0  0
   -6.4920   21.0660  -31.6990 C   0  0  0  0  0  0  0  0  0  0  0  0
   -5.5400   20.4770  -32.5490 C   0  0  0  0  0  0  0  0  0  0  0  0
   -5.7180   19.0740  -32.9870 C   0  0  0  0  0  0  0  0  0  0  0  0
   -5.9140   18.0530  -32.0410 C   0  0  0  0  0  0  0  0  0  0  0  0
   -6.1080   16.7320  -32.4600 C   0  0  0  0  0  0  0  0  0  0  0  0
   -6.1160   16.4230  -33.8220 C   0  0  0  0  0  0  0  0  0  0  0  0
   -5.9330   17.4340  -34.7700 C   0  0  0  0  0  0  0  0  0  0  0  0
   -5.7360   18.7550  -34.3570 C   0  0  0  0  0  0  0  0  0  0  0  0
   -4.4480   21.2480  -32.9980 C   0  0  0  0  0  0  0  0  0  0  0  0
   -3.4580   20.6710  -33.7930 O   0  0  0  0  0  0  0  0  0  0  0  0
   -4.3570   22.6030  -32.6440 C   0  0  0  0  0  0  0  0  0  0  0  0
   -2.2253   23.0856  -31.0903 H   0  0  0  0  0  0  0  0  0  0  0  0
   -1.3418   21.1820  -29.7416 H   0  0  0  0  0  0  0  0  0  0  0  0
   -2.2871   23.3349  -26.1043 H   0  0  0  0  0  0  0  0  0  0  0  0
   -3.1938   25.2206  -27.4552 H   0  0  0  0  0  0  0  0  0  0  0  0
   -7.1442   22.8664  -30.6866 H   0  0  0  0  0  0  0  0  0  0  0  0
   -7.3162   20.4579  -31.2978 H   0  0  0  0  0  0  0  0  0  0  0  0
   -5.9149   18.2932  -30.9676 H   0  0  0  0  0  0  0  0  0  0  0  0
   -6.2544   15.9357  -31.7154 H   0  0  0  0  0  0  0  0  0  0  0  0
   -6.2664   15.3835  -34.1490 H   0  0  0  0  0  0  0  0  0  0  0  0
   -5.9440   17.1897  -35.8425 H   0  0  0  0  0  0  0  0  0  0  0  0
   -5.5945   19.5480  -35.1061 H   0  0  0  0  0  0  0  0  0  0  0  0
   -3.0330   21.1760  -34.5630 H   0  0  0  0  0  0  0  0  0  0  0  0
   -3.4920   23.1975  -32.9731 H   0  0  0  0  0  0  0  0  0  0  0  0
  1  2  2  0
  2  3  1  0
  3  4  1  0
  4  5  2  0
  5  6  1  0
  6  7  2  0
  7  8  1  0
  8  9  1  0
  9 10  1  0
  9 11  1  0
  9 12  1  0
  7 13  1  0
 13 14  2  0
  2 15  1  0
 15 16  1  0
 16 17  2  0
 17 18  1  0
 18 19  2  0
 19 20  1  0
 20 21  2  0
 21 22  1  0
 22 23  2  0
 23 24  1  0
 24 25  2  0
 19 26  1  0
 26 27  1  0
 26 28  2  0
 14  4  1  0
 28 16  1  0
 25 20  1  0
  5 29  1  0
  6 30  1  0
 13 31  1  0
 14 32  1  0
 17 33  1  0
 18 34  1  0
 21 35  1  0
 22 36  1  0
 23 37  1  0
 24 38  1  0
 25 39  1  0
 27 40  1  0
 28 41  1  0
M  CHG  2   3  -1  15  -1
M  END
>  <UniqueID>  (36) 
32

>  <SMILES>  (36) 
O=C([N-]c1ccc(OC(F)(F)F)cc1)[N-]c1ccc(-c2ccccc2)c(O)c1

>  <Energy>  (36) 
56.53336171790576

>  <Genealogy>  (36) 
O=C([N-]c1ccc(OC(F)(F)F)cc1)[N-]c1ccc(-c2ccccc2)c(O)c1 (protonated)
O=C([N-]c1ccc(OC(F)(F)F)cc1)[N-]c1ccc(-c2ccccc2)c(O)c1 (3D coordinates assigned)
O=C([N-]c1ccc(OC(F)(F)F)cc1)[N-]c1ccc(-c2ccccc2)c(O)c1 (optimized conformer: 56.53336171790576 kcal/mol)

>  <smiles>  (36) 
O=C(Nc1ccc(OC(F)(F)F)cc1)Nc1ccc(-c2ccccc2)c(O)c1

>  <score_type>  (36) 
oracle

>  <origin>  (36) 
adgpu

>  <m_score__min__energy>  (36) 
-10.890000000000001

>  <m_primary>  (36) 
energy

$$$$
36:0
     RDKit          3D

 32 34  0  0  0  0  0  0  0  0999 V2000
   -4.7680   26.0200  -31.6200 H   0  0  0  0  0  0  0  0  0  0  0  0
   -4.2250   25.6840  -30.7940 N   0  0  0  0  0  0  0  0  0  0  0  0
   -4.0740   24.4230  -30.5500 C   0  0  0  0  0  0  0  0  0  0  0  0
   -3.3620   24.0260  -29.4660 N   0  0  0  0  0  0  0  0  0  0  0  0
   -3.1810   22.7090  -29.1760 C   0  0  0  0  0  0  0  0  0  0  0  0
   -2.3810   22.3300  -27.9830 C   0  0  0  0  0  0  0  0  0  0  0  0
   -2.3570   21.0040  -27.5060 C   0  0  0  0  0  0  0  0  0  0  0  0
   -2.9346   20.2258  -28.0263 H   0  0  0  0  0  0  0  0  0  0  0  0
   -1.6040   20.6710  -26.3760 C   0  0  0  0  0  0  0  0  0  0  0  0
   -1.5872   19.6322  -26.0145 H   0  0  0  0  0  0  0  0  0  0  0  0
   -0.8730   21.6540  -25.7050 C   0  0  0  0  0  0  0  0  0  0  0  0
   -0.2784   21.3890  -24.8183 H   0  0  0  0  0  0  0  0  0  0  0  0
   -0.8980   22.9730  -26.1610 C   0  0  0  0  0  0  0  0  0  0  0  0
   -0.3245   23.7474  -25.6305 H   0  0  0  0  0  0  0  0  0  0  0  0
   -1.6490   23.3130  -27.2890 C   0  0  0  0  0  0  0  0  0  0  0  0
   -1.6687   24.3561  -27.6377 H   0  0  0  0  0  0  0  0  0  0  0  0
   -3.7360   21.7420  -30.0300 C   0  0  0  0  0  0  0  0  0  0  0  0
   -3.5883   20.6705  -29.8301 H   0  0  0  0  0  0  0  0  0  0  0  0
   -4.4830   22.1630  -31.1440 C   0  0  0  0  0  0  0  0  0  0  0  0
   -5.0960   21.1900  -32.0850 C   0  0  0  0  0  0  0  0  0  0  0  0
   -4.3040   20.3470  -32.8890 C   0  0  0  0  0  0  0  0  0  0  0  0
   -3.2073   20.4080  -32.8298 H   0  0  0  0  0  0  0  0  0  0  0  0
   -4.9020   19.4340  -33.7610 C   0  0  0  0  0  0  0  0  0  0  0  0
   -4.2747   18.7829  -34.3876 H   0  0  0  0  0  0  0  0  0  0  0  0
   -6.2930   19.3450  -33.8400 C   0  0  0  0  0  0  0  0  0  0  0  0
   -6.7596   18.6278  -34.5313 H   0  0  0  0  0  0  0  0  0  0  0  0
   -7.0940   20.1680  -33.0400 C   0  0  0  0  0  0  0  0  0  0  0  0
   -8.4840   20.0850  -33.1070 O   0  0  0  0  0  0  0  0  0  0  0  0
   -8.9620   19.9130  -33.9820 H   0  0  0  0  0  0  0  0  0  0  0  0
   -6.4980   21.0820  -32.1640 C   0  0  0  0  0  0  0  0  0  0  0  0
   -7.1304   21.7221  -31.5312 H   0  0  0  0  0  0  0  0  0  0  0  0
   -4.6260   23.4960  -31.3760 N   0  0  0  0  0  0  0  0  0  0  0  0
  1  2  1  0
  2  3  2  0
  3  4  1  0
  4  5  2  0
  5  6  1  0
  6  7  2  0
  7  8  1  0
  7  9  1  0
  9 10  1  0
  9 11  2  0
 11 12  1  0
 11 13  1  0
 13 14  1  0
 13 15  2  0
 15 16  1  0
  5 17  1  0
 17 18  1  0
 17 19  2  0
 19 20  1  0
 20 21  2  0
 21 22  1  0
 21 23  1  0
 23 24  1  0
 23 25  2  0
 25 26  1  0
 25 27  1  0
 27 28  1  0
 28 29  1  0
 27 30  2  0
 30 31  1  0
 19 32  1  0
 32  3  1  0
 15  6  1  0
 30 20  1  0
M  CHG  1  32  -1
M  END
>  <UniqueID>  (37) 
33

>  <SMILES>  (37) 
[H]/N=c1/nc(-c2ccccc2)cc(-c2cccc(O)c2)[n-]1

>  <Energy>  (37) 
42.941099071325134

>  <Genealogy>  (37) 
N=c1nc(-c2ccccc2)cc(-c2cccc(O)c2)[n-]1 (protonated)
[H]/N=c1/nc(-c2ccccc2)cc(-c2cccc(O)c2)[n-]1 (cis-trans isomerization)
[H]/N=c1/nc(-c2ccccc2)cc(-c2cccc(O)c2)[n-]1 (3D coordinates assigned)
[H]/N=c1/nc(-c2ccccc2)cc(-c2cccc(O)c2)[n-]1 (optimized conformer: 42.941099071325134 kcal/mol)

>  <smiles>  (37) 
N=c1nc(-c2ccccc2)cc(-c2cccc(O)c2)[nH]1

>  <score_type>  (37) 
oracle

>  <origin>  (37) 
adgpu

>  <m_score__min__energy>  (37) 
-8.6500000000000004

>  <m_primary>  (37) 
energy

$$$$
37:0
     RDKit          3D

 36 37  0  0  0  0  0  0  0  0999 V2000
   -8.7800   22.0110  -31.1490 C   0  0  0  0  0  0  0  0  0  0  0  0
   -7.5980   22.8850  -31.3990 C   0  0  0  0  0  0  0  0  0  0  0  0
   -7.0270   23.7600  -30.5010 C   0  0  0  0  0  0  0  0  0  0  0  0
   -5.9700   24.2970  -31.2080 C   0  0  0  0  0  0  0  0  0  0  0  0
   -5.0170   25.2990  -30.7180 C   0  0  0  0  0  0  0  0  0  0  0  0
   -5.4110   26.4720  -30.4760 O   0  0  0  0  0  0  0  0  0  0  0  0
   -3.6590   24.9170  -30.4670 N   0  0  0  0  0  0  0  0  0  0  0  0
   -3.1080   23.5960  -30.5870 C   0  0  0  0  0  0  0  0  0  0  0  0
   -2.1180   23.1970  -29.6810 C   0  0  0  0  0  0  0  0  0  0  0  0
   -1.5640   21.9170  -29.7570 C   0  0  0  0  0  0  0  0  0  0  0  0
   -2.0080   21.0180  -30.7290 C   0  0  0  0  0  0  0  0  0  0  0  0
   -3.0210   21.3920  -31.6230 C   0  0  0  0  0  0  0  0  0  0  0  0
   -3.5970   20.2680  -32.8530 S   0  0  0  0  0  0  0  0  0  0  0  0
   -2.8940   20.5310  -34.1580 O   0  0  0  0  0  0  0  0  0  0  0  0
   -3.2790   18.8680  -32.4100 O   0  0  0  0  0  0  0  0  0  0  0  0
   -5.3210   20.4480  -33.0590 N   0  0  0  0  0  0  0  0  0  0  0  0
   -5.7830   19.6230  -34.1840 C   0  0  0  0  0  0  0  0  0  0  0  0
   -6.0140   20.0700  -31.8210 C   0  0  0  0  0  0  0  0  0  0  0  0
   -3.5720   22.6790  -31.5490 C   0  0  0  0  0  0  0  0  0  0  0  0
   -5.9300   23.7610  -32.4440 N   0  0  0  0  0  0  0  0  0  0  0  0
   -6.9190   22.9190  -32.5210 O   0  0  0  0  0  0  0  0  0  0  0  0
   -8.9308   21.8995  -30.0651 H   0  0  0  0  0  0  0  0  0  0  0  0
   -9.6745   22.4666  -31.5987 H   0  0  0  0  0  0  0  0  0  0  0  0
   -8.6066   21.0222  -31.5987 H   0  0  0  0  0  0  0  0  0  0  0  0
   -7.3385   23.9782  -29.4688 H   0  0  0  0  0  0  0  0  0  0  0  0
   -1.7742   23.8960  -28.9043 H   0  0  0  0  0  0  0  0  0  0  0  0
   -0.7766   21.6166  -29.0500 H   0  0  0  0  0  0  0  0  0  0  0  0
   -1.5620   20.0145  -30.7933 H   0  0  0  0  0  0  0  0  0  0  0  0
   -5.5250   21.4530  -33.2690 H   0  0  0  0  0  0  0  0  0  0  0  0
   -6.2862   18.7245  -33.7974 H   0  0  0  0  0  0  0  0  0  0  0  0
   -6.4880   20.2023  -34.7983 H   0  0  0  0  0  0  0  0  0  0  0  0
   -4.9207   19.3247  -34.7983 H   0  0  0  0  0  0  0  0  0  0  0  0
   -5.4194   20.3943  -30.9543 H   0  0  0  0  0  0  0  0  0  0  0  0
   -7.0010   20.5547  -31.7906 H   0  0  0  0  0  0  0  0  0  0  0  0
   -6.1408   18.9778  -31.7906 H   0  0  0  0  0  0  0  0  0  0  0  0
   -4.3705   22.9736  -32.2458 H   0  0  0  0  0  0  0  0  0  0  0  0
  1  2  1  0
  2  3  2  0
  3  4  1  0
  4  5  1  0
  5  6  2  0
  5  7  1  0
  7  8  1  0
  8  9  2  0
  9 10  1  0
 10 11  2  0
 11 12  1  0
 12 13  1  0
 13 14  2  0
 13 15  2  0
 13 16  1  0
 16 17  1  0
 16 18  1  0
 12 19  2  0
  4 20  2  0
 20 21  1  0
 21  2  1  0
 19  8  1  0
  1 22  1  0
  1 23  1  0
  1 24  1  0
  3 25  1  0
  9 26  1  0
 10 27  1  0
 11 28  1  0
 16 29  1  0
 17 30  1  0
 17 31  1  0
 17 32  1  0
 18 33  1  0
 18 34  1  0
 18 35  1  0
 19 36  1  0
M  CHG  2   7  -1  16   1
M  END
>  <UniqueID>  (38) 
34

>  <SMILES>  (38) 
Cc1cc(C(=O)[N-]c2cccc(S(=O)(=O)[NH+](C)C)c2)no1

>  <Energy>  (38) 
64.40320622140729

>  <Genealogy>  (38) 
Cc1cc(C(=O)[N-]c2cccc(S(=O)(=O)[NH+](C)C)c2)no1 (protonated)
Cc1cc(C(=O)[N-]c2cccc(S(=O)(=O)[NH+](C)C)c2)no1 (3D coordinates assigned)
Cc1cc(C(=O)[N-]c2cccc(S(=O)(=O)[NH+](C)C)c2)no1 (optimized conformer: 64.40320622140729 kcal/mol)

>  <smiles>  (38) 
Cc1cc(C(=O)Nc2cccc(S(=O)(=O)N(C)C)c2)no1

>  <score_type>  (38) 
oracle

>  <origin>  (38) 
adgpu

>  <m_score__min__energy>  (38) 
-8.6799999999999997

>  <m_primary>  (38) 
energy

$$$$
38:0
     RDKit          3D

 41 43  0  0  0  0  0  0  0  0999 V2000
   -2.8850   21.0293  -33.0169 H   0  0  0  0  0  0  0  0  0  0  0  0
   -3.8530   21.3620  -32.6140 C   0  0  0  0  0  0  0  0  0  0  0  0
   -3.9270   22.5480  -31.8830 C   0  0  0  0  0  0  0  0  0  0  0  0
   -3.0186   23.1449  -31.7142 H   0  0  0  0  0  0  0  0  0  0  0  0
   -5.1510   22.9810  -31.3640 C   0  0  0  0  0  0  0  0  0  0  0  0
   -5.2640   24.5010  -30.4790 S   0  0  0  0  0  0  0  0  0  0  0  0
   -5.7220   25.5800  -31.4190 O   0  0  0  0  0  0  0  0  0  0  0  0
   -6.2470   24.3850  -29.3470 O   0  0  0  0  0  0  0  0  0  0  0  0
   -3.7090   24.9250  -29.8340 N   0  0  0  0  0  0  0  0  0  0  0  0
   -2.9650   24.1090  -29.1490 C   0  0  0  0  0  0  0  0  0  0  0  0
   -3.3870   22.8380  -28.8940 N   0  0  0  0  0  0  0  0  0  0  0  0
   -2.6340   21.9510  -28.1960 C   0  0  0  0  0  0  0  0  0  0  0  0
   -3.1100   20.6550  -27.9670 C   0  0  0  0  0  0  0  0  0  0  0  0
   -4.0955   20.3546  -28.3523 H   0  0  0  0  0  0  0  0  0  0  0  0
   -2.3320   19.7420  -27.2480 C   0  0  0  0  0  0  0  0  0  0  0  0
   -2.7069   18.7236  -27.0681 H   0  0  0  0  0  0  0  0  0  0  0  0
   -1.0780   20.1210  -26.7570 C   0  0  0  0  0  0  0  0  0  0  0  0
   -0.4704   19.3999  -26.1905 H   0  0  0  0  0  0  0  0  0  0  0  0
   -0.5940   21.4140  -26.9840 C   0  0  0  0  0  0  0  0  0  0  0  0
    0.3938   21.7075  -26.5992 H   0  0  0  0  0  0  0  0  0  0  0  0
   -1.3700   22.3360  -27.7030 C   0  0  0  0  0  0  0  0  0  0  0  0
   -0.9150   23.6370  -27.9490 C   0  0  0  0  0  0  0  0  0  0  0  0
    0.0682   23.9551  -27.5718 H   0  0  0  0  0  0  0  0  0  0  0  0
   -1.7130   24.5390  -28.6780 C   0  0  0  0  0  0  0  0  0  0  0  0
   -1.2970   25.8520  -28.9530 O   0  0  0  0  0  0  0  0  0  0  0  0
   -0.8470   26.7780  -27.9690 C   0  0  0  0  0  0  0  0  0  0  0  0
   -1.0443   26.3719  -26.9659 H   0  0  0  0  0  0  0  0  0  0  0  0
    0.2333   26.9461  -28.0905 H   0  0  0  0  0  0  0  0  0  0  0  0
   -1.3824   27.7312  -28.0905 H   0  0  0  0  0  0  0  0  0  0  0  0
   -6.3030   22.2160  -31.5760 C   0  0  0  0  0  0  0  0  0  0  0  0
   -7.2645   22.5542  -31.1622 H   0  0  0  0  0  0  0  0  0  0  0  0
   -6.2450   21.0200  -32.3120 C   0  0  0  0  0  0  0  0  0  0  0  0
   -7.5070   20.2290  -32.5360 C   0  0  0  0  0  0  0  0  0  0  0  0
   -7.9449   19.9545  -31.5650 H   0  0  0  0  0  0  0  0  0  0  0  0
   -8.2259   20.8384  -33.1033 H   0  0  0  0  0  0  0  0  0  0  0  0
   -7.2719   19.3164  -33.1033 H   0  0  0  0  0  0  0  0  0  0  0  0
   -5.0040   20.5890  -32.8400 C   0  0  0  0  0  0  0  0  0  0  0  0
   -4.8970   19.3200  -33.6430 C   0  0  0  0  0  0  0  0  0  0  0  0
   -4.8245   18.4597  -32.9613 H   0  0  0  0  0  0  0  0  0  0  0  0
   -5.7891   19.2111  -34.2772 H   0  0  0  0  0  0  0  0  0  0  0  0
   -3.9992   19.3620  -34.2772 H   0  0  0  0  0  0  0  0  0  0  0  0
  1  2  1  0
  2  3  2  0
  3  4  1  0
  3  5  1  0
  5  6  1  0
  6  7  2  0
  6  8  2  0
  6  9  1  0
  9 10  2  0
 10 11  1  0
 11 12  1  0
 12 13  2  0
 13 14  1  0
 13 15  1  0
 15 16  1  0
 15 17  2  0
 17 18  1  0
 17 19  1  0
 19 20  1  0
 19 21  2  0
 21 22  1  0
 22 23  1  0
 22 24  2  0
 24 25  1  0
 25 26  1  0
 26 27  1  0
 26 28  1  0
 26 29  1  0
  5 30  2  0
 30 31  1  0
 30 32  1  0
 32 33  1  0
 33 34  1  0
 33 35  1  0
 33 36  1  0
 32 37  2  0
 37 38  1  0
 38 39  1  0
 38 40  1  0
 38 41  1  0
 37  2  1  0
 24 10  1  0
 21 12  1  0
M  CHG  1  11  -1
M  END
>  <UniqueID>  (39) 
35

>  <SMILES>  (39) 
COc1cc2ccccc2[n-]/c1=N\S(=O)(=O)c1ccc(C)c(C)c1

>  <Energy>  (39) 
48.38778103316756

>  <Genealogy>  (39) 
COc1cc2ccccc2[n-]c1=NS(=O)(=O)c1ccc(C)c(C)c1 (protonated)
COc1cc2ccccc2[n-]/c1=N\S(=O)(=O)c1ccc(C)c(C)c1 (cis-trans isomerization)
COc1cc2ccccc2[n-]/c1=N\S(=O)(=O)c1ccc(C)c(C)c1 (3D coordinates assigned)
COc1cc2ccccc2[n-]/c1=N\S(=O)(=O)c1ccc(C)c(C)c1 (optimized conformer: 48.38778103316756 kcal/mol)

>  <smiles>  (39) 
COc1cc2ccccc2[nH]c1=NS(=O)(=O)c1ccc(C)c(C)c1

>  <score_type>  (39) 
oracle

>  <origin>  (39) 
adgpu

>  <m_score__min__energy>  (39) 
-9.7300000000000004

>  <m_primary>  (39) 
energy

$$$$
39:0
     RDKit          3D

 59 62  0  0  0  0  0  0  0  0999 V2000
    1.7880   22.2040  -35.4020 C   0  0  0  0  0  0  0  0  0  0  0  0
    1.0350   20.9240  -35.2680 C   0  0  0  0  0  0  0  0  0  0  0  0
    0.6720   20.3040  -34.0840 C   0  0  0  0  0  0  0  0  0  0  0  0
   -0.0190   19.1920  -34.5140 C   0  0  0  0  0  0  0  0  0  0  0  0
   -0.5470   18.3010  -33.7290 N   0  0  0  0  0  0  0  0  0  0  0  0
   -1.3990   16.8920  -34.2730 S   0  0  0  0  0  0  0  0  0  0  0  0
   -0.8200   15.6660  -33.6250 O   0  0  0  0  0  0  0  0  0  0  0  0
   -1.2320   16.7590  -35.7610 O   0  0  0  0  0  0  0  0  0  0  0  0
   -3.1120   17.0530  -33.9010 C   0  0  0  0  0  0  0  0  0  0  0  0
   -3.8550   18.1010  -34.4620 C   0  0  0  0  0  0  0  0  0  0  0  0
   -5.2120   18.2470  -34.1550 C   0  0  0  0  0  0  0  0  0  0  0  0
   -5.8310   17.3660  -33.2540 C   0  0  0  0  0  0  0  0  0  0  0  0
   -7.2200   17.5270  -32.9350 N   0  0  0  0  0  0  0  0  0  0  0  0
   -7.7680   18.8030  -32.5840 C   0  0  0  0  0  0  0  0  0  0  0  0
   -9.1130   18.8750  -31.6500 S   0  0  0  0  0  0  0  0  0  0  0  0
   -7.3250   19.9760  -33.2780 N   0  0  0  0  0  0  0  0  0  0  0  0
   -6.9130   21.1890  -32.6270 C   0  0  0  0  0  0  0  0  0  0  0  0
   -7.8360   22.0160  -31.9630 C   0  0  0  0  0  0  0  0  0  0  0  0
   -7.3910   23.1150  -31.2230 C   0  0  0  0  0  0  0  0  0  0  0  0
   -6.0250   23.4160  -31.1540 C   0  0  0  0  0  0  0  0  0  0  0  0
   -5.4750   24.7180  -30.1070 S   0  0  0  0  0  0  0  0  0  0  0  0
   -4.5720   25.6680  -30.8440 O   0  0  0  0  0  0  0  0  0  0  0  0
   -6.6700   25.4870  -29.6150 O   0  0  0  0  0  0  0  0  0  0  0  0
   -4.6510   24.0260  -28.7440 N   0  0  0  0  0  0  0  0  0  0  0  0
   -3.2240   23.9040  -28.6190 C   0  0  0  0  0  0  0  0  0  0  0  0
   -2.4480   23.3130  -29.6350 C   0  0  0  0  0  0  0  0  0  0  0  0
   -1.0590   23.2180  -29.5020 C   0  0  0  0  0  0  0  0  0  0  0  0
   -0.4310   23.6990  -28.3530 C   0  0  0  0  0  0  0  0  0  0  0  0
   -1.1890   24.2740  -27.3280 C   0  0  0  0  0  0  0  0  0  0  0  0
   -2.5840   24.4010  -27.4600 C   0  0  0  0  0  0  0  0  0  0  0  0
   -3.3910   24.9880  -26.3320 C   0  0  0  0  0  0  0  0  0  0  0  0
   -5.1060   22.6180  -31.8440 C   0  0  0  0  0  0  0  0  0  0  0  0
   -5.5470   21.5070  -32.5680 C   0  0  0  0  0  0  0  0  0  0  0  0
   -5.0860   16.3090  -32.7030 C   0  0  0  0  0  0  0  0  0  0  0  0
   -3.7370   16.1500  -33.0280 C   0  0  0  0  0  0  0  0  0  0  0  0
   -0.0610   19.1740  -35.8610 N   0  0  0  0  0  0  0  0  0  0  0  0
    0.5770   20.2250  -36.2830 O   0  0  0  0  0  0  0  0  0  0  0  0
    2.0204   22.5991  -34.4021 H   0  0  0  0  0  0  0  0  0  0  0  0
    2.7237   22.0232  -35.9514 H   0  0  0  0  0  0  0  0  0  0  0  0
    1.1754   22.9340  -35.9514 H   0  0  0  0  0  0  0  0  0  0  0  0
    0.8836   20.6216  -33.0523 H   0  0  0  0  0  0  0  0  0  0  0  0
   -3.3689   18.8117  -35.1466 H   0  0  0  0  0  0  0  0  0  0  0  0
   -5.7958   19.0545  -34.6209 H   0  0  0  0  0  0  0  0  0  0  0  0
   -7.8500   16.6960  -32.9770 H   0  0  0  0  0  0  0  0  0  0  0  0
   -7.1680   19.8910  -34.3080 H   0  0  0  0  0  0  0  0  0  0  0  0
   -8.9122   21.7973  -32.0261 H   0  0  0  0  0  0  0  0  0  0  0  0
   -8.1178   23.7471  -30.6918 H   0  0  0  0  0  0  0  0  0  0  0  0
   -2.9379   22.9234  -30.5395 H   0  0  0  0  0  0  0  0  0  0  0  0
   -0.4605   22.7631  -30.3051 H   0  0  0  0  0  0  0  0  0  0  0  0
    0.6620   23.6259  -28.2530 H   0  0  0  0  0  0  0  0  0  0  0  0
   -0.6917   24.6290  -26.4133 H   0  0  0  0  0  0  0  0  0  0  0  0
   -2.9593   24.6740  -25.3702 H   0  0  0  0  0  0  0  0  0  0  0  0
   -3.3732   26.0857  -26.4010 H   0  0  0  0  0  0  0  0  0  0  0  0
   -4.4299   24.6330  -26.4010 H   0  0  0  0  0  0  0  0  0  0  0  0
   -4.0346   22.8655  -31.8166 H   0  0  0  0  0  0  0  0  0  0  0  0
   -4.8172   20.8760  -33.0964 H   0  0  0  0  0  0  0  0  0  0  0  0
   -5.5685   15.6026  -32.0115 H   0  0  0  0  0  0  0  0  0  0  0  0
   -3.1636   15.3152  -32.5987 H   0  0  0  0  0  0  0  0  0  0  0  0
   -0.5160   18.4760  -36.4860 H   0  0  0  0  0  0  0  0  0  0  0  0
  1  2  1  0
  2  3  2  0
  3  4  1  0
  4  5  2  3
  5  6  1  0
  6  7  2  0
  6  8  2  0
  6  9  1  0
  9 10  2  0
 10 11  1  0
 11 12  2  0
 12 13  1  0
 13 14  1  0
 14 15  2  0
 14 16  1  0
 16 17  1  0
 17 18  2  0
 18 19  1  0
 19 20  2  0
 20 21  1  0
 21 22  2  0
 21 23  2  0
 21 24  1  0
 24 25  1  0
 25 26  2  0
 26 27  1  0
 27 28  2  0
 28 29  1  0
 29 30  2  0
 30 31  1  0
 20 32  1  0
 32 33  2  0
 12 34  1  0
 34 35  2  0
  4 36  1  0
 36 37  1  0
 37  2  1  0
 35  9  1  0
 33 17  1  0
 30 25  1  0
  1 38  1  0
  1 39  1  0
  1 40  1  0
  3 41  1  0
 10 42  1  0
 11 43  1  0
 13 44  1  0
 16 45  1  0
 18 46  1  0
 19 47  1  0
 26 48  1  0
 27 49  1  0
 28 50  1  0
 29 51  1  0
 31 52  1  0
 31 53  1  0
 31 54  1  0
 32 55  1  0
 33 56  1  0
 34 57  1  0
 35 58  1  0
 36 59  1  0
M  CHG  1  24  -1
M  END
>  <UniqueID>  (40) 
36

>  <SMILES>  (40) 
Cc1cc(=NS(=O)(=O)c2ccc(NC(=S)Nc3ccc(S(=O)(=O)[N-]c4ccccc4C)cc3)cc2)[nH]o1

>  <Energy>  (40) 
109.47980707922832

>  <Genealogy>  (40) 
Cc1cc(=NS(=O)(=O)c2ccc(NC(=S)Nc3ccc(S(=O)(=O)[N-]c4ccccc4C)cc3)cc2)[nH]o1 (protonated)
Cc1cc(=NS(=O)(=O)c2ccc(NC(=S)Nc3ccc(S(=O)(=O)[N-]c4ccccc4C)cc3)cc2)[nH]o1 (3D coordinates assigned)
Cc1cc(=NS(=O)(=O)c2ccc(NC(=S)Nc3ccc(S(=O)(=O)[N-]c4ccccc4C)cc3)cc2)[nH]o1 (optimized conformer: 109.47980707922832 kcal/mol)

>  <smiles>  (40) 
Cc1cc(=NS(=O)(=O)c2ccc(NC(=S)Nc3ccc(S(=O)(=O)Nc4ccccc4C)cc3)cc2)[nH]o1

>  <score_type>  (40) 
oracle

>  <origin>  (40) 
adgpu

>  <m_score__min__energy>  (40) 
-12.289999999999999

>  <m_primary>  (40) 
energy

$$$$
40:0
     RDKit          3D

 53 56  0  0  0  0  0  0  0  0999 V2000
   -2.3210   24.7530  -28.6440 C   0  0  0  0  0  0  0  0  0  0  0  0
   -3.1310   25.2400  -29.7100 O   0  0  0  0  0  0  0  0  0  0  0  0
   -4.2040   24.5360  -30.2730 C   0  0  0  0  0  0  0  0  0  0  0  0
   -5.5250   25.0270  -30.2520 C   0  0  0  0  0  0  0  0  0  0  0  0
   -6.5640   24.2840  -30.8220 C   0  0  0  0  0  0  0  0  0  0  0  0
   -6.3000   23.0380  -31.4230 C   0  0  0  0  0  0  0  0  0  0  0  0
   -7.3080   22.2550  -32.0040 O   0  0  0  0  0  0  0  0  0  0  0  0
   -8.2510   21.4810  -31.2690 C   0  0  0  0  0  0  0  0  0  0  0  0
   -8.1760   20.0580  -31.7220 C   0  0  0  0  0  0  0  0  0  0  0  0
   -8.9290   19.0690  -31.1990 N   0  0  0  0  0  0  0  0  0  0  0  0
   -8.5830   17.9500  -31.8200 N   0  0  0  0  0  0  0  0  0  0  0  0
   -7.6190   18.2740  -32.7040 C   0  0  0  0  0  0  0  0  0  0  0  0
   -6.8490   17.0860  -33.8050 S   0  0  0  0  0  0  0  0  0  0  0  0
   -5.2920   17.0570  -32.8610 C   0  0  0  0  0  0  0  0  0  0  0  0
   -4.2840   17.9270  -33.5390 C   0  0  0  0  0  0  0  0  0  0  0  0
   -4.4890   18.2960  -34.7270 O   0  0  0  0  0  0  0  0  0  0  0  0
   -3.0550   18.2550  -32.8720 N   0  0  0  0  0  0  0  0  0  0  0  0
   -2.1310   19.2570  -33.3330 C   0  0  0  0  0  0  0  0  0  0  0  0
   -2.1690   20.5400  -32.7650 C   0  0  0  0  0  0  0  0  0  0  0  0
   -1.3010   21.5430  -33.2130 C   0  0  0  0  0  0  0  0  0  0  0  0
   -0.4040   21.2740  -34.2490 C   0  0  0  0  0  0  0  0  0  0  0  0
   -0.3560   19.9960  -34.8220 C   0  0  0  0  0  0  0  0  0  0  0  0
   -1.2270   18.9960  -34.3820 C   0  0  0  0  0  0  0  0  0  0  0  0
    0.5690   19.7440  -35.8400 O   0  0  0  0  0  0  0  0  0  0  0  0
    1.6300   20.6610  -36.1220 C   0  0  0  0  0  0  0  0  0  0  0  0
    1.1360   22.1070  -35.9780 C   0  0  0  0  0  0  0  0  0  0  0  0
    0.4480   22.2710  -34.7360 O   0  0  0  0  0  0  0  0  0  0  0  0
   -7.3270   19.5880  -32.6570 N   0  0  0  0  0  0  0  0  0  0  0  0
   -6.4070   20.3430  -33.5050 C   0  0  0  0  0  0  0  0  0  0  0  0
   -4.9870   22.5580  -31.4460 C   0  0  0  0  0  0  0  0  0  0  0  0
   -3.9470   23.2990  -30.8760 C   0  0  0  0  0  0  0  0  0  0  0  0
   -2.7776   25.0275  -27.6816 H   0  0  0  0  0  0  0  0  0  0  0  0
   -2.2428   23.6580  -28.7136 H   0  0  0  0  0  0  0  0  0  0  0  0
   -1.3172   25.1975  -28.7136 H   0  0  0  0  0  0  0  0  0  0  0  0
   -5.7400   25.9995  -29.7850 H   0  0  0  0  0  0  0  0  0  0  0  0
   -7.5921   24.6747  -30.8007 H   0  0  0  0  0  0  0  0  0  0  0  0
   -8.0177   21.5385  -30.1956 H   0  0  0  0  0  0  0  0  0  0  0  0
   -9.2649   21.8715  -31.4410 H   0  0  0  0  0  0  0  0  0  0  0  0
   -5.4734   17.4307  -31.8425 H   0  0  0  0  0  0  0  0  0  0  0  0
   -4.9124   16.0258  -32.8102 H   0  0  0  0  0  0  0  0  0  0  0  0
   -2.7800   17.6750  -32.0470 H   0  0  0  0  0  0  0  0  0  0  0  0
   -2.8869   20.7593  -31.9610 H   0  0  0  0  0  0  0  0  0  0  0  0
   -1.3255   22.5405  -32.7501 H   0  0  0  0  0  0  0  0  0  0  0  0
   -1.2070   18.0032  -34.8553 H   0  0  0  0  0  0  0  0  0  0  0  0
    2.4564   20.4878  -35.4170 H   0  0  0  0  0  0  0  0  0  0  0  0
    1.9759   20.5019  -37.1540 H   0  0  0  0  0  0  0  0  0  0  0  0
    1.9974   22.7903  -36.0094 H   0  0  0  0  0  0  0  0  0  0  0  0
    0.4461   22.3351  -36.8039 H   0  0  0  0  0  0  0  0  0  0  0  0
   -5.7110   20.9142  -32.8732 H   0  0  0  0  0  0  0  0  0  0  0  0
   -5.8390   19.6473  -34.1401 H   0  0  0  0  0  0  0  0  0  0  0  0
   -6.9785   21.0358  -34.1401 H   0  0  0  0  0  0  0  0  0  0  0  0
   -4.7699   21.5880  -31.9171 H   0  0  0  0  0  0  0  0  0  0  0  0
   -2.9195   22.9070  -30.9016 H   0  0  0  0  0  0  0  0  0  0  0  0
  1  2  1  0
  2  3  1  0
  3  4  2  0
  4  5  1  0
  5  6  2  0
  6  7  1  0
  7  8  1  0
  8  9  1  0
  9 10  2  0
 10 11  1  0
 11 12  2  0
 12 13  1  0
 13 14  1  0
 14 15  1  0
 15 16  2  0
 15 17  1  0
 17 18  1  0
 18 19  2  0
 19 20  1  0
 20 21  2  0
 21 22  1  0
 22 23  2  0
 22 24  1  0
 24 25  1  0
 25 26  1  0
 26 27  1  0
 12 28  1  0
 28 29  1  0
  6 30  1  0
 30 31  2  0
 31  3  1  0
 28  9  1  0
 23 18  1  0
 27 21  1  0
  1 32  1  0
  1 33  1  0
  1 34  1  0
  4 35  1  0
  5 36  1  0
  8 37  1  0
  8 38  1  0
 14 39  1  0
 14 40  1  0
 17 41  1  0
 19 42  1  0
 20 43  1  0
 23 44  1  0
 25 45  1  0
 25 46  1  0
 26 47  1  0
 26 48  1  0
 29 49  1  0
 29 50  1  0
 29 51  1  0
 30 52  1  0
 31 53  1  0
M  END
>  <UniqueID>  (41) 
37

>  <SMILES>  (41) 
COc1ccc(OCc2nnc(SCC(=O)Nc3ccc4c(c3)OCCO4)n2C)cc1

>  <Energy>  (41) 
87.57647328762975

>  <Genealogy>  (41) 
COc1ccc(OCc2nnc(SCC(=O)Nc3ccc4c(c3)OCCO4)n2C)cc1 (3D coordinates assigned)
COc1ccc(OCc2nnc(SCC(=O)Nc3ccc4c(c3)OCCO4)n2C)cc1 (nonaromatic ring conformer: 87.57647328762975 kcal/mol)

>  <smiles>  (41) 
COc1ccc(OCc2nnc(SCC(=O)Nc3ccc4c(c3)OCCO4)n2C)cc1

>  <score_type>  (41) 
oracle

>  <origin>  (41) 
adgpu

>  <m_score__min__energy>  (41) 
-9.3300000000000001

>  <m_primary>  (41) 
energy

$$$$
41:0
     RDKit          3D

 44 46  0  0  0  0  0  0  0  0999 V2000
   -8.7050   19.6710  -32.5210 C   0  0  0  0  0  0  0  0  0  0  0  0
   -7.2810   20.0270  -32.8310 C   0  0  0  0  0  0  0  0  0  0  0  0
   -6.4440   19.1010  -33.4700 C   0  0  0  0  0  0  0  0  0  0  0  0
   -5.1070   19.4160  -33.7250 C   0  0  0  0  0  0  0  0  0  0  0  0
   -4.5790   20.6520  -33.3260 C   0  0  0  0  0  0  0  0  0  0  0  0
   -3.2040   20.9630  -33.6170 N   0  0  0  0  0  0  0  0  0  0  0  0
   -2.1580   20.9660  -32.6310 C   0  0  0  0  0  0  0  0  0  0  0  0
   -2.4740   20.7190  -31.2840 C   0  0  0  0  0  0  0  0  0  0  0  0
   -1.4740   20.6590  -30.3050 C   0  0  0  0  0  0  0  0  0  0  0  0
   -1.8450   20.4310  -28.9330 N   0  0  0  0  0  0  0  0  0  0  0  0
   -3.0190   21.0240  -28.2910 C   0  0  0  0  0  0  0  0  0  0  0  0
   -3.3270   22.3690  -28.8930 C   0  0  0  0  0  0  0  0  0  0  0  0
   -4.5680   22.6120  -29.5070 C   0  0  0  0  0  0  0  0  0  0  0  0
   -4.8500   23.8680  -30.0520 C   0  0  0  0  0  0  0  0  0  0  0  0
   -3.8950   24.8870  -29.9950 C   0  0  0  0  0  0  0  0  0  0  0  0
   -2.6560   24.6520  -29.3940 C   0  0  0  0  0  0  0  0  0  0  0  0
   -1.7060   25.6640  -29.3410 O   0  0  0  0  0  0  0  0  0  0  0  0
   -2.3700   23.3970  -28.8470 C   0  0  0  0  0  0  0  0  0  0  0  0
   -0.1310   20.8070  -30.6940 C   0  0  0  0  0  0  0  0  0  0  0  0
    0.1960   21.0280  -32.0320 C   0  0  0  0  0  0  0  0  0  0  0  0
   -0.8050   21.1200  -33.0130 C   0  0  0  0  0  0  0  0  0  0  0  0
   -0.4400   21.4000  -34.3770 N   0  0  0  0  0  0  0  0  0  0  0  0
   -0.9350   20.7340  -35.3100 O   0  0  0  0  0  0  0  0  0  0  0  0
    0.5730   22.2860  -34.6620 O   0  0  0  0  0  0  0  0  0  0  0  0
   -5.4200   21.5820  -32.6870 C   0  0  0  0  0  0  0  0  0  0  0  0
   -6.7580   21.2650  -32.4300 C   0  0  0  0  0  0  0  0  0  0  0  0
   -8.8451   19.6360  -31.4305 H   0  0  0  0  0  0  0  0  0  0  0  0
   -9.3748   20.4293  -32.9526 H   0  0  0  0  0  0  0  0  0  0  0  0
   -8.9392   18.6867  -32.9526 H   0  0  0  0  0  0  0  0  0  0  0  0
   -6.8423   18.1212  -33.7722 H   0  0  0  0  0  0  0  0  0  0  0  0
   -4.4639   18.6890  -34.2426 H   0  0  0  0  0  0  0  0  0  0  0  0
   -2.9420   21.1720  -34.6070 H   0  0  0  0  0  0  0  0  0  0  0  0
   -3.5245   20.5703  -30.9936 H   0  0  0  0  0  0  0  0  0  0  0  0
   -1.3080   19.7230  -28.3820 H   0  0  0  0  0  0  0  0  0  0  0  0
   -3.8833   20.3582  -28.4315 H   0  0  0  0  0  0  0  0  0  0  0  0
   -2.8102   21.1538  -27.2188 H   0  0  0  0  0  0  0  0  0  0  0  0
   -5.3200   21.8108  -29.5588 H   0  0  0  0  0  0  0  0  0  0  0  0
   -5.8248   24.0546  -30.5263 H   0  0  0  0  0  0  0  0  0  0  0  0
   -4.1192   25.8749  -30.4238 H   0  0  0  0  0  0  0  0  0  0  0  0
   -1.3917   23.2138  -28.3787 H   0  0  0  0  0  0  0  0  0  0  0  0
    0.6666   20.7482  -29.9388 H   0  0  0  0  0  0  0  0  0  0  0  0
    1.2518   21.1316  -32.3226 H   0  0  0  0  0  0  0  0  0  0  0  0
   -5.0231   22.5634  -32.3881 H   0  0  0  0  0  0  0  0  0  0  0  0
   -7.4027   21.9898  -31.9112 H   0  0  0  0  0  0  0  0  0  0  0  0
  1  2  1  0
  2  3  2  0
  3  4  1  0
  4  5  2  0
  5  6  1  0
  6  7  1  0
  7  8  2  0
  8  9  1  0
  9 10  1  0
 10 11  1  0
 11 12  1  0
 12 13  2  0
 13 14  1  0
 14 15  2  0
 15 16  1  0
 16 17  1  0
 16 18  2  0
  9 19  2  0
 19 20  1  0
 20 21  2  0
 21 22  1  0
 22 23  2  0
 22 24  1  0
  5 25  1  0
 25 26  2  0
 26  2  1  0
 21  7  1  0
 18 12  1  0
  1 27  1  0
  1 28  1  0
  1 29  1  0
  3 30  1  0
  4 31  1  0
  6 32  1  0
  8 33  1  0
 10 34  1  0
 11 35  1  0
 11 36  1  0
 13 37  1  0
 14 38  1  0
 15 39  1  0
 18 40  1  0
 19 41  1  0
 20 42  1  0
 25 43  1  0
 26 44  1  0
M  CHG  3  17  -1  22   1  24  -1
M  END
>  <UniqueID>  (42) 
38

>  <SMILES>  (42) 
Cc1ccc(Nc2cc(NCc3cccc([O-])c3)ccc2[N+](=O)[O-])cc1

>  <Energy>  (42) 
54.699127131278665

>  <Genealogy>  (42) 
Cc1ccc(Nc2cc(NCc3cccc([O-])c3)ccc2[N+](=O)[O-])cc1 (protonated)
Cc1ccc(Nc2cc(NCc3cccc([O-])c3)ccc2[N+](=O)[O-])cc1 (3D coordinates assigned)
Cc1ccc(Nc2cc(NCc3cccc([O-])c3)ccc2[N+](=O)[O-])cc1 (optimized conformer: 54.699127131278665 kcal/mol)

>  <smiles>  (42) 
Cc1ccc(Nc2cc(NCc3cccc(O)c3)ccc2[N+](=O)[O-])cc1

>  <score_type>  (42) 
oracle

>  <origin>  (42) 
adgpu

>  <m_score__min__energy>  (42) 
-11.460000000000001

>  <m_primary>  (42) 
energy

$$$$
42:0
     RDKit          3D

 56 59  0  0  0  0  0  0  0  0999 V2000
   -2.3140   16.8870  -33.6030 C   0  0  0  0  0  0  0  0  0  0  0  0
   -3.2730   15.8470  -34.0230 N   0  0  0  0  0  0  0  0  0  0  0  0
   -3.8800   16.1660  -35.3370 C   0  0  0  0  0  0  0  0  0  0  0  0
   -4.7720   17.4180  -35.2690 C   0  0  0  0  0  0  0  0  0  0  0  0
   -5.5100   17.4590  -34.0020 N   0  0  0  0  0  0  0  0  0  0  0  0
   -5.9270   18.7220  -33.4500 C   0  0  0  0  0  0  0  0  0  0  0  0
   -7.2440   18.8750  -32.9860 C   0  0  0  0  0  0  0  0  0  0  0  0
   -7.6600   20.0780  -32.4150 C   0  0  0  0  0  0  0  0  0  0  0  0
   -6.7720   21.1530  -32.3100 C   0  0  0  0  0  0  0  0  0  0  0  0
   -7.3070   22.6860  -31.6140 S   0  0  0  0  0  0  0  0  0  0  0  0
   -7.4950   23.6900  -32.7160 O   0  0  0  0  0  0  0  0  0  0  0  0
   -8.6350   22.4850  -30.9370 O   0  0  0  0  0  0  0  0  0  0  0  0
   -6.1530   23.3090  -30.4570 N   0  0  0  0  0  0  0  0  0  0  0  0
   -6.3960   24.7370  -30.1570 C   0  0  0  0  0  0  0  0  0  0  0  0
   -5.3660   25.6550  -30.8410 C   0  0  0  0  0  0  0  0  0  0  0  0
   -4.0240   25.3670  -30.4710 O   0  0  0  0  0  0  0  0  0  0  0  0
   -3.7820   23.9880  -30.2150 C   0  0  0  0  0  0  0  0  0  0  0  0
   -4.7740   23.0390  -30.9090 C   0  0  0  0  0  0  0  0  0  0  0  0
   -5.4570   21.0090  -32.7690 C   0  0  0  0  0  0  0  0  0  0  0  0
   -5.0220   19.7940  -33.3280 C   0  0  0  0  0  0  0  0  0  0  0  0
   -3.6910   19.6650  -33.8500 N   0  0  0  0  0  0  0  0  0  0  0  0
   -2.5490   20.4240  -33.4330 C   0  0  0  0  0  0  0  0  0  0  0  0
   -2.6290   21.1210  -32.3880 O   0  0  0  0  0  0  0  0  0  0  0  0
   -1.3030   20.4580  -34.2190 C   0  0  0  0  0  0  0  0  0  0  0  0
   -0.4190   21.5170  -34.3210 C   0  0  0  0  0  0  0  0  0  0  0  0
    0.5950   21.0780  -35.1440 C   0  0  0  0  0  0  0  0  0  0  0  0
    0.2740   19.7800  -35.4880 C   0  0  0  0  0  0  0  0  0  0  0  0
   -0.8590   19.4390  -34.9180 O   0  0  0  0  0  0  0  0  0  0  0  0
   -5.6640   16.2230  -33.2350 C   0  0  0  0  0  0  0  0  0  0  0  0
   -4.2890   15.5800  -32.9630 C   0  0  0  0  0  0  0  0  0  0  0  0
   -2.2758   16.9284  -32.5044 H   0  0  0  0  0  0  0  0  0  0  0  0
   -1.3154   16.6451  -33.9957 H   0  0  0  0  0  0  0  0  0  0  0  0
   -2.6359   17.8628  -33.9957 H   0  0  0  0  0  0  0  0  0  0  0  0
   -2.7170   14.9680  -34.1530 H   0  0  0  0  0  0  0  0  0  0  0  0
   -3.0759   16.3416  -36.0668 H   0  0  0  0  0  0  0  0  0  0  0  0
   -4.5094   15.3152  -35.6370 H   0  0  0  0  0  0  0  0  0  0  0  0
   -4.1414   18.3157  -35.3491 H   0  0  0  0  0  0  0  0  0  0  0  0
   -5.4938   17.3842  -36.0984 H   0  0  0  0  0  0  0  0  0  0  0  0
   -7.9535   18.0390  -33.0736 H   0  0  0  0  0  0  0  0  0  0  0  0
   -8.6910   20.1813  -32.0458 H   0  0  0  0  0  0  0  0  0  0  0  0
   -7.4021   25.0076  -30.5099 H   0  0  0  0  0  0  0  0  0  0  0  0
   -6.3044   24.8755  -29.0696 H   0  0  0  0  0  0  0  0  0  0  0  0
   -5.4612   25.5360  -31.9304 H   0  0  0  0  0  0  0  0  0  0  0  0
   -5.5801   26.6840  -30.5166 H   0  0  0  0  0  0  0  0  0  0  0  0
   -2.7679   23.7441  -30.5645 H   0  0  0  0  0  0  0  0  0  0  0  0
   -3.9041   23.8393  -29.1320 H   0  0  0  0  0  0  0  0  0  0  0  0
   -4.7147   23.1868  -31.9974 H   0  0  0  0  0  0  0  0  0  0  0  0
   -4.5126   22.0020  -30.6514 H   0  0  0  0  0  0  0  0  0  0  0  0
   -4.7574   21.8543  -32.6916 H   0  0  0  0  0  0  0  0  0  0  0  0
   -0.5072   22.5043  -33.8442 H   0  0  0  0  0  0  0  0  0  0  0  0
    1.4811   21.6466  -35.4626 H   0  0  0  0  0  0  0  0  0  0  0  0
    0.8758   19.1302  -36.1404 H   0  0  0  0  0  0  0  0  0  0  0  0
   -6.1529   16.4507  -32.2763 H   0  0  0  0  0  0  0  0  0  0  0  0
   -6.2771   15.5183  -33.8160 H   0  0  0  0  0  0  0  0  0  0  0  0
   -3.9058   15.9733  -32.0099 H   0  0  0  0  0  0  0  0  0  0  0  0
   -4.4460   14.4915  -32.9400 H   0  0  0  0  0  0  0  0  0  0  0  0
  1  2  1  0
  2  3  1  0
  3  4  1  0
  4  5  1  0
  5  6  1  0
  6  7  2  0
  7  8  1  0
  8  9  2  0
  9 10  1  0
 10 11  2  0
 10 12  2  0
 10 13  1  0
 13 14  1  0
 14 15  1  0
 15 16  1  0
 16 17  1  0
 17 18  1  0
  9 19  1  0
 19 20  2  0
 20 21  1  0
 21 22  1  0
 22 23  2  0
 22 24  1  0
 24 25  2  0
 25 26  1  0
 26 27  2  0
 27 28  1  0
  5 29  1  0
 29 30  1  0
 30  2  1  0
 20  6  1  0
 28 24  1  0
 18 13  1  0
  1 31  1  0
  1 32  1  0
  1 33  1  0
  2 34  1  0
  3 35  1  0
  3 36  1  0
  4 37  1  0
  4 38  1  0
  7 39  1  0
  8 40  1  0
 14 41  1  0
 14 42  1  0
 15 43  1  0
 15 44  1  0
 17 45  1  0
 17 46  1  0
 18 47  1  0
 18 48  1  0
 19 49  1  0
 25 50  1  0
 26 51  1  0
 27 52  1  0
 29 53  1  0
 29 54  1  0
 30 55  1  0
 30 56  1  0
M  CHG  2   2   1  21  -1
M  END
>  <UniqueID>  (43) 
39

>  <SMILES>  (43) 
C[NH+]1CCN(c2ccc(S(=O)(=O)N3CCOCC3)cc2[N-]C(=O)c2ccco2)CC1

>  <Energy>  (43) 
112.04750342572963

>  <Genealogy>  (43) 
C[NH+]1CCN(c2ccc(S(=O)(=O)N3CCOCC3)cc2[N-]C(=O)c2ccco2)CC1 (protonated)
C[NH+]1CCN(c2ccc(S(=O)(=O)N3CCOCC3)cc2[N-]C(=O)c2ccco2)CC1 (3D coordinates assigned)
C[NH+]1CCN(c2ccc(S(=O)(=O)N3CCOCC3)cc2[N-]C(=O)c2ccco2)CC1 (nonaromatic ring conformer: 112.04750342572963 kcal/mol)

>  <smiles>  (43) 
CN1CCN(c2ccc(S(=O)(=O)N3CCOCC3)cc2NC(=O)c2ccco2)CC1

>  <score_type>  (43) 
oracle

>  <origin>  (43) 
adgpu

>  <m_score__min__energy>  (43) 
-9.5199999999999996

>  <m_primary>  (43) 
energy

$$$$
43:0
     RDKit          3D

 61 65  0  0  0  0  0  0  0  0999 V2000
   -3.0000   14.5620  -33.7730 C   0  0  0  0  0  0  0  0  0  0  0  0
   -3.7200   15.6500  -34.3440 O   0  0  0  0  0  0  0  0  0  0  0  0
   -3.6860   16.9700  -33.8620 C   0  0  0  0  0  0  0  0  0  0  0  0
   -4.7900   17.5560  -33.2150 C   0  0  0  0  0  0  0  0  0  0  0  0
   -4.7260   18.8740  -32.7420 C   0  0  0  0  0  0  0  0  0  0  0  0
   -3.5480   19.6270  -32.9280 C   0  0  0  0  0  0  0  0  0  0  0  0
   -2.4480   19.0400  -33.5720 C   0  0  0  0  0  0  0  0  0  0  0  0
   -2.5140   17.7190  -34.0460 C   0  0  0  0  0  0  0  0  0  0  0  0
   -1.4100   17.1050  -34.7260 N   0  0  0  0  0  0  0  0  0  0  0  0
    0.2510   17.1840  -34.2320 S   0  0  0  0  0  0  0  0  0  0  0  0
    1.0280   17.9460  -35.2680 O   0  0  0  0  0  0  0  0  0  0  0  0
    0.7990   15.7930  -34.0930 O   0  0  0  0  0  0  0  0  0  0  0  0
    0.3610   18.0070  -32.6680 C   0  0  0  0  0  0  0  0  0  0  0  0
    0.1440   17.2610  -31.4980 C   0  0  0  0  0  0  0  0  0  0  0  0
    0.1700   17.8760  -30.2430 C   0  0  0  0  0  0  0  0  0  0  0  0
    0.4170   19.2450  -30.1400 C   0  0  0  0  0  0  0  0  0  0  0  0
    0.4380   19.8390  -28.9210 F   0  0  0  0  0  0  0  0  0  0  0  0
    0.6470   20.0000  -31.2920 C   0  0  0  0  0  0  0  0  0  0  0  0
    0.6340   19.3950  -32.5600 C   0  0  0  0  0  0  0  0  0  0  0  0
    0.9050   20.2390  -33.7430 C   0  0  0  0  0  0  0  0  0  0  0  0
    2.2100   20.3610  -34.2470 C   0  0  0  0  0  0  0  0  0  0  0  0
    2.4630   21.1790  -35.3540 C   0  0  0  0  0  0  0  0  0  0  0  0
    1.4190   21.8910  -35.9530 C   0  0  0  0  0  0  0  0  0  0  0  0
    0.1200   21.7860  -35.4460 C   0  0  0  0  0  0  0  0  0  0  0  0
   -0.1370   20.9670  -34.3420 C   0  0  0  0  0  0  0  0  0  0  0  0
   -3.4650   21.0580  -32.4310 C   0  0  0  0  0  0  0  0  0  0  0  0
   -4.4270   22.0400  -33.1490 C   0  0  0  0  0  0  0  0  0  0  0  0
   -5.8140   21.9810  -32.6280 N   0  0  0  0  0  0  0  0  0  0  0  0
   -5.8310   22.2140  -31.1670 C   0  0  0  0  0  0  0  0  0  0  0  0
   -5.2970   23.5750  -30.8330 C   0  0  0  0  0  0  0  0  0  0  0  0
   -3.9760   23.8900  -30.6170 C   0  0  0  0  0  0  0  0  0  0  0  0
   -3.8750   25.2170  -30.4220 N   0  0  0  0  0  0  0  0  0  0  0  0
   -5.1440   25.6650  -30.5340 C   0  0  0  0  0  0  0  0  0  0  0  0
   -6.0440   24.6930  -30.7970 N   0  0  0  0  0  0  0  0  0  0  0  0
   -6.4680   20.6860  -32.9520 C   0  0  0  0  0  0  0  0  0  0  0  0
   -5.9370   19.5140  -32.1070 C   0  0  0  0  0  0  0  0  0  0  0  0
   -3.0441   14.6286  -32.6759 H   0  0  0  0  0  0  0  0  0  0  0  0
   -3.4489   13.6128  -34.1010 H   0  0  0  0  0  0  0  0  0  0  0  0
   -1.9509   14.6042  -34.1010 H   0  0  0  0  0  0  0  0  0  0  0  0
   -5.7131   16.9734  -33.0790 H   0  0  0  0  0  0  0  0  0  0  0  0
   -1.5236   19.6207  -33.7072 H   0  0  0  0  0  0  0  0  0  0  0  0
   -0.0486   16.1804  -31.5701 H   0  0  0  0  0  0  0  0  0  0  0  0
   -0.0046   17.2796  -29.3354 H   0  0  0  0  0  0  0  0  0  0  0  0
    0.8403   21.0794  -31.2058 H   0  0  0  0  0  0  0  0  0  0  0  0
    3.0356   19.8121  -33.7704 H   0  0  0  0  0  0  0  0  0  0  0  0
    3.4845   21.2620  -35.7535 H   0  0  0  0  0  0  0  0  0  0  0  0
    1.6196   22.5336  -36.8229 H   0  0  0  0  0  0  0  0  0  0  0  0
   -0.7004   22.3481  -35.9160 H   0  0  0  0  0  0  0  0  0  0  0  0
   -1.1586   20.8924  -33.9410 H   0  0  0  0  0  0  0  0  0  0  0  0
   -3.7046   21.0642  -31.3574 H   0  0  0  0  0  0  0  0  0  0  0  0
   -2.4434   21.4063  -32.6432 H   0  0  0  0  0  0  0  0  0  0  0  0
   -4.0462   23.0633  -33.0157 H   0  0  0  0  0  0  0  0  0  0  0  0
   -4.4622   21.7484  -34.2091 H   0  0  0  0  0  0  0  0  0  0  0  0
   -6.8656   22.1342  -30.8021 H   0  0  0  0  0  0  0  0  0  0  0  0
   -5.1926   21.4592  -30.6845 H   0  0  0  0  0  0  0  0  0  0  0  0
   -3.1401   23.1750  -30.6056 H   0  0  0  0  0  0  0  0  0  0  0  0
   -5.4193   26.7240  -30.4214 H   0  0  0  0  0  0  0  0  0  0  0  0
   -7.5488   20.7851  -32.7733 H   0  0  0  0  0  0  0  0  0  0  0  0
   -6.2441   20.4595  -34.0049 H   0  0  0  0  0  0  0  0  0  0  0  0
   -5.6611   19.8889  -31.1103 H   0  0  0  0  0  0  0  0  0  0  0  0
   -6.7296   18.7546  -32.0359 H   0  0  0  0  0  0  0  0  0  0  0  0
  1  2  1  0
  2  3  1  0
  3  4  2  0
  4  5  1  0
  5  6  2  0
  6  7  1  0
  7  8  2  0
  8  9  1  0
  9 10  1  0
 10 11  2  0
 10 12  2  0
 10 13  1  0
 13 14  2  0
 14 15  1  0
 15 16  2  0
 16 17  1  0
 16 18  1  0
 18 19  2  0
 19 20  1  0
 20 21  2  0
 21 22  1  0
 22 23  2  0
 23 24  1  0
 24 25  2  0
  6 26  1  0
 26 27  1  0
 27 28  1  0
 28 29  1  0
 29 30  1  0
 30 31  2  0
 31 32  1  0
 32 33  1  0
 33 34  2  0
 28 35  1  0
 35 36  1  0
  8  3  1  0
 19 13  1  0
 25 20  1  0
 34 30  1  0
 36  5  1  0
  1 37  1  0
  1 38  1  0
  1 39  1  0
  4 40  1  0
  7 41  1  0
 14 42  1  0
 15 43  1  0
 18 44  1  0
 21 45  1  0
 22 46  1  0
 23 47  1  0
 24 48  1  0
 25 49  1  0
 26 50  1  0
 26 51  1  0
 27 52  1  0
 27 53  1  0
 29 54  1  0
 29 55  1  0
 31 56  1  0
 33 57  1  0
 35 58  1  0
 35 59  1  0
 36 60  1  0
 36 61  1  0
M  CHG  2   9  -1  32  -1
M  END
>  <UniqueID>  (44) 
40

>  <SMILES>  (44) 
COc1cc2c(cc1[N-]S(=O)(=O)c1ccc(F)cc1-c1ccccc1)CCN(Cc1c[n-]cn1)CC2

>  <Energy>  (44) 
117.17093011284018

>  <Genealogy>  (44) 
COc1cc2c(cc1[N-]S(=O)(=O)c1ccc(F)cc1-c1ccccc1)CCN(Cc1c[n-]cn1)CC2 (protonated)
COc1cc2c(cc1[N-]S(=O)(=O)c1ccc(F)cc1-c1ccccc1)CCN(Cc1c[n-]cn1)CC2 (3D coordinates assigned)
COc1cc2c(cc1[N-]S(=O)(=O)c1ccc(F)cc1-c1ccccc1)CCN(Cc1c[n-]cn1)CC2 (nonaromatic ring conformer: 117.17093011284018 kcal/mol)

>  <smiles>  (44) 
COc1cc2c(cc1NS(=O)(=O)c1ccc(F)cc1-c1ccccc1)CCN(Cc1c[nH]cn1)CC2

>  <score_type>  (44) 
oracle

>  <origin>  (44) 
adgpu

>  <m_score__min__energy>  (44) 
-8.9299999999999997

>  <m_primary>  (44) 
energy

$$$$
44:0
     RDKit          3D

 49 51  0  0  0  0  0  0  0  0999 V2000
   -8.4320   20.8130  -31.6570 C   0  0  0  0  0  0  0  0  0  0  0  0
   -7.5960   22.0170  -31.3420 C   0  0  0  0  0  0  0  0  0  0  0  0
   -7.6040   22.5650  -30.0500 C   0  0  0  0  0  0  0  0  0  0  0  0
   -6.8540   23.7100  -29.7640 C   0  0  0  0  0  0  0  0  0  0  0  0
   -6.0870   24.3240  -30.7680 C   0  0  0  0  0  0  0  0  0  0  0  0
   -5.3120   25.5740  -30.4720 C   0  0  0  0  0  0  0  0  0  0  0  0
   -3.9070   25.3560  -30.8050 N   0  0  0  0  0  0  0  0  0  0  0  0
   -3.1180   24.5070  -29.5120 S   0  0  0  0  0  0  0  0  0  0  0  0
   -1.9160   25.2920  -29.0690 O   0  0  0  0  0  0  0  0  0  0  0  0
   -4.0550   24.3730  -28.3430 O   0  0  0  0  0  0  0  0  0  0  0  0
   -2.5970   22.9150  -30.0560 C   0  0  0  0  0  0  0  0  0  0  0  0
   -1.6810   22.1810  -29.2920 C   0  0  0  0  0  0  0  0  0  0  0  0
   -1.2490   20.9250  -29.7290 C   0  0  0  0  0  0  0  0  0  0  0  0
   -1.7270   20.3990  -30.9310 C   0  0  0  0  0  0  0  0  0  0  0  0
   -2.6440   21.1260  -31.7050 C   0  0  0  0  0  0  0  0  0  0  0  0
   -3.2570   20.4570  -33.2210 S   0  0  0  0  0  0  0  0  0  0  0  0
   -2.1130   20.2810  -34.1800 O   0  0  0  0  0  0  0  0  0  0  0  0
   -4.2300   21.4280  -33.8310 O   0  0  0  0  0  0  0  0  0  0  0  0
   -4.0480   18.9150  -32.9740 N   0  0  0  0  0  0  0  0  0  0  0  0
   -5.4080   19.0860  -32.4050 C   0  0  0  0  0  0  0  0  0  0  0  0
   -6.5050   18.8800  -33.4650 C   0  0  0  0  0  0  0  0  0  0  0  0
   -6.4660   17.5940  -34.0670 O   0  0  0  0  0  0  0  0  0  0  0  0
   -5.1520   17.0620  -34.2040 C   0  0  0  0  0  0  0  0  0  0  0  0
   -4.0450   18.1290  -34.2270 C   0  0  0  0  0  0  0  0  0  0  0  0
   -3.0690   22.3880  -31.2670 C   0  0  0  0  0  0  0  0  0  0  0  0
   -6.1070   23.7950  -32.0680 C   0  0  0  0  0  0  0  0  0  0  0  0
   -6.8560   22.6500  -32.3530 C   0  0  0  0  0  0  0  0  0  0  0  0
   -8.7607   20.3396  -30.7201 H   0  0  0  0  0  0  0  0  0  0  0  0
   -9.3121   21.1203  -32.2410 H   0  0  0  0  0  0  0  0  0  0  0  0
   -7.8366   20.0958  -32.2410 H   0  0  0  0  0  0  0  0  0  0  0  0
   -8.2032   22.0914  -29.2584 H   0  0  0  0  0  0  0  0  0  0  0  0
   -6.8647   24.1319  -28.7482 H   0  0  0  0  0  0  0  0  0  0  0  0
   -5.7086   26.4045  -31.0744 H   0  0  0  0  0  0  0  0  0  0  0  0
   -5.4052   25.8235  -29.4047 H   0  0  0  0  0  0  0  0  0  0  0  0
   -1.3005   22.5936  -28.3459 H   0  0  0  0  0  0  0  0  0  0  0  0
   -0.5314   20.3503  -29.1250 H   0  0  0  0  0  0  0  0  0  0  0  0
   -1.3834   19.4113  -31.2722 H   0  0  0  0  0  0  0  0  0  0  0  0
   -3.4700   18.3980  -32.2700 H   0  0  0  0  0  0  0  0  0  0  0  0
   -5.5507   18.3517  -31.5985 H   0  0  0  0  0  0  0  0  0  0  0  0
   -5.4910   20.1148  -32.0247 H   0  0  0  0  0  0  0  0  0  0  0  0
   -7.4854   19.0113  -32.9838 H   0  0  0  0  0  0  0  0  0  0  0  0
   -6.3336   19.6194  -34.2612 H   0  0  0  0  0  0  0  0  0  0  0  0
   -4.9627   16.3853  -33.3577 H   0  0  0  0  0  0  0  0  0  0  0  0
   -5.1170   16.5459  -35.1748 H   0  0  0  0  0  0  0  0  0  0  0  0
   -3.0692   17.6341  -34.3401 H   0  0  0  0  0  0  0  0  0  0  0  0
   -4.2286   18.8099  -35.0712 H   0  0  0  0  0  0  0  0  0  0  0  0
   -3.7770   22.9685  -31.8768 H   0  0  0  0  0  0  0  0  0  0  0  0
   -5.5301   24.2842  -32.8667 H   0  0  0  0  0  0  0  0  0  0  0  0
   -6.8657   22.2428  -33.3748 H   0  0  0  0  0  0  0  0  0  0  0  0
  1  2  1  0
  2  3  2  0
  3  4  1  0
  4  5  2  0
  5  6  1  0
  6  7  1  0
  7  8  1  0
  8  9  2  0
  8 10  2  0
  8 11  1  0
 11 12  2  0
 12 13  1  0
 13 14  2  0
 14 15  1  0
 15 16  1  0
 16 17  2  0
 16 18  2  0
 16 19  1  0
 19 20  1  0
 20 21  1  0
 21 22  1  0
 22 23  1  0
 23 24  1  0
 15 25  2  0
  5 26  1  0
 26 27  2  0
 27  2  1  0
 25 11  1  0
 24 19  1  0
  1 28  1  0
  1 29  1  0
  1 30  1  0
  3 31  1  0
  4 32  1  0
  6 33  1  0
  6 34  1  0
 12 35  1  0
 13 36  1  0
 14 37  1  0
 19 38  1  0
 20 39  1  0
 20 40  1  0
 21 41  1  0
 21 42  1  0
 23 43  1  0
 23 44  1  0
 24 45  1  0
 24 46  1  0
 25 47  1  0
 26 48  1  0
 27 49  1  0
M  CHG  2   7  -1  19   1
M  END
>  <UniqueID>  (45) 
41

>  <SMILES>  (45) 
Cc1ccc(C[N-]S(=O)(=O)c2cccc(S(=O)(=O)[NH+]3CCOCC3)c2)cc1

>  <Energy>  (45) 
58.293848514283944

>  <Genealogy>  (45) 
Cc1ccc(C[N-]S(=O)(=O)c2cccc(S(=O)(=O)[NH+]3CCOCC3)c2)cc1 (protonated)
Cc1ccc(C[N-]S(=O)(=O)c2cccc(S(=O)(=O)[NH+]3CCOCC3)c2)cc1 (3D coordinates assigned)
Cc1ccc(C[N-]S(=O)(=O)c2cccc(S(=O)(=O)[NH+]3CCOCC3)c2)cc1 (nonaromatic ring conformer: 58.293848514283944 kcal/mol)

>  <smiles>  (45) 
Cc1ccc(CNS(=O)(=O)c2cccc(S(=O)(=O)N3CCOCC3)c2)cc1

>  <score_type>  (45) 
oracle

>  <origin>  (45) 
adgpu

>  <m_score__min__energy>  (45) 
-10.33

>  <m_primary>  (45) 
energy

$$$$
45:0
     RDKit          3D

 52 56  0  0  0  0  0  0  0  0999 V2000
   -1.6080   25.6800  -29.3500 O   0  0  0  0  0  0  0  0  0  0  0  0
   -2.4800   24.6330  -29.0740 C   0  0  0  0  0  0  0  0  0  0  0  0
   -3.0890   24.5460  -27.8190 C   0  0  0  0  0  0  0  0  0  0  0  0
   -3.9650   23.4940  -27.5420 C   0  0  0  0  0  0  0  0  0  0  0  0
   -4.2350   22.5280  -28.5150 C   0  0  0  0  0  0  0  0  0  0  0  0
   -3.6280   22.6040  -29.7840 C   0  0  0  0  0  0  0  0  0  0  0  0
   -3.9100   21.5770  -30.8180 C   0  0  0  0  0  0  0  0  0  0  0  0
   -5.1880   21.1680  -31.0490 N   0  0  0  0  0  0  0  0  0  0  0  0
   -5.4830   20.2320  -31.9900 C   0  0  0  0  0  0  0  0  0  0  0  0
   -6.8510   19.8550  -32.1830 N   0  0  0  0  0  0  0  0  0  0  0  0
   -7.2360   18.4450  -32.1090 C   0  0  0  0  0  0  0  0  0  0  0  0
   -8.6840   18.3340  -31.6190 C   0  0  0  0  0  0  0  0  0  0  0  0
   -9.5400   19.1630  -32.3850 O   0  0  0  0  0  0  0  0  0  0  0  0
   -9.2030   20.5230  -32.1800 C   0  0  0  0  0  0  0  0  0  0  0  0
   -7.8030   20.8250  -32.7240 C   0  0  0  0  0  0  0  0  0  0  0  0
   -4.4430   19.6690  -32.7530 C   0  0  0  0  0  0  0  0  0  0  0  0
   -4.6530   18.7050  -33.7480 C   0  0  0  0  0  0  0  0  0  0  0  0
   -3.5690   18.1930  -34.4630 C   0  0  0  0  0  0  0  0  0  0  0  0
   -2.2660   18.6490  -34.1840 C   0  0  0  0  0  0  0  0  0  0  0  0
   -1.1170   18.1450  -34.9080 N   0  0  0  0  0  0  0  0  0  0  0  0
   -0.1020   19.0700  -35.4330 C   0  0  0  0  0  0  0  0  0  0  0  0
    1.1250   18.3120  -35.9460 C   0  0  0  0  0  0  0  0  0  0  0  0
    0.7190   17.2410  -36.8640 N   0  0  0  0  0  0  0  0  0  0  0  0
   -0.2140   16.2640  -36.2630 C   0  0  0  0  0  0  0  0  0  0  0  0
   -0.8320   16.7020  -34.9190 C   0  0  0  0  0  0  0  0  0  0  0  0
   -2.0930   19.5880  -33.2100 N   0  0  0  0  0  0  0  0  0  0  0  0
   -3.1300   20.1020  -32.5000 C   0  0  0  0  0  0  0  0  0  0  0  0
   -2.8950   21.0380  -31.5470 N   0  0  0  0  0  0  0  0  0  0  0  0
   -2.7460   23.6690  -30.0520 C   0  0  0  0  0  0  0  0  0  0  0  0
   -2.8788   25.3047  -27.0508 H   0  0  0  0  0  0  0  0  0  0  0  0
   -4.4442   23.4256  -26.5542 H   0  0  0  0  0  0  0  0  0  0  0  0
   -4.9261   21.7027  -28.2885 H   0  0  0  0  0  0  0  0  0  0  0  0
   -7.1508   17.9891  -33.1065 H   0  0  0  0  0  0  0  0  0  0  0  0
   -6.5710   17.9204  -31.4072 H   0  0  0  0  0  0  0  0  0  0  0  0
   -9.0166   17.2895  -31.7110 H   0  0  0  0  0  0  0  0  0  0  0  0
   -8.7264   18.6587  -30.5689 H   0  0  0  0  0  0  0  0  0  0  0  0
   -9.9361   21.1583  -32.6986 H   0  0  0  0  0  0  0  0  0  0  0  0
   -9.2134   20.7296  -31.0996 H   0  0  0  0  0  0  0  0  0  0  0  0
   -7.8132   20.7559  -33.8218 H   0  0  0  0  0  0  0  0  0  0  0  0
   -7.5036   21.8400  -32.4237 H   0  0  0  0  0  0  0  0  0  0  0  0
   -5.6718   18.3518  -33.9656 H   0  0  0  0  0  0  0  0  0  0  0  0
   -3.7322   17.4347  -35.2430 H   0  0  0  0  0  0  0  0  0  0  0  0
   -0.5379   19.6490  -36.2605 H   0  0  0  0  0  0  0  0  0  0  0  0
    0.2161   19.7371  -34.6183 H   0  0  0  0  0  0  0  0  0  0  0  0
    1.7876   19.0118  -36.4762 H   0  0  0  0  0  0  0  0  0  0  0  0
    1.6525   17.8665  -35.0897 H   0  0  0  0  0  0  0  0  0  0  0  0
    0.2580   17.6820  -37.6950 H   0  0  0  0  0  0  0  0  0  0  0  0
   -1.0334   16.0901  -36.9759 H   0  0  0  0  0  0  0  0  0  0  0  0
    0.3770   15.3605  -36.0523 H   0  0  0  0  0  0  0  0  0  0  0  0
   -1.7699   16.1501  -34.7589 H   0  0  0  0  0  0  0  0  0  0  0  0
   -0.1110   16.4839  -34.1173 H   0  0  0  0  0  0  0  0  0  0  0  0
   -2.2629   23.7431  -31.0375 H   0  0  0  0  0  0  0  0  0  0  0  0
  1  2  1  0
  2  3  2  0
  3  4  1  0
  4  5  2  0
  5  6  1  0
  6  7  1  0
  7  8  2  0
  8  9  1  0
  9 10  1  0
 10 11  1  0
 11 12  1  0
 12 13  1  0
 13 14  1  0
 14 15  1  0
  9 16  2  0
 16 17  1  0
 17 18  2  0
 18 19  1  0
 19 20  1  0
 20 21  1  0
 21 22  1  0
 22 23  1  0
 23 24  1  0
 24 25  1  0
 19 26  2  0
 26 27  1  0
 27 28  2  0
  6 29  2  0
 29  2  1  0
 28  7  1  0
 15 10  1  0
 27 16  1  0
 25 20  1  0
  3 30  1  0
  4 31  1  0
  5 32  1  0
 11 33  1  0
 11 34  1  0
 12 35  1  0
 12 36  1  0
 14 37  1  0
 14 38  1  0
 15 39  1  0
 15 40  1  0
 17 41  1  0
 18 42  1  0
 21 43  1  0
 21 44  1  0
 22 45  1  0
 22 46  1  0
 23 47  1  0
 24 48  1  0
 24 49  1  0
 25 50  1  0
 25 51  1  0
 29 52  1  0
M  CHG  1   1  -1
M  END
>  <UniqueID>  (46) 
42

>  <SMILES>  (46) 
[O-]c1cccc(-c2nc(N3CCOCC3)c3ccc(N4CCNCC4)nc3n2)c1

>  <Energy>  (46) 
76.06965950979594

>  <Genealogy>  (46) 
[O-]c1cccc(-c2nc(N3CCOCC3)c3ccc(N4CCNCC4)nc3n2)c1 (protonated)
[O-]c1cccc(-c2nc(N3CCOCC3)c3ccc(N4CCNCC4)nc3n2)c1 (3D coordinates assigned)
[O-]c1cccc(-c2nc(N3CCOCC3)c3ccc(N4CCNCC4)nc3n2)c1 (nonaromatic ring conformer: 76.06965950979594 kcal/mol)

>  <smiles>  (46) 
Oc1cccc(-c2nc(N3CCOCC3)c3ccc(N4CCNCC4)nc3n2)c1

>  <score_type>  (46) 
oracle

>  <origin>  (46) 
adgpu

>  <m_score__min__energy>  (46) 
-10.609999999999999

>  <m_primary>  (46) 
energy

$$$$
46:0
     RDKit          3D

 27 28  0  0  0  0  0  0  0  0999 V2000
   -6.8270   25.6830  -29.6520 O   0  0  0  0  0  0  0  0  0  0  0  0
   -5.6450   24.8920  -30.1400 S   0  0  0  0  0  0  0  0  0  0  0  0
   -4.9330   25.6820  -31.2010 O   0  0  0  0  0  0  0  0  0  0  0  0
   -4.5620   24.6130  -28.8120 N   0  0  0  0  0  0  0  0  0  0  0  0
   -3.4110   23.7480  -28.8820 C   0  0  0  0  0  0  0  0  0  0  0  0
   -3.5230   22.3560  -28.6860 C   0  0  0  0  0  0  0  0  0  0  0  0
   -2.3940   21.5370  -28.7620 C   0  0  0  0  0  0  0  0  0  0  0  0
   -1.1410   22.0910  -29.0270 C   0  0  0  0  0  0  0  0  0  0  0  0
   -1.0140   23.4680  -29.2140 C   0  0  0  0  0  0  0  0  0  0  0  0
   -2.1390   24.2970  -29.1430 C   0  0  0  0  0  0  0  0  0  0  0  0
   -1.9850   25.6640  -29.3380 O   0  0  0  0  0  0  0  0  0  0  0  0
   -6.1620   23.3570  -30.8300 C   0  0  0  0  0  0  0  0  0  0  0  0
   -5.3560   22.7100  -31.7790 C   0  0  0  0  0  0  0  0  0  0  0  0
   -5.7570   21.4850  -32.3220 C   0  0  0  0  0  0  0  0  0  0  0  0
   -6.9650   20.9050  -31.9240 C   0  0  0  0  0  0  0  0  0  0  0  0
   -7.7750   21.5490  -30.9850 C   0  0  0  0  0  0  0  0  0  0  0  0
   -7.3760   22.7740  -30.4390 C   0  0  0  0  0  0  0  0  0  0  0  0
   -4.7320   25.1730  -27.9480 H   0  0  0  0  0  0  0  0  0  0  0  0
   -4.5064   21.9120  -28.4718 H   0  0  0  0  0  0  0  0  0  0  0  0
   -2.4930   20.4517  -28.6124 H   0  0  0  0  0  0  0  0  0  0  0  0
   -0.2543   21.4429  -29.0884 H   0  0  0  0  0  0  0  0  0  0  0  0
   -0.0249   23.9038  -29.4182 H   0  0  0  0  0  0  0  0  0  0  0  0
   -4.4071   23.1670  -32.0965 H   0  0  0  0  0  0  0  0  0  0  0  0
   -5.1214   20.9777  -33.0627 H   0  0  0  0  0  0  0  0  0  0  0  0
   -7.2783   19.9406  -32.3504 H   0  0  0  0  0  0  0  0  0  0  0  0
   -8.7267   21.0928  -30.6749 H   0  0  0  0  0  0  0  0  0  0  0  0
   -8.0159   23.2807  -29.7016 H   0  0  0  0  0  0  0  0  0  0  0  0
  1  2  2  0
  2  3  2  0
  2  4  1  0
  4  5  1  0
  5  6  2  0
  6  7  1  0
  7  8  2  0
  8  9  1  0
  9 10  2  0
 10 11  1  0
  2 12  1  0
 12 13  2  0
 13 14  1  0
 14 15  2  0
 15 16  1  0
 16 17  2  0
 10  5  1  0
 17 12  1  0
  4 18  1  0
  6 19  1  0
  7 20  1  0
  8 21  1  0
  9 22  1  0
 13 23  1  0
 14 24  1  0
 15 25  1  0
 16 26  1  0
 17 27  1  0
M  CHG  1  11  -1
M  END
>  <UniqueID>  (47) 
43

>  <SMILES>  (47) 
O=S(=O)(Nc1ccccc1[O-])c1ccccc1

>  <Energy>  (47) 
31.258222016304522

>  <Genealogy>  (47) 
O=S(=O)(Nc1ccccc1[O-])c1ccccc1 (protonated)
O=S(=O)(Nc1ccccc1[O-])c1ccccc1 (3D coordinates assigned)
O=S(=O)(Nc1ccccc1[O-])c1ccccc1 (optimized conformer: 31.258222016304522 kcal/mol)

>  <smiles>  (47) 
O=S(=O)(Nc1ccccc1O)c1ccccc1

>  <score_type>  (47) 
oracle

>  <origin>  (47) 
adgpu

>  <m_score__min__energy>  (47) 
-10.58

>  <m_primary>  (47) 
energy

$$$$
47:0
     RDKit          3D

 37 39  0  0  0  0  0  0  0  0999 V2000
   -6.4300   25.1830  -29.8220 O   0  0  0  0  0  0  0  0  0  0  0  0
   -5.1040   24.5220  -30.0720 S   0  0  0  0  0  0  0  0  0  0  0  0
   -4.2410   25.4430  -30.8870 O   0  0  0  0  0  0  0  0  0  0  0  0
   -4.3260   24.2160  -28.5520 N   0  0  0  0  0  0  0  0  0  0  0  0
   -3.0500   23.5820  -28.3870 C   0  0  0  0  0  0  0  0  0  0  0  0
   -2.9320   22.2470  -27.9570 C   0  0  0  0  0  0  0  0  0  0  0  0
   -1.6710   21.6650  -27.8010 C   0  0  0  0  0  0  0  0  0  0  0  0
   -0.5190   22.4050  -28.0720 C   0  0  0  0  0  0  0  0  0  0  0  0
   -0.6250   23.7300  -28.5030 C   0  0  0  0  0  0  0  0  0  0  0  0
   -1.8880   24.3210  -28.6620 C   0  0  0  0  0  0  0  0  0  0  0  0
   -1.9930   25.6430  -29.0910 O   0  0  0  0  0  0  0  0  0  0  0  0
   -5.3750   23.0060  -30.9260 C   0  0  0  0  0  0  0  0  0  0  0  0
   -4.3120   22.3480  -31.5560 C   0  0  0  0  0  0  0  0  0  0  0  0
   -4.5290   21.1390  -32.2230 C   0  0  0  0  0  0  0  0  0  0  0  0
   -5.8150   20.5690  -32.2700 C   0  0  0  0  0  0  0  0  0  0  0  0
   -6.0450   19.2810  -32.9740 C   0  0  0  0  0  0  0  0  0  0  0  0
   -6.8710   18.2930  -32.4060 C   0  0  0  0  0  0  0  0  0  0  0  0
   -7.0860   17.0810  -33.0700 C   0  0  0  0  0  0  0  0  0  0  0  0
   -6.4820   16.8440  -34.3070 C   0  0  0  0  0  0  0  0  0  0  0  0
   -5.6620   17.8170  -34.8820 C   0  0  0  0  0  0  0  0  0  0  0  0
   -5.4420   19.0290  -34.2210 C   0  0  0  0  0  0  0  0  0  0  0  0
   -6.8790   21.2400  -31.6390 C   0  0  0  0  0  0  0  0  0  0  0  0
   -6.6590   22.4510  -30.9750 C   0  0  0  0  0  0  0  0  0  0  0  0
   -3.8366   21.6589  -27.7427 H   0  0  0  0  0  0  0  0  0  0  0  0
   -1.5862   20.6214  -27.4639 H   0  0  0  0  0  0  0  0  0  0  0  0
    0.4723   21.9452  -27.9463 H   0  0  0  0  0  0  0  0  0  0  0  0
    0.2837   24.3113  -28.7182 H   0  0  0  0  0  0  0  0  0  0  0  0
   -2.8850   26.0500  -29.3430 H   0  0  0  0  0  0  0  0  0  0  0  0
   -3.3025   22.7839  -31.5260 H   0  0  0  0  0  0  0  0  0  0  0  0
   -3.6879   20.6289  -32.7152 H   0  0  0  0  0  0  0  0  0  0  0  0
   -7.3508   18.4754  -31.4331 H   0  0  0  0  0  0  0  0  0  0  0  0
   -7.7314   16.3136  -32.6177 H   0  0  0  0  0  0  0  0  0  0  0  0
   -6.6524   15.8905  -34.8284 H   0  0  0  0  0  0  0  0  0  0  0  0
   -5.1883   17.6295  -35.8569 H   0  0  0  0  0  0  0  0  0  0  0  0
   -4.7935   19.7908  -34.6782 H   0  0  0  0  0  0  0  0  0  0  0  0
   -7.8906   20.8090  -31.6683 H   0  0  0  0  0  0  0  0  0  0  0  0
   -7.4987   22.9696  -30.4891 H   0  0  0  0  0  0  0  0  0  0  0  0
  1  2  2  0
  2  3  2  0
  2  4  1  0
  4  5  1  0
  5  6  2  0
  6  7  1  0
  7  8  2  0
  8  9  1  0
  9 10  2  0
 10 11  1  0
  2 12  1  0
 12 13  2  0
 13 14  1  0
 14 15  2  0
 15 16  1  0
 16 17  2  0
 17 18  1  0
 18 19  2  0
 19 20  1  0
 20 21  2  0
 15 22  1  0
 22 23  2  0
 10  5  1  0
 23 12  1  0
 21 16  1  0
  6 24  1  0
  7 25  1  0
  8 26  1  0
  9 27  1  0
 11 28  1  0
 13 29  1  0
 14 30  1  0
 17 31  1  0
 18 32  1  0
 19 33  1  0
 20 34  1  0
 21 35  1  0
 22 36  1  0
 23 37  1  0
M  CHG  1   4  -1
M  END
>  <UniqueID>  (48) 
44

>  <SMILES>  (48) 
O=S(=O)([N-]c1ccccc1O)c1ccc(-c2ccccc2)cc1

>  <Energy>  (48) 
48.07249704910739

>  <Genealogy>  (48) 
O=S(=O)([N-]c1ccccc1O)c1ccc(-c2ccccc2)cc1 (protonated)
O=S(=O)([N-]c1ccccc1O)c1ccc(-c2ccccc2)cc1 (3D coordinates assigned)
O=S(=O)([N-]c1ccccc1O)c1ccc(-c2ccccc2)cc1 (optimized conformer: 48.07249704910739 kcal/mol)

>  <smiles>  (48) 
O=S(=O)(Nc1ccccc1O)c1ccc(-c2ccccc2)cc1

>  <score_type>  (48) 
oracle

>  <origin>  (48) 
adgpu

>  <m_score__min__energy>  (48) 
-10.5

>  <m_primary>  (48) 
energy

$$$$
48:0
     RDKit          3D

 49 52  0  0  0  0  0  0  0  0999 V2000
   -0.4320   26.7930  -23.4160 C   0  0  0  0  0  0  0  0  0  0  0  0
   -1.1380   27.2660  -24.5590 O   0  0  0  0  0  0  0  0  0  0  0  0
   -1.4810   26.4700  -25.6630 C   0  0  0  0  0  0  0  0  0  0  0  0
   -2.6360   25.6670  -25.6840 C   0  0  0  0  0  0  0  0  0  0  0  0
   -2.9350   24.8920  -26.8090 C   0  0  0  0  0  0  0  0  0  0  0  0
   -2.0870   24.9060  -27.9290 C   0  0  0  0  0  0  0  0  0  0  0  0
   -2.3970   24.1090  -29.0870 N   0  0  0  0  0  0  0  0  0  0  0  0
   -3.2090   24.4440  -30.1140 C   0  0  0  0  0  0  0  0  0  0  0  0
   -3.8610   25.6660  -30.2280 O   0  0  0  0  0  0  0  0  0  0  0  0
   -3.2870   23.4280  -31.0470 C   0  0  0  0  0  0  0  0  0  0  0  0
   -2.4650   22.4250  -30.5660 C   0  0  0  0  0  0  0  0  0  0  0  0
   -2.2110   21.1660  -31.2070 N   0  0  0  0  0  0  0  0  0  0  0  0
   -3.2970   20.4500  -31.8870 C   0  0  0  0  0  0  0  0  0  0  0  0
   -2.7900   19.8540  -33.2040 C   0  0  0  0  0  0  0  0  0  0  0  0
   -1.4690   19.2300  -33.0400 N   0  0  0  0  0  0  0  0  0  0  0  0
   -0.8020   18.6710  -34.1850 C   0  0  0  0  0  0  0  0  0  0  0  0
   -0.9640   17.3130  -34.5040 C   0  0  0  0  0  0  0  0  0  0  0  0
   -0.3200   16.7690  -35.6180 C   0  0  0  0  0  0  0  0  0  0  0  0
    0.4880   17.5750  -36.4240 C   0  0  0  0  0  0  0  0  0  0  0  0
    1.1110   17.0450  -37.5050 F   0  0  0  0  0  0  0  0  0  0  0  0
    0.6500   18.9290  -36.1180 C   0  0  0  0  0  0  0  0  0  0  0  0
    0.0070   19.4790  -35.0030 C   0  0  0  0  0  0  0  0  0  0  0  0
    0.1530   20.8020  -34.7380 F   0  0  0  0  0  0  0  0  0  0  0  0
   -0.8470   19.1520  -31.7120 C   0  0  0  0  0  0  0  0  0  0  0  0
   -0.9010   20.5230  -31.0280 C   0  0  0  0  0  0  0  0  0  0  0  0
   -1.9470   22.8650  -29.3570 C   0  0  0  0  0  0  0  0  0  0  0  0
   -1.1390   22.1280  -28.4930 O   0  0  0  0  0  0  0  0  0  0  0  0
   -0.9360   25.7100  -27.9040 C   0  0  0  0  0  0  0  0  0  0  0  0
   -0.6380   26.4840  -26.7800 C   0  0  0  0  0  0  0  0  0  0  0  0
   -0.9417   27.1345  -22.5030 H   0  0  0  0  0  0  0  0  0  0  0  0
   -0.4044   25.6934  -23.4311 H   0  0  0  0  0  0  0  0  0  0  0  0
    0.5954   27.1858  -23.4311 H   0  0  0  0  0  0  0  0  0  0  0  0
   -3.3065   25.6487  -24.8121 H   0  0  0  0  0  0  0  0  0  0  0  0
   -3.8403   24.2672  -26.8170 H   0  0  0  0  0  0  0  0  0  0  0  0
   -3.8774   23.4187  -31.9751 H   0  0  0  0  0  0  0  0  0  0  0  0
   -3.6617   19.6404  -31.2377 H   0  0  0  0  0  0  0  0  0  0  0  0
   -4.1142   21.1544  -32.1013 H   0  0  0  0  0  0  0  0  0  0  0  0
   -3.5044   19.0926  -33.5502 H   0  0  0  0  0  0  0  0  0  0  0  0
   -2.6984   20.6678  -33.9384 H   0  0  0  0  0  0  0  0  0  0  0  0
   -1.6008   16.6748  -33.8739 H   0  0  0  0  0  0  0  0  0  0  0  0
   -0.4493   15.7040  -35.8611 H   0  0  0  0  0  0  0  0  0  0  0  0
    1.2840   19.5637  -36.7546 H   0  0  0  0  0  0  0  0  0  0  0  0
   -1.3885   18.4169  -31.0984 H   0  0  0  0  0  0  0  0  0  0  0  0
    0.2032   18.8438  -31.8220 H   0  0  0  0  0  0  0  0  0  0  0  0
   -0.7112   20.3930  -29.9523 H   0  0  0  0  0  0  0  0  0  0  0  0
   -0.1362   21.1668  -31.4869 H   0  0  0  0  0  0  0  0  0  0  0  0
   -1.5180   21.4020  -27.8980 H   0  0  0  0  0  0  0  0  0  0  0  0
   -0.2647   25.7304  -28.7752 H   0  0  0  0  0  0  0  0  0  0  0  0
    0.2667   27.1097  -26.7728 H   0  0  0  0  0  0  0  0  0  0  0  0
  1  2  1  0
  2  3  1  0
  3  4  2  0
  4  5  1  0
  5  6  2  0
  6  7  1  0
  7  8  1  0
  8  9  1  0
  8 10  2  0
 10 11  1  0
 11 12  1  0
 12 13  1  0
 13 14  1  0
 14 15  1  0
 15 16  1  0
 16 17  2  0
 17 18  1  0
 18 19  2  0
 19 20  1  0
 19 21  1  0
 21 22  2  0
 22 23  1  0
 15 24  1  0
 24 25  1  0
 11 26  2  0
 26 27  1  0
  6 28  1  0
 28 29  2  0
 29  3  1  0
 26  7  1  0
 25 12  1  0
 22 16  1  0
  1 30  1  0
  1 31  1  0
  1 32  1  0
  4 33  1  0
  5 34  1  0
 10 35  1  0
 13 36  1  0
 13 37  1  0
 14 38  1  0
 14 39  1  0
 17 40  1  0
 18 41  1  0
 21 42  1  0
 24 43  1  0
 24 44  1  0
 25 45  1  0
 25 46  1  0
 27 47  1  0
 28 48  1  0
 29 49  1  0
M  CHG  1   9  -1
M  END
>  <UniqueID>  (49) 
45

>  <SMILES>  (49) 
COc1ccc(-n2c([O-])cc(N3CCN(c4ccc(F)cc4F)CC3)c2O)cc1

>  <Energy>  (49) 
95.27341939437267

>  <Genealogy>  (49) 
COc1ccc(-n2c([O-])cc(N3CCN(c4ccc(F)cc4F)CC3)c2O)cc1 (protonated)
COc1ccc(-n2c([O-])cc(N3CCN(c4ccc(F)cc4F)CC3)c2O)cc1 (3D coordinates assigned)
COc1ccc(-n2c([O-])cc(N3CCN(c4ccc(F)cc4F)CC3)c2O)cc1 (nonaromatic ring conformer: 95.27341939437267 kcal/mol)

>  <smiles>  (49) 
COc1ccc(-n2c(O)cc(N3CCN(c4ccc(F)cc4F)CC3)c2O)cc1

>  <score_type>  (49) 
oracle

>  <origin>  (49) 
adgpu

>  <m_score__min__energy>  (49) 
-8.6999999999999993

>  <m_primary>  (49) 
energy

$$$$
