0:0
     RDKit          3D

 62 65  0  0  0  0  0  0  0  0999 V2000
   -4.6770   23.7340  -29.0970 C   0  0  0  0  0  0  0  0  0  0  0  0
   -4.2690   24.1820  -30.4590 C   0  0  0  0  0  0  0  0  0  0  0  0
   -3.8680   25.3640  -30.6360 O   0  0  0  0  0  0  0  0  0  0  0  0
   -4.4240   23.2870  -31.5670 N   0  0  0  0  0  0  0  0  0  0  0  0
   -3.4680   22.3120  -32.0030 C   0  0  0  0  0  0  0  0  0  0  0  0
   -2.5890   21.6790  -31.1050 C   0  0  0  0  0  0  0  0  0  0  0  0
   -1.7010   20.7010  -31.5610 C   0  0  0  0  0  0  0  0  0  0  0  0
   -1.6800   20.3430  -32.9150 C   0  0  0  0  0  0  0  0  0  0  0  0
   -0.6060   19.0670  -33.4730 S   0  0  0  0  0  0  0  0  0  0  0  0
   -0.3600   19.2160  -34.9490 O   0  0  0  0  0  0  0  0  0  0  0  0
    0.7150   19.1430  -32.7580 O   0  0  0  0  0  0  0  0  0  0  0  0
   -1.3530   17.5400  -33.1680 N   0  0  0  0  0  0  0  0  0  0  0  0
   -2.6970   17.2990  -33.5800 C   0  0  0  0  0  0  0  0  0  0  0  0
   -3.7210   18.1200  -33.0890 C   0  0  0  0  0  0  0  0  0  0  0  0
   -5.0500   17.9380  -33.5050 C   0  0  0  0  0  0  0  0  0  0  0  0
   -6.1310   18.8110  -32.9770 C   0  0  0  0  0  0  0  0  0  0  0  0
   -7.2870   18.2490  -32.4090 C   0  0  0  0  0  0  0  0  0  0  0  0
   -8.3010   19.0680  -31.9080 C   0  0  0  0  0  0  0  0  0  0  0  0
   -8.1800   20.4610  -31.9650 C   0  0  0  0  0  0  0  0  0  0  0  0
   -9.2470   21.2720  -31.4350 C   0  0  0  0  0  0  0  0  0  0  0  0
  -10.1050   21.9230  -31.0090 N   0  0  0  0  0  0  0  0  0  0  0  0
   -7.0260   21.0410  -32.5350 C   0  0  0  0  0  0  0  0  0  0  0  0
   -6.8690   22.4640  -32.6150 N   0  0  0  0  0  0  0  0  0  0  0  0
   -6.0130   20.2100  -33.0370 C   0  0  0  0  0  0  0  0  0  0  0  0
   -5.3410   16.9190  -34.4250 C   0  0  0  0  0  0  0  0  0  0  0  0
   -4.3230   16.1000  -34.9210 C   0  0  0  0  0  0  0  0  0  0  0  0
   -2.9940   16.2800  -34.5080 C   0  0  0  0  0  0  0  0  0  0  0  0
   -1.9560   15.4350  -35.0430 N   0  0  0  0  0  0  0  0  0  0  0  0
   -1.0510   15.9370  -36.0840 C   0  0  0  0  0  0  0  0  0  0  0  0
    0.3120   15.2270  -36.0080 C   0  0  0  0  0  0  0  0  0  0  0  0
    0.7250   14.9710  -34.6100 N   0  0  0  0  0  0  0  0  0  0  0  0
    1.0330   16.2210  -33.8940 C   0  0  0  0  0  0  0  0  0  0  0  0
   -0.2380   14.1240  -33.8560 C   0  0  0  0  0  0  0  0  0  0  0  0
   -1.6630   14.1330  -34.4390 C   0  0  0  0  0  0  0  0  0  0  0  0
   -2.5730   20.9540  -33.8060 C   0  0  0  0  0  0  0  0  0  0  0  0
   -3.4630   21.9290  -33.3500 C   0  0  0  0  0  0  0  0  0  0  0  0
   -4.1393   24.3244  -28.3404 H   0  0  0  0  0  0  0  0  0  0  0  0
   -5.7604   23.8783  -28.9728 H   0  0  0  0  0  0  0  0  0  0  0  0
   -4.4323   22.6688  -28.9728 H   0  0  0  0  0  0  0  0  0  0  0  0
   -2.6008   21.9549  -30.0402 H   0  0  0  0  0  0  0  0  0  0  0  0
   -1.0159   20.2105  -30.8539 H   0  0  0  0  0  0  0  0  0  0  0  0
   -3.4810   18.9165  -32.3692 H   0  0  0  0  0  0  0  0  0  0  0  0
   -7.3939   17.1554  -32.3587 H   0  0  0  0  0  0  0  0  0  0  0  0
   -9.2007   18.6153  -31.4657 H   0  0  0  0  0  0  0  0  0  0  0  0
   -7.0680   22.9940  -33.4910 H   0  0  0  0  0  0  0  0  0  0  0  0
   -6.5520   23.0100  -31.7830 H   0  0  0  0  0  0  0  0  0  0  0  0
   -5.1141   20.6598  -33.4837 H   0  0  0  0  0  0  0  0  0  0  0  0
   -6.3778   16.7638  -34.7581 H   0  0  0  0  0  0  0  0  0  0  0  0
   -4.5660   15.3061  -35.6426 H   0  0  0  0  0  0  0  0  0  0  0  0
   -1.4993   15.7533  -37.0716 H   0  0  0  0  0  0  0  0  0  0  0  0
   -0.8974   17.0152  -35.9293 H   0  0  0  0  0  0  0  0  0  0  0  0
    0.2425   14.2665  -36.5396 H   0  0  0  0  0  0  0  0  0  0  0  0
    1.0640   15.8833  -36.4703 H   0  0  0  0  0  0  0  0  0  0  0  0
    0.9891   16.0427  -32.8094 H   0  0  0  0  0  0  0  0  0  0  0  0
    2.0420   16.5620  -34.1690 H   0  0  0  0  0  0  0  0  0  0  0  0
    0.2979   16.9917  -34.1690 H   0  0  0  0  0  0  0  0  0  0  0  0
    0.1326   13.0883  -33.8620 H   0  0  0  0  0  0  0  0  0  0  0  0
   -0.3048   14.5416  -32.8405 H   0  0  0  0  0  0  0  0  0  0  0  0
   -1.7461   13.3497  -35.2068 H   0  0  0  0  0  0  0  0  0  0  0  0
   -2.3827   13.9438  -33.6289 H   0  0  0  0  0  0  0  0  0  0  0  0
   -2.5729   20.6648  -34.8673 H   0  0  0  0  0  0  0  0  0  0  0  0
   -4.1651   22.3995  -34.0540 H   0  0  0  0  0  0  0  0  0  0  0  0
  1  2  1  0
  2  3  2  0
  2  4  1  0
  4  5  1  0
  5  6  2  0
  6  7  1  0
  7  8  2  0
  8  9  1  0
  9 10  2  0
  9 11  2  0
  9 12  1  0
 12 13  1  0
 13 14  2  0
 14 15  1  0
 15 16  1  0
 16 17  2  0
 17 18  1  0
 18 19  2  0
 19 20  1  0
 20 21  3  0
 19 22  1  0
 22 23  1  0
 22 24  2  0
 15 25  2  0
 25 26  1  0
 26 27  2  0
 27 28  1  0
 28 29  1  0
 29 30  1  0
 30 31  1  0
 31 32  1  0
 31 33  1  0
 33 34  1  0
  8 35  1  0
 35 36  2  0
 36  5  1  0
 27 13  1  0
 34 28  1  0
 24 16  1  0
  1 37  1  0
  1 38  1  0
  1 39  1  0
  6 40  1  0
  7 41  1  0
 14 42  1  0
 17 43  1  0
 18 44  1  0
 23 45  1  0
 23 46  1  0
 24 47  1  0
 25 48  1  0
 26 49  1  0
 29 50  1  0
 29 51  1  0
 30 52  1  0
 30 53  1  0
 32 54  1  0
 32 55  1  0
 32 56  1  0
 33 57  1  0
 33 58  1  0
 34 59  1  0
 34 60  1  0
 35 61  1  0
 36 62  1  0
M  CHG  2   4  -1  12  -1
M  END
>  <UniqueID>  (1) 
1

>  <SMILES>  (1) 
CC(=O)[N-]c1ccc(S(=O)(=O)[N-]c2cc(-c3ccc(C#N)c(N)c3)ccc2N2CCN(C)CC2)cc1

>  <Energy>  (1) 
90.00854878256821

>  <Genealogy>  (1) 
CC(=O)[N-]c1ccc(S(=O)(=O)[N-]c2cc(-c3ccc(C#N)c(N)c3)ccc2N2CCN(C)CC2)cc1 (protonated)
CC(=O)[N-]c1ccc(S(=O)(=O)[N-]c2cc(-c3ccc(C#N)c(N)c3)ccc2N2CCN(C)CC2)cc1 (3D coordinates assigned)
CC(=O)[N-]c1ccc(S(=O)(=O)[N-]c2cc(-c3ccc(C#N)c(N)c3)ccc2N2CCN(C)CC2)cc1 (nonaromatic ring conformer: 90.00854878256821 kcal/mol)

>  <smiles>  (1) 
CC(=O)Nc1ccc(S(=O)(=O)Nc2cc(-c3ccc(C#N)c(N)c3)ccc2N2CCN(C)CC2)cc1

>  <score_type>  (1) 
oracle

>  <origin>  (1) 
adgpu

>  <m_score__min__energy>  (1) 
-11.07

>  <m_primary>  (1) 
energy

$$$$
1:0
     RDKit          3D

 44 46  0  0  0  0  0  0  0  0999 V2000
   -0.1280   21.7620  -31.4730 N   0  0  0  0  0  0  0  0  0  0  0  0
   -0.6800   21.3460  -32.7240 C   0  0  0  0  0  0  0  0  0  0  0  0
   -0.0740   21.6460  -33.7870 O   0  0  0  0  0  0  0  0  0  0  0  0
   -1.9540   20.6010  -32.7990 C   0  0  0  0  0  0  0  0  0  0  0  0
   -2.3400   19.8840  -33.9470 C   0  0  0  0  0  0  0  0  0  0  0  0
   -3.5560   19.2260  -33.8200 C   0  0  0  0  0  0  0  0  0  0  0  0
   -4.1600   19.5100  -32.2770 S   0  0  0  0  0  0  0  0  0  0  0  0
   -2.8750   20.4690  -31.7590 C   0  0  0  0  0  0  0  0  0  0  0  0
   -2.7310   21.0240  -30.4460 N   0  0  0  0  0  0  0  0  0  0  0  0
   -2.9190   22.4010  -30.0970 C   0  0  0  0  0  0  0  0  0  0  0  0
   -1.9850   23.0010  -29.5020 O   0  0  0  0  0  0  0  0  0  0  0  0
   -4.2050   23.1060  -30.3410 C   0  0  0  0  0  0  0  0  0  0  0  0
   -5.3770   22.3620  -30.5690 C   0  0  0  0  0  0  0  0  0  0  0  0
   -6.5990   23.0020  -30.8120 C   0  0  0  0  0  0  0  0  0  0  0  0
   -8.0440   22.0680  -31.1960 S   0  0  0  0  0  0  0  0  0  0  0  0
   -8.7950   22.7910  -32.2800 O   0  0  0  0  0  0  0  0  0  0  0  0
   -8.9150   21.9660  -29.9740 O   0  0  0  0  0  0  0  0  0  0  0  0
   -7.5920   20.4730  -31.7530 N   0  0  0  0  0  0  0  0  0  0  0  0
   -8.7600   19.5780  -31.7690 C   0  0  0  0  0  0  0  0  0  0  0  0
   -8.3010   18.1210  -31.9630 C   0  0  0  0  0  0  0  0  0  0  0  0
   -6.9660   18.0270  -32.7220 C   0  0  0  0  0  0  0  0  0  0  0  0
   -6.8320   19.1540  -33.7510 C   0  0  0  0  0  0  0  0  0  0  0  0
   -6.9730   20.5460  -33.0920 C   0  0  0  0  0  0  0  0  0  0  0  0
   -6.6630   24.3990  -30.7900 C   0  0  0  0  0  0  0  0  0  0  0  0
   -5.5120   25.1500  -30.5390 C   0  0  0  0  0  0  0  0  0  0  0  0
   -4.2860   24.5140  -30.3210 C   0  0  0  0  0  0  0  0  0  0  0  0
   -3.1540   25.2920  -30.0990 O   0  0  0  0  0  0  0  0  0  0  0  0
   -0.6870   21.7300  -30.5920 H   0  0  0  0  0  0  0  0  0  0  0  0
    0.8120   22.2170  -31.4430 H   0  0  0  0  0  0  0  0  0  0  0  0
   -1.7324   19.8481  -34.8632 H   0  0  0  0  0  0  0  0  0  0  0  0
   -4.0427   18.6203  -34.5986 H   0  0  0  0  0  0  0  0  0  0  0  0
   -5.3331   21.2629  -30.5563 H   0  0  0  0  0  0  0  0  0  0  0  0
   -9.3003   19.6663  -30.8149 H   0  0  0  0  0  0  0  0  0  0  0  0
   -9.4230   19.8625  -32.5994 H   0  0  0  0  0  0  0  0  0  0  0  0
   -8.1800   17.6534  -30.9747 H   0  0  0  0  0  0  0  0  0  0  0  0
   -9.0658   17.6034  -32.5607 H   0  0  0  0  0  0  0  0  0  0  0  0
   -6.1380   18.0990  -32.0014 H   0  0  0  0  0  0  0  0  0  0  0  0
   -6.9353   17.0647  -33.2540 H   0  0  0  0  0  0  0  0  0  0  0  0
   -5.8444   19.0843  -34.2303 H   0  0  0  0  0  0  0  0  0  0  0  0
   -7.6370   19.0409  -34.4921 H   0  0  0  0  0  0  0  0  0  0  0  0
   -5.9732   20.9944  -32.9954 H   0  0  0  0  0  0  0  0  0  0  0  0
   -7.6273   21.1562  -33.7320 H   0  0  0  0  0  0  0  0  0  0  0  0
   -7.6216   24.9074  -30.9707 H   0  0  0  0  0  0  0  0  0  0  0  0
   -5.5706   26.2481  -30.5127 H   0  0  0  0  0  0  0  0  0  0  0  0
  1  2  1  0
  2  3  2  0
  2  4  1  0
  4  5  1  0
  5  6  2  0
  6  7  1  0
  7  8  1  0
  8  9  1  0
  9 10  1  0
 10 11  2  0
 10 12  1  0
 12 13  2  0
 13 14  1  0
 14 15  1  0
 15 16  2  0
 15 17  2  0
 15 18  1  0
 18 19  1  0
 19 20  1  0
 20 21  1  0
 21 22  1  0
 22 23  1  0
 14 24  2  0
 24 25  1  0
 25 26  2  0
 26 27  1  0
  8  4  2  0
 26 12  1  0
 23 18  1  0
  1 28  1  0
  1 29  1  0
  5 30  1  0
  6 31  1  0
 13 32  1  0
 19 33  1  0
 19 34  1  0
 20 35  1  0
 20 36  1  0
 21 37  1  0
 21 38  1  0
 22 39  1  0
 22 40  1  0
 23 41  1  0
 23 42  1  0
 24 43  1  0
 25 44  1  0
M  CHG  2   9  -1  27  -1
M  END
>  <UniqueID>  (2) 
2

>  <SMILES>  (2) 
NC(=O)c1ccsc1[N-]C(=O)c1cc(S(=O)(=O)N2CCCCC2)ccc1[O-]

>  <Energy>  (2) 
81.40131245754664

>  <Genealogy>  (2) 
NC(=O)c1ccsc1[N-]C(=O)c1cc(S(=O)(=O)N2CCCCC2)ccc1[O-] (protonated)
NC(=O)c1ccsc1[N-]C(=O)c1cc(S(=O)(=O)N2CCCCC2)ccc1[O-] (3D coordinates assigned)
NC(=O)c1ccsc1[N-]C(=O)c1cc(S(=O)(=O)N2CCCCC2)ccc1[O-] (nonaromatic ring conformer: 81.40131245754664 kcal/mol)

>  <smiles>  (2) 
NC(=O)c1ccsc1NC(=O)c1cc(S(=O)(=O)N2CCCCC2)ccc1O

>  <score_type>  (2) 
oracle

>  <origin>  (2) 
adgpu

>  <m_score__min__energy>  (2) 
-14.06

>  <m_primary>  (2) 
energy

$$$$
2:0
     RDKit          3D

 71 75  0  0  0  0  0  0  0  0999 V2000
   -4.0300   21.1650  -33.1870 O   0  0  0  0  0  0  0  0  0  0  0  0
   -3.0710   21.6000  -32.4960 C   0  0  0  0  0  0  0  0  0  0  0  0
   -3.2390   22.7800  -31.6990 N   0  0  0  0  0  0  0  0  0  0  0  0
   -4.5320   23.3100  -31.3860 C   0  0  0  0  0  0  0  0  0  0  0  0
   -5.6860   22.5630  -31.6640 C   0  0  0  0  0  0  0  0  0  0  0  0
   -6.9500   23.0580  -31.3180 C   0  0  0  0  0  0  0  0  0  0  0  0
   -8.3740   22.0550  -31.5830 S   0  0  0  0  0  0  0  0  0  0  0  0
   -9.4590   22.9150  -32.1730 O   0  0  0  0  0  0  0  0  0  0  0  0
   -8.8660   21.4930  -30.2750 O   0  0  0  0  0  0  0  0  0  0  0  0
   -7.9740   20.7640  -32.6950 N   0  0  0  0  0  0  0  0  0  0  0  0
   -6.9720   19.8660  -32.1100 C   0  0  0  0  0  0  0  0  0  0  0  0
   -7.7060   18.7100  -31.4440 C   0  0  0  0  0  0  0  0  0  0  0  0
   -9.1230   18.7580  -31.9830 C   0  0  0  0  0  0  0  0  0  0  0  0
   -9.1470   19.9240  -32.9590 C   0  0  0  0  0  0  0  0  0  0  0  0
   -7.0600   24.3140  -30.7060 C   0  0  0  0  0  0  0  0  0  0  0  0
   -5.9120   25.0610  -30.4240 C   0  0  0  0  0  0  0  0  0  0  0  0
   -4.6490   24.5580  -30.7530 C   0  0  0  0  0  0  0  0  0  0  0  0
   -3.5160   25.3040  -30.4550 O   0  0  0  0  0  0  0  0  0  0  0  0
   -1.7630   20.9160  -32.5370 C   0  0  0  0  0  0  0  0  0  0  0  0
   -1.3420   20.3360  -33.7440 C   0  0  0  0  0  0  0  0  0  0  0  0
   -0.1100   19.6770  -33.8300 C   0  0  0  0  0  0  0  0  0  0  0  0
    0.4000   18.9520  -35.3570 S   0  0  0  0  0  0  0  0  0  0  0  0
    0.2160   19.9540  -36.4640 O   0  0  0  0  0  0  0  0  0  0  0  0
    1.8620   18.6080  -35.2830 O   0  0  0  0  0  0  0  0  0  0  0  0
   -0.5080   17.5050  -35.7190 N   0  0  0  0  0  0  0  0  0  0  0  0
   -1.6260   17.3500  -34.7710 C   0  0  0  0  0  0  0  0  0  0  0  0
   -2.4840   16.1110  -35.1080 C   0  0  0  0  0  0  0  0  0  0  0  0
   -1.8890   15.2780  -36.2520 C   0  0  0  0  0  0  0  0  0  0  0  0
   -0.3870   15.0340  -36.0400 C   0  0  0  0  0  0  0  0  0  0  0  0
    0.3730   16.3260  -35.6600 C   0  0  0  0  0  0  0  0  0  0  0  0
    0.7120   19.5980  -32.6990 C   0  0  0  0  0  0  0  0  0  0  0  0
    0.3120   20.1840  -31.4970 C   0  0  0  0  0  0  0  0  0  0  0  0
   -0.9220   20.8430  -31.4010 C   0  0  0  0  0  0  0  0  0  0  0  0
   -1.3300   21.3910  -30.1390 N   0  0  0  0  0  0  0  0  0  0  0  0
   -2.3880   20.8150  -29.3290 C   0  0  0  0  0  0  0  0  0  0  0  0
   -2.6820   21.8520  -28.2530 C   0  0  0  0  0  0  0  0  0  0  0  0
   -1.5050   22.8270  -28.2720 C   0  0  0  0  0  0  0  0  0  0  0  0
   -0.8680   22.6770  -29.6460 C   0  0  0  0  0  0  0  0  0  0  0  0
   -2.3940   23.3150  -31.4060 H   0  0  0  0  0  0  0  0  0  0  0  0
   -5.5981   21.5833  -32.1563 H   0  0  0  0  0  0  0  0  0  0  0  0
   -6.3092   19.4818  -32.8994 H   0  0  0  0  0  0  0  0  0  0  0  0
   -6.3605   20.4057  -31.3719 H   0  0  0  0  0  0  0  0  0  0  0  0
   -7.2294   17.7530  -31.7030 H   0  0  0  0  0  0  0  0  0  0  0  0
   -7.6858   18.7944  -30.3474 H   0  0  0  0  0  0  0  0  0  0  0  0
   -9.3698   17.8189  -32.4998 H   0  0  0  0  0  0  0  0  0  0  0  0
   -9.8619   18.8843  -31.1779 H   0  0  0  0  0  0  0  0  0  0  0  0
   -9.1104   19.5466  -33.9916 H   0  0  0  0  0  0  0  0  0  0  0  0
  -10.0703   20.5083  -32.8318 H   0  0  0  0  0  0  0  0  0  0  0  0
   -8.0517   24.7131  -30.4469 H   0  0  0  0  0  0  0  0  0  0  0  0
   -6.0024   26.0459  -29.9426 H   0  0  0  0  0  0  0  0  0  0  0  0
   -1.9876   20.4001  -34.6323 H   0  0  0  0  0  0  0  0  0  0  0  0
   -1.2204   17.2385  -33.7546 H   0  0  0  0  0  0  0  0  0  0  0  0
   -2.2650   18.2426  -34.8410 H   0  0  0  0  0  0  0  0  0  0  0  0
   -2.5570   15.4779  -34.2114 H   0  0  0  0  0  0  0  0  0  0  0  0
   -3.4727   16.4672  -35.4328 H   0  0  0  0  0  0  0  0  0  0  0  0
   -2.4070   14.3086  -36.2968 H   0  0  0  0  0  0  0  0  0  0  0  0
   -2.0220   15.8332  -37.1923 H   0  0  0  0  0  0  0  0  0  0  0  0
   -0.2593   14.2986  -35.2320 H   0  0  0  0  0  0  0  0  0  0  0  0
    0.0301   14.6668  -36.9893 H   0  0  0  0  0  0  0  0  0  0  0  0
    0.7650   16.2230  -34.6374 H   0  0  0  0  0  0  0  0  0  0  0  0
    1.1925   16.4699  -36.3796 H   0  0  0  0  0  0  0  0  0  0  0  0
    1.6764   19.0722  -32.7581 H   0  0  0  0  0  0  0  0  0  0  0  0
    0.9704   20.1284  -30.6175 H   0  0  0  0  0  0  0  0  0  0  0  0
   -3.2836   20.6299  -29.9403 H   0  0  0  0  0  0  0  0  0  0  0  0
   -2.0920   19.8481  -28.8960 H   0  0  0  0  0  0  0  0  0  0  0  0
   -3.6197   22.3810  -28.4785 H   0  0  0  0  0  0  0  0  0  0  0  0
   -2.8003   21.3836  -27.2647 H   0  0  0  0  0  0  0  0  0  0  0  0
   -1.8586   23.8580  -28.1237 H   0  0  0  0  0  0  0  0  0  0  0  0
   -0.7874   22.6128  -27.4663 H   0  0  0  0  0  0  0  0  0  0  0  0
   -1.1957   23.4871  -30.3141 H   0  0  0  0  0  0  0  0  0  0  0  0
    0.2297   22.7303  -29.5994 H   0  0  0  0  0  0  0  0  0  0  0  0
  1  2  2  0
  2  3  1  0
  3  4  1  0
  4  5  2  0
  5  6  1  0
  6  7  1  0
  7  8  2  0
  7  9  2  0
  7 10  1  0
 10 11  1  0
 11 12  1  0
 12 13  1  0
 13 14  1  0
  6 15  2  0
 15 16  1  0
 16 17  2  0
 17 18  1  0
  2 19  1  0
 19 20  2  0
 20 21  1  0
 21 22  1  0
 22 23  2  0
 22 24  2  0
 22 25  1  0
 25 26  1  0
 26 27  1  0
 27 28  1  0
 28 29  1  0
 29 30  1  0
 21 31  2  0
 31 32  1  0
 32 33  2  0
 33 34  1  0
 34 35  1  0
 35 36  1  0
 36 37  1  0
 37 38  1  0
 17  4  1  0
 33 19  1  0
 38 34  1  0
 14 10  1  0
 30 25  1  0
  3 39  1  0
  5 40  1  0
 11 41  1  0
 11 42  1  0
 12 43  1  0
 12 44  1  0
 13 45  1  0
 13 46  1  0
 14 47  1  0
 14 48  1  0
 15 49  1  0
 16 50  1  0
 20 51  1  0
 26 52  1  0
 26 53  1  0
 27 54  1  0
 27 55  1  0
 28 56  1  0
 28 57  1  0
 29 58  1  0
 29 59  1  0
 30 60  1  0
 30 61  1  0
 31 62  1  0
 32 63  1  0
 35 64  1  0
 35 65  1  0
 36 66  1  0
 36 67  1  0
 37 68  1  0
 37 69  1  0
 38 70  1  0
 38 71  1  0
M  CHG  1  18  -1
M  END
>  <UniqueID>  (3) 
3

>  <SMILES>  (3) 
O=C(Nc1cc(S(=O)(=O)N2CCCC2)ccc1[O-])c1cc(S(=O)(=O)N2CCCCC2)ccc1N1CCCC1

>  <Energy>  (3) 
91.03993983321521

>  <Genealogy>  (3) 
O=C(Nc1cc(S(=O)(=O)N2CCCC2)ccc1[O-])c1cc(S(=O)(=O)N2CCCCC2)ccc1N1CCCC1 (protonated)
O=C(Nc1cc(S(=O)(=O)N2CCCC2)ccc1[O-])c1cc(S(=O)(=O)N2CCCCC2)ccc1N1CCCC1 (3D coordinates assigned)
O=C(Nc1cc(S(=O)(=O)N2CCCC2)ccc1[O-])c1cc(S(=O)(=O)N2CCCCC2)ccc1N1CCCC1 (nonaromatic ring conformer: 91.03993983321521 kcal/mol)

>  <smiles>  (3) 
O=C(Nc1cc(S(=O)(=O)N2CCCC2)ccc1O)c1cc(S(=O)(=O)N2CCCCC2)ccc1N1CCCC1

>  <score_type>  (3) 
oracle

>  <origin>  (3) 
adgpu

>  <m_score__min__energy>  (3) 
-13.84

>  <m_primary>  (3) 
energy

$$$$
3:0
     RDKit          3D

 45 48  0  0  0  0  0  0  0  0999 V2000
   -6.1850   19.0160  -33.9920 C   0  0  0  0  0  0  0  0  0  0  0  0
   -6.9780   19.6970  -32.9640 N   0  0  0  0  0  0  0  0  0  0  0  0
   -8.2370   19.1040  -32.4890 C   0  0  0  0  0  0  0  0  0  0  0  0
   -9.3080   20.1900  -32.3620 C   0  0  0  0  0  0  0  0  0  0  0  0
   -8.8170   21.2700  -31.5690 O   0  0  0  0  0  0  0  0  0  0  0  0
   -7.4990   21.7230  -31.6830 C   0  0  0  0  0  0  0  0  0  0  0  0
   -7.1210   22.9250  -31.0780 C   0  0  0  0  0  0  0  0  0  0  0  0
   -5.8090   23.3940  -31.2030 C   0  0  0  0  0  0  0  0  0  0  0  0
   -5.3520   24.9140  -30.4430 S   0  0  0  0  0  0  0  0  0  0  0  0
   -5.9460   25.0290  -29.0680 O   0  0  0  0  0  0  0  0  0  0  0  0
   -5.8570   26.0500  -31.2870 O   0  0  0  0  0  0  0  0  0  0  0  0
   -3.6250   25.0150  -30.3280 N   0  0  0  0  0  0  0  0  0  0  0  0
   -2.8030   24.2230  -29.4570 C   0  0  0  0  0  0  0  0  0  0  0  0
   -3.1650   22.9170  -29.0740 C   0  0  0  0  0  0  0  0  0  0  0  0
   -2.3380   22.1670  -28.2250 C   0  0  0  0  0  0  0  0  0  0  0  0
   -1.1200   22.7150  -27.7750 C   0  0  0  0  0  0  0  0  0  0  0  0
   -0.7720   24.0230  -28.1430 C   0  0  0  0  0  0  0  0  0  0  0  0
   -1.6030   24.7700  -28.9830 C   0  0  0  0  0  0  0  0  0  0  0  0
   -1.2320   26.0620  -29.3430 O   0  0  0  0  0  0  0  0  0  0  0  0
   -0.2370   21.9530  -26.8130 C   0  0  0  0  0  0  0  0  0  0  0  0
   -0.4890   20.5050  -26.8490 N   0  0  0  0  0  0  0  0  0  0  0  0
   -1.9190   20.2230  -26.6880 C   0  0  0  0  0  0  0  0  0  0  0  0
   -2.7160   20.7500  -27.8880 C   0  0  0  0  0  0  0  0  0  0  0  0
   -4.8740   22.6520  -31.9380 C   0  0  0  0  0  0  0  0  0  0  0  0
   -5.2450   21.4430  -32.5340 C   0  0  0  0  0  0  0  0  0  0  0  0
   -6.5600   20.9620  -32.4020 C   0  0  0  0  0  0  0  0  0  0  0  0
   -5.4350   18.3719  -33.5097 H   0  0  0  0  0  0  0  0  0  0  0  0
   -6.8477   18.4012  -34.6188 H   0  0  0  0  0  0  0  0  0  0  0  0
   -5.6774   19.7639  -34.6188 H   0  0  0  0  0  0  0  0  0  0  0  0
   -8.5743   18.3410  -33.2059 H   0  0  0  0  0  0  0  0  0  0  0  0
   -8.0712   18.6415  -31.5048 H   0  0  0  0  0  0  0  0  0  0  0  0
   -9.5691   20.5628  -33.3634 H   0  0  0  0  0  0  0  0  0  0  0  0
  -10.1991   19.7632  -31.8784 H   0  0  0  0  0  0  0  0  0  0  0  0
   -7.8576   23.5041  -30.5017 H   0  0  0  0  0  0  0  0  0  0  0  0
   -4.1048   22.4812  -29.4440 H   0  0  0  0  0  0  0  0  0  0  0  0
    0.1628   24.4647  -27.7674 H   0  0  0  0  0  0  0  0  0  0  0  0
    0.8148   22.1354  -27.0785 H   0  0  0  0  0  0  0  0  0  0  0  0
   -0.4631   22.3079  -25.7967 H   0  0  0  0  0  0  0  0  0  0  0  0
   -0.1640   20.1270  -27.7710 H   0  0  0  0  0  0  0  0  0  0  0  0
   -2.0654   19.1358  -26.6071 H   0  0  0  0  0  0  0  0  0  0  0  0
   -2.2776   20.7261  -25.7779 H   0  0  0  0  0  0  0  0  0  0  0  0
   -2.5142   20.1098  -28.7595 H   0  0  0  0  0  0  0  0  0  0  0  0
   -3.7842   20.7319  -27.6262 H   0  0  0  0  0  0  0  0  0  0  0  0
   -3.8440   23.0226  -32.0463 H   0  0  0  0  0  0  0  0  0  0  0  0
   -4.5055   20.8657  -33.1084 H   0  0  0  0  0  0  0  0  0  0  0  0
  1  2  1  0
  2  3  1  0
  3  4  1  0
  4  5  1  0
  5  6  1  0
  6  7  2  0
  7  8  1  0
  8  9  1  0
  9 10  2  0
  9 11  2  0
  9 12  1  0
 12 13  1  0
 13 14  2  0
 14 15  1  0
 15 16  2  0
 16 17  1  0
 17 18  2  0
 18 19  1  0
 16 20  1  0
 20 21  1  0
 21 22  1  0
 22 23  1  0
  8 24  2  0
 24 25  1  0
 25 26  2  0
 26  2  1  0
 26  6  1  0
 18 13  1  0
 23 15  1  0
  1 27  1  0
  1 28  1  0
  1 29  1  0
  3 30  1  0
  3 31  1  0
  4 32  1  0
  4 33  1  0
  7 34  1  0
 14 35  1  0
 17 36  1  0
 20 37  1  0
 20 38  1  0
 21 39  1  0
 22 40  1  0
 22 41  1  0
 23 42  1  0
 23 43  1  0
 24 44  1  0
 25 45  1  0
M  CHG  2  12  -1  19  -1
M  END
>  <UniqueID>  (4) 
4

>  <SMILES>  (4) 
CN1CCOc2cc(S(=O)(=O)[N-]c3cc4c(cc3[O-])CNCC4)ccc21

>  <Energy>  (4) 
53.487108291761466

>  <Genealogy>  (4) 
CN1CCOc2cc(S(=O)(=O)[N-]c3cc4c(cc3[O-])CNCC4)ccc21 (protonated)
CN1CCOc2cc(S(=O)(=O)[N-]c3cc4c(cc3[O-])CNCC4)ccc21 (3D coordinates assigned)
CN1CCOc2cc(S(=O)(=O)[N-]c3cc4c(cc3[O-])CNCC4)ccc21 (nonaromatic ring conformer: 53.487108291761466 kcal/mol)

>  <smiles>  (4) 
CN1CCOc2cc(S(=O)(=O)Nc3cc4c(cc3O)CNCC4)ccc21

>  <score_type>  (4) 
oracle

>  <origin>  (4) 
adgpu

>  <m_score__min__energy>  (4) 
-14.02

>  <m_primary>  (4) 
energy

$$$$
4:0
     RDKit          3D

 53 55  0  0  0  0  0  0  0  0999 V2000
   -4.9360   23.5980  -29.0370 C   0  0  0  0  0  0  0  0  0  0  0  0
   -4.5550   24.9070  -29.7180 C   0  0  0  0  0  0  0  0  0  0  0  0
   -3.1460   24.9010  -30.1000 N   0  0  0  0  0  0  0  0  0  0  0  0
   -2.0430   24.7080  -29.2050 C   0  0  0  0  0  0  0  0  0  0  0  0
   -1.2480   25.6610  -29.0050 O   0  0  0  0  0  0  0  0  0  0  0  0
   -1.7990   23.4120  -28.5420 C   0  0  0  0  0  0  0  0  0  0  0  0
   -1.8900   23.3400  -27.1430 C   0  0  0  0  0  0  0  0  0  0  0  0
   -1.6120   22.1440  -26.4770 C   0  0  0  0  0  0  0  0  0  0  0  0
   -1.2320   21.0140  -27.2010 C   0  0  0  0  0  0  0  0  0  0  0  0
   -1.1420   21.0730  -28.5930 C   0  0  0  0  0  0  0  0  0  0  0  0
   -1.4470   22.2580  -29.2770 C   0  0  0  0  0  0  0  0  0  0  0  0
   -1.2850   22.2860  -31.0730 S   0  0  0  0  0  0  0  0  0  0  0  0
   -2.9870   21.7920  -31.3690 C   0  0  0  0  0  0  0  0  0  0  0  0
   -3.4280   20.5250  -30.9660 C   0  0  0  0  0  0  0  0  0  0  0  0
   -4.7500   20.1340  -31.1970 C   0  0  0  0  0  0  0  0  0  0  0  0
   -5.6390   21.0020  -31.8430 C   0  0  0  0  0  0  0  0  0  0  0  0
   -7.2940   20.4850  -32.1560 S   0  0  0  0  0  0  0  0  0  0  0  0
   -8.1000   21.6440  -32.6790 O   0  0  0  0  0  0  0  0  0  0  0  0
   -7.9080   20.0220  -30.8620 O   0  0  0  0  0  0  0  0  0  0  0  0
   -7.3030   19.1780  -33.3150 N   0  0  0  0  0  0  0  0  0  0  0  0
   -7.3290   17.8790  -32.6030 C   0  0  0  0  0  0  0  0  0  0  0  0
   -6.8390   16.7370  -33.5060 C   0  0  0  0  0  0  0  0  0  0  0  0
   -5.4440   16.9470  -33.9720 N   0  0  0  0  0  0  0  0  0  0  0  0
   -4.4970   16.1020  -33.2290 C   0  0  0  0  0  0  0  0  0  0  0  0
   -5.0100   18.3630  -33.9310 C   0  0  0  0  0  0  0  0  0  0  0  0
   -6.1700   19.3090  -34.2700 C   0  0  0  0  0  0  0  0  0  0  0  0
   -5.1900   22.2570  -32.2740 C   0  0  0  0  0  0  0  0  0  0  0  0
   -3.8670   22.6480  -32.0410 C   0  0  0  0  0  0  0  0  0  0  0  0
   -4.8982   23.7280  -27.9454 H   0  0  0  0  0  0  0  0  0  0  0  0
   -5.9548   23.3116  -29.3370 H   0  0  0  0  0  0  0  0  0  0  0  0
   -4.2301   22.8096  -29.3370 H   0  0  0  0  0  0  0  0  0  0  0  0
   -5.1725   25.0380  -30.6189 H   0  0  0  0  0  0  0  0  0  0  0  0
   -4.7260   25.7342  -29.0133 H   0  0  0  0  0  0  0  0  0  0  0  0
   -2.1820   24.2309  -26.5677 H   0  0  0  0  0  0  0  0  0  0  0  0
   -1.6928   22.0933  -25.3811 H   0  0  0  0  0  0  0  0  0  0  0  0
   -1.0030   20.0756  -26.6748 H   0  0  0  0  0  0  0  0  0  0  0  0
   -0.8292   20.1823  -29.1576 H   0  0  0  0  0  0  0  0  0  0  0  0
   -2.7317   19.8355  -30.4661 H   0  0  0  0  0  0  0  0  0  0  0  0
   -5.0931   19.1413  -30.8703 H   0  0  0  0  0  0  0  0  0  0  0  0
   -8.1940   19.2670  -33.8570 H   0  0  0  0  0  0  0  0  0  0  0  0
   -6.6770   17.9418  -31.7193 H   0  0  0  0  0  0  0  0  0  0  0  0
   -8.3669   17.6663  -32.3070 H   0  0  0  0  0  0  0  0  0  0  0  0
   -6.8853   15.7943  -32.9410 H   0  0  0  0  0  0  0  0  0  0  0  0
   -7.4894   16.7057  -34.3926 H   0  0  0  0  0  0  0  0  0  0  0  0
   -4.6518   16.2402  -32.1488 H   0  0  0  0  0  0  0  0  0  0  0  0
   -4.6634   15.0468  -33.4913 H   0  0  0  0  0  0  0  0  0  0  0  0
   -3.4675   16.3871  -33.4913 H   0  0  0  0  0  0  0  0  0  0  0  0
   -4.6404   18.5959  -32.9215 H   0  0  0  0  0  0  0  0  0  0  0  0
   -4.2148   18.5054  -34.6776 H   0  0  0  0  0  0  0  0  0  0  0  0
   -5.8014   20.3450  -34.2416 H   0  0  0  0  0  0  0  0  0  0  0  0
   -6.5407   19.0417  -35.2706 H   0  0  0  0  0  0  0  0  0  0  0  0
   -5.8791   22.9366  -32.7968 H   0  0  0  0  0  0  0  0  0  0  0  0
   -3.5172   23.6318  -32.3872 H   0  0  0  0  0  0  0  0  0  0  0  0
  1  2  1  0
  2  3  1  0
  3  4  1  0
  4  5  2  0
  4  6  1  0
  6  7  2  0
  7  8  1  0
  8  9  2  0
  9 10  1  0
 10 11  2  0
 11 12  1  0
 12 13  1  0
 13 14  2  0
 14 15  1  0
 15 16  2  0
 16 17  1  0
 17 18  2  0
 17 19  2  0
 17 20  1  0
 20 21  1  0
 21 22  1  0
 22 23  1  0
 23 24  1  0
 23 25  1  0
 25 26  1  0
 16 27  1  0
 27 28  2  0
 11  6  1  0
 28 13  1  0
 26 20  1  0
  1 29  1  0
  1 30  1  0
  1 31  1  0
  2 32  1  0
  2 33  1  0
  7 34  1  0
  8 35  1  0
  9 36  1  0
 10 37  1  0
 14 38  1  0
 15 39  1  0
 20 40  1  0
 21 41  1  0
 21 42  1  0
 22 43  1  0
 22 44  1  0
 24 45  1  0
 24 46  1  0
 24 47  1  0
 25 48  1  0
 25 49  1  0
 26 50  1  0
 26 51  1  0
 27 52  1  0
 28 53  1  0
M  CHG  2   3  -1  20   1
M  END
>  <UniqueID>  (5) 
5

>  <SMILES>  (5) 
CC[N-]C(=O)c1ccccc1Sc1ccc(S(=O)(=O)[NH+]2CCN(C)CC2)cc1

>  <Energy>  (5) 
63.03272579738411

>  <Genealogy>  (5) 
CC[N-]C(=O)c1ccccc1Sc1ccc(S(=O)(=O)[NH+]2CCN(C)CC2)cc1 (protonated)
CC[N-]C(=O)c1ccccc1Sc1ccc(S(=O)(=O)[NH+]2CCN(C)CC2)cc1 (3D coordinates assigned)
CC[N-]C(=O)c1ccccc1Sc1ccc(S(=O)(=O)[NH+]2CCN(C)CC2)cc1 (nonaromatic ring conformer: 63.03272579738411 kcal/mol)

>  <smiles>  (5) 
CCNC(=O)c1ccccc1Sc1ccc(S(=O)(=O)N2CCN(C)CC2)cc1

>  <score_type>  (5) 
oracle

>  <origin>  (5) 
adgpu

>  <m_score__min__energy>  (5) 
-9.9199999999999999

>  <m_primary>  (5) 
energy

$$$$
5:0
     RDKit          3D

 31 33  0  0  0  0  0  0  0  0999 V2000
   -6.5080   24.2910  -31.9170 O   0  0  0  0  0  0  0  0  0  0  0  0
   -5.8680   23.3400  -31.3890 C   0  0  0  0  0  0  0  0  0  0  0  0
   -6.3870   22.0050  -31.4660 N   0  0  0  0  0  0  0  0  0  0  0  0
   -7.5430   21.6870  -32.3040 C   0  0  0  0  0  0  0  0  0  0  0  0
   -7.9510   20.2590  -32.1180 C   0  0  0  0  0  0  0  0  0  0  0  0
   -9.2030   19.7380  -32.3770 C   0  0  0  0  0  0  0  0  0  0  0  0
   -9.1250   18.4060  -32.0310 C   0  0  0  0  0  0  0  0  0  0  0  0
   -7.8370   18.2000  -31.5800 C   0  0  0  0  0  0  0  0  0  0  0  0
   -7.1620   19.3260  -31.6410 O   0  0  0  0  0  0  0  0  0  0  0  0
   -4.6080   23.6290  -30.6640 C   0  0  0  0  0  0  0  0  0  0  0  0
   -4.2640   24.9620  -30.3900 C   0  0  0  0  0  0  0  0  0  0  0  0
   -3.1210   25.2580  -29.7200 N   0  0  0  0  0  0  0  0  0  0  0  0
   -2.2650   24.2930  -29.2970 C   0  0  0  0  0  0  0  0  0  0  0  0
   -1.1000   24.6500  -28.6080 C   0  0  0  0  0  0  0  0  0  0  0  0
   -0.2100   23.6630  -28.1780 C   0  0  0  0  0  0  0  0  0  0  0  0
   -0.4780   22.3150  -28.4340 C   0  0  0  0  0  0  0  0  0  0  0  0
    0.7450   20.9710  -27.8420 Br  0  0  0  0  0  0  0  0  0  0  0  0
   -1.6400   21.9480  -29.1230 C   0  0  0  0  0  0  0  0  0  0  0  0
   -2.5460   22.9330  -29.5600 C   0  0  0  0  0  0  0  0  0  0  0  0
   -3.7240   22.6050  -30.2590 C   0  0  0  0  0  0  0  0  0  0  0  0
   -3.9730   21.4010  -30.5450 O   0  0  0  0  0  0  0  0  0  0  0  0
   -5.9640   21.2590  -30.8680 H   0  0  0  0  0  0  0  0  0  0  0  0
   -8.3820   22.3419  -32.0263 H   0  0  0  0  0  0  0  0  0  0  0  0
   -7.2709   21.8439  -33.3582 H   0  0  0  0  0  0  0  0  0  0  0  0
  -10.0779   20.2728  -32.7753 H   0  0  0  0  0  0  0  0  0  0  0  0
   -9.9281   17.6575  -32.1004 H   0  0  0  0  0  0  0  0  0  0  0  0
   -7.4364   17.2395  -31.2237 H   0  0  0  0  0  0  0  0  0  0  0  0
   -4.9271   25.7747  -30.7214 H   0  0  0  0  0  0  0  0  0  0  0  0
   -0.8850   25.7095  -28.4049 H   0  0  0  0  0  0  0  0  0  0  0  0
    0.7043   23.9472  -27.6364 H   0  0  0  0  0  0  0  0  0  0  0  0
   -1.8459   20.8862  -29.3237 H   0  0  0  0  0  0  0  0  0  0  0  0
  1  2  2  0
  2  3  1  0
  3  4  1  0
  4  5  1  0
  5  6  2  0
  6  7  1  0
  7  8  2  0
  8  9  1  0
  2 10  1  0
 10 11  2  0
 11 12  1  0
 12 13  1  0
 13 14  2  0
 14 15  1  0
 15 16  2  0
 16 17  1  0
 16 18  1  0
 18 19  2  0
 19 20  1  0
 20 21  2  0
  9  5  1  0
 20 10  1  0
 19 13  1  0
  3 22  1  0
  4 23  1  0
  4 24  1  0
  6 25  1  0
  7 26  1  0
  8 27  1  0
 11 28  1  0
 14 29  1  0
 15 30  1  0
 18 31  1  0
M  CHG  1  12  -1
M  END
>  <UniqueID>  (6) 
6

>  <SMILES>  (6) 
O=C(NCc1ccco1)c1c[n-]c2ccc(Br)cc2c1=O

>  <Energy>  (6) 
66.03123584086389

>  <Genealogy>  (6) 
O=C(NCc1ccco1)c1c[n-]c2ccc(Br)cc2c1=O (protonated)
O=C(NCc1ccco1)c1c[n-]c2ccc(Br)cc2c1=O (3D coordinates assigned)
O=C(NCc1ccco1)c1c[n-]c2ccc(Br)cc2c1=O (optimized conformer: 66.03123584086389 kcal/mol)

>  <smiles>  (6) 
O=C(NCc1ccco1)c1c[nH]c2ccc(Br)cc2c1=O

>  <score_type>  (6) 
oracle

>  <origin>  (6) 
adgpu

>  <m_score__min__energy>  (6) 
-8.4700000000000006

>  <m_primary>  (6) 
energy

$$$$
6:0
     RDKit          3D

 56 59  0  0  0  0  0  0  0  0999 V2000
   -3.0360   20.3360  -27.6640 C   0  0  0  0  0  0  0  0  0  0  0  0
   -1.9510   21.3310  -28.0890 C   0  0  2  0  0  0  0  0  0  0  0  0
   -2.5880   22.6750  -28.5260 C   0  0  0  0  0  0  0  0  0  0  0  0
   -3.1690   22.5380  -29.8680 N   0  0  0  0  0  0  0  0  0  0  0  0
   -4.4590   23.1010  -30.1660 C   0  0  0  0  0  0  0  0  0  0  0  0
   -5.5960   22.2790  -30.1680 C   0  0  0  0  0  0  0  0  0  0  0  0
   -6.8630   22.8050  -30.4670 C   0  0  0  0  0  0  0  0  0  0  0  0
   -8.0490   21.9990  -30.4650 N   0  0  0  0  0  0  0  0  0  0  0  0
   -8.3980   20.6820  -31.5390 S   0  0  0  0  0  0  0  0  0  0  0  0
   -9.2970   21.1310  -32.6550 O   0  0  0  0  0  0  0  0  0  0  0  0
   -9.1170   19.6080  -30.7690 O   0  0  0  0  0  0  0  0  0  0  0  0
   -6.8920   20.0220  -32.1720 C   0  0  0  0  0  0  0  0  0  0  0  0
   -6.5410   18.6830  -31.9390 C   0  0  0  0  0  0  0  0  0  0  0  0
   -5.3700   18.1510  -32.4870 C   0  0  0  0  0  0  0  0  0  0  0  0
   -4.5170   18.9580  -33.2640 C   0  0  0  0  0  0  0  0  0  0  0  0
   -3.2650   18.3950  -33.8390 C   0  0  0  0  0  0  0  0  0  0  0  0
   -2.0440   19.0850  -33.7090 C   0  0  0  0  0  0  0  0  0  0  0  0
   -0.8660   18.5450  -34.2360 C   0  0  0  0  0  0  0  0  0  0  0  0
   -0.8930   17.3120  -34.8970 C   0  0  0  0  0  0  0  0  0  0  0  0
    0.2810   16.7720  -35.4080 O   0  0  0  0  0  0  0  0  0  0  0  0
   -2.1010   16.6220  -35.0410 C   0  0  0  0  0  0  0  0  0  0  0  0
   -3.2800   17.1550  -34.5150 C   0  0  0  0  0  0  0  0  0  0  0  0
   -4.8640   20.3060  -33.4810 C   0  0  0  0  0  0  0  0  0  0  0  0
   -6.0440   20.8310  -32.9430 C   0  0  0  0  0  0  0  0  0  0  0  0
   -6.9770   24.1610  -30.7910 C   0  0  0  0  0  0  0  0  0  0  0  0
   -5.8500   24.9880  -30.7830 C   0  0  0  0  0  0  0  0  0  0  0  0
   -4.5940   24.4650  -30.4710 C   0  0  0  0  0  0  0  0  0  0  0  0
   -3.4840   25.3020  -30.4890 O   0  0  0  0  0  0  0  0  0  0  0  0
   -2.4170   21.8410  -30.9200 C   0  0  0  0  0  0  0  0  0  0  0  0
   -1.0180   21.4490  -30.4110 C   0  0  2  0  0  0  0  0  0  0  0  0
   -0.2920   20.6010  -31.4630 C   0  0  0  0  0  0  0  0  0  0  0  0
   -1.1190   20.6960  -29.1440 N   0  0  0  0  0  0  0  0  0  0  0  0
   -3.0836   20.2923  -26.5659 H   0  0  0  0  0  0  0  0  0  0  0  0
   -4.0087   20.6626  -28.0605 H   0  0  0  0  0  0  0  0  0  0  0  0
   -2.7946   19.3387  -28.0605 H   0  0  0  0  0  0  0  0  0  0  0  0
   -1.2905   21.5787  -27.2450 H   0  0  0  0  0  0  0  0  0  0  0  0
   -3.3779   22.9535  -27.8129 H   0  0  0  0  0  0  0  0  0  0  0  0
   -1.8127   23.4551  -28.5442 H   0  0  0  0  0  0  0  0  0  0  0  0
   -5.4936   21.2094  -29.9324 H   0  0  0  0  0  0  0  0  0  0  0  0
   -7.1921   18.0476  -31.3207 H   0  0  0  0  0  0  0  0  0  0  0  0
   -5.1136   17.0960  -32.3102 H   0  0  0  0  0  0  0  0  0  0  0  0
   -2.0165   20.0544  -33.1899 H   0  0  0  0  0  0  0  0  0  0  0  0
    0.0833   19.0907  -34.1306 H   0  0  0  0  0  0  0  0  0  0  0  0
   -2.1226   15.6576  -35.5696 H   0  0  0  0  0  0  0  0  0  0  0  0
   -4.2262   16.6055  -34.6279 H   0  0  0  0  0  0  0  0  0  0  0  0
   -4.2022   20.9507  -34.0780 H   0  0  0  0  0  0  0  0  0  0  0  0
   -6.3081   21.8831  -33.1254 H   0  0  0  0  0  0  0  0  0  0  0  0
   -7.9598   24.5793  -31.0538 H   0  0  0  0  0  0  0  0  0  0  0  0
   -5.9535   26.0563  -31.0238 H   0  0  0  0  0  0  0  0  0  0  0  0
   -2.9631   20.9326  -31.2144 H   0  0  0  0  0  0  0  0  0  0  0  0
   -2.3066   22.5129  -31.7839 H   0  0  0  0  0  0  0  0  0  0  0  0
   -0.4439   22.3697  -30.2300 H   0  0  0  0  0  0  0  0  0  0  0  0
    0.3441   19.8580  -30.9597 H   0  0  0  0  0  0  0  0  0  0  0  0
   -1.0320   20.0843  -32.0918 H   0  0  0  0  0  0  0  0  0  0  0  0
    0.3325   21.2526  -32.0918 H   0  0  0  0  0  0  0  0  0  0  0  0
   -0.1560   20.5480  -28.7640 H   0  0  0  0  0  0  0  0  0  0  0  0
  1  2  1  0
  2  3  1  0
  3  4  1  0
  4  5  1  0
  5  6  2  0
  6  7  1  0
  7  8  1  0
  8  9  1  0
  9 10  2  0
  9 11  2  0
  9 12  1  0
 12 13  2  0
 13 14  1  0
 14 15  2  0
 15 16  1  0
 16 17  2  0
 17 18  1  0
 18 19  2  0
 19 20  1  0
 19 21  1  0
 21 22  2  0
 15 23  1  0
 23 24  2  0
  7 25  2  0
 25 26  1  0
 26 27  2  0
 27 28  1  0
  4 29  1  0
 29 30  1  0
 30 31  1  0
 30 32  1  0
 32  2  1  0
 27  5  1  0
 24 12  1  0
 22 16  1  0
  1 33  1  0
  1 34  1  0
  1 35  1  0
  2 36  1  1
  3 37  1  0
  3 38  1  0
  6 39  1  0
 13 40  1  0
 14 41  1  0
 17 42  1  0
 18 43  1  0
 21 44  1  0
 22 45  1  0
 23 46  1  0
 24 47  1  0
 25 48  1  0
 26 49  1  0
 29 50  1  0
 29 51  1  0
 30 52  1  1
 31 53  1  0
 31 54  1  0
 31 55  1  0
 32 56  1  0
M  CHG  3   8  -1  20  -1  28  -1
M  END
>  <UniqueID>  (7) 
7

>  <SMILES>  (7) 
C[C@@H]1CN(c2cc([N-]S(=O)(=O)c3ccc(-c4ccc([O-])cc4)cc3)ccc2[O-])C[C@H](C)N1

>  <Energy>  (7) 
73.43141921166084

>  <Genealogy>  (7) 
CC1CN(c2cc([N-]S(=O)(=O)c3ccc(-c4ccc([O-])cc4)cc3)ccc2[O-])CC(C)N1 (protonated)
C[C@@H]1CN(c2cc([N-]S(=O)(=O)c3ccc(-c4ccc([O-])cc4)cc3)ccc2[O-])C[C@H](C)N1 (chirality)
C[C@@H]1CN(c2cc([N-]S(=O)(=O)c3ccc(-c4ccc([O-])cc4)cc3)ccc2[O-])C[C@H](C)N1 (3D coordinates assigned)
C[C@@H]1CN(c2cc([N-]S(=O)(=O)c3ccc(-c4ccc([O-])cc4)cc3)ccc2[O-])C[C@H](C)N1 (nonaromatic ring conformer: 73.43141921166084 kcal/mol)

>  <smiles>  (7) 
CC1CN(c2cc(NS(=O)(=O)c3ccc(-c4ccc(O)cc4)cc3)ccc2O)CC(C)N1

>  <score_type>  (7) 
oracle

>  <origin>  (7) 
adgpu

>  <m_score__min__energy>  (7) 
-13.25

>  <m_primary>  (7) 
energy

$$$$
7:0
     RDKit          3D

 70 74  0  0  0  0  0  0  0  0999 V2000
   -4.6081   18.4617  -32.8188 H   0  0  0  0  0  0  0  0  0  0  0  0
   -3.8630   19.2570  -32.9680 C   0  0  0  0  0  0  0  0  0  0  0  0
   -2.8320   19.0090  -33.7920 C   0  0  0  0  0  0  0  0  0  0  0  0
   -2.0896   19.8046  -33.9529 H   0  0  0  0  0  0  0  0  0  0  0  0
   -2.6430   17.7180  -34.4960 C   0  0  0  0  0  0  0  0  0  0  0  0
   -3.7230   16.9600  -34.9910 C   0  0  0  0  0  0  0  0  0  0  0  0
   -4.7530   17.3201  -34.8518 H   0  0  0  0  0  0  0  0  0  0  0  0
   -3.4930   15.7530  -35.6580 C   0  0  0  0  0  0  0  0  0  0  0  0
   -4.3432   15.1676  -36.0381 H   0  0  0  0  0  0  0  0  0  0  0  0
   -2.1860   15.2850  -35.8450 C   0  0  0  0  0  0  0  0  0  0  0  0
   -1.9080   13.7710  -36.7000 S   0  0  0  0  0  0  0  0  0  0  0  0
   -2.7970   13.7020  -37.9100 O   0  0  0  0  0  0  0  0  0  0  0  0
   -0.4770   13.7450  -37.1640 O   0  0  0  0  0  0  0  0  0  0  0  0
   -2.1950   12.4040  -35.6430 N   0  0  0  0  0  0  0  0  0  0  0  0
   -0.9690   11.9640  -34.9530 C   0  0  0  0  0  0  0  0  0  0  0  0
   -1.1363   10.9539  -34.5509 H   0  0  0  0  0  0  0  0  0  0  0  0
   -0.1521   11.9825  -35.6894 H   0  0  0  0  0  0  0  0  0  0  0  0
   -0.5640   12.8960  -33.7900 C   0  0  0  0  0  0  0  0  0  0  0  0
    0.0312   12.3153  -33.0699 H   0  0  0  0  0  0  0  0  0  0  0  0
    0.0055   13.7293  -34.2274 H   0  0  0  0  0  0  0  0  0  0  0  0
   -1.7230   13.4890  -33.0720 N   0  0  0  0  0  0  0  0  0  0  0  0
   -1.9020   14.4480  -33.4530 H   0  0  0  0  0  0  0  0  0  0  0  0
   -1.4190   13.6510  -31.6400 C   0  0  0  0  0  0  0  0  0  0  0  0
   -2.2332   13.2171  -31.0410 H   0  0  0  0  0  0  0  0  0  0  0  0
   -0.4760   13.1358  -31.4048 H   0  0  0  0  0  0  0  0  0  0  0  0
   -1.3208   14.7211  -31.4048 H   0  0  0  0  0  0  0  0  0  0  0  0
   -2.9510   12.6920  -33.2460 C   0  0  0  0  0  0  0  0  0  0  0  0
   -2.7765   11.6713  -32.8749 H   0  0  0  0  0  0  0  0  0  0  0  0
   -3.7671   13.1651  -32.6801 H   0  0  0  0  0  0  0  0  0  0  0  0
   -3.3440   12.6310  -34.7340 C   0  0  0  0  0  0  0  0  0  0  0  0
   -4.0628   11.8095  -34.8704 H   0  0  0  0  0  0  0  0  0  0  0  0
   -3.7727   13.6099  -34.9946 H   0  0  0  0  0  0  0  0  0  0  0  0
   -1.1080   16.0460  -35.3760 C   0  0  0  0  0  0  0  0  0  0  0  0
   -0.0786   15.6905  -35.5306 H   0  0  0  0  0  0  0  0  0  0  0  0
   -1.3340   17.2540  -34.7130 C   0  0  0  0  0  0  0  0  0  0  0  0
   -0.4794   17.8482  -34.3571 H   0  0  0  0  0  0  0  0  0  0  0  0
   -4.0580   20.5400  -32.2460 C   0  0  0  0  0  0  0  0  0  0  0  0
   -4.9430   21.5420  -32.6940 C   0  0  0  0  0  0  0  0  0  0  0  0
   -5.5324   21.3817  -33.6088 H   0  0  0  0  0  0  0  0  0  0  0  0
   -5.0760   22.7390  -31.9820 C   0  0  0  0  0  0  0  0  0  0  0  0
   -5.7791   23.5089  -32.3327 H   0  0  0  0  0  0  0  0  0  0  0  0
   -4.3200   22.9620  -30.8270 C   0  0  0  0  0  0  0  0  0  0  0  0
   -4.4900   24.4620  -29.9230 S   0  0  0  0  0  0  0  0  0  0  0  0
   -5.8500   24.5340  -29.2840 O   0  0  0  0  0  0  0  0  0  0  0  0
   -4.3490   25.6330  -30.8560 O   0  0  0  0  0  0  0  0  0  0  0  0
   -3.2490   24.5280  -28.6770 C   0  0  0  0  0  0  0  0  0  0  0  0
   -3.6140   24.5710  -27.3250 C   0  0  0  0  0  0  0  0  0  0  0  0
   -4.6778   24.5693  -27.0450 H   0  0  0  0  0  0  0  0  0  0  0  0
   -2.6330   24.6160  -26.3300 C   0  0  0  0  0  0  0  0  0  0  0  0
   -2.9282   24.6570  -25.2711 H   0  0  0  0  0  0  0  0  0  0  0  0
   -1.2680   24.6090  -26.6780 C   0  0  0  0  0  0  0  0  0  0  0  0
   -0.9090   24.5320  -28.0360 C   0  0  0  0  0  0  0  0  0  0  0  0
   -1.8940   24.5020  -29.0290 C   0  0  0  0  0  0  0  0  0  0  0  0
   -1.6033   24.4579  -30.0890 H   0  0  0  0  0  0  0  0  0  0  0  0
    0.4410   24.4910  -28.3960 O   0  0  0  0  0  0  0  0  0  0  0  0
    1.4650   24.2630  -27.4270 C   0  0  0  0  0  0  0  0  0  0  0  0
    2.4274   24.6173  -27.8248 H   0  0  0  0  0  0  0  0  0  0  0  0
    1.5224   23.1859  -27.2111 H   0  0  0  0  0  0  0  0  0  0  0  0
    1.1440   25.0160  -26.1340 C   0  0  0  0  0  0  0  0  0  0  0  0
    1.2181   26.0985  -26.3148 H   0  0  0  0  0  0  0  0  0  0  0  0
    1.8612   24.7181  -25.3549 H   0  0  0  0  0  0  0  0  0  0  0  0
   -0.2180   24.6890  -25.6870 N   0  0  0  0  0  0  0  0  0  0  0  0
   -0.4880   24.4540  -24.2640 C   0  0  0  0  0  0  0  0  0  0  0  0
    0.2032   25.0556  -23.6554 H   0  0  0  0  0  0  0  0  0  0  0  0
   -1.5244   24.7426  -24.0349 H   0  0  0  0  0  0  0  0  0  0  0  0
   -0.3451   23.3876  -24.0349 H   0  0  0  0  0  0  0  0  0  0  0  0
   -3.4340   21.9750  -30.3790 C   0  0  0  0  0  0  0  0  0  0  0  0
   -2.8418   22.1423  -29.4672 H   0  0  0  0  0  0  0  0  0  0  0  0
   -3.3000   20.7780  -31.0870 C   0  0  0  0  0  0  0  0  0  0  0  0
   -2.5931   20.0132  -30.7331 H   0  0  0  0  0  0  0  0  0  0  0  0
  1  2  1  0
  2  3  2  0
  3  4  1  0
  3  5  1  0
  5  6  2  0
  6  7  1  0
  6  8  1  0
  8  9  1  0
  8 10  2  0
 10 11  1  0
 11 12  2  0
 11 13  2  0
 11 14  1  0
 14 15  1  0
 15 16  1  0
 15 17  1  0
 15 18  1  0
 18 19  1  0
 18 20  1  0
 18 21  1  0
 21 22  1  0
 21 23  1  0
 23 24  1  0
 23 25  1  0
 23 26  1  0
 21 27  1  0
 27 28  1  0
 27 29  1  0
 27 30  1  0
 30 31  1  0
 30 32  1  0
 10 33  1  0
 33 34  1  0
 33 35  2  0
 35 36  1  0
  2 37  1  0
 37 38  2  0
 38 39  1  0
 38 40  1  0
 40 41  1  0
 40 42  2  0
 42 43  1  0
 43 44  2  0
 43 45  2  0
 43 46  1  0
 46 47  2  0
 47 48  1  0
 47 49  1  0
 49 50  1  0
 49 51  2  0
 51 52  1  0
 52 53  2  0
 53 54  1  0
 52 55  1  0
 55 56  1  0
 56 57  1  0
 56 58  1  0
 56 59  1  0
 59 60  1  0
 59 61  1  0
 59 62  1  0
 62 63  1  0
 63 64  1  0
 63 65  1  0
 63 66  1  0
 42 67  1  0
 67 68  1  0
 67 69  2  0
 69 70  1  0
 35  5  1  0
 69 37  1  0
 30 14  1  0
 53 46  1  0
 62 51  1  0
M  CHG  1  21   1
M  END
>  <UniqueID>  (8) 
8

>  <SMILES>  (8) 
CN1CCOc2cc(S(=O)(=O)c3ccc(/C=C/c4ccc(S(=O)(=O)N5CC[NH+](C)CC5)cc4)cc3)ccc21

>  <Energy>  (8) 
93.36754090474516

>  <Genealogy>  (8) 
CN1CCOc2cc(S(=O)(=O)c3ccc(C=Cc4ccc(S(=O)(=O)N5CC[NH+](C)CC5)cc4)cc3)ccc21 (protonated)
CN1CCOc2cc(S(=O)(=O)c3ccc(/C=C/c4ccc(S(=O)(=O)N5CC[NH+](C)CC5)cc4)cc3)ccc21 (cis-trans isomerization)
CN1CCOc2cc(S(=O)(=O)c3ccc(/C=C/c4ccc(S(=O)(=O)N5CC[NH+](C)CC5)cc4)cc3)ccc21 (3D coordinates assigned)
CN1CCOc2cc(S(=O)(=O)c3ccc(/C=C/c4ccc(S(=O)(=O)N5CC[NH+](C)CC5)cc4)cc3)ccc21 (nonaromatic ring conformer: 93.36754090474516 kcal/mol)

>  <smiles>  (8) 
CN1CCN(S(=O)(=O)c2ccc(C=Cc3ccc(S(=O)(=O)c4ccc5c(c4)OCCN5C)cc3)cc2)CC1

>  <score_type>  (8) 
oracle

>  <origin>  (8) 
adgpu

>  <m_score__min__energy>  (8) 
-10.51

>  <m_primary>  (8) 
energy

$$$$
8:0
     RDKit          3D

 50 52  0  0  0  0  0  0  0  0999 V2000
   -9.1310   20.4360  -32.3270 C   0  0  0  0  0  0  0  0  0  0  0  0
   -8.0040   20.4930  -31.4590 O   0  0  0  0  0  0  0  0  0  0  0  0
   -7.2460   21.6490  -31.2110 C   0  0  0  0  0  0  0  0  0  0  0  0
   -7.6760   22.6400  -30.3080 C   0  0  0  0  0  0  0  0  0  0  0  0
   -6.9110   23.7890  -30.1010 C   0  0  0  0  0  0  0  0  0  0  0  0
   -5.7080   23.9780  -30.7950 C   0  0  0  0  0  0  0  0  0  0  0  0
   -4.9180   25.2160  -30.5950 C   0  0  0  0  0  0  0  0  0  0  0  0
   -5.5160   26.3220  -30.5030 O   0  0  0  0  0  0  0  0  0  0  0  0
   -3.4900   25.1930  -30.4550 N   0  0  0  0  0  0  0  0  0  0  0  0
   -2.7290   24.2210  -29.7230 C   0  0  0  0  0  0  0  0  0  0  0  0
   -2.3030   24.5320  -28.4280 C   0  0  0  0  0  0  0  0  0  0  0  0
   -1.5580   23.6100  -27.6890 C   0  0  0  0  0  0  0  0  0  0  0  0
   -1.2130   22.3710  -28.2410 C   0  0  0  0  0  0  0  0  0  0  0  0
   -0.4730   21.4780  -27.4650 O   0  0  0  0  0  0  0  0  0  0  0  0
   -1.6140   22.0610  -29.5570 C   0  0  0  0  0  0  0  0  0  0  0  0
   -1.1950   20.4900  -30.3250 S   0  0  0  0  0  0  0  0  0  0  0  0
   -1.7790   21.0010  -31.9700 C   0  0  0  0  0  0  0  0  0  0  0  0
   -2.3640   22.9890  -30.2900 C   0  0  0  0  0  0  0  0  0  0  0  0
   -5.2620   22.9760  -31.6720 C   0  0  0  0  0  0  0  0  0  0  0  0
   -6.0240   21.8200  -31.8870 C   0  0  0  0  0  0  0  0  0  0  0  0
   -5.4740   20.6090  -33.0470 S   0  0  0  0  0  0  0  0  0  0  0  0
   -6.5820   20.2730  -34.0070 O   0  0  0  0  0  0  0  0  0  0  0  0
   -4.3210   21.1790  -33.8260 O   0  0  0  0  0  0  0  0  0  0  0  0
   -4.9650   19.1760  -32.1760 N   0  0  0  0  0  0  0  0  0  0  0  0
   -6.1170   18.4170  -31.6420 C   0  0  0  0  0  0  0  0  0  0  0  0
   -6.4820   17.1990  -32.5080 C   0  0  0  0  0  0  0  0  0  0  0  0
   -6.2190   17.4700  -33.8650 O   0  0  0  0  0  0  0  0  0  0  0  0
   -4.8210   17.5530  -34.0860 C   0  0  0  0  0  0  0  0  0  0  0  0
   -4.0640   18.3390  -32.9880 C   0  0  0  0  0  0  0  0  0  0  0  0
  -10.0528   20.3894  -31.7285 H   0  0  0  0  0  0  0  0  0  0  0  0
   -9.1509   21.3343  -32.9616 H   0  0  0  0  0  0  0  0  0  0  0  0
   -9.0601   19.5403  -32.9616 H   0  0  0  0  0  0  0  0  0  0  0  0
   -8.6216   22.5078  -29.7617 H   0  0  0  0  0  0  0  0  0  0  0  0
   -7.2550   24.5523  -29.3875 H   0  0  0  0  0  0  0  0  0  0  0  0
   -2.5560   25.5082  -27.9887 H   0  0  0  0  0  0  0  0  0  0  0  0
   -1.2402   23.8595  -26.6659 H   0  0  0  0  0  0  0  0  0  0  0  0
   -0.4140   20.4890  -27.6710 H   0  0  0  0  0  0  0  0  0  0  0  0
   -2.6026   21.7217  -31.8591 H   0  0  0  0  0  0  0  0  0  0  0  0
   -0.9524   21.4711  -32.5229 H   0  0  0  0  0  0  0  0  0  0  0  0
   -2.1352   20.1193  -32.5229 H   0  0  0  0  0  0  0  0  0  0  0  0
   -2.6701   22.7508  -31.3194 H   0  0  0  0  0  0  0  0  0  0  0  0
   -4.3030   23.1001  -32.1964 H   0  0  0  0  0  0  0  0  0  0  0  0
   -5.8679   18.0663  -30.6296 H   0  0  0  0  0  0  0  0  0  0  0  0
   -6.9852   19.0924  -31.6380 H   0  0  0  0  0  0  0  0  0  0  0  0
   -5.8837   16.3333  -32.1879 H   0  0  0  0  0  0  0  0  0  0  0  0
   -7.5533   16.9809  -32.3869 H   0  0  0  0  0  0  0  0  0  0  0  0
   -4.4142   16.5317  -34.1253 H   0  0  0  0  0  0  0  0  0  0  0  0
   -4.6762   18.0985  -35.0302 H   0  0  0  0  0  0  0  0  0  0  0  0
   -3.5558   17.6219  -32.3266 H   0  0  0  0  0  0  0  0  0  0  0  0
   -3.3450   19.0054  -33.4870 H   0  0  0  0  0  0  0  0  0  0  0  0
  1  2  1  0
  2  3  1  0
  3  4  2  0
  4  5  1  0
  5  6  2  0
  6  7  1  0
  7  8  2  0
  7  9  1  0
  9 10  1  0
 10 11  2  0
 11 12  1  0
 12 13  2  0
 13 14  1  0
 13 15  1  0
 15 16  1  0
 16 17  1  0
 15 18  2  0
  6 19  1  0
 19 20  2  0
 20 21  1  0
 21 22  2  0
 21 23  2  0
 21 24  1  0
 24 25  1  0
 25 26  1  0
 26 27  1  0
 27 28  1  0
 28 29  1  0
 20  3  1  0
 29 24  1  0
 18 10  1  0
  1 30  1  0
  1 31  1  0
  1 32  1  0
  4 33  1  0
  5 34  1  0
 11 35  1  0
 12 36  1  0
 14 37  1  0
 17 38  1  0
 17 39  1  0
 17 40  1  0
 18 41  1  0
 19 42  1  0
 25 43  1  0
 25 44  1  0
 26 45  1  0
 26 46  1  0
 28 47  1  0
 28 48  1  0
 29 49  1  0
 29 50  1  0
M  CHG  1   9  -1
M  END
>  <UniqueID>  (9) 
9

>  <SMILES>  (9) 
COc1ccc(C(=O)[N-]c2ccc(O)c(SC)c2)cc1S(=O)(=O)N1CCOCC1

>  <Energy>  (9) 
61.68797399895615

>  <Genealogy>  (9) 
COc1ccc(C(=O)[N-]c2ccc(O)c(SC)c2)cc1S(=O)(=O)N1CCOCC1 (protonated)
COc1ccc(C(=O)[N-]c2ccc(O)c(SC)c2)cc1S(=O)(=O)N1CCOCC1 (3D coordinates assigned)
COc1ccc(C(=O)[N-]c2ccc(O)c(SC)c2)cc1S(=O)(=O)N1CCOCC1 (nonaromatic ring conformer: 61.68797399895615 kcal/mol)

>  <smiles>  (9) 
COc1ccc(C(=O)Nc2ccc(O)c(SC)c2)cc1S(=O)(=O)N1CCOCC1

>  <score_type>  (9) 
oracle

>  <origin>  (9) 
adgpu

>  <m_score__min__energy>  (9) 
-9.9399999999999995

>  <m_primary>  (9) 
energy

$$$$
9:0
     RDKit          3D

 51 53  0  0  0  0  0  0  0  0999 V2000
   -7.3410   21.4070  -30.8640 C   0  0  0  0  0  0  0  0  0  0  0  0
   -8.5940   20.6380  -30.8830 N   0  0  0  0  0  0  0  0  0  0  0  0
   -9.7410   21.5390  -31.0760 C   0  0  0  0  0  0  0  0  0  0  0  0
   -8.5430   19.4520  -32.1690 S   0  0  0  0  0  0  0  0  0  0  0  0
   -9.4070   18.2770  -31.7990 O   0  0  0  0  0  0  0  0  0  0  0  0
   -9.0960   20.0560  -33.4310 O   0  0  0  0  0  0  0  0  0  0  0  0
   -6.8970   18.8860  -32.4720 C   0  0  0  0  0  0  0  0  0  0  0  0
   -6.5740   17.5320  -32.3070 C   0  0  0  0  0  0  0  0  0  0  0  0
   -5.2640   17.0940  -32.5200 C   0  0  0  0  0  0  0  0  0  0  0  0
   -4.2630   18.0000  -32.8990 C   0  0  0  0  0  0  0  0  0  0  0  0
   -2.9640   17.5260  -33.0930 O   0  0  0  0  0  0  0  0  0  0  0  0
   -4.5790   19.3600  -33.0790 C   0  0  0  0  0  0  0  0  0  0  0  0
   -3.5360   20.2950  -33.3930 N   0  0  0  0  0  0  0  0  0  0  0  0
   -2.8440   21.1200  -32.4440 C   0  0  0  0  0  0  0  0  0  0  0  0
   -1.6530   20.8460  -32.1290 O   0  0  0  0  0  0  0  0  0  0  0  0
   -3.5290   22.2780  -31.8230 C   0  0  0  0  0  0  0  0  0  0  0  0
   -4.8460   22.6130  -32.1950 C   0  0  0  0  0  0  0  0  0  0  0  0
   -5.4700   23.7380  -31.6500 C   0  0  0  0  0  0  0  0  0  0  0  0
   -4.7910   24.5400  -30.7290 C   0  0  0  0  0  0  0  0  0  0  0  0
   -3.4760   24.2220  -30.3430 C   0  0  0  0  0  0  0  0  0  0  0  0
   -2.7520   25.0100  -29.3920 N   0  0  0  0  0  0  0  0  0  0  0  0
   -1.4760   24.3960  -28.3810 S   0  0  0  0  0  0  0  0  0  0  0  0
   -1.5450   25.0730  -27.0420 O   0  0  0  0  0  0  0  0  0  0  0  0
   -0.1320   24.6980  -28.9970 O   0  0  0  0  0  0  0  0  0  0  0  0
   -1.7050   22.6550  -28.1520 C   0  0  0  0  0  0  0  0  0  0  0  0
   -0.5940   21.8030  -28.2340 C   0  0  0  0  0  0  0  0  0  0  0  0
   -0.7410   20.4310  -28.0040 C   0  0  0  0  0  0  0  0  0  0  0  0
   -1.9960   19.9080  -27.6830 C   0  0  0  0  0  0  0  0  0  0  0  0
   -3.1090   20.7510  -27.5990 C   0  0  0  0  0  0  0  0  0  0  0  0
   -2.9650   22.1250  -27.8330 C   0  0  0  0  0  0  0  0  0  0  0  0
   -2.8570   23.0870  -30.8810 C   0  0  0  0  0  0  0  0  0  0  0  0
   -5.9000   19.7930  -32.8580 C   0  0  0  0  0  0  0  0  0  0  0  0
   -7.0399   21.5918  -29.8223 H   0  0  0  0  0  0  0  0  0  0  0  0
   -6.5530   20.8368  -31.3778 H   0  0  0  0  0  0  0  0  0  0  0  0
   -7.4926   22.3678  -31.3778 H   0  0  0  0  0  0  0  0  0  0  0  0
  -10.1338   21.8476  -30.0960 H   0  0  0  0  0  0  0  0  0  0  0  0
   -9.4185   22.4278  -31.6382 H   0  0  0  0  0  0  0  0  0  0  0  0
  -10.5282   21.0152  -31.6382 H   0  0  0  0  0  0  0  0  0  0  0  0
   -7.3522   16.8136  -32.0096 H   0  0  0  0  0  0  0  0  0  0  0  0
   -5.0162   16.0303  -32.3893 H   0  0  0  0  0  0  0  0  0  0  0  0
   -2.1770   18.1460  -33.2530 H   0  0  0  0  0  0  0  0  0  0  0  0
   -5.3862   21.9851  -32.9188 H   0  0  0  0  0  0  0  0  0  0  0  0
   -6.4981   23.9930  -31.9466 H   0  0  0  0  0  0  0  0  0  0  0  0
   -5.2873   25.4247  -30.3035 H   0  0  0  0  0  0  0  0  0  0  0  0
    0.3959   22.2148  -28.4799 H   0  0  0  0  0  0  0  0  0  0  0  0
    0.1310   19.7644  -28.0759 H   0  0  0  0  0  0  0  0  0  0  0  0
   -2.1092   18.8300  -27.4957 H   0  0  0  0  0  0  0  0  0  0  0  0
   -4.0965   20.3356  -27.3494 H   0  0  0  0  0  0  0  0  0  0  0  0
   -3.8398   22.7886  -27.7667 H   0  0  0  0  0  0  0  0  0  0  0  0
   -1.8365   22.8229  -30.5664 H   0  0  0  0  0  0  0  0  0  0  0  0
   -6.1530   20.8554  -32.9897 H   0  0  0  0  0  0  0  0  0  0  0  0
  1  2  1  0
  2  3  1  0
  2  4  1  0
  4  5  2  0
  4  6  2  0
  4  7  1  0
  7  8  2  0
  8  9  1  0
  9 10  2  0
 10 11  1  0
 10 12  1  0
 12 13  1  0
 13 14  1  0
 14 15  2  0
 14 16  1  0
 16 17  2  0
 17 18  1  0
 18 19  2  0
 19 20  1  0
 20 21  1  0
 21 22  1  0
 22 23  2  0
 22 24  2  0
 22 25  1  0
 25 26  2  0
 26 27  1  0
 27 28  2  0
 28 29  1  0
 29 30  2  0
 20 31  2  0
 12 32  2  0
 32  7  1  0
 31 16  1  0
 30 25  1  0
  1 33  1  0
  1 34  1  0
  1 35  1  0
  3 36  1  0
  3 37  1  0
  3 38  1  0
  8 39  1  0
  9 40  1  0
 11 41  1  0
 17 42  1  0
 18 43  1  0
 19 44  1  0
 26 45  1  0
 27 46  1  0
 28 47  1  0
 29 48  1  0
 30 49  1  0
 31 50  1  0
 32 51  1  0
M  CHG  2  13  -1  21  -1
M  END
>  <UniqueID>  (10) 
10

>  <SMILES>  (10) 
CN(C)S(=O)(=O)c1ccc(O)c([N-]C(=O)c2cccc([N-]S(=O)(=O)c3ccccc3)c2)c1

>  <Energy>  (10) 
60.577622556077245

>  <Genealogy>  (10) 
CN(C)S(=O)(=O)c1ccc(O)c([N-]C(=O)c2cccc([N-]S(=O)(=O)c3ccccc3)c2)c1 (protonated)
CN(C)S(=O)(=O)c1ccc(O)c([N-]C(=O)c2cccc([N-]S(=O)(=O)c3ccccc3)c2)c1 (3D coordinates assigned)
CN(C)S(=O)(=O)c1ccc(O)c([N-]C(=O)c2cccc([N-]S(=O)(=O)c3ccccc3)c2)c1 (optimized conformer: 60.577622556077245 kcal/mol)

>  <smiles>  (10) 
CN(C)S(=O)(=O)c1ccc(O)c(NC(=O)c2cccc(NS(=O)(=O)c3ccccc3)c2)c1

>  <score_type>  (10) 
oracle

>  <origin>  (10) 
adgpu

>  <m_score__min__energy>  (10) 
-11.65

>  <m_primary>  (10) 
energy

$$$$
10:0
     RDKit          3D

 30 31  0  0  0  0  0  0  0  0999 V2000
   -9.1000   20.0460  -33.0950 N   0  0  0  0  0  0  0  0  0  0  0  0
   -7.9140   19.5010  -31.9620 S   0  0  0  0  0  0  0  0  0  0  0  0
   -7.4300   20.6830  -31.1700 O   0  0  0  0  0  0  0  0  0  0  0  0
   -8.5330   18.5040  -31.0240 O   0  0  0  0  0  0  0  0  0  0  0  0
   -6.5650   18.7450  -32.8200 C   0  0  0  0  0  0  0  0  0  0  0  0
   -6.8280   17.7110  -33.7340 C   0  0  0  0  0  0  0  0  0  0  0  0
   -5.7830   17.0820  -34.4130 C   0  0  0  0  0  0  0  0  0  0  0  0
   -4.4660   17.4820  -34.1920 C   0  0  0  0  0  0  0  0  0  0  0  0
   -4.1880   18.5100  -33.2890 C   0  0  0  0  0  0  0  0  0  0  0  0
   -5.2300   19.1460  -32.5880 C   0  0  0  0  0  0  0  0  0  0  0  0
   -4.9340   20.2370  -31.6980 N   0  0  0  0  0  0  0  0  0  0  0  0
   -4.0900   21.3430  -32.0530 C   0  0  0  0  0  0  0  0  0  0  0  0
   -3.3460   21.2790  -33.0690 O   0  0  0  0  0  0  0  0  0  0  0  0
   -4.0980   22.5900  -31.2240 C   0  0  0  0  0  0  0  0  0  0  0  0
   -3.8200   22.1940  -29.4640 S   0  0  0  0  0  0  0  0  0  0  0  0
   -2.6110   23.4930  -29.2030 C   0  0  0  0  0  0  0  0  0  0  0  0
   -1.4800   23.3380  -28.4930 N   0  0  0  0  0  0  0  0  0  0  0  0
   -0.8930   24.5510  -28.5870 C   0  0  0  0  0  0  0  0  0  0  0  0
    0.2130   24.8120  -28.0470 O   0  0  0  0  0  0  0  0  0  0  0  0
   -1.5830   25.4630  -29.3070 N   0  0  0  0  0  0  0  0  0  0  0  0
   -2.6710   24.7730  -29.6870 C   0  0  0  0  0  0  0  0  0  0  0  0
   -3.6920   25.3020  -30.4660 O   0  0  0  0  0  0  0  0  0  0  0  0
   -8.8020   19.7050  -34.0360 H   0  0  0  0  0  0  0  0  0  0  0  0
   -7.8656   17.3945  -33.9161 H   0  0  0  0  0  0  0  0  0  0  0  0
   -5.9989   16.2701  -35.1230 H   0  0  0  0  0  0  0  0  0  0  0  0
   -3.6442   16.9868  -34.7300 H   0  0  0  0  0  0  0  0  0  0  0  0
   -3.1471   18.8252  -33.1241 H   0  0  0  0  0  0  0  0  0  0  0  0
   -5.3650   20.2360  -30.7470 H   0  0  0  0  0  0  0  0  0  0  0  0
   -3.3001   23.2616  -31.5737 H   0  0  0  0  0  0  0  0  0  0  0  0
   -5.0786   23.0777  -31.3269 H   0  0  0  0  0  0  0  0  0  0  0  0
  1  2  1  0
  2  3  2  0
  2  4  2  0
  2  5  1  0
  5  6  2  0
  6  7  1  0
  7  8  2  0
  8  9  1  0
  9 10  2  0
 10 11  1  0
 11 12  1  0
 12 13  2  0
 12 14  1  0
 14 15  1  0
 15 16  1  0
 16 17  1  0
 17 18  1  0
 18 19  2  0
 18 20  1  0
 20 21  1  0
 21 22  1  0
 10  5  1  0
 21 16  2  0
  1 23  1  0
  6 24  1  0
  7 25  1  0
  8 26  1  0
  9 27  1  0
 11 28  1  0
 14 29  1  0
 14 30  1  0
M  CHG  4   1  -1  17  -1  20  -1  22  -1
M  END
>  <UniqueID>  (11) 
11

>  <SMILES>  (11) 
[NH-]S(=O)(=O)c1ccccc1NC(=O)CSc1[n-]c(=O)[n-]c1[O-]

>  <Energy>  (11) 
58.663978847460285

>  <Genealogy>  (11) 
[NH-]S(=O)(=O)c1ccccc1NC(=O)CSc1[n-]c(=O)[n-]c1[O-] (protonated)
[NH-]S(=O)(=O)c1ccccc1NC(=O)CSc1[n-]c(=O)[n-]c1[O-] (3D coordinates assigned)
[NH-]S(=O)(=O)c1ccccc1NC(=O)CSc1[n-]c(=O)[n-]c1[O-] (optimized conformer: 58.663978847460285 kcal/mol)

>  <smiles>  (11) 
NS(=O)(=O)c1ccccc1NC(=O)CSc1[nH]c(=O)[nH]c1O

>  <score_type>  (11) 
oracle

>  <origin>  (11) 
adgpu

>  <m_score__min__energy>  (11) 
-13.08

>  <m_primary>  (11) 
energy

$$$$
11:0
     RDKit          3D

 54 57  0  0  0  0  0  0  0  0999 V2000
   -1.5770   20.5120  -25.8590 C   0  0  0  0  0  0  0  0  0  0  0  0
   -0.7210   20.3100  -27.0400 N   0  0  0  0  0  0  0  0  0  0  0  0
   -1.4300   19.6370  -28.1470 C   0  0  0  0  0  0  0  0  0  0  0  0
   -2.5750   20.4890  -28.7140 C   0  0  0  0  0  0  0  0  0  0  0  0
   -2.1800   21.9310  -28.8950 C   0  0  0  0  0  0  0  0  0  0  0  0
   -3.0200   22.7780  -29.6320 C   0  0  0  0  0  0  0  0  0  0  0  0
   -2.7360   24.1460  -29.7390 C   0  0  0  0  0  0  0  0  0  0  0  0
   -3.5970   25.0180  -30.4750 N   0  0  0  0  0  0  0  0  0  0  0  0
   -5.3160   25.0760  -30.2450 S   0  0  0  0  0  0  0  0  0  0  0  0
   -5.6120   25.2660  -28.7830 O   0  0  0  0  0  0  0  0  0  0  0  0
   -5.8660   26.2540  -30.9990 O   0  0  0  0  0  0  0  0  0  0  0  0
   -6.1100   23.6070  -30.8130 C   0  0  0  0  0  0  0  0  0  0  0  0
   -5.7190   23.0070  -32.0180 C   0  0  0  0  0  0  0  0  0  0  0  0
   -6.3400   21.8330  -32.4520 C   0  0  0  0  0  0  0  0  0  0  0  0
   -7.3540   21.2450  -31.6850 C   0  0  0  0  0  0  0  0  0  0  0  0
   -8.1160   19.7570  -32.2450 S   0  0  0  0  0  0  0  0  0  0  0  0
   -8.9900   19.1840  -31.1610 O   0  0  0  0  0  0  0  0  0  0  0  0
   -8.9710   20.0750  -33.4390 O   0  0  0  0  0  0  0  0  0  0  0  0
   -6.8910   18.5940  -32.6930 N   0  0  0  0  0  0  0  0  0  0  0  0
   -6.4370   18.8520  -34.0730 C   0  0  0  0  0  0  0  0  0  0  0  0
   -5.0530   18.2300  -34.3150 C   0  0  0  0  0  0  0  0  0  0  0  0
   -4.0330   18.7350  -33.4600 O   0  0  0  0  0  0  0  0  0  0  0  0
   -4.5250   19.2940  -32.2490 C   0  0  0  0  0  0  0  0  0  0  0  0
   -5.7820   18.5820  -31.7130 C   0  0  0  0  0  0  0  0  0  0  0  0
   -7.7380   21.8370  -30.4730 C   0  0  0  0  0  0  0  0  0  0  0  0
   -7.1210   23.0160  -30.0420 C   0  0  0  0  0  0  0  0  0  0  0  0
   -1.5720   24.6580  -29.1530 C   0  0  0  0  0  0  0  0  0  0  0  0
   -1.2520   26.0040  -29.2900 O   0  0  0  0  0  0  0  0  0  0  0  0
   -0.7300   23.8200  -28.4160 C   0  0  0  0  0  0  0  0  0  0  0  0
   -1.0420   22.4620  -28.2560 C   0  0  0  0  0  0  0  0  0  0  0  0
   -0.0920   21.5670  -27.4910 C   0  0  0  0  0  0  0  0  0  0  0  0
   -0.9806   20.3713  -24.9455 H   0  0  0  0  0  0  0  0  0  0  0  0
   -1.9886   21.5320  -25.8746 H   0  0  0  0  0  0  0  0  0  0  0  0
   -2.4012   19.7837  -25.8746 H   0  0  0  0  0  0  0  0  0  0  0  0
   -0.7107   19.4307  -28.9533 H   0  0  0  0  0  0  0  0  0  0  0  0
   -1.8678   18.7094  -27.7496 H   0  0  0  0  0  0  0  0  0  0  0  0
   -2.8713   20.0783  -29.6905 H   0  0  0  0  0  0  0  0  0  0  0  0
   -3.4066   20.4560  -27.9948 H   0  0  0  0  0  0  0  0  0  0  0  0
   -3.9094   22.3651  -30.1304 H   0  0  0  0  0  0  0  0  0  0  0  0
   -4.9211   23.4616  -32.6236 H   0  0  0  0  0  0  0  0  0  0  0  0
   -6.0313   21.3685  -33.4001 H   0  0  0  0  0  0  0  0  0  0  0  0
   -7.1583   18.4134  -34.7783 H   0  0  0  0  0  0  0  0  0  0  0  0
   -6.3674   19.9392  -34.2248 H   0  0  0  0  0  0  0  0  0  0  0  0
   -5.1297   17.1440  -34.1577 H   0  0  0  0  0  0  0  0  0  0  0  0
   -4.7631   18.4900  -35.3438 H   0  0  0  0  0  0  0  0  0  0  0  0
   -3.7344   19.2264  -31.4872 H   0  0  0  0  0  0  0  0  0  0  0  0
   -4.8079   20.3352  -32.4632 H   0  0  0  0  0  0  0  0  0  0  0  0
   -5.5258   17.5378  -31.4805 H   0  0  0  0  0  0  0  0  0  0  0  0
   -6.1186   19.1207  -30.8150 H   0  0  0  0  0  0  0  0  0  0  0  0
   -8.5254   21.3735  -29.8605 H   0  0  0  0  0  0  0  0  0  0  0  0
   -7.4302   23.4814  -29.0944 H   0  0  0  0  0  0  0  0  0  0  0  0
    0.1832   24.2284  -27.9586 H   0  0  0  0  0  0  0  0  0  0  0  0
    0.7582   21.3191  -28.1435 H   0  0  0  0  0  0  0  0  0  0  0  0
    0.2263   22.1164  -26.5928 H   0  0  0  0  0  0  0  0  0  0  0  0
  1  2  1  0
  2  3  1  0
  3  4  1  0
  4  5  1  0
  5  6  2  0
  6  7  1  0
  7  8  1  0
  8  9  1  0
  9 10  2  0
  9 11  2  0
  9 12  1  0
 12 13  2  0
 13 14  1  0
 14 15  2  0
 15 16  1  0
 16 17  2  0
 16 18  2  0
 16 19  1  0
 19 20  1  0
 20 21  1  0
 21 22  1  0
 22 23  1  0
 23 24  1  0
 15 25  1  0
 25 26  2  0
  7 27  2  0
 27 28  1  0
 27 29  1  0
 29 30  2  0
 30 31  1  0
 31  2  1  0
 30  5  1  0
 26 12  1  0
 24 19  1  0
  1 32  1  0
  1 33  1  0
  1 34  1  0
  3 35  1  0
  3 36  1  0
  4 37  1  0
  4 38  1  0
  6 39  1  0
 13 40  1  0
 14 41  1  0
 20 42  1  0
 20 43  1  0
 21 44  1  0
 21 45  1  0
 23 46  1  0
 23 47  1  0
 24 48  1  0
 24 49  1  0
 25 50  1  0
 26 51  1  0
 29 52  1  0
 31 53  1  0
 31 54  1  0
M  CHG  2   8  -1  28  -1
M  END
>  <UniqueID>  (12) 
12

>  <SMILES>  (12) 
CN1CCc2cc([N-]S(=O)(=O)c3ccc(S(=O)(=O)N4CCOCC4)cc3)c([O-])cc2C1

>  <Energy>  (12) 
79.50881489764011

>  <Genealogy>  (12) 
CN1CCc2cc([N-]S(=O)(=O)c3ccc(S(=O)(=O)N4CCOCC4)cc3)c([O-])cc2C1 (protonated)
CN1CCc2cc([N-]S(=O)(=O)c3ccc(S(=O)(=O)N4CCOCC4)cc3)c([O-])cc2C1 (3D coordinates assigned)
CN1CCc2cc([N-]S(=O)(=O)c3ccc(S(=O)(=O)N4CCOCC4)cc3)c([O-])cc2C1 (nonaromatic ring conformer: 79.50881489764011 kcal/mol)

>  <smiles>  (12) 
CN1CCc2cc(NS(=O)(=O)c3ccc(S(=O)(=O)N4CCOCC4)cc3)c(O)cc2C1

>  <score_type>  (12) 
oracle

>  <origin>  (12) 
adgpu

>  <m_score__min__energy>  (12) 
-15.25

>  <m_primary>  (12) 
energy

$$$$
12:0
     RDKit          3D

 57 59  0  0  0  0  0  0  0  0999 V2000
   -1.0200   20.7770  -34.6280 C   0  0  0  0  0  0  0  0  0  0  0  0
   -0.4970   20.6900  -33.2320 C   0  0  0  0  0  0  0  0  0  0  0  0
    0.6370   21.1700  -32.9630 O   0  0  0  0  0  0  0  0  0  0  0  0
   -1.2890   20.0680  -32.2120 N   0  0  0  0  0  0  0  0  0  0  0  0
   -0.8160   19.7980  -30.8810 C   0  0  0  0  0  0  0  0  0  0  0  0
    0.2940   18.9640  -30.6500 C   0  0  0  0  0  0  0  0  0  0  0  0
    0.7190   18.7050  -29.3430 C   0  0  0  0  0  0  0  0  0  0  0  0
    0.0360   19.2630  -28.2580 C   0  0  0  0  0  0  0  0  0  0  0  0
   -1.0860   20.0730  -28.4750 C   0  0  0  0  0  0  0  0  0  0  0  0
   -1.9690   20.7720  -27.1190 S   0  0  0  0  0  0  0  0  0  0  0  0
   -3.4440   20.7870  -27.4100 O   0  0  0  0  0  0  0  0  0  0  0  0
   -1.7160   19.9460  -25.8910 O   0  0  0  0  0  0  0  0  0  0  0  0
   -1.4150   22.3980  -26.8430 N   0  0  0  0  0  0  0  0  0  0  0  0
   -1.2750   23.1220  -28.1090 C   0  0  0  0  0  0  0  0  0  0  0  0
   -2.6540   23.5150  -28.6340 C   0  0  0  0  0  0  0  0  0  0  0  0
   -2.6050   24.8590  -29.2920 C   0  0  0  0  0  0  0  0  0  0  0  0
   -1.7040   25.6780  -28.9680 O   0  0  0  0  0  0  0  0  0  0  0  0
   -3.5390   25.1640  -30.3350 N   0  0  0  0  0  0  0  0  0  0  0  0
   -4.5930   24.3200  -30.8210 C   0  0  0  0  0  0  0  0  0  0  0  0
   -5.9470   24.6930  -30.7440 C   0  0  0  0  0  0  0  0  0  0  0  0
   -6.9440   23.8230  -31.1940 C   0  0  0  0  0  0  0  0  0  0  0  0
   -6.6030   22.5710  -31.7090 C   0  0  0  0  0  0  0  0  0  0  0  0
   -5.2600   22.1820  -31.7770 C   0  0  0  0  0  0  0  0  0  0  0  0
   -4.8360   20.5840  -32.3810 S   0  0  0  0  0  0  0  0  0  0  0  0
   -4.1350   19.8000  -31.3060 O   0  0  0  0  0  0  0  0  0  0  0  0
   -3.9030   20.7340  -33.5510 O   0  0  0  0  0  0  0  0  0  0  0  0
   -6.2890   19.7620  -32.8910 N   0  0  0  0  0  0  0  0  0  0  0  0
   -7.2190   19.5490  -31.7730 C   0  0  0  0  0  0  0  0  0  0  0  0
   -7.7690   18.1300  -31.8870 C   0  0  0  0  0  0  0  0  0  0  0  0
   -7.2090   17.5900  -33.1860 C   0  0  0  0  0  0  0  0  0  0  0  0
   -5.9820   18.4390  -33.4290 C   0  0  0  0  0  0  0  0  0  0  0  0
   -4.2600   23.0560  -31.3220 C   0  0  0  0  0  0  0  0  0  0  0  0
   -1.5110   20.3320  -29.7850 C   0  0  0  0  0  0  0  0  0  0  0  0
   -2.1048   20.9575  -34.6026 H   0  0  0  0  0  0  0  0  0  0  0  0
   -0.5228   21.6048  -35.1549 H   0  0  0  0  0  0  0  0  0  0  0  0
   -0.8176   19.8328  -35.1549 H   0  0  0  0  0  0  0  0  0  0  0  0
   -2.3030   19.9250  -32.4080 H   0  0  0  0  0  0  0  0  0  0  0  0
    0.8287   18.5147  -31.4998 H   0  0  0  0  0  0  0  0  0  0  0  0
    1.5931   18.0605  -29.1681 H   0  0  0  0  0  0  0  0  0  0  0  0
    0.3804   19.0655  -27.2321 H   0  0  0  0  0  0  0  0  0  0  0  0
   -0.6737   24.0287  -27.9468 H   0  0  0  0  0  0  0  0  0  0  0  0
   -0.7766   22.4742  -28.8452 H   0  0  0  0  0  0  0  0  0  0  0  0
   -2.9886   22.7659  -29.3667 H   0  0  0  0  0  0  0  0  0  0  0  0
   -3.3555   23.5602  -27.7879 H   0  0  0  0  0  0  0  0  0  0  0  0
   -6.2223   25.6734  -30.3279 H   0  0  0  0  0  0  0  0  0  0  0  0
   -8.0003   24.1256  -31.1422 H   0  0  0  0  0  0  0  0  0  0  0  0
   -7.3908   21.8892  -32.0619 H   0  0  0  0  0  0  0  0  0  0  0  0
   -6.6884   19.6689  -30.8169 H   0  0  0  0  0  0  0  0  0  0  0  0
   -8.0380   20.2824  -31.8097 H   0  0  0  0  0  0  0  0  0  0  0  0
   -7.4332   17.5168  -31.0378 H   0  0  0  0  0  0  0  0  0  0  0  0
   -8.8688   18.1133  -31.8751 H   0  0  0  0  0  0  0  0  0  0  0  0
   -6.9377   16.5288  -33.0849 H   0  0  0  0  0  0  0  0  0  0  0  0
   -7.9314   17.6388  -34.0141 H   0  0  0  0  0  0  0  0  0  0  0  0
   -5.1121   18.0091  -32.9109 H   0  0  0  0  0  0  0  0  0  0  0  0
   -5.7347   18.4891  -34.4997 H   0  0  0  0  0  0  0  0  0  0  0  0
   -3.2056   22.7448  -31.3595 H   0  0  0  0  0  0  0  0  0  0  0  0
   -2.3979   20.9599  -29.9558 H   0  0  0  0  0  0  0  0  0  0  0  0
  1  2  1  0
  2  3  2  0
  2  4  1  0
  4  5  1  0
  5  6  2  0
  6  7  1  0
  7  8  2  0
  8  9  1  0
  9 10  1  0
 10 11  2  0
 10 12  2  0
 10 13  1  0
 13 14  1  0
 14 15  1  0
 15 16  1  0
 16 17  2  0
 16 18  1  0
 18 19  1  0
 19 20  2  0
 20 21  1  0
 21 22  2  0
 22 23  1  0
 23 24  1  0
 24 25  2  0
 24 26  2  0
 24 27  1  0
 27 28  1  0
 28 29  1  0
 29 30  1  0
 30 31  1  0
 23 32  2  0
  9 33  2  0
 33  5  1  0
 32 19  1  0
 31 27  1  0
  1 34  1  0
  1 35  1  0
  1 36  1  0
  4 37  1  0
  6 38  1  0
  7 39  1  0
  8 40  1  0
 14 41  1  0
 14 42  1  0
 15 43  1  0
 15 44  1  0
 20 45  1  0
 21 46  1  0
 22 47  1  0
 28 48  1  0
 28 49  1  0
 29 50  1  0
 29 51  1  0
 30 52  1  0
 30 53  1  0
 31 54  1  0
 31 55  1  0
 32 56  1  0
 33 57  1  0
M  CHG  2  13  -1  18  -1
M  END
>  <UniqueID>  (13) 
13

>  <SMILES>  (13) 
CC(=O)Nc1cccc(S(=O)(=O)[N-]CCC(=O)[N-]c2cccc(S(=O)(=O)N3CCCC3)c2)c1

>  <Energy>  (13) 
60.27479387523352

>  <Genealogy>  (13) 
CC(=O)Nc1cccc(S(=O)(=O)[N-]CCC(=O)[N-]c2cccc(S(=O)(=O)N3CCCC3)c2)c1 (protonated)
CC(=O)Nc1cccc(S(=O)(=O)[N-]CCC(=O)[N-]c2cccc(S(=O)(=O)N3CCCC3)c2)c1 (3D coordinates assigned)
CC(=O)Nc1cccc(S(=O)(=O)[N-]CCC(=O)[N-]c2cccc(S(=O)(=O)N3CCCC3)c2)c1 (nonaromatic ring conformer: 60.27479387523352 kcal/mol)

>  <smiles>  (13) 
CC(=O)Nc1cccc(S(=O)(=O)NCCC(=O)Nc2cccc(S(=O)(=O)N3CCCC3)c2)c1

>  <score_type>  (13) 
oracle

>  <origin>  (13) 
adgpu

>  <m_score__min__energy>  (13) 
-12.16

>  <m_primary>  (13) 
energy

$$$$
13:0
     RDKit          3D

 57 60  0  0  0  0  0  0  0  0999 V2000
    0.2980   18.9280  -32.4310 C   0  0  0  0  0  0  0  0  0  0  0  0
   -1.1820   18.6620  -32.1290 C   0  0  0  0  0  0  0  0  0  0  0  0
   -2.0570   19.9000  -32.4490 C   0  0  0  0  0  0  0  0  0  0  0  0
   -2.7220   19.7850  -33.8290 C   0  0  0  0  0  0  0  0  0  0  0  0
   -3.5760   18.5780  -33.9600 N   0  0  0  0  0  0  0  0  0  0  0  0
   -5.2630   18.9640  -33.7150 S   0  0  0  0  0  0  0  0  0  0  0  0
   -5.9330   19.1900  -35.0430 O   0  0  0  0  0  0  0  0  0  0  0  0
   -5.9580   17.8270  -33.0170 O   0  0  0  0  0  0  0  0  0  0  0  0
   -5.4040   20.4360  -32.7570 C   0  0  0  0  0  0  0  0  0  0  0  0
   -6.2770   20.4930  -31.6620 C   0  0  0  0  0  0  0  0  0  0  0  0
   -6.3860   21.6670  -30.9100 C   0  0  0  0  0  0  0  0  0  0  0  0
   -5.6250   22.7940  -31.2500 C   0  0  0  0  0  0  0  0  0  0  0  0
   -5.8020   24.3030  -30.3590 S   0  0  0  0  0  0  0  0  0  0  0  0
   -5.3390   25.4720  -31.1830 O   0  0  0  0  0  0  0  0  0  0  0  0
   -7.2540   24.4920  -30.0170 O   0  0  0  0  0  0  0  0  0  0  0  0
   -4.8700   24.2290  -28.8960 N   0  0  0  0  0  0  0  0  0  0  0  0
   -3.6700   23.4440  -28.7660 C   0  0  0  0  0  0  0  0  0  0  0  0
   -3.7150   22.1220  -28.2880 C   0  0  0  0  0  0  0  0  0  0  0  0
   -2.5410   21.3710  -28.1370 C   0  0  0  0  0  0  0  0  0  0  0  0
   -1.2970   21.9500  -28.4590 C   0  0  0  0  0  0  0  0  0  0  0  0
   -1.2540   23.2520  -28.9740 C   0  0  0  0  0  0  0  0  0  0  0  0
   -2.4270   23.9970  -29.1230 C   0  0  0  0  0  0  0  0  0  0  0  0
   -2.3480   25.2960  -29.6170 O   0  0  0  0  0  0  0  0  0  0  0  0
   -0.0210   21.1460  -28.3530 C   0  0  0  0  0  0  0  0  0  0  0  0
   -0.1500   20.0090  -27.4310 N   0  0  0  0  0  0  0  0  0  0  0  0
   -1.3260   19.1960  -27.7670 C   0  0  0  0  0  0  0  0  0  0  0  0
   -2.6210   19.9880  -27.5450 C   0  0  0  0  0  0  0  0  0  0  0  0
   -4.7460   22.7330  -32.3390 C   0  0  0  0  0  0  0  0  0  0  0  0
   -4.6340   21.5580  -33.0870 C   0  0  0  0  0  0  0  0  0  0  0  0
   -3.1860   17.4500  -33.0850 C   0  0  0  0  0  0  0  0  0  0  0  0
   -1.6690   17.3990  -32.8750 C   0  0  0  0  0  0  0  0  0  0  0  0
    0.8528   19.0277  -31.4864 H   0  0  0  0  0  0  0  0  0  0  0  0
    0.7102   18.0895  -33.0116 H   0  0  0  0  0  0  0  0  0  0  0  0
    0.3925   19.8575  -33.0116 H   0  0  0  0  0  0  0  0  0  0  0  0
   -1.2856   18.4730  -31.0503 H   0  0  0  0  0  0  0  0  0  0  0  0
   -2.8405   19.9904  -31.6822 H   0  0  0  0  0  0  0  0  0  0  0  0
   -1.4066   20.7871  -32.4549 H   0  0  0  0  0  0  0  0  0  0  0  0
   -3.3459   20.6759  -33.9933 H   0  0  0  0  0  0  0  0  0  0  0  0
   -1.9191   19.7040  -34.5765 H   0  0  0  0  0  0  0  0  0  0  0  0
   -6.8781   19.6118  -31.3934 H   0  0  0  0  0  0  0  0  0  0  0  0
   -7.0704   21.7061  -30.0498 H   0  0  0  0  0  0  0  0  0  0  0  0
   -5.2870   24.6770  -28.0510 H   0  0  0  0  0  0  0  0  0  0  0  0
   -4.6845   21.6713  -28.0292 H   0  0  0  0  0  0  0  0  0  0  0  0
   -0.2883   23.6920  -29.2637 H   0  0  0  0  0  0  0  0  0  0  0  0
    0.2395   20.7637  -29.3510 H   0  0  0  0  0  0  0  0  0  0  0  0
    0.7621   21.8103  -27.9587 H   0  0  0  0  0  0  0  0  0  0  0  0
   -0.2530   20.3740  -26.4530 H   0  0  0  0  0  0  0  0  0  0  0  0
   -1.2652   18.8939  -28.8230 H   0  0  0  0  0  0  0  0  0  0  0  0
   -1.3393   18.3108  -27.1142 H   0  0  0  0  0  0  0  0  0  0  0  0
   -3.4544   19.4467  -28.0167 H   0  0  0  0  0  0  0  0  0  0  0  0
   -2.7776   20.0893  -26.4609 H   0  0  0  0  0  0  0  0  0  0  0  0
   -4.1421   23.6127  -32.6061 H   0  0  0  0  0  0  0  0  0  0  0  0
   -3.9385   21.5143  -33.9381 H   0  0  0  0  0  0  0  0  0  0  0  0
   -3.6780   17.5688  -32.1084 H   0  0  0  0  0  0  0  0  0  0  0  0
   -3.4984   16.5135  -33.5702 H   0  0  0  0  0  0  0  0  0  0  0  0
   -1.4156   16.5081  -32.2817 H   0  0  0  0  0  0  0  0  0  0  0  0
   -1.1756   17.3540  -33.8571 H   0  0  0  0  0  0  0  0  0  0  0  0
  1  2  1  0
  2  3  1  0
  3  4  1  0
  4  5  1  0
  5  6  1  0
  6  7  2  0
  6  8  2  0
  6  9  1  0
  9 10  2  0
 10 11  1  0
 11 12  2  0
 12 13  1  0
 13 14  2  0
 13 15  2  0
 13 16  1  0
 16 17  1  0
 17 18  2  0
 18 19  1  0
 19 20  2  0
 20 21  1  0
 21 22  2  0
 22 23  1  0
 20 24  1  0
 24 25  1  0
 25 26  1  0
 26 27  1  0
 12 28  1  0
 28 29  2  0
  5 30  1  0
 30 31  1  0
 31  2  1  0
 29  9  1  0
 22 17  1  0
 27 19  1  0
  1 32  1  0
  1 33  1  0
  1 34  1  0
  2 35  1  0
  3 36  1  0
  3 37  1  0
  4 38  1  0
  4 39  1  0
 10 40  1  0
 11 41  1  0
 16 42  1  0
 18 43  1  0
 21 44  1  0
 24 45  1  0
 24 46  1  0
 25 47  1  0
 26 48  1  0
 26 49  1  0
 27 50  1  0
 27 51  1  0
 28 52  1  0
 29 53  1  0
 30 54  1  0
 30 55  1  0
 31 56  1  0
 31 57  1  0
M  CHG  1  23  -1
M  END
>  <UniqueID>  (14) 
14

>  <SMILES>  (14) 
CC1CCN(S(=O)(=O)c2ccc(S(=O)(=O)Nc3cc4c(cc3[O-])CNCC4)cc2)CC1

>  <Energy>  (14) 
68.57493882686478

>  <Genealogy>  (14) 
CC1CCN(S(=O)(=O)c2ccc(S(=O)(=O)Nc3cc4c(cc3[O-])CNCC4)cc2)CC1 (protonated)
CC1CCN(S(=O)(=O)c2ccc(S(=O)(=O)Nc3cc4c(cc3[O-])CNCC4)cc2)CC1 (3D coordinates assigned)
CC1CCN(S(=O)(=O)c2ccc(S(=O)(=O)Nc3cc4c(cc3[O-])CNCC4)cc2)CC1 (nonaromatic ring conformer: 68.57493882686478 kcal/mol)

>  <smiles>  (14) 
CC1CCN(S(=O)(=O)c2ccc(S(=O)(=O)Nc3cc4c(cc3O)CNCC4)cc2)CC1

>  <score_type>  (14) 
oracle

>  <origin>  (14) 
adgpu

>  <m_score__min__energy>  (14) 
-14.94

>  <m_primary>  (14) 
energy

$$$$
14:0
     RDKit          3D

 44 46  0  0  0  0  0  0  0  0999 V2000
   -1.1400   26.7830  -24.8010 C   0  0  0  0  0  0  0  0  0  0  0  0
   -1.5850   26.0310  -26.0200 C   0  0  0  0  0  0  0  0  0  0  0  0
   -2.8020   25.3320  -26.0160 C   0  0  0  0  0  0  0  0  0  0  0  0
   -3.2200   24.6410  -27.1570 C   0  0  0  0  0  0  0  0  0  0  0  0
   -2.4250   24.6340  -28.3130 C   0  0  0  0  0  0  0  0  0  0  0  0
   -2.9160   23.9570  -29.5660 C   0  0  0  0  0  0  0  0  0  0  0  0
   -3.4900   24.9290  -30.5010 N   0  0  0  0  0  0  0  0  0  0  0  0
   -5.2310   24.9460  -30.4200 S   0  0  0  0  0  0  0  0  0  0  0  0
   -5.7440   26.1550  -31.1490 O   0  0  0  0  0  0  0  0  0  0  0  0
   -5.6710   25.0260  -28.9850 O   0  0  0  0  0  0  0  0  0  0  0  0
   -5.8890   23.5020  -31.1890 C   0  0  0  0  0  0  0  0  0  0  0  0
   -7.2190   23.1370  -30.9950 C   0  0  0  0  0  0  0  0  0  0  0  0
   -7.6990   21.9350  -31.5060 C   0  0  0  0  0  0  0  0  0  0  0  0
   -6.8540   21.0570  -32.2270 C   0  0  0  0  0  0  0  0  0  0  0  0
   -5.5030   21.4450  -32.4620 C   0  0  0  0  0  0  0  0  0  0  0  0
   -5.0480   22.6800  -31.9390 C   0  0  0  0  0  0  0  0  0  0  0  0
   -4.6630   20.6050  -33.1620 N   0  0  0  0  0  0  0  0  0  0  0  0
   -3.2610   20.9910  -33.4290 C   0  0  0  0  0  0  0  0  0  0  0  0
   -5.1270   19.3940  -33.6020 C   0  0  0  0  0  0  0  0  0  0  0  0
   -4.3680   18.6000  -34.2270 O   0  0  0  0  0  0  0  0  0  0  0  0
   -6.4490   19.0090  -33.3640 C   0  0  0  0  0  0  0  0  0  0  0  0
   -6.8380   17.8830  -33.7830 O   0  0  0  0  0  0  0  0  0  0  0  0
   -7.3050   19.8380  -32.6860 N   0  0  0  0  0  0  0  0  0  0  0  0
   -8.6960   19.4060  -32.4370 C   0  0  0  0  0  0  0  0  0  0  0  0
   -1.1820   25.2880  -28.2960 C   0  0  0  0  0  0  0  0  0  0  0  0
   -0.7660   25.9810  -27.1570 C   0  0  0  0  0  0  0  0  0  0  0  0
   -1.4605   26.2414  -23.8988 H   0  0  0  0  0  0  0  0  0  0  0  0
   -0.0436   26.8722  -24.8051 H   0  0  0  0  0  0  0  0  0  0  0  0
   -1.5895   27.7869  -24.8051 H   0  0  0  0  0  0  0  0  0  0  0  0
   -3.4289   25.3279  -25.1121 H   0  0  0  0  0  0  0  0  0  0  0  0
   -4.1776   24.0997  -27.1485 H   0  0  0  0  0  0  0  0  0  0  0  0
   -2.0721   23.4458  -30.0524 H   0  0  0  0  0  0  0  0  0  0  0  0
   -3.6981   23.2347  -29.2892 H   0  0  0  0  0  0  0  0  0  0  0  0
   -7.8931   23.8020  -30.4352 H   0  0  0  0  0  0  0  0  0  0  0  0
   -8.7528   21.6623  -31.3471 H   0  0  0  0  0  0  0  0  0  0  0  0
   -4.0117   22.9970  -32.1278 H   0  0  0  0  0  0  0  0  0  0  0  0
   -2.7327   21.1364  -32.4752 H   0  0  0  0  0  0  0  0  0  0  0  0
   -2.7652   20.1959  -34.0052 H   0  0  0  0  0  0  0  0  0  0  0  0
   -3.2420   21.9278  -34.0052 H   0  0  0  0  0  0  0  0  0  0  0  0
   -8.8743   19.3506  -31.3530 H   0  0  0  0  0  0  0  0  0  0  0  0
   -9.3910   20.1306  -32.8863 H   0  0  0  0  0  0  0  0  0  0  0  0
   -8.8582   18.4152  -32.8863 H   0  0  0  0  0  0  0  0  0  0  0  0
   -0.5333   25.2542  -29.1837 H   0  0  0  0  0  0  0  0  0  0  0  0
    0.2091   26.4901  -27.1519 H   0  0  0  0  0  0  0  0  0  0  0  0
  1  2  1  0
  2  3  2  0
  3  4  1  0
  4  5  2  0
  5  6  1  0
  6  7  1  0
  7  8  1  0
  8  9  2  0
  8 10  2  0
  8 11  1  0
 11 12  2  0
 12 13  1  0
 13 14  2  0
 14 15  1  0
 15 16  2  0
 15 17  1  0
 17 18  1  0
 17 19  1  0
 19 20  2  0
 19 21  1  0
 21 22  2  0
 21 23  1  0
 23 24  1  0
  5 25  1  0
 25 26  2  0
 26  2  1  0
 16 11  1  0
 23 14  1  0
  1 27  1  0
  1 28  1  0
  1 29  1  0
  3 30  1  0
  4 31  1  0
  6 32  1  0
  6 33  1  0
 12 34  1  0
 13 35  1  0
 16 36  1  0
 18 37  1  0
 18 38  1  0
 18 39  1  0
 24 40  1  0
 24 41  1  0
 24 42  1  0
 25 43  1  0
 26 44  1  0
M  CHG  1   7  -1
M  END
>  <UniqueID>  (15) 
15

>  <SMILES>  (15) 
Cc1ccc(C[N-]S(=O)(=O)c2ccc3c(c2)n(C)c(=O)c(=O)n3C)cc1

>  <Energy>  (15) 
55.16437750380852

>  <Genealogy>  (15) 
Cc1ccc(C[N-]S(=O)(=O)c2ccc3c(c2)n(C)c(=O)c(=O)n3C)cc1 (protonated)
Cc1ccc(C[N-]S(=O)(=O)c2ccc3c(c2)n(C)c(=O)c(=O)n3C)cc1 (3D coordinates assigned)
Cc1ccc(C[N-]S(=O)(=O)c2ccc3c(c2)n(C)c(=O)c(=O)n3C)cc1 (optimized conformer: 55.16437750380852 kcal/mol)

>  <smiles>  (15) 
Cc1ccc(CNS(=O)(=O)c2ccc3c(c2)n(C)c(=O)c(=O)n3C)cc1

>  <score_type>  (15) 
oracle

>  <origin>  (15) 
adgpu

>  <m_score__min__energy>  (15) 
-10.93

>  <m_primary>  (15) 
energy

$$$$
15:0
     RDKit          3D

 49 52  0  0  0  0  0  0  0  0999 V2000
   -2.0140   25.2890  -29.1440 N   0  0  0  0  0  0  0  0  0  0  0  0
   -3.2060   24.6010  -29.5210 C   0  0  0  0  0  0  0  0  0  0  0  0
   -3.8780   24.8500  -30.6560 N   0  0  0  0  0  0  0  0  0  0  0  0
   -4.8930   23.9570  -30.6170 C   0  0  0  0  0  0  0  0  0  0  0  0
   -6.0980   23.8100  -31.9390 S   0  0  0  0  0  0  0  0  0  0  0  0
   -5.7100   22.0850  -32.4860 C   0  0  0  0  0  0  0  0  0  0  0  0
   -4.3440   21.5960  -32.0290 C   0  0  0  0  0  0  0  0  0  0  0  0
   -4.1830   20.8380  -30.8520 C   0  0  0  0  0  0  0  0  0  0  0  0
   -2.9080   20.4640  -30.4180 C   0  0  0  0  0  0  0  0  0  0  0  0
   -1.7800   20.8450  -31.1490 C   0  0  0  0  0  0  0  0  0  0  0  0
   -1.9250   21.6030  -32.3120 C   0  0  0  0  0  0  0  0  0  0  0  0
   -3.1990   21.9820  -32.7490 C   0  0  0  0  0  0  0  0  0  0  0  0
   -6.8200   21.0860  -32.1930 C   0  0  0  0  0  0  0  0  0  0  0  0
   -7.9620   21.5290  -31.4980 C   0  0  0  0  0  0  0  0  0  0  0  0
   -9.0170   20.6520  -31.2310 C   0  0  0  0  0  0  0  0  0  0  0  0
   -8.9480   19.3240  -31.6540 C   0  0  0  0  0  0  0  0  0  0  0  0
   -7.8270   18.8730  -32.3530 C   0  0  0  0  0  0  0  0  0  0  0  0
   -6.7740   19.7470  -32.6330 C   0  0  0  0  0  0  0  0  0  0  0  0
   -4.8960   23.1610  -29.5250 N   0  0  0  0  0  0  0  0  0  0  0  0
   -3.8170   23.5770  -28.8370 C   0  0  0  0  0  0  0  0  0  0  0  0
   -3.3760   22.9920  -27.6060 N   0  0  0  0  0  0  0  0  0  0  0  0
   -1.9590   22.8100  -27.3010 C   0  0  0  0  0  0  0  0  0  0  0  0
   -1.5910   21.3520  -27.3700 C   0  0  0  0  0  0  0  0  0  0  0  0
   -2.5250   20.3710  -26.9990 C   0  0  0  0  0  0  0  0  0  0  0  0
   -2.1900   19.0150  -27.0660 C   0  0  0  0  0  0  0  0  0  0  0  0
   -0.9230   18.6290  -27.5090 C   0  0  0  0  0  0  0  0  0  0  0  0
    0.0090   19.5970  -27.8930 C   0  0  0  0  0  0  0  0  0  0  0  0
   -0.3190   20.9550  -27.8220 C   0  0  0  0  0  0  0  0  0  0  0  0
   -1.5270   25.0370  -28.2560 H   0  0  0  0  0  0  0  0  0  0  0  0
   -1.6170   26.0530  -29.7330 H   0  0  0  0  0  0  0  0  0  0  0  0
   -5.6529   22.1488  -33.5827 H   0  0  0  0  0  0  0  0  0  0  0  0
   -5.0673   20.5384  -30.2704 H   0  0  0  0  0  0  0  0  0  0  0  0
   -2.7926   19.8691  -29.5000 H   0  0  0  0  0  0  0  0  0  0  0  0
   -0.7774   20.5475  -30.8079 H   0  0  0  0  0  0  0  0  0  0  0  0
   -1.0360   21.9030  -32.8861 H   0  0  0  0  0  0  0  0  0  0  0  0
   -3.3059   22.5861  -33.6621 H   0  0  0  0  0  0  0  0  0  0  0  0
   -8.0242   22.5747  -31.1623 H   0  0  0  0  0  0  0  0  0  0  0  0
   -9.9034   21.0093  -30.6864 H   0  0  0  0  0  0  0  0  0  0  0  0
   -9.7761   18.6333  -31.4369 H   0  0  0  0  0  0  0  0  0  0  0  0
   -7.7727   17.8255  -32.6845 H   0  0  0  0  0  0  0  0  0  0  0  0
   -5.9028   19.3883  -33.2007 H   0  0  0  0  0  0  0  0  0  0  0  0
   -4.0770   22.7100  -26.8840 H   0  0  0  0  0  0  0  0  0  0  0  0
   -1.3562   23.3710  -28.0303 H   0  0  0  0  0  0  0  0  0  0  0  0
   -1.7623   23.1802  -26.2840 H   0  0  0  0  0  0  0  0  0  0  0  0
   -3.5255   20.6709  -26.6539 H   0  0  0  0  0  0  0  0  0  0  0  0
   -2.9248   18.2519  -26.7696 H   0  0  0  0  0  0  0  0  0  0  0  0
   -0.6585   17.5623  -27.5557 H   0  0  0  0  0  0  0  0  0  0  0  0
    1.0026   19.2904  -28.2518 H   0  0  0  0  0  0  0  0  0  0  0  0
    0.4191   21.7142  -28.1202 H   0  0  0  0  0  0  0  0  0  0  0  0
  1  2  1  0
  2  3  1  0
  3  4  2  0
  4  5  1  0
  5  6  1  0
  6  7  1  0
  7  8  2  0
  8  9  1  0
  9 10  2  0
 10 11  1  0
 11 12  2  0
  6 13  1  0
 13 14  2  0
 14 15  1  0
 15 16  2  0
 16 17  1  0
 17 18  2  0
  4 19  1  0
 19 20  1  0
 20 21  1  0
 21 22  1  0
 22 23  1  0
 23 24  2  0
 24 25  1  0
 25 26  2  0
 26 27  1  0
 27 28  2  0
 20  2  2  0
 28 23  1  0
 12  7  1  0
 18 13  1  0
  1 29  1  0
  1 30  1  0
  6 31  1  0
  8 32  1  0
  9 33  1  0
 10 34  1  0
 11 35  1  0
 12 36  1  0
 14 37  1  0
 15 38  1  0
 16 39  1  0
 17 40  1  0
 18 41  1  0
 21 42  1  0
 22 43  1  0
 22 44  1  0
 24 45  1  0
 25 46  1  0
 26 47  1  0
 27 48  1  0
 28 49  1  0
M  CHG  1  19  -1
M  END
>  <UniqueID>  (16) 
16

>  <SMILES>  (16) 
Nc1nc(SC(c2ccccc2)c2ccccc2)[n-]c1NCc1ccccc1

>  <Energy>  (16) 
76.71649161777201

>  <Genealogy>  (16) 
Nc1nc(SC(c2ccccc2)c2ccccc2)[n-]c1NCc1ccccc1 (protonated)
Nc1nc(SC(c2ccccc2)c2ccccc2)[n-]c1NCc1ccccc1 (3D coordinates assigned)
Nc1nc(SC(c2ccccc2)c2ccccc2)[n-]c1NCc1ccccc1 (optimized conformer: 76.71649161777201 kcal/mol)

>  <smiles>  (16) 
Nc1nc(SC(c2ccccc2)c2ccccc2)[nH]c1NCc1ccccc1

>  <score_type>  (16) 
oracle

>  <origin>  (16) 
adgpu

>  <m_score__min__energy>  (16) 
-10.98

>  <m_primary>  (16) 
energy

$$$$
16:0
     RDKit          3D

 54 56  0  0  0  0  0  0  0  0999 V2000
   -9.0950   23.3870  -32.3160 C   0  0  0  0  0  0  0  0  0  0  0  0
   -8.2860   22.9260  -31.2400 O   0  0  0  0  0  0  0  0  0  0  0  0
   -7.0200   23.4400  -30.9170 C   0  0  0  0  0  0  0  0  0  0  0  0
   -6.8500   24.7670  -30.4760 C   0  0  0  0  0  0  0  0  0  0  0  0
   -5.5750   25.2610  -30.1880 C   0  0  0  0  0  0  0  0  0  0  0  0
   -4.4480   24.4360  -30.3250 C   0  0  0  0  0  0  0  0  0  0  0  0
   -3.1200   24.9140  -30.0730 N   0  0  0  0  0  0  0  0  0  0  0  0
   -2.2020   24.4170  -29.0880 C   0  0  0  0  0  0  0  0  0  0  0  0
   -0.9650   24.3900  -29.3200 O   0  0  0  0  0  0  0  0  0  0  0  0
   -2.7060   23.9300  -27.7610 C   0  0  0  0  0  0  0  0  0  0  0  0
   -2.3250   22.5250  -27.5290 N   0  0  0  0  0  0  0  0  0  0  0  0
   -3.2710   21.5480  -27.6710 C   0  0  0  0  0  0  0  0  0  0  0  0
   -2.9370   20.2080  -27.4860 C   0  0  0  0  0  0  0  0  0  0  0  0
   -1.6210   19.8880  -27.1620 C   0  0  0  0  0  0  0  0  0  0  0  0
   -1.2840   18.6890  -26.9840 O   0  0  0  0  0  0  0  0  0  0  0  0
   -0.6990   20.8750  -27.0400 N   0  0  0  0  0  0  0  0  0  0  0  0
   -1.0320   22.1800  -27.2230 C   0  0  0  0  0  0  0  0  0  0  0  0
   -0.1380   23.0610  -27.1120 O   0  0  0  0  0  0  0  0  0  0  0  0
   -4.6120   23.1240  -30.7800 C   0  0  0  0  0  0  0  0  0  0  0  0
   -5.8890   22.6130  -31.0570 C   0  0  0  0  0  0  0  0  0  0  0  0
   -6.0230   21.2030  -31.4920 C   0  0  0  0  0  0  0  0  0  0  0  0
   -7.2690   20.5680  -31.3560 C   0  0  0  0  0  0  0  0  0  0  0  0
   -7.4370   19.2340  -31.7500 C   0  0  0  0  0  0  0  0  0  0  0  0
   -8.7800   18.5760  -31.6320 C   0  0  0  0  0  0  0  0  0  0  0  0
   -6.3610   18.5420  -32.3210 C   0  0  0  0  0  0  0  0  0  0  0  0
   -5.1230   19.1680  -32.4710 C   0  0  0  0  0  0  0  0  0  0  0  0
   -4.9360   20.4940  -32.0540 C   0  0  0  0  0  0  0  0  0  0  0  0
   -3.6580   21.1260  -32.2640 N   0  0  0  0  0  0  0  0  0  0  0  0
   -3.4440   21.9230  -33.4760 C   0  0  0  0  0  0  0  0  0  0  0  0
   -2.5820   20.9860  -31.3100 C   0  0  0  0  0  0  0  0  0  0  0  0
   -1.3730   21.8760  -31.3390 C   0  0  0  0  0  0  0  0  0  0  0  0
   -2.6580   20.1110  -30.4050 O   0  0  0  0  0  0  0  0  0  0  0  0
   -9.9848   23.8941  -31.9146 H   0  0  0  0  0  0  0  0  0  0  0  0
   -8.5181   24.0920  -32.9326 H   0  0  0  0  0  0  0  0  0  0  0  0
   -9.4075   22.5313  -32.9326 H   0  0  0  0  0  0  0  0  0  0  0  0
   -7.7277   25.4194  -30.3574 H   0  0  0  0  0  0  0  0  0  0  0  0
   -5.4541   26.3015  -29.8523 H   0  0  0  0  0  0  0  0  0  0  0  0
   -2.2773   24.5544  -26.9633 H   0  0  0  0  0  0  0  0  0  0  0  0
   -3.8039   23.9980  -27.7591 H   0  0  0  0  0  0  0  0  0  0  0  0
   -4.3035   21.8220  -27.9333 H   0  0  0  0  0  0  0  0  0  0  0  0
   -3.6966   19.4197  -27.5936 H   0  0  0  0  0  0  0  0  0  0  0  0
   -3.7285   22.4843  -30.9226 H   0  0  0  0  0  0  0  0  0  0  0  0
   -8.1206   21.1235  -30.9362 H   0  0  0  0  0  0  0  0  0  0  0  0
   -9.0350   18.4511  -30.5693 H   0  0  0  0  0  0  0  0  0  0  0  0
   -9.5400   19.2038  -32.1201 H   0  0  0  0  0  0  0  0  0  0  0  0
   -8.7497   17.5907  -32.1201 H   0  0  0  0  0  0  0  0  0  0  0  0
   -6.4926   17.5014  -32.6523 H   0  0  0  0  0  0  0  0  0  0  0  0
   -4.2849   18.6157  -32.9210 H   0  0  0  0  0  0  0  0  0  0  0  0
   -3.1682   22.9502  -33.1954 H   0  0  0  0  0  0  0  0  0  0  0  0
   -2.6342   21.4754  -34.0709 H   0  0  0  0  0  0  0  0  0  0  0  0
   -4.3691   21.9413  -34.0709 H   0  0  0  0  0  0  0  0  0  0  0  0
   -1.0616   22.1052  -30.3092 H   0  0  0  0  0  0  0  0  0  0  0  0
   -0.5534   21.3641  -31.8645 H   0  0  0  0  0  0  0  0  0  0  0  0
   -1.6183   22.8107  -31.8645 H   0  0  0  0  0  0  0  0  0  0  0  0
  1  2  1  0
  2  3  1  0
  3  4  2  0
  4  5  1  0
  5  6  2  0
  6  7  1  0
  7  8  1  0
  8  9  2  0
  8 10  1  0
 10 11  1  0
 11 12  1  0
 12 13  2  0
 13 14  1  0
 14 15  2  0
 14 16  1  0
 16 17  1  0
 17 18  2  0
  6 19  1  0
 19 20  2  0
 20 21  1  0
 21 22  2  0
 22 23  1  0
 23 24  1  0
 23 25  2  0
 25 26  1  0
 26 27  2  0
 27 28  1  0
 28 29  1  0
 28 30  1  0
 30 31  1  0
 30 32  2  0
 20  3  1  0
 27 21  1  0
 17 11  1  0
  1 33  1  0
  1 34  1  0
  1 35  1  0
  4 36  1  0
  5 37  1  0
 10 38  1  0
 10 39  1  0
 12 40  1  0
 13 41  1  0
 19 42  1  0
 22 43  1  0
 24 44  1  0
 24 45  1  0
 24 46  1  0
 25 47  1  0
 26 48  1  0
 29 49  1  0
 29 50  1  0
 29 51  1  0
 31 52  1  0
 31 53  1  0
 31 54  1  0
M  CHG  2   7  -1  16  -1
M  END
>  <UniqueID>  (17) 
17

>  <SMILES>  (17) 
COc1ccc([N-]C(=O)Cn2ccc(=O)[n-]c2=O)cc1-c1cc(C)ccc1N(C)C(C)=O

>  <Energy>  (17) 
70.49313972485336

>  <Genealogy>  (17) 
COc1ccc([N-]C(=O)Cn2ccc(=O)[n-]c2=O)cc1-c1cc(C)ccc1N(C)C(C)=O (protonated)
COc1ccc([N-]C(=O)Cn2ccc(=O)[n-]c2=O)cc1-c1cc(C)ccc1N(C)C(C)=O (3D coordinates assigned)
COc1ccc([N-]C(=O)Cn2ccc(=O)[n-]c2=O)cc1-c1cc(C)ccc1N(C)C(C)=O (optimized conformer: 70.49313972485336 kcal/mol)

>  <smiles>  (17) 
COc1ccc(NC(=O)Cn2ccc(=O)[nH]c2=O)cc1-c1cc(C)ccc1N(C)C(C)=O

>  <score_type>  (17) 
oracle

>  <origin>  (17) 
adgpu

>  <m_score__min__energy>  (17) 
-10.75

>  <m_primary>  (17) 
energy

$$$$
17:0
     RDKit          3D

 63 65  0  0  0  0  0  0  0  0999 V2000
   -0.4470   18.4980  -33.0120 C   0  0  0  0  0  0  0  0  0  0  0  0
   -1.2730   19.4720  -33.6400 O   0  0  0  0  0  0  0  0  0  0  0  0
   -2.3300   20.1420  -33.0070 C   0  0  0  0  0  0  0  0  0  0  0  0
   -2.2600   21.5320  -32.9000 C   0  0  0  0  0  0  0  0  0  0  0  0
   -3.2880   22.2490  -32.2870 C   0  0  0  0  0  0  0  0  0  0  0  0
   -4.4080   21.5850  -31.7690 C   0  0  0  0  0  0  0  0  0  0  0  0
   -5.4620   22.3460  -31.1540 N   0  0  0  0  0  0  0  0  0  0  0  0
   -5.1960   23.1620  -29.9640 C   0  0  0  0  0  0  0  0  0  0  0  0
   -4.5500   24.4670  -30.3210 C   0  0  0  0  0  0  0  0  0  0  0  0
   -4.9630   25.1350  -31.3080 O   0  0  0  0  0  0  0  0  0  0  0  0
   -3.4670   24.9470  -29.5130 N   0  0  0  0  0  0  0  0  0  0  0  0
   -2.4510   24.1570  -28.8740 C   0  0  0  0  0  0  0  0  0  0  0  0
   -2.6990   22.8360  -28.4550 C   0  0  0  0  0  0  0  0  0  0  0  0
   -1.6940   22.0860  -27.8310 C   0  0  0  0  0  0  0  0  0  0  0  0
   -2.0330   20.4310  -27.3300 S   0  0  0  0  0  0  0  0  0  0  0  0
   -1.2770   20.1610  -26.0610 O   0  0  0  0  0  0  0  0  0  0  0  0
   -3.5010   20.2750  -27.0520 O   0  0  0  0  0  0  0  0  0  0  0  0
   -1.5080   19.3180  -28.5770 N   0  0  0  0  0  0  0  0  0  0  0  0
   -0.4650   18.3810  -28.1150 C   0  0  0  0  0  0  0  0  0  0  0  0
    0.9340   19.0110  -28.0640 C   0  0  0  0  0  0  0  0  0  0  0  0
    1.2930   19.6530  -29.4020 C   0  0  0  0  0  0  0  0  0  0  0  0
    0.2190   20.6550  -29.8220 C   0  0  0  0  0  0  0  0  0  0  0  0
   -1.1680   19.9930  -29.8460 C   0  0  0  0  0  0  0  0  0  0  0  0
   -0.4420   22.6670  -27.5930 C   0  0  0  0  0  0  0  0  0  0  0  0
   -0.1980   23.9870  -27.9760 C   0  0  0  0  0  0  0  0  0  0  0  0
   -1.1940   24.7360  -28.6110 C   0  0  0  0  0  0  0  0  0  0  0  0
   -0.9090   26.0530  -28.9790 O   0  0  0  0  0  0  0  0  0  0  0  0
   -7.0200   22.4180  -31.9240 S   0  0  0  0  0  0  0  0  0  0  0  0
   -8.2830   21.9920  -30.7450 C   0  0  0  0  0  0  0  0  0  0  0  0
   -7.0630   21.4630  -33.0840 O   0  0  0  0  0  0  0  0  0  0  0  0
   -7.2820   23.8110  -32.4240 O   0  0  0  0  0  0  0  0  0  0  0  0
   -4.4930   20.1820  -31.8650 C   0  0  0  0  0  0  0  0  0  0  0  0
   -5.6300   19.5380  -31.3530 O   0  0  0  0  0  0  0  0  0  0  0  0
   -6.5280   18.7420  -32.1220 C   0  0  0  0  0  0  0  0  0  0  0  0
   -3.4480   19.4670  -32.4830 C   0  0  0  0  0  0  0  0  0  0  0  0
   -0.5302   18.5961  -31.9195 H   0  0  0  0  0  0  0  0  0  0  0  0
   -0.7712   17.4916  -33.3155 H   0  0  0  0  0  0  0  0  0  0  0  0
    0.5988   18.6534  -33.3155 H   0  0  0  0  0  0  0  0  0  0  0  0
   -1.3869   22.0666  -33.3024 H   0  0  0  0  0  0  0  0  0  0  0  0
   -3.2187   23.3441  -32.2097 H   0  0  0  0  0  0  0  0  0  0  0  0
   -6.1473   23.3638  -29.4499 H   0  0  0  0  0  0  0  0  0  0  0  0
   -4.5070   22.6046  -29.3124 H   0  0  0  0  0  0  0  0  0  0  0  0
   -3.6906   22.3890  -28.6191 H   0  0  0  0  0  0  0  0  0  0  0  0
   -0.7292   18.0339  -27.1052 H   0  0  0  0  0  0  0  0  0  0  0  0
   -0.4249   17.5537  -28.8388 H   0  0  0  0  0  0  0  0  0  0  0  0
    0.9536   19.7809  -27.2786 H   0  0  0  0  0  0  0  0  0  0  0  0
    1.6671   18.2204  -27.8462 H   0  0  0  0  0  0  0  0  0  0  0  0
    2.2566   20.1747  -29.3058 H   0  0  0  0  0  0  0  0  0  0  0  0
    1.3620   18.8652  -30.1666 H   0  0  0  0  0  0  0  0  0  0  0  0
    0.2069   21.4910  -29.1072 H   0  0  0  0  0  0  0  0  0  0  0  0
    0.4530   21.0183  -30.8335 H   0  0  0  0  0  0  0  0  0  0  0  0
   -1.9229   20.7682  -30.0438 H   0  0  0  0  0  0  0  0  0  0  0  0
   -1.1520   19.2247  -30.6330 H   0  0  0  0  0  0  0  0  0  0  0  0
    0.3505   22.0820  -27.1034 H   0  0  0  0  0  0  0  0  0  0  0  0
    0.7840   24.4411  -27.7771 H   0  0  0  0  0  0  0  0  0  0  0  0
   -1.6170   26.6800  -29.3430 H   0  0  0  0  0  0  0  0  0  0  0  0
   -7.8922   22.1238  -29.7253 H   0  0  0  0  0  0  0  0  0  0  0  0
   -9.1558   22.6455  -30.8905 H   0  0  0  0  0  0  0  0  0  0  0  0
   -8.5817   20.9434  -30.8905 H   0  0  0  0  0  0  0  0  0  0  0  0
   -7.1778   18.1660  -31.4467 H   0  0  0  0  0  0  0  0  0  0  0  0
   -7.1454   19.3949  -32.7564 H   0  0  0  0  0  0  0  0  0  0  0  0
   -5.9539   18.0507  -32.7564 H   0  0  0  0  0  0  0  0  0  0  0  0
   -3.5066   18.3710  -32.5565 H   0  0  0  0  0  0  0  0  0  0  0  0
  1  2  1  0
  2  3  1  0
  3  4  2  0
  4  5  1  0
  5  6  2  0
  6  7  1  0
  7  8  1  0
  8  9  1  0
  9 10  2  0
  9 11  1  0
 11 12  1  0
 12 13  2  0
 13 14  1  0
 14 15  1  0
 15 16  2  0
 15 17  2  0
 15 18  1  0
 18 19  1  0
 19 20  1  0
 20 21  1  0
 21 22  1  0
 22 23  1  0
 14 24  2  0
 24 25  1  0
 25 26  2  0
 26 27  1  0
  7 28  1  0
 28 29  1  0
 28 30  2  0
 28 31  2  0
  6 32  1  0
 32 33  1  0
 33 34  1  0
 32 35  2  0
 35  3  1  0
 26 12  1  0
 23 18  1  0
  1 36  1  0
  1 37  1  0
  1 38  1  0
  4 39  1  0
  5 40  1  0
  8 41  1  0
  8 42  1  0
 13 43  1  0
 19 44  1  0
 19 45  1  0
 20 46  1  0
 20 47  1  0
 21 48  1  0
 21 49  1  0
 22 50  1  0
 22 51  1  0
 23 52  1  0
 23 53  1  0
 24 54  1  0
 25 55  1  0
 27 56  1  0
 29 57  1  0
 29 58  1  0
 29 59  1  0
 34 60  1  0
 34 61  1  0
 34 62  1  0
 35 63  1  0
M  CHG  1  11  -1
M  END
>  <UniqueID>  (18) 
18

>  <SMILES>  (18) 
COc1ccc(N(CC(=O)[N-]c2cc(S(=O)(=O)N3CCCCC3)ccc2O)S(C)(=O)=O)c(OC)c1

>  <Energy>  (18) 
66.9608956003495

>  <Genealogy>  (18) 
COc1ccc(N(CC(=O)[N-]c2cc(S(=O)(=O)N3CCCCC3)ccc2O)S(C)(=O)=O)c(OC)c1 (protonated)
COc1ccc(N(CC(=O)[N-]c2cc(S(=O)(=O)N3CCCCC3)ccc2O)S(C)(=O)=O)c(OC)c1 (3D coordinates assigned)
COc1ccc(N(CC(=O)[N-]c2cc(S(=O)(=O)N3CCCCC3)ccc2O)S(C)(=O)=O)c(OC)c1 (nonaromatic ring conformer: 66.9608956003495 kcal/mol)

>  <smiles>  (18) 
COc1ccc(N(CC(=O)Nc2cc(S(=O)(=O)N3CCCCC3)ccc2O)S(C)(=O)=O)c(OC)c1

>  <score_type>  (18) 
oracle

>  <origin>  (18) 
adgpu

>  <m_score__min__energy>  (18) 
-11.99

>  <m_primary>  (18) 
energy

$$$$
18:0
     RDKit          3D

 30 32  0  0  0  0  0  0  0  0999 V2000
    0.8160   23.1240  -27.8390 H   0  0  0  0  0  0  0  0  0  0  0  0
    0.1650   22.3600  -28.1300 N   0  0  0  0  0  0  0  0  0  0  0  0
   -0.9400   22.6220  -28.7480 C   0  0  0  0  0  0  0  0  0  0  0  0
   -1.4650   24.1790  -29.1540 S   0  0  0  0  0  0  0  0  0  0  0  0
   -2.8710   23.5840  -29.8670 C   0  0  0  0  0  0  0  0  0  0  0  0
   -3.9030   24.2880  -30.4780 C   0  0  0  0  0  0  0  0  0  0  0  0
   -3.8650   25.6740  -30.5710 O   0  0  0  0  0  0  0  0  0  0  0  0
   -4.9850   23.5650  -31.0030 C   0  0  0  0  0  0  0  0  0  0  0  0
   -5.8126   24.1013  -31.4903 H   0  0  0  0  0  0  0  0  0  0  0  0
   -5.0230   22.1500  -30.9120 C   0  0  0  0  0  0  0  0  0  0  0  0
   -6.1720   21.3930  -31.4700 C   0  0  0  0  0  0  0  0  0  0  0  0
   -7.4830   21.6920  -31.0720 C   0  0  0  0  0  0  0  0  0  0  0  0
   -7.6612   22.4924  -30.3388 H   0  0  0  0  0  0  0  0  0  0  0  0
   -8.5630   20.9830  -31.5980 C   0  0  0  0  0  0  0  0  0  0  0  0
   -9.5848   21.2294  -31.2738 H   0  0  0  0  0  0  0  0  0  0  0  0
   -8.3610   19.9590  -32.5360 C   0  0  0  0  0  0  0  0  0  0  0  0
   -9.5080   19.2940  -33.0830 N   0  0  0  0  0  0  0  0  0  0  0  0
   -9.6970   19.3290  -34.1090 H   0  0  0  0  0  0  0  0  0  0  0  0
  -10.1300   18.6830  -32.5120 H   0  0  0  0  0  0  0  0  0  0  0  0
   -7.0410   19.6330  -32.9300 C   0  0  0  0  0  0  0  0  0  0  0  0
   -6.7640   18.5610  -33.8420 N   0  0  0  0  0  0  0  0  0  0  0  0
   -6.3370   17.6600  -33.5400 H   0  0  0  0  0  0  0  0  0  0  0  0
   -6.8980   18.6960  -34.8700 H   0  0  0  0  0  0  0  0  0  0  0  0
   -5.9640   20.3600  -32.4000 C   0  0  0  0  0  0  0  0  0  0  0  0
   -4.9393   20.1172  -32.7179 H   0  0  0  0  0  0  0  0  0  0  0  0
   -3.9560   21.4660  -30.2850 C   0  0  0  0  0  0  0  0  0  0  0  0
   -3.9679   20.3689  -30.2062 H   0  0  0  0  0  0  0  0  0  0  0  0
   -2.8870   22.2000  -29.7670 C   0  0  0  0  0  0  0  0  0  0  0  0
   -1.8090   21.6610  -29.1410 N   0  0  0  0  0  0  0  0  0  0  0  0
   -1.6670   20.6380  -28.9830 H   0  0  0  0  0  0  0  0  0  0  0  0
  1  2  1  0
  2  3  2  0
  3  4  1  0
  4  5  1  0
  5  6  2  0
  6  7  1  0
  6  8  1  0
  8  9  1  0
  8 10  2  0
 10 11  1  0
 11 12  2  0
 12 13  1  0
 12 14  1  0
 14 15  1  0
 14 16  2  0
 16 17  1  0
 17 18  1  0
 17 19  1  0
 16 20  1  0
 20 21  1  0
 21 22  1  0
 21 23  1  0
 20 24  2  0
 24 25  1  0
 10 26  1  0
 26 27  1  0
 26 28  2  0
 28 29  1  0
 29 30  1  0
 29  3  1  0
 28  5  1  0
 24 11  1  0
M  CHG  1   7  -1
M  END
>  <UniqueID>  (19) 
19

>  <SMILES>  (19) 
[H]/N=c1/[nH]c2cc(-c3ccc(N)c(N)c3)cc([O-])c2s1

>  <Energy>  (19) 
74.26080780127954

>  <Genealogy>  (19) 
N=c1[nH]c2cc(-c3ccc(N)c(N)c3)cc([O-])c2s1 (protonated)
[H]/N=c1/[nH]c2cc(-c3ccc(N)c(N)c3)cc([O-])c2s1 (cis-trans isomerization)
[H]/N=c1/[nH]c2cc(-c3ccc(N)c(N)c3)cc([O-])c2s1 (3D coordinates assigned)
[H]/N=c1/[nH]c2cc(-c3ccc(N)c(N)c3)cc([O-])c2s1 (optimized conformer: 74.26080780127954 kcal/mol)

>  <smiles>  (19) 
N=c1[nH]c2cc(-c3ccc(N)c(N)c3)cc(O)c2s1

>  <score_type>  (19) 
oracle

>  <origin>  (19) 
adgpu

>  <m_score__min__energy>  (19) 
-9.5800000000000001

>  <m_primary>  (19) 
energy

$$$$
19:0
     RDKit          3D

 64 68  0  0  0  0  0  0  0  0999 V2000
   -2.9980   15.5710  -36.1580 C   0  0  0  0  0  0  0  0  0  0  0  0
   -3.8760   16.0370  -35.0340 C   0  0  0  0  0  0  0  0  0  0  0  0
   -4.0350   15.2500  -33.8900 C   0  0  0  0  0  0  0  0  0  0  0  0
   -4.8320   15.7120  -32.8340 C   0  0  0  0  0  0  0  0  0  0  0  0
   -4.9820   14.8860  -31.5900 C   0  0  0  0  0  0  0  0  0  0  0  0
   -5.4150   16.9440  -32.9120 N   0  0  0  0  0  0  0  0  0  0  0  0
   -5.2730   17.7380  -34.0200 C   0  0  0  0  0  0  0  0  0  0  0  0
   -5.8400   18.9090  -34.1060 N   0  0  0  0  0  0  0  0  0  0  0  0
   -6.7130   19.4940  -33.1260 C   0  0  0  0  0  0  0  0  0  0  0  0
   -7.9270   18.8550  -32.8510 C   0  0  0  0  0  0  0  0  0  0  0  0
   -8.8220   19.3960  -31.9280 C   0  0  0  0  0  0  0  0  0  0  0  0
   -8.5100   20.5790  -31.2570 C   0  0  0  0  0  0  0  0  0  0  0  0
   -7.2860   21.2230  -31.4930 C   0  0  0  0  0  0  0  0  0  0  0  0
   -6.9690   22.4070  -30.8090 C   0  0  0  0  0  0  0  0  0  0  0  0
   -5.7410   23.0410  -31.0240 C   0  0  0  0  0  0  0  0  0  0  0  0
   -5.3650   24.5510  -30.2040 S   0  0  0  0  0  0  0  0  0  0  0  0
   -5.0400   25.6190  -31.2120 O   0  0  0  0  0  0  0  0  0  0  0  0
   -6.5510   25.0100  -29.4040 O   0  0  0  0  0  0  0  0  0  0  0  0
   -3.9880   24.2880  -29.1410 C   0  0  0  0  0  0  0  0  0  0  0  0
   -4.1250   24.4650  -27.7580 C   0  0  0  0  0  0  0  0  0  0  0  0
   -3.0410   24.2280  -26.9080 C   0  0  0  0  0  0  0  0  0  0  0  0
   -1.8080   23.8130  -27.4330 C   0  0  0  0  0  0  0  0  0  0  0  0
   -0.4350   23.5290  -26.3610 S   0  0  0  0  0  0  0  0  0  0  0  0
    0.6680   22.8600  -27.1350 O   0  0  0  0  0  0  0  0  0  0  0  0
   -0.8540   22.6030  -25.2530 O   0  0  0  0  0  0  0  0  0  0  0  0
    0.1620   25.0220  -25.6700 N   0  0  0  0  0  0  0  0  0  0  0  0
    0.0790   26.1160  -26.6570 C   0  0  0  0  0  0  0  0  0  0  0  0
    0.1010   27.4820  -25.9530 C   0  0  0  0  0  0  0  0  0  0  0  0
   -0.9720   27.6820  -25.0390 O   0  0  0  0  0  0  0  0  0  0  0  0
   -1.5380   26.4760  -24.5470 C   0  0  0  0  0  0  0  0  0  0  0  0
   -0.5100   25.3400  -24.3920 C   0  0  0  0  0  0  0  0  0  0  0  0
   -1.6790   23.6200  -28.8160 C   0  0  0  0  0  0  0  0  0  0  0  0
   -2.7630   23.8560  -29.6660 C   0  0  0  0  0  0  0  0  0  0  0  0
   -4.8240   22.4920  -31.9280 C   0  0  0  0  0  0  0  0  0  0  0  0
   -5.1280   21.3160  -32.6160 C   0  0  0  0  0  0  0  0  0  0  0  0
   -6.3660   20.6740  -32.4220 C   0  0  0  0  0  0  0  0  0  0  0  0
   -4.4880   17.2940  -35.0910 C   0  0  0  0  0  0  0  0  0  0  0  0
   -2.0972   15.0929  -35.7456 H   0  0  0  0  0  0  0  0  0  0  0  0
   -3.5476   14.8459  -36.7762 H   0  0  0  0  0  0  0  0  0  0  0  0
   -2.7055   16.4326  -36.7762 H   0  0  0  0  0  0  0  0  0  0  0  0
   -3.5366   14.2720  -33.8188 H   0  0  0  0  0  0  0  0  0  0  0  0
   -4.8650   15.5300  -30.7059 H   0  0  0  0  0  0  0  0  0  0  0  0
   -5.9791   14.4218  -31.5761 H   0  0  0  0  0  0  0  0  0  0  0  0
   -4.2118   14.1008  -31.5761 H   0  0  0  0  0  0  0  0  0  0  0  0
   -5.9680   17.2760  -32.0910 H   0  0  0  0  0  0  0  0  0  0  0  0
   -8.1780   17.9169  -33.3677 H   0  0  0  0  0  0  0  0  0  0  0  0
   -9.7772   18.8882  -31.7284 H   0  0  0  0  0  0  0  0  0  0  0  0
   -9.2260   21.0081  -30.5406 H   0  0  0  0  0  0  0  0  0  0  0  0
   -7.6905   22.8387  -30.0998 H   0  0  0  0  0  0  0  0  0  0  0  0
   -5.0886   24.7915  -27.3398 H   0  0  0  0  0  0  0  0  0  0  0  0
   -3.1552   24.3675  -25.8229 H   0  0  0  0  0  0  0  0  0  0  0  0
    0.9358   26.0493  -27.3436 H   0  0  0  0  0  0  0  0  0  0  0  0
   -0.8640   26.0196  -27.2150 H   0  0  0  0  0  0  0  0  0  0  0  0
    1.0474   27.5701  -25.3993 H   0  0  0  0  0  0  0  0  0  0  0  0
   -0.0045   28.2453  -26.7380 H   0  0  0  0  0  0  0  0  0  0  0  0
   -1.9874   26.6770  -23.5633 H   0  0  0  0  0  0  0  0  0  0  0  0
   -2.2843   26.1421  -25.2829 H   0  0  0  0  0  0  0  0  0  0  0  0
    0.2498   25.6465  -23.6580 H   0  0  0  0  0  0  0  0  0  0  0  0
   -1.0466   24.4399  -24.0575 H   0  0  0  0  0  0  0  0  0  0  0  0
   -0.7196   23.2811  -29.2340 H   0  0  0  0  0  0  0  0  0  0  0  0
   -2.6541   23.7022  -30.7497 H   0  0  0  0  0  0  0  0  0  0  0  0
   -3.8580   22.9903  -32.0973 H   0  0  0  0  0  0  0  0  0  0  0  0
   -4.3947   20.8876  -33.3151 H   0  0  0  0  0  0  0  0  0  0  0  0
   -4.3525   17.9327  -35.9763 H   0  0  0  0  0  0  0  0  0  0  0  0
  1  2  1  0
  2  3  1  0
  3  4  2  0
  4  5  1  0
  4  6  1  0
  6  7  1  0
  7  8  2  3
  8  9  1  0
  9 10  2  0
 10 11  1  0
 11 12  2  0
 12 13  1  0
 13 14  2  0
 14 15  1  0
 15 16  1  0
 16 17  2  0
 16 18  2  0
 16 19  1  0
 19 20  2  0
 20 21  1  0
 21 22  2  0
 22 23  1  0
 23 24  2  0
 23 25  2  0
 23 26  1  0
 26 27  1  0
 27 28  1  0
 28 29  1  0
 29 30  1  0
 30 31  1  0
 22 32  1  0
 32 33  2  0
 15 34  2  0
 34 35  1  0
 35 36  2  0
  7 37  1  0
 37  2  2  0
 36  9  1  0
 36 13  1  0
 33 19  1  0
 31 26  1  0
  1 38  1  0
  1 39  1  0
  1 40  1  0
  3 41  1  0
  5 42  1  0
  5 43  1  0
  5 44  1  0
  6 45  1  0
 10 46  1  0
 11 47  1  0
 12 48  1  0
 14 49  1  0
 20 50  1  0
 21 51  1  0
 27 52  1  0
 27 53  1  0
 28 54  1  0
 28 55  1  0
 30 56  1  0
 30 57  1  0
 31 58  1  0
 31 59  1  0
 32 60  1  0
 33 61  1  0
 34 62  1  0
 35 63  1  0
 37 64  1  0
M  END
>  <UniqueID>  (20) 
20

>  <SMILES>  (20) 
Cc1cc(C)[nH]c(=Nc2cccc3cc(S(=O)(=O)c4ccc(S(=O)(=O)N5CCOCC5)cc4)ccc23)c1

>  <Energy>  (20) 
94.86257337595792

>  <Genealogy>  (20) 
Cc1cc(C)[nH]c(=Nc2cccc3cc(S(=O)(=O)c4ccc(S(=O)(=O)N5CCOCC5)cc4)ccc23)c1 (3D coordinates assigned)
Cc1cc(C)[nH]c(=Nc2cccc3cc(S(=O)(=O)c4ccc(S(=O)(=O)N5CCOCC5)cc4)ccc23)c1 (nonaromatic ring conformer: 94.86257337595792 kcal/mol)

>  <smiles>  (20) 
Cc1cc(C)[nH]c(=Nc2cccc3cc(S(=O)(=O)c4ccc(S(=O)(=O)N5CCOCC5)cc4)ccc23)c1

>  <score_type>  (20) 
oracle

>  <origin>  (20) 
adgpu

>  <m_score__min__energy>  (20) 
-11.66

>  <m_primary>  (20) 
energy

$$$$
20:0
     RDKit          3D

 57 60  0  0  0  0  0  0  0  0999 V2000
   -2.6580   21.5500  -33.5080 C   0  0  0  0  0  0  0  0  0  0  0  0
   -3.2340   21.3600  -32.0910 C   0  0  1  0  0  0  0  0  0  0  0  0
   -2.1940   21.5290  -31.0500 N   0  0  0  0  0  0  0  0  0  0  0  0
   -2.0100   22.7660  -30.5740 N   0  0  0  0  0  0  0  0  0  0  0  0
   -1.1230   23.0510  -29.5890 C   0  0  0  0  0  0  0  0  0  0  0  0
   -0.3710   22.0280  -29.0220 C   0  0  0  0  0  0  0  0  0  0  0  0
    0.7500   22.4070  -27.7220 Cl  0  0  0  0  0  0  0  0  0  0  0  0
   -0.5560   20.7190  -29.4820 C   0  0  0  0  0  0  0  0  0  0  0  0
    0.1260   19.5830  -28.8270 C   0  0  0  0  0  0  0  0  0  0  0  0
    1.3970   19.1860  -29.2670 C   0  0  0  0  0  0  0  0  0  0  0  0
    2.0190   18.0710  -28.7020 C   0  0  0  0  0  0  0  0  0  0  0  0
    1.3790   17.3410  -27.6910 C   0  0  0  0  0  0  0  0  0  0  0  0
    2.1820   15.9460  -26.9740 S   0  0  0  0  0  0  0  0  0  0  0  0
    1.0020   14.6380  -26.7160 C   0  0  0  0  0  0  0  0  0  0  0  0
    2.7920   16.3210  -25.6550 O   0  0  0  0  0  0  0  0  0  0  0  0
    3.2700   15.4740  -27.8950 O   0  0  0  0  0  0  0  0  0  0  0  0
    0.1100   17.7350  -27.2500 C   0  0  0  0  0  0  0  0  0  0  0  0
   -0.5190   18.8480  -27.8140 C   0  0  0  0  0  0  0  0  0  0  0  0
   -2.1100   19.3050  -27.2180 Cl  0  0  0  0  0  0  0  0  0  0  0  0
   -1.4640   20.4860  -30.5310 C   0  0  0  0  0  0  0  0  0  0  0  0
   -1.6040   19.3120  -30.9700 O   0  0  0  0  0  0  0  0  0  0  0  0
   -4.6200   22.0490  -31.7560 C   0  0  0  0  0  0  0  0  0  0  0  0
   -4.8120   23.0650  -32.7150 O   0  0  0  0  0  0  0  0  0  0  0  0
   -4.7020   22.7460  -30.3700 C   0  0  0  0  0  0  0  0  0  0  0  0
   -4.2730   22.0580  -29.2110 C   0  0  0  0  0  0  0  0  0  0  0  0
   -4.2440   22.6810  -27.9600 C   0  0  0  0  0  0  0  0  0  0  0  0
   -4.5780   24.0300  -27.8420 C   0  0  0  0  0  0  0  0  0  0  0  0
   -4.5370   24.6370  -26.6290 F   0  0  0  0  0  0  0  0  0  0  0  0
   -4.8970   24.7640  -28.9830 C   0  0  0  0  0  0  0  0  0  0  0  0
   -4.9240   24.1420  -30.2360 C   0  0  0  0  0  0  0  0  0  0  0  0
   -5.6900   20.9520  -31.9610 C   0  0  0  0  0  0  0  0  0  0  0  0
   -7.0360   21.2890  -32.2410 C   0  0  0  0  0  0  0  0  0  0  0  0
   -8.0230   20.3060  -32.3160 C   0  0  0  0  0  0  0  0  0  0  0  0
   -7.6980   18.9690  -32.0830 C   0  0  0  0  0  0  0  0  0  0  0  0
   -8.6570   18.0150  -32.1290 F   0  0  0  0  0  0  0  0  0  0  0  0
   -6.3840   18.6140  -31.7820 C   0  0  0  0  0  0  0  0  0  0  0  0
   -5.3900   19.5930  -31.7070 C   0  0  0  0  0  0  0  0  0  0  0  0
   -1.6155   21.8939  -33.4370 H   0  0  0  0  0  0  0  0  0  0  0  0
   -2.6923   20.5929  -34.0491 H   0  0  0  0  0  0  0  0  0  0  0  0
   -3.2550   22.2988  -34.0491 H   0  0  0  0  0  0  0  0  0  0  0  0
   -3.5485   20.3060  -32.0832 H   0  0  0  0  0  0  0  0  0  0  0  0
   -0.9988   24.0867  -29.2400 H   0  0  0  0  0  0  0  0  0  0  0  0
    1.9054   19.7547  -30.0596 H   0  0  0  0  0  0  0  0  0  0  0  0
    3.0157   17.7641  -29.0518 H   0  0  0  0  0  0  0  0  0  0  0  0
    0.8597   14.4802  -25.6367 H   0  0  0  0  0  0  0  0  0  0  0  0
    0.0418   14.9144  -27.1759 H   0  0  0  0  0  0  0  0  0  0  0  0
    1.3755   13.7112  -27.1759 H   0  0  0  0  0  0  0  0  0  0  0  0
   -0.3944   17.1655  -26.4555 H   0  0  0  0  0  0  0  0  0  0  0  0
   -4.9760   22.6290  -33.5940 H   0  0  0  0  0  0  0  0  0  0  0  0
   -3.9548   21.0085  -29.2961 H   0  0  0  0  0  0  0  0  0  0  0  0
   -3.9572   22.1063  -27.0670 H   0  0  0  0  0  0  0  0  0  0  0  0
   -5.1283   25.8360  -28.8982 H   0  0  0  0  0  0  0  0  0  0  0  0
   -5.1209   24.7458  -31.1341 H   0  0  0  0  0  0  0  0  0  0  0  0
   -7.3080   22.3426  -32.4020 H   0  0  0  0  0  0  0  0  0  0  0  0
   -9.0588   20.5851  -32.5591 H   0  0  0  0  0  0  0  0  0  0  0  0
   -6.1287   17.5591  -31.6029 H   0  0  0  0  0  0  0  0  0  0  0  0
   -4.3611   19.3034  -31.4472 H   0  0  0  0  0  0  0  0  0  0  0  0
  1  2  1  0
  2  3  1  0
  3  4  1  0
  4  5  2  0
  5  6  1  0
  6  7  1  0
  6  8  2  0
  8  9  1  0
  9 10  2  0
 10 11  1  0
 11 12  2  0
 12 13  1  0
 13 14  1  0
 13 15  2  0
 13 16  2  0
 12 17  1  0
 17 18  2  0
 18 19  1  0
  8 20  1  0
 20 21  2  0
  2 22  1  0
 22 23  1  0
 22 24  1  0
 24 25  2  0
 25 26  1  0
 26 27  2  0
 27 28  1  0
 27 29  1  0
 29 30  2  0
 22 31  1  0
 31 32  2  0
 32 33  1  0
 33 34  2  0
 34 35  1  0
 34 36  1  0
 36 37  2  0
 20  3  1  0
 30 24  1  0
 37 31  1  0
 18  9  1  0
  1 38  1  0
  1 39  1  0
  1 40  1  0
  2 41  1  6
  5 42  1  0
 10 43  1  0
 11 44  1  0
 14 45  1  0
 14 46  1  0
 14 47  1  0
 17 48  1  0
 23 49  1  0
 25 50  1  0
 26 51  1  0
 29 52  1  0
 30 53  1  0
 32 54  1  0
 33 55  1  0
 36 56  1  0
 37 57  1  0
M  END
>  <UniqueID>  (21) 
21

>  <SMILES>  (21) 
C[C@@H](n1ncc(Cl)c(-c2ccc(S(C)(=O)=O)cc2Cl)c1=O)C(O)(c1ccc(F)cc1)c1ccc(F)cc1

>  <Energy>  (21) 
93.61133695849749

>  <Genealogy>  (21) 
C[C@@H](n1ncc(Cl)c(-c2ccc(S(C)(=O)=O)cc2Cl)c1=O)C(O)(c1ccc(F)cc1)c1ccc(F)cc1 (chirality)
C[C@@H](n1ncc(Cl)c(-c2ccc(S(C)(=O)=O)cc2Cl)c1=O)C(O)(c1ccc(F)cc1)c1ccc(F)cc1 (3D coordinates assigned)
C[C@@H](n1ncc(Cl)c(-c2ccc(S(C)(=O)=O)cc2Cl)c1=O)C(O)(c1ccc(F)cc1)c1ccc(F)cc1 (optimized conformer: 93.61133695849749 kcal/mol)

>  <smiles>  (21) 
CC(n1ncc(Cl)c(-c2ccc(S(C)(=O)=O)cc2Cl)c1=O)C(O)(c1ccc(F)cc1)c1ccc(F)cc1

>  <score_type>  (21) 
oracle

>  <origin>  (21) 
adgpu

>  <m_score__min__energy>  (21) 
-10.51

>  <m_primary>  (21) 
energy

$$$$
21:0
     RDKit          3D

 51 55  0  0  0  0  0  0  0  0999 V2000
   -7.0250   24.0930  -32.1940 H   0  0  0  0  0  0  0  0  0  0  0  0
   -6.2650   24.4750  -31.5870 N   0  0  0  0  0  0  0  0  0  0  0  0
   -5.1380   23.8610  -31.4140 C   0  0  0  0  0  0  0  0  0  0  0  0
   -4.1950   24.4170  -30.6110 N   0  0  0  0  0  0  0  0  0  0  0  0
   -2.9940   23.8230  -30.3830 C   0  0  0  0  0  0  0  0  0  0  0  0
   -2.0650   24.4370  -29.5310 C   0  0  0  0  0  0  0  0  0  0  0  0
   -2.3600   25.6600  -28.9340 O   0  0  0  0  0  0  0  0  0  0  0  0
   -0.8380   23.8210  -29.2710 C   0  0  0  0  0  0  0  0  0  0  0  0
   -0.1076   24.3100  -28.6096 H   0  0  0  0  0  0  0  0  0  0  0  0
   -0.5370   22.5860  -29.8490 C   0  0  0  0  0  0  0  0  0  0  0  0
    0.4260   22.1005  -29.6324 H   0  0  0  0  0  0  0  0  0  0  0  0
   -1.4530   21.9640  -30.7010 C   0  0  0  0  0  0  0  0  0  0  0  0
   -1.2098   20.9879  -31.1461 H   0  0  0  0  0  0  0  0  0  0  0  0
   -2.6880   22.5800  -30.9940 C   0  0  0  0  0  0  0  0  0  0  0  0
   -3.6490   21.9920  -31.8540 C   0  0  0  0  0  0  0  0  0  0  0  0
   -3.3990   20.7230  -32.5780 C   0  0  0  0  0  0  0  0  0  0  0  0
   -3.8780   19.5070  -32.0630 C   0  0  0  0  0  0  0  0  0  0  0  0
   -4.4469   19.4963  -31.1216 H   0  0  0  0  0  0  0  0  0  0  0  0
   -3.6340   18.3110  -32.7430 C   0  0  0  0  0  0  0  0  0  0  0  0
   -4.0188   17.3628  -32.3394 H   0  0  0  0  0  0  0  0  0  0  0  0
   -2.9010   18.3150  -33.9370 C   0  0  0  0  0  0  0  0  0  0  0  0
   -2.5920   16.7700  -34.7980 S   0  0  0  0  0  0  0  0  0  0  0  0
   -3.4150   15.7560  -33.5550 C   0  0  0  0  0  0  0  0  0  0  0  0
   -4.8150   15.7830  -33.3510 C   0  0  0  0  0  0  0  0  0  0  0  0
   -5.9100   16.7290  -34.3600 S   0  0  0  0  0  0  0  0  0  0  0  0
   -6.9700   15.8350  -34.9340 O   0  0  0  0  0  0  0  0  0  0  0  0
   -5.1360   17.3310  -35.4970 O   0  0  0  0  0  0  0  0  0  0  0  0
   -6.6240   18.0450  -33.4340 C   0  0  0  0  0  0  0  0  0  0  0  0
   -6.4800   19.3770  -33.8500 C   0  0  0  0  0  0  0  0  0  0  0  0
   -5.9045   19.6097  -34.7581 H   0  0  0  0  0  0  0  0  0  0  0  0
   -7.0670   20.4090  -33.1120 C   0  0  0  0  0  0  0  0  0  0  0  0
   -6.9531   21.4526  -33.4405 H   0  0  0  0  0  0  0  0  0  0  0  0
   -7.7980   20.1170  -31.9580 C   0  0  0  0  0  0  0  0  0  0  0  0
   -8.2598   20.9305  -31.3793 H   0  0  0  0  0  0  0  0  0  0  0  0
   -7.9430   18.7910  -31.5380 C   0  0  0  0  0  0  0  0  0  0  0  0
   -8.5200   18.5613  -30.6301 H   0  0  0  0  0  0  0  0  0  0  0  0
   -7.3540   17.7570  -32.2730 C   0  0  0  0  0  0  0  0  0  0  0  0
   -7.4641   16.7148  -31.9388 H   0  0  0  0  0  0  0  0  0  0  0  0
   -5.3630   14.9950  -32.3850 N   0  0  0  0  0  0  0  0  0  0  0  0
   -4.6140   14.1690  -31.6090 C   0  0  0  0  0  0  0  0  0  0  0  0
   -5.0958   13.5625  -30.8279 H   0  0  0  0  0  0  0  0  0  0  0  0
   -3.2370   14.0890  -31.8010 C   0  0  0  0  0  0  0  0  0  0  0  0
   -2.6272   13.4118  -31.1849 H   0  0  0  0  0  0  0  0  0  0  0  0
   -2.6410   14.8780  -32.7840 C   0  0  0  0  0  0  0  0  0  0  0  0
   -1.5565   14.8110  -32.9555 H   0  0  0  0  0  0  0  0  0  0  0  0
   -2.3830   19.5190  -34.4280 C   0  0  0  0  0  0  0  0  0  0  0  0
   -1.7783   19.5217  -35.3469 H   0  0  0  0  0  0  0  0  0  0  0  0
   -2.6320   20.7180  -33.7540 C   0  0  0  0  0  0  0  0  0  0  0  0
   -2.2253   21.6616  -34.1466 H   0  0  0  0  0  0  0  0  0  0  0  0
   -4.8800   22.6380  -32.0470 C   0  0  0  0  0  0  0  0  0  0  0  0
   -5.6431   22.1836  -32.6960 H   0  0  0  0  0  0  0  0  0  0  0  0
  1  2  1  0
  2  3  2  0
  3  4  1  0
  4  5  1  0
  5  6  2  0
  6  7  1  0
  6  8  1  0
  8  9  1  0
  8 10  2  0
 10 11  1  0
 10 12  1  0
 12 13  1  0
 12 14  2  0
 14 15  1  0
 15 16  1  0
 16 17  2  0
 17 18  1  0
 17 19  1  0
 19 20  1  0
 19 21  2  0
 21 22  1  0
 22 23  1  0
 23 24  1  0
 24 25  1  0
 25 26  2  0
 25 27  2  0
 25 28  1  0
 28 29  2  0
 29 30  1  0
 29 31  1  0
 31 32  1  0
 31 33  2  0
 33 34  1  0
 33 35  1  0
 35 36  1  0
 35 37  2  0
 37 38  1  0
 24 39  2  0
 39 40  1  0
 40 41  1  0
 40 42  2  0
 42 43  1  0
 42 44  1  0
 44 45  1  0
 21 46  1  0
 46 47  1  0
 46 48  2  0
 48 49  1  0
 15 50  2  0
 50 51  1  0
 50  3  1  0
 14  5  1  0
 48 16  1  0
 44 23  2  0
 37 28  1  0
M  CHG  2   4  -1   7  -1
M  END
>  <UniqueID>  (22) 
22

>  <SMILES>  (22) 
[H]/N=c1\cc(-c2ccc(Sc3cccnc3S(=O)(=O)c3ccccc3)cc2)c2cccc([O-])c2[n-]1

>  <Energy>  (22) 
71.00341439334463

>  <Genealogy>  (22) 
N=c1cc(-c2ccc(Sc3cccnc3S(=O)(=O)c3ccccc3)cc2)c2cccc([O-])c2[n-]1 (protonated)
[H]/N=c1\cc(-c2ccc(Sc3cccnc3S(=O)(=O)c3ccccc3)cc2)c2cccc([O-])c2[n-]1 (cis-trans isomerization)
[H]/N=c1\cc(-c2ccc(Sc3cccnc3S(=O)(=O)c3ccccc3)cc2)c2cccc([O-])c2[n-]1 (3D coordinates assigned)
[H]/N=c1\cc(-c2ccc(Sc3cccnc3S(=O)(=O)c3ccccc3)cc2)c2cccc([O-])c2[n-]1 (optimized conformer: 71.00341439334463 kcal/mol)

>  <smiles>  (22) 
N=c1cc(-c2ccc(Sc3cccnc3S(=O)(=O)c3ccccc3)cc2)c2cccc(O)c2[nH]1

>  <score_type>  (22) 
oracle

>  <origin>  (22) 
adgpu

>  <m_score__min__energy>  (22) 
-12.630000000000001

>  <m_primary>  (22) 
energy

$$$$
22:0
     RDKit          3D

 53 56  0  0  0  0  0  0  0  0999 V2000
   -0.9405   23.1878  -30.8112 H   0  0  0  0  0  0  0  0  0  0  0  0
   -0.8500   22.4730  -29.9800 C   0  0  0  0  0  0  0  0  0  0  0  0
   -0.3260   21.1990  -30.2120 C   0  0  0  0  0  0  0  0  0  0  0  0
   -0.0003   20.9162  -31.2239 H   0  0  0  0  0  0  0  0  0  0  0  0
   -0.2140   20.2810  -29.1610 C   0  0  0  0  0  0  0  0  0  0  0  0
    0.5890   18.7330  -29.4160 S   0  0  0  0  0  0  0  0  0  0  0  0
    1.9580   18.7940  -28.7950 O   0  0  0  0  0  0  0  0  0  0  0  0
   -0.1860   17.6550  -28.7090 O   0  0  0  0  0  0  0  0  0  0  0  0
    0.7410   18.3190  -31.1150 N   0  0  0  0  0  0  0  0  0  0  0  0
   -0.0650   18.8000  -31.5800 H   0  0  0  0  0  0  0  0  0  0  0  0
    0.5790   16.8650  -31.3580 C   0  0  0  0  0  0  0  0  0  0  0  0
    0.0309   16.4276  -30.5105 H   0  0  0  0  0  0  0  0  0  0  0  0
    0.0328   16.7503  -32.3059 H   0  0  0  0  0  0  0  0  0  0  0  0
    1.9190   16.1240  -31.5090 C   0  0  0  0  0  0  0  0  0  0  0  0
    1.8128   15.1034  -31.1127 H   0  0  0  0  0  0  0  0  0  0  0  0
    2.1870   16.0960  -32.5755 H   0  0  0  0  0  0  0  0  0  0  0  0
    2.9410   16.7870  -30.8060 O   0  0  0  0  0  0  0  0  0  0  0  0
    3.2310   18.0190  -31.4330 C   0  0  0  0  0  0  0  0  0  0  0  0
    3.9013   18.5948  -30.7779 H   0  0  0  0  0  0  0  0  0  0  0  0
    3.6959   17.7892  -32.4031 H   0  0  0  0  0  0  0  0  0  0  0  0
    1.9720   18.8720  -31.7190 C   0  0  0  0  0  0  0  0  0  0  0  0
    2.1356   19.8821  -31.3153 H   0  0  0  0  0  0  0  0  0  0  0  0
    1.8247   18.8800  -32.8091 H   0  0  0  0  0  0  0  0  0  0  0  0
   -0.6970   20.6220  -27.8900 C   0  0  0  0  0  0  0  0  0  0  0  0
   -0.6644   19.8843  -27.0747 H   0  0  0  0  0  0  0  0  0  0  0  0
   -1.2200   21.8970  -27.6560 C   0  0  0  0  0  0  0  0  0  0  0  0
   -1.6003   22.1581  -26.6574 H   0  0  0  0  0  0  0  0  0  0  0  0
   -1.2620   22.8450  -28.6890 C   0  0  0  0  0  0  0  0  0  0  0  0
   -1.7030   24.2300  -28.4100 C   0  0  0  0  0  0  0  0  0  0  0  0
   -1.4030   24.7600  -27.3060 O   0  0  0  0  0  0  0  0  0  0  0  0
   -2.5010   24.9800  -29.3400 N   0  0  0  0  0  0  0  0  0  0  0  0
   -3.5190   24.5370  -30.0190 C   0  0  0  0  0  0  0  0  0  0  0  0
   -4.2370   25.3320  -30.8400 N   0  0  0  0  0  0  0  0  0  0  0  0
   -5.2240   24.6890  -31.4630 N   0  0  0  0  0  0  0  0  0  0  0  0
   -5.2890   23.3780  -31.1470 C   0  0  0  0  0  0  0  0  0  0  0  0
   -6.5280   22.2640  -31.8000 S   0  0  0  0  0  0  0  0  0  0  0  0
   -5.3370   21.3210  -32.8150 C   0  0  0  0  0  0  0  0  0  0  0  0
   -4.3643   21.8343  -32.7940 H   0  0  0  0  0  0  0  0  0  0  0  0
   -5.7276   21.2641  -33.8417 H   0  0  0  0  0  0  0  0  0  0  0  0
   -5.1610   19.9180  -32.2980 C   0  0  0  0  0  0  0  0  0  0  0  0
   -6.1890   19.2610  -31.9880 O   0  0  0  0  0  0  0  0  0  0  0  0
   -3.8740   19.3250  -32.0640 N   0  0  0  0  0  0  0  0  0  0  0  0
   -2.7210   19.6990  -32.5340 C   0  0  0  0  0  0  0  0  0  0  0  0
   -1.5750   19.0770  -32.2000 N   0  0  0  0  0  0  0  0  0  0  0  0
   -0.6270   19.6520  -32.8810 O   0  0  0  0  0  0  0  0  0  0  0  0
   -1.1070   20.6030  -33.6490 C   0  0  0  0  0  0  0  0  0  0  0  0
   -0.2770   21.4480  -34.5550 C   0  0  0  0  0  0  0  0  0  0  0  0
    0.3686   22.1053  -33.9540 H   0  0  0  0  0  0  0  0  0  0  0  0
    0.3471   20.8016  -35.1896 H   0  0  0  0  0  0  0  0  0  0  0  0
   -0.9344   22.0604  -35.1896 H   0  0  0  0  0  0  0  0  0  0  0  0
   -2.4710   20.6950  -33.4650 C   0  0  0  0  0  0  0  0  0  0  0  0
   -3.1830   21.3866  -33.9391 H   0  0  0  0  0  0  0  0  0  0  0  0
   -4.0850   22.9420  -30.0570 S   0  0  0  0  0  0  0  0  0  0  0  0
  1  2  1  0
  2  3  2  0
  3  4  1  0
  3  5  1  0
  5  6  1  0
  6  7  2  0
  6  8  2  0
  6  9  1  0
  9 10  1  0
  9 11  1  0
 11 12  1  0
 11 13  1  0
 11 14  1  0
 14 15  1  0
 14 16  1  0
 14 17  1  0
 17 18  1  0
 18 19  1  0
 18 20  1  0
 18 21  1  0
 21 22  1  0
 21 23  1  0
  5 24  2  0
 24 25  1  0
 24 26  1  0
 26 27  1  0
 26 28  2  0
 28 29  1  0
 29 30  2  0
 29 31  1  0
 31 32  2  3
 32 33  1  0
 33 34  1  0
 34 35  2  0
 35 36  1  0
 36 37  1  0
 37 38  1  0
 37 39  1  0
 37 40  1  0
 40 41  2  0
 40 42  1  0
 42 43  2  0
 43 44  1  0
 44 45  1  0
 45 46  1  0
 46 47  1  0
 47 48  1  0
 47 49  1  0
 47 50  1  0
 46 51  2  0
 51 52  1  0
 35 53  1  0
 28  2  1  0
 53 32  1  0
 21  9  1  0
 51 43  1  0
M  CHG  3   9   1  33  -1  44  -1
M  END
>  <UniqueID>  (23) 
23

>  <SMILES>  (23) 
Cc1c/c(=N\C(=O)CSc2n[n-]c(=NC(=O)c3ccc(S(=O)(=O)[NH+]4CCOCC4)cc3)s2)[n-]o1

>  <Energy>  (23) 
140.2361929134029

>  <Genealogy>  (23) 
Cc1cc(=NC(=O)CSc2n[n-]c(=NC(=O)c3ccc(S(=O)(=O)[NH+]4CCOCC4)cc3)s2)[n-]o1 (protonated)
Cc1c/c(=N\C(=O)CSc2n[n-]c(=NC(=O)c3ccc(S(=O)(=O)[NH+]4CCOCC4)cc3)s2)[n-]o1 (cis-trans isomerization)
Cc1c/c(=N\C(=O)CSc2n[n-]c(=NC(=O)c3ccc(S(=O)(=O)[NH+]4CCOCC4)cc3)s2)[n-]o1 (3D coordinates assigned)
Cc1c/c(=N\C(=O)CSc2n[n-]c(=NC(=O)c3ccc(S(=O)(=O)[NH+]4CCOCC4)cc3)s2)[n-]o1 (nonaromatic ring conformer: 140.2361929134029 kcal/mol)

>  <smiles>  (23) 
Cc1cc(=NC(=O)CSc2n[nH]c(=NC(=O)c3ccc(S(=O)(=O)N4CCOCC4)cc3)s2)[nH]o1

>  <score_type>  (23) 
oracle

>  <origin>  (23) 
adgpu

>  <m_score__min__energy>  (23) 
-11.609999999999999

>  <m_primary>  (23) 
energy

$$$$
23:0
     RDKit          3D

 47 50  0  0  0  0  0  0  0  0999 V2000
   -5.9460   17.0110  -31.1320 O   0  0  0  0  0  0  0  0  0  0  0  0
   -6.3480   17.5120  -32.4910 S   0  0  0  0  0  0  0  0  0  0  0  0
   -7.2180   16.4810  -33.1540 O   0  0  0  0  0  0  0  0  0  0  0  0
   -7.2570   19.0110  -32.3300 C   0  0  0  0  0  0  0  0  0  0  0  0
   -8.6590   18.9940  -32.3010 C   0  0  0  0  0  0  0  0  0  0  0  0
   -9.3710   20.1870  -32.1560 C   0  0  0  0  0  0  0  0  0  0  0  0
   -8.6890   21.4020  -32.0400 C   0  0  0  0  0  0  0  0  0  0  0  0
   -7.2870   21.4300  -32.0720 C   0  0  0  0  0  0  0  0  0  0  0  0
   -6.4220   22.9610  -31.9370 S   0  0  0  0  0  0  0  0  0  0  0  0
   -7.2040   24.0140  -32.6760 O   0  0  0  0  0  0  0  0  0  0  0  0
   -5.0850   22.8300  -32.6140 O   0  0  0  0  0  0  0  0  0  0  0  0
   -6.1820   23.4860  -30.2800 N   0  0  0  0  0  0  0  0  0  0  0  0
   -4.8250   23.1630  -29.7690 C   0  0  0  0  0  0  0  0  0  0  0  0
   -3.8710   24.3680  -29.7490 C   0  0  0  0  0  0  0  0  0  0  0  0
   -4.2040   25.2960  -30.8270 N   0  0  0  0  0  0  0  0  0  0  0  0
   -5.5170   25.9100  -30.5960 C   0  0  0  0  0  0  0  0  0  0  0  0
   -6.5660   24.9000  -30.0760 C   0  0  0  0  0  0  0  0  0  0  0  0
   -6.5760   20.2280  -32.2000 C   0  0  0  0  0  0  0  0  0  0  0  0
   -4.9110   17.7860  -33.4600 C   0  0  0  0  0  0  0  0  0  0  0  0
   -4.5720   17.1470  -34.6480 C   0  0  0  0  0  0  0  0  0  0  0  0
   -3.3920   17.6170  -35.1110 N   0  0  0  0  0  0  0  0  0  0  0  0
   -2.9870   18.5450  -34.2250 C   0  0  0  0  0  0  0  0  0  0  0  0
   -1.8220   19.3100  -34.2740 C   0  0  0  0  0  0  0  0  0  0  0  0
   -1.5950   20.2300  -33.2340 C   0  0  0  0  0  0  0  0  0  0  0  0
   -2.5280   20.3650  -32.1800 C   0  0  0  0  0  0  0  0  0  0  0  0
   -2.2300   21.5180  -30.8930 Cl  0  0  0  0  0  0  0  0  0  0  0  0
   -3.6960   19.5790  -32.1580 C   0  0  0  0  0  0  0  0  0  0  0  0
   -3.8910   18.6750  -33.2030 C   0  0  0  0  0  0  0  0  0  0  0  0
   -9.1987   18.0399  -32.3926 H   0  0  0  0  0  0  0  0  0  0  0  0
  -10.4706   20.1705  -32.1330 H   0  0  0  0  0  0  0  0  0  0  0  0
   -9.2536   22.3388  -31.9233 H   0  0  0  0  0  0  0  0  0  0  0  0
   -6.8610   22.9150  -29.7220 H   0  0  0  0  0  0  0  0  0  0  0  0
   -4.9223   22.7796  -28.7426 H   0  0  0  0  0  0  0  0  0  0  0  0
   -4.3911   22.4200  -30.4543 H   0  0  0  0  0  0  0  0  0  0  0  0
   -3.9613   24.8864  -28.7830 H   0  0  0  0  0  0  0  0  0  0  0  0
   -2.8402   24.0108  -29.8899 H   0  0  0  0  0  0  0  0  0  0  0  0
   -3.4840   26.0560  -30.8420 H   0  0  0  0  0  0  0  0  0  0  0  0
   -5.4038   26.7134  -29.8532 H   0  0  0  0  0  0  0  0  0  0  0  0
   -5.8775   26.2955  -31.5611 H   0  0  0  0  0  0  0  0  0  0  0  0
   -6.7070   25.0696  -28.9983 H   0  0  0  0  0  0  0  0  0  0  0  0
   -7.4880   25.0690  -30.6516 H   0  0  0  0  0  0  0  0  0  0  0  0
   -5.4761   20.2411  -32.1983 H   0  0  0  0  0  0  0  0  0  0  0  0
   -5.1769   16.3710  -35.1399 H   0  0  0  0  0  0  0  0  0  0  0  0
   -2.8970   17.3170  -35.9810 H   0  0  0  0  0  0  0  0  0  0  0  0
   -1.1035   19.1977  -35.0994 H   0  0  0  0  0  0  0  0  0  0  0  0
   -0.6854   20.8486  -33.2408 H   0  0  0  0  0  0  0  0  0  0  0  0
   -4.4301   19.6743  -31.3444 H   0  0  0  0  0  0  0  0  0  0  0  0
  1  2  2  0
  2  3  2  0
  2  4  1  0
  4  5  2  0
  5  6  1  0
  6  7  2  0
  7  8  1  0
  8  9  1  0
  9 10  2  0
  9 11  2  0
  9 12  1  0
 12 13  1  0
 13 14  1  0
 14 15  1  0
 15 16  1  0
 16 17  1  0
  8 18  2  0
  2 19  1  0
 19 20  2  0
 20 21  1  0
 21 22  1  0
 22 23  2  0
 23 24  1  0
 24 25  2  0
 25 26  1  0
 25 27  1  0
 27 28  2  0
 18  4  1  0
 28 19  1  0
 17 12  1  0
 28 22  1  0
  5 29  1  0
  6 30  1  0
  7 31  1  0
 12 32  1  0
 13 33  1  0
 13 34  1  0
 14 35  1  0
 14 36  1  0
 15 37  1  0
 16 38  1  0
 16 39  1  0
 17 40  1  0
 17 41  1  0
 18 42  1  0
 20 43  1  0
 21 44  1  0
 23 45  1  0
 24 46  1  0
 27 47  1  0
M  CHG  1  12   1
M  END
>  <UniqueID>  (24) 
24

>  <SMILES>  (24) 
O=S(=O)(c1cccc(S(=O)(=O)[NH+]2CCNCC2)c1)c1c[nH]c2ccc(Cl)cc12

>  <Energy>  (24) 
93.33104650047439

>  <Genealogy>  (24) 
O=S(=O)(c1cccc(S(=O)(=O)[NH+]2CCNCC2)c1)c1c[nH]c2ccc(Cl)cc12 (protonated)
O=S(=O)(c1cccc(S(=O)(=O)[NH+]2CCNCC2)c1)c1c[nH]c2ccc(Cl)cc12 (3D coordinates assigned)
O=S(=O)(c1cccc(S(=O)(=O)[NH+]2CCNCC2)c1)c1c[nH]c2ccc(Cl)cc12 (nonaromatic ring conformer: 93.33104650047439 kcal/mol)

>  <smiles>  (24) 
O=S(=O)(c1cccc(S(=O)(=O)N2CCNCC2)c1)c1c[nH]c2ccc(Cl)cc12

>  <score_type>  (24) 
oracle

>  <origin>  (24) 
adgpu

>  <m_score__min__energy>  (24) 
-10.26

>  <m_primary>  (24) 
energy

$$$$
24:0
     RDKit          3D

 47 50  0  0  0  0  0  0  0  0999 V2000
   -2.4040   21.6040  -33.2930 N   0  0  0  0  0  0  0  0  0  0  0  0
   -1.6680   20.6840  -32.7540 C   0  0  0  0  0  0  0  0  0  0  0  0
   -1.2540   19.6100  -33.4900 N   0  0  0  0  0  0  0  0  0  0  0  0
   -0.4720   18.6220  -32.9570 C   0  0  0  0  0  0  0  0  0  0  0  0
   -0.0680   18.6840  -31.6160 C   0  0  0  0  0  0  0  0  0  0  0  0
   -0.4900   19.7770  -30.8700 C   0  0  0  0  0  0  0  0  0  0  0  0
   -0.1680   20.1410  -29.2640 S   0  0  0  0  0  0  0  0  0  0  0  0
   -1.0660   21.5730  -29.3440 C   0  0  0  0  0  0  0  0  0  0  0  0
   -1.2820   22.7020  -27.9720 S   0  0  0  0  0  0  0  0  0  0  0  0
   -2.8910   23.3470  -28.5530 C   0  0  0  0  0  0  0  0  0  0  0  0
   -2.7390   24.6200  -29.3460 C   0  0  0  0  0  0  0  0  0  0  0  0
   -1.8050   25.4100  -29.0550 O   0  0  0  0  0  0  0  0  0  0  0  0
   -3.5790   24.9320  -30.4650 N   0  0  0  0  0  0  0  0  0  0  0  0
   -4.7860   24.2480  -30.8300 C   0  0  0  0  0  0  0  0  0  0  0  0
   -4.7370   23.0560  -31.5700 C   0  0  0  0  0  0  0  0  0  0  0  0
   -5.9160   22.3820  -31.9120 C   0  0  0  0  0  0  0  0  0  0  0  0
   -5.8440   20.8750  -32.8310 S   0  0  0  0  0  0  0  0  0  0  0  0
   -4.7350   20.9670  -33.8410 O   0  0  0  0  0  0  0  0  0  0  0  0
   -7.1350   20.6910  -33.5780 O   0  0  0  0  0  0  0  0  0  0  0  0
   -5.5760   19.4860  -31.7970 N   0  0  0  0  0  0  0  0  0  0  0  0
   -6.8200   18.7320  -31.5800 C   0  0  0  0  0  0  0  0  0  0  0  0
   -6.7410   17.4250  -32.3630 C   0  0  0  0  0  0  0  0  0  0  0  0
   -5.4110   17.4510  -33.0830 C   0  0  0  0  0  0  0  0  0  0  0  0
   -4.6200   18.5520  -32.4040 C   0  0  0  0  0  0  0  0  0  0  0  0
   -7.1510   22.9020  -31.5050 C   0  0  0  0  0  0  0  0  0  0  0  0
   -7.2040   24.0710  -30.7440 C   0  0  0  0  0  0  0  0  0  0  0  0
   -6.0290   24.7450  -30.3970 C   0  0  0  0  0  0  0  0  0  0  0  0
   -6.1200   25.9120  -29.6370 O   0  0  0  0  0  0  0  0  0  0  0  0
   -1.6100   21.7790  -30.5670 N   0  0  0  0  0  0  0  0  0  0  0  0
   -1.2810   20.7710  -31.4150 C   0  0  0  0  0  0  0  0  0  0  0  0
   -2.7010   21.5500  -34.2930 H   0  0  0  0  0  0  0  0  0  0  0  0
   -0.1585   17.7744  -33.5841 H   0  0  0  0  0  0  0  0  0  0  0  0
    0.5592   17.8972  -31.1716 H   0  0  0  0  0  0  0  0  0  0  0  0
   -3.3686   22.5875  -29.1895 H   0  0  0  0  0  0  0  0  0  0  0  0
   -3.5056   23.5704  -27.6685 H   0  0  0  0  0  0  0  0  0  0  0  0
   -3.7648   22.6481  -31.8837 H   0  0  0  0  0  0  0  0  0  0  0  0
   -6.9395   18.5151  -30.5082 H   0  0  0  0  0  0  0  0  0  0  0  0
   -7.6820   19.3233  -31.9226 H   0  0  0  0  0  0  0  0  0  0  0  0
   -6.7883   16.5655  -31.6781 H   0  0  0  0  0  0  0  0  0  0  0  0
   -7.5794   17.3261  -33.0682 H   0  0  0  0  0  0  0  0  0  0  0  0
   -4.8961   16.4845  -32.9794 H   0  0  0  0  0  0  0  0  0  0  0  0
   -5.5281   17.6308  -34.1619 H   0  0  0  0  0  0  0  0  0  0  0  0
   -3.9726   18.1216  -31.6258 H   0  0  0  0  0  0  0  0  0  0  0  0
   -3.9854   19.0745  -33.1350 H   0  0  0  0  0  0  0  0  0  0  0  0
   -8.0820   22.3877  -31.7858 H   0  0  0  0  0  0  0  0  0  0  0  0
   -8.1770   24.4648  -30.4150 H   0  0  0  0  0  0  0  0  0  0  0  0
   -5.3600   26.2420  -29.0540 H   0  0  0  0  0  0  0  0  0  0  0  0
  1  2  2  3
  2  3  1  0
  3  4  1  0
  4  5  2  0
  5  6  1  0
  6  7  1  0
  7  8  1  0
  8  9  1  0
  9 10  1  0
 10 11  1  0
 11 12  2  0
 11 13  1  0
 13 14  1  0
 14 15  2  0
 15 16  1  0
 16 17  1  0
 17 18  2  0
 17 19  2  0
 17 20  1  0
 20 21  1  0
 21 22  1  0
 22 23  1  0
 23 24  1  0
 16 25  2  0
 25 26  1  0
 26 27  2  0
 27 28  1  0
  8 29  2  0
 29 30  1  0
 30  2  1  0
 30  6  2  0
 27 14  1  0
 24 20  1  0
  1 31  1  0
  4 32  1  0
  5 33  1  0
 10 34  1  0
 10 35  1  0
 15 36  1  0
 21 37  1  0
 21 38  1  0
 22 39  1  0
 22 40  1  0
 23 41  1  0
 23 42  1  0
 24 43  1  0
 24 44  1  0
 25 45  1  0
 26 46  1  0
 28 47  1  0
M  CHG  2   3  -1  13  -1
M  END
>  <UniqueID>  (25) 
25

>  <SMILES>  (25) 
N=c1[n-]ccc2sc(SCC(=O)[N-]c3cc(S(=O)(=O)N4CCCC4)ccc3O)nc12

>  <Energy>  (25) 
86.92902844951944

>  <Genealogy>  (25) 
N=c1[n-]ccc2sc(SCC(=O)[N-]c3cc(S(=O)(=O)N4CCCC4)ccc3O)nc12 (protonated)
N=c1[n-]ccc2sc(SCC(=O)[N-]c3cc(S(=O)(=O)N4CCCC4)ccc3O)nc12 (3D coordinates assigned)
N=c1[n-]ccc2sc(SCC(=O)[N-]c3cc(S(=O)(=O)N4CCCC4)ccc3O)nc12 (nonaromatic ring conformer: 86.92902844951944 kcal/mol)

>  <smiles>  (25) 
N=c1[nH]ccc2sc(SCC(=O)Nc3cc(S(=O)(=O)N4CCCC4)ccc3O)nc12

>  <score_type>  (25) 
oracle

>  <origin>  (25) 
adgpu

>  <m_score__min__energy>  (25) 
-11.81

>  <m_primary>  (25) 
energy

$$$$
25:0
     RDKit          3D

 27 28  0  0  0  0  0  0  0  0999 V2000
   -5.7630   18.7160  -34.2480 C   0  0  0  0  0  0  0  0  0  0  0  0
   -5.6180   19.2350  -32.8220 C   0  0  0  0  0  0  0  0  0  0  0  0
   -6.6250   20.3090  -32.5430 C   0  0  0  0  0  0  0  0  0  0  0  0
   -8.0000   20.2270  -32.7340 C   0  0  0  0  0  0  0  0  0  0  0  0
   -8.6040   21.3590  -32.3090 N   0  0  0  0  0  0  0  0  0  0  0  0
   -7.6230   22.1490  -31.8390 C   0  0  0  0  0  0  0  0  0  0  0  0
   -7.7550   23.4150  -31.2780 C   0  0  0  0  0  0  0  0  0  0  0  0
   -6.5910   24.0650  -30.8300 C   0  0  0  0  0  0  0  0  0  0  0  0
   -5.3170   23.4410  -30.9370 C   0  0  0  0  0  0  0  0  0  0  0  0
   -4.0690   24.1130  -30.4730 C   0  0  0  0  0  0  0  0  0  0  0  0
   -3.8620   25.3030  -30.8390 O   0  0  0  0  0  0  0  0  0  0  0  0
   -3.0560   23.4520  -29.5580 C   0  0  0  0  0  0  0  0  0  0  0  0
   -3.8790   22.7390  -28.1470 Cl  0  0  0  0  0  0  0  0  0  0  0  0
   -1.8740   24.6450  -28.9460 Cl  0  0  0  0  0  0  0  0  0  0  0  0
   -2.1240   22.1940  -30.4160 Cl  0  0  0  0  0  0  0  0  0  0  0  0
   -5.2290   22.1540  -31.5210 C   0  0  0  0  0  0  0  0  0  0  0  0
   -6.4020   21.5420  -31.9590 C   0  0  0  0  0  0  0  0  0  0  0  0
   -6.0589   17.6568  -34.2244 H   0  0  0  0  0  0  0  0  0  0  0  0
   -6.5324   19.3000  -34.7743 H   0  0  0  0  0  0  0  0  0  0  0  0
   -4.8023   18.8167  -34.7743 H   0  0  0  0  0  0  0  0  0  0  0  0
   -5.7723   18.4039  -32.1181 H   0  0  0  0  0  0  0  0  0  0  0  0
   -4.6093   19.6566  -32.7005 H   0  0  0  0  0  0  0  0  0  0  0  0
   -8.5225   19.3626  -33.1696 H   0  0  0  0  0  0  0  0  0  0  0  0
   -9.6270   21.5680  -32.3290 H   0  0  0  0  0  0  0  0  0  0  0  0
   -8.7411   23.8939  -31.1874 H   0  0  0  0  0  0  0  0  0  0  0  0
   -6.6668   25.0705  -30.3905 H   0  0  0  0  0  0  0  0  0  0  0  0
   -4.2575   21.6490  -31.6265 H   0  0  0  0  0  0  0  0  0  0  0  0
  1  2  1  0
  2  3  1  0
  3  4  2  0
  4  5  1  0
  5  6  1  0
  6  7  2  0
  7  8  1  0
  8  9  2  0
  9 10  1  0
 10 11  2  0
 10 12  1  0
 12 13  1  0
 12 14  1  0
 12 15  1  0
  9 16  1  0
 16 17  2  0
 17  3  1  0
 17  6  1  0
  1 18  1  0
  1 19  1  0
  1 20  1  0
  2 21  1  0
  2 22  1  0
  4 23  1  0
  5 24  1  0
  7 25  1  0
  8 26  1  0
 16 27  1  0
M  END
>  <UniqueID>  (26) 
26

>  <SMILES>  (26) 
CCc1c[nH]c2ccc(C(=O)C(Cl)(Cl)Cl)cc12

>  <Energy>  (26) 
60.35203812235073

>  <Genealogy>  (26) 
CCc1c[nH]c2ccc(C(=O)C(Cl)(Cl)Cl)cc12 (3D coordinates assigned)
CCc1c[nH]c2ccc(C(=O)C(Cl)(Cl)Cl)cc12 (optimized conformer: 60.35203812235073 kcal/mol)

>  <smiles>  (26) 
CCc1c[nH]c2ccc(C(=O)C(Cl)(Cl)Cl)cc12

>  <score_type>  (26) 
oracle

>  <origin>  (26) 
adgpu

>  <m_score__min__energy>  (26) 
-7.5199999999999996

>  <m_primary>  (26) 
energy

$$$$
26:0
     RDKit          3D

 44 46  0  0  0  0  0  0  0  0999 V2000
   -0.1170   18.4600  -35.1050 C   0  0  0  0  0  0  0  0  0  0  0  0
   -1.2940   18.7490  -34.2960 N   0  0  0  0  0  0  0  0  0  0  0  0
   -1.5880   20.0830  -33.8510 C   0  0  0  0  0  0  0  0  0  0  0  0
   -0.7200   20.9910  -33.9840 O   0  0  0  0  0  0  0  0  0  0  0  0
   -2.8830   20.4110  -33.2110 C   0  0  0  0  0  0  0  0  0  0  0  0
   -3.1440   21.7370  -32.7950 C   0  0  0  0  0  0  0  0  0  0  0  0
   -4.3860   22.0950  -32.2350 C   0  0  0  0  0  0  0  0  0  0  0  0
   -4.6290   23.4700  -31.9170 N   0  0  0  0  0  0  0  0  0  0  0  0
   -4.3230   24.1710  -30.3510 S   0  0  0  0  0  0  0  0  0  0  0  0
   -4.1970   25.6620  -30.5060 O   0  0  0  0  0  0  0  0  0  0  0  0
   -5.4720   23.8610  -29.4350 O   0  0  0  0  0  0  0  0  0  0  0  0
   -2.8550   23.4700  -29.6610 C   0  0  0  0  0  0  0  0  0  0  0  0
   -2.7580   22.0770  -29.5370 C   0  0  0  0  0  0  0  0  0  0  0  0
   -1.5840   21.4840  -29.0400 C   0  0  0  0  0  0  0  0  0  0  0  0
   -1.4840   19.9910  -28.9710 C   0  0  0  0  0  0  0  0  0  0  0  0
   -0.5060   22.2950  -28.6450 C   0  0  0  0  0  0  0  0  0  0  0  0
   -0.6070   23.6830  -28.7400 C   0  0  0  0  0  0  0  0  0  0  0  0
   -1.7750   24.2760  -29.2420 C   0  0  0  0  0  0  0  0  0  0  0  0
   -1.8480   25.6640  -29.3140 O   0  0  0  0  0  0  0  0  0  0  0  0
   -5.3760   21.1130  -32.0450 C   0  0  0  0  0  0  0  0  0  0  0  0
   -5.1080   19.8160  -32.4630 C   0  0  0  0  0  0  0  0  0  0  0  0
   -6.1370   18.4880  -32.4450 S   0  0  0  0  0  0  0  0  0  0  0  0
   -4.9900   17.5060  -33.2000 C   0  0  0  0  0  0  0  0  0  0  0  0
   -5.2650   15.8370  -33.6540 S   0  0  0  0  0  0  0  0  0  0  0  0
   -6.9460   15.6430  -34.1990 C   0  0  0  0  0  0  0  0  0  0  0  0
   -4.3420   15.4590  -34.7740 O   0  0  0  0  0  0  0  0  0  0  0  0
   -4.9980   14.9370  -32.4810 O   0  0  0  0  0  0  0  0  0  0  0  0
   -3.8430   18.1670  -33.4740 N   0  0  0  0  0  0  0  0  0  0  0  0
   -3.9030   19.4570  -33.0470 C   0  0  0  0  0  0  0  0  0  0  0  0
    0.7383   18.2500  -34.4460 H   0  0  0  0  0  0  0  0  0  0  0  0
   -0.3146   17.5837  -35.7399 H   0  0  0  0  0  0  0  0  0  0  0  0
    0.1138   19.3282  -35.7399 H   0  0  0  0  0  0  0  0  0  0  0  0
   -1.9080   17.9520  -34.0070 H   0  0  0  0  0  0  0  0  0  0  0  0
   -2.3630   22.5029  -32.9108 H   0  0  0  0  0  0  0  0  0  0  0  0
   -3.6073   21.4427  -29.8309 H   0  0  0  0  0  0  0  0  0  0  0  0
   -1.4627   19.6732  -27.9181 H   0  0  0  0  0  0  0  0  0  0  0  0
   -2.3541   19.5417  -29.4721 H   0  0  0  0  0  0  0  0  0  0  0  0
   -0.5618   19.6617  -29.4721 H   0  0  0  0  0  0  0  0  0  0  0  0
    0.4167   21.8354  -28.2612 H   0  0  0  0  0  0  0  0  0  0  0  0
    0.2337   24.3159  -28.4196 H   0  0  0  0  0  0  0  0  0  0  0  0
   -6.3386   21.3665  -31.5768 H   0  0  0  0  0  0  0  0  0  0  0  0
   -7.6085   15.5665  -33.3243 H   0  0  0  0  0  0  0  0  0  0  0  0
   -7.2378   16.5134  -34.8050 H   0  0  0  0  0  0  0  0  0  0  0  0
   -7.0318   14.7290  -34.8050 H   0  0  0  0  0  0  0  0  0  0  0  0
  1  2  1  0
  2  3  1  0
  3  4  2  0
  3  5  1  0
  5  6  2  0
  6  7  1  0
  7  8  1  0
  8  9  1  0
  9 10  2  0
  9 11  2  0
  9 12  1  0
 12 13  2  0
 13 14  1  0
 14 15  1  0
 14 16  2  0
 16 17  1  0
 17 18  2  0
 18 19  1  0
  7 20  2  0
 20 21  1  0
 21 22  1  0
 22 23  1  0
 23 24  1  0
 24 25  1  0
 24 26  2  0
 24 27  2  0
 23 28  2  0
 28 29  1  0
 29  5  1  0
 18 12  1  0
 29 21  2  0
  1 30  1  0
  1 31  1  0
  1 32  1  0
  2 33  1  0
  6 34  1  0
 13 35  1  0
 15 36  1  0
 15 37  1  0
 15 38  1  0
 16 39  1  0
 17 40  1  0
 20 41  1  0
 25 42  1  0
 25 43  1  0
 25 44  1  0
M  CHG  2   8  -1  19  -1
M  END
>  <UniqueID>  (27) 
27

>  <SMILES>  (27) 
CNC(=O)c1cc([N-]S(=O)(=O)c2cc(C)ccc2[O-])cc2sc(S(C)(=O)=O)nc12

>  <Energy>  (27) 
82.45307052136441

>  <Genealogy>  (27) 
CNC(=O)c1cc([N-]S(=O)(=O)c2cc(C)ccc2[O-])cc2sc(S(C)(=O)=O)nc12 (protonated)
CNC(=O)c1cc([N-]S(=O)(=O)c2cc(C)ccc2[O-])cc2sc(S(C)(=O)=O)nc12 (3D coordinates assigned)
CNC(=O)c1cc([N-]S(=O)(=O)c2cc(C)ccc2[O-])cc2sc(S(C)(=O)=O)nc12 (optimized conformer: 82.45307052136441 kcal/mol)

>  <smiles>  (27) 
CNC(=O)c1cc(NS(=O)(=O)c2cc(C)ccc2O)cc2sc(S(C)(=O)=O)nc12

>  <score_type>  (27) 
oracle

>  <origin>  (27) 
adgpu

>  <m_score__min__energy>  (27) 
-13.02

>  <m_primary>  (27) 
energy

$$$$
27:0
     RDKit          3D

 41 44  0  0  0  0  0  0  0  0999 V2000
   -1.5220   20.3830  -25.9420 C   0  0  0  0  0  0  0  0  0  0  0  0
   -0.5100   20.3810  -27.0140 N   0  0  0  0  0  0  0  0  0  0  0  0
   -0.9770   19.6970  -28.2370 C   0  0  0  0  0  0  0  0  0  0  0  0
   -2.1540   20.4240  -28.9060 C   0  0  0  0  0  0  0  0  0  0  0  0
   -1.9560   21.9180  -28.9500 C   0  0  0  0  0  0  0  0  0  0  0  0
   -2.8190   22.6970  -29.7360 C   0  0  0  0  0  0  0  0  0  0  0  0
   -2.7110   24.0990  -29.7490 C   0  0  0  0  0  0  0  0  0  0  0  0
   -3.5950   24.9230  -30.5230 N   0  0  0  0  0  0  0  0  0  0  0  0
   -5.3280   24.8480  -30.4860 S   0  0  0  0  0  0  0  0  0  0  0  0
   -5.7940   24.9040  -29.0580 O   0  0  0  0  0  0  0  0  0  0  0  0
   -5.8870   26.0340  -31.2200 O   0  0  0  0  0  0  0  0  0  0  0  0
   -5.8830   23.3380  -31.2010 C   0  0  0  0  0  0  0  0  0  0  0  0
   -5.0440   22.6010  -32.0730 C   0  0  0  0  0  0  0  0  0  0  0  0
   -5.4860   21.3920  -32.6390 C   0  0  0  0  0  0  0  0  0  0  0  0
   -6.7680   20.9510  -32.3170 C   0  0  0  0  0  0  0  0  0  0  0  0
   -7.3680   19.8310  -32.7620 N   0  0  0  0  0  0  0  0  0  0  0  0
   -8.5850   19.8610  -32.1700 C   0  0  0  0  0  0  0  0  0  0  0  0
   -9.5440   18.8750  -32.3610 O   0  0  0  0  0  0  0  0  0  0  0  0
   -8.7640   20.9740  -31.3630 C   0  0  0  0  0  0  0  0  0  0  0  0
   -7.5800   21.6630  -31.4730 C   0  0  0  0  0  0  0  0  0  0  0  0
   -7.1720   22.8620  -30.8920 C   0  0  0  0  0  0  0  0  0  0  0  0
   -1.7230   24.7150  -28.9700 C   0  0  0  0  0  0  0  0  0  0  0  0
   -1.5960   26.1000  -28.9700 O   0  0  0  0  0  0  0  0  0  0  0  0
   -0.8630   23.9450  -28.1810 C   0  0  0  0  0  0  0  0  0  0  0  0
   -0.9870   22.5490  -28.1450 C   0  0  0  0  0  0  0  0  0  0  0  0
   -0.0170   21.7400  -27.3130 C   0  0  0  0  0  0  0  0  0  0  0  0
   -1.0196   20.3820  -24.9634 H   0  0  0  0  0  0  0  0  0  0  0  0
   -2.1490   21.2824  -26.0313 H   0  0  0  0  0  0  0  0  0  0  0  0
   -2.1525   19.4861  -26.0313 H   0  0  0  0  0  0  0  0  0  0  0  0
   -0.1427   19.6444  -28.9520 H   0  0  0  0  0  0  0  0  0  0  0  0
   -1.3252   18.6948  -27.9467 H   0  0  0  0  0  0  0  0  0  0  0  0
   -2.2605   20.0512  -29.9354 H   0  0  0  0  0  0  0  0  0  0  0  0
   -3.0558   20.2224  -28.3093 H   0  0  0  0  0  0  0  0  0  0  0  0
   -3.5887   22.2053  -30.3489 H   0  0  0  0  0  0  0  0  0  0  0  0
   -4.0380   22.9779  -32.3093 H   0  0  0  0  0  0  0  0  0  0  0  0
   -4.8399   20.8125  -33.3148 H   0  0  0  0  0  0  0  0  0  0  0  0
   -9.6506   21.2438  -30.7704 H   0  0  0  0  0  0  0  0  0  0  0  0
   -7.8353   23.4188  -30.2138 H   0  0  0  0  0  0  0  0  0  0  0  0
   -0.0825   24.4387  -27.5835 H   0  0  0  0  0  0  0  0  0  0  0  0
    0.9318   21.6559  -27.8632 H   0  0  0  0  0  0  0  0  0  0  0  0
    0.1106   22.2630  -26.3537 H   0  0  0  0  0  0  0  0  0  0  0  0
  1  2  1  0
  2  3  1  0
  3  4  1  0
  4  5  1  0
  5  6  2  0
  6  7  1  0
  7  8  1  0
  8  9  1  0
  9 10  2  0
  9 11  2  0
  9 12  1  0
 12 13  2  0
 13 14  1  0
 14 15  2  0
 15 16  1  0
 16 17  1  0
 17 18  1  0
 17 19  2  0
 19 20  1  0
 20 21  2  0
  7 22  2  0
 22 23  1  0
 22 24  1  0
 24 25  2  0
 25 26  1  0
 26  2  1  0
 25  5  1  0
 21 12  1  0
 20 15  1  0
  1 27  1  0
  1 28  1  0
  1 29  1  0
  3 30  1  0
  3 31  1  0
  4 32  1  0
  4 33  1  0
  6 34  1  0
 13 35  1  0
 14 36  1  0
 19 37  1  0
 21 38  1  0
 24 39  1  0
 26 40  1  0
 26 41  1  0
M  CHG  4   8  -1  16  -1  18  -1  23  -1
M  END
>  <UniqueID>  (28) 
28

>  <SMILES>  (28) 
CN1CCc2cc([N-]S(=O)(=O)c3ccc4[n-]c([O-])cc4c3)c([O-])cc2C1

>  <Energy>  (28) 
85.12749812498903

>  <Genealogy>  (28) 
CN1CCc2cc([N-]S(=O)(=O)c3ccc4[n-]c([O-])cc4c3)c([O-])cc2C1 (protonated)
CN1CCc2cc([N-]S(=O)(=O)c3ccc4[n-]c([O-])cc4c3)c([O-])cc2C1 (3D coordinates assigned)
CN1CCc2cc([N-]S(=O)(=O)c3ccc4[n-]c([O-])cc4c3)c([O-])cc2C1 (nonaromatic ring conformer: 85.12749812498903 kcal/mol)

>  <smiles>  (28) 
CN1CCc2cc(NS(=O)(=O)c3ccc4[nH]c(O)cc4c3)c(O)cc2C1

>  <score_type>  (28) 
oracle

>  <origin>  (28) 
adgpu

>  <m_score__min__energy>  (28) 
-12.880000000000001

>  <m_primary>  (28) 
energy

$$$$
28:0
     RDKit          3D

 40 41  0  0  0  0  0  0  0  0999 V2000
   -6.1460   18.9150  -34.2630 C   0  0  0  0  0  0  0  0  0  0  0  0
   -6.6600   18.4240  -32.9770 N   0  0  0  0  0  0  0  0  0  0  0  0
   -7.2410   17.0840  -33.1290 C   0  0  0  0  0  0  0  0  0  0  0  0
   -7.8500   19.5310  -32.3390 S   0  0  0  0  0  0  0  0  0  0  0  0
   -8.6620   18.8380  -31.2800 O   0  0  0  0  0  0  0  0  0  0  0  0
   -8.7850   19.9530  -33.4380 O   0  0  0  0  0  0  0  0  0  0  0  0
   -7.0890   20.9620  -31.6420 C   0  0  0  0  0  0  0  0  0  0  0  0
   -7.8690   21.9380  -31.0070 C   0  0  0  0  0  0  0  0  0  0  0  0
   -7.2650   23.0670  -30.4460 C   0  0  0  0  0  0  0  0  0  0  0  0
   -5.8740   23.2300  -30.5150 C   0  0  0  0  0  0  0  0  0  0  0  0
   -5.1030   24.6620  -29.8350 S   0  0  0  0  0  0  0  0  0  0  0  0
   -4.2030   25.2960  -30.8580 O   0  0  0  0  0  0  0  0  0  0  0  0
   -6.1730   25.6550  -29.4760 O   0  0  0  0  0  0  0  0  0  0  0  0
   -4.1880   24.2850  -28.4020 N   0  0  0  0  0  0  0  0  0  0  0  0
   -3.3260   23.1120  -28.5830 C   0  0  0  0  0  0  0  0  0  0  0  0
   -2.0920   23.4220  -29.4400 C   0  0  0  0  0  0  0  0  0  0  0  0
   -1.2450   24.4910  -28.8180 C   0  0  0  0  0  0  0  0  0  0  0  0
   -0.1690   24.2900  -27.9880 C   0  0  0  0  0  0  0  0  0  0  0  0
    0.2970   25.4840  -27.5850 N   0  0  0  0  0  0  0  0  0  0  0  0
   -0.5210   26.3760  -28.1830 C   0  0  0  0  0  0  0  0  0  0  0  0
   -1.4840   25.8080  -28.9400 N   0  0  0  0  0  0  0  0  0  0  0  0
   -5.0940   22.2570  -31.1550 C   0  0  0  0  0  0  0  0  0  0  0  0
   -5.6990   21.1280  -31.7140 C   0  0  0  0  0  0  0  0  0  0  0  0
   -5.3614   19.6645  -34.0822 H   0  0  0  0  0  0  0  0  0  0  0  0
   -5.7255   18.0746  -34.8348 H   0  0  0  0  0  0  0  0  0  0  0  0
   -6.9663   19.3735  -34.8348 H   0  0  0  0  0  0  0  0  0  0  0  0
   -5.8660   18.3710  -32.2970 H   0  0  0  0  0  0  0  0  0  0  0  0
   -7.4288   16.6509  -32.1354 H   0  0  0  0  0  0  0  0  0  0  0  0
   -8.1887   17.1559  -33.6827 H   0  0  0  0  0  0  0  0  0  0  0  0
   -6.5407   16.4414  -33.6827 H   0  0  0  0  0  0  0  0  0  0  0  0
   -8.9606   21.8152  -30.9498 H   0  0  0  0  0  0  0  0  0  0  0  0
   -7.8826   23.8296  -29.9491 H   0  0  0  0  0  0  0  0  0  0  0  0
   -2.9916   22.7631  -27.5948 H   0  0  0  0  0  0  0  0  0  0  0  0
   -3.9124   22.3411  -29.1045 H   0  0  0  0  0  0  0  0  0  0  0  0
   -1.4913   22.5066  -29.5459 H   0  0  0  0  0  0  0  0  0  0  0  0
   -2.4351   23.7812  -30.4214 H   0  0  0  0  0  0  0  0  0  0  0  0
    0.2435   23.3117  -27.7004 H   0  0  0  0  0  0  0  0  0  0  0  0
   -0.4130   27.4643  -28.0646 H   0  0  0  0  0  0  0  0  0  0  0  0
   -4.0030   22.3824  -31.2174 H   0  0  0  0  0  0  0  0  0  0  0  0
   -5.0817   20.3663  -32.2127 H   0  0  0  0  0  0  0  0  0  0  0  0
  1  2  1  0
  2  3  1  0
  2  4  1  0
  4  5  2  0
  4  6  2  0
  4  7  1  0
  7  8  2  0
  8  9  1  0
  9 10  2  0
 10 11  1  0
 11 12  2  0
 11 13  2  0
 11 14  1  0
 14 15  1  0
 15 16  1  0
 16 17  1  0
 17 18  2  0
 18 19  1  0
 19 20  1  0
 20 21  2  0
 10 22  1  0
 22 23  2  0
 23  7  1  0
 21 17  1  0
  1 24  1  0
  1 25  1  0
  1 26  1  0
  2 27  1  0
  3 28  1  0
  3 29  1  0
  3 30  1  0
  8 31  1  0
  9 32  1  0
 15 33  1  0
 15 34  1  0
 16 35  1  0
 16 36  1  0
 18 37  1  0
 20 38  1  0
 22 39  1  0
 23 40  1  0
M  CHG  3   2   1  14  -1  19  -1
M  END
>  <UniqueID>  (29) 
29

>  <SMILES>  (29) 
C[NH+](C)S(=O)(=O)c1ccc(S(=O)(=O)[N-]CCc2c[n-]cn2)cc1

>  <Energy>  (29) 
61.53121218167594

>  <Genealogy>  (29) 
C[NH+](C)S(=O)(=O)c1ccc(S(=O)(=O)[N-]CCc2c[n-]cn2)cc1 (protonated)
C[NH+](C)S(=O)(=O)c1ccc(S(=O)(=O)[N-]CCc2c[n-]cn2)cc1 (3D coordinates assigned)
C[NH+](C)S(=O)(=O)c1ccc(S(=O)(=O)[N-]CCc2c[n-]cn2)cc1 (optimized conformer: 61.53121218167594 kcal/mol)

>  <smiles>  (29) 
CN(C)S(=O)(=O)c1ccc(S(=O)(=O)NCCc2c[nH]cn2)cc1

>  <score_type>  (29) 
oracle

>  <origin>  (29) 
adgpu

>  <m_score__min__energy>  (29) 
-10.25

>  <m_primary>  (29) 
energy

$$$$
29:0
     RDKit          3D

 47 49  0  0  0  0  0  0  0  0999 V2000
   -0.5750   26.6160  -27.5130 C   0  0  0  0  0  0  0  0  0  0  0  0
   -0.9970   25.2270  -27.8710 C   0  0  0  0  0  0  0  0  0  0  0  0
   -0.0420   24.2640  -28.2240 C   0  0  0  0  0  0  0  0  0  0  0  0
   -0.4610   22.9760  -28.5610 C   0  0  0  0  0  0  0  0  0  0  0  0
   -1.8220   22.6630  -28.5520 C   0  0  0  0  0  0  0  0  0  0  0  0
   -2.7530   23.6550  -28.2140 C   0  0  0  0  0  0  0  0  0  0  0  0
   -4.2170   23.3400  -28.1690 C   0  0  0  0  0  0  0  0  0  0  0  0
   -4.9880   24.5580  -28.4360 N   0  0  0  0  0  0  0  0  0  0  0  0
   -5.2400   24.7320  -30.1450 S   0  0  0  0  0  0  0  0  0  0  0  0
   -6.0900   25.9440  -30.4030 O   0  0  0  0  0  0  0  0  0  0  0  0
   -3.9140   24.9090  -30.8340 O   0  0  0  0  0  0  0  0  0  0  0  0
   -6.0700   23.3090  -30.7670 C   0  0  0  0  0  0  0  0  0  0  0  0
   -5.3530   22.1590  -31.1270 C   0  0  0  0  0  0  0  0  0  0  0  0
   -6.0310   21.0250  -31.5880 C   0  0  0  0  0  0  0  0  0  0  0  0
   -7.4290   21.0300  -31.6890 C   0  0  0  0  0  0  0  0  0  0  0  0
   -8.2860   19.5940  -32.2610 S   0  0  0  0  0  0  0  0  0  0  0  0
   -9.4570   20.0230  -33.1000 O   0  0  0  0  0  0  0  0  0  0  0  0
   -8.8170   18.8380  -31.0750 O   0  0  0  0  0  0  0  0  0  0  0  0
   -7.2710   18.5300  -33.2060 N   0  0  0  0  0  0  0  0  0  0  0  0
   -6.3670   19.2680  -34.0870 C   0  0  0  0  0  0  0  0  0  0  0  0
   -5.1750   18.3570  -34.3410 C   0  0  0  0  0  0  0  0  0  0  0  0
   -5.2030   17.3340  -33.2140 C   0  0  0  0  0  0  0  0  0  0  0  0
   -6.4070   17.7050  -32.3620 C   0  0  0  0  0  0  0  0  0  0  0  0
   -8.1420   22.1880  -31.3480 C   0  0  0  0  0  0  0  0  0  0  0  0
   -7.4650   23.3200  -30.8850 C   0  0  0  0  0  0  0  0  0  0  0  0
   -2.3190   24.9010  -27.8760 N   0  0  0  0  0  0  0  0  0  0  0  0
   -0.5437   26.7190  -26.4183 H   0  0  0  0  0  0  0  0  0  0  0  0
    0.4239   26.8143  -27.9287 H   0  0  0  0  0  0  0  0  0  0  0  0
   -1.2948   27.3365  -27.9287 H   0  0  0  0  0  0  0  0  0  0  0  0
    1.0276   24.5208  -28.2354 H   0  0  0  0  0  0  0  0  0  0  0  0
    0.2792   22.2091  -28.8331 H   0  0  0  0  0  0  0  0  0  0  0  0
   -2.1601   21.6480  -28.8076 H   0  0  0  0  0  0  0  0  0  0  0  0
   -4.4526   22.5826  -28.9311 H   0  0  0  0  0  0  0  0  0  0  0  0
   -4.4779   22.9521  -27.1733 H   0  0  0  0  0  0  0  0  0  0  0  0
   -4.4190   25.3790  -28.1250 H   0  0  0  0  0  0  0  0  0  0  0  0
   -4.2560   22.1483  -31.0469 H   0  0  0  0  0  0  0  0  0  0  0  0
   -5.4645   20.1260  -31.8723 H   0  0  0  0  0  0  0  0  0  0  0  0
   -6.8712   19.5078  -35.0348 H   0  0  0  0  0  0  0  0  0  0  0  0
   -6.0524   20.2178  -33.6300 H   0  0  0  0  0  0  0  0  0  0  0  0
   -5.2724   17.8581  -35.3165 H   0  0  0  0  0  0  0  0  0  0  0  0
   -4.2285   18.9170  -34.3627 H   0  0  0  0  0  0  0  0  0  0  0  0
   -5.3168   16.3178  -33.6194 H   0  0  0  0  0  0  0  0  0  0  0  0
   -4.2706   17.3424  -32.6305 H   0  0  0  0  0  0  0  0  0  0  0  0
   -6.9410   16.7980  -32.0424 H   0  0  0  0  0  0  0  0  0  0  0  0
   -6.1019   18.2459  -31.4541 H   0  0  0  0  0  0  0  0  0  0  0  0
   -9.2376   22.2058  -31.4451 H   0  0  0  0  0  0  0  0  0  0  0  0
   -8.0307   24.2231  -30.6123 H   0  0  0  0  0  0  0  0  0  0  0  0
  1  2  1  0
  2  3  2  0
  3  4  1  0
  4  5  2  0
  5  6  1  0
  6  7  1  0
  7  8  1  0
  8  9  1  0
  9 10  2  0
  9 11  2  0
  9 12  1  0
 12 13  2  0
 13 14  1  0
 14 15  2  0
 15 16  1  0
 16 17  2  0
 16 18  2  0
 16 19  1  0
 19 20  1  0
 20 21  1  0
 21 22  1  0
 22 23  1  0
 15 24  1  0
 24 25  2  0
  6 26  2  0
 26  2  1  0
 25 12  1  0
 23 19  1  0
  1 27  1  0
  1 28  1  0
  1 29  1  0
  3 30  1  0
  4 31  1  0
  5 32  1  0
  7 33  1  0
  7 34  1  0
  8 35  1  0
 13 36  1  0
 14 37  1  0
 20 38  1  0
 20 39  1  0
 21 40  1  0
 21 41  1  0
 22 42  1  0
 22 43  1  0
 23 44  1  0
 23 45  1  0
 24 46  1  0
 25 47  1  0
M  END
>  <UniqueID>  (30) 
30

>  <SMILES>  (30) 
Cc1cccc(CNS(=O)(=O)c2ccc(S(=O)(=O)N3CCCC3)cc2)n1

>  <Energy>  (30) 
44.635477216923654

>  <Genealogy>  (30) 
Cc1cccc(CNS(=O)(=O)c2ccc(S(=O)(=O)N3CCCC3)cc2)n1 (3D coordinates assigned)
Cc1cccc(CNS(=O)(=O)c2ccc(S(=O)(=O)N3CCCC3)cc2)n1 (nonaromatic ring conformer: 44.635477216923654 kcal/mol)

>  <smiles>  (30) 
Cc1cccc(CNS(=O)(=O)c2ccc(S(=O)(=O)N3CCCC3)cc2)n1

>  <score_type>  (30) 
oracle

>  <origin>  (30) 
adgpu

>  <m_score__min__energy>  (30) 
-10.27

>  <m_primary>  (30) 
energy

$$$$
30:0
     RDKit          3D

 43 47  0  0  0  0  0  0  0  0999 V2000
   -6.8390   14.7030  -34.5410 C   0  0  0  0  0  0  0  0  0  0  0  0
   -7.1700   15.9100  -33.6660 C   0  0  0  0  0  0  0  0  0  0  0  0
   -6.1230   16.9290  -33.7610 N   0  0  0  0  0  0  0  0  0  0  0  0
   -6.2930   18.2700  -33.6980 C   0  0  0  0  0  0  0  0  0  0  0  0
   -5.1050   18.9290  -33.5770 C   0  0  0  0  0  0  0  0  0  0  0  0
   -4.1240   17.9560  -33.5220 C   0  0  0  0  0  0  0  0  0  0  0  0
   -2.7590   18.0140  -33.2380 C   0  0  0  0  0  0  0  0  0  0  0  0
   -2.0400   16.8020  -33.1610 C   0  0  0  0  0  0  0  0  0  0  0  0
   -0.5610   16.8230  -32.9210 C   0  0  0  0  0  0  0  0  0  0  0  0
   -2.7080   15.5710  -33.3660 C   0  0  0  0  0  0  0  0  0  0  0  0
   -4.0910   15.5350  -33.6060 C   0  0  0  0  0  0  0  0  0  0  0  0
   -4.7810   16.7480  -33.6810 C   0  0  0  0  0  0  0  0  0  0  0  0
   -5.3790   20.1770  -32.8820 C   0  0  0  0  0  0  0  0  0  0  0  0
   -4.5140   21.2220  -32.5490 C   0  0  0  0  0  0  0  0  0  0  0  0
   -3.1710   21.1750  -32.9040 O   0  0  0  0  0  0  0  0  0  0  0  0
   -5.0470   22.3400  -31.8750 C   0  0  0  0  0  0  0  0  0  0  0  0
   -4.2230   23.4160  -31.4970 C   0  0  0  0  0  0  0  0  0  0  0  0
   -4.7620   24.5230  -30.8290 C   0  0  0  0  0  0  0  0  0  0  0  0
   -3.9470   25.5880  -30.4500 O   0  0  0  0  0  0  0  0  0  0  0  0
   -6.1260   24.5650  -30.5350 C   0  0  0  0  0  0  0  0  0  0  0  0
   -6.9630   23.5090  -30.9060 C   0  0  0  0  0  0  0  0  0  0  0  0
   -6.4390   22.3890  -31.5770 C   0  0  0  0  0  0  0  0  0  0  0  0
   -7.2640   21.3140  -31.9710 C   0  0  0  0  0  0  0  0  0  0  0  0
   -8.5040   21.3290  -31.7340 O   0  0  0  0  0  0  0  0  0  0  0  0
   -6.7060   20.2530  -32.6140 N   0  0  0  0  0  0  0  0  0  0  0  0
   -7.4120   19.0570  -33.0940 C   0  0  0  0  0  0  0  0  0  0  0  0
   -6.6024   13.8401  -33.9011 H   0  0  0  0  0  0  0  0  0  0  0  0
   -7.7043   14.4622  -35.1761 H   0  0  0  0  0  0  0  0  0  0  0  0
   -5.9719   14.9373  -35.1761 H   0  0  0  0  0  0  0  0  0  0  0  0
   -8.1252   16.3435  -33.9973 H   0  0  0  0  0  0  0  0  0  0  0  0
   -7.2408   15.5762  -32.6202 H   0  0  0  0  0  0  0  0  0  0  0  0
   -2.2564   18.9793  -33.0783 H   0  0  0  0  0  0  0  0  0  0  0  0
   -0.3652   16.8258  -31.8386 H   0  0  0  0  0  0  0  0  0  0  0  0
   -0.1033   15.9313  -33.3741 H   0  0  0  0  0  0  0  0  0  0  0  0
   -0.1288   17.7274  -33.3741 H   0  0  0  0  0  0  0  0  0  0  0  0
   -2.1368   14.6314  -33.3369 H   0  0  0  0  0  0  0  0  0  0  0  0
   -4.6174   14.5774  -33.7317 H   0  0  0  0  0  0  0  0  0  0  0  0
   -3.1478   23.3877  -31.7277 H   0  0  0  0  0  0  0  0  0  0  0  0
   -2.9960   25.6740  -30.7890 H   0  0  0  0  0  0  0  0  0  0  0  0
   -6.5448   25.4349  -30.0079 H   0  0  0  0  0  0  0  0  0  0  0  0
   -8.0369   23.5538  -30.6722 H   0  0  0  0  0  0  0  0  0  0  0  0
   -7.8854   18.5105  -32.2650 H   0  0  0  0  0  0  0  0  0  0  0  0
   -8.2350   19.2726  -33.7913 H   0  0  0  0  0  0  0  0  0  0  0  0
  1  2  1  0
  2  3  1  0
  3  4  1  0
  4  5  2  0
  5  6  1  0
  6  7  2  0
  7  8  1  0
  8  9  1  0
  8 10  2  0
 10 11  1  0
 11 12  2  0
  5 13  1  0
 13 14  2  0
 14 15  1  0
 14 16  1  0
 16 17  2  0
 17 18  1  0
 18 19  1  0
 18 20  2  0
 20 21  1  0
 21 22  2  0
 22 23  1  0
 23 24  2  0
 23 25  1  0
 25 26  1  0
 12  3  1  0
 25 13  1  0
 26  4  1  0
 12  6  1  0
 22 16  1  0
  1 27  1  0
  1 28  1  0
  1 29  1  0
  2 30  1  0
  2 31  1  0
  7 32  1  0
  9 33  1  0
  9 34  1  0
  9 35  1  0
 10 36  1  0
 11 37  1  0
 17 38  1  0
 19 39  1  0
 20 40  1  0
 21 41  1  0
 26 42  1  0
 26 43  1  0
M  CHG  1  15  -1
M  END
>  <UniqueID>  (31) 
31

>  <SMILES>  (31) 
CCn1c2c(c3cc(C)ccc31)-c1c([O-])c3cc(O)ccc3c(=O)n1C2

>  <Energy>  (31) 
127.83312561783684

>  <Genealogy>  (31) 
CCn1c2c(c3cc(C)ccc31)-c1c([O-])c3cc(O)ccc3c(=O)n1C2 (protonated)
CCn1c2c(c3cc(C)ccc31)-c1c([O-])c3cc(O)ccc3c(=O)n1C2 (3D coordinates assigned)
CCn1c2c(c3cc(C)ccc31)-c1c([O-])c3cc(O)ccc3c(=O)n1C2 (nonaromatic ring conformer: 127.83312561783684 kcal/mol)

>  <smiles>  (31) 
CCn1c2c(c3cc(C)ccc31)-c1c(O)c3cc(O)ccc3c(=O)n1C2

>  <score_type>  (31) 
oracle

>  <origin>  (31) 
adgpu

>  <m_score__min__energy>  (31) 
-9.5800000000000001

>  <m_primary>  (31) 
energy

$$$$
31:0
     RDKit          3D

 42 44  0  0  0  0  0  0  0  0999 V2000
   -3.8980   25.1860  -30.8430 O   0  0  0  0  0  0  0  0  0  0  0  0
   -5.0470   24.6980  -30.0030 S   0  0  0  0  0  0  0  0  0  0  0  0
   -6.0450   25.8100  -29.8400 O   0  0  0  0  0  0  0  0  0  0  0  0
   -4.4510   24.2290  -28.4430 N   0  0  0  0  0  0  0  0  0  0  0  0
   -3.1740   23.6220  -28.1940 C   0  0  0  0  0  0  0  0  0  0  0  0
   -3.0670   22.3180  -27.6740 C   0  0  0  0  0  0  0  0  0  0  0  0
   -1.8110   21.7660  -27.3990 C   0  0  0  0  0  0  0  0  0  0  0  0
   -1.6940   20.1530  -26.7190 Cl  0  0  0  0  0  0  0  0  0  0  0  0
   -0.6530   22.5000  -27.6610 C   0  0  0  0  0  0  0  0  0  0  0  0
   -0.7470   23.7840  -28.2020 C   0  0  0  0  0  0  0  0  0  0  0  0
   -1.9990   24.3500  -28.4720 C   0  0  0  0  0  0  0  0  0  0  0  0
   -2.0510   25.6370  -29.0080 O   0  0  0  0  0  0  0  0  0  0  0  0
   -5.8460   23.3250  -30.7640 C   0  0  0  0  0  0  0  0  0  0  0  0
   -7.2330   23.3510  -30.9520 C   0  0  0  0  0  0  0  0  0  0  0  0
   -7.8930   22.2350  -31.4710 C   0  0  0  0  0  0  0  0  0  0  0  0
   -7.1720   21.0780  -31.7990 C   0  0  0  0  0  0  0  0  0  0  0  0
   -8.0130   19.6430  -32.3920 S   0  0  0  0  0  0  0  0  0  0  0  0
   -8.6410   18.9290  -31.2270 O   0  0  0  0  0  0  0  0  0  0  0  0
   -9.1120   20.0680  -33.3250 O   0  0  0  0  0  0  0  0  0  0  0  0
   -6.9490   18.5380  -33.2300 N   0  0  0  0  0  0  0  0  0  0  0  0
   -6.0880   19.2260  -34.1900 C   0  0  0  0  0  0  0  0  0  0  0  0
   -4.8590   18.3470  -34.3680 C   0  0  0  0  0  0  0  0  0  0  0  0
   -4.8320   17.4400  -33.1460 C   0  0  0  0  0  0  0  0  0  0  0  0
   -6.0400   17.8480  -32.3170 C   0  0  0  0  0  0  0  0  0  0  0  0
   -5.7780   21.0670  -31.6440 C   0  0  0  0  0  0  0  0  0  0  0  0
   -5.1170   22.1860  -31.1270 C   0  0  0  0  0  0  0  0  0  0  0  0
   -3.9764   21.7295  -27.4827 H   0  0  0  0  0  0  0  0  0  0  0  0
    0.3340   22.0669  -27.4412 H   0  0  0  0  0  0  0  0  0  0  0  0
    0.1685   24.3545  -28.4175 H   0  0  0  0  0  0  0  0  0  0  0  0
   -2.9130   26.0520  -29.3410 H   0  0  0  0  0  0  0  0  0  0  0  0
   -7.8049   24.2534  -30.6901 H   0  0  0  0  0  0  0  0  0  0  0  0
   -8.9821   22.2638  -31.6230 H   0  0  0  0  0  0  0  0  0  0  0  0
   -6.6104   19.3492  -35.1501 H   0  0  0  0  0  0  0  0  0  0  0  0
   -5.8134   20.2296  -33.8331 H   0  0  0  0  0  0  0  0  0  0  0  0
   -4.9422   17.7506  -35.2885 H   0  0  0  0  0  0  0  0  0  0  0  0
   -3.9386   18.9428  -34.4563 H   0  0  0  0  0  0  0  0  0  0  0  0
   -4.9100   16.3850  -33.4474 H   0  0  0  0  0  0  0  0  0  0  0  0
   -3.8937   17.5409  -32.5809 H   0  0  0  0  0  0  0  0  0  0  0  0
   -6.5288   16.9586  -31.8926 H   0  0  0  0  0  0  0  0  0  0  0  0
   -5.7486   18.4958  -31.4771 H   0  0  0  0  0  0  0  0  0  0  0  0
   -5.2022   20.1745  -31.9302 H   0  0  0  0  0  0  0  0  0  0  0  0
   -4.0238   22.1712  -31.0055 H   0  0  0  0  0  0  0  0  0  0  0  0
  1  2  2  0
  2  3  2  0
  2  4  1  0
  4  5  1  0
  5  6  2  0
  6  7  1  0
  7  8  1  0
  7  9  2  0
  9 10  1  0
 10 11  2  0
 11 12  1  0
  2 13  1  0
 13 14  2  0
 14 15  1  0
 15 16  2  0
 16 17  1  0
 17 18  2  0
 17 19  2  0
 17 20  1  0
 20 21  1  0
 21 22  1  0
 22 23  1  0
 23 24  1  0
 16 25  1  0
 25 26  2  0
 11  5  1  0
 26 13  1  0
 24 20  1  0
  6 27  1  0
  9 28  1  0
 10 29  1  0
 12 30  1  0
 14 31  1  0
 15 32  1  0
 21 33  1  0
 21 34  1  0
 22 35  1  0
 22 36  1  0
 23 37  1  0
 23 38  1  0
 24 39  1  0
 24 40  1  0
 25 41  1  0
 26 42  1  0
M  CHG  1   4  -1
M  END
>  <UniqueID>  (32) 
32

>  <SMILES>  (32) 
O=S(=O)([N-]c1cc(Cl)ccc1O)c1ccc(S(=O)(=O)N2CCCC2)cc1

>  <Energy>  (32) 
46.53963124877863

>  <Genealogy>  (32) 
O=S(=O)([N-]c1cc(Cl)ccc1O)c1ccc(S(=O)(=O)N2CCCC2)cc1 (protonated)
O=S(=O)([N-]c1cc(Cl)ccc1O)c1ccc(S(=O)(=O)N2CCCC2)cc1 (3D coordinates assigned)
O=S(=O)([N-]c1cc(Cl)ccc1O)c1ccc(S(=O)(=O)N2CCCC2)cc1 (nonaromatic ring conformer: 46.53963124877863 kcal/mol)

>  <smiles>  (32) 
O=S(=O)(Nc1cc(Cl)ccc1O)c1ccc(S(=O)(=O)N2CCCC2)cc1

>  <score_type>  (32) 
oracle

>  <origin>  (32) 
adgpu

>  <m_score__min__energy>  (32) 
-11.93

>  <m_primary>  (32) 
energy

$$$$
32:0
     RDKit          3D

 58 61  0  0  0  0  0  0  0  0999 V2000
   -5.7150   24.9210  -31.5970 O   0  0  0  0  0  0  0  0  0  0  0  0
   -4.8600   24.0420  -30.7290 S   0  0  0  0  0  0  0  0  0  0  0  0
   -5.6610   23.6450  -29.5200 O   0  0  0  0  0  0  0  0  0  0  0  0
   -3.4560   24.9290  -30.2430 N   0  0  0  0  0  0  0  0  0  0  0  0
   -2.5040   24.3570  -29.3480 C   0  0  0  0  0  0  0  0  0  0  0  0
   -2.6710   23.0370  -28.9190 C   0  0  0  0  0  0  0  0  0  0  0  0
   -1.7760   22.4730  -28.0000 C   0  0  0  0  0  0  0  0  0  0  0  0
   -2.0310   20.8420  -27.3860 S   0  0  0  0  0  0  0  0  0  0  0  0
   -1.5950   20.7670  -25.9480 O   0  0  0  0  0  0  0  0  0  0  0  0
   -3.4950   20.5120  -27.4620 O   0  0  0  0  0  0  0  0  0  0  0  0
   -1.1270   19.7100  -28.3620 N   0  0  0  0  0  0  0  0  0  0  0  0
    0.0810   20.3250  -28.9030 C   0  0  0  0  0  0  0  0  0  0  0  0
    1.0450   19.1880  -29.1780 C   0  0  0  0  0  0  0  0  0  0  0  0
    0.6360   18.0870  -28.2140 C   0  0  0  0  0  0  0  0  0  0  0  0
   -0.6670   18.5620  -27.5790 C   0  0  0  0  0  0  0  0  0  0  0  0
   -0.7030   23.2370  -27.5210 C   0  0  0  0  0  0  0  0  0  0  0  0
   -0.5240   24.5500  -27.9620 C   0  0  0  0  0  0  0  0  0  0  0  0
   -1.4220   25.1140  -28.8730 C   0  0  0  0  0  0  0  0  0  0  0  0
   -1.2340   26.4230  -29.3040 O   0  0  0  0  0  0  0  0  0  0  0  0
   -4.3700   22.6100  -31.6420 C   0  0  0  0  0  0  0  0  0  0  0  0
   -3.0140   22.4110  -31.9430 C   0  0  0  0  0  0  0  0  0  0  0  0
   -2.5980   21.2680  -32.6400 C   0  0  0  0  0  0  0  0  0  0  0  0
   -0.8880   21.0170  -33.0030 S   0  0  0  0  0  0  0  0  0  0  0  0
   -0.0570   21.5750  -31.8820 O   0  0  0  0  0  0  0  0  0  0  0  0
   -0.5340   21.7650  -34.2590 O   0  0  0  0  0  0  0  0  0  0  0  0
   -0.5130   19.3220  -33.2200 N   0  0  0  0  0  0  0  0  0  0  0  0
    0.8960   19.1190  -33.6220 C   0  0  0  0  0  0  0  0  0  0  0  0
    1.7530   18.5850  -32.4630 C   0  0  0  0  0  0  0  0  0  0  0  0
    1.2850   17.3490  -31.9460 O   0  0  0  0  0  0  0  0  0  0  0  0
   -0.1330   17.2200  -31.9610 C   0  0  0  0  0  0  0  0  0  0  0  0
   -0.8880   18.5580  -32.0150 C   0  0  0  0  0  0  0  0  0  0  0  0
   -3.5500   20.3240  -33.0440 C   0  0  0  0  0  0  0  0  0  0  0  0
   -4.9000   20.5120  -32.7440 C   0  0  0  0  0  0  0  0  0  0  0  0
   -5.3160   21.6470  -32.0370 C   0  0  0  0  0  0  0  0  0  0  0  0
   -6.6650   21.8140  -31.7230 O   0  0  0  0  0  0  0  0  0  0  0  0
   -3.5091   22.4381  -29.3048 H   0  0  0  0  0  0  0  0  0  0  0  0
   -0.1491   20.8639  -29.8339 H   0  0  0  0  0  0  0  0  0  0  0  0
    0.5100   21.0542  -28.2000 H   0  0  0  0  0  0  0  0  0  0  0  0
    0.9522   18.8451  -30.2191 H   0  0  0  0  0  0  0  0  0  0  0  0
    2.0933   19.4912  -29.0397 H   0  0  0  0  0  0  0  0  0  0  0  0
    0.4777   17.1422  -28.7547 H   0  0  0  0  0  0  0  0  0  0  0  0
    1.4125   17.8983  -27.4580 H   0  0  0  0  0  0  0  0  0  0  0  0
   -1.4175   17.7584  -27.6089 H   0  0  0  0  0  0  0  0  0  0  0  0
   -0.5138   18.8394  -26.5256 H   0  0  0  0  0  0  0  0  0  0  0  0
    0.0000   22.8013  -26.7958 H   0  0  0  0  0  0  0  0  0  0  0  0
    0.3259   25.1420  -27.5915 H   0  0  0  0  0  0  0  0  0  0  0  0
   -2.2707   23.1586  -31.6292 H   0  0  0  0  0  0  0  0  0  0  0  0
    0.9286   18.3961  -34.4505 H   0  0  0  0  0  0  0  0  0  0  0  0
    1.3062   20.0927  -33.9280 H   0  0  0  0  0  0  0  0  0  0  0  0
    2.7825   18.4455  -32.8246 H   0  0  0  0  0  0  0  0  0  0  0  0
    1.6979   19.3223  -31.6485 H   0  0  0  0  0  0  0  0  0  0  0  0
   -0.4161   16.6285  -32.8442 H   0  0  0  0  0  0  0  0  0  0  0  0
   -0.4159   16.7359  -31.0146 H   0  0  0  0  0  0  0  0  0  0  0  0
   -1.9701   18.3611  -32.0349 H   0  0  0  0  0  0  0  0  0  0  0  0
   -0.6230   19.1489  -31.1258 H   0  0  0  0  0  0  0  0  0  0  0  0
   -3.2323   19.4299  -33.6005 H   0  0  0  0  0  0  0  0  0  0  0  0
   -5.6410   19.7649  -33.0645 H   0  0  0  0  0  0  0  0  0  0  0  0
   -6.9730   22.5170  -31.0630 H   0  0  0  0  0  0  0  0  0  0  0  0
  1  2  2  0
  2  3  2  0
  2  4  1  0
  4  5  1  0
  5  6  2  0
  6  7  1  0
  7  8  1  0
  8  9  2  0
  8 10  2  0
  8 11  1  0
 11 12  1  0
 12 13  1  0
 13 14  1  0
 14 15  1  0
  7 16  2  0
 16 17  1  0
 17 18  2  0
 18 19  1  0
  2 20  1  0
 20 21  2  0
 21 22  1  0
 22 23  1  0
 23 24  2  0
 23 25  2  0
 23 26  1  0
 26 27  1  0
 27 28  1  0
 28 29  1  0
 29 30  1  0
 30 31  1  0
 22 32  2  0
 32 33  1  0
 33 34  2  0
 34 35  1  0
 18  5  1  0
 34 20  1  0
 15 11  1  0
 31 26  1  0
  6 36  1  0
 12 37  1  0
 12 38  1  0
 13 39  1  0
 13 40  1  0
 14 41  1  0
 14 42  1  0
 15 43  1  0
 15 44  1  0
 16 45  1  0
 17 46  1  0
 21 47  1  0
 27 48  1  0
 27 49  1  0
 28 50  1  0
 28 51  1  0
 30 52  1  0
 30 53  1  0
 31 54  1  0
 31 55  1  0
 32 56  1  0
 33 57  1  0
 35 58  1  0
M  CHG  2   4  -1  19  -1
M  END
>  <UniqueID>  (33) 
33

>  <SMILES>  (33) 
O=S(=O)([N-]c1cc(S(=O)(=O)N2CCCC2)ccc1[O-])c1cc(S(=O)(=O)N2CCOCC2)ccc1O

>  <Energy>  (33) 
74.58683660958333

>  <Genealogy>  (33) 
O=S(=O)([N-]c1cc(S(=O)(=O)N2CCCC2)ccc1[O-])c1cc(S(=O)(=O)N2CCOCC2)ccc1O (protonated)
O=S(=O)([N-]c1cc(S(=O)(=O)N2CCCC2)ccc1[O-])c1cc(S(=O)(=O)N2CCOCC2)ccc1O (3D coordinates assigned)
O=S(=O)([N-]c1cc(S(=O)(=O)N2CCCC2)ccc1[O-])c1cc(S(=O)(=O)N2CCOCC2)ccc1O (nonaromatic ring conformer: 74.58683660958333 kcal/mol)

>  <smiles>  (33) 
O=S(=O)(Nc1cc(S(=O)(=O)N2CCCC2)ccc1O)c1cc(S(=O)(=O)N2CCOCC2)ccc1O

>  <score_type>  (33) 
oracle

>  <origin>  (33) 
adgpu

>  <m_score__min__energy>  (33) 
-13.949999999999999

>  <m_primary>  (33) 
energy

$$$$
33:0
     RDKit          3D

 66 70  0  0  0  0  0  0  0  0999 V2000
    0.6510   19.6990  -28.6280 O   0  0  0  0  0  0  0  0  0  0  0  0
   -0.1030   20.7110  -28.6750 C   0  0  0  0  0  0  0  0  0  0  0  0
   -0.0090   21.7210  -27.6000 C   0  0  0  0  0  0  0  0  0  0  0  0
    0.8760   22.8030  -27.7320 C   0  0  0  0  0  0  0  0  0  0  0  0
    0.9700   23.7670  -26.7250 C   0  0  0  0  0  0  0  0  0  0  0  0
    0.1820   23.6630  -25.5680 C   0  0  0  0  0  0  0  0  0  0  0  0
    0.3010   24.6930  -24.4800 C   0  0  0  0  0  0  0  0  0  0  0  0
   -0.2500   26.3270  -25.0810 S   0  0  0  0  0  0  0  0  0  0  0  0
   -1.3830   25.6560  -26.2940 C   0  0  0  0  0  0  0  0  0  0  0  0
   -1.2790   25.8700  -27.6190 N   0  0  0  0  0  0  0  0  0  0  0  0
   -2.2790   25.2050  -28.1760 N   0  0  0  0  0  0  0  0  0  0  0  0
   -2.9480   24.6100  -27.1690 C   0  0  0  0  0  0  0  0  0  0  0  0
   -4.1680   23.7560  -27.3350 C   0  0  0  0  0  0  0  0  0  0  0  0
   -4.1310   23.0260  -28.6040 N   0  0  0  0  0  0  0  0  0  0  0  0
   -4.9590   23.3650  -29.7300 C   0  0  0  0  0  0  0  0  0  0  0  0
   -6.1200   22.6200  -30.0090 C   0  0  0  0  0  0  0  0  0  0  0  0
   -6.9620   22.9780  -31.0720 C   0  0  0  0  0  0  0  0  0  0  0  0
   -8.4370   22.0600  -31.3850 S   0  0  0  0  0  0  0  0  0  0  0  0
   -9.4960   22.9900  -31.9080 O   0  0  0  0  0  0  0  0  0  0  0  0
   -8.9350   21.4710  -30.0950 O   0  0  0  0  0  0  0  0  0  0  0  0
   -8.1760   20.7770  -32.5490 N   0  0  0  0  0  0  0  0  0  0  0  0
   -6.7840   20.3200  -32.5260 C   0  0  0  0  0  0  0  0  0  0  0  0
   -6.7070   19.0830  -31.6480 C   0  0  0  0  0  0  0  0  0  0  0  0
   -8.1240   18.5490  -31.5770 C   0  0  0  0  0  0  0  0  0  0  0  0
   -9.0020   19.6030  -32.2430 C   0  0  0  0  0  0  0  0  0  0  0  0
   -6.6400   24.0840  -31.8660 C   0  0  0  0  0  0  0  0  0  0  0  0
   -5.4950   24.8320  -31.5970 C   0  0  0  0  0  0  0  0  0  0  0  0
   -4.6480   24.4800  -30.5390 C   0  0  0  0  0  0  0  0  0  0  0  0
   -3.4990   25.2460  -30.3320 O   0  0  0  0  0  0  0  0  0  0  0  0
   -2.4060   24.8910  -26.0090 O   0  0  0  0  0  0  0  0  0  0  0  0
   -0.6800   22.5640  -25.4210 C   0  0  0  0  0  0  0  0  0  0  0  0
   -0.7670   21.5960  -26.4240 C   0  0  0  0  0  0  0  0  0  0  0  0
   -1.0030   20.8710  -29.7890 N   0  0  0  0  0  0  0  0  0  0  0  0
   -1.5230   22.1550  -30.2330 C   0  0  0  0  0  0  0  0  0  0  0  0
   -2.0080   21.9320  -31.6590 C   0  0  0  0  0  0  0  0  0  0  0  0
   -2.1450   20.4210  -31.8170 C   0  0  0  0  0  0  0  0  0  0  0  0
   -1.2430   19.8120  -30.7540 C   0  0  0  0  0  0  0  0  0  0  0  0
    1.4993   22.8923  -28.6339 H   0  0  0  0  0  0  0  0  0  0  0  0
    1.6651   24.6118  -26.8395 H   0  0  0  0  0  0  0  0  0  0  0  0
   -0.3243   24.3917  -23.6267 H   0  0  0  0  0  0  0  0  0  0  0  0
    1.3547   24.7645  -24.1723 H   0  0  0  0  0  0  0  0  0  0  0  0
   -4.2169   23.0341  -26.5064 H   0  0  0  0  0  0  0  0  0  0  0  0
   -5.0541   24.4078  -27.3322 H   0  0  0  0  0  0  0  0  0  0  0  0
   -3.3550   22.3420  -28.7530 H   0  0  0  0  0  0  0  0  0  0  0  0
   -6.3696   21.7479  -29.3869 H   0  0  0  0  0  0  0  0  0  0  0  0
   -6.4557   20.0737  -33.5466 H   0  0  0  0  0  0  0  0  0  0  0  0
   -6.1303   21.1104  -32.1284 H   0  0  0  0  0  0  0  0  0  0  0  0
   -6.0361   18.3349  -32.0955 H   0  0  0  0  0  0  0  0  0  0  0  0
   -6.3074   19.3149  -30.6497 H   0  0  0  0  0  0  0  0  0  0  0  0
   -8.1998   17.5925  -32.1149 H   0  0  0  0  0  0  0  0  0  0  0  0
   -8.4339   18.3632  -30.5380 H   0  0  0  0  0  0  0  0  0  0  0  0
   -9.4274   19.1970  -33.1726 H   0  0  0  0  0  0  0  0  0  0  0  0
   -9.8235   19.8875  -31.5690 H   0  0  0  0  0  0  0  0  0  0  0  0
   -7.2929   24.3643  -32.7057 H   0  0  0  0  0  0  0  0  0  0  0  0
   -5.2549   25.7057  -32.2207 H   0  0  0  0  0  0  0  0  0  0  0  0
   -3.4750   26.0460  -29.7130 H   0  0  0  0  0  0  0  0  0  0  0  0
   -1.2899   22.4651  -24.5109 H   0  0  0  0  0  0  0  0  0  0  0  0
   -1.4331   20.7306  -26.2923 H   0  0  0  0  0  0  0  0  0  0  0  0
   -2.3563   22.4744  -29.5900 H   0  0  0  0  0  0  0  0  0  0  0  0
   -0.7567   22.9426  -30.1832 H   0  0  0  0  0  0  0  0  0  0  0  0
   -2.9796   22.4236  -31.8149 H   0  0  0  0  0  0  0  0  0  0  0  0
   -1.3100   22.3556  -32.3961 H   0  0  0  0  0  0  0  0  0  0  0  0
   -3.1885   20.1118  -31.6574 H   0  0  0  0  0  0  0  0  0  0  0  0
   -1.8614   20.0913  -32.8274 H   0  0  0  0  0  0  0  0  0  0  0  0
   -1.7414   18.9586  -30.2710 H   0  0  0  0  0  0  0  0  0  0  0  0
   -0.3039   19.4351  -31.1854 H   0  0  0  0  0  0  0  0  0  0  0  0
  1  2  2  0
  2  3  1  0
  3  4  2  0
  4  5  1  0
  5  6  2  0
  6  7  1  0
  7  8  1  0
  8  9  1  0
  9 10  2  0
 10 11  1  0
 11 12  2  0
 12 13  1  0
 13 14  1  0
 14 15  1  0
 15 16  2  0
 16 17  1  0
 17 18  1  0
 18 19  2  0
 18 20  2  0
 18 21  1  0
 21 22  1  0
 22 23  1  0
 23 24  1  0
 24 25  1  0
 17 26  2  0
 26 27  1  0
 27 28  2  0
 28 29  1  0
 12 30  1  0
  6 31  1  0
 31 32  2  0
  2 33  1  0
 33 34  1  0
 34 35  1  0
 35 36  1  0
 36 37  1  0
 32  3  1  0
 37 33  1  0
 30  9  1  0
 28 15  1  0
 25 21  1  0
  4 38  1  0
  5 39  1  0
  7 40  1  0
  7 41  1  0
 13 42  1  0
 13 43  1  0
 14 44  1  0
 16 45  1  0
 22 46  1  0
 22 47  1  0
 23 48  1  0
 23 49  1  0
 24 50  1  0
 24 51  1  0
 25 52  1  0
 25 53  1  0
 26 54  1  0
 27 55  1  0
 29 56  1  0
 31 57  1  0
 32 58  1  0
 34 59  1  0
 34 60  1  0
 35 61  1  0
 35 62  1  0
 36 63  1  0
 36 64  1  0
 37 65  1  0
 37 66  1  0
M  END
>  <UniqueID>  (34) 
34

>  <SMILES>  (34) 
O=C(c1ccc(CSc2nnc(CNc3cc(S(=O)(=O)N4CCCC4)ccc3O)o2)cc1)N1CCCC1

>  <Energy>  (34) 
106.49342786811496

>  <Genealogy>  (34) 
O=C(c1ccc(CSc2nnc(CNc3cc(S(=O)(=O)N4CCCC4)ccc3O)o2)cc1)N1CCCC1 (3D coordinates assigned)
O=C(c1ccc(CSc2nnc(CNc3cc(S(=O)(=O)N4CCCC4)ccc3O)o2)cc1)N1CCCC1 (nonaromatic ring conformer: 106.49342786811496 kcal/mol)

>  <smiles>  (34) 
O=C(c1ccc(CSc2nnc(CNc3cc(S(=O)(=O)N4CCCC4)ccc3O)o2)cc1)N1CCCC1

>  <score_type>  (34) 
oracle

>  <origin>  (34) 
adgpu

>  <m_score__min__energy>  (34) 
-12.06

>  <m_primary>  (34) 
energy

$$$$
34:0
     RDKit          3D

 35 37  0  0  0  0  0  0  0  0999 V2000
   -9.7020   22.0830  -32.3450 O   0  0  0  0  0  0  0  0  0  0  0  0
   -8.8080   21.5510  -31.6360 C   0  0  0  0  0  0  0  0  0  0  0  0
   -8.2590   22.2960  -30.5420 N   0  0  0  0  0  0  0  0  0  0  0  0
   -7.0290   23.0340  -30.5520 C   0  0  0  0  0  0  0  0  0  0  0  0
   -7.0760   24.4300  -30.4730 C   0  0  0  0  0  0  0  0  0  0  0  0
   -5.8950   25.1760  -30.4650 C   0  0  0  0  0  0  0  0  0  0  0  0
   -4.6540   24.5330  -30.5170 C   0  0  0  0  0  0  0  0  0  0  0  0
   -3.4930   25.2970  -30.5310 O   0  0  0  0  0  0  0  0  0  0  0  0
   -4.5920   23.1290  -30.5540 C   0  0  0  0  0  0  0  0  0  0  0  0
   -3.0370   22.2910  -30.6180 S   0  0  0  0  0  0  0  0  0  0  0  0
   -1.9850   23.2110  -30.0660 O   0  0  0  0  0  0  0  0  0  0  0  0
   -3.0970   21.0430  -29.7790 O   0  0  0  0  0  0  0  0  0  0  0  0
   -2.6430   21.8680  -32.2720 N   0  0  0  0  0  0  0  0  0  0  0  0
   -3.8420   21.9230  -33.1170 C   0  0  0  0  0  0  0  0  0  0  0  0
   -4.4270   20.5200  -33.2110 C   0  0  0  0  0  0  0  0  0  0  0  0
   -3.3640   19.5930  -32.6540 C   0  0  0  0  0  0  0  0  0  0  0  0
   -2.1700   20.4830  -32.3520 C   0  0  0  0  0  0  0  0  0  0  0  0
   -5.7810   22.3860  -30.5700 C   0  0  0  0  0  0  0  0  0  0  0  0
   -8.3120   20.2110  -31.9960 C   0  0  0  0  0  0  0  0  0  0  0  0
   -7.4400   19.9720  -32.9950 N   0  0  0  0  0  0  0  0  0  0  0  0
   -7.3200   18.6310  -32.9460 C   0  0  0  0  0  0  0  0  0  0  0  0
   -8.0830   18.0860  -31.9820 N   0  0  0  0  0  0  0  0  0  0  0  0
   -8.7120   19.0830  -31.3830 N   0  0  0  0  0  0  0  0  0  0  0  0
   -8.0476   24.9427  -30.4169 H   0  0  0  0  0  0  0  0  0  0  0  0
   -5.9412   26.2740  -30.4176 H   0  0  0  0  0  0  0  0  0  0  0  0
   -4.5807   22.6046  -32.6702 H   0  0  0  0  0  0  0  0  0  0  0  0
   -3.5817   22.2925  -34.1198 H   0  0  0  0  0  0  0  0  0  0  0  0
   -5.3488   20.4483  -32.6150 H   0  0  0  0  0  0  0  0  0  0  0  0
   -4.6906   20.2590  -34.2466 H   0  0  0  0  0  0  0  0  0  0  0  0
   -3.7221   19.1048  -31.7356 H   0  0  0  0  0  0  0  0  0  0  0  0
   -3.1079   18.7918  -33.3628 H   0  0  0  0  0  0  0  0  0  0  0  0
   -1.7177   20.1876  -31.3938 H   0  0  0  0  0  0  0  0  0  0  0  0
   -1.4116   20.3844  -33.1426 H   0  0  0  0  0  0  0  0  0  0  0  0
   -5.7373   21.2872  -30.5969 H   0  0  0  0  0  0  0  0  0  0  0  0
   -6.6721   18.0486  -33.6176 H   0  0  0  0  0  0  0  0  0  0  0  0
  1  2  2  0
  2  3  1  0
  3  4  1  0
  4  5  2  0
  5  6  1  0
  6  7  2  0
  7  8  1  0
  7  9  1  0
  9 10  1  0
 10 11  2  0
 10 12  2  0
 10 13  1  0
 13 14  1  0
 14 15  1  0
 15 16  1  0
 16 17  1  0
  9 18  2  0
  2 19  1  0
 19 20  1  0
 20 21  2  0
 21 22  1  0
 22 23  1  0
 18  4  1  0
 23 19  2  0
 17 13  1  0
  5 24  1  0
  6 25  1  0
 14 26  1  0
 14 27  1  0
 15 28  1  0
 15 29  1  0
 16 30  1  0
 16 31  1  0
 17 32  1  0
 17 33  1  0
 18 34  1  0
 21 35  1  0
M  CHG  3   3  -1   8  -1  22  -1
M  END
>  <UniqueID>  (35) 
35

>  <SMILES>  (35) 
O=C([N-]c1ccc([O-])c(S(=O)(=O)N2CCCC2)c1)c1nc[n-]n1

>  <Energy>  (35) 
74.14221648913599

>  <Genealogy>  (35) 
O=C([N-]c1ccc([O-])c(S(=O)(=O)N2CCCC2)c1)c1nc[n-]n1 (protonated)
O=C([N-]c1ccc([O-])c(S(=O)(=O)N2CCCC2)c1)c1nc[n-]n1 (3D coordinates assigned)
O=C([N-]c1ccc([O-])c(S(=O)(=O)N2CCCC2)c1)c1nc[n-]n1 (nonaromatic ring conformer: 74.14221648913599 kcal/mol)

>  <smiles>  (35) 
O=C(Nc1ccc(O)c(S(=O)(=O)N2CCCC2)c1)c1nc[nH]n1

>  <score_type>  (35) 
oracle

>  <origin>  (35) 
adgpu

>  <m_score__min__energy>  (35) 
-10.640000000000001

>  <m_primary>  (35) 
energy

$$$$
35:0
     RDKit          3D

 25 26  0  0  0  0  0  0  0  0999 V2000
   -4.9780   24.8380  -31.2190 O   0  0  0  0  0  0  0  0  0  0  0  0
   -4.8640   23.5820  -31.1900 C   0  0  0  0  0  0  0  0  0  0  0  0
   -3.6200   22.9940  -30.9280 O   0  0  0  0  0  0  0  0  0  0  0  0
   -3.0130   22.9040  -29.6660 C   0  0  0  0  0  0  0  0  0  0  0  0
   -2.8270   21.6710  -29.0130 C   0  0  0  0  0  0  0  0  0  0  0  0
   -2.2040   21.6230  -27.7610 C   0  0  0  0  0  0  0  0  0  0  0  0
   -1.9560   19.9460  -26.8810 Br  0  0  0  0  0  0  0  0  0  0  0  0
   -1.7510   22.8000  -27.1600 C   0  0  0  0  0  0  0  0  0  0  0  0
   -1.9130   24.0280  -27.8090 C   0  0  0  0  0  0  0  0  0  0  0  0
   -1.2710   25.6250  -26.9730 Br  0  0  0  0  0  0  0  0  0  0  0  0
   -2.5370   24.0790  -29.0650 C   0  0  0  0  0  0  0  0  0  0  0  0
   -2.6930   25.2980  -29.7150 O   0  0  0  0  0  0  0  0  0  0  0  0
   -6.0300   22.7350  -31.5370 C   0  0  0  0  0  0  0  0  0  0  0  0
   -7.2930   23.0640  -31.0050 C   0  0  0  0  0  0  0  0  0  0  0  0
   -8.4210   22.3050  -31.3220 C   0  0  0  0  0  0  0  0  0  0  0  0
   -8.3080   21.2050  -32.1700 C   0  0  0  0  0  0  0  0  0  0  0  0
   -7.0640   20.8540  -32.6960 C   0  0  0  0  0  0  0  0  0  0  0  0
   -5.9220   21.6050  -32.3870 C   0  0  0  0  0  0  0  0  0  0  0  0
   -4.2510   20.9760  -33.0930 Br  0  0  0  0  0  0  0  0  0  0  0  0
   -3.1728   20.7415  -29.4888 H   0  0  0  0  0  0  0  0  0  0  0  0
   -1.2656   22.7607  -26.1737 H   0  0  0  0  0  0  0  0  0  0  0  0
   -7.3911   23.9288  -30.3323 H   0  0  0  0  0  0  0  0  0  0  0  0
   -9.4008   22.5758  -30.9016 H   0  0  0  0  0  0  0  0  0  0  0  0
   -9.1996   20.6132  -32.4248 H   0  0  0  0  0  0  0  0  0  0  0  0
   -6.9791   19.9803  -33.3589 H   0  0  0  0  0  0  0  0  0  0  0  0
  1  2  2  0
  2  3  1  0
  3  4  1  0
  4  5  2  0
  5  6  1  0
  6  7  1  0
  6  8  2  0
  8  9  1  0
  9 10  1  0
  9 11  2  0
 11 12  1  0
  2 13  1  0
 13 14  2  0
 14 15  1  0
 15 16  2  0
 16 17  1  0
 17 18  2  0
 18 19  1  0
 11  4  1  0
 18 13  1  0
  5 20  1  0
  8 21  1  0
 14 22  1  0
 15 23  1  0
 16 24  1  0
 17 25  1  0
M  CHG  1  12  -1
M  END
>  <UniqueID>  (36) 
36

>  <SMILES>  (36) 
O=C(Oc1cc(Br)cc(Br)c1[O-])c1ccccc1Br

>  <Energy>  (36) 
35.39055148381364

>  <Genealogy>  (36) 
O=C(Oc1cc(Br)cc(Br)c1[O-])c1ccccc1Br (protonated)
O=C(Oc1cc(Br)cc(Br)c1[O-])c1ccccc1Br (3D coordinates assigned)
O=C(Oc1cc(Br)cc(Br)c1[O-])c1ccccc1Br (optimized conformer: 35.39055148381364 kcal/mol)

>  <smiles>  (36) 
O=C(Oc1cc(Br)cc(Br)c1O)c1ccccc1Br

>  <score_type>  (36) 
oracle

>  <origin>  (36) 
adgpu

>  <m_score__min__energy>  (36) 
-11.6

>  <m_primary>  (36) 
energy

$$$$
36:0
     RDKit          3D

 13 13  0  0  0  0  0  0  0  0999 V2000
   -6.8360   20.9610  -31.5140 O   0  0  0  0  0  0  0  0  0  0  0  0
   -6.0050   22.0430  -31.2510 C   0  0  0  0  0  0  0  0  0  0  0  0
   -4.6560   21.9950  -31.6200 C   0  0  0  0  0  0  0  0  0  0  0  0
   -3.8200   23.0830  -31.3560 C   0  0  0  0  0  0  0  0  0  0  0  0
   -4.3280   24.2230  -30.7210 C   0  0  0  0  0  0  0  0  0  0  0  0
   -3.4850   25.2990  -30.4640 O   0  0  0  0  0  0  0  0  0  0  0  0
   -5.6810   24.2730  -30.3500 C   0  0  0  0  0  0  0  0  0  0  0  0
   -6.3530   25.7230  -29.5380 S   0  0  0  0  0  0  0  0  0  0  0  0
   -6.5170   23.1800  -30.6170 C   0  0  0  0  0  0  0  0  0  0  0  0
   -4.2537   21.1005  -32.1180 H   0  0  0  0  0  0  0  0  0  0  0  0
   -2.7601   23.0439  -31.6477 H   0  0  0  0  0  0  0  0  0  0  0  0
   -5.0790   26.3120  -29.4220 H   0  0  0  0  0  0  0  0  0  0  0  0
   -7.5776   23.2164  -30.3275 H   0  0  0  0  0  0  0  0  0  0  0  0
  1  2  1  0
  2  3  2  0
  3  4  1  0
  4  5  2  0
  5  6  1  0
  5  7  1  0
  7  8  1  0
  7  9  2  0
  9  2  1  0
  3 10  1  0
  4 11  1  0
  8 12  1  0
  9 13  1  0
M  CHG  2   1  -1   6  -1
M  END
>  <UniqueID>  (37) 
37

>  <SMILES>  (37) 
[O-]c1ccc([O-])c(S)c1

>  <Energy>  (37) 
11.079757979041517

>  <Genealogy>  (37) 
[O-]c1ccc([O-])c(S)c1 (protonated)
[O-]c1ccc([O-])c(S)c1 (3D coordinates assigned)
[O-]c1ccc([O-])c(S)c1 (optimized conformer: 11.079757979041517 kcal/mol)

>  <smiles>  (37) 
Oc1ccc(O)c(S)c1

>  <score_type>  (37) 
oracle

>  <origin>  (37) 
adgpu

>  <m_score__min__energy>  (37) 
-6.9299999999999997

>  <m_primary>  (37) 
energy

$$$$
37:0
     RDKit          3D

 52 55  0  0  0  0  0  0  0  0999 V2000
   -0.8100   28.2830  -24.8800 C   0  0  0  0  0  0  0  0  0  0  0  0
   -0.1320   27.2100  -24.1340 N   0  0  0  0  0  0  0  0  0  0  0  0
   -0.9420   25.9630  -24.0950 C   0  0  0  0  0  0  0  0  0  0  0  0
   -0.3330   24.7910  -24.8880 C   0  0  0  0  0  0  0  0  0  0  0  0
    0.3260   25.2780  -26.1030 N   0  0  0  0  0  0  0  0  0  0  0  0
    0.2010   24.5660  -27.3480 C   0  0  0  0  0  0  0  0  0  0  0  0
    1.2370   24.3270  -28.0280 O   0  0  0  0  0  0  0  0  0  0  0  0
   -1.1260   24.1530  -27.8690 C   0  0  0  0  0  0  0  0  0  0  0  0
   -1.7440   22.9930  -27.3660 C   0  0  0  0  0  0  0  0  0  0  0  0
   -3.0160   22.6180  -27.8040 C   0  0  0  0  0  0  0  0  0  0  0  0
   -3.6990   23.3920  -28.7470 C   0  0  0  0  0  0  0  0  0  0  0  0
   -5.0150   22.9840  -29.1450 N   0  0  0  0  0  0  0  0  0  0  0  0
   -5.7560   23.3300  -30.6710 S   0  0  0  0  0  0  0  0  0  0  0  0
   -7.1990   23.6920  -30.4490 O   0  0  0  0  0  0  0  0  0  0  0  0
   -5.0630   24.5000  -31.3080 O   0  0  0  0  0  0  0  0  0  0  0  0
   -5.6790   21.9060  -31.6980 C   0  0  0  0  0  0  0  0  0  0  0  0
   -4.6280   21.7420  -32.6310 C   0  0  0  0  0  0  0  0  0  0  0  0
   -4.5660   20.5970  -33.4450 C   0  0  0  0  0  0  0  0  0  0  0  0
   -5.5700   19.6360  -33.3180 C   0  0  0  0  0  0  0  0  0  0  0  0
   -6.5960   19.7990  -32.4030 C   0  0  0  0  0  0  0  0  0  0  0  0
   -6.6740   20.9190  -31.5790 C   0  0  0  0  0  0  0  0  0  0  0  0
   -7.4520   18.6260  -32.4810 C   0  0  0  0  0  0  0  0  0  0  0  0
   -8.4940   18.3920  -31.8100 O   0  0  0  0  0  0  0  0  0  0  0  0
   -6.8490   17.7710  -33.4930 C   0  0  0  0  0  0  0  0  0  0  0  0
   -7.2600   16.6230  -33.8240 O   0  0  0  0  0  0  0  0  0  0  0  0
   -5.6900   18.4040  -34.0480 N   0  0  0  0  0  0  0  0  0  0  0  0
   -4.6190   17.7240  -34.7670 C   0  0  0  0  0  0  0  0  0  0  0  0
   -3.0840   24.5470  -29.2640 C   0  0  0  0  0  0  0  0  0  0  0  0
   -1.8120   24.9280  -28.8240 C   0  0  0  0  0  0  0  0  0  0  0  0
   -1.2370   26.0770  -29.3470 O   0  0  0  0  0  0  0  0  0  0  0  0
    1.3050   26.3630  -25.9940 C   0  0  0  0  0  0  0  0  0  0  0  0
    1.2560   27.0130  -24.6030 C   0  0  0  0  0  0  0  0  0  0  0  0
   -1.2596   28.9945  -24.1717 H   0  0  0  0  0  0  0  0  0  0  0  0
   -0.0792   28.8079  -25.5128 H   0  0  0  0  0  0  0  0  0  0  0  0
   -1.5978   27.8484  -25.5128 H   0  0  0  0  0  0  0  0  0  0  0  0
   -1.0467   25.6520  -23.0451 H   0  0  0  0  0  0  0  0  0  0  0  0
   -1.9073   26.1974  -24.5675 H   0  0  0  0  0  0  0  0  0  0  0  0
    0.4059   24.2737  -24.2584 H   0  0  0  0  0  0  0  0  0  0  0  0
   -1.1391   24.0996  -25.1744 H   0  0  0  0  0  0  0  0  0  0  0  0
   -1.2203   22.3760  -26.6210 H   0  0  0  0  0  0  0  0  0  0  0  0
   -3.4842   21.7065  -27.4039 H   0  0  0  0  0  0  0  0  0  0  0  0
   -3.8525   22.5170  -32.7204 H   0  0  0  0  0  0  0  0  0  0  0  0
   -3.7454   20.4620  -34.1650 H   0  0  0  0  0  0  0  0  0  0  0  0
   -7.4933   21.0290  -30.8532 H   0  0  0  0  0  0  0  0  0  0  0  0
   -3.9180   17.2789  -34.0455 H   0  0  0  0  0  0  0  0  0  0  0  0
   -5.0470   16.9318  -35.3989 H   0  0  0  0  0  0  0  0  0  0  0  0
   -4.0841   18.4483  -35.3989 H   0  0  0  0  0  0  0  0  0  0  0  0
   -3.6063   25.1537  -30.0184 H   0  0  0  0  0  0  0  0  0  0  0  0
    2.3126   25.9565  -26.1655 H   0  0  0  0  0  0  0  0  0  0  0  0
    1.0642   27.1284  -26.7465 H   0  0  0  0  0  0  0  0  0  0  0  0
    1.7838   26.3641  -23.8887 H   0  0  0  0  0  0  0  0  0  0  0  0
    1.7355   28.0006  -24.6717 H   0  0  0  0  0  0  0  0  0  0  0  0
  1  2  1  0
  2  3  1  0
  3  4  1  0
  4  5  1  0
  5  6  1  0
  6  7  2  0
  6  8  1  0
  8  9  2  0
  9 10  1  0
 10 11  2  0
 11 12  1  0
 12 13  1  0
 13 14  2  0
 13 15  2  0
 13 16  1  0
 16 17  2  0
 17 18  1  0
 18 19  2  0
 19 20  1  0
 20 21  2  0
 20 22  1  0
 22 23  2  0
 22 24  1  0
 24 25  2  0
 24 26  1  0
 26 27  1  0
 11 28  1  0
 28 29  2  0
 29 30  1  0
  5 31  1  0
 31 32  1  0
 32  2  1  0
 29  8  1  0
 21 16  1  0
 26 19  1  0
  1 33  1  0
  1 34  1  0
  1 35  1  0
  3 36  1  0
  3 37  1  0
  4 38  1  0
  4 39  1  0
  9 40  1  0
 10 41  1  0
 17 42  1  0
 18 43  1  0
 21 44  1  0
 27 45  1  0
 27 46  1  0
 27 47  1  0
 28 48  1  0
 31 49  1  0
 31 50  1  0
 32 51  1  0
 32 52  1  0
M  CHG  2  12  -1  30  -1
M  END
>  <UniqueID>  (38) 
38

>  <SMILES>  (38) 
CN1CCN(C(=O)c2ccc([N-]S(=O)(=O)c3ccc4c(c3)C(=O)C(=O)N4C)cc2[O-])CC1

>  <Energy>  (38) 
102.65997855872186

>  <Genealogy>  (38) 
CN1CCN(C(=O)c2ccc([N-]S(=O)(=O)c3ccc4c(c3)C(=O)C(=O)N4C)cc2[O-])CC1 (protonated)
CN1CCN(C(=O)c2ccc([N-]S(=O)(=O)c3ccc4c(c3)C(=O)C(=O)N4C)cc2[O-])CC1 (3D coordinates assigned)
CN1CCN(C(=O)c2ccc([N-]S(=O)(=O)c3ccc4c(c3)C(=O)C(=O)N4C)cc2[O-])CC1 (nonaromatic ring conformer: 102.65997855872186 kcal/mol)

>  <smiles>  (38) 
CN1CCN(C(=O)c2ccc(NS(=O)(=O)c3ccc4c(c3)C(=O)C(=O)N4C)cc2O)CC1

>  <score_type>  (38) 
oracle

>  <origin>  (38) 
adgpu

>  <m_score__min__energy>  (38) 
-13.800000000000001

>  <m_primary>  (38) 
energy

$$$$
38:0
     RDKit          3D

 59 62  0  0  0  0  0  0  0  0999 V2000
   -4.9859   25.4042  -28.5316 H   0  0  0  0  0  0  0  0  0  0  0  0
   -4.5060   24.5410  -29.0160 C   0  0  0  0  0  0  0  0  0  0  0  0
   -3.2620   24.1960  -28.6550 C   0  0  0  0  0  0  0  0  0  0  0  0
   -2.7948   23.3379  -29.1603 H   0  0  0  0  0  0  0  0  0  0  0  0
   -2.4790   24.9050  -27.6130 C   0  0  0  0  0  0  0  0  0  0  0  0
   -1.2230   25.4900  -27.8740 C   0  0  0  0  0  0  0  0  0  0  0  0
   -0.7930   25.4351  -28.8850 H   0  0  0  0  0  0  0  0  0  0  0  0
   -0.5210   26.1400  -26.8530 C   0  0  0  0  0  0  0  0  0  0  0  0
    0.4569   26.5963  -27.0666 H   0  0  0  0  0  0  0  0  0  0  0  0
   -1.0550   26.2130  -25.5630 C   0  0  0  0  0  0  0  0  0  0  0  0
   -0.1460   27.0100  -24.2810 S   0  0  0  0  0  0  0  0  0  0  0  0
   -1.0150   27.1760  -23.0650 O   0  0  0  0  0  0  0  0  0  0  0  0
    0.2730   28.3720  -24.7600 O   0  0  0  0  0  0  0  0  0  0  0  0
    1.2670   26.0640  -23.8850 N   0  0  0  0  0  0  0  0  0  0  0  0
    0.9860   25.3730  -23.1510 H   0  0  0  0  0  0  0  0  0  0  0  0
    2.3330   26.9350  -23.3480 C   0  0  0  0  0  0  0  0  0  0  0  0
    2.4168   27.8299  -23.9821 H   0  0  0  0  0  0  0  0  0  0  0  0
    2.0675   27.2098  -22.3165 H   0  0  0  0  0  0  0  0  0  0  0  0
    3.6950   26.2100  -23.3210 C   0  0  0  0  0  0  0  0  0  0  0  0
    4.3177   26.5832  -24.1475 H   0  0  0  0  0  0  0  0  0  0  0  0
    4.1792   26.4093  -22.3536 H   0  0  0  0  0  0  0  0  0  0  0  0
    3.5280   24.8140  -23.4620 O   0  0  0  0  0  0  0  0  0  0  0  0
    3.0130   24.5210  -24.7490 C   0  0  0  0  0  0  0  0  0  0  0  0
    3.7827   24.7558  -25.4990 H   0  0  0  0  0  0  0  0  0  0  0  0
    2.7436   23.4546  -24.7668 H   0  0  0  0  0  0  0  0  0  0  0  0
    1.7380   25.3340  -25.0750 C   0  0  0  0  0  0  0  0  0  0  0  0
    1.9640   26.0547  -25.8747 H   0  0  0  0  0  0  0  0  0  0  0  0
    0.9490   24.6394  -25.3989 H   0  0  0  0  0  0  0  0  0  0  0  0
   -2.2910   25.6130  -25.2910 C   0  0  0  0  0  0  0  0  0  0  0  0
   -2.7082   25.6534  -24.2740 H   0  0  0  0  0  0  0  0  0  0  0  0
   -2.9960   24.9630  -26.3080 C   0  0  0  0  0  0  0  0  0  0  0  0
   -3.9648   24.4924  -26.0844 H   0  0  0  0  0  0  0  0  0  0  0  0
   -5.2440   23.7930  -30.0440 C   0  0  0  0  0  0  0  0  0  0  0  0
   -6.5920   23.6940  -30.0540 N   0  0  0  0  0  0  0  0  0  0  0  0
   -6.8390   22.9370  -31.1390 C   0  0  0  0  0  0  0  0  0  0  0  0
   -8.1630   22.6440  -31.6190 C   0  0  0  0  0  0  0  0  0  0  0  0
   -9.2280   22.4080  -32.0050 N   0  0  0  0  0  0  0  0  0  0  0  0
   -5.6410   22.6130  -31.7420 C   0  0  0  0  0  0  0  0  0  0  0  0
   -5.4320   21.8580  -32.9430 N   0  0  0  0  0  0  0  0  0  0  0  0
   -4.9740   22.3470  -33.7440 H   0  0  0  0  0  0  0  0  0  0  0  0
   -5.7680   20.4700  -33.0940 C   0  0  0  0  0  0  0  0  0  0  0  0
   -4.9380   19.5930  -33.8140 C   0  0  0  0  0  0  0  0  0  0  0  0
   -4.0010   19.9640  -34.2549 H   0  0  0  0  0  0  0  0  0  0  0  0
   -5.2980   18.2520  -33.9720 C   0  0  0  0  0  0  0  0  0  0  0  0
   -4.6350   17.5711  -34.5259 H   0  0  0  0  0  0  0  0  0  0  0  0
   -6.4940   17.7680  -33.4320 C   0  0  0  0  0  0  0  0  0  0  0  0
   -6.8100   16.4130  -33.6170 O   0  0  0  0  0  0  0  0  0  0  0  0
   -5.8510   15.3920  -33.8830 C   0  0  0  0  0  0  0  0  0  0  0  0
   -5.2308   15.6866  -34.7424 H   0  0  0  0  0  0  0  0  0  0  0  0
   -6.3720   14.4506  -34.1119 H   0  0  0  0  0  0  0  0  0  0  0  0
   -4.9660   15.1970  -32.6630 C   0  0  0  0  0  0  0  0  0  0  0  0
   -5.5655   15.3291  -31.7502 H   0  0  0  0  0  0  0  0  0  0  0  0
   -4.5392   14.1833  -32.6779 H   0  0  0  0  0  0  0  0  0  0  0  0
   -4.1527   15.9375  -32.6779 H   0  0  0  0  0  0  0  0  0  0  0  0
   -7.3390   18.6510  -32.7320 C   0  0  0  0  0  0  0  0  0  0  0  0
   -8.2856   18.2842  -32.3085 H   0  0  0  0  0  0  0  0  0  0  0  0
   -6.9780   19.9920  -32.5740 C   0  0  0  0  0  0  0  0  0  0  0  0
   -7.6496   20.6779  -32.0368 H   0  0  0  0  0  0  0  0  0  0  0  0
   -4.6740   23.1600  -31.0500 O   0  0  0  0  0  0  0  0  0  0  0  0
  1  2  1  0
  2  3  2  0
  3  4  1  0
  3  5  1  0
  5  6  2  0
  6  7  1  0
  6  8  1  0
  8  9  1  0
  8 10  2  0
 10 11  1  0
 11 12  2  0
 11 13  2  0
 11 14  1  0
 14 15  1  0
 14 16  1  0
 16 17  1  0
 16 18  1  0
 16 19  1  0
 19 20  1  0
 19 21  1  0
 19 22  1  0
 22 23  1  0
 23 24  1  0
 23 25  1  0
 23 26  1  0
 26 27  1  0
 26 28  1  0
 10 29  1  0
 29 30  1  0
 29 31  2  0
 31 32  1  0
  2 33  1  0
 33 34  2  0
 34 35  1  0
 35 36  1  0
 36 37  3  0
 35 38  2  0
 38 39  1  0
 39 40  1  0
 39 41  1  0
 41 42  2  0
 42 43  1  0
 42 44  1  0
 44 45  1  0
 44 46  2  0
 46 47  1  0
 47 48  1  0
 48 49  1  0
 48 50  1  0
 48 51  1  0
 51 52  1  0
 51 53  1  0
 51 54  1  0
 46 55  1  0
 55 56  1  0
 55 57  2  0
 57 58  1  0
 38 59  1  0
 31  5  1  0
 59 33  1  0
 26 14  1  0
 57 41  1  0
M  CHG  1  14   1
M  END
>  <UniqueID>  (39) 
39

>  <SMILES>  (39) 
CCOc1ccc(Nc2oc(/C=C/c3ccc(S(=O)(=O)[NH+]4CCOCC4)cc3)nc2C#N)cc1

>  <Energy>  (39) 
102.13110366215689

>  <Genealogy>  (39) 
CCOc1ccc(Nc2oc(C=Cc3ccc(S(=O)(=O)[NH+]4CCOCC4)cc3)nc2C#N)cc1 (protonated)
CCOc1ccc(Nc2oc(/C=C/c3ccc(S(=O)(=O)[NH+]4CCOCC4)cc3)nc2C#N)cc1 (cis-trans isomerization)
CCOc1ccc(Nc2oc(/C=C/c3ccc(S(=O)(=O)[NH+]4CCOCC4)cc3)nc2C#N)cc1 (3D coordinates assigned)
CCOc1ccc(Nc2oc(/C=C/c3ccc(S(=O)(=O)[NH+]4CCOCC4)cc3)nc2C#N)cc1 (nonaromatic ring conformer: 102.13110366215689 kcal/mol)

>  <smiles>  (39) 
CCOc1ccc(Nc2oc(C=Cc3ccc(S(=O)(=O)N4CCOCC4)cc3)nc2C#N)cc1

>  <score_type>  (39) 
oracle

>  <origin>  (39) 
adgpu

>  <m_score__min__energy>  (39) 
-9.7200000000000006

>  <m_primary>  (39) 
energy

$$$$
39:0
     RDKit          3D

 46 48  0  0  0  0  0  0  0  0999 V2000
   -9.3320   21.6190  -30.8720 C   0  0  0  0  0  0  0  0  0  0  0  0
   -9.1920   20.8070  -32.1560 C   0  0  0  0  0  0  0  0  0  0  0  0
   -8.2430   19.6600  -31.9710 C   0  0  0  0  0  0  0  0  0  0  0  0
   -8.5340   18.7410  -31.1600 O   0  0  0  0  0  0  0  0  0  0  0  0
   -7.0190   19.5910  -32.7250 N   0  0  0  0  0  0  0  0  0  0  0  0
   -6.7670   18.3670  -33.5050 C   0  0  0  0  0  0  0  0  0  0  0  0
   -5.7010   18.6040  -34.5760 C   0  0  0  0  0  0  0  0  0  0  0  0
   -4.5540   19.2240  -34.0020 O   0  0  0  0  0  0  0  0  0  0  0  0
   -4.6870   20.2810  -33.1000 C   0  0  0  0  0  0  0  0  0  0  0  0
   -3.5920   21.1060  -32.8340 C   0  0  0  0  0  0  0  0  0  0  0  0
   -3.7340   22.2050  -31.9840 C   0  0  0  0  0  0  0  0  0  0  0  0
   -4.9740   22.4840  -31.3960 C   0  0  0  0  0  0  0  0  0  0  0  0
   -5.1490   23.9060  -30.3690 S   0  0  0  0  0  0  0  0  0  0  0  0
   -6.5630   24.4050  -30.4810 O   0  0  0  0  0  0  0  0  0  0  0  0
   -4.2200   24.9890  -30.8440 O   0  0  0  0  0  0  0  0  0  0  0  0
   -4.7890   23.4690  -28.7100 N   0  0  0  0  0  0  0  0  0  0  0  0
   -4.0060   24.5280  -28.0350 C   0  0  0  0  0  0  0  0  0  0  0  0
   -2.5400   24.5890  -28.5080 C   0  0  0  0  0  0  0  0  0  0  0  0
   -1.9130   23.2010  -28.7220 C   0  0  0  0  0  0  0  0  0  0  0  0
   -2.7450   22.0940  -28.0750 C   0  0  0  0  0  0  0  0  0  0  0  0
   -4.1830   22.1090  -28.6200 C   0  0  0  0  0  0  0  0  0  0  0  0
   -6.0690   21.6460  -31.6500 C   0  0  0  0  0  0  0  0  0  0  0  0
   -5.9260   20.5130  -32.4770 C   0  0  0  0  0  0  0  0  0  0  0  0
   -9.2173   20.9540  -30.0033 H   0  0  0  0  0  0  0  0  0  0  0  0
   -8.5547   22.3968  -30.8435 H   0  0  0  0  0  0  0  0  0  0  0  0
  -10.3249   22.0916  -30.8435 H   0  0  0  0  0  0  0  0  0  0  0  0
  -10.1789   20.4139  -32.4414 H   0  0  0  0  0  0  0  0  0  0  0  0
   -8.7945   21.4649  -32.9429 H   0  0  0  0  0  0  0  0  0  0  0  0
   -6.4231   17.5730  -32.8258 H   0  0  0  0  0  0  0  0  0  0  0  0
   -7.7024   18.0725  -34.0033 H   0  0  0  0  0  0  0  0  0  0  0  0
   -5.4096   17.6397  -35.0178 H   0  0  0  0  0  0  0  0  0  0  0  0
   -6.1142   19.2643  -35.3527 H   0  0  0  0  0  0  0  0  0  0  0  0
   -2.6167   20.8900  -33.2945 H   0  0  0  0  0  0  0  0  0  0  0  0
   -2.8698   22.8530  -31.7759 H   0  0  0  0  0  0  0  0  0  0  0  0
   -5.7170   23.4340  -28.2260 H   0  0  0  0  0  0  0  0  0  0  0  0
   -4.4808   25.4990  -28.2395 H   0  0  0  0  0  0  0  0  0  0  0  0
   -3.9950   24.2939  -26.9603 H   0  0  0  0  0  0  0  0  0  0  0  0
   -2.5025   25.1398  -29.4594 H   0  0  0  0  0  0  0  0  0  0  0  0
   -1.9624   25.0896  -27.7170 H   0  0  0  0  0  0  0  0  0  0  0  0
   -1.8405   23.0062  -29.8022 H   0  0  0  0  0  0  0  0  0  0  0  0
   -0.9188   23.1997  -28.2513 H   0  0  0  0  0  0  0  0  0  0  0  0
   -2.2847   21.1197  -28.2961 H   0  0  0  0  0  0  0  0  0  0  0  0
   -2.7758   22.2625  -26.9884 H   0  0  0  0  0  0  0  0  0  0  0  0
   -4.1746   21.6678  -29.6276 H   0  0  0  0  0  0  0  0  0  0  0  0
   -4.7964   21.5362  -27.9089 H   0  0  0  0  0  0  0  0  0  0  0  0
   -7.0468   21.8741  -31.2008 H   0  0  0  0  0  0  0  0  0  0  0  0
  1  2  1  0
  2  3  1  0
  3  4  2  0
  3  5  1  0
  5  6  1  0
  6  7  1  0
  7  8  1  0
  8  9  1  0
  9 10  2  0
 10 11  1  0
 11 12  2  0
 12 13  1  0
 13 14  2  0
 13 15  2  0
 13 16  1  0
 16 17  1  0
 17 18  1  0
 18 19  1  0
 19 20  1  0
 20 21  1  0
 12 22  1  0
 22 23  2  0
 23  5  1  0
 23  9  1  0
 21 16  1  0
  1 24  1  0
  1 25  1  0
  1 26  1  0
  2 27  1  0
  2 28  1  0
  6 29  1  0
  6 30  1  0
  7 31  1  0
  7 32  1  0
 10 33  1  0
 11 34  1  0
 16 35  1  0
 17 36  1  0
 17 37  1  0
 18 38  1  0
 18 39  1  0
 19 40  1  0
 19 41  1  0
 20 42  1  0
 20 43  1  0
 21 44  1  0
 21 45  1  0
 22 46  1  0
M  CHG  1  16   1
M  END
>  <UniqueID>  (40) 
40

>  <SMILES>  (40) 
CCC(=O)N1CCOc2ccc(S(=O)(=O)[NH+]3CCCCC3)cc21

>  <Energy>  (40) 
57.281775202509394

>  <Genealogy>  (40) 
CCC(=O)N1CCOc2ccc(S(=O)(=O)[NH+]3CCCCC3)cc21 (protonated)
CCC(=O)N1CCOc2ccc(S(=O)(=O)[NH+]3CCCCC3)cc21 (3D coordinates assigned)
CCC(=O)N1CCOc2ccc(S(=O)(=O)[NH+]3CCCCC3)cc21 (nonaromatic ring conformer: 57.281775202509394 kcal/mol)

>  <smiles>  (40) 
CCC(=O)N1CCOc2ccc(S(=O)(=O)N3CCCCC3)cc21

>  <score_type>  (40) 
oracle

>  <origin>  (40) 
adgpu

>  <m_score__min__energy>  (40) 
-7.8300000000000001

>  <m_primary>  (40) 
energy

$$$$
40:0
     RDKit          3D

 67 70  0  0  0  0  0  0  0  0999 V2000
    3.4490   28.1450  -21.9940 C   0  0  0  0  0  0  0  0  0  0  0  0
    3.1960   27.4770  -23.2260 O   0  0  0  0  0  0  0  0  0  0  0  0
    1.9170   27.2090  -23.7400 C   0  0  0  0  0  0  0  0  0  0  0  0
    0.9450   28.2180  -23.8800 C   0  0  0  0  0  0  0  0  0  0  0  0
   -0.3200   27.9180  -24.3870 C   0  0  0  0  0  0  0  0  0  0  0  0
   -0.6430   26.6060  -24.7590 C   0  0  0  0  0  0  0  0  0  0  0  0
   -2.0010   26.2900  -25.3270 C   0  0  0  0  0  0  0  0  0  0  0  0
   -1.8770   25.7020  -26.7080 C   0  0  0  0  0  0  0  0  0  0  0  0
   -0.8660   25.9270  -27.6310 C   0  0  0  0  0  0  0  0  0  0  0  0
    0.3290   26.8070  -27.4590 C   0  0  0  0  0  0  0  0  0  0  0  0
   -1.0640   25.1580  -28.7180 N   0  0  0  0  0  0  0  0  0  0  0  0
   -2.1660   24.4510  -28.5230 N   0  0  0  0  0  0  0  0  0  0  0  0
   -2.6700   23.5200  -29.4960 C   0  0  0  0  0  0  0  0  0  0  0  0
   -2.0810   22.2530  -29.6190 C   0  0  0  0  0  0  0  0  0  0  0  0
   -2.5700   21.3330  -30.5500 C   0  0  0  0  0  0  0  0  0  0  0  0
   -3.6620   21.6660  -31.3640 C   0  0  0  0  0  0  0  0  0  0  0  0
   -4.3020   20.5050  -32.5260 S   0  0  0  0  0  0  0  0  0  0  0  0
   -3.2610   19.4620  -32.8290 O   0  0  0  0  0  0  0  0  0  0  0  0
   -4.6340   21.2330  -33.8000 O   0  0  0  0  0  0  0  0  0  0  0  0
   -5.7410   19.7470  -31.8860 N   0  0  2  0  0  0  0  0  0  0  0  0
   -6.3260   18.8430  -32.9070 C   0  0  0  0  0  0  0  0  0  0  0  0
   -7.7970   18.5320  -32.6100 C   0  0  0  0  0  0  0  0  0  0  0  0
   -8.6530   19.8100  -32.6460 C   0  0  0  0  0  0  0  0  0  0  0  0
   -7.8340   21.0860  -32.3410 C   0  0  1  0  0  0  0  0  0  0  0  0
   -8.7350   22.1990  -31.7970 C   0  0  0  0  0  0  0  0  0  0  0  0
   -6.6860   20.7700  -31.3590 C   0  0  0  0  0  0  0  0  0  0  0  0
   -4.2730   22.9180  -31.2210 C   0  0  0  0  0  0  0  0  0  0  0  0
   -3.7830   23.8390  -30.2900 C   0  0  0  0  0  0  0  0  0  0  0  0
   -2.6980   24.7620  -27.3180 C   0  0  0  0  0  0  0  0  0  0  0  0
   -3.9640   24.1830  -26.7520 C   0  0  0  0  0  0  0  0  0  0  0  0
    0.3200   25.5970  -24.6230 C   0  0  0  0  0  0  0  0  0  0  0  0
    1.5980   25.8900  -24.1200 C   0  0  0  0  0  0  0  0  0  0  0  0
    2.6160   24.7950  -23.9670 C   0  0  0  0  0  0  0  0  0  0  0  0
    3.1964   27.4780  -21.1566 H   0  0  0  0  0  0  0  0  0  0  0  0
    4.5130   28.4184  -21.9369 H   0  0  0  0  0  0  0  0  0  0  0  0
    2.8331   29.0546  -21.9369 H   0  0  0  0  0  0  0  0  0  0  0  0
    1.1847   29.2509  -23.5874 H   0  0  0  0  0  0  0  0  0  0  0  0
   -1.0686   28.7166  -24.4954 H   0  0  0  0  0  0  0  0  0  0  0  0
   -2.5074   25.5669  -24.6708 H   0  0  0  0  0  0  0  0  0  0  0  0
   -2.5832   27.2212  -25.3902 H   0  0  0  0  0  0  0  0  0  0  0  0
    0.5261   26.9522  -26.3866 H   0  0  0  0  0  0  0  0  0  0  0  0
    1.2029   26.3352  -27.9319 H   0  0  0  0  0  0  0  0  0  0  0  0
    0.1378   27.7816  -27.9319 H   0  0  0  0  0  0  0  0  0  0  0  0
   -1.2288   21.9819  -28.9785 H   0  0  0  0  0  0  0  0  0  0  0  0
   -2.0968   20.3445  -30.6446 H   0  0  0  0  0  0  0  0  0  0  0  0
   -5.4270   19.1570  -31.0790 H   0  0  0  0  0  0  0  0  0  0  0  0
   -6.2553   19.3253  -33.8931 H   0  0  0  0  0  0  0  0  0  0  0  0
   -5.7647   17.8971  -32.8907 H   0  0  0  0  0  0  0  0  0  0  0  0
   -8.1741   17.8260  -33.3645 H   0  0  0  0  0  0  0  0  0  0  0  0
   -7.8647   18.0951  -31.6027 H   0  0  0  0  0  0  0  0  0  0  0  0
   -9.0971   19.9080  -33.6476 H   0  0  0  0  0  0  0  0  0  0  0  0
   -9.4236   19.7157  -31.8667 H   0  0  0  0  0  0  0  0  0  0  0  0
   -7.3911   21.4451  -33.2817 H   0  0  0  0  0  0  0  0  0  0  0  0
   -8.7189   22.1791  -30.6973 H   0  0  0  0  0  0  0  0  0  0  0  0
   -8.3685   23.1737  -32.1515 H   0  0  0  0  0  0  0  0  0  0  0  0
   -9.7646   22.0434  -32.1515 H   0  0  0  0  0  0  0  0  0  0  0  0
   -6.1269   21.6966  -31.1621 H   0  0  0  0  0  0  0  0  0  0  0  0
   -7.1372   20.3629  -30.4421 H   0  0  0  0  0  0  0  0  0  0  0  0
   -5.1418   23.1779  -31.8436 H   0  0  0  0  0  0  0  0  0  0  0  0
   -4.2719   24.8181  -30.1792 H   0  0  0  0  0  0  0  0  0  0  0  0
   -3.9177   24.2042  -25.6532 H   0  0  0  0  0  0  0  0  0  0  0  0
   -4.8241   24.7773  -27.0943 H   0  0  0  0  0  0  0  0  0  0  0  0
   -4.0770   23.1437  -27.0943 H   0  0  0  0  0  0  0  0  0  0  0  0
    0.0724   24.5653  -24.9131 H   0  0  0  0  0  0  0  0  0  0  0  0
    2.7925   24.6052  -22.8980 H   0  0  0  0  0  0  0  0  0  0  0  0
    2.2425   23.8777  -24.4455 H   0  0  0  0  0  0  0  0  0  0  0  0
    3.5581   25.1007  -24.4455 H   0  0  0  0  0  0  0  0  0  0  0  0
  1  2  1  0
  2  3  1  0
  3  4  2  0
  4  5  1  0
  5  6  2  0
  6  7  1  0
  7  8  1  0
  8  9  1  0
  9 10  1  0
  9 11  2  0
 11 12  1  0
 12 13  1  0
 13 14  2  0
 14 15  1  0
 15 16  2  0
 16 17  1  0
 17 18  2  0
 17 19  2  0
 17 20  1  0
 20 21  1  0
 21 22  1  0
 22 23  1  0
 23 24  1  0
 24 25  1  0
 24 26  1  0
 16 27  1  0
 27 28  2  0
 12 29  1  0
 29 30  1  0
  6 31  1  0
 31 32  2  0
 32 33  1  0
 32  3  1  0
 29  8  2  0
 28 13  1  0
 26 20  1  0
  1 34  1  0
  1 35  1  0
  1 36  1  0
  4 37  1  0
  5 38  1  0
  7 39  1  0
  7 40  1  0
 10 41  1  0
 10 42  1  0
 10 43  1  0
 14 44  1  0
 15 45  1  0
 20 46  1  1
 21 47  1  0
 21 48  1  0
 22 49  1  0
 22 50  1  0
 23 51  1  0
 23 52  1  0
 24 53  1  6
 25 54  1  0
 25 55  1  0
 25 56  1  0
 26 57  1  0
 26 58  1  0
 27 59  1  0
 28 60  1  0
 30 61  1  0
 30 62  1  0
 30 63  1  0
 31 64  1  0
 33 65  1  0
 33 66  1  0
 33 67  1  0
M  CHG  1  20   1
M  END
>  <UniqueID>  (41) 
41

>  <SMILES>  (41) 
COc1ccc(Cc2c(C)nn(-c3ccc(S(=O)(=O)[N@@H+]4CCC[C@@H](C)C4)cc3)c2C)cc1C

>  <Energy>  (41) 
103.8148759327184

>  <Genealogy>  (41) 
COc1ccc(Cc2c(C)nn(-c3ccc(S(=O)(=O)[NH+]4CCCC(C)C4)cc3)c2C)cc1C (protonated)
COc1ccc(Cc2c(C)nn(-c3ccc(S(=O)(=O)[N@@H+]4CCC[C@@H](C)C4)cc3)c2C)cc1C (chirality)
COc1ccc(Cc2c(C)nn(-c3ccc(S(=O)(=O)[N@@H+]4CCC[C@@H](C)C4)cc3)c2C)cc1C (3D coordinates assigned)
COc1ccc(Cc2c(C)nn(-c3ccc(S(=O)(=O)[N@@H+]4CCC[C@@H](C)C4)cc3)c2C)cc1C (nonaromatic ring conformer: 103.8148759327184 kcal/mol)

>  <smiles>  (41) 
COc1ccc(Cc2c(C)nn(-c3ccc(S(=O)(=O)N4CCCC(C)C4)cc3)c2C)cc1C

>  <score_type>  (41) 
oracle

>  <origin>  (41) 
adgpu

>  <m_score__min__energy>  (41) 
-10.24

>  <m_primary>  (41) 
energy

$$$$
41:0
     RDKit          3D

 44 46  0  0  0  0  0  0  0  0999 V2000
   -2.3760   25.6540  -26.5330 C   0  0  0  0  0  0  0  0  0  0  0  0
   -1.6430   24.4600  -27.0840 C   0  0  0  0  0  0  0  0  0  0  0  0
   -0.9590   23.5990  -26.2130 C   0  0  0  0  0  0  0  0  0  0  0  0
   -0.2560   22.5040  -26.7110 C   0  0  0  0  0  0  0  0  0  0  0  0
   -0.2620   22.2320  -28.0790 C   0  0  0  0  0  0  0  0  0  0  0  0
   -0.9770   23.0500  -28.9680 C   0  0  0  0  0  0  0  0  0  0  0  0
   -1.0180   22.6570  -30.4190 C   0  0  0  0  0  0  0  0  0  0  0  0
   -1.6400   24.2010  -28.4710 C   0  0  0  0  0  0  0  0  0  0  0  0
   -2.3890   25.0680  -29.3350 N   0  0  0  0  0  0  0  0  0  0  0  0
   -3.5810   24.7430  -30.0660 C   0  0  0  0  0  0  0  0  0  0  0  0
   -4.2100   25.6790  -30.6320 O   0  0  0  0  0  0  0  0  0  0  0  0
   -4.1340   23.3490  -30.1670 C   0  0  0  0  0  0  0  0  0  0  0  0
   -4.0830   22.8560  -31.5030 O   0  0  0  0  0  0  0  0  0  0  0  0
   -3.9380   21.4930  -31.7850 C   0  0  0  0  0  0  0  0  0  0  0  0
   -3.3700   20.7290  -30.9560 O   0  0  0  0  0  0  0  0  0  0  0  0
   -4.4000   20.9280  -33.0950 C   0  0  0  0  0  0  0  0  0  0  0  0
   -5.8280   20.4640  -33.0630 C   0  0  0  0  0  0  0  0  0  0  0  0
   -6.2820   19.2070  -33.4450 C   0  0  0  0  0  0  0  0  0  0  0  0
   -7.6080   19.0880  -33.2040 N   0  0  0  0  0  0  0  0  0  0  0  0
   -7.9930   20.2530  -32.6590 C   0  0  0  0  0  0  0  0  0  0  0  0
   -9.2740   20.6020  -32.2360 C   0  0  0  0  0  0  0  0  0  0  0  0
   -9.4560   21.8810  -31.6780 C   0  0  0  0  0  0  0  0  0  0  0  0
   -8.3650   22.7680  -31.5520 C   0  0  0  0  0  0  0  0  0  0  0  0
   -7.0820   22.3870  -31.9820 C   0  0  0  0  0  0  0  0  0  0  0  0
   -6.9330   21.1160  -32.5430 C   0  0  0  0  0  0  0  0  0  0  0  0
   -2.3559   25.6213  -25.4337 H   0  0  0  0  0  0  0  0  0  0  0  0
   -1.8884   26.5764  -26.8814 H   0  0  0  0  0  0  0  0  0  0  0  0
   -3.4192   25.6366  -26.8814 H   0  0  0  0  0  0  0  0  0  0  0  0
   -0.9778   23.7896  -25.1298 H   0  0  0  0  0  0  0  0  0  0  0  0
    0.3047   21.8529  -26.0242 H   0  0  0  0  0  0  0  0  0  0  0  0
    0.2990   21.3681  -28.4650 H   0  0  0  0  0  0  0  0  0  0  0  0
   -1.1318   21.5659  -30.5003 H   0  0  0  0  0  0  0  0  0  0  0  0
   -1.8694   23.1520  -30.9090 H   0  0  0  0  0  0  0  0  0  0  0  0
   -0.0828   22.9656  -30.9090 H   0  0  0  0  0  0  0  0  0  0  0  0
   -3.5441   22.6839  -29.5191 H   0  0  0  0  0  0  0  0  0  0  0  0
   -5.1875   23.3749  -29.8516 H   0  0  0  0  0  0  0  0  0  0  0  0
   -4.3014   21.7058  -33.8665 H   0  0  0  0  0  0  0  0  0  0  0  0
   -3.7738   20.0506  -33.3141 H   0  0  0  0  0  0  0  0  0  0  0  0
   -5.6512   18.4190  -33.8822 H   0  0  0  0  0  0  0  0  0  0  0  0
   -8.2060   18.2550  -33.4000 H   0  0  0  0  0  0  0  0  0  0  0  0
  -10.1156   19.9006  -32.3350 H   0  0  0  0  0  0  0  0  0  0  0  0
  -10.4549   22.1916  -31.3378 H   0  0  0  0  0  0  0  0  0  0  0  0
   -8.5200   23.7650  -31.1139 H   0  0  0  0  0  0  0  0  0  0  0  0
   -6.2235   23.0672  -31.8802 H   0  0  0  0  0  0  0  0  0  0  0  0
  1  2  1  0
  2  3  2  0
  3  4  1  0
  4  5  2  0
  5  6  1  0
  6  7  1  0
  6  8  2  0
  8  9  1  0
  9 10  1  0
 10 11  2  0
 10 12  1  0
 12 13  1  0
 13 14  1  0
 14 15  2  0
 14 16  1  0
 16 17  1  0
 17 18  2  0
 18 19  1  0
 19 20  1  0
 20 21  2  0
 21 22  1  0
 22 23  2  0
 23 24  1  0
 24 25  2  0
  8  2  1  0
 25 17  1  0
 25 20  1  0
  1 26  1  0
  1 27  1  0
  1 28  1  0
  3 29  1  0
  4 30  1  0
  5 31  1  0
  7 32  1  0
  7 33  1  0
  7 34  1  0
 12 35  1  0
 12 36  1  0
 16 37  1  0
 16 38  1  0
 18 39  1  0
 19 40  1  0
 21 41  1  0
 22 42  1  0
 23 43  1  0
 24 44  1  0
M  CHG  1   9  -1
M  END
>  <UniqueID>  (42) 
42

>  <SMILES>  (42) 
Cc1cccc(C)c1[N-]C(=O)COC(=O)Cc1c[nH]c2ccccc12

>  <Energy>  (42) 
77.8980179356055

>  <Genealogy>  (42) 
Cc1cccc(C)c1[N-]C(=O)COC(=O)Cc1c[nH]c2ccccc12 (protonated)
Cc1cccc(C)c1[N-]C(=O)COC(=O)Cc1c[nH]c2ccccc12 (3D coordinates assigned)
Cc1cccc(C)c1[N-]C(=O)COC(=O)Cc1c[nH]c2ccccc12 (optimized conformer: 77.8980179356055 kcal/mol)

>  <smiles>  (42) 
Cc1cccc(C)c1NC(=O)COC(=O)Cc1c[nH]c2ccccc12

>  <score_type>  (42) 
oracle

>  <origin>  (42) 
adgpu

>  <m_score__min__energy>  (42) 
-10.300000000000001

>  <m_primary>  (42) 
energy

$$$$
42:0
     RDKit          3D

 54 57  0  0  0  0  0  0  0  0999 V2000
   -9.1610   18.9300  -32.3100 C   0  0  0  0  0  0  0  0  0  0  0  0
   -8.0430   19.9250  -32.2130 C   0  0  0  0  0  0  0  0  0  0  0  0
   -6.9640   19.8660  -33.1100 C   0  0  0  0  0  0  0  0  0  0  0  0
   -5.9470   20.8220  -33.0500 C   0  0  0  0  0  0  0  0  0  0  0  0
   -6.0010   21.8480  -32.1040 C   0  0  0  0  0  0  0  0  0  0  0  0
   -7.0770   21.9240  -31.2040 C   0  0  0  0  0  0  0  0  0  0  0  0
   -7.1620   23.0560  -30.2200 C   0  0  0  0  0  0  0  0  0  0  0  0
   -5.8640   23.7980  -30.1780 C   0  0  0  0  0  0  0  0  0  0  0  0
   -5.4950   24.8450  -31.0170 C   0  0  0  0  0  0  0  0  0  0  0  0
   -4.2310   25.3080  -30.8280 N   0  0  0  0  0  0  0  0  0  0  0  0
   -3.5860   24.6320  -29.8540 C   0  0  0  0  0  0  0  0  0  0  0  0
   -2.3600   24.9150  -29.5180 N   0  0  0  0  0  0  0  0  0  0  0  0
   -1.5520   24.2820  -28.5120 C   0  0  0  0  0  0  0  0  0  0  0  0
   -0.8350   24.9690  -27.7340 O   0  0  0  0  0  0  0  0  0  0  0  0
   -1.5540   22.8040  -28.3910 C   0  0  0  0  0  0  0  0  0  0  0  0
   -1.9940   22.1840  -27.2060 C   0  0  0  0  0  0  0  0  0  0  0  0
   -1.9880   20.7920  -27.0930 C   0  0  0  0  0  0  0  0  0  0  0  0
   -1.5420   20.0010  -28.1530 C   0  0  0  0  0  0  0  0  0  0  0  0
   -1.0950   20.6010  -29.3380 C   0  0  0  0  0  0  0  0  0  0  0  0
   -0.5200   19.6010  -30.6740 S   0  0  0  0  0  0  0  0  0  0  0  0
   -0.0810   18.2680  -30.1340 O   0  0  0  0  0  0  0  0  0  0  0  0
    0.6860   20.2640  -31.2810 O   0  0  0  0  0  0  0  0  0  0  0  0
   -1.7270   19.3550  -31.9230 N   0  0  0  0  0  0  0  0  0  0  0  0
   -1.1590   19.4910  -33.2870 C   0  0  0  0  0  0  0  0  0  0  0  0
   -1.4420   20.8630  -33.9230 C   0  0  0  0  0  0  0  0  0  0  0  0
   -1.5620   21.8540  -32.9290 O   0  0  0  0  0  0  0  0  0  0  0  0
   -2.7510   21.6490  -32.1920 C   0  0  0  0  0  0  0  0  0  0  0  0
   -2.9290   20.1890  -31.7120 C   0  0  0  0  0  0  0  0  0  0  0  0
   -1.1110   21.9980  -29.4570 C   0  0  0  0  0  0  0  0  0  0  0  0
   -4.5590   23.4210  -29.1860 S   0  0  0  0  0  0  0  0  0  0  0  0
   -8.1040   20.9680  -31.2750 C   0  0  0  0  0  0  0  0  0  0  0  0
   -9.4844   18.6422  -31.2988 H   0  0  0  0  0  0  0  0  0  0  0  0
  -10.0064   19.3800  -32.8512 H   0  0  0  0  0  0  0  0  0  0  0  0
   -8.8122   18.0381  -32.8512 H   0  0  0  0  0  0  0  0  0  0  0  0
   -6.9195   19.0646  -33.8622 H   0  0  0  0  0  0  0  0  0  0  0  0
   -5.1006   20.7664  -33.7504 H   0  0  0  0  0  0  0  0  0  0  0  0
   -5.1984   22.5991  -32.0635 H   0  0  0  0  0  0  0  0  0  0  0  0
   -7.9647   23.7437  -30.5247 H   0  0  0  0  0  0  0  0  0  0  0  0
   -7.3772   22.6495  -29.2208 H   0  0  0  0  0  0  0  0  0  0  0  0
   -6.1733   25.2652  -31.7742 H   0  0  0  0  0  0  0  0  0  0  0  0
   -2.3445   22.7995  -26.3644 H   0  0  0  0  0  0  0  0  0  0  0  0
   -2.3364   20.3167  -26.1642 H   0  0  0  0  0  0  0  0  0  0  0  0
   -1.5414   18.9051  -28.0581 H   0  0  0  0  0  0  0  0  0  0  0  0
   -2.0290   18.3580  -31.8120 H   0  0  0  0  0  0  0  0  0  0  0  0
   -0.0697   19.3499  -33.2286 H   0  0  0  0  0  0  0  0  0  0  0  0
   -1.6387   18.7301  -33.9201 H   0  0  0  0  0  0  0  0  0  0  0  0
   -0.6145   21.1263  -34.5982 H   0  0  0  0  0  0  0  0  0  0  0  0
   -2.3866   20.8063  -34.4837 H   0  0  0  0  0  0  0  0  0  0  0  0
   -2.7332   22.3067  -31.3105 H   0  0  0  0  0  0  0  0  0  0  0  0
   -3.5932   21.8768  -32.8620 H   0  0  0  0  0  0  0  0  0  0  0  0
   -3.1620   20.2006  -30.6370 H   0  0  0  0  0  0  0  0  0  0  0  0
   -3.7418   19.7466  -32.3067 H   0  0  0  0  0  0  0  0  0  0  0  0
   -0.7742   22.4688  -30.3923 H   0  0  0  0  0  0  0  0  0  0  0  0
   -8.9624   21.0371  -30.5906 H   0  0  0  0  0  0  0  0  0  0  0  0
  1  2  1  0
  2  3  2  0
  3  4  1  0
  4  5  2  0
  5  6  1  0
  6  7  1  0
  7  8  1  0
  8  9  2  0
  9 10  1  0
 10 11  1  0
 11 12  2  3
 12 13  1  0
 13 14  2  0
 13 15  1  0
 15 16  2  0
 16 17  1  0
 17 18  2  0
 18 19  1  0
 19 20  1  0
 20 21  2  0
 20 22  2  0
 20 23  1  0
 23 24  1  0
 24 25  1  0
 25 26  1  0
 26 27  1  0
 27 28  1  0
 19 29  2  0
 11 30  1  0
  6 31  2  0
 31  2  1  0
 30  8  1  0
 29 15  1  0
 28 23  1  0
  1 32  1  0
  1 33  1  0
  1 34  1  0
  3 35  1  0
  4 36  1  0
  5 37  1  0
  7 38  1  0
  7 39  1  0
  9 40  1  0
 16 41  1  0
 17 42  1  0
 18 43  1  0
 23 44  1  0
 24 45  1  0
 24 46  1  0
 25 47  1  0
 25 48  1  0
 27 49  1  0
 27 50  1  0
 28 51  1  0
 28 52  1  0
 29 53  1  0
 31 54  1  0
M  CHG  2  10  -1  23   1
M  END
>  <UniqueID>  (43) 
43

>  <SMILES>  (43) 
Cc1cccc(Cc2c[n-]c(=NC(=O)c3cccc(S(=O)(=O)[NH+]4CCOCC4)c3)s2)c1

>  <Energy>  (43) 
99.24825968558048

>  <Genealogy>  (43) 
Cc1cccc(Cc2c[n-]c(=NC(=O)c3cccc(S(=O)(=O)[NH+]4CCOCC4)c3)s2)c1 (protonated)
Cc1cccc(Cc2c[n-]c(=NC(=O)c3cccc(S(=O)(=O)[NH+]4CCOCC4)c3)s2)c1 (3D coordinates assigned)
Cc1cccc(Cc2c[n-]c(=NC(=O)c3cccc(S(=O)(=O)[NH+]4CCOCC4)c3)s2)c1 (nonaromatic ring conformer: 99.24825968558048 kcal/mol)

>  <smiles>  (43) 
Cc1cccc(Cc2c[nH]c(=NC(=O)c3cccc(S(=O)(=O)N4CCOCC4)c3)s2)c1

>  <score_type>  (43) 
oracle

>  <origin>  (43) 
adgpu

>  <m_score__min__energy>  (43) 
-12.33

>  <m_primary>  (43) 
energy

$$$$
43:0
     RDKit          3D

 44 46  0  0  0  0  0  0  0  0999 V2000
   -2.8720   24.9080  -26.6030 C   0  0  0  0  0  0  0  0  0  0  0  0
   -3.8530   24.1760  -27.5130 C   0  0  0  0  0  0  0  0  0  0  0  0
   -3.1830   23.0100  -28.2000 C   0  0  0  0  0  0  0  0  0  0  0  0
   -2.9330   21.8370  -27.4710 C   0  0  0  0  0  0  0  0  0  0  0  0
   -2.3060   20.7410  -28.0740 C   0  0  0  0  0  0  0  0  0  0  0  0
   -2.0640   19.4850  -27.2890 C   0  0  0  0  0  0  0  0  0  0  0  0
   -1.9810   20.7930  -29.4350 C   0  0  0  0  0  0  0  0  0  0  0  0
   -2.2540   21.9400  -30.1940 C   0  0  0  0  0  0  0  0  0  0  0  0
   -1.9300   21.9330  -31.6650 C   0  0  0  0  0  0  0  0  0  0  0  0
   -2.8260   23.0730  -29.5650 C   0  0  0  0  0  0  0  0  0  0  0  0
   -3.1070   24.2660  -30.3120 N   0  0  0  0  0  0  0  0  0  0  0  0
   -4.4280   24.7630  -30.5510 C   0  0  0  0  0  0  0  0  0  0  0  0
   -4.6570   26.0000  -30.4700 O   0  0  0  0  0  0  0  0  0  0  0  0
   -5.5140   23.8410  -30.9470 C   0  0  0  0  0  0  0  0  0  0  0  0
   -5.1840   22.7170  -31.7240 C   0  0  0  0  0  0  0  0  0  0  0  0
   -6.1560   21.7640  -32.0570 C   0  0  0  0  0  0  0  0  0  0  0  0
   -5.8190   20.6350  -32.8210 C   0  0  0  0  0  0  0  0  0  0  0  0
   -6.7950   19.6860  -33.1400 C   0  0  0  0  0  0  0  0  0  0  0  0
   -8.1100   19.8560  -32.7000 C   0  0  0  0  0  0  0  0  0  0  0  0
   -8.4570   20.9750  -31.9380 C   0  0  0  0  0  0  0  0  0  0  0  0
   -7.4850   21.9340  -31.6100 C   0  0  0  0  0  0  0  0  0  0  0  0
   -7.8220   23.0630  -30.8530 C   0  0  0  0  0  0  0  0  0  0  0  0
   -6.8580   24.0260  -30.5360 C   0  0  0  0  0  0  0  0  0  0  0  0
   -7.2800   25.1640  -29.8470 O   0  0  0  0  0  0  0  0  0  0  0  0
   -3.1321   24.7139  -25.5520 H   0  0  0  0  0  0  0  0  0  0  0  0
   -1.8511   24.5492  -26.8004 H   0  0  0  0  0  0  0  0  0  0  0  0
   -2.9253   25.9888  -26.8004 H   0  0  0  0  0  0  0  0  0  0  0  0
   -4.6945   23.8038  -26.9102 H   0  0  0  0  0  0  0  0  0  0  0  0
   -4.2112   24.8778  -28.2806 H   0  0  0  0  0  0  0  0  0  0  0  0
   -3.2332   21.7786  -26.4144 H   0  0  0  0  0  0  0  0  0  0  0  0
   -2.1075   19.7108  -26.2133 H   0  0  0  0  0  0  0  0  0  0  0  0
   -2.8355   18.7419  -27.5392 H   0  0  0  0  0  0  0  0  0  0  0  0
   -1.0716   19.0817  -27.5392 H   0  0  0  0  0  0  0  0  0  0  0  0
   -1.5061   19.9242  -29.9142 H   0  0  0  0  0  0  0  0  0  0  0  0
   -0.8386   21.9094  -31.7999 H   0  0  0  0  0  0  0  0  0  0  0  0
   -2.3768   21.0443  -32.1346 H   0  0  0  0  0  0  0  0  0  0  0  0
   -2.3380   22.8402  -32.1346 H   0  0  0  0  0  0  0  0  0  0  0  0
   -4.1500   22.5838  -32.0750 H   0  0  0  0  0  0  0  0  0  0  0  0
   -4.7848   20.4969  -33.1693 H   0  0  0  0  0  0  0  0  0  0  0  0
   -6.5267   18.8032  -33.7390 H   0  0  0  0  0  0  0  0  0  0  0  0
   -8.8745   19.1070  -32.9540 H   0  0  0  0  0  0  0  0  0  0  0  0
   -9.4939   21.1048  -31.5944 H   0  0  0  0  0  0  0  0  0  0  0  0
   -8.8568   23.1941  -30.5036 H   0  0  0  0  0  0  0  0  0  0  0  0
   -6.6570   25.9110  -29.5750 H   0  0  0  0  0  0  0  0  0  0  0  0
  1  2  1  0
  2  3  1  0
  3  4  2  0
  4  5  1  0
  5  6  1  0
  5  7  2  0
  7  8  1  0
  8  9  1  0
  8 10  2  0
 10 11  1  0
 11 12  1  0
 12 13  2  0
 12 14  1  0
 14 15  2  0
 15 16  1  0
 16 17  2  0
 17 18  1  0
 18 19  2  0
 19 20  1  0
 20 21  2  0
 21 22  1  0
 22 23  2  0
 23 24  1  0
 10  3  1  0
 23 14  1  0
 21 16  1  0
  1 25  1  0
  1 26  1  0
  1 27  1  0
  2 28  1  0
  2 29  1  0
  4 30  1  0
  6 31  1  0
  6 32  1  0
  6 33  1  0
  7 34  1  0
  9 35  1  0
  9 36  1  0
  9 37  1  0
 15 38  1  0
 17 39  1  0
 18 40  1  0
 19 41  1  0
 20 42  1  0
 22 43  1  0
 24 44  1  0
M  CHG  1  11  -1
M  END
>  <UniqueID>  (44) 
44

>  <SMILES>  (44) 
CCc1cc(C)cc(C)c1[N-]C(=O)c1cc2ccccc2cc1O

>  <Energy>  (44) 
58.06792049010477

>  <Genealogy>  (44) 
CCc1cc(C)cc(C)c1[N-]C(=O)c1cc2ccccc2cc1O (protonated)
CCc1cc(C)cc(C)c1[N-]C(=O)c1cc2ccccc2cc1O (3D coordinates assigned)
CCc1cc(C)cc(C)c1[N-]C(=O)c1cc2ccccc2cc1O (optimized conformer: 58.06792049010477 kcal/mol)

>  <smiles>  (44) 
CCc1cc(C)cc(C)c1NC(=O)c1cc2ccccc2cc1O

>  <score_type>  (44) 
oracle

>  <origin>  (44) 
adgpu

>  <m_score__min__energy>  (44) 
-10.85

>  <m_primary>  (44) 
energy

$$$$
44:0
     RDKit          3D

 62 66  0  0  0  0  0  0  0  0999 V2000
   -2.3690   19.6710  -26.4640 C   0  0  0  0  0  0  0  0  0  0  0  0
   -1.5520   19.4720  -27.6750 N   0  0  0  0  0  0  0  0  0  0  0  0
   -0.1680   19.9590  -27.5160 C   0  0  0  0  0  0  0  0  0  0  0  0
   -0.0940   21.4840  -27.3350 C   0  0  0  0  0  0  0  0  0  0  0  0
   -1.0120   22.2220  -28.2740 C   0  0  0  0  0  0  0  0  0  0  0  0
   -0.8780   23.6100  -28.4110 C   0  0  0  0  0  0  0  0  0  0  0  0
   -1.7560   24.3340  -29.2230 C   0  0  0  0  0  0  0  0  0  0  0  0
   -1.5920   25.7100  -29.3360 O   0  0  0  0  0  0  0  0  0  0  0  0
   -2.7970   23.6820  -29.9070 C   0  0  0  0  0  0  0  0  0  0  0  0
   -3.6900   24.4410  -30.7450 N   0  0  0  0  0  0  0  0  0  0  0  0
   -5.3670   24.7100  -30.3800 S   0  0  0  0  0  0  0  0  0  0  0  0
   -5.5400   24.8200  -28.8900 O   0  0  0  0  0  0  0  0  0  0  0  0
   -5.8100   26.0020  -31.0070 O   0  0  0  0  0  0  0  0  0  0  0  0
   -6.3400   23.3960  -31.0350 C   0  0  0  0  0  0  0  0  0  0  0  0
   -7.7130   23.5620  -31.2540 C   0  0  0  0  0  0  0  0  0  0  0  0
   -8.4770   22.5060  -31.7540 C   0  0  0  0  0  0  0  0  0  0  0  0
   -7.8780   21.2750  -32.0460 C   0  0  0  0  0  0  0  0  0  0  0  0
   -8.8810   20.0000  -32.7300 Cl  0  0  0  0  0  0  0  0  0  0  0  0
   -6.4930   21.0980  -31.8320 C   0  0  0  0  0  0  0  0  0  0  0  0
   -5.8170   19.8170  -32.1360 C   0  0  0  0  0  0  0  0  0  0  0  0
   -6.4840   18.5990  -31.9570 C   0  0  0  0  0  0  0  0  0  0  0  0
   -5.8250   17.4080  -32.2520 C   0  0  0  0  0  0  0  0  0  0  0  0
   -4.5460   17.4320  -32.7080 N   0  0  0  0  0  0  0  0  0  0  0  0
   -3.8510   18.5920  -32.8920 C   0  0  0  0  0  0  0  0  0  0  0  0
   -2.4890   18.5450  -33.3910 N   0  0  0  0  0  0  0  0  0  0  0  0
   -1.8590   17.2600  -33.7420 C   0  0  0  0  0  0  0  0  0  0  0  0
   -0.4480   17.4640  -34.3030 C   0  0  0  0  0  0  0  0  0  0  0  0
   -0.4450   18.5680  -35.2690 N   0  0  0  0  0  0  0  0  0  0  0  0
   -0.7740   19.8630  -34.6450 C   0  0  0  0  0  0  0  0  0  0  0  0
   -1.6500   19.7570  -33.3760 C   0  0  0  0  0  0  0  0  0  0  0  0
   -4.4900   19.8140  -32.5920 C   0  0  0  0  0  0  0  0  0  0  0  0
   -5.7340   22.1680  -31.3280 C   0  0  0  0  0  0  0  0  0  0  0  0
   -2.9310   22.2880  -29.7640 C   0  0  0  0  0  0  0  0  0  0  0  0
   -2.0590   21.5590  -28.9420 C   0  0  0  0  0  0  0  0  0  0  0  0
   -2.1910   20.0530  -28.8730 C   0  0  0  0  0  0  0  0  0  0  0  0
   -1.7445   19.5189  -25.5713 H   0  0  0  0  0  0  0  0  0  0  0  0
   -2.7735   20.6939  -26.4586 H   0  0  0  0  0  0  0  0  0  0  0  0
   -3.1986   18.9487  -26.4586 H   0  0  0  0  0  0  0  0  0  0  0  0
    0.2753   19.4775  -26.6319 H   0  0  0  0  0  0  0  0  0  0  0  0
    0.3814   19.7059  -28.4347 H   0  0  0  0  0  0  0  0  0  0  0  0
   -0.3753   21.7304  -26.3005 H   0  0  0  0  0  0  0  0  0  0  0  0
    0.9361   21.7975  -27.5598 H   0  0  0  0  0  0  0  0  0  0  0  0
   -0.0741   24.1351  -27.8744 H   0  0  0  0  0  0  0  0  0  0  0  0
   -3.3130   24.9290  -31.5900 H   0  0  0  0  0  0  0  0  0  0  0  0
   -8.1910   24.5274  -31.0314 H   0  0  0  0  0  0  0  0  0  0  0  0
   -9.5559   22.6421  -31.9195 H   0  0  0  0  0  0  0  0  0  0  0  0
   -7.5196   18.5829  -31.5866 H   0  0  0  0  0  0  0  0  0  0  0  0
   -6.3413   16.4464  -32.1154 H   0  0  0  0  0  0  0  0  0  0  0  0
   -1.7984   16.6330  -32.8402 H   0  0  0  0  0  0  0  0  0  0  0  0
   -2.4720   16.7737  -34.5151 H   0  0  0  0  0  0  0  0  0  0  0  0
    0.2409   17.7000  -33.4785 H   0  0  0  0  0  0  0  0  0  0  0  0
   -0.1244   16.5421  -34.8084 H   0  0  0  0  0  0  0  0  0  0  0  0
   -1.1550   18.3620  -36.0120 H   0  0  0  0  0  0  0  0  0  0  0  0
    0.1674   20.3623  -34.3723 H   0  0  0  0  0  0  0  0  0  0  0  0
   -1.3607   20.4275  -35.3847 H   0  0  0  0  0  0  0  0  0  0  0  0
   -0.9952   19.7261  -32.4926 H   0  0  0  0  0  0  0  0  0  0  0  0
   -2.3145   20.6331  -33.3444 H   0  0  0  0  0  0  0  0  0  0  0  0
   -3.9482   20.7633  -32.7155 H   0  0  0  0  0  0  0  0  0  0  0  0
   -4.6542   22.0398  -31.1622 H   0  0  0  0  0  0  0  0  0  0  0  0
   -3.7317   21.7625  -30.3051 H   0  0  0  0  0  0  0  0  0  0  0  0
   -3.2603   19.7951  -28.8599 H   0  0  0  0  0  0  0  0  0  0  0  0
   -1.6791   19.6372  -29.7533 H   0  0  0  0  0  0  0  0  0  0  0  0
  1  2  1  0
  2  3  1  0
  3  4  1  0
  4  5  1  0
  5  6  2  0
  6  7  1  0
  7  8  1  0
  7  9  2  0
  9 10  1  0
 10 11  1  0
 11 12  2  0
 11 13  2  0
 11 14  1  0
 14 15  2  0
 15 16  1  0
 16 17  2  0
 17 18  1  0
 17 19  1  0
 19 20  1  0
 20 21  2  0
 21 22  1  0
 22 23  2  0
 23 24  1  0
 24 25  1  0
 25 26  1  0
 26 27  1  0
 27 28  1  0
 28 29  1  0
 29 30  1  0
 24 31  2  0
 19 32  2  0
  9 33  1  0
 33 34  2  0
 34 35  1  0
 35  2  1  0
 34  5  1  0
 32 14  1  0
 31 20  1  0
 30 25  1  0
  1 36  1  0
  1 37  1  0
  1 38  1  0
  3 39  1  0
  3 40  1  0
  4 41  1  0
  4 42  1  0
  6 43  1  0
 10 44  1  0
 15 45  1  0
 16 46  1  0
 21 47  1  0
 22 48  1  0
 26 49  1  0
 26 50  1  0
 27 51  1  0
 27 52  1  0
 28 53  1  0
 29 54  1  0
 29 55  1  0
 30 56  1  0
 30 57  1  0
 31 58  1  0
 32 59  1  0
 33 60  1  0
 35 61  1  0
 35 62  1  0
M  CHG  1   8  -1
M  END
>  <UniqueID>  (45) 
45

>  <SMILES>  (45) 
CN1CCc2cc([O-])c(NS(=O)(=O)c3ccc(Cl)c(-c4ccnc(N5CCNCC5)c4)c3)cc2C1

>  <Energy>  (45) 
90.0640370807856

>  <Genealogy>  (45) 
CN1CCc2cc([O-])c(NS(=O)(=O)c3ccc(Cl)c(-c4ccnc(N5CCNCC5)c4)c3)cc2C1 (protonated)
CN1CCc2cc([O-])c(NS(=O)(=O)c3ccc(Cl)c(-c4ccnc(N5CCNCC5)c4)c3)cc2C1 (3D coordinates assigned)
CN1CCc2cc([O-])c(NS(=O)(=O)c3ccc(Cl)c(-c4ccnc(N5CCNCC5)c4)c3)cc2C1 (nonaromatic ring conformer: 90.0640370807856 kcal/mol)

>  <smiles>  (45) 
CN1CCc2cc(O)c(NS(=O)(=O)c3ccc(Cl)c(-c4ccnc(N5CCNCC5)c4)c3)cc2C1

>  <score_type>  (45) 
oracle

>  <origin>  (45) 
adgpu

>  <m_score__min__energy>  (45) 
-14.390000000000001

>  <m_primary>  (45) 
energy

$$$$
45:0
     RDKit          3D

 44 46  0  0  0  0  0  0  0  0999 V2000
   -6.1090   17.2120  -31.6950 C   0  0  0  0  0  0  0  0  0  0  0  0
   -6.4090   17.4220  -33.1770 C   0  0  0  0  0  0  0  0  0  0  0  0
   -6.4840   18.8830  -33.5200 C   0  0  0  0  0  0  0  0  0  0  0  0
   -6.0560   19.2800  -34.6380 O   0  0  0  0  0  0  0  0  0  0  0  0
   -7.0030   19.8440  -32.5880 N   0  0  0  0  0  0  0  0  0  0  0  0
   -8.3600   19.7840  -32.0420 C   0  0  0  0  0  0  0  0  0  0  0  0
   -8.5570   21.0970  -31.2460 C   0  0  0  0  0  0  0  0  0  0  0  0
   -7.2280   21.7610  -31.3400 C   0  0  0  0  0  0  0  0  0  0  0  0
   -6.8200   22.9460  -30.7280 C   0  0  0  0  0  0  0  0  0  0  0  0
   -5.4900   23.3710  -30.9000 C   0  0  0  0  0  0  0  0  0  0  0  0
   -4.9650   24.8850  -30.1700 S   0  0  0  0  0  0  0  0  0  0  0  0
   -4.1800   25.6700  -31.1820 O   0  0  0  0  0  0  0  0  0  0  0  0
   -6.1530   25.7030  -29.7430 O   0  0  0  0  0  0  0  0  0  0  0  0
   -3.9570   24.5540  -28.7950 N   0  0  0  0  0  0  0  0  0  0  0  0
   -3.3020   23.2580  -28.9590 C   0  0  0  0  0  0  0  0  0  0  0  0
   -1.8870   23.3470  -28.4520 C   0  0  0  0  0  0  0  0  0  0  0  0
   -1.3370   22.2560  -27.7540 C   0  0  0  0  0  0  0  0  0  0  0  0
   -0.0300   22.3130  -27.2660 C   0  0  0  0  0  0  0  0  0  0  0  0
    0.7410   23.4590  -27.4610 C   0  0  0  0  0  0  0  0  0  0  0  0
    0.2050   24.5540  -28.1400 C   0  0  0  0  0  0  0  0  0  0  0  0
   -1.1050   24.5150  -28.6330 C   0  0  0  0  0  0  0  0  0  0  0  0
   -1.5960   25.6450  -29.2900 O   0  0  0  0  0  0  0  0  0  0  0  0
   -4.5970   22.5900  -31.6640 C   0  0  0  0  0  0  0  0  0  0  0  0
   -5.0320   21.3970  -32.2620 C   0  0  0  0  0  0  0  0  0  0  0  0
   -6.3700   21.0200  -32.1070 C   0  0  0  0  0  0  0  0  0  0  0  0
   -6.8618   17.7389  -31.0903 H   0  0  0  0  0  0  0  0  0  0  0  0
   -6.1396   16.1371  -31.4634 H   0  0  0  0  0  0  0  0  0  0  0  0
   -5.1095   17.6087  -31.4634 H   0  0  0  0  0  0  0  0  0  0  0  0
   -5.6113   16.9550  -33.7732 H   0  0  0  0  0  0  0  0  0  0  0  0
   -7.3835   16.9635  -33.4011 H   0  0  0  0  0  0  0  0  0  0  0  0
   -9.0970   19.7160  -32.8558 H   0  0  0  0  0  0  0  0  0  0  0  0
   -8.4986   18.8999  -31.4023 H   0  0  0  0  0  0  0  0  0  0  0  0
   -9.3410   21.7196  -31.7017 H   0  0  0  0  0  0  0  0  0  0  0  0
   -8.8786   20.9255  -30.2081 H   0  0  0  0  0  0  0  0  0  0  0  0
   -7.5239   23.5364  -30.1231 H   0  0  0  0  0  0  0  0  0  0  0  0
   -3.8498   22.4946  -28.3870 H   0  0  0  0  0  0  0  0  0  0  0  0
   -3.2949   22.9812  -30.0236 H   0  0  0  0  0  0  0  0  0  0  0  0
   -1.9413   21.3513  -27.5916 H   0  0  0  0  0  0  0  0  0  0  0  0
    0.3925   21.4524  -26.7267 H   0  0  0  0  0  0  0  0  0  0  0  0
    1.7719   23.4996  -27.0794 H   0  0  0  0  0  0  0  0  0  0  0  0
    0.8170   25.4558  -28.2893 H   0  0  0  0  0  0  0  0  0  0  0  0
   -2.4960   25.6730  -29.7520 H   0  0  0  0  0  0  0  0  0  0  0  0
   -3.5547   22.9178  -31.7916 H   0  0  0  0  0  0  0  0  0  0  0  0
   -4.3356   20.7719  -32.8402 H   0  0  0  0  0  0  0  0  0  0  0  0
  1  2  1  0
  2  3  1  0
  3  4  2  0
  3  5  1  0
  5  6  1  0
  6  7  1  0
  7  8  1  0
  8  9  2  0
  9 10  1  0
 10 11  1  0
 11 12  2  0
 11 13  2  0
 11 14  1  0
 14 15  1  0
 15 16  1  0
 16 17  2  0
 17 18  1  0
 18 19  2  0
 19 20  1  0
 20 21  2  0
 21 22  1  0
 10 23  2  0
 23 24  1  0
 24 25  2  0
 25  5  1  0
 25  8  1  0
 21 16  1  0
  1 26  1  0
  1 27  1  0
  1 28  1  0
  2 29  1  0
  2 30  1  0
  6 31  1  0
  6 32  1  0
  7 33  1  0
  7 34  1  0
  9 35  1  0
 15 36  1  0
 15 37  1  0
 17 38  1  0
 18 39  1  0
 19 40  1  0
 20 41  1  0
 22 42  1  0
 23 43  1  0
 24 44  1  0
M  CHG  1  14  -1
M  END
>  <UniqueID>  (46) 
46

>  <SMILES>  (46) 
CCC(=O)N1CCc2cc(S(=O)(=O)[N-]Cc3ccccc3O)ccc21

>  <Energy>  (46) 
59.287525999216115

>  <Genealogy>  (46) 
CCC(=O)N1CCc2cc(S(=O)(=O)[N-]Cc3ccccc3O)ccc21 (protonated)
CCC(=O)N1CCc2cc(S(=O)(=O)[N-]Cc3ccccc3O)ccc21 (3D coordinates assigned)
CCC(=O)N1CCc2cc(S(=O)(=O)[N-]Cc3ccccc3O)ccc21 (nonaromatic ring conformer: 59.287525999216115 kcal/mol)

>  <smiles>  (46) 
CCC(=O)N1CCc2cc(S(=O)(=O)NCc3ccccc3O)ccc21

>  <score_type>  (46) 
oracle

>  <origin>  (46) 
adgpu

>  <m_score__min__energy>  (46) 
-11.539999999999999

>  <m_primary>  (46) 
energy

$$$$
46:0
     RDKit          3D

 73 77  0  0  0  0  0  0  0  0999 V2000
    1.0860   17.9470  -32.4280 C   0  0  0  0  0  0  0  0  0  0  0  0
    0.0310   18.9940  -32.6590 C   0  0  0  0  0  0  0  0  0  0  0  0
   -0.3550   19.8270  -31.5990 C   0  0  0  0  0  0  0  0  0  0  0  0
   -1.3700   20.7810  -31.7700 C   0  0  0  0  0  0  0  0  0  0  0  0
   -1.7810   21.6610  -30.6480 C   0  0  0  0  0  0  0  0  0  0  0  0
   -1.5450   21.2740  -29.3180 C   0  0  0  0  0  0  0  0  0  0  0  0
   -1.9320   22.1020  -28.2620 C   0  0  0  0  0  0  0  0  0  0  0  0
   -2.5700   23.3160  -28.5200 C   0  0  0  0  0  0  0  0  0  0  0  0
   -2.8370   23.7090  -29.8390 C   0  0  0  0  0  0  0  0  0  0  0  0
   -3.5320   24.9340  -30.1200 N   0  0  0  0  0  0  0  0  0  0  0  0
   -5.2590   25.0510  -30.0150 S   0  0  0  0  0  0  0  0  0  0  0  0
   -5.7220   26.2420  -30.8050 O   0  0  0  0  0  0  0  0  0  0  0  0
   -5.6830   25.2400  -28.5850 O   0  0  0  0  0  0  0  0  0  0  0  0
   -5.9800   23.5910  -30.6880 C   0  0  0  0  0  0  0  0  0  0  0  0
   -5.2210   22.4200  -30.7970 C   0  0  0  0  0  0  0  0  0  0  0  0
   -5.8040   21.2410  -31.2680 C   0  0  0  0  0  0  0  0  0  0  0  0
   -7.1660   21.2070  -31.6200 C   0  0  0  0  0  0  0  0  0  0  0  0
   -7.7840   20.0220  -32.0860 C   0  0  0  0  0  0  0  0  0  0  0  0
   -7.0410   18.7950  -32.2210 N   0  0  0  0  0  0  0  0  0  0  0  0
   -7.6220   17.5850  -31.6290 C   0  0  0  0  0  0  0  0  0  0  0  0
   -5.8020   18.7230  -33.0250 C   0  0  0  0  0  0  0  0  0  0  0  0
   -6.0920   18.4890  -34.5260 C   0  0  0  0  0  0  0  0  0  0  0  0
   -4.8890   17.8630  -35.2650 C   0  0  0  0  0  0  0  0  0  0  0  0
   -3.6110   18.2050  -34.6240 N   0  0  0  0  0  0  0  0  0  0  0  0
   -3.5090   17.6640  -33.2540 C   0  0  0  0  0  0  0  0  0  0  0  0
   -4.8530   17.6410  -32.4930 C   0  0  0  0  0  0  0  0  0  0  0  0
   -9.1590   20.0230  -32.3630 C   0  0  0  0  0  0  0  0  0  0  0  0
   -9.9090   21.1930  -32.2370 C   0  0  0  0  0  0  0  0  0  0  0  0
   -9.3020   22.3750  -31.8170 C   0  0  0  0  0  0  0  0  0  0  0  0
   -7.9360   22.3940  -31.5000 C   0  0  0  0  0  0  0  0  0  0  0  0
   -7.3330   23.5770  -31.0490 C   0  0  0  0  0  0  0  0  0  0  0  0
   -2.4220   22.8890  -30.8990 C   0  0  0  0  0  0  0  0  0  0  0  0
   -1.9850   20.8800  -33.0250 C   0  0  0  0  0  0  0  0  0  0  0  0
   -1.5810   20.0890  -34.0520 N   0  0  0  0  0  0  0  0  0  0  0  0
   -0.5880   19.1700  -33.9180 C   0  0  0  0  0  0  0  0  0  0  0  0
   -0.2050   18.3890  -35.0620 N   0  0  0  0  0  0  0  0  0  0  0  0
   -0.5890   16.9800  -35.1720 C   0  0  0  0  0  0  0  0  0  0  0  0
    0.6680   18.9830  -36.0710 C   0  0  0  0  0  0  0  0  0  0  0  0
    1.2301   17.8040  -31.3469 H   0  0  0  0  0  0  0  0  0  0  0  0
    0.7670   16.9982  -32.8841 H   0  0  0  0  0  0  0  0  0  0  0  0
    2.0324   18.2732  -32.8841 H   0  0  0  0  0  0  0  0  0  0  0  0
    0.1432   19.7316  -30.6229 H   0  0  0  0  0  0  0  0  0  0  0  0
   -1.0525   20.3132  -29.1073 H   0  0  0  0  0  0  0  0  0  0  0  0
   -1.7334   21.7964  -27.2241 H   0  0  0  0  0  0  0  0  0  0  0  0
   -2.8649   23.9678  -27.6844 H   0  0  0  0  0  0  0  0  0  0  0  0
   -3.0430   25.6720  -30.6740 H   0  0  0  0  0  0  0  0  0  0  0  0
   -4.1591   22.4281  -30.5101 H   0  0  0  0  0  0  0  0  0  0  0  0
   -5.1930   20.3314  -31.3645 H   0  0  0  0  0  0  0  0  0  0  0  0
   -7.5861   17.6598  -30.5321 H   0  0  0  0  0  0  0  0  0  0  0  0
   -8.6674   17.4827  -31.9555 H   0  0  0  0  0  0  0  0  0  0  0  0
   -7.0481   16.7052  -31.9555 H   0  0  0  0  0  0  0  0  0  0  0  0
   -5.3091   19.7016  -32.9279 H   0  0  0  0  0  0  0  0  0  0  0  0
   -6.9547   17.8128  -34.6183 H   0  0  0  0  0  0  0  0  0  0  0  0
   -6.2971   19.4672  -34.9855 H   0  0  0  0  0  0  0  0  0  0  0  0
   -5.0037   16.7690  -35.2674 H   0  0  0  0  0  0  0  0  0  0  0  0
   -4.8734   18.2634  -36.2894 H   0  0  0  0  0  0  0  0  0  0  0  0
   -3.5190   19.2470  -34.5920 H   0  0  0  0  0  0  0  0  0  0  0  0
   -3.1269   16.6343  -33.3150 H   0  0  0  0  0  0  0  0  0  0  0  0
   -2.8349   18.3298  -32.6952 H   0  0  0  0  0  0  0  0  0  0  0  0
   -5.3229   16.6548  -32.6217 H   0  0  0  0  0  0  0  0  0  0  0  0
   -4.6575   17.8374  -31.4285 H   0  0  0  0  0  0  0  0  0  0  0  0
   -9.6509   19.0925  -32.6827 H   0  0  0  0  0  0  0  0  0  0  0  0
  -10.9839   21.1822  -32.4702 H   0  0  0  0  0  0  0  0  0  0  0  0
   -9.8966   23.2967  -31.7338 H   0  0  0  0  0  0  0  0  0  0  0  0
   -7.9268   24.5003  -30.9783 H   0  0  0  0  0  0  0  0  0  0  0  0
   -2.5992   23.2087  -31.9365 H   0  0  0  0  0  0  0  0  0  0  0  0
   -2.7998   21.6027  -33.1792 H   0  0  0  0  0  0  0  0  0  0  0  0
   -0.7056   16.5521  -34.1654 H   0  0  0  0  0  0  0  0  0  0  0  0
   -1.5414   16.9010  -35.7166 H   0  0  0  0  0  0  0  0  0  0  0  0
    0.1916   16.4286  -35.7166 H   0  0  0  0  0  0  0  0  0  0  0  0
    1.4795   19.5352  -35.5745 H   0  0  0  0  0  0  0  0  0  0  0  0
    1.0962   18.1880  -36.6992 H   0  0  0  0  0  0  0  0  0  0  0  0
    0.0857   19.6732  -36.6992 H   0  0  0  0  0  0  0  0  0  0  0  0
  1  2  1  0
  2  3  2  0
  3  4  1  0
  4  5  1  0
  5  6  2  0
  6  7  1  0
  7  8  2  0
  8  9  1  0
  9 10  1  0
 10 11  1  0
 11 12  2  0
 11 13  2  0
 11 14  1  0
 14 15  2  0
 15 16  1  0
 16 17  2  0
 17 18  1  0
 18 19  1  0
 19 20  1  0
 19 21  1  0
 21 22  1  0
 22 23  1  0
 23 24  1  0
 24 25  1  0
 25 26  1  0
 18 27  2  0
 27 28  1  0
 28 29  2  0
 29 30  1  0
 30 31  2  0
  9 32  2  0
  4 33  2  0
 33 34  1  0
 34 35  2  0
 35 36  1  0
 36 37  1  0
 36 38  1  0
 35  2  1  0
 32  5  1  0
 31 14  1  0
 30 17  1  0
 26 21  1  0
  1 39  1  0
  1 40  1  0
  1 41  1  0
  3 42  1  0
  6 43  1  0
  7 44  1  0
  8 45  1  0
 10 46  1  0
 15 47  1  0
 16 48  1  0
 20 49  1  0
 20 50  1  0
 20 51  1  0
 21 52  1  0
 22 53  1  0
 22 54  1  0
 23 55  1  0
 23 56  1  0
 24 57  1  0
 25 58  1  0
 25 59  1  0
 26 60  1  0
 26 61  1  0
 27 62  1  0
 28 63  1  0
 29 64  1  0
 31 65  1  0
 32 66  1  0
 33 67  1  0
 37 68  1  0
 37 69  1  0
 37 70  1  0
 38 71  1  0
 38 72  1  0
 38 73  1  0
M  END
>  <UniqueID>  (47) 
47

>  <SMILES>  (47) 
Cc1cc(-c2cccc(NS(=O)(=O)c3ccc4c(N(C)C5CCNCC5)cccc4c3)c2)cnc1N(C)C

>  <Energy>  (47) 
104.23425484621619

>  <Genealogy>  (47) 
Cc1cc(-c2cccc(NS(=O)(=O)c3ccc4c(N(C)C5CCNCC5)cccc4c3)c2)cnc1N(C)C (3D coordinates assigned)
Cc1cc(-c2cccc(NS(=O)(=O)c3ccc4c(N(C)C5CCNCC5)cccc4c3)c2)cnc1N(C)C (nonaromatic ring conformer: 104.23425484621619 kcal/mol)

>  <smiles>  (47) 
Cc1cc(-c2cccc(NS(=O)(=O)c3ccc4c(N(C)C5CCNCC5)cccc4c3)c2)cnc1N(C)C

>  <score_type>  (47) 
oracle

>  <origin>  (47) 
adgpu

>  <m_score__min__energy>  (47) 
-12.09

>  <m_primary>  (47) 
energy

$$$$
47:0
     RDKit          3D

 63 66  0  0  0  0  0  0  0  0999 V2000
   -4.5540   14.5940  -31.9510 C   0  0  0  0  0  0  0  0  0  0  0  0
   -4.9630   14.0540  -33.3220 C   0  0  0  0  0  0  0  0  0  0  0  0
   -5.5290   15.1520  -34.2290 C   0  0  0  0  0  0  0  0  0  0  0  0
   -4.6900   16.3500  -34.2130 N   0  0  0  0  0  0  0  0  0  0  0  0
   -5.2600   17.6630  -34.1060 C   0  0  0  0  0  0  0  0  0  0  0  0
   -6.5010   17.8270  -34.2550 O   0  0  0  0  0  0  0  0  0  0  0  0
   -4.4070   18.8390  -33.8610 C   0  0  0  0  0  0  0  0  0  0  0  0
   -3.1490   18.9660  -34.3450 N   0  0  0  0  0  0  0  0  0  0  0  0
   -2.6450   20.1290  -33.9440 N   0  0  0  0  0  0  0  0  0  0  0  0
   -3.5880   20.7440  -33.2110 C   0  0  0  0  0  0  0  0  0  0  0  0
   -3.5150   21.9980  -32.6160 C   0  0  0  0  0  0  0  0  0  0  0  0
   -4.6460   22.4760  -31.9270 C   0  0  0  0  0  0  0  0  0  0  0  0
   -4.5590   23.7660  -31.3040 N   0  0  0  0  0  0  0  0  0  0  0  0
   -3.9220   24.0690  -30.0540 C   0  0  0  0  0  0  0  0  0  0  0  0
   -4.4670   24.9120  -29.2920 O   0  0  0  0  0  0  0  0  0  0  0  0
   -2.6200   23.4710  -29.6670 C   0  0  0  0  0  0  0  0  0  0  0  0
   -2.4650   22.0730  -29.6390 C   0  0  0  0  0  0  0  0  0  0  0  0
   -1.2380   21.4920  -29.2810 C   0  0  0  0  0  0  0  0  0  0  0  0
   -1.1020   20.0180  -29.2330 C   0  0  0  0  0  0  0  0  0  0  0  0
   -1.6880   19.3860  -28.3110 O   0  0  0  0  0  0  0  0  0  0  0  0
   -0.3130   19.2900  -30.1950 N   0  0  0  0  0  0  0  0  0  0  0  0
    0.3450   18.0460  -29.7840 C   0  0  0  0  0  0  0  0  0  0  0  0
    1.0540   17.3800  -30.9710 C   0  0  0  0  0  0  0  0  0  0  0  0
    0.1850   17.3030  -32.1660 N   0  0  0  0  0  0  0  0  0  0  0  0
   -0.8210   16.2330  -32.0380 C   0  0  0  0  0  0  0  0  0  0  0  0
   -0.4430   18.5960  -32.5570 C   0  0  0  0  0  0  0  0  0  0  0  0
   -0.1670   19.7530  -31.5820 C   0  0  0  0  0  0  0  0  0  0  0  0
   -0.1630   22.3230  -28.9330 C   0  0  0  0  0  0  0  0  0  0  0  0
   -0.3040   23.7100  -28.9700 C   0  0  0  0  0  0  0  0  0  0  0  0
   -1.5220   24.2880  -29.3340 C   0  0  0  0  0  0  0  0  0  0  0  0
   -1.6360   25.6740  -29.3430 O   0  0  0  0  0  0  0  0  0  0  0  0
   -5.8510   21.7100  -31.9120 C   0  0  0  0  0  0  0  0  0  0  0  0
   -7.0010   22.2550  -31.3180 O   0  0  0  0  0  0  0  0  0  0  0  0
   -7.6910   23.4070  -31.7950 C   0  0  0  0  0  0  0  0  0  0  0  0
   -5.8760   20.4310  -32.5250 C   0  0  0  0  0  0  0  0  0  0  0  0
   -4.7120   19.9750  -33.1390 C   0  0  0  0  0  0  0  0  0  0  0  0
   -5.0173   13.9823  -31.1629 H   0  0  0  0  0  0  0  0  0  0  0  0
   -3.4593   14.5518  -31.8520 H   0  0  0  0  0  0  0  0  0  0  0  0
   -4.8912   15.6363  -31.8520 H   0  0  0  0  0  0  0  0  0  0  0  0
   -4.0798   13.6133  -33.8075 H   0  0  0  0  0  0  0  0  0  0  0  0
   -5.7510   13.3021  -33.1684 H   0  0  0  0  0  0  0  0  0  0  0  0
   -5.5860   14.7699  -35.2589 H   0  0  0  0  0  0  0  0  0  0  0  0
   -6.5267   15.4260  -33.8556 H   0  0  0  0  0  0  0  0  0  0  0  0
   -3.6550   16.2590  -34.3240 H   0  0  0  0  0  0  0  0  0  0  0  0
   -2.5975   22.6013  -32.6817 H   0  0  0  0  0  0  0  0  0  0  0  0
   -3.3159   21.4269  -29.9009 H   0  0  0  0  0  0  0  0  0  0  0  0
    1.0861   18.2722  -29.0033 H   0  0  0  0  0  0  0  0  0  0  0  0
   -0.4203   17.3551  -29.4007 H   0  0  0  0  0  0  0  0  0  0  0  0
    1.9512   17.9649  -31.2219 H   0  0  0  0  0  0  0  0  0  0  0  0
    1.3166   16.3533  -30.6762 H   0  0  0  0  0  0  0  0  0  0  0  0
   -1.0095   16.0325  -30.9730 H   0  0  0  0  0  0  0  0  0  0  0  0
   -1.7564   16.5493  -32.5227 H   0  0  0  0  0  0  0  0  0  0  0  0
   -0.4477   15.3189  -32.5227 H   0  0  0  0  0  0  0  0  0  0  0  0
   -0.0581   18.8806  -33.5474 H   0  0  0  0  0  0  0  0  0  0  0  0
   -1.5308   18.4324  -32.5525 H   0  0  0  0  0  0  0  0  0  0  0  0
    0.8576   20.1224  -31.7364 H   0  0  0  0  0  0  0  0  0  0  0  0
   -0.8885   20.5618  -31.7695 H   0  0  0  0  0  0  0  0  0  0  0  0
    0.7962   21.8784  -28.6293 H   0  0  0  0  0  0  0  0  0  0  0  0
    0.5500   24.3530  -28.7107 H   0  0  0  0  0  0  0  0  0  0  0  0
   -8.0469   24.0012  -30.9405 H   0  0  0  0  0  0  0  0  0  0  0  0
   -7.0088   24.0160  -32.4064 H   0  0  0  0  0  0  0  0  0  0  0  0
   -8.5499   23.0930  -32.4064 H   0  0  0  0  0  0  0  0  0  0  0  0
   -6.7886   19.8169  -32.5157 H   0  0  0  0  0  0  0  0  0  0  0  0
  1  2  1  0
  2  3  1  0
  3  4  1  0
  4  5  1  0
  5  6  2  0
  5  7  1  0
  7  8  1  0
  8  9  1  0
  9 10  2  0
 10 11  1  0
 11 12  2  0
 12 13  1  0
 13 14  1  0
 14 15  2  0
 14 16  1  0
 16 17  2  0
 17 18  1  0
 18 19  1  0
 19 20  2  0
 19 21  1  0
 21 22  1  0
 22 23  1  0
 23 24  1  0
 24 25  1  0
 24 26  1  0
 26 27  1  0
 18 28  2  0
 28 29  1  0
 29 30  2  0
 30 31  1  0
 12 32  1  0
 32 33  1  0
 33 34  1  0
 32 35  2  0
 35 36  1  0
 36  7  2  0
 36 10  1  0
 30 16  1  0
 27 21  1  0
  1 37  1  0
  1 38  1  0
  1 39  1  0
  2 40  1  0
  2 41  1  0
  3 42  1  0
  3 43  1  0
  4 44  1  0
 11 45  1  0
 17 46  1  0
 22 47  1  0
 22 48  1  0
 23 49  1  0
 23 50  1  0
 25 51  1  0
 25 52  1  0
 25 53  1  0
 26 54  1  0
 26 55  1  0
 27 56  1  0
 27 57  1  0
 28 58  1  0
 29 59  1  0
 34 60  1  0
 34 61  1  0
 34 62  1  0
 35 63  1  0
M  CHG  3   8  -1  13  -1  31  -1
M  END
>  <UniqueID>  (48) 
48

>  <SMILES>  (48) 
CCCNC(=O)c1[n-]nc2cc([N-]C(=O)c3cc(C(=O)N4CCN(C)CC4)ccc3[O-])c(OC)cc12

>  <Energy>  (48) 
118.51066472577759

>  <Genealogy>  (48) 
CCCNC(=O)c1[n-]nc2cc([N-]C(=O)c3cc(C(=O)N4CCN(C)CC4)ccc3[O-])c(OC)cc12 (protonated)
CCCNC(=O)c1[n-]nc2cc([N-]C(=O)c3cc(C(=O)N4CCN(C)CC4)ccc3[O-])c(OC)cc12 (3D coordinates assigned)
CCCNC(=O)c1[n-]nc2cc([N-]C(=O)c3cc(C(=O)N4CCN(C)CC4)ccc3[O-])c(OC)cc12 (nonaromatic ring conformer: 118.51066472577759 kcal/mol)

>  <smiles>  (48) 
CCCNC(=O)c1[nH]nc2cc(NC(=O)c3cc(C(=O)N4CCN(C)CC4)ccc3O)c(OC)cc12

>  <score_type>  (48) 
oracle

>  <origin>  (48) 
adgpu

>  <m_score__min__energy>  (48) 
-12.359999999999999

>  <m_primary>  (48) 
energy

$$$$
48:0
     RDKit          3D

 60 63  0  0  0  0  0  0  0  0999 V2000
   -4.9780   26.1080  -30.3790 O   0  0  0  0  0  0  0  0  0  0  0  0
   -4.2520   25.0930  -30.5500 C   0  0  0  0  0  0  0  0  0  0  0  0
   -3.0850   24.9270  -29.7320 N   0  0  0  0  0  0  0  0  0  0  0  0
   -2.5540   23.6810  -29.2590 C   0  0  0  0  0  0  0  0  0  0  0  0
   -1.1760   23.4110  -29.2930 C   0  0  0  0  0  0  0  0  0  0  0  0
   -0.6830   22.2020  -28.7950 C   0  0  0  0  0  0  0  0  0  0  0  0
   -1.5630   21.2250  -28.2980 C   0  0  0  0  0  0  0  0  0  0  0  0
   -1.0500   19.9410  -27.7710 C   0  0  0  0  0  0  0  0  0  0  0  0
   -1.4660   19.5300  -26.6520 O   0  0  0  0  0  0  0  0  0  0  0  0
   -0.0980   19.1450  -28.5050 N   0  0  0  0  0  0  0  0  0  0  0  0
    0.7570   18.1940  -27.7940 C   0  0  0  0  0  0  0  0  0  0  0  0
    1.9110   17.7530  -28.7060 C   0  0  0  0  0  0  0  0  0  0  0  0
    1.5010   17.1970  -29.9500 O   0  0  0  0  0  0  0  0  0  0  0  0
    0.2640   17.6930  -30.4480 C   0  0  0  0  0  0  0  0  0  0  0  0
   -0.1030   19.1060  -29.9700 C   0  0  0  0  0  0  0  0  0  0  0  0
   -2.9420   21.4930  -28.2820 C   0  0  0  0  0  0  0  0  0  0  0  0
   -3.4330   22.7090  -28.7690 C   0  0  0  0  0  0  0  0  0  0  0  0
   -4.6190   24.1420  -31.5610 N   0  0  0  0  0  0  0  0  0  0  0  0
   -5.7260   23.2310  -31.4960 C   0  0  0  0  0  0  0  0  0  0  0  0
   -6.7820   23.5280  -30.6290 C   0  0  0  0  0  0  0  0  0  0  0  0
   -7.8480   22.6430  -30.4850 C   0  0  0  0  0  0  0  0  0  0  0  0
   -7.8630   21.4460  -31.1980 C   0  0  0  0  0  0  0  0  0  0  0  0
   -6.8200   21.1270  -32.0830 C   0  0  0  0  0  0  0  0  0  0  0  0
   -6.8610   19.5720  -32.9260 S   0  0  0  0  0  0  0  0  0  0  0  0
   -6.4800   19.7560  -34.3690 O   0  0  0  0  0  0  0  0  0  0  0  0
   -8.2640   19.0380  -32.8450 O   0  0  0  0  0  0  0  0  0  0  0  0
   -5.7520   18.4380  -32.1820 N   0  0  0  0  0  0  0  0  0  0  0  0
   -4.3800   18.5710  -32.7210 C   0  0  0  0  0  0  0  0  0  0  0  0
   -4.1470   17.7920  -34.0320 C   0  0  0  0  0  0  0  0  0  0  0  0
   -4.8160   16.4070  -34.0570 C   0  0  0  0  0  0  0  0  0  0  0  0
   -5.3280   15.9950  -32.6810 C   0  0  0  0  0  0  0  0  0  0  0  0
   -6.3020   17.0590  -32.1600 C   0  0  0  0  0  0  0  0  0  0  0  0
   -5.7750   22.0610  -32.2840 C   0  0  0  0  0  0  0  0  0  0  0  0
   -4.7990   21.8710  -33.2660 O   0  0  0  0  0  0  0  0  0  0  0  0
   -0.4823   24.1541  -29.7132 H   0  0  0  0  0  0  0  0  0  0  0  0
    0.4007   22.0136  -28.7919 H   0  0  0  0  0  0  0  0  0  0  0  0
    1.1662   18.6734  -26.8925 H   0  0  0  0  0  0  0  0  0  0  0  0
    0.1628   17.3139  -27.5072 H   0  0  0  0  0  0  0  0  0  0  0  0
    2.5401   18.6313  -28.9130 H   0  0  0  0  0  0  0  0  0  0  0  0
    2.4471   16.9566  -28.1690 H   0  0  0  0  0  0  0  0  0  0  0  0
    0.3182   17.7067  -31.5466 H   0  0  0  0  0  0  0  0  0  0  0  0
   -0.5170   17.0224  -30.0603 H   0  0  0  0  0  0  0  0  0  0  0  0
    0.6321   19.8264  -30.3581 H   0  0  0  0  0  0  0  0  0  0  0  0
   -1.1053   19.3683  -30.3395 H   0  0  0  0  0  0  0  0  0  0  0  0
   -3.6401   20.7418  -27.8840 H   0  0  0  0  0  0  0  0  0  0  0  0
   -4.5159   22.9020  -28.7667 H   0  0  0  0  0  0  0  0  0  0  0  0
   -6.7709   24.4672  -30.0565 H   0  0  0  0  0  0  0  0  0  0  0  0
   -8.6789   22.8894  -29.8076 H   0  0  0  0  0  0  0  0  0  0  0  0
   -8.6997   20.7441  -31.0665 H   0  0  0  0  0  0  0  0  0  0  0  0
   -4.1841   19.6365  -32.9114 H   0  0  0  0  0  0  0  0  0  0  0  0
   -3.6985   18.1448  -31.9701 H   0  0  0  0  0  0  0  0  0  0  0  0
   -4.5493   18.3868  -34.8653 H   0  0  0  0  0  0  0  0  0  0  0  0
   -3.0630   17.6264  -34.1186 H   0  0  0  0  0  0  0  0  0  0  0  0
   -5.6635   16.4346  -34.7577 H   0  0  0  0  0  0  0  0  0  0  0  0
   -4.0620   15.6711  -34.3733 H   0  0  0  0  0  0  0  0  0  0  0  0
   -5.8470   15.0281  -32.7570 H   0  0  0  0  0  0  0  0  0  0  0  0
   -4.4801   15.9016  -31.9864 H   0  0  0  0  0  0  0  0  0  0  0  0
   -7.2068   17.0366  -32.7852 H   0  0  0  0  0  0  0  0  0  0  0  0
   -6.5106   16.8143  -31.1080 H   0  0  0  0  0  0  0  0  0  0  0  0
   -4.9640   21.3750  -34.1310 H   0  0  0  0  0  0  0  0  0  0  0  0
  1  2  2  0
  2  3  1  0
  3  4  1  0
  4  5  2  0
  5  6  1  0
  6  7  2  0
  7  8  1  0
  8  9  2  0
  8 10  1  0
 10 11  1  0
 11 12  1  0
 12 13  1  0
 13 14  1  0
 14 15  1  0
  7 16  1  0
 16 17  2  0
  2 18  1  0
 18 19  1  0
 19 20  2  0
 20 21  1  0
 21 22  2  0
 22 23  1  0
 23 24  1  0
 24 25  2  0
 24 26  2  0
 24 27  1  0
 27 28  1  0
 28 29  1  0
 29 30  1  0
 30 31  1  0
 31 32  1  0
 23 33  2  0
 33 34  1  0
 17  4  1  0
 33 19  1  0
 15 10  1  0
 32 27  1  0
  5 35  1  0
  6 36  1  0
 11 37  1  0
 11 38  1  0
 12 39  1  0
 12 40  1  0
 14 41  1  0
 14 42  1  0
 15 43  1  0
 15 44  1  0
 16 45  1  0
 17 46  1  0
 20 47  1  0
 21 48  1  0
 22 49  1  0
 28 50  1  0
 28 51  1  0
 29 52  1  0
 29 53  1  0
 30 54  1  0
 30 55  1  0
 31 56  1  0
 31 57  1  0
 32 58  1  0
 32 59  1  0
 34 60  1  0
M  CHG  2   3  -1  18  -1
M  END
>  <UniqueID>  (49) 
49

>  <SMILES>  (49) 
O=C([N-]c1ccc(C(=O)N2CCOCC2)cc1)[N-]c1cccc(S(=O)(=O)N2CCCCC2)c1O

>  <Energy>  (49) 
91.64554471869046

>  <Genealogy>  (49) 
O=C([N-]c1ccc(C(=O)N2CCOCC2)cc1)[N-]c1cccc(S(=O)(=O)N2CCCCC2)c1O (protonated)
O=C([N-]c1ccc(C(=O)N2CCOCC2)cc1)[N-]c1cccc(S(=O)(=O)N2CCCCC2)c1O (3D coordinates assigned)
O=C([N-]c1ccc(C(=O)N2CCOCC2)cc1)[N-]c1cccc(S(=O)(=O)N2CCCCC2)c1O (nonaromatic ring conformer: 91.64554471869046 kcal/mol)

>  <smiles>  (49) 
O=C(Nc1ccc(C(=O)N2CCOCC2)cc1)Nc1cccc(S(=O)(=O)N2CCCCC2)c1O

>  <score_type>  (49) 
oracle

>  <origin>  (49) 
adgpu

>  <m_score__min__energy>  (49) 
-14.26

>  <m_primary>  (49) 
energy

$$$$
