0:0
     RDKit          3D

 27 28  0  0  0  0  0  0  0  0999 V2000
   -1.4900   21.4470  -30.1740 C   0  0  0  0  0  0  0  0  0  0  0  0
   -2.3620   22.6650  -30.2820 C   0  0  0  0  0  0  0  0  0  0  0  0
   -2.0680   23.8170  -29.5390 C   0  0  0  0  0  0  0  0  0  0  0  0
   -2.8590   24.9150  -29.6380 N   0  0  0  0  0  0  0  0  0  0  0  0
   -3.9450   24.9220  -30.4520 C   0  0  0  0  0  0  0  0  0  0  0  0
   -4.6680   25.9490  -30.5270 O   0  0  0  0  0  0  0  0  0  0  0  0
   -4.2490   23.8240  -31.1880 N   0  0  0  0  0  0  0  0  0  0  0  0
   -3.4820   22.7040  -31.1340 C   0  0  0  0  0  0  0  0  0  0  0  0
   -3.9420   21.2980  -32.1580 S   0  0  0  0  0  0  0  0  0  0  0  0
   -5.6000   21.9400  -32.5810 C   0  0  0  0  0  0  0  0  0  0  0  0
   -6.6520   20.8800  -32.3920 C   0  0  0  0  0  0  0  0  0  0  0  0
   -7.9430   21.2260  -31.9580 C   0  0  0  0  0  0  0  0  0  0  0  0
   -8.9060   20.2340  -31.7550 C   0  0  0  0  0  0  0  0  0  0  0  0
   -8.5890   18.8920  -31.9830 C   0  0  0  0  0  0  0  0  0  0  0  0
   -9.5250   17.9300  -31.7840 F   0  0  0  0  0  0  0  0  0  0  0  0
   -7.3070   18.5400  -32.4130 C   0  0  0  0  0  0  0  0  0  0  0  0
   -6.3390   19.5300  -32.6170 C   0  0  0  0  0  0  0  0  0  0  0  0
   -1.3205   21.2103  -29.1132 H   0  0  0  0  0  0  0  0  0  0  0  0
   -1.9857   20.5965  -30.6648 H   0  0  0  0  0  0  0  0  0  0  0  0
   -0.5251   21.6421  -30.6648 H   0  0  0  0  0  0  0  0  0  0  0  0
   -1.1926   23.8308  -28.8731 H   0  0  0  0  0  0  0  0  0  0  0  0
   -5.8311   22.7965  -31.9306 H   0  0  0  0  0  0  0  0  0  0  0  0
   -5.5981   22.2483  -33.6369 H   0  0  0  0  0  0  0  0  0  0  0  0
   -8.1963   22.2811  -31.7775 H   0  0  0  0  0  0  0  0  0  0  0  0
   -9.9152   20.5098  -31.4152 H   0  0  0  0  0  0  0  0  0  0  0  0
   -7.0582   17.4835  -32.5914 H   0  0  0  0  0  0  0  0  0  0  0  0
   -5.3303   19.2496  -32.9545 H   0  0  0  0  0  0  0  0  0  0  0  0
  1  2  1  0
  2  3  1  0
  3  4  2  0
  4  5  1  0
  5  6  2  0
  5  7  1  0
  7  8  1  0
  8  9  1  0
  9 10  1  0
 10 11  1  0
 11 12  2  0
 12 13  1  0
 13 14  2  0
 14 15  1  0
 14 16  1  0
 16 17  2  0
  8  2  2  0
 17 11  1  0
  1 18  1  0
  1 19  1  0
  1 20  1  0
  3 21  1  0
 10 22  1  0
 10 23  1  0
 12 24  1  0
 13 25  1  0
 16 26  1  0
 17 27  1  0
M  CHG  1   7  -1
M  END
>  <UniqueID>  (1) 
1

>  <SMILES>  (1) 
Cc1cnc(=O)[n-]c1SCc1ccc(F)cc1

>  <Energy>  (1) 
23.939741697522376

>  <Genealogy>  (1) 
Cc1cnc(=O)[n-]c1SCc1ccc(F)cc1 (protonated)
Cc1cnc(=O)[n-]c1SCc1ccc(F)cc1 (3D coordinates assigned)
Cc1cnc(=O)[n-]c1SCc1ccc(F)cc1 (optimized conformer: 23.939741697522376 kcal/mol)

>  <smiles>  (1) 
Cc1cnc(=O)[nH]c1SCc1ccc(F)cc1

>  <score_type>  (1) 
oracle

>  <origin>  (1) 
adgpu

>  <m_score__min__energy>  (1) 
-7.9500000000000002

>  <m_primary>  (1) 
energy

$$$$
1:0
     RDKit          3D

 61 64  0  0  0  0  0  0  0  0999 V2000
   -4.0980   24.9720  -26.3270 C   0  0  0  0  0  0  0  0  0  0  0  0
   -4.1630   23.9770  -27.4860 C   0  0  0  0  0  0  0  0  0  0  0  0
   -3.3830   24.3870  -28.6670 N   0  0  0  0  0  0  0  0  0  0  0  0
   -4.0870   24.9380  -29.8400 C   0  0  0  0  0  0  0  0  0  0  0  0
   -4.8210   23.9030  -30.6490 C   0  0  0  0  0  0  0  0  0  0  0  0
   -4.2210   23.3280  -31.7250 N   0  0  0  0  0  0  0  0  0  0  0  0
   -4.8340   22.3590  -32.4510 C   0  0  0  0  0  0  0  0  0  0  0  0
   -4.2440   21.8650  -33.4480 O   0  0  0  0  0  0  0  0  0  0  0  0
   -6.1160   21.9210  -32.0820 C   0  0  0  0  0  0  0  0  0  0  0  0
   -6.8020   20.9140  -32.7830 C   0  0  0  0  0  0  0  0  0  0  0  0
   -8.0830   20.5290  -32.3780 C   0  0  0  0  0  0  0  0  0  0  0  0
   -8.6810   21.1340  -31.2690 C   0  0  0  0  0  0  0  0  0  0  0  0
   -7.9990   22.1240  -30.5540 C   0  0  0  0  0  0  0  0  0  0  0  0
   -6.7190   22.5220  -30.9560 C   0  0  0  0  0  0  0  0  0  0  0  0
   -6.0570   23.4880  -30.2670 N   0  0  0  0  0  0  0  0  0  0  0  0
   -1.8740   23.5460  -28.9450 S   0  0  0  0  0  0  0  0  0  0  0  0
   -1.3770   22.9820  -27.6430 O   0  0  0  0  0  0  0  0  0  0  0  0
   -0.8520   24.5310  -29.4410 O   0  0  0  0  0  0  0  0  0  0  0  0
   -2.0250   22.2190  -30.1010 C   0  0  0  0  0  0  0  0  0  0  0  0
   -3.0480   21.2700  -29.9600 C   0  0  0  0  0  0  0  0  0  0  0  0
   -3.1540   20.2070  -30.8590 C   0  0  0  0  0  0  0  0  0  0  0  0
   -2.2570   20.0990  -31.9290 C   0  0  0  0  0  0  0  0  0  0  0  0
   -2.3460   18.7280  -33.0310 S   0  0  0  0  0  0  0  0  0  0  0  0
   -1.7680   19.1080  -34.3670 O   0  0  0  0  0  0  0  0  0  0  0  0
   -1.5350   17.5960  -32.4630 O   0  0  0  0  0  0  0  0  0  0  0  0
   -4.0090   18.2290  -33.2170 N   0  0  0  0  0  0  0  0  0  0  0  0
   -4.1510   16.7900  -32.8880 C   0  0  0  0  0  0  0  0  0  0  0  0
   -5.2920   16.0960  -33.6650 C   0  0  0  0  0  0  0  0  0  0  0  0
   -6.4080   17.0100  -33.9750 N   0  0  0  0  0  0  0  0  0  0  0  0
   -7.2090   17.3280  -32.7800 C   0  0  0  0  0  0  0  0  0  0  0  0
   -5.9810   18.2210  -34.7160 C   0  0  0  0  0  0  0  0  0  0  0  0
   -4.4780   18.5330  -34.5780 C   0  0  0  0  0  0  0  0  0  0  0  0
   -1.2630   21.0700  -32.0990 C   0  0  0  0  0  0  0  0  0  0  0  0
   -1.1590   22.1340  -31.1980 C   0  0  0  0  0  0  0  0  0  0  0  0
   -4.1337   24.4261  -25.3727 H   0  0  0  0  0  0  0  0  0  0  0  0
   -3.1606   25.5443  -26.3872 H   0  0  0  0  0  0  0  0  0  0  0  0
   -4.9530   25.6614  -26.3872 H   0  0  0  0  0  0  0  0  0  0  0  0
   -3.7764   23.0091  -27.1341 H   0  0  0  0  0  0  0  0  0  0  0  0
   -5.2154   23.9209  -27.8011 H   0  0  0  0  0  0  0  0  0  0  0  0
   -4.8150   25.6840  -29.4887 H   0  0  0  0  0  0  0  0  0  0  0  0
   -3.3209   25.3747  -30.4976 H   0  0  0  0  0  0  0  0  0  0  0  0
   -6.3305   20.4290  -33.6504 H   0  0  0  0  0  0  0  0  0  0  0  0
   -8.6222   19.7476  -32.9336 H   0  0  0  0  0  0  0  0  0  0  0  0
   -9.6914   20.8306  -30.9574 H   0  0  0  0  0  0  0  0  0  0  0  0
   -8.4690   22.5899  -29.6753 H   0  0  0  0  0  0  0  0  0  0  0  0
   -3.7711   21.3637  -29.1363 H   0  0  0  0  0  0  0  0  0  0  0  0
   -3.9437   19.4528  -30.7265 H   0  0  0  0  0  0  0  0  0  0  0  0
   -4.5670   18.7970  -32.5370 H   0  0  0  0  0  0  0  0  0  0  0  0
   -3.2054   16.2818  -33.1281 H   0  0  0  0  0  0  0  0  0  0  0  0
   -4.3971   16.7228  -31.8180 H   0  0  0  0  0  0  0  0  0  0  0  0
   -4.8866   15.7028  -34.6090 H   0  0  0  0  0  0  0  0  0  0  0  0
   -5.6881   15.2927  -33.0264 H   0  0  0  0  0  0  0  0  0  0  0  0
   -6.6265   17.0968  -31.8760 H   0  0  0  0  0  0  0  0  0  0  0  0
   -7.4678   18.3971  -32.7859 H   0  0  0  0  0  0  0  0  0  0  0  0
   -8.1307   16.7276  -32.7859 H   0  0  0  0  0  0  0  0  0  0  0  0
   -6.2089   18.0744  -35.7821 H   0  0  0  0  0  0  0  0  0  0  0  0
   -6.5274   19.0722  -34.2836 H   0  0  0  0  0  0  0  0  0  0  0  0
   -3.9144   17.9230  -35.2993 H   0  0  0  0  0  0  0  0  0  0  0  0
   -4.3180   19.6028  -34.7776 H   0  0  0  0  0  0  0  0  0  0  0  0
   -0.5621   20.9957  -32.9435 H   0  0  0  0  0  0  0  0  0  0  0  0
   -0.3929   22.9083  -31.3517 H   0  0  0  0  0  0  0  0  0  0  0  0
  1  2  1  0
  2  3  1  0
  3  4  1  0
  4  5  1  0
  5  6  2  0
  6  7  1  0
  7  8  2  0
  7  9  1  0
  9 10  2  0
 10 11  1  0
 11 12  2  0
 12 13  1  0
 13 14  2  0
 14 15  1  0
  3 16  1  0
 16 17  2  0
 16 18  2  0
 16 19  1  0
 19 20  2  0
 20 21  1  0
 21 22  2  0
 22 23  1  0
 23 24  2  0
 23 25  2  0
 23 26  1  0
 26 27  1  0
 27 28  1  0
 28 29  1  0
 29 30  1  0
 29 31  1  0
 31 32  1  0
 22 33  1  0
 33 34  2  0
 15  5  1  0
 34 19  1  0
 14  9  1  0
 32 26  1  0
  1 35  1  0
  1 36  1  0
  1 37  1  0
  2 38  1  0
  2 39  1  0
  4 40  1  0
  4 41  1  0
 10 42  1  0
 11 43  1  0
 12 44  1  0
 13 45  1  0
 20 46  1  0
 21 47  1  0
 26 48  1  0
 27 49  1  0
 27 50  1  0
 28 51  1  0
 28 52  1  0
 30 53  1  0
 30 54  1  0
 30 55  1  0
 31 56  1  0
 31 57  1  0
 32 58  1  0
 32 59  1  0
 33 60  1  0
 34 61  1  0
M  CHG  2  15  -1  26   1
M  END
>  <UniqueID>  (2) 
2

>  <SMILES>  (2) 
CCN(Cc1nc(=O)c2ccccc2[n-]1)S(=O)(=O)c1ccc(S(=O)(=O)[NH+]2CCN(C)CC2)cc1

>  <Energy>  (2) 
81.75161532614808

>  <Genealogy>  (2) 
CCN(Cc1nc(=O)c2ccccc2[n-]1)S(=O)(=O)c1ccc(S(=O)(=O)[NH+]2CCN(C)CC2)cc1 (protonated)
CCN(Cc1nc(=O)c2ccccc2[n-]1)S(=O)(=O)c1ccc(S(=O)(=O)[NH+]2CCN(C)CC2)cc1 (3D coordinates assigned)
CCN(Cc1nc(=O)c2ccccc2[n-]1)S(=O)(=O)c1ccc(S(=O)(=O)[NH+]2CCN(C)CC2)cc1 (nonaromatic ring conformer: 81.75161532614808 kcal/mol)

>  <smiles>  (2) 
CCN(Cc1nc(=O)c2ccccc2[nH]1)S(=O)(=O)c1ccc(S(=O)(=O)N2CCN(C)CC2)cc1

>  <score_type>  (2) 
oracle

>  <origin>  (2) 
adgpu

>  <m_score__min__energy>  (2) 
-10.789999999999999

>  <m_primary>  (2) 
energy

$$$$
2:0
     RDKit          3D

 44 46  0  0  0  0  0  0  0  0999 V2000
   -7.4349   15.7599  -34.4929 H   0  0  0  0  0  0  0  0  0  0  0  0
   -6.3750   15.8160  -34.2040 C   0  0  0  0  0  0  0  0  0  0  0  0
   -5.6640   16.9490  -34.4440 N   0  0  0  0  0  0  0  0  0  0  0  0
   -4.3510   17.0670  -34.1010 C   0  0  0  0  0  0  0  0  0  0  0  0
   -3.6450   18.2440  -34.3880 O   0  0  0  0  0  0  0  0  0  0  0  0
   -3.7820   19.4600  -33.7030 C   0  0  0  0  0  0  0  0  0  0  0  0
   -2.7440   20.4070  -33.6390 C   0  0  0  0  0  0  0  0  0  0  0  0
   -1.7826   20.1994  -34.1315 H   0  0  0  0  0  0  0  0  0  0  0  0
   -2.9280   21.6100  -32.9530 C   0  0  0  0  0  0  0  0  0  0  0  0
   -2.1149   22.3500  -32.9176 H   0  0  0  0  0  0  0  0  0  0  0  0
   -4.1470   21.8790  -32.3080 C   0  0  0  0  0  0  0  0  0  0  0  0
   -4.3820   23.1230  -31.6320 N   0  0  0  0  0  0  0  0  0  0  0  0
   -3.5850   23.7080  -30.7830 C   0  0  0  0  0  0  0  0  0  0  0  0
   -2.4100   23.2020  -30.2520 C   0  0  0  0  0  0  0  0  0  0  0  0
   -1.9154   22.2467  -30.4815 H   0  0  0  0  0  0  0  0  0  0  0  0
   -2.0060   24.1840  -29.3640 C   0  0  0  0  0  0  0  0  0  0  0  0
   -0.8280   24.0980  -28.4520 C   0  0  0  0  0  0  0  0  0  0  0  0
   -1.1707   24.1230  -27.4070 H   0  0  0  0  0  0  0  0  0  0  0  0
   -0.2879   23.1580  -28.6383 H   0  0  0  0  0  0  0  0  0  0  0  0
   -0.1571   24.9496  -28.6383 H   0  0  0  0  0  0  0  0  0  0  0  0
   -2.8980   25.1960  -29.3450 N   0  0  0  0  0  0  0  0  0  0  0  0
   -3.8460   24.9040  -30.2210 N   0  0  0  0  0  0  0  0  0  0  0  0
   -5.0240   25.7330  -30.4460 C   0  0  0  0  0  0  0  0  0  0  0  0
   -5.4512   26.0336  -29.4779 H   0  0  0  0  0  0  0  0  0  0  0  0
   -4.7379   26.6299  -31.0149 H   0  0  0  0  0  0  0  0  0  0  0  0
   -5.7717   25.1609  -31.0149 H   0  0  0  0  0  0  0  0  0  0  0  0
   -5.1960   20.9590  -32.4190 C   0  0  0  0  0  0  0  0  0  0  0  0
   -6.1710   21.1845  -31.9624 H   0  0  0  0  0  0  0  0  0  0  0  0
   -5.0130   19.7560  -33.1060 C   0  0  0  0  0  0  0  0  0  0  0  0
   -5.8420   19.0366  -33.1782 H   0  0  0  0  0  0  0  0  0  0  0  0
   -3.6840   15.9830  -33.4960 C   0  0  0  0  0  0  0  0  0  0  0  0
   -2.2940   16.1050  -33.1380 N   0  0  0  0  0  0  0  0  0  0  0  0
   -1.8020   17.0120  -33.2960 H   0  0  0  0  0  0  0  0  0  0  0  0
   -1.3120   14.7860  -32.5810 S   0  0  0  0  0  0  0  0  0  0  0  0
   -2.1270   13.8640  -31.7200 O   0  0  0  0  0  0  0  0  0  0  0  0
   -0.1780   15.3370  -31.7630 O   0  0  0  0  0  0  0  0  0  0  0  0
   -0.6260   13.9020  -33.9670 C   0  0  0  0  0  0  0  0  0  0  0  0
    0.0099   13.0825  -33.6008 H   0  0  0  0  0  0  0  0  0  0  0  0
   -1.4417   13.4882  -34.5780 H   0  0  0  0  0  0  0  0  0  0  0  0
   -0.0226   14.5894  -34.5780 H   0  0  0  0  0  0  0  0  0  0  0  0
   -4.4150   14.8100  -33.2370 C   0  0  0  0  0  0  0  0  0  0  0  0
   -3.9226   13.9543  -32.7519 H   0  0  0  0  0  0  0  0  0  0  0  0
   -5.7610   14.7260  -33.5920 C   0  0  0  0  0  0  0  0  0  0  0  0
   -6.3322   13.8078  -33.3906 H   0  0  0  0  0  0  0  0  0  0  0  0
  1  2  1  0
  2  3  2  0
  3  4  1  0
  4  5  1  0
  5  6  1  0
  6  7  2  0
  7  8  1  0
  7  9  1  0
  9 10  1  0
  9 11  2  0
 11 12  1  0
 12 13  2  0
 13 14  1  0
 14 15  1  0
 14 16  2  0
 16 17  1  0
 17 18  1  0
 17 19  1  0
 17 20  1  0
 16 21  1  0
 21 22  1  0
 22 23  1  0
 23 24  1  0
 23 25  1  0
 23 26  1  0
 11 27  1  0
 27 28  1  0
 27 29  2  0
 29 30  1  0
  4 31  2  0
 31 32  1  0
 32 33  1  0
 32 34  1  0
 34 35  2  0
 34 36  2  0
 34 37  1  0
 37 38  1  0
 37 39  1  0
 37 40  1  0
 31 41  1  0
 41 42  1  0
 41 43  2  0
 43 44  1  0
 43  2  1  0
 29  6  1  0
 22 13  1  0
M  CHG  1  21  -1
M  END
>  <UniqueID>  (3) 
3

>  <SMILES>  (3) 
Cc1c/c(=N\c2ccc(Oc3ncccc3NS(C)(=O)=O)cc2)n(C)[n-]1

>  <Energy>  (3) 
87.00383452067155

>  <Genealogy>  (3) 
Cc1cc(=Nc2ccc(Oc3ncccc3NS(C)(=O)=O)cc2)n(C)[n-]1 (protonated)
Cc1c/c(=N\c2ccc(Oc3ncccc3NS(C)(=O)=O)cc2)n(C)[n-]1 (cis-trans isomerization)
Cc1c/c(=N\c2ccc(Oc3ncccc3NS(C)(=O)=O)cc2)n(C)[n-]1 (3D coordinates assigned)
Cc1c/c(=N\c2ccc(Oc3ncccc3NS(C)(=O)=O)cc2)n(C)[n-]1 (optimized conformer: 87.00383452067155 kcal/mol)

>  <smiles>  (3) 
Cc1cc(=Nc2ccc(Oc3ncccc3NS(C)(=O)=O)cc2)n(C)[nH]1

>  <score_type>  (3) 
oracle

>  <origin>  (3) 
adgpu

>  <m_score__min__energy>  (3) 
-9.0099999999999998

>  <m_primary>  (3) 
energy

$$$$
3:0
     RDKit          3D

 53 56  0  0  0  0  0  0  0  0999 V2000
   -4.1980   24.2790  -28.0410 C   0  0  0  0  0  0  0  0  0  0  0  0
   -4.8440   24.2840  -29.3850 C   0  0  0  0  0  0  0  0  0  0  0  0
   -5.7090   23.3270  -29.8730 C   0  0  0  0  0  0  0  0  0  0  0  0
   -6.0190   23.8090  -31.1330 C   0  0  0  0  0  0  0  0  0  0  0  0
   -6.8260   23.2720  -31.9980 N   0  0  0  0  0  0  0  0  0  0  0  0
   -7.7070   21.7930  -31.7630 S   0  0  0  0  0  0  0  0  0  0  0  0
   -8.9300   21.8120  -32.6350 O   0  0  0  0  0  0  0  0  0  0  0  0
   -8.1550   21.6800  -30.3320 O   0  0  0  0  0  0  0  0  0  0  0  0
   -6.7010   20.4200  -32.2160 C   0  0  0  0  0  0  0  0  0  0  0  0
   -6.8730   19.1740  -31.6000 C   0  0  0  0  0  0  0  0  0  0  0  0
   -6.0350   18.1040  -31.9280 C   0  0  0  0  0  0  0  0  0  0  0  0
   -5.0110   18.2710  -32.8760 C   0  0  0  0  0  0  0  0  0  0  0  0
   -4.0970   17.2160  -33.2000 N   0  0  0  0  0  0  0  0  0  0  0  0
   -2.3750   17.3930  -33.3400 S   0  0  0  0  0  0  0  0  0  0  0  0
   -1.9730   16.9730  -34.7250 O   0  0  0  0  0  0  0  0  0  0  0  0
   -1.6590   16.5130  -32.3540 O   0  0  0  0  0  0  0  0  0  0  0  0
   -1.9330   19.0840  -33.0850 C   0  0  0  0  0  0  0  0  0  0  0  0
   -1.6500   19.9220  -34.1710 C   0  0  0  0  0  0  0  0  0  0  0  0
   -1.3420   21.2680  -33.9570 C   0  0  0  0  0  0  0  0  0  0  0  0
   -1.3280   21.7910  -32.6610 C   0  0  0  0  0  0  0  0  0  0  0  0
   -1.6150   20.9640  -31.5600 C   0  0  0  0  0  0  0  0  0  0  0  0
   -1.6250   21.5040  -30.1800 C   0  0  0  0  0  0  0  0  0  0  0  0
   -1.9870   20.7580  -29.2280 O   0  0  0  0  0  0  0  0  0  0  0  0
   -1.2820   22.8760  -29.9220 N   0  0  0  0  0  0  0  0  0  0  0  0
   -1.1300   23.4000  -28.5940 C   0  0  0  0  0  0  0  0  0  0  0  0
   -0.8670   22.5200  -27.5340 C   0  0  0  0  0  0  0  0  0  0  0  0
   -0.7090   23.0070  -26.2330 C   0  0  0  0  0  0  0  0  0  0  0  0
   -0.8300   24.3740  -25.9780 C   0  0  0  0  0  0  0  0  0  0  0  0
   -1.1220   25.2560  -27.0220 C   0  0  0  0  0  0  0  0  0  0  0  0
   -1.2810   24.7760  -28.3280 C   0  0  0  0  0  0  0  0  0  0  0  0
   -1.6100   25.6660  -29.3440 O   0  0  0  0  0  0  0  0  0  0  0  0
   -1.8920   19.6050  -31.7840 C   0  0  0  0  0  0  0  0  0  0  0  0
   -4.8770   19.5020  -33.5270 C   0  0  0  0  0  0  0  0  0  0  0  0
   -5.7050   20.5770  -33.1880 C   0  0  0  0  0  0  0  0  0  0  0  0
   -5.3670   24.9630  -31.3670 N   0  0  0  0  0  0  0  0  0  0  0  0
   -4.6710   25.2170  -30.2950 O   0  0  0  0  0  0  0  0  0  0  0  0
   -4.9738   24.2850  -27.2612 H   0  0  0  0  0  0  0  0  0  0  0  0
   -3.5788   23.3760  -27.9352 H   0  0  0  0  0  0  0  0  0  0  0  0
   -3.5649   25.1723  -27.9352 H   0  0  0  0  0  0  0  0  0  0  0  0
   -6.0643   22.4087  -29.3826 H   0  0  0  0  0  0  0  0  0  0  0  0
   -7.6707   19.0367  -30.8551 H   0  0  0  0  0  0  0  0  0  0  0  0
   -6.1777   17.1275  -31.4421 H   0  0  0  0  0  0  0  0  0  0  0  0
   -1.6703   19.5196  -35.1946 H   0  0  0  0  0  0  0  0  0  0  0  0
   -1.1095   21.9191  -34.8126 H   0  0  0  0  0  0  0  0  0  0  0  0
   -1.0916   22.8534  -32.5014 H   0  0  0  0  0  0  0  0  0  0  0  0
   -1.3600   23.5610  -30.7060 H   0  0  0  0  0  0  0  0  0  0  0  0
   -0.7846   21.4403  -27.7274 H   0  0  0  0  0  0  0  0  0  0  0  0
   -0.4890   22.3120  -25.4093 H   0  0  0  0  0  0  0  0  0  0  0  0
   -0.6956   24.7569  -24.9556 H   0  0  0  0  0  0  0  0  0  0  0  0
   -1.2274   26.3316  -26.8171 H   0  0  0  0  0  0  0  0  0  0  0  0
   -2.0792   18.9409  -30.9273 H   0  0  0  0  0  0  0  0  0  0  0  0
   -4.1152   19.6253  -34.3109 H   0  0  0  0  0  0  0  0  0  0  0  0
   -5.5735   21.5488  -33.6863 H   0  0  0  0  0  0  0  0  0  0  0  0
  1  2  1  0
  2  3  2  0
  3  4  1  0
  4  5  2  3
  5  6  1  0
  6  7  2  0
  6  8  2  0
  6  9  1  0
  9 10  2  0
 10 11  1  0
 11 12  2  0
 12 13  1  0
 13 14  1  0
 14 15  2  0
 14 16  2  0
 14 17  1  0
 17 18  2  0
 18 19  1  0
 19 20  2  0
 20 21  1  0
 21 22  1  0
 22 23  2  0
 22 24  1  0
 24 25  1  0
 25 26  2  0
 26 27  1  0
 27 28  2  0
 28 29  1  0
 29 30  2  0
 30 31  1  0
 21 32  2  0
 12 33  1  0
 33 34  2  0
  4 35  1  0
 35 36  1  0
 36  2  1  0
 34  9  1  0
 32 17  1  0
 30 25  1  0
  1 37  1  0
  1 38  1  0
  1 39  1  0
  3 40  1  0
 10 41  1  0
 11 42  1  0
 18 43  1  0
 19 44  1  0
 20 45  1  0
 24 46  1  0
 26 47  1  0
 27 48  1  0
 28 49  1  0
 29 50  1  0
 32 51  1  0
 33 52  1  0
 34 53  1  0
M  CHG  3  13  -1  31  -1  35  -1
M  END
>  <UniqueID>  (4) 
4

>  <SMILES>  (4) 
Cc1cc(=NS(=O)(=O)c2ccc([N-]S(=O)(=O)c3cccc(C(=O)Nc4ccccc4[O-])c3)cc2)[n-]o1

>  <Energy>  (4) 
100.7262315266969

>  <Genealogy>  (4) 
Cc1cc(=NS(=O)(=O)c2ccc([N-]S(=O)(=O)c3cccc(C(=O)Nc4ccccc4[O-])c3)cc2)[n-]o1 (protonated)
Cc1cc(=NS(=O)(=O)c2ccc([N-]S(=O)(=O)c3cccc(C(=O)Nc4ccccc4[O-])c3)cc2)[n-]o1 (3D coordinates assigned)
Cc1cc(=NS(=O)(=O)c2ccc([N-]S(=O)(=O)c3cccc(C(=O)Nc4ccccc4[O-])c3)cc2)[n-]o1 (optimized conformer: 100.7262315266969 kcal/mol)

>  <smiles>  (4) 
Cc1cc(=NS(=O)(=O)c2ccc(NS(=O)(=O)c3cccc(C(=O)Nc4ccccc4O)c3)cc2)[nH]o1

>  <score_type>  (4) 
oracle

>  <origin>  (4) 
adgpu

>  <m_score__min__energy>  (4) 
-14.06

>  <m_primary>  (4) 
energy

$$$$
4:0
     RDKit          3D

 44 46  0  0  0  0  0  0  0  0999 V2000
   -4.1920   15.2540  -32.1850 O   0  0  0  0  0  0  0  0  0  0  0  0
   -3.8600   16.2910  -33.2220 S   0  0  0  0  0  0  0  0  0  0  0  0
   -3.9230   15.6460  -34.5790 O   0  0  0  0  0  0  0  0  0  0  0  0
   -2.2560   16.8880  -32.9530 N   0  0  0  0  0  0  0  0  0  0  0  0
   -1.7590   18.1600  -33.3900 C   0  0  0  0  0  0  0  0  0  0  0  0
   -0.7660   18.2780  -34.3790 C   0  0  0  0  0  0  0  0  0  0  0  0
   -0.3150   19.5410  -34.7770 C   0  0  0  0  0  0  0  0  0  0  0  0
   -0.8490   20.6950  -34.1970 C   0  0  0  0  0  0  0  0  0  0  0  0
   -0.3920   21.9450  -34.6070 O   0  0  0  0  0  0  0  0  0  0  0  0
   -1.8340   20.5830  -33.2080 C   0  0  0  0  0  0  0  0  0  0  0  0
   -2.2860   19.3220  -32.8090 C   0  0  0  0  0  0  0  0  0  0  0  0
   -5.0070   17.6250  -33.1760 C   0  0  0  0  0  0  0  0  0  0  0  0
   -5.3440   18.2850  -34.3640 C   0  0  0  0  0  0  0  0  0  0  0  0
   -6.2620   19.3400  -34.3480 C   0  0  0  0  0  0  0  0  0  0  0  0
   -6.8530   19.7460  -33.1380 C   0  0  0  0  0  0  0  0  0  0  0  0
   -7.8200   20.8040  -33.0800 N   0  0  0  0  0  0  0  0  0  0  0  0
   -8.1680   21.7560  -31.6710 S   0  0  0  0  0  0  0  0  0  0  0  0
   -9.3590   22.6270  -31.9470 O   0  0  0  0  0  0  0  0  0  0  0  0
   -8.4830   20.8380  -30.5250 O   0  0  0  0  0  0  0  0  0  0  0  0
   -6.7910   22.7850  -31.2840 C   0  0  0  0  0  0  0  0  0  0  0  0
   -6.9390   24.1770  -31.2780 C   0  0  0  0  0  0  0  0  0  0  0  0
   -5.8460   24.9980  -31.0030 C   0  0  0  0  0  0  0  0  0  0  0  0
   -4.5960   24.4380  -30.7230 C   0  0  0  0  0  0  0  0  0  0  0  0
   -3.5200   25.2800  -30.4670 O   0  0  0  0  0  0  0  0  0  0  0  0
   -4.4330   23.0380  -30.7040 C   0  0  0  0  0  0  0  0  0  0  0  0
   -3.0780   22.4380  -30.4110 C   0  0  0  0  0  0  0  0  0  0  0  0
   -2.2180   22.6910  -31.4650 F   0  0  0  0  0  0  0  0  0  0  0  0
   -3.2060   21.0710  -30.2500 F   0  0  0  0  0  0  0  0  0  0  0  0
   -2.5190   22.9680  -29.2590 F   0  0  0  0  0  0  0  0  0  0  0  0
   -5.5420   22.2190  -30.9950 C   0  0  0  0  0  0  0  0  0  0  0  0
   -6.4990   19.0930  -31.9500 C   0  0  0  0  0  0  0  0  0  0  0  0
   -5.5840   18.0360  -31.9680 C   0  0  0  0  0  0  0  0  0  0  0  0
   -0.3425   17.3741  -34.8411 H   0  0  0  0  0  0  0  0  0  0  0  0
    0.4632   19.6262  -35.5497 H   0  0  0  0  0  0  0  0  0  0  0  0
   -0.9660   22.5610  -35.1700 H   0  0  0  0  0  0  0  0  0  0  0  0
   -2.2526   21.4885  -32.7445 H   0  0  0  0  0  0  0  0  0  0  0  0
   -3.0614   19.2407  -32.0330 H   0  0  0  0  0  0  0  0  0  0  0  0
   -4.8850   17.9725  -35.3135 H   0  0  0  0  0  0  0  0  0  0  0  0
   -6.5227   19.8540  -35.2849 H   0  0  0  0  0  0  0  0  0  0  0  0
   -7.9209   24.6247  -31.4910 H   0  0  0  0  0  0  0  0  0  0  0  0
   -5.9678   26.0912  -31.0064 H   0  0  0  0  0  0  0  0  0  0  0  0
   -5.4263   21.1251  -30.9953 H   0  0  0  0  0  0  0  0  0  0  0  0
   -6.9440   19.4141  -30.9967 H   0  0  0  0  0  0  0  0  0  0  0  0
   -5.3166   17.5259  -31.0308 H   0  0  0  0  0  0  0  0  0  0  0  0
  1  2  2  0
  2  3  2  0
  2  4  1  0
  4  5  1  0
  5  6  2  0
  6  7  1  0
  7  8  2  0
  8  9  1  0
  8 10  1  0
 10 11  2  0
  2 12  1  0
 12 13  2  0
 13 14  1  0
 14 15  2  0
 15 16  1  0
 16 17  1  0
 17 18  2  0
 17 19  2  0
 17 20  1  0
 20 21  2  0
 21 22  1  0
 22 23  2  0
 23 24  1  0
 23 25  1  0
 25 26  1  0
 26 27  1  0
 26 28  1  0
 26 29  1  0
 25 30  2  0
 15 31  1  0
 31 32  2  0
 11  5  1  0
 32 12  1  0
 30 20  1  0
  6 33  1  0
  7 34  1  0
  9 35  1  0
 10 36  1  0
 11 37  1  0
 13 38  1  0
 14 39  1  0
 21 40  1  0
 22 41  1  0
 30 42  1  0
 31 43  1  0
 32 44  1  0
M  CHG  3   4  -1  16  -1  24  -1
M  END
>  <UniqueID>  (5) 
5

>  <SMILES>  (5) 
O=S(=O)([N-]c1ccc(O)cc1)c1ccc([N-]S(=O)(=O)c2ccc([O-])c(C(F)(F)F)c2)cc1

>  <Energy>  (5) 
54.24926571608015

>  <Genealogy>  (5) 
O=S(=O)([N-]c1ccc(O)cc1)c1ccc([N-]S(=O)(=O)c2ccc([O-])c(C(F)(F)F)c2)cc1 (protonated)
O=S(=O)([N-]c1ccc(O)cc1)c1ccc([N-]S(=O)(=O)c2ccc([O-])c(C(F)(F)F)c2)cc1 (3D coordinates assigned)
O=S(=O)([N-]c1ccc(O)cc1)c1ccc([N-]S(=O)(=O)c2ccc([O-])c(C(F)(F)F)c2)cc1 (optimized conformer: 54.24926571608015 kcal/mol)

>  <smiles>  (5) 
O=S(=O)(Nc1ccc(O)cc1)c1ccc(NS(=O)(=O)c2ccc(O)c(C(F)(F)F)c2)cc1

>  <score_type>  (5) 
oracle

>  <origin>  (5) 
adgpu

>  <m_score__min__energy>  (5) 
-11.34

>  <m_primary>  (5) 
energy

$$$$
5:0
     RDKit          3D

 28 30  0  0  0  0  0  0  0  0999 V2000
   -6.3540   19.6950  -33.6600 O   0  0  0  0  0  0  0  0  0  0  0  0
   -6.6630   20.7260  -32.7820 C   0  0  0  0  0  0  0  0  0  0  0  0
   -5.6320   21.4710  -32.1980 C   0  0  0  0  0  0  0  0  0  0  0  0
   -5.9280   22.5190  -31.3060 C   0  0  0  0  0  0  0  0  0  0  0  0
   -4.8400   23.3070  -30.6900 C   0  0  0  0  0  0  0  0  0  0  0  0
   -4.5100   24.5580  -31.0680 N   0  0  0  0  0  0  0  0  0  0  0  0
   -3.5220   24.8930  -30.2950 O   0  0  0  0  0  0  0  0  0  0  0  0
   -3.2450   23.9080  -29.4750 C   0  0  0  0  0  0  0  0  0  0  0  0
   -2.1700   23.9550  -28.4570 C   0  0  0  0  0  0  0  0  0  0  0  0
   -2.0820   22.9250  -27.5030 C   0  0  0  0  0  0  0  0  0  0  0  0
   -1.0790   22.9410  -26.5300 C   0  0  0  0  0  0  0  0  0  0  0  0
   -0.1530   23.9840  -26.4950 C   0  0  0  0  0  0  0  0  0  0  0  0
   -0.2270   25.0140  -27.4350 C   0  0  0  0  0  0  0  0  0  0  0  0
   -1.2270   25.0080  -28.4140 C   0  0  0  0  0  0  0  0  0  0  0  0
   -1.2710   26.0500  -29.3330 O   0  0  0  0  0  0  0  0  0  0  0  0
   -4.0620   22.8560  -29.6820 N   0  0  0  0  0  0  0  0  0  0  0  0
   -7.2720   22.8050  -31.0090 C   0  0  0  0  0  0  0  0  0  0  0  0
   -8.3000   22.0580  -31.5940 C   0  0  0  0  0  0  0  0  0  0  0  0
   -7.9980   21.0170  -32.4800 C   0  0  0  0  0  0  0  0  0  0  0  0
   -9.0190   20.2700  -33.0660 O   0  0  0  0  0  0  0  0  0  0  0  0
   -4.5844   21.2362  -32.4375 H   0  0  0  0  0  0  0  0  0  0  0  0
   -2.8090   22.0998  -27.5230 H   0  0  0  0  0  0  0  0  0  0  0  0
   -1.0195   22.1293  -25.7900 H   0  0  0  0  0  0  0  0  0  0  0  0
    0.6349   23.9950  -25.7274 H   0  0  0  0  0  0  0  0  0  0  0  0
    0.5048   25.8347  -27.4058 H   0  0  0  0  0  0  0  0  0  0  0  0
   -7.5167   23.6207  -30.3127 H   0  0  0  0  0  0  0  0  0  0  0  0
   -9.3490   22.2893  -31.3571 H   0  0  0  0  0  0  0  0  0  0  0  0
   -8.8350   19.6230  -33.8240 H   0  0  0  0  0  0  0  0  0  0  0  0
  1  2  1  0
  2  3  2  0
  3  4  1  0
  4  5  1  0
  5  6  2  0
  6  7  1  0
  7  8  1  0
  8  9  1  0
  9 10  2  0
 10 11  1  0
 11 12  2  0
 12 13  1  0
 13 14  2  0
 14 15  1  0
  8 16  2  0
  4 17  2  0
 17 18  1  0
 18 19  2  0
 19 20  1  0
 19  2  1  0
 16  5  1  0
 14  9  1  0
  3 21  1  0
 10 22  1  0
 11 23  1  0
 12 24  1  0
 13 25  1  0
 17 26  1  0
 18 27  1  0
 20 28  1  0
M  CHG  2   1  -1  15  -1
M  END
>  <UniqueID>  (6) 
6

>  <SMILES>  (6) 
[O-]c1cc(-c2noc(-c3ccccc3[O-])n2)ccc1O

>  <Energy>  (6) 
66.11967711090958

>  <Genealogy>  (6) 
[O-]c1cc(-c2noc(-c3ccccc3[O-])n2)ccc1O (protonated)
[O-]c1cc(-c2noc(-c3ccccc3[O-])n2)ccc1O (3D coordinates assigned)
[O-]c1cc(-c2noc(-c3ccccc3[O-])n2)ccc1O (optimized conformer: 66.11967711090958 kcal/mol)

>  <smiles>  (6) 
Oc1ccc(-c2noc(-c3ccccc3O)n2)cc1O

>  <score_type>  (6) 
oracle

>  <origin>  (6) 
adgpu

>  <m_score__min__energy>  (6) 
-10.91

>  <m_primary>  (6) 
energy

$$$$
6:0
     RDKit          3D

 29 31  0  0  0  0  0  0  0  0999 V2000
   -1.3860   25.4910  -27.6820 C   0  0  0  0  0  0  0  0  0  0  0  0
   -1.9880   25.6680  -28.9590 O   0  0  0  0  0  0  0  0  0  0  0  0
   -3.0010   24.8340  -29.4400 C   0  0  0  0  0  0  0  0  0  0  0  0
   -3.0920   23.5230  -28.9690 C   0  0  0  0  0  0  0  0  0  0  0  0
   -4.1030   22.6890  -29.4480 C   0  0  0  0  0  0  0  0  0  0  0  0
   -5.0150   23.1600  -30.4060 C   0  0  0  0  0  0  0  0  0  0  0  0
   -6.0660   22.3040  -30.8980 N   0  0  0  0  0  0  0  0  0  0  0  0
   -7.5000   22.4960  -30.6340 C   0  0  0  0  0  0  0  0  0  0  0  0
   -8.1530   21.4290  -31.4630 C   0  0  0  0  0  0  0  0  0  0  0  0
   -9.5060   21.1450  -31.6090 C   0  0  0  0  0  0  0  0  0  0  0  0
   -9.8650   20.1020  -32.4130 N   0  0  0  0  0  0  0  0  0  0  0  0
   -8.9530   19.3550  -33.0530 N   0  0  0  0  0  0  0  0  0  0  0  0
   -7.6170   19.6060  -32.9270 C   0  0  0  0  0  0  0  0  0  0  0  0
   -6.7680   18.8970  -33.5320 O   0  0  0  0  0  0  0  0  0  0  0  0
   -7.2240   20.6650  -32.1170 C   0  0  0  0  0  0  0  0  0  0  0  0
   -5.9220   21.1820  -31.7720 C   0  0  0  0  0  0  0  0  0  0  0  0
   -4.8210   20.6840  -32.1280 O   0  0  0  0  0  0  0  0  0  0  0  0
   -4.8940   24.4900  -30.8420 C   0  0  0  0  0  0  0  0  0  0  0  0
   -3.9020   25.2840  -30.3570 N   0  0  0  0  0  0  0  0  0  0  0  0
   -2.1239   25.7079  -26.8956 H   0  0  0  0  0  0  0  0  0  0  0  0
   -1.0377   24.4524  -27.5816 H   0  0  0  0  0  0  0  0  0  0  0  0
   -0.5310   26.1758  -27.5816 H   0  0  0  0  0  0  0  0  0  0  0  0
   -2.3720   23.1501  -28.2257 H   0  0  0  0  0  0  0  0  0  0  0  0
   -4.1858   21.6581  -29.0734 H   0  0  0  0  0  0  0  0  0  0  0  0
   -7.7255   22.3578  -29.5663 H   0  0  0  0  0  0  0  0  0  0  0  0
   -7.8506   23.5083  -30.8839 H   0  0  0  0  0  0  0  0  0  0  0  0
  -10.2677   21.7454  -31.0900 H   0  0  0  0  0  0  0  0  0  0  0  0
   -9.2780   18.5660  -33.6560 H   0  0  0  0  0  0  0  0  0  0  0  0
   -5.6050   24.8911  -31.5792 H   0  0  0  0  0  0  0  0  0  0  0  0
  1  2  1  0
  2  3  1  0
  3  4  2  0
  4  5  1  0
  5  6  2  0
  6  7  1  0
  7  8  1  0
  8  9  1  0
  9 10  1  0
 10 11  2  0
 11 12  1  0
 12 13  1  0
 13 14  2  0
 13 15  1  0
 15 16  1  0
 16 17  2  0
  6 18  1  0
 18 19  2  0
 19  3  1  0
 16  7  1  0
 15  9  2  0
  1 20  1  0
  1 21  1  0
  1 22  1  0
  4 23  1  0
  5 24  1  0
  8 25  1  0
  8 26  1  0
 10 27  1  0
 12 28  1  0
 18 29  1  0
M  END
>  <UniqueID>  (7) 
7

>  <SMILES>  (7) 
COc1ccc(N2Cc3cn[nH]c(=O)c3C2=O)cn1

>  <Energy>  (7) 
57.90056990034093

>  <Genealogy>  (7) 
COc1ccc(N2Cc3cn[nH]c(=O)c3C2=O)cn1 (3D coordinates assigned)
COc1ccc(N2Cc3cn[nH]c(=O)c3C2=O)cn1 (nonaromatic ring conformer: 57.90056990034093 kcal/mol)

>  <smiles>  (7) 
COc1ccc(N2Cc3cn[nH]c(=O)c3C2=O)cn1

>  <score_type>  (7) 
oracle

>  <origin>  (7) 
adgpu

>  <m_score__min__energy>  (7) 
-7.4100000000000001

>  <m_primary>  (7) 
energy

$$$$
7:0
     RDKit          3D

 45 48  0  0  0  0  0  0  0  0999 V2000
    4.0480   16.6490  -24.8010 N   0  0  0  0  0  0  0  0  0  0  0  0
    3.4910   15.6940  -26.1290 S   0  0  0  0  0  0  0  0  0  0  0  0
    4.6670   15.0840  -26.8390 O   0  0  0  0  0  0  0  0  0  0  0  0
    2.6140   14.5880  -25.6130 O   0  0  0  0  0  0  0  0  0  0  0  0
    2.5830   16.7080  -27.2430 C   0  0  0  0  0  0  0  0  0  0  0  0
    3.1020   17.9470  -27.6490 C   0  0  0  0  0  0  0  0  0  0  0  0
    2.3760   18.7610  -28.5230 C   0  0  0  0  0  0  0  0  0  0  0  0
    1.1210   18.3480  -28.9940 C   0  0  0  0  0  0  0  0  0  0  0  0
    0.3710   19.1920  -29.8920 N   0  0  0  0  0  0  0  0  0  0  0  0
   -0.3190   20.2820  -29.4130 C   0  0  0  0  0  0  0  0  0  0  0  0
   -0.4020   20.5690  -27.9580 C   0  0  0  0  0  0  0  0  0  0  0  0
   -1.1590   21.5320  -27.4110 C   0  0  0  0  0  0  0  0  0  0  0  0
   -1.8850   22.5750  -28.1680 C   0  0  0  0  0  0  0  0  0  0  0  0
   -3.1450   22.3210  -28.7390 C   0  0  0  0  0  0  0  0  0  0  0  0
   -3.8020   23.3170  -29.4680 C   0  0  0  0  0  0  0  0  0  0  0  0
   -3.1980   24.5640  -29.6540 C   0  0  0  0  0  0  0  0  0  0  0  0
   -3.8570   25.5510  -30.3780 O   0  0  0  0  0  0  0  0  0  0  0  0
   -1.9300   24.8130  -29.1140 C   0  0  0  0  0  0  0  0  0  0  0  0
   -1.3210   26.0480  -29.3050 O   0  0  0  0  0  0  0  0  0  0  0  0
   -1.2720   23.8180  -28.3830 C   0  0  0  0  0  0  0  0  0  0  0  0
   -1.0060   21.0790  -30.2750 N   0  0  0  0  0  0  0  0  0  0  0  0
   -1.0140   20.8490  -31.6090 C   0  0  0  0  0  0  0  0  0  0  0  0
   -1.7200   21.7060  -32.4610 C   0  0  0  0  0  0  0  0  0  0  0  0
   -1.7290   21.4710  -33.8380 C   0  0  0  0  0  0  0  0  0  0  0  0
   -1.0360   20.3790  -34.3670 C   0  0  0  0  0  0  0  0  0  0  0  0
   -0.3290   19.5180  -33.5210 C   0  0  0  0  0  0  0  0  0  0  0  0
   -0.3140   19.7490  -32.1330 C   0  0  0  0  0  0  0  0  0  0  0  0
    0.3820   18.9200  -31.2370 C   0  0  0  0  0  0  0  0  0  0  0  0
    1.0310   17.9270  -31.6770 O   0  0  0  0  0  0  0  0  0  0  0  0
    0.6020   17.1120  -28.5850 C   0  0  0  0  0  0  0  0  0  0  0  0
    1.3270   16.2970  -27.7110 C   0  0  0  0  0  0  0  0  0  0  0  0
    3.4550   17.5090  -24.7750 H   0  0  0  0  0  0  0  0  0  0  0  0
    4.0831   18.2786  -27.2783 H   0  0  0  0  0  0  0  0  0  0  0  0
    2.7902   19.7287  -28.8425 H   0  0  0  0  0  0  0  0  0  0  0  0
    0.2008   19.9470  -27.2800 H   0  0  0  0  0  0  0  0  0  0  0  0
   -1.2466   21.5472  -26.3146 H   0  0  0  0  0  0  0  0  0  0  0  0
   -3.6155   21.3349  -28.6116 H   0  0  0  0  0  0  0  0  0  0  0  0
   -4.7958   23.1190  -29.8959 H   0  0  0  0  0  0  0  0  0  0  0  0
   -0.2690   24.0115  -27.9749 H   0  0  0  0  0  0  0  0  0  0  0  0
   -2.2680   22.5649  -32.0462 H   0  0  0  0  0  0  0  0  0  0  0  0
   -2.2824   22.1466  -34.5068 H   0  0  0  0  0  0  0  0  0  0  0  0
   -1.0464   20.1959  -35.4516 H   0  0  0  0  0  0  0  0  0  0  0  0
    0.2157   18.6596  -33.9411 H   0  0  0  0  0  0  0  0  0  0  0  0
   -0.3804   16.7818  -28.9535 H   0  0  0  0  0  0  0  0  0  0  0  0
    0.9110   15.3307  -27.3896 H   0  0  0  0  0  0  0  0  0  0  0  0
  1  2  1  0
  2  3  2  0
  2  4  2  0
  2  5  1  0
  5  6  2  0
  6  7  1  0
  7  8  2  0
  8  9  1  0
  9 10  1  0
 10 11  1  0
 11 12  2  3
 12 13  1  0
 13 14  2  0
 14 15  1  0
 15 16  2  0
 16 17  1  0
 16 18  1  0
 18 19  1  0
 18 20  2  0
 10 21  2  0
 21 22  1  0
 22 23  2  0
 23 24  1  0
 24 25  2  0
 25 26  1  0
 26 27  2  0
 27 28  1  0
 28 29  2  0
  8 30  1  0
 30 31  2  0
 31  5  1  0
 28  9  1  0
 20 13  1  0
 27 22  1  0
  1 32  1  0
  6 33  1  0
  7 34  1  0
 11 35  1  0
 12 36  1  0
 14 37  1  0
 15 38  1  0
 20 39  1  0
 23 40  1  0
 24 41  1  0
 25 42  1  0
 26 43  1  0
 30 44  1  0
 31 45  1  0
M  CHG  3   1  -1  17  -1  19  -1
M  END
>  <UniqueID>  (8) 
8

>  <SMILES>  (8) 
[NH-]S(=O)(=O)c1ccc(-n2c(C=Cc3ccc([O-])c([O-])c3)nc3ccccc3c2=O)cc1

>  <Energy>  (8) 
72.36299697116468

>  <Genealogy>  (8) 
[NH-]S(=O)(=O)c1ccc(-n2c(C=Cc3ccc([O-])c([O-])c3)nc3ccccc3c2=O)cc1 (protonated)
[NH-]S(=O)(=O)c1ccc(-n2c(C=Cc3ccc([O-])c([O-])c3)nc3ccccc3c2=O)cc1 (3D coordinates assigned)
[NH-]S(=O)(=O)c1ccc(-n2c(C=Cc3ccc([O-])c([O-])c3)nc3ccccc3c2=O)cc1 (optimized conformer: 72.36299697116468 kcal/mol)

>  <smiles>  (8) 
NS(=O)(=O)c1ccc(-n2c(C=Cc3ccc(O)c(O)c3)nc3ccccc3c2=O)cc1

>  <score_type>  (8) 
oracle

>  <origin>  (8) 
adgpu

>  <m_score__min__energy>  (8) 
-13.16

>  <m_primary>  (8) 
energy

$$$$
8:0
     RDKit          3D

 40 42  0  0  0  0  0  0  0  0999 V2000
    0.1918   25.4542  -28.2350 H   0  0  0  0  0  0  0  0  0  0  0  0
   -0.7580   24.9060  -28.3210 C   0  0  0  0  0  0  0  0  0  0  0  0
   -1.6940   25.3050  -29.2230 N   0  0  0  0  0  0  0  0  0  0  0  0
   -2.8860   24.6640  -29.3680 C   0  0  0  0  0  0  0  0  0  0  0  0
   -3.7270   25.1120  -30.2540 N   0  0  0  0  0  0  0  0  0  0  0  0
   -5.2970   24.4610  -30.6140 S   0  0  0  0  0  0  0  0  0  0  0  0
   -6.1120   24.3590  -29.3550 O   0  0  0  0  0  0  0  0  0  0  0  0
   -6.0090   25.3500  -31.5970 O   0  0  0  0  0  0  0  0  0  0  0  0
   -5.0970   22.8590  -31.3130 C   0  0  0  0  0  0  0  0  0  0  0  0
   -6.1070   21.8980  -31.1760 C   0  0  0  0  0  0  0  0  0  0  0  0
   -7.0327   22.1489  -30.6373 H   0  0  0  0  0  0  0  0  0  0  0  0
   -5.9430   20.6220  -31.7210 C   0  0  0  0  0  0  0  0  0  0  0  0
   -6.7480   19.8789  -31.6223 H   0  0  0  0  0  0  0  0  0  0  0  0
   -4.7600   20.2810  -32.3930 C   0  0  0  0  0  0  0  0  0  0  0  0
   -4.6250   18.9670  -32.9630 N   0  0  0  0  0  0  0  0  0  0  0  0
   -3.7000   18.4900  -32.8730 H   0  0  0  0  0  0  0  0  0  0  0  0
   -5.6310   18.3430  -33.7770 C   0  0  0  0  0  0  0  0  0  0  0  0
   -6.4870   19.0560  -34.3700 O   0  0  0  0  0  0  0  0  0  0  0  0
   -5.6470   16.8730  -33.9730 C   0  0  0  0  0  0  0  0  0  0  0  0
   -6.8610   16.1740  -34.1120 C   0  0  0  0  0  0  0  0  0  0  0  0
   -7.8142   16.7215  -34.0701 H   0  0  0  0  0  0  0  0  0  0  0  0
   -6.8640   14.7880  -34.3030 C   0  0  0  0  0  0  0  0  0  0  0  0
   -7.8184   14.2507  -34.4055 H   0  0  0  0  0  0  0  0  0  0  0  0
   -5.6580   14.0840  -34.3640 C   0  0  0  0  0  0  0  0  0  0  0  0
   -5.6630   12.6580  -34.5610 C   0  0  0  0  0  0  0  0  0  0  0  0
   -5.6680   11.5120  -34.7200 N   0  0  0  0  0  0  0  0  0  0  0  0
   -4.4450   14.7700  -34.2370 C   0  0  0  0  0  0  0  0  0  0  0  0
   -3.4947   14.2183  -34.2876 H   0  0  0  0  0  0  0  0  0  0  0  0
   -4.4380   16.1550  -34.0460 C   0  0  0  0  0  0  0  0  0  0  0  0
   -3.4804   16.6880  -33.9520 H   0  0  0  0  0  0  0  0  0  0  0  0
   -3.7530   21.2520  -32.5390 C   0  0  0  0  0  0  0  0  0  0  0  0
   -2.8302   21.0049  -33.0843 H   0  0  0  0  0  0  0  0  0  0  0  0
   -3.9180   22.5300  -31.9950 C   0  0  0  0  0  0  0  0  0  0  0  0
   -3.1197   23.2791  -32.1029 H   0  0  0  0  0  0  0  0  0  0  0  0
   -3.1630   23.5440  -28.5560 C   0  0  0  0  0  0  0  0  0  0  0  0
   -4.1193   23.0095  -28.6552 H   0  0  0  0  0  0  0  0  0  0  0  0
   -2.2120   23.1200  -27.6250 C   0  0  0  0  0  0  0  0  0  0  0  0
   -2.4177   22.2481  -26.9866 H   0  0  0  0  0  0  0  0  0  0  0  0
   -1.0020   23.8020  -27.5050 C   0  0  0  0  0  0  0  0  0  0  0  0
   -0.2482   23.4728  -26.7747 H   0  0  0  0  0  0  0  0  0  0  0  0
  1  2  1  0
  2  3  1  0
  3  4  1  0
  4  5  2  0
  5  6  1  0
  6  7  2  0
  6  8  2  0
  6  9  1  0
  9 10  2  0
 10 11  1  0
 10 12  1  0
 12 13  1  0
 12 14  2  0
 14 15  1  0
 15 16  1  0
 15 17  1  0
 17 18  2  0
 17 19  1  0
 19 20  2  0
 20 21  1  0
 20 22  1  0
 22 23  1  0
 22 24  2  0
 24 25  1  0
 25 26  3  0
 24 27  1  0
 27 28  1  0
 27 29  2  0
 29 30  1  0
 14 31  1  0
 31 32  1  0
 31 33  2  0
 33 34  1  0
  4 35  1  0
 35 36  1  0
 35 37  2  0
 37 38  1  0
 37 39  1  0
 39 40  1  0
 39  2  2  0
 33  9  1  0
 29 19  1  0
M  CHG  1   3  -1
M  END
>  <UniqueID>  (9) 
9

>  <SMILES>  (9) 
N#Cc1ccc(C(=O)Nc2ccc(S(=O)(=O)/N=c3\cccc[n-]3)cc2)cc1

>  <Energy>  (9) 
54.85579182176884

>  <Genealogy>  (9) 
N#Cc1ccc(C(=O)Nc2ccc(S(=O)(=O)N=c3cccc[n-]3)cc2)cc1 (protonated)
N#Cc1ccc(C(=O)Nc2ccc(S(=O)(=O)/N=c3\cccc[n-]3)cc2)cc1 (cis-trans isomerization)
N#Cc1ccc(C(=O)Nc2ccc(S(=O)(=O)/N=c3\cccc[n-]3)cc2)cc1 (3D coordinates assigned)
N#Cc1ccc(C(=O)Nc2ccc(S(=O)(=O)/N=c3\cccc[n-]3)cc2)cc1 (optimized conformer: 54.85579182176884 kcal/mol)

>  <smiles>  (9) 
N#Cc1ccc(C(=O)Nc2ccc(S(=O)(=O)N=c3cccc[nH]3)cc2)cc1

>  <score_type>  (9) 
oracle

>  <origin>  (9) 
adgpu

>  <m_score__min__energy>  (9) 
-10.07

>  <m_primary>  (9) 
energy

$$$$
9:0
     RDKit          3D

 36 38  0  0  0  0  0  0  0  0999 V2000
    0.1310   27.2000  -23.0310 N   0  0  0  0  0  0  0  0  0  0  0  0
   -0.1910   26.8910  -24.3890 C   0  0  0  0  0  0  0  0  0  0  0  0
   -0.0190   27.8560  -25.3930 C   0  0  0  0  0  0  0  0  0  0  0  0
   -0.3340   27.5540  -26.7210 C   0  0  0  0  0  0  0  0  0  0  0  0
   -0.8220   26.2820  -27.0610 C   0  0  0  0  0  0  0  0  0  0  0  0
   -1.1890   25.9570  -28.4830 C   0  0  0  0  0  0  0  0  0  0  0  0
   -2.0510   24.7820  -28.5260 N   0  0  0  0  0  0  0  0  0  0  0  0
   -1.9330   23.7480  -29.5110 C   0  0  0  0  0  0  0  0  0  0  0  0
   -0.8160   23.2040  -29.7250 O   0  0  0  0  0  0  0  0  0  0  0  0
   -3.1170   23.3470  -30.3020 C   0  0  0  0  0  0  0  0  0  0  0  0
   -4.0690   24.2980  -30.7410 C   0  0  0  0  0  0  0  0  0  0  0  0
   -3.9000   25.6690  -30.5360 O   0  0  0  0  0  0  0  0  0  0  0  0
   -5.1760   23.8860  -31.4120 N   0  0  0  0  0  0  0  0  0  0  0  0
   -5.4100   22.5830  -31.7050 C   0  0  0  0  0  0  0  0  0  0  0  0
   -6.5690   22.2240  -32.4030 C   0  0  0  0  0  0  0  0  0  0  0  0
   -6.8120   20.8840  -32.7150 C   0  0  0  0  0  0  0  0  0  0  0  0
   -5.8990   19.8980  -32.3330 C   0  0  0  0  0  0  0  0  0  0  0  0
   -4.7390   20.2460  -31.6350 C   0  0  0  0  0  0  0  0  0  0  0  0
   -4.4820   21.5930  -31.3150 C   0  0  0  0  0  0  0  0  0  0  0  0
   -3.3310   21.9850  -30.6060 C   0  0  0  0  0  0  0  0  0  0  0  0
   -2.5010   21.1140  -30.2220 O   0  0  0  0  0  0  0  0  0  0  0  0
   -0.9970   25.3200  -26.0550 C   0  0  0  0  0  0  0  0  0  0  0  0
   -0.6820   25.6220  -24.7270 C   0  0  0  0  0  0  0  0  0  0  0  0
    0.7290   26.5590  -22.4640 H   0  0  0  0  0  0  0  0  0  0  0  0
   -0.2290   28.0720  -22.5820 H   0  0  0  0  0  0  0  0  0  0  0  0
    0.3651   28.8537  -25.1341 H   0  0  0  0  0  0  0  0  0  0  0  0
   -0.1990   28.3159  -27.5029 H   0  0  0  0  0  0  0  0  0  0  0  0
   -1.7195   26.8129  -28.9258 H   0  0  0  0  0  0  0  0  0  0  0  0
   -0.2706   25.7486  -29.0514 H   0  0  0  0  0  0  0  0  0  0  0  0
   -3.4460   26.0590  -29.7220 H   0  0  0  0  0  0  0  0  0  0  0  0
   -7.2894   22.9979  -32.7063 H   0  0  0  0  0  0  0  0  0  0  0  0
   -7.7242   20.6047  -33.2626 H   0  0  0  0  0  0  0  0  0  0  0  0
   -6.0936   18.8444  -32.5823 H   0  0  0  0  0  0  0  0  0  0  0  0
   -4.0247   19.4652  -31.3348 H   0  0  0  0  0  0  0  0  0  0  0  0
   -1.3840   24.3231  -26.3125 H   0  0  0  0  0  0  0  0  0  0  0  0
   -0.8198   24.8614  -23.9444 H   0  0  0  0  0  0  0  0  0  0  0  0
  1  2  1  0
  2  3  2  0
  3  4  1  0
  4  5  2  0
  5  6  1  0
  6  7  1  0
  7  8  1  0
  8  9  2  0
  8 10  1  0
 10 11  2  0
 11 12  1  0
 11 13  1  0
 13 14  1  0
 14 15  2  0
 15 16  1  0
 16 17  2  0
 17 18  1  0
 18 19  2  0
 19 20  1  0
 20 21  2  0
  5 22  1  0
 22 23  2  0
 23  2  1  0
 20 10  1  0
 19 14  1  0
  1 24  1  0
  1 25  1  0
  3 26  1  0
  4 27  1  0
  6 28  1  0
  6 29  1  0
 12 30  1  0
 15 31  1  0
 16 32  1  0
 17 33  1  0
 18 34  1  0
 22 35  1  0
 23 36  1  0
M  CHG  2   7  -1  13  -1
M  END
>  <UniqueID>  (10) 
10

>  <SMILES>  (10) 
Nc1ccc(C[N-]C(=O)c2c(O)[n-]c3ccccc3c2=O)cc1

>  <Energy>  (10) 
47.08873809428616

>  <Genealogy>  (10) 
Nc1ccc(C[N-]C(=O)c2c(O)[n-]c3ccccc3c2=O)cc1 (protonated)
Nc1ccc(C[N-]C(=O)c2c(O)[n-]c3ccccc3c2=O)cc1 (3D coordinates assigned)
Nc1ccc(C[N-]C(=O)c2c(O)[n-]c3ccccc3c2=O)cc1 (optimized conformer: 47.08873809428616 kcal/mol)

>  <smiles>  (10) 
Nc1ccc(CNC(=O)c2c(O)[nH]c3ccccc3c2=O)cc1

>  <score_type>  (10) 
oracle

>  <origin>  (10) 
adgpu

>  <m_score__min__energy>  (10) 
-10.16

>  <m_primary>  (10) 
energy

$$$$
10:0
     RDKit          3D

 53 57  0  0  0  0  0  0  0  0999 V2000
   -2.1920   21.7740  -28.1380 O   0  0  0  0  0  0  0  0  0  0  0  0
   -1.1970   22.4360  -29.0480 S   0  0  0  0  0  0  0  0  0  0  0  0
   -0.1970   23.1790  -28.2080 O   0  0  0  0  0  0  0  0  0  0  0  0
   -2.0330   23.5290  -30.0990 N   0  0  0  0  0  0  0  0  0  0  0  0
   -3.3850   23.2990  -30.4950 C   0  0  0  0  0  0  0  0  0  0  0  0
   -3.8260   21.9850  -30.6890 C   0  0  0  0  0  0  0  0  0  0  0  0
   -5.1320   21.7320  -31.1180 C   0  0  0  0  0  0  0  0  0  0  0  0
   -6.0200   22.8010  -31.3440 C   0  0  0  0  0  0  0  0  0  0  0  0
   -5.5800   24.1170  -31.1380 C   0  0  0  0  0  0  0  0  0  0  0  0
   -4.2730   24.3680  -30.7070 C   0  0  0  0  0  0  0  0  0  0  0  0
   -3.8690   25.6790  -30.4840 O   0  0  0  0  0  0  0  0  0  0  0  0
   -7.4310   22.5590  -31.8190 C   0  0  0  0  0  0  0  0  0  0  0  0
   -7.8030   21.1000  -31.9160 C   0  0  0  0  0  0  0  0  0  0  0  0
   -9.1120   20.7420  -32.2750 C   0  0  0  0  0  0  0  0  0  0  0  0
   -9.4640   19.3950  -32.4120 C   0  0  0  0  0  0  0  0  0  0  0  0
   -8.5100   18.3970  -32.1930 C   0  0  0  0  0  0  0  0  0  0  0  0
   -7.2050   18.7420  -31.8330 C   0  0  0  0  0  0  0  0  0  0  0  0
   -6.8470   20.0890  -31.6910 C   0  0  0  0  0  0  0  0  0  0  0  0
   -5.5420   20.4130  -31.3160 O   0  0  0  0  0  0  0  0  0  0  0  0
   -0.3850   21.2120  -30.0200 C   0  0  0  0  0  0  0  0  0  0  0  0
    0.0660   20.0210  -29.4330 C   0  0  0  0  0  0  0  0  0  0  0  0
    0.6610   19.0330  -30.2210 C   0  0  0  0  0  0  0  0  0  0  0  0
    0.7900   19.2190  -31.6010 C   0  0  0  0  0  0  0  0  0  0  0  0
    0.3180   20.3950  -32.2000 C   0  0  0  0  0  0  0  0  0  0  0  0
    0.4240   20.6070  -33.9430 S   0  0  0  0  0  0  0  0  0  0  0  0
    0.9080   21.9940  -34.2630 O   0  0  0  0  0  0  0  0  0  0  0  0
    1.3910   19.6070  -34.5080 O   0  0  0  0  0  0  0  0  0  0  0  0
   -1.1340   20.3600  -34.6560 N   0  0  0  0  0  0  0  0  0  0  0  0
   -2.0330   19.3630  -34.1760 C   0  0  0  0  0  0  0  0  0  0  0  0
   -3.3140   19.7420  -33.7550 C   0  0  0  0  0  0  0  0  0  0  0  0
   -4.2040   18.7850  -33.2600 C   0  0  0  0  0  0  0  0  0  0  0  0
   -3.8120   17.4480  -33.1650 C   0  0  0  0  0  0  0  0  0  0  0  0
   -2.5300   17.0670  -33.5620 C   0  0  0  0  0  0  0  0  0  0  0  0
   -1.6340   18.0200  -34.0670 C   0  0  0  0  0  0  0  0  0  0  0  0
   -0.3450   17.6400  -34.4400 O   0  0  0  0  0  0  0  0  0  0  0  0
   -0.2520   21.3960  -31.4040 C   0  0  0  0  0  0  0  0  0  0  0  0
   -3.1401   21.1455  -30.5026 H   0  0  0  0  0  0  0  0  0  0  0  0
   -6.2672   24.9571  -31.3166 H   0  0  0  0  0  0  0  0  0  0  0  0
   -8.1216   23.0462  -31.1149 H   0  0  0  0  0  0  0  0  0  0  0  0
   -7.5007   22.9740  -32.8353 H   0  0  0  0  0  0  0  0  0  0  0  0
   -9.8649   21.5247  -32.4495 H   0  0  0  0  0  0  0  0  0  0  0  0
  -10.4919   19.1211  -32.6922 H   0  0  0  0  0  0  0  0  0  0  0  0
   -8.7873   17.3384  -32.3043 H   0  0  0  0  0  0  0  0  0  0  0  0
   -6.4568   17.9542  -31.6606 H   0  0  0  0  0  0  0  0  0  0  0  0
   -0.0490   19.8646  -28.3503 H   0  0  0  0  0  0  0  0  0  0  0  0
    1.0288   18.1069  -29.7552 H   0  0  0  0  0  0  0  0  0  0  0  0
    1.2630   18.4406  -32.2178 H   0  0  0  0  0  0  0  0  0  0  0  0
   -3.6206   20.7967  -33.8142 H   0  0  0  0  0  0  0  0  0  0  0  0
   -5.2143   19.0851  -32.9449 H   0  0  0  0  0  0  0  0  0  0  0  0
   -4.5141   16.6953  -32.7771 H   0  0  0  0  0  0  0  0  0  0  0  0
   -2.2208   16.0147  -33.4785 H   0  0  0  0  0  0  0  0  0  0  0  0
    0.3390   18.3200  -34.7480 H   0  0  0  0  0  0  0  0  0  0  0  0
   -0.5975   22.3322  -31.8668 H   0  0  0  0  0  0  0  0  0  0  0  0
  1  2  2  0
  2  3  2  0
  2  4  1  0
  4  5  1  0
  5  6  2  0
  6  7  1  0
  7  8  2  0
  8  9  1  0
  9 10  2  0
 10 11  1  0
  8 12  1  0
 12 13  1  0
 13 14  2  0
 14 15  1  0
 15 16  2  0
 16 17  1  0
 17 18  2  0
 18 19  1  0
  2 20  1  0
 20 21  2  0
 21 22  1  0
 22 23  2  0
 23 24  1  0
 24 25  1  0
 25 26  2  0
 25 27  2  0
 25 28  1  0
 28 29  1  0
 29 30  2  0
 30 31  1  0
 31 32  2  0
 32 33  1  0
 33 34  2  0
 34 35  1  0
 24 36  2  0
 10  5  1  0
 18 13  1  0
 36 20  1  0
 19  7  1  0
 34 29  1  0
  6 37  1  0
  9 38  1  0
 12 39  1  0
 12 40  1  0
 14 41  1  0
 15 42  1  0
 16 43  1  0
 17 44  1  0
 21 45  1  0
 22 46  1  0
 23 47  1  0
 30 48  1  0
 31 49  1  0
 32 50  1  0
 33 51  1  0
 35 52  1  0
 36 53  1  0
M  CHG  3   4  -1  11  -1  28  -1
M  END
>  <UniqueID>  (11) 
11

>  <SMILES>  (11) 
O=S(=O)([N-]c1cc2c(cc1[O-])Cc1ccccc1O2)c1cccc(S(=O)(=O)[N-]c2ccccc2O)c1

>  <Energy>  (11) 
74.774534076467

>  <Genealogy>  (11) 
O=S(=O)([N-]c1cc2c(cc1[O-])Cc1ccccc1O2)c1cccc(S(=O)(=O)[N-]c2ccccc2O)c1 (protonated)
O=S(=O)([N-]c1cc2c(cc1[O-])Cc1ccccc1O2)c1cccc(S(=O)(=O)[N-]c2ccccc2O)c1 (3D coordinates assigned)
O=S(=O)([N-]c1cc2c(cc1[O-])Cc1ccccc1O2)c1cccc(S(=O)(=O)[N-]c2ccccc2O)c1 (nonaromatic ring conformer: 74.774534076467 kcal/mol)

>  <smiles>  (11) 
O=S(=O)(Nc1ccccc1O)c1cccc(S(=O)(=O)Nc2cc3c(cc2O)Cc2ccccc2O3)c1

>  <score_type>  (11) 
oracle

>  <origin>  (11) 
adgpu

>  <m_score__min__energy>  (11) 
-14.08

>  <m_primary>  (11) 
energy

$$$$
11:0
     RDKit          3D

 24 25  0  0  0  0  0  0  0  0999 V2000
   -5.4240   23.8720  -31.6750 O   0  0  0  0  0  0  0  0  0  0  0  0
   -4.5850   22.9740  -31.4000 C   0  0  0  0  0  0  0  0  0  0  0  0
   -4.7080   21.6990  -32.0460 N   0  0  0  0  0  0  0  0  0  0  0  0
   -5.9070   20.9170  -32.1500 C   0  0  0  0  0  0  0  0  0  0  0  0
   -7.0850   21.4140  -31.5800 C   0  0  0  0  0  0  0  0  0  0  0  0
   -8.2750   20.6840  -31.6610 C   0  0  0  0  0  0  0  0  0  0  0  0
   -8.2900   19.4400  -32.2970 C   0  0  0  0  0  0  0  0  0  0  0  0
   -9.4420   18.7310  -32.3730 F   0  0  0  0  0  0  0  0  0  0  0  0
   -7.1120   18.9210  -32.8420 C   0  0  0  0  0  0  0  0  0  0  0  0
   -5.9190   19.6480  -32.7630 C   0  0  0  0  0  0  0  0  0  0  0  0
   -4.7790   19.0890  -33.2380 F   0  0  0  0  0  0  0  0  0  0  0  0
   -3.4780   23.2760  -30.4590 C   0  0  0  0  0  0  0  0  0  0  0  0
   -3.1480   24.6020  -30.1200 C   0  0  0  0  0  0  0  0  0  0  0  0
   -3.8770   25.6700  -30.6330 O   0  0  0  0  0  0  0  0  0  0  0  0
   -2.1210   24.8460  -29.2620 N   0  0  0  0  0  0  0  0  0  0  0  0
   -1.4100   23.8320  -28.7090 C   0  0  0  0  0  0  0  0  0  0  0  0
   -0.4640   24.0850  -27.9200 O   0  0  0  0  0  0  0  0  0  0  0  0
   -1.7210   22.5450  -29.0030 N   0  0  0  0  0  0  0  0  0  0  0  0
   -2.7340   22.2440  -29.8560 C   0  0  0  0  0  0  0  0  0  0  0  0
   -2.9840   21.0350  -30.1120 O   0  0  0  0  0  0  0  0  0  0  0  0
   -7.0745   22.3858  -31.0647 H   0  0  0  0  0  0  0  0  0  0  0  0
   -9.1995   21.0893  -31.2239 H   0  0  0  0  0  0  0  0  0  0  0  0
   -7.1229   17.9376  -33.3347 H   0  0  0  0  0  0  0  0  0  0  0  0
   -4.1900   25.6730  -31.5970 H   0  0  0  0  0  0  0  0  0  0  0  0
  1  2  2  0
  2  3  1  0
  3  4  1  0
  4  5  2  0
  5  6  1  0
  6  7  2  0
  7  8  1  0
  7  9  1  0
  9 10  2  0
 10 11  1  0
  2 12  1  0
 12 13  2  0
 13 14  1  0
 13 15  1  0
 15 16  1  0
 16 17  2  0
 16 18  1  0
 18 19  1  0
 19 20  2  0
 10  4  1  0
 19 12  1  0
  5 21  1  0
  6 22  1  0
  9 23  1  0
 14 24  1  0
M  CHG  3   3  -1  15  -1  18  -1
M  END
>  <UniqueID>  (12) 
12

>  <SMILES>  (12) 
O=C([N-]c1ccc(F)cc1F)c1c(O)[n-]c(=O)[n-]c1=O

>  <Energy>  (12) 
36.59170487995848

>  <Genealogy>  (12) 
O=C([N-]c1ccc(F)cc1F)c1c(O)[n-]c(=O)[n-]c1=O (protonated)
O=C([N-]c1ccc(F)cc1F)c1c(O)[n-]c(=O)[n-]c1=O (3D coordinates assigned)
O=C([N-]c1ccc(F)cc1F)c1c(O)[n-]c(=O)[n-]c1=O (optimized conformer: 36.59170487995848 kcal/mol)

>  <smiles>  (12) 
O=C(Nc1ccc(F)cc1F)c1c(O)[nH]c(=O)[nH]c1=O

>  <score_type>  (12) 
oracle

>  <origin>  (12) 
adgpu

>  <m_score__min__energy>  (12) 
-9.4199999999999999

>  <m_primary>  (12) 
energy

$$$$
12:0
     RDKit          3D

 44 46  0  0  0  0  0  0  0  0999 V2000
   -9.0850   18.2500  -31.2340 C   0  0  0  0  0  0  0  0  0  0  0  0
   -8.8360   19.0740  -32.0770 C   0  0  0  0  0  0  0  0  0  0  0  0
   -8.5330   20.0780  -33.1030 C   0  0  0  0  0  0  0  0  0  0  0  0
   -7.0920   20.3580  -33.1330 N   0  0  0  0  0  0  0  0  0  0  0  0
   -6.1810   19.4080  -33.7890 C   0  0  0  0  0  0  0  0  0  0  0  0
   -6.0280   18.1760  -32.9520 C   0  0  0  0  0  0  0  0  0  0  0  0
   -5.9470   18.1350  -31.5780 C   0  0  0  0  0  0  0  0  0  0  0  0
   -5.7400   16.8590  -31.2170 N   0  0  0  0  0  0  0  0  0  0  0  0
   -5.6860   16.1620  -32.3670 C   0  0  0  0  0  0  0  0  0  0  0  0
   -5.8520   16.9380  -33.4580 N   0  0  0  0  0  0  0  0  0  0  0  0
   -6.5580   21.4990  -32.4300 C   0  0  0  0  0  0  0  0  0  0  0  0
   -5.1710   21.6620  -32.2840 C   0  0  0  0  0  0  0  0  0  0  0  0
   -4.6540   22.7950  -31.6490 C   0  0  0  0  0  0  0  0  0  0  0  0
   -5.5130   23.7840  -31.1390 C   0  0  0  0  0  0  0  0  0  0  0  0
   -4.9670   25.0040  -30.5030 C   0  0  0  0  0  0  0  0  0  0  0  0
   -5.7490   25.8710  -30.0220 O   0  0  0  0  0  0  0  0  0  0  0  0
   -3.5510   25.2150  -30.4460 N   0  0  0  0  0  0  0  0  0  0  0  0
   -2.7350   24.8930  -29.2820 C   0  0  0  0  0  0  0  0  0  0  0  0
   -2.7100   23.4040  -29.0670 C   0  0  0  0  0  0  0  0  0  0  0  0
   -1.8490   22.5930  -29.8210 C   0  0  0  0  0  0  0  0  0  0  0  0
   -1.7930   21.2180  -29.5800 C   0  0  0  0  0  0  0  0  0  0  0  0
   -2.6020   20.6670  -28.5840 C   0  0  0  0  0  0  0  0  0  0  0  0
   -3.4280   21.4650  -27.8570 N   0  0  0  0  0  0  0  0  0  0  0  0
   -3.5000   22.8060  -28.0730 C   0  0  0  0  0  0  0  0  0  0  0  0
   -6.9020   23.6090  -31.2690 C   0  0  0  0  0  0  0  0  0  0  0  0
   -7.4190   22.4790  -31.9110 C   0  0  0  0  0  0  0  0  0  0  0  0
   -9.3123   17.4977  -30.4643 H   0  0  0  0  0  0  0  0  0  0  0  0
   -8.8495   19.6991  -34.0860 H   0  0  0  0  0  0  0  0  0  0  0  0
   -9.0728   21.0065  -32.8651 H   0  0  0  0  0  0  0  0  0  0  0  0
   -6.5908   19.1311  -34.7716 H   0  0  0  0  0  0  0  0  0  0  0  0
   -5.1963   19.8823  -33.9128 H   0  0  0  0  0  0  0  0  0  0  0  0
   -6.0361   18.9947  -30.8976 H   0  0  0  0  0  0  0  0  0  0  0  0
   -5.6320   16.4870  -30.2480 H   0  0  0  0  0  0  0  0  0  0  0  0
   -5.5237   15.0750  -32.4125 H   0  0  0  0  0  0  0  0  0  0  0  0
   -4.4867   20.8930  -32.6719 H   0  0  0  0  0  0  0  0  0  0  0  0
   -3.5651   22.9137  -31.5475 H   0  0  0  0  0  0  0  0  0  0  0  0
   -1.7091   25.2548  -29.4450 H   0  0  0  0  0  0  0  0  0  0  0  0
   -3.1653   25.3789  -28.3939 H   0  0  0  0  0  0  0  0  0  0  0  0
   -1.2173   23.0400  -30.6028 H   0  0  0  0  0  0  0  0  0  0  0  0
   -1.1196   20.5770  -30.1679 H   0  0  0  0  0  0  0  0  0  0  0  0
   -2.5707   19.5852  -28.3874 H   0  0  0  0  0  0  0  0  0  0  0  0
   -4.1793   23.4235  -27.4669 H   0  0  0  0  0  0  0  0  0  0  0  0
   -7.5877   24.3670  -30.8625 H   0  0  0  0  0  0  0  0  0  0  0  0
   -8.5078   22.3573  -32.0099 H   0  0  0  0  0  0  0  0  0  0  0  0
  1  2  3  0
  2  3  1  0
  3  4  1  0
  4  5  1  0
  5  6  1  0
  6  7  2  0
  7  8  1  0
  8  9  1  0
  9 10  2  0
  4 11  1  0
 11 12  2  0
 12 13  1  0
 13 14  2  0
 14 15  1  0
 15 16  2  0
 15 17  1  0
 17 18  1  0
 18 19  1  0
 19 20  2  0
 20 21  1  0
 21 22  2  0
 22 23  1  0
 23 24  2  0
 14 25  1  0
 25 26  2  0
 10  6  1  0
 26 11  1  0
 24 19  1  0
  1 27  1  0
  3 28  1  0
  3 29  1  0
  5 30  1  0
  5 31  1  0
  7 32  1  0
  8 33  1  0
  9 34  1  0
 12 35  1  0
 13 36  1  0
 18 37  1  0
 18 38  1  0
 20 39  1  0
 21 40  1  0
 22 41  1  0
 24 42  1  0
 25 43  1  0
 26 44  1  0
M  CHG  1  17  -1
M  END
>  <UniqueID>  (13) 
13

>  <SMILES>  (13) 
C#CCN(Cc1c[nH]cn1)c1ccc(C(=O)[N-]Cc2cccnc2)cc1

>  <Energy>  (13) 
73.36849570235337

>  <Genealogy>  (13) 
C#CCN(Cc1c[nH]cn1)c1ccc(C(=O)[N-]Cc2cccnc2)cc1 (protonated)
C#CCN(Cc1c[nH]cn1)c1ccc(C(=O)[N-]Cc2cccnc2)cc1 (3D coordinates assigned)
C#CCN(Cc1c[nH]cn1)c1ccc(C(=O)[N-]Cc2cccnc2)cc1 (optimized conformer: 73.36849570235337 kcal/mol)

>  <smiles>  (13) 
C#CCN(Cc1c[nH]cn1)c1ccc(C(=O)NCc2cccnc2)cc1

>  <score_type>  (13) 
oracle

>  <origin>  (13) 
adgpu

>  <m_score__min__energy>  (13) 
-10.460000000000001

>  <m_primary>  (13) 
energy

$$$$
13:0
     RDKit          3D

 39 40  0  0  0  0  0  0  0  0999 V2000
   -2.2380   21.5560  -32.2970 C   0  0  0  0  0  0  0  0  0  0  0  0
   -3.4140   22.3480  -32.4310 O   0  0  0  0  0  0  0  0  0  0  0  0
   -4.7250   21.8430  -32.4050 C   0  0  0  0  0  0  0  0  0  0  0  0
   -5.0800   20.6660  -33.0850 C   0  0  0  0  0  0  0  0  0  0  0  0
   -6.3890   20.1810  -33.0290 C   0  0  0  0  0  0  0  0  0  0  0  0
   -7.3790   20.8580  -32.2920 C   0  0  0  0  0  0  0  0  0  0  0  0
   -8.7350   20.3450  -32.2240 N   0  0  0  0  0  0  0  0  0  0  0  0
   -8.9920   18.9050  -32.3410 C   0  0  0  0  0  0  0  0  0  0  0  0
   -9.8710   21.2550  -32.0360 C   0  0  0  0  0  0  0  0  0  0  0  0
   -7.0170   22.0420  -31.6190 C   0  0  0  0  0  0  0  0  0  0  0  0
   -5.7050   22.5340  -31.6730 C   0  0  0  0  0  0  0  0  0  0  0  0
   -5.2720   24.0000  -30.7890 S   0  0  0  0  0  0  0  0  0  0  0  0
   -5.7210   25.1920  -31.5870 O   0  0  0  0  0  0  0  0  0  0  0  0
   -5.9370   24.0410  -29.4420 O   0  0  0  0  0  0  0  0  0  0  0  0
   -3.5510   24.0650  -30.5810 N   0  0  0  0  0  0  0  0  0  0  0  0
   -2.9000   23.6510  -29.3680 C   0  0  0  0  0  0  0  0  0  0  0  0
   -3.2120   22.4200  -28.7640 C   0  0  0  0  0  0  0  0  0  0  0  0
   -2.5780   22.0320  -27.5810 C   0  0  0  0  0  0  0  0  0  0  0  0
   -1.6300   22.8680  -26.9870 C   0  0  0  0  0  0  0  0  0  0  0  0
   -1.3150   24.0930  -27.5760 C   0  0  0  0  0  0  0  0  0  0  0  0
   -1.9450   24.4890  -28.7600 C   0  0  0  0  0  0  0  0  0  0  0  0
   -1.6090   25.7080  -29.3350 O   0  0  0  0  0  0  0  0  0  0  0  0
   -2.0162   21.4066  -31.2300 H   0  0  0  0  0  0  0  0  0  0  0  0
   -2.3965   20.5799  -32.7787 H   0  0  0  0  0  0  0  0  0  0  0  0
   -1.3930   22.0698  -32.7787 H   0  0  0  0  0  0  0  0  0  0  0  0
   -4.3211   20.1218  -33.6663 H   0  0  0  0  0  0  0  0  0  0  0  0
   -6.6494   19.2581  -33.5678 H   0  0  0  0  0  0  0  0  0  0  0  0
   -9.0707   18.4638  -31.3364 H   0  0  0  0  0  0  0  0  0  0  0  0
   -9.9331   18.7437  -32.8871 H   0  0  0  0  0  0  0  0  0  0  0  0
   -8.1648   18.4281  -32.8871 H   0  0  0  0  0  0  0  0  0  0  0  0
  -10.0511   21.3993  -30.9605 H   0  0  0  0  0  0  0  0  0  0  0  0
   -9.6451   22.2249  -32.5033 H   0  0  0  0  0  0  0  0  0  0  0  0
  -10.7682   20.8229  -32.5033 H   0  0  0  0  0  0  0  0  0  0  0  0
   -7.7765   22.5895  -31.0415 H   0  0  0  0  0  0  0  0  0  0  0  0
   -2.9770   24.2580  -31.4320 H   0  0  0  0  0  0  0  0  0  0  0  0
   -3.9598   21.7585  -29.2258 H   0  0  0  0  0  0  0  0  0  0  0  0
   -2.8260   21.0662  -27.1166 H   0  0  0  0  0  0  0  0  0  0  0  0
   -1.1320   22.5609  -26.0555 H   0  0  0  0  0  0  0  0  0  0  0  0
   -0.5679   24.7501  -27.1070 H   0  0  0  0  0  0  0  0  0  0  0  0
  1  2  1  0
  2  3  1  0
  3  4  2  0
  4  5  1  0
  5  6  2  0
  6  7  1  0
  7  8  1  0
  7  9  1  0
  6 10  1  0
 10 11  2  0
 11 12  1  0
 12 13  2  0
 12 14  2  0
 12 15  1  0
 15 16  1  0
 16 17  2  0
 17 18  1  0
 18 19  2  0
 19 20  1  0
 20 21  2  0
 21 22  1  0
 11  3  1  0
 21 16  1  0
  1 23  1  0
  1 24  1  0
  1 25  1  0
  4 26  1  0
  5 27  1  0
  8 28  1  0
  8 29  1  0
  8 30  1  0
  9 31  1  0
  9 32  1  0
  9 33  1  0
 10 34  1  0
 15 35  1  0
 17 36  1  0
 18 37  1  0
 19 38  1  0
 20 39  1  0
M  CHG  1  22  -1
M  END
>  <UniqueID>  (14) 
14

>  <SMILES>  (14) 
COc1ccc(N(C)C)cc1S(=O)(=O)Nc1ccccc1[O-]

>  <Energy>  (14) 
43.484208819795384

>  <Genealogy>  (14) 
COc1ccc(N(C)C)cc1S(=O)(=O)Nc1ccccc1[O-] (protonated)
COc1ccc(N(C)C)cc1S(=O)(=O)Nc1ccccc1[O-] (3D coordinates assigned)
COc1ccc(N(C)C)cc1S(=O)(=O)Nc1ccccc1[O-] (optimized conformer: 43.484208819795384 kcal/mol)

>  <smiles>  (14) 
COc1ccc(N(C)C)cc1S(=O)(=O)Nc1ccccc1O

>  <score_type>  (14) 
oracle

>  <origin>  (14) 
adgpu

>  <m_score__min__energy>  (14) 
-11.26

>  <m_primary>  (14) 
energy

$$$$
14:0
     RDKit          3D

 62 65  0  0  0  0  0  0  0  0999 V2000
    1.0210   17.2300  -33.2560 C   0  0  0  0  0  0  0  0  0  0  0  0
    0.6150   18.1030  -32.0980 C   0  0  0  0  0  0  0  0  0  0  0  0
    0.6090   17.5550  -30.8050 C   0  0  0  0  0  0  0  0  0  0  0  0
    0.2330   18.3280  -29.7070 C   0  0  0  0  0  0  0  0  0  0  0  0
   -0.1570   19.6600  -29.8840 C   0  0  0  0  0  0  0  0  0  0  0  0
   -0.5610   20.6650  -28.4940 S   0  0  0  0  0  0  0  0  0  0  0  0
   -1.3100   19.8270  -27.4950 O   0  0  0  0  0  0  0  0  0  0  0  0
    0.6900   21.1910  -27.8450 O   0  0  0  0  0  0  0  0  0  0  0  0
   -1.5540   22.0160  -29.0300 C   0  0  0  0  0  0  0  0  0  0  0  0
   -2.6940   21.7970  -29.8150 C   0  0  0  0  0  0  0  0  0  0  0  0
   -3.4540   22.8800  -30.2700 C   0  0  0  0  0  0  0  0  0  0  0  0
   -3.0720   24.1900  -29.9600 C   0  0  0  0  0  0  0  0  0  0  0  0
   -3.8500   25.2850  -30.4630 N   0  0  0  0  0  0  0  0  0  0  0  0
   -5.2810   25.3720  -30.4180 C   0  0  0  0  0  0  0  0  0  0  0  0
   -5.8080   26.4590  -30.0610 O   0  0  0  0  0  0  0  0  0  0  0  0
   -6.1480   24.2220  -30.7740 C   0  0  0  0  0  0  0  0  0  0  0  0
   -6.8810   23.5400  -29.7850 C   0  0  0  0  0  0  0  0  0  0  0  0
   -7.6750   22.4410  -30.1240 C   0  0  0  0  0  0  0  0  0  0  0  0
   -7.7550   22.0170  -31.4530 C   0  0  0  0  0  0  0  0  0  0  0  0
   -7.0460   22.6980  -32.4460 C   0  0  0  0  0  0  0  0  0  0  0  0
   -6.2500   23.8000  -32.1110 C   0  0  0  0  0  0  0  0  0  0  0  0
   -1.9560   24.4050  -29.1330 C   0  0  0  0  0  0  0  0  0  0  0  0
   -1.1990   23.3230  -28.6780 C   0  0  0  0  0  0  0  0  0  0  0  0
   -0.1560   20.2180  -31.1670 C   0  0  0  0  0  0  0  0  0  0  0  0
    0.2180   19.4510  -32.2830 C   0  0  0  0  0  0  0  0  0  0  0  0
    0.2100   20.2080  -33.8840 S   0  0  0  0  0  0  0  0  0  0  0  0
    1.2290   19.5530  -34.7750 O   0  0  0  0  0  0  0  0  0  0  0  0
    0.5470   21.6650  -33.7430 O   0  0  0  0  0  0  0  0  0  0  0  0
   -1.3630   20.0170  -34.5820 N   0  0  0  0  0  0  0  0  0  0  0  0
   -2.4870   19.4320  -33.9120 C   0  0  0  0  0  0  0  0  0  0  0  0
   -3.5230   20.1240  -33.3090 C   0  0  0  0  0  0  0  0  0  0  0  0
   -3.6550   21.6140  -33.2290 C   0  0  0  0  0  0  0  0  0  0  0  0
   -4.4400   19.2260  -32.8650 N   0  0  0  0  0  0  0  0  0  0  0  0
   -5.7030   19.5260  -32.1850 C   0  0  0  0  0  0  0  0  0  0  0  0
   -4.0000   17.9980  -33.1260 N   0  0  0  0  0  0  0  0  0  0  0  0
   -4.7240   16.7610  -32.8260 C   0  0  0  0  0  0  0  0  0  0  0  0
   -2.8220   18.0970  -33.7740 C   0  0  0  0  0  0  0  0  0  0  0  0
   -2.1510   17.1120  -34.1820 O   0  0  0  0  0  0  0  0  0  0  0  0
    1.4561   16.2944  -32.8749 H   0  0  0  0  0  0  0  0  0  0  0  0
    0.1373   17.0003  -33.8695 H   0  0  0  0  0  0  0  0  0  0  0  0
    1.7661   17.7577  -33.8695 H   0  0  0  0  0  0  0  0  0  0  0  0
    0.9038   16.5056  -30.6569 H   0  0  0  0  0  0  0  0  0  0  0  0
    0.2430   17.8891  -28.6984 H   0  0  0  0  0  0  0  0  0  0  0  0
   -2.9923   20.7704  -30.0743 H   0  0  0  0  0  0  0  0  0  0  0  0
   -4.3557   22.7009  -30.8740 H   0  0  0  0  0  0  0  0  0  0  0  0
   -6.8286   23.8741  -28.7383 H   0  0  0  0  0  0  0  0  0  0  0  0
   -8.2380   21.9088  -29.3431 H   0  0  0  0  0  0  0  0  0  0  0  0
   -8.3755   21.1480  -31.7173 H   0  0  0  0  0  0  0  0  0  0  0  0
   -7.1134   22.3676  -33.4930 H   0  0  0  0  0  0  0  0  0  0  0  0
   -5.7016   24.3383  -32.8981 H   0  0  0  0  0  0  0  0  0  0  0  0
   -1.6778   25.4290  -28.8431 H   0  0  0  0  0  0  0  0  0  0  0  0
   -0.3201   23.4990  -28.0403 H   0  0  0  0  0  0  0  0  0  0  0  0
   -0.4513   21.2688  -31.3034 H   0  0  0  0  0  0  0  0  0  0  0  0
   -3.6824   21.9235  -32.1738 H   0  0  0  0  0  0  0  0  0  0  0  0
   -2.7951   22.0856  -33.7272 H   0  0  0  0  0  0  0  0  0  0  0  0
   -4.5844   21.9270  -33.7272 H   0  0  0  0  0  0  0  0  0  0  0  0
   -5.5508   19.4898  -31.0962 H   0  0  0  0  0  0  0  0  0  0  0  0
   -6.0456   20.5305  -32.4742 H   0  0  0  0  0  0  0  0  0  0  0  0
   -6.4607   18.7828  -32.4742 H   0  0  0  0  0  0  0  0  0  0  0  0
   -4.7980   16.6346  -31.7358 H   0  0  0  0  0  0  0  0  0  0  0  0
   -5.7341   16.8133  -33.2584 H   0  0  0  0  0  0  0  0  0  0  0  0
   -4.1838   15.9059  -33.2584 H   0  0  0  0  0  0  0  0  0  0  0  0
  1  2  1  0
  2  3  2  0
  3  4  1  0
  4  5  2  0
  5  6  1  0
  6  7  2  0
  6  8  2  0
  6  9  1  0
  9 10  2  0
 10 11  1  0
 11 12  2  0
 12 13  1  0
 13 14  1  0
 14 15  2  0
 14 16  1  0
 16 17  2  0
 17 18  1  0
 18 19  2  0
 19 20  1  0
 20 21  2  0
 12 22  1  0
 22 23  2  0
  5 24  1  0
 24 25  2  0
 25 26  1  0
 26 27  2  0
 26 28  2  0
 26 29  1  0
 29 30  1  0
 30 31  2  0
 31 32  1  0
 31 33  1  0
 33 34  1  0
 33 35  1  0
 35 36  1  0
 35 37  1  0
 37 38  2  0
 25  2  1  0
 37 30  1  0
 23  9  1  0
 21 16  1  0
  1 39  1  0
  1 40  1  0
  1 41  1  0
  3 42  1  0
  4 43  1  0
 10 44  1  0
 11 45  1  0
 17 46  1  0
 18 47  1  0
 19 48  1  0
 20 49  1  0
 21 50  1  0
 22 51  1  0
 23 52  1  0
 24 53  1  0
 32 54  1  0
 32 55  1  0
 32 56  1  0
 34 57  1  0
 34 58  1  0
 34 59  1  0
 36 60  1  0
 36 61  1  0
 36 62  1  0
M  CHG  2  13  -1  29  -1
M  END
>  <UniqueID>  (15) 
15

>  <SMILES>  (15) 
Cc1ccc(S(=O)(=O)c2ccc([N-]C(=O)c3ccccc3)cc2)cc1S(=O)(=O)[N-]c1c(C)n(C)n(C)c1=O

>  <Energy>  (15) 
113.15984283882894

>  <Genealogy>  (15) 
Cc1ccc(S(=O)(=O)c2ccc([N-]C(=O)c3ccccc3)cc2)cc1S(=O)(=O)[N-]c1c(C)n(C)n(C)c1=O (protonated)
Cc1ccc(S(=O)(=O)c2ccc([N-]C(=O)c3ccccc3)cc2)cc1S(=O)(=O)[N-]c1c(C)n(C)n(C)c1=O (3D coordinates assigned)
Cc1ccc(S(=O)(=O)c2ccc([N-]C(=O)c3ccccc3)cc2)cc1S(=O)(=O)[N-]c1c(C)n(C)n(C)c1=O (optimized conformer: 113.15984283882894 kcal/mol)

>  <smiles>  (15) 
Cc1ccc(S(=O)(=O)c2ccc(NC(=O)c3ccccc3)cc2)cc1S(=O)(=O)Nc1c(C)n(C)n(C)c1=O

>  <score_type>  (15) 
oracle

>  <origin>  (15) 
adgpu

>  <m_score__min__energy>  (15) 
-13.41

>  <m_primary>  (15) 
energy

$$$$
15:0
     RDKit          3D

 43 45  0  0  0  0  0  0  0  0999 V2000
    2.0920   20.8930  -34.6550 O   0  0  0  0  0  0  0  0  0  0  0  0
    0.5940   21.0300  -34.6780 S   0  0  0  0  0  0  0  0  0  0  0  0
    0.2450   22.4170  -35.1410 O   0  0  0  0  0  0  0  0  0  0  0  0
   -0.0130   20.7720  -33.0440 C   0  0  0  0  0  0  0  0  0  0  0  0
   -1.3210   21.1370  -32.6980 C   0  0  0  0  0  0  0  0  0  0  0  0
   -1.7950   20.9140  -31.4020 C   0  0  0  0  0  0  0  0  0  0  0  0
   -0.9650   20.3200  -30.4310 C   0  0  0  0  0  0  0  0  0  0  0  0
   -1.4220   20.0760  -29.0880 N   0  0  0  0  0  0  0  0  0  0  0  0
   -2.4200   20.9100  -28.4150 C   0  0  0  0  0  0  0  0  0  0  0  0
   -2.1220   22.3700  -28.6300 C   0  0  0  0  0  0  0  0  0  0  0  0
   -2.9950   23.1660  -29.3890 C   0  0  0  0  0  0  0  0  0  0  0  0
   -2.6990   24.5130  -29.6210 C   0  0  0  0  0  0  0  0  0  0  0  0
   -3.5750   25.2940  -30.3660 O   0  0  0  0  0  0  0  0  0  0  0  0
   -1.5230   25.0720  -29.1060 C   0  0  0  0  0  0  0  0  0  0  0  0
   -1.2300   26.4120  -29.3350 O   0  0  0  0  0  0  0  0  0  0  0  0
   -0.6400   24.2790  -28.3620 C   0  0  0  0  0  0  0  0  0  0  0  0
    0.5320   24.8270  -27.8550 O   0  0  0  0  0  0  0  0  0  0  0  0
   -0.9360   22.9310  -28.1310 C   0  0  0  0  0  0  0  0  0  0  0  0
    0.3440   19.9550  -30.7890 C   0  0  0  0  0  0  0  0  0  0  0  0
    0.8150   20.1780  -32.0850 C   0  0  0  0  0  0  0  0  0  0  0  0
   -0.1080   19.8310  -35.7430 N   0  0  0  0  0  0  0  0  0  0  0  0
    0.7990   19.4860  -36.8600 C   0  0  0  0  0  0  0  0  0  0  0  0
    1.5650   18.1720  -36.6210 C   0  0  0  0  0  0  0  0  0  0  0  0
    1.8250   18.0010  -35.2470 O   0  0  0  0  0  0  0  0  0  0  0  0
    0.6190   17.7480  -34.5480 C   0  0  0  0  0  0  0  0  0  0  0  0
   -0.5600   18.6420  -35.0010 C   0  0  0  0  0  0  0  0  0  0  0  0
   -1.9773   21.6008  -33.4492 H   0  0  0  0  0  0  0  0  0  0  0  0
   -2.8228   21.2042  -31.1386 H   0  0  0  0  0  0  0  0  0  0  0  0
   -1.0180   19.2600  -28.5720 H   0  0  0  0  0  0  0  0  0  0  0  0
   -3.4162   20.6807  -28.8213 H   0  0  0  0  0  0  0  0  0  0  0  0
   -2.3910   20.6971  -27.3362 H   0  0  0  0  0  0  0  0  0  0  0  0
   -3.9154   22.7283  -29.8028 H   0  0  0  0  0  0  0  0  0  0  0  0
   -0.2357   22.3078  -27.5555 H   0  0  0  0  0  0  0  0  0  0  0  0
    1.0037   19.4895  -30.0419 H   0  0  0  0  0  0  0  0  0  0  0  0
    1.8410   19.8855  -32.3528 H   0  0  0  0  0  0  0  0  0  0  0  0
    0.2025   19.3832  -37.7785 H   0  0  0  0  0  0  0  0  0  0  0  0
    1.5422   20.2925  -36.9449 H   0  0  0  0  0  0  0  0  0  0  0  0
    0.9599   17.3280  -36.9837 H   0  0  0  0  0  0  0  0  0  0  0  0
    2.5208   18.2110  -37.1641 H   0  0  0  0  0  0  0  0  0  0  0  0
    0.3389   16.6963  -34.7074 H   0  0  0  0  0  0  0  0  0  0  0  0
    0.8071   17.9754  -33.4883 H   0  0  0  0  0  0  0  0  0  0  0  0
   -1.2228   18.0510  -35.6501 H   0  0  0  0  0  0  0  0  0  0  0  0
   -1.0851   18.9884  -34.0987 H   0  0  0  0  0  0  0  0  0  0  0  0
  1  2  2  0
  2  3  2  0
  2  4  1  0
  4  5  2  0
  5  6  1  0
  6  7  2  0
  7  8  1  0
  8  9  1  0
  9 10  1  0
 10 11  2  0
 11 12  1  0
 12 13  1  0
 12 14  2  0
 14 15  1  0
 14 16  1  0
 16 17  1  0
 16 18  2  0
  7 19  1  0
 19 20  2  0
  2 21  1  0
 21 22  1  0
 22 23  1  0
 23 24  1  0
 24 25  1  0
 25 26  1  0
 20  4  1  0
 26 21  1  0
 18 10  1  0
  5 27  1  0
  6 28  1  0
  8 29  1  0
  9 30  1  0
  9 31  1  0
 11 32  1  0
 18 33  1  0
 19 34  1  0
 20 35  1  0
 22 36  1  0
 22 37  1  0
 23 38  1  0
 23 39  1  0
 25 40  1  0
 25 41  1  0
 26 42  1  0
 26 43  1  0
M  CHG  3  13  -1  15  -1  17  -1
M  END
>  <UniqueID>  (16) 
16

>  <SMILES>  (16) 
O=S(=O)(c1ccc(NCc2cc([O-])c([O-])c([O-])c2)cc1)N1CCOCC1

>  <Energy>  (16) 
55.50157056729661

>  <Genealogy>  (16) 
O=S(=O)(c1ccc(NCc2cc([O-])c([O-])c([O-])c2)cc1)N1CCOCC1 (protonated)
O=S(=O)(c1ccc(NCc2cc([O-])c([O-])c([O-])c2)cc1)N1CCOCC1 (3D coordinates assigned)
O=S(=O)(c1ccc(NCc2cc([O-])c([O-])c([O-])c2)cc1)N1CCOCC1 (nonaromatic ring conformer: 55.50157056729661 kcal/mol)

>  <smiles>  (16) 
O=S(=O)(c1ccc(NCc2cc(O)c(O)c(O)c2)cc1)N1CCOCC1

>  <score_type>  (16) 
oracle

>  <origin>  (16) 
adgpu

>  <m_score__min__energy>  (16) 
-13.59

>  <m_primary>  (16) 
energy

$$$$
16:0
     RDKit          3D

 68 71  0  0  0  0  0  0  0  0999 V2000
   -4.4460   15.4370  -33.5470 C   0  0  0  0  0  0  0  0  0  0  0  0
   -5.4680   16.4050  -33.0300 C   0  0  0  0  0  0  0  0  0  0  0  0
   -5.5630   16.6650  -31.6540 C   0  0  0  0  0  0  0  0  0  0  0  0
   -6.5030   17.5810  -31.1740 C   0  0  0  0  0  0  0  0  0  0  0  0
   -7.3660   18.2400  -32.0650 C   0  0  0  0  0  0  0  0  0  0  0  0
   -8.3780   19.1430  -31.5970 N   0  0  0  0  0  0  0  0  0  0  0  0
   -8.7130   20.4060  -32.1900 C   0  0  0  0  0  0  0  0  0  0  0  0
   -9.9240   20.7330  -32.2820 O   0  0  0  0  0  0  0  0  0  0  0  0
   -7.7100   21.3130  -32.6710 N   0  0  0  0  0  0  0  0  0  0  0  0
   -6.5680   21.7780  -31.9370 C   0  0  0  0  0  0  0  0  0  0  0  0
   -6.7520   22.7960  -30.9940 C   0  0  0  0  0  0  0  0  0  0  0  0
   -5.6640   23.3200  -30.2950 C   0  0  0  0  0  0  0  0  0  0  0  0
   -4.3730   22.8370  -30.5390 C   0  0  0  0  0  0  0  0  0  0  0  0
   -3.2160   23.4090  -29.8180 C   0  0  0  0  0  0  0  0  0  0  0  0
   -2.9990   24.7930  -29.8170 C   0  0  0  0  0  0  0  0  0  0  0  0
   -3.8620   25.6480  -30.4940 O   0  0  0  0  0  0  0  0  0  0  0  0
   -1.9470   25.3130  -29.1380 N   0  0  0  0  0  0  0  0  0  0  0  0
   -1.0630   24.5450  -28.4470 C   0  0  0  0  0  0  0  0  0  0  0  0
    0.0730   25.2470  -27.7420 C   0  0  0  0  0  0  0  0  0  0  0  0
   -0.3590   25.7520  -26.3880 C   0  0  0  0  0  0  0  0  0  0  0  0
   -0.3190   24.9080  -25.2620 C   0  0  0  0  0  0  0  0  0  0  0  0
   -0.7170   25.3860  -24.0090 C   0  0  0  0  0  0  0  0  0  0  0  0
   -1.1580   26.7050  -23.8680 C   0  0  0  0  0  0  0  0  0  0  0  0
   -1.2100   27.5470  -24.9820 C   0  0  0  0  0  0  0  0  0  0  0  0
   -0.8160   27.0740  -26.2370 C   0  0  0  0  0  0  0  0  0  0  0  0
   -1.2180   23.1360  -28.4400 C   0  0  0  0  0  0  0  0  0  0  0  0
   -0.2600   22.2480  -27.6830 C   0  0  0  0  0  0  0  0  0  0  0  0
   -2.3200   22.5770  -29.1230 C   0  0  0  0  0  0  0  0  0  0  0  0
   -2.5030   21.3280  -29.1200 O   0  0  0  0  0  0  0  0  0  0  0  0
   -4.1850   21.7940  -31.4550 C   0  0  0  0  0  0  0  0  0  0  0  0
   -5.2830   21.2230  -32.1180 C   0  0  0  0  0  0  0  0  0  0  0  0
   -5.1060   20.0800  -32.9660 N   0  0  0  0  0  0  0  0  0  0  0  0
   -3.8510   19.4880  -33.3320 C   0  0  0  0  0  0  0  0  0  0  0  0
   -3.7000   19.0740  -34.5110 O   0  0  0  0  0  0  0  0  0  0  0  0
   -2.7220   19.3100  -32.3480 C   0  0  0  0  0  0  0  0  0  0  0  0
   -1.5190   20.0510  -32.7790 N   0  0  0  0  0  0  0  0  0  0  0  0
   -1.8810   21.1850  -33.6460 C   0  0  0  0  0  0  0  0  0  0  0  0
   -0.7700   20.5360  -31.6110 C   0  0  0  0  0  0  0  0  0  0  0  0
   -7.2310   18.0240  -33.4400 C   0  0  0  0  0  0  0  0  0  0  0  0
   -6.2900   17.1090  -33.9220 C   0  0  0  0  0  0  0  0  0  0  0  0
   -3.9365   14.9544  -32.6999 H   0  0  0  0  0  0  0  0  0  0  0  0
   -4.9435   14.6712  -34.1602 H   0  0  0  0  0  0  0  0  0  0  0  0
   -3.7083   15.9753  -34.1602 H   0  0  0  0  0  0  0  0  0  0  0  0
   -4.8951   16.1459  -30.9508 H   0  0  0  0  0  0  0  0  0  0  0  0
   -6.5672   17.7865  -30.0953 H   0  0  0  0  0  0  0  0  0  0  0  0
   -7.7625   23.1860  -30.8025 H   0  0  0  0  0  0  0  0  0  0  0  0
   -5.8211   24.1144  -29.5505 H   0  0  0  0  0  0  0  0  0  0  0  0
    0.9069   24.5413  -27.6132 H   0  0  0  0  0  0  0  0  0  0  0  0
    0.3857   26.1068  -28.3527 H   0  0  0  0  0  0  0  0  0  0  0  0
    0.0264   23.8690  -25.3678 H   0  0  0  0  0  0  0  0  0  0  0  0
   -0.6829   24.7223  -23.1325 H   0  0  0  0  0  0  0  0  0  0  0  0
   -1.4640   27.0801  -22.8802 H   0  0  0  0  0  0  0  0  0  0  0  0
   -1.5615   28.5834  -24.8712 H   0  0  0  0  0  0  0  0  0  0  0  0
   -0.8635   27.7393  -27.1117 H   0  0  0  0  0  0  0  0  0  0  0  0
   -0.4087   22.3858  -26.6018 H   0  0  0  0  0  0  0  0  0  0  0  0
   -0.4472   21.1969  -27.9478 H   0  0  0  0  0  0  0  0  0  0  0  0
    0.7739   22.5143  -27.9478 H   0  0  0  0  0  0  0  0  0  0  0  0
   -3.1703   21.4198  -31.6562 H   0  0  0  0  0  0  0  0  0  0  0  0
   -3.0409   19.6840  -31.3639 H   0  0  0  0  0  0  0  0  0  0  0  0
   -2.4722   18.2402  -32.2927 H   0  0  0  0  0  0  0  0  0  0  0  0
   -2.1568   22.0490  -33.0236 H   0  0  0  0  0  0  0  0  0  0  0  0
   -1.0227   21.4497  -34.2810 H   0  0  0  0  0  0  0  0  0  0  0  0
   -2.7339   20.9034  -34.2810 H   0  0  0  0  0  0  0  0  0  0  0  0
   -1.2749   20.2091  -30.6900 H   0  0  0  0  0  0  0  0  0  0  0  0
    0.2509   20.1271  -31.6344 H   0  0  0  0  0  0  0  0  0  0  0  0
   -0.7254   21.6348  -31.6344 H   0  0  0  0  0  0  0  0  0  0  0  0
   -7.8683   18.5767  -34.1459 H   0  0  0  0  0  0  0  0  0  0  0  0
   -6.1941   16.9407  -35.0048 H   0  0  0  0  0  0  0  0  0  0  0  0
  1  2  1  0
  2  3  2  0
  3  4  1  0
  4  5  2  0
  5  6  1  0
  6  7  1  0
  7  8  2  0
  7  9  1  0
  9 10  1  0
 10 11  2  0
 11 12  1  0
 12 13  2  0
 13 14  1  0
 14 15  2  0
 15 16  1  0
 15 17  1  0
 17 18  1  0
 18 19  1  0
 19 20  1  0
 20 21  2  0
 21 22  1  0
 22 23  2  0
 23 24  1  0
 24 25  2  0
 18 26  2  0
 26 27  1  0
 26 28  1  0
 28 29  2  0
 13 30  1  0
 30 31  2  0
 31 32  1  0
 32 33  1  0
 33 34  2  0
 33 35  1  0
 35 36  1  0
 36 37  1  0
 36 38  1  0
  5 39  1  0
 39 40  2  0
 40  2  1  0
 31 10  1  0
 28 14  1  0
 25 20  1  0
  1 41  1  0
  1 42  1  0
  1 43  1  0
  3 44  1  0
  4 45  1  0
 11 46  1  0
 12 47  1  0
 19 48  1  0
 19 49  1  0
 21 50  1  0
 22 51  1  0
 23 52  1  0
 24 53  1  0
 25 54  1  0
 27 55  1  0
 27 56  1  0
 27 57  1  0
 30 58  1  0
 35 59  1  0
 35 60  1  0
 37 61  1  0
 37 62  1  0
 37 63  1  0
 38 64  1  0
 38 65  1  0
 38 66  1  0
 39 67  1  0
 40 68  1  0
M  CHG  5   6  -1   9  -1  16  -1  17  -1  32  -1
M  END
>  <UniqueID>  (17) 
17

>  <SMILES>  (17) 
Cc1ccc([N-]C(=O)[N-]c2ccc(-c3c([O-])[n-]c(Cc4ccccc4)c(C)c3=O)cc2[N-]C(=O)CN(C)C)cc1

>  <Energy>  (17) 
92.17191872887855

>  <Genealogy>  (17) 
Cc1ccc([N-]C(=O)[N-]c2ccc(-c3c([O-])[n-]c(Cc4ccccc4)c(C)c3=O)cc2[N-]C(=O)CN(C)C)cc1 (protonated)
Cc1ccc([N-]C(=O)[N-]c2ccc(-c3c([O-])[n-]c(Cc4ccccc4)c(C)c3=O)cc2[N-]C(=O)CN(C)C)cc1 (3D coordinates assigned)
Cc1ccc([N-]C(=O)[N-]c2ccc(-c3c([O-])[n-]c(Cc4ccccc4)c(C)c3=O)cc2[N-]C(=O)CN(C)C)cc1 (optimized conformer: 92.17191872887855 kcal/mol)

>  <smiles>  (17) 
Cc1ccc(NC(=O)Nc2ccc(-c3c(O)[nH]c(Cc4ccccc4)c(C)c3=O)cc2NC(=O)CN(C)C)cc1

>  <score_type>  (17) 
oracle

>  <origin>  (17) 
adgpu

>  <m_score__min__energy>  (17) 
-14.58

>  <m_primary>  (17) 
energy

$$$$
17:0
     RDKit          3D

 37 39  0  0  0  0  0  0  0  0999 V2000
   -3.3170   25.6110  -31.5990 H   0  0  0  0  0  0  0  0  0  0  0  0
   -3.6560   25.2890  -30.7010 O   0  0  0  0  0  0  0  0  0  0  0  0
   -4.8480   25.7230  -30.1520 N   0  0  0  0  0  0  0  0  0  0  0  0
   -4.8580   26.6800  -29.7330 H   0  0  0  0  0  0  0  0  0  0  0  0
   -5.9240   24.9850  -30.0820 C   0  0  0  0  0  0  0  0  0  0  0  0
   -6.0080   23.6560  -30.7240 C   0  0  0  0  0  0  0  0  0  0  0  0
   -7.0540   23.3730  -31.6160 C   0  0  0  0  0  0  0  0  0  0  0  0
   -7.8252   24.1322  -31.8132 H   0  0  0  0  0  0  0  0  0  0  0  0
   -7.1210   22.1320  -32.2550 C   0  0  0  0  0  0  0  0  0  0  0  0
   -7.9518   21.9146  -32.9424 H   0  0  0  0  0  0  0  0  0  0  0  0
   -6.1330   21.1610  -32.0240 C   0  0  0  0  0  0  0  0  0  0  0  0
   -6.2050   19.8780  -32.6760 N   0  0  0  0  0  0  0  0  0  0  0  0
   -7.4620   19.1780  -32.6690 C   0  0  0  0  0  0  0  0  0  0  0  0
   -8.3704   19.7069  -32.3450 H   0  0  0  0  0  0  0  0  0  0  0  0
   -7.5500   17.9010  -33.0470 C   0  0  0  0  0  0  0  0  0  0  0  0
   -8.5317   17.4048  -33.0531 H   0  0  0  0  0  0  0  0  0  0  0  0
   -6.3510   17.1440  -33.4570 C   0  0  0  0  0  0  0  0  0  0  0  0
   -6.4580   15.7720  -33.7290 C   0  0  0  0  0  0  0  0  0  0  0  0
   -7.4384   15.2767  -33.6700 H   0  0  0  0  0  0  0  0  0  0  0  0
   -5.3260   15.0330  -34.0740 C   0  0  0  0  0  0  0  0  0  0  0  0
   -5.4172   13.9593  -34.2950 H   0  0  0  0  0  0  0  0  0  0  0  0
   -4.0790   15.6540  -34.1390 C   0  0  0  0  0  0  0  0  0  0  0  0
   -3.1867   15.0657  -34.3990 H   0  0  0  0  0  0  0  0  0  0  0  0
   -3.9590   17.0210  -33.8750 C   0  0  0  0  0  0  0  0  0  0  0  0
   -2.9705   17.5016  -33.9191 H   0  0  0  0  0  0  0  0  0  0  0  0
   -5.0990   17.7890  -33.5520 C   0  0  0  0  0  0  0  0  0  0  0  0
   -5.0430   19.2560  -33.2830 C   0  0  0  0  0  0  0  0  0  0  0  0
   -4.0100   20.0100  -33.6980 C   0  0  0  0  0  0  0  0  0  0  0  0
   -3.9962   21.0891  -33.4850 H   0  0  0  0  0  0  0  0  0  0  0  0
   -3.1787   19.5478  -34.2505 H   0  0  0  0  0  0  0  0  0  0  0  0
   -5.0800   21.4490  -31.1420 C   0  0  0  0  0  0  0  0  0  0  0  0
   -4.3037   20.6932  -30.9519 H   0  0  0  0  0  0  0  0  0  0  0  0
   -5.0120   22.6900  -30.5040 C   0  0  0  0  0  0  0  0  0  0  0  0
   -4.1746   22.9118  -29.8261 H   0  0  0  0  0  0  0  0  0  0  0  0
   -7.0700   25.4780  -29.3760 N   0  0  0  0  0  0  0  0  0  0  0  0
   -7.9510   24.9190  -29.3360 H   0  0  0  0  0  0  0  0  0  0  0  0
   -7.0490   26.4060  -28.8990 H   0  0  0  0  0  0  0  0  0  0  0  0
  1  2  1  0
  2  3  1  0
  3  4  1  0
  3  5  2  0
  5  6  1  0
  6  7  2  0
  7  8  1  0
  7  9  1  0
  9 10  1  0
  9 11  2  0
 11 12  1  0
 12 13  1  0
 13 14  1  0
 13 15  2  0
 15 16  1  0
 15 17  1  0
 17 18  2  0
 18 19  1  0
 18 20  1  0
 20 21  1  0
 20 22  2  0
 22 23  1  0
 22 24  1  0
 24 25  1  0
 24 26  2  0
 26 27  1  0
 27 28  2  0
 28 29  1  0
 28 30  1  0
 11 31  1  0
 31 32  1  0
 31 33  2  0
 33 34  1  0
  5 35  1  0
 35 36  1  0
 35 37  1  0
 33  6  1  0
 27 12  1  0
 26 17  1  0
M  CHG  1   3   1
M  END
>  <UniqueID>  (18) 
18

>  <SMILES>  (18) 
C=C1c2ccccc2C=CN1c1ccc(/C(N)=[NH+]\O)cc1

>  <Energy>  (18) 
57.23149173900187

>  <Genealogy>  (18) 
C=C1c2ccccc2C=CN1c1ccc(C(N)=[NH+]O)cc1 (protonated)
C=C1c2ccccc2C=CN1c1ccc(/C(N)=[NH+]\O)cc1 (cis-trans isomerization)
C=C1c2ccccc2C=CN1c1ccc(/C(N)=[NH+]\O)cc1 (3D coordinates assigned)
C=C1c2ccccc2C=CN1c1ccc(/C(N)=[NH+]\O)cc1 (nonaromatic ring conformer: 57.23149173900187 kcal/mol)

>  <smiles>  (18) 
C=C1c2ccccc2C=CN1c1ccc(C(N)=NO)cc1

>  <score_type>  (18) 
oracle

>  <origin>  (18) 
adgpu

>  <m_score__min__energy>  (18) 
-8.6400000000000006

>  <m_primary>  (18) 
energy

$$$$
18:0
     RDKit          3D

 46 49  0  0  0  0  0  0  0  0999 V2000
    0.9350   20.0880  -31.7260 O   0  0  0  0  0  0  0  0  0  0  0  0
   -0.2970   20.1410  -31.4610 C   0  0  0  0  0  0  0  0  0  0  0  0
   -0.7460   20.7850  -30.2590 N   0  0  0  0  0  0  0  0  0  0  0  0
   -1.7160   21.8390  -30.1640 C   0  0  0  0  0  0  0  0  0  0  0  0
   -3.0380   21.5640  -30.5210 C   0  0  0  0  0  0  0  0  0  0  0  0
   -4.0120   22.5640  -30.4620 C   0  0  0  0  0  0  0  0  0  0  0  0
   -3.6770   23.8700  -30.0610 C   0  0  0  0  0  0  0  0  0  0  0  0
   -4.7370   24.9090  -30.0080 C   0  0  0  0  0  0  0  0  0  0  0  0
   -4.5560   26.0480  -30.5160 O   0  0  0  0  0  0  0  0  0  0  0  0
   -5.9540   24.6390  -29.3930 O   0  0  0  0  0  0  0  0  0  0  0  0
   -2.3340   24.1530  -29.7260 C   0  0  0  0  0  0  0  0  0  0  0  0
   -1.9420   25.4310  -29.3410 O   0  0  0  0  0  0  0  0  0  0  0  0
   -1.3650   23.1440  -29.7850 C   0  0  0  0  0  0  0  0  0  0  0  0
   -1.2750   19.4900  -32.3630 C   0  0  0  0  0  0  0  0  0  0  0  0
   -2.0040   20.2490  -33.2980 C   0  0  0  0  0  0  0  0  0  0  0  0
   -2.9240   19.6320  -34.1490 C   0  0  0  0  0  0  0  0  0  0  0  0
   -3.1420   18.2480  -34.0750 C   0  0  0  0  0  0  0  0  0  0  0  0
   -4.1010   17.5780  -35.0140 C   0  0  0  0  0  0  0  0  0  0  0  0
   -5.7770   18.2370  -34.7360 S   0  0  0  0  0  0  0  0  0  0  0  0
   -5.8460   17.6690  -33.0350 C   0  0  0  0  0  0  0  0  0  0  0  0
   -5.4080   16.4620  -32.6350 N   0  0  0  0  0  0  0  0  0  0  0  0
   -5.7320   16.3860  -31.3510 N   0  0  0  0  0  0  0  0  0  0  0  0
   -6.3530   17.4940  -30.9730 N   0  0  0  0  0  0  0  0  0  0  0  0
   -6.4270   18.3160  -32.0060 N   0  0  0  0  0  0  0  0  0  0  0  0
   -7.0970   19.5860  -31.9880 C   0  0  0  0  0  0  0  0  0  0  0  0
   -6.3510   20.7710  -32.1010 C   0  0  0  0  0  0  0  0  0  0  0  0
   -6.9900   22.0150  -32.0760 C   0  0  0  0  0  0  0  0  0  0  0  0
   -8.3800   22.0850  -31.9500 C   0  0  0  0  0  0  0  0  0  0  0  0
   -9.1320   20.9120  -31.8580 C   0  0  0  0  0  0  0  0  0  0  0  0
   -8.4970   19.6670  -31.8820 C   0  0  0  0  0  0  0  0  0  0  0  0
   -2.4080   17.4850  -33.1550 C   0  0  0  0  0  0  0  0  0  0  0  0
   -1.4870   18.1000  -32.3040 C   0  0  0  0  0  0  0  0  0  0  0  0
   -3.3146   20.5519  -30.8513 H   0  0  0  0  0  0  0  0  0  0  0  0
   -5.0518   22.3275  -30.7320 H   0  0  0  0  0  0  0  0  0  0  0  0
   -0.3199   23.3760  -29.5322 H   0  0  0  0  0  0  0  0  0  0  0  0
   -1.8480   21.3362  -33.3589 H   0  0  0  0  0  0  0  0  0  0  0  0
   -3.4809   20.2348  -34.8815 H   0  0  0  0  0  0  0  0  0  0  0  0
   -3.7964   17.7750  -36.0525 H   0  0  0  0  0  0  0  0  0  0  0  0
   -4.0971   16.4931  -34.8321 H   0  0  0  0  0  0  0  0  0  0  0  0
   -5.2576   20.7203  -32.2098 H   0  0  0  0  0  0  0  0  0  0  0  0
   -6.3981   22.9387  -32.1556 H   0  0  0  0  0  0  0  0  0  0  0  0
   -8.8815   23.0637  -31.9233 H   0  0  0  0  0  0  0  0  0  0  0  0
  -10.2268   20.9679  -31.7664 H   0  0  0  0  0  0  0  0  0  0  0  0
   -9.0952   18.7461  -31.8177 H   0  0  0  0  0  0  0  0  0  0  0  0
   -2.5585   16.3966  -33.1035 H   0  0  0  0  0  0  0  0  0  0  0  0
   -0.9224   17.4926  -31.5813 H   0  0  0  0  0  0  0  0  0  0  0  0
  1  2  2  0
  2  3  1  0
  3  4  1  0
  4  5  2  0
  5  6  1  0
  6  7  2  0
  7  8  1  0
  8  9  2  0
  8 10  1  0
  7 11  1  0
 11 12  1  0
 11 13  2  0
  2 14  1  0
 14 15  2  0
 15 16  1  0
 16 17  2  0
 17 18  1  0
 18 19  1  0
 19 20  1  0
 20 21  2  0
 21 22  1  0
 22 23  2  0
 23 24  1  0
 24 25  1  0
 25 26  2  0
 26 27  1  0
 27 28  2  0
 28 29  1  0
 29 30  2  0
 17 31  1  0
 31 32  2  0
 13  4  1  0
 32 14  1  0
 24 20  1  0
 30 25  1  0
  5 33  1  0
  6 34  1  0
 13 35  1  0
 15 36  1  0
 16 37  1  0
 18 38  1  0
 18 39  1  0
 26 40  1  0
 27 41  1  0
 28 42  1  0
 29 43  1  0
 30 44  1  0
 31 45  1  0
 32 46  1  0
M  CHG  3   3  -1  10  -1  12  -1
M  END
>  <UniqueID>  (19) 
19

>  <SMILES>  (19) 
O=C([N-]c1ccc(C(=O)[O-])c([O-])c1)c1ccc(CSc2nnnn2-c2ccccc2)cc1

>  <Energy>  (19) 
97.82137882181276

>  <Genealogy>  (19) 
O=C([N-]c1ccc(C(=O)[O-])c([O-])c1)c1ccc(CSc2nnnn2-c2ccccc2)cc1 (protonated)
O=C([N-]c1ccc(C(=O)[O-])c([O-])c1)c1ccc(CSc2nnnn2-c2ccccc2)cc1 (3D coordinates assigned)
O=C([N-]c1ccc(C(=O)[O-])c([O-])c1)c1ccc(CSc2nnnn2-c2ccccc2)cc1 (optimized conformer: 97.82137882181276 kcal/mol)

>  <smiles>  (19) 
O=C(Nc1ccc(C(=O)O)c(O)c1)c1ccc(CSc2nnnn2-c2ccccc2)cc1

>  <score_type>  (19) 
oracle

>  <origin>  (19) 
adgpu

>  <m_score__min__energy>  (19) 
-13.539999999999999

>  <m_primary>  (19) 
energy

$$$$
19:0
     RDKit          3D

 34 36  0  0  0  0  0  0  0  0999 V2000
   -0.4973   25.5514  -29.7245 H   0  0  0  0  0  0  0  0  0  0  0  0
   -1.2010   25.1660  -28.9720 C   0  0  0  0  0  0  0  0  0  0  0  0
   -2.5030   24.9550  -29.3030 N   0  0  0  0  0  0  0  0  0  0  0  0
   -3.4090   24.4790  -28.4000 C   0  0  0  0  0  0  0  0  0  0  0  0
   -4.6490   24.2910  -28.7380 N   0  0  0  0  0  0  0  0  0  0  0  0
   -5.2790   24.6150  -30.3210 S   0  0  0  0  0  0  0  0  0  0  0  0
   -6.5890   25.3400  -30.1870 O   0  0  0  0  0  0  0  0  0  0  0  0
   -4.3110   25.4840  -31.0720 O   0  0  0  0  0  0  0  0  0  0  0  0
   -5.4950   23.1050  -31.2030 C   0  0  0  0  0  0  0  0  0  0  0  0
   -4.3760   22.3840  -31.6360 C   0  0  0  0  0  0  0  0  0  0  0  0
   -3.3653   22.7666  -31.4308 H   0  0  0  0  0  0  0  0  0  0  0  0
   -4.5370   21.1800  -32.3280 C   0  0  0  0  0  0  0  0  0  0  0  0
   -3.6519   20.6186  -32.6618 H   0  0  0  0  0  0  0  0  0  0  0  0
   -5.8250   20.6820  -32.6000 C   0  0  0  0  0  0  0  0  0  0  0  0
   -6.0220   19.4090  -33.3290 C   0  0  0  0  0  0  0  0  0  0  0  0
   -5.7570   19.2440  -34.6070 O   0  0  0  0  0  0  0  0  0  0  0  0
   -6.0160   18.0290  -34.9930 N   0  0  0  0  0  0  0  0  0  0  0  0
   -6.4850   17.3720  -33.9160 C   0  0  0  0  0  0  0  0  0  0  0  0
   -6.8400   15.9240  -33.9100 C   0  0  0  0  0  0  0  0  0  0  0  0
   -6.9263   15.5719  -32.8714 H   0  0  0  0  0  0  0  0  0  0  0  0
   -7.8001   15.7797  -34.4271 H   0  0  0  0  0  0  0  0  0  0  0  0
   -6.0555   15.3520  -34.4271 H   0  0  0  0  0  0  0  0  0  0  0  0
   -6.4950   18.2110  -32.8220 C   0  0  0  0  0  0  0  0  0  0  0  0
   -6.8050   17.9827  -31.7916 H   0  0  0  0  0  0  0  0  0  0  0  0
   -6.9440   21.4150  -32.1670 C   0  0  0  0  0  0  0  0  0  0  0  0
   -7.9568   21.0395  -32.3748 H   0  0  0  0  0  0  0  0  0  0  0  0
   -6.7780   22.6180  -31.4740 C   0  0  0  0  0  0  0  0  0  0  0  0
   -7.6603   23.1840  -31.1404 H   0  0  0  0  0  0  0  0  0  0  0  0
   -2.9970   24.1940  -27.0940 C   0  0  0  0  0  0  0  0  0  0  0  0
   -3.7163   23.8072  -26.3571 H   0  0  0  0  0  0  0  0  0  0  0  0
   -1.6640   24.4050  -26.7340 C   0  0  0  0  0  0  0  0  0  0  0  0
   -1.3291   24.1867  -25.7092 H   0  0  0  0  0  0  0  0  0  0  0  0
   -0.7580   24.8930  -27.6760 C   0  0  0  0  0  0  0  0  0  0  0  0
    0.2937   25.0609  -27.4010 H   0  0  0  0  0  0  0  0  0  0  0  0
  1  2  1  0
  2  3  1  0
  3  4  1  0
  4  5  2  0
  5  6  1  0
  6  7  2  0
  6  8  2  0
  6  9  1  0
  9 10  2  0
 10 11  1  0
 10 12  1  0
 12 13  1  0
 12 14  2  0
 14 15  1  0
 15 16  1  0
 16 17  1  0
 17 18  2  0
 18 19  1  0
 19 20  1  0
 19 21  1  0
 19 22  1  0
 18 23  1  0
 23 24  1  0
 14 25  1  0
 25 26  1  0
 25 27  2  0
 27 28  1  0
  4 29  1  0
 29 30  1  0
 29 31  2  0
 31 32  1  0
 31 33  1  0
 33 34  1  0
 33  2  2  0
 27  9  1  0
 23 15  2  0
M  CHG  1   3  -1
M  END
>  <UniqueID>  (20) 
20

>  <SMILES>  (20) 
Cc1cc(-c2ccc(S(=O)(=O)/N=c3/cccc[n-]3)cc2)on1

>  <Energy>  (20) 
70.03144848710397

>  <Genealogy>  (20) 
Cc1cc(-c2ccc(S(=O)(=O)N=c3cccc[n-]3)cc2)on1 (protonated)
Cc1cc(-c2ccc(S(=O)(=O)/N=c3/cccc[n-]3)cc2)on1 (cis-trans isomerization)
Cc1cc(-c2ccc(S(=O)(=O)/N=c3/cccc[n-]3)cc2)on1 (3D coordinates assigned)
Cc1cc(-c2ccc(S(=O)(=O)/N=c3/cccc[n-]3)cc2)on1 (optimized conformer: 70.03144848710397 kcal/mol)

>  <smiles>  (20) 
Cc1cc(-c2ccc(S(=O)(=O)N=c3cccc[nH]3)cc2)on1

>  <score_type>  (20) 
oracle

>  <origin>  (20) 
adgpu

>  <m_score__min__energy>  (20) 
-9.9600000000000009

>  <m_primary>  (20) 
energy

$$$$
20:0
     RDKit          3D

 44 47  0  0  0  0  0  0  0  0999 V2000
   -0.3436   25.6129  -28.4674 H   0  0  0  0  0  0  0  0  0  0  0  0
   -1.0390   24.9290  -28.9760 C   0  0  0  0  0  0  0  0  0  0  0  0
   -2.3270   25.2990  -29.1720 N   0  0  0  0  0  0  0  0  0  0  0  0
   -3.2330   24.4670  -29.7490 C   0  0  0  0  0  0  0  0  0  0  0  0
   -4.5630   24.8880  -29.8600 C   0  0  0  0  0  0  0  0  0  0  0  0
   -4.8400   25.9119  -29.5688 H   0  0  0  0  0  0  0  0  0  0  0  0
   -5.5390   24.0130  -30.3390 C   0  0  0  0  0  0  0  0  0  0  0  0
   -7.2080   24.5400  -30.4610 Cl  0  0  0  0  0  0  0  0  0  0  0  0
   -5.1940   22.7030  -30.6700 C   0  0  0  0  0  0  0  0  0  0  0  0
   -5.9708   22.0025  -31.0103 H   0  0  0  0  0  0  0  0  0  0  0  0
   -3.8680   22.2750  -30.5720 C   0  0  0  0  0  0  0  0  0  0  0  0
   -3.6172   21.2283  -30.7988 H   0  0  0  0  0  0  0  0  0  0  0  0
   -2.8440   23.1700  -30.1850 C   0  0  0  0  0  0  0  0  0  0  0  0
   -1.4580   22.8200  -30.0980 C   0  0  0  0  0  0  0  0  0  0  0  0
   -0.9090   21.7650  -30.6450 N   0  0  0  0  0  0  0  0  0  0  0  0
   -1.4160   20.8750  -31.6470 C   0  0  0  0  0  0  0  0  0  0  0  0
   -2.0930   21.3990  -32.7540 C   0  0  0  0  0  0  0  0  0  0  0  0
   -2.1944   22.4884  -32.8677 H   0  0  0  0  0  0  0  0  0  0  0  0
   -2.6410   20.5460  -33.7160 C   0  0  0  0  0  0  0  0  0  0  0  0
   -3.1441   20.9666  -34.5992 H   0  0  0  0  0  0  0  0  0  0  0  0
   -2.5510   19.1500  -33.5580 C   0  0  0  0  0  0  0  0  0  0  0  0
   -3.0730   18.2380  -34.5360 N   0  0  0  0  0  0  0  0  0  0  0  0
   -4.4550   17.9560  -34.7910 C   0  0  0  0  0  0  0  0  0  0  0  0
   -4.7990   17.4360  -35.8870 O   0  0  0  0  0  0  0  0  0  0  0  0
   -5.4960   18.3640  -33.8160 C   0  0  0  0  0  0  0  0  0  0  0  0
   -6.1120   19.6190  -33.9820 C   0  0  0  0  0  0  0  0  0  0  0  0
   -5.8313   20.2533  -34.8358 H   0  0  0  0  0  0  0  0  0  0  0  0
   -7.0740   20.0680  -33.0770 C   0  0  0  0  0  0  0  0  0  0  0  0
   -7.5444   21.0521  -33.2192 H   0  0  0  0  0  0  0  0  0  0  0  0
   -7.4400   19.2730  -31.9940 C   0  0  0  0  0  0  0  0  0  0  0  0
   -8.1904   19.6348  -31.2756 H   0  0  0  0  0  0  0  0  0  0  0  0
   -6.8560   18.0180  -31.8190 C   0  0  0  0  0  0  0  0  0  0  0  0
   -7.1489   17.3966  -30.9599 H   0  0  0  0  0  0  0  0  0  0  0  0
   -5.8970   17.5390  -32.7290 C   0  0  0  0  0  0  0  0  0  0  0  0
   -5.3340   16.1580  -32.5160 C   0  0  0  0  0  0  0  0  0  0  0  0
   -5.2523   15.9577  -31.4375 H   0  0  0  0  0  0  0  0  0  0  0  0
   -6.0010   15.4149  -32.9775 H   0  0  0  0  0  0  0  0  0  0  0  0
   -4.3376   16.0930  -32.9775 H   0  0  0  0  0  0  0  0  0  0  0  0
   -1.8860   18.6290  -32.4430 C   0  0  0  0  0  0  0  0  0  0  0  0
   -1.7920   17.5396  -32.3230 H   0  0  0  0  0  0  0  0  0  0  0  0
   -1.3400   19.4830  -31.4800 C   0  0  0  0  0  0  0  0  0  0  0  0
   -0.8497   19.0633  -30.5893 H   0  0  0  0  0  0  0  0  0  0  0  0
   -0.5920   23.6860  -29.4160 C   0  0  0  0  0  0  0  0  0  0  0  0
    0.4480   23.3814  -29.2271 H   0  0  0  0  0  0  0  0  0  0  0  0
  1  2  1  0
  2  3  1  0
  3  4  1  0
  4  5  2  0
  5  6  1  0
  5  7  1  0
  7  8  1  0
  7  9  2  0
  9 10  1  0
  9 11  1  0
 11 12  1  0
 11 13  2  0
 13 14  1  0
 14 15  2  0
 15 16  1  0
 16 17  2  0
 17 18  1  0
 17 19  1  0
 19 20  1  0
 19 21  2  0
 21 22  1  0
 22 23  1  0
 23 24  2  0
 23 25  1  0
 25 26  2  0
 26 27  1  0
 26 28  1  0
 28 29  1  0
 28 30  2  0
 30 31  1  0
 30 32  1  0
 32 33  1  0
 32 34  2  0
 34 35  1  0
 35 36  1  0
 35 37  1  0
 35 38  1  0
 21 39  1  0
 39 40  1  0
 39 41  2  0
 41 42  1  0
 14 43  1  0
 43 44  1  0
 43  2  2  0
 13  4  1  0
 41 16  1  0
 34 25  1  0
M  CHG  2   3  -1  22  -1
M  END
>  <UniqueID>  (21) 
21

>  <SMILES>  (21) 
Cc1ccccc1C(=O)[N-]c1ccc(/N=c2/cc[n-]c3cc(Cl)ccc23)cc1

>  <Energy>  (21) 
80.43122331681987

>  <Genealogy>  (21) 
Cc1ccccc1C(=O)[N-]c1ccc(N=c2cc[n-]c3cc(Cl)ccc23)cc1 (protonated)
Cc1ccccc1C(=O)[N-]c1ccc(/N=c2/cc[n-]c3cc(Cl)ccc23)cc1 (cis-trans isomerization)
Cc1ccccc1C(=O)[N-]c1ccc(/N=c2/cc[n-]c3cc(Cl)ccc23)cc1 (3D coordinates assigned)
Cc1ccccc1C(=O)[N-]c1ccc(/N=c2/cc[n-]c3cc(Cl)ccc23)cc1 (optimized conformer: 80.43122331681987 kcal/mol)

>  <smiles>  (21) 
Cc1ccccc1C(=O)Nc1ccc(N=c2cc[nH]c3cc(Cl)ccc23)cc1

>  <score_type>  (21) 
oracle

>  <origin>  (21) 
adgpu

>  <m_score__min__energy>  (21) 
-11.460000000000001

>  <m_primary>  (21) 
energy

$$$$
21:0
     RDKit          3D

 36 37  0  0  0  0  0  0  0  0999 V2000
   -8.6480   20.3400  -32.2810 C   0  0  0  0  0  0  0  0  0  0  0  0
   -7.8490   21.4960  -31.7550 C   0  0  0  0  0  0  0  0  0  0  0  0
   -8.0180   21.9270  -30.4310 C   0  0  0  0  0  0  0  0  0  0  0  0
   -7.2450   22.9770  -29.9270 C   0  0  0  0  0  0  0  0  0  0  0  0
   -6.2850   23.5980  -30.7390 C   0  0  0  0  0  0  0  0  0  0  0  0
   -5.2910   24.9070  -30.1090 S   0  0  0  0  0  0  0  0  0  0  0  0
   -4.3780   25.3970  -31.1950 O   0  0  0  0  0  0  0  0  0  0  0  0
   -6.1520   26.0460  -29.6350 O   0  0  0  0  0  0  0  0  0  0  0  0
   -4.3430   24.3300  -28.7800 N   0  0  0  0  0  0  0  0  0  0  0  0
   -2.9140   24.2930  -28.8200 C   0  0  0  0  0  0  0  0  0  0  0  0
   -2.2780   25.2450  -29.3440 O   0  0  0  0  0  0  0  0  0  0  0  0
   -2.1950   23.1200  -28.2780 C   0  0  0  0  0  0  0  0  0  0  0  0
   -1.8240   23.1390  -26.9210 C   0  0  0  0  0  0  0  0  0  0  0  0
   -1.1790   22.0460  -26.3420 C   0  0  0  0  0  0  0  0  0  0  0  0
   -0.8910   20.9190  -27.1090 C   0  0  0  0  0  0  0  0  0  0  0  0
   -1.2320   20.8870  -28.4610 C   0  0  0  0  0  0  0  0  0  0  0  0
   -1.8720   21.9820  -29.0660 C   0  0  0  0  0  0  0  0  0  0  0  0
   -2.1900   21.9080  -30.8090 S   0  0  0  0  0  0  0  0  0  0  0  0
   -3.1700   23.2520  -31.2790 N   0  0  0  0  0  0  0  0  0  0  0  0
   -0.8930   21.9310  -31.5670 O   0  0  0  0  0  0  0  0  0  0  0  0
   -2.9120   20.6330  -31.1470 O   0  0  0  0  0  0  0  0  0  0  0  0
   -6.1090   23.1620  -32.0590 C   0  0  0  0  0  0  0  0  0  0  0  0
   -6.8790   22.1100  -32.5620 C   0  0  0  0  0  0  0  0  0  0  0  0
   -9.0500   19.7584  -31.4383 H   0  0  0  0  0  0  0  0  0  0  0  0
   -9.4787   20.7177  -32.8952 H   0  0  0  0  0  0  0  0  0  0  0  0
   -8.0011   19.6964  -32.8952 H   0  0  0  0  0  0  0  0  0  0  0  0
   -8.7622   21.4365  -29.7863 H   0  0  0  0  0  0  0  0  0  0  0  0
   -7.3901   23.3170  -28.8910 H   0  0  0  0  0  0  0  0  0  0  0  0
   -2.0452   24.0262  -26.3094 H   0  0  0  0  0  0  0  0  0  0  0  0
   -0.8975   22.0739  -25.2790 H   0  0  0  0  0  0  0  0  0  0  0  0
   -0.3939   20.0531  -26.6475 H   0  0  0  0  0  0  0  0  0  0  0  0
   -0.9974   19.9949  -29.0603 H   0  0  0  0  0  0  0  0  0  0  0  0
   -2.6060   24.1150  -31.1070 H   0  0  0  0  0  0  0  0  0  0  0  0
   -3.9810   23.2840  -30.6220 H   0  0  0  0  0  0  0  0  0  0  0  0
   -5.3616   23.6499  -32.7019 H   0  0  0  0  0  0  0  0  0  0  0  0
   -6.7243   21.7620  -33.5940 H   0  0  0  0  0  0  0  0  0  0  0  0
  1  2  1  0
  2  3  2  0
  3  4  1  0
  4  5  2  0
  5  6  1  0
  6  7  2  0
  6  8  2  0
  6  9  1  0
  9 10  1  0
 10 11  2  0
 10 12  1  0
 12 13  2  0
 13 14  1  0
 14 15  2  0
 15 16  1  0
 16 17  2  0
 17 18  1  0
 18 19  1  0
 18 20  2  0
 18 21  2  0
  5 22  1  0
 22 23  2  0
 23  2  1  0
 17 12  1  0
  1 24  1  0
  1 25  1  0
  1 26  1  0
  3 27  1  0
  4 28  1  0
 13 29  1  0
 14 30  1  0
 15 31  1  0
 16 32  1  0
 19 33  1  0
 19 34  1  0
 22 35  1  0
 23 36  1  0
M  CHG  1   9  -1
M  END
>  <UniqueID>  (22) 
22

>  <SMILES>  (22) 
Cc1ccc(S(=O)(=O)[N-]C(=O)c2ccccc2S(N)(=O)=O)cc1

>  <Energy>  (22) 
41.78454117780734

>  <Genealogy>  (22) 
Cc1ccc(S(=O)(=O)[N-]C(=O)c2ccccc2S(N)(=O)=O)cc1 (protonated)
Cc1ccc(S(=O)(=O)[N-]C(=O)c2ccccc2S(N)(=O)=O)cc1 (3D coordinates assigned)
Cc1ccc(S(=O)(=O)[N-]C(=O)c2ccccc2S(N)(=O)=O)cc1 (optimized conformer: 41.78454117780734 kcal/mol)

>  <smiles>  (22) 
Cc1ccc(S(=O)(=O)NC(=O)c2ccccc2S(N)(=O)=O)cc1

>  <score_type>  (22) 
oracle

>  <origin>  (22) 
adgpu

>  <m_score__min__energy>  (22) 
-9.1899999999999995

>  <m_primary>  (22) 
energy

$$$$
22:0
     RDKit          3D

 72 75  0  0  0  0  0  0  0  0999 V2000
   -6.9410   23.8030  -31.2080 C   0  0  0  0  0  0  0  0  0  0  0  0
   -6.7620   22.7730  -32.3220 C   0  0  0  0  0  0  0  0  0  0  0  0
   -7.8010   21.7310  -32.2510 N   0  0  0  0  0  0  0  0  0  0  0  0
   -9.1660   22.1140  -31.8670 C   0  0  0  0  0  0  0  0  0  0  0  0
   -9.4970   21.6380  -30.4550 C   0  0  0  0  0  0  0  0  0  0  0  0
   -7.4860   20.3550  -32.5730 C   0  0  0  0  0  0  0  0  0  0  0  0
   -8.2390   19.2960  -32.0290 C   0  0  0  0  0  0  0  0  0  0  0  0
   -7.8910   17.9700  -32.2940 C   0  0  0  0  0  0  0  0  0  0  0  0
   -6.7960   17.6800  -33.1110 C   0  0  0  0  0  0  0  0  0  0  0  0
   -6.0560   18.7240  -33.6970 C   0  0  0  0  0  0  0  0  0  0  0  0
   -4.9620   18.4840  -34.5440 O   0  0  0  0  0  0  0  0  0  0  0  0
   -4.0470   17.4260  -34.4120 C   0  0  0  0  0  0  0  0  0  0  0  0
   -4.4830   16.1390  -34.7470 C   0  0  0  0  0  0  0  0  0  0  0  0
   -3.6150   15.0380  -34.6550 C   0  0  0  0  0  0  0  0  0  0  0  0
   -4.0820   13.6610  -35.0500 C   0  0  0  0  0  0  0  0  0  0  0  0
   -3.7960   13.4080  -36.3800 F   0  0  0  0  0  0  0  0  0  0  0  0
   -3.4400   12.7180  -34.2710 F   0  0  0  0  0  0  0  0  0  0  0  0
   -5.4500   13.5390  -34.8660 F   0  0  0  0  0  0  0  0  0  0  0  0
   -2.2810   15.2490  -34.2770 C   0  0  0  0  0  0  0  0  0  0  0  0
   -1.8390   16.5240  -33.9210 C   0  0  0  0  0  0  0  0  0  0  0  0
   -2.7260   17.6140  -33.9390 C   0  0  0  0  0  0  0  0  0  0  0  0
   -2.2720   18.9140  -33.3990 C   0  0  0  0  0  0  0  0  0  0  0  0
   -1.8230   19.7900  -34.1850 O   0  0  0  0  0  0  0  0  0  0  0  0
   -2.3680   19.2150  -31.9990 N   0  0  0  0  0  0  0  0  0  0  0  0
   -2.5530   20.5300  -31.4520 C   0  0  0  0  0  0  0  0  0  0  0  0
   -3.8460   20.9670  -31.1330 C   0  0  0  0  0  0  0  0  0  0  0  0
   -4.0560   22.2680  -30.6580 C   0  0  0  0  0  0  0  0  0  0  0  0
   -2.9730   23.1520  -30.4970 C   0  0  0  0  0  0  0  0  0  0  0  0
   -3.1910   24.5490  -30.0500 C   0  0  0  0  0  0  0  0  0  0  0  0
   -4.0810   25.2600  -30.5860 O   0  0  0  0  0  0  0  0  0  0  0  0
   -2.3590   25.1040  -29.0290 N   0  0  0  0  0  0  0  0  0  0  0  0
   -2.3380   24.6210  -27.6540 C   0  0  0  0  0  0  0  0  0  0  0  0
   -1.5590   23.3300  -27.5670 C   0  0  0  0  0  0  0  0  0  0  0  0
   -0.1810   23.3220  -27.8310 C   0  0  0  0  0  0  0  0  0  0  0  0
    0.5420   22.1270  -27.7840 C   0  0  0  0  0  0  0  0  0  0  0  0
   -0.1090   20.9250  -27.4890 C   0  0  0  0  0  0  0  0  0  0  0  0
   -1.4940   20.9050  -27.2640 C   0  0  0  0  0  0  0  0  0  0  0  0
   -2.1820   19.6140  -26.8950 C   0  0  0  0  0  0  0  0  0  0  0  0
   -3.4200   19.5310  -27.5070 F   0  0  0  0  0  0  0  0  0  0  0  0
   -1.4280   18.5200  -27.2900 F   0  0  0  0  0  0  0  0  0  0  0  0
   -2.3560   19.5730  -25.5260 F   0  0  0  0  0  0  0  0  0  0  0  0
   -2.2120   22.1150  -27.2970 C   0  0  0  0  0  0  0  0  0  0  0  0
   -1.6770   22.7010  -30.8020 C   0  0  0  0  0  0  0  0  0  0  0  0
   -1.4730   21.4090  -31.2900 C   0  0  0  0  0  0  0  0  0  0  0  0
   -6.3970   20.0500  -33.4110 C   0  0  0  0  0  0  0  0  0  0  0  0
   -6.8545   23.3051  -30.2309 H   0  0  0  0  0  0  0  0  0  0  0  0
   -6.1638   24.5765  -31.2955 H   0  0  0  0  0  0  0  0  0  0  0  0
   -7.9336   24.2690  -31.2955 H   0  0  0  0  0  0  0  0  0  0  0  0
   -6.8283   23.2810  -33.2954 H   0  0  0  0  0  0  0  0  0  0  0  0
   -5.7784   22.2952  -32.2022 H   0  0  0  0  0  0  0  0  0  0  0  0
   -9.2556   23.2096  -31.9064 H   0  0  0  0  0  0  0  0  0  0  0  0
   -9.8702   21.6415  -32.5676 H   0  0  0  0  0  0  0  0  0  0  0  0
   -9.0288   22.3113  -29.7219 H   0  0  0  0  0  0  0  0  0  0  0  0
  -10.5878   21.6426  -30.3128 H   0  0  0  0  0  0  0  0  0  0  0  0
   -9.1130   20.6171  -30.3128 H   0  0  0  0  0  0  0  0  0  0  0  0
   -9.1076   19.5153  -31.3907 H   0  0  0  0  0  0  0  0  0  0  0  0
   -8.4814   17.1508  -31.8577 H   0  0  0  0  0  0  0  0  0  0  0  0
   -6.5114   16.6338  -33.2968 H   0  0  0  0  0  0  0  0  0  0  0  0
   -5.5182   15.9875  -35.0866 H   0  0  0  0  0  0  0  0  0  0  0  0
   -1.5778   14.4032  -34.2610 H   0  0  0  0  0  0  0  0  0  0  0  0
   -0.7907   16.6766  -33.6247 H   0  0  0  0  0  0  0  0  0  0  0  0
   -4.7001   20.2849  -31.2563 H   0  0  0  0  0  0  0  0  0  0  0  0
   -5.0745   22.6009  -30.4092 H   0  0  0  0  0  0  0  0  0  0  0  0
   -1.8628   25.3762  -27.0107 H   0  0  0  0  0  0  0  0  0  0  0  0
   -3.3707   24.4404  -27.3210 H   0  0  0  0  0  0  0  0  0  0  0  0
    0.3337   24.2626  -28.0766 H   0  0  0  0  0  0  0  0  0  0  0  0
    1.6245   22.1319  -27.9793 H   0  0  0  0  0  0  0  0  0  0  0  0
    0.4678   19.9900  -27.4330 H   0  0  0  0  0  0  0  0  0  0  0  0
   -3.2959   22.1098  -27.1095 H   0  0  0  0  0  0  0  0  0  0  0  0
   -0.8171   23.3711  -30.6551 H   0  0  0  0  0  0  0  0  0  0  0  0
   -0.4566   21.0780  -31.5495 H   0  0  0  0  0  0  0  0  0  0  0  0
   -5.8047   20.8675  -33.8479 H   0  0  0  0  0  0  0  0  0  0  0  0
  1  2  1  0
  2  3  1  0
  3  4  1  0
  4  5  1  0
  3  6  1  0
  6  7  2  0
  7  8  1  0
  8  9  2  0
  9 10  1  0
 10 11  1  0
 11 12  1  0
 12 13  2  0
 13 14  1  0
 14 15  1  0
 15 16  1  0
 15 17  1  0
 15 18  1  0
 14 19  2  0
 19 20  1  0
 20 21  2  0
 21 22  1  0
 22 23  2  0
 22 24  1  0
 24 25  1  0
 25 26  2  0
 26 27  1  0
 27 28  2  0
 28 29  1  0
 29 30  2  0
 29 31  1  0
 31 32  1  0
 32 33  1  0
 33 34  2  0
 34 35  1  0
 35 36  2  0
 36 37  1  0
 37 38  1  0
 38 39  1  0
 38 40  1  0
 38 41  1  0
 37 42  2  0
 28 43  1  0
 43 44  2  0
 10 45  2  0
 45  6  1  0
 21 12  1  0
 44 25  1  0
 42 33  1  0
  1 46  1  0
  1 47  1  0
  1 48  1  0
  2 49  1  0
  2 50  1  0
  4 51  1  0
  4 52  1  0
  5 53  1  0
  5 54  1  0
  5 55  1  0
  7 56  1  0
  8 57  1  0
  9 58  1  0
 13 59  1  0
 19 60  1  0
 20 61  1  0
 26 62  1  0
 27 63  1  0
 32 64  1  0
 32 65  1  0
 34 66  1  0
 35 67  1  0
 36 68  1  0
 42 69  1  0
 43 70  1  0
 44 71  1  0
 45 72  1  0
M  CHG  2  24  -1  31  -1
M  END
>  <UniqueID>  (23) 
23

>  <SMILES>  (23) 
CCN(CC)c1cccc(Oc2cc(C(F)(F)F)ccc2C(=O)[N-]c2ccc(C(=O)[N-]Cc3cccc(C(F)(F)F)c3)cc2)c1

>  <Energy>  (23) 
89.25460263032521

>  <Genealogy>  (23) 
CCN(CC)c1cccc(Oc2cc(C(F)(F)F)ccc2C(=O)[N-]c2ccc(C(=O)[N-]Cc3cccc(C(F)(F)F)c3)cc2)c1 (protonated)
CCN(CC)c1cccc(Oc2cc(C(F)(F)F)ccc2C(=O)[N-]c2ccc(C(=O)[N-]Cc3cccc(C(F)(F)F)c3)cc2)c1 (3D coordinates assigned)
CCN(CC)c1cccc(Oc2cc(C(F)(F)F)ccc2C(=O)[N-]c2ccc(C(=O)[N-]Cc3cccc(C(F)(F)F)c3)cc2)c1 (optimized conformer: 89.25460263032521 kcal/mol)

>  <smiles>  (23) 
CCN(CC)c1cccc(Oc2cc(C(F)(F)F)ccc2C(=O)Nc2ccc(C(=O)NCc3cccc(C(F)(F)F)c3)cc2)c1

>  <score_type>  (23) 
oracle

>  <origin>  (23) 
adgpu

>  <m_score__min__energy>  (23) 
-12.09

>  <m_primary>  (23) 
energy

$$$$
23:0
     RDKit          3D

 46 48  0  0  0  0  0  0  0  0999 V2000
   -7.7510   23.3900  -31.6530 C   0  0  0  0  0  0  0  0  0  0  0  0
   -6.4140   23.8920  -31.1940 C   0  0  0  0  0  0  0  0  0  0  0  0
   -6.2510   25.2380  -30.8390 C   0  0  0  0  0  0  0  0  0  0  0  0
   -5.0210   25.6960  -30.3620 C   0  0  0  0  0  0  0  0  0  0  0  0
   -3.9510   24.8100  -30.2040 C   0  0  0  0  0  0  0  0  0  0  0  0
   -2.7350   25.2940  -29.7340 O   0  0  0  0  0  0  0  0  0  0  0  0
   -4.1090   23.4500  -30.5300 C   0  0  0  0  0  0  0  0  0  0  0  0
   -3.0120   22.4800  -30.3200 C   0  0  0  0  0  0  0  0  0  0  0  0
   -2.8470   21.9730  -29.1800 O   0  0  0  0  0  0  0  0  0  0  0  0
   -2.1440   22.0790  -31.3900 N   0  0  0  0  0  0  0  0  0  0  0  0
   -2.4240   21.0500  -32.3500 C   0  0  0  0  0  0  0  0  0  0  0  0
   -1.3870   20.5700  -33.1590 C   0  0  0  0  0  0  0  0  0  0  0  0
   -1.6320   19.5620  -34.0970 C   0  0  0  0  0  0  0  0  0  0  0  0
   -2.9180   19.0310  -34.2370 C   0  0  0  0  0  0  0  0  0  0  0  0
   -3.9690   19.5220  -33.4510 C   0  0  0  0  0  0  0  0  0  0  0  0
   -5.5950   18.8650  -33.5870 S   0  0  0  0  0  0  0  0  0  0  0  0
   -5.5400   17.4280  -34.0270 O   0  0  0  0  0  0  0  0  0  0  0  0
   -6.3480   19.6620  -34.6130 O   0  0  0  0  0  0  0  0  0  0  0  0
   -6.3680   18.9900  -32.0200 N   0  0  0  0  0  0  0  0  0  0  0  0
   -7.2520   17.8290  -31.7430 C   0  0  0  0  0  0  0  0  0  0  0  0
   -8.7380   18.1950  -31.5850 C   0  0  0  0  0  0  0  0  0  0  0  0
   -9.1640   19.1960  -32.6590 C   0  0  0  0  0  0  0  0  0  0  0  0
   -8.2990   20.4690  -32.6370 C   0  0  0  0  0  0  0  0  0  0  0  0
   -7.0030   20.3060  -31.8200 C   0  0  0  0  0  0  0  0  0  0  0  0
   -3.7230   20.5390  -32.5230 C   0  0  0  0  0  0  0  0  0  0  0  0
   -5.3400   23.0010  -31.0370 C   0  0  0  0  0  0  0  0  0  0  0  0
   -8.3749   23.1558  -30.7778 H   0  0  0  0  0  0  0  0  0  0  0  0
   -8.2450   24.1639  -32.2589 H   0  0  0  0  0  0  0  0  0  0  0  0
   -7.6136   22.4822  -32.2589 H   0  0  0  0  0  0  0  0  0  0  0  0
   -7.0952   25.9364  -30.9365 H   0  0  0  0  0  0  0  0  0  0  0  0
   -4.8933   26.7590  -30.1094 H   0  0  0  0  0  0  0  0  0  0  0  0
   -0.3746   20.9878  -33.0563 H   0  0  0  0  0  0  0  0  0  0  0  0
   -0.8115   19.1862  -34.7259 H   0  0  0  0  0  0  0  0  0  0  0  0
   -3.1047   18.2274  -34.9646 H   0  0  0  0  0  0  0  0  0  0  0  0
   -7.1583   17.1168  -32.5761 H   0  0  0  0  0  0  0  0  0  0  0  0
   -6.9260   17.4040  -30.7823 H   0  0  0  0  0  0  0  0  0  0  0  0
   -9.3465   17.2835  -31.6789 H   0  0  0  0  0  0  0  0  0  0  0  0
   -8.8868   18.6523  -30.5957 H   0  0  0  0  0  0  0  0  0  0  0  0
   -9.0695   18.7195  -33.6459 H   0  0  0  0  0  0  0  0  0  0  0  0
  -10.2047   19.4891  -32.4564 H   0  0  0  0  0  0  0  0  0  0  0  0
   -8.0301   20.7273  -33.6719 H   0  0  0  0  0  0  0  0  0  0  0  0
   -8.8925   21.2601  -32.1555 H   0  0  0  0  0  0  0  0  0  0  0  0
   -6.2935   21.0894  -32.1248 H   0  0  0  0  0  0  0  0  0  0  0  0
   -7.2675   20.3899  -30.7556 H   0  0  0  0  0  0  0  0  0  0  0  0
   -4.5522   20.9426  -31.9234 H   0  0  0  0  0  0  0  0  0  0  0  0
   -5.4634   21.9434  -31.3131 H   0  0  0  0  0  0  0  0  0  0  0  0
  1  2  1  0
  2  3  2  0
  3  4  1  0
  4  5  2  0
  5  6  1  0
  5  7  1  0
  7  8  1  0
  8  9  2  0
  8 10  1  0
 10 11  1  0
 11 12  2  0
 12 13  1  0
 13 14  2  0
 14 15  1  0
 15 16  1  0
 16 17  2  0
 16 18  2  0
 16 19  1  0
 19 20  1  0
 20 21  1  0
 21 22  1  0
 22 23  1  0
 23 24  1  0
 15 25  2  0
  7 26  2  0
 26  2  1  0
 25 11  1  0
 24 19  1  0
  1 27  1  0
  1 28  1  0
  1 29  1  0
  3 30  1  0
  4 31  1  0
 12 32  1  0
 13 33  1  0
 14 34  1  0
 20 35  1  0
 20 36  1  0
 21 37  1  0
 21 38  1  0
 22 39  1  0
 22 40  1  0
 23 41  1  0
 23 42  1  0
 24 43  1  0
 24 44  1  0
 25 45  1  0
 26 46  1  0
M  CHG  2   6  -1  10  -1
M  END
>  <UniqueID>  (24) 
24

>  <SMILES>  (24) 
Cc1ccc([O-])c(C(=O)[N-]c2cccc(S(=O)(=O)N3CCCCC3)c2)c1

>  <Energy>  (24) 
59.27817649071424

>  <Genealogy>  (24) 
Cc1ccc([O-])c(C(=O)[N-]c2cccc(S(=O)(=O)N3CCCCC3)c2)c1 (protonated)
Cc1ccc([O-])c(C(=O)[N-]c2cccc(S(=O)(=O)N3CCCCC3)c2)c1 (3D coordinates assigned)
Cc1ccc([O-])c(C(=O)[N-]c2cccc(S(=O)(=O)N3CCCCC3)c2)c1 (nonaromatic ring conformer: 59.27817649071424 kcal/mol)

>  <smiles>  (24) 
Cc1ccc(O)c(C(=O)Nc2cccc(S(=O)(=O)N3CCCCC3)c2)c1

>  <score_type>  (24) 
oracle

>  <origin>  (24) 
adgpu

>  <m_score__min__energy>  (24) 
-13.98

>  <m_primary>  (24) 
energy

$$$$
24:0
     RDKit          3D

 46 48  0  0  0  0  0  0  0  0999 V2000
   -5.6520   18.5670  -34.5800 C   0  0  0  0  0  0  0  0  0  0  0  0
   -5.9330   19.1620  -33.1820 C   0  0  0  0  0  0  0  0  0  0  0  0
   -7.1930   20.0530  -33.2480 C   0  0  0  0  0  0  0  0  0  0  0  0
   -6.2410   17.9850  -32.2240 C   0  0  0  0  0  0  0  0  0  0  0  0
   -4.7260   20.0100  -32.7300 C   0  0  0  0  0  0  0  0  0  0  0  0
   -3.5330   20.1010  -33.4850 C   0  0  0  0  0  0  0  0  0  0  0  0
   -2.4570   20.8690  -33.0320 C   0  0  0  0  0  0  0  0  0  0  0  0
   -2.5440   21.5650  -31.8300 C   0  0  0  0  0  0  0  0  0  0  0  0
   -3.7200   21.5130  -31.0670 C   0  0  0  0  0  0  0  0  0  0  0  0
   -3.8240   22.1920  -29.8040 N   0  0  0  0  0  0  0  0  0  0  0  0
   -2.8330   23.1040  -29.3030 C   0  0  0  0  0  0  0  0  0  0  0  0
   -1.8150   22.6380  -28.5290 N   0  0  0  0  0  0  0  0  0  0  0  0
   -0.8100   23.4480  -28.1090 C   0  0  0  0  0  0  0  0  0  0  0  0
    0.1110   22.9820  -27.3860 O   0  0  0  0  0  0  0  0  0  0  0  0
   -0.8070   24.7930  -28.4960 C   0  0  0  0  0  0  0  0  0  0  0  0
    0.1200   25.5660  -28.1360 O   0  0  0  0  0  0  0  0  0  0  0  0
   -1.8190   25.2650  -29.2690 N   0  0  0  0  0  0  0  0  0  0  0  0
   -2.8440   24.4670  -29.6700 C   0  0  0  0  0  0  0  0  0  0  0  0
   -3.8960   25.0310  -30.4680 N   0  0  0  0  0  0  0  0  0  0  0  0
   -5.1700   24.4000  -30.6880 C   0  0  0  0  0  0  0  0  0  0  0  0
   -5.5930   24.0240  -31.9770 C   0  0  0  0  0  0  0  0  0  0  0  0
   -6.8400   23.4200  -32.1620 C   0  0  0  0  0  0  0  0  0  0  0  0
   -7.6670   23.1700  -31.0640 C   0  0  0  0  0  0  0  0  0  0  0  0
   -7.2460   23.5190  -29.7790 C   0  0  0  0  0  0  0  0  0  0  0  0
   -6.0010   24.1260  -29.5900 C   0  0  0  0  0  0  0  0  0  0  0  0
   -4.7920   20.7260  -31.5130 C   0  0  0  0  0  0  0  0  0  0  0  0
   -5.1846   17.5773  -34.4701 H   0  0  0  0  0  0  0  0  0  0  0  0
   -6.5978   18.4665  -35.1326 H   0  0  0  0  0  0  0  0  0  0  0  0
   -4.9735   19.2336  -35.1326 H   0  0  0  0  0  0  0  0  0  0  0  0
   -7.5283   20.2901  -32.2275 H   0  0  0  0  0  0  0  0  0  0  0  0
   -6.9555   20.9850  -33.7817 H   0  0  0  0  0  0  0  0  0  0  0  0
   -7.9926   19.5184  -33.7817 H   0  0  0  0  0  0  0  0  0  0  0  0
   -6.1515   18.3270  -31.1824 H   0  0  0  0  0  0  0  0  0  0  0  0
   -7.2640   17.6233  -32.4046 H   0  0  0  0  0  0  0  0  0  0  0  0
   -5.5263   17.1686  -32.4046 H   0  0  0  0  0  0  0  0  0  0  0  0
   -3.4515   19.5609  -34.4398 H   0  0  0  0  0  0  0  0  0  0  0  0
   -1.5351   20.9238  -33.6295 H   0  0  0  0  0  0  0  0  0  0  0  0
   -1.6875   22.1581  -31.4769 H   0  0  0  0  0  0  0  0  0  0  0  0
   -4.6830   22.0370  -29.2280 H   0  0  0  0  0  0  0  0  0  0  0  0
   -3.7570   26.0030  -30.8290 H   0  0  0  0  0  0  0  0  0  0  0  0
   -4.9392   24.2063  -32.8426 H   0  0  0  0  0  0  0  0  0  0  0  0
   -7.1706   23.1412  -33.1734 H   0  0  0  0  0  0  0  0  0  0  0  0
   -8.6497   22.6983  -31.2117 H   0  0  0  0  0  0  0  0  0  0  0  0
   -7.8950   23.3160  -28.9143 H   0  0  0  0  0  0  0  0  0  0  0  0
   -5.6704   24.3906  -28.5748 H   0  0  0  0  0  0  0  0  0  0  0  0
   -5.7046   20.6646  -30.9019 H   0  0  0  0  0  0  0  0  0  0  0  0
  1  2  1  0
  2  3  1  0
  2  4  1  0
  2  5  1  0
  5  6  2  0
  6  7  1  0
  7  8  2  0
  8  9  1  0
  9 10  1  0
 10 11  1  0
 11 12  1  0
 12 13  1  0
 13 14  2  0
 13 15  1  0
 15 16  2  0
 15 17  1  0
 17 18  1  0
 18 19  1  0
 19 20  1  0
 20 21  2  0
 21 22  1  0
 22 23  2  0
 23 24  1  0
 24 25  2  0
  9 26  2  0
 26  5  1  0
 18 11  2  0
 25 20  1  0
  1 27  1  0
  1 28  1  0
  1 29  1  0
  3 30  1  0
  3 31  1  0
  3 32  1  0
  4 33  1  0
  4 34  1  0
  4 35  1  0
  6 36  1  0
  7 37  1  0
  8 38  1  0
 10 39  1  0
 19 40  1  0
 21 41  1  0
 22 42  1  0
 23 43  1  0
 24 44  1  0
 25 45  1  0
 26 46  1  0
M  CHG  2  12  -1  17  -1
M  END
>  <UniqueID>  (25) 
25

>  <SMILES>  (25) 
CC(C)(C)c1cccc(Nc2[n-]c(=O)c(=O)[n-]c2Nc2ccccc2)c1

>  <Energy>  (25) 
61.74946529033393

>  <Genealogy>  (25) 
CC(C)(C)c1cccc(Nc2[n-]c(=O)c(=O)[n-]c2Nc2ccccc2)c1 (protonated)
CC(C)(C)c1cccc(Nc2[n-]c(=O)c(=O)[n-]c2Nc2ccccc2)c1 (3D coordinates assigned)
CC(C)(C)c1cccc(Nc2[n-]c(=O)c(=O)[n-]c2Nc2ccccc2)c1 (optimized conformer: 61.74946529033393 kcal/mol)

>  <smiles>  (25) 
CC(C)(C)c1cccc(Nc2[nH]c(=O)c(=O)[nH]c2Nc2ccccc2)c1

>  <score_type>  (25) 
oracle

>  <origin>  (25) 
adgpu

>  <m_score__min__energy>  (25) 
-10.59

>  <m_primary>  (25) 
energy

$$$$
25:0
     RDKit          3D

 60 64  0  0  0  0  0  0  0  0999 V2000
   -3.6520   22.5450  -32.3660 O   0  0  0  0  0  0  0  0  0  0  0  0
   -4.5800   23.1020  -31.7180 C   0  0  0  0  0  0  0  0  0  0  0  0
   -4.2950   24.2370  -30.8880 N   0  0  0  0  0  0  0  0  0  0  0  0
   -3.7660   24.2020  -29.5550 C   0  0  0  0  0  0  0  0  0  0  0  0
   -4.6090   24.5310  -28.4880 C   0  0  0  0  0  0  0  0  0  0  0  0
   -4.1270   24.5190  -27.1770 C   0  0  0  0  0  0  0  0  0  0  0  0
   -2.7930   24.1940  -26.9230 C   0  0  0  0  0  0  0  0  0  0  0  0
   -1.9300   23.8860  -27.9830 C   0  0  0  0  0  0  0  0  0  0  0  0
   -0.2440   23.4690  -27.6680 S   0  0  0  0  0  0  0  0  0  0  0  0
   -0.0160   23.4070  -26.1840 O   0  0  0  0  0  0  0  0  0  0  0  0
    0.6420   24.5480  -28.2280 O   0  0  0  0  0  0  0  0  0  0  0  0
    0.1920   21.9400  -28.3910 N   0  0  0  0  0  0  0  0  0  0  0  0
    1.1300   21.2090  -27.5240 C   0  0  0  0  0  0  0  0  0  0  0  0
    1.3670   19.7830  -28.0640 C   0  0  0  0  0  0  0  0  0  0  0  0
    0.7990   19.6190  -29.3490 O   0  0  0  0  0  0  0  0  0  0  0  0
   -0.6070   19.7780  -29.2750 C   0  0  0  0  0  0  0  0  0  0  0  0
   -1.0070   21.1260  -28.6370 C   0  0  0  0  0  0  0  0  0  0  0  0
   -2.4160   23.9030  -29.2980 C   0  0  0  0  0  0  0  0  0  0  0  0
   -5.9550   22.5550  -31.7810 C   0  0  0  0  0  0  0  0  0  0  0  0
   -7.0710   23.4080  -31.7030 C   0  0  0  0  0  0  0  0  0  0  0  0
   -8.3660   22.8890  -31.7840 C   0  0  0  0  0  0  0  0  0  0  0  0
   -8.5640   21.5170  -31.9430 C   0  0  0  0  0  0  0  0  0  0  0  0
   -7.4660   20.6520  -32.0140 C   0  0  0  0  0  0  0  0  0  0  0  0
   -7.7040   18.9240  -32.2570 S   0  0  0  0  0  0  0  0  0  0  0  0
   -7.6130   18.2200  -30.9320 O   0  0  0  0  0  0  0  0  0  0  0  0
   -9.0630   18.6830  -32.8500 O   0  0  0  0  0  0  0  0  0  0  0  0
   -6.4860   18.3100  -33.3260 N   0  0  0  0  0  0  0  0  0  0  0  0
   -6.1150   18.9150  -34.6010 C   0  0  0  0  0  0  0  0  0  0  0  0
   -4.9690   18.0400  -35.1690 C   0  0  0  0  0  0  0  0  0  0  0  0
   -4.7950   16.9850  -34.1290 C   0  0  0  0  0  0  0  0  0  0  0  0
   -3.8980   15.9150  -34.1300 C   0  0  0  0  0  0  0  0  0  0  0  0
   -3.9160   15.0270  -33.0420 C   0  0  0  0  0  0  0  0  0  0  0  0
   -4.8220   15.2230  -31.9810 C   0  0  0  0  0  0  0  0  0  0  0  0
   -5.7140   16.3070  -32.0030 C   0  0  0  0  0  0  0  0  0  0  0  0
   -5.6740   17.1750  -33.0990 C   0  0  0  0  0  0  0  0  0  0  0  0
   -6.1660   21.1720  -31.9350 C   0  0  0  0  0  0  0  0  0  0  0  0
   -5.6575   24.8007  -28.6826 H   0  0  0  0  0  0  0  0  0  0  0  0
   -4.8000   24.7662  -26.3427 H   0  0  0  0  0  0  0  0  0  0  0  0
   -2.4189   24.1797  -25.8887 H   0  0  0  0  0  0  0  0  0  0  0  0
    2.0884   21.7479  -27.4924 H   0  0  0  0  0  0  0  0  0  0  0  0
    0.7000   21.1396  -26.5139 H   0  0  0  0  0  0  0  0  0  0  0  0
    2.4497   19.5981  -28.1246 H   0  0  0  0  0  0  0  0  0  0  0  0
    0.8878   19.0682  -27.3788 H   0  0  0  0  0  0  0  0  0  0  0  0
   -1.0233   19.7297  -30.2920 H   0  0  0  0  0  0  0  0  0  0  0  0
   -1.0059   18.9721  -28.6414 H   0  0  0  0  0  0  0  0  0  0  0  0
   -1.6807   21.6661  -29.3185 H   0  0  0  0  0  0  0  0  0  0  0  0
   -1.5175   20.9363  -27.6813 H   0  0  0  0  0  0  0  0  0  0  0  0
   -1.7368   23.6810  -30.1343 H   0  0  0  0  0  0  0  0  0  0  0  0
   -6.9233   24.4908  -31.5774 H   0  0  0  0  0  0  0  0  0  0  0  0
   -9.2321   23.5643  -31.7222 H   0  0  0  0  0  0  0  0  0  0  0  0
   -9.5853   21.1143  -32.0127 H   0  0  0  0  0  0  0  0  0  0  0  0
   -6.9735   18.9147  -35.2888 H   0  0  0  0  0  0  0  0  0  0  0  0
   -5.7997   19.9613  -34.4749 H   0  0  0  0  0  0  0  0  0  0  0  0
   -5.2528   17.5977  -36.1353 H   0  0  0  0  0  0  0  0  0  0  0  0
   -4.0481   18.6095  -35.3627 H   0  0  0  0  0  0  0  0  0  0  0  0
   -3.1941   15.7710  -34.9629 H   0  0  0  0  0  0  0  0  0  0  0  0
   -3.2202   14.1754  -33.0182 H   0  0  0  0  0  0  0  0  0  0  0  0
   -4.8305   14.5238  -31.1318 H   0  0  0  0  0  0  0  0  0  0  0  0
   -6.4255   16.4693  -31.1800 H   0  0  0  0  0  0  0  0  0  0  0  0
   -5.3030   20.4925  -31.9940 H   0  0  0  0  0  0  0  0  0  0  0  0
  1  2  2  0
  2  3  1  0
  3  4  1  0
  4  5  2  0
  5  6  1  0
  6  7  2  0
  7  8  1  0
  8  9  1  0
  9 10  2  0
  9 11  2  0
  9 12  1  0
 12 13  1  0
 13 14  1  0
 14 15  1  0
 15 16  1  0
 16 17  1  0
  8 18  2  0
  2 19  1  0
 19 20  2  0
 20 21  1  0
 21 22  2  0
 22 23  1  0
 23 24  1  0
 24 25  2  0
 24 26  2  0
 24 27  1  0
 27 28  1  0
 28 29  1  0
 29 30  1  0
 30 31  2  0
 31 32  1  0
 32 33  2  0
 33 34  1  0
 34 35  2  0
 23 36  2  0
 18  4  1  0
 36 19  1  0
 17 12  1  0
 35 27  1  0
 35 30  1  0
  5 37  1  0
  6 38  1  0
  7 39  1  0
 13 40  1  0
 13 41  1  0
 14 42  1  0
 14 43  1  0
 16 44  1  0
 16 45  1  0
 17 46  1  0
 17 47  1  0
 18 48  1  0
 20 49  1  0
 21 50  1  0
 22 51  1  0
 28 52  1  0
 28 53  1  0
 29 54  1  0
 29 55  1  0
 31 56  1  0
 32 57  1  0
 33 58  1  0
 34 59  1  0
 36 60  1  0
M  CHG  1   3  -1
M  END
>  <UniqueID>  (26) 
26

>  <SMILES>  (26) 
O=C([N-]c1cccc(S(=O)(=O)N2CCOCC2)c1)c1cccc(S(=O)(=O)N2CCc3ccccc32)c1

>  <Energy>  (26) 
92.16975040804155

>  <Genealogy>  (26) 
O=C([N-]c1cccc(S(=O)(=O)N2CCOCC2)c1)c1cccc(S(=O)(=O)N2CCc3ccccc32)c1 (protonated)
O=C([N-]c1cccc(S(=O)(=O)N2CCOCC2)c1)c1cccc(S(=O)(=O)N2CCc3ccccc32)c1 (3D coordinates assigned)
O=C([N-]c1cccc(S(=O)(=O)N2CCOCC2)c1)c1cccc(S(=O)(=O)N2CCc3ccccc32)c1 (nonaromatic ring conformer: 92.16975040804155 kcal/mol)

>  <smiles>  (26) 
O=C(Nc1cccc(S(=O)(=O)N2CCOCC2)c1)c1cccc(S(=O)(=O)N2CCc3ccccc32)c1

>  <score_type>  (26) 
oracle

>  <origin>  (26) 
adgpu

>  <m_score__min__energy>  (26) 
-13.130000000000001

>  <m_primary>  (26) 
energy

$$$$
26:0
     RDKit          3D

 44 45  0  0  0  0  0  0  0  0999 V2000
   -1.4830   21.2160  -33.4850 C   0  0  0  0  0  0  0  0  0  0  0  0
   -0.9490   21.0480  -32.0690 C   0  0  0  0  0  0  0  0  0  0  0  0
   -2.0010   21.3190  -31.0770 N   0  0  0  0  0  0  0  0  0  0  0  0
   -1.6120   21.7080  -29.7130 C   0  0  0  0  0  0  0  0  0  0  0  0
   -1.6190   23.2010  -29.5420 C   0  0  0  0  0  0  0  0  0  0  0  0
   -0.5610   24.0270  -29.2290 C   0  0  0  0  0  0  0  0  0  0  0  0
   -1.0150   25.2880  -29.1070 N   0  0  0  0  0  0  0  0  0  0  0  0
   -2.3230   25.2900  -29.3190 N   0  0  0  0  0  0  0  0  0  0  0  0
   -2.7180   24.0300  -29.5790 C   0  0  0  0  0  0  0  0  0  0  0  0
   -3.3890   21.1670  -31.4570 C   0  0  0  0  0  0  0  0  0  0  0  0
   -3.7820   20.0640  -31.9290 O   0  0  0  0  0  0  0  0  0  0  0  0
   -4.3230   22.2580  -31.3250 N   0  0  0  0  0  0  0  0  0  0  0  0
   -5.7350   22.1270  -31.5590 C   0  0  0  0  0  0  0  0  0  0  0  0
   -6.5390   23.2750  -31.5770 C   0  0  0  0  0  0  0  0  0  0  0  0
   -7.9160   23.1710  -31.7940 C   0  0  0  0  0  0  0  0  0  0  0  0
   -8.5020   21.9170  -31.9790 C   0  0  0  0  0  0  0  0  0  0  0  0
   -7.7160   20.7580  -31.9360 C   0  0  0  0  0  0  0  0  0  0  0  0
   -8.4560   19.1710  -32.1620 S   0  0  0  0  0  0  0  0  0  0  0  0
   -9.0040   18.6890  -30.8470 O   0  0  0  0  0  0  0  0  0  0  0  0
   -9.6030   19.2910  -33.1260 O   0  0  0  0  0  0  0  0  0  0  0  0
   -7.3050   18.0080  -32.7730 N   0  0  0  0  0  0  0  0  0  0  0  0
   -6.4680   18.6320  -33.8040 C   0  0  0  0  0  0  0  0  0  0  0  0
   -6.4680   17.5090  -31.6750 C   0  0  0  0  0  0  0  0  0  0  0  0
   -6.3350   20.8640  -31.7170 C   0  0  0  0  0  0  0  0  0  0  0  0
   -2.5316   21.5459  -33.4447 H   0  0  0  0  0  0  0  0  0  0  0  0
   -0.8821   21.9685  -34.0166 H   0  0  0  0  0  0  0  0  0  0  0  0
   -1.4211   20.2550  -34.0166 H   0  0  0  0  0  0  0  0  0  0  0  0
   -0.5887   20.0167  -31.9397 H   0  0  0  0  0  0  0  0  0  0  0  0
   -0.1276   21.7633  -31.9154 H   0  0  0  0  0  0  0  0  0  0  0  0
   -2.3206   21.2633  -28.9988 H   0  0  0  0  0  0  0  0  0  0  0  0
   -0.5901   21.3447  -29.5291 H   0  0  0  0  0  0  0  0  0  0  0  0
    0.4837   23.7077  -29.1000 H   0  0  0  0  0  0  0  0  0  0  0  0
   -3.7508   23.7138  -29.7872 H   0  0  0  0  0  0  0  0  0  0  0  0
   -3.9660   23.2190  -31.1350 H   0  0  0  0  0  0  0  0  0  0  0  0
   -6.0836   24.2638  -31.4194 H   0  0  0  0  0  0  0  0  0  0  0  0
   -8.5384   24.0776  -31.8191 H   0  0  0  0  0  0  0  0  0  0  0  0
   -9.5843   21.8389  -32.1591 H   0  0  0  0  0  0  0  0  0  0  0  0
   -5.6746   19.2235  -33.3237 H   0  0  0  0  0  0  0  0  0  0  0  0
   -6.0141   17.8501  -34.4306 H   0  0  0  0  0  0  0  0  0  0  0  0
   -7.0878   19.2902  -34.4306 H   0  0  0  0  0  0  0  0  0  0  0  0
   -6.9252   17.7816  -30.7124 H   0  0  0  0  0  0  0  0  0  0  0  0
   -6.3857   16.4143  -31.7450 H   0  0  0  0  0  0  0  0  0  0  0  0
   -5.4659   17.9572  -31.7450 H   0  0  0  0  0  0  0  0  0  0  0  0
   -5.7174   19.9550  -31.6685 H   0  0  0  0  0  0  0  0  0  0  0  0
  1  2  1  0
  2  3  1  0
  3  4  1  0
  4  5  1  0
  5  6  1  0
  6  7  2  0
  7  8  1  0
  8  9  1  0
  3 10  1  0
 10 11  2  0
 10 12  1  0
 12 13  1  0
 13 14  2  0
 14 15  1  0
 15 16  2  0
 16 17  1  0
 17 18  1  0
 18 19  2  0
 18 20  2  0
 18 21  1  0
 21 22  1  0
 21 23  1  0
 17 24  2  0
  9  5  2  0
 24 13  1  0
  1 25  1  0
  1 26  1  0
  1 27  1  0
  2 28  1  0
  2 29  1  0
  4 30  1  0
  4 31  1  0
  6 32  1  0
  9 33  1  0
 12 34  1  0
 14 35  1  0
 15 36  1  0
 16 37  1  0
 22 38  1  0
 22 39  1  0
 22 40  1  0
 23 41  1  0
 23 42  1  0
 23 43  1  0
 24 44  1  0
M  CHG  1   8  -1
M  END
>  <UniqueID>  (27) 
27

>  <SMILES>  (27) 
CCN(Cc1cn[n-]c1)C(=O)Nc1cccc(S(=O)(=O)N(C)C)c1

>  <Energy>  (27) 
70.13262778759012

>  <Genealogy>  (27) 
CCN(Cc1cn[n-]c1)C(=O)Nc1cccc(S(=O)(=O)N(C)C)c1 (protonated)
CCN(Cc1cn[n-]c1)C(=O)Nc1cccc(S(=O)(=O)N(C)C)c1 (3D coordinates assigned)
CCN(Cc1cn[n-]c1)C(=O)Nc1cccc(S(=O)(=O)N(C)C)c1 (optimized conformer: 70.13262778759012 kcal/mol)

>  <smiles>  (27) 
CCN(Cc1cn[nH]c1)C(=O)Nc1cccc(S(=O)(=O)N(C)C)c1

>  <score_type>  (27) 
oracle

>  <origin>  (27) 
adgpu

>  <m_score__min__energy>  (27) 
-9.4600000000000009

>  <m_primary>  (27) 
energy

$$$$
27:0
     RDKit          3D

 38 41  0  0  0  0  0  0  0  0999 V2000
   -9.0960   18.5670  -31.5290 O   0  0  0  0  0  0  0  0  0  0  0  0
   -8.0700   19.1900  -31.9160 C   0  0  0  0  0  0  0  0  0  0  0  0
   -7.0010   18.5040  -32.6430 C   0  0  0  0  0  0  0  0  0  0  0  0
   -7.1610   17.1760  -33.0760 C   0  0  0  0  0  0  0  0  0  0  0  0
   -6.1820   16.5710  -33.8630 C   0  0  0  0  0  0  0  0  0  0  0  0
   -5.0470   17.2890  -34.2380 C   0  0  0  0  0  0  0  0  0  0  0  0
   -4.8760   18.6050  -33.8050 C   0  0  0  0  0  0  0  0  0  0  0  0
   -5.8370   19.2260  -32.9760 C   0  0  0  0  0  0  0  0  0  0  0  0
   -5.6240   20.5620  -32.4370 N   0  0  0  0  0  0  0  0  0  0  0  0
   -4.2680   21.1450  -32.3930 C   0  0  0  0  0  0  0  0  0  0  0  0
   -4.0880   22.0480  -31.1960 C   0  0  0  0  0  0  0  0  0  0  0  0
   -3.9840   21.5090  -29.9030 C   0  0  0  0  0  0  0  0  0  0  0  0
   -3.8300   22.3490  -28.7970 C   0  0  0  0  0  0  0  0  0  0  0  0
   -3.7890   23.7360  -28.9650 C   0  0  0  0  0  0  0  0  0  0  0  0
   -3.6310   24.5520  -27.8450 O   0  0  0  0  0  0  0  0  0  0  0  0
   -3.9090   24.2850  -30.2520 C   0  0  0  0  0  0  0  0  0  0  0  0
   -3.8770   25.6630  -30.4380 O   0  0  0  0  0  0  0  0  0  0  0  0
   -4.0640   23.4440  -31.3590 C   0  0  0  0  0  0  0  0  0  0  0  0
   -6.7000   21.3050  -31.7390 C   0  0  1  0  0  0  0  0  0  0  0  0
   -6.9700   22.6560  -32.3890 C   0  0  0  0  0  0  0  0  0  0  0  0
   -8.6300   23.1760  -31.8610 S   0  0  0  0  0  0  0  0  0  0  0  0
   -9.1620   21.4440  -31.7060 C   0  0  0  0  0  0  0  0  0  0  0  0
   -7.9750   20.6010  -31.7340 N   0  0  0  0  0  0  0  0  0  0  0  0
   -8.0620   16.6122  -32.7928 H   0  0  0  0  0  0  0  0  0  0  0  0
   -6.3049   15.5273  -34.1881 H   0  0  0  0  0  0  0  0  0  0  0  0
   -4.2851   16.8176  -34.8761 H   0  0  0  0  0  0  0  0  0  0  0  0
   -3.9814   19.1659  -34.1132 H   0  0  0  0  0  0  0  0  0  0  0  0
   -3.5310   20.3302  -32.3391 H   0  0  0  0  0  0  0  0  0  0  0  0
   -4.1234   21.7471  -33.3022 H   0  0  0  0  0  0  0  0  0  0  0  0
   -4.0240   20.4190  -29.7603 H   0  0  0  0  0  0  0  0  0  0  0  0
   -3.7406   21.9167  -27.7895 H   0  0  0  0  0  0  0  0  0  0  0  0
   -3.9090   25.5250  -27.8450 H   0  0  0  0  0  0  0  0  0  0  0  0
   -4.1679   23.8782  -32.3643 H   0  0  0  0  0  0  0  0  0  0  0  0
   -6.3245   21.4174  -30.7112 H   0  0  0  0  0  0  0  0  0  0  0  0
   -6.2209   23.3907  -32.0588 H   0  0  0  0  0  0  0  0  0  0  0  0
   -6.9109   22.5837  -33.4850 H   0  0  0  0  0  0  0  0  0  0  0  0
   -9.6975   21.3022  -30.7556 H   0  0  0  0  0  0  0  0  0  0  0  0
   -9.8375   21.1778  -32.5323 H   0  0  0  0  0  0  0  0  0  0  0  0
  1  2  2  0
  2  3  1  0
  3  4  2  0
  4  5  1  0
  5  6  2  0
  6  7  1  0
  7  8  2  0
  8  9  1  0
  9 10  1  0
 10 11  1  0
 11 12  2  0
 12 13  1  0
 13 14  2  0
 14 15  1  0
 14 16  1  0
 16 17  1  0
 16 18  2  0
  9 19  1  0
 19 20  1  0
 20 21  1  0
 21 22  1  0
 22 23  1  0
 23  2  1  0
  8  3  1  0
 18 11  1  0
 23 19  1  0
  4 24  1  0
  5 25  1  0
  6 26  1  0
  7 27  1  0
 10 28  1  0
 10 29  1  0
 12 30  1  0
 13 31  1  0
 15 32  1  0
 18 33  1  0
 19 34  1  1
 20 35  1  0
 20 36  1  0
 22 37  1  0
 22 38  1  0
M  CHG  1  17  -1
M  END
>  <UniqueID>  (28) 
28

>  <SMILES>  (28) 
O=C1c2ccccc2N(Cc2ccc(O)c([O-])c2)[C@H]2CSCN12

>  <Energy>  (28) 
45.359267383741205

>  <Genealogy>  (28) 
O=C1c2ccccc2N(Cc2ccc(O)c([O-])c2)C2CSCN12 (protonated)
O=C1c2ccccc2N(Cc2ccc(O)c([O-])c2)[C@H]2CSCN12 (chirality)
O=C1c2ccccc2N(Cc2ccc(O)c([O-])c2)[C@H]2CSCN12 (3D coordinates assigned)
O=C1c2ccccc2N(Cc2ccc(O)c([O-])c2)[C@H]2CSCN12 (nonaromatic ring conformer: 45.359267383741205 kcal/mol)

>  <smiles>  (28) 
O=C1c2ccccc2N(Cc2ccc(O)c(O)c2)C2CSCN12

>  <score_type>  (28) 
oracle

>  <origin>  (28) 
adgpu

>  <m_score__min__energy>  (28) 
-11.41

>  <m_primary>  (28) 
energy

$$$$
28:0
     RDKit          3D

 32 34  0  0  0  0  0  0  0  0999 V2000
   -3.1077   23.2210  -28.3211 H   0  0  0  0  0  0  0  0  0  0  0  0
   -3.5740   23.7600  -29.1590 C   0  0  0  0  0  0  0  0  0  0  0  0
   -4.6920   23.3890  -29.8070 N   0  0  0  0  0  0  0  0  0  0  0  0
   -4.8580   24.3540  -30.7400 C   0  0  0  0  0  0  0  0  0  0  0  0
   -5.8390   24.3680  -31.5870 N   0  0  0  0  0  0  0  0  0  0  0  0
   -7.0700   23.1480  -31.6360 S   0  0  0  0  0  0  0  0  0  0  0  0
   -7.5590   22.8630  -30.2430 O   0  0  0  0  0  0  0  0  0  0  0  0
   -8.2240   23.6180  -32.4770 O   0  0  0  0  0  0  0  0  0  0  0  0
   -6.3930   21.6840  -32.3390 C   0  0  0  0  0  0  0  0  0  0  0  0
   -7.2320   20.6360  -32.7370 C   0  0  0  0  0  0  0  0  0  0  0  0
   -8.3213   20.7294  -32.6159 H   0  0  0  0  0  0  0  0  0  0  0  0
   -6.6900   19.4730  -33.2870 C   0  0  0  0  0  0  0  0  0  0  0  0
   -7.3537   18.6542  -33.6017 H   0  0  0  0  0  0  0  0  0  0  0  0
   -5.3060   19.3460  -33.4390 C   0  0  0  0  0  0  0  0  0  0  0  0
   -4.8858   18.4283  -33.8763 H   0  0  0  0  0  0  0  0  0  0  0  0
   -4.4480   20.3850  -33.0360 C   0  0  0  0  0  0  0  0  0  0  0  0
   -2.9770   20.2500  -33.1890 C   0  0  0  0  0  0  0  0  0  0  0  0
   -2.1000   21.0020  -32.3840 C   0  0  0  0  0  0  0  0  0  0  0  0
   -2.5074   21.6972  -31.6352 H   0  0  0  0  0  0  0  0  0  0  0  0
   -0.7150   20.8720  -32.5290 C   0  0  0  0  0  0  0  0  0  0  0  0
    0.1180   21.5990  -31.7450 F   0  0  0  0  0  0  0  0  0  0  0  0
   -0.1900   19.9920  -33.4790 C   0  0  0  0  0  0  0  0  0  0  0  0
    0.8994   19.8909  -33.5927 H   0  0  0  0  0  0  0  0  0  0  0  0
   -1.0490   19.2410  -34.2840 C   0  0  0  0  0  0  0  0  0  0  0  0
   -0.5370   18.3900  -35.2080 F   0  0  0  0  0  0  0  0  0  0  0  0
   -2.4350   19.3660  -34.1420 C   0  0  0  0  0  0  0  0  0  0  0  0
   -3.1057   18.7702  -34.7786 H   0  0  0  0  0  0  0  0  0  0  0  0
   -5.0040   21.5540  -32.4830 C   0  0  0  0  0  0  0  0  0  0  0  0
   -4.3434   22.3725  -32.1611 H   0  0  0  0  0  0  0  0  0  0  0  0
   -3.9130   25.3170  -30.7220 N   0  0  0  0  0  0  0  0  0  0  0  0
   -3.1130   24.9240  -29.7190 C   0  0  0  0  0  0  0  0  0  0  0  0
   -1.9780   25.6160  -29.3170 O   0  0  0  0  0  0  0  0  0  0  0  0
  1  2  1  0
  2  3  1  0
  3  4  1  0
  4  5  2  0
  5  6  1  0
  6  7  2  0
  6  8  2  0
  6  9  1  0
  9 10  2  0
 10 11  1  0
 10 12  1  0
 12 13  1  0
 12 14  2  0
 14 15  1  0
 14 16  1  0
 16 17  1  0
 17 18  2  0
 18 19  1  0
 18 20  1  0
 20 21  1  0
 20 22  2  0
 22 23  1  0
 22 24  1  0
 24 25  1  0
 24 26  2  0
 26 27  1  0
 16 28  2  0
 28 29  1  0
  4 30  1  0
 30 31  1  0
 31 32  1  0
 31  2  2  0
 28  9  1  0
 26 17  1  0
M  CHG  3   3  -1  30  -1  32  -1
M  END
>  <UniqueID>  (29) 
29

>  <SMILES>  (29) 
O=S(=O)(/N=c1\[n-]cc([O-])[n-]1)c1cccc(-c2cc(F)cc(F)c2)c1

>  <Energy>  (29) 
72.44291111867163

>  <Genealogy>  (29) 
O=S(=O)(N=c1[n-]cc([O-])[n-]1)c1cccc(-c2cc(F)cc(F)c2)c1 (protonated)
O=S(=O)(/N=c1\[n-]cc([O-])[n-]1)c1cccc(-c2cc(F)cc(F)c2)c1 (cis-trans isomerization)
O=S(=O)(/N=c1\[n-]cc([O-])[n-]1)c1cccc(-c2cc(F)cc(F)c2)c1 (3D coordinates assigned)
O=S(=O)(/N=c1\[n-]cc([O-])[n-]1)c1cccc(-c2cc(F)cc(F)c2)c1 (optimized conformer: 72.44291111867163 kcal/mol)

>  <smiles>  (29) 
O=S(=O)(N=c1[nH]cc(O)[nH]1)c1cccc(-c2cc(F)cc(F)c2)c1

>  <score_type>  (29) 
oracle

>  <origin>  (29) 
adgpu

>  <m_score__min__energy>  (29) 
-13.039999999999999

>  <m_primary>  (29) 
energy

$$$$
29:0
     RDKit          3D

 28 29  0  0  0  0  0  0  0  0999 V2000
   -8.4730   18.7860  -32.5170 N   0  0  0  0  0  0  0  0  0  0  0  0
   -8.0170   19.7780  -32.1300 C   0  0  0  0  0  0  0  0  0  0  0  0
   -7.4500   21.0100  -31.6500 C   0  0  0  0  0  0  0  0  0  0  0  0
   -8.0510   21.6910  -30.5830 C   0  0  0  0  0  0  0  0  0  0  0  0
   -7.5010   22.8880  -30.1170 C   0  0  0  0  0  0  0  0  0  0  0  0
   -6.3430   23.4100  -30.7100 C   0  0  0  0  0  0  0  0  0  0  0  0
   -5.6470   24.9100  -30.1040 S   0  0  0  0  0  0  0  0  0  0  0  0
   -5.0090   25.6910  -31.2180 O   0  0  0  0  0  0  0  0  0  0  0  0
   -6.7420   25.7370  -29.4910 O   0  0  0  0  0  0  0  0  0  0  0  0
   -4.4480   24.5630  -28.8960 N   0  0  0  0  0  0  0  0  0  0  0  0
   -3.3100   23.7090  -29.1180 C   0  0  0  0  0  0  0  0  0  0  0  0
   -3.4340   22.3050  -29.1270 C   0  0  0  0  0  0  0  0  0  0  0  0
   -2.3140   21.4950  -29.3390 C   0  0  0  0  0  0  0  0  0  0  0  0
   -1.0610   22.0730  -29.5510 C   0  0  0  0  0  0  0  0  0  0  0  0
   -0.9250   23.4620  -29.5530 C   0  0  0  0  0  0  0  0  0  0  0  0
   -2.0400   24.2800  -29.3390 C   0  0  0  0  0  0  0  0  0  0  0  0
   -1.8760   25.6610  -29.3420 O   0  0  0  0  0  0  0  0  0  0  0  0
   -5.7450   22.7300  -31.7800 C   0  0  0  0  0  0  0  0  0  0  0  0
   -6.2960   21.5330  -32.2480 C   0  0  0  0  0  0  0  0  0  0  0  0
   -8.9571   21.2827  -30.1115 H   0  0  0  0  0  0  0  0  0  0  0  0
   -7.9782   23.4223  -29.2823 H   0  0  0  0  0  0  0  0  0  0  0  0
   -4.6270   24.9450  -27.9410 H   0  0  0  0  0  0  0  0  0  0  0  0
   -4.4192   21.8430  -28.9660 H   0  0  0  0  0  0  0  0  0  0  0  0
   -2.4205   20.4002  -29.3387 H   0  0  0  0  0  0  0  0  0  0  0  0
   -0.1812   21.4338  -29.7164 H   0  0  0  0  0  0  0  0  0  0  0  0
    0.0626   23.9155  -29.7235 H   0  0  0  0  0  0  0  0  0  0  0  0
   -4.8399   23.1391  -32.2528 H   0  0  0  0  0  0  0  0  0  0  0  0
   -5.8228   21.0014  -33.0867 H   0  0  0  0  0  0  0  0  0  0  0  0
  1  2  3  0
  2  3  1  0
  3  4  2  0
  4  5  1  0
  5  6  2  0
  6  7  1  0
  7  8  2  0
  7  9  2  0
  7 10  1  0
 10 11  1  0
 11 12  2  0
 12 13  1  0
 13 14  2  0
 14 15  1  0
 15 16  2  0
 16 17  1  0
  6 18  1  0
 18 19  2  0
 19  3  1  0
 16 11  1  0
  4 20  1  0
  5 21  1  0
 10 22  1  0
 12 23  1  0
 13 24  1  0
 14 25  1  0
 15 26  1  0
 18 27  1  0
 19 28  1  0
M  CHG  1  17  -1
M  END
>  <UniqueID>  (30) 
30

>  <SMILES>  (30) 
N#Cc1ccc(S(=O)(=O)Nc2ccccc2[O-])cc1

>  <Energy>  (30) 
31.48585957163128

>  <Genealogy>  (30) 
N#Cc1ccc(S(=O)(=O)Nc2ccccc2[O-])cc1 (protonated)
N#Cc1ccc(S(=O)(=O)Nc2ccccc2[O-])cc1 (3D coordinates assigned)
N#Cc1ccc(S(=O)(=O)Nc2ccccc2[O-])cc1 (optimized conformer: 31.48585957163128 kcal/mol)

>  <smiles>  (30) 
N#Cc1ccc(S(=O)(=O)Nc2ccccc2O)cc1

>  <score_type>  (30) 
oracle

>  <origin>  (30) 
adgpu

>  <m_score__min__energy>  (30) 
-11.539999999999999

>  <m_primary>  (30) 
energy

$$$$
30:0
     RDKit          3D

 39 41  0  0  0  0  0  0  0  0999 V2000
   -2.6500   21.2930  -31.6140 O   0  0  0  0  0  0  0  0  0  0  0  0
   -3.2680   22.2850  -31.1400 C   0  0  0  0  0  0  0  0  0  0  0  0
   -4.3030   22.8840  -31.9360 N   0  0  0  0  0  0  0  0  0  0  0  0
   -5.7070   22.5870  -31.9200 C   0  0  0  0  0  0  0  0  0  0  0  0
   -6.6110   23.6440  -31.7710 C   0  0  0  0  0  0  0  0  0  0  0  0
   -7.9860   23.4020  -31.7550 C   0  0  0  0  0  0  0  0  0  0  0  0
   -8.4710   22.1020  -31.9070 C   0  0  0  0  0  0  0  0  0  0  0  0
   -7.5810   21.0350  -32.0860 C   0  0  0  0  0  0  0  0  0  0  0  0
   -8.2250   19.4070  -32.2880 S   0  0  0  0  0  0  0  0  0  0  0  0
   -8.5420   18.8360  -30.9340 O   0  0  0  0  0  0  0  0  0  0  0  0
   -9.4920   19.4700  -33.0910 O   0  0  0  0  0  0  0  0  0  0  0  0
   -7.0850   18.3470  -33.1130 C   0  0  0  0  0  0  0  0  0  0  0  0
   -6.2720   18.8570  -34.1340 C   0  0  0  0  0  0  0  0  0  0  0  0
   -5.3610   18.0260  -34.7910 C   0  0  0  0  0  0  0  0  0  0  0  0
   -5.2630   16.6760  -34.4340 C   0  0  0  0  0  0  0  0  0  0  0  0
   -6.0680   16.1630  -33.4130 C   0  0  0  0  0  0  0  0  0  0  0  0
   -6.9700   16.9970  -32.7460 C   0  0  0  0  0  0  0  0  0  0  0  0
   -6.1980   21.2810  -32.1050 C   0  0  0  0  0  0  0  0  0  0  0  0
   -2.8900   22.7880  -29.7980 C   0  0  0  0  0  0  0  0  0  0  0  0
   -2.3290   21.8850  -28.8780 C   0  0  0  0  0  0  0  0  0  0  0  0
   -1.9790   22.3010  -27.5910 C   0  0  0  0  0  0  0  0  0  0  0  0
   -1.2430   21.1670  -26.4720 Cl  0  0  0  0  0  0  0  0  0  0  0  0
   -2.2080   23.6200  -27.1990 C   0  0  0  0  0  0  0  0  0  0  0  0
   -2.7480   24.5340  -28.1070 C   0  0  0  0  0  0  0  0  0  0  0  0
   -3.0580   24.1420  -29.4150 C   0  0  0  0  0  0  0  0  0  0  0  0
   -3.4900   25.1240  -30.3090 O   0  0  0  0  0  0  0  0  0  0  0  0
   -6.2361   24.6728  -31.6657 H   0  0  0  0  0  0  0  0  0  0  0  0
   -8.6887   24.2378  -31.6223 H   0  0  0  0  0  0  0  0  0  0  0  0
   -9.5548   21.9148  -31.8862 H   0  0  0  0  0  0  0  0  0  0  0  0
   -6.3514   19.9163  -34.4195 H   0  0  0  0  0  0  0  0  0  0  0  0
   -4.7212   18.4323  -35.5882 H   0  0  0  0  0  0  0  0  0  0  0  0
   -4.5525   16.0189  -34.9569 H   0  0  0  0  0  0  0  0  0  0  0  0
   -5.9916   15.1017  -33.1340 H   0  0  0  0  0  0  0  0  0  0  0  0
   -7.5909   16.5946  -31.9320 H   0  0  0  0  0  0  0  0  0  0  0  0
   -5.4959   20.4495  -32.2651 H   0  0  0  0  0  0  0  0  0  0  0  0
   -2.1637   20.8388  -29.1749 H   0  0  0  0  0  0  0  0  0  0  0  0
   -1.9635   23.9402  -26.1754 H   0  0  0  0  0  0  0  0  0  0  0  0
   -2.9314   25.5717  -27.7914 H   0  0  0  0  0  0  0  0  0  0  0  0
   -3.7390   24.9250  -31.2680 H   0  0  0  0  0  0  0  0  0  0  0  0
  1  2  2  0
  2  3  1  0
  3  4  1  0
  4  5  2  0
  5  6  1  0
  6  7  2  0
  7  8  1  0
  8  9  1  0
  9 10  2  0
  9 11  2  0
  9 12  1  0
 12 13  2  0
 13 14  1  0
 14 15  2  0
 15 16  1  0
 16 17  2  0
  8 18  2  0
  2 19  1  0
 19 20  2  0
 20 21  1  0
 21 22  1  0
 21 23  2  0
 23 24  1  0
 24 25  2  0
 25 26  1  0
 18  4  1  0
 25 19  1  0
 17 12  1  0
  5 27  1  0
  6 28  1  0
  7 29  1  0
 13 30  1  0
 14 31  1  0
 15 32  1  0
 16 33  1  0
 17 34  1  0
 18 35  1  0
 20 36  1  0
 23 37  1  0
 24 38  1  0
 26 39  1  0
M  CHG  1   3  -1
M  END
>  <UniqueID>  (31) 
31

>  <SMILES>  (31) 
O=C([N-]c1cccc(S(=O)(=O)c2ccccc2)c1)c1cc(Cl)ccc1O

>  <Energy>  (31) 
50.41253646155953

>  <Genealogy>  (31) 
O=C([N-]c1cccc(S(=O)(=O)c2ccccc2)c1)c1cc(Cl)ccc1O (protonated)
O=C([N-]c1cccc(S(=O)(=O)c2ccccc2)c1)c1cc(Cl)ccc1O (3D coordinates assigned)
O=C([N-]c1cccc(S(=O)(=O)c2ccccc2)c1)c1cc(Cl)ccc1O (optimized conformer: 50.41253646155953 kcal/mol)

>  <smiles>  (31) 
O=C(Nc1cccc(S(=O)(=O)c2ccccc2)c1)c1cc(Cl)ccc1O

>  <score_type>  (31) 
oracle

>  <origin>  (31) 
adgpu

>  <m_score__min__energy>  (31) 
-11.81

>  <m_primary>  (31) 
energy

$$$$
31:0
     RDKit          3D

 42 45  0  0  0  0  0  0  0  0999 V2000
   -3.8680   25.6330  -30.7920 O   0  0  0  0  0  0  0  0  0  0  0  0
   -3.9940   24.4560  -30.3560 C   0  0  0  0  0  0  0  0  0  0  0  0
   -5.2930   23.8610  -30.2630 N   0  0  0  0  0  0  0  0  0  0  0  0
   -6.3610   24.0960  -31.2270 C   0  0  0  0  0  0  0  0  0  0  0  0
   -7.1100   22.8190  -31.4970 C   0  0  0  0  0  0  0  0  0  0  0  0
   -8.0530   22.3290  -30.5820 C   0  0  0  0  0  0  0  0  0  0  0  0
   -8.7190   21.1300  -30.8430 C   0  0  0  0  0  0  0  0  0  0  0  0
   -8.4330   20.4290  -32.0170 C   0  0  0  0  0  0  0  0  0  0  0  0
   -9.2530   18.9210  -32.3670 Cl  0  0  0  0  0  0  0  0  0  0  0  0
   -7.5120   20.9140  -32.8910 N   0  0  0  0  0  0  0  0  0  0  0  0
   -6.8500   22.0790  -32.6600 C   0  0  0  0  0  0  0  0  0  0  0  0
   -2.8030   23.7160  -29.8830 C   0  0  0  0  0  0  0  0  0  0  0  0
   -1.9650   24.3440  -28.9440 C   0  0  0  0  0  0  0  0  0  0  0  0
   -0.8910   23.6580  -28.3760 C   0  0  0  0  0  0  0  0  0  0  0  0
   -0.6390   22.3360  -28.7350 C   0  0  0  0  0  0  0  0  0  0  0  0
   -1.4440   21.7010  -29.6810 C   0  0  0  0  0  0  0  0  0  0  0  0
   -2.5180   22.3820  -30.2830 C   0  0  0  0  0  0  0  0  0  0  0  0
   -3.2610   21.6950  -31.3640 C   0  0  0  0  0  0  0  0  0  0  0  0
   -3.3920   22.1760  -32.6170 N   0  0  0  0  0  0  0  0  0  0  0  0
   -4.0550   21.2650  -33.2600 O   0  0  0  0  0  0  0  0  0  0  0  0
   -4.3160   20.2600  -32.4600 C   0  0  0  0  0  0  0  0  0  0  0  0
   -5.0540   19.0470  -32.8620 C   0  0  0  0  0  0  0  0  0  0  0  0
   -5.7230   18.2640  -31.9040 C   0  0  0  0  0  0  0  0  0  0  0  0
   -6.4210   17.1170  -32.2940 C   0  0  0  0  0  0  0  0  0  0  0  0
   -6.4580   16.7410  -33.6400 C   0  0  0  0  0  0  0  0  0  0  0  0
   -5.7950   17.5120  -34.5980 C   0  0  0  0  0  0  0  0  0  0  0  0
   -5.0960   18.6610  -34.2140 C   0  0  0  0  0  0  0  0  0  0  0  0
   -3.8220   20.4740  -31.2240 N   0  0  0  0  0  0  0  0  0  0  0  0
   -7.0565   24.8462  -30.8226 H   0  0  0  0  0  0  0  0  0  0  0  0
   -5.9210   24.4589  -32.1676 H   0  0  0  0  0  0  0  0  0  0  0  0
   -8.2677   22.8887  -29.6597 H   0  0  0  0  0  0  0  0  0  0  0  0
   -9.4618   20.7410  -30.1310 H   0  0  0  0  0  0  0  0  0  0  0  0
   -6.1086   22.4421  -33.3870 H   0  0  0  0  0  0  0  0  0  0  0  0
   -2.1585   25.3874  -28.6543 H   0  0  0  0  0  0  0  0  0  0  0  0
   -0.2426   24.1617  -27.6439 H   0  0  0  0  0  0  0  0  0  0  0  0
    0.1968   21.7914  -28.2715 H   0  0  0  0  0  0  0  0  0  0  0  0
   -1.2369   20.6571  -29.9592 H   0  0  0  0  0  0  0  0  0  0  0  0
   -5.6969   18.5552  -30.8436 H   0  0  0  0  0  0  0  0  0  0  0  0
   -6.9423   16.5090  -31.5399 H   0  0  0  0  0  0  0  0  0  0  0  0
   -7.0087   15.8388  -33.9445 H   0  0  0  0  0  0  0  0  0  0  0  0
   -5.8228   17.2147  -35.6567 H   0  0  0  0  0  0  0  0  0  0  0  0
   -4.5769   19.2654  -34.9725 H   0  0  0  0  0  0  0  0  0  0  0  0
  1  2  2  0
  2  3  1  0
  3  4  1  0
  4  5  1  0
  5  6  2  0
  6  7  1  0
  7  8  2  0
  8  9  1  0
  8 10  1  0
 10 11  2  0
  2 12  1  0
 12 13  2  0
 13 14  1  0
 14 15  2  0
 15 16  1  0
 16 17  2  0
 17 18  1  0
 18 19  2  0
 19 20  1  0
 20 21  1  0
 21 22  1  0
 22 23  2  0
 23 24  1  0
 24 25  2  0
 25 26  1  0
 26 27  2  0
 21 28  2  0
 11  5  1  0
 17 12  1  0
 28 18  1  0
 27 22  1  0
  4 29  1  0
  4 30  1  0
  6 31  1  0
  7 32  1  0
 11 33  1  0
 13 34  1  0
 14 35  1  0
 15 36  1  0
 16 37  1  0
 23 38  1  0
 24 39  1  0
 25 40  1  0
 26 41  1  0
 27 42  1  0
M  CHG  1   3  -1
M  END
>  <UniqueID>  (32) 
32

>  <SMILES>  (32) 
O=C([N-]Cc1ccc(Cl)nc1)c1ccccc1-c1noc(-c2ccccc2)n1

>  <Energy>  (32) 
87.20460371370308

>  <Genealogy>  (32) 
O=C([N-]Cc1ccc(Cl)nc1)c1ccccc1-c1noc(-c2ccccc2)n1 (protonated)
O=C([N-]Cc1ccc(Cl)nc1)c1ccccc1-c1noc(-c2ccccc2)n1 (3D coordinates assigned)
O=C([N-]Cc1ccc(Cl)nc1)c1ccccc1-c1noc(-c2ccccc2)n1 (optimized conformer: 87.20460371370308 kcal/mol)

>  <smiles>  (32) 
O=C(NCc1ccc(Cl)nc1)c1ccccc1-c1noc(-c2ccccc2)n1

>  <score_type>  (32) 
oracle

>  <origin>  (32) 
adgpu

>  <m_score__min__energy>  (32) 
-10.58

>  <m_primary>  (32) 
energy

$$$$
32:0
     RDKit          3D

 53 56  0  0  0  0  0  0  0  0999 V2000
    0.8220   17.2160  -28.3650 C   0  0  0  0  0  0  0  0  0  0  0  0
    0.1170   17.9580  -27.3720 O   0  0  0  0  0  0  0  0  0  0  0  0
   -0.8980   18.8830  -27.6510 C   0  0  0  0  0  0  0  0  0  0  0  0
   -1.9800   19.1080  -26.7700 C   0  0  0  0  0  0  0  0  0  0  0  0
   -2.9780   20.0270  -27.1020 C   0  0  0  0  0  0  0  0  0  0  0  0
   -2.9060   20.7290  -28.3110 C   0  0  0  0  0  0  0  0  0  0  0  0
   -1.8400   20.5080  -29.2020 C   0  0  0  0  0  0  0  0  0  0  0  0
   -1.7390   21.2370  -30.4370 N   0  0  0  0  0  0  0  0  0  0  0  0
   -2.0420   20.6620  -31.7170 C   0  0  0  0  0  0  0  0  0  0  0  0
   -2.0300   19.4090  -31.8660 O   0  0  0  0  0  0  0  0  0  0  0  0
   -2.2930   21.5620  -32.8940 C   0  0  0  0  0  0  0  0  0  0  0  0
   -4.0680   21.9380  -33.1110 S   0  0  0  0  0  0  0  0  0  0  0  0
   -4.2690   22.7010  -31.4970 C   0  0  0  0  0  0  0  0  0  0  0  0
   -3.2890   23.2130  -30.8010 O   0  0  0  0  0  0  0  0  0  0  0  0
   -3.8110   23.6720  -29.6800 C   0  0  0  0  0  0  0  0  0  0  0  0
   -3.0340   24.3660  -28.6340 C   0  0  0  0  0  0  0  0  0  0  0  0
   -3.5590   24.5050  -27.3370 C   0  0  0  0  0  0  0  0  0  0  0  0
   -2.8090   25.1360  -26.3370 C   0  0  0  0  0  0  0  0  0  0  0  0
   -1.5380   25.6480  -26.6250 C   0  0  0  0  0  0  0  0  0  0  0  0
   -1.0100   25.5180  -27.9120 C   0  0  0  0  0  0  0  0  0  0  0  0
   -1.7470   24.8730  -28.9080 C   0  0  0  0  0  0  0  0  0  0  0  0
   -5.1450   23.4730  -29.6080 N   0  0  0  0  0  0  0  0  0  0  0  0
   -5.4270   22.8530  -30.7690 C   0  0  0  0  0  0  0  0  0  0  0  0
   -7.0570   22.4200  -31.2610 S   0  0  0  0  0  0  0  0  0  0  0  0
   -7.9910   22.6130  -30.1030 O   0  0  0  0  0  0  0  0  0  0  0  0
   -7.4730   23.3280  -32.3870 O   0  0  0  0  0  0  0  0  0  0  0  0
   -7.1320   20.7340  -31.7710 C   0  0  0  0  0  0  0  0  0  0  0  0
   -6.0000   19.9140  -31.6510 C   0  0  0  0  0  0  0  0  0  0  0  0
   -6.0580   18.5720  -32.0480 C   0  0  0  0  0  0  0  0  0  0  0  0
   -7.2470   18.0410  -32.5570 C   0  0  0  0  0  0  0  0  0  0  0  0
   -7.3060   16.7460  -32.9370 F   0  0  0  0  0  0  0  0  0  0  0  0
   -8.3840   18.8540  -32.6650 C   0  0  0  0  0  0  0  0  0  0  0  0
   -8.3270   20.1970  -32.2770 C   0  0  0  0  0  0  0  0  0  0  0  0
   -0.8350   19.5960  -28.8560 C   0  0  0  0  0  0  0  0  0  0  0  0
    1.5007   16.5017  -27.8760 H   0  0  0  0  0  0  0  0  0  0  0  0
    0.1034   16.6683  -28.9925 H   0  0  0  0  0  0  0  0  0  0  0  0
    1.4057   17.9056  -28.9925 H   0  0  0  0  0  0  0  0  0  0  0  0
   -2.0363   18.5574  -25.8194 H   0  0  0  0  0  0  0  0  0  0  0  0
   -3.8193   20.1989  -26.4145 H   0  0  0  0  0  0  0  0  0  0  0  0
   -3.6886   21.4587  -28.5662 H   0  0  0  0  0  0  0  0  0  0  0  0
   -1.3840   22.2240  -30.4080 H   0  0  0  0  0  0  0  0  0  0  0  0
   -1.7475   22.5049  -32.7414 H   0  0  0  0  0  0  0  0  0  0  0  0
   -1.9460   21.0398  -33.7978 H   0  0  0  0  0  0  0  0  0  0  0  0
   -4.5622   24.1167  -27.1072 H   0  0  0  0  0  0  0  0  0  0  0  0
   -3.2200   25.2299  -25.3210 H   0  0  0  0  0  0  0  0  0  0  0  0
   -0.9561   26.1518  -25.8392 H   0  0  0  0  0  0  0  0  0  0  0  0
   -0.0135   25.9237  -28.1410 H   0  0  0  0  0  0  0  0  0  0  0  0
   -1.3196   24.7595  -29.9152 H   0  0  0  0  0  0  0  0  0  0  0  0
   -5.0647   20.3259  -31.2442 H   0  0  0  0  0  0  0  0  0  0  0  0
   -5.1660   17.9344  -31.9591 H   0  0  0  0  0  0  0  0  0  0  0  0
   -9.3231   18.4351  -33.0557 H   0  0  0  0  0  0  0  0  0  0  0  0
   -9.2196   20.8333  -32.3684 H   0  0  0  0  0  0  0  0  0  0  0  0
    0.0135   19.4375  -29.5378 H   0  0  0  0  0  0  0  0  0  0  0  0
  1  2  1  0
  2  3  1  0
  3  4  2  0
  4  5  1  0
  5  6  2  0
  6  7  1  0
  7  8  1  0
  8  9  1  0
  9 10  2  0
  9 11  1  0
 11 12  1  0
 12 13  1  0
 13 14  1  0
 14 15  1  0
 15 16  1  0
 16 17  2  0
 17 18  1  0
 18 19  2  0
 19 20  1  0
 20 21  2  0
 15 22  2  0
 22 23  1  0
 23 24  1  0
 24 25  2  0
 24 26  2  0
 24 27  1  0
 27 28  2  0
 28 29  1  0
 29 30  2  0
 30 31  1  0
 30 32  1  0
 32 33  2  0
  7 34  2  0
 34  3  1  0
 23 13  2  0
 33 27  1  0
 21 16  1  0
  1 35  1  0
  1 36  1  0
  1 37  1  0
  4 38  1  0
  5 39  1  0
  6 40  1  0
  8 41  1  0
 11 42  1  0
 11 43  1  0
 17 44  1  0
 18 45  1  0
 19 46  1  0
 20 47  1  0
 21 48  1  0
 28 49  1  0
 29 50  1  0
 32 51  1  0
 33 52  1  0
 34 53  1  0
M  END
>  <UniqueID>  (33) 
33

>  <SMILES>  (33) 
COc1cccc(NC(=O)CSc2oc(-c3ccccc3)nc2S(=O)(=O)c2ccc(F)cc2)c1

>  <Energy>  (33) 
86.71600982606792

>  <Genealogy>  (33) 
COc1cccc(NC(=O)CSc2oc(-c3ccccc3)nc2S(=O)(=O)c2ccc(F)cc2)c1 (3D coordinates assigned)
COc1cccc(NC(=O)CSc2oc(-c3ccccc3)nc2S(=O)(=O)c2ccc(F)cc2)c1 (optimized conformer: 86.71600982606792 kcal/mol)

>  <smiles>  (33) 
COc1cccc(NC(=O)CSc2oc(-c3ccccc3)nc2S(=O)(=O)c2ccc(F)cc2)c1

>  <score_type>  (33) 
oracle

>  <origin>  (33) 
adgpu

>  <m_score__min__energy>  (33) 
-9.8599999999999994

>  <m_primary>  (33) 
energy

$$$$
33:0
     RDKit          3D

 44 45  0  0  0  0  0  0  0  0999 V2000
   -2.2480   21.8820  -29.1380 C   0  0  0  0  0  0  0  0  0  0  0  0
   -1.6310   22.3330  -30.4650 C   0  0  0  0  0  0  0  0  0  0  0  0
   -2.6050   22.1970  -31.5640 N   0  0  0  0  0  0  0  0  0  0  0  0
   -2.2070   21.5370  -32.8150 C   0  0  0  0  0  0  0  0  0  0  0  0
   -2.7580   20.1170  -32.8660 C   0  0  0  0  0  0  0  0  0  0  0  0
   -3.9640   22.6510  -31.3860 C   0  0  0  0  0  0  0  0  0  0  0  0
   -4.2160   23.8900  -30.8800 N   0  0  0  0  0  0  0  0  0  0  0  0
   -5.4920   24.3190  -30.7120 C   0  0  0  0  0  0  0  0  0  0  0  0
   -5.7550   25.6990  -30.2050 C   0  0  0  0  0  0  0  0  0  0  0  0
   -6.5250   23.5200  -31.0900 N   0  0  0  0  0  0  0  0  0  0  0  0
   -6.2910   22.2840  -31.6120 C   0  0  0  0  0  0  0  0  0  0  0  0
   -7.3900   21.4350  -32.0140 N   0  0  0  0  0  0  0  0  0  0  0  0
   -8.7660   21.9550  -31.9840 C   0  0  0  0  0  0  0  0  0  0  0  0
   -9.4700   21.5590  -30.6860 C   0  0  0  0  0  0  0  0  0  0  0  0
   -7.1350   20.1090  -32.5350 C   0  0  0  0  0  0  0  0  0  0  0  0
   -7.6690   18.9800  -31.8860 C   0  0  0  0  0  0  0  0  0  0  0  0
   -7.4250   17.7000  -32.3870 C   0  0  0  0  0  0  0  0  0  0  0  0
   -6.6280   17.5310  -33.5220 C   0  0  0  0  0  0  0  0  0  0  0  0
   -6.0810   18.6440  -34.1680 C   0  0  0  0  0  0  0  0  0  0  0  0
   -6.3370   19.9290  -33.6820 C   0  0  0  0  0  0  0  0  0  0  0  0
   -5.0070   21.8510  -31.7410 N   0  0  0  0  0  0  0  0  0  0  0  0
   -1.6702   22.3043  -28.3027 H   0  0  0  0  0  0  0  0  0  0  0  0
   -3.2885   22.2339  -29.0791 H   0  0  0  0  0  0  0  0  0  0  0  0
   -2.2285   20.7838  -29.0791 H   0  0  0  0  0  0  0  0  0  0  0  0
   -1.3249   23.3863  -30.3817 H   0  0  0  0  0  0  0  0  0  0  0  0
   -0.7591   21.6991  -30.6839 H   0  0  0  0  0  0  0  0  0  0  0  0
   -2.6009   22.1093  -33.6678 H   0  0  0  0  0  0  0  0  0  0  0  0
   -1.1088   21.4952  -32.8623 H   0  0  0  0  0  0  0  0  0  0  0  0
   -2.9031   19.7430  -31.8418 H   0  0  0  0  0  0  0  0  0  0  0  0
   -3.7216   20.1164  -33.3965 H   0  0  0  0  0  0  0  0  0  0  0  0
   -2.0470   19.4666  -33.3965 H   0  0  0  0  0  0  0  0  0  0  0  0
   -5.7537   25.6920  -29.1050 H   0  0  0  0  0  0  0  0  0  0  0  0
   -4.9703   26.3789  -30.5683 H   0  0  0  0  0  0  0  0  0  0  0  0
   -6.7348   26.0426  -30.5683 H   0  0  0  0  0  0  0  0  0  0  0  0
   -8.7382   23.0521  -32.0585 H   0  0  0  0  0  0  0  0  0  0  0  0
   -9.3224   21.5267  -32.8307 H   0  0  0  0  0  0  0  0  0  0  0  0
   -8.8714   21.8957  -29.8268 H   0  0  0  0  0  0  0  0  0  0  0  0
  -10.4629   22.0310  -30.6487 H   0  0  0  0  0  0  0  0  0  0  0  0
   -9.5822   20.4654  -30.6487 H   0  0  0  0  0  0  0  0  0  0  0  0
   -8.2809   19.1067  -30.9807 H   0  0  0  0  0  0  0  0  0  0  0  0
   -7.8612   16.8226  -31.8871 H   0  0  0  0  0  0  0  0  0  0  0  0
   -6.4304   16.5202  -33.9083 H   0  0  0  0  0  0  0  0  0  0  0  0
   -5.4495   18.5081  -35.0583 H   0  0  0  0  0  0  0  0  0  0  0  0
   -5.9136   20.8038  -34.1973 H   0  0  0  0  0  0  0  0  0  0  0  0
  1  2  1  0
  2  3  1  0
  3  4  1  0
  4  5  1  0
  3  6  1  0
  6  7  2  0
  7  8  1  0
  8  9  1  0
  8 10  2  0
 10 11  1  0
 11 12  1  0
 12 13  1  0
 13 14  1  0
 12 15  1  0
 15 16  2  0
 16 17  1  0
 17 18  2  0
 18 19  1  0
 19 20  2  0
 11 21  2  0
 21  6  1  0
 20 15  1  0
  1 22  1  0
  1 23  1  0
  1 24  1  0
  2 25  1  0
  2 26  1  0
  4 27  1  0
  4 28  1  0
  5 29  1  0
  5 30  1  0
  5 31  1  0
  9 32  1  0
  9 33  1  0
  9 34  1  0
 13 35  1  0
 13 36  1  0
 14 37  1  0
 14 38  1  0
 14 39  1  0
 16 40  1  0
 17 41  1  0
 18 42  1  0
 19 43  1  0
 20 44  1  0
M  END
>  <UniqueID>  (34) 
34

>  <SMILES>  (34) 
CCN(CC)c1nc(C)nc(N(CC)c2ccccc2)n1

>  <Energy>  (34) 
38.315154259853486

>  <Genealogy>  (34) 
CCN(CC)c1nc(C)nc(N(CC)c2ccccc2)n1 (3D coordinates assigned)
CCN(CC)c1nc(C)nc(N(CC)c2ccccc2)n1 (optimized conformer: 38.315154259853486 kcal/mol)

>  <smiles>  (34) 
CCN(CC)c1nc(C)nc(N(CC)c2ccccc2)n1

>  <score_type>  (34) 
oracle

>  <origin>  (34) 
adgpu

>  <m_score__min__energy>  (34) 
-6.9699999999999998

>  <m_primary>  (34) 
energy

$$$$
34:0
     RDKit          3D

 39 40  0  0  0  0  0  0  0  0999 V2000
   -6.1880   23.6920  -29.6830 C   0  0  0  0  0  0  0  0  0  0  0  0
   -6.2840   24.8610  -30.3190 C   0  0  0  0  0  0  0  0  0  0  0  0
   -5.0910   25.7620  -30.4650 C   0  0  0  0  0  0  0  0  0  0  0  0
   -3.8920   24.9830  -30.7550 N   0  0  0  0  0  0  0  0  0  0  0  0
   -2.9810   24.4980  -29.7600 C   0  0  0  0  0  0  0  0  0  0  0  0
   -2.1750   25.3000  -29.2200 O   0  0  0  0  0  0  0  0  0  0  0  0
   -2.9570   23.0780  -29.3670 C   0  0  0  0  0  0  0  0  0  0  0  0
   -2.6910   22.7560  -28.0280 C   0  0  0  0  0  0  0  0  0  0  0  0
   -2.6410   21.4230  -27.6170 C   0  0  0  0  0  0  0  0  0  0  0  0
   -2.8620   20.4000  -28.5380 C   0  0  0  0  0  0  0  0  0  0  0  0
   -3.1390   20.7050  -29.8720 C   0  0  0  0  0  0  0  0  0  0  0  0
   -3.1960   22.0430  -30.3030 C   0  0  0  0  0  0  0  0  0  0  0  0
   -3.5740   22.3380  -31.7360 C   0  0  0  0  0  0  0  0  0  0  0  0
   -3.9650   20.8040  -32.6540 S   0  0  0  0  0  0  0  0  0  0  0  0
   -5.7440   20.8950  -32.3900 C   0  0  0  0  0  0  0  0  0  0  0  0
   -6.3510   22.1550  -32.3390 C   0  0  0  0  0  0  0  0  0  0  0  0
   -7.7220   22.2690  -32.1190 C   0  0  0  0  0  0  0  0  0  0  0  0
   -8.5030   21.1240  -31.9620 C   0  0  0  0  0  0  0  0  0  0  0  0
   -7.9180   19.8480  -32.0260 C   0  0  0  0  0  0  0  0  0  0  0  0
   -8.7780   18.6260  -31.8580 C   0  0  0  0  0  0  0  0  0  0  0  0
   -6.5280   19.7320  -32.2470 C   0  0  0  0  0  0  0  0  0  0  0  0
   -5.7720   18.1380  -32.3410 Cl  0  0  0  0  0  0  0  0  0  0  0  0
   -7.0720   23.0447  -29.5854 H   0  0  0  0  0  0  0  0  0  0  0  0
   -5.2248   23.3755  -29.2562 H   0  0  0  0  0  0  0  0  0  0  0  0
   -7.2511   25.1695  -30.7427 H   0  0  0  0  0  0  0  0  0  0  0  0
   -5.2706   26.4692  -31.2882 H   0  0  0  0  0  0  0  0  0  0  0  0
   -4.9404   26.3070  -29.5214 H   0  0  0  0  0  0  0  0  0  0  0  0
   -2.5206   23.5597  -27.2966 H   0  0  0  0  0  0  0  0  0  0  0  0
   -2.4271   21.1795  -26.5658 H   0  0  0  0  0  0  0  0  0  0  0  0
   -2.8180   19.3501  -28.2129 H   0  0  0  0  0  0  0  0  0  0  0  0
   -3.3142   19.8922  -30.5922 H   0  0  0  0  0  0  0  0  0  0  0  0
   -4.4561   22.9951  -31.7452 H   0  0  0  0  0  0  0  0  0  0  0  0
   -2.7183   22.8256  -32.2260 H   0  0  0  0  0  0  0  0  0  0  0  0
   -5.7418   23.0610  -32.4735 H   0  0  0  0  0  0  0  0  0  0  0  0
   -8.1893   23.2635  -32.0690 H   0  0  0  0  0  0  0  0  0  0  0  0
   -9.5847   21.2206  -31.7868 H   0  0  0  0  0  0  0  0  0  0  0  0
   -8.9210   18.4228  -30.7864 H   0  0  0  0  0  0  0  0  0  0  0  0
   -9.7555   18.7975  -32.3323 H   0  0  0  0  0  0  0  0  0  0  0  0
   -8.2866   17.7637  -32.3323 H   0  0  0  0  0  0  0  0  0  0  0  0
  1  2  2  0
  2  3  1  0
  3  4  1  0
  4  5  1  0
  5  6  2  0
  5  7  1  0
  7  8  2  0
  8  9  1  0
  9 10  2  0
 10 11  1  0
 11 12  2  0
 12 13  1  0
 13 14  1  0
 14 15  1  0
 15 16  2  0
 16 17  1  0
 17 18  2  0
 18 19  1  0
 19 20  1  0
 19 21  2  0
 21 22  1  0
 12  7  1  0
 21 15  1  0
  1 23  1  0
  1 24  1  0
  2 25  1  0
  3 26  1  0
  3 27  1  0
  8 28  1  0
  9 29  1  0
 10 30  1  0
 11 31  1  0
 13 32  1  0
 13 33  1  0
 16 34  1  0
 17 35  1  0
 18 36  1  0
 20 37  1  0
 20 38  1  0
 20 39  1  0
M  CHG  1   4  -1
M  END
>  <UniqueID>  (35) 
35

>  <SMILES>  (35) 
C=CC[N-]C(=O)c1ccccc1CSc1cccc(C)c1Cl

>  <Energy>  (35) 
38.29267737383718

>  <Genealogy>  (35) 
C=CC[N-]C(=O)c1ccccc1CSc1cccc(C)c1Cl (protonated)
C=CC[N-]C(=O)c1ccccc1CSc1cccc(C)c1Cl (3D coordinates assigned)
C=CC[N-]C(=O)c1ccccc1CSc1cccc(C)c1Cl (optimized conformer: 38.29267737383718 kcal/mol)

>  <smiles>  (35) 
C=CCNC(=O)c1ccccc1CSc1cccc(C)c1Cl

>  <score_type>  (35) 
oracle

>  <origin>  (35) 
adgpu

>  <m_score__min__energy>  (35) 
-10.02

>  <m_primary>  (35) 
energy

$$$$
35:0
     RDKit          3D

 57 60  0  0  0  0  0  0  0  0999 V2000
   -1.8690   18.8630  -34.1970 C   0  0  0  0  0  0  0  0  0  0  0  0
   -1.1430   19.1960  -32.9260 C   0  0  0  0  0  0  0  0  0  0  0  0
   -0.8850   20.5270  -32.5740 C   0  0  0  0  0  0  0  0  0  0  0  0
   -0.2250   20.8240  -31.3810 C   0  0  0  0  0  0  0  0  0  0  0  0
    0.1820   19.7960  -30.5170 C   0  0  0  0  0  0  0  0  0  0  0  0
    0.8490   20.1000  -29.2870 N   0  0  0  0  0  0  0  0  0  0  0  0
    0.0860   20.9490  -27.9840 S   0  0  0  0  0  0  0  0  0  0  0  0
   -0.7380   20.0120  -27.1430 O   0  0  0  0  0  0  0  0  0  0  0  0
    1.1480   21.5580  -27.1120 O   0  0  0  0  0  0  0  0  0  0  0  0
   -0.9250   22.2210  -28.6620 C   0  0  0  0  0  0  0  0  0  0  0  0
   -2.2120   21.9280  -29.1350 C   0  0  0  0  0  0  0  0  0  0  0  0
   -3.0390   22.9500  -29.6090 C   0  0  0  0  0  0  0  0  0  0  0  0
   -2.5900   24.2760  -29.6220 C   0  0  0  0  0  0  0  0  0  0  0  0
   -3.4900   25.2990  -30.0690 N   0  0  0  0  0  0  0  0  0  0  0  0
   -4.7050   25.1030  -30.7980 C   0  0  0  0  0  0  0  0  0  0  0  0
   -5.6390   25.9370  -30.6610 O   0  0  0  0  0  0  0  0  0  0  0  0
   -4.8980   23.9210  -31.5860 N   0  0  0  0  0  0  0  0  0  0  0  0
   -6.1010   23.1460  -31.6860 C   0  0  0  0  0  0  0  0  0  0  0  0
   -7.3690   23.7300  -31.5010 C   0  0  0  0  0  0  0  0  0  0  0  0
   -8.5250   22.9570  -31.6230 C   0  0  0  0  0  0  0  0  0  0  0  0
   -8.4320   21.6040  -31.9550 C   0  0  0  0  0  0  0  0  0  0  0  0
   -7.1820   21.0220  -32.1710 C   0  0  0  0  0  0  0  0  0  0  0  0
   -6.0170   21.7850  -32.0360 C   0  0  0  0  0  0  0  0  0  0  0  0
   -4.4180   20.9950  -32.2770 S   0  0  0  0  0  0  0  0  0  0  0  0
   -5.1570   19.4420  -32.7840 C   0  0  0  0  0  0  0  0  0  0  0  0
   -5.4840   18.4720  -31.8280 C   0  0  0  0  0  0  0  0  0  0  0  0
   -6.0690   17.2650  -32.2260 C   0  0  0  0  0  0  0  0  0  0  0  0
   -6.3310   17.0290  -33.5780 C   0  0  0  0  0  0  0  0  0  0  0  0
   -6.0080   17.9960  -34.5340 C   0  0  0  0  0  0  0  0  0  0  0  0
   -5.4180   19.2000  -34.1390 C   0  0  0  0  0  0  0  0  0  0  0  0
   -1.3090   24.5730  -29.1240 C   0  0  0  0  0  0  0  0  0  0  0  0
   -0.4800   23.5490  -28.6530 C   0  0  0  0  0  0  0  0  0  0  0  0
   -0.0880   18.4540  -30.8570 C   0  0  0  0  0  0  0  0  0  0  0  0
    0.3470   17.3370  -29.9460 C   0  0  0  0  0  0  0  0  0  0  0  0
   -0.7480   18.1640  -32.0610 C   0  0  0  0  0  0  0  0  0  0  0  0
   -2.8445   18.4156  -33.9556 H   0  0  0  0  0  0  0  0  0  0  0  0
   -2.0217   19.7811  -34.7834 H   0  0  0  0  0  0  0  0  0  0  0  0
   -1.2728   18.1483  -34.7834 H   0  0  0  0  0  0  0  0  0  0  0  0
   -1.2040   21.3416  -33.2409 H   0  0  0  0  0  0  0  0  0  0  0  0
   -0.0222   21.8721  -31.1158 H   0  0  0  0  0  0  0  0  0  0  0  0
   -2.5725   20.8887  -29.1330 H   0  0  0  0  0  0  0  0  0  0  0  0
   -4.0488   22.7111  -29.9741 H   0  0  0  0  0  0  0  0  0  0  0  0
   -7.4489   24.8001  -31.2593 H   0  0  0  0  0  0  0  0  0  0  0  0
   -9.5114   23.4148  -31.4572 H   0  0  0  0  0  0  0  0  0  0  0  0
   -9.3444   20.9964  -32.0464 H   0  0  0  0  0  0  0  0  0  0  0  0
   -7.1125   19.9598  -32.4483 H   0  0  0  0  0  0  0  0  0  0  0  0
   -5.2807   18.6593  -30.7633 H   0  0  0  0  0  0  0  0  0  0  0  0
   -6.3225   16.5023  -31.4750 H   0  0  0  0  0  0  0  0  0  0  0  0
   -6.7923   16.0805  -33.8905 H   0  0  0  0  0  0  0  0  0  0  0  0
   -6.2181   17.8095  -35.5975 H   0  0  0  0  0  0  0  0  0  0  0  0
   -5.1584   19.9581  -34.8926 H   0  0  0  0  0  0  0  0  0  0  0  0
   -0.9571   25.6150  -29.1046 H   0  0  0  0  0  0  0  0  0  0  0  0
    0.5248   23.7878  -28.2743 H   0  0  0  0  0  0  0  0  0  0  0  0
    0.2252   17.6497  -28.8984 H   0  0  0  0  0  0  0  0  0  0  0  0
   -0.2701   16.4467  -30.1370 H   0  0  0  0  0  0  0  0  0  0  0  0
    1.4037   17.0985  -30.1370 H   0  0  0  0  0  0  0  0  0  0  0  0
   -0.9577   17.1180  -32.3292 H   0  0  0  0  0  0  0  0  0  0  0  0
  1  2  1  0
  2  3  2  0
  3  4  1  0
  4  5  2  0
  5  6  1  0
  6  7  1  0
  7  8  2  0
  7  9  2  0
  7 10  1  0
 10 11  2  0
 11 12  1  0
 12 13  2  0
 13 14  1  0
 14 15  1  0
 15 16  2  0
 15 17  1  0
 17 18  1  0
 18 19  2  0
 19 20  1  0
 20 21  2  0
 21 22  1  0
 22 23  2  0
 23 24  1  0
 24 25  1  0
 25 26  2  0
 26 27  1  0
 27 28  2  0
 28 29  1  0
 29 30  2  0
 13 31  1  0
 31 32  2  0
  5 33  1  0
 33 34  1  0
 33 35  2  0
 35  2  1  0
 32 10  1  0
 23 18  1  0
 30 25  1  0
  1 36  1  0
  1 37  1  0
  1 38  1  0
  3 39  1  0
  4 40  1  0
 11 41  1  0
 12 42  1  0
 19 43  1  0
 20 44  1  0
 21 45  1  0
 22 46  1  0
 26 47  1  0
 27 48  1  0
 28 49  1  0
 29 50  1  0
 30 51  1  0
 31 52  1  0
 32 53  1  0
 34 54  1  0
 34 55  1  0
 34 56  1  0
 35 57  1  0
M  CHG  3   6  -1  14  -1  17  -1
M  END
>  <UniqueID>  (36) 
36

>  <SMILES>  (36) 
Cc1ccc([N-]S(=O)(=O)c2ccc([N-]C(=O)[N-]c3ccccc3Sc3ccccc3)cc2)c(C)c1

>  <Energy>  (36) 
69.35075327690792

>  <Genealogy>  (36) 
Cc1ccc([N-]S(=O)(=O)c2ccc([N-]C(=O)[N-]c3ccccc3Sc3ccccc3)cc2)c(C)c1 (protonated)
Cc1ccc([N-]S(=O)(=O)c2ccc([N-]C(=O)[N-]c3ccccc3Sc3ccccc3)cc2)c(C)c1 (3D coordinates assigned)
Cc1ccc([N-]S(=O)(=O)c2ccc([N-]C(=O)[N-]c3ccccc3Sc3ccccc3)cc2)c(C)c1 (optimized conformer: 69.35075327690792 kcal/mol)

>  <smiles>  (36) 
Cc1ccc(NS(=O)(=O)c2ccc(NC(=O)Nc3ccccc3Sc3ccccc3)cc2)c(C)c1

>  <score_type>  (36) 
oracle

>  <origin>  (36) 
adgpu

>  <m_score__min__energy>  (36) 
-14.08

>  <m_primary>  (36) 
energy

$$$$
36:0
     RDKit          3D

 53 56  0  0  0  0  0  0  0  0999 V2000
   -1.9590   12.5760  -25.2560 C   0  0  0  0  0  0  0  0  0  0  0  0
   -0.4850   12.4630  -25.0560 C   0  0  0  0  0  0  0  0  0  0  0  0
    0.4870   12.8230  -25.9640 C   0  0  0  0  0  0  0  0  0  0  0  0
    1.6590   12.5520  -25.2800 C   0  0  0  0  0  0  0  0  0  0  0  0
    2.8710   12.7250  -25.7140 N   0  0  0  0  0  0  0  0  0  0  0  0
    3.2660   13.3310  -27.2910 S   0  0  0  0  0  0  0  0  0  0  0  0
    4.7590   13.4550  -27.4110 O   0  0  0  0  0  0  0  0  0  0  0  0
    2.7730   12.3650  -28.3300 O   0  0  0  0  0  0  0  0  0  0  0  0
    2.4860   14.8890  -27.5440 C   0  0  0  0  0  0  0  0  0  0  0  0
    1.3960   15.0090  -28.4160 C   0  0  0  0  0  0  0  0  0  0  0  0
    0.7930   16.2550  -28.6210 C   0  0  0  0  0  0  0  0  0  0  0  0
    1.2650   17.3920  -27.9430 C   0  0  0  0  0  0  0  0  0  0  0  0
    0.6790   18.6880  -28.1530 N   0  0  0  0  0  0  0  0  0  0  0  0
   -0.6050   19.0770  -27.6280 C   0  0  0  0  0  0  0  0  0  0  0  0
   -1.2520   18.2820  -26.8940 O   0  0  0  0  0  0  0  0  0  0  0  0
   -1.1870   20.4100  -27.9250 C   0  0  0  0  0  0  0  0  0  0  0  0
   -0.6800   21.5510  -27.2780 C   0  0  0  0  0  0  0  0  0  0  0  0
   -1.2040   22.8180  -27.5520 C   0  0  0  0  0  0  0  0  0  0  0  0
   -2.2400   22.9650  -28.4820 C   0  0  0  0  0  0  0  0  0  0  0  0
   -2.8940   24.5570  -28.8520 S   0  0  0  0  0  0  0  0  0  0  0  0
   -1.7930   25.5730  -28.7370 O   0  0  0  0  0  0  0  0  0  0  0  0
   -3.9930   24.9220  -27.8920 O   0  0  0  0  0  0  0  0  0  0  0  0
   -3.5210   24.5780  -30.4690 N   0  0  0  0  0  0  0  0  0  0  0  0
   -4.7640   23.9960  -30.8830 C   0  0  0  0  0  0  0  0  0  0  0  0
   -4.7340   22.8930  -31.7470 C   0  0  0  0  0  0  0  0  0  0  0  0
   -5.9240   22.3020  -32.1840 C   0  0  0  0  0  0  0  0  0  0  0  0
   -7.1550   22.8100  -31.7590 C   0  0  0  0  0  0  0  0  0  0  0  0
   -7.1960   23.9070  -30.8940 C   0  0  0  0  0  0  0  0  0  0  0  0
   -6.0070   24.4990  -30.4530 C   0  0  0  0  0  0  0  0  0  0  0  0
   -2.7420   21.8370  -29.1400 C   0  0  0  0  0  0  0  0  0  0  0  0
   -2.2190   20.5690  -28.8690 C   0  0  0  0  0  0  0  0  0  0  0  0
    2.3710   17.2700  -27.0880 C   0  0  0  0  0  0  0  0  0  0  0  0
    2.9720   16.0240  -26.8830 C   0  0  0  0  0  0  0  0  0  0  0  0
    1.3860   12.0690  -24.0540 N   0  0  0  0  0  0  0  0  0  0  0  0
    0.0870   12.0320  -23.9550 O   0  0  0  0  0  0  0  0  0  0  0  0
   -2.4599   12.6144  -24.2774 H   0  0  0  0  0  0  0  0  0  0  0  0
   -2.1833   13.4940  -25.8190 H   0  0  0  0  0  0  0  0  0  0  0  0
   -2.3206   11.7029  -25.8190 H   0  0  0  0  0  0  0  0  0  0  0  0
    0.3623   13.2257  -26.9800 H   0  0  0  0  0  0  0  0  0  0  0  0
    1.0132   14.1214  -28.9409 H   0  0  0  0  0  0  0  0  0  0  0  0
   -0.0547   16.3450  -29.3163 H   0  0  0  0  0  0  0  0  0  0  0  0
    1.2550   19.3870  -28.6690 H   0  0  0  0  0  0  0  0  0  0  0  0
    0.1370   21.4457  -26.5490 H   0  0  0  0  0  0  0  0  0  0  0  0
   -0.8011   23.7017  -27.0354 H   0  0  0  0  0  0  0  0  0  0  0  0
   -3.7678   22.4892  -32.0838 H   0  0  0  0  0  0  0  0  0  0  0  0
   -5.8912   21.4369  -32.8626 H   0  0  0  0  0  0  0  0  0  0  0  0
   -8.0907   22.3467  -32.1051 H   0  0  0  0  0  0  0  0  0  0  0  0
   -8.1649   24.3059  -30.5591 H   0  0  0  0  0  0  0  0  0  0  0  0
   -6.0435   25.3595  -29.7687 H   0  0  0  0  0  0  0  0  0  0  0  0
   -3.5529   21.9484  -29.8749 H   0  0  0  0  0  0  0  0  0  0  0  0
   -2.6166   19.6898  -29.3970 H   0  0  0  0  0  0  0  0  0  0  0  0
    2.7674   18.1593  -26.5762 H   0  0  0  0  0  0  0  0  0  0  0  0
    3.8297   15.9351  -26.2000 H   0  0  0  0  0  0  0  0  0  0  0  0
  1  2  1  0
  2  3  2  0
  3  4  1  0
  4  5  2  3
  5  6  1  0
  6  7  2  0
  6  8  2  0
  6  9  1  0
  9 10  2  0
 10 11  1  0
 11 12  2  0
 12 13  1  0
 13 14  1  0
 14 15  2  0
 14 16  1  0
 16 17  2  0
 17 18  1  0
 18 19  2  0
 19 20  1  0
 20 21  2  0
 20 22  2  0
 20 23  1  0
 23 24  1  0
 24 25  2  0
 25 26  1  0
 26 27  2  0
 27 28  1  0
 28 29  2  0
 19 30  1  0
 30 31  2  0
 12 32  1  0
 32 33  2  0
  4 34  1  0
 34 35  1  0
 35  2  1  0
 33  9  1  0
 31 16  1  0
 29 24  1  0
  1 36  1  0
  1 37  1  0
  1 38  1  0
  3 39  1  0
 10 40  1  0
 11 41  1  0
 13 42  1  0
 17 43  1  0
 18 44  1  0
 25 45  1  0
 26 46  1  0
 27 47  1  0
 28 48  1  0
 29 49  1  0
 30 50  1  0
 31 51  1  0
 32 52  1  0
 33 53  1  0
M  CHG  2  23  -1  34  -1
M  END
>  <UniqueID>  (37) 
37

>  <SMILES>  (37) 
Cc1cc(=NS(=O)(=O)c2ccc(NC(=O)c3ccc(S(=O)(=O)[N-]c4ccccc4)cc3)cc2)[n-]o1

>  <Energy>  (37) 
100.77066426694947

>  <Genealogy>  (37) 
Cc1cc(=NS(=O)(=O)c2ccc(NC(=O)c3ccc(S(=O)(=O)[N-]c4ccccc4)cc3)cc2)[n-]o1 (protonated)
Cc1cc(=NS(=O)(=O)c2ccc(NC(=O)c3ccc(S(=O)(=O)[N-]c4ccccc4)cc3)cc2)[n-]o1 (3D coordinates assigned)
Cc1cc(=NS(=O)(=O)c2ccc(NC(=O)c3ccc(S(=O)(=O)[N-]c4ccccc4)cc3)cc2)[n-]o1 (optimized conformer: 100.77066426694947 kcal/mol)

>  <smiles>  (37) 
Cc1cc(=NS(=O)(=O)c2ccc(NC(=O)c3ccc(S(=O)(=O)Nc4ccccc4)cc3)cc2)[nH]o1

>  <score_type>  (37) 
oracle

>  <origin>  (37) 
adgpu

>  <m_score__min__energy>  (37) 
-10.16

>  <m_primary>  (37) 
energy

$$$$
37:0
     RDKit          3D

 49 52  0  0  0  0  0  0  0  0999 V2000
    1.8590   14.7410  -37.7670 C   0  0  0  0  0  0  0  0  0  0  0  0
    1.7510   15.6780  -36.7010 O   0  0  0  0  0  0  0  0  0  0  0  0
    0.5380   16.1070  -36.1430 C   0  0  0  0  0  0  0  0  0  0  0  0
   -0.6450   15.3480  -36.2320 C   0  0  0  0  0  0  0  0  0  0  0  0
   -1.8290   15.8190  -35.6580 C   0  0  0  0  0  0  0  0  0  0  0  0
   -1.8590   17.0540  -34.9880 C   0  0  0  0  0  0  0  0  0  0  0  0
   -3.1190   17.5540  -34.3810 C   0  0  0  0  0  0  0  0  0  0  0  0
   -4.2860   16.7780  -34.4090 C   0  0  0  0  0  0  0  0  0  0  0  0
   -5.4340   17.2450  -33.8570 N   0  0  0  0  0  0  0  0  0  0  0  0
   -5.5160   18.4640  -33.2550 C   0  0  0  0  0  0  0  0  0  0  0  0
   -6.8340   18.8950  -32.7370 C   0  0  0  0  0  0  0  0  0  0  0  0
   -7.4820   18.1320  -31.7530 C   0  0  0  0  0  0  0  0  0  0  0  0
   -8.7310   18.5250  -31.2620 C   0  0  0  0  0  0  0  0  0  0  0  0
   -9.3480   19.6760  -31.7600 C   0  0  0  0  0  0  0  0  0  0  0  0
   -8.7200   20.4300  -32.7550 C   0  0  0  0  0  0  0  0  0  0  0  0
   -7.4730   20.0400  -33.2490 C   0  0  0  0  0  0  0  0  0  0  0  0
   -4.3570   19.2730  -33.1690 C   0  0  0  0  0  0  0  0  0  0  0  0
   -4.3390   20.5650  -32.4420 C   0  0  0  0  0  0  0  0  0  0  0  0
   -4.9560   21.6970  -32.9970 C   0  0  0  0  0  0  0  0  0  0  0  0
   -4.9460   22.9150  -32.3100 C   0  0  0  0  0  0  0  0  0  0  0  0
   -4.3100   23.0180  -31.0660 C   0  0  0  0  0  0  0  0  0  0  0  0
   -4.3150   24.5450  -30.1920 S   0  0  0  0  0  0  0  0  0  0  0  0
   -2.7030   24.9260  -29.6970 N   0  0  0  0  0  0  0  0  0  0  0  0
   -5.2010   24.4380  -28.9820 O   0  0  0  0  0  0  0  0  0  0  0  0
   -4.8390   25.6390  -31.0790 O   0  0  0  0  0  0  0  0  0  0  0  0
   -3.6870   21.8930  -30.5120 C   0  0  0  0  0  0  0  0  0  0  0  0
   -3.6950   20.6750  -31.1990 C   0  0  0  0  0  0  0  0  0  0  0  0
   -3.1690   18.8080  -33.7530 C   0  0  0  0  0  0  0  0  0  0  0  0
   -0.6740   17.8090  -34.9030 C   0  0  0  0  0  0  0  0  0  0  0  0
    0.5090   17.3350  -35.4760 C   0  0  0  0  0  0  0  0  0  0  0  0
    1.9758   13.7280  -37.3544 H   0  0  0  0  0  0  0  0  0  0  0  0
    0.9501   14.7826  -38.3852 H   0  0  0  0  0  0  0  0  0  0  0  0
    2.7346   14.9883  -38.3852 H   0  0  0  0  0  0  0  0  0  0  0  0
   -0.6370   14.3805  -36.7554 H   0  0  0  0  0  0  0  0  0  0  0  0
   -2.7467   15.2170  -35.7314 H   0  0  0  0  0  0  0  0  0  0  0  0
   -4.2709   15.7846  -34.8813 H   0  0  0  0  0  0  0  0  0  0  0  0
   -7.0046   17.2197  -31.3659 H   0  0  0  0  0  0  0  0  0  0  0  0
   -9.2282   17.9279  -30.4834 H   0  0  0  0  0  0  0  0  0  0  0  0
  -10.3276   19.9882  -31.3689 H   0  0  0  0  0  0  0  0  0  0  0  0
   -9.2088   21.3327  -33.1501 H   0  0  0  0  0  0  0  0  0  0  0  0
   -6.9885   20.6298  -34.0411 H   0  0  0  0  0  0  0  0  0  0  0  0
   -5.4499   21.6257  -33.9773 H   0  0  0  0  0  0  0  0  0  0  0  0
   -5.4392   23.7953  -32.7479 H   0  0  0  0  0  0  0  0  0  0  0  0
   -2.7620   25.7780  -29.0960 H   0  0  0  0  0  0  0  0  0  0  0  0
   -3.1899   21.9675  -29.5336 H   0  0  0  0  0  0  0  0  0  0  0  0
   -3.1939   19.7981  -30.7632 H   0  0  0  0  0  0  0  0  0  0  0  0
   -2.2654   19.4343  -33.7182 H   0  0  0  0  0  0  0  0  0  0  0  0
   -0.6793   18.7780  -34.3824 H   0  0  0  0  0  0  0  0  0  0  0  0
    1.4279   17.9351  -35.4013 H   0  0  0  0  0  0  0  0  0  0  0  0
  1  2  1  0
  2  3  1  0
  3  4  2  0
  4  5  1  0
  5  6  2  0
  6  7  1  0
  7  8  2  0
  8  9  1  0
  9 10  2  0
 10 11  1  0
 11 12  2  0
 12 13  1  0
 13 14  2  0
 14 15  1  0
 15 16  2  0
 10 17  1  0
 17 18  1  0
 18 19  2  0
 19 20  1  0
 20 21  2  0
 21 22  1  0
 22 23  1  0
 22 24  2  0
 22 25  2  0
 21 26  1  0
 26 27  2  0
 17 28  2  0
  6 29  1  0
 29 30  2  0
 30  3  1  0
 28  7  1  0
 16 11  1  0
 27 18  1  0
  1 31  1  0
  1 32  1  0
  1 33  1  0
  4 34  1  0
  5 35  1  0
  8 36  1  0
 12 37  1  0
 13 38  1  0
 14 39  1  0
 15 40  1  0
 16 41  1  0
 19 42  1  0
 20 43  1  0
 23 44  1  0
 26 45  1  0
 27 46  1  0
 28 47  1  0
 29 48  1  0
 30 49  1  0
M  CHG  1  23  -1
M  END
>  <UniqueID>  (38) 
38

>  <SMILES>  (38) 
COc1ccc(-c2cnc(-c3ccccc3)c(-c3ccc(S([NH-])(=O)=O)cc3)c2)cc1

>  <Energy>  (38) 
70.88862911550102

>  <Genealogy>  (38) 
COc1ccc(-c2cnc(-c3ccccc3)c(-c3ccc(S([NH-])(=O)=O)cc3)c2)cc1 (protonated)
COc1ccc(-c2cnc(-c3ccccc3)c(-c3ccc(S([NH-])(=O)=O)cc3)c2)cc1 (3D coordinates assigned)
COc1ccc(-c2cnc(-c3ccccc3)c(-c3ccc(S([NH-])(=O)=O)cc3)c2)cc1 (optimized conformer: 70.88862911550102 kcal/mol)

>  <smiles>  (38) 
COc1ccc(-c2cnc(-c3ccccc3)c(-c3ccc(S(N)(=O)=O)cc3)c2)cc1

>  <score_type>  (38) 
oracle

>  <origin>  (38) 
adgpu

>  <m_score__min__energy>  (38) 
-10.94

>  <m_primary>  (38) 
energy

$$$$
38:0
     RDKit          3D

 41 43  0  0  0  0  0  0  0  0999 V2000
   -4.2490   24.4030  -26.8300 C   0  0  0  0  0  0  0  0  0  0  0  0
   -2.9430   25.0420  -26.4880 C   0  0  0  0  0  0  0  0  0  0  0  0
   -2.7110   25.6840  -25.3260 N   0  0  0  0  0  0  0  0  0  0  0  0
   -1.4680   26.1430  -25.3650 N   0  0  0  0  0  0  0  0  0  0  0  0
   -0.8740   26.9530  -24.3100 C   0  0  0  0  0  0  0  0  0  0  0  0
   -0.8980   25.8240  -26.5440 C   0  0  0  0  0  0  0  0  0  0  0  0
    0.6890   26.3790  -27.0620 Cl  0  0  0  0  0  0  0  0  0  0  0  0
   -1.8140   25.1060  -27.2940 C   0  0  0  0  0  0  0  0  0  0  0  0
   -1.6620   24.5790  -28.6660 C   0  0  0  0  0  0  0  0  0  0  0  0
   -0.7310   23.7690  -28.9120 O   0  0  0  0  0  0  0  0  0  0  0  0
   -2.5680   24.9290  -29.7200 N   0  0  0  0  0  0  0  0  0  0  0  0
   -3.8960   24.4150  -29.9090 C   0  0  0  0  0  0  0  0  0  0  0  0
   -4.9860   25.2710  -30.1500 C   0  0  0  0  0  0  0  0  0  0  0  0
   -6.2680   24.7470  -30.3360 C   0  0  0  0  0  0  0  0  0  0  0  0
   -6.4720   23.3670  -30.3010 C   0  0  0  0  0  0  0  0  0  0  0  0
   -5.3920   22.5050  -30.0900 C   0  0  0  0  0  0  0  0  0  0  0  0
   -4.1030   23.0220  -29.9040 C   0  0  0  0  0  0  0  0  0  0  0  0
   -3.0100   22.1180  -29.6990 N   0  0  0  0  0  0  0  0  0  0  0  0
   -2.9350   21.3550  -28.4540 C   0  0  0  0  0  0  0  0  0  0  0  0
   -1.4840   20.9430  -28.1910 C   0  0  0  0  0  0  0  0  0  0  0  0
   -0.9290   20.3000  -29.3240 O   0  0  0  0  0  0  0  0  0  0  0  0
   -0.8470   21.2140  -30.4020 C   0  0  0  0  0  0  0  0  0  0  0  0
   -2.2440   21.6510  -30.8540 C   0  0  0  0  0  0  0  0  0  0  0  0
   -4.7829   24.1418  -25.9044 H   0  0  0  0  0  0  0  0  0  0  0  0
   -4.8577   25.1051  -27.4187 H   0  0  0  0  0  0  0  0  0  0  0  0
   -4.0682   23.4916  -27.4187 H   0  0  0  0  0  0  0  0  0  0  0  0
   -1.1687   26.5512  -23.3293 H   0  0  0  0  0  0  0  0  0  0  0  0
    0.2219   26.9286  -24.4020 H   0  0  0  0  0  0  0  0  0  0  0  0
   -1.2267   27.9909  -24.4020 H   0  0  0  0  0  0  0  0  0  0  0  0
   -4.8283   26.3588  -30.1923 H   0  0  0  0  0  0  0  0  0  0  0  0
   -7.1177   25.4234  -30.5103 H   0  0  0  0  0  0  0  0  0  0  0  0
   -7.4834   22.9572  -30.4395 H   0  0  0  0  0  0  0  0  0  0  0  0
   -5.5546   21.4173  -30.0699 H   0  0  0  0  0  0  0  0  0  0  0  0
   -3.2958   21.9767  -27.6213 H   0  0  0  0  0  0  0  0  0  0  0  0
   -3.5609   20.4544  -28.5391 H   0  0  0  0  0  0  0  0  0  0  0  0
   -0.8911   21.8401  -27.9593 H   0  0  0  0  0  0  0  0  0  0  0  0
   -1.4654   20.2414  -27.3440 H   0  0  0  0  0  0  0  0  0  0  0  0
   -0.2786   22.0995  -30.0813 H   0  0  0  0  0  0  0  0  0  0  0  0
   -0.3429   20.7193  -31.2453 H   0  0  0  0  0  0  0  0  0  0  0  0
   -2.1532   22.4663  -31.5869 H   0  0  0  0  0  0  0  0  0  0  0  0
   -2.7623   20.7973  -31.3149 H   0  0  0  0  0  0  0  0  0  0  0  0
  1  2  1  0
  2  3  2  0
  3  4  1  0
  4  5  1  0
  4  6  1  0
  6  7  1  0
  6  8  2  0
  8  9  1  0
  9 10  2  0
  9 11  1  0
 11 12  1  0
 12 13  2  0
 13 14  1  0
 14 15  2  0
 15 16  1  0
 16 17  2  0
 17 18  1  0
 18 19  1  0
 19 20  1  0
 20 21  1  0
 21 22  1  0
 22 23  1  0
  8  2  1  0
 17 12  1  0
 23 18  1  0
  1 24  1  0
  1 25  1  0
  1 26  1  0
  5 27  1  0
  5 28  1  0
  5 29  1  0
 13 30  1  0
 14 31  1  0
 15 32  1  0
 16 33  1  0
 19 34  1  0
 19 35  1  0
 20 36  1  0
 20 37  1  0
 22 38  1  0
 22 39  1  0
 23 40  1  0
 23 41  1  0
M  CHG  1  11  -1
M  END
>  <UniqueID>  (39) 
39

>  <SMILES>  (39) 
Cc1nn(C)c(Cl)c1C(=O)[N-]c1ccccc1N1CCOCC1

>  <Energy>  (39) 
83.86996391322899

>  <Genealogy>  (39) 
Cc1nn(C)c(Cl)c1C(=O)[N-]c1ccccc1N1CCOCC1 (protonated)
Cc1nn(C)c(Cl)c1C(=O)[N-]c1ccccc1N1CCOCC1 (3D coordinates assigned)
Cc1nn(C)c(Cl)c1C(=O)[N-]c1ccccc1N1CCOCC1 (nonaromatic ring conformer: 83.86996391322899 kcal/mol)

>  <smiles>  (39) 
Cc1nn(C)c(Cl)c1C(=O)Nc1ccccc1N1CCOCC1

>  <score_type>  (39) 
oracle

>  <origin>  (39) 
adgpu

>  <m_score__min__energy>  (39) 
-8.1699999999999999

>  <m_primary>  (39) 
energy

$$$$
39:0
     RDKit          3D

 56 58  0  0  0  0  0  0  0  0999 V2000
   -4.7070   19.4080  -33.5270 C   0  0  0  0  0  0  0  0  0  0  0  0
   -6.0930   18.9720  -33.9830 C   0  0  0  0  0  0  0  0  0  0  0  0
   -7.1450   19.5350  -33.0830 C   0  0  0  0  0  0  0  0  0  0  0  0
   -7.9960   18.8040  -32.2780 C   0  0  0  0  0  0  0  0  0  0  0  0
   -8.8030   19.7280  -31.6500 C   0  0  0  0  0  0  0  0  0  0  0  0
   -8.3890   20.9620  -32.1120 C   0  0  0  0  0  0  0  0  0  0  0  0
   -8.9890   22.2820  -31.7370 C   0  0  0  0  0  0  0  0  0  0  0  0
   -8.0290   23.3890  -31.8760 N   0  0  0  0  0  0  0  0  0  0  0  0
   -6.7410   23.2790  -31.1420 C   0  0  0  0  0  0  0  0  0  0  0  0
   -5.4920   23.0490  -32.0230 C   0  0  0  0  0  0  0  0  0  0  0  0
   -4.2470   23.1520  -31.1400 C   0  0  0  0  0  0  0  0  0  0  0  0
   -4.0640   24.5240  -30.6080 N   0  0  0  0  0  0  0  0  0  0  0  0
   -3.2150   24.5290  -29.3960 C   0  0  0  0  0  0  0  0  0  0  0  0
   -3.2290   23.1560  -28.7090 C   0  0  0  0  0  0  0  0  0  0  0  0
   -2.3100   23.1340  -27.5130 C   0  0  0  0  0  0  0  0  0  0  0  0
   -1.7240   21.9330  -27.0930 C   0  0  0  0  0  0  0  0  0  0  0  0
   -0.8390   21.9220  -26.0130 C   0  0  0  0  0  0  0  0  0  0  0  0
   -0.5150   23.1160  -25.3520 C   0  0  0  0  0  0  0  0  0  0  0  0
    0.3730   23.1050  -24.2780 O   0  0  0  0  0  0  0  0  0  0  0  0
   -1.0790   24.3290  -25.7730 C   0  0  0  0  0  0  0  0  0  0  0  0
   -0.7140   25.5060  -25.1030 O   0  0  0  0  0  0  0  0  0  0  0  0
   -1.5870   26.6100  -24.8840 C   0  0  0  0  0  0  0  0  0  0  0  0
   -1.9820   24.3310  -26.8540 C   0  0  0  0  0  0  0  0  0  0  0  0
   -5.3150   25.3090  -30.4410 C   0  0  0  0  0  0  0  0  0  0  0  0
   -6.5510   24.4420  -30.1370 C   0  0  0  0  0  0  0  0  0  0  0  0
   -7.4100   20.8170  -32.9750 O   0  0  0  0  0  0  0  0  0  0  0  0
   -4.6695   19.4198  -32.4277 H   0  0  0  0  0  0  0  0  0  0  0  0
   -3.9556   18.7028  -33.9120 H   0  0  0  0  0  0  0  0  0  0  0  0
   -4.4947   20.4163  -33.9120 H   0  0  0  0  0  0  0  0  0  0  0  0
   -6.2653   19.3303  -35.0086 H   0  0  0  0  0  0  0  0  0  0  0  0
   -6.1481   17.8739  -33.9488 H   0  0  0  0  0  0  0  0  0  0  0  0
   -8.0240   17.7105  -32.1620 H   0  0  0  0  0  0  0  0  0  0  0  0
   -9.6095   19.5248  -30.9301 H   0  0  0  0  0  0  0  0  0  0  0  0
   -9.8519   22.4773  -32.3906 H   0  0  0  0  0  0  0  0  0  0  0  0
   -9.2909   22.2277  -30.6806 H   0  0  0  0  0  0  0  0  0  0  0  0
   -8.5160   24.2550  -31.5450 H   0  0  0  0  0  0  0  0  0  0  0  0
   -6.8299   22.3445  -30.5686 H   0  0  0  0  0  0  0  0  0  0  0  0
   -5.5402   22.0500  -32.4808 H   0  0  0  0  0  0  0  0  0  0  0  0
   -5.4505   23.8047  -32.8212 H   0  0  0  0  0  0  0  0  0  0  0  0
   -4.3493   22.4533  -30.2966 H   0  0  0  0  0  0  0  0  0  0  0  0
   -3.3693   22.9025  -31.7543 H   0  0  0  0  0  0  0  0  0  0  0  0
   -2.1822   24.7780  -29.6812 H   0  0  0  0  0  0  0  0  0  0  0  0
   -3.6116   25.2766  -28.6933 H   0  0  0  0  0  0  0  0  0  0  0  0
   -4.2536   22.9310  -28.3781 H   0  0  0  0  0  0  0  0  0  0  0  0
   -2.8795   22.4025  -29.4302 H   0  0  0  0  0  0  0  0  0  0  0  0
   -1.9619   20.9950  -27.6160 H   0  0  0  0  0  0  0  0  0  0  0  0
   -0.3940   20.9730  -25.6792 H   0  0  0  0  0  0  0  0  0  0  0  0
    0.5020   23.9180  -23.6870 H   0  0  0  0  0  0  0  0  0  0  0  0
   -1.7128   26.7691  -23.8029 H   0  0  0  0  0  0  0  0  0  0  0  0
   -1.1567   27.5138  -25.3400 H   0  0  0  0  0  0  0  0  0  0  0  0
   -2.5657   26.3996  -25.3400 H   0  0  0  0  0  0  0  0  0  0  0  0
   -2.4342   25.2775  -27.1851 H   0  0  0  0  0  0  0  0  0  0  0  0
   -5.1735   26.0162  -29.6104 H   0  0  0  0  0  0  0  0  0  0  0  0
   -5.5059   25.8189  -31.3968 H   0  0  0  0  0  0  0  0  0  0  0  0
   -6.4413   24.0180  -29.1279 H   0  0  0  0  0  0  0  0  0  0  0  0
   -7.4347   25.0920  -30.2175 H   0  0  0  0  0  0  0  0  0  0  0  0
  1  2  1  0
  2  3  1  0
  3  4  2  0
  4  5  1  0
  5  6  2  0
  6  7  1  0
  7  8  1  0
  8  9  1  0
  9 10  1  0
 10 11  1  0
 11 12  1  0
 12 13  1  0
 13 14  1  0
 14 15  1  0
 15 16  2  0
 16 17  1  0
 17 18  2  0
 18 19  1  0
 18 20  1  0
 20 21  1  0
 21 22  1  0
 20 23  2  0
 12 24  1  0
 24 25  1  0
  6 26  1  0
 26  3  1  0
 25  9  1  0
 23 15  1  0
  1 27  1  0
  1 28  1  0
  1 29  1  0
  2 30  1  0
  2 31  1  0
  4 32  1  0
  5 33  1  0
  7 34  1  0
  7 35  1  0
  8 36  1  0
  9 37  1  0
 10 38  1  0
 10 39  1  0
 11 40  1  0
 11 41  1  0
 13 42  1  0
 13 43  1  0
 14 44  1  0
 14 45  1  0
 16 46  1  0
 17 47  1  0
 19 48  1  0
 22 49  1  0
 22 50  1  0
 22 51  1  0
 23 52  1  0
 24 53  1  0
 24 54  1  0
 25 55  1  0
 25 56  1  0
M  END
>  <UniqueID>  (40) 
40

>  <SMILES>  (40) 
CCc1ccc(CNC2CCN(CCc3ccc(O)c(OC)c3)CC2)o1

>  <Energy>  (40) 
88.08441155318971

>  <Genealogy>  (40) 
CCc1ccc(CNC2CCN(CCc3ccc(O)c(OC)c3)CC2)o1 (3D coordinates assigned)
CCc1ccc(CNC2CCN(CCc3ccc(O)c(OC)c3)CC2)o1 (nonaromatic ring conformer: 88.08441155318971 kcal/mol)

>  <smiles>  (40) 
CCc1ccc(CNC2CCN(CCc3ccc(O)c(OC)c3)CC2)o1

>  <score_type>  (40) 
oracle

>  <origin>  (40) 
adgpu

>  <m_score__min__energy>  (40) 
-9.0700000000000003

>  <m_primary>  (40) 
energy

$$$$
40:0
     RDKit          3D

 48 50  0  0  0  0  0  0  0  0999 V2000
   -8.4390   18.6250  -32.2490 C   0  0  0  0  0  0  0  0  0  0  0  0
   -7.8360   19.9320  -31.8250 C   0  0  0  0  0  0  0  0  0  0  0  0
   -8.6470   20.9410  -31.2820 C   0  0  0  0  0  0  0  0  0  0  0  0
   -8.0920   22.1710  -30.9180 C   0  0  0  0  0  0  0  0  0  0  0  0
   -6.7240   22.4090  -31.1010 C   0  0  0  0  0  0  0  0  0  0  0  0
   -6.0270   23.9460  -30.6000 S   0  0  0  0  0  0  0  0  0  0  0  0
   -7.1220   24.9720  -30.5280 O   0  0  0  0  0  0  0  0  0  0  0  0
   -4.9880   24.4070  -31.5830 O   0  0  0  0  0  0  0  0  0  0  0  0
   -5.2910   23.7800  -29.0360 N   0  0  0  0  0  0  0  0  0  0  0  0
   -3.9340   23.3410  -28.8250 C   0  0  0  0  0  0  0  0  0  0  0  0
   -3.6480   22.1480  -28.1330 C   0  0  0  0  0  0  0  0  0  0  0  0
   -2.3250   21.7350  -27.9330 C   0  0  0  0  0  0  0  0  0  0  0  0
   -1.9870   20.2340  -27.0650 S   0  0  0  0  0  0  0  0  0  0  0  0
   -3.2880   19.5710  -26.7030 O   0  0  0  0  0  0  0  0  0  0  0  0
   -1.2560   20.5500  -25.7900 O   0  0  0  0  0  0  0  0  0  0  0  0
   -1.0240   19.1390  -28.0290 N   0  0  0  0  0  0  0  0  0  0  0  0
    0.0080   19.8600  -28.8160 C   0  0  0  0  0  0  0  0  0  0  0  0
    1.4160   19.7310  -28.2200 C   0  0  0  0  0  0  0  0  0  0  0  0
    1.8430   18.2570  -28.1150 C   0  0  0  0  0  0  0  0  0  0  0  0
    0.6540   17.3090  -27.8750 C   0  0  0  0  0  0  0  0  0  0  0  0
   -0.5030   18.0400  -27.1870 C   0  0  0  0  0  0  0  0  0  0  0  0
   -1.2740   22.5170  -28.4270 C   0  0  0  0  0  0  0  0  0  0  0  0
   -1.5440   23.6970  -29.1200 C   0  0  0  0  0  0  0  0  0  0  0  0
   -2.8650   24.1120  -29.3200 C   0  0  0  0  0  0  0  0  0  0  0  0
   -3.1050   25.2950  -30.0110 O   0  0  0  0  0  0  0  0  0  0  0  0
   -5.9170   21.4110  -31.6650 C   0  0  0  0  0  0  0  0  0  0  0  0
   -6.4720   20.1800  -32.0290 C   0  0  0  0  0  0  0  0  0  0  0  0
   -8.7091   18.0395  -31.3578 H   0  0  0  0  0  0  0  0  0  0  0  0
   -9.3405   18.8149  -32.8500 H   0  0  0  0  0  0  0  0  0  0  0  0
   -7.7094   18.0624  -32.8500 H   0  0  0  0  0  0  0  0  0  0  0  0
   -9.7235   20.7629  -31.1425 H   0  0  0  0  0  0  0  0  0  0  0  0
   -8.7318   22.9548  -30.4863 H   0  0  0  0  0  0  0  0  0  0  0  0
   -5.9020   23.9760  -28.2120 H   0  0  0  0  0  0  0  0  0  0  0  0
   -4.4737   21.5334  -27.7451 H   0  0  0  0  0  0  0  0  0  0  0  0
    0.0205   19.4497  -29.8365 H   0  0  0  0  0  0  0  0  0  0  0  0
   -0.2569   20.9276  -28.8055 H   0  0  0  0  0  0  0  0  0  0  0  0
    2.1289   20.2660  -28.8647 H   0  0  0  0  0  0  0  0  0  0  0  0
    1.4070   20.1638  -27.2088 H   0  0  0  0  0  0  0  0  0  0  0  0
    2.3403   17.9672  -29.0524 H   0  0  0  0  0  0  0  0  0  0  0  0
    2.5183   18.1677  -27.2513 H   0  0  0  0  0  0  0  0  0  0  0  0
    0.3066   16.9162  -28.8420 H   0  0  0  0  0  0  0  0  0  0  0  0
    0.9870   16.4888  -27.2221 H   0  0  0  0  0  0  0  0  0  0  0  0
   -1.3141   17.3229  -26.9923 H   0  0  0  0  0  0  0  0  0  0  0  0
   -0.1295   18.4716  -26.2467 H   0  0  0  0  0  0  0  0  0  0  0  0
   -0.2327   22.2000  -28.2682 H   0  0  0  0  0  0  0  0  0  0  0  0
   -0.7143   24.3042  -29.5111 H   0  0  0  0  0  0  0  0  0  0  0  0
   -4.8442   21.5967  -31.8217 H   0  0  0  0  0  0  0  0  0  0  0  0
   -5.8351   19.4032  -32.4773 H   0  0  0  0  0  0  0  0  0  0  0  0
  1  2  1  0
  2  3  2  0
  3  4  1  0
  4  5  2  0
  5  6  1  0
  6  7  2  0
  6  8  2  0
  6  9  1  0
  9 10  1  0
 10 11  2  0
 11 12  1  0
 12 13  1  0
 13 14  2  0
 13 15  2  0
 13 16  1  0
 16 17  1  0
 17 18  1  0
 18 19  1  0
 19 20  1  0
 20 21  1  0
 12 22  2  0
 22 23  1  0
 23 24  2  0
 24 25  1  0
  5 26  1  0
 26 27  2  0
 27  2  1  0
 24 10  1  0
 21 16  1  0
  1 28  1  0
  1 29  1  0
  1 30  1  0
  3 31  1  0
  4 32  1  0
  9 33  1  0
 11 34  1  0
 17 35  1  0
 17 36  1  0
 18 37  1  0
 18 38  1  0
 19 39  1  0
 19 40  1  0
 20 41  1  0
 20 42  1  0
 21 43  1  0
 21 44  1  0
 22 45  1  0
 23 46  1  0
 26 47  1  0
 27 48  1  0
M  CHG  1  25  -1
M  END
>  <UniqueID>  (41) 
41

>  <SMILES>  (41) 
Cc1ccc(S(=O)(=O)Nc2cc(S(=O)(=O)N3CCCCC3)ccc2[O-])cc1

>  <Energy>  (41) 
55.06220124644752

>  <Genealogy>  (41) 
Cc1ccc(S(=O)(=O)Nc2cc(S(=O)(=O)N3CCCCC3)ccc2[O-])cc1 (protonated)
Cc1ccc(S(=O)(=O)Nc2cc(S(=O)(=O)N3CCCCC3)ccc2[O-])cc1 (3D coordinates assigned)
Cc1ccc(S(=O)(=O)Nc2cc(S(=O)(=O)N3CCCCC3)ccc2[O-])cc1 (nonaromatic ring conformer: 55.06220124644752 kcal/mol)

>  <smiles>  (41) 
Cc1ccc(S(=O)(=O)Nc2cc(S(=O)(=O)N3CCCCC3)ccc2O)cc1

>  <score_type>  (41) 
oracle

>  <origin>  (41) 
adgpu

>  <m_score__min__energy>  (41) 
-13.18

>  <m_primary>  (41) 
energy

$$$$
41:0
     RDKit          3D

 32 34  0  0  0  0  0  0  0  0999 V2000
   -9.7420   21.7460  -30.5790 O   0  0  0  0  0  0  0  0  0  0  0  0
   -9.1920   21.5490  -31.6940 C   0  0  0  0  0  0  0  0  0  0  0  0
   -8.0090   20.6850  -31.8220 C   0  0  0  0  0  0  0  0  0  0  0  0
   -8.0360   19.3510  -32.1710 C   0  0  0  0  0  0  0  0  0  0  0  0
   -6.7650   18.9200  -32.3180 N   0  0  0  0  0  0  0  0  0  0  0  0
   -6.3310   17.5990  -32.7030 C   0  0  0  0  0  0  0  0  0  0  0  0
   -6.8640   16.9930  -33.8570 C   0  0  0  0  0  0  0  0  0  0  0  0
   -6.4510   15.7140  -34.2430 C   0  0  0  0  0  0  0  0  0  0  0  0
   -5.5010   15.0270  -33.4870 C   0  0  0  0  0  0  0  0  0  0  0  0
   -4.9600   15.6160  -32.3430 C   0  0  0  0  0  0  0  0  0  0  0  0
   -5.3680   16.8950  -31.9520 C   0  0  0  0  0  0  0  0  0  0  0  0
   -5.9290   19.9220  -32.0760 N   0  0  0  0  0  0  0  0  0  0  0  0
   -6.6590   21.0100  -31.7600 C   0  0  0  0  0  0  0  0  0  0  0  0
   -6.0460   22.3020  -31.3940 C   0  0  0  0  0  0  0  0  0  0  0  0
   -6.6110   23.4990  -31.8620 C   0  0  0  0  0  0  0  0  0  0  0  0
   -6.0230   24.7280  -31.5490 C   0  0  0  0  0  0  0  0  0  0  0  0
   -4.8530   24.7720  -30.7780 C   0  0  0  0  0  0  0  0  0  0  0  0
   -4.2580   25.9900  -30.4590 O   0  0  0  0  0  0  0  0  0  0  0  0
   -4.2730   23.5810  -30.3300 C   0  0  0  0  0  0  0  0  0  0  0  0
   -4.8600   22.3500  -30.6420 C   0  0  0  0  0  0  0  0  0  0  0  0
   -9.6049   22.0332  -32.5912 H   0  0  0  0  0  0  0  0  0  0  0  0
   -8.9410   18.7407  -32.3068 H   0  0  0  0  0  0  0  0  0  0  0  0
   -7.6112   17.5301  -34.4596 H   0  0  0  0  0  0  0  0  0  0  0  0
   -6.8761   15.2487  -35.1446 H   0  0  0  0  0  0  0  0  0  0  0  0
   -5.1781   14.0208  -33.7925 H   0  0  0  0  0  0  0  0  0  0  0  0
   -4.2111   15.0729  -31.7478 H   0  0  0  0  0  0  0  0  0  0  0  0
   -4.9343   17.3551  -31.0519 H   0  0  0  0  0  0  0  0  0  0  0  0
   -7.5215   23.4696  -32.4785 H   0  0  0  0  0  0  0  0  0  0  0  0
   -6.4792   25.6622  -31.9083 H   0  0  0  0  0  0  0  0  0  0  0  0
   -3.4930   26.0500  -29.7990 H   0  0  0  0  0  0  0  0  0  0  0  0
   -3.3516   23.6122  -29.7299 H   0  0  0  0  0  0  0  0  0  0  0  0
   -4.3914   21.4164  -30.2974 H   0  0  0  0  0  0  0  0  0  0  0  0
  1  2  2  0
  2  3  1  0
  3  4  2  0
  4  5  1  0
  5  6  1  0
  6  7  2  0
  7  8  1  0
  8  9  2  0
  9 10  1  0
 10 11  2  0
  5 12  1  0
 12 13  2  0
 13 14  1  0
 14 15  2  0
 15 16  1  0
 16 17  2  0
 17 18  1  0
 17 19  1  0
 19 20  2  0
 13  3  1  0
 20 14  1  0
 11  6  1  0
  2 21  1  0
  4 22  1  0
  7 23  1  0
  8 24  1  0
  9 25  1  0
 10 26  1  0
 11 27  1  0
 15 28  1  0
 16 29  1  0
 18 30  1  0
 19 31  1  0
 20 32  1  0
M  END
>  <UniqueID>  (42) 
42

>  <SMILES>  (42) 
O=Cc1cn(-c2ccccc2)nc1-c1ccc(O)cc1

>  <Energy>  (42) 
72.56411240186354

>  <Genealogy>  (42) 
O=Cc1cn(-c2ccccc2)nc1-c1ccc(O)cc1 (3D coordinates assigned)
O=Cc1cn(-c2ccccc2)nc1-c1ccc(O)cc1 (optimized conformer: 72.56411240186354 kcal/mol)

>  <smiles>  (42) 
O=Cc1cn(-c2ccccc2)nc1-c1ccc(O)cc1

>  <score_type>  (42) 
oracle

>  <origin>  (42) 
adgpu

>  <m_score__min__energy>  (42) 
-8.3300000000000001

>  <m_primary>  (42) 
energy

$$$$
42:0
     RDKit          3D

 46 48  0  0  0  0  0  0  0  0999 V2000
   -3.4900   26.0460  -29.8130 H   0  0  0  0  0  0  0  0  0  0  0  0
   -3.8580   25.6020  -30.6470 O   0  0  0  0  0  0  0  0  0  0  0  0
   -4.9040   24.6810  -30.5850 C   0  0  0  0  0  0  0  0  0  0  0  0
   -5.9520   24.7560  -31.5150 C   0  0  0  0  0  0  0  0  0  0  0  0
   -5.9557   25.5535  -32.2726 H   0  0  0  0  0  0  0  0  0  0  0  0
   -6.9900   23.8230  -31.4830 C   0  0  0  0  0  0  0  0  0  0  0  0
   -7.8129   23.8909  -32.2098 H   0  0  0  0  0  0  0  0  0  0  0  0
   -6.9840   22.8040  -30.5290 C   0  0  0  0  0  0  0  0  0  0  0  0
   -7.7976   22.0639  -30.5116 H   0  0  0  0  0  0  0  0  0  0  0  0
   -5.9480   22.7220  -29.5970 C   0  0  0  0  0  0  0  0  0  0  0  0
   -5.9442   21.9093  -28.8557 H   0  0  0  0  0  0  0  0  0  0  0  0
   -4.9100   23.6690  -29.5980 C   0  0  0  0  0  0  0  0  0  0  0  0
   -3.8550   23.5870  -28.5590 C   0  0  0  0  0  0  0  0  0  0  0  0
   -3.3770   24.6550  -28.0910 O   0  0  0  0  0  0  0  0  0  0  0  0
   -3.3500   22.3030  -28.0210 C   0  0  0  0  0  0  0  0  0  0  0  0
   -3.2191   22.2279  -26.9314 H   0  0  0  0  0  0  0  0  0  0  0  0
   -3.0390   21.2230  -28.7560 C   0  0  0  0  0  0  0  0  0  0  0  0
   -2.7610   20.3022  -28.2223 H   0  0  0  0  0  0  0  0  0  0  0  0
   -3.0450   21.1880  -30.2310 C   0  0  0  0  0  0  0  0  0  0  0  0
   -2.1570   21.9760  -30.9770 C   0  0  0  0  0  0  0  0  0  0  0  0
   -1.4224   22.6123  -30.4618 H   0  0  0  0  0  0  0  0  0  0  0  0
   -2.2030   21.9550  -32.3710 C   0  0  0  0  0  0  0  0  0  0  0  0
   -1.5080   22.5790  -32.9521 H   0  0  0  0  0  0  0  0  0  0  0  0
   -3.1300   21.1430  -33.0320 C   0  0  0  0  0  0  0  0  0  0  0  0
   -3.1653   21.1399  -34.1314 H   0  0  0  0  0  0  0  0  0  0  0  0
   -4.0190   20.3290  -32.3030 C   0  0  0  0  0  0  0  0  0  0  0  0
   -5.0050   19.5090  -32.9760 N   0  0  0  0  0  0  0  0  0  0  0  0
   -6.3710   19.5080  -32.5320 C   0  0  0  0  0  0  0  0  0  0  0  0
   -7.2300   20.5400  -32.9430 C   0  0  0  0  0  0  0  0  0  0  0  0
   -6.8501   21.3422  -33.5928 H   0  0  0  0  0  0  0  0  0  0  0  0
   -8.5640   20.5530  -32.5310 C   0  0  0  0  0  0  0  0  0  0  0  0
   -9.2314   21.3649  -32.8556 H   0  0  0  0  0  0  0  0  0  0  0  0
   -9.0520   19.5360  -31.7070 C   0  0  0  0  0  0  0  0  0  0  0  0
  -10.1030   19.5486  -31.3826 H   0  0  0  0  0  0  0  0  0  0  0  0
   -8.2060   18.5020  -31.2940 C   0  0  0  0  0  0  0  0  0  0  0  0
   -8.5937   17.7055  -30.6419 H   0  0  0  0  0  0  0  0  0  0  0  0
   -6.8650   18.4750  -31.7070 C   0  0  0  0  0  0  0  0  0  0  0  0
   -6.0230   17.3860  -31.3050 N   0  0  0  0  0  0  0  0  0  0  0  0
   -6.1750   16.9060  -30.3910 H   0  0  0  0  0  0  0  0  0  0  0  0
   -5.2580   17.0300  -31.9210 H   0  0  0  0  0  0  0  0  0  0  0  0
   -4.6260   18.5680  -34.0330 C   0  0  0  0  0  0  0  0  0  0  0  0
   -4.2516   17.6384  -33.5794 H   0  0  0  0  0  0  0  0  0  0  0  0
   -5.5040   18.3440  -34.6566 H   0  0  0  0  0  0  0  0  0  0  0  0
   -3.8378   19.0151  -34.6566 H   0  0  0  0  0  0  0  0  0  0  0  0
   -3.9500   20.3480  -30.8950 C   0  0  0  0  0  0  0  0  0  0  0  0
   -4.6147   19.6954  -30.3099 H   0  0  0  0  0  0  0  0  0  0  0  0
  1  2  1  0
  2  3  1  0
  3  4  2  0
  4  5  1  0
  4  6  1  0
  6  7  1  0
  6  8  2  0
  8  9  1  0
  8 10  1  0
 10 11  1  0
 10 12  2  0
 12 13  1  0
 13 14  2  0
 13 15  1  0
 15 16  1  0
 15 17  2  0
 17 18  1  0
 17 19  1  0
 19 20  2  0
 20 21  1  0
 20 22  1  0
 22 23  1  0
 22 24  2  0
 24 25  1  0
 24 26  1  0
 26 27  1  0
 27 28  1  0
 28 29  2  0
 29 30  1  0
 29 31  1  0
 31 32  1  0
 31 33  2  0
 33 34  1  0
 33 35  1  0
 35 36  1  0
 35 37  2  0
 37 38  1  0
 38 39  1  0
 38 40  1  0
 27 41  1  0
 41 42  1  0
 41 43  1  0
 41 44  1  0
 26 45  2  0
 45 46  1  0
 12  3  1  0
 45 19  1  0
 37 28  1  0
M  END
>  <UniqueID>  (43) 
43

>  <SMILES>  (43) 
CN(c1cccc(/C=C\C(=O)c2ccccc2O)c1)c1ccccc1N

>  <Energy>  (43) 
67.27125493096968

>  <Genealogy>  (43) 
CN(c1cccc(/C=C\C(=O)c2ccccc2O)c1)c1ccccc1N (cis-trans isomerization)
CN(c1cccc(/C=C\C(=O)c2ccccc2O)c1)c1ccccc1N (3D coordinates assigned)
CN(c1cccc(/C=C\C(=O)c2ccccc2O)c1)c1ccccc1N (optimized conformer: 67.27125493096968 kcal/mol)

>  <smiles>  (43) 
CN(c1cccc(C=CC(=O)c2ccccc2O)c1)c1ccccc1N

>  <score_type>  (43) 
oracle

>  <origin>  (43) 
adgpu

>  <m_score__min__energy>  (43) 
-9.6099999999999994

>  <m_primary>  (43) 
energy

$$$$
43:0
     RDKit          3D

 42 43  0  0  0  0  0  0  0  0999 V2000
   -8.6270   18.6640  -32.0230 C   0  0  0  0  0  0  0  0  0  0  0  0
   -7.1260   18.5180  -32.2990 C   0  0  0  0  0  0  0  0  0  0  0  0
   -6.6920   19.2900  -33.5000 N   0  0  0  0  0  0  0  0  0  0  0  0
   -5.9590   18.4560  -34.4840 C   0  0  0  0  0  0  0  0  0  0  0  0
   -6.0810   16.9560  -34.2000 C   0  0  0  0  0  0  0  0  0  0  0  0
   -5.8240   20.3850  -33.1030 C   0  0  0  0  0  0  0  0  0  0  0  0
   -4.6040   20.3650  -33.4360 O   0  0  0  0  0  0  0  0  0  0  0  0
   -6.3330   21.5530  -32.3370 C   0  0  0  0  0  0  0  0  0  0  0  0
   -7.7040   21.8730  -32.3100 C   0  0  0  0  0  0  0  0  0  0  0  0
   -8.1570   22.9830  -31.5900 C   0  0  0  0  0  0  0  0  0  0  0  0
   -7.2520   23.7910  -30.9020 C   0  0  0  0  0  0  0  0  0  0  0  0
   -5.8830   23.4980  -30.9340 C   0  0  0  0  0  0  0  0  0  0  0  0
   -4.7330   24.5310  -30.0910 S   0  0  0  0  0  0  0  0  0  0  0  0
   -4.2960   25.6670  -30.9730 O   0  0  0  0  0  0  0  0  0  0  0  0
   -5.3920   25.0900  -28.8620 O   0  0  0  0  0  0  0  0  0  0  0  0
   -3.3400   23.6110  -29.6200 N   0  0  0  0  0  0  0  0  0  0  0  0
   -2.2830   24.0900  -28.7800 C   0  0  0  0  0  0  0  0  0  0  0  0
   -2.5090   24.5580  -27.4740 C   0  0  0  0  0  0  0  0  0  0  0  0
   -1.4410   25.0220  -26.7050 C   0  0  0  0  0  0  0  0  0  0  0  0
   -0.1540   25.0110  -27.2440 C   0  0  0  0  0  0  0  0  0  0  0  0
    0.0510   24.5520  -28.5070 N   0  0  0  0  0  0  0  0  0  0  0  0
   -0.9730   24.0970  -29.2780 C   0  0  0  0  0  0  0  0  0  0  0  0
   -5.4290   22.3810  -31.6480 C   0  0  0  0  0  0  0  0  0  0  0  0
   -8.8002   18.6808  -30.9368 H   0  0  0  0  0  0  0  0  0  0  0  0
   -8.9919   19.6019  -32.4671 H   0  0  0  0  0  0  0  0  0  0  0  0
   -9.1658   17.8140  -32.4671 H   0  0  0  0  0  0  0  0  0  0  0  0
   -6.5685   18.8829  -31.4238 H   0  0  0  0  0  0  0  0  0  0  0  0
   -6.9217   17.4544  -32.4914 H   0  0  0  0  0  0  0  0  0  0  0  0
   -7.5370   19.6930  -33.9680 H   0  0  0  0  0  0  0  0  0  0  0  0
   -6.3643   18.6578  -35.4865 H   0  0  0  0  0  0  0  0  0  0  0  0
   -4.8936   18.7204  -34.4131 H   0  0  0  0  0  0  0  0  0  0  0  0
   -6.0946   16.7886  -33.1129 H   0  0  0  0  0  0  0  0  0  0  0  0
   -7.0132   16.5738  -34.6416 H   0  0  0  0  0  0  0  0  0  0  0  0
   -5.2228   16.4282  -34.6416 H   0  0  0  0  0  0  0  0  0  0  0  0
   -8.4228   21.2463  -32.8583 H   0  0  0  0  0  0  0  0  0  0  0  0
   -9.2310   23.2197  -31.5662 H   0  0  0  0  0  0  0  0  0  0  0  0
   -7.6143   24.6600  -30.3332 H   0  0  0  0  0  0  0  0  0  0  0  0
   -3.5274   24.5585  -27.0583 H   0  0  0  0  0  0  0  0  0  0  0  0
   -1.6121   25.3929  -25.6836 H   0  0  0  0  0  0  0  0  0  0  0  0
    0.6953   25.3740  -26.6465 H   0  0  0  0  0  0  0  0  0  0  0  0
   -0.7721   23.7331  -30.2964 H   0  0  0  0  0  0  0  0  0  0  0  0
   -4.3539   22.1493  -31.6698 H   0  0  0  0  0  0  0  0  0  0  0  0
  1  2  1  0
  2  3  1  0
  3  4  1  0
  4  5  1  0
  3  6  1  0
  6  7  2  0
  6  8  1  0
  8  9  2  0
  9 10  1  0
 10 11  2  0
 11 12  1  0
 12 13  1  0
 13 14  2  0
 13 15  2  0
 13 16  1  0
 16 17  1  0
 17 18  2  0
 18 19  1  0
 19 20  2  0
 20 21  1  0
 21 22  2  0
 12 23  2  0
 23  8  1  0
 22 17  1  0
  1 24  1  0
  1 25  1  0
  1 26  1  0
  2 27  1  0
  2 28  1  0
  3 29  1  0
  4 30  1  0
  4 31  1  0
  5 32  1  0
  5 33  1  0
  5 34  1  0
  9 35  1  0
 10 36  1  0
 11 37  1  0
 18 38  1  0
 19 39  1  0
 20 40  1  0
 22 41  1  0
 23 42  1  0
M  CHG  2   3   1  16  -1
M  END
>  <UniqueID>  (44) 
44

>  <SMILES>  (44) 
CC[NH+](CC)C(=O)c1cccc(S(=O)(=O)[N-]c2cccnc2)c1

>  <Energy>  (44) 
51.49457404598649

>  <Genealogy>  (44) 
CC[NH+](CC)C(=O)c1cccc(S(=O)(=O)[N-]c2cccnc2)c1 (protonated)
CC[NH+](CC)C(=O)c1cccc(S(=O)(=O)[N-]c2cccnc2)c1 (3D coordinates assigned)
CC[NH+](CC)C(=O)c1cccc(S(=O)(=O)[N-]c2cccnc2)c1 (optimized conformer: 51.49457404598649 kcal/mol)

>  <smiles>  (44) 
CCN(CC)C(=O)c1cccc(S(=O)(=O)Nc2cccnc2)c1

>  <score_type>  (44) 
oracle

>  <origin>  (44) 
adgpu

>  <m_score__min__energy>  (44) 
-8.9800000000000004

>  <m_primary>  (44) 
energy

$$$$
44:0
     RDKit          3D

 41 43  0  0  0  0  0  0  0  0999 V2000
   -1.8050   20.4860  -26.9870 C   0  0  0  0  0  0  0  0  0  0  0  0
   -1.7950   21.8690  -27.5680 C   0  0  0  0  0  0  0  0  0  0  0  0
   -0.5900   22.4460  -27.9900 C   0  0  0  0  0  0  0  0  0  0  0  0
   -0.5840   23.7190  -28.5630 C   0  0  0  0  0  0  0  0  0  0  0  0
   -1.7840   24.4150  -28.7470 C   0  0  0  0  0  0  0  0  0  0  0  0
   -1.7510   25.6760  -29.3330 O   0  0  0  0  0  0  0  0  0  0  0  0
   -3.0060   23.8370  -28.3580 C   0  0  0  0  0  0  0  0  0  0  0  0
   -4.2370   24.5500  -28.5760 N   0  0  0  0  0  0  0  0  0  0  0  0
   -4.9110   24.8230  -30.1520 S   0  0  0  0  0  0  0  0  0  0  0  0
   -3.8850   25.4900  -31.0250 O   0  0  0  0  0  0  0  0  0  0  0  0
   -6.0850   25.7520  -30.0150 O   0  0  0  0  0  0  0  0  0  0  0  0
   -5.3730   23.2700  -30.8940 C   0  0  0  0  0  0  0  0  0  0  0  0
   -4.3870   22.3710  -31.3770 C   0  0  0  0  0  0  0  0  0  0  0  0
   -2.9190   22.6760  -31.3140 C   0  0  0  0  0  0  0  0  0  0  0  0
   -4.7660   21.1720  -31.8960 N   0  0  0  0  0  0  0  0  0  0  0  0
   -6.0720   20.8370  -31.9620 C   0  0  0  0  0  0  0  0  0  0  0  0
   -6.6620   19.3930  -32.5690 S   0  0  0  0  0  0  0  0  0  0  0  0
   -8.2640   19.8240  -32.2610 C   0  0  0  0  0  0  0  0  0  0  0  0
   -9.4370   18.9470  -32.5650 C   0  0  0  0  0  0  0  0  0  0  0  0
   -8.2960   21.1030  -31.6810 C   0  0  0  0  0  0  0  0  0  0  0  0
   -9.5760   21.7810  -31.2700 C   0  0  0  0  0  0  0  0  0  0  0  0
   -7.0500   21.6630  -31.5210 N   0  0  0  0  0  0  0  0  0  0  0  0
   -6.7320   22.8850  -30.9910 C   0  0  0  0  0  0  0  0  0  0  0  0
   -7.6360   23.6630  -30.5870 O   0  0  0  0  0  0  0  0  0  0  0  0
   -2.9980   22.5640  -27.7560 C   0  0  0  0  0  0  0  0  0  0  0  0
   -1.8045   20.5496  -25.8888 H   0  0  0  0  0  0  0  0  0  0  0  0
   -2.7070   19.9536  -27.3231 H   0  0  0  0  0  0  0  0  0  0  0  0
   -0.9108   19.9406  -27.3231 H   0  0  0  0  0  0  0  0  0  0  0  0
    0.3540   21.8944  -27.8695 H   0  0  0  0  0  0  0  0  0  0  0  0
    0.3676   24.1767  -28.8710 H   0  0  0  0  0  0  0  0  0  0  0  0
   -4.6930   25.0480  -27.7790 H   0  0  0  0  0  0  0  0  0  0  0  0
   -2.6029   22.7417  -30.2624 H   0  0  0  0  0  0  0  0  0  0  0  0
   -2.3563   21.8756  -31.8167 H   0  0  0  0  0  0  0  0  0  0  0  0
   -2.7217   23.6343  -31.8167 H   0  0  0  0  0  0  0  0  0  0  0  0
   -9.8933   18.6058  -31.6241 H   0  0  0  0  0  0  0  0  0  0  0  0
  -10.1779   19.5145  -33.1472 H   0  0  0  0  0  0  0  0  0  0  0  0
   -9.1023   18.0758  -33.1472 H   0  0  0  0  0  0  0  0  0  0  0  0
   -9.6375   21.8136  -30.1722 H   0  0  0  0  0  0  0  0  0  0  0  0
   -9.5924   22.8060  -31.6688 H   0  0  0  0  0  0  0  0  0  0  0  0
  -10.4332   21.2187  -31.6688 H   0  0  0  0  0  0  0  0  0  0  0  0
   -3.9455   22.1102  -27.4299 H   0  0  0  0  0  0  0  0  0  0  0  0
  1  2  1  0
  2  3  2  0
  3  4  1  0
  4  5  2  0
  5  6  1  0
  5  7  1  0
  7  8  1  0
  8  9  1  0
  9 10  2  0
  9 11  2  0
  9 12  1  0
 12 13  2  0
 13 14  1  0
 13 15  1  0
 15 16  2  0
 16 17  1  0
 17 18  1  0
 18 19  1  0
 18 20  2  0
 20 21  1  0
 20 22  1  0
 22 23  1  0
 23 24  2  0
  7 25  2  0
 25  2  1  0
 23 12  1  0
 22 16  1  0
  1 26  1  0
  1 27  1  0
  1 28  1  0
  3 29  1  0
  4 30  1  0
  8 31  1  0
 14 32  1  0
 14 33  1  0
 14 34  1  0
 19 35  1  0
 19 36  1  0
 19 37  1  0
 21 38  1  0
 21 39  1  0
 21 40  1  0
 25 41  1  0
M  CHG  1   6  -1
M  END
>  <UniqueID>  (45) 
45

>  <SMILES>  (45) 
Cc1ccc([O-])c(NS(=O)(=O)c2c(C)nc3sc(C)c(C)n3c2=O)c1

>  <Energy>  (45) 
83.55814435120114

>  <Genealogy>  (45) 
Cc1ccc([O-])c(NS(=O)(=O)c2c(C)nc3sc(C)c(C)n3c2=O)c1 (protonated)
Cc1ccc([O-])c(NS(=O)(=O)c2c(C)nc3sc(C)c(C)n3c2=O)c1 (3D coordinates assigned)
Cc1ccc([O-])c(NS(=O)(=O)c2c(C)nc3sc(C)c(C)n3c2=O)c1 (optimized conformer: 83.55814435120114 kcal/mol)

>  <smiles>  (45) 
Cc1ccc(O)c(NS(=O)(=O)c2c(C)nc3sc(C)c(C)n3c2=O)c1

>  <score_type>  (45) 
oracle

>  <origin>  (45) 
adgpu

>  <m_score__min__energy>  (45) 
-13.029999999999999

>  <m_primary>  (45) 
energy

$$$$
45:0
     RDKit          3D

 43 45  0  0  0  0  0  0  0  0999 V2000
   -1.9160   18.6760  -26.9490 C   0  0  0  0  0  0  0  0  0  0  0  0
   -1.9150   20.1430  -27.2590 C   0  0  0  0  0  0  0  0  0  0  0  0
   -3.1180   20.7820  -27.6000 C   0  0  0  0  0  0  0  0  0  0  0  0
   -3.1320   22.1490  -27.8900 C   0  0  0  0  0  0  0  0  0  0  0  0
   -1.9450   22.8910  -27.8480 C   0  0  0  0  0  0  0  0  0  0  0  0
   -1.9830   24.6210  -28.1780 S   0  0  0  0  0  0  0  0  0  0  0  0
   -2.7520   25.3520  -27.1120 O   0  0  0  0  0  0  0  0  0  0  0  0
   -0.5750   25.1400  -28.2110 O   0  0  0  0  0  0  0  0  0  0  0  0
   -2.7320   24.9040  -29.7160 N   0  0  0  0  0  0  0  0  0  0  0  0
   -3.9570   24.3030  -30.1580 C   0  0  0  0  0  0  0  0  0  0  0  0
   -5.2120   24.7360  -29.6970 C   0  0  0  0  0  0  0  0  0  0  0  0
   -6.3790   24.1070  -30.1380 C   0  0  0  0  0  0  0  0  0  0  0  0
   -6.3120   23.0460  -31.0510 C   0  0  0  0  0  0  0  0  0  0  0  0
   -7.7910   22.2440  -31.5770 S   0  0  0  0  0  0  0  0  0  0  0  0
   -8.7850   23.2770  -32.0340 O   0  0  0  0  0  0  0  0  0  0  0  0
   -8.3760   21.4680  -30.4300 O   0  0  0  0  0  0  0  0  0  0  0  0
   -7.4030   21.1660  -32.8850 N   0  0  0  0  0  0  0  0  0  0  0  0
   -7.0940   19.9040  -32.7870 C   0  0  0  0  0  0  0  0  0  0  0  0
   -7.0440   19.2340  -31.5460 C   0  0  0  0  0  0  0  0  0  0  0  0
   -6.7060   17.8790  -31.5100 C   0  0  0  0  0  0  0  0  0  0  0  0
   -6.4150   17.2020  -32.6920 C   0  0  0  0  0  0  0  0  0  0  0  0
   -6.4710   17.8910  -33.9030 C   0  0  0  0  0  0  0  0  0  0  0  0
   -6.8070   19.2080  -33.9290 N   0  0  0  0  0  0  0  0  0  0  0  0
   -5.0580   22.6070  -31.5070 C   0  0  0  0  0  0  0  0  0  0  0  0
   -4.9600   21.5550  -32.3590 F   0  0  0  0  0  0  0  0  0  0  0  0
   -3.8910   23.2380  -31.0650 C   0  0  0  0  0  0  0  0  0  0  0  0
   -0.7380   22.2520  -27.5300 C   0  0  0  0  0  0  0  0  0  0  0  0
   -0.7230   20.8840  -27.2370 C   0  0  0  0  0  0  0  0  0  0  0  0
   -1.9161   18.5317  -25.8585 H   0  0  0  0  0  0  0  0  0  0  0  0
   -2.8145   18.2107  -27.3805 H   0  0  0  0  0  0  0  0  0  0  0  0
   -1.0182   18.2094  -27.3805 H   0  0  0  0  0  0  0  0  0  0  0  0
   -4.0532   20.2042  -27.6390 H   0  0  0  0  0  0  0  0  0  0  0  0
   -4.0787   22.6440  -28.1522 H   0  0  0  0  0  0  0  0  0  0  0  0
   -5.2757   25.5732  -28.9864 H   0  0  0  0  0  0  0  0  0  0  0  0
   -7.3568   24.4469  -29.7661 H   0  0  0  0  0  0  0  0  0  0  0  0
   -7.2693   19.7742  -30.6147 H   0  0  0  0  0  0  0  0  0  0  0  0
   -6.6697   17.3466  -30.5481 H   0  0  0  0  0  0  0  0  0  0  0  0
   -6.1441   16.1361  -32.6704 H   0  0  0  0  0  0  0  0  0  0  0  0
   -6.2421   17.3661  -34.8422 H   0  0  0  0  0  0  0  0  0  0  0  0
   -6.8370   19.6970  -34.8540 H   0  0  0  0  0  0  0  0  0  0  0  0
   -2.9128   22.8949  -31.4329 H   0  0  0  0  0  0  0  0  0  0  0  0
    0.1992   22.8276  -27.5109 H   0  0  0  0  0  0  0  0  0  0  0  0
    0.2265   20.3873  -26.9885 H   0  0  0  0  0  0  0  0  0  0  0  0
  1  2  1  0
  2  3  2  0
  3  4  1  0
  4  5  2  0
  5  6  1  0
  6  7  2  0
  6  8  2  0
  6  9  1  0
  9 10  1  0
 10 11  2  0
 11 12  1  0
 12 13  2  0
 13 14  1  0
 14 15  2  0
 14 16  2  0
 14 17  1  0
 17 18  2  3
 18 19  1  0
 19 20  2  0
 20 21  1  0
 21 22  2  0
 22 23  1  0
 13 24  1  0
 24 25  1  0
 24 26  2  0
  5 27  1  0
 27 28  2  0
 28  2  1  0
 26 10  1  0
 23 18  1  0
  1 29  1  0
  1 30  1  0
  1 31  1  0
  3 32  1  0
  4 33  1  0
 11 34  1  0
 12 35  1  0
 19 36  1  0
 20 37  1  0
 21 38  1  0
 22 39  1  0
 23 40  1  0
 26 41  1  0
 27 42  1  0
 28 43  1  0
M  CHG  1   9  -1
M  END
>  <UniqueID>  (46) 
46

>  <SMILES>  (46) 
Cc1ccc(S(=O)(=O)[N-]c2ccc(S(=O)(=O)N=c3cccc[nH]3)c(F)c2)cc1

>  <Energy>  (46) 
55.296423672461735

>  <Genealogy>  (46) 
Cc1ccc(S(=O)(=O)[N-]c2ccc(S(=O)(=O)N=c3cccc[nH]3)c(F)c2)cc1 (protonated)
Cc1ccc(S(=O)(=O)[N-]c2ccc(S(=O)(=O)N=c3cccc[nH]3)c(F)c2)cc1 (3D coordinates assigned)
Cc1ccc(S(=O)(=O)[N-]c2ccc(S(=O)(=O)N=c3cccc[nH]3)c(F)c2)cc1 (optimized conformer: 55.296423672461735 kcal/mol)

>  <smiles>  (46) 
Cc1ccc(S(=O)(=O)Nc2ccc(S(=O)(=O)N=c3cccc[nH]3)c(F)c2)cc1

>  <score_type>  (46) 
oracle

>  <origin>  (46) 
adgpu

>  <m_score__min__energy>  (46) 
-11.18

>  <m_primary>  (46) 
energy

$$$$
46:0
     RDKit          3D

 33 34  0  0  0  0  0  0  0  0999 V2000
   -3.2940   24.0740  -27.7520 C   0  0  0  0  0  0  0  0  0  0  0  0
   -2.4590   24.5590  -29.2470 S   0  0  0  0  0  0  0  0  0  0  0  0
   -1.4870   25.6700  -28.9680 O   0  0  0  0  0  0  0  0  0  0  0  0
   -1.7000   23.3770  -29.7790 O   0  0  0  0  0  0  0  0  0  0  0  0
   -3.6120   25.0630  -30.4410 N   0  0  0  0  0  0  0  0  0  0  0  0
   -4.8090   24.3580  -30.8040 C   0  0  0  0  0  0  0  0  0  0  0  0
   -4.7850   23.2110  -31.6190 C   0  0  0  0  0  0  0  0  0  0  0  0
   -5.9760   22.5560  -31.9670 C   0  0  0  0  0  0  0  0  0  0  0  0
   -5.9210   21.3720  -32.7810 N   0  0  0  0  0  0  0  0  0  0  0  0
   -6.6280   20.1540  -32.4930 C   0  0  0  0  0  0  0  0  0  0  0  0
   -8.0170   20.1020  -32.6850 C   0  0  0  0  0  0  0  0  0  0  0  0
   -8.7270   18.9370  -32.3860 C   0  0  0  0  0  0  0  0  0  0  0  0
   -8.0620   17.8190  -31.8780 C   0  0  0  0  0  0  0  0  0  0  0  0
   -6.6790   17.8630  -31.6580 C   0  0  0  0  0  0  0  0  0  0  0  0
   -5.9990   16.7240  -31.1230 N   0  0  0  0  0  0  0  0  0  0  0  0
   -5.9660   19.0330  -31.9570 C   0  0  0  0  0  0  0  0  0  0  0  0
   -7.1970   23.0340  -31.4580 C   0  0  0  0  0  0  0  0  0  0  0  0
   -7.2230   24.1690  -30.6460 C   0  0  0  0  0  0  0  0  0  0  0  0
   -6.0370   24.8310  -30.3230 C   0  0  0  0  0  0  0  0  0  0  0  0
   -6.0810   25.9320  -29.5320 F   0  0  0  0  0  0  0  0  0  0  0  0
   -2.7127   24.4116  -26.8813 H   0  0  0  0  0  0  0  0  0  0  0  0
   -4.2938   24.5319  -27.7253 H   0  0  0  0  0  0  0  0  0  0  0  0
   -3.3916   22.9787  -27.7253 H   0  0  0  0  0  0  0  0  0  0  0  0
   -3.8232   22.8242  -31.9868 H   0  0  0  0  0  0  0  0  0  0  0  0
   -5.3270   21.4000  -33.6420 H   0  0  0  0  0  0  0  0  0  0  0  0
   -8.5493   20.9830  -33.0729 H   0  0  0  0  0  0  0  0  0  0  0  0
   -9.8139   18.9000  -32.5513 H   0  0  0  0  0  0  0  0  0  0  0  0
   -8.6251   16.9020  -31.6501 H   0  0  0  0  0  0  0  0  0  0  0  0
   -6.1110   16.4570  -30.1200 H   0  0  0  0  0  0  0  0  0  0  0  0
   -5.3800   16.1380  -31.7270 H   0  0  0  0  0  0  0  0  0  0  0  0
   -4.8826   19.0752  -31.7716 H   0  0  0  0  0  0  0  0  0  0  0  0
   -8.1342   22.5118  -31.7006 H   0  0  0  0  0  0  0  0  0  0  0  0
   -8.1821   24.5435  -30.2589 H   0  0  0  0  0  0  0  0  0  0  0  0
  1  2  1  0
  2  3  2  0
  2  4  2  0
  2  5  1  0
  5  6  1  0
  6  7  2  0
  7  8  1  0
  8  9  1  0
  9 10  1  0
 10 11  2  0
 11 12  1  0
 12 13  2  0
 13 14  1  0
 14 15  1  0
 14 16  2  0
  8 17  2  0
 17 18  1  0
 18 19  2  0
 19 20  1  0
 19  6  1  0
 16 10  1  0
  1 21  1  0
  1 22  1  0
  1 23  1  0
  7 24  1  0
  9 25  1  0
 11 26  1  0
 12 27  1  0
 13 28  1  0
 15 29  1  0
 15 30  1  0
 16 31  1  0
 17 32  1  0
 18 33  1  0
M  CHG  1   5  -1
M  END
>  <UniqueID>  (47) 
47

>  <SMILES>  (47) 
CS(=O)(=O)[N-]c1cc(Nc2cccc(N)c2)ccc1F

>  <Energy>  (47) 
36.895949733055005

>  <Genealogy>  (47) 
CS(=O)(=O)[N-]c1cc(Nc2cccc(N)c2)ccc1F (protonated)
CS(=O)(=O)[N-]c1cc(Nc2cccc(N)c2)ccc1F (3D coordinates assigned)
CS(=O)(=O)[N-]c1cc(Nc2cccc(N)c2)ccc1F (optimized conformer: 36.895949733055005 kcal/mol)

>  <smiles>  (47) 
CS(=O)(=O)Nc1cc(Nc2cccc(N)c2)ccc1F

>  <score_type>  (47) 
oracle

>  <origin>  (47) 
adgpu

>  <m_score__min__energy>  (47) 
-9.7599999999999998

>  <m_primary>  (47) 
energy

$$$$
47:0
     RDKit          3D

 55 58  0  0  0  0  0  0  0  0999 V2000
   -1.7220   15.2990  -32.7600 C   0  0  0  0  0  0  0  0  0  0  0  0
   -1.9110   16.7800  -32.8000 C   0  0  0  0  0  0  0  0  0  0  0  0
   -1.2170   17.6450  -32.0330 N   0  0  0  0  0  0  0  0  0  0  0  0
   -1.6700   18.8630  -32.2920 N   0  0  0  0  0  0  0  0  0  0  0  0
   -1.1650   20.0610  -31.6280 C   0  0  0  0  0  0  0  0  0  0  0  0
   -2.6590   18.7990  -33.2130 C   0  0  0  0  0  0  0  0  0  0  0  0
   -3.4550   19.9670  -33.7160 C   0  0  0  0  0  0  0  0  0  0  0  0
   -2.8380   17.4720  -33.5590 C   0  0  0  0  0  0  0  0  0  0  0  0
   -4.0430   16.7720  -34.6420 S   0  0  0  0  0  0  0  0  0  0  0  0
   -3.4090   15.6270  -35.3840 O   0  0  0  0  0  0  0  0  0  0  0  0
   -4.5060   17.8000  -35.6390 O   0  0  0  0  0  0  0  0  0  0  0  0
   -5.4060   16.2000  -33.7010 N   0  0  0  0  0  0  0  0  0  0  0  0
   -5.0630   16.1060  -32.2520 C   0  0  0  0  0  0  0  0  0  0  0  0
   -5.7760   17.1260  -31.3320 C   0  0  0  0  0  0  0  0  0  0  0  0
   -6.0600   18.4140  -32.0470 C   0  0  0  0  0  0  0  0  0  0  0  0
   -5.9070   19.6560  -31.4190 C   0  0  0  0  0  0  0  0  0  0  0  0
   -6.2030   20.8360  -32.1160 C   0  0  0  0  0  0  0  0  0  0  0  0
   -5.8950   22.3900  -31.3510 S   0  0  0  0  0  0  0  0  0  0  0  0
   -6.4300   22.3520  -29.9470 O   0  0  0  0  0  0  0  0  0  0  0  0
   -6.5680   23.5050  -32.1030 O   0  0  0  0  0  0  0  0  0  0  0  0
   -4.1840   22.6790  -31.3090 N   0  0  0  0  0  0  0  0  0  0  0  0
   -3.4590   22.9170  -30.0870 C   0  0  0  0  0  0  0  0  0  0  0  0
   -3.0710   21.8520  -29.2510 C   0  0  0  0  0  0  0  0  0  0  0  0
   -2.3810   22.1000  -28.0630 C   0  0  0  0  0  0  0  0  0  0  0  0
   -2.0600   23.4100  -27.6990 C   0  0  0  0  0  0  0  0  0  0  0  0
   -2.4320   24.4740  -28.5230 C   0  0  0  0  0  0  0  0  0  0  0  0
   -3.1280   24.2330  -29.7140 C   0  0  0  0  0  0  0  0  0  0  0  0
   -3.4950   25.3100  -30.5130 O   0  0  0  0  0  0  0  0  0  0  0  0
   -6.6910   20.7650  -33.4290 C   0  0  0  0  0  0  0  0  0  0  0  0
   -6.8590   19.5220  -34.0500 C   0  0  0  0  0  0  0  0  0  0  0  0
   -6.5330   18.3470  -33.3590 C   0  0  0  0  0  0  0  0  0  0  0  0
   -6.6190   16.9920  -33.9980 C   0  0  0  0  0  0  0  0  0  0  0  0
   -1.6791   14.9630  -31.7135 H   0  0  0  0  0  0  0  0  0  0  0  0
   -2.5648   14.8079  -33.2685 H   0  0  0  0  0  0  0  0  0  0  0  0
   -0.7829   15.0353  -33.2685 H   0  0  0  0  0  0  0  0  0  0  0  0
   -1.2214   19.9272  -30.5376 H   0  0  0  0  0  0  0  0  0  0  0  0
   -0.1189   20.2304  -31.9230 H   0  0  0  0  0  0  0  0  0  0  0  0
   -1.7742   20.9281  -31.9230 H   0  0  0  0  0  0  0  0  0  0  0  0
   -3.8454   20.5398  -32.8619 H   0  0  0  0  0  0  0  0  0  0  0  0
   -2.8095   20.6146  -34.3275 H   0  0  0  0  0  0  0  0  0  0  0  0
   -4.2938   19.6030  -34.3275 H   0  0  0  0  0  0  0  0  0  0  0  0
   -5.3262   15.0955  -31.9061 H   0  0  0  0  0  0  0  0  0  0  0  0
   -3.9891   16.3330  -32.1801 H   0  0  0  0  0  0  0  0  0  0  0  0
   -6.7265   16.6922  -30.9879 H   0  0  0  0  0  0  0  0  0  0  0  0
   -5.1121   17.3444  -30.4826 H   0  0  0  0  0  0  0  0  0  0  0  0
   -5.5544   19.7060  -30.3782 H   0  0  0  0  0  0  0  0  0  0  0  0
   -3.7100   22.8330  -32.2250 H   0  0  0  0  0  0  0  0  0  0  0  0
   -3.3133   20.8176  -29.5361 H   0  0  0  0  0  0  0  0  0  0  0  0
   -2.0895   21.2623  -27.4123 H   0  0  0  0  0  0  0  0  0  0  0  0
   -1.5144   23.6032  -26.7636 H   0  0  0  0  0  0  0  0  0  0  0  0
   -2.1775   25.5049  -28.2357 H   0  0  0  0  0  0  0  0  0  0  0  0
   -6.9422   21.6882  -33.9718 H   0  0  0  0  0  0  0  0  0  0  0  0
   -7.2461   19.4674  -35.0782 H   0  0  0  0  0  0  0  0  0  0  0  0
   -7.5009   16.4632  -33.6074 H   0  0  0  0  0  0  0  0  0  0  0  0
   -6.7031   17.1178  -35.0875 H   0  0  0  0  0  0  0  0  0  0  0  0
  1  2  1  0
  2  3  2  0
  3  4  1  0
  4  5  1  0
  4  6  1  0
  6  7  1  0
  6  8  2  0
  8  9  1  0
  9 10  2  0
  9 11  2  0
  9 12  1  0
 12 13  1  0
 13 14  1  0
 14 15  1  0
 15 16  2  0
 16 17  1  0
 17 18  1  0
 18 19  2  0
 18 20  2  0
 18 21  1  0
 21 22  1  0
 22 23  2  0
 23 24  1  0
 24 25  2  0
 25 26  1  0
 26 27  2  0
 27 28  1  0
 17 29  2  0
 29 30  1  0
 30 31  2  0
 31 32  1  0
  8  2  1  0
 32 12  1  0
 31 15  1  0
 27 22  1  0
  1 33  1  0
  1 34  1  0
  1 35  1  0
  5 36  1  0
  5 37  1  0
  5 38  1  0
  7 39  1  0
  7 40  1  0
  7 41  1  0
 13 42  1  0
 13 43  1  0
 14 44  1  0
 14 45  1  0
 16 46  1  0
 21 47  1  0
 23 48  1  0
 24 49  1  0
 25 50  1  0
 26 51  1  0
 29 52  1  0
 30 53  1  0
 32 54  1  0
 32 55  1  0
M  CHG  1  28  -1
M  END
>  <UniqueID>  (48) 
48

>  <SMILES>  (48) 
Cc1nn(C)c(C)c1S(=O)(=O)N1CCc2cc(S(=O)(=O)Nc3ccccc3[O-])ccc2C1

>  <Energy>  (48) 
97.04079262471494

>  <Genealogy>  (48) 
Cc1nn(C)c(C)c1S(=O)(=O)N1CCc2cc(S(=O)(=O)Nc3ccccc3[O-])ccc2C1 (protonated)
Cc1nn(C)c(C)c1S(=O)(=O)N1CCc2cc(S(=O)(=O)Nc3ccccc3[O-])ccc2C1 (3D coordinates assigned)
Cc1nn(C)c(C)c1S(=O)(=O)N1CCc2cc(S(=O)(=O)Nc3ccccc3[O-])ccc2C1 (nonaromatic ring conformer: 97.04079262471494 kcal/mol)

>  <smiles>  (48) 
Cc1nn(C)c(C)c1S(=O)(=O)N1CCc2cc(S(=O)(=O)Nc3ccccc3O)ccc2C1

>  <score_type>  (48) 
oracle

>  <origin>  (48) 
adgpu

>  <m_score__min__energy>  (48) 
-13.949999999999999

>  <m_primary>  (48) 
energy

$$$$
