0:0
     RDKit          3D

 39 41  0  0  0  0  0  0  0  0999 V2000
    0.3400   20.4500  -29.2260 O   0  0  0  0  0  0  0  0  0  0  0  0
   -0.6400   21.1890  -29.5170 C   0  0  0  0  0  0  0  0  0  0  0  0
   -0.8620   22.4440  -28.7560 C   0  0  0  0  0  0  0  0  0  0  0  0
   -1.0150   22.4030  -27.3570 C   0  0  0  0  0  0  0  0  0  0  0  0
   -1.2300   23.5790  -26.6320 C   0  0  0  0  0  0  0  0  0  0  0  0
   -1.3020   24.8070  -27.2930 C   0  0  0  0  0  0  0  0  0  0  0  0
   -1.1640   24.8620  -28.6820 C   0  0  0  0  0  0  0  0  0  0  0  0
   -1.2430   26.0830  -29.3380 O   0  0  0  0  0  0  0  0  0  0  0  0
   -0.9470   23.6880  -29.4110 C   0  0  0  0  0  0  0  0  0  0  0  0
   -1.5190   20.7900  -30.6400 C   0  0  0  0  0  0  0  0  0  0  0  0
   -2.8010   21.3560  -30.7360 C   0  0  0  0  0  0  0  0  0  0  0  0
   -3.6400   21.0350  -31.8040 C   0  0  0  0  0  0  0  0  0  0  0  0
   -3.2170   20.1470  -32.7980 C   0  0  0  0  0  0  0  0  0  0  0  0
   -4.1190   19.8360  -33.8690 N   0  0  0  0  0  0  0  0  0  0  0  0
   -5.4130   18.6870  -33.7820 S   0  0  0  0  0  0  0  0  0  0  0  0
   -4.9350   17.4630  -33.0500 O   0  0  0  0  0  0  0  0  0  0  0  0
   -5.8220   18.2960  -35.1740 O   0  0  0  0  0  0  0  0  0  0  0  0
   -6.7980   19.4040  -32.9630 C   0  0  0  0  0  0  0  0  0  0  0  0
   -7.8860   18.5980  -32.6000 C   0  0  0  0  0  0  0  0  0  0  0  0
   -8.9970   19.1640  -31.9680 C   0  0  0  0  0  0  0  0  0  0  0  0
   -9.0260   20.5340  -31.6950 C   0  0  0  0  0  0  0  0  0  0  0  0
   -7.9420   21.3420  -32.0540 C   0  0  0  0  0  0  0  0  0  0  0  0
   -7.9880   23.0670  -31.7280 Cl  0  0  0  0  0  0  0  0  0  0  0  0
   -6.8280   20.7780  -32.6850 C   0  0  0  0  0  0  0  0  0  0  0  0
   -1.9320   19.5840  -32.7130 C   0  0  0  0  0  0  0  0  0  0  0  0
   -1.0860   19.8900  -31.6410 C   0  0  0  0  0  0  0  0  0  0  0  0
    0.1640   19.2680  -31.5890 O   0  0  0  0  0  0  0  0  0  0  0  0
   -0.9650   21.4385  -26.8304 H   0  0  0  0  0  0  0  0  0  0  0  0
   -1.3427   23.5368  -25.5386 H   0  0  0  0  0  0  0  0  0  0  0  0
   -1.4674   25.7312  -26.7198 H   0  0  0  0  0  0  0  0  0  0  0  0
   -0.8419   23.7368  -30.5049 H   0  0  0  0  0  0  0  0  0  0  0  0
   -3.1465   22.0581  -29.9629 H   0  0  0  0  0  0  0  0  0  0  0  0
   -4.6423   21.4842  -31.8644 H   0  0  0  0  0  0  0  0  0  0  0  0
   -7.8655   17.5190  -32.8127 H   0  0  0  0  0  0  0  0  0  0  0  0
   -9.8500   18.5297  -31.6851 H   0  0  0  0  0  0  0  0  0  0  0  0
   -9.9014   20.9772  -31.1977 H   0  0  0  0  0  0  0  0  0  0  0  0
   -5.9744   21.4134  -32.9635 H   0  0  0  0  0  0  0  0  0  0  0  0
   -1.5873   18.8949  -33.4981 H   0  0  0  0  0  0  0  0  0  0  0  0
    0.7280   19.2320  -30.7490 H   0  0  0  0  0  0  0  0  0  0  0  0
  1  2  2  0
  2  3  1  0
  3  4  2  0
  4  5  1  0
  5  6  2  0
  6  7  1  0
  7  8  1  0
  7  9  2  0
  2 10  1  0
 10 11  2  0
 11 12  1  0
 12 13  2  0
 13 14  1  0
 14 15  1  0
 15 16  2  0
 15 17  2  0
 15 18  1  0
 18 19  2  0
 19 20  1  0
 20 21  2  0
 21 22  1  0
 22 23  1  0
 22 24  2  0
 13 25  1  0
 25 26  2  0
 26 27  1  0
  9  3  1  0
 26 10  1  0
 24 18  1  0
  4 28  1  0
  5 29  1  0
  6 30  1  0
  9 31  1  0
 11 32  1  0
 12 33  1  0
 19 34  1  0
 20 35  1  0
 21 36  1  0
 24 37  1  0
 25 38  1  0
 27 39  1  0
M  CHG  2   8  -1  14  -1
M  END
>  <UniqueID>  (1) 
1

>  <SMILES>  (1) 
O=C(c1cccc([O-])c1)c1ccc([N-]S(=O)(=O)c2cccc(Cl)c2)cc1O

>  <Energy>  (1) 
53.47393592741709

>  <Genealogy>  (1) 
O=C(c1cccc([O-])c1)c1ccc([N-]S(=O)(=O)c2cccc(Cl)c2)cc1O (protonated)
O=C(c1cccc([O-])c1)c1ccc([N-]S(=O)(=O)c2cccc(Cl)c2)cc1O (3D coordinates assigned)
O=C(c1cccc([O-])c1)c1ccc([N-]S(=O)(=O)c2cccc(Cl)c2)cc1O (optimized conformer: 53.47393592741709 kcal/mol)

>  <smiles>  (1) 
O=C(c1cccc(O)c1)c1ccc(NS(=O)(=O)c2cccc(Cl)c2)cc1O

>  <score_type>  (1) 
oracle

>  <origin>  (1) 
adgpu

>  <m_score__min__energy>  (1) 
-10.98

>  <m_primary>  (1) 
energy

$$$$
1:0
     RDKit          3D

 41 43  0  0  0  0  0  0  0  0999 V2000
   -1.8520   24.9090  -28.9420 C   0  0  0  0  0  0  0  0  0  0  0  0
   -2.2710   23.4760  -29.1500 C   0  0  0  0  0  0  0  0  0  0  0  0
   -1.4140   22.4470  -28.7140 C   0  0  0  0  0  0  0  0  0  0  0  0
   -1.7670   21.0960  -28.8720 C   0  0  0  0  0  0  0  0  0  0  0  0
   -0.8850   20.0020  -28.3970 C   0  0  0  0  0  0  0  0  0  0  0  0
   -1.2470   18.9100  -27.6220 C   0  0  0  0  0  0  0  0  0  0  0  0
   -0.0930   18.1760  -27.4470 C   0  0  0  0  0  0  0  0  0  0  0  0
    0.9010   18.8560  -28.1190 C   0  0  0  0  0  0  0  0  0  0  0  0
    0.3990   19.9360  -28.6730 O   0  0  0  0  0  0  0  0  0  0  0  0
   -2.9880   20.7800  -29.4850 C   0  0  0  0  0  0  0  0  0  0  0  0
   -3.8380   21.7910  -29.9350 C   0  0  0  0  0  0  0  0  0  0  0  0
   -3.4890   23.1410  -29.7930 C   0  0  0  0  0  0  0  0  0  0  0  0
   -4.6090   24.3790  -30.3880 S   0  0  0  0  0  0  0  0  0  0  0  0
   -3.8760   25.6360  -30.7680 O   0  0  0  0  0  0  0  0  0  0  0  0
   -5.6000   24.6980  -29.3040 O   0  0  0  0  0  0  0  0  0  0  0  0
   -5.4790   23.8100  -31.7760 N   0  0  0  0  0  0  0  0  0  0  0  0
   -5.4110   22.4810  -32.3190 C   0  0  0  0  0  0  0  0  0  0  0  0
   -4.2570   22.0190  -32.9760 C   0  0  0  0  0  0  0  0  0  0  0  0
   -4.1950   20.7130  -33.4650 C   0  0  0  0  0  0  0  0  0  0  0  0
   -5.2760   19.8500  -33.2930 C   0  0  0  0  0  0  0  0  0  0  0  0
   -6.4330   20.2970  -32.6500 C   0  0  0  0  0  0  0  0  0  0  0  0
   -6.5140   21.6110  -32.1670 C   0  0  0  0  0  0  0  0  0  0  0  0
   -7.9840   22.1430  -31.3400 S   0  0  0  0  0  0  0  0  0  0  0  0
   -7.5820   23.2760  -30.0960 N   0  0  0  0  0  0  0  0  0  0  0  0
   -8.6720   20.9500  -30.7390 O   0  0  0  0  0  0  0  0  0  0  0  0
   -8.9140   22.8090  -32.3170 O   0  0  0  0  0  0  0  0  0  0  0  0
   -1.7902   25.1202  -27.8642 H   0  0  0  0  0  0  0  0  0  0  0  0
   -0.8680   25.0742  -29.4050 H   0  0  0  0  0  0  0  0  0  0  0  0
   -2.5921   25.5783  -29.4050 H   0  0  0  0  0  0  0  0  0  0  0  0
   -0.4540   22.7046  -28.2428 H   0  0  0  0  0  0  0  0  0  0  0  0
   -2.2476   18.6777  -27.2285 H   0  0  0  0  0  0  0  0  0  0  0  0
    0.0135   17.2368  -26.8844 H   0  0  0  0  0  0  0  0  0  0  0  0
    1.9534   18.5419  -28.1815 H   0  0  0  0  0  0  0  0  0  0  0  0
   -3.2781   19.7266  -29.6121 H   0  0  0  0  0  0  0  0  0  0  0  0
   -4.7950   21.5249  -30.4076 H   0  0  0  0  0  0  0  0  0  0  0  0
   -3.3965   22.6918  -33.1057 H   0  0  0  0  0  0  0  0  0  0  0  0
   -3.2916   20.3644  -33.9869 H   0  0  0  0  0  0  0  0  0  0  0  0
   -5.2181   18.8160  -33.6639 H   0  0  0  0  0  0  0  0  0  0  0  0
   -7.2857   19.6140  -32.5218 H   0  0  0  0  0  0  0  0  0  0  0  0
   -6.7570   22.8950  -29.5850 H   0  0  0  0  0  0  0  0  0  0  0  0
   -7.2680   24.1530  -30.5680 H   0  0  0  0  0  0  0  0  0  0  0  0
  1  2  1  0
  2  3  2  0
  3  4  1  0
  4  5  1  0
  5  6  2  0
  6  7  1  0
  7  8  2  0
  8  9  1  0
  4 10  2  0
 10 11  1  0
 11 12  2  0
 12 13  1  0
 13 14  2  0
 13 15  2  0
 13 16  1  0
 16 17  1  0
 17 18  2  0
 18 19  1  0
 19 20  2  0
 20 21  1  0
 21 22  2  0
 22 23  1  0
 23 24  1  0
 23 25  2  0
 23 26  2  0
 12  2  1  0
 22 17  1  0
  9  5  1  0
  1 27  1  0
  1 28  1  0
  1 29  1  0
  3 30  1  0
  6 31  1  0
  7 32  1  0
  8 33  1  0
 10 34  1  0
 11 35  1  0
 18 36  1  0
 19 37  1  0
 20 38  1  0
 21 39  1  0
 24 40  1  0
 24 41  1  0
M  CHG  1  16  -1
M  END
>  <UniqueID>  (2) 
2

>  <SMILES>  (2) 
Cc1cc(-c2ccco2)ccc1S(=O)(=O)[N-]c1ccccc1S(N)(=O)=O

>  <Energy>  (2) 
74.99782819723113

>  <Genealogy>  (2) 
Cc1cc(-c2ccco2)ccc1S(=O)(=O)[N-]c1ccccc1S(N)(=O)=O (protonated)
Cc1cc(-c2ccco2)ccc1S(=O)(=O)[N-]c1ccccc1S(N)(=O)=O (3D coordinates assigned)
Cc1cc(-c2ccco2)ccc1S(=O)(=O)[N-]c1ccccc1S(N)(=O)=O (optimized conformer: 74.99782819723113 kcal/mol)

>  <smiles>  (2) 
Cc1cc(-c2ccco2)ccc1S(=O)(=O)Nc1ccccc1S(N)(=O)=O

>  <score_type>  (2) 
oracle

>  <origin>  (2) 
adgpu

>  <m_score__min__energy>  (2) 
-9.3300000000000001

>  <m_primary>  (2) 
energy

$$$$
2:0
     RDKit          3D

 29 30  0  0  0  0  0  0  0  0999 V2000
   -1.7210   25.6680  -28.9640 N   0  0  0  0  0  0  0  0  0  0  0  0
   -2.5810   24.2330  -28.5350 S   0  0  0  0  0  0  0  0  0  0  0  0
   -3.1280   24.3770  -27.1420 O   0  0  0  0  0  0  0  0  0  0  0  0
   -1.6450   23.0570  -28.5650 O   0  0  0  0  0  0  0  0  0  0  0  0
   -3.9000   23.9740  -29.6710 C   0  0  0  0  0  0  0  0  0  0  0  0
   -4.9060   24.9370  -29.8180 C   0  0  0  0  0  0  0  0  0  0  0  0
   -5.9470   24.7380  -30.7290 C   0  0  0  0  0  0  0  0  0  0  0  0
   -5.9950   23.5670  -31.5070 C   0  0  0  0  0  0  0  0  0  0  0  0
   -7.0560   23.3310  -32.4470 N   0  0  0  0  0  0  0  0  0  0  0  0
   -8.6890   22.8420  -31.9670 S   0  0  0  0  0  0  0  0  0  0  0  0
   -8.3040   21.1010  -32.1530 C   0  0  0  0  0  0  0  0  0  0  0  0
   -9.0700   20.1370  -31.4870 C   0  0  0  0  0  0  0  0  0  0  0  0
   -8.7620   18.7800  -31.6270 C   0  0  0  0  0  0  0  0  0  0  0  0
   -7.6910   18.3840  -32.4340 C   0  0  0  0  0  0  0  0  0  0  0  0
   -6.9250   19.3460  -33.1030 C   0  0  0  0  0  0  0  0  0  0  0  0
   -5.5810   18.8500  -34.1150 Cl  0  0  0  0  0  0  0  0  0  0  0  0
   -7.2330   20.7040  -32.9630 C   0  0  0  0  0  0  0  0  0  0  0  0
   -4.9770   22.6120  -31.3660 C   0  0  0  0  0  0  0  0  0  0  0  0
   -3.9360   22.8140  -30.4550 C   0  0  0  0  0  0  0  0  0  0  0  0
   -1.6150   25.6590  -30.0040 H   0  0  0  0  0  0  0  0  0  0  0  0
   -4.8767   25.8552  -29.2130 H   0  0  0  0  0  0  0  0  0  0  0  0
   -6.7323   25.5005  -30.8381 H   0  0  0  0  0  0  0  0  0  0  0  0
   -6.8650   23.4090  -33.4710 H   0  0  0  0  0  0  0  0  0  0  0  0
   -9.9142   20.4468  -30.8535 H   0  0  0  0  0  0  0  0  0  0  0  0
   -9.3631   18.0233  -31.1016 H   0  0  0  0  0  0  0  0  0  0  0  0
   -7.4503   17.3162  -32.5432 H   0  0  0  0  0  0  0  0  0  0  0  0
   -6.6330   21.4605  -33.4900 H   0  0  0  0  0  0  0  0  0  0  0  0
   -4.9981   21.6974  -31.9768 H   0  0  0  0  0  0  0  0  0  0  0  0
   -3.1423   22.0592  -30.3536 H   0  0  0  0  0  0  0  0  0  0  0  0
  1  2  1  0
  2  3  2  0
  2  4  2  0
  2  5  1  0
  5  6  2  0
  6  7  1  0
  7  8  2  0
  8  9  1  0
  9 10  1  0
 10 11  1  0
 11 12  2  0
 12 13  1  0
 13 14  2  0
 14 15  1  0
 15 16  1  0
 15 17  2  0
  8 18  1  0
 18 19  2  0
 19  5  1  0
 17 11  1  0
  1 20  1  0
  6 21  1  0
  7 22  1  0
  9 23  1  0
 12 24  1  0
 13 25  1  0
 14 26  1  0
 17 27  1  0
 18 28  1  0
 19 29  1  0
M  CHG  1   1  -1
M  END
>  <UniqueID>  (3) 
3

>  <SMILES>  (3) 
[NH-]S(=O)(=O)c1ccc(NSc2cccc(Cl)c2)cc1

>  <Energy>  (3) 
25.568108394229416

>  <Genealogy>  (3) 
[NH-]S(=O)(=O)c1ccc(NSc2cccc(Cl)c2)cc1 (protonated)
[NH-]S(=O)(=O)c1ccc(NSc2cccc(Cl)c2)cc1 (3D coordinates assigned)
[NH-]S(=O)(=O)c1ccc(NSc2cccc(Cl)c2)cc1 (optimized conformer: 25.568108394229416 kcal/mol)

>  <smiles>  (3) 
NS(=O)(=O)c1ccc(NSc2cccc(Cl)c2)cc1

>  <score_type>  (3) 
oracle

>  <origin>  (3) 
adgpu

>  <m_score__min__energy>  (3) 
-10.82

>  <m_primary>  (3) 
energy

$$$$
3:0
     RDKit          3D

 44 46  0  0  0  0  0  0  0  0999 V2000
   -6.7050   16.4750  -33.4810 C   0  0  0  0  0  0  0  0  0  0  0  0
   -7.0570   17.8140  -32.9270 C   0  0  0  0  0  0  0  0  0  0  0  0
   -6.7040   19.0370  -33.4700 C   0  0  0  0  0  0  0  0  0  0  0  0
   -7.2680   19.9380  -32.5940 C   0  0  0  0  0  0  0  0  0  0  0  0
   -7.1900   21.2290  -32.7100 N   0  0  0  0  0  0  0  0  0  0  0  0
   -7.9090   22.3520  -31.6020 S   0  0  0  0  0  0  0  0  0  0  0  0
   -8.6690   21.6010  -30.5430 O   0  0  0  0  0  0  0  0  0  0  0  0
   -8.8470   23.2720  -32.3340 O   0  0  0  0  0  0  0  0  0  0  0  0
   -6.6330   23.3130  -30.8650 C   0  0  0  0  0  0  0  0  0  0  0  0
   -6.2010   24.5120  -31.4510 C   0  0  0  0  0  0  0  0  0  0  0  0
   -5.1930   25.2650  -30.8430 C   0  0  0  0  0  0  0  0  0  0  0  0
   -4.6010   24.8200  -29.6580 C   0  0  0  0  0  0  0  0  0  0  0  0
   -5.0050   23.6080  -29.0750 C   0  0  0  0  0  0  0  0  0  0  0  0
   -4.3690   23.1660  -27.8130 C   0  0  0  0  0  0  0  0  0  0  0  0
   -3.2640   22.4080  -27.7350 C   0  0  0  0  0  0  0  0  0  0  0  0
   -2.4260   22.0230  -28.8960 C   0  0  0  0  0  0  0  0  0  0  0  0
   -2.7520   20.8690  -29.6300 C   0  0  0  0  0  0  0  0  0  0  0  0
   -1.9910   20.4960  -30.7390 C   0  0  0  0  0  0  0  0  0  0  0  0
   -0.9060   21.2780  -31.1360 C   0  0  0  0  0  0  0  0  0  0  0  0
   -0.5780   22.4340  -30.4250 C   0  0  0  0  0  0  0  0  0  0  0  0
   -1.3280   22.8180  -29.3010 C   0  0  0  0  0  0  0  0  0  0  0  0
   -0.8560   24.2680  -28.4030 S   0  0  0  0  0  0  0  0  0  0  0  0
   -1.7110   25.6540  -28.9860 N   0  0  0  0  0  0  0  0  0  0  0  0
   -1.1720   24.0770  -26.9470 O   0  0  0  0  0  0  0  0  0  0  0  0
    0.6170   24.5110  -28.5700 O   0  0  0  0  0  0  0  0  0  0  0  0
   -6.0490   22.8760  -29.6690 C   0  0  0  0  0  0  0  0  0  0  0  0
   -7.9090   19.2810  -31.6060 N   0  0  0  0  0  0  0  0  0  0  0  0
   -7.7640   18.0090  -31.8340 O   0  0  0  0  0  0  0  0  0  0  0  0
   -6.5205   15.7731  -32.6544 H   0  0  0  0  0  0  0  0  0  0  0  0
   -7.5361   16.1037  -34.0987 H   0  0  0  0  0  0  0  0  0  0  0  0
   -5.7988   16.5604  -34.0987 H   0  0  0  0  0  0  0  0  0  0  0  0
   -6.1172   19.2398  -34.3781 H   0  0  0  0  0  0  0  0  0  0  0  0
   -6.6562   24.8598  -32.3901 H   0  0  0  0  0  0  0  0  0  0  0  0
   -4.8646   26.2108  -31.2986 H   0  0  0  0  0  0  0  0  0  0  0  0
   -3.8146   25.4221  -29.1795 H   0  0  0  0  0  0  0  0  0  0  0  0
   -4.8369   23.4824  -26.8691 H   0  0  0  0  0  0  0  0  0  0  0  0
   -2.9592   22.0477  -26.7414 H   0  0  0  0  0  0  0  0  0  0  0  0
   -3.6135   20.2553  -29.3279 H   0  0  0  0  0  0  0  0  0  0  0  0
   -2.2468   19.5852  -31.3002 H   0  0  0  0  0  0  0  0  0  0  0  0
   -0.3078   20.9833  -32.0108 H   0  0  0  0  0  0  0  0  0  0  0  0
    0.2749   23.0492  -30.7477 H   0  0  0  0  0  0  0  0  0  0  0  0
   -1.6010   25.6670  -30.0250 H   0  0  0  0  0  0  0  0  0  0  0  0
   -6.4096   21.9534  -29.1907 H   0  0  0  0  0  0  0  0  0  0  0  0
   -8.4320   19.6800  -30.7950 H   0  0  0  0  0  0  0  0  0  0  0  0
  1  2  1  0
  2  3  2  0
  3  4  1  0
  4  5  2  3
  5  6  1  0
  6  7  2  0
  6  8  2  0
  6  9  1  0
  9 10  2  0
 10 11  1  0
 11 12  2  0
 12 13  1  0
 13 14  1  0
 14 15  2  3
 15 16  1  0
 16 17  2  0
 17 18  1  0
 18 19  2  0
 19 20  1  0
 20 21  2  0
 21 22  1  0
 22 23  1  0
 22 24  2  0
 22 25  2  0
 13 26  2  0
  4 27  1  0
 27 28  1  0
 28  2  1  0
 26  9  1  0
 21 16  1  0
  1 29  1  0
  1 30  1  0
  1 31  1  0
  3 32  1  0
 10 33  1  0
 11 34  1  0
 12 35  1  0
 14 36  1  0
 15 37  1  0
 17 38  1  0
 18 39  1  0
 19 40  1  0
 20 41  1  0
 23 42  1  0
 26 43  1  0
 27 44  1  0
M  CHG  1  23  -1
M  END
>  <UniqueID>  (4) 
4

>  <SMILES>  (4) 
Cc1cc(=NS(=O)(=O)c2cccc(C=Cc3ccccc3S([NH-])(=O)=O)c2)[nH]o1

>  <Energy>  (4) 
91.10063103244788

>  <Genealogy>  (4) 
Cc1cc(=NS(=O)(=O)c2cccc(C=Cc3ccccc3S([NH-])(=O)=O)c2)[nH]o1 (protonated)
Cc1cc(=NS(=O)(=O)c2cccc(C=Cc3ccccc3S([NH-])(=O)=O)c2)[nH]o1 (3D coordinates assigned)
Cc1cc(=NS(=O)(=O)c2cccc(C=Cc3ccccc3S([NH-])(=O)=O)c2)[nH]o1 (optimized conformer: 91.10063103244788 kcal/mol)

>  <smiles>  (4) 
Cc1cc(=NS(=O)(=O)c2cccc(C=Cc3ccccc3S(N)(=O)=O)c2)[nH]o1

>  <score_type>  (4) 
oracle

>  <origin>  (4) 
adgpu

>  <m_score__min__energy>  (4) 
-11.82

>  <m_primary>  (4) 
energy

$$$$
4:0
     RDKit          3D

 39 41  0  0  0  0  0  0  0  0999 V2000
   -4.6090   20.5180  -33.6360 H   0  0  0  0  0  0  0  0  0  0  0  0
   -5.0020   19.6080  -33.8470 O   0  0  0  0  0  0  0  0  0  0  0  0
   -6.2110   19.1930  -33.2930 C   0  0  0  0  0  0  0  0  0  0  0  0
   -6.3740   17.8570  -32.9140 C   0  0  0  0  0  0  0  0  0  0  0  0
   -5.5550   17.1390  -33.0684 H   0  0  0  0  0  0  0  0  0  0  0  0
   -7.5740   17.4320  -32.3400 C   0  0  0  0  0  0  0  0  0  0  0  0
   -7.6939   16.3828  -32.0321 H   0  0  0  0  0  0  0  0  0  0  0  0
   -8.6230   18.3370  -32.1560 C   0  0  0  0  0  0  0  0  0  0  0  0
   -9.5607   18.0005  -31.6896 H   0  0  0  0  0  0  0  0  0  0  0  0
   -8.4860   19.6720  -32.5630 C   0  0  0  0  0  0  0  0  0  0  0  0
   -9.6070   20.6140  -32.3420 C   0  0  0  0  0  0  0  0  0  0  0  0
  -10.6038   20.3222  -32.7043 H   0  0  0  0  0  0  0  0  0  0  0  0
   -9.4880   21.7680  -31.7450 N   0  0  0  0  0  0  0  0  0  0  0  0
   -8.2690   22.4120  -31.3440 C   0  0  0  0  0  0  0  0  0  0  0  0
   -7.6800   23.4190  -32.1290 C   0  0  0  0  0  0  0  0  0  0  0  0
   -8.1568   23.7285  -33.0707 H   0  0  0  0  0  0  0  0  0  0  0  0
   -6.4920   24.0280  -31.7180 C   0  0  0  0  0  0  0  0  0  0  0  0
   -6.0290   24.8052  -32.3438 H   0  0  0  0  0  0  0  0  0  0  0  0
   -5.8890   23.6520  -30.5120 C   0  0  0  0  0  0  0  0  0  0  0  0
   -4.3560   24.3800  -30.0400 S   0  0  0  0  0  0  0  0  0  0  0  0
   -4.1490   25.6410  -30.8290 O   0  0  0  0  0  0  0  0  0  0  0  0
   -4.3530   24.7090  -28.5740 O   0  0  0  0  0  0  0  0  0  0  0  0
   -3.0640   23.2740  -30.3750 N   0  0  0  0  0  0  0  0  0  0  0  0
   -3.0190   22.5460  -31.4480 C   0  0  0  0  0  0  0  0  0  0  0  0
   -3.9610   22.5500  -32.4120 N   0  0  0  0  0  0  0  0  0  0  0  0
   -3.5550   21.7070  -33.3180 O   0  0  0  0  0  0  0  0  0  0  0  0
   -2.4020   21.1720  -32.9830 C   0  0  0  0  0  0  0  0  0  0  0  0
   -1.6730   20.1590  -33.7990 C   0  0  0  0  0  0  0  0  0  0  0  0
   -1.1622   19.4493  -33.1316 H   0  0  0  0  0  0  0  0  0  0  0  0
   -2.3885   19.6156  -34.4337 H   0  0  0  0  0  0  0  0  0  0  0  0
   -0.9305   20.6648  -34.4337 H   0  0  0  0  0  0  0  0  0  0  0  0
   -2.0020   21.6760  -31.7630 C   0  0  0  0  0  0  0  0  0  0  0  0
   -1.0955   21.4406  -31.1860 H   0  0  0  0  0  0  0  0  0  0  0  0
   -6.5010   22.6860  -29.7020 C   0  0  0  0  0  0  0  0  0  0  0  0
   -6.0442   22.4054  -28.7415 H   0  0  0  0  0  0  0  0  0  0  0  0
   -7.6920   22.0780  -30.1130 C   0  0  0  0  0  0  0  0  0  0  0  0
   -8.1778   21.3333  -29.4653 H   0  0  0  0  0  0  0  0  0  0  0  0
   -7.2620   20.1020  -33.1080 C   0  0  0  0  0  0  0  0  0  0  0  0
   -7.1292   21.1568  -33.3903 H   0  0  0  0  0  0  0  0  0  0  0  0
  1  2  1  0
  2  3  1  0
  3  4  2  0
  4  5  1  0
  4  6  1  0
  6  7  1  0
  6  8  2  0
  8  9  1  0
  8 10  1  0
 10 11  1  0
 11 12  1  0
 11 13  2  0
 13 14  1  0
 14 15  2  0
 15 16  1  0
 15 17  1  0
 17 18  1  0
 17 19  2  0
 19 20  1  0
 20 21  2  0
 20 22  2  0
 20 23  1  0
 23 24  2  0
 24 25  1  0
 25 26  1  0
 26 27  1  0
 27 28  1  0
 28 29  1  0
 28 30  1  0
 28 31  1  0
 27 32  2  0
 32 33  1  0
 19 34  1  0
 34 35  1  0
 34 36  2  0
 36 37  1  0
 10 38  2  0
 38 39  1  0
 38  3  1  0
 36 14  1  0
 32 24  1  0
M  CHG  1  25  -1
M  END
>  <UniqueID>  (5) 
5

>  <SMILES>  (5) 
Cc1c/c(=N/S(=O)(=O)c2ccc(/N=C\c3cccc(O)c3)cc2)[n-]o1

>  <Energy>  (5) 
83.43983858888913

>  <Genealogy>  (5) 
Cc1cc(=NS(=O)(=O)c2ccc(N=Cc3cccc(O)c3)cc2)[n-]o1 (protonated)
Cc1c/c(=N/S(=O)(=O)c2ccc(/N=C\c3cccc(O)c3)cc2)[n-]o1 (cis-trans isomerization)
Cc1c/c(=N/S(=O)(=O)c2ccc(/N=C\c3cccc(O)c3)cc2)[n-]o1 (3D coordinates assigned)
Cc1c/c(=N/S(=O)(=O)c2ccc(/N=C\c3cccc(O)c3)cc2)[n-]o1 (optimized conformer: 83.43983858888913 kcal/mol)

>  <smiles>  (5) 
Cc1cc(=NS(=O)(=O)c2ccc(N=Cc3cccc(O)c3)cc2)[nH]o1

>  <score_type>  (5) 
oracle

>  <origin>  (5) 
adgpu

>  <m_score__min__energy>  (5) 
-11.4

>  <m_primary>  (5) 
energy

$$$$
5:0
     RDKit          3D

 59 63  0  0  0  0  0  0  0  0999 V2000
   -4.1990   24.4230  -28.2510 O   0  0  0  0  0  0  0  0  0  0  0  0
   -3.4670   24.7300  -29.2320 C   0  0  0  0  0  0  0  0  0  0  0  0
   -2.1120   25.1440  -29.0270 N   0  0  0  0  0  0  0  0  0  0  0  0
   -1.1480   24.5550  -28.1300 C   0  0  0  0  0  0  0  0  0  0  0  0
   -0.3120   23.5050  -28.5490 C   0  0  0  0  0  0  0  0  0  0  0  0
    0.6390   22.9650  -27.6870 C   0  0  0  0  0  0  0  0  0  0  0  0
    0.7940   23.4790  -26.4020 C   0  0  0  0  0  0  0  0  0  0  0  0
   -0.0060   24.5440  -25.9650 C   0  0  0  0  0  0  0  0  0  0  0  0
    0.1580   25.0710  -24.6750 C   0  0  0  0  0  0  0  0  0  0  0  0
   -0.6350   26.1290  -24.2370 C   0  0  0  0  0  0  0  0  0  0  0  0
   -1.5880   26.6770  -25.0850 C   0  0  0  0  0  0  0  0  0  0  0  0
   -1.7690   26.1620  -26.3710 C   0  0  0  0  0  0  0  0  0  0  0  0
   -0.9830   25.0910  -26.8310 C   0  0  0  0  0  0  0  0  0  0  0  0
   -3.9970   24.7510  -30.5590 N   0  0  0  0  0  0  0  0  0  0  0  0
   -5.1390   23.9980  -31.0140 C   0  0  0  0  0  0  0  0  0  0  0  0
   -6.0550   24.5160  -31.9520 C   0  0  0  0  0  0  0  0  0  0  0  0
   -7.1970   23.7880  -32.3030 C   0  0  0  0  0  0  0  0  0  0  0  0
   -7.4480   22.5460  -31.7070 C   0  0  0  0  0  0  0  0  0  0  0  0
   -8.9730   21.6730  -32.0550 S   0  0  0  0  0  0  0  0  0  0  0  0
   -8.1640   20.0970  -32.3150 C   0  0  0  0  0  0  0  0  0  0  0  0
   -8.4030   19.0290  -31.4460 C   0  0  0  0  0  0  0  0  0  0  0  0
   -7.6760   17.8470  -31.6030 C   0  0  0  0  0  0  0  0  0  0  0  0
   -6.7530   17.7390  -32.5930 N   0  0  0  0  0  0  0  0  0  0  0  0
   -6.5190   18.7540  -33.4680 C   0  0  0  0  0  0  0  0  0  0  0  0
   -5.4980   18.5940  -34.5180 C   0  0  0  0  0  0  0  0  0  0  0  0
   -5.8530   18.5340  -35.7240 O   0  0  0  0  0  0  0  0  0  0  0  0
   -4.1120   18.4490  -34.1970 N   0  0  0  0  0  0  0  0  0  0  0  0
   -3.2860   19.4700  -33.6210 C   0  0  0  0  0  0  0  0  0  0  0  0
   -3.7200   20.2450  -32.5300 C   0  0  0  0  0  0  0  0  0  0  0  0
   -2.9270   21.2840  -32.0470 C   0  0  0  0  0  0  0  0  0  0  0  0
   -1.6970   21.5660  -32.6460 C   0  0  0  0  0  0  0  0  0  0  0  0
   -1.2470   20.7990  -33.7270 C   0  0  0  0  0  0  0  0  0  0  0  0
    0.0340   21.1620  -34.4300 C   0  0  0  0  0  0  0  0  0  0  0  0
    0.3780   20.1860  -35.3490 F   0  0  0  0  0  0  0  0  0  0  0  0
    1.0440   21.2800  -33.4960 F   0  0  0  0  0  0  0  0  0  0  0  0
   -0.0990   22.3630  -35.1030 F   0  0  0  0  0  0  0  0  0  0  0  0
   -2.0610   19.7650  -34.2220 C   0  0  0  0  0  0  0  0  0  0  0  0
   -7.2290   19.9560  -33.3430 C   0  0  0  0  0  0  0  0  0  0  0  0
   -6.5500   22.0290  -30.7660 C   0  0  0  0  0  0  0  0  0  0  0  0
   -5.4000   22.7460  -30.4290 C   0  0  0  0  0  0  0  0  0  0  0  0
   -0.4103   23.1056  -29.5692 H   0  0  0  0  0  0  0  0  0  0  0  0
    1.2704   22.1290  -28.0224 H   0  0  0  0  0  0  0  0  0  0  0  0
    1.5476   23.0474  -25.7269 H   0  0  0  0  0  0  0  0  0  0  0  0
    0.9188   24.6452  -24.0043 H   0  0  0  0  0  0  0  0  0  0  0  0
   -0.5064   26.5298  -23.2207 H   0  0  0  0  0  0  0  0  0  0  0  0
   -2.2040   27.5215  -24.7424 H   0  0  0  0  0  0  0  0  0  0  0  0
   -2.5339   26.5987  -27.0300 H   0  0  0  0  0  0  0  0  0  0  0  0
   -3.4940   25.3450  -31.2560 H   0  0  0  0  0  0  0  0  0  0  0  0
   -5.8707   25.4986  -32.4108 H   0  0  0  0  0  0  0  0  0  0  0  0
   -7.8985   24.1917  -33.0480 H   0  0  0  0  0  0  0  0  0  0  0  0
   -9.1547   19.1183  -30.6479 H   0  0  0  0  0  0  0  0  0  0  0  0
   -7.8517   17.0008  -30.9225 H   0  0  0  0  0  0  0  0  0  0  0  0
   -4.6892   20.0299  -32.0564 H   0  0  0  0  0  0  0  0  0  0  0  0
   -3.2706   21.8839  -31.1914 H   0  0  0  0  0  0  0  0  0  0  0  0
   -1.0798   22.3938  -32.2668 H   0  0  0  0  0  0  0  0  0  0  0  0
   -1.7286   19.1815  -35.0932 H   0  0  0  0  0  0  0  0  0  0  0  0
   -7.0514   20.7812  -34.0484 H   0  0  0  0  0  0  0  0  0  0  0  0
   -6.7503   21.0570  -30.2915 H   0  0  0  0  0  0  0  0  0  0  0  0
   -4.6915   22.3275  -29.6990 H   0  0  0  0  0  0  0  0  0  0  0  0
  1  2  2  0
  2  3  1  0
  3  4  1  0
  4  5  2  0
  5  6  1  0
  6  7  2  0
  7  8  1  0
  8  9  2  0
  9 10  1  0
 10 11  2  0
 11 12  1  0
 12 13  2  0
  2 14  1  0
 14 15  1  0
 15 16  2  0
 16 17  1  0
 17 18  2  0
 18 19  1  0
 19 20  1  0
 20 21  2  0
 21 22  1  0
 22 23  2  0
 23 24  1  0
 24 25  1  0
 25 26  2  0
 25 27  1  0
 27 28  1  0
 28 29  2  0
 29 30  1  0
 30 31  2  0
 31 32  1  0
 32 33  1  0
 33 34  1  0
 33 35  1  0
 33 36  1  0
 32 37  2  0
 24 38  2  0
 18 39  1  0
 39 40  2  0
 13  4  1  0
 40 15  1  0
 13  8  1  0
 38 20  1  0
 37 28  1  0
  5 41  1  0
  6 42  1  0
  7 43  1  0
  9 44  1  0
 10 45  1  0
 11 46  1  0
 12 47  1  0
 14 48  1  0
 16 49  1  0
 17 50  1  0
 21 51  1  0
 22 52  1  0
 29 53  1  0
 30 54  1  0
 31 55  1  0
 37 56  1  0
 38 57  1  0
 39 58  1  0
 40 59  1  0
M  CHG  2   3  -1  27  -1
M  END
>  <UniqueID>  (6) 
6

>  <SMILES>  (6) 
O=C([N-]c1cccc2ccccc12)Nc1ccc(Sc2ccnc(C(=O)[N-]c3cccc(C(F)(F)F)c3)c2)cc1

>  <Energy>  (6) 
82.20088179368383

>  <Genealogy>  (6) 
O=C([N-]c1cccc2ccccc12)Nc1ccc(Sc2ccnc(C(=O)[N-]c3cccc(C(F)(F)F)c3)c2)cc1 (protonated)
O=C([N-]c1cccc2ccccc12)Nc1ccc(Sc2ccnc(C(=O)[N-]c3cccc(C(F)(F)F)c3)c2)cc1 (3D coordinates assigned)
O=C([N-]c1cccc2ccccc12)Nc1ccc(Sc2ccnc(C(=O)[N-]c3cccc(C(F)(F)F)c3)c2)cc1 (optimized conformer: 82.20088179368383 kcal/mol)

>  <smiles>  (6) 
O=C(Nc1ccc(Sc2ccnc(C(=O)Nc3cccc(C(F)(F)F)c3)c2)cc1)Nc1cccc2ccccc12

>  <score_type>  (6) 
oracle

>  <origin>  (6) 
adgpu

>  <m_score__min__energy>  (6) 
-12.57

>  <m_primary>  (6) 
energy

$$$$
6:0
     RDKit          3D

 42 44  0  0  0  0  0  0  0  0999 V2000
   -4.3310   25.9220  -30.9760 H   0  0  0  0  0  0  0  0  0  0  0  0
   -3.6140   25.2980  -30.5410 N   0  0  0  0  0  0  0  0  0  0  0  0
   -3.7850   24.0160  -30.4670 C   0  0  0  0  0  0  0  0  0  0  0  0
   -4.9240   23.4610  -30.9630 N   0  0  0  0  0  0  0  0  0  0  0  0
   -5.1610   22.1240  -30.9140 C   0  0  0  0  0  0  0  0  0  0  0  0
   -6.4270   21.5940  -31.4560 C   0  0  0  0  0  0  0  0  0  0  0  0
   -7.6270   22.1040  -30.9320 C   0  0  0  0  0  0  0  0  0  0  0  0
   -7.5955   22.8985  -30.1718 H   0  0  0  0  0  0  0  0  0  0  0  0
   -8.8580   21.6120  -31.3670 C   0  0  0  0  0  0  0  0  0  0  0  0
   -9.7910   22.0188  -30.9500 H   0  0  0  0  0  0  0  0  0  0  0  0
   -8.9060   20.6060  -32.3290 C   0  0  0  0  0  0  0  0  0  0  0  0
   -9.8771   20.2075  -32.6579 H   0  0  0  0  0  0  0  0  0  0  0  0
   -7.7250   20.1020  -32.8770 C   0  0  0  0  0  0  0  0  0  0  0  0
   -7.7740   19.3021  -33.6305 H   0  0  0  0  0  0  0  0  0  0  0  0
   -6.4710   20.6050  -32.4770 C   0  0  0  0  0  0  0  0  0  0  0  0
   -5.2140   20.0490  -33.1230 C   0  0  0  0  0  0  0  0  0  0  0  0
   -4.5570   19.1860  -32.2640 F   0  0  0  0  0  0  0  0  0  0  0  0
   -5.5510   19.3740  -34.2820 F   0  0  0  0  0  0  0  0  0  0  0  0
   -4.3320   21.0650  -33.4490 F   0  0  0  0  0  0  0  0  0  0  0  0
   -4.2270   21.2760  -30.3120 C   0  0  0  0  0  0  0  0  0  0  0  0
   -4.4292   20.1971  -30.2406 H   0  0  0  0  0  0  0  0  0  0  0  0
   -3.0320   21.8010  -29.7990 C   0  0  0  0  0  0  0  0  0  0  0  0
   -2.0470   20.8750  -29.1890 C   0  0  0  0  0  0  0  0  0  0  0  0
   -0.7670   20.7330  -29.7420 C   0  0  0  0  0  0  0  0  0  0  0  0
   -0.4859   21.3226  -30.6271 H   0  0  0  0  0  0  0  0  0  0  0  0
    0.1540   19.8480  -29.1770 C   0  0  0  0  0  0  0  0  0  0  0  0
    1.1577   19.7499  -29.6163 H   0  0  0  0  0  0  0  0  0  0  0  0
   -0.1940   19.0800  -28.0480 C   0  0  0  0  0  0  0  0  0  0  0  0
    0.7100   18.1830  -27.4570 O   0  0  0  0  0  0  0  0  0  0  0  0
    0.9400   16.8520  -27.9070 C   0  0  0  0  0  0  0  0  0  0  0  0
    1.0551   16.1862  -27.0390 H   0  0  0  0  0  0  0  0  0  0  0  0
    0.0863   16.5178  -28.5149 H   0  0  0  0  0  0  0  0  0  0  0  0
    1.8564   16.8236  -28.5149 H   0  0  0  0  0  0  0  0  0  0  0  0
   -1.4830   19.2120  -27.4980 C   0  0  0  0  0  0  0  0  0  0  0  0
   -1.8710   18.4430  -26.3530 N   0  0  0  0  0  0  0  0  0  0  0  0
   -2.7480   18.6650  -25.8340 H   0  0  0  0  0  0  0  0  0  0  0  0
   -1.2890   17.6460  -26.0100 H   0  0  0  0  0  0  0  0  0  0  0  0
   -2.4010   20.1040  -28.0720 C   0  0  0  0  0  0  0  0  0  0  0  0
   -3.4088   20.1998  -27.6417 H   0  0  0  0  0  0  0  0  0  0  0  0
   -2.8060   23.1950  -29.8720 C   0  0  0  0  0  0  0  0  0  0  0  0
   -1.6140   23.7880  -29.2990 C   0  0  0  0  0  0  0  0  0  0  0  0
   -0.6630   24.2620  -28.8420 N   0  0  0  0  0  0  0  0  0  0  0  0
  1  2  1  0
  2  3  2  0
  3  4  1  0
  4  5  1  0
  5  6  1  0
  6  7  2  0
  7  8  1  0
  7  9  1  0
  9 10  1  0
  9 11  2  0
 11 12  1  0
 11 13  1  0
 13 14  1  0
 13 15  2  0
 15 16  1  0
 16 17  1  0
 16 18  1  0
 16 19  1  0
  5 20  2  0
 20 21  1  0
 20 22  1  0
 22 23  1  0
 23 24  2  0
 24 25  1  0
 24 26  1  0
 26 27  1  0
 26 28  2  0
 28 29  1  0
 29 30  1  0
 30 31  1  0
 30 32  1  0
 30 33  1  0
 28 34  1  0
 34 35  1  0
 35 36  1  0
 35 37  1  0
 34 38  2  0
 38 39  1  0
 22 40  2  0
 40 41  1  0
 41 42  3  0
 40  3  1  0
 15  6  1  0
 38 23  1  0
M  CHG  1   4  -1
M  END
>  <UniqueID>  (7) 
7

>  <SMILES>  (7) 
[H]/N=c1\[n-]c(-c2ccccc2C(F)(F)F)cc(-c2ccc(OC)c(N)c2)c1C#N

>  <Energy>  (7) 
61.844757111735184

>  <Genealogy>  (7) 
COc1ccc(-c2cc(-c3ccccc3C(F)(F)F)[n-]c(=N)c2C#N)cc1N (protonated)
[H]/N=c1\[n-]c(-c2ccccc2C(F)(F)F)cc(-c2ccc(OC)c(N)c2)c1C#N (cis-trans isomerization)
[H]/N=c1\[n-]c(-c2ccccc2C(F)(F)F)cc(-c2ccc(OC)c(N)c2)c1C#N (3D coordinates assigned)
[H]/N=c1\[n-]c(-c2ccccc2C(F)(F)F)cc(-c2ccc(OC)c(N)c2)c1C#N (optimized conformer: 61.844757111735184 kcal/mol)

>  <smiles>  (7) 
COc1ccc(-c2cc(-c3ccccc3C(F)(F)F)[nH]c(=N)c2C#N)cc1N

>  <score_type>  (7) 
oracle

>  <origin>  (7) 
adgpu

>  <m_score__min__energy>  (7) 
-9.8399999999999999

>  <m_primary>  (7) 
energy

$$$$
7:0
     RDKit          3D

 43 45  0  0  0  0  0  0  0  0999 V2000
    2.2130   18.4320  -29.0950 C   0  0  0  0  0  0  0  0  0  0  0  0
    0.8720   18.8240  -28.5430 C   0  0  0  0  0  0  0  0  0  0  0  0
    0.2110   19.9640  -29.0290 C   0  0  0  0  0  0  0  0  0  0  0  0
   -1.0590   20.3210  -28.5410 C   0  0  0  0  0  0  0  0  0  0  0  0
   -1.7510   21.5340  -29.0520 C   0  0  0  0  0  0  0  0  0  0  0  0
   -1.0780   22.7620  -29.1440 C   0  0  0  0  0  0  0  0  0  0  0  0
   -1.7410   23.8940  -29.6210 C   0  0  0  0  0  0  0  0  0  0  0  0
   -3.0830   23.7980  -30.0010 C   0  0  0  0  0  0  0  0  0  0  0  0
   -3.6950   24.8530  -30.4550 N   0  0  0  0  0  0  0  0  0  0  0  0
   -5.0790   24.9290  -30.8350 C   0  0  0  0  0  0  0  0  0  0  0  0
   -5.6330   26.0600  -30.8660 O   0  0  0  0  0  0  0  0  0  0  0  0
   -5.8850   23.7210  -31.1330 C   0  0  0  0  0  0  0  0  0  0  0  0
   -6.9710   23.3610  -30.3150 C   0  0  0  0  0  0  0  0  0  0  0  0
   -7.7310   22.2240  -30.6070 C   0  0  0  0  0  0  0  0  0  0  0  0
   -7.4220   21.4360  -31.7220 C   0  0  0  0  0  0  0  0  0  0  0  0
   -8.3890   20.0140  -32.0970 S   0  0  0  0  0  0  0  0  0  0  0  0
   -7.3450   18.7600  -32.8040 C   0  0  0  0  0  0  0  0  0  0  0  0
   -9.0280   19.4870  -30.8440 O   0  0  0  0  0  0  0  0  0  0  0  0
   -9.4710   20.3790  -33.0750 O   0  0  0  0  0  0  0  0  0  0  0  0
   -6.3580   21.8040  -32.5550 C   0  0  0  0  0  0  0  0  0  0  0  0
   -5.5960   22.9400  -32.2650 C   0  0  0  0  0  0  0  0  0  0  0  0
   -3.7180   22.5950  -29.9190 N   0  0  0  0  0  0  0  0  0  0  0  0
   -3.0950   21.4790  -29.4570 C   0  0  0  0  0  0  0  0  0  0  0  0
   -1.6660   19.5120  -27.5640 C   0  0  0  0  0  0  0  0  0  0  0  0
   -1.0180   18.3690  -27.0900 C   0  0  0  0  0  0  0  0  0  0  0  0
    0.2430   18.0210  -27.5780 C   0  0  0  0  0  0  0  0  0  0  0  0
    0.8500   16.8990  -27.1120 F   0  0  0  0  0  0  0  0  0  0  0  0
    2.9061   18.2294  -28.2652 H   0  0  0  0  0  0  0  0  0  0  0  0
    2.1054   17.5277  -29.7120 H   0  0  0  0  0  0  0  0  0  0  0  0
    2.6094   19.2518  -29.7120 H   0  0  0  0  0  0  0  0  0  0  0  0
    0.6918   20.5844  -29.7997 H   0  0  0  0  0  0  0  0  0  0  0  0
   -0.0235   22.8328  -28.8389 H   0  0  0  0  0  0  0  0  0  0  0  0
   -1.2112   24.8550  -29.6974 H   0  0  0  0  0  0  0  0  0  0  0  0
   -7.2242   23.9777  -29.4400 H   0  0  0  0  0  0  0  0  0  0  0  0
   -8.5750   21.9477  -29.9579 H   0  0  0  0  0  0  0  0  0  0  0  0
   -6.8659   18.1846  -31.9982 H   0  0  0  0  0  0  0  0  0  0  0  0
   -7.9519   18.0852  -33.4256 H   0  0  0  0  0  0  0  0  0  0  0  0
   -6.5714   19.2345  -33.4256 H   0  0  0  0  0  0  0  0  0  0  0  0
   -6.1208   21.1969  -33.4411 H   0  0  0  0  0  0  0  0  0  0  0  0
   -4.7649   23.2242  -32.9272 H   0  0  0  0  0  0  0  0  0  0  0  0
   -3.6456   20.5284  -29.3999 H   0  0  0  0  0  0  0  0  0  0  0  0
   -2.6574   19.7810  -27.1706 H   0  0  0  0  0  0  0  0  0  0  0  0
   -1.5033   17.7403  -26.3289 H   0  0  0  0  0  0  0  0  0  0  0  0
  1  2  1  0
  2  3  2  0
  3  4  1  0
  4  5  1  0
  5  6  1  0
  6  7  2  0
  7  8  1  0
  8  9  2  3
  9 10  1  0
 10 11  2  0
 10 12  1  0
 12 13  2  0
 13 14  1  0
 14 15  2  0
 15 16  1  0
 16 17  1  0
 16 18  2  0
 16 19  2  0
 15 20  1  0
 20 21  2  0
  8 22  1  0
 22 23  1  0
  4 24  2  0
 24 25  1  0
 25 26  2  0
 26 27  1  0
 26  2  1  0
 23  5  2  0
 21 12  1  0
  1 28  1  0
  1 29  1  0
  1 30  1  0
  3 31  1  0
  6 32  1  0
  7 33  1  0
 13 34  1  0
 14 35  1  0
 17 36  1  0
 17 37  1  0
 17 38  1  0
 20 39  1  0
 21 40  1  0
 23 41  1  0
 24 42  1  0
 25 43  1  0
M  CHG  1  22  -1
M  END
>  <UniqueID>  (8) 
8

>  <SMILES>  (8) 
Cc1cc(-c2ccc(=NC(=O)c3ccc(S(C)(=O)=O)cc3)[n-]c2)ccc1F

>  <Energy>  (8) 
56.30884803674998

>  <Genealogy>  (8) 
Cc1cc(-c2ccc(=NC(=O)c3ccc(S(C)(=O)=O)cc3)[n-]c2)ccc1F (protonated)
Cc1cc(-c2ccc(=NC(=O)c3ccc(S(C)(=O)=O)cc3)[n-]c2)ccc1F (3D coordinates assigned)
Cc1cc(-c2ccc(=NC(=O)c3ccc(S(C)(=O)=O)cc3)[n-]c2)ccc1F (optimized conformer: 56.30884803674998 kcal/mol)

>  <smiles>  (8) 
Cc1cc(-c2ccc(=NC(=O)c3ccc(S(C)(=O)=O)cc3)[nH]c2)ccc1F

>  <score_type>  (8) 
oracle

>  <origin>  (8) 
adgpu

>  <m_score__min__energy>  (8) 
-10.130000000000001

>  <m_primary>  (8) 
energy

$$$$
8:0
     RDKit          3D

 56 59  0  0  0  0  0  0  0  0999 V2000
   -6.9990   22.9080  -30.4710 C   0  0  0  0  0  0  0  0  0  0  0  0
   -6.8120   23.5710  -31.8300 C   0  0  0  0  0  0  0  0  0  0  0  0
   -5.6190   24.3520  -31.8500 O   0  0  0  0  0  0  0  0  0  0  0  0
   -5.2270   25.1910  -30.8000 C   0  0  0  0  0  0  0  0  0  0  0  0
   -6.0770   25.8980  -30.1960 O   0  0  0  0  0  0  0  0  0  0  0  0
   -3.8480   25.2930  -30.4280 N   0  0  0  0  0  0  0  0  0  0  0  0
   -3.0700   24.2780  -29.7810 C   0  0  0  0  0  0  0  0  0  0  0  0
   -1.9270   24.5840  -29.0210 C   0  0  0  0  0  0  0  0  0  0  0  0
   -1.1820   23.5640  -28.4230 C   0  0  0  0  0  0  0  0  0  0  0  0
   -1.5490   22.2170  -28.6040 C   0  0  0  0  0  0  0  0  0  0  0  0
   -0.8270   21.1380  -27.9850 N   0  0  0  0  0  0  0  0  0  0  0  0
   -0.3210   20.0960  -28.5780 C   0  0  0  0  0  0  0  0  0  0  0  0
    0.3750   19.1900  -27.8480 N   0  0  0  0  0  0  0  0  0  0  0  0
    0.8960   18.0790  -28.4340 C   0  0  0  0  0  0  0  0  0  0  0  0
    1.6410   17.1200  -27.6520 N   0  0  0  0  0  0  0  0  0  0  0  0
    0.9590   15.9430  -27.0980 C   0  0  0  0  0  0  0  0  0  0  0  0
    1.9660   14.8250  -26.8120 C   0  0  0  0  0  0  0  0  0  0  0  0
    3.0500   15.3090  -26.0440 O   0  0  0  0  0  0  0  0  0  0  0  0
    3.7860   16.2440  -26.8070 C   0  0  0  0  0  0  0  0  0  0  0  0
    2.9480   17.4930  -27.0930 C   0  0  0  0  0  0  0  0  0  0  0  0
    0.7070   17.8810  -29.7650 N   0  0  0  0  0  0  0  0  0  0  0  0
    0.0040   18.7740  -30.5090 C   0  0  0  0  0  0  0  0  0  0  0  0
   -0.1920   18.5570  -31.9220 N   0  0  0  0  0  0  0  0  0  0  0  0
   -0.1350   19.6980  -32.8490 C   0  0  0  0  0  0  0  0  0  0  0  0
   -0.8830   19.3740  -34.1450 C   0  0  0  0  0  0  0  0  0  0  0  0
   -0.4510   18.1400  -34.6800 O   0  0  0  0  0  0  0  0  0  0  0  0
   -0.8180   17.0930  -33.8050 C   0  0  0  0  0  0  0  0  0  0  0  0
   -0.0640   17.2030  -32.4770 C   0  0  0  0  0  0  0  0  0  0  0  0
   -0.5120   19.8760  -29.9060 N   0  0  0  0  0  0  0  0  0  0  0  0
   -2.6920   21.9160  -29.3540 C   0  0  0  0  0  0  0  0  0  0  0  0
   -3.4360   22.9370  -29.9520 C   0  0  0  0  0  0  0  0  0  0  0  0
   -6.7929   23.6388  -29.6751 H   0  0  0  0  0  0  0  0  0  0  0  0
   -8.0340   22.5471  -30.3784 H   0  0  0  0  0  0  0  0  0  0  0  0
   -6.3051   22.0595  -30.3784 H   0  0  0  0  0  0  0  0  0  0  0  0
   -6.7475   22.7934  -32.6053 H   0  0  0  0  0  0  0  0  0  0  0  0
   -7.6703   24.2315  -32.0223 H   0  0  0  0  0  0  0  0  0  0  0  0
   -1.6176   25.6322  -28.8965 H   0  0  0  0  0  0  0  0  0  0  0  0
   -0.3050   23.8147  -27.8082 H   0  0  0  0  0  0  0  0  0  0  0  0
    0.4546   16.2242  -26.1618 H   0  0  0  0  0  0  0  0  0  0  0  0
    0.2232   15.5803  -27.8309 H   0  0  0  0  0  0  0  0  0  0  0  0
    1.4625   14.0195  -26.2573 H   0  0  0  0  0  0  0  0  0  0  0  0
    2.3537   14.4468  -27.7694 H   0  0  0  0  0  0  0  0  0  0  0  0
    4.6878   16.5350  -26.2484 H   0  0  0  0  0  0  0  0  0  0  0  0
    4.0621   15.7781  -27.7644 H   0  0  0  0  0  0  0  0  0  0  0  0
    2.7955   18.0488  -26.1561 H   0  0  0  0  0  0  0  0  0  0  0  0
    3.4813   18.1192  -27.8234 H   0  0  0  0  0  0  0  0  0  0  0  0
   -0.5986   20.5746  -32.3730 H   0  0  0  0  0  0  0  0  0  0  0  0
    0.9175   19.9090  -33.0890 H   0  0  0  0  0  0  0  0  0  0  0  0
   -1.9612   19.3178  -33.9344 H   0  0  0  0  0  0  0  0  0  0  0  0
   -0.6763   20.1673  -34.8785 H   0  0  0  0  0  0  0  0  0  0  0  0
   -1.8994   17.1478  -33.6111 H   0  0  0  0  0  0  0  0  0  0  0  0
   -0.5611   16.1333  -34.2772 H   0  0  0  0  0  0  0  0  0  0  0  0
   -0.4817   16.4782  -31.7627 H   0  0  0  0  0  0  0  0  0  0  0  0
    1.0007   16.9910  -32.6544 H   0  0  0  0  0  0  0  0  0  0  0  0
   -3.0068   20.8688  -29.4735 H   0  0  0  0  0  0  0  0  0  0  0  0
   -4.3161   22.6852  -30.5619 H   0  0  0  0  0  0  0  0  0  0  0  0
  1  2  1  0
  2  3  1  0
  3  4  1  0
  4  5  2  0
  4  6  1  0
  6  7  1  0
  7  8  2  0
  8  9  1  0
  9 10  2  0
 10 11  1  0
 11 12  2  3
 12 13  1  0
 13 14  2  0
 14 15  1  0
 15 16  1  0
 16 17  1  0
 17 18  1  0
 18 19  1  0
 19 20  1  0
 14 21  1  0
 21 22  1  0
 22 23  1  0
 23 24  1  0
 24 25  1  0
 25 26  1  0
 26 27  1  0
 27 28  1  0
 22 29  2  0
 10 30  1  0
 30 31  2  0
 31  7  1  0
 29 12  1  0
 20 15  1  0
 28 23  1  0
  1 32  1  0
  1 33  1  0
  1 34  1  0
  2 35  1  0
  2 36  1  0
  8 37  1  0
  9 38  1  0
 16 39  1  0
 16 40  1  0
 17 41  1  0
 17 42  1  0
 19 43  1  0
 19 44  1  0
 20 45  1  0
 20 46  1  0
 24 47  1  0
 24 48  1  0
 25 49  1  0
 25 50  1  0
 27 51  1  0
 27 52  1  0
 28 53  1  0
 28 54  1  0
 30 55  1  0
 31 56  1  0
M  CHG  2   6  -1  21  -1
M  END
>  <UniqueID>  (9) 
9

>  <SMILES>  (9) 
CCOC(=O)[N-]c1ccc(N=c2nc(N3CCOCC3)[n-]c(N3CCOCC3)n2)cc1

>  <Energy>  (9) 
66.32330623377166

>  <Genealogy>  (9) 
CCOC(=O)[N-]c1ccc(N=c2nc(N3CCOCC3)[n-]c(N3CCOCC3)n2)cc1 (protonated)
CCOC(=O)[N-]c1ccc(N=c2nc(N3CCOCC3)[n-]c(N3CCOCC3)n2)cc1 (3D coordinates assigned)
CCOC(=O)[N-]c1ccc(N=c2nc(N3CCOCC3)[n-]c(N3CCOCC3)n2)cc1 (nonaromatic ring conformer: 66.32330623377166 kcal/mol)

>  <smiles>  (9) 
CCOC(=O)Nc1ccc(N=c2nc(N3CCOCC3)[nH]c(N3CCOCC3)n2)cc1

>  <score_type>  (9) 
oracle

>  <origin>  (9) 
adgpu

>  <m_score__min__energy>  (9) 
-8.4600000000000009

>  <m_primary>  (9) 
energy

$$$$
9:0
     RDKit          3D

 46 48  0  0  0  0  0  0  0  0999 V2000
   -6.7990   16.2310  -33.4690 C   0  0  0  0  0  0  0  0  0  0  0  0
   -6.9910   17.6740  -33.0790 C   0  0  0  0  0  0  0  0  0  0  0  0
   -7.7630   17.9830  -31.9470 C   0  0  0  0  0  0  0  0  0  0  0  0
   -7.9660   19.3100  -31.5660 C   0  0  0  0  0  0  0  0  0  0  0  0
   -7.3900   20.3570  -32.3020 C   0  0  0  0  0  0  0  0  0  0  0  0
   -7.6080   21.7310  -31.9400 N   0  0  0  0  0  0  0  0  0  0  0  0
   -6.5650   22.6480  -31.5630 C   0  0  0  0  0  0  0  0  0  0  0  0
   -6.8510   23.9830  -31.2420 C   0  0  0  0  0  0  0  0  0  0  0  0
   -5.8290   24.8480  -30.8550 C   0  0  0  0  0  0  0  0  0  0  0  0
   -4.5110   24.3920  -30.7640 C   0  0  0  0  0  0  0  0  0  0  0  0
   -3.5210   25.2910  -30.3800 O   0  0  0  0  0  0  0  0  0  0  0  0
   -4.2030   23.0440  -31.0570 C   0  0  0  0  0  0  0  0  0  0  0  0
   -2.8150   22.5190  -30.9620 C   0  0  0  0  0  0  0  0  0  0  0  0
   -2.2290   22.4620  -29.8470 O   0  0  0  0  0  0  0  0  0  0  0  0
   -2.1570   22.0210  -32.1360 N   0  0  0  0  0  0  0  0  0  0  0  0
   -2.2900   20.7110  -32.7100 C   0  0  0  0  0  0  0  0  0  0  0  0
   -3.2610   19.8030  -32.2450 C   0  0  0  0  0  0  0  0  0  0  0  0
   -3.3590   18.5260  -32.8030 C   0  0  0  0  0  0  0  0  0  0  0  0
   -2.4850   18.1350  -33.8160 C   0  0  0  0  0  0  0  0  0  0  0  0
   -1.5000   19.0160  -34.2700 C   0  0  0  0  0  0  0  0  0  0  0  0
   -1.3880   20.3030  -33.7160 C   0  0  0  0  0  0  0  0  0  0  0  0
   -0.3220   21.2410  -34.2090 C   0  0  0  0  0  0  0  0  0  0  0  0
   -5.2470   22.1830  -31.4510 C   0  0  0  0  0  0  0  0  0  0  0  0
   -6.6480   20.0570  -33.4510 C   0  0  0  0  0  0  0  0  0  0  0  0
   -6.4420   18.7250  -33.8520 C   0  0  0  0  0  0  0  0  0  0  0  0
   -5.6200   18.4430  -35.0830 C   0  0  0  0  0  0  0  0  0  0  0  0
   -6.7169   15.6139  -32.5621 H   0  0  0  0  0  0  0  0  0  0  0  0
   -7.6603   15.8945  -34.0648 H   0  0  0  0  0  0  0  0  0  0  0  0
   -5.8797   16.1314  -34.0648 H   0  0  0  0  0  0  0  0  0  0  0  0
   -8.2117   17.1715  -31.3553 H   0  0  0  0  0  0  0  0  0  0  0  0
   -8.5815   19.5369  -30.6830 H   0  0  0  0  0  0  0  0  0  0  0  0
   -8.5900   22.0890  -31.9520 H   0  0  0  0  0  0  0  0  0  0  0  0
   -7.8869   24.3491  -31.2959 H   0  0  0  0  0  0  0  0  0  0  0  0
   -6.0614   25.8971  -30.6195 H   0  0  0  0  0  0  0  0  0  0  0  0
   -3.9462   20.1010  -31.4378 H   0  0  0  0  0  0  0  0  0  0  0  0
   -4.1280   17.8272  -32.4420 H   0  0  0  0  0  0  0  0  0  0  0  0
   -2.5708   17.1316  -34.2586 H   0  0  0  0  0  0  0  0  0  0  0  0
   -0.8085   18.7007  -35.0652 H   0  0  0  0  0  0  0  0  0  0  0  0
    0.1934   21.6945  -33.3495 H   0  0  0  0  0  0  0  0  0  0  0  0
    0.4037   20.6832  -34.8191 H   0  0  0  0  0  0  0  0  0  0  0  0
   -0.7830   22.0317  -34.8191 H   0  0  0  0  0  0  0  0  0  0  0  0
   -5.0242   21.1292  -31.6742 H   0  0  0  0  0  0  0  0  0  0  0  0
   -6.2200   20.8753  -34.0487 H   0  0  0  0  0  0  0  0  0  0  0  0
   -4.6186   18.0995  -34.7844 H   0  0  0  0  0  0  0  0  0  0  0  0
   -6.1121   17.6623  -35.6816 H   0  0  0  0  0  0  0  0  0  0  0  0
   -5.5292   19.3614  -35.6816 H   0  0  0  0  0  0  0  0  0  0  0  0
  1  2  1  0
  2  3  2  0
  3  4  1  0
  4  5  2  0
  5  6  1  0
  6  7  1  0
  7  8  2  0
  8  9  1  0
  9 10  2  0
 10 11  1  0
 10 12  1  0
 12 13  1  0
 13 14  2  0
 13 15  1  0
 15 16  1  0
 16 17  2  0
 17 18  1  0
 18 19  2  0
 19 20  1  0
 20 21  2  0
 21 22  1  0
 12 23  2  0
  5 24  1  0
 24 25  2  0
 25 26  1  0
 25  2  1  0
 23  7  1  0
 21 16  1  0
  1 27  1  0
  1 28  1  0
  1 29  1  0
  3 30  1  0
  4 31  1  0
  6 32  1  0
  8 33  1  0
  9 34  1  0
 17 35  1  0
 18 36  1  0
 19 37  1  0
 20 38  1  0
 22 39  1  0
 22 40  1  0
 22 41  1  0
 23 42  1  0
 24 43  1  0
 26 44  1  0
 26 45  1  0
 26 46  1  0
M  CHG  2  11  -1  15  -1
M  END
>  <UniqueID>  (10) 
10

>  <SMILES>  (10) 
Cc1ccc(Nc2ccc([O-])c(C(=O)[N-]c3ccccc3C)c2)cc1C

>  <Energy>  (10) 
60.05878217329942

>  <Genealogy>  (10) 
Cc1ccc(Nc2ccc([O-])c(C(=O)[N-]c3ccccc3C)c2)cc1C (protonated)
Cc1ccc(Nc2ccc([O-])c(C(=O)[N-]c3ccccc3C)c2)cc1C (3D coordinates assigned)
Cc1ccc(Nc2ccc([O-])c(C(=O)[N-]c3ccccc3C)c2)cc1C (optimized conformer: 60.05878217329942 kcal/mol)

>  <smiles>  (10) 
Cc1ccc(Nc2ccc(O)c(C(=O)Nc3ccccc3C)c2)cc1C

>  <score_type>  (10) 
oracle

>  <origin>  (10) 
adgpu

>  <m_score__min__energy>  (10) 
-12.619999999999999

>  <m_primary>  (10) 
energy

$$$$
10:0
     RDKit          3D

 51 54  0  0  0  0  0  0  0  0999 V2000
   -9.1160   18.5460  -31.9100 C   0  0  0  0  0  0  0  0  0  0  0  0
   -9.4080   19.8700  -32.3440 O   0  0  0  0  0  0  0  0  0  0  0  0
   -8.5580   20.9710  -32.1570 C   0  0  0  0  0  0  0  0  0  0  0  0
   -7.1770   20.7590  -32.1940 C   0  0  0  0  0  0  0  0  0  0  0  0
   -6.2880   21.8220  -32.0140 C   0  0  0  0  0  0  0  0  0  0  0  0
   -6.7710   23.1260  -31.7930 C   0  0  0  0  0  0  0  0  0  0  0  0
   -5.8840   24.2460  -31.5990 N   0  0  0  0  0  0  0  0  0  0  0  0
   -4.7340   24.2260  -30.6860 C   0  0  1  0  0  0  0  0  0  0  0  0
   -4.2590   25.5310  -30.4790 O   0  0  0  0  0  0  0  0  0  0  0  0
   -5.1100   23.5680  -29.3470 C   0  0  0  0  0  0  0  0  0  0  0  0
   -4.2300   24.3380  -27.9380 S   0  0  0  0  0  0  0  0  0  0  0  0
   -2.5860   23.8720  -28.4930 C   0  0  0  0  0  0  0  0  0  0  0  0
   -1.4750   24.6060  -28.0730 C   0  0  0  0  0  0  0  0  0  0  0  0
   -0.2120   24.1960  -28.4980 C   0  0  0  0  0  0  0  0  0  0  0  0
    0.8150   24.8210  -28.1250 O   0  0  0  0  0  0  0  0  0  0  0  0
   -0.0880   23.1170  -29.3130 N   0  0  0  0  0  0  0  0  0  0  0  0
   -1.1810   22.4300  -29.7410 C   0  0  0  0  0  0  0  0  0  0  0  0
   -1.0060   21.2740  -30.5740 N   0  0  0  0  0  0  0  0  0  0  0  0
   -0.0050   20.2370  -30.3220 C   0  0  0  0  0  0  0  0  0  0  0  0
   -0.3280   19.0840  -31.3030 C   0  0  0  0  0  0  0  0  0  0  0  0
   -1.4690   19.6170  -32.0980 C   0  0  0  0  0  0  0  0  0  0  0  0
   -2.1100   19.0190  -33.1840 C   0  0  0  0  0  0  0  0  0  0  0  0
   -3.1290   19.7330  -33.8360 C   0  0  0  0  0  0  0  0  0  0  0  0
   -3.4730   21.0280  -33.4060 C   0  0  0  0  0  0  0  0  0  0  0  0
   -2.8100   21.6110  -32.3150 C   0  0  0  0  0  0  0  0  0  0  0  0
   -1.8260   20.8630  -31.6570 C   0  0  0  0  0  0  0  0  0  0  0  0
   -2.4230   22.8060  -29.3210 N   0  0  0  0  0  0  0  0  0  0  0  0
   -8.1590   23.3370  -31.7560 C   0  0  0  0  0  0  0  0  0  0  0  0
   -9.0470   22.2720  -31.9370 C   0  0  0  0  0  0  0  0  0  0  0  0
   -9.1089   18.5137  -30.8105 H   0  0  0  0  0  0  0  0  0  0  0  0
   -9.8838   17.8572  -32.2921 H   0  0  0  0  0  0  0  0  0  0  0  0
   -8.1297   18.2440  -32.2921 H   0  0  0  0  0  0  0  0  0  0  0  0
   -6.7861   19.7454  -32.3665 H   0  0  0  0  0  0  0  0  0  0  0  0
   -5.2038   21.6389  -32.0452 H   0  0  0  0  0  0  0  0  0  0  0  0
   -6.0860   25.1260  -32.1280 H   0  0  0  0  0  0  0  0  0  0  0  0
   -3.9337   23.6276  -31.1458 H   0  0  0  0  0  0  0  0  0  0  0  0
   -4.6080   25.8340  -29.6010 H   0  0  0  0  0  0  0  0  0  0  0  0
   -6.1936   23.6740  -29.1904 H   0  0  0  0  0  0  0  0  0  0  0  0
   -4.8182   22.5084  -29.3936 H   0  0  0  0  0  0  0  0  0  0  0  0
   -1.5932   25.4856  -27.4232 H   0  0  0  0  0  0  0  0  0  0  0  0
    1.0058   20.6276  -30.5110 H   0  0  0  0  0  0  0  0  0  0  0  0
   -0.0329   19.8959  -29.2766 H   0  0  0  0  0  0  0  0  0  0  0  0
    0.5341   18.8645  -31.9500 H   0  0  0  0  0  0  0  0  0  0  0  0
   -0.5647   18.1390  -30.7922 H   0  0  0  0  0  0  0  0  0  0  0  0
   -1.8239   18.0119  -33.5215 H   0  0  0  0  0  0  0  0  0  0  0  0
   -3.6598   19.2783  -34.6855 H   0  0  0  0  0  0  0  0  0  0  0  0
   -4.2650   21.5858  -33.9272 H   0  0  0  0  0  0  0  0  0  0  0  0
   -3.0573   22.6307  -31.9848 H   0  0  0  0  0  0  0  0  0  0  0  0
   -3.2600   22.2480  -29.6000 H   0  0  0  0  0  0  0  0  0  0  0  0
   -8.5515   24.3499  -31.5829 H   0  0  0  0  0  0  0  0  0  0  0  0
  -10.1318   22.4519  -31.9073 H   0  0  0  0  0  0  0  0  0  0  0  0
  1  2  1  0
  2  3  1  0
  3  4  2  0
  4  5  1  0
  5  6  2  0
  6  7  1  0
  7  8  1  0
  8  9  1  0
  8 10  1  0
 10 11  1  0
 11 12  1  0
 12 13  2  0
 13 14  1  0
 14 15  2  0
 14 16  1  0
 16 17  2  0
 17 18  1  0
 18 19  1  0
 19 20  1  0
 20 21  1  0
 21 22  2  0
 22 23  1  0
 23 24  2  0
 24 25  1  0
 25 26  2  0
 17 27  1  0
  6 28  1  0
 28 29  2  0
 29  3  1  0
 27 12  1  0
 26 18  1  0
 26 21  1  0
  1 30  1  0
  1 31  1  0
  1 32  1  0
  4 33  1  0
  5 34  1  0
  7 35  1  0
  8 36  1  6
  9 37  1  0
 10 38  1  0
 10 39  1  0
 13 40  1  0
 19 41  1  0
 19 42  1  0
 20 43  1  0
 20 44  1  0
 22 45  1  0
 23 46  1  0
 24 47  1  0
 25 48  1  0
 27 49  1  0
 28 50  1  0
 29 51  1  0
M  END
>  <UniqueID>  (11) 
11

>  <SMILES>  (11) 
COc1ccc(N[C@@H](O)CSc2cc(=O)nc(N3CCc4ccccc43)[nH]2)cc1

>  <Energy>  (11) 
67.8508928217345

>  <Genealogy>  (11) 
COc1ccc(N[C@@H](O)CSc2cc(=O)nc(N3CCc4ccccc43)[nH]2)cc1 (chirality)
COc1ccc(N[C@@H](O)CSc2cc(=O)nc(N3CCc4ccccc43)[nH]2)cc1 (3D coordinates assigned)
COc1ccc(N[C@@H](O)CSc2cc(=O)nc(N3CCc4ccccc43)[nH]2)cc1 (nonaromatic ring conformer: 67.8508928217345 kcal/mol)

>  <smiles>  (11) 
COc1ccc(NC(O)CSc2cc(=O)nc(N3CCc4ccccc43)[nH]2)cc1

>  <score_type>  (11) 
oracle

>  <origin>  (11) 
adgpu

>  <m_score__min__energy>  (11) 
-9.4800000000000004

>  <m_primary>  (11) 
energy

$$$$
11:0
     RDKit          3D

 67 71  0  0  0  0  0  0  0  0999 V2000
   -5.5630   26.4031  -31.1471 H   0  0  0  0  0  0  0  0  0  0  0  0
   -5.2110   25.4720  -30.6790 C   0  0  0  0  0  0  0  0  0  0  0  0
   -3.8860   25.2980  -30.4260 N   0  0  0  0  0  0  0  0  0  0  0  0
   -3.3960   24.1660  -29.8500 C   0  0  0  0  0  0  0  0  0  0  0  0
   -2.1140   24.0840  -29.6390 N   0  0  0  0  0  0  0  0  0  0  0  0
   -1.2620   22.7570  -28.9070 S   0  0  0  0  0  0  0  0  0  0  0  0
   -2.1950   22.0220  -27.9830 O   0  0  0  0  0  0  0  0  0  0  0  0
   -0.1080   23.2840  -28.0990 O   0  0  0  0  0  0  0  0  0  0  0  0
   -0.7100   21.6410  -30.1530 C   0  0  0  0  0  0  0  0  0  0  0  0
    0.0280   20.4980  -29.8160 C   0  0  0  0  0  0  0  0  0  0  0  0
    0.2386   20.2726  -28.7601 H   0  0  0  0  0  0  0  0  0  0  0  0
    0.4970   19.6440  -30.8180 C   0  0  0  0  0  0  0  0  0  0  0  0
    1.0719   18.7460  -30.5477 H   0  0  0  0  0  0  0  0  0  0  0  0
    0.2370   19.9280  -32.1690 C   0  0  0  0  0  0  0  0  0  0  0  0
    0.7290   19.0820  -33.2170 N   0  0  0  0  0  0  0  0  0  0  0  0
    0.0490   18.8310  -34.4530 C   0  0  0  0  0  0  0  0  0  0  0  0
    0.6180   19.1320  -35.5330 O   0  0  0  0  0  0  0  0  0  0  0  0
   -1.2510   18.1370  -34.4790 C   0  0  0  0  0  0  0  0  0  0  0  0
   -1.4360   16.4950  -34.8060 S   0  0  0  0  0  0  0  0  0  0  0  0
   -3.1110   16.4680  -34.6500 C   0  0  0  0  0  0  0  0  0  0  0  0
   -3.9370   15.3050  -34.8090 N   0  0  0  0  0  0  0  0  0  0  0  0
   -4.3870   15.1370  -35.7390 H   0  0  0  0  0  0  0  0  0  0  0  0
   -4.2440   14.4040  -33.7340 C   0  0  0  0  0  0  0  0  0  0  0  0
   -4.6460   13.0780  -33.9860 C   0  0  0  0  0  0  0  0  0  0  0  0
   -4.6881   12.7058  -35.0203 H   0  0  0  0  0  0  0  0  0  0  0  0
   -4.9920   12.2320  -32.9270 C   0  0  0  0  0  0  0  0  0  0  0  0
   -5.2987   11.1954  -33.1306 H   0  0  0  0  0  0  0  0  0  0  0  0
   -4.9490   12.7000  -31.6120 C   0  0  0  0  0  0  0  0  0  0  0  0
   -5.2176   12.0319  -30.7805 H   0  0  0  0  0  0  0  0  0  0  0  0
   -4.5640   14.0190  -31.3540 C   0  0  0  0  0  0  0  0  0  0  0  0
   -4.5290   14.3875  -30.3181 H   0  0  0  0  0  0  0  0  0  0  0  0
   -4.2230   14.8720  -32.4100 C   0  0  0  0  0  0  0  0  0  0  0  0
   -3.9373   15.9137  -32.2020 H   0  0  0  0  0  0  0  0  0  0  0  0
   -3.5640   17.7460  -34.3240 C   0  0  0  0  0  0  0  0  0  0  0  0
   -4.9890   18.0730  -34.1530 C   0  0  0  0  0  0  0  0  0  0  0  0
   -5.7110   18.2470  -35.1710 O   0  0  0  0  0  0  0  0  0  0  0  0
   -5.5500   18.1910  -32.8360 N   0  0  0  0  0  0  0  0  0  0  0  0
   -5.0350   17.7730  -32.0280 H   0  0  0  0  0  0  0  0  0  0  0  0
   -6.8250   18.7980  -32.5820 C   0  0  0  0  0  0  0  0  0  0  0  0
   -7.8460   18.0230  -32.0110 C   0  0  0  0  0  0  0  0  0  0  0  0
   -7.6624   16.9642  -31.7762 H   0  0  0  0  0  0  0  0  0  0  0  0
   -9.0940   18.5880  -31.7390 C   0  0  0  0  0  0  0  0  0  0  0  0
   -9.8923   17.9715  -31.3001 H   0  0  0  0  0  0  0  0  0  0  0  0
   -9.3290   19.9320  -32.0230 C   0  0  0  0  0  0  0  0  0  0  0  0
  -10.3181   20.3699  -31.8233 H   0  0  0  0  0  0  0  0  0  0  0  0
   -8.3130   20.7240  -32.5600 C   0  0  0  0  0  0  0  0  0  0  0  0
   -8.5027   21.7861  -32.7745 H   0  0  0  0  0  0  0  0  0  0  0  0
   -7.0450   20.1700  -32.8290 C   0  0  0  0  0  0  0  0  0  0  0  0
   -5.9820   20.9540  -33.3070 O   0  0  0  0  0  0  0  0  0  0  0  0
   -5.0400   21.6330  -32.4840 C   0  0  0  0  0  0  0  0  0  0  0  0
   -5.2838   21.4573  -31.4259 H   0  0  0  0  0  0  0  0  0  0  0  0
   -4.0289   21.2547  -32.6950 H   0  0  0  0  0  0  0  0  0  0  0  0
   -5.0793   22.7119  -32.6950 H   0  0  0  0  0  0  0  0  0  0  0  0
   -2.5170   18.6890  -34.2350 C   0  0  0  0  0  0  0  0  0  0  0  0
   -2.7180   20.0440  -33.8190 N   0  0  0  0  0  0  0  0  0  0  0  0
   -3.0660   20.2760  -32.8630 H   0  0  0  0  0  0  0  0  0  0  0  0
   -2.5880   20.8350  -34.4860 H   0  0  0  0  0  0  0  0  0  0  0  0
   -0.5350   21.0470  -32.5000 C   0  0  0  0  0  0  0  0  0  0  0  0
   -0.7789   21.2520  -33.5528 H   0  0  0  0  0  0  0  0  0  0  0  0
   -0.9980   21.9060  -31.4980 C   0  0  0  0  0  0  0  0  0  0  0  0
   -1.5904   22.7929  -31.7671 H   0  0  0  0  0  0  0  0  0  0  0  0
   -4.2950   23.1350  -29.5040 C   0  0  0  0  0  0  0  0  0  0  0  0
   -3.9236   22.2089  -29.0411 H   0  0  0  0  0  0  0  0  0  0  0  0
   -5.6590   23.2980  -29.7530 C   0  0  0  0  0  0  0  0  0  0  0  0
   -6.3669   22.5009  -29.4817 H   0  0  0  0  0  0  0  0  0  0  0  0
   -6.1240   24.4720  -30.3460 C   0  0  0  0  0  0  0  0  0  0  0  0
   -7.1968   24.6071  -30.5482 H   0  0  0  0  0  0  0  0  0  0  0  0
  1  2  1  0
  2  3  1  0
  3  4  1  0
  4  5  2  0
  5  6  1  0
  6  7  2  0
  6  8  2  0
  6  9  1  0
  9 10  2  0
 10 11  1  0
 10 12  1  0
 12 13  1  0
 12 14  2  0
 14 15  1  0
 15 16  1  0
 16 17  2  0
 16 18  1  0
 18 19  1  0
 19 20  1  0
 20 21  1  0
 21 22  1  0
 21 23  1  0
 23 24  2  0
 24 25  1  0
 24 26  1  0
 26 27  1  0
 26 28  2  0
 28 29  1  0
 28 30  1  0
 30 31  1  0
 30 32  2  0
 32 33  1  0
 20 34  2  0
 34 35  1  0
 35 36  2  0
 35 37  1  0
 37 38  1  0
 37 39  1  0
 39 40  2  0
 40 41  1  0
 40 42  1  0
 42 43  1  0
 42 44  2  0
 44 45  1  0
 44 46  1  0
 46 47  1  0
 46 48  2  0
 48 49  1  0
 49 50  1  0
 50 51  1  0
 50 52  1  0
 50 53  1  0
 34 54  1  0
 54 55  1  0
 55 56  1  0
 55 57  1  0
 14 58  1  0
 58 59  1  0
 58 60  2  0
 60 61  1  0
  4 62  1  0
 62 63  1  0
 62 64  2  0
 64 65  1  0
 64 66  1  0
 66 67  1  0
 66  2  2  0
 60  9  1  0
 54 18  2  0
 32 23  1  0
 48 39  1  0
M  CHG  2   3  -1  15  -1
M  END
>  <UniqueID>  (12) 
12

>  <SMILES>  (12) 
COc1ccccc1NC(=O)c1c(Nc2ccccc2)sc(C(=O)[N-]c2ccc(S(=O)(=O)/N=c3\cccc[n-]3)cc2)c1N

>  <Energy>  (12) 
124.76436113848129

>  <Genealogy>  (12) 
COc1ccccc1NC(=O)c1c(Nc2ccccc2)sc(C(=O)[N-]c2ccc(S(=O)(=O)N=c3cccc[n-]3)cc2)c1N (protonated)
COc1ccccc1NC(=O)c1c(Nc2ccccc2)sc(C(=O)[N-]c2ccc(S(=O)(=O)/N=c3\cccc[n-]3)cc2)c1N (cis-trans isomerization)
COc1ccccc1NC(=O)c1c(Nc2ccccc2)sc(C(=O)[N-]c2ccc(S(=O)(=O)/N=c3\cccc[n-]3)cc2)c1N (3D coordinates assigned)
COc1ccccc1NC(=O)c1c(Nc2ccccc2)sc(C(=O)[N-]c2ccc(S(=O)(=O)/N=c3\cccc[n-]3)cc2)c1N (optimized conformer: 124.76436113848129 kcal/mol)

>  <smiles>  (12) 
COc1ccccc1NC(=O)c1c(Nc2ccccc2)sc(C(=O)Nc2ccc(S(=O)(=O)N=c3cccc[nH]3)cc2)c1N

>  <score_type>  (12) 
oracle

>  <origin>  (12) 
adgpu

>  <m_score__min__energy>  (12) 
-12.039999999999999

>  <m_primary>  (12) 
energy

$$$$
12:0
     RDKit          3D

 52 54  0  0  0  0  0  0  0  0999 V2000
   -7.2680   20.0560  -33.0650 C   0  0  0  0  0  0  0  0  0  0  0  0
   -5.8360   19.7620  -32.6350 C   0  0  0  0  0  0  0  0  0  0  0  0
   -4.9000   19.6370  -33.8450 C   0  0  0  0  0  0  0  0  0  0  0  0
   -3.5780   19.1420  -33.4100 N   0  0  0  0  0  0  0  0  0  0  0  0
   -2.5460   20.0160  -33.1340 C   0  0  0  0  0  0  0  0  0  0  0  0
   -2.6790   21.4260  -33.3910 N   0  0  0  0  0  0  0  0  0  0  0  0
   -1.3380   19.5290  -32.5870 C   0  0  0  0  0  0  0  0  0  0  0  0
   -0.3300   20.4310  -32.0730 N   0  0  0  0  0  0  0  0  0  0  0  0
    0.6130   21.0440  -33.0230 C   0  0  0  0  0  0  0  0  0  0  0  0
    0.0960   20.9930  -34.4660 C   0  0  0  0  0  0  0  0  0  0  0  0
   -0.1620   22.2860  -34.9370 O   0  0  0  0  0  0  0  0  0  0  0  0
   -0.4120   20.9240  -30.7120 C   0  0  0  0  0  0  0  0  0  0  0  0
    0.3730   20.4700  -29.8360 O   0  0  0  0  0  0  0  0  0  0  0  0
   -1.3400   22.0090  -30.3240 C   0  0  0  0  0  0  0  0  0  0  0  0
   -0.9620   23.2530  -29.8480 C   0  0  0  0  0  0  0  0  0  0  0  0
   -2.1260   23.9830  -29.7500 C   0  0  0  0  0  0  0  0  0  0  0  0
   -2.1950   25.2980  -29.3110 O   0  0  0  0  0  0  0  0  0  0  0  0
   -3.1930   23.2480  -30.1270 N   0  0  0  0  0  0  0  0  0  0  0  0
   -4.5630   23.6770  -30.2400 C   0  0  0  0  0  0  0  0  0  0  0  0
   -5.0160   24.8180  -29.5540 C   0  0  0  0  0  0  0  0  0  0  0  0
   -6.3390   25.2490  -29.6950 C   0  0  0  0  0  0  0  0  0  0  0  0
   -7.2190   24.5490  -30.5230 C   0  0  0  0  0  0  0  0  0  0  0  0
   -6.7770   23.4190  -31.2150 C   0  0  0  0  0  0  0  0  0  0  0  0
   -5.4550   22.9860  -31.0790 C   0  0  0  0  0  0  0  0  0  0  0  0
   -2.7200   22.0300  -30.4580 C   0  0  0  0  0  0  0  0  0  0  0  0
   -1.1940   18.1460  -32.4280 C   0  0  0  0  0  0  0  0  0  0  0  0
   -0.1310   17.6650  -31.9520 O   0  0  0  0  0  0  0  0  0  0  0  0
   -2.2120   17.3160  -32.7550 N   0  0  0  0  0  0  0  0  0  0  0  0
   -3.3990   17.7950  -33.2080 C   0  0  0  0  0  0  0  0  0  0  0  0
   -4.3350   16.9790  -33.4370 O   0  0  0  0  0  0  0  0  0  0  0  0
   -7.8993   20.1856  -32.1735 H   0  0  0  0  0  0  0  0  0  0  0  0
   -7.2886   20.9771  -33.6659 H   0  0  0  0  0  0  0  0  0  0  0  0
   -7.6499   19.2175  -33.6659 H   0  0  0  0  0  0  0  0  0  0  0  0
   -5.4809   20.5803  -31.9914 H   0  0  0  0  0  0  0  0  0  0  0  0
   -5.8281   18.8053  -32.0921 H   0  0  0  0  0  0  0  0  0  0  0  0
   -5.3330   18.9317  -34.5696 H   0  0  0  0  0  0  0  0  0  0  0  0
   -4.7802   20.6251  -34.3133 H   0  0  0  0  0  0  0  0  0  0  0  0
   -2.1760   21.8700  -34.1900 H   0  0  0  0  0  0  0  0  0  0  0  0
   -3.2310   22.0620  -32.7790 H   0  0  0  0  0  0  0  0  0  0  0  0
    0.7686   22.0953  -32.7393 H   0  0  0  0  0  0  0  0  0  0  0  0
    1.5533   20.4748  -32.9806 H   0  0  0  0  0  0  0  0  0  0  0  0
    0.8541   20.5184  -35.1063 H   0  0  0  0  0  0  0  0  0  0  0  0
   -0.8371   20.4109  -34.4908 H   0  0  0  0  0  0  0  0  0  0  0  0
   -1.0970   22.2770  -35.2710 H   0  0  0  0  0  0  0  0  0  0  0  0
    0.0558   23.5885  -29.5998 H   0  0  0  0  0  0  0  0  0  0  0  0
   -4.3259   25.3746  -28.9029 H   0  0  0  0  0  0  0  0  0  0  0  0
   -6.6869   26.1407  -29.1529 H   0  0  0  0  0  0  0  0  0  0  0  0
   -8.2601   24.8874  -30.6303 H   0  0  0  0  0  0  0  0  0  0  0  0
   -7.4705   22.8690  -31.8681 H   0  0  0  0  0  0  0  0  0  0  0  0
   -5.1104   22.0995  -31.6316 H   0  0  0  0  0  0  0  0  0  0  0  0
   -3.3365   21.1799  -30.7854 H   0  0  0  0  0  0  0  0  0  0  0  0
   -2.0940   16.2850  -32.6190 H   0  0  0  0  0  0  0  0  0  0  0  0
  1  2  1  0
  2  3  1  0
  3  4  1  0
  4  5  1  0
  5  6  1  0
  5  7  2  0
  7  8  1  0
  8  9  1  0
  9 10  1  0
 10 11  1  0
  8 12  1  0
 12 13  2  0
 12 14  1  0
 14 15  1  0
 15 16  2  0
 16 17  1  0
 16 18  1  0
 18 19  1  0
 19 20  2  0
 20 21  1  0
 21 22  2  0
 22 23  1  0
 23 24  2  0
 18 25  1  0
  7 26  1  0
 26 27  2  0
 26 28  1  0
 28 29  1  0
 29 30  2  0
 29  4  1  0
 25 14  2  0
 24 19  1  0
  1 31  1  0
  1 32  1  0
  1 33  1  0
  2 34  1  0
  2 35  1  0
  3 36  1  0
  3 37  1  0
  6 38  1  0
  6 39  1  0
  9 40  1  0
  9 41  1  0
 10 42  1  0
 10 43  1  0
 11 44  1  0
 15 45  1  0
 20 46  1  0
 21 47  1  0
 22 48  1  0
 23 49  1  0
 24 50  1  0
 25 51  1  0
 28 52  1  0
M  CHG  1  17  -1
M  END
>  <UniqueID>  (13) 
13

>  <SMILES>  (13) 
CCCn1c(N)c(N(CCO)C(=O)c2cc([O-])n(-c3ccccc3)c2)c(=O)[nH]c1=O

>  <Energy>  (13) 
93.29943713266529

>  <Genealogy>  (13) 
CCCn1c(N)c(N(CCO)C(=O)c2cc([O-])n(-c3ccccc3)c2)c(=O)[nH]c1=O (protonated)
CCCn1c(N)c(N(CCO)C(=O)c2cc([O-])n(-c3ccccc3)c2)c(=O)[nH]c1=O (3D coordinates assigned)
CCCn1c(N)c(N(CCO)C(=O)c2cc([O-])n(-c3ccccc3)c2)c(=O)[nH]c1=O (optimized conformer: 93.29943713266529 kcal/mol)

>  <smiles>  (13) 
CCCn1c(N)c(N(CCO)C(=O)c2cc(O)n(-c3ccccc3)c2)c(=O)[nH]c1=O

>  <score_type>  (13) 
oracle

>  <origin>  (13) 
adgpu

>  <m_score__min__energy>  (13) 
-9.7100000000000009

>  <m_primary>  (13) 
energy

$$$$
13:0
     RDKit          3D

 58 61  0  0  0  0  0  0  0  0999 V2000
   -0.3556   27.0326  -28.8904 H   0  0  0  0  0  0  0  0  0  0  0  0
   -0.8850   26.4210  -28.1450 C   0  0  0  0  0  0  0  0  0  0  0  0
   -1.7850   25.5050  -28.4200 O   0  0  0  0  0  0  0  0  0  0  0  0
   -2.2000   24.9750  -27.2930 C   0  0  0  0  0  0  0  0  0  0  0  0
   -3.2380   23.9010  -27.2050 C   0  0  0  0  0  0  0  0  0  0  0  0
   -4.2114   24.3555  -26.9686 H   0  0  0  0  0  0  0  0  0  0  0  0
   -2.9524   23.1907  -26.4151 H   0  0  0  0  0  0  0  0  0  0  0  0
   -3.3360   23.1820  -28.4820 N   0  0  0  0  0  0  0  0  0  0  0  0
   -4.0500   23.7610  -29.5960 C   0  0  0  0  0  0  0  0  0  0  0  0
   -5.0850   23.1560  -30.2170 N   0  0  0  0  0  0  0  0  0  0  0  0
   -5.4290   24.0870  -31.1350 C   0  0  0  0  0  0  0  0  0  0  0  0
   -6.4340   23.9730  -31.9540 N   0  0  0  0  0  0  0  0  0  0  0  0
   -7.2850   22.8240  -32.1010 C   0  0  0  0  0  0  0  0  0  0  0  0
   -8.6470   22.8680  -31.7700 C   0  0  0  0  0  0  0  0  0  0  0  0
   -9.0924   23.8044  -31.4029 H   0  0  0  0  0  0  0  0  0  0  0  0
   -9.4380   21.7280  -31.9050 C   0  0  0  0  0  0  0  0  0  0  0  0
  -10.5093   21.7719  -31.6593 H   0  0  0  0  0  0  0  0  0  0  0  0
   -8.8750   20.5310  -32.3510 C   0  0  0  0  0  0  0  0  0  0  0  0
   -9.5120   19.6414  -32.4648 H   0  0  0  0  0  0  0  0  0  0  0  0
   -7.5000   20.4460  -32.6580 C   0  0  0  0  0  0  0  0  0  0  0  0
   -6.9080   19.1940  -33.1070 N   0  0  0  0  0  0  0  0  0  0  0  0
   -7.2590   17.9110  -32.4740 C   0  0  0  0  0  0  0  0  0  0  0  0
   -7.0906   17.0965  -33.1938 H   0  0  0  0  0  0  0  0  0  0  0  0
   -8.3164   17.9458  -32.1729 H   0  0  0  0  0  0  0  0  0  0  0  0
   -6.4060   17.6640  -31.2310 C   0  0  0  0  0  0  0  0  0  0  0  0
   -7.0118   17.8394  -30.3298 H   0  0  0  0  0  0  0  0  0  0  0  0
   -6.0458   16.6247  -31.2341 H   0  0  0  0  0  0  0  0  0  0  0  0
   -5.5462   18.3501  -31.2341 H   0  0  0  0  0  0  0  0  0  0  0  0
   -5.9370   19.1620  -34.2150 C   0  0  0  0  0  0  0  0  0  0  0  0
   -6.3487   19.7174  -35.0706 H   0  0  0  0  0  0  0  0  0  0  0  0
   -4.9986   19.6228  -33.8728 H   0  0  0  0  0  0  0  0  0  0  0  0
   -5.6460   17.7250  -34.6450 C   0  0  0  0  0  0  0  0  0  0  0  0
   -5.5182   17.0941  -33.7530 H   0  0  0  0  0  0  0  0  0  0  0  0
   -6.4854   17.3449  -35.2458 H   0  0  0  0  0  0  0  0  0  0  0  0
   -4.7249   17.7014  -35.2458 H   0  0  0  0  0  0  0  0  0  0  0  0
   -6.7160   21.6130  -32.5140 C   0  0  0  0  0  0  0  0  0  0  0  0
   -5.6384   21.5692  -32.7304 H   0  0  0  0  0  0  0  0  0  0  0  0
   -4.6700   25.1960  -31.0780 N   0  0  0  0  0  0  0  0  0  0  0  0
   -3.8000   24.9800  -30.1100 N   0  0  0  0  0  0  0  0  0  0  0  0
   -3.0680   25.6640  -29.8170 H   0  0  0  0  0  0  0  0  0  0  0  0
   -2.6640   21.8840  -28.6280 C   0  0  0  0  0  0  0  0  0  0  0  0
   -1.6533   21.9481  -28.1985 H   0  0  0  0  0  0  0  0  0  0  0  0
   -3.2491   21.1163  -28.1004 H   0  0  0  0  0  0  0  0  0  0  0  0
   -2.5630   21.5100  -30.0820 C   0  0  0  0  0  0  0  0  0  0  0  0
   -3.5550   20.7160  -30.6800 C   0  0  0  0  0  0  0  0  0  0  0  0
   -4.4244   20.3893  -30.0905 H   0  0  0  0  0  0  0  0  0  0  0  0
   -3.4420   20.3390  -32.0220 C   0  0  0  0  0  0  0  0  0  0  0  0
   -4.2248   19.7221  -32.4874 H   0  0  0  0  0  0  0  0  0  0  0  0
   -2.3340   20.7460  -32.7730 C   0  0  0  0  0  0  0  0  0  0  0  0
   -2.2455   20.4488  -33.8284 H   0  0  0  0  0  0  0  0  0  0  0  0
   -1.3400   21.5300  -32.1820 C   0  0  0  0  0  0  0  0  0  0  0  0
   -0.4683   21.8487  -32.7723 H   0  0  0  0  0  0  0  0  0  0  0  0
   -1.4520   21.9100  -30.8410 C   0  0  0  0  0  0  0  0  0  0  0  0
   -0.6659   22.5252  -30.3788 H   0  0  0  0  0  0  0  0  0  0  0  0
   -1.5560   25.5680  -26.2260 C   0  0  0  0  0  0  0  0  0  0  0  0
   -1.6937   25.3439  -25.1579 H   0  0  0  0  0  0  0  0  0  0  0  0
   -0.7040   26.5000  -26.7790 C   0  0  0  0  0  0  0  0  0  0  0  0
   -0.0185   27.1709  -26.2405 H   0  0  0  0  0  0  0  0  0  0  0  0
  1  2  1  0
  2  3  1  0
  3  4  1  0
  4  5  1  0
  5  6  1  0
  5  7  1  0
  5  8  1  0
  8  9  1  0
  9 10  2  0
 10 11  1  0
 11 12  2  0
 12 13  1  0
 13 14  2  0
 14 15  1  0
 14 16  1  0
 16 17  1  0
 16 18  2  0
 18 19  1  0
 18 20  1  0
 20 21  1  0
 21 22  1  0
 22 23  1  0
 22 24  1  0
 22 25  1  0
 25 26  1  0
 25 27  1  0
 25 28  1  0
 21 29  1  0
 29 30  1  0
 29 31  1  0
 29 32  1  0
 32 33  1  0
 32 34  1  0
 32 35  1  0
 20 36  2  0
 36 37  1  0
 11 38  1  0
 38 39  1  0
 39 40  1  0
  8 41  1  0
 41 42  1  0
 41 43  1  0
 41 44  1  0
 44 45  2  0
 45 46  1  0
 45 47  1  0
 47 48  1  0
 47 49  2  0
 49 50  1  0
 49 51  1  0
 51 52  1  0
 51 53  2  0
 53 54  1  0
  4 55  2  0
 55 56  1  0
 55 57  1  0
 57 58  1  0
 57  2  2  0
 39  9  1  0
 53 44  1  0
 36 13  1  0
M  CHG  1  38  -1
M  END
>  <UniqueID>  (14) 
14

>  <SMILES>  (14) 
CCN(CC)c1cccc(/N=c2\nc(N(Cc3ccccc3)Cc3ccco3)[nH][n-]2)c1

>  <Energy>  (14) 
121.43154298262776

>  <Genealogy>  (14) 
CCN(CC)c1cccc(N=c2nc(N(Cc3ccccc3)Cc3ccco3)[nH][n-]2)c1 (protonated)
CCN(CC)c1cccc(/N=c2\nc(N(Cc3ccccc3)Cc3ccco3)[nH][n-]2)c1 (cis-trans isomerization)
CCN(CC)c1cccc(/N=c2\nc(N(Cc3ccccc3)Cc3ccco3)[nH][n-]2)c1 (3D coordinates assigned)
CCN(CC)c1cccc(/N=c2\nc(N(Cc3ccccc3)Cc3ccco3)[nH][n-]2)c1 (optimized conformer: 121.43154298262776 kcal/mol)

>  <smiles>  (14) 
CCN(CC)c1cccc(N=c2nc(N(Cc3ccccc3)Cc3ccco3)[nH][nH]2)c1

>  <score_type>  (14) 
oracle

>  <origin>  (14) 
adgpu

>  <m_score__min__energy>  (14) 
-11.34

>  <m_primary>  (14) 
energy

$$$$
14:0
     RDKit          3D

 44 47  0  0  0  0  0  0  0  0999 V2000
   -0.9380   24.7740  -25.1680 C   0  0  0  0  0  0  0  0  0  0  0  0
   -0.8030   26.2250  -25.5580 C   0  0  0  0  0  0  0  0  0  0  0  0
   -0.8720   27.1980  -24.5440 C   0  0  0  0  0  0  0  0  0  0  0  0
   -0.7190   28.5510  -24.8450 C   0  0  0  0  0  0  0  0  0  0  0  0
   -0.4990   28.9550  -26.1590 C   0  0  0  0  0  0  0  0  0  0  0  0
   -0.4420   28.0070  -27.1810 C   0  0  0  0  0  0  0  0  0  0  0  0
   -0.6030   26.6350  -26.9060 C   0  0  0  0  0  0  0  0  0  0  0  0
   -0.5590   25.6800  -28.0450 C   0  0  0  0  0  0  0  0  0  0  0  0
    0.4420   24.9330  -28.2160 O   0  0  0  0  0  0  0  0  0  0  0  0
   -1.6570   25.6270  -28.9670 N   0  0  0  0  0  0  0  0  0  0  0  0
   -2.4420   24.4730  -29.2990 C   0  0  0  0  0  0  0  0  0  0  0  0
   -2.1410   23.1920  -28.8090 C   0  0  0  0  0  0  0  0  0  0  0  0
   -2.9270   22.1350  -29.1400 N   0  0  0  0  0  0  0  0  0  0  0  0
   -4.0270   22.2730  -29.9260 C   0  0  0  0  0  0  0  0  0  0  0  0
   -4.3970   23.5390  -30.4070 C   0  0  0  0  0  0  0  0  0  0  0  0
   -5.5880   23.7170  -31.2710 C   0  0  0  0  0  0  0  0  0  0  0  0
   -5.9360   24.8840  -31.5970 O   0  0  0  0  0  0  0  0  0  0  0  0
   -6.3940   22.5700  -31.7410 C   0  0  0  0  0  0  0  0  0  0  0  0
   -7.7680   22.3820  -31.5730 C   0  0  0  0  0  0  0  0  0  0  0  0
   -8.1640   21.2380  -32.1840 N   0  0  0  0  0  0  0  0  0  0  0  0
   -9.5050   20.6650  -32.1740 C   0  0  0  0  0  0  0  0  0  0  0  0
   -7.0550   20.7020  -32.7220 C   0  0  0  0  0  0  0  0  0  0  0  0
   -6.9750   19.5370  -33.4100 N   0  0  0  0  0  0  0  0  0  0  0  0
   -5.7540   19.1450  -33.8810 C   0  0  0  0  0  0  0  0  0  0  0  0
   -4.6420   19.9150  -33.6550 N   0  0  0  0  0  0  0  0  0  0  0  0
   -4.7180   21.0870  -32.9600 C   0  0  0  0  0  0  0  0  0  0  0  0
   -5.9630   21.4840  -32.4870 C   0  0  0  0  0  0  0  0  0  0  0  0
   -3.5850   24.6390  -30.0890 C   0  0  0  0  0  0  0  0  0  0  0  0
   -0.9460   24.6883  -24.0714 H   0  0  0  0  0  0  0  0  0  0  0  0
   -1.8775   24.3710  -25.5741 H   0  0  0  0  0  0  0  0  0  0  0  0
   -0.0889   24.2046  -25.5741 H   0  0  0  0  0  0  0  0  0  0  0  0
   -1.0484   26.8883  -23.5033 H   0  0  0  0  0  0  0  0  0  0  0  0
   -0.7723   29.3010  -24.0421 H   0  0  0  0  0  0  0  0  0  0  0  0
   -0.3700   30.0224  -26.3916 H   0  0  0  0  0  0  0  0  0  0  0  0
   -0.2688   28.3357  -28.2164 H   0  0  0  0  0  0  0  0  0  0  0  0
   -1.2678   23.0444  -28.1565 H   0  0  0  0  0  0  0  0  0  0  0  0
   -4.6293   21.3901  -30.1861 H   0  0  0  0  0  0  0  0  0  0  0  0
   -8.4334   23.0643  -31.0237 H   0  0  0  0  0  0  0  0  0  0  0  0
   -9.8356   20.5237  -31.1344 H   0  0  0  0  0  0  0  0  0  0  0  0
  -10.1983   21.3454  -32.6900 H   0  0  0  0  0  0  0  0  0  0  0  0
   -9.4925   19.6936  -32.6900 H   0  0  0  0  0  0  0  0  0  0  0  0
   -5.6622   18.2053  -34.4454 H   0  0  0  0  0  0  0  0  0  0  0  0
   -3.8216   21.6985  -32.7798 H   0  0  0  0  0  0  0  0  0  0  0  0
   -3.8492   25.6389  -30.4636 H   0  0  0  0  0  0  0  0  0  0  0  0
  1  2  1  0
  2  3  2  0
  3  4  1  0
  4  5  2  0
  5  6  1  0
  6  7  2  0
  7  8  1  0
  8  9  2  0
  8 10  1  0
 10 11  1  0
 11 12  2  0
 12 13  1  0
 13 14  2  0
 14 15  1  0
 15 16  1  0
 16 17  2  0
 16 18  1  0
 18 19  2  0
 19 20  1  0
 20 21  1  0
 20 22  1  0
 22 23  2  0
 23 24  1  0
 24 25  2  0
 25 26  1  0
 26 27  2  0
 15 28  2  0
  7  2  1  0
 28 11  1  0
 27 18  1  0
 27 22  1  0
  1 29  1  0
  1 30  1  0
  1 31  1  0
  3 32  1  0
  4 33  1  0
  5 34  1  0
  6 35  1  0
 12 36  1  0
 14 37  1  0
 19 38  1  0
 21 39  1  0
 21 40  1  0
 21 41  1  0
 24 42  1  0
 26 43  1  0
 28 44  1  0
M  CHG  1  10  -1
M  END
>  <UniqueID>  (15) 
15

>  <SMILES>  (15) 
Cc1ccccc1C(=O)[N-]c1cncc(C(=O)c2cn(C)c3ncncc23)c1

>  <Energy>  (15) 
99.15212615123959

>  <Genealogy>  (15) 
Cc1ccccc1C(=O)[N-]c1cncc(C(=O)c2cn(C)c3ncncc23)c1 (protonated)
Cc1ccccc1C(=O)[N-]c1cncc(C(=O)c2cn(C)c3ncncc23)c1 (3D coordinates assigned)
Cc1ccccc1C(=O)[N-]c1cncc(C(=O)c2cn(C)c3ncncc23)c1 (optimized conformer: 99.15212615123959 kcal/mol)

>  <smiles>  (15) 
Cc1ccccc1C(=O)Nc1cncc(C(=O)c2cn(C)c3ncncc23)c1

>  <score_type>  (15) 
oracle

>  <origin>  (15) 
adgpu

>  <m_score__min__energy>  (15) 
-11.039999999999999

>  <m_primary>  (15) 
energy

$$$$
15:0
     RDKit          3D

 34 36  0  0  0  0  0  0  0  0999 V2000
   -2.3160   24.6890  -29.3150 O   0  0  0  0  0  0  0  0  0  0  0  0
   -3.4540   24.5420  -29.8360 C   0  0  0  0  0  0  0  0  0  0  0  0
   -3.9090   25.3010  -30.8480 N   0  0  0  0  0  0  0  0  0  0  0  0
   -5.1350   24.8720  -31.1150 N   0  0  0  0  0  0  0  0  0  0  0  0
   -5.3960   23.8600  -30.2620 C   0  0  0  0  0  0  0  0  0  0  0  0
   -6.9550   22.9740  -30.2350 S   0  0  0  0  0  0  0  0  0  0  0  0
   -6.3990   21.7670  -31.4380 C   0  0  0  0  0  0  0  0  0  0  0  0
   -7.1830   20.6410  -31.7130 C   0  0  0  0  0  0  0  0  0  0  0  0
   -6.7540   19.6970  -32.6500 C   0  0  0  0  0  0  0  0  0  0  0  0
   -5.5310   19.8640  -33.3230 C   0  0  0  0  0  0  0  0  0  0  0  0
   -5.0910   18.8920  -34.2890 N   0  0  0  0  0  0  0  0  0  0  0  0
   -3.9220   18.4550  -34.2670 O   0  0  0  0  0  0  0  0  0  0  0  0
   -5.9550   18.4280  -35.2550 O   0  0  0  0  0  0  0  0  0  0  0  0
   -4.7430   20.9950  -33.0320 C   0  0  0  0  0  0  0  0  0  0  0  0
   -5.1750   21.9370  -32.0940 C   0  0  0  0  0  0  0  0  0  0  0  0
   -4.3510   23.6200  -29.4430 N   0  0  0  0  0  0  0  0  0  0  0  0
   -4.2590   22.6910  -28.3170 C   0  0  0  0  0  0  0  0  0  0  0  0
   -3.1500   21.7010  -28.5490 C   0  0  0  0  0  0  0  0  0  0  0  0
   -2.6890   21.4510  -29.8520 C   0  0  0  0  0  0  0  0  0  0  0  0
   -1.6380   20.5540  -30.0680 C   0  0  0  0  0  0  0  0  0  0  0  0
   -1.0360   19.9070  -28.9850 C   0  0  0  0  0  0  0  0  0  0  0  0
   -1.4850   20.1550  -27.6860 C   0  0  0  0  0  0  0  0  0  0  0  0
   -2.5360   21.0510  -27.4660 C   0  0  0  0  0  0  0  0  0  0  0  0
   -8.1401   20.4984  -31.1899 H   0  0  0  0  0  0  0  0  0  0  0  0
   -7.3781   18.8165  -32.8626 H   0  0  0  0  0  0  0  0  0  0  0  0
   -3.7812   21.1377  -33.5464 H   0  0  0  0  0  0  0  0  0  0  0  0
   -4.5506   22.8147  -31.8709 H   0  0  0  0  0  0  0  0  0  0  0  0
   -4.0547   23.2560  -27.3956 H   0  0  0  0  0  0  0  0  0  0  0  0
   -5.2107   22.1478  -28.2214 H   0  0  0  0  0  0  0  0  0  0  0  0
   -3.1565   21.9628  -30.7061 H   0  0  0  0  0  0  0  0  0  0  0  0
   -1.2848   20.3575  -31.0910 H   0  0  0  0  0  0  0  0  0  0  0  0
   -0.2086   19.2025  -29.1559 H   0  0  0  0  0  0  0  0  0  0  0  0
   -1.0112   19.6447  -26.8345 H   0  0  0  0  0  0  0  0  0  0  0  0
   -2.8831   21.2474  -26.4408 H   0  0  0  0  0  0  0  0  0  0  0  0
  1  2  2  0
  2  3  1  0
  3  4  1  0
  4  5  2  0
  5  6  1  0
  6  7  1  0
  7  8  2  0
  8  9  1  0
  9 10  2  0
 10 11  1  0
 11 12  2  0
 11 13  1  0
 10 14  1  0
 14 15  2  0
  5 16  1  0
 16 17  1  0
 17 18  1  0
 18 19  2  0
 19 20  1  0
 20 21  2  0
 21 22  1  0
 22 23  2  0
 16  2  1  0
 23 18  1  0
 15  7  1  0
  8 24  1  0
  9 25  1  0
 14 26  1  0
 15 27  1  0
 17 28  1  0
 17 29  1  0
 19 30  1  0
 20 31  1  0
 21 32  1  0
 22 33  1  0
 23 34  1  0
M  CHG  3   3  -1  11   1  13  -1
M  END
>  <UniqueID>  (16) 
16

>  <SMILES>  (16) 
O=c1[n-]nc(Sc2ccc([N+](=O)[O-])cc2)n1Cc1ccccc1

>  <Energy>  (16) 
68.36722904361103

>  <Genealogy>  (16) 
O=c1[n-]nc(Sc2ccc([N+](=O)[O-])cc2)n1Cc1ccccc1 (protonated)
O=c1[n-]nc(Sc2ccc([N+](=O)[O-])cc2)n1Cc1ccccc1 (3D coordinates assigned)
O=c1[n-]nc(Sc2ccc([N+](=O)[O-])cc2)n1Cc1ccccc1 (optimized conformer: 68.36722904361103 kcal/mol)

>  <smiles>  (16) 
O=c1[nH]nc(Sc2ccc([N+](=O)[O-])cc2)n1Cc1ccccc1

>  <score_type>  (16) 
oracle

>  <origin>  (16) 
adgpu

>  <m_score__min__energy>  (16) 
-9.0899999999999999

>  <m_primary>  (16) 
energy

$$$$
16:0
     RDKit          3D

 65 69  0  0  0  0  0  0  0  0999 V2000
   -1.5980   25.6040  -28.8360 O   0  0  0  0  0  0  0  0  0  0  0  0
   -2.4000   24.7830  -29.3560 C   0  0  0  0  0  0  0  0  0  0  0  0
   -3.5180   25.2950  -30.0980 N   0  0  0  0  0  0  0  0  0  0  0  0
   -4.7180   24.5840  -30.4380 C   0  0  0  0  0  0  0  0  0  0  0  0
   -5.9560   25.1790  -30.1690 C   0  0  0  0  0  0  0  0  0  0  0  0
   -7.1420   24.5100  -30.4750 C   0  0  0  0  0  0  0  0  0  0  0  0
   -7.1020   23.2400  -31.0570 C   0  0  0  0  0  0  0  0  0  0  0  0
   -5.8690   22.6340  -31.3570 C   0  0  0  0  0  0  0  0  0  0  0  0
   -5.8180   21.2810  -31.9660 C   0  0  0  0  0  0  0  0  0  0  0  0
   -7.0050   20.5850  -32.2510 C   0  0  0  0  0  0  0  0  0  0  0  0
   -6.9610   19.3060  -32.8070 C   0  0  0  0  0  0  0  0  0  0  0  0
   -5.7270   18.6990  -33.0950 C   0  0  0  0  0  0  0  0  0  0  0  0
   -4.5340   19.3980  -32.8360 C   0  0  0  0  0  0  0  0  0  0  0  0
   -4.5840   20.6770  -32.2610 C   0  0  0  0  0  0  0  0  0  0  0  0
   -3.2040   18.7490  -33.1080 C   0  0  0  0  0  0  0  0  0  0  0  0
   -3.3300   17.7080  -34.2280 C   0  0  0  0  0  0  0  0  0  0  0  0
   -4.3680   16.7030  -33.9040 N   0  0  2  0  0  0  0  0  0  0  0  0
   -4.4220   15.6230  -34.9230 C   0  0  0  0  0  0  0  0  0  0  0  0
   -4.1250   14.2040  -34.3550 C   0  0  0  0  0  0  0  0  0  0  0  0
   -3.5610   14.2010  -32.9850 N   0  0  0  0  0  0  0  0  0  0  0  0
   -2.6070   13.1070  -32.7390 C   0  0  0  0  0  0  0  0  0  0  0  0
   -3.1890   12.1960  -31.6620 C   0  0  0  0  0  0  0  0  0  0  0  0
   -4.5680   12.7430  -31.3520 C   0  0  0  0  0  0  0  0  0  0  0  0
   -4.5740   14.1480  -31.9230 C   0  0  0  0  0  0  0  0  0  0  0  0
   -5.6580   17.3320  -33.6710 C   0  0  0  0  0  0  0  0  0  0  0  0
   -6.7270   16.6830  -33.8550 O   0  0  0  0  0  0  0  0  0  0  0  0
   -4.6800   23.3260  -31.0650 C   0  0  0  0  0  0  0  0  0  0  0  0
   -2.1830   23.3290  -29.1510 C   0  0  0  0  0  0  0  0  0  0  0  0
   -2.6100   22.7170  -27.9610 C   0  0  0  0  0  0  0  0  0  0  0  0
   -2.4010   21.3530  -27.7540 C   0  0  0  0  0  0  0  0  0  0  0  0
   -1.7570   20.5840  -28.7260 C   0  0  0  0  0  0  0  0  0  0  0  0
   -1.3130   21.1750  -29.9200 C   0  0  0  0  0  0  0  0  0  0  0  0
   -0.6510   20.3400  -30.9850 C   0  0  0  0  0  0  0  0  0  0  0  0
   -0.9590   20.8230  -32.2460 F   0  0  0  0  0  0  0  0  0  0  0  0
   -1.0780   19.0250  -30.9100 F   0  0  0  0  0  0  0  0  0  0  0  0
    0.7200   20.3800  -30.8100 F   0  0  0  0  0  0  0  0  0  0  0  0
   -1.5680   22.5410  -30.1420 C   0  0  0  0  0  0  0  0  0  0  0  0
   -5.9944   26.1797  -29.7138 H   0  0  0  0  0  0  0  0  0  0  0  0
   -8.1108   24.9835  -30.2575 H   0  0  0  0  0  0  0  0  0  0  0  0
   -8.0402   22.7115  -31.2817 H   0  0  0  0  0  0  0  0  0  0  0  0
   -7.9769   21.0523  -32.0340 H   0  0  0  0  0  0  0  0  0  0  0  0
   -7.8974   18.7700  -33.0210 H   0  0  0  0  0  0  0  0  0  0  0  0
   -3.6487   21.2117  -32.0391 H   0  0  0  0  0  0  0  0  0  0  0  0
   -2.4806   19.5203  -33.4111 H   0  0  0  0  0  0  0  0  0  0  0  0
   -2.8615   18.2449  -32.1922 H   0  0  0  0  0  0  0  0  0  0  0  0
   -3.6025   18.2177  -35.1639 H   0  0  0  0  0  0  0  0  0  0  0  0
   -2.3646   17.1921  -34.3372 H   0  0  0  0  0  0  0  0  0  0  0  0
   -4.0950   16.2480  -33.0000 H   0  0  0  0  0  0  0  0  0  0  0  0
   -5.4288   15.6149  -35.3661 H   0  0  0  0  0  0  0  0  0  0  0  0
   -3.6371   15.8418  -35.6619 H   0  0  0  0  0  0  0  0  0  0  0  0
   -5.0661   13.6346  -34.3413 H   0  0  0  0  0  0  0  0  0  0  0  0
   -3.3634   13.7558  -35.0100 H   0  0  0  0  0  0  0  0  0  0  0  0
   -2.4505   12.5348  -33.6653 H   0  0  0  0  0  0  0  0  0  0  0  0
   -1.6403   13.5147  -32.4084 H   0  0  0  0  0  0  0  0  0  0  0  0
   -3.2622   11.1633  -32.0337 H   0  0  0  0  0  0  0  0  0  0  0  0
   -2.5528   12.1756  -30.7649 H   0  0  0  0  0  0  0  0  0  0  0  0
   -5.3440   12.1281  -31.8314 H   0  0  0  0  0  0  0  0  0  0  0  0
   -4.7808   12.7361  -30.2728 H   0  0  0  0  0  0  0  0  0  0  0  0
   -5.5657   14.3794  -32.3389 H   0  0  0  0  0  0  0  0  0  0  0  0
   -4.3488   14.8847  -31.1378 H   0  0  0  0  0  0  0  0  0  0  0  0
   -3.7106   22.8786  -31.3298 H   0  0  0  0  0  0  0  0  0  0  0  0
   -3.1122   23.3166  -27.1876 H   0  0  0  0  0  0  0  0  0  0  0  0
   -2.7448   20.8814  -26.8216 H   0  0  0  0  0  0  0  0  0  0  0  0
   -1.5967   19.5092  -28.5552 H   0  0  0  0  0  0  0  0  0  0  0  0
   -1.2834   22.9983  -31.1011 H   0  0  0  0  0  0  0  0  0  0  0  0
  1  2  2  0
  2  3  1  0
  3  4  1  0
  4  5  2  0
  5  6  1  0
  6  7  2  0
  7  8  1  0
  8  9  1  0
  9 10  2  0
 10 11  1  0
 11 12  2  0
 12 13  1  0
 13 14  2  0
 13 15  1  0
 15 16  1  0
 16 17  1  0
 17 18  1  0
 18 19  1  0
 19 20  1  0
 20 21  1  0
 21 22  1  0
 22 23  1  0
 23 24  1  0
 17 25  1  0
 25 26  2  0
  8 27  2  0
  2 28  1  0
 28 29  2  0
 29 30  1  0
 30 31  2  0
 31 32  1  0
 32 33  1  0
 33 34  1  0
 33 35  1  0
 33 36  1  0
 32 37  2  0
 27  4  1  0
 37 28  1  0
 14  9  1  0
 24 20  1  0
 25 12  1  0
  5 38  1  0
  6 39  1  0
  7 40  1  0
 10 41  1  0
 11 42  1  0
 14 43  1  0
 15 44  1  0
 15 45  1  0
 16 46  1  0
 16 47  1  0
 17 48  1  1
 18 49  1  0
 18 50  1  0
 19 51  1  0
 19 52  1  0
 21 53  1  0
 21 54  1  0
 22 55  1  0
 22 56  1  0
 23 57  1  0
 23 58  1  0
 24 59  1  0
 24 60  1  0
 27 61  1  0
 29 62  1  0
 30 63  1  0
 31 64  1  0
 37 65  1  0
M  CHG  2   3  -1  17   1
M  END
>  <UniqueID>  (17) 
17

>  <SMILES>  (17) 
O=C([N-]c1cccc(-c2ccc3c(c2)CC[N@H+](CCN2CCCC2)C3=O)c1)c1cccc(C(F)(F)F)c1

>  <Energy>  (17) 
93.657404820309

>  <Genealogy>  (17) 
O=C([N-]c1cccc(-c2ccc3c(c2)CC[NH+](CCN2CCCC2)C3=O)c1)c1cccc(C(F)(F)F)c1 (protonated)
O=C([N-]c1cccc(-c2ccc3c(c2)CC[N@H+](CCN2CCCC2)C3=O)c1)c1cccc(C(F)(F)F)c1 (chirality)
O=C([N-]c1cccc(-c2ccc3c(c2)CC[N@H+](CCN2CCCC2)C3=O)c1)c1cccc(C(F)(F)F)c1 (3D coordinates assigned)
O=C([N-]c1cccc(-c2ccc3c(c2)CC[N@H+](CCN2CCCC2)C3=O)c1)c1cccc(C(F)(F)F)c1 (nonaromatic ring conformer: 93.657404820309 kcal/mol)

>  <smiles>  (17) 
O=C(Nc1cccc(-c2ccc3c(c2)CCN(CCN2CCCC2)C3=O)c1)c1cccc(C(F)(F)F)c1

>  <score_type>  (17) 
oracle

>  <origin>  (17) 
adgpu

>  <m_score__min__energy>  (17) 
-11.109999999999999

>  <m_primary>  (17) 
energy

$$$$
17:0
     RDKit          3D

 25 27  0  0  0  0  0  0  0  0999 V2000
   -1.4160   26.2480  -28.8860 O   0  0  0  0  0  0  0  0  0  0  0  0
   -0.8990   25.0060  -28.5090 C   0  0  0  0  0  0  0  0  0  0  0  0
    0.2350   24.9940  -27.6880 C   0  0  0  0  0  0  0  0  0  0  0  0
    0.8460   23.7900  -27.3380 C   0  0  0  0  0  0  0  0  0  0  0  0
    0.3280   22.5820  -27.8050 C   0  0  0  0  0  0  0  0  0  0  0  0
   -0.8170   22.5760  -28.6070 C   0  0  0  0  0  0  0  0  0  0  0  0
   -1.4580   23.7790  -28.9520 C   0  0  0  0  0  0  0  0  0  0  0  0
   -2.7110   23.7110  -29.7360 C   0  0  0  0  0  0  0  0  0  0  0  0
   -3.2090   22.5390  -30.2170 N   0  0  0  0  0  0  0  0  0  0  0  0
   -4.3560   22.9210  -30.7930 C   0  0  0  0  0  0  0  0  0  0  0  0
   -5.2870   22.1230  -31.4550 C   0  0  0  0  0  0  0  0  0  0  0  0
   -6.4330   22.7520  -31.9760 C   0  0  0  0  0  0  0  0  0  0  0  0
   -6.6170   24.1460  -31.8220 C   0  0  0  0  0  0  0  0  0  0  0  0
   -5.6550   24.9190  -31.1450 C   0  0  0  0  0  0  0  0  0  0  0  0
   -4.5330   24.2620  -30.6440 C   0  0  0  0  0  0  0  0  0  0  0  0
   -3.5050   24.7900  -29.9660 N   0  0  0  0  0  0  0  0  0  0  0  0
   -2.4050   26.4380  -28.9670 H   0  0  0  0  0  0  0  0  0  0  0  0
    0.6480   25.9430  -27.3155 H   0  0  0  0  0  0  0  0  0  0  0  0
    1.7371   23.7931  -26.6931 H   0  0  0  0  0  0  0  0  0  0  0  0
    0.8204   21.6341  -27.5422 H   0  0  0  0  0  0  0  0  0  0  0  0
   -1.2208   21.6201  -28.9720 H   0  0  0  0  0  0  0  0  0  0  0  0
   -5.1316   21.0397  -31.5664 H   0  0  0  0  0  0  0  0  0  0  0  0
   -7.1903   22.1560  -32.5063 H   0  0  0  0  0  0  0  0  0  0  0  0
   -7.5161   24.6282  -32.2332 H   0  0  0  0  0  0  0  0  0  0  0  0
   -5.7844   26.0037  -31.0160 H   0  0  0  0  0  0  0  0  0  0  0  0
  1  2  1  0
  2  3  2  0
  3  4  1  0
  4  5  2  0
  5  6  1  0
  6  7  2  0
  7  8  1  0
  8  9  2  0
  9 10  1  0
 10 11  2  0
 11 12  1  0
 12 13  2  0
 13 14  1  0
 14 15  2  0
 15 16  1  0
  7  2  1  0
 16  8  1  0
 15 10  1  0
  1 17  1  0
  3 18  1  0
  4 19  1  0
  5 20  1  0
  6 21  1  0
 11 22  1  0
 12 23  1  0
 13 24  1  0
 14 25  1  0
M  CHG  1  16  -1
M  END
>  <UniqueID>  (18) 
18

>  <SMILES>  (18) 
Oc1ccccc1-c1nc2ccccc2[n-]1

>  <Energy>  (18) 
68.21025188697024

>  <Genealogy>  (18) 
Oc1ccccc1-c1nc2ccccc2[n-]1 (protonated)
Oc1ccccc1-c1nc2ccccc2[n-]1 (3D coordinates assigned)
Oc1ccccc1-c1nc2ccccc2[n-]1 (optimized conformer: 68.21025188697024 kcal/mol)

>  <smiles>  (18) 
Oc1ccccc1-c1nc2ccccc2[nH]1

>  <score_type>  (18) 
oracle

>  <origin>  (18) 
adgpu

>  <m_score__min__energy>  (18) 
-7.5099999999999998

>  <m_primary>  (18) 
energy

$$$$
18:0
     RDKit          3D

 33 34  0  0  0  0  0  0  0  0999 V2000
   -4.7600   20.2540  -33.3160 C   0  0  0  0  0  0  0  0  0  0  0  0
   -5.5140   21.2840  -32.5270 C   0  0  0  0  0  0  0  0  0  0  0  0
   -6.9170   21.3000  -32.5500 C   0  0  0  0  0  0  0  0  0  0  0  0
   -7.6280   22.2480  -31.7970 C   0  0  0  0  0  0  0  0  0  0  0  0
   -9.1280   22.2480  -31.8080 C   0  0  0  0  0  0  0  0  0  0  0  0
   -6.9280   23.1500  -30.9830 C   0  0  0  0  0  0  0  0  0  0  0  0
   -5.5280   23.1220  -30.9350 C   0  0  0  0  0  0  0  0  0  0  0  0
   -4.6530   24.2790  -29.9300 S   0  0  0  0  0  0  0  0  0  0  0  0
   -3.9240   25.2380  -30.8290 O   0  0  0  0  0  0  0  0  0  0  0  0
   -5.6470   25.0450  -29.1040 O   0  0  0  0  0  0  0  0  0  0  0  0
   -3.4920   23.4750  -28.8590 C   0  0  0  0  0  0  0  0  0  0  0  0
   -3.7720   22.1800  -28.3870 C   0  0  0  0  0  0  0  0  0  0  0  0
   -2.8780   21.5210  -27.5430 C   0  0  0  0  0  0  0  0  0  0  0  0
   -1.6920   22.1430  -27.1580 C   0  0  0  0  0  0  0  0  0  0  0  0
   -1.3960   23.4270  -27.6150 C   0  0  0  0  0  0  0  0  0  0  0  0
   -2.2840   24.1060  -28.4660 C   0  0  0  0  0  0  0  0  0  0  0  0
   -1.9360   25.4250  -28.9110 N   0  0  0  0  0  0  0  0  0  0  0  0
   -4.8250   22.1910  -31.7090 C   0  0  0  0  0  0  0  0  0  0  0  0
   -4.2537   19.5623  -32.6266 H   0  0  0  0  0  0  0  0  0  0  0  0
   -5.4615   19.6918  -33.9499 H   0  0  0  0  0  0  0  0  0  0  0  0
   -4.0121   20.7528  -33.9499 H   0  0  0  0  0  0  0  0  0  0  0  0
   -7.4626   20.5660  -33.1612 H   0  0  0  0  0  0  0  0  0  0  0  0
   -9.4947   21.2109  -31.8107 H   0  0  0  0  0  0  0  0  0  0  0  0
   -9.5012   22.7665  -30.9126 H   0  0  0  0  0  0  0  0  0  0  0  0
   -9.4881   22.7665  -32.7088 H   0  0  0  0  0  0  0  0  0  0  0  0
   -7.4812   23.8839  -30.3786 H   0  0  0  0  0  0  0  0  0  0  0  0
   -4.7058   21.6816  -28.6865 H   0  0  0  0  0  0  0  0  0  0  0  0
   -3.1097   20.5085  -27.1807 H   0  0  0  0  0  0  0  0  0  0  0  0
   -0.9885   21.6207  -26.4929 H   0  0  0  0  0  0  0  0  0  0  0  0
   -0.4585   23.9126  -27.3063 H   0  0  0  0  0  0  0  0  0  0  0  0
   -1.9900   25.6720  -29.9240 H   0  0  0  0  0  0  0  0  0  0  0  0
   -1.6200   26.1750  -28.2600 H   0  0  0  0  0  0  0  0  0  0  0  0
   -3.7257   22.1709  -31.6753 H   0  0  0  0  0  0  0  0  0  0  0  0
  1  2  1  0
  2  3  2  0
  3  4  1  0
  4  5  1  0
  4  6  2  0
  6  7  1  0
  7  8  1  0
  8  9  2  0
  8 10  2  0
  8 11  1  0
 11 12  2  0
 12 13  1  0
 13 14  2  0
 14 15  1  0
 15 16  2  0
 16 17  1  0
  7 18  2  0
 18  2  1  0
 16 11  1  0
  1 19  1  0
  1 20  1  0
  1 21  1  0
  3 22  1  0
  5 23  1  0
  5 24  1  0
  5 25  1  0
  6 26  1  0
 12 27  1  0
 13 28  1  0
 14 29  1  0
 15 30  1  0
 17 31  1  0
 17 32  1  0
 18 33  1  0
M  END
>  <UniqueID>  (19) 
19

>  <SMILES>  (19) 
Cc1cc(C)cc(S(=O)(=O)c2ccccc2N)c1

>  <Energy>  (19) 
35.674340529539265

>  <Genealogy>  (19) 
Cc1cc(C)cc(S(=O)(=O)c2ccccc2N)c1 (3D coordinates assigned)
Cc1cc(C)cc(S(=O)(=O)c2ccccc2N)c1 (optimized conformer: 35.674340529539265 kcal/mol)

>  <smiles>  (19) 
Cc1cc(C)cc(S(=O)(=O)c2ccccc2N)c1

>  <score_type>  (19) 
oracle

>  <origin>  (19) 
adgpu

>  <m_score__min__energy>  (19) 
-8.1899999999999995

>  <m_primary>  (19) 
energy

$$$$
19:0
     RDKit          3D

 63 67  0  0  0  0  0  0  0  0999 V2000
   -6.9010   24.7870  -32.6090 H   0  0  0  0  0  0  0  0  0  0  0  0
   -6.5760   23.8010  -32.7210 N   0  0  0  0  0  0  0  0  0  0  0  0
   -5.6920   23.2290  -31.9570 C   0  0  0  0  0  0  0  0  0  0  0  0
   -5.3550   21.9410  -32.2140 N   0  0  0  0  0  0  0  0  0  0  0  0
   -4.4400   21.2570  -31.4810 C   0  0  0  0  0  0  0  0  0  0  0  0
   -4.1000   19.5490  -31.9320 S   0  0  0  0  0  0  0  0  0  0  0  0
   -2.6050   19.9770  -32.8210 C   0  0  0  0  0  0  0  0  0  0  0  0
   -2.1200   19.1270  -33.8230 C   0  0  0  0  0  0  0  0  0  0  0  0
   -2.6743   18.2140  -34.0862 H   0  0  0  0  0  0  0  0  0  0  0  0
   -0.9300   19.4400  -34.4890 C   0  0  0  0  0  0  0  0  0  0  0  0
   -0.5460   18.7695  -35.2720 H   0  0  0  0  0  0  0  0  0  0  0  0
   -0.2270   20.6060  -34.1600 C   0  0  0  0  0  0  0  0  0  0  0  0
    0.9750   20.9150  -34.8040 O   0  0  0  0  0  0  0  0  0  0  0  0
    1.2660   22.1730  -35.3530 C   0  0  0  0  0  0  0  0  0  0  0  0
    0.2580   23.0220  -35.8600 C   0  0  0  0  0  0  0  0  0  0  0  0
   -0.7977   22.7210  -35.7895 H   0  0  0  0  0  0  0  0  0  0  0  0
    0.5950   24.2430  -36.4510 C   0  0  0  0  0  0  0  0  0  0  0  0
   -0.1961   24.9060  -36.8312 H   0  0  0  0  0  0  0  0  0  0  0  0
    1.9400   24.6240  -36.5600 C   0  0  0  0  0  0  0  0  0  0  0  0
    2.3790   26.1350  -37.3520 S   0  0  0  0  0  0  0  0  0  0  0  0
    3.2850   26.9250  -36.4530 O   0  0  0  0  0  0  0  0  0  0  0  0
    3.0810   25.8410  -38.6430 O   0  0  0  0  0  0  0  0  0  0  0  0
    0.9420   27.0570  -37.6550 N   0  0  0  0  0  0  0  0  0  0  0  0
    0.1170   27.4180  -36.7240 C   0  0  0  0  0  0  0  0  0  0  0  0
    0.2790   27.1250  -35.4150 N   0  0  0  0  0  0  0  0  0  0  0  0
   -0.7470   27.6160  -34.6710 C   0  0  0  0  0  0  0  0  0  0  0  0
   -0.8016   27.4788  -33.5810 H   0  0  0  0  0  0  0  0  0  0  0  0
   -1.7230   28.3040  -35.3840 C   0  0  0  0  0  0  0  0  0  0  0  0
   -2.6224   28.7737  -34.9591 H   0  0  0  0  0  0  0  0  0  0  0  0
   -1.2890   28.2930  -37.0090 S   0  0  0  0  0  0  0  0  0  0  0  0
    2.9430   23.7990  -36.0240 C   0  0  0  0  0  0  0  0  0  0  0  0
    3.9956   24.1150  -36.0715 H   0  0  0  0  0  0  0  0  0  0  0  0
    2.6080   22.5750  -35.4290 C   0  0  0  0  0  0  0  0  0  0  0  0
    3.3987   21.9284  -35.0209 H   0  0  0  0  0  0  0  0  0  0  0  0
   -0.7200   21.4600  -33.1690 C   0  0  0  0  0  0  0  0  0  0  0  0
   -0.1812   22.3878  -32.9266 H   0  0  0  0  0  0  0  0  0  0  0  0
   -1.8950   21.1380  -32.4860 C   0  0  0  0  0  0  0  0  0  0  0  0
   -2.2632   21.7958  -31.6849 H   0  0  0  0  0  0  0  0  0  0  0  0
   -3.7920   21.8880  -30.4060 C   0  0  0  0  0  0  0  0  0  0  0  0
   -2.8090   21.1620  -29.6300 C   0  0  0  0  0  0  0  0  0  0  0  0
   -2.0180   20.5830  -29.0150 N   0  0  0  0  0  0  0  0  0  0  0  0
   -4.1220   23.2260  -30.0930 C   0  0  0  0  0  0  0  0  0  0  0  0
   -3.4830   23.9000  -28.9350 C   0  0  0  0  0  0  0  0  0  0  0  0
   -4.1820   24.0320  -27.7250 C   0  0  0  0  0  0  0  0  0  0  0  0
   -5.2072   23.6424  -27.6399 H   0  0  0  0  0  0  0  0  0  0  0  0
   -3.5810   24.6570  -26.6260 C   0  0  0  0  0  0  0  0  0  0  0  0
   -4.1353   24.7544  -25.6809 H   0  0  0  0  0  0  0  0  0  0  0  0
   -2.2690   25.1620  -26.7250 C   0  0  0  0  0  0  0  0  0  0  0  0
   -1.6150   25.7950  -25.6550 O   0  0  0  0  0  0  0  0  0  0  0  0
   -0.9310   25.1310  -24.5940 C   0  0  0  0  0  0  0  0  0  0  0  0
   -0.0853   25.7524  -24.2645 H   0  0  0  0  0  0  0  0  0  0  0  0
   -1.6343   24.9733  -23.7630 H   0  0  0  0  0  0  0  0  0  0  0  0
   -0.4080   23.7800  -25.0560 C   0  0  0  0  0  0  0  0  0  0  0  0
   -0.1681   23.1604  -24.1793 H   0  0  0  0  0  0  0  0  0  0  0  0
   -1.1763   23.2769  -25.6614 H   0  0  0  0  0  0  0  0  0  0  0  0
    0.4988   23.9254  -25.6614 H   0  0  0  0  0  0  0  0  0  0  0  0
   -1.5760   25.0240  -27.9340 C   0  0  0  0  0  0  0  0  0  0  0  0
   -0.5492   25.4090  -28.0201 H   0  0  0  0  0  0  0  0  0  0  0  0
   -2.1770   24.4010  -29.0340 C   0  0  0  0  0  0  0  0  0  0  0  0
   -1.6229   24.3041  -29.9793 H   0  0  0  0  0  0  0  0  0  0  0  0
   -5.0790   23.9090  -30.8800 C   0  0  0  0  0  0  0  0  0  0  0  0
   -5.4040   25.2940  -30.5970 C   0  0  0  0  0  0  0  0  0  0  0  0
   -5.6600   26.4000  -30.3720 N   0  0  0  0  0  0  0  0  0  0  0  0
  1  2  1  0
  2  3  2  0
  3  4  1  0
  4  5  1  0
  5  6  1  0
  6  7  1  0
  7  8  2  0
  8  9  1  0
  8 10  1  0
 10 11  1  0
 10 12  2  0
 12 13  1  0
 13 14  1  0
 14 15  2  0
 15 16  1  0
 15 17  1  0
 17 18  1  0
 17 19  2  0
 19 20  1  0
 20 21  2  0
 20 22  2  0
 20 23  1  0
 23 24  2  3
 24 25  1  0
 25 26  1  0
 26 27  1  0
 26 28  2  0
 28 29  1  0
 28 30  1  0
 19 31  1  0
 31 32  1  0
 31 33  2  0
 33 34  1  0
 12 35  1  0
 35 36  1  0
 35 37  2  0
 37 38  1  0
  5 39  2  0
 39 40  1  0
 40 41  3  0
 39 42  1  0
 42 43  1  0
 43 44  2  0
 44 45  1  0
 44 46  1  0
 46 47  1  0
 46 48  2  0
 48 49  1  0
 49 50  1  0
 50 51  1  0
 50 52  1  0
 50 53  1  0
 53 54  1  0
 53 55  1  0
 53 56  1  0
 48 57  1  0
 57 58  1  0
 57 59  2  0
 59 60  1  0
 42 61  2  0
 61 62  1  0
 62 63  3  0
 61  3  1  0
 37  7  1  0
 59 43  1  0
 33 14  1  0
 30 24  1  0
M  CHG  2   4  -1  25  -1
M  END
>  <UniqueID>  (20) 
20

>  <SMILES>  (20) 
[H]/N=c1/[n-]c(Sc2ccc(Oc3ccc(S(=O)(=O)N=c4[n-]ccs4)cc3)cc2)c(C#N)c(-c2ccc(OCC)cc2)c1C#N

>  <Energy>  (20) 
117.6818878836763

>  <Genealogy>  (20) 
CCOc1ccc(-c2c(C#N)c(Sc3ccc(Oc4ccc(S(=O)(=O)N=c5[n-]ccs5)cc4)cc3)[n-]c(=N)c2C#N)cc1 (protonated)
[H]/N=c1/[n-]c(Sc2ccc(Oc3ccc(S(=O)(=O)N=c4[n-]ccs4)cc3)cc2)c(C#N)c(-c2ccc(OCC)cc2)c1C#N (cis-trans isomerization)
[H]/N=c1/[n-]c(Sc2ccc(Oc3ccc(S(=O)(=O)N=c4[n-]ccs4)cc3)cc2)c(C#N)c(-c2ccc(OCC)cc2)c1C#N (3D coordinates assigned)
[H]/N=c1/[n-]c(Sc2ccc(Oc3ccc(S(=O)(=O)N=c4[n-]ccs4)cc3)cc2)c(C#N)c(-c2ccc(OCC)cc2)c1C#N (optimized conformer: 117.6818878836763 kcal/mol)

>  <smiles>  (20) 
CCOc1ccc(-c2c(C#N)c(Sc3ccc(Oc4ccc(S(=O)(=O)N=c5[nH]ccs5)cc4)cc3)[nH]c(=N)c2C#N)cc1

>  <score_type>  (20) 
oracle

>  <origin>  (20) 
adgpu

>  <m_score__min__energy>  (20) 
-12.029999999999999

>  <m_primary>  (20) 
energy

$$$$
20:0
     RDKit          3D

 39 41  0  0  0  0  0  0  0  0999 V2000
    0.2830   16.9870  -27.4350 C   0  0  0  0  0  0  0  0  0  0  0  0
   -0.7740   17.8570  -27.0450 O   0  0  0  0  0  0  0  0  0  0  0  0
   -0.8270   19.2250  -27.3520 C   0  0  0  0  0  0  0  0  0  0  0  0
   -1.7390   20.1030  -26.7370 C   0  0  0  0  0  0  0  0  0  0  0  0
   -1.7530   21.4570  -27.0790 C   0  0  0  0  0  0  0  0  0  0  0  0
   -0.8600   21.9570  -28.0410 C   0  0  0  0  0  0  0  0  0  0  0  0
   -0.8860   23.3900  -28.4110 C   0  0  0  0  0  0  0  0  0  0  0  0
   -1.8210   24.0590  -29.1900 C   0  0  0  0  0  0  0  0  0  0  0  0
   -2.9560   23.4780  -29.9360 C   0  0  0  0  0  0  0  0  0  0  0  0
   -3.0870   22.0830  -30.0040 C   0  0  0  0  0  0  0  0  0  0  0  0
   -4.1400   21.5050  -30.7170 C   0  0  0  0  0  0  0  0  0  0  0  0
   -5.0870   22.3060  -31.3630 C   0  0  0  0  0  0  0  0  0  0  0  0
   -6.1200   21.6760  -32.0710 O   0  0  0  0  0  0  0  0  0  0  0  0
   -6.4480   20.2940  -31.9580 C   0  0  0  0  0  0  0  0  0  0  0  0
   -4.9740   23.7060  -31.2770 C   0  0  0  0  0  0  0  0  0  0  0  0
   -3.9250   24.2910  -30.5590 C   0  0  0  0  0  0  0  0  0  0  0  0
   -3.8690   25.6750  -30.4510 O   0  0  0  0  0  0  0  0  0  0  0  0
   -1.5470   25.3790  -29.1800 N   0  0  0  0  0  0  0  0  0  0  0  0
   -0.4730   25.5830  -28.4320 N   0  0  0  0  0  0  0  0  0  0  0  0
   -0.0560   24.3980  -27.9490 C   0  0  0  0  0  0  0  0  0  0  0  0
    1.1170   24.2510  -27.0340 C   0  0  0  0  0  0  0  0  0  0  0  0
    0.0480   21.0810  -28.6530 C   0  0  0  0  0  0  0  0  0  0  0  0
    0.0620   19.7270  -28.3090 C   0  0  0  0  0  0  0  0  0  0  0  0
    0.7747   16.5823  -26.5380 H   0  0  0  0  0  0  0  0  0  0  0  0
   -0.1252   16.1597  -28.0342 H   0  0  0  0  0  0  0  0  0  0  0  0
    1.0164   17.5466  -28.0342 H   0  0  0  0  0  0  0  0  0  0  0  0
   -2.4438   19.7211  -25.9837 H   0  0  0  0  0  0  0  0  0  0  0  0
   -2.4680   22.1363  -26.5918 H   0  0  0  0  0  0  0  0  0  0  0  0
   -2.3557   21.4400  -29.4925 H   0  0  0  0  0  0  0  0  0  0  0  0
   -4.2251   20.4096  -30.7708 H   0  0  0  0  0  0  0  0  0  0  0  0
   -6.5134   20.0184  -30.8951 H   0  0  0  0  0  0  0  0  0  0  0  0
   -7.4158   20.1058  -32.4458 H   0  0  0  0  0  0  0  0  0  0  0  0
   -5.6680   19.6910  -32.4458 H   0  0  0  0  0  0  0  0  0  0  0  0
   -5.7158   24.3453  -31.7779 H   0  0  0  0  0  0  0  0  0  0  0  0
    0.7749   24.2939  -25.9894 H   0  0  0  0  0  0  0  0  0  0  0  0
    1.6080   23.2843  -27.2196 H   0  0  0  0  0  0  0  0  0  0  0  0
    1.8313   25.0667  -27.2196 H   0  0  0  0  0  0  0  0  0  0  0  0
    0.7524   21.4616  -29.4073 H   0  0  0  0  0  0  0  0  0  0  0  0
    0.7788   19.0489  -28.7952 H   0  0  0  0  0  0  0  0  0  0  0  0
  1  2  1  0
  2  3  1  0
  3  4  2  0
  4  5  1  0
  5  6  2  0
  6  7  1  0
  7  8  1  0
  8  9  1  0
  9 10  2  0
 10 11  1  0
 11 12  2  0
 12 13  1  0
 13 14  1  0
 12 15  1  0
 15 16  2  0
 16 17  1  0
  8 18  2  0
 18 19  1  0
 19 20  1  0
 20 21  1  0
  6 22  1  0
 22 23  2  0
 23  3  1  0
 20  7  2  0
 16  9  1  0
  1 24  1  0
  1 25  1  0
  1 26  1  0
  4 27  1  0
  5 28  1  0
 10 29  1  0
 11 30  1  0
 14 31  1  0
 14 32  1  0
 14 33  1  0
 15 34  1  0
 21 35  1  0
 21 36  1  0
 21 37  1  0
 22 38  1  0
 23 39  1  0
M  CHG  2  17  -1  19  -1
M  END
>  <UniqueID>  (21) 
21

>  <SMILES>  (21) 
COc1ccc(-c2c(-c3ccc(OC)cc3[O-])n[n-]c2C)cc1

>  <Energy>  (21) 
78.97615319430963

>  <Genealogy>  (21) 
COc1ccc(-c2c(-c3ccc(OC)cc3[O-])n[n-]c2C)cc1 (protonated)
COc1ccc(-c2c(-c3ccc(OC)cc3[O-])n[n-]c2C)cc1 (3D coordinates assigned)
COc1ccc(-c2c(-c3ccc(OC)cc3[O-])n[n-]c2C)cc1 (optimized conformer: 78.97615319430963 kcal/mol)

>  <smiles>  (21) 
COc1ccc(-c2c(-c3ccc(OC)cc3O)n[nH]c2C)cc1

>  <score_type>  (21) 
oracle

>  <origin>  (21) 
adgpu

>  <m_score__min__energy>  (21) 
-10.93

>  <m_primary>  (21) 
energy

$$$$
21:0
     RDKit          3D

 58 61  0  0  0  0  0  0  0  0999 V2000
   -0.0810   18.9450  -32.2050 C   0  0  0  0  0  0  0  0  0  0  0  0
    0.1660   19.9870  -33.2650 C   0  0  0  0  0  0  0  0  0  0  0  0
    1.4210   20.0190  -33.8960 C   0  0  0  0  0  0  0  0  0  0  0  0
    1.7100   20.9890  -34.8580 C   0  0  0  0  0  0  0  0  0  0  0  0
    0.7510   21.9520  -35.2030 C   0  0  0  0  0  0  0  0  0  0  0  0
    1.0160   22.9470  -36.2060 N   0  0  0  0  0  0  0  0  0  0  0  0
    2.3170   23.5080  -36.4580 C   0  0  0  0  0  0  0  0  0  0  0  0
    3.3270   23.0870  -35.8350 O   0  0  0  0  0  0  0  0  0  0  0  0
    2.4950   24.5320  -37.4440 N   0  0  0  0  0  0  0  0  0  0  0  0
    1.7430   25.7500  -37.5290 C   0  0  0  0  0  0  0  0  0  0  0  0
    1.7790   26.4840  -38.7180 C   0  0  0  0  0  0  0  0  0  0  0  0
    1.0760   27.6830  -38.8270 C   0  0  0  0  0  0  0  0  0  0  0  0
    0.3400   28.1750  -37.7440 C   0  0  0  0  0  0  0  0  0  0  0  0
   -0.5280   29.6930  -37.9550 Cl  0  0  0  0  0  0  0  0  0  0  0  0
    0.3170   27.4640  -36.5210 C   0  0  0  0  0  0  0  0  0  0  0  0
   -0.4570   27.9940  -35.3340 C   0  0  0  0  0  0  0  0  0  0  0  0
    0.0440   29.2050  -34.8890 F   0  0  0  0  0  0  0  0  0  0  0  0
   -1.7820   28.1750  -35.6870 F   0  0  0  0  0  0  0  0  0  0  0  0
   -0.3850   27.0870  -34.2910 F   0  0  0  0  0  0  0  0  0  0  0  0
    1.0340   26.2550  -36.4270 C   0  0  0  0  0  0  0  0  0  0  0  0
   -0.5180   21.8980  -34.6120 C   0  0  0  0  0  0  0  0  0  0  0  0
   -0.8290   20.9180  -33.6560 C   0  0  0  0  0  0  0  0  0  0  0  0
   -2.1890   20.9120  -33.0780 C   0  0  0  0  0  0  0  0  0  0  0  0
   -3.1040   19.9020  -33.3840 C   0  0  0  0  0  0  0  0  0  0  0  0
   -4.3840   19.9400  -32.8270 C   0  0  0  0  0  0  0  0  0  0  0  0
   -5.3360   18.8990  -33.1180 N   0  0  0  0  0  0  0  0  0  0  0  0
   -6.3040   18.4920  -32.0970 C   0  0  0  0  0  0  0  0  0  0  0  0
   -6.7250   17.0410  -32.3420 C   0  0  0  0  0  0  0  0  0  0  0  0
   -7.1710   16.8640  -33.6730 O   0  0  0  0  0  0  0  0  0  0  0  0
   -6.1000   17.0850  -34.5730 C   0  0  0  0  0  0  0  0  0  0  0  0
   -5.6260   18.5410  -34.5080 C   0  0  0  0  0  0  0  0  0  0  0  0
   -4.7170   21.0020  -31.9720 C   0  0  0  0  0  0  0  0  0  0  0  0
   -5.8540   21.0390  -31.4240 O   0  0  0  0  0  0  0  0  0  0  0  0
   -3.7980   21.9870  -31.7270 N   0  0  0  0  0  0  0  0  0  0  0  0
   -4.1270   23.1160  -30.8550 C   0  0  0  0  0  0  0  0  0  0  0  0
   -2.5790   21.9320  -32.2690 N   0  0  0  0  0  0  0  0  0  0  0  0
    0.0272   19.4013  -31.2100 H   0  0  0  0  0  0  0  0  0  0  0  0
   -1.0992   18.5436  -32.3156 H   0  0  0  0  0  0  0  0  0  0  0  0
    0.6487   18.1293  -32.3156 H   0  0  0  0  0  0  0  0  0  0  0  0
    2.1836   19.2724  -33.6295 H   0  0  0  0  0  0  0  0  0  0  0  0
    2.6950   20.9977  -35.3476 H   0  0  0  0  0  0  0  0  0  0  0  0
    0.1970   23.3310  -36.7250 H   0  0  0  0  0  0  0  0  0  0  0  0
    2.3650   26.1137  -39.5721 H   0  0  0  0  0  0  0  0  0  0  0  0
    1.1003   28.2462  -39.7716 H   0  0  0  0  0  0  0  0  0  0  0  0
    1.0386   25.6992  -35.4778 H   0  0  0  0  0  0  0  0  0  0  0  0
   -1.2822   22.6344  -34.9013 H   0  0  0  0  0  0  0  0  0  0  0  0
   -2.8182   19.0821  -34.0593 H   0  0  0  0  0  0  0  0  0  0  0  0
   -5.8443   18.5772  -31.1013 H   0  0  0  0  0  0  0  0  0  0  0  0
   -7.1883   19.1441  -32.1498 H   0  0  0  0  0  0  0  0  0  0  0  0
   -5.8647   16.3804  -32.1593 H   0  0  0  0  0  0  0  0  0  0  0  0
   -7.5504   16.7937  -31.6583 H   0  0  0  0  0  0  0  0  0  0  0  0
   -5.2637   16.4213  -34.3082 H   0  0  0  0  0  0  0  0  0  0  0  0
   -6.4485   16.8730  -35.5946 H   0  0  0  0  0  0  0  0  0  0  0  0
   -4.7155   18.6575  -35.1141 H   0  0  0  0  0  0  0  0  0  0  0  0
   -6.4143   19.2008  -34.8994 H   0  0  0  0  0  0  0  0  0  0  0  0
   -4.0366   22.8057  -29.8036 H   0  0  0  0  0  0  0  0  0  0  0  0
   -3.4335   23.9466  -31.0531 H   0  0  0  0  0  0  0  0  0  0  0  0
   -5.1581   23.4440  -31.0531 H   0  0  0  0  0  0  0  0  0  0  0  0
  1  2  1  0
  2  3  2  0
  3  4  1  0
  4  5  2  0
  5  6  1  0
  6  7  1  0
  7  8  2  0
  7  9  1  0
  9 10  1  0
 10 11  2  0
 11 12  1  0
 12 13  2  0
 13 14  1  0
 13 15  1  0
 15 16  1  0
 16 17  1  0
 16 18  1  0
 16 19  1  0
 15 20  2  0
  5 21  1  0
 21 22  2  0
 22 23  1  0
 23 24  1  0
 24 25  2  0
 25 26  1  0
 26 27  1  0
 27 28  1  0
 28 29  1  0
 29 30  1  0
 30 31  1  0
 25 32  1  0
 32 33  2  0
 32 34  1  0
 34 35  1  0
 34 36  1  0
 22  2  1  0
 36 23  2  0
 20 10  1  0
 31 26  1  0
  1 37  1  0
  1 38  1  0
  1 39  1  0
  3 40  1  0
  4 41  1  0
  6 42  1  0
 11 43  1  0
 12 44  1  0
 20 45  1  0
 21 46  1  0
 24 47  1  0
 27 48  1  0
 27 49  1  0
 28 50  1  0
 28 51  1  0
 30 52  1  0
 30 53  1  0
 31 54  1  0
 31 55  1  0
 35 56  1  0
 35 57  1  0
 35 58  1  0
M  CHG  1   9  -1
M  END
>  <UniqueID>  (22) 
22

>  <SMILES>  (22) 
Cc1ccc(NC(=O)[N-]c2ccc(Cl)c(C(F)(F)F)c2)cc1-c1cc(N2CCOCC2)c(=O)n(C)n1

>  <Energy>  (22) 
85.29448733860494

>  <Genealogy>  (22) 
Cc1ccc(NC(=O)[N-]c2ccc(Cl)c(C(F)(F)F)c2)cc1-c1cc(N2CCOCC2)c(=O)n(C)n1 (protonated)
Cc1ccc(NC(=O)[N-]c2ccc(Cl)c(C(F)(F)F)c2)cc1-c1cc(N2CCOCC2)c(=O)n(C)n1 (3D coordinates assigned)
Cc1ccc(NC(=O)[N-]c2ccc(Cl)c(C(F)(F)F)c2)cc1-c1cc(N2CCOCC2)c(=O)n(C)n1 (nonaromatic ring conformer: 85.29448733860494 kcal/mol)

>  <smiles>  (22) 
Cc1ccc(NC(=O)Nc2ccc(Cl)c(C(F)(F)F)c2)cc1-c1cc(N2CCOCC2)c(=O)n(C)n1

>  <score_type>  (22) 
oracle

>  <origin>  (22) 
adgpu

>  <m_score__min__energy>  (22) 
-11.08

>  <m_primary>  (22) 
energy

$$$$
22:0
     RDKit          3D

 47 49  0  0  0  0  0  0  0  0999 V2000
   -2.4120   24.5440  -28.1060 C   0  0  0  0  0  0  0  0  0  0  0  0
   -2.8490   25.1000  -29.3420 O   0  0  0  0  0  0  0  0  0  0  0  0
   -3.9440   24.6300  -30.0800 C   0  0  0  0  0  0  0  0  0  0  0  0
   -5.1910   25.2880  -30.0860 C   0  0  0  0  0  0  0  0  0  0  0  0
   -6.2530   24.7790  -30.8390 C   0  0  0  0  0  0  0  0  0  0  0  0
   -6.0900   23.6090  -31.5980 C   0  0  0  0  0  0  0  0  0  0  0  0
   -7.2210   23.0780  -32.4390 C   0  0  0  0  0  0  0  0  0  0  0  0
   -7.3860   21.5960  -32.2310 C   0  0  0  0  0  0  0  0  0  0  0  0
   -8.3950   20.9440  -31.5360 C   0  0  0  0  0  0  0  0  0  0  0  0
   -9.5700   21.5710  -30.8570 C   0  0  0  0  0  0  0  0  0  0  0  0
   -8.1470   19.6200  -31.5120 N   0  0  0  0  0  0  0  0  0  0  0  0
   -7.0180   19.4040  -32.1690 N   0  0  0  0  0  0  0  0  0  0  0  0
   -6.4500   18.0920  -32.3220 C   0  0  0  0  0  0  0  0  0  0  0  0
   -5.9490   17.3890  -31.2130 C   0  0  0  0  0  0  0  0  0  0  0  0
   -5.4200   16.1040  -31.3730 C   0  0  0  0  0  0  0  0  0  0  0  0
   -5.3950   15.5040  -32.6380 C   0  0  0  0  0  0  0  0  0  0  0  0
   -4.7450   13.8790  -32.8320 S   0  0  0  0  0  0  0  0  0  0  0  0
   -4.6950   13.0870  -31.2970 N   0  0  0  0  0  0  0  0  0  0  0  0
   -5.6130   13.0910  -33.7740 O   0  0  0  0  0  0  0  0  0  0  0  0
   -3.3570   13.9510  -33.4050 O   0  0  0  0  0  0  0  0  0  0  0  0
   -5.9220   16.1900  -33.7400 C   0  0  0  0  0  0  0  0  0  0  0  0
   -6.4500   17.4750  -33.5820 C   0  0  0  0  0  0  0  0  0  0  0  0
   -6.5340   20.5790  -32.6380 C   0  0  0  0  0  0  0  0  0  0  0  0
   -5.2930   20.7440  -33.4670 C   0  0  0  0  0  0  0  0  0  0  0  0
   -4.8470   22.9550  -31.5910 C   0  0  0  0  0  0  0  0  0  0  0  0
   -3.7850   23.4630  -30.8370 C   0  0  0  0  0  0  0  0  0  0  0  0
   -2.8557   25.1086  -27.2727 H   0  0  0  0  0  0  0  0  0  0  0  0
   -2.7275   23.4920  -28.0453 H   0  0  0  0  0  0  0  0  0  0  0  0
   -1.3152   24.6020  -28.0453 H   0  0  0  0  0  0  0  0  0  0  0  0
   -5.3287   26.2058  -29.4956 H   0  0  0  0  0  0  0  0  0  0  0  0
   -7.2227   25.2984  -30.8369 H   0  0  0  0  0  0  0  0  0  0  0  0
   -8.1530   23.5888  -32.1554 H   0  0  0  0  0  0  0  0  0  0  0  0
   -6.9923   23.2639  -33.4988 H   0  0  0  0  0  0  0  0  0  0  0  0
   -9.4426   21.5030  -29.7665 H   0  0  0  0  0  0  0  0  0  0  0  0
   -9.6432   22.6281  -31.1524 H   0  0  0  0  0  0  0  0  0  0  0  0
  -10.4888   21.0433  -31.1524 H   0  0  0  0  0  0  0  0  0  0  0  0
   -5.9730   17.8511  -30.2151 H   0  0  0  0  0  0  0  0  0  0  0  0
   -5.0222   15.5628  -30.5019 H   0  0  0  0  0  0  0  0  0  0  0  0
   -5.2000   13.7010  -30.6200 H   0  0  0  0  0  0  0  0  0  0  0  0
   -3.6940   13.0670  -30.9960 H   0  0  0  0  0  0  0  0  0  0  0  0
   -5.9204   15.7162  -34.7327 H   0  0  0  0  0  0  0  0  0  0  0  0
   -6.8678   18.0052  -34.4505 H   0  0  0  0  0  0  0  0  0  0  0  0
   -4.4224   20.8598  -32.8047 H   0  0  0  0  0  0  0  0  0  0  0  0
   -5.1554   19.8562  -34.1018 H   0  0  0  0  0  0  0  0  0  0  0  0
   -5.3921   21.6369  -34.1018 H   0  0  0  0  0  0  0  0  0  0  0  0
   -4.7084   22.0378  -32.1822 H   0  0  0  0  0  0  0  0  0  0  0  0
   -2.8165   22.9415  -30.8385 H   0  0  0  0  0  0  0  0  0  0  0  0
  1  2  1  0
  2  3  1  0
  3  4  2  0
  4  5  1  0
  5  6  2  0
  6  7  1  0
  7  8  1  0
  8  9  1  0
  9 10  1  0
  9 11  2  0
 11 12  1  0
 12 13  1  0
 13 14  2  0
 14 15  1  0
 15 16  2  0
 16 17  1  0
 17 18  1  0
 17 19  2  0
 17 20  2  0
 16 21  1  0
 21 22  2  0
 12 23  1  0
 23 24  1  0
  6 25  1  0
 25 26  2  0
 26  3  1  0
 23  8  2  0
 22 13  1  0
  1 27  1  0
  1 28  1  0
  1 29  1  0
  4 30  1  0
  5 31  1  0
  7 32  1  0
  7 33  1  0
 10 34  1  0
 10 35  1  0
 10 36  1  0
 14 37  1  0
 15 38  1  0
 18 39  1  0
 18 40  1  0
 21 41  1  0
 22 42  1  0
 24 43  1  0
 24 44  1  0
 24 45  1  0
 25 46  1  0
 26 47  1  0
M  END
>  <UniqueID>  (23) 
23

>  <SMILES>  (23) 
COc1ccc(Cc2c(C)nn(-c3ccc(S(N)(=O)=O)cc3)c2C)cc1

>  <Energy>  (23) 
78.83673457549604

>  <Genealogy>  (23) 
COc1ccc(Cc2c(C)nn(-c3ccc(S(N)(=O)=O)cc3)c2C)cc1 (3D coordinates assigned)
COc1ccc(Cc2c(C)nn(-c3ccc(S(N)(=O)=O)cc3)c2C)cc1 (optimized conformer: 78.83673457549604 kcal/mol)

>  <smiles>  (23) 
COc1ccc(Cc2c(C)nn(-c3ccc(S(N)(=O)=O)cc3)c2C)cc1

>  <score_type>  (23) 
oracle

>  <origin>  (23) 
adgpu

>  <m_score__min__energy>  (23) 
-9.0099999999999998

>  <m_primary>  (23) 
energy

$$$$
23:0
     RDKit          3D

 35 37  0  0  0  0  0  0  0  0999 V2000
  -10.6285   20.9169  -31.9325 H   0  0  0  0  0  0  0  0  0  0  0  0
   -9.5400   21.0650  -31.9890 C   0  0  0  0  0  0  0  0  0  0  0  0
   -8.7160   22.4760  -31.6100 S   0  0  0  0  0  0  0  0  0  0  0  0
   -7.1660   21.9120  -31.9500 C   0  0  0  0  0  0  0  0  0  0  0  0
   -5.9530   22.7380  -31.8010 C   0  0  0  0  0  0  0  0  0  0  0  0
   -5.1550   22.8380  -32.7720 O   0  0  0  0  0  0  0  0  0  0  0  0
   -5.6950   23.4500  -30.5870 N   0  0  0  0  0  0  0  0  0  0  0  0
   -4.4460   23.4850  -29.8830 C   0  0  0  0  0  0  0  0  0  0  0  0
   -4.0700   22.3580  -29.1400 C   0  0  0  0  0  0  0  0  0  0  0  0
   -4.7313   21.4796  -29.1079 H   0  0  0  0  0  0  0  0  0  0  0  0
   -2.8600   22.3420  -28.4390 C   0  0  0  0  0  0  0  0  0  0  0  0
   -2.4280   20.9260  -27.4920 Cl  0  0  0  0  0  0  0  0  0  0  0  0
   -2.0060   23.4500  -28.4950 C   0  0  0  0  0  0  0  0  0  0  0  0
   -0.8020   23.4480  -27.7980 O   0  0  0  0  0  0  0  0  0  0  0  0
   -2.3580   24.5640  -29.2630 C   0  0  0  0  0  0  0  0  0  0  0  0
   -1.6830   25.4312  -29.3110 H   0  0  0  0  0  0  0  0  0  0  0  0
   -3.5650   24.5810  -29.9710 C   0  0  0  0  0  0  0  0  0  0  0  0
   -3.8590   25.6720  -30.7810 O   0  0  0  0  0  0  0  0  0  0  0  0
   -7.2810   20.5770  -32.3680 C   0  0  0  0  0  0  0  0  0  0  0  0
   -5.9350   19.5100  -32.7760 S   0  0  0  0  0  0  0  0  0  0  0  0
   -6.0340   18.2300  -31.9940 O   0  0  0  0  0  0  0  0  0  0  0  0
   -5.9920   19.1870  -34.2420 O   0  0  0  0  0  0  0  0  0  0  0  0
   -4.4230   20.2730  -32.4090 N   0  0  0  0  0  0  0  0  0  0  0  0
   -3.3400   20.0330  -33.0760 C   0  0  0  0  0  0  0  0  0  0  0  0
   -3.2500   19.2110  -34.0960 O   0  0  0  0  0  0  0  0  0  0  0  0
   -2.0280   19.1740  -34.5480 N   0  0  0  0  0  0  0  0  0  0  0  0
   -1.3000   20.0180  -33.7870 C   0  0  0  0  0  0  0  0  0  0  0  0
    0.1690   20.2350  -33.9480 C   0  0  0  0  0  0  0  0  0  0  0  0
    0.6402   20.3046  -32.9565 H   0  0  0  0  0  0  0  0  0  0  0  0
    0.6056   19.3916  -34.5031 H   0  0  0  0  0  0  0  0  0  0  0  0
    0.3431   21.1686  -34.5031 H   0  0  0  0  0  0  0  0  0  0  0  0
   -2.1090   20.5870  -32.8240 C   0  0  0  0  0  0  0  0  0  0  0  0
   -1.6660   21.7180  -31.5580 Cl  0  0  0  0  0  0  0  0  0  0  0  0
   -8.6080   20.1180  -32.3860 C   0  0  0  0  0  0  0  0  0  0  0  0
   -8.8839   19.0970  -32.6884 H   0  0  0  0  0  0  0  0  0  0  0  0
  1  2  1  0
  2  3  1  0
  3  4  1  0
  4  5  1  0
  5  6  2  0
  5  7  1  0
  7  8  1  0
  8  9  2  0
  9 10  1  0
  9 11  1  0
 11 12  1  0
 11 13  2  0
 13 14  1  0
 13 15  1  0
 15 16  1  0
 15 17  2  0
 17 18  1  0
  4 19  2  0
 19 20  1  0
 20 21  2  0
 20 22  2  0
 20 23  1  0
 23 24  2  0
 24 25  1  0
 25 26  1  0
 26 27  1  0
 27 28  1  0
 28 29  1  0
 28 30  1  0
 28 31  1  0
 27 32  2  0
 32 33  1  0
 19 34  1  0
 34 35  1  0
 34  2  2  0
 17  8  1  0
 32 24  1  0
M  CHG  4   7  -1  14  -1  18  -1  26  -1
M  END
>  <UniqueID>  (24) 
24

>  <SMILES>  (24) 
Cc1[n-]o/c(=N\S(=O)(=O)c2ccsc2C(=O)[N-]c2cc(Cl)c([O-])cc2[O-])c1Cl

>  <Energy>  (24) 
103.12310299048175

>  <Genealogy>  (24) 
Cc1[n-]oc(=NS(=O)(=O)c2ccsc2C(=O)[N-]c2cc(Cl)c([O-])cc2[O-])c1Cl (protonated)
Cc1[n-]o/c(=N\S(=O)(=O)c2ccsc2C(=O)[N-]c2cc(Cl)c([O-])cc2[O-])c1Cl (cis-trans isomerization)
Cc1[n-]o/c(=N\S(=O)(=O)c2ccsc2C(=O)[N-]c2cc(Cl)c([O-])cc2[O-])c1Cl (3D coordinates assigned)
Cc1[n-]o/c(=N\S(=O)(=O)c2ccsc2C(=O)[N-]c2cc(Cl)c([O-])cc2[O-])c1Cl (optimized conformer: 103.12310299048175 kcal/mol)

>  <smiles>  (24) 
Cc1[nH]oc(=NS(=O)(=O)c2ccsc2C(=O)Nc2cc(Cl)c(O)cc2O)c1Cl

>  <score_type>  (24) 
oracle

>  <origin>  (24) 
adgpu

>  <m_score__min__energy>  (24) 
-12.9

>  <m_primary>  (24) 
energy

$$$$
24:0
     RDKit          3D

 43 45  0  0  0  0  0  0  0  0999 V2000
   -0.1080   22.6740  -23.9070 N   0  0  0  0  0  0  0  0  0  0  0  0
   -0.2090   22.8420  -25.1720 C   0  0  0  0  0  0  0  0  0  0  0  0
   -0.8780   21.8730  -25.8660 N   0  0  0  0  0  0  0  0  0  0  0  0
   -1.0130   22.0030  -27.2080 C   0  0  0  0  0  0  0  0  0  0  0  0
   -0.4830   23.0960  -27.8580 C   0  0  0  0  0  0  0  0  0  0  0  0
   -0.6480   23.1840  -29.2300 O   0  0  0  0  0  0  0  0  0  0  0  0
   -1.9180   23.2220  -29.7770 C   0  0  0  0  0  0  0  0  0  0  0  0
   -2.4930   22.1530  -30.4420 C   0  0  0  0  0  0  0  0  0  0  0  0
   -3.7640   22.2410  -30.9700 C   0  0  0  0  0  0  0  0  0  0  0  0
   -4.4140   21.1430  -31.6790 C   0  0  0  0  0  0  0  0  0  0  0  0
   -4.4510   20.0090  -31.1370 O   0  0  0  0  0  0  0  0  0  0  0  0
   -5.0110   21.2780  -32.9570 N   0  0  0  0  0  0  0  0  0  0  0  0
   -5.6570   20.2200  -33.6830 C   0  0  0  0  0  0  0  0  0  0  0  0
   -6.8200   19.6250  -33.0000 C   0  0  0  0  0  0  0  0  0  0  0  0
   -7.9030   20.4470  -32.6750 C   0  0  0  0  0  0  0  0  0  0  0  0
   -9.0220   19.9320  -32.0260 C   0  0  0  0  0  0  0  0  0  0  0  0
   -9.1110   18.5990  -31.6790 C   0  0  0  0  0  0  0  0  0  0  0  0
   -8.0410   17.7960  -32.0030 C   0  0  0  0  0  0  0  0  0  0  0  0
   -6.9310   18.3040  -32.6450 C   0  0  0  0  0  0  0  0  0  0  0  0
   -4.4260   23.4370  -30.8000 C   0  0  0  0  0  0  0  0  0  0  0  0
   -3.8850   24.5220  -30.1430 C   0  0  0  0  0  0  0  0  0  0  0  0
   -2.6200   24.4100  -29.6270 C   0  0  0  0  0  0  0  0  0  0  0  0
   -2.0820   25.5090  -28.9660 O   0  0  0  0  0  0  0  0  0  0  0  0
    0.1960   24.0790  -27.1490 C   0  0  0  0  0  0  0  0  0  0  0  0
    0.6910   25.1030  -27.7680 N   0  0  0  0  0  0  0  0  0  0  0  0
    0.3100   23.9140  -25.8110 N   0  0  0  0  0  0  0  0  0  0  0  0
    0.3920   23.3840  -23.3430 H   0  0  0  0  0  0  0  0  0  0  0  0
   -1.2790   21.0410  -25.3520 H   0  0  0  0  0  0  0  0  0  0  0  0
   -1.5485   21.2319  -27.7814 H   0  0  0  0  0  0  0  0  0  0  0  0
   -1.9262   21.2166  -30.5513 H   0  0  0  0  0  0  0  0  0  0  0  0
   -4.9710   22.2290  -33.3920 H   0  0  0  0  0  0  0  0  0  0  0  0
   -5.9963   20.6242  -34.6481 H   0  0  0  0  0  0  0  0  0  0  0  0
   -4.9135   19.4161  -33.7878 H   0  0  0  0  0  0  0  0  0  0  0  0
   -7.8707   21.5152  -32.9355 H   0  0  0  0  0  0  0  0  0  0  0  0
   -9.8573   20.6053  -31.7834 H   0  0  0  0  0  0  0  0  0  0  0  0
   -9.9972   18.1965  -31.1666 H   0  0  0  0  0  0  0  0  0  0  0  0
   -8.0718   16.7272  -31.7446 H   0  0  0  0  0  0  0  0  0  0  0  0
   -6.1008   17.6225  -32.8822 H   0  0  0  0  0  0  0  0  0  0  0  0
   -5.4420   23.5318  -31.2109 H   0  0  0  0  0  0  0  0  0  0  0  0
   -4.4556   25.4562  -30.0354 H   0  0  0  0  0  0  0  0  0  0  0  0
   -1.2000   25.4580  -28.4620 H   0  0  0  0  0  0  0  0  0  0  0  0
    1.1910   25.8100  -27.1820 H   0  0  0  0  0  0  0  0  0  0  0  0
    0.8210   24.6510  -25.2750 H   0  0  0  0  0  0  0  0  0  0  0  0
  1  2  2  3
  2  3  1  0
  3  4  1  0
  4  5  2  0
  5  6  1  0
  6  7  1  0
  7  8  2  0
  8  9  1  0
  9 10  1  0
 10 11  2  0
 10 12  1  0
 12 13  1  0
 13 14  1  0
 14 15  2  0
 15 16  1  0
 16 17  2  0
 17 18  1  0
 18 19  2  0
  9 20  2  0
 20 21  1  0
 21 22  2  0
 22 23  1  0
  5 24  1  0
 24 25  2  3
 24 26  1  0
 26  2  1  0
 22  7  1  0
 19 14  1  0
  1 27  1  0
  3 28  1  0
  4 29  1  0
  8 30  1  0
 12 31  1  0
 13 32  1  0
 13 33  1  0
 15 34  1  0
 16 35  1  0
 17 36  1  0
 18 37  1  0
 19 38  1  0
 20 39  1  0
 21 40  1  0
 23 41  1  0
 25 42  1  0
 26 43  1  0
M  END
>  <smiles>  (25) 
N=c1[nH]cc(Oc2cc(C(=O)NCc3ccccc3)ccc2O)c(=N)[nH]1

>  <score_type>  (25) 
oracle

>  <origin>  (25) 
adgpu

>  <m_score__min__energy>  (25) 
-8.5299999999999994

>  <m_primary>  (25) 
energy

$$$$
25:0
     RDKit          3D

 43 45  0  0  0  0  0  0  0  0999 V2000
   -9.2880   21.3990  -31.1060 C   0  0  0  0  0  0  0  0  0  0  0  0
   -8.3090   20.5830  -31.8980 C   0  0  0  0  0  0  0  0  0  0  0  0
   -7.3310   21.2170  -32.6800 C   0  0  0  0  0  0  0  0  0  0  0  0
   -6.3970   20.4570  -33.3930 C   0  0  0  0  0  0  0  0  0  0  0  0
   -6.4220   19.0580  -33.3190 C   0  0  0  0  0  0  0  0  0  0  0  0
   -5.2610   18.0970  -34.2310 S   0  0  0  0  0  0  0  0  0  0  0  0
   -5.1560   16.7120  -33.6610 O   0  0  0  0  0  0  0  0  0  0  0  0
   -5.7280   18.0070  -35.6570 O   0  0  0  0  0  0  0  0  0  0  0  0
   -3.6970   18.8480  -34.1890 N   0  0  0  0  0  0  0  0  0  0  0  0
   -3.2590   19.7260  -33.1370 C   0  0  0  0  0  0  0  0  0  0  0  0
   -2.2340   20.6510  -33.4000 C   0  0  0  0  0  0  0  0  0  0  0  0
   -1.7990   21.5320  -32.4070 C   0  0  0  0  0  0  0  0  0  0  0  0
   -2.3750   21.4960  -31.1310 C   0  0  0  0  0  0  0  0  0  0  0  0
   -1.8140   22.6080  -29.8870 S   0  0  0  0  0  0  0  0  0  0  0  0
   -2.1860   22.0550  -28.5420 O   0  0  0  0  0  0  0  0  0  0  0  0
   -0.3210   22.7750  -29.9480 O   0  0  0  0  0  0  0  0  0  0  0  0
   -2.5710   24.1600  -30.0930 N   0  0  0  0  0  0  0  0  0  0  0  0
   -3.8480   24.3900  -30.2060 C   0  0  0  0  0  0  0  0  0  0  0  0
   -4.8120   23.3600  -30.1820 C   0  0  0  0  0  0  0  0  0  0  0  0
   -6.1650   23.6820  -30.3090 C   0  0  0  0  0  0  0  0  0  0  0  0
   -6.5530   25.0140  -30.4580 C   0  0  0  0  0  0  0  0  0  0  0  0
   -5.5760   26.0100  -30.4780 C   0  0  0  0  0  0  0  0  0  0  0  0
   -4.2640   25.6790  -30.3540 N   0  0  0  0  0  0  0  0  0  0  0  0
   -3.3900   20.5710  -30.8570 C   0  0  0  0  0  0  0  0  0  0  0  0
   -3.8270   19.6890  -31.8500 C   0  0  0  0  0  0  0  0  0  0  0  0
   -7.3790   18.4250  -32.5150 C   0  0  0  0  0  0  0  0  0  0  0  0
   -8.3160   19.1830  -31.8060 C   0  0  0  0  0  0  0  0  0  0  0  0
   -9.1067   21.2479  -30.0316 H   0  0  0  0  0  0  0  0  0  0  0  0
   -9.1624   22.4636  -31.3529 H   0  0  0  0  0  0  0  0  0  0  0  0
  -10.3125   21.0837  -31.3529 H   0  0  0  0  0  0  0  0  0  0  0  0
   -7.2986   22.3153  -32.7326 H   0  0  0  0  0  0  0  0  0  0  0  0
   -5.6406   20.9596  -34.0137 H   0  0  0  0  0  0  0  0  0  0  0  0
   -3.0820   18.7070  -35.0200 H   0  0  0  0  0  0  0  0  0  0  0  0
   -1.7701   20.6815  -34.3969 H   0  0  0  0  0  0  0  0  0  0  0  0
   -1.0013   22.2565  -32.6281 H   0  0  0  0  0  0  0  0  0  0  0  0
   -4.5003   22.3117  -30.0642 H   0  0  0  0  0  0  0  0  0  0  0  0
   -6.9242   22.8862  -30.2916 H   0  0  0  0  0  0  0  0  0  0  0  0
   -7.6166   25.2758  -30.5585 H   0  0  0  0  0  0  0  0  0  0  0  0
   -5.8682   27.0641  -30.5943 H   0  0  0  0  0  0  0  0  0  0  0  0
   -3.8455   20.5381  -29.8563 H   0  0  0  0  0  0  0  0  0  0  0  0
   -4.6202   18.9612  -31.6237 H   0  0  0  0  0  0  0  0  0  0  0  0
   -7.3933   17.3276  -32.4412 H   0  0  0  0  0  0  0  0  0  0  0  0
   -9.0618   18.6795  -31.1734 H   0  0  0  0  0  0  0  0  0  0  0  0
  1  2  1  0
  2  3  2  0
  3  4  1  0
  4  5  2  0
  5  6  1  0
  6  7  2  0
  6  8  2  0
  6  9  1  0
  9 10  1  0
 10 11  2  0
 11 12  1  0
 12 13  2  0
 13 14  1  0
 14 15  2  0
 14 16  2  0
 14 17  1  0
 17 18  2  3
 18 19  1  0
 19 20  2  0
 20 21  1  0
 21 22  2  0
 22 23  1  0
 13 24  1  0
 24 25  2  0
  5 26  1  0
 26 27  2  0
 27  2  1  0
 25 10  1  0
 23 18  1  0
  1 28  1  0
  1 29  1  0
  1 30  1  0
  3 31  1  0
  4 32  1  0
  9 33  1  0
 11 34  1  0
 12 35  1  0
 19 36  1  0
 20 37  1  0
 21 38  1  0
 22 39  1  0
 24 40  1  0
 25 41  1  0
 26 42  1  0
 27 43  1  0
M  CHG  1  23  -1
M  END
>  <UniqueID>  (26) 
25

>  <SMILES>  (26) 
Cc1ccc(S(=O)(=O)Nc2ccc(S(=O)(=O)N=c3cccc[n-]3)cc2)cc1

>  <Energy>  (26) 
53.419872895799394

>  <Genealogy>  (26) 
Cc1ccc(S(=O)(=O)Nc2ccc(S(=O)(=O)N=c3cccc[n-]3)cc2)cc1 (protonated)
Cc1ccc(S(=O)(=O)Nc2ccc(S(=O)(=O)N=c3cccc[n-]3)cc2)cc1 (3D coordinates assigned)
Cc1ccc(S(=O)(=O)Nc2ccc(S(=O)(=O)N=c3cccc[n-]3)cc2)cc1 (optimized conformer: 53.419872895799394 kcal/mol)

>  <smiles>  (26) 
Cc1ccc(S(=O)(=O)Nc2ccc(S(=O)(=O)N=c3cccc[nH]3)cc2)cc1

>  <score_type>  (26) 
oracle

>  <origin>  (26) 
adgpu

>  <m_score__min__energy>  (26) 
-10.859999999999999

>  <m_primary>  (26) 
energy

$$$$
26:0
     RDKit          3D

 48 51  0  0  0  0  0  0  0  0999 V2000
   -4.9890   17.5110  -35.3140 C   0  0  0  0  0  0  0  0  0  0  0  0
   -5.6180   17.6700  -34.0040 N   0  0  0  0  0  0  0  0  0  0  0  0
   -6.2920   18.7950  -33.7480 N   0  0  0  0  0  0  0  0  0  0  0  0
   -6.9040   19.0240  -32.5540 C   0  0  0  0  0  0  0  0  0  0  0  0
   -7.6420   20.2920  -32.3330 C   0  0  0  0  0  0  0  0  0  0  0  0
   -9.0070   20.2560  -31.9850 C   0  0  0  0  0  0  0  0  0  0  0  0
   -9.7210   21.4370  -31.7840 C   0  0  0  0  0  0  0  0  0  0  0  0
   -9.0900   22.6710  -31.9320 C   0  0  0  0  0  0  0  0  0  0  0  0
   -7.7370   22.7280  -32.2750 C   0  0  0  0  0  0  0  0  0  0  0  0
   -6.9970   21.5460  -32.4620 C   0  0  0  0  0  0  0  0  0  0  0  0
   -5.6020   21.6040  -32.7980 N   0  0  0  0  0  0  0  0  0  0  0  0
   -4.6310   22.4800  -32.2110 C   0  0  0  0  0  0  0  0  0  0  0  0
   -4.9640   23.6690  -31.9580 O   0  0  0  0  0  0  0  0  0  0  0  0
   -3.2340   22.0450  -31.9710 C   0  0  0  0  0  0  0  0  0  0  0  0
   -2.4800   21.5280  -33.0390 C   0  0  0  0  0  0  0  0  0  0  0  0
   -1.1610   21.1170  -32.8460 C   0  0  0  0  0  0  0  0  0  0  0  0
   -0.5740   21.2270  -31.5870 C   0  0  0  0  0  0  0  0  0  0  0  0
   -1.3030   21.7480  -30.5170 C   0  0  0  0  0  0  0  0  0  0  0  0
   -2.6360   22.1640  -30.6940 C   0  0  0  0  0  0  0  0  0  0  0  0
   -3.4110   22.6730  -29.5960 N   0  0  0  0  0  0  0  0  0  0  0  0
   -3.6890   24.3480  -29.2490 S   0  0  0  0  0  0  0  0  0  0  0  0
   -3.4880   25.1530  -30.5010 O   0  0  0  0  0  0  0  0  0  0  0  0
   -5.1030   24.5350  -28.7740 O   0  0  0  0  0  0  0  0  0  0  0  0
   -2.5500   24.8950  -28.0330 C   0  0  0  0  0  0  0  0  0  0  0  0
   -2.7660   24.9270  -26.6630 C   0  0  0  0  0  0  0  0  0  0  0  0
   -1.6560   25.3920  -25.9480 C   0  0  0  0  0  0  0  0  0  0  0  0
   -0.5710   25.7210  -26.7550 C   0  0  0  0  0  0  0  0  0  0  0  0
   -0.9930   25.4330  -28.3590 S   0  0  0  0  0  0  0  0  0  0  0  0
   -6.8230   18.0450  -31.5580 C   0  0  0  0  0  0  0  0  0  0  0  0
   -6.1160   16.8730  -31.8090 C   0  0  0  0  0  0  0  0  0  0  0  0
   -5.5080   16.6940  -33.0500 C   0  0  0  0  0  0  0  0  0  0  0  0
   -4.8620   15.6340  -33.2790 O   0  0  0  0  0  0  0  0  0  0  0  0
   -3.9302   17.2434  -35.1823 H   0  0  0  0  0  0  0  0  0  0  0  0
   -5.5019   16.7142  -35.8727 H   0  0  0  0  0  0  0  0  0  0  0  0
   -5.0616   18.4558  -35.8727 H   0  0  0  0  0  0  0  0  0  0  0  0
   -9.5144   19.2867  -31.8707 H   0  0  0  0  0  0  0  0  0  0  0  0
  -10.7849   21.3945  -31.5079 H   0  0  0  0  0  0  0  0  0  0  0  0
   -9.6578   23.6006  -31.7786 H   0  0  0  0  0  0  0  0  0  0  0  0
   -7.2463   23.7046  -32.3999 H   0  0  0  0  0  0  0  0  0  0  0  0
   -2.9349   21.4467  -34.0372 H   0  0  0  0  0  0  0  0  0  0  0  0
   -0.5842   20.7061  -33.6877 H   0  0  0  0  0  0  0  0  0  0  0  0
    0.4662   20.9025  -31.4362 H   0  0  0  0  0  0  0  0  0  0  0  0
   -0.8318   21.8343  -29.5268 H   0  0  0  0  0  0  0  0  0  0  0  0
   -3.7097   24.6195  -26.1887 H   0  0  0  0  0  0  0  0  0  0  0  0
   -1.6426   25.4882  -24.8523 H   0  0  0  0  0  0  0  0  0  0  0  0
    0.3985   26.1044  -26.4041 H   0  0  0  0  0  0  0  0  0  0  0  0
   -7.3135   18.2002  -30.5857 H   0  0  0  0  0  0  0  0  0  0  0  0
   -6.0378   16.0952  -31.0351 H   0  0  0  0  0  0  0  0  0  0  0  0
  1  2  1  0
  2  3  1  0
  3  4  2  0
  4  5  1  0
  5  6  2  0
  6  7  1  0
  7  8  2  0
  8  9  1  0
  9 10  2  0
 10 11  1  0
 11 12  1  0
 12 13  2  0
 12 14  1  0
 14 15  2  0
 15 16  1  0
 16 17  2  0
 17 18  1  0
 18 19  2  0
 19 20  1  0
 20 21  1  0
 21 22  2  0
 21 23  2  0
 21 24  1  0
 24 25  2  0
 25 26  1  0
 26 27  2  0
 27 28  1  0
  4 29  1  0
 29 30  2  0
 30 31  1  0
 31 32  2  0
 31  2  1  0
 10  5  1  0
 19 14  1  0
 28 24  1  0
  1 33  1  0
  1 34  1  0
  1 35  1  0
  6 36  1  0
  7 37  1  0
  8 38  1  0
  9 39  1  0
 15 40  1  0
 16 41  1  0
 17 42  1  0
 18 43  1  0
 25 44  1  0
 26 45  1  0
 27 46  1  0
 29 47  1  0
 30 48  1  0
M  CHG  2  11  -1  20  -1
M  END
>  <UniqueID>  (27) 
26

>  <SMILES>  (27) 
Cn1nc(-c2ccccc2[N-]C(=O)c2ccccc2[N-]S(=O)(=O)c2cccs2)ccc1=O

>  <Energy>  (27) 
96.73498713537272

>  <Genealogy>  (27) 
Cn1nc(-c2ccccc2[N-]C(=O)c2ccccc2[N-]S(=O)(=O)c2cccs2)ccc1=O (protonated)
Cn1nc(-c2ccccc2[N-]C(=O)c2ccccc2[N-]S(=O)(=O)c2cccs2)ccc1=O (3D coordinates assigned)
Cn1nc(-c2ccccc2[N-]C(=O)c2ccccc2[N-]S(=O)(=O)c2cccs2)ccc1=O (optimized conformer: 96.73498713537272 kcal/mol)

>  <smiles>  (27) 
Cn1nc(-c2ccccc2NC(=O)c2ccccc2NS(=O)(=O)c2cccs2)ccc1=O

>  <score_type>  (27) 
oracle

>  <origin>  (27) 
adgpu

>  <m_score__min__energy>  (27) 
-11.710000000000001

>  <m_primary>  (27) 
energy

$$$$
27:0
     RDKit          3D

 68 72  0  0  1  0  0  0  0  0999 V2000
    1.6160   14.5170  -28.6380 C   0  0  0  0  0  0  0  0  0  0  0  0
    1.6850   15.2060  -27.4080 O   0  0  0  0  0  0  0  0  0  0  0  0
    2.8160   15.8200  -26.9230 C   0  0  0  0  0  0  0  0  0  0  0  0
    3.6770   15.2230  -26.0270 C   0  0  0  0  0  0  0  0  0  0  0  0
    4.8140   15.8520  -25.5460 C   0  0  0  0  0  0  0  0  0  0  0  0
    5.0840   17.1230  -25.9870 C   0  0  0  0  0  0  0  0  0  0  0  0
    4.2510   17.7590  -26.8840 C   0  0  0  0  0  0  0  0  0  0  0  0
    3.1280   17.1140  -27.3490 C   0  0  0  0  0  0  0  0  0  0  0  0
    2.2450   17.7630  -28.2860 N   0  0  0  0  0  0  0  0  0  0  0  0
    2.6170   17.7690  -29.5420 C   0  0  0  0  0  0  0  0  0  0  0  0
    3.7940   17.1670  -29.8470 N   0  0  0  0  0  0  0  0  0  0  0  0
    4.2550   17.1270  -31.1280 C   0  0  0  0  0  0  0  0  0  0  0  0
    3.4720   17.7230  -32.0800 C   0  0  0  0  0  0  0  0  0  0  0  0
    2.2580   18.3440  -31.7650 C   0  0  0  0  0  0  0  0  0  0  0  0
    1.6160   18.8630  -32.7270 N   0  0  0  0  0  0  0  0  0  0  0  0
    0.3730   19.5100  -32.4730 C   0  0  0  0  0  0  0  0  0  0  0  0
   -0.6800   18.8980  -31.8260 C   0  0  0  0  0  0  0  0  0  0  0  0
   -1.8290   19.6400  -31.6450 C   0  0  0  0  0  0  0  0  0  0  0  0
   -1.9720   20.9350  -32.0710 C   0  0  0  0  0  0  0  0  0  0  0  0
   -3.1780   21.7290  -31.8860 C   0  0  0  0  0  0  0  0  0  0  0  0
   -3.9880   21.9620  -32.8340 O   0  0  0  0  0  0  0  0  0  0  0  0
   -3.5350   22.3010  -30.6230 N   0  0  0  0  0  0  0  0  0  0  0  0
   -4.7430   23.0530  -30.5860 C   0  0  0  0  0  0  0  0  0  0  0  0
   -5.9240   22.3010  -30.5950 C   0  0  0  0  0  0  0  0  0  0  0  0
   -7.1610   22.9450  -30.5620 C   0  0  0  0  0  0  0  0  0  0  0  0
   -8.3670   22.0880  -30.5730 C   0  0  0  0  0  0  0  0  0  0  0  0
   -8.3050   21.2150  -31.7340 N   0  0  0  0  0  0  0  0  0  0  0  0
   -9.6380   20.8500  -32.1640 C   0  0  0  0  0  0  0  0  0  0  0  0
   -9.4500   19.6030  -33.0060 C   0  0  0  0  0  0  0  0  0  0  0  0
   -8.2600   18.9570  -32.3250 C   0  0  0  0  0  0  0  0  0  0  0  0
   -7.7610   19.9470  -31.2970 C   0  0  0  0  0  0  0  0  0  0  0  0
   -7.1950   24.3210  -30.5200 C   0  0  0  0  0  0  0  0  0  0  0  0
   -6.0070   25.0520  -30.5120 C   0  0  0  0  0  0  0  0  0  0  0  0
   -4.7720   24.4330  -30.5450 C   0  0  0  0  0  0  0  0  0  0  0  0
   -3.5920   25.1270  -30.5380 O   0  0  0  0  0  0  0  0  0  0  0  0
   -0.9110   21.5200  -32.7110 C   0  0  0  0  0  0  0  0  0  0  0  0
    0.2590   20.8200  -32.9150 C   0  0  0  0  0  0  0  0  0  0  0  0
    1.8500   18.3540  -30.4830 N   0  0  0  0  0  0  0  0  0  0  0  0
    1.5080   13.4388  -28.4487 H   0  0  0  0  0  0  0  0  0  0  0  0
    0.7494   14.8771  -29.2119 H   0  0  0  0  0  0  0  0  0  0  0  0
    2.5368   14.6981  -29.2119 H   0  0  0  0  0  0  0  0  0  0  0  0
    3.4518   14.2040  -25.6792 H   0  0  0  0  0  0  0  0  0  0  0  0
    5.4808   15.3472  -24.8314 H   0  0  0  0  0  0  0  0  0  0  0  0
    5.9802   17.6438  -25.6189 H   0  0  0  0  0  0  0  0  0  0  0  0
    4.4837   18.7782  -27.2263 H   0  0  0  0  0  0  0  0  0  0  0  0
    4.4000   16.7100  -29.1340 H   0  0  0  0  0  0  0  0  0  0  0  0
    5.2077   16.6407  -31.3846 H   0  0  0  0  0  0  0  0  0  0  0  0
    3.8083   17.7134  -33.1273 H   0  0  0  0  0  0  0  0  0  0  0  0
   -0.6068   17.8602  -31.4687 H   0  0  0  0  0  0  0  0  0  0  0  0
   -2.6776   19.1659  -31.1301 H   0  0  0  0  0  0  0  0  0  0  0  0
   -2.9240   22.1570  -29.7890 H   0  0  0  0  0  0  0  0  0  0  0  0
   -5.8764   21.2025  -30.6281 H   0  0  0  0  0  0  0  0  0  0  0  0
   -8.3997   21.4824  -29.6553 H   0  0  0  0  0  0  0  0  0  0  0  0
   -9.2714   22.7124  -30.6202 H   0  0  0  0  0  0  0  0  0  0  0  0
  -10.2798   20.6376  -31.2962 H   0  0  0  0  0  0  0  0  0  0  0  0
  -10.1271   21.6589  -32.7265 H   0  0  0  0  0  0  0  0  0  0  0  0
  -10.3371   18.9538  -32.9666 H   0  0  0  0  0  0  0  0  0  0  0  0
   -9.3004   19.8028  -34.0773 H   0  0  0  0  0  0  0  0  0  0  0  0
   -8.5655   18.0213  -31.8339 H   0  0  0  0  0  0  0  0  0  0  0  0
   -7.4728   18.7095  -33.0523 H   0  0  0  0  0  0  0  0  0  0  0  0
   -8.1312   19.6883  -30.2940 H   0  0  0  0  0  0  0  0  0  0  0  0
   -6.6636   19.9616  -31.2233 H   0  0  0  0  0  0  0  0  0  0  0  0
   -8.1617   24.8452  -30.4927 H   0  0  0  0  0  0  0  0  0  0  0  0
   -6.0545   26.1505  -30.4785 H   0  0  0  0  0  0  0  0  0  0  0  0
   -3.4720   26.0760  -30.8390 H   0  0  0  0  0  0  0  0  0  0  0  0
   -0.9936   22.5581  -33.0654 H   0  0  0  0  0  0  0  0  0  0  0  0
    1.1039   21.3012  -33.4293 H   0  0  0  0  0  0  0  0  0  0  0  0
    0.9600   18.8110  -30.2640 H   0  0  0  0  0  0  0  0  0  0  0  0
  1  2  1  0
  2  3  1  0
  3  4  2  0
  4  5  1  0
  5  6  2  0
  6  7  1  0
  7  8  2  0
  8  9  1  0
  9 10  2  0
 10 11  1  0
 11 12  1  0
 12 13  2  0
 13 14  1  0
 14 15  2  0
 15 16  1  0
 16 17  2  0
 17 18  1  0
 18 19  2  0
 19 20  1  0
 20 21  2  0
 20 22  1  0
 22 23  1  0
 23 24  2  0
 24 25  1  0
 25 26  1  0
 26 27  1  0
 27 28  1  0
 28 29  1  0
 29 30  1  0
 30 31  1  0
 25 32  2  0
 32 33  1  0
 33 34  2  0
 34 35  1  0
 19 36  1  0
 36 37  2  0
 14 38  1  0
  8  3  1  0
 38 10  1  0
 37 16  1  0
 34 23  1  0
 31 27  1  0
  1 39  1  0
  1 40  1  0
  1 41  1  0
  4 42  1  0
  5 43  1  0
  6 44  1  0
  7 45  1  0
 11 46  1  0
 12 47  1  0
 13 48  1  0
 17 49  1  0
 18 50  1  0
 22 51  1  0
 24 52  1  0
 26 53  1  0
 26 54  1  0
 28 55  1  0
 28 56  1  0
 29 57  1  0
 29 58  1  0
 30 59  1  0
 30 60  1  0
 31 61  1  0
 31 62  1  0
 32 63  1  0
 33 64  1  0
 35 65  1  0
 36 66  1  0
 37 67  1  0
 38 68  1  0
M  END
>  <smiles>  (28) 
COc1ccccc1N=c1[nH]ccc(=Nc2ccc(C(=O)Nc3cc(CN4CCCC4)ccc3O)cc2)[nH]1

>  <score_type>  (28) 
oracle

>  <origin>  (28) 
adgpu

>  <m_score__min__energy>  (28) 
-10.300000000000001

>  <m_primary>  (28) 
energy

$$$$
28:0
     RDKit          3D

 32 34  0  0  0  0  0  0  0  0999 V2000
   -2.2960   24.7980  -28.6440 C   0  0  0  0  0  0  0  0  0  0  0  0
   -3.1140   25.2550  -29.7160 O   0  0  0  0  0  0  0  0  0  0  0  0
   -4.2590   24.5910  -30.1780 C   0  0  0  0  0  0  0  0  0  0  0  0
   -4.1000   23.3700  -30.8400 C   0  0  0  0  0  0  0  0  0  0  0  0
   -5.2100   22.6690  -31.3180 C   0  0  0  0  0  0  0  0  0  0  0  0
   -6.5080   23.1800  -31.1410 C   0  0  0  0  0  0  0  0  0  0  0  0
   -7.6750   22.4200  -31.6510 C   0  0  0  0  0  0  0  0  0  0  0  0
   -8.9340   22.9110  -31.9370 C   0  0  0  0  0  0  0  0  0  0  0  0
   -9.7220   21.8970  -32.3380 N   0  0  0  0  0  0  0  0  0  0  0  0
   -8.9110   20.8190  -32.2950 C   0  0  0  0  0  0  0  0  0  0  0  0
   -9.3810   19.4320  -32.5920 C   0  0  0  0  0  0  0  0  0  0  0  0
   -8.4230   18.2080  -31.6340 S   0  0  0  0  0  0  0  0  0  0  0  0
   -7.2010   17.9330  -32.9150 C   0  0  0  0  0  0  0  0  0  0  0  0
   -6.8630   16.7090  -33.3720 N   0  0  0  0  0  0  0  0  0  0  0  0
   -5.9000   16.7790  -34.3300 C   0  0  0  0  0  0  0  0  0  0  0  0
   -5.4720   18.0640  -34.6410 C   0  0  0  0  0  0  0  0  0  0  0  0
   -6.3290   19.1470  -33.6800 S   0  0  0  0  0  0  0  0  0  0  0  0
   -7.6600   21.0930  -31.8740 N   0  0  0  0  0  0  0  0  0  0  0  0
   -6.6680   24.4090  -30.4760 C   0  0  0  0  0  0  0  0  0  0  0  0
   -5.5550   25.1090  -29.9990 C   0  0  0  0  0  0  0  0  0  0  0  0
   -2.7670   25.0612  -27.6854 H   0  0  0  0  0  0  0  0  0  0  0  0
   -2.1825   23.7058  -28.7092 H   0  0  0  0  0  0  0  0  0  0  0  0
   -1.3065   25.2740  -28.7092 H   0  0  0  0  0  0  0  0  0  0  0  0
   -3.0909   22.9571  -30.9860 H   0  0  0  0  0  0  0  0  0  0  0  0
   -5.0674   21.7097  -31.8370 H   0  0  0  0  0  0  0  0  0  0  0  0
   -9.2430   23.9632  -31.8507 H   0  0  0  0  0  0  0  0  0  0  0  0
  -10.4449   19.3464  -32.3260 H   0  0  0  0  0  0  0  0  0  0  0  0
   -9.2388   19.2321  -33.6643 H   0  0  0  0  0  0  0  0  0  0  0  0
   -5.4903   15.8846  -34.8222 H   0  0  0  0  0  0  0  0  0  0  0  0
   -4.7064   18.3272  -35.3857 H   0  0  0  0  0  0  0  0  0  0  0  0
   -7.6766   24.8230  -30.3299 H   0  0  0  0  0  0  0  0  0  0  0  0
   -5.6935   26.0696  -29.4812 H   0  0  0  0  0  0  0  0  0  0  0  0
  1  2  1  0
  2  3  1  0
  3  4  2  0
  4  5  1  0
  5  6  2  0
  6  7  1  0
  7  8  2  0
  8  9  1  0
  9 10  1  0
 10 11  1  0
 11 12  1  0
 12 13  1  0
 13 14  2  0
 14 15  1  0
 15 16  2  0
 16 17  1  0
 10 18  2  0
  6 19  1  0
 19 20  2  0
 20  3  1  0
 18  7  1  0
 17 13  1  0
  1 21  1  0
  1 22  1  0
  1 23  1  0
  4 24  1  0
  5 25  1  0
  8 26  1  0
 11 27  1  0
 11 28  1  0
 15 29  1  0
 16 30  1  0
 19 31  1  0
 20 32  1  0
M  CHG  1   9  -1
M  END
>  <UniqueID>  (29) 
27

>  <SMILES>  (29) 
COc1ccc(-c2c[n-]c(CSc3nccs3)n2)cc1

>  <Energy>  (29) 
86.77317962441857

>  <Genealogy>  (29) 
COc1ccc(-c2c[n-]c(CSc3nccs3)n2)cc1 (protonated)
COc1ccc(-c2c[n-]c(CSc3nccs3)n2)cc1 (3D coordinates assigned)
COc1ccc(-c2c[n-]c(CSc3nccs3)n2)cc1 (optimized conformer: 86.77317962441857 kcal/mol)

>  <smiles>  (29) 
COc1ccc(-c2c[nH]c(CSc3nccs3)n2)cc1

>  <score_type>  (29) 
oracle

>  <origin>  (29) 
adgpu

>  <m_score__min__energy>  (29) 
-8.0399999999999991

>  <m_primary>  (29) 
energy

$$$$
29:0
     RDKit          3D

 46 48  0  0  0  0  0  0  0  0999 V2000
   -0.1140   20.9960  -35.0770 C   0  0  0  0  0  0  0  0  0  0  0  0
   -0.4960   19.7050  -33.8530 S   0  0  0  0  0  0  0  0  0  0  0  0
   -1.8060   20.6560  -33.0800 C   0  0  0  0  0  0  0  0  0  0  0  0
   -3.0420   20.7950  -33.7180 C   0  0  0  0  0  0  0  0  0  0  0  0
   -4.0640   21.5360  -33.1180 C   0  0  0  0  0  0  0  0  0  0  0  0
   -3.8550   22.1610  -31.8770 C   0  0  0  0  0  0  0  0  0  0  0  0
   -4.9210   22.9430  -31.2100 C   0  0  0  0  0  0  0  0  0  0  0  0
   -4.7590   24.2330  -30.8510 N   0  0  0  0  0  0  0  0  0  0  0  0
   -5.9090   24.6630  -30.3580 N   0  0  0  0  0  0  0  0  0  0  0  0
   -6.1040   25.9870  -29.7860 C   0  0  0  0  0  0  0  0  0  0  0  0
   -6.8220   23.6770  -30.3840 C   0  0  0  0  0  0  0  0  0  0  0  0
   -6.2290   22.5540  -30.9240 C   0  0  0  0  0  0  0  0  0  0  0  0
   -6.9170   21.2400  -31.1760 C   0  0  0  0  0  0  0  0  0  0  0  0
   -8.1240   21.4020  -32.0200 N   0  0  0  0  0  0  0  0  0  0  0  0
   -9.2260   21.9330  -31.2020 C   0  0  0  0  0  0  0  0  0  0  0  0
   -8.5360   20.1380  -32.6770 C   0  0  0  0  0  0  0  0  0  0  0  0
   -7.3790   19.1730  -32.7560 C   0  0  0  0  0  0  0  0  0  0  0  0
   -7.2130   18.1770  -31.7800 C   0  0  0  0  0  0  0  0  0  0  0  0
   -6.1370   17.2910  -31.8770 C   0  0  0  0  0  0  0  0  0  0  0  0
   -5.2470   17.4070  -32.8970 N   0  0  0  0  0  0  0  0  0  0  0  0
   -5.3680   18.3780  -33.8400 C   0  0  0  0  0  0  0  0  0  0  0  0
   -6.4280   19.2860  -33.7820 C   0  0  0  0  0  0  0  0  0  0  0  0
   -2.6140   22.0040  -31.2360 C   0  0  0  0  0  0  0  0  0  0  0  0
   -1.5940   21.2620  -31.8380 C   0  0  0  0  0  0  0  0  0  0  0  0
    0.1609   21.9251  -34.5563 H   0  0  0  0  0  0  0  0  0  0  0  0
    0.7252   20.6668  -35.7073 H   0  0  0  0  0  0  0  0  0  0  0  0
   -0.9972   21.1765  -35.7073 H   0  0  0  0  0  0  0  0  0  0  0  0
   -3.2109   20.3196  -34.6955 H   0  0  0  0  0  0  0  0  0  0  0  0
   -5.0380   21.6305  -33.6204 H   0  0  0  0  0  0  0  0  0  0  0  0
   -6.0937   25.9173  -28.6883 H   0  0  0  0  0  0  0  0  0  0  0  0
   -5.2943   26.6531  -30.1187 H   0  0  0  0  0  0  0  0  0  0  0  0
   -7.0714   26.3913  -30.1187 H   0  0  0  0  0  0  0  0  0  0  0  0
   -7.8625   23.7522  -30.0350 H   0  0  0  0  0  0  0  0  0  0  0  0
   -6.2153   20.5629  -31.6850 H   0  0  0  0  0  0  0  0  0  0  0  0
   -7.2318   20.8281  -30.2058 H   0  0  0  0  0  0  0  0  0  0  0  0
   -8.9812   21.8151  -30.1361 H   0  0  0  0  0  0  0  0  0  0  0  0
   -9.3704   22.9995  -31.4292 H   0  0  0  0  0  0  0  0  0  0  0  0
  -10.1501   21.3813  -31.4292 H   0  0  0  0  0  0  0  0  0  0  0  0
   -9.3497   19.6786  -32.0967 H   0  0  0  0  0  0  0  0  0  0  0  0
   -8.8752   20.3659  -33.6983 H   0  0  0  0  0  0  0  0  0  0  0  0
   -7.9248   18.0950  -30.9454 H   0  0  0  0  0  0  0  0  0  0  0  0
   -6.0101   16.4976  -31.1257 H   0  0  0  0  0  0  0  0  0  0  0  0
   -4.6289   18.4492  -34.6516 H   0  0  0  0  0  0  0  0  0  0  0  0
   -6.5166   20.0833  -34.5346 H   0  0  0  0  0  0  0  0  0  0  0  0
   -2.4443   22.4685  -30.2534 H   0  0  0  0  0  0  0  0  0  0  0  0
   -0.6224   21.1546  -31.3336 H   0  0  0  0  0  0  0  0  0  0  0  0
  1  2  1  0
  2  3  1  0
  3  4  2  0
  4  5  1  0
  5  6  2  0
  6  7  1  0
  7  8  2  0
  8  9  1  0
  9 10  1  0
  9 11  1  0
 11 12  2  0
 12 13  1  0
 13 14  1  0
 14 15  1  0
 14 16  1  0
 16 17  1  0
 17 18  2  0
 18 19  1  0
 19 20  2  0
 20 21  1  0
 21 22  2  0
  6 23  1  0
 23 24  2  0
 24  3  1  0
 12  7  1  0
 22 17  1  0
  1 25  1  0
  1 26  1  0
  1 27  1  0
  4 28  1  0
  5 29  1  0
 10 30  1  0
 10 31  1  0
 10 32  1  0
 11 33  1  0
 13 34  1  0
 13 35  1  0
 15 36  1  0
 15 37  1  0
 15 38  1  0
 16 39  1  0
 16 40  1  0
 18 41  1  0
 19 42  1  0
 21 43  1  0
 22 44  1  0
 23 45  1  0
 24 46  1  0
M  END
>  <UniqueID>  (30) 
28

>  <SMILES>  (30) 
CSc1ccc(-c2nn(C)cc2CN(C)Cc2ccncc2)cc1

>  <Energy>  (30) 
76.64034198207051

>  <Genealogy>  (30) 
CSc1ccc(-c2nn(C)cc2CN(C)Cc2ccncc2)cc1 (3D coordinates assigned)
CSc1ccc(-c2nn(C)cc2CN(C)Cc2ccncc2)cc1 (optimized conformer: 76.64034198207051 kcal/mol)

>  <smiles>  (30) 
CSc1ccc(-c2nn(C)cc2CN(C)Cc2ccncc2)cc1

>  <score_type>  (30) 
oracle

>  <origin>  (30) 
adgpu

>  <m_score__min__energy>  (30) 
-8.1500000000000004

>  <m_primary>  (30) 
energy

$$$$
30:0
     RDKit          3D

 37 39  0  0  1  0  0  0  0  0999 V2000
   -8.1070   21.5900  -31.9620 C   0  0  0  0  0  0  0  0  0  0  0  0
   -6.9460   22.4320  -31.5490 C   0  0  0  0  0  0  0  0  0  0  0  0
   -5.7190   22.1500  -32.1280 C   0  0  0  0  0  0  0  0  0  0  0  0
   -4.6160   22.9120  -31.7670 C   0  0  0  0  0  0  0  0  0  0  0  0
   -4.7490   23.9450  -30.8350 C   0  0  0  0  0  0  0  0  0  0  0  0
   -3.6300   24.7430  -30.4490 N   0  0  0  0  0  0  0  0  0  0  0  0
   -2.7240   24.2960  -29.6620 C   0  0  0  0  0  0  0  0  0  0  0  0
   -2.7940   22.9980  -29.1440 C   0  0  0  0  0  0  0  0  0  0  0  0
   -1.8310   22.4970  -28.2970 C   0  0  0  0  0  0  0  0  0  0  0  0
   -1.9050   21.1460  -27.7580 C   0  0  0  0  0  0  0  0  0  0  0  0
   -3.0950   20.6070  -27.3220 C   0  0  0  0  0  0  0  0  0  0  0  0
   -3.1540   19.3100  -26.8080 C   0  0  0  0  0  0  0  0  0  0  0  0
   -2.0350   18.5130  -26.7130 C   0  0  0  0  0  0  0  0  0  0  0  0
   -0.8450   19.0480  -27.1480 C   0  0  0  0  0  0  0  0  0  0  0  0
   -0.7880   20.3460  -27.6630 C   0  0  0  0  0  0  0  0  0  0  0  0
   -0.8130   23.3340  -27.9940 N   0  0  0  0  0  0  0  0  0  0  0  0
   -0.7530   24.5940  -28.5010 C   0  0  0  0  0  0  0  0  0  0  0  0
    0.2360   25.3820  -28.1970 N   0  0  0  0  0  0  0  0  0  0  0  0
   -1.6890   25.0880  -29.3290 N   0  0  0  0  0  0  0  0  0  0  0  0
   -5.9930   24.1870  -30.2860 C   0  0  0  0  0  0  0  0  0  0  0  0
   -7.1100   23.4450  -30.6250 C   0  0  0  0  0  0  0  0  0  0  0  0
   -8.6246   21.2147  -31.0669 H   0  0  0  0  0  0  0  0  0  0  0  0
   -8.8034   22.1944  -32.5618 H   0  0  0  0  0  0  0  0  0  0  0  0
   -7.7488   20.7403  -32.5618 H   0  0  0  0  0  0  0  0  0  0  0  0
   -5.6206   21.3360  -32.8613 H   0  0  0  0  0  0  0  0  0  0  0  0
   -3.6340   22.7020  -32.2161 H   0  0  0  0  0  0  0  0  0  0  0  0
   -3.6445   22.3582  -29.4220 H   0  0  0  0  0  0  0  0  0  0  0  0
   -4.0143   21.2082  -27.3796 H   0  0  0  0  0  0  0  0  0  0  0  0
   -4.1224   18.9134  -26.4691 H   0  0  0  0  0  0  0  0  0  0  0  0
   -2.0905   17.4923  -26.3067 H   0  0  0  0  0  0  0  0  0  0  0  0
    0.0740   18.4463  -27.0898 H   0  0  0  0  0  0  0  0  0  0  0  0
    0.1804   20.7414  -28.0035 H   0  0  0  0  0  0  0  0  0  0  0  0
   -0.0440   23.0610  -27.3720 H   0  0  0  0  0  0  0  0  0  0  0  0
    1.0050   25.0600  -27.5540 H   0  0  0  0  0  0  0  0  0  0  0  0
   -1.6200   26.0510  -29.7020 H   0  0  0  0  0  0  0  0  0  0  0  0
   -6.0994   24.9996  -29.5523 H   0  0  0  0  0  0  0  0  0  0  0  0
   -8.0920   23.6540  -30.1755 H   0  0  0  0  0  0  0  0  0  0  0  0
  1  2  1  0
  2  3  2  0
  3  4  1  0
  4  5  2  0
  5  6  1  0
  6  7  2  0
  7  8  1  0
  8  9  2  0
  9 10  1  0
 10 11  2  0
 11 12  1  0
 12 13  2  0
 13 14  1  0
 14 15  2  0
  9 16  1  0
 16 17  1  0
 17 18  2  3
 17 19  1  0
  5 20  1  0
 20 21  2  0
 21  2  1  0
 19  7  1  0
 15 10  1  0
  1 22  1  0
  1 23  1  0
  1 24  1  0
  3 25  1  0
  4 26  1  0
  8 27  1  0
 11 28  1  0
 12 29  1  0
 13 30  1  0
 14 31  1  0
 15 32  1  0
 16 33  1  0
 18 34  1  0
 19 35  1  0
 20 36  1  0
 21 37  1  0
M  END
>  <smiles>  (31) 
Cc1ccc(N=c2cc(-c3ccccc3)[nH]c(=N)[nH]2)cc1

>  <score_type>  (31) 
oracle

>  <origin>  (31) 
adgpu

>  <m_score__min__energy>  (31) 
-8.8000000000000007

>  <m_primary>  (31) 
energy

$$$$
31:0
     RDKit          3D

 33 35  0  0  0  0  0  0  0  0999 V2000
   -5.5960   16.9820  -31.0230 H   0  0  0  0  0  0  0  0  0  0  0  0
   -5.7490   17.9270  -31.4360 N   0  0  0  0  0  0  0  0  0  0  0  0
   -5.9430   18.1170  -32.7040 C   0  0  0  0  0  0  0  0  0  0  0  0
   -5.9570   17.1490  -33.7000 C   0  0  0  0  0  0  0  0  0  0  0  0
   -5.8800   15.6780  -33.5820 C   0  0  0  0  0  0  0  0  0  0  0  0
   -6.8160   14.8480  -34.2180 C   0  0  0  0  0  0  0  0  0  0  0  0
   -7.6348   15.2931  -34.8023 H   0  0  0  0  0  0  0  0  0  0  0  0
   -6.7150   13.4950  -34.1150 N   0  0  0  0  0  0  0  0  0  0  0  0
   -5.7150   12.9040  -33.4080 C   0  0  0  0  0  0  0  0  0  0  0  0
   -5.6659   11.8075  -33.3359 H   0  0  0  0  0  0  0  0  0  0  0  0
   -4.7510   13.6890  -32.7740 C   0  0  0  0  0  0  0  0  0  0  0  0
   -3.9361   13.2167  -32.2058 H   0  0  0  0  0  0  0  0  0  0  0  0
   -4.8310   15.0790  -32.8680 C   0  0  0  0  0  0  0  0  0  0  0  0
   -4.0700   15.7066  -32.3812 H   0  0  0  0  0  0  0  0  0  0  0  0
   -6.0670   17.8740  -34.8790 C   0  0  0  0  0  0  0  0  0  0  0  0
   -6.0970   17.4462  -35.8920 H   0  0  0  0  0  0  0  0  0  0  0  0
   -6.1310   19.1870  -34.5810 N   0  0  0  0  0  0  0  0  0  0  0  0
   -6.2230   19.9690  -35.2680 H   0  0  0  0  0  0  0  0  0  0  0  0
   -6.0620   19.3350  -33.2680 N   0  0  0  0  0  0  0  0  0  0  0  0
   -6.0620   20.6040  -32.5960 C   0  0  0  0  0  0  0  0  0  0  0  0
   -7.2470   21.0970  -32.0170 C   0  0  0  0  0  0  0  0  0  0  0  0
   -8.7540   20.1970  -32.1270 Cl  0  0  0  0  0  0  0  0  0  0  0  0
   -7.2460   22.3340  -31.3630 C   0  0  0  0  0  0  0  0  0  0  0  0
   -8.1728   22.7076  -30.9031 H   0  0  0  0  0  0  0  0  0  0  0  0
   -6.0740   23.1030  -31.2880 C   0  0  0  0  0  0  0  0  0  0  0  0
   -6.0660   24.4120  -30.5390 C   0  0  0  0  0  0  0  0  0  0  0  0
   -5.2690   25.3180  -31.2150 F   0  0  0  0  0  0  0  0  0  0  0  0
   -7.3480   24.9270  -30.4390 F   0  0  0  0  0  0  0  0  0  0  0  0
   -5.5690   24.2410  -29.2590 F   0  0  0  0  0  0  0  0  0  0  0  0
   -4.8860   22.5930  -31.8370 C   0  0  0  0  0  0  0  0  0  0  0  0
   -3.9535   23.1699  -31.7495 H   0  0  0  0  0  0  0  0  0  0  0  0
   -4.8780   21.3580  -32.4940 C   0  0  0  0  0  0  0  0  0  0  0  0
   -3.3560   20.7510  -33.1360 Cl  0  0  0  0  0  0  0  0  0  0  0  0
  1  2  1  0
  2  3  2  0
  3  4  1  0
  4  5  1  0
  5  6  2  0
  6  7  1  0
  6  8  1  0
  8  9  2  0
  9 10  1  0
  9 11  1  0
 11 12  1  0
 11 13  2  0
 13 14  1  0
  4 15  2  0
 15 16  1  0
 15 17  1  0
 17 18  1  0
 17 19  1  0
 19 20  1  0
 20 21  2  0
 21 22  1  0
 21 23  1  0
 23 24  1  0
 23 25  2  0
 25 26  1  0
 26 27  1  0
 26 28  1  0
 26 29  1  0
 25 30  1  0
 30 31  1  0
 30 32  2  0
 32 33  1  0
 19  3  1  0
 32 20  1  0
 13  5  1  0
M  END
>  <UniqueID>  (32) 
29

>  <SMILES>  (32) 
[H]/N=c1\c(-c2cccnc2)c[nH]n1-c1c(Cl)cc(C(F)(F)F)cc1Cl

>  <Energy>  (32) 
83.00740507546934

>  <Genealogy>  (32) 
[H]/N=c1\c(-c2cccnc2)c[nH]n1-c1c(Cl)cc(C(F)(F)F)cc1Cl (cis-trans isomerization)
[H]/N=c1\c(-c2cccnc2)c[nH]n1-c1c(Cl)cc(C(F)(F)F)cc1Cl (3D coordinates assigned)
[H]/N=c1\c(-c2cccnc2)c[nH]n1-c1c(Cl)cc(C(F)(F)F)cc1Cl (optimized conformer: 83.00740507546934 kcal/mol)

>  <smiles>  (32) 
N=c1c(-c2cccnc2)c[nH]n1-c1c(Cl)cc(C(F)(F)F)cc1Cl

>  <score_type>  (32) 
oracle

>  <origin>  (32) 
adgpu

>  <m_score__min__energy>  (32) 
-7.1399999999999997

>  <m_primary>  (32) 
energy

$$$$
32:0
     RDKit          3D

 33 34  0  0  0  0  0  0  0  0999 V2000
   -2.3587   23.1641  -30.1341 H   0  0  0  0  0  0  0  0  0  0  0  0
   -2.4640   24.1740  -29.7110 C   0  0  0  0  0  0  0  0  0  0  0  0
   -1.2950   24.8040  -29.0750 C   0  0  0  0  0  0  0  0  0  0  0  0
   -0.3430   24.1120  -28.6260 O   0  0  0  0  0  0  0  0  0  0  0  0
   -1.2400   26.1880  -28.9680 O   0  0  0  0  0  0  0  0  0  0  0  0
   -3.6520   24.7890  -29.7920 C   0  0  0  0  0  0  0  0  0  0  0  0
   -3.7460   25.7946  -29.3562 H   0  0  0  0  0  0  0  0  0  0  0  0
   -4.8480   24.1910  -30.4360 C   0  0  0  0  0  0  0  0  0  0  0  0
   -6.1490   24.6900  -30.2300 C   0  0  0  0  0  0  0  0  0  0  0  0
   -6.3051   25.5514  -29.5639 H   0  0  0  0  0  0  0  0  0  0  0  0
   -7.2430   24.0970  -30.8670 C   0  0  0  0  0  0  0  0  0  0  0  0
   -8.2535   24.4994  -30.7027 H   0  0  0  0  0  0  0  0  0  0  0  0
   -7.0640   22.9970  -31.7110 C   0  0  0  0  0  0  0  0  0  0  0  0
   -8.2130   22.4180  -32.3460 N   0  0  0  0  0  0  0  0  0  0  0  0
   -8.6370   21.0500  -32.2580 C   0  0  0  0  0  0  0  0  0  0  0  0
   -9.7590   20.7960  -31.7460 O   0  0  0  0  0  0  0  0  0  0  0  0
   -7.8050   19.9300  -32.7430 C   0  0  0  0  0  0  0  0  0  0  0  0
   -6.8460   20.2080  -33.6710 N   0  0  0  0  0  0  0  0  0  0  0  0
   -6.0100   19.2560  -34.1590 C   0  0  0  0  0  0  0  0  0  0  0  0
   -5.2523   19.5228  -34.9104 H   0  0  0  0  0  0  0  0  0  0  0  0
   -6.1110   17.9420  -33.7090 C   0  0  0  0  0  0  0  0  0  0  0  0
   -5.4220   17.1714  -34.0852 H   0  0  0  0  0  0  0  0  0  0  0  0
   -7.0940   17.6130  -32.7770 C   0  0  0  0  0  0  0  0  0  0  0  0
   -7.1797   16.5779  -32.4149 H   0  0  0  0  0  0  0  0  0  0  0  0
   -7.9750   18.5950  -32.2980 C   0  0  0  0  0  0  0  0  0  0  0  0
   -9.0600   18.1860  -31.3370 C   0  0  0  0  0  0  0  0  0  0  0  0
   -8.7049   18.3199  -30.3045 H   0  0  0  0  0  0  0  0  0  0  0  0
   -9.9506   18.8101  -31.5023 H   0  0  0  0  0  0  0  0  0  0  0  0
   -9.3170   17.1293  -31.5023 H   0  0  0  0  0  0  0  0  0  0  0  0
   -5.7650   22.5220  -31.9530 C   0  0  0  0  0  0  0  0  0  0  0  0
   -5.6095   21.6810  -32.6447 H   0  0  0  0  0  0  0  0  0  0  0  0
   -4.6690   23.1130  -31.3190 C   0  0  0  0  0  0  0  0  0  0  0  0
   -3.6561   22.7305  -31.5132 H   0  0  0  0  0  0  0  0  0  0  0  0
  1  2  1  0
  2  3  1  0
  3  4  2  0
  3  5  1  0
  2  6  2  0
  6  7  1  0
  6  8  1  0
  8  9  2  0
  9 10  1  0
  9 11  1  0
 11 12  1  0
 11 13  2  0
 13 14  1  0
 14 15  1  0
 15 16  2  0
 15 17  1  0
 17 18  2  0
 18 19  1  0
 19 20  1  0
 19 21  2  0
 21 22  1  0
 21 23  1  0
 23 24  1  0
 23 25  2  0
 25 26  1  0
 26 27  1  0
 26 28  1  0
 26 29  1  0
 13 30  1  0
 30 31  1  0
 30 32  2  0
 32 33  1  0
 32  8  1  0
 25 17  1  0
M  CHG  2   5  -1  14  -1
M  END
>  <UniqueID>  (33) 
30

>  <SMILES>  (33) 
Cc1cccnc1C(=O)[N-]c1ccc(/C=C/C(=O)[O-])cc1

>  <Energy>  (33) 
44.41833581861583

>  <Genealogy>  (33) 
Cc1cccnc1C(=O)[N-]c1ccc(C=CC(=O)[O-])cc1 (protonated)
Cc1cccnc1C(=O)[N-]c1ccc(/C=C/C(=O)[O-])cc1 (cis-trans isomerization)
Cc1cccnc1C(=O)[N-]c1ccc(/C=C/C(=O)[O-])cc1 (3D coordinates assigned)
Cc1cccnc1C(=O)[N-]c1ccc(/C=C/C(=O)[O-])cc1 (optimized conformer: 44.41833581861583 kcal/mol)

>  <smiles>  (33) 
Cc1cccnc1C(=O)Nc1ccc(C=CC(=O)O)cc1

>  <score_type>  (33) 
oracle

>  <origin>  (33) 
adgpu

>  <m_score__min__energy>  (33) 
-9.2599999999999998

>  <m_primary>  (33) 
energy

$$$$
33:0
     RDKit          3D

 39 40  0  0  0  0  0  0  0  0999 V2000
   -1.3600   20.8370  -31.9980 C   0  0  0  0  0  0  0  0  0  0  0  0
   -2.0210   20.0340  -33.0760 C   0  0  0  0  0  0  0  0  0  0  0  0
   -2.0750   20.5090  -34.2420 O   0  0  0  0  0  0  0  0  0  0  0  0
   -2.6310   18.7630  -32.8160 N   0  0  0  0  0  0  0  0  0  0  0  0
   -3.9300   18.3320  -33.2450 C   0  0  0  0  0  0  0  0  0  0  0  0
   -4.1190   17.9970  -34.5910 C   0  0  0  0  0  0  0  0  0  0  0  0
   -5.3660   17.5530  -35.0380 C   0  0  0  0  0  0  0  0  0  0  0  0
   -6.4270   17.4240  -34.1410 C   0  0  0  0  0  0  0  0  0  0  0  0
   -6.2460   17.7160  -32.7840 C   0  0  0  0  0  0  0  0  0  0  0  0
   -7.3320   17.5310  -31.9160 O   0  0  0  0  0  0  0  0  0  0  0  0
   -8.1830   18.5740  -31.4460 C   0  0  0  0  0  0  0  0  0  0  0  0
   -8.6590   19.4040  -32.6050 C   0  0  0  0  0  0  0  0  0  0  0  0
   -9.8360   19.2500  -33.0220 O   0  0  0  0  0  0  0  0  0  0  0  0
   -7.8190   20.3780  -33.2450 N   0  0  0  0  0  0  0  0  0  0  0  0
   -6.8880   21.2400  -32.5790 C   0  0  0  0  0  0  0  0  0  0  0  0
   -7.3580   22.1270  -31.6030 C   0  0  0  0  0  0  0  0  0  0  0  0
   -6.4600   22.9210  -30.8810 C   0  0  0  0  0  0  0  0  0  0  0  0
   -5.0860   22.8520  -31.1480 C   0  0  0  0  0  0  0  0  0  0  0  0
   -3.9410   23.7920  -30.1990 S   0  0  0  0  0  0  0  0  0  0  0  0
   -3.8780   25.4060  -30.8110 N   0  0  0  0  0  0  0  0  0  0  0  0
   -2.5730   23.1740  -30.2770 O   0  0  0  0  0  0  0  0  0  0  0  0
   -4.3780   23.8160  -28.7610 O   0  0  0  0  0  0  0  0  0  0  0  0
   -4.6190   21.9970  -32.1550 C   0  0  0  0  0  0  0  0  0  0  0  0
   -5.5160   21.2040  -32.8760 C   0  0  0  0  0  0  0  0  0  0  0  0
   -4.9900   18.1660  -32.3360 C   0  0  0  0  0  0  0  0  0  0  0  0
   -1.6725   20.4573  -31.0140 H   0  0  0  0  0  0  0  0  0  0  0  0
   -0.2676   20.7509  -32.0942 H   0  0  0  0  0  0  0  0  0  0  0  0
   -1.6545   21.8925  -32.0942 H   0  0  0  0  0  0  0  0  0  0  0  0
   -3.2822   18.0837  -35.2997 H   0  0  0  0  0  0  0  0  0  0  0  0
   -5.5117   17.3045  -36.0996 H   0  0  0  0  0  0  0  0  0  0  0  0
   -7.4112   17.0910  -34.5022 H   0  0  0  0  0  0  0  0  0  0  0  0
   -9.0500   18.1340  -30.9315 H   0  0  0  0  0  0  0  0  0  0  0  0
   -7.6226   19.2130  -30.7477 H   0  0  0  0  0  0  0  0  0  0  0  0
   -8.4372   22.2000  -31.4030 H   0  0  0  0  0  0  0  0  0  0  0  0
   -6.8337   23.6013  -30.1016 H   0  0  0  0  0  0  0  0  0  0  0  0
   -3.8720   26.0460  -29.9860 H   0  0  0  0  0  0  0  0  0  0  0  0
   -3.5430   21.9497  -32.3788 H   0  0  0  0  0  0  0  0  0  0  0  0
   -5.1460   20.5494  -33.6789 H   0  0  0  0  0  0  0  0  0  0  0  0
   -4.8368   18.3889  -31.2698 H   0  0  0  0  0  0  0  0  0  0  0  0
  1  2  1  0
  2  3  2  0
  2  4  1  0
  4  5  1  0
  5  6  2  0
  6  7  1  0
  7  8  2  0
  8  9  1  0
  9 10  1  0
 10 11  1  0
 11 12  1  0
 12 13  2  0
 12 14  1  0
 14 15  1  0
 15 16  2  0
 16 17  1  0
 17 18  2  0
 18 19  1  0
 19 20  1  0
 19 21  2  0
 19 22  2  0
 18 23  1  0
 23 24  2  0
  9 25  2  0
 25  5  1  0
 24 15  1  0
  1 26  1  0
  1 27  1  0
  1 28  1  0
  6 29  1  0
  7 30  1  0
  8 31  1  0
 11 32  1  0
 11 33  1  0
 16 34  1  0
 17 35  1  0
 20 36  1  0
 23 37  1  0
 24 38  1  0
 25 39  1  0
M  CHG  3   4  -1  14  -1  20  -1
M  END
>  <UniqueID>  (34) 
31

>  <SMILES>  (34) 
CC(=O)[N-]c1cccc(OCC(=O)[N-]c2ccc(S([NH-])(=O)=O)cc2)c1

>  <Energy>  (34) 
44.93421942347643

>  <Genealogy>  (34) 
CC(=O)[N-]c1cccc(OCC(=O)[N-]c2ccc(S([NH-])(=O)=O)cc2)c1 (protonated)
CC(=O)[N-]c1cccc(OCC(=O)[N-]c2ccc(S([NH-])(=O)=O)cc2)c1 (3D coordinates assigned)
CC(=O)[N-]c1cccc(OCC(=O)[N-]c2ccc(S([NH-])(=O)=O)cc2)c1 (optimized conformer: 44.93421942347643 kcal/mol)

>  <smiles>  (34) 
CC(=O)Nc1cccc(OCC(=O)Nc2ccc(S(N)(=O)=O)cc2)c1

>  <score_type>  (34) 
oracle

>  <origin>  (34) 
adgpu

>  <m_score__min__energy>  (34) 
-10.74

>  <m_primary>  (34) 
energy

$$$$
34:0
     RDKit          3D

 55 59  0  0  0  0  0  0  0  0999 V2000
   -9.8190   21.1720  -31.9250 C   0  0  0  0  0  0  0  0  0  0  0  0
   -9.4720   19.7990  -32.0630 O   0  0  0  0  0  0  0  0  0  0  0  0
   -8.1850   19.3350  -32.3720 C   0  0  0  0  0  0  0  0  0  0  0  0
   -7.7040   18.0900  -31.9240 C   0  0  0  0  0  0  0  0  0  0  0  0
   -6.4170   17.6680  -32.2680 C   0  0  0  0  0  0  0  0  0  0  0  0
   -5.5960   18.4750  -33.0710 C   0  0  0  0  0  0  0  0  0  0  0  0
   -4.2540   18.0050  -33.4680 C   0  0  0  0  0  0  0  0  0  0  0  0
   -3.0490   18.6750  -33.3070 C   0  0  0  0  0  0  0  0  0  0  0  0
   -2.8080   19.9360  -32.5830 C   0  0  0  0  0  0  0  0  0  0  0  0
   -3.2980   20.2820  -31.3400 C   0  0  0  0  0  0  0  0  0  0  0  0
   -2.8090   21.5560  -31.1290 C   0  0  0  0  0  0  0  0  0  0  0  0
   -3.0890   22.4260  -29.9640 C   0  0  0  0  0  0  0  0  0  0  0  0
   -3.6930   23.6830  -30.1530 C   0  0  0  0  0  0  0  0  0  0  0  0
   -4.0190   24.4850  -29.0560 C   0  0  0  0  0  0  0  0  0  0  0  0
   -3.7380   24.0460  -27.7570 C   0  0  0  0  0  0  0  0  0  0  0  0
   -4.2200   25.0430  -26.3490 S   0  0  0  0  0  0  0  0  0  0  0  0
   -2.5590   25.6760  -26.1420 C   0  0  0  0  0  0  0  0  0  0  0  0
   -2.0760   26.1290  -24.9650 N   0  0  0  0  0  0  0  0  0  0  0  0
   -0.7670   26.4880  -25.0640 C   0  0  0  0  0  0  0  0  0  0  0  0
   -0.0120   27.0170  -23.8860 C   0  0  0  0  0  0  0  0  0  0  0  0
   -0.2120   26.3300  -26.3350 C   0  0  0  0  0  0  0  0  0  0  0  0
    1.2100   26.5740  -26.7250 C   0  0  0  0  0  0  0  0  0  0  0  0
   -1.3900   25.6880  -27.3500 S   0  0  0  0  0  0  0  0  0  0  0  0
   -3.1070   22.8140  -27.5610 C   0  0  0  0  0  0  0  0  0  0  0  0
   -2.7890   22.0050  -28.6540 C   0  0  0  0  0  0  0  0  0  0  0  0
   -2.0590   21.9280  -32.1860 N   0  0  0  0  0  0  0  0  0  0  0  0
   -2.0510   20.9370  -33.0660 N   0  0  0  0  0  0  0  0  0  0  0  0
   -2.0640   17.9790  -33.9110 N   0  0  0  0  0  0  0  0  0  0  0  0
   -2.6830   16.8950  -34.4240 C   0  0  0  0  0  0  0  0  0  0  0  0
   -4.0080   16.8870  -34.1780 N   0  0  0  0  0  0  0  0  0  0  0  0
   -4.9650   15.8790  -34.6240 C   0  0  0  0  0  0  0  0  0  0  0  0
   -6.0690   19.7210  -33.5040 C   0  0  0  0  0  0  0  0  0  0  0  0
   -7.3550   20.1460  -33.1550 C   0  0  0  0  0  0  0  0  0  0  0  0
   -9.8838   21.4283  -30.8572 H   0  0  0  0  0  0  0  0  0  0  0  0
   -9.0500   21.7946  -32.4055 H   0  0  0  0  0  0  0  0  0  0  0  0
  -10.7915   21.3545  -32.4055 H   0  0  0  0  0  0  0  0  0  0  0  0
   -8.3434   17.4473  -31.3011 H   0  0  0  0  0  0  0  0  0  0  0  0
   -6.0451   16.6976  -31.9073 H   0  0  0  0  0  0  0  0  0  0  0  0
   -3.9321   19.6812  -30.6714 H   0  0  0  0  0  0  0  0  0  0  0  0
   -3.9101   24.0368  -31.1717 H   0  0  0  0  0  0  0  0  0  0  0  0
   -4.4973   25.4630  -29.2137 H   0  0  0  0  0  0  0  0  0  0  0  0
   -0.4958   26.6780  -22.9581 H   0  0  0  0  0  0  0  0  0  0  0  0
    1.0229   26.6454  -23.9168 H   0  0  0  0  0  0  0  0  0  0  0  0
   -0.0079   28.1166  -23.9168 H   0  0  0  0  0  0  0  0  0  0  0  0
    1.8256   26.6796  -25.8195 H   0  0  0  0  0  0  0  0  0  0  0  0
    1.5774   25.7258  -27.3213 H   0  0  0  0  0  0  0  0  0  0  0  0
    1.2736   27.4962  -27.3213 H   0  0  0  0  0  0  0  0  0  0  0  0
   -2.8601   22.4807  -26.5422 H   0  0  0  0  0  0  0  0  0  0  0  0
   -2.3011   21.0327  -28.4907 H   0  0  0  0  0  0  0  0  0  0  0  0
   -2.1622   16.1034  -34.9827 H   0  0  0  0  0  0  0  0  0  0  0  0
   -5.4236   15.3960  -33.7485 H   0  0  0  0  0  0  0  0  0  0  0  0
   -5.7477   16.3591  -35.2298 H   0  0  0  0  0  0  0  0  0  0  0  0
   -4.4450   15.1223  -35.2298 H   0  0  0  0  0  0  0  0  0  0  0  0
   -5.4267   20.3670  -34.1205 H   0  0  0  0  0  0  0  0  0  0  0  0
   -7.7174   21.1261  -33.4988 H   0  0  0  0  0  0  0  0  0  0  0  0
  1  2  1  0
  2  3  1  0
  3  4  2  0
  4  5  1  0
  5  6  2  0
  6  7  1  0
  7  8  2  0
  8  9  1  0
  9 10  1  0
 10 11  2  0
 11 12  1  0
 12 13  2  0
 13 14  1  0
 14 15  2  0
 15 16  1  0
 16 17  1  0
 17 18  2  0
 18 19  1  0
 19 20  1  0
 19 21  2  0
 21 22  1  0
 21 23  1  0
 15 24  1  0
 24 25  2  0
 11 26  1  0
 26 27  1  0
  8 28  1  0
 28 29  2  0
 29 30  1  0
 30 31  1  0
  6 32  1  0
 32 33  2  0
 33  3  1  0
 30  7  1  0
 27  9  2  0
 25 12  1  0
 23 17  1  0
  1 34  1  0
  1 35  1  0
  1 36  1  0
  4 37  1  0
  5 38  1  0
 10 39  1  0
 13 40  1  0
 14 41  1  0
 20 42  1  0
 20 43  1  0
 20 44  1  0
 22 45  1  0
 22 46  1  0
 22 47  1  0
 24 48  1  0
 25 49  1  0
 29 50  1  0
 31 51  1  0
 31 52  1  0
 31 53  1  0
 32 54  1  0
 33 55  1  0
M  CHG  1  26  -1
M  END
>  <UniqueID>  (35) 
32

>  <SMILES>  (35) 
COc1ccc(-c2c(-c3cc(-c4ccc(Sc5nc(C)c(C)s5)cc4)[n-]n3)ncn2C)cc1

>  <Energy>  (35) 
150.00586473627547

>  <Genealogy>  (35) 
COc1ccc(-c2c(-c3cc(-c4ccc(Sc5nc(C)c(C)s5)cc4)[n-]n3)ncn2C)cc1 (protonated)
COc1ccc(-c2c(-c3cc(-c4ccc(Sc5nc(C)c(C)s5)cc4)[n-]n3)ncn2C)cc1 (3D coordinates assigned)
COc1ccc(-c2c(-c3cc(-c4ccc(Sc5nc(C)c(C)s5)cc4)[n-]n3)ncn2C)cc1 (optimized conformer: 150.00586473627547 kcal/mol)

>  <smiles>  (35) 
COc1ccc(-c2c(-c3cc(-c4ccc(Sc5nc(C)c(C)s5)cc4)[nH]n3)ncn2C)cc1

>  <score_type>  (35) 
oracle

>  <origin>  (35) 
adgpu

>  <m_score__min__energy>  (35) 
-12.44

>  <m_primary>  (35) 
energy

$$$$
35:0
     RDKit          3D

 56 59  0  0  0  0  0  0  0  0999 V2000
   -8.4080   23.3770  -32.0020 C   0  0  0  0  0  0  0  0  0  0  0  0
   -7.6000   22.7370  -31.0180 O   0  0  0  0  0  0  0  0  0  0  0  0
   -6.1940   22.7170  -31.0200 C   0  0  0  0  0  0  0  0  0  0  0  0
   -5.4500   23.8150  -30.5420 C   0  0  0  0  0  0  0  0  0  0  0  0
   -4.0470   23.8120  -30.5930 C   0  0  0  0  0  0  0  0  0  0  0  0
   -3.2690   24.9100  -30.0910 N   0  0  0  0  0  0  0  0  0  0  0  0
   -2.3640   24.8580  -28.9830 C   0  0  0  0  0  0  0  0  0  0  0  0
   -2.1930   23.7600  -28.3860 O   0  0  0  0  0  0  0  0  0  0  0  0
   -1.6050   26.0130  -28.5970 N   0  0  0  0  0  0  0  0  0  0  0  0
   -1.1580   26.2720  -27.2540 C   0  0  0  0  0  0  0  0  0  0  0  0
   -0.1470   27.2170  -27.0370 C   0  0  0  0  0  0  0  0  0  0  0  0
    0.2750   27.5220  -25.7390 C   0  0  0  0  0  0  0  0  0  0  0  0
   -0.3270   26.9050  -24.6360 C   0  0  0  0  0  0  0  0  0  0  0  0
    0.1410   27.2260  -23.2480 C   0  0  0  0  0  0  0  0  0  0  0  0
   -1.3410   25.9570  -24.8480 C   0  0  0  0  0  0  0  0  0  0  0  0
   -1.7640   25.6540  -26.1440 C   0  0  0  0  0  0  0  0  0  0  0  0
   -3.3830   22.6830  -31.0760 C   0  0  0  0  0  0  0  0  0  0  0  0
   -4.1050   21.5830  -31.5370 C   0  0  0  0  0  0  0  0  0  0  0  0
   -5.5130   21.5800  -31.5160 C   0  0  0  0  0  0  0  0  0  0  0  0
   -6.2520   20.3730  -31.9790 C   0  0  0  0  0  0  0  0  0  0  0  0
   -7.5920   20.2630  -31.7660 N   0  0  0  0  0  0  0  0  0  0  0  0
   -8.2760   19.1810  -32.2080 C   0  0  0  0  0  0  0  0  0  0  0  0
   -9.5170   19.0950  -32.0030 O   0  0  0  0  0  0  0  0  0  0  0  0
   -7.6060   18.1690  -32.8900 C   0  0  0  0  0  0  0  0  0  0  0  0
   -6.2190   18.3080  -33.0850 C   0  0  0  0  0  0  0  0  0  0  0  0
   -5.4310   17.3070  -33.7750 N   0  0  0  0  0  0  0  0  0  0  0  0
   -5.6450   15.9050  -33.3720 C   0  0  0  0  0  0  0  0  0  0  0  0
   -4.9120   14.9000  -34.2550 C   0  0  0  0  0  0  0  0  0  0  0  0
   -3.5520   15.3670  -34.5210 N   0  0  0  0  0  0  0  0  0  0  0  0
   -3.6230   16.5550  -35.3670 C   0  0  0  0  0  0  0  0  0  0  0  0
   -4.2960   17.7180  -34.6290 C   0  0  0  0  0  0  0  0  0  0  0  0
   -5.6120   19.4000  -32.6200 O   0  0  0  0  0  0  0  0  0  0  0  0
   -9.1773   23.9863  -31.5050 H   0  0  0  0  0  0  0  0  0  0  0  0
   -7.7776   24.0234  -32.6303 H   0  0  0  0  0  0  0  0  0  0  0  0
   -8.8929   22.6153  -32.6303 H   0  0  0  0  0  0  0  0  0  0  0  0
   -5.9759   24.6858  -30.1234 H   0  0  0  0  0  0  0  0  0  0  0  0
   -1.3640   26.7040  -29.3430 H   0  0  0  0  0  0  0  0  0  0  0  0
    0.3190   27.7236  -27.8950 H   0  0  0  0  0  0  0  0  0  0  0  0
    1.0843   28.2507  -25.5839 H   0  0  0  0  0  0  0  0  0  0  0  0
   -0.5362   26.7615  -22.5161 H   0  0  0  0  0  0  0  0  0  0  0  0
    1.1593   26.8353  -23.1048 H   0  0  0  0  0  0  0  0  0  0  0  0
    0.1432   28.3166  -23.1048 H   0  0  0  0  0  0  0  0  0  0  0  0
   -1.8046   25.4504  -23.9887 H   0  0  0  0  0  0  0  0  0  0  0  0
   -2.5758   24.9279  -26.2983 H   0  0  0  0  0  0  0  0  0  0  0  0
   -2.2833   22.6611  -31.0930 H   0  0  0  0  0  0  0  0  0  0  0  0
   -3.5669   20.7046  -31.9228 H   0  0  0  0  0  0  0  0  0  0  0  0
   -8.1448   17.2866  -33.2655 H   0  0  0  0  0  0  0  0  0  0  0  0
   -5.2919   15.7822  -32.3375 H   0  0  0  0  0  0  0  0  0  0  0  0
   -6.7210   15.6999  -33.4724 H   0  0  0  0  0  0  0  0  0  0  0  0
   -4.8696   13.9276  -33.7425 H   0  0  0  0  0  0  0  0  0  0  0  0
   -5.4511   14.7960  -35.2082 H   0  0  0  0  0  0  0  0  0  0  0  0
   -3.0620   14.6200  -35.0630 H   0  0  0  0  0  0  0  0  0  0  0  0
   -2.6038   16.8532  -35.6540 H   0  0  0  0  0  0  0  0  0  0  0  0
   -4.2206   16.3141  -36.2585 H   0  0  0  0  0  0  0  0  0  0  0  0
   -3.5432   18.2072  -33.9933 H   0  0  0  0  0  0  0  0  0  0  0  0
   -4.7015   18.3927  -35.3973 H   0  0  0  0  0  0  0  0  0  0  0  0
  1  2  1  0
  2  3  1  0
  3  4  2  0
  4  5  1  0
  5  6  1  0
  6  7  1  0
  7  8  2  0
  7  9  1  0
  9 10  1  0
 10 11  2  0
 11 12  1  0
 12 13  2  0
 13 14  1  0
 13 15  1  0
 15 16  2  0
  5 17  2  0
 17 18  1  0
 18 19  2  0
 19 20  1  0
 20 21  2  0
 21 22  1  0
 22 23  2  0
 22 24  1  0
 24 25  2  0
 25 26  1  0
 26 27  1  0
 27 28  1  0
 28 29  1  0
 29 30  1  0
 30 31  1  0
 25 32  1  0
 19  3  1  0
 32 20  1  0
 16 10  1  0
 31 26  1  0
  1 33  1  0
  1 34  1  0
  1 35  1  0
  4 36  1  0
  9 37  1  0
 11 38  1  0
 12 39  1  0
 14 40  1  0
 14 41  1  0
 14 42  1  0
 15 43  1  0
 16 44  1  0
 17 45  1  0
 18 46  1  0
 24 47  1  0
 27 48  1  0
 27 49  1  0
 28 50  1  0
 28 51  1  0
 29 52  1  0
 30 53  1  0
 30 54  1  0
 31 55  1  0
 31 56  1  0
M  CHG  1   6  -1
M  END
>  <UniqueID>  (36) 
33

>  <SMILES>  (36) 
COc1cc([N-]C(=O)Nc2ccc(C)cc2)ccc1-c1nc(=O)cc(N2CCNCC2)o1

>  <Energy>  (36) 
70.60462684946253

>  <Genealogy>  (36) 
COc1cc([N-]C(=O)Nc2ccc(C)cc2)ccc1-c1nc(=O)cc(N2CCNCC2)o1 (protonated)
COc1cc([N-]C(=O)Nc2ccc(C)cc2)ccc1-c1nc(=O)cc(N2CCNCC2)o1 (3D coordinates assigned)
COc1cc([N-]C(=O)Nc2ccc(C)cc2)ccc1-c1nc(=O)cc(N2CCNCC2)o1 (nonaromatic ring conformer: 70.60462684946253 kcal/mol)

>  <smiles>  (36) 
COc1cc(NC(=O)Nc2ccc(C)cc2)ccc1-c1nc(=O)cc(N2CCNCC2)o1

>  <score_type>  (36) 
oracle

>  <origin>  (36) 
adgpu

>  <m_score__min__energy>  (36) 
-10.289999999999999

>  <m_primary>  (36) 
energy

$$$$
36:0
     RDKit          3D

 45 48  0  0  0  0  0  0  0  0999 V2000
   -5.7340   16.3660  -32.4930 C   0  0  0  0  0  0  0  0  0  0  0  0
   -6.7550   16.9450  -33.3830 N   0  0  0  0  0  0  0  0  0  0  0  0
   -7.6620   17.8710  -32.6530 C   0  0  0  0  0  0  0  0  0  0  0  0
   -7.3900   19.3620  -32.9330 C   0  0  0  0  0  0  0  0  0  0  0  0
   -5.9650   19.5780  -33.1960 N   0  0  0  0  0  0  0  0  0  0  0  0
   -5.1980   20.5270  -32.4280 C   0  0  0  0  0  0  0  0  0  0  0  0
   -5.8430   21.5020  -31.6510 C   0  0  0  0  0  0  0  0  0  0  0  0
   -5.1010   22.4310  -30.9170 C   0  0  0  0  0  0  0  0  0  0  0  0
   -3.6940   22.4100  -30.9510 C   0  0  0  0  0  0  0  0  0  0  0  0
   -2.8880   23.3880  -30.1800 C   0  0  0  0  0  0  0  0  0  0  0  0
   -1.7420   23.1340  -29.4490 C   0  0  0  0  0  0  0  0  0  0  0  0
   -1.3850   24.3680  -28.9320 C   0  0  0  0  0  0  0  0  0  0  0  0
   -0.2210   24.6730  -28.0640 C   0  0  0  0  0  0  0  0  0  0  0  0
    0.7610   23.6910  -27.8370 C   0  0  0  0  0  0  0  0  0  0  0  0
    1.8640   23.9630  -27.0220 C   0  0  0  0  0  0  0  0  0  0  0  0
    2.0010   25.2170  -26.4240 C   0  0  0  0  0  0  0  0  0  0  0  0
    3.0980   25.4860  -25.6150 O   0  0  0  0  0  0  0  0  0  0  0  0
    1.0340   26.2020  -26.6420 C   0  0  0  0  0  0  0  0  0  0  0  0
   -0.0710   25.9350  -27.4560 C   0  0  0  0  0  0  0  0  0  0  0  0
   -2.2760   25.2930  -29.3410 N   0  0  0  0  0  0  0  0  0  0  0  0
   -3.1860   24.7000  -30.0960 N   0  0  0  0  0  0  0  0  0  0  0  0
   -3.0520   21.4390  -31.7390 C   0  0  0  0  0  0  0  0  0  0  0  0
   -3.7950   20.5090  -32.4720 C   0  0  0  0  0  0  0  0  0  0  0  0
   -5.3220   18.7960  -34.2570 C   0  0  0  0  0  0  0  0  0  0  0  0
   -6.1540   17.5460  -34.5920 C   0  0  0  0  0  0  0  0  0  0  0  0
   -6.0249   16.5310  -31.4451 H   0  0  0  0  0  0  0  0  0  0  0  0
   -5.6504   15.2861  -32.6847 H   0  0  0  0  0  0  0  0  0  0  0  0
   -4.7643   16.8486  -32.6847 H   0  0  0  0  0  0  0  0  0  0  0  0
   -8.6974   17.6464  -32.9488 H   0  0  0  0  0  0  0  0  0  0  0  0
   -7.4851   17.7105  -31.5792 H   0  0  0  0  0  0  0  0  0  0  0  0
   -7.9731   19.6788  -33.8103 H   0  0  0  0  0  0  0  0  0  0  0  0
   -7.6847   19.9512  -32.0521 H   0  0  0  0  0  0  0  0  0  0  0  0
   -6.9421   21.5350  -31.6197 H   0  0  0  0  0  0  0  0  0  0  0  0
   -5.6207   23.1850  -30.3076 H   0  0  0  0  0  0  0  0  0  0  0  0
   -1.2301   22.1704  -29.3098 H   0  0  0  0  0  0  0  0  0  0  0  0
    0.6599   22.7006  -28.3049 H   0  0  0  0  0  0  0  0  0  0  0  0
    2.6253   23.1875  -26.8517 H   0  0  0  0  0  0  0  0  0  0  0  0
    1.1425   27.1905  -26.1717 H   0  0  0  0  0  0  0  0  0  0  0  0
   -0.8281   26.7153  -27.6228 H   0  0  0  0  0  0  0  0  0  0  0  0
   -1.9531   21.4106  -31.7793 H   0  0  0  0  0  0  0  0  0  0  0  0
   -3.2770   19.7584  -33.0871 H   0  0  0  0  0  0  0  0  0  0  0  0
   -5.2279   19.4193  -35.1584 H   0  0  0  0  0  0  0  0  0  0  0  0
   -4.3288   18.4766  -33.9083 H   0  0  0  0  0  0  0  0  0  0  0  0
   -6.9589   17.8298  -35.2860 H   0  0  0  0  0  0  0  0  0  0  0  0
   -5.4837   16.8014  -35.0462 H   0  0  0  0  0  0  0  0  0  0  0  0
  1  2  1  0
  2  3  1  0
  3  4  1  0
  4  5  1  0
  5  6  1  0
  6  7  2  0
  7  8  1  0
  8  9  2  0
  9 10  1  0
 10 11  1  0
 11 12  2  0
 12 13  1  0
 13 14  2  0
 14 15  1  0
 15 16  2  0
 16 17  1  0
 16 18  1  0
 18 19  2  0
 12 20  1  0
 20 21  1  0
  9 22  1  0
 22 23  2  0
  5 24  1  0
 24 25  1  0
 25  2  1  0
 23  6  1  0
 21 10  2  0
 19 13  1  0
  1 26  1  0
  1 27  1  0
  1 28  1  0
  3 29  1  0
  3 30  1  0
  4 31  1  0
  4 32  1  0
  7 33  1  0
  8 34  1  0
 11 35  1  0
 14 36  1  0
 15 37  1  0
 18 38  1  0
 19 39  1  0
 22 40  1  0
 23 41  1  0
 24 42  1  0
 24 43  1  0
 25 44  1  0
 25 45  1  0
M  CHG  2  17  -1  20  -1
M  END
>  <UniqueID>  (37) 
34

>  <SMILES>  (37) 
CN1CCN(c2ccc(-c3cc(-c4ccc([O-])cc4)[n-]n3)cc2)CC1

>  <Energy>  (37) 
92.25469870882618

>  <Genealogy>  (37) 
CN1CCN(c2ccc(-c3cc(-c4ccc([O-])cc4)[n-]n3)cc2)CC1 (protonated)
CN1CCN(c2ccc(-c3cc(-c4ccc([O-])cc4)[n-]n3)cc2)CC1 (3D coordinates assigned)
CN1CCN(c2ccc(-c3cc(-c4ccc([O-])cc4)[n-]n3)cc2)CC1 (nonaromatic ring conformer: 92.25469870882618 kcal/mol)

>  <smiles>  (37) 
CN1CCN(c2ccc(-c3cc(-c4ccc(O)cc4)[nH]n3)cc2)CC1

>  <score_type>  (37) 
oracle

>  <origin>  (37) 
adgpu

>  <m_score__min__energy>  (37) 
-9.5399999999999991

>  <m_primary>  (37) 
energy

$$$$
37:0
     RDKit          3D

 29 31  0  0  0  0  0  0  0  0999 V2000
   -4.8800   27.2050  -30.0930 H   0  0  0  0  0  0  0  0  0  0  0  0
   -5.4780   26.4400  -30.4790 N   0  0  0  0  0  0  0  0  0  0  0  0
   -5.0600   25.2180  -30.5310 C   0  0  0  0  0  0  0  0  0  0  0  0
   -3.8200   24.8980  -30.0790 N   0  0  0  0  0  0  0  0  0  0  0  0
   -3.3570   23.6210  -30.1280 C   0  0  0  0  0  0  0  0  0  0  0  0
   -1.9960   23.3410  -29.6280 C   0  0  0  0  0  0  0  0  0  0  0  0
   -1.1480   24.2850  -29.2900 O   0  0  0  0  0  0  0  0  0  0  0  0
   -0.0300   23.7280  -28.8860 C   0  0  0  0  0  0  0  0  0  0  0  0
    0.8611   24.2729  -28.5410 H   0  0  0  0  0  0  0  0  0  0  0  0
   -0.1430   22.3550  -28.9600 C   0  0  0  0  0  0  0  0  0  0  0  0
    0.6240   21.6134  -28.6921 H   0  0  0  0  0  0  0  0  0  0  0  0
   -1.4100   22.1000  -29.4370 C   0  0  0  0  0  0  0  0  0  0  0  0
   -1.8625   21.1155  -29.6268 H   0  0  0  0  0  0  0  0  0  0  0  0
   -4.1790   22.6130  -30.6530 C   0  0  0  0  0  0  0  0  0  0  0  0
   -3.8234   21.5735  -30.7076 H   0  0  0  0  0  0  0  0  0  0  0  0
   -5.4640   22.9530  -31.1080 C   0  0  0  0  0  0  0  0  0  0  0  0
   -6.3850   21.9370  -31.6790 C   0  0  0  0  0  0  0  0  0  0  0  0
   -7.7030   21.8380  -31.1960 C   0  0  0  0  0  0  0  0  0  0  0  0
   -8.0450   22.5175  -30.4014 H   0  0  0  0  0  0  0  0  0  0  0  0
   -8.5810   20.8840  -31.7170 C   0  0  0  0  0  0  0  0  0  0  0  0
   -9.6105   20.8193  -31.3349 H   0  0  0  0  0  0  0  0  0  0  0  0
   -8.1550   20.0130  -32.7210 C   0  0  0  0  0  0  0  0  0  0  0  0
   -8.8509   19.2672  -33.1326 H   0  0  0  0  0  0  0  0  0  0  0  0
   -6.8460   20.0870  -33.2040 C   0  0  0  0  0  0  0  0  0  0  0  0
   -6.4310   19.2020  -34.1980 O   0  0  0  0  0  0  0  0  0  0  0  0
   -6.8560   19.2020  -35.1180 H   0  0  0  0  0  0  0  0  0  0  0  0
   -5.9630   21.0440  -32.6840 C   0  0  0  0  0  0  0  0  0  0  0  0
   -4.9321   21.0981  -33.0638 H   0  0  0  0  0  0  0  0  0  0  0  0
   -5.8660   24.2510  -31.0400 N   0  0  0  0  0  0  0  0  0  0  0  0
  1  2  1  0
  2  3  2  0
  3  4  1  0
  4  5  2  0
  5  6  1  0
  6  7  1  0
  7  8  1  0
  8  9  1  0
  8 10  2  0
 10 11  1  0
 10 12  1  0
 12 13  1  0
  5 14  1  0
 14 15  1  0
 14 16  2  0
 16 17  1  0
 17 18  2  0
 18 19  1  0
 18 20  1  0
 20 21  1  0
 20 22  2  0
 22 23  1  0
 22 24  1  0
 24 25  1  0
 25 26  1  0
 24 27  2  0
 27 28  1  0
 16 29  1  0
 29  3  1  0
 12  6  2  0
 27 17  1  0
M  CHG  1  29  -1
M  END
>  <UniqueID>  (38) 
35

>  <SMILES>  (38) 
[H]/N=c1\nc(-c2ccco2)cc(-c2cccc(O)c2)[n-]1

>  <Energy>  (38) 
62.229483329837485

>  <Genealogy>  (38) 
N=c1nc(-c2ccco2)cc(-c2cccc(O)c2)[n-]1 (protonated)
[H]/N=c1\nc(-c2ccco2)cc(-c2cccc(O)c2)[n-]1 (cis-trans isomerization)
[H]/N=c1\nc(-c2ccco2)cc(-c2cccc(O)c2)[n-]1 (3D coordinates assigned)
[H]/N=c1\nc(-c2ccco2)cc(-c2cccc(O)c2)[n-]1 (optimized conformer: 62.229483329837485 kcal/mol)

>  <smiles>  (38) 
N=c1nc(-c2ccco2)cc(-c2cccc(O)c2)[nH]1

>  <score_type>  (38) 
oracle

>  <origin>  (38) 
adgpu

>  <m_score__min__energy>  (38) 
-8.3699999999999992

>  <m_primary>  (38) 
energy

$$$$
38:0
     RDKit          3D

 41 43  0  0  0  0  0  0  0  0999 V2000
   -4.1240   21.8470  -33.4890 O   0  0  0  0  0  0  0  0  0  0  0  0
   -4.7670   20.7930  -33.2360 C   0  0  0  0  0  0  0  0  0  0  0  0
   -4.1710   19.4760  -33.5780 C   0  0  0  0  0  0  0  0  0  0  0  0
   -2.9000   19.1080  -33.1020 C   0  0  0  0  0  0  0  0  0  0  0  0
   -2.3720   17.8590  -33.4330 C   0  0  0  0  0  0  0  0  0  0  0  0
   -3.0860   16.9990  -34.2060 N   0  0  0  0  0  0  0  0  0  0  0  0
   -4.3200   17.3200  -34.6720 C   0  0  0  0  0  0  0  0  0  0  0  0
   -4.8860   18.5590  -34.3650 C   0  0  0  0  0  0  0  0  0  0  0  0
   -6.0910   20.9070  -32.5790 C   0  0  0  0  0  0  0  0  0  0  0  0
   -6.8990   19.7610  -32.4750 C   0  0  0  0  0  0  0  0  0  0  0  0
   -8.1230   19.8130  -31.8050 C   0  0  0  0  0  0  0  0  0  0  0  0
   -9.1170   18.3730  -31.6810 Cl  0  0  0  0  0  0  0  0  0  0  0  0
   -8.5510   21.0080  -31.2270 C   0  0  0  0  0  0  0  0  0  0  0  0
   -7.7600   22.1540  -31.3200 C   0  0  0  0  0  0  0  0  0  0  0  0
   -6.5230   22.1200  -31.9920 C   0  0  0  0  0  0  0  0  0  0  0  0
   -5.7370   23.3190  -32.1180 N   0  0  0  0  0  0  0  0  0  0  0  0
   -5.1450   24.1970  -30.7440 S   0  0  0  0  0  0  0  0  0  0  0  0
   -6.3070   24.7990  -30.0050 O   0  0  0  0  0  0  0  0  0  0  0  0
   -4.2350   25.2980  -31.2110 O   0  0  0  0  0  0  0  0  0  0  0  0
   -4.2300   23.1150  -29.6970 C   0  0  0  0  0  0  0  0  0  0  0  0
   -3.5960   21.9930  -30.2430 C   0  0  0  0  0  0  0  0  0  0  0  0
   -2.8880   21.1130  -29.4200 C   0  0  0  0  0  0  0  0  0  0  0  0
   -2.8160   21.3360  -28.0340 C   0  0  0  0  0  0  0  0  0  0  0  0
   -2.0160   20.4140  -27.1510 C   0  0  0  0  0  0  0  0  0  0  0  0
   -0.9580   19.8620  -27.8530 F   0  0  0  0  0  0  0  0  0  0  0  0
   -1.5010   21.1000  -26.0650 F   0  0  0  0  0  0  0  0  0  0  0  0
   -2.8340   19.3970  -26.6940 F   0  0  0  0  0  0  0  0  0  0  0  0
   -3.4280   22.4830  -27.4960 C   0  0  0  0  0  0  0  0  0  0  0  0
   -4.1360   23.3620  -28.3210 C   0  0  0  0  0  0  0  0  0  0  0  0
   -2.3243   19.8015  -32.4715 H   0  0  0  0  0  0  0  0  0  0  0  0
   -1.3756   17.5701  -33.0673 H   0  0  0  0  0  0  0  0  0  0  0  0
   -4.8756   16.6020  -35.2932 H   0  0  0  0  0  0  0  0  0  0  0  0
   -5.8884   18.8157  -34.7383 H   0  0  0  0  0  0  0  0  0  0  0  0
   -6.5639   18.8151  -32.9255 H   0  0  0  0  0  0  0  0  0  0  0  0
   -9.5140   21.0473  -30.6968 H   0  0  0  0  0  0  0  0  0  0  0  0
   -8.1063   23.0932  -30.8638 H   0  0  0  0  0  0  0  0  0  0  0  0
   -5.4160   23.6350  -33.0590 H   0  0  0  0  0  0  0  0  0  0  0  0
   -3.6553   21.8030  -31.3248 H   0  0  0  0  0  0  0  0  0  0  0  0
   -2.3837   20.2399  -29.8598 H   0  0  0  0  0  0  0  0  0  0  0  0
   -3.3488   22.6896  -26.4185 H   0  0  0  0  0  0  0  0  0  0  0  0
   -4.6206   24.2499  -27.8887 H   0  0  0  0  0  0  0  0  0  0  0  0
  1  2  2  0
  2  3  1  0
  3  4  2  0
  4  5  1  0
  5  6  2  0
  6  7  1  0
  7  8  2  0
  2  9  1  0
  9 10  2  0
 10 11  1  0
 11 12  1  0
 11 13  2  0
 13 14  1  0
 14 15  2  0
 15 16  1  0
 16 17  1  0
 17 18  2  0
 17 19  2  0
 17 20  1  0
 20 21  2  0
 21 22  1  0
 22 23  2  0
 23 24  1  0
 24 25  1  0
 24 26  1  0
 24 27  1  0
 23 28  1  0
 28 29  2  0
  8  3  1  0
 15  9  1  0
 29 20  1  0
  4 30  1  0
  5 31  1  0
  7 32  1  0
  8 33  1  0
 10 34  1  0
 13 35  1  0
 14 36  1  0
 16 37  1  0
 21 38  1  0
 22 39  1  0
 28 40  1  0
 29 41  1  0
M  END
>  <UniqueID>  (39) 
36

>  <SMILES>  (39) 
O=C(c1ccncc1)c1cc(Cl)ccc1NS(=O)(=O)c1ccc(C(F)(F)F)cc1

>  <Energy>  (39) 
56.28688479495368

>  <Genealogy>  (39) 
O=C(c1ccncc1)c1cc(Cl)ccc1NS(=O)(=O)c1ccc(C(F)(F)F)cc1 (3D coordinates assigned)
O=C(c1ccncc1)c1cc(Cl)ccc1NS(=O)(=O)c1ccc(C(F)(F)F)cc1 (optimized conformer: 56.28688479495368 kcal/mol)

>  <smiles>  (39) 
O=C(c1ccncc1)c1cc(Cl)ccc1NS(=O)(=O)c1ccc(C(F)(F)F)cc1

>  <score_type>  (39) 
oracle

>  <origin>  (39) 
adgpu

>  <m_score__min__energy>  (39) 
-10.140000000000001

>  <m_primary>  (39) 
energy

$$$$
39:0
     RDKit          3D

 36 37  0  0  0  0  0  0  0  0999 V2000
   -7.5680   20.2710  -33.0890 C   0  0  0  0  0  0  0  0  0  0  0  0
   -7.6640   20.6650  -31.3130 S   0  0  0  0  0  0  0  0  0  0  0  0
   -7.9450   22.4640  -31.5250 C   0  0  0  0  0  0  0  0  0  0  0  0
   -6.9450   23.2870  -30.7040 C   0  0  0  0  0  0  0  0  0  0  0  0
   -6.0790   24.2310  -31.5680 C   0  0  2  0  0  0  0  0  0  0  0  0
   -5.0850   23.4890  -32.3460 N   0  0  0  0  0  0  0  0  0  0  0  0
   -4.3050   22.3830  -31.8750 C   0  0  0  0  0  0  0  0  0  0  0  0
   -4.5760   21.2060  -32.2350 O   0  0  0  0  0  0  0  0  0  0  0  0
   -3.1820   22.6280  -30.9640 C   0  0  0  0  0  0  0  0  0  0  0  0
   -3.2300   23.3300  -29.7780 C   0  0  0  0  0  0  0  0  0  0  0  0
   -1.9290   23.2700  -29.3070 C   0  0  0  0  0  0  0  0  0  0  0  0
   -1.3950   23.8620  -28.0530 C   0  0  0  0  0  0  0  0  0  0  0  0
   -1.0350   23.0370  -26.9670 C   0  0  0  0  0  0  0  0  0  0  0  0
   -0.5330   23.5920  -25.7880 C   0  0  0  0  0  0  0  0  0  0  0  0
   -0.3810   24.9740  -25.6730 C   0  0  0  0  0  0  0  0  0  0  0  0
   -0.7330   25.8050  -26.7360 C   0  0  0  0  0  0  0  0  0  0  0  0
   -1.2370   25.2600  -27.9230 C   0  0  0  0  0  0  0  0  0  0  0  0
   -1.5760   26.1210  -28.9610 O   0  0  0  0  0  0  0  0  0  0  0  0
   -1.2120   22.5840  -30.1700 O   0  0  0  0  0  0  0  0  0  0  0  0
   -1.9300   22.1830  -31.1770 N   0  0  0  0  0  0  0  0  0  0  0  0
   -5.4080   25.2970  -30.7450 C   0  0  0  0  0  0  0  0  0  0  0  0
   -6.0710   25.9250  -29.8770 O   0  0  0  0  0  0  0  0  0  0  0  0
   -4.0780   25.6380  -30.9620 O   0  0  0  0  0  0  0  0  0  0  0  0
   -7.3093   19.2094  -33.2156 H   0  0  0  0  0  0  0  0  0  0  0  0
   -8.5410   20.4702  -33.5619 H   0  0  0  0  0  0  0  0  0  0  0  0
   -6.7957   20.8955  -33.5619 H   0  0  0  0  0  0  0  0  0  0  0  0
   -7.8321   22.7210  -32.5886 H   0  0  0  0  0  0  0  0  0  0  0  0
   -8.9598   22.6999  -31.1720 H   0  0  0  0  0  0  0  0  0  0  0  0
   -7.5050   23.8937  -29.9772 H   0  0  0  0  0  0  0  0  0  0  0  0
   -6.2637   22.5773  -30.2120 H   0  0  0  0  0  0  0  0  0  0  0  0
   -6.7661   24.7292  -32.2678 H   0  0  0  0  0  0  0  0  0  0  0  0
   -4.0979   23.8221  -29.3148 H   0  0  0  0  0  0  0  0  0  0  0  0
   -1.1508   21.9462  -27.0496 H   0  0  0  0  0  0  0  0  0  0  0  0
   -0.2567   22.9379  -24.9479 H   0  0  0  0  0  0  0  0  0  0  0  0
    0.0165   25.4082  -24.7438 H   0  0  0  0  0  0  0  0  0  0  0  0
   -0.6141   26.8945  -26.6414 H   0  0  0  0  0  0  0  0  0  0  0  0
  1  2  1  0
  2  3  1  0
  3  4  1  0
  4  5  1  0
  5  6  1  0
  6  7  1  0
  7  8  2  0
  7  9  1  0
  9 10  1  0
 10 11  2  0
 11 12  1  0
 12 13  2  0
 13 14  1  0
 14 15  2  0
 15 16  1  0
 16 17  2  0
 17 18  1  0
 11 19  1  0
 19 20  1  0
  5 21  1  0
 21 22  2  0
 21 23  1  0
 20  9  2  0
 17 12  1  0
  1 24  1  0
  1 25  1  0
  1 26  1  0
  3 27  1  0
  3 28  1  0
  4 29  1  0
  4 30  1  0
  5 31  1  6
 10 32  1  0
 13 33  1  0
 14 34  1  0
 15 35  1  0
 16 36  1  0
M  CHG  3   6  -1  18  -1  23  -1
M  END
>  <UniqueID>  (40) 
37

>  <SMILES>  (40) 
CSCC[C@H]([N-]C(=O)c1cc(-c2ccccc2[O-])on1)C(=O)[O-]

>  <Energy>  (40) 
61.99901968914312

>  <Genealogy>  (40) 
CSCCC([N-]C(=O)c1cc(-c2ccccc2[O-])on1)C(=O)[O-] (protonated)
CSCC[C@H]([N-]C(=O)c1cc(-c2ccccc2[O-])on1)C(=O)[O-] (chirality)
CSCC[C@H]([N-]C(=O)c1cc(-c2ccccc2[O-])on1)C(=O)[O-] (3D coordinates assigned)
CSCC[C@H]([N-]C(=O)c1cc(-c2ccccc2[O-])on1)C(=O)[O-] (optimized conformer: 61.99901968914312 kcal/mol)

>  <smiles>  (40) 
CSCCC(NC(=O)c1cc(-c2ccccc2O)on1)C(=O)O

>  <score_type>  (40) 
oracle

>  <origin>  (40) 
adgpu

>  <m_score__min__energy>  (40) 
-11.65

>  <m_primary>  (40) 
energy

$$$$
40:0
     RDKit          3D

 40 42  0  0  0  0  0  0  0  0999 V2000
   -9.5730   21.7500  -31.6660 C   0  0  0  0  0  0  0  0  0  0  0  0
   -8.0690   22.0700  -31.5760 C   0  0  0  0  0  0  0  0  0  0  0  0
   -7.6690   22.3010  -30.1010 C   0  0  0  0  0  0  0  0  0  0  0  0
   -7.8070   23.3880  -32.3400 C   0  0  0  0  0  0  0  0  0  0  0  0
   -7.2660   20.9150  -32.1920 C   0  0  0  0  0  0  0  0  0  0  0  0
   -7.7940   19.6890  -32.4550 N   0  0  0  0  0  0  0  0  0  0  0  0
   -6.8090   18.9480  -32.9850 C   0  0  0  0  0  0  0  0  0  0  0  0
   -6.8890   17.6220  -33.4130 C   0  0  0  0  0  0  0  0  0  0  0  0
   -5.7250   17.0280  -33.9330 C   0  0  0  0  0  0  0  0  0  0  0  0
   -4.5200   17.7600  -34.0080 C   0  0  0  0  0  0  0  0  0  0  0  0
   -4.4710   19.0950  -33.5660 C   0  0  0  0  0  0  0  0  0  0  0  0
   -5.6450   19.6600  -33.0620 C   0  0  0  0  0  0  0  0  0  0  0  0
   -5.9020   20.9160  -32.5510 C   0  0  0  0  0  0  0  0  0  0  0  0
   -4.9040   21.9920  -32.4170 C   0  0  0  0  0  0  0  0  0  0  0  0
   -4.2270   22.3190  -33.4270 O   0  0  0  0  0  0  0  0  0  0  0  0
   -4.7120   22.7140  -31.1330 C   0  0  0  0  0  0  0  0  0  0  0  0
   -4.1790   22.0600  -30.0050 C   0  0  0  0  0  0  0  0  0  0  0  0
   -4.0000   22.7530  -28.8040 C   0  0  0  0  0  0  0  0  0  0  0  0
   -4.3440   24.1040  -28.7150 C   0  0  0  0  0  0  0  0  0  0  0  0
   -4.8650   24.7660  -29.8290 C   0  0  0  0  0  0  0  0  0  0  0  0
   -5.0470   24.0770  -31.0320 C   0  0  0  0  0  0  0  0  0  0  0  0
   -9.9903   21.6612  -30.6521 H   0  0  0  0  0  0  0  0  0  0  0  0
  -10.0883   22.5586  -32.2051 H   0  0  0  0  0  0  0  0  0  0  0  0
   -9.7145   20.8016  -32.2051 H   0  0  0  0  0  0  0  0  0  0  0  0
   -8.4312   21.8609  -29.4412 H   0  0  0  0  0  0  0  0  0  0  0  0
   -6.6964   21.8255  -29.9061 H   0  0  0  0  0  0  0  0  0  0  0  0
   -7.5947   23.3810  -29.9061 H   0  0  0  0  0  0  0  0  0  0  0  0
   -7.6449   24.2034  -31.6197 H   0  0  0  0  0  0  0  0  0  0  0  0
   -6.9139   23.2742  -32.9720 H   0  0  0  0  0  0  0  0  0  0  0  0
   -8.6757   23.6244  -32.9720 H   0  0  0  0  0  0  0  0  0  0  0  0
   -8.7710   19.3600  -32.2900 H   0  0  0  0  0  0  0  0  0  0  0  0
   -7.8320   17.0596  -33.3458 H   0  0  0  0  0  0  0  0  0  0  0  0
   -5.7536   15.9858  -34.2837 H   0  0  0  0  0  0  0  0  0  0  0  0
   -3.6150   17.2843  -34.4140 H   0  0  0  0  0  0  0  0  0  0  0  0
   -3.5379   19.6753  -33.6158 H   0  0  0  0  0  0  0  0  0  0  0  0
   -3.9019   20.9974  -30.0695 H   0  0  0  0  0  0  0  0  0  0  0  0
   -3.5872   22.2331  -27.9269 H   0  0  0  0  0  0  0  0  0  0  0  0
   -4.2046   24.6461  -27.7681 H   0  0  0  0  0  0  0  0  0  0  0  0
   -5.1325   25.8307  -29.7599 H   0  0  0  0  0  0  0  0  0  0  0  0
   -5.4554   24.6047  -31.9065 H   0  0  0  0  0  0  0  0  0  0  0  0
  1  2  1  0
  2  3  1  0
  2  4  1  0
  2  5  1  0
  5  6  1  0
  6  7  1  0
  7  8  2  0
  8  9  1  0
  9 10  2  0
 10 11  1  0
 11 12  2  0
 12 13  1  0
 13 14  1  0
 14 15  2  0
 14 16  1  0
 16 17  2  0
 17 18  1  0
 18 19  2  0
 19 20  1  0
 20 21  2  0
 13  5  2  0
 21 16  1  0
 12  7  1  0
  1 22  1  0
  1 23  1  0
  1 24  1  0
  3 25  1  0
  3 26  1  0
  3 27  1  0
  4 28  1  0
  4 29  1  0
  4 30  1  0
  6 31  1  0
  8 32  1  0
  9 33  1  0
 10 34  1  0
 11 35  1  0
 17 36  1  0
 18 37  1  0
 19 38  1  0
 20 39  1  0
 21 40  1  0
M  END
>  <UniqueID>  (41) 
38

>  <SMILES>  (41) 
CC(C)(C)c1[nH]c2ccccc2c1C(=O)c1ccccc1

>  <Energy>  (41) 
81.81552919463769

>  <Genealogy>  (41) 
CC(C)(C)c1[nH]c2ccccc2c1C(=O)c1ccccc1 (3D coordinates assigned)
CC(C)(C)c1[nH]c2ccccc2c1C(=O)c1ccccc1 (optimized conformer: 81.81552919463769 kcal/mol)

>  <smiles>  (41) 
CC(C)(C)c1[nH]c2ccccc2c1C(=O)c1ccccc1

>  <score_type>  (41) 
oracle

>  <origin>  (41) 
adgpu

>  <m_score__min__energy>  (41) 
-8.0399999999999991

>  <m_primary>  (41) 
energy

$$$$
41:0
     RDKit          3D

 36 37  0  0  0  0  0  0  0  0999 V2000
   -8.2460   19.0350  -32.0080 C   0  0  0  0  0  0  0  0  0  0  0  0
   -7.2320   19.6230  -33.3990 S   0  0  0  0  0  0  0  0  0  0  0  0
   -6.7040   21.1010  -32.5370 C   0  0  0  0  0  0  0  0  0  0  0  0
   -5.3450   21.3390  -32.3130 C   0  0  0  0  0  0  0  0  0  0  0  0
   -4.9590   22.4870  -31.6190 C   0  0  0  0  0  0  0  0  0  0  0  0
   -5.9290   23.3840  -31.1590 C   0  0  0  0  0  0  0  0  0  0  0  0
   -5.4790   24.8040  -30.2190 S   0  0  0  0  0  0  0  0  0  0  0  0
   -6.6920   25.6730  -30.0480 O   0  0  0  0  0  0  0  0  0  0  0  0
   -4.4070   25.5900  -30.9210 O   0  0  0  0  0  0  0  0  0  0  0  0
   -4.8950   24.3150  -28.6590 N   0  0  0  0  0  0  0  0  0  0  0  0
   -3.7190   23.5040  -28.4750 C   0  0  0  0  0  0  0  0  0  0  0  0
   -3.8090   22.2030  -27.9480 C   0  0  0  0  0  0  0  0  0  0  0  0
   -2.6580   21.4310  -27.7460 C   0  0  0  0  0  0  0  0  0  0  0  0
   -2.7660   20.0740  -27.1140 C   0  0  0  0  0  0  0  0  0  0  0  0
   -1.4030   21.9630  -28.0690 C   0  0  0  0  0  0  0  0  0  0  0  0
   -1.2960   23.2440  -28.6290 C   0  0  0  0  0  0  0  0  0  0  0  0
    0.0560   23.8070  -28.9680 C   0  0  0  0  0  0  0  0  0  0  0  0
   -2.4560   24.0160  -28.8240 C   0  0  0  0  0  0  0  0  0  0  0  0
   -2.3490   25.3010  -29.3510 O   0  0  0  0  0  0  0  0  0  0  0  0
   -7.2790   23.1150  -31.4180 C   0  0  0  0  0  0  0  0  0  0  0  0
   -7.6330   21.9890  -32.0930 N   0  0  0  0  0  0  0  0  0  0  0  0
   -7.7643   19.3143  -31.0593 H   0  0  0  0  0  0  0  0  0  0  0  0
   -9.2440   19.4945  -32.0618 H   0  0  0  0  0  0  0  0  0  0  0  0
   -8.3429   17.9406  -32.0618 H   0  0  0  0  0  0  0  0  0  0  0  0
   -4.5883   20.6297  -32.6794 H   0  0  0  0  0  0  0  0  0  0  0  0
   -3.8931   22.6862  -31.4340 H   0  0  0  0  0  0  0  0  0  0  0  0
   -5.5130   24.5200  -27.8430 H   0  0  0  0  0  0  0  0  0  0  0  0
   -4.7946   21.7872  -27.6916 H   0  0  0  0  0  0  0  0  0  0  0  0
   -2.7577   20.1778  -26.0189 H   0  0  0  0  0  0  0  0  0  0  0  0
   -3.7050   19.5961  -27.4299 H   0  0  0  0  0  0  0  0  0  0  0  0
   -1.9144   19.4535  -27.4299 H   0  0  0  0  0  0  0  0  0  0  0  0
   -0.4947   21.3714  -27.8819 H   0  0  0  0  0  0  0  0  0  0  0  0
    0.6017   24.0342  -28.0403 H   0  0  0  0  0  0  0  0  0  0  0  0
    0.6231   23.0702  -29.5559 H   0  0  0  0  0  0  0  0  0  0  0  0
   -0.0674   24.7285  -29.5559 H   0  0  0  0  0  0  0  0  0  0  0  0
   -8.0542   23.8159  -31.0747 H   0  0  0  0  0  0  0  0  0  0  0  0
  1  2  1  0
  2  3  1  0
  3  4  2  0
  4  5  1  0
  5  6  2  0
  6  7  1  0
  7  8  2  0
  7  9  2  0
  7 10  1  0
 10 11  1  0
 11 12  2  0
 12 13  1  0
 13 14  1  0
 13 15  2  0
 15 16  1  0
 16 17  1  0
 16 18  2  0
 18 19  1  0
  6 20  1  0
 20 21  2  0
 21  3  1  0
 18 11  1  0
  1 22  1  0
  1 23  1  0
  1 24  1  0
  4 25  1  0
  5 26  1  0
 10 27  1  0
 12 28  1  0
 14 29  1  0
 14 30  1  0
 14 31  1  0
 15 32  1  0
 17 33  1  0
 17 34  1  0
 17 35  1  0
 20 36  1  0
M  CHG  1  19  -1
M  END
>  <UniqueID>  (42) 
39

>  <SMILES>  (42) 
CSc1ccc(S(=O)(=O)Nc2cc(C)cc(C)c2[O-])cn1

>  <Energy>  (42) 
34.92288919999415

>  <Genealogy>  (42) 
CSc1ccc(S(=O)(=O)Nc2cc(C)cc(C)c2[O-])cn1 (protonated)
CSc1ccc(S(=O)(=O)Nc2cc(C)cc(C)c2[O-])cn1 (3D coordinates assigned)
CSc1ccc(S(=O)(=O)Nc2cc(C)cc(C)c2[O-])cn1 (optimized conformer: 34.92288919999415 kcal/mol)

>  <smiles>  (42) 
CSc1ccc(S(=O)(=O)Nc2cc(C)cc(C)c2O)cn1

>  <score_type>  (42) 
oracle

>  <origin>  (42) 
adgpu

>  <m_score__min__energy>  (42) 
-11.720000000000001

>  <m_primary>  (42) 
energy

$$$$
42:0
     RDKit          3D

 50 53  0  0  0  0  0  0  0  0999 V2000
   -8.8380   23.1990  -32.3330 O   0  0  0  0  0  0  0  0  0  0  0  0
   -7.9650   22.2880  -31.5140 S   0  0  0  0  0  0  0  0  0  0  0  0
   -8.7360   21.8280  -30.3080 O   0  0  0  0  0  0  0  0  0  0  0  0
   -7.4430   20.8760  -32.4900 C   0  0  0  0  0  0  0  0  0  0  0  0
   -8.4270   19.6870  -32.5570 C   0  0  2  0  0  0  0  0  0  0  0  0
   -8.6890   19.0360  -31.2660 C   0  0  0  0  0  0  0  0  0  0  0  0
   -7.7620   17.9630  -32.4470 S   0  0  0  0  0  0  0  0  0  0  0  0
   -6.5340   23.1650  -30.9840 C   0  0  0  0  0  0  0  0  0  0  0  0
   -6.6580   24.3850  -30.3060 C   0  0  0  0  0  0  0  0  0  0  0  0
   -5.5170   25.0800  -29.8970 C   0  0  0  0  0  0  0  0  0  0  0  0
   -4.2410   24.5780  -30.1780 C   0  0  0  0  0  0  0  0  0  0  0  0
   -3.1200   25.2960  -29.7360 O   0  0  0  0  0  0  0  0  0  0  0  0
   -2.2790   24.9140  -28.6800 C   0  0  0  0  0  0  0  0  0  0  0  0
   -2.7190   23.9230  -27.7930 C   0  0  0  0  0  0  0  0  0  0  0  0
   -1.9130   23.5220  -26.7240 C   0  0  0  0  0  0  0  0  0  0  0  0
   -0.6610   24.1250  -26.5170 C   0  0  0  0  0  0  0  0  0  0  0  0
    0.2270   23.6720  -25.3830 C   0  0  0  0  0  0  0  0  0  0  0  0
    0.3460   24.7160  -24.3420 N   0  0  0  0  0  0  0  0  0  0  0  0
    1.4300   25.6610  -24.6410 C   0  0  0  0  0  0  0  0  0  0  0  0
    1.0810   26.9670  -23.9420 C   0  0  0  0  0  0  0  0  0  0  0  0
   -0.4160   26.8970  -23.6780 C   0  0  0  0  0  0  0  0  0  0  0  0
   -0.8610   25.5440  -24.2170 C   0  0  0  0  0  0  0  0  0  0  0  0
   -0.2270   25.1280  -27.3950 C   0  0  0  0  0  0  0  0  0  0  0  0
   -1.0320   25.5260  -28.4660 C   0  0  0  0  0  0  0  0  0  0  0  0
   -4.1180   23.3510  -30.8540 C   0  0  0  0  0  0  0  0  0  0  0  0
   -5.2600   22.6530  -31.2590 C   0  0  0  0  0  0  0  0  0  0  0  0
   -7.2696   21.2255  -33.5185 H   0  0  0  0  0  0  0  0  0  0  0  0
   -6.5470   20.4862  -31.9848 H   0  0  0  0  0  0  0  0  0  0  0  0
   -9.0635   20.1576  -33.3208 H   0  0  0  0  0  0  0  0  0  0  0  0
   -8.1715   19.4084  -30.3696 H   0  0  0  0  0  0  0  0  0  0  0  0
   -9.6174   18.8746  -30.6985 H   0  0  0  0  0  0  0  0  0  0  0  0
   -7.6561   24.7966  -30.0952 H   0  0  0  0  0  0  0  0  0  0  0  0
   -5.6223   26.0286  -29.3502 H   0  0  0  0  0  0  0  0  0  0  0  0
   -3.7050   23.4576  -27.9388 H   0  0  0  0  0  0  0  0  0  0  0  0
   -2.2600   22.7315  -26.0423 H   0  0  0  0  0  0  0  0  0  0  0  0
   -0.2019   22.7646  -24.9328 H   0  0  0  0  0  0  0  0  0  0  0  0
    1.2298   23.4698  -25.7874 H   0  0  0  0  0  0  0  0  0  0  0  0
    0.5500   24.2670  -23.4160 H   0  0  0  0  0  0  0  0  0  0  0  0
    2.3865   25.2723  -24.2614 H   0  0  0  0  0  0  0  0  0  0  0  0
    1.5352   25.8101  -25.7258 H   0  0  0  0  0  0  0  0  0  0  0  0
    1.6348   27.0570  -22.9958 H   0  0  0  0  0  0  0  0  0  0  0  0
    1.3480   27.8419  -24.5530 H   0  0  0  0  0  0  0  0  0  0  0  0
   -0.6199   26.9671  -22.5993 H   0  0  0  0  0  0  0  0  0  0  0  0
   -0.9548   27.7259  -24.1604 H   0  0  0  0  0  0  0  0  0  0  0  0
   -1.5713   25.0745  -23.5205 H   0  0  0  0  0  0  0  0  0  0  0  0
   -1.3652   25.6539  -25.1884 H   0  0  0  0  0  0  0  0  0  0  0  0
    0.7524   25.6043  -27.2402 H   0  0  0  0  0  0  0  0  0  0  0  0
   -0.6883   26.3212  -29.1439 H   0  0  0  0  0  0  0  0  0  0  0  0
   -3.1201   22.9389  -31.0649 H   0  0  0  0  0  0  0  0  0  0  0  0
   -5.1572   21.6983  -31.7956 H   0  0  0  0  0  0  0  0  0  0  0  0
  1  2  2  0
  2  3  2  0
  2  4  1  0
  4  5  1  0
  5  6  1  0
  6  7  1  0
  2  8  1  0
  8  9  2  0
  9 10  1  0
 10 11  2  0
 11 12  1  0
 12 13  1  0
 13 14  2  0
 14 15  1  0
 15 16  2  0
 16 17  1  0
 17 18  1  0
 18 19  1  0
 19 20  1  0
 20 21  1  0
 21 22  1  0
 16 23  1  0
 23 24  2  0
 11 25  1  0
 25 26  2  0
  7  5  1  0
 26  8  1  0
 24 13  1  0
 22 18  1  0
  4 27  1  0
  4 28  1  0
  5 29  1  6
  6 30  1  0
  6 31  1  0
  9 32  1  0
 10 33  1  0
 14 34  1  0
 15 35  1  0
 17 36  1  0
 17 37  1  0
 18 38  1  0
 19 39  1  0
 19 40  1  0
 20 41  1  0
 20 42  1  0
 21 43  1  0
 21 44  1  0
 22 45  1  0
 22 46  1  0
 23 47  1  0
 24 48  1  0
 25 49  1  0
 26 50  1  0
M  CHG  1  18   1
M  END
>  <UniqueID>  (43) 
40

>  <SMILES>  (43) 
O=S(=O)(C[C@@H]1CS1)c1ccc(Oc2ccc(C[NH+]3CCCC3)cc2)cc1

>  <Energy>  (43) 
259.21021307090086

>  <Genealogy>  (43) 
O=S(=O)(CC1CS1)c1ccc(Oc2ccc(C[NH+]3CCCC3)cc2)cc1 (protonated)
O=S(=O)(C[C@@H]1CS1)c1ccc(Oc2ccc(C[NH+]3CCCC3)cc2)cc1 (chirality)
O=S(=O)(C[C@@H]1CS1)c1ccc(Oc2ccc(C[NH+]3CCCC3)cc2)cc1 (3D coordinates assigned)
O=S(=O)(C[C@@H]1CS1)c1ccc(Oc2ccc(C[NH+]3CCCC3)cc2)cc1 (nonaromatic ring conformer: 259.21021307090086 kcal/mol)

>  <smiles>  (43) 
O=S(=O)(CC1CS1)c1ccc(Oc2ccc(CN3CCCC3)cc2)cc1

>  <score_type>  (43) 
oracle

>  <origin>  (43) 
adgpu

>  <m_score__min__energy>  (43) 
-9.9700000000000006

>  <m_primary>  (43) 
energy

$$$$
43:0
     RDKit          3D

 37 38  0  0  0  0  0  0  0  0999 V2000
    0.6110   18.5170  -28.4610 C   0  0  0  0  0  0  0  0  0  0  0  0
   -0.4820   18.9930  -29.2390 O   0  0  0  0  0  0  0  0  0  0  0  0
   -0.9620   20.3120  -29.2140 C   0  0  0  0  0  0  0  0  0  0  0  0
   -0.8890   21.1550  -30.3390 C   0  0  0  0  0  0  0  0  0  0  0  0
   -1.3770   22.4610  -30.2760 C   0  0  0  0  0  0  0  0  0  0  0  0
   -1.9480   22.9430  -29.0940 C   0  0  0  0  0  0  0  0  0  0  0  0
   -2.5750   24.5880  -29.0300 S   0  0  0  0  0  0  0  0  0  0  0  0
   -1.4190   25.5460  -28.9610 O   0  0  0  0  0  0  0  0  0  0  0  0
   -3.4440   24.7800  -27.8190 O   0  0  0  0  0  0  0  0  0  0  0  0
   -3.5060   24.9260  -30.4530 N   0  0  0  0  0  0  0  0  0  0  0  0
   -4.7250   24.2630  -30.8180 C   0  0  0  0  0  0  0  0  0  0  0  0
   -5.9850   24.7580  -30.4570 C   0  0  0  0  0  0  0  0  0  0  0  0
   -7.1350   24.0660  -30.8310 C   0  0  0  0  0  0  0  0  0  0  0  0
   -7.0220   22.8850  -31.5680 C   0  0  0  0  0  0  0  0  0  0  0  0
   -8.0720   22.2660  -31.8980 O   0  0  0  0  0  0  0  0  0  0  0  0
   -5.7880   22.4060  -31.9250 N   0  0  0  0  0  0  0  0  0  0  0  0
   -5.6780   21.1620  -32.6960 C   0  0  0  0  0  0  0  0  0  0  0  0
   -4.6520   23.0780  -31.5580 C   0  0  0  0  0  0  0  0  0  0  0  0
   -2.0200   22.1130  -27.9690 C   0  0  0  0  0  0  0  0  0  0  0  0
   -1.5290   20.7930  -28.0230 C   0  0  0  0  0  0  0  0  0  0  0  0
   -1.5880   19.9310  -26.9170 O   0  0  0  0  0  0  0  0  0  0  0  0
   -2.6580   19.0300  -26.6510 C   0  0  0  0  0  0  0  0  0  0  0  0
    0.3729   18.6207  -27.3921 H   0  0  0  0  0  0  0  0  0  0  0  0
    0.7937   17.4578  -28.6949 H   0  0  0  0  0  0  0  0  0  0  0  0
    1.5110   19.1047  -28.6949 H   0  0  0  0  0  0  0  0  0  0  0  0
   -0.4446   20.7821  -31.2736 H   0  0  0  0  0  0  0  0  0  0  0  0
   -1.3122   23.1135  -31.1592 H   0  0  0  0  0  0  0  0  0  0  0  0
   -6.0661   25.6908  -29.8797 H   0  0  0  0  0  0  0  0  0  0  0  0
   -8.1268   24.4478  -30.5473 H   0  0  0  0  0  0  0  0  0  0  0  0
   -5.6025   20.3085  -32.0061 H   0  0  0  0  0  0  0  0  0  0  0  0
   -6.5692   21.0434  -33.3299 H   0  0  0  0  0  0  0  0  0  0  0  0
   -4.7799   21.2017  -33.3299 H   0  0  0  0  0  0  0  0  0  0  0  0
   -3.6687   22.6803  -31.8493 H   0  0  0  0  0  0  0  0  0  0  0  0
   -2.4627   22.4936  -27.0367 H   0  0  0  0  0  0  0  0  0  0  0  0
   -2.7853   18.9228  -25.5637 H   0  0  0  0  0  0  0  0  0  0  0  0
   -3.5861   19.4226  -27.0919 H   0  0  0  0  0  0  0  0  0  0  0  0
   -2.4291   18.0486  -27.0919 H   0  0  0  0  0  0  0  0  0  0  0  0
  1  2  1  0
  2  3  1  0
  3  4  2  0
  4  5  1  0
  5  6  2  0
  6  7  1  0
  7  8  2  0
  7  9  2  0
  7 10  1  0
 10 11  1  0
 11 12  1  0
 12 13  2  0
 13 14  1  0
 14 15  2  0
 14 16  1  0
 16 17  1  0
 16 18  1  0
  6 19  1  0
 19 20  2  0
 20 21  1  0
 21 22  1  0
 20  3  1  0
 18 11  2  0
  1 23  1  0
  1 24  1  0
  1 25  1  0
  4 26  1  0
  5 27  1  0
 12 28  1  0
 13 29  1  0
 17 30  1  0
 17 31  1  0
 17 32  1  0
 18 33  1  0
 19 34  1  0
 22 35  1  0
 22 36  1  0
 22 37  1  0
M  CHG  1  10  -1
M  END
>  <UniqueID>  (44) 
41

>  <SMILES>  (44) 
COc1ccc(S(=O)(=O)[N-]c2ccc(=O)n(C)c2)cc1OC

>  <Energy>  (44) 
41.05471808503671

>  <Genealogy>  (44) 
COc1ccc(S(=O)(=O)[N-]c2ccc(=O)n(C)c2)cc1OC (protonated)
COc1ccc(S(=O)(=O)[N-]c2ccc(=O)n(C)c2)cc1OC (3D coordinates assigned)
COc1ccc(S(=O)(=O)[N-]c2ccc(=O)n(C)c2)cc1OC (optimized conformer: 41.05471808503671 kcal/mol)

>  <smiles>  (44) 
COc1ccc(S(=O)(=O)Nc2ccc(=O)n(C)c2)cc1OC

>  <score_type>  (44) 
oracle

>  <origin>  (44) 
adgpu

>  <m_score__min__energy>  (44) 
-7.7800000000000002

>  <m_primary>  (44) 
energy

$$$$
44:0
     RDKit          3D

 51 54  0  0  0  0  0  0  0  0999 V2000
    0.4550   24.4180  -27.4530 C   0  0  0  0  0  0  0  0  0  0  0  0
   -0.9650   24.1030  -27.8260 C   0  0  0  0  0  0  0  0  0  0  0  0
   -1.5520   24.7080  -28.9490 C   0  0  0  0  0  0  0  0  0  0  0  0
   -2.8740   24.3960  -29.3180 C   0  0  0  0  0  0  0  0  0  0  0  0
   -3.5020   24.9830  -30.4670 N   0  0  0  0  0  0  0  0  0  0  0  0
   -4.9070   25.1980  -30.6570 C   0  0  0  0  0  0  0  0  0  0  0  0
   -5.4080   26.3280  -30.4040 O   0  0  0  0  0  0  0  0  0  0  0  0
   -5.7880   24.0850  -31.0980 C   0  0  0  0  0  0  0  0  0  0  0  0
   -5.2180   22.9280  -31.6670 C   0  0  0  0  0  0  0  0  0  0  0  0
   -6.0250   21.8650  -32.0930 C   0  0  0  0  0  0  0  0  0  0  0  0
   -5.2790   20.4450  -32.8260 S   0  0  0  0  0  0  0  0  0  0  0  0
   -4.2510   20.9140  -33.8180 O   0  0  0  0  0  0  0  0  0  0  0  0
   -4.5790   19.6330  -31.7720 O   0  0  0  0  0  0  0  0  0  0  0  0
   -6.4840   19.4780  -33.6550 N   0  0  2  0  0  0  0  0  0  0  0  0
   -7.3460   18.7150  -32.7300 C   0  0  0  0  0  0  0  0  0  0  0  0
   -6.5770   17.6390  -31.9510 C   0  0  0  0  0  0  0  0  0  0  0  0
   -5.6160   16.8750  -32.8230 C   0  0  0  0  0  0  0  0  0  0  0  0
   -5.0300   15.6990  -32.3290 C   0  0  0  0  0  0  0  0  0  0  0  0
   -4.0900   15.0020  -33.0920 C   0  0  0  0  0  0  0  0  0  0  0  0
   -3.7230   15.4770  -34.3520 C   0  0  0  0  0  0  0  0  0  0  0  0
   -4.2900   16.6530  -34.8500 C   0  0  0  0  0  0  0  0  0  0  0  0
   -5.2250   17.3700  -34.0870 C   0  0  0  0  0  0  0  0  0  0  0  0
   -5.8700   18.6030  -34.6740 C   0  0  0  0  0  0  0  0  0  0  0  0
   -7.4150   21.9500  -31.9540 C   0  0  0  0  0  0  0  0  0  0  0  0
   -7.9920   23.0870  -31.3900 C   0  0  0  0  0  0  0  0  0  0  0  0
   -7.1920   24.1500  -30.9620 C   0  0  0  0  0  0  0  0  0  0  0  0
   -7.8000   25.2330  -30.4150 F   0  0  0  0  0  0  0  0  0  0  0  0
   -3.5810   23.4360  -28.5850 C   0  0  0  0  0  0  0  0  0  0  0  0
   -2.9950   22.8190  -27.4770 C   0  0  0  0  0  0  0  0  0  0  0  0
   -1.6920   23.1480  -27.0960 C   0  0  0  0  0  0  0  0  0  0  0  0
   -1.1360   22.5280  -26.0250 F   0  0  0  0  0  0  0  0  0  0  0  0
    0.5502   24.4391  -26.3573 H   0  0  0  0  0  0  0  0  0  0  0  0
    1.1220   23.6460  -27.8642 H   0  0  0  0  0  0  0  0  0  0  0  0
    0.7330   25.3996  -27.8642 H   0  0  0  0  0  0  0  0  0  0  0  0
   -0.9748   25.4307  -29.5444 H   0  0  0  0  0  0  0  0  0  0  0  0
   -4.1258   22.8590  -31.7779 H   0  0  0  0  0  0  0  0  0  0  0  0
   -7.1010   20.1570  -34.1600 H   0  0  0  0  0  0  0  0  0  0  0  0
   -7.7962   19.4152  -32.0109 H   0  0  0  0  0  0  0  0  0  0  0  0
   -8.1096   18.2038  -33.3347 H   0  0  0  0  0  0  0  0  0  0  0  0
   -6.0107   18.1250  -31.1428 H   0  0  0  0  0  0  0  0  0  0  0  0
   -7.3117   16.9228  -31.5544 H   0  0  0  0  0  0  0  0  0  0  0  0
   -5.3128   15.3238  -31.3344 H   0  0  0  0  0  0  0  0  0  0  0  0
   -3.6390   14.0786  -32.6996 H   0  0  0  0  0  0  0  0  0  0  0  0
   -2.9863   14.9248  -34.9539 H   0  0  0  0  0  0  0  0  0  0  0  0
   -4.0018   17.0193  -35.8464 H   0  0  0  0  0  0  0  0  0  0  0  0
   -5.1013   19.1778  -35.2114 H   0  0  0  0  0  0  0  0  0  0  0  0
   -6.6750   18.2645  -35.3429 H   0  0  0  0  0  0  0  0  0  0  0  0
   -8.0528   21.1191  -32.2900 H   0  0  0  0  0  0  0  0  0  0  0  0
   -9.0849   23.1478  -31.2811 H   0  0  0  0  0  0  0  0  0  0  0  0
   -4.6047   23.1655  -28.8832 H   0  0  0  0  0  0  0  0  0  0  0  0
   -3.5617   22.0714  -26.9026 H   0  0  0  0  0  0  0  0  0  0  0  0
  1  2  1  0
  2  3  2  0
  3  4  1  0
  4  5  1  0
  5  6  1  0
  6  7  2  0
  6  8  1  0
  8  9  2  0
  9 10  1  0
 10 11  1  0
 11 12  2  0
 11 13  2  0
 11 14  1  0
 14 15  1  0
 15 16  1  0
 16 17  1  0
 17 18  2  0
 18 19  1  0
 19 20  2  0
 20 21  1  0
 21 22  2  0
 22 23  1  0
 10 24  2  0
 24 25  1  0
 25 26  2  0
 26 27  1  0
  4 28  2  0
 28 29  1  0
 29 30  2  0
 30 31  1  0
 30  2  1  0
 26  8  1  0
 23 14  1  0
 22 17  1  0
  1 32  1  0
  1 33  1  0
  1 34  1  0
  3 35  1  0
  9 36  1  0
 14 37  1  6
 15 38  1  0
 15 39  1  0
 16 40  1  0
 16 41  1  0
 18 42  1  0
 19 43  1  0
 20 44  1  0
 21 45  1  0
 23 46  1  0
 23 47  1  0
 24 48  1  0
 25 49  1  0
 28 50  1  0
 29 51  1  0
M  CHG  2   5  -1  14   1
M  END
>  <UniqueID>  (45) 
42

>  <SMILES>  (45) 
Cc1cc([N-]C(=O)c2cc(S(=O)(=O)[N@@H+]3CCc4ccccc4C3)ccc2F)ccc1F

>  <Energy>  (45) 
64.13594142529234

>  <Genealogy>  (45) 
Cc1cc([N-]C(=O)c2cc(S(=O)(=O)[NH+]3CCc4ccccc4C3)ccc2F)ccc1F (protonated)
Cc1cc([N-]C(=O)c2cc(S(=O)(=O)[N@@H+]3CCc4ccccc4C3)ccc2F)ccc1F (chirality)
Cc1cc([N-]C(=O)c2cc(S(=O)(=O)[N@@H+]3CCc4ccccc4C3)ccc2F)ccc1F (3D coordinates assigned)
Cc1cc([N-]C(=O)c2cc(S(=O)(=O)[N@@H+]3CCc4ccccc4C3)ccc2F)ccc1F (nonaromatic ring conformer: 64.13594142529234 kcal/mol)

>  <smiles>  (45) 
Cc1cc(NC(=O)c2cc(S(=O)(=O)N3CCc4ccccc4C3)ccc2F)ccc1F

>  <score_type>  (45) 
oracle

>  <origin>  (45) 
adgpu

>  <m_score__min__energy>  (45) 
-10.93

>  <m_primary>  (45) 
energy

$$$$
45:0
     RDKit          3D

 42 45  0  0  0  0  0  0  0  0999 V2000
   -2.3640   25.3040  -28.1430 O   0  0  0  0  0  0  0  0  0  0  0  0
   -2.3170   24.3430  -29.1460 C   0  0  0  0  0  0  0  0  0  0  0  0
   -1.1570   23.5880  -29.3360 C   0  0  0  0  0  0  0  0  0  0  0  0
   -1.1060   22.6190  -30.3440 C   0  0  0  0  0  0  0  0  0  0  0  0
   -2.2230   22.3900  -31.1730 C   0  0  0  0  0  0  0  0  0  0  0  0
   -2.1900   21.3740  -32.2550 C   0  0  0  0  0  0  0  0  0  0  0  0
   -3.2100   20.4200  -32.4050 C   0  0  0  0  0  0  0  0  0  0  0  0
   -3.1380   19.4720  -33.4380 C   0  0  0  0  0  0  0  0  0  0  0  0
   -4.2030   18.4490  -33.5980 C   0  0  0  0  0  0  0  0  0  0  0  0
   -5.5420   18.7570  -33.2970 C   0  0  0  0  0  0  0  0  0  0  0  0
   -6.5430   17.7920  -33.4480 C   0  0  0  0  0  0  0  0  0  0  0  0
   -6.2220   16.5100  -33.9010 C   0  0  0  0  0  0  0  0  0  0  0  0
   -7.2290   15.5590  -34.0480 O   0  0  0  0  0  0  0  0  0  0  0  0
   -4.8920   16.1940  -34.2050 C   0  0  0  0  0  0  0  0  0  0  0  0
   -3.8880   17.1560  -34.0540 C   0  0  0  0  0  0  0  0  0  0  0  0
   -2.0450   19.5080  -34.3170 C   0  0  0  0  0  0  0  0  0  0  0  0
   -1.0510   20.4890  -34.1630 C   0  0  0  0  0  0  0  0  0  0  0  0
    0.1200   20.5660  -35.0740 C   0  0  0  0  0  0  0  0  0  0  0  0
    0.8210   21.7790  -35.2130 C   0  0  0  0  0  0  0  0  0  0  0  0
    1.9200   21.8700  -36.0700 C   0  0  0  0  0  0  0  0  0  0  0  0
    2.3280   20.7560  -36.8080 C   0  0  0  0  0  0  0  0  0  0  0  0
    3.4210   20.8490  -37.6620 O   0  0  0  0  0  0  0  0  0  0  0  0
    1.6340   19.5490  -36.6910 C   0  0  0  0  0  0  0  0  0  0  0  0
    0.5340   19.4520  -35.8320 C   0  0  0  0  0  0  0  0  0  0  0  0
   -1.1550   21.3790  -33.1380 N   0  0  0  0  0  0  0  0  0  0  0  0
   -3.3810   23.1680  -30.9770 C   0  0  0  0  0  0  0  0  0  0  0  0
   -3.4270   24.1340  -29.9670 C   0  0  0  0  0  0  0  0  0  0  0  0
   -0.2815   23.7558  -28.6915 H   0  0  0  0  0  0  0  0  0  0  0  0
   -0.1876   22.0316  -30.4907 H   0  0  0  0  0  0  0  0  0  0  0  0
   -4.0652   20.4157  -31.7131 H   0  0  0  0  0  0  0  0  0  0  0  0
   -5.8038   19.7641  -32.9403 H   0  0  0  0  0  0  0  0  0  0  0  0
   -7.5869   18.0434  -33.2092 H   0  0  0  0  0  0  0  0  0  0  0  0
   -7.0190   14.5700  -34.1140 H   0  0  0  0  0  0  0  0  0  0  0  0
   -4.6361   15.1861  -34.5637 H   0  0  0  0  0  0  0  0  0  0  0  0
   -2.8454   16.8999  -34.2934 H   0  0  0  0  0  0  0  0  0  0  0  0
   -1.9663   18.7679  -35.1270 H   0  0  0  0  0  0  0  0  0  0  0  0
    0.5004   22.6626  -34.6417 H   0  0  0  0  0  0  0  0  0  0  0  0
    2.4654   22.8206  -36.1641 H   0  0  0  0  0  0  0  0  0  0  0  0
    1.9531   18.6734  -37.2754 H   0  0  0  0  0  0  0  0  0  0  0  0
   -0.0113   18.5004  -35.7476 H   0  0  0  0  0  0  0  0  0  0  0  0
   -4.2569   23.0142  -31.6243 H   0  0  0  0  0  0  0  0  0  0  0  0
   -4.3394   24.7304  -29.8190 H   0  0  0  0  0  0  0  0  0  0  0  0
  1  2  1  0
  2  3  2  0
  3  4  1  0
  4  5  2  0
  5  6  1  0
  6  7  2  0
  7  8  1  0
  8  9  1  0
  9 10  2  0
 10 11  1  0
 11 12  2  0
 12 13  1  0
 12 14  1  0
 14 15  2  0
  8 16  2  0
 16 17  1  0
 17 18  1  0
 18 19  2  0
 19 20  1  0
 20 21  2  0
 21 22  1  0
 21 23  1  0
 23 24  2  0
 17 25  2  0
  5 26  1  0
 26 27  2  0
 27  2  1  0
 25  6  1  0
 15  9  1  0
 24 18  1  0
  3 28  1  0
  4 29  1  0
  7 30  1  0
 10 31  1  0
 11 32  1  0
 13 33  1  0
 14 34  1  0
 15 35  1  0
 16 36  1  0
 19 37  1  0
 20 38  1  0
 23 39  1  0
 24 40  1  0
 26 41  1  0
 27 42  1  0
M  CHG  2   1  -1  22  -1
M  END
>  <UniqueID>  (46) 
43

>  <SMILES>  (46) 
[O-]c1ccc(-c2cc(-c3ccc(O)cc3)cc(-c3ccc([O-])cc3)n2)cc1

>  <Energy>  (46) 
60.37933301684788

>  <Genealogy>  (46) 
[O-]c1ccc(-c2cc(-c3ccc(O)cc3)cc(-c3ccc([O-])cc3)n2)cc1 (protonated)
[O-]c1ccc(-c2cc(-c3ccc(O)cc3)cc(-c3ccc([O-])cc3)n2)cc1 (3D coordinates assigned)
[O-]c1ccc(-c2cc(-c3ccc(O)cc3)cc(-c3ccc([O-])cc3)n2)cc1 (optimized conformer: 60.37933301684788 kcal/mol)

>  <smiles>  (46) 
Oc1ccc(-c2cc(-c3ccc(O)cc3)nc(-c3ccc(O)cc3)c2)cc1

>  <score_type>  (46) 
oracle

>  <origin>  (46) 
adgpu

>  <m_score__min__energy>  (46) 
-8.6400000000000006

>  <m_primary>  (46) 
energy

$$$$
46:0
     RDKit          3D

 41 43  0  0  0  0  0  0  0  0999 V2000
   -4.1330   19.1950  -25.4200 H   0  0  0  0  0  0  0  0  0  0  0  0
   -3.4270   18.4940  -25.7440 N   0  0  0  0  0  0  0  0  0  0  0  0
   -2.3300   18.8390  -26.3400 C   0  0  0  0  0  0  0  0  0  0  0  0
   -1.4550   17.8750  -26.7360 N   0  0  0  0  0  0  0  0  0  0  0  0
   -0.2870   18.1800  -27.3600 C   0  0  0  0  0  0  0  0  0  0  0  0
    0.3992   17.3758  -27.6641 H   0  0  0  0  0  0  0  0  0  0  0  0
    0.0440   19.5130  -27.6160 C   0  0  0  0  0  0  0  0  0  0  0  0
    0.9932   19.7634  -28.1123 H   0  0  0  0  0  0  0  0  0  0  0  0
   -0.8460   20.5310  -27.2340 C   0  0  0  0  0  0  0  0  0  0  0  0
   -0.5590   21.8870  -27.4510 O   0  0  0  0  0  0  0  0  0  0  0  0
   -1.3500   22.7680  -28.2010 C   0  0  0  0  0  0  0  0  0  0  0  0
   -1.5250   22.5220  -29.5670 C   0  0  0  0  0  0  0  0  0  0  0  0
   -1.0303   21.6585  -30.0357 H   0  0  0  0  0  0  0  0  0  0  0  0
   -2.3260   23.3690  -30.3390 C   0  0  0  0  0  0  0  0  0  0  0  0
   -2.4600   23.1693  -31.4124 H   0  0  0  0  0  0  0  0  0  0  0  0
   -2.9600   24.4740  -29.7480 C   0  0  0  0  0  0  0  0  0  0  0  0
   -3.8370   25.3240  -30.5010 N   0  0  0  0  0  0  0  0  0  0  0  0
   -5.1780   24.9930  -30.8870 C   0  0  0  0  0  0  0  0  0  0  0  0
   -6.1380   25.5870  -30.3320 O   0  0  0  0  0  0  0  0  0  0  0  0
   -5.4570   24.0030  -31.8890 N   0  0  0  0  0  0  0  0  0  0  0  0
   -6.5020   23.0220  -31.8240 C   0  0  0  0  0  0  0  0  0  0  0  0
   -7.8550   23.4030  -31.7920 C   0  0  0  0  0  0  0  0  0  0  0  0
   -8.1246   24.4682  -31.8429 H   0  0  0  0  0  0  0  0  0  0  0  0
   -8.8580   22.4370  -31.6960 C   0  0  0  0  0  0  0  0  0  0  0  0
   -9.9140   22.7425  -31.6558 H   0  0  0  0  0  0  0  0  0  0  0  0
   -8.5210   21.0840  -31.6510 C   0  0  0  0  0  0  0  0  0  0  0  0
   -9.3122   20.3243  -31.5680 H   0  0  0  0  0  0  0  0  0  0  0  0
   -7.1820   20.6910  -31.7110 C   0  0  0  0  0  0  0  0  0  0  0  0
   -6.9231   19.6222  -31.6872 H   0  0  0  0  0  0  0  0  0  0  0  0
   -6.1610   21.6590  -31.8020 C   0  0  0  0  0  0  0  0  0  0  0  0
   -4.8020   21.3050  -31.8540 O   0  0  0  0  0  0  0  0  0  0  0  0
   -3.9520   21.5380  -32.9710 C   0  0  0  0  0  0  0  0  0  0  0  0
   -2.9478   21.8133  -32.6164 H   0  0  0  0  0  0  0  0  0  0  0  0
   -3.8881   20.6242  -33.5801 H   0  0  0  0  0  0  0  0  0  0  0  0
   -4.3630   22.3566  -33.5801 H   0  0  0  0  0  0  0  0  0  0  0  0
   -2.7330   24.7580  -28.3980 C   0  0  0  0  0  0  0  0  0  0  0  0
   -3.1826   25.6529  -27.9430 H   0  0  0  0  0  0  0  0  0  0  0  0
   -1.9360   23.9080  -27.6240 C   0  0  0  0  0  0  0  0  0  0  0  0
   -1.7673   24.1324  -26.5604 H   0  0  0  0  0  0  0  0  0  0  0  0
   -2.0320   20.1890  -26.5790 C   0  0  0  0  0  0  0  0  0  0  0  0
   -2.7289   20.9748  -26.2522 H   0  0  0  0  0  0  0  0  0  0  0  0
  1  2  1  0
  2  3  2  0
  3  4  1  0
  4  5  1  0
  5  6  1  0
  5  7  2  0
  7  8  1  0
  7  9  1  0
  9 10  1  0
 10 11  1  0
 11 12  2  0
 12 13  1  0
 12 14  1  0
 14 15  1  0
 14 16  2  0
 16 17  1  0
 17 18  1  0
 18 19  2  0
 18 20  1  0
 20 21  1  0
 21 22  2  0
 22 23  1  0
 22 24  1  0
 24 25  1  0
 24 26  2  0
 26 27  1  0
 26 28  1  0
 28 29  1  0
 28 30  2  0
 30 31  1  0
 31 32  1  0
 32 33  1  0
 32 34  1  0
 32 35  1  0
 16 36  1  0
 36 37  1  0
 36 38  2  0
 38 39  1  0
  9 40  2  0
 40 41  1  0
 40  3  1  0
 38 11  1  0
 30 21  1  0
M  CHG  3   4  -1  17  -1  20  -1
M  END
>  <UniqueID>  (47) 
44

>  <SMILES>  (47) 
[H]/N=c1\cc(Oc2ccc([N-]C(=O)[N-]c3ccccc3OC)cc2)cc[n-]1

>  <Energy>  (47) 
57.44823359272412

>  <Genealogy>  (47) 
COc1ccccc1[N-]C(=O)[N-]c1ccc(Oc2cc[n-]c(=N)c2)cc1 (protonated)
[H]/N=c1\cc(Oc2ccc([N-]C(=O)[N-]c3ccccc3OC)cc2)cc[n-]1 (cis-trans isomerization)
[H]/N=c1\cc(Oc2ccc([N-]C(=O)[N-]c3ccccc3OC)cc2)cc[n-]1 (3D coordinates assigned)
[H]/N=c1\cc(Oc2ccc([N-]C(=O)[N-]c3ccccc3OC)cc2)cc[n-]1 (optimized conformer: 57.44823359272412 kcal/mol)

>  <smiles>  (47) 
COc1ccccc1NC(=O)Nc1ccc(Oc2cc[nH]c(=N)c2)cc1

>  <score_type>  (47) 
oracle

>  <origin>  (47) 
adgpu

>  <m_score__min__energy>  (47) 
-11.449999999999999

>  <m_primary>  (47) 
energy

$$$$
