0:0
     RDKit          3D

 35 37  0  0  0  0  0  0  0  0999 V2000
   -6.4910   18.6950  -32.5600 C   0  0  0  0  0  0  0  0  0  0  0  0
   -7.3490   19.8320  -32.1720 N   0  0  0  0  0  0  0  0  0  0  0  0
   -8.7180   19.7260  -32.2920 C   0  0  0  0  0  0  0  0  0  0  0  0
   -9.2510   18.6690  -32.7290 O   0  0  0  0  0  0  0  0  0  0  0  0
   -9.5520   20.7860  -31.9330 C   0  0  0  0  0  0  0  0  0  0  0  0
   -9.0050   21.9640  -31.4470 C   0  0  0  0  0  0  0  0  0  0  0  0
   -7.6220   22.0880  -31.3190 C   0  0  0  0  0  0  0  0  0  0  0  0
   -7.0670   23.2810  -30.8310 C   0  0  0  0  0  0  0  0  0  0  0  0
   -5.6820   23.4170  -30.7080 C   0  0  0  0  0  0  0  0  0  0  0  0
   -4.9980   24.9290  -30.1160 S   0  0  0  0  0  0  0  0  0  0  0  0
   -4.1680   25.5430  -31.2080 O   0  0  0  0  0  0  0  0  0  0  0  0
   -6.0860   25.8900  -29.7280 O   0  0  0  0  0  0  0  0  0  0  0  0
   -3.9900   24.6250  -28.7350 N   0  0  0  0  0  0  0  0  0  0  0  0
   -2.6950   23.9980  -28.8100 C   0  0  0  0  0  0  0  0  0  0  0  0
   -2.5490   22.5990  -28.7670 C   0  0  0  0  0  0  0  0  0  0  0  0
   -1.2820   22.0210  -28.8490 C   0  0  0  0  0  0  0  0  0  0  0  0
   -0.1620   22.8410  -28.9670 C   0  0  0  0  0  0  0  0  0  0  0  0
   -0.3090   24.1920  -28.9990 N   0  0  0  0  0  0  0  0  0  0  0  0
   -1.5320   24.7840  -28.9230 C   0  0  0  0  0  0  0  0  0  0  0  0
   -1.6080   26.0410  -28.9610 O   0  0  0  0  0  0  0  0  0  0  0  0
   -4.8470   22.3550  -31.0620 C   0  0  0  0  0  0  0  0  0  0  0  0
   -5.3870   21.1610  -31.5470 C   0  0  0  0  0  0  0  0  0  0  0  0
   -6.7860   21.0020  -31.6890 C   0  0  0  0  0  0  0  0  0  0  0  0
   -6.1137   18.1950  -31.6557 H   0  0  0  0  0  0  0  0  0  0  0  0
   -7.0769   17.9804  -33.1567 H   0  0  0  0  0  0  0  0  0  0  0  0
   -5.6431   19.0624  -33.1567 H   0  0  0  0  0  0  0  0  0  0  0  0
  -10.6427   20.6870  -32.0355 H   0  0  0  0  0  0  0  0  0  0  0  0
   -9.6614   22.7997  -31.1628 H   0  0  0  0  0  0  0  0  0  0  0  0
   -7.7260   24.1136  -30.5438 H   0  0  0  0  0  0  0  0  0  0  0  0
   -4.3280   25.0000  -27.8200 H   0  0  0  0  0  0  0  0  0  0  0  0
   -3.4378   21.9584  -28.6683 H   0  0  0  0  0  0  0  0  0  0  0  0
   -1.1683   20.9273  -28.8207 H   0  0  0  0  0  0  0  0  0  0  0  0
    0.8414   22.3952  -29.0343 H   0  0  0  0  0  0  0  0  0  0  0  0
   -3.7569   22.4592  -30.9583 H   0  0  0  0  0  0  0  0  0  0  0  0
   -4.7160   20.3339  -31.8220 H   0  0  0  0  0  0  0  0  0  0  0  0
  1  2  1  0
  2  3  1  0
  3  4  2  0
  3  5  1  0
  5  6  2  0
  6  7  1  0
  7  8  2  0
  8  9  1  0
  9 10  1  0
 10 11  2  0
 10 12  2  0
 10 13  1  0
 13 14  1  0
 14 15  2  0
 15 16  1  0
 16 17  2  0
 17 18  1  0
 18 19  1  0
 19 20  2  0
  9 21  2  0
 21 22  1  0
 22 23  2  0
 23  2  1  0
 23  7  1  0
 19 14  1  0
  1 24  1  0
  1 25  1  0
  1 26  1  0
  5 27  1  0
  6 28  1  0
  8 29  1  0
 13 30  1  0
 15 31  1  0
 16 32  1  0
 17 33  1  0
 21 34  1  0
 22 35  1  0
M  CHG  1  18  -1
M  END
>  <UniqueID>  (1) 
1

>  <SMILES>  (1) 
Cn1c(=O)ccc2cc(S(=O)(=O)Nc3ccc[n-]c3=O)ccc21

>  <Energy>  (1) 
51.64903966016106

>  <Genealogy>  (1) 
Cn1c(=O)ccc2cc(S(=O)(=O)Nc3ccc[n-]c3=O)ccc21 (protonated)
Cn1c(=O)ccc2cc(S(=O)(=O)Nc3ccc[n-]c3=O)ccc21 (3D coordinates assigned)
Cn1c(=O)ccc2cc(S(=O)(=O)Nc3ccc[n-]c3=O)ccc21 (optimized conformer: 51.64903966016106 kcal/mol)

>  <smiles>  (1) 
Cn1c(=O)ccc2cc(S(=O)(=O)Nc3ccc[nH]c3=O)ccc21

>  <score_type>  (1) 
oracle

>  <origin>  (1) 
adgpu

>  <m_score__min__energy>  (1) 
-10.58

>  <m_primary>  (1) 
energy

$$$$
1:0
     RDKit          3D

 57 60  0  0  0  0  0  0  0  0999 V2000
   -2.1250   19.5020  -33.8310 C   0  0  0  0  0  0  0  0  0  0  0  0
   -1.6260   18.1080  -34.1960 C   0  0  0  0  0  0  0  0  0  0  0  0
   -2.4730   17.0760  -33.5750 N   0  0  0  0  0  0  0  0  0  0  0  0
   -3.7670   17.3820  -33.2730 C   0  0  0  0  0  0  0  0  0  0  0  0
   -4.6050   16.4370  -32.6800 C   0  0  0  0  0  0  0  0  0  0  0  0
   -6.0060   16.8310  -32.2800 C   0  0  0  0  0  0  0  0  0  0  0  0
   -6.8480   17.7130  -33.6430 S   0  0  0  0  0  0  0  0  0  0  0  0
   -6.7660   19.3230  -32.8540 C   0  0  0  0  0  0  0  0  0  0  0  0
   -5.5920   19.8710  -32.4470 N   0  0  0  0  0  0  0  0  0  0  0  0
   -5.9860   21.0050  -31.8410 C   0  0  0  0  0  0  0  0  0  0  0  0
   -5.1840   21.9380  -31.1900 C   0  0  0  0  0  0  0  0  0  0  0  0
   -5.8170   23.0370  -30.5730 C   0  0  0  0  0  0  0  0  0  0  0  0
   -4.8420   24.2620  -29.7660 S   0  0  0  0  0  0  0  0  0  0  0  0
   -3.9410   24.9290  -30.7690 O   0  0  0  0  0  0  0  0  0  0  0  0
   -5.7680   25.3030  -29.2010 O   0  0  0  0  0  0  0  0  0  0  0  0
   -3.9020   23.5630  -28.4620 N   0  0  0  0  0  0  0  0  0  0  0  0
   -2.6450   22.9620  -28.9430 C   0  0  0  0  0  0  0  0  0  0  0  0
   -1.6120   24.0330  -29.3650 C   0  0  0  0  0  0  0  0  0  0  0  0
   -1.8800   25.3190  -28.8340 O   0  0  0  0  0  0  0  0  0  0  0  0
   -2.2780   25.2190  -27.4850 C   0  0  0  0  0  0  0  0  0  0  0  0
   -3.6600   24.5430  -27.3790 C   0  0  0  0  0  0  0  0  0  0  0  0
   -7.2280   23.1630  -30.6250 C   0  0  0  0  0  0  0  0  0  0  0  0
   -8.0090   22.1950  -31.2820 C   0  0  0  0  0  0  0  0  0  0  0  0
   -7.3440   21.1290  -31.8880 C   0  0  0  0  0  0  0  0  0  0  0  0
   -7.8540   20.0760  -32.5470 N   0  0  0  0  0  0  0  0  0  0  0  0
   -9.2600   19.7260  -32.7300 C   0  0  0  0  0  0  0  0  0  0  0  0
   -4.0850   15.1610  -32.4170 C   0  0  0  0  0  0  0  0  0  0  0  0
   -4.8100   14.2960  -31.8500 O   0  0  0  0  0  0  0  0  0  0  0  0
   -2.7940   14.8570  -32.7680 N   0  0  0  0  0  0  0  0  0  0  0  0
   -2.2420   13.5270  -32.4510 C   0  0  0  0  0  0  0  0  0  0  0  0
   -1.9900   15.8160  -33.3340 C   0  0  0  0  0  0  0  0  0  0  0  0
   -0.7940   15.5360  -33.6410 O   0  0  0  0  0  0  0  0  0  0  0  0
   -2.1613   19.6035  -32.7363 H   0  0  0  0  0  0  0  0  0  0  0  0
   -1.4412   20.2567  -34.2467 H   0  0  0  0  0  0  0  0  0  0  0  0
   -3.1324   19.6513  -34.2467 H   0  0  0  0  0  0  0  0  0  0  0  0
   -1.6535   17.9888  -35.2892 H   0  0  0  0  0  0  0  0  0  0  0  0
   -0.5964   17.9916  -33.8267 H   0  0  0  0  0  0  0  0  0  0  0  0
   -4.1550   18.3861  -33.4996 H   0  0  0  0  0  0  0  0  0  0  0  0
   -6.5775   15.9251  -32.0295 H   0  0  0  0  0  0  0  0  0  0  0  0
   -5.9484   17.5010  -31.4095 H   0  0  0  0  0  0  0  0  0  0  0  0
   -4.0906   21.8218  -31.1578 H   0  0  0  0  0  0  0  0  0  0  0  0
   -2.2130   22.3507  -28.1370 H   0  0  0  0  0  0  0  0  0  0  0  0
   -2.8786   22.3500  -29.8267 H   0  0  0  0  0  0  0  0  0  0  0  0
   -0.6182   23.7136  -29.0181 H   0  0  0  0  0  0  0  0  0  0  0  0
   -1.6648   24.1186  -30.4604 H   0  0  0  0  0  0  0  0  0  0  0  0
   -1.5387   24.6203  -26.9328 H   0  0  0  0  0  0  0  0  0  0  0  0
   -2.3425   26.2302  -27.0569 H   0  0  0  0  0  0  0  0  0  0  0  0
   -3.7235   24.0219  -26.4124 H   0  0  0  0  0  0  0  0  0  0  0  0
   -4.4226   25.3308  -27.4677 H   0  0  0  0  0  0  0  0  0  0  0  0
   -7.7164   24.0252  -30.1474 H   0  0  0  0  0  0  0  0  0  0  0  0
   -9.1055   22.2758  -31.3167 H   0  0  0  0  0  0  0  0  0  0  0  0
   -9.7391   19.6067  -31.7470 H   0  0  0  0  0  0  0  0  0  0  0  0
   -9.7669   20.5254  -33.2904 H   0  0  0  0  0  0  0  0  0  0  0  0
   -9.3330   18.7823  -33.2904 H   0  0  0  0  0  0  0  0  0  0  0  0
   -2.1902   13.4022  -31.3593 H   0  0  0  0  0  0  0  0  0  0  0  0
   -2.8915   12.7490  -32.8786 H   0  0  0  0  0  0  0  0  0  0  0  0
   -1.2325   13.4376  -32.8786 H   0  0  0  0  0  0  0  0  0  0  0  0
  1  2  1  0
  2  3  1  0
  3  4  1  0
  4  5  2  0
  5  6  1  0
  6  7  1  0
  7  8  1  0
  8  9  2  0
  9 10  1  0
 10 11  2  0
 11 12  1  0
 12 13  1  0
 13 14  2  0
 13 15  2  0
 13 16  1  0
 16 17  1  0
 17 18  1  0
 18 19  1  0
 19 20  1  0
 20 21  1  0
 12 22  2  0
 22 23  1  0
 23 24  2  0
 24 25  1  0
 25 26  1  0
  5 27  1  0
 27 28  2  0
 27 29  1  0
 29 30  1  0
 29 31  1  0
 31 32  2  0
 31  3  1  0
 25  8  1  0
 24 10  1  0
 21 16  1  0
  1 33  1  0
  1 34  1  0
  1 35  1  0
  2 36  1  0
  2 37  1  0
  4 38  1  0
  6 39  1  0
  6 40  1  0
 11 41  1  0
 17 42  1  0
 17 43  1  0
 18 44  1  0
 18 45  1  0
 20 46  1  0
 20 47  1  0
 21 48  1  0
 21 49  1  0
 22 50  1  0
 23 51  1  0
 26 52  1  0
 26 53  1  0
 26 54  1  0
 30 55  1  0
 30 56  1  0
 30 57  1  0
M  END
>  <UniqueID>  (2) 
2

>  <SMILES>  (2) 
CCn1cc(CSc2nc3cc(S(=O)(=O)N4CCOCC4)ccc3n2C)c(=O)n(C)c1=O

>  <Energy>  (2) 
105.80606371539737

>  <Genealogy>  (2) 
CCn1cc(CSc2nc3cc(S(=O)(=O)N4CCOCC4)ccc3n2C)c(=O)n(C)c1=O (3D coordinates assigned)
CCn1cc(CSc2nc3cc(S(=O)(=O)N4CCOCC4)ccc3n2C)c(=O)n(C)c1=O (nonaromatic ring conformer: 105.80606371539737 kcal/mol)

>  <smiles>  (2) 
CCn1cc(CSc2nc3cc(S(=O)(=O)N4CCOCC4)ccc3n2C)c(=O)n(C)c1=O

>  <score_type>  (2) 
oracle

>  <origin>  (2) 
adgpu

>  <m_score__min__energy>  (2) 
-10.09

>  <m_primary>  (2) 
energy

$$$$
2:0
     RDKit          3D

 39 41  0  0  0  0  0  0  0  0999 V2000
   -5.7040   18.6260  -34.5690 C   0  0  0  0  0  0  0  0  0  0  0  0
   -6.5400   19.1520  -33.4980 N   0  0  0  0  0  0  0  0  0  0  0  0
   -7.3840   18.4510  -32.7140 C   0  0  0  0  0  0  0  0  0  0  0  0
   -8.0890   19.2420  -31.8770 N   0  0  0  0  0  0  0  0  0  0  0  0
   -7.6600   20.4860  -32.1740 C   0  0  0  0  0  0  0  0  0  0  0  0
   -8.2670   21.9410  -31.4120 S   0  0  0  0  0  0  0  0  0  0  0  0
   -9.2870   21.5790  -30.3690 O   0  0  0  0  0  0  0  0  0  0  0  0
   -8.9320   22.8090  -32.4450 O   0  0  0  0  0  0  0  0  0  0  0  0
   -6.9300   22.8160  -30.6740 C   0  0  0  0  0  0  0  0  0  0  0  0
   -7.0950   24.1450  -30.2640 C   0  0  0  0  0  0  0  0  0  0  0  0
   -6.0270   24.8440  -29.6930 C   0  0  0  0  0  0  0  0  0  0  0  0
   -4.7810   24.2170  -29.5180 C   0  0  0  0  0  0  0  0  0  0  0  0
   -3.6590   24.9190  -28.9580 N   0  0  0  0  0  0  0  0  0  0  0  0
   -3.1550   24.7030  -27.6270 C   0  0  0  0  0  0  0  0  0  0  0  0
   -3.6900   23.8420  -26.8750 O   0  0  0  0  0  0  0  0  0  0  0  0
   -2.0120   25.4870  -27.1130 C   0  0  0  0  0  0  0  0  0  0  0  0
   -1.8020   25.5660  -25.7260 C   0  0  0  0  0  0  0  0  0  0  0  0
   -0.7330   26.3060  -25.2110 C   0  0  0  0  0  0  0  0  0  0  0  0
   -0.4910   26.4100  -23.4760 Cl  0  0  0  0  0  0  0  0  0  0  0  0
    0.1410   26.9670  -26.0770 C   0  0  0  0  0  0  0  0  0  0  0  0
   -0.0450   26.8790  -27.4580 C   0  0  0  0  0  0  0  0  0  0  0  0
   -1.1090   26.1360  -27.9820 C   0  0  0  0  0  0  0  0  0  0  0  0
   -1.2370   26.0230  -29.3620 O   0  0  0  0  0  0  0  0  0  0  0  0
   -4.6120   22.8980  -29.9630 C   0  0  0  0  0  0  0  0  0  0  0  0
   -5.6810   22.1990  -30.5320 C   0  0  0  0  0  0  0  0  0  0  0  0
   -6.7200   20.4420  -33.1760 C   0  0  0  0  0  0  0  0  0  0  0  0
   -4.8483   18.0876  -34.1354 H   0  0  0  0  0  0  0  0  0  0  0  0
   -6.2945   17.9364  -35.1901 H   0  0  0  0  0  0  0  0  0  0  0  0
   -5.3379   19.4568  -35.1901 H   0  0  0  0  0  0  0  0  0  0  0  0
   -7.4867   17.3565  -32.7521 H   0  0  0  0  0  0  0  0  0  0  0  0
   -8.0686   24.6409  -30.3917 H   0  0  0  0  0  0  0  0  0  0  0  0
   -6.1625   25.8896  -29.3792 H   0  0  0  0  0  0  0  0  0  0  0  0
   -3.1540   25.5870  -29.5820 H   0  0  0  0  0  0  0  0  0  0  0  0
   -2.4836   25.0418  -25.0400 H   0  0  0  0  0  0  0  0  0  0  0  0
    0.9759   27.5570  -25.6710 H   0  0  0  0  0  0  0  0  0  0  0  0
    0.6483   27.3963  -28.1376 H   0  0  0  0  0  0  0  0  0  0  0  0
   -3.6313   22.4097  -29.8637 H   0  0  0  0  0  0  0  0  0  0  0  0
   -5.5404   21.1614  -30.8691 H   0  0  0  0  0  0  0  0  0  0  0  0
   -6.2099   21.3045  -33.6297 H   0  0  0  0  0  0  0  0  0  0  0  0
  1  2  1  0
  2  3  1  0
  3  4  2  0
  4  5  1  0
  5  6  1  0
  6  7  2  0
  6  8  2  0
  6  9  1  0
  9 10  2  0
 10 11  1  0
 11 12  2  0
 12 13  1  0
 13 14  1  0
 14 15  2  0
 14 16  1  0
 16 17  2  0
 17 18  1  0
 18 19  1  0
 18 20  2  0
 20 21  1  0
 21 22  2  0
 22 23  1  0
 12 24  1  0
 24 25  2  0
  5 26  2  0
 26  2  1  0
 25  9  1  0
 22 16  1  0
  1 27  1  0
  1 28  1  0
  1 29  1  0
  3 30  1  0
 10 31  1  0
 11 32  1  0
 13 33  1  0
 17 34  1  0
 20 35  1  0
 21 36  1  0
 24 37  1  0
 25 38  1  0
 26 39  1  0
M  CHG  1  23  -1
M  END
>  <UniqueID>  (3) 
3

>  <SMILES>  (3) 
Cn1cnc(S(=O)(=O)c2ccc(NC(=O)c3cc(Cl)ccc3[O-])cc2)c1

>  <Energy>  (3) 
80.69632585285088

>  <Genealogy>  (3) 
Cn1cnc(S(=O)(=O)c2ccc(NC(=O)c3cc(Cl)ccc3[O-])cc2)c1 (protonated)
Cn1cnc(S(=O)(=O)c2ccc(NC(=O)c3cc(Cl)ccc3[O-])cc2)c1 (3D coordinates assigned)
Cn1cnc(S(=O)(=O)c2ccc(NC(=O)c3cc(Cl)ccc3[O-])cc2)c1 (optimized conformer: 80.69632585285088 kcal/mol)

>  <smiles>  (3) 
Cn1cnc(S(=O)(=O)c2ccc(NC(=O)c3cc(Cl)ccc3O)cc2)c1

>  <score_type>  (3) 
oracle

>  <origin>  (3) 
adgpu

>  <m_score__min__energy>  (3) 
-11.82

>  <m_primary>  (3) 
energy

$$$$
3:0
     RDKit          3D

 48 51  0  0  0  0  0  0  0  0999 V2000
    0.3480   19.5850  -36.0760 C   0  0  0  0  0  0  0  0  0  0  0  0
   -0.2920   20.2980  -34.9730 N   0  0  0  0  0  0  0  0  0  0  0  0
   -0.0180   21.5390  -34.4940 C   0  0  0  0  0  0  0  0  0  0  0  0
    0.8780   22.2830  -34.9740 O   0  0  0  0  0  0  0  0  0  0  0  0
   -0.7980   21.9160  -33.4450 N   0  0  0  0  0  0  0  0  0  0  0  0
   -1.5860   20.8360  -33.2830 C   0  0  0  0  0  0  0  0  0  0  0  0
   -2.5580   20.6810  -32.3520 N   0  0  0  0  0  0  0  0  0  0  0  0
   -3.2770   19.5150  -32.3310 C   0  0  0  0  0  0  0  0  0  0  0  0
   -3.0190   18.4850  -33.2720 C   0  0  0  0  0  0  0  0  0  0  0  0
   -3.8380   17.3070  -33.2840 N   0  0  0  0  0  0  0  0  0  0  0  0
   -5.4480   17.3140  -33.9340 S   0  0  0  0  0  0  0  0  0  0  0  0
   -5.3790   17.3530  -35.4350 O   0  0  0  0  0  0  0  0  0  0  0  0
   -6.1700   16.0660  -33.5080 O   0  0  0  0  0  0  0  0  0  0  0  0
   -6.3100   18.7150  -33.3060 C   0  0  0  0  0  0  0  0  0  0  0  0
   -7.2470   18.5390  -32.2790 C   0  0  0  0  0  0  0  0  0  0  0  0
   -7.8090   19.6490  -31.6420 C   0  0  0  0  0  0  0  0  0  0  0  0
   -7.4390   20.9440  -32.0260 C   0  0  0  0  0  0  0  0  0  0  0  0
   -8.0280   22.3230  -31.1040 S   0  0  0  0  0  0  0  0  0  0  0  0
   -8.3760   23.4530  -32.0330 O   0  0  0  0  0  0  0  0  0  0  0  0
   -9.2740   21.9070  -30.3720 O   0  0  0  0  0  0  0  0  0  0  0  0
   -6.8140   22.8300  -29.9460 N   0  0  0  0  0  0  0  0  0  0  0  0
   -5.4760   22.3130  -30.2890 C   0  0  0  0  0  0  0  0  0  0  0  0
   -4.8510   23.0600  -31.4920 C   0  0  0  0  0  0  0  0  0  0  0  0
   -5.4390   24.3250  -31.7470 O   0  0  0  0  0  0  0  0  0  0  0  0
   -5.6890   25.0010  -30.5340 C   0  0  0  0  0  0  0  0  0  0  0  0
   -6.8160   24.2980  -29.7540 C   0  0  0  0  0  0  0  0  0  0  0  0
   -6.5260   21.1210  -33.0750 C   0  0  0  0  0  0  0  0  0  0  0  0
   -5.9680   20.0120  -33.7160 C   0  0  0  0  0  0  0  0  0  0  0  0
   -1.9750   18.6580  -34.2090 C   0  0  0  0  0  0  0  0  0  0  0  0
   -1.2890   19.8660  -34.1870 C   0  0  0  0  0  0  0  0  0  0  0  0
    1.0316   18.8234  -35.6727 H   0  0  0  0  0  0  0  0  0  0  0  0
   -0.4213   19.0974  -36.6929 H   0  0  0  0  0  0  0  0  0  0  0  0
    0.9155   20.2973  -36.6929 H   0  0  0  0  0  0  0  0  0  0  0  0
   -4.0640   19.3757  -31.5752 H   0  0  0  0  0  0  0  0  0  0  0  0
   -3.5660   16.4940  -32.6860 H   0  0  0  0  0  0  0  0  0  0  0  0
   -7.5412   17.5241  -31.9732 H   0  0  0  0  0  0  0  0  0  0  0  0
   -8.5442   19.5050  -30.8366 H   0  0  0  0  0  0  0  0  0  0  0  0
   -4.8162   22.4315  -29.4169 H   0  0  0  0  0  0  0  0  0  0  0  0
   -5.5844   21.2546  -30.5682 H   0  0  0  0  0  0  0  0  0  0  0  0
   -3.7802   23.2095  -31.2893 H   0  0  0  0  0  0  0  0  0  0  0  0
   -5.0276   22.4387  -32.3824 H   0  0  0  0  0  0  0  0  0  0  0  0
   -4.7731   25.0043  -29.9247 H   0  0  0  0  0  0  0  0  0  0  0  0
   -5.9969   26.0334  -30.7560 H   0  0  0  0  0  0  0  0  0  0  0  0
   -6.6896   24.5130  -28.6826 H   0  0  0  0  0  0  0  0  0  0  0  0
   -7.7737   24.6817  -30.1356 H   0  0  0  0  0  0  0  0  0  0  0  0
   -6.2480   22.1362  -33.3945 H   0  0  0  0  0  0  0  0  0  0  0  0
   -5.2587   20.1564  -34.5443 H   0  0  0  0  0  0  0  0  0  0  0  0
   -1.7157   17.8668  -34.9279 H   0  0  0  0  0  0  0  0  0  0  0  0
  1  2  1  0
  2  3  1  0
  3  4  2  0
  3  5  1  0
  5  6  1  0
  6  7  2  0
  7  8  1  0
  8  9  2  0
  9 10  1  0
 10 11  1  0
 11 12  2  0
 11 13  2  0
 11 14  1  0
 14 15  2  0
 15 16  1  0
 16 17  2  0
 17 18  1  0
 18 19  2  0
 18 20  2  0
 18 21  1  0
 21 22  1  0
 22 23  1  0
 23 24  1  0
 24 25  1  0
 25 26  1  0
 17 27  1  0
 27 28  2  0
  9 29  1  0
 29 30  2  0
 30  2  1  0
 30  6  1  0
 28 14  1  0
 26 21  1  0
  1 31  1  0
  1 32  1  0
  1 33  1  0
  8 34  1  0
 10 35  1  0
 15 36  1  0
 16 37  1  0
 22 38  1  0
 22 39  1  0
 23 40  1  0
 23 41  1  0
 25 42  1  0
 25 43  1  0
 26 44  1  0
 26 45  1  0
 27 46  1  0
 28 47  1  0
 29 48  1  0
M  CHG  1   5  -1
M  END
>  <UniqueID>  (4) 
4

>  <SMILES>  (4) 
Cn1c(=O)[n-]c2ncc(NS(=O)(=O)c3ccc(S(=O)(=O)N4CCOCC4)cc3)cc21

>  <Energy>  (4) 
101.89395213425297

>  <Genealogy>  (4) 
Cn1c(=O)[n-]c2ncc(NS(=O)(=O)c3ccc(S(=O)(=O)N4CCOCC4)cc3)cc21 (protonated)
Cn1c(=O)[n-]c2ncc(NS(=O)(=O)c3ccc(S(=O)(=O)N4CCOCC4)cc3)cc21 (3D coordinates assigned)
Cn1c(=O)[n-]c2ncc(NS(=O)(=O)c3ccc(S(=O)(=O)N4CCOCC4)cc3)cc21 (nonaromatic ring conformer: 101.89395213425297 kcal/mol)

>  <smiles>  (4) 
Cn1c(=O)[nH]c2ncc(NS(=O)(=O)c3ccc(S(=O)(=O)N4CCOCC4)cc3)cc21

>  <score_type>  (4) 
oracle

>  <origin>  (4) 
adgpu

>  <m_score__min__energy>  (4) 
-11.08

>  <m_primary>  (4) 
energy

$$$$
4:0
     RDKit          3D

 57 60  0  0  0  0  0  0  0  0999 V2000
   -0.2010   18.1910  -27.7960 C   0  0  0  0  0  0  0  0  0  0  0  0
   -0.9390   19.2460  -28.5070 N   0  0  0  0  0  0  0  0  0  0  0  0
   -0.1700   19.7000  -29.6790 C   0  0  0  0  0  0  0  0  0  0  0  0
   -1.0350   20.6220  -30.5390 C   0  0  0  0  0  0  0  0  0  0  0  0
   -1.7430   21.6630  -29.7160 C   0  0  0  0  0  0  0  0  0  0  0  0
   -2.3510   22.7490  -30.3610 C   0  0  0  0  0  0  0  0  0  0  0  0
   -3.0710   23.7020  -29.6280 C   0  0  0  0  0  0  0  0  0  0  0  0
   -3.6880   24.8020  -30.2970 N   0  0  0  0  0  0  0  0  0  0  0  0
   -5.4020   25.0510  -30.2840 S   0  0  0  0  0  0  0  0  0  0  0  0
   -5.8370   25.4290  -28.8970 O   0  0  0  0  0  0  0  0  0  0  0  0
   -5.7340   26.1850  -31.2130 O   0  0  0  0  0  0  0  0  0  0  0  0
   -6.2730   23.6070  -30.8010 C   0  0  0  0  0  0  0  0  0  0  0  0
   -5.9940   23.0300  -32.0480 C   0  0  0  0  0  0  0  0  0  0  0  0
   -6.6660   21.8740  -32.4540 C   0  0  0  0  0  0  0  0  0  0  0  0
   -7.6190   21.2800  -31.6150 C   0  0  0  0  0  0  0  0  0  0  0  0
   -8.4170   19.7790  -32.0990 S   0  0  0  0  0  0  0  0  0  0  0  0
   -9.0710   19.1580  -30.8960 O   0  0  0  0  0  0  0  0  0  0  0  0
   -9.4950   20.0940  -33.1000 O   0  0  0  0  0  0  0  0  0  0  0  0
   -7.2920   18.6400  -32.7980 N   0  0  0  0  0  0  0  0  0  0  0  0
   -6.4720   19.2640  -33.8680 C   0  0  0  0  0  0  0  0  0  0  0  0
   -4.9910   19.4050  -33.4940 C   0  0  0  0  0  0  0  0  0  0  0  0
   -4.3930   18.0360  -33.1370 C   0  0  0  0  0  0  0  0  0  0  0  0
   -5.3590   17.1580  -32.3170 C   0  0  0  0  0  0  0  0  0  0  0  0
   -6.5180   17.9720  -31.7310 C   0  0  0  0  0  0  0  0  0  0  0  0
   -7.9070   21.8640  -30.3740 C   0  0  0  0  0  0  0  0  0  0  0  0
   -7.2420   23.0270  -29.9720 C   0  0  0  0  0  0  0  0  0  0  0  0
   -3.1530   23.5880  -28.2290 C   0  0  0  0  0  0  0  0  0  0  0  0
   -3.8310   24.5360  -27.4630 O   0  0  0  0  0  0  0  0  0  0  0  0
   -2.5550   22.5010  -27.5840 C   0  0  0  0  0  0  0  0  0  0  0  0
   -1.8740   21.5200  -28.3190 C   0  0  0  0  0  0  0  0  0  0  0  0
   -1.1970   20.3800  -27.5980 C   0  0  0  0  0  0  0  0  0  0  0  0
   -0.3044   18.3388  -26.7109 H   0  0  0  0  0  0  0  0  0  0  0  0
   -0.6093   17.2078  -28.0727 H   0  0  0  0  0  0  0  0  0  0  0  0
    0.8626   18.2374  -28.0727 H   0  0  0  0  0  0  0  0  0  0  0  0
    0.7226   20.2468  -29.3409 H   0  0  0  0  0  0  0  0  0  0  0  0
    0.1345   18.8268  -30.2747 H   0  0  0  0  0  0  0  0  0  0  0  0
   -0.3919   21.1280  -31.2741 H   0  0  0  0  0  0  0  0  0  0  0  0
   -1.7987   20.0050  -31.0349 H   0  0  0  0  0  0  0  0  0  0  0  0
   -2.2621   22.8541  -31.4524 H   0  0  0  0  0  0  0  0  0  0  0  0
   -5.2438   23.4887  -32.7088 H   0  0  0  0  0  0  0  0  0  0  0  0
   -6.4464   21.4286  -33.4355 H   0  0  0  0  0  0  0  0  0  0  0  0
   -6.5460   18.6418  -34.7721 H   0  0  0  0  0  0  0  0  0  0  0  0
   -6.8650   20.2786  -34.0294 H   0  0  0  0  0  0  0  0  0  0  0  0
   -4.4410   19.8287  -34.3472 H   0  0  0  0  0  0  0  0  0  0  0  0
   -4.9065   20.0685  -32.6207 H   0  0  0  0  0  0  0  0  0  0  0  0
   -4.1430   17.5078  -34.0689 H   0  0  0  0  0  0  0  0  0  0  0  0
   -3.5015   18.2151  -32.5179 H   0  0  0  0  0  0  0  0  0  0  0  0
   -5.7700   16.3754  -32.9716 H   0  0  0  0  0  0  0  0  0  0  0  0
   -4.7938   16.7209  -31.4806 H   0  0  0  0  0  0  0  0  0  0  0  0
   -7.1840   17.2980  -31.1723 H   0  0  0  0  0  0  0  0  0  0  0  0
   -6.1021   18.7433  -31.0660 H   0  0  0  0  0  0  0  0  0  0  0  0
   -8.6585   21.4062  -29.7139 H   0  0  0  0  0  0  0  0  0  0  0  0
   -7.4806   23.4876  -29.0020 H   0  0  0  0  0  0  0  0  0  0  0  0
   -4.3770   25.2810  -27.8810 H   0  0  0  0  0  0  0  0  0  0  0  0
   -2.6194   22.4146  -26.4893 H   0  0  0  0  0  0  0  0  0  0  0  0
   -0.2401   20.7342  -27.1870 H   0  0  0  0  0  0  0  0  0  0  0  0
   -1.8630   20.0346  -26.7936 H   0  0  0  0  0  0  0  0  0  0  0  0
  1  2  1  0
  2  3  1  0
  3  4  1  0
  4  5  1  0
  5  6  2  0
  6  7  1  0
  7  8  1  0
  8  9  1  0
  9 10  2  0
  9 11  2  0
  9 12  1  0
 12 13  2  0
 13 14  1  0
 14 15  2  0
 15 16  1  0
 16 17  2  0
 16 18  2  0
 16 19  1  0
 19 20  1  0
 20 21  1  0
 21 22  1  0
 22 23  1  0
 23 24  1  0
 15 25  1  0
 25 26  2  0
  7 27  2  0
 27 28  1  0
 27 29  1  0
 29 30  2  0
 30 31  1  0
 31  2  1  0
 30  5  1  0
 26 12  1  0
 24 19  1  0
  1 32  1  0
  1 33  1  0
  1 34  1  0
  3 35  1  0
  3 36  1  0
  4 37  1  0
  4 38  1  0
  6 39  1  0
 13 40  1  0
 14 41  1  0
 20 42  1  0
 20 43  1  0
 21 44  1  0
 21 45  1  0
 22 46  1  0
 22 47  1  0
 23 48  1  0
 23 49  1  0
 24 50  1  0
 24 51  1  0
 25 52  1  0
 26 53  1  0
 28 54  1  0
 29 55  1  0
 31 56  1  0
 31 57  1  0
M  CHG  1   8  -1
M  END
>  <UniqueID>  (5) 
5

>  <SMILES>  (5) 
CN1CCc2cc([N-]S(=O)(=O)c3ccc(S(=O)(=O)N4CCCCC4)cc3)c(O)cc2C1

>  <Energy>  (5) 
71.5132102056709

>  <Genealogy>  (5) 
CN1CCc2cc([N-]S(=O)(=O)c3ccc(S(=O)(=O)N4CCCCC4)cc3)c(O)cc2C1 (protonated)
CN1CCc2cc([N-]S(=O)(=O)c3ccc(S(=O)(=O)N4CCCCC4)cc3)c(O)cc2C1 (3D coordinates assigned)
CN1CCc2cc([N-]S(=O)(=O)c3ccc(S(=O)(=O)N4CCCCC4)cc3)c(O)cc2C1 (nonaromatic ring conformer: 71.5132102056709 kcal/mol)

>  <smiles>  (5) 
CN1CCc2cc(NS(=O)(=O)c3ccc(S(=O)(=O)N4CCCCC4)cc3)c(O)cc2C1

>  <score_type>  (5) 
oracle

>  <origin>  (5) 
adgpu

>  <m_score__min__energy>  (5) 
-11.9

>  <m_primary>  (5) 
energy

$$$$
5:0
     RDKit          3D

 36 38  0  0  0  0  0  0  0  0999 V2000
   -1.6460   25.6740  -28.9710 O   0  0  0  0  0  0  0  0  0  0  0  0
   -2.5100   24.8190  -29.2980 C   0  0  0  0  0  0  0  0  0  0  0  0
   -3.5010   25.1780  -30.2710 N   0  0  0  0  0  0  0  0  0  0  0  0
   -4.6850   24.4310  -30.5820 C   0  0  0  0  0  0  0  0  0  0  0  0
   -4.5750   23.2800  -31.3700 C   0  0  0  0  0  0  0  0  0  0  0  0
   -5.7100   22.5270  -31.6840 C   0  0  0  0  0  0  0  0  0  0  0  0
   -6.9670   22.9090  -31.1980 C   0  0  0  0  0  0  0  0  0  0  0  0
   -8.3930   21.9660  -31.6280 S   0  0  0  0  0  0  0  0  0  0  0  0
   -9.0090   21.4310  -30.3660 O   0  0  0  0  0  0  0  0  0  0  0  0
   -9.3990   22.8440  -32.3210 O   0  0  0  0  0  0  0  0  0  0  0  0
   -7.9310   20.6380  -32.6700 N   0  0  0  0  0  0  0  0  0  0  0  0
   -9.0840   19.7860  -32.9880 C   0  0  0  0  0  0  0  0  0  0  0  0
   -9.1140   18.6520  -31.9720 C   0  0  0  0  0  0  0  0  0  0  0  0
   -7.7340   18.6330  -31.3380 C   0  0  0  0  0  0  0  0  0  0  0  0
   -6.9580   19.7610  -32.0060 C   0  0  0  0  0  0  0  0  0  0  0  0
   -7.0790   24.0480  -30.3900 C   0  0  0  0  0  0  0  0  0  0  0  0
   -5.9440   24.8020  -30.0750 C   0  0  0  0  0  0  0  0  0  0  0  0
   -2.5050   23.5040  -28.6290 C   0  0  0  0  0  0  0  0  0  0  0  0
   -1.3750   22.6870  -28.5250 C   0  0  0  0  0  0  0  0  0  0  0  0
   -1.9210   21.3290  -27.7280 S   0  0  0  0  0  0  0  0  0  0  0  0
   -3.5060   21.7730  -27.5440 N   0  0  0  0  0  0  0  0  0  0  0  0
   -3.6490   22.9750  -28.0940 N   0  0  0  0  0  0  0  0  0  0  0  0
   -3.5896   22.9659  -31.7446 H   0  0  0  0  0  0  0  0  0  0  0  0
   -5.6157   21.6310  -32.3152 H   0  0  0  0  0  0  0  0  0  0  0  0
   -7.5210   21.0340  -33.5480 H   0  0  0  0  0  0  0  0  0  0  0  0
  -10.0125   20.3722  -32.9231 H   0  0  0  0  0  0  0  0  0  0  0  0
   -8.9988   19.3868  -34.0095 H   0  0  0  0  0  0  0  0  0  0  0  0
   -9.8841   18.8403  -31.2094 H   0  0  0  0  0  0  0  0  0  0  0  0
   -9.3573   17.6891  -32.4448 H   0  0  0  0  0  0  0  0  0  0  0  0
   -7.8073   18.8072  -30.2544 H   0  0  0  0  0  0  0  0  0  0  0  0
   -7.2372   17.6613  -31.4758 H   0  0  0  0  0  0  0  0  0  0  0  0
   -6.3964   20.3289  -31.2497 H   0  0  0  0  0  0  0  0  0  0  0  0
   -6.2414   19.3569  -32.7362 H   0  0  0  0  0  0  0  0  0  0  0  0
   -8.0629   24.3503  -30.0020 H   0  0  0  0  0  0  0  0  0  0  0  0
   -6.0358   25.6876  -29.4290 H   0  0  0  0  0  0  0  0  0  0  0  0
   -0.3570   22.8936  -28.8870 H   0  0  0  0  0  0  0  0  0  0  0  0
  1  2  2  0
  2  3  1  0
  3  4  1  0
  4  5  2  0
  5  6  1  0
  6  7  2  0
  7  8  1  0
  8  9  2  0
  8 10  2  0
  8 11  1  0
 11 12  1  0
 12 13  1  0
 13 14  1  0
 14 15  1  0
  7 16  1  0
 16 17  2  0
  2 18  1  0
 18 19  2  0
 19 20  1  0
 20 21  1  0
 21 22  2  0
 17  4  1  0
 22 18  1  0
 15 11  1  0
  5 23  1  0
  6 24  1  0
 11 25  1  0
 12 26  1  0
 12 27  1  0
 13 28  1  0
 13 29  1  0
 14 30  1  0
 14 31  1  0
 15 32  1  0
 15 33  1  0
 16 34  1  0
 17 35  1  0
 19 36  1  0
M  CHG  2   3  -1  11   1
M  END
>  <UniqueID>  (6) 
6

>  <SMILES>  (6) 
O=C([N-]c1ccc(S(=O)(=O)[NH+]2CCCC2)cc1)c1csnn1

>  <Energy>  (6) 
80.28137038935009

>  <Genealogy>  (6) 
O=C([N-]c1ccc(S(=O)(=O)[NH+]2CCCC2)cc1)c1csnn1 (protonated)
O=C([N-]c1ccc(S(=O)(=O)[NH+]2CCCC2)cc1)c1csnn1 (3D coordinates assigned)
O=C([N-]c1ccc(S(=O)(=O)[NH+]2CCCC2)cc1)c1csnn1 (nonaromatic ring conformer: 80.28137038935009 kcal/mol)

>  <smiles>  (6) 
O=C(Nc1ccc(S(=O)(=O)N2CCCC2)cc1)c1csnn1

>  <score_type>  (6) 
oracle

>  <origin>  (6) 
adgpu

>  <m_score__min__energy>  (6) 
-9.6899999999999995

>  <m_primary>  (6) 
energy

$$$$
6:0
     RDKit          3D

 55 57  0  0  0  0  0  0  0  0999 V2000
   -2.7270   19.2390  -26.3950 C   0  0  0  0  0  0  0  0  0  0  0  0
   -2.0590   19.9510  -27.5820 C   0  0  0  0  0  0  0  0  0  0  0  0
   -1.8220   21.4060  -27.3860 N   0  0  0  0  0  0  0  0  0  0  0  0
   -0.8910   21.7300  -26.2820 C   0  0  0  0  0  0  0  0  0  0  0  0
    0.1850   22.7260  -26.7180 C   0  0  0  0  0  0  0  0  0  0  0  0
   -1.4350   22.1030  -28.6350 C   0  0  0  0  0  0  0  0  0  0  0  0
   -2.6490   22.7190  -29.3050 C   0  0  0  0  0  0  0  0  0  0  0  0
   -3.1360   24.0040  -28.9530 C   0  0  0  0  0  0  0  0  0  0  0  0
   -2.5490   24.7960  -27.8510 C   0  0  0  0  0  0  0  0  0  0  0  0
   -2.9450   24.5510  -26.5260 C   0  0  0  0  0  0  0  0  0  0  0  0
   -2.3970   25.2990  -25.4780 C   0  0  0  0  0  0  0  0  0  0  0  0
   -1.4600   26.3000  -25.7470 C   0  0  0  0  0  0  0  0  0  0  0  0
   -1.0720   26.5590  -27.0640 C   0  0  0  0  0  0  0  0  0  0  0  0
   -1.6140   25.8150  -28.1170 C   0  0  0  0  0  0  0  0  0  0  0  0
   -1.2150   26.0860  -29.4220 O   0  0  0  0  0  0  0  0  0  0  0  0
   -4.2100   24.5550  -29.6650 C   0  0  0  0  0  0  0  0  0  0  0  0
   -4.7930   23.8620  -30.7230 C   0  0  0  0  0  0  0  0  0  0  0  0
   -4.3140   22.6000  -31.0970 C   0  0  0  0  0  0  0  0  0  0  0  0
   -4.9180   21.9110  -32.2640 C   0  0  0  0  0  0  0  0  0  0  0  0
   -4.4230   22.1080  -33.4070 O   0  0  0  0  0  0  0  0  0  0  0  0
   -6.0540   20.9660  -32.1130 C   0  0  0  0  0  0  0  0  0  0  0  0
   -7.3760   21.4530  -32.0870 C   0  0  0  0  0  0  0  0  0  0  0  0
   -8.4610   20.5770  -31.9490 C   0  0  0  0  0  0  0  0  0  0  0  0
   -9.8640   21.1080  -31.9870 C   0  0  0  0  0  0  0  0  0  0  0  0
   -8.2280   19.2000  -31.8440 C   0  0  0  0  0  0  0  0  0  0  0  0
   -6.9230   18.7060  -31.8510 C   0  0  0  0  0  0  0  0  0  0  0  0
   -5.8330   19.5780  -31.9850 C   0  0  0  0  0  0  0  0  0  0  0  0
   -4.5360   19.0630  -32.0090 O   0  0  0  0  0  0  0  0  0  0  0  0
   -3.2630   22.0160  -30.3620 C   0  0  0  0  0  0  0  0  0  0  0  0
   -2.8280   20.7300  -30.6750 O   0  0  0  0  0  0  0  0  0  0  0  0
   -2.3383   19.6533  -25.4530 H   0  0  0  0  0  0  0  0  0  0  0  0
   -3.8154   19.3916  -26.4412 H   0  0  0  0  0  0  0  0  0  0  0  0
   -2.5054   18.1625  -26.4412 H   0  0  0  0  0  0  0  0  0  0  0  0
   -1.0880   19.4685  -27.7676 H   0  0  0  0  0  0  0  0  0  0  0  0
   -2.7573   19.8631  -28.4274 H   0  0  0  0  0  0  0  0  0  0  0  0
   -1.4636   22.1663  -25.4502 H   0  0  0  0  0  0  0  0  0  0  0  0
   -0.3905   20.8002  -25.9737 H   0  0  0  0  0  0  0  0  0  0  0  0
    0.6598   23.1655  -25.8284 H   0  0  0  0  0  0  0  0  0  0  0  0
    0.9446   22.2052  -27.3195 H   0  0  0  0  0  0  0  0  0  0  0  0
   -0.2757   23.5235  -27.3195 H   0  0  0  0  0  0  0  0  0  0  0  0
   -0.7127   22.8975  -28.3960 H   0  0  0  0  0  0  0  0  0  0  0  0
   -0.9851   21.3717  -29.3227 H   0  0  0  0  0  0  0  0  0  0  0  0
   -3.6881   23.7688  -26.3114 H   0  0  0  0  0  0  0  0  0  0  0  0
   -2.7043   25.0987  -24.4410 H   0  0  0  0  0  0  0  0  0  0  0  0
   -1.0276   26.8844  -24.9215 H   0  0  0  0  0  0  0  0  0  0  0  0
   -0.3377   27.3508  -27.2734 H   0  0  0  0  0  0  0  0  0  0  0  0
   -4.5968   25.5460  -29.3851 H   0  0  0  0  0  0  0  0  0  0  0  0
   -5.6365   24.3093  -31.2694 H   0  0  0  0  0  0  0  0  0  0  0  0
   -7.5585   22.5341  -32.1761 H   0  0  0  0  0  0  0  0  0  0  0  0
  -10.2314   21.2470  -30.9595 H   0  0  0  0  0  0  0  0  0  0  0  0
   -9.8766   22.0731  -32.5147 H   0  0  0  0  0  0  0  0  0  0  0  0
  -10.5125   20.3931  -32.5147 H   0  0  0  0  0  0  0  0  0  0  0  0
   -9.0765   18.5056  -31.7557 H   0  0  0  0  0  0  0  0  0  0  0  0
   -6.7480   17.6247  -31.7507 H   0  0  0  0  0  0  0  0  0  0  0  0
   -3.7550   19.5710  -31.6100 H   0  0  0  0  0  0  0  0  0  0  0  0
  1  2  1  0
  2  3  1  0
  3  4  1  0
  4  5  1  0
  3  6  1  0
  6  7  1  0
  7  8  2  0
  8  9  1  0
  9 10  2  0
 10 11  1  0
 11 12  2  0
 12 13  1  0
 13 14  2  0
 14 15  1  0
  8 16  1  0
 16 17  2  0
 17 18  1  0
 18 19  1  0
 19 20  2  0
 19 21  1  0
 21 22  2  0
 22 23  1  0
 23 24  1  0
 23 25  2  0
 25 26  1  0
 26 27  2  0
 27 28  1  0
 18 29  2  0
 29 30  1  0
 29  7  1  0
 14  9  1  0
 27 21  1  0
  1 31  1  0
  1 32  1  0
  1 33  1  0
  2 34  1  0
  2 35  1  0
  4 36  1  0
  4 37  1  0
  5 38  1  0
  5 39  1  0
  5 40  1  0
  6 41  1  0
  6 42  1  0
 10 43  1  0
 11 44  1  0
 12 45  1  0
 13 46  1  0
 16 47  1  0
 17 48  1  0
 22 49  1  0
 24 50  1  0
 24 51  1  0
 24 52  1  0
 25 53  1  0
 26 54  1  0
 28 55  1  0
M  CHG  2  15  -1  30  -1
M  END
>  <UniqueID>  (7) 
7

>  <SMILES>  (7) 
CCN(CC)Cc1c(-c2ccccc2[O-])ccc(C(=O)c2cc(C)ccc2O)c1[O-]

>  <Energy>  (7) 
74.51962979644121

>  <Genealogy>  (7) 
CCN(CC)Cc1c(-c2ccccc2[O-])ccc(C(=O)c2cc(C)ccc2O)c1[O-] (protonated)
CCN(CC)Cc1c(-c2ccccc2[O-])ccc(C(=O)c2cc(C)ccc2O)c1[O-] (3D coordinates assigned)
CCN(CC)Cc1c(-c2ccccc2[O-])ccc(C(=O)c2cc(C)ccc2O)c1[O-] (optimized conformer: 74.51962979644121 kcal/mol)

>  <smiles>  (7) 
CCN(CC)Cc1c(-c2ccccc2O)ccc(C(=O)c2cc(C)ccc2O)c1O

>  <score_type>  (7) 
oracle

>  <origin>  (7) 
adgpu

>  <m_score__min__energy>  (7) 
-11.41

>  <m_primary>  (7) 
energy

$$$$
7:0
     RDKit          3D

 54 57  0  0  0  0  0  0  0  0999 V2000
   -4.9320   15.3780  -34.2630 C   0  0  0  0  0  0  0  0  0  0  0  0
   -4.3360   15.7920  -32.9810 N   0  0  0  0  0  0  0  0  0  0  0  0
   -3.3510   16.8800  -33.1360 C   0  0  0  0  0  0  0  0  0  0  0  0
   -3.9850   18.1800  -33.6560 C   0  0  0  0  0  0  0  0  0  0  0  0
   -5.2990   18.4820  -32.9860 C   0  0  0  0  0  0  0  0  0  0  0  0
   -5.8820   19.7410  -33.1780 C   0  0  0  0  0  0  0  0  0  0  0  0
   -7.1210   20.0590  -32.5910 C   0  0  0  0  0  0  0  0  0  0  0  0
   -7.7230   21.3470  -32.7840 N   0  0  0  0  0  0  0  0  0  0  0  0
   -8.0780   22.4520  -31.4960 S   0  0  0  0  0  0  0  0  0  0  0  0
   -9.1100   23.4420  -31.9540 O   0  0  0  0  0  0  0  0  0  0  0  0
   -8.6200   21.6980  -30.3110 O   0  0  0  0  0  0  0  0  0  0  0  0
   -6.6020   23.3170  -31.0870 C   0  0  0  0  0  0  0  0  0  0  0  0
   -6.6070   24.7010  -30.8650 C   0  0  0  0  0  0  0  0  0  0  0  0
   -5.4350   25.3500  -30.4600 C   0  0  0  0  0  0  0  0  0  0  0  0
   -4.2560   24.6190  -30.2680 C   0  0  0  0  0  0  0  0  0  0  0  0
   -3.1010   25.2840  -29.8710 O   0  0  0  0  0  0  0  0  0  0  0  0
   -4.2500   23.2280  -30.4800 C   0  0  0  0  0  0  0  0  0  0  0  0
   -2.7840   22.2750  -30.2480 S   0  0  0  0  0  0  0  0  0  0  0  0
   -3.1180   20.9600  -29.5930 O   0  0  0  0  0  0  0  0  0  0  0  0
   -1.8460   23.0490  -29.3620 O   0  0  0  0  0  0  0  0  0  0  0  0
   -2.0190   21.9870  -31.7950 N   0  0  0  0  0  0  0  0  0  0  0  0
   -2.9890   21.5690  -32.8050 C   0  0  0  0  0  0  0  0  0  0  0  0
   -2.1940   20.8060  -33.8420 C   0  0  0  0  0  0  0  0  0  0  0  0
   -1.0890   20.1390  -33.0440 C   0  0  0  0  0  0  0  0  0  0  0  0
   -1.0340   20.9020  -31.7180 C   0  0  0  0  0  0  0  0  0  0  0  0
   -5.4240   22.5890  -30.9030 C   0  0  0  0  0  0  0  0  0  0  0  0
   -7.7770   19.0940  -31.8070 C   0  0  0  0  0  0  0  0  0  0  0  0
   -9.0010   19.3680  -31.2010 O   0  0  0  0  0  0  0  0  0  0  0  0
   -7.2070   17.8280  -31.6320 C   0  0  0  0  0  0  0  0  0  0  0  0
   -5.9780   17.5070  -32.2310 C   0  0  0  0  0  0  0  0  0  0  0  0
   -5.3610   16.1480  -31.9820 C   0  0  0  0  0  0  0  0  0  0  0  0
   -5.8216   14.7601  -34.0712 H   0  0  0  0  0  0  0  0  0  0  0  0
   -5.2221   16.2700  -34.8375 H   0  0  0  0  0  0  0  0  0  0  0  0
   -4.1973   14.7948  -34.8375 H   0  0  0  0  0  0  0  0  0  0  0  0
   -2.8894   17.0796  -32.1577 H   0  0  0  0  0  0  0  0  0  0  0  0
   -2.6060   16.5527  -33.8762 H   0  0  0  0  0  0  0  0  0  0  0  0
   -3.2915   19.0125  -33.4663 H   0  0  0  0  0  0  0  0  0  0  0  0
   -4.1766   18.0544  -34.7319 H   0  0  0  0  0  0  0  0  0  0  0  0
   -5.3651   20.4905  -33.7952 H   0  0  0  0  0  0  0  0  0  0  0  0
   -7.5327   25.2774  -31.0092 H   0  0  0  0  0  0  0  0  0  0  0  0
   -5.4399   26.4371  -30.2921 H   0  0  0  0  0  0  0  0  0  0  0  0
   -3.7558   20.9208  -32.3558 H   0  0  0  0  0  0  0  0  0  0  0  0
   -3.5133   22.4294  -33.2463 H   0  0  0  0  0  0  0  0  0  0  0  0
   -2.8233   20.0545  -34.3413 H   0  0  0  0  0  0  0  0  0  0  0  0
   -1.8053   21.4569  -34.6390 H   0  0  0  0  0  0  0  0  0  0  0  0
   -1.3253   19.0790  -32.8694 H   0  0  0  0  0  0  0  0  0  0  0  0
   -0.1255   20.1663  -33.5740 H   0  0  0  0  0  0  0  0  0  0  0  0
   -1.2821   20.2273  -30.8854 H   0  0  0  0  0  0  0  0  0  0  0  0
   -0.0254   21.3047  -31.5431 H   0  0  0  0  0  0  0  0  0  0  0  0
   -5.4175   21.5053  -31.0916 H   0  0  0  0  0  0  0  0  0  0  0  0
   -9.3840   20.3040  -31.1440 H   0  0  0  0  0  0  0  0  0  0  0  0
   -7.7267   17.0768  -31.0192 H   0  0  0  0  0  0  0  0  0  0  0  0
   -4.8942   16.1515  -30.9859 H   0  0  0  0  0  0  0  0  0  0  0  0
   -6.1658   15.4016  -32.0540 H   0  0  0  0  0  0  0  0  0  0  0  0
  1  2  1  0
  2  3  1  0
  3  4  1  0
  4  5  1  0
  5  6  2  0
  6  7  1  0
  7  8  1  0
  8  9  1  0
  9 10  2  0
  9 11  2  0
  9 12  1  0
 12 13  2  0
 13 14  1  0
 14 15  2  0
 15 16  1  0
 15 17  1  0
 17 18  1  0
 18 19  2  0
 18 20  2  0
 18 21  1  0
 21 22  1  0
 22 23  1  0
 23 24  1  0
 24 25  1  0
 17 26  2  0
  7 27  2  0
 27 28  1  0
 27 29  1  0
 29 30  2  0
 30 31  1  0
 31  2  1  0
 30  5  1  0
 26 12  1  0
 25 21  1  0
  1 32  1  0
  1 33  1  0
  1 34  1  0
  3 35  1  0
  3 36  1  0
  4 37  1  0
  4 38  1  0
  6 39  1  0
 13 40  1  0
 14 41  1  0
 22 42  1  0
 22 43  1  0
 23 44  1  0
 23 45  1  0
 24 46  1  0
 24 47  1  0
 25 48  1  0
 25 49  1  0
 26 50  1  0
 28 51  1  0
 29 52  1  0
 31 53  1  0
 31 54  1  0
M  CHG  2   8  -1  16  -1
M  END
>  <UniqueID>  (8) 
8

>  <SMILES>  (8) 
CN1CCc2cc([N-]S(=O)(=O)c3ccc([O-])c(S(=O)(=O)N4CCCC4)c3)c(O)cc2C1

>  <Energy>  (8) 
66.29953614672871

>  <Genealogy>  (8) 
CN1CCc2cc([N-]S(=O)(=O)c3ccc([O-])c(S(=O)(=O)N4CCCC4)c3)c(O)cc2C1 (protonated)
CN1CCc2cc([N-]S(=O)(=O)c3ccc([O-])c(S(=O)(=O)N4CCCC4)c3)c(O)cc2C1 (3D coordinates assigned)
CN1CCc2cc([N-]S(=O)(=O)c3ccc([O-])c(S(=O)(=O)N4CCCC4)c3)c(O)cc2C1 (nonaromatic ring conformer: 66.29953614672871 kcal/mol)

>  <smiles>  (8) 
CN1CCc2cc(NS(=O)(=O)c3ccc(O)c(S(=O)(=O)N4CCCC4)c3)c(O)cc2C1

>  <score_type>  (8) 
oracle

>  <origin>  (8) 
adgpu

>  <m_score__min__energy>  (8) 
-12.130000000000001

>  <m_primary>  (8) 
energy

$$$$
8:0
     RDKit          3D

 39 41  0  0  0  0  0  0  0  0999 V2000
   -5.6960   19.2650  -32.6400 C   0  0  0  0  0  0  0  0  0  0  0  0
   -6.8570   19.8400  -31.8920 C   0  0  0  0  0  0  0  0  0  0  0  0
   -7.6590   19.0510  -31.3240 O   0  0  0  0  0  0  0  0  0  0  0  0
   -7.0600   21.2590  -31.7700 N   0  0  0  0  0  0  0  0  0  0  0  0
   -8.3570   21.9000  -31.9900 C   0  0  0  0  0  0  0  0  0  0  0  0
   -8.1710   23.3890  -31.6150 C   0  0  0  0  0  0  0  0  0  0  0  0
   -6.7210   23.4830  -31.2910 C   0  0  0  0  0  0  0  0  0  0  0  0
   -5.9920   24.6290  -30.9790 C   0  0  0  0  0  0  0  0  0  0  0  0
   -4.6080   24.5150  -30.7810 C   0  0  0  0  0  0  0  0  0  0  0  0
   -3.8650   25.6480  -30.4690 O   0  0  0  0  0  0  0  0  0  0  0  0
   -3.9690   23.2620  -30.9110 C   0  0  0  0  0  0  0  0  0  0  0  0
   -2.5470   23.1890  -30.7320 N   0  0  0  0  0  0  0  0  0  0  0  0
   -1.6380   21.7260  -30.5310 S   0  0  0  0  0  0  0  0  0  0  0  0
   -2.5140   20.6920  -29.8800 O   0  0  0  0  0  0  0  0  0  0  0  0
   -0.4570   21.9970  -29.6430 O   0  0  0  0  0  0  0  0  0  0  0  0
   -1.0590   21.1570  -32.0940 C   0  0  0  0  0  0  0  0  0  0  0  0
   -1.9700   20.9170  -33.1280 C   0  0  0  0  0  0  0  0  0  0  0  0
   -1.5260   20.4320  -34.3620 C   0  0  0  0  0  0  0  0  0  0  0  0
   -0.1600   20.1830  -34.5790 C   0  0  0  0  0  0  0  0  0  0  0  0
    0.3080   19.6650  -35.8830 C   0  0  0  0  0  0  0  0  0  0  0  0
    0.6350   20.4560  -36.8070 O   0  0  0  0  0  0  0  0  0  0  0  0
    0.3930   18.2960  -36.1070 O   0  0  0  0  0  0  0  0  0  0  0  0
    0.7520   20.4310  -33.5360 C   0  0  0  0  0  0  0  0  0  0  0  0
    0.3040   20.9170  -32.3040 C   0  0  0  0  0  0  0  0  0  0  0  0
   -4.7370   22.1190  -31.2280 C   0  0  0  0  0  0  0  0  0  0  0  0
   -6.1210   22.2570  -31.3890 C   0  0  0  0  0  0  0  0  0  0  0  0
   -4.9468   18.8939  -31.9252 H   0  0  0  0  0  0  0  0  0  0  0  0
   -6.0424   18.4343  -33.2724 H   0  0  0  0  0  0  0  0  0  0  0  0
   -5.2452   20.0440  -33.2724 H   0  0  0  0  0  0  0  0  0  0  0  0
   -8.6546   21.8066  -33.0449 H   0  0  0  0  0  0  0  0  0  0  0  0
   -9.1450   21.4292  -31.3839 H   0  0  0  0  0  0  0  0  0  0  0  0
   -8.4288   24.0434  -32.4608 H   0  0  0  0  0  0  0  0  0  0  0  0
   -8.8187   23.7076  -30.7850 H   0  0  0  0  0  0  0  0  0  0  0  0
   -6.4924   25.6045  -30.8897 H   0  0  0  0  0  0  0  0  0  0  0  0
   -3.0411   21.1108  -32.9695 H   0  0  0  0  0  0  0  0  0  0  0  0
   -2.2505   20.2441  -35.1681 H   0  0  0  0  0  0  0  0  0  0  0  0
    1.8243   20.2412  -33.6912 H   0  0  0  0  0  0  0  0  0  0  0  0
    1.0253   21.1115  -31.4966 H   0  0  0  0  0  0  0  0  0  0  0  0
   -4.2555   21.1371  -31.3463 H   0  0  0  0  0  0  0  0  0  0  0  0
  1  2  1  0
  2  3  2  0
  2  4  1  0
  4  5  1  0
  5  6  1  0
  6  7  1  0
  7  8  2  0
  8  9  1  0
  9 10  1  0
  9 11  2  0
 11 12  1  0
 12 13  1  0
 13 14  2  0
 13 15  2  0
 13 16  1  0
 16 17  2  0
 17 18  1  0
 18 19  2  0
 19 20  1  0
 20 21  2  0
 20 22  1  0
 19 23  1  0
 23 24  2  0
 11 25  1  0
 25 26  2  0
 26  4  1  0
 26  7  1  0
 24 16  1  0
  1 27  1  0
  1 28  1  0
  1 29  1  0
  5 30  1  0
  5 31  1  0
  6 32  1  0
  6 33  1  0
  8 34  1  0
 17 35  1  0
 18 36  1  0
 23 37  1  0
 24 38  1  0
 25 39  1  0
M  CHG  3  10  -1  12  -1  22  -1
M  END
>  <UniqueID>  (9) 
9

>  <SMILES>  (9) 
CC(=O)N1CCc2cc([O-])c([N-]S(=O)(=O)c3ccc(C(=O)[O-])cc3)cc21

>  <Energy>  (9) 
60.65701639140591

>  <Genealogy>  (9) 
CC(=O)N1CCc2cc([O-])c([N-]S(=O)(=O)c3ccc(C(=O)[O-])cc3)cc21 (protonated)
CC(=O)N1CCc2cc([O-])c([N-]S(=O)(=O)c3ccc(C(=O)[O-])cc3)cc21 (3D coordinates assigned)
CC(=O)N1CCc2cc([O-])c([N-]S(=O)(=O)c3ccc(C(=O)[O-])cc3)cc21 (nonaromatic ring conformer: 60.65701639140591 kcal/mol)

>  <smiles>  (9) 
CC(=O)N1CCc2cc(O)c(NS(=O)(=O)c3ccc(C(=O)O)cc3)cc21

>  <score_type>  (9) 
oracle

>  <origin>  (9) 
adgpu

>  <m_score__min__energy>  (9) 
-13.02

>  <m_primary>  (9) 
energy

$$$$
9:0
     RDKit          3D

 81 86  0  0  0  0  0  0  0  0999 V2000
  -10.2426   21.2160  -31.0984 H   0  0  0  0  0  0  0  0  0  0  0  0
   -9.2440   21.0560  -31.5310 C   0  0  0  0  0  0  0  0  0  0  0  0
   -8.4930   22.2580  -31.9480 C   0  0  0  0  0  0  0  0  0  0  0  0
   -9.0780   23.3230  -32.2770 O   0  0  0  0  0  0  0  0  0  0  0  0
   -7.1000   22.1770  -32.0100 O   0  0  0  0  0  0  0  0  0  0  0  0
   -8.8180   19.7820  -31.6320 C   0  0  0  0  0  0  0  0  0  0  0  0
   -9.4761   18.9953  -31.2344 H   0  0  0  0  0  0  0  0  0  0  0  0
   -7.5440   19.3590  -32.2310 C   0  0  0  0  0  0  0  0  0  0  0  0
   -7.1690   19.7970  -33.5110 C   0  0  0  0  0  0  0  0  0  0  0  0
   -7.7991   20.5172  -34.0535 H   0  0  0  0  0  0  0  0  0  0  0  0
   -5.9930   19.3160  -34.0950 C   0  0  0  0  0  0  0  0  0  0  0  0
   -5.7056   19.6556  -35.1010 H   0  0  0  0  0  0  0  0  0  0  0  0
   -5.1770   18.4050  -33.4100 C   0  0  0  0  0  0  0  0  0  0  0  0
   -3.9890   17.9230  -34.0590 N   0  0  0  0  0  0  0  0  0  0  0  0
   -3.4670   18.5840  -34.6830 H   0  0  0  0  0  0  0  0  0  0  0  0
   -3.3350   16.6800  -33.7450 C   0  0  0  0  0  0  0  0  0  0  0  0
   -4.0260   15.6770  -33.4460 O   0  0  0  0  0  0  0  0  0  0  0  0
   -1.8240   16.5430  -33.9090 C   0  0  0  0  0  0  0  0  0  0  0  0
   -1.2930   17.7630  -34.5410 N   0  0  0  0  0  0  0  0  0  0  0  0
   -0.3430   18.6410  -33.9170 C   0  0  0  0  0  0  0  0  0  0  0  0
    0.8840   18.5870  -34.2340 O   0  0  0  0  0  0  0  0  0  0  0  0
   -0.7780   19.5930  -32.8830 C   0  0  0  0  0  0  0  0  0  0  0  0
    0.0010   19.8290  -31.7240 C   0  0  0  0  0  0  0  0  0  0  0  0
    0.9559   19.2992  -31.5920 H   0  0  0  0  0  0  0  0  0  0  0  0
   -0.4350   20.7340  -30.7410 C   0  0  0  0  0  0  0  0  0  0  0  0
    0.1483   20.8894  -29.8214 H   0  0  0  0  0  0  0  0  0  0  0  0
   -1.6260   21.4320  -30.9580 C   0  0  0  0  0  0  0  0  0  0  0  0
   -2.3050   22.3820  -30.1910 C   0  0  0  0  0  0  0  0  0  0  0  0
   -1.9080   22.9800  -28.8520 C   0  0  0  0  0  0  0  0  0  0  0  0
   -2.8073   23.4932  -28.4805 H   0  0  0  0  0  0  0  0  0  0  0  0
   -1.5150   21.8830  -27.8340 C   0  0  0  0  0  0  0  0  0  0  0  0
   -2.4352   21.4242  -27.4432 H   0  0  0  0  0  0  0  0  0  0  0  0
   -0.8824   21.1575  -28.3664 H   0  0  0  0  0  0  0  0  0  0  0  0
   -0.6890   22.4200  -26.6400 C   0  0  0  0  0  0  0  0  0  0  0  0
   -0.9502   21.8432  -25.7405 H   0  0  0  0  0  0  0  0  0  0  0  0
    0.3766   22.3107  -26.8899 H   0  0  0  0  0  0  0  0  0  0  0  0
   -0.9600   23.9070  -26.3700 C   0  0  0  0  0  0  0  0  0  0  0  0
   -2.0219   24.0333  -26.1123 H   0  0  0  0  0  0  0  0  0  0  0  0
   -0.3089   24.2261  -25.5428 H   0  0  0  0  0  0  0  0  0  0  0  0
   -0.6360   24.7890  -27.6010 C   0  0  0  0  0  0  0  0  0  0  0  0
   -1.3019   25.6644  -27.5859 H   0  0  0  0  0  0  0  0  0  0  0  0
    0.4255   25.0677  -27.5263 H   0  0  0  0  0  0  0  0  0  0  0  0
   -0.8180   24.0600  -28.9540 C   0  0  0  0  0  0  0  0  0  0  0  0
   -1.1073   24.7925  -29.7219 H   0  0  0  0  0  0  0  0  0  0  0  0
    0.1324   23.5763  -29.2238 H   0  0  0  0  0  0  0  0  0  0  0  0
   -3.4610   22.6860  -30.9250 C   0  0  0  0  0  0  0  0  0  0  0  0
   -4.5130   23.6350  -30.5050 C   0  0  0  0  0  0  0  0  0  0  0  0
   -4.3890   24.9590  -30.7980 N   0  0  0  0  0  0  0  0  0  0  0  0
   -5.3400   25.8590  -30.4340 C   0  0  0  0  0  0  0  0  0  0  0  0
   -5.2181   26.9249  -30.6767 H   0  0  0  0  0  0  0  0  0  0  0  0
   -6.4730   25.4170  -29.7490 C   0  0  0  0  0  0  0  0  0  0  0  0
   -7.2541   26.1309  -29.4487 H   0  0  0  0  0  0  0  0  0  0  0  0
   -6.6020   24.0930  -29.4560 N   0  0  0  0  0  0  0  0  0  0  0  0
   -5.6520   23.1930  -29.8210 C   0  0  0  0  0  0  0  0  0  0  0  0
   -5.7765   22.1267  -29.5813 H   0  0  0  0  0  0  0  0  0  0  0  0
   -3.5050   21.9590  -32.0710 N   0  0  0  0  0  0  0  0  0  0  0  0
   -4.5420   21.9890  -33.1060 C   0  0  0  0  0  0  0  0  0  0  0  0
   -5.5336   22.0177  -32.6308 H   0  0  0  0  0  0  0  0  0  0  0  0
   -4.4094   22.8837  -33.7321 H   0  0  0  0  0  0  0  0  0  0  0  0
   -4.4614   21.0881  -33.7321 H   0  0  0  0  0  0  0  0  0  0  0  0
   -2.3810   21.2100  -32.0900 C   0  0  0  0  0  0  0  0  0  0  0  0
   -1.9850   20.2890  -33.0650 C   0  0  0  0  0  0  0  0  0  0  0  0
   -2.6056   20.1130  -33.9560 H   0  0  0  0  0  0  0  0  0  0  0  0
   -1.1720   16.3950  -32.4970 C   0  0  0  0  0  0  0  0  0  0  0  0
   -0.9006   17.3929  -32.1222 H   0  0  0  0  0  0  0  0  0  0  0  0
   -1.9001   15.9109  -31.8295 H   0  0  0  0  0  0  0  0  0  0  0  0
    0.0900   15.5210  -32.5490 C   0  0  0  0  0  0  0  0  0  0  0  0
    0.8076   15.9761  -33.2475 H   0  0  0  0  0  0  0  0  0  0  0  0
    0.5033   15.4638  -31.5312 H   0  0  0  0  0  0  0  0  0  0  0  0
   -0.2030   14.1430  -32.9980 N   0  0  0  0  0  0  0  0  0  0  0  0
    0.6730   13.7500  -33.4260 H   0  0  0  0  0  0  0  0  0  0  0  0
   -1.2940   14.0450  -33.9920 C   0  0  0  0  0  0  0  0  0  0  0  0
   -1.0778   13.2094  -34.6739 H   0  0  0  0  0  0  0  0  0  0  0  0
   -2.2348   13.8830  -33.4455 H   0  0  0  0  0  0  0  0  0  0  0  0
   -1.4440   15.3280  -34.8160 C   0  0  0  0  0  0  0  0  0  0  0  0
   -0.4912   15.5425  -35.3221 H   0  0  0  0  0  0  0  0  0  0  0  0
   -2.2488   15.1773  -35.5505 H   0  0  0  0  0  0  0  0  0  0  0  0
   -5.5680   17.9580  -32.1360 C   0  0  0  0  0  0  0  0  0  0  0  0
   -4.9392   17.2391  -31.5903 H   0  0  0  0  0  0  0  0  0  0  0  0
   -6.7480   18.4220  -31.5630 C   0  0  0  0  0  0  0  0  0  0  0  0
   -7.0579   18.0488  -30.5758 H   0  0  0  0  0  0  0  0  0  0  0  0
  1  2  1  0
  2  3  1  0
  3  4  2  0
  3  5  1  0
  2  6  2  0
  6  7  1  0
  6  8  1  0
  8  9  2  0
  9 10  1  0
  9 11  1  0
 11 12  1  0
 11 13  2  0
 13 14  1  0
 14 15  1  0
 14 16  1  0
 16 17  2  0
 16 18  1  0
 18 19  1  0
 19 20  1  0
 20 21  2  0
 20 22  1  0
 22 23  2  0
 23 24  1  0
 23 25  1  0
 25 26  1  0
 25 27  2  0
 27 28  1  0
 28 29  1  0
 29 30  1  0
 29 31  1  0
 31 32  1  0
 31 33  1  0
 31 34  1  0
 34 35  1  0
 34 36  1  0
 34 37  1  0
 37 38  1  0
 37 39  1  0
 37 40  1  0
 40 41  1  0
 40 42  1  0
 40 43  1  0
 43 44  1  0
 43 45  1  0
 28 46  2  0
 46 47  1  0
 47 48  2  0
 48 49  1  0
 49 50  1  0
 49 51  2  0
 51 52  1  0
 51 53  1  0
 53 54  2  0
 54 55  1  0
 46 56  1  0
 56 57  1  0
 57 58  1  0
 57 59  1  0
 57 60  1  0
 56 61  1  0
 61 62  2  0
 62 63  1  0
 18 64  1  0
 64 65  1  0
 64 66  1  0
 64 67  1  0
 67 68  1  0
 67 69  1  0
 67 70  1  0
 70 71  1  0
 70 72  1  0
 72 73  1  0
 72 74  1  0
 72 75  1  0
 75 76  1  0
 75 77  1  0
 13 78  1  0
 78 79  1  0
 78 80  2  0
 80 81  1  0
 80  8  1  0
 75 18  1  0
 62 22  1  0
 61 27  1  0
 43 29  1  0
 54 47  1  0
M  CHG  2   5  -1  19  -1
M  END
>  <UniqueID>  (10) 
10

>  <SMILES>  (10) 
Cn1c(-c2cnccn2)c(C2CCCCC2)c2ccc(C(=O)[N-]C3(C(=O)Nc4ccc(/C=C\C(=O)[O-])cc4)CCNCC3)cc21

>  <Energy>  (10) 
162.69090199788982

>  <Genealogy>  (10) 
Cn1c(-c2cnccn2)c(C2CCCCC2)c2ccc(C(=O)[N-]C3(C(=O)Nc4ccc(C=CC(=O)[O-])cc4)CCNCC3)cc21 (protonated)
Cn1c(-c2cnccn2)c(C2CCCCC2)c2ccc(C(=O)[N-]C3(C(=O)Nc4ccc(/C=C\C(=O)[O-])cc4)CCNCC3)cc21 (cis-trans isomerization)
Cn1c(-c2cnccn2)c(C2CCCCC2)c2ccc(C(=O)[N-]C3(C(=O)Nc4ccc(/C=C\C(=O)[O-])cc4)CCNCC3)cc21 (3D coordinates assigned)
Cn1c(-c2cnccn2)c(C2CCCCC2)c2ccc(C(=O)[N-]C3(C(=O)Nc4ccc(/C=C\C(=O)[O-])cc4)CCNCC3)cc21 (nonaromatic ring conformer: 162.69090199788982 kcal/mol)

>  <smiles>  (10) 
Cn1c(-c2cnccn2)c(C2CCCCC2)c2ccc(C(=O)NC3(C(=O)Nc4ccc(C=CC(=O)O)cc4)CCNCC3)cc21

>  <score_type>  (10) 
oracle

>  <origin>  (10) 
adgpu

>  <m_score__min__energy>  (10) 
-13.26

>  <m_primary>  (10) 
energy

$$$$
10:0
     RDKit          3D

 43 46  0  0  0  0  0  0  0  0999 V2000
   -5.4220   24.1860  -31.8240 O   0  0  0  0  0  0  0  0  0  0  0  0
   -4.8820   23.3160  -31.0890 C   0  0  0  0  0  0  0  0  0  0  0  0
   -5.5180   22.0420  -30.9030 N   0  0  0  0  0  0  0  0  0  0  0  0
   -6.8290   21.7550  -31.4070 C   0  0  0  0  0  0  0  0  0  0  0  0
   -7.8580   22.6800  -31.1790 C   0  0  0  0  0  0  0  0  0  0  0  0
   -9.1570   22.4140  -31.6190 C   0  0  0  0  0  0  0  0  0  0  0  0
   -9.4370   21.2300  -32.3010 C   0  0  0  0  0  0  0  0  0  0  0  0
   -8.4150   20.3130  -32.5590 C   0  0  0  0  0  0  0  0  0  0  0  0
   -7.1030   20.5680  -32.1260 C   0  0  0  0  0  0  0  0  0  0  0  0
   -6.0520   19.6570  -32.4980 N   0  0  0  0  0  0  0  0  0  0  0  0
   -6.2380   18.2080  -32.3450 C   0  0  0  0  0  0  0  0  0  0  0  0
   -5.7870   17.4500  -33.6170 C   0  0  0  0  0  0  0  0  0  0  0  0
   -5.0590   18.2440  -34.5410 O   0  0  0  0  0  0  0  0  0  0  0  0
   -4.1100   19.0420  -33.8680 C   0  0  0  0  0  0  0  0  0  0  0  0
   -4.8340   20.1710  -33.1350 C   0  0  0  0  0  0  0  0  0  0  0  0
   -3.6260   23.6190  -30.3700 C   0  0  0  0  0  0  0  0  0  0  0  0
   -3.4490   24.8960  -29.9380 N   0  0  0  0  0  0  0  0  0  0  0  0
   -2.3310   25.2980  -29.3370 N   0  0  0  0  0  0  0  0  0  0  0  0
   -1.2940   24.4550  -29.1200 C   0  0  0  0  0  0  0  0  0  0  0  0
   -0.2530   24.8880  -28.5580 O   0  0  0  0  0  0  0  0  0  0  0  0
   -1.4000   23.1120  -29.5170 C   0  0  0  0  0  0  0  0  0  0  0  0
   -0.3520   22.2000  -29.2890 C   0  0  0  0  0  0  0  0  0  0  0  0
   -0.4910   20.8600  -29.6520 C   0  0  0  0  0  0  0  0  0  0  0  0
   -1.6770   20.4120  -30.2300 C   0  0  0  0  0  0  0  0  0  0  0  0
   -2.7260   21.3030  -30.4680 C   0  0  0  0  0  0  0  0  0  0  0  0
   -2.5960   22.6710  -30.1410 C   0  0  0  0  0  0  0  0  0  0  0  0
   -4.9420   21.2470  -30.5430 H   0  0  0  0  0  0  0  0  0  0  0  0
   -7.6412   23.6202  -30.6508 H   0  0  0  0  0  0  0  0  0  0  0  0
   -9.9608   23.1400  -31.4271 H   0  0  0  0  0  0  0  0  0  0  0  0
  -10.4631   21.0181  -32.6359 H   0  0  0  0  0  0  0  0  0  0  0  0
   -8.6392   19.3848  -33.1050 H   0  0  0  0  0  0  0  0  0  0  0  0
   -5.6430   17.8580  -31.4885 H   0  0  0  0  0  0  0  0  0  0  0  0
   -7.3073   18.0088  -32.1807 H   0  0  0  0  0  0  0  0  0  0  0  0
   -5.1497   16.6080  -33.3089 H   0  0  0  0  0  0  0  0  0  0  0  0
   -6.7029   17.1256  -34.1326 H   0  0  0  0  0  0  0  0  0  0  0  0
   -3.5591   18.4257  -33.1423 H   0  0  0  0  0  0  0  0  0  0  0  0
   -3.4018   19.4668  -34.5946 H   0  0  0  0  0  0  0  0  0  0  0  0
   -4.1695   20.5902  -32.3651 H   0  0  0  0  0  0  0  0  0  0  0  0
   -5.1078   20.9533  -33.8582 H   0  0  0  0  0  0  0  0  0  0  0  0
    0.5819   22.5459  -28.8219 H   0  0  0  0  0  0  0  0  0  0  0  0
    0.3370   20.1562  -29.4816 H   0  0  0  0  0  0  0  0  0  0  0  0
   -1.7877   19.3515  -30.5002 H   0  0  0  0  0  0  0  0  0  0  0  0
   -3.6620   20.9360  -30.9142 H   0  0  0  0  0  0  0  0  0  0  0  0
  1  2  2  0
  2  3  1  0
  3  4  1  0
  4  5  2  0
  5  6  1  0
  6  7  2  0
  7  8  1  0
  8  9  2  0
  9 10  1  0
 10 11  1  0
 11 12  1  0
 12 13  1  0
 13 14  1  0
 14 15  1  0
  2 16  1  0
 16 17  2  0
 17 18  1  0
 18 19  1  0
 19 20  2  0
 19 21  1  0
 21 22  2  0
 22 23  1  0
 23 24  2  0
 24 25  1  0
 25 26  2  0
  9  4  1  0
 15 10  1  0
 26 16  1  0
 26 21  1  0
  3 27  1  0
  5 28  1  0
  6 29  1  0
  7 30  1  0
  8 31  1  0
 11 32  1  0
 11 33  1  0
 12 34  1  0
 12 35  1  0
 14 36  1  0
 14 37  1  0
 15 38  1  0
 15 39  1  0
 22 40  1  0
 23 41  1  0
 24 42  1  0
 25 43  1  0
M  CHG  1  18  -1
M  END
>  <UniqueID>  (11) 
11

>  <SMILES>  (11) 
O=C(Nc1ccccc1N1CCOCC1)c1n[n-]c(=O)c2ccccc12

>  <Energy>  (11) 
75.01305540042942

>  <Genealogy>  (11) 
O=C(Nc1ccccc1N1CCOCC1)c1n[n-]c(=O)c2ccccc12 (protonated)
O=C(Nc1ccccc1N1CCOCC1)c1n[n-]c(=O)c2ccccc12 (3D coordinates assigned)
O=C(Nc1ccccc1N1CCOCC1)c1n[n-]c(=O)c2ccccc12 (nonaromatic ring conformer: 75.01305540042942 kcal/mol)

>  <smiles>  (11) 
O=C(Nc1ccccc1N1CCOCC1)c1n[nH]c(=O)c2ccccc12

>  <score_type>  (11) 
oracle

>  <origin>  (11) 
adgpu

>  <m_score__min__energy>  (11) 
-11.050000000000001

>  <m_primary>  (11) 
energy

$$$$
11:0
     RDKit          3D

 54 57  0  0  0  0  0  0  0  0999 V2000
   -5.8270   24.7310  -31.6480 O   0  0  0  0  0  0  0  0  0  0  0  0
   -4.9020   23.9850  -30.7290 S   0  0  0  0  0  0  0  0  0  0  0  0
   -5.6170   23.7380  -29.4280 O   0  0  0  0  0  0  0  0  0  0  0  0
   -3.4820   24.9460  -30.4450 N   0  0  0  0  0  0  0  0  0  0  0  0
   -2.9780   24.6990  -29.0970 C   0  0  0  0  0  0  0  0  0  0  0  0
   -2.2950   23.3630  -29.0660 C   0  0  0  0  0  0  0  0  0  0  0  0
   -2.5960   22.4380  -28.0510 C   0  0  0  0  0  0  0  0  0  0  0  0
   -1.9860   21.1800  -28.0410 C   0  0  0  0  0  0  0  0  0  0  0  0
   -1.0820   20.8330  -29.0480 C   0  0  0  0  0  0  0  0  0  0  0  0
   -0.7880   21.7410  -30.0700 C   0  0  0  0  0  0  0  0  0  0  0  0
   -1.3970   23.0000  -30.0830 C   0  0  0  0  0  0  0  0  0  0  0  0
   -4.4560   22.4560  -31.4800 C   0  0  0  0  0  0  0  0  0  0  0  0
   -4.2760   22.3920  -32.8680 C   0  0  0  0  0  0  0  0  0  0  0  0
   -3.9110   21.1870  -33.4750 C   0  0  0  0  0  0  0  0  0  0  0  0
   -3.7320   20.0320  -32.7000 C   0  0  0  0  0  0  0  0  0  0  0  0
   -3.3780   18.7530  -33.3490 C   0  0  0  0  0  0  0  0  0  0  0  0
   -2.0200   18.4060  -33.4450 C   0  0  0  0  0  0  0  0  0  0  0  0
   -1.6360   17.2020  -34.0380 C   0  0  0  0  0  0  0  0  0  0  0  0
   -2.6030   16.3340  -34.5430 C   0  0  0  0  0  0  0  0  0  0  0  0
   -3.9560   16.6690  -34.4670 C   0  0  0  0  0  0  0  0  0  0  0  0
   -4.3600   17.8810  -33.8830 C   0  0  0  0  0  0  0  0  0  0  0  0
   -6.0870   18.2850  -33.8700 S   0  0  0  0  0  0  0  0  0  0  0  0
   -6.8750   17.0280  -34.1060 O   0  0  0  0  0  0  0  0  0  0  0  0
   -6.3870   19.2610  -34.9750 O   0  0  0  0  0  0  0  0  0  0  0  0
   -6.5380   18.9910  -32.3320 N   0  0  0  0  0  0  0  0  0  0  0  0
   -7.1870   20.2920  -32.5300 C   0  0  0  0  0  0  0  0  0  0  0  0
   -8.6930   20.0710  -32.5560 C   0  0  0  0  0  0  0  0  0  0  0  0
   -8.9130   18.6760  -32.0040 C   0  0  0  0  0  0  0  0  0  0  0  0
   -7.5290   18.1550  -31.6470 C   0  0  0  0  0  0  0  0  0  0  0  0
   -3.8850   20.1040  -31.3070 C   0  0  0  0  0  0  0  0  0  0  0  0
   -4.2490   21.3100  -30.7010 C   0  0  0  0  0  0  0  0  0  0  0  0
   -2.2605   25.4861  -28.8219 H   0  0  0  0  0  0  0  0  0  0  0  0
   -3.8137   24.7050  -28.3817 H   0  0  0  0  0  0  0  0  0  0  0  0
   -3.3142   22.7050  -27.2617 H   0  0  0  0  0  0  0  0  0  0  0  0
   -2.2180   20.4630  -27.2397 H   0  0  0  0  0  0  0  0  0  0  0  0
   -0.6007   19.8439  -29.0369 H   0  0  0  0  0  0  0  0  0  0  0  0
   -0.0779   21.4651  -30.8635 H   0  0  0  0  0  0  0  0  0  0  0  0
   -1.1717   23.7090  -30.8933 H   0  0  0  0  0  0  0  0  0  0  0  0
   -4.4224   23.2929  -33.4820 H   0  0  0  0  0  0  0  0  0  0  0  0
   -3.7637   21.1445  -34.5643 H   0  0  0  0  0  0  0  0  0  0  0  0
   -1.2532   19.0885  -33.0497 H   0  0  0  0  0  0  0  0  0  0  0  0
   -0.5703   16.9381  -34.1068 H   0  0  0  0  0  0  0  0  0  0  0  0
   -2.2989   15.3821  -35.0028 H   0  0  0  0  0  0  0  0  0  0  0  0
   -4.7122   15.9780  -34.8678 H   0  0  0  0  0  0  0  0  0  0  0  0
   -6.9239   20.9693  -31.7042 H   0  0  0  0  0  0  0  0  0  0  0  0
   -6.8522   20.7447  -33.4750 H   0  0  0  0  0  0  0  0  0  0  0  0
   -9.2009   20.8168  -31.9269 H   0  0  0  0  0  0  0  0  0  0  0  0
   -9.1008   20.1742  -33.5724 H   0  0  0  0  0  0  0  0  0  0  0  0
   -9.5519   18.7133  -31.1094 H   0  0  0  0  0  0  0  0  0  0  0  0
   -9.4179   18.0247  -32.7326 H   0  0  0  0  0  0  0  0  0  0  0  0
   -7.3778   18.2129  -30.5590 H   0  0  0  0  0  0  0  0  0  0  0  0
   -7.4241   17.1055  -31.9594 H   0  0  0  0  0  0  0  0  0  0  0  0
   -3.7180   19.2088  -30.6900 H   0  0  0  0  0  0  0  0  0  0  0  0
   -4.3733   21.3594  -29.6092 H   0  0  0  0  0  0  0  0  0  0  0  0
  1  2  2  0
  2  3  2  0
  2  4  1  0
  4  5  1  0
  5  6  1  0
  6  7  2  0
  7  8  1  0
  8  9  2  0
  9 10  1  0
 10 11  2  0
  2 12  1  0
 12 13  2  0
 13 14  1  0
 14 15  2  0
 15 16  1  0
 16 17  2  0
 17 18  1  0
 18 19  2  0
 19 20  1  0
 20 21  2  0
 21 22  1  0
 22 23  2  0
 22 24  2  0
 22 25  1  0
 25 26  1  0
 26 27  1  0
 27 28  1  0
 28 29  1  0
 15 30  1  0
 30 31  2  0
 11  6  1  0
 31 12  1  0
 21 16  1  0
 29 25  1  0
  5 32  1  0
  5 33  1  0
  7 34  1  0
  8 35  1  0
  9 36  1  0
 10 37  1  0
 11 38  1  0
 13 39  1  0
 14 40  1  0
 17 41  1  0
 18 42  1  0
 19 43  1  0
 20 44  1  0
 26 45  1  0
 26 46  1  0
 27 47  1  0
 27 48  1  0
 28 49  1  0
 28 50  1  0
 29 51  1  0
 29 52  1  0
 30 53  1  0
 31 54  1  0
M  CHG  1   4  -1
M  END
>  <UniqueID>  (12) 
12

>  <SMILES>  (12) 
O=S(=O)([N-]Cc1ccccc1)c1ccc(-c2ccccc2S(=O)(=O)N2CCCC2)cc1

>  <Energy>  (12) 
62.39204533902878

>  <Genealogy>  (12) 
O=S(=O)([N-]Cc1ccccc1)c1ccc(-c2ccccc2S(=O)(=O)N2CCCC2)cc1 (protonated)
O=S(=O)([N-]Cc1ccccc1)c1ccc(-c2ccccc2S(=O)(=O)N2CCCC2)cc1 (3D coordinates assigned)
O=S(=O)([N-]Cc1ccccc1)c1ccc(-c2ccccc2S(=O)(=O)N2CCCC2)cc1 (nonaromatic ring conformer: 62.39204533902878 kcal/mol)

>  <smiles>  (12) 
O=S(=O)(NCc1ccccc1)c1ccc(-c2ccccc2S(=O)(=O)N2CCCC2)cc1

>  <score_type>  (12) 
oracle

>  <origin>  (12) 
adgpu

>  <m_score__min__energy>  (12) 
-11.73

>  <m_primary>  (12) 
energy

$$$$
12:0
     RDKit          3D

 38 41  0  0  0  0  0  0  0  0999 V2000
   -0.7050   26.2410  -27.7160 O   0  0  0  0  0  0  0  0  0  0  0  0
   -1.1240   25.3470  -28.4950 C   0  0  0  0  0  0  0  0  0  0  0  0
   -2.4120   25.3030  -28.9250 N   0  0  0  0  0  0  0  0  0  0  0  0
   -2.4050   24.2180  -29.7120 C   0  0  0  0  0  0  0  0  0  0  0  0
   -3.4710   23.6800  -30.4300 C   0  0  0  0  0  0  0  0  0  0  0  0
   -3.2270   22.5240  -31.1930 C   0  0  0  0  0  0  0  0  0  0  0  0
   -1.9370   21.9370  -31.2210 C   0  0  0  0  0  0  0  0  0  0  0  0
   -1.6670   20.4790  -32.1670 S   0  0  0  0  0  0  0  0  0  0  0  0
   -0.3650   20.6120  -32.9030 O   0  0  0  0  0  0  0  0  0  0  0  0
   -1.6050   19.2670  -31.2800 O   0  0  0  0  0  0  0  0  0  0  0  0
   -2.9530   20.2790  -33.3140 N   0  0  0  0  0  0  0  0  0  0  0  0
   -4.2580   19.7600  -33.0170 C   0  0  0  0  0  0  0  0  0  0  0  0
   -5.3850   20.5990  -32.9440 C   0  0  0  0  0  0  0  0  0  0  0  0
   -6.6530   20.0730  -32.6570 C   0  0  0  0  0  0  0  0  0  0  0  0
   -6.8070   18.6850  -32.4720 C   0  0  0  0  0  0  0  0  0  0  0  0
   -5.6810   17.8520  -32.5230 C   0  0  0  0  0  0  0  0  0  0  0  0
   -4.4140   18.3780  -32.7960 C   0  0  0  0  0  0  0  0  0  0  0  0
   -3.3240   17.5090  -32.8440 O   0  0  0  0  0  0  0  0  0  0  0  0
   -8.1520   18.0980  -32.1110 C   0  0  0  0  0  0  0  0  0  0  0  0
   -9.2660   18.9730  -32.5020 N   0  0  0  0  0  0  0  0  0  0  0  0
   -9.0650   20.3320  -31.9860 C   0  0  0  0  0  0  0  0  0  0  0  0
   -7.8470   20.9920  -32.6430 C   0  0  0  0  0  0  0  0  0  0  0  0
   -0.8840   22.5150  -30.4810 C   0  0  0  0  0  0  0  0  0  0  0  0
   -1.1630   23.6580  -29.7370 C   0  0  0  0  0  0  0  0  0  0  0  0
   -0.3210   24.3600  -28.9660 N   0  0  0  0  0  0  0  0  0  0  0  0
   -4.4683   24.1431  -30.4011 H   0  0  0  0  0  0  0  0  0  0  0  0
   -4.0445   22.0713  -31.7733 H   0  0  0  0  0  0  0  0  0  0  0  0
   -5.2703   21.6797  -33.1139 H   0  0  0  0  0  0  0  0  0  0  0  0
   -5.7950   16.7723  -32.3463 H   0  0  0  0  0  0  0  0  0  0  0  0
   -2.3700   17.8270  -32.7200 H   0  0  0  0  0  0  0  0  0  0  0  0
   -8.2650   17.1312  -32.6234 H   0  0  0  0  0  0  0  0  0  0  0  0
   -8.1849   17.9798  -31.0179 H   0  0  0  0  0  0  0  0  0  0  0  0
   -9.3230   19.0060  -33.5460 H   0  0  0  0  0  0  0  0  0  0  0  0
   -9.9602   20.9345  -32.1998 H   0  0  0  0  0  0  0  0  0  0  0  0
   -8.8910   20.2740  -30.9014 H   0  0  0  0  0  0  0  0  0  0  0  0
   -8.1025   21.2598  -33.6789 H   0  0  0  0  0  0  0  0  0  0  0  0
   -7.5844   21.8853  -32.0573 H   0  0  0  0  0  0  0  0  0  0  0  0
    0.1248   22.0766  -30.4916 H   0  0  0  0  0  0  0  0  0  0  0  0
  1  2  2  0
  2  3  1  0
  3  4  1  0
  4  5  2  0
  5  6  1  0
  6  7  2  0
  7  8  1  0
  8  9  2  0
  8 10  2  0
  8 11  1  0
 11 12  1  0
 12 13  2  0
 13 14  1  0
 14 15  2  0
 15 16  1  0
 16 17  2  0
 17 18  1  0
 15 19  1  0
 19 20  1  0
 20 21  1  0
 21 22  1  0
  7 23  1  0
 23 24  2  0
 24 25  1  0
 25  2  1  0
 24  4  1  0
 17 12  1  0
 22 14  1  0
  5 26  1  0
  6 27  1  0
 13 28  1  0
 16 29  1  0
 18 30  1  0
 19 31  1  0
 19 32  1  0
 20 33  1  0
 21 34  1  0
 21 35  1  0
 22 36  1  0
 22 37  1  0
 23 38  1  0
M  CHG  3   3  -1  11  -1  25  -1
M  END
>  <UniqueID>  (13) 
13

>  <SMILES>  (13) 
O=c1[n-]c2ccc(S(=O)(=O)[N-]c3cc4c(cc3O)CNCC4)cc2[n-]1

>  <Energy>  (13) 
82.12706674223561

>  <Genealogy>  (13) 
O=c1[n-]c2ccc(S(=O)(=O)[N-]c3cc4c(cc3O)CNCC4)cc2[n-]1 (protonated)
O=c1[n-]c2ccc(S(=O)(=O)[N-]c3cc4c(cc3O)CNCC4)cc2[n-]1 (3D coordinates assigned)
O=c1[n-]c2ccc(S(=O)(=O)[N-]c3cc4c(cc3O)CNCC4)cc2[n-]1 (nonaromatic ring conformer: 82.12706674223561 kcal/mol)

>  <smiles>  (13) 
O=c1[nH]c2ccc(S(=O)(=O)Nc3cc4c(cc3O)CNCC4)cc2[nH]1

>  <score_type>  (13) 
oracle

>  <origin>  (13) 
adgpu

>  <m_score__min__energy>  (13) 
-10.41

>  <m_primary>  (13) 
energy

$$$$
13:0
     RDKit          3D

 41 43  0  0  0  0  0  0  0  0999 V2000
   -1.1760   26.3090  -28.9650 N   0  0  0  0  0  0  0  0  0  0  0  0
   -0.6720   24.9190  -28.0680 S   0  0  0  0  0  0  0  0  0  0  0  0
    0.8110   24.9840  -27.8210 O   0  0  0  0  0  0  0  0  0  0  0  0
   -1.3930   24.9130  -26.7480 O   0  0  0  0  0  0  0  0  0  0  0  0
   -1.0530   23.4520  -28.9790 C   0  0  0  0  0  0  0  0  0  0  0  0
   -0.1760   22.3570  -28.9250 C   0  0  0  0  0  0  0  0  0  0  0  0
   -0.4530   21.1950  -29.6480 C   0  0  0  0  0  0  0  0  0  0  0  0
   -1.6130   21.1110  -30.4180 C   0  0  0  0  0  0  0  0  0  0  0  0
   -2.4930   22.1930  -30.4820 C   0  0  0  0  0  0  0  0  0  0  0  0
   -2.2090   23.3850  -29.7880 C   0  0  0  0  0  0  0  0  0  0  0  0
   -3.0960   24.5150  -29.8380 N   0  0  0  0  0  0  0  0  0  0  0  0
   -4.5080   24.5290  -29.5900 C   0  0  0  0  0  0  0  0  0  0  0  0
   -5.0260   23.7620  -28.7340 O   0  0  0  0  0  0  0  0  0  0  0  0
   -5.3730   25.4700  -30.3720 C   0  0  0  0  0  0  0  0  0  0  0  0
   -5.7410   24.9130  -31.6360 O   0  0  0  0  0  0  0  0  0  0  0  0
   -6.0190   23.5570  -31.8770 C   0  0  0  0  0  0  0  0  0  0  0  0
   -7.2950   22.9930  -31.6750 C   0  0  0  0  0  0  0  0  0  0  0  0
   -7.5180   21.6380  -31.9450 C   0  0  0  0  0  0  0  0  0  0  0  0
   -6.4730   20.8230  -32.4120 C   0  0  0  0  0  0  0  0  0  0  0  0
   -6.7030   19.4280  -32.6920 N   0  0  0  0  0  0  0  0  0  0  0  0
   -5.9730   18.6250  -33.4960 C   0  0  0  0  0  0  0  0  0  0  0  0
   -4.8640   19.0430  -34.2230 O   0  0  0  0  0  0  0  0  0  0  0  0
   -6.4900   17.3450  -33.5240 C   0  0  0  0  0  0  0  0  0  0  0  0
   -7.5980   17.3610  -32.6960 C   0  0  0  0  0  0  0  0  0  0  0  0
   -7.6940   18.6500  -32.2080 C   0  0  0  0  0  0  0  0  0  0  0  0
   -8.6630   19.0830  -31.3120 O   0  0  0  0  0  0  0  0  0  0  0  0
   -5.2010   21.3870  -32.6040 C   0  0  0  0  0  0  0  0  0  0  0  0
   -4.9800   22.7420  -32.3390 C   0  0  0  0  0  0  0  0  0  0  0  0
   -1.2470   26.0150  -29.9650 H   0  0  0  0  0  0  0  0  0  0  0  0
    0.7341   22.4148  -28.3099 H   0  0  0  0  0  0  0  0  0  0  0  0
    0.2442   20.3450  -29.6103 H   0  0  0  0  0  0  0  0  0  0  0  0
   -1.8351   20.1897  -30.9764 H   0  0  0  0  0  0  0  0  0  0  0  0
   -3.4140   22.1139  -31.0783 H   0  0  0  0  0  0  0  0  0  0  0  0
   -6.2853   25.6808  -29.7947 H   0  0  0  0  0  0  0  0  0  0  0  0
   -4.8034   26.3934  -30.5536 H   0  0  0  0  0  0  0  0  0  0  0  0
   -8.1187   23.6204  -31.3037 H   0  0  0  0  0  0  0  0  0  0  0  0
   -8.5186   21.2079  -31.7905 H   0  0  0  0  0  0  0  0  0  0  0  0
   -6.0998   16.4864  -34.0901 H   0  0  0  0  0  0  0  0  0  0  0  0
   -8.2676   16.5176  -32.4714 H   0  0  0  0  0  0  0  0  0  0  0  0
   -4.3735   20.7587  -32.9651 H   0  0  0  0  0  0  0  0  0  0  0  0
   -3.9794   23.1714  -32.4953 H   0  0  0  0  0  0  0  0  0  0  0  0
  1  2  1  0
  2  3  2  0
  2  4  2  0
  2  5  1  0
  5  6  2  0
  6  7  1  0
  7  8  2  0
  8  9  1  0
  9 10  2  0
 10 11  1  0
 11 12  1  0
 12 13  2  0
 12 14  1  0
 14 15  1  0
 15 16  1  0
 16 17  2  0
 17 18  1  0
 18 19  2  0
 19 20  1  0
 20 21  1  0
 21 22  1  0
 21 23  2  0
 23 24  1  0
 24 25  2  0
 25 26  1  0
 19 27  1  0
 27 28  2  0
 10  5  1  0
 28 16  1  0
 25 20  1  0
  1 29  1  0
  6 30  1  0
  7 31  1  0
  8 32  1  0
  9 33  1  0
 14 34  1  0
 14 35  1  0
 17 36  1  0
 18 37  1  0
 23 38  1  0
 24 39  1  0
 27 40  1  0
 28 41  1  0
M  CHG  4   1  -1  11  -1  22  -1  26  -1
M  END
>  <UniqueID>  (14) 
14

>  <SMILES>  (14) 
[NH-]S(=O)(=O)c1ccccc1[N-]C(=O)COc1ccc(-n2c([O-])ccc2[O-])cc1

>  <Energy>  (14) 
80.84835082280424

>  <Genealogy>  (14) 
[NH-]S(=O)(=O)c1ccccc1[N-]C(=O)COc1ccc(-n2c([O-])ccc2[O-])cc1 (protonated)
[NH-]S(=O)(=O)c1ccccc1[N-]C(=O)COc1ccc(-n2c([O-])ccc2[O-])cc1 (3D coordinates assigned)
[NH-]S(=O)(=O)c1ccccc1[N-]C(=O)COc1ccc(-n2c([O-])ccc2[O-])cc1 (optimized conformer: 80.84835082280424 kcal/mol)

>  <smiles>  (14) 
NS(=O)(=O)c1ccccc1NC(=O)COc1ccc(-n2c(O)ccc2O)cc1

>  <score_type>  (14) 
oracle

>  <origin>  (14) 
adgpu

>  <m_score__min__energy>  (14) 
-12.19

>  <m_primary>  (14) 
energy

$$$$
14:0
     RDKit          3D

 38 40  0  0  0  0  0  0  0  0999 V2000
   -8.9870   21.1980  -31.7670 C   0  0  0  0  0  0  0  0  0  0  0  0
   -7.9950   22.2630  -31.4040 C   0  0  0  0  0  0  0  0  0  0  0  0
   -7.3560   23.0060  -32.4070 C   0  0  0  0  0  0  0  0  0  0  0  0
   -6.4590   24.0220  -32.0680 C   0  0  0  0  0  0  0  0  0  0  0  0
   -6.1930   24.3140  -30.7200 C   0  0  0  0  0  0  0  0  0  0  0  0
   -5.2140   25.3970  -30.3500 C   0  0  0  0  0  0  0  0  0  0  0  0
   -3.8610   25.0710  -30.8060 N   0  0  0  0  0  0  0  0  0  0  0  0
   -3.3180   23.5450  -30.1650 S   0  0  0  0  0  0  0  0  0  0  0  0
   -1.8190   23.5690  -30.0550 O   0  0  0  0  0  0  0  0  0  0  0  0
   -3.8910   23.3490  -28.7890 O   0  0  0  0  0  0  0  0  0  0  0  0
   -3.7830   22.2100  -31.2180 C   0  0  0  0  0  0  0  0  0  0  0  0
   -3.1310   22.0350  -32.4420 C   0  0  0  0  0  0  0  0  0  0  0  0
   -3.5040   20.9950  -33.2950 C   0  0  0  0  0  0  0  0  0  0  0  0
   -4.5390   20.1090  -32.9410 C   0  0  0  0  0  0  0  0  0  0  0  0
   -4.9120   19.0330  -33.8290 N   0  0  0  0  0  0  0  0  0  0  0  0
   -4.1080   18.2160  -34.5360 C   0  0  0  0  0  0  0  0  0  0  0  0
   -4.8530   17.3400  -35.2360 N   0  0  0  0  0  0  0  0  0  0  0  0
   -6.1110   17.6370  -34.9420 N   0  0  0  0  0  0  0  0  0  0  0  0
   -6.1490   18.6550  -34.0970 N   0  0  0  0  0  0  0  0  0  0  0  0
   -5.1980   20.2910  -31.7050 C   0  0  0  0  0  0  0  0  0  0  0  0
   -6.2410   19.4470  -31.3270 O   0  0  0  0  0  0  0  0  0  0  0  0
   -4.8130   21.3360  -30.8520 C   0  0  0  0  0  0  0  0  0  0  0  0
   -6.8510   23.5850  -29.7170 C   0  0  0  0  0  0  0  0  0  0  0  0
   -7.7500   22.5700  -30.0560 C   0  0  0  0  0  0  0  0  0  0  0  0
   -9.4005   20.7540  -30.8495 H   0  0  0  0  0  0  0  0  0  0  0  0
   -9.8012   21.6417  -32.3589 H   0  0  0  0  0  0  0  0  0  0  0  0
   -8.4867   20.4173  -32.3589 H   0  0  0  0  0  0  0  0  0  0  0  0
   -7.5619   22.7879  -33.4653 H   0  0  0  0  0  0  0  0  0  0  0  0
   -5.9582   24.5965  -32.8612 H   0  0  0  0  0  0  0  0  0  0  0  0
   -5.5314   26.3413  -30.8165 H   0  0  0  0  0  0  0  0  0  0  0  0
   -5.1976   25.4900  -29.2541 H   0  0  0  0  0  0  0  0  0  0  0  0
   -2.3209   22.7194  -32.7341 H   0  0  0  0  0  0  0  0  0  0  0  0
   -2.9830   20.8662  -34.2552 H   0  0  0  0  0  0  0  0  0  0  0  0
   -3.0088   18.2581  -34.5408 H   0  0  0  0  0  0  0  0  0  0  0  0
   -6.6750   18.8090  -31.9840 H   0  0  0  0  0  0  0  0  0  0  0  0
   -5.3249   21.4696  -29.8875 H   0  0  0  0  0  0  0  0  0  0  0  0
   -6.6580   23.8138  -28.6585 H   0  0  0  0  0  0  0  0  0  0  0  0
   -8.2676   22.0095  -29.2636 H   0  0  0  0  0  0  0  0  0  0  0  0
  1  2  1  0
  2  3  2  0
  3  4  1  0
  4  5  2  0
  5  6  1  0
  6  7  1  0
  7  8  1  0
  8  9  2  0
  8 10  2  0
  8 11  1  0
 11 12  2  0
 12 13  1  0
 13 14  2  0
 14 15  1  0
 15 16  1  0
 16 17  2  0
 17 18  1  0
 18 19  2  0
 14 20  1  0
 20 21  1  0
 20 22  2  0
  5 23  1  0
 23 24  2  0
 24  2  1  0
 22 11  1  0
 19 15  1  0
  1 25  1  0
  1 26  1  0
  1 27  1  0
  3 28  1  0
  4 29  1  0
  6 30  1  0
  6 31  1  0
 12 32  1  0
 13 33  1  0
 16 34  1  0
 21 35  1  0
 22 36  1  0
 23 37  1  0
 24 38  1  0
M  CHG  1   7  -1
M  END
>  <UniqueID>  (15) 
15

>  <SMILES>  (15) 
Cc1ccc(C[N-]S(=O)(=O)c2ccc(-n3cnnn3)c(O)c2)cc1

>  <Energy>  (15) 
80.89679144454708

>  <Genealogy>  (15) 
Cc1ccc(C[N-]S(=O)(=O)c2ccc(-n3cnnn3)c(O)c2)cc1 (protonated)
Cc1ccc(C[N-]S(=O)(=O)c2ccc(-n3cnnn3)c(O)c2)cc1 (3D coordinates assigned)
Cc1ccc(C[N-]S(=O)(=O)c2ccc(-n3cnnn3)c(O)c2)cc1 (optimized conformer: 80.89679144454708 kcal/mol)

>  <smiles>  (15) 
Cc1ccc(CNS(=O)(=O)c2ccc(-n3cnnn3)c(O)c2)cc1

>  <score_type>  (15) 
oracle

>  <origin>  (15) 
adgpu

>  <m_score__min__energy>  (15) 
-9.5999999999999996

>  <m_primary>  (15) 
energy

$$$$
15:0
     RDKit          3D

 49 52  0  0  0  0  0  0  0  0999 V2000
   -5.7170   25.4570  -28.9160 O   0  0  0  0  0  0  0  0  0  0  0  0
   -5.3060   25.1020  -30.3200 S   0  0  0  0  0  0  0  0  0  0  0  0
   -5.7420   26.2120  -31.2360 O   0  0  0  0  0  0  0  0  0  0  0  0
   -3.5790   24.9450  -30.4120 N   0  0  0  0  0  0  0  0  0  0  0  0
   -2.7700   24.1510  -29.5330 C   0  0  0  0  0  0  0  0  0  0  0  0
   -3.1340   22.8400  -29.1720 C   0  0  0  0  0  0  0  0  0  0  0  0
   -2.3040   22.0800  -28.3420 C   0  0  0  0  0  0  0  0  0  0  0  0
   -1.0970   22.6270  -27.8560 C   0  0  0  0  0  0  0  0  0  0  0  0
   -0.7620   23.9500  -28.1720 C   0  0  0  0  0  0  0  0  0  0  0  0
   -1.5910   24.7070  -29.0070 C   0  0  0  0  0  0  0  0  0  0  0  0
   -1.2370   26.0140  -29.3190 O   0  0  0  0  0  0  0  0  0  0  0  0
   -0.2050   21.8110  -26.9510 C   0  0  0  0  0  0  0  0  0  0  0  0
   -0.4460   20.3040  -27.1370 C   0  0  0  0  0  0  0  0  0  0  0  0
   -1.9480   19.9900  -27.0670 C   0  0  0  0  0  0  0  0  0  0  0  0
   -2.6680   20.7660  -28.0240 O   0  0  0  0  0  0  0  0  0  0  0  0
   -6.0630   23.6020  -30.8510 C   0  0  0  0  0  0  0  0  0  0  0  0
   -7.0490   23.0040  -30.0540 C   0  0  0  0  0  0  0  0  0  0  0  0
   -7.6790   21.8280  -30.4740 C   0  0  0  0  0  0  0  0  0  0  0  0
   -7.3430   21.2460  -31.7040 C   0  0  0  0  0  0  0  0  0  0  0  0
   -8.1480   19.7700  -32.2360 S   0  0  0  0  0  0  0  0  0  0  0  0
   -9.0760   19.3000  -31.1550 O   0  0  0  0  0  0  0  0  0  0  0  0
   -8.9720   20.0730  -33.4580 O   0  0  0  0  0  0  0  0  0  0  0  0
   -7.0070   18.4930  -32.5940 N   0  0  0  0  0  0  0  0  0  0  0  0
   -5.9360   18.4530  -31.5880 C   0  0  0  0  0  0  0  0  0  0  0  0
   -4.7330   19.2040  -32.1420 C   0  0  0  0  0  0  0  0  0  0  0  0
   -4.9440   19.2440  -33.6450 C   0  0  0  0  0  0  0  0  0  0  0  0
   -6.3510   18.7050  -33.8910 C   0  0  0  0  0  0  0  0  0  0  0  0
   -6.3640   21.8510  -32.5050 C   0  0  0  0  0  0  0  0  0  0  0  0
   -5.7180   23.0160  -32.0750 C   0  0  0  0  0  0  0  0  0  0  0  0
   -4.0760   22.4113  -29.5446 H   0  0  0  0  0  0  0  0  0  0  0  0
    0.1564   24.3954  -27.7620 H   0  0  0  0  0  0  0  0  0  0  0  0
    0.8457   22.0371  -27.1854 H   0  0  0  0  0  0  0  0  0  0  0  0
   -0.4371   22.0728  -25.9081 H   0  0  0  0  0  0  0  0  0  0  0  0
   -0.0558   19.9927  -28.1172 H   0  0  0  0  0  0  0  0  0  0  0  0
    0.0708   19.7579  -26.3341 H   0  0  0  0  0  0  0  0  0  0  0  0
   -2.1042   18.9215  -27.2767 H   0  0  0  0  0  0  0  0  0  0  0  0
   -2.3158   20.2377  -26.0603 H   0  0  0  0  0  0  0  0  0  0  0  0
   -7.3286   23.4618  -29.0937 H   0  0  0  0  0  0  0  0  0  0  0  0
   -8.4417   21.3577  -29.8360 H   0  0  0  0  0  0  0  0  0  0  0  0
   -6.2792   18.9331  -30.6597 H   0  0  0  0  0  0  0  0  0  0  0  0
   -5.6632   17.4109  -31.3654 H   0  0  0  0  0  0  0  0  0  0  0  0
   -4.6925   20.2236  -31.7312 H   0  0  0  0  0  0  0  0  0  0  0  0
   -3.7848   18.7152  -31.8736 H   0  0  0  0  0  0  0  0  0  0  0  0
   -4.8611   20.2767  -34.0145 H   0  0  0  0  0  0  0  0  0  0  0  0
   -4.1870   18.6452  -34.1726 H   0  0  0  0  0  0  0  0  0  0  0  0
   -6.9274   19.4311  -34.4831 H   0  0  0  0  0  0  0  0  0  0  0  0
   -6.2975   17.7555  -34.4438 H   0  0  0  0  0  0  0  0  0  0  0  0
   -6.1021   21.4075  -33.4770 H   0  0  0  0  0  0  0  0  0  0  0  0
   -4.9369   23.4726  -32.7006 H   0  0  0  0  0  0  0  0  0  0  0  0
  1  2  2  0
  2  3  2  0
  2  4  1  0
  4  5  1  0
  5  6  2  0
  6  7  1  0
  7  8  2  0
  8  9  1  0
  9 10  2  0
 10 11  1  0
  8 12  1  0
 12 13  1  0
 13 14  1  0
 14 15  1  0
  2 16  1  0
 16 17  2  0
 17 18  1  0
 18 19  2  0
 19 20  1  0
 20 21  2  0
 20 22  2  0
 20 23  1  0
 23 24  1  0
 24 25  1  0
 25 26  1  0
 26 27  1  0
 19 28  1  0
 28 29  2  0
 10  5  1  0
 29 16  1  0
 15  7  1  0
 27 23  1  0
  6 30  1  0
  9 31  1  0
 12 32  1  0
 12 33  1  0
 13 34  1  0
 13 35  1  0
 14 36  1  0
 14 37  1  0
 17 38  1  0
 18 39  1  0
 24 40  1  0
 24 41  1  0
 25 42  1  0
 25 43  1  0
 26 44  1  0
 26 45  1  0
 27 46  1  0
 27 47  1  0
 28 48  1  0
 29 49  1  0
M  CHG  2   4  -1  11  -1
M  END
>  <UniqueID>  (16) 
16

>  <SMILES>  (16) 
O=S(=O)([N-]c1cc2c(cc1[O-])CCCO2)c1ccc(S(=O)(=O)N2CCCC2)cc1

>  <Energy>  (16) 
55.09878048123508

>  <Genealogy>  (16) 
O=S(=O)([N-]c1cc2c(cc1[O-])CCCO2)c1ccc(S(=O)(=O)N2CCCC2)cc1 (protonated)
O=S(=O)([N-]c1cc2c(cc1[O-])CCCO2)c1ccc(S(=O)(=O)N2CCCC2)cc1 (3D coordinates assigned)
O=S(=O)([N-]c1cc2c(cc1[O-])CCCO2)c1ccc(S(=O)(=O)N2CCCC2)cc1 (nonaromatic ring conformer: 55.09878048123508 kcal/mol)

>  <smiles>  (16) 
O=S(=O)(Nc1cc2c(cc1O)CCCO2)c1ccc(S(=O)(=O)N2CCCC2)cc1

>  <score_type>  (16) 
oracle

>  <origin>  (16) 
adgpu

>  <m_score__min__energy>  (16) 
-14.99

>  <m_primary>  (16) 
energy

$$$$
16:0
     RDKit          3D

 46 48  0  0  1  0  0  0  0  0999 V2000
   -0.8530   22.3750  -26.1800 C   0  0  0  0  0  0  0  0  0  0  0  0
   -1.6490   22.7130  -27.3980 C   0  0  0  0  0  0  0  0  0  0  0  0
   -2.7640   23.5250  -27.3150 C   0  0  0  0  0  0  0  0  0  0  0  0
   -3.4370   23.7820  -28.4940 C   0  0  0  0  0  0  0  0  0  0  0  0
   -4.4830   24.5330  -28.4750 N   0  0  0  0  0  0  0  0  0  0  0  0
   -5.3570   24.8780  -29.9470 S   0  0  0  0  0  0  0  0  0  0  0  0
   -6.4410   25.8330  -29.6020 O   0  0  0  0  0  0  0  0  0  0  0  0
   -4.3520   25.5910  -30.8400 O   0  0  0  0  0  0  0  0  0  0  0  0
   -5.9450   23.4270  -30.6820 C   0  0  0  0  0  0  0  0  0  0  0  0
   -7.1390   22.8950  -30.1810 C   0  0  0  0  0  0  0  0  0  0  0  0
   -7.6680   21.7390  -30.7190 C   0  0  0  0  0  0  0  0  0  0  0  0
   -7.0260   21.0890  -31.7610 C   0  0  0  0  0  0  0  0  0  0  0  0
   -7.7000   19.6250  -32.4370 S   0  0  0  0  0  0  0  0  0  0  0  0
   -8.2050   18.6870  -31.3880 O   0  0  0  0  0  0  0  0  0  0  0  0
   -8.7870   20.0440  -33.3860 O   0  0  0  0  0  0  0  0  0  0  0  0
   -6.4530   18.8050  -33.3240 N   0  0  0  0  0  0  0  0  0  0  0  0
   -5.2560   18.6650  -32.5540 C   0  0  0  0  0  0  0  0  0  0  0  0
   -4.6460   17.3570  -32.9910 C   0  0  0  0  0  0  0  0  0  0  0  0
   -5.8720   16.4960  -33.2180 C   0  0  0  0  0  0  0  0  0  0  0  0
   -6.8690   17.5000  -33.7510 C   0  0  0  0  0  0  0  0  0  0  0  0
   -5.8370   21.6250  -32.2540 C   0  0  0  0  0  0  0  0  0  0  0  0
   -5.3070   22.7820  -31.7160 C   0  0  0  0  0  0  0  0  0  0  0  0
   -3.0410   23.2740  -29.6800 N   0  0  0  0  0  0  0  0  0  0  0  0
   -1.9450   22.4850  -29.7090 C   0  0  0  0  0  0  0  0  0  0  0  0
   -1.4890   21.9100  -31.0140 C   0  0  0  0  0  0  0  0  0  0  0  0
   -1.2450   22.1990  -28.5810 N   0  0  0  0  0  0  0  0  0  0  0  0
   -1.4360   22.6225  -25.2806 H   0  0  0  0  0  0  0  0  0  0  0  0
   -0.6195   21.3001  -26.1812 H   0  0  0  0  0  0  0  0  0  0  0  0
    0.0826   22.9535  -26.1812 H   0  0  0  0  0  0  0  0  0  0  0  0
   -3.0997   23.9466  -26.3561 H   0  0  0  0  0  0  0  0  0  0  0  0
   -7.6586   23.4010  -29.3540 H   0  0  0  0  0  0  0  0  0  0  0  0
   -8.6070   21.3304  -30.3172 H   0  0  0  0  0  0  0  0  0  0  0  0
   -4.5673   19.4978  -32.7592 H   0  0  0  0  0  0  0  0  0  0  0  0
   -5.4621   18.6782  -31.4736 H   0  0  0  0  0  0  0  0  0  0  0  0
   -4.0651   17.4770  -33.9174 H   0  0  0  0  0  0  0  0  0  0  0  0
   -3.9365   16.9345  -32.2643 H   0  0  0  0  0  0  0  0  0  0  0  0
   -5.6723   15.7026  -33.9532 H   0  0  0  0  0  0  0  0  0  0  0  0
   -6.2149   15.9672  -32.3164 H   0  0  0  0  0  0  0  0  0  0  0  0
   -6.8922   17.4562  -34.8499 H   0  0  0  0  0  0  0  0  0  0  0  0
   -7.8772   17.2765  -33.3721 H   0  0  0  0  0  0  0  0  0  0  0  0
   -5.3150   21.1210  -33.0807 H   0  0  0  0  0  0  0  0  0  0  0  0
   -4.3679   23.1904  -32.1175 H   0  0  0  0  0  0  0  0  0  0  0  0
   -0.8156   21.0609  -30.8253 H   0  0  0  0  0  0  0  0  0  0  0  0
   -2.3619   21.5652  -31.5878 H   0  0  0  0  0  0  0  0  0  0  0  0
   -0.9545   22.6814  -31.5878 H   0  0  0  0  0  0  0  0  0  0  0  0
   -0.3880   21.5770  -28.6330 H   0  0  0  0  0  0  0  0  0  0  0  0
  1  2  1  0
  2  3  2  0
  3  4  1  0
  4  5  2  0
  5  6  1  0
  6  7  2  0
  6  8  2  0
  6  9  1  0
  9 10  2  0
 10 11  1  0
 11 12  2  0
 12 13  1  0
 13 14  2  0
 13 15  2  0
 13 16  1  0
 16 17  1  0
 17 18  1  0
 18 19  1  0
 19 20  1  0
 12 21  1  0
 21 22  2  0
  4 23  1  0
 23 24  2  0
 24 25  1  0
 24 26  1  0
 26  2  1  0
 22  9  1  0
 20 16  1  0
  1 27  1  0
  1 28  1  0
  1 29  1  0
  3 30  1  0
 10 31  1  0
 11 32  1  0
 17 33  1  0
 17 34  1  0
 18 35  1  0
 18 36  1  0
 19 37  1  0
 19 38  1  0
 20 39  1  0
 20 40  1  0
 21 41  1  0
 22 42  1  0
 25 43  1  0
 25 44  1  0
 25 45  1  0
 26 46  1  0
M  END
>  <smiles>  (17) 
Cc1cc(=NS(=O)(=O)c2ccc(S(=O)(=O)N3CCCC3)cc2)nc(C)[nH]1

>  <score_type>  (17) 
oracle

>  <origin>  (17) 
adgpu

>  <m_score__min__energy>  (17) 
-9.8599999999999994

>  <m_primary>  (17) 
energy

$$$$
17:0
     RDKit          3D

 62 65  0  0  0  0  0  0  0  0999 V2000
    0.0910   23.8890  -24.4890 C   0  0  0  0  0  0  0  0  0  0  0  0
   -0.8490   23.4430  -25.4600 O   0  0  0  0  0  0  0  0  0  0  0  0
   -0.6580   22.3310  -26.2930 C   0  0  0  0  0  0  0  0  0  0  0  0
    0.3750   22.3760  -27.2360 C   0  0  0  0  0  0  0  0  0  0  0  0
    0.6050   21.2920  -28.0890 C   0  0  0  0  0  0  0  0  0  0  0  0
   -0.1940   20.1430  -28.0100 C   0  0  0  0  0  0  0  0  0  0  0  0
    0.0380   19.0330  -28.8930 N   0  0  0  0  0  0  0  0  0  0  0  0
    0.1720   17.6800  -28.3530 C   0  0  0  0  0  0  0  0  0  0  0  0
    0.2050   19.2820  -30.6070 S   0  0  0  0  0  0  0  0  0  0  0  0
    1.5180   19.9450  -30.9200 O   0  0  0  0  0  0  0  0  0  0  0  0
    0.1750   17.9480  -31.2990 O   0  0  0  0  0  0  0  0  0  0  0  0
   -1.1090   20.2990  -31.1940 C   0  0  0  0  0  0  0  0  0  0  0  0
   -1.9640   19.8330  -32.2000 C   0  0  0  0  0  0  0  0  0  0  0  0
   -3.0080   20.6390  -32.6630 C   0  0  0  0  0  0  0  0  0  0  0  0
   -3.2180   21.9040  -32.1090 C   0  0  0  0  0  0  0  0  0  0  0  0
   -2.3880   22.3710  -31.0820 C   0  0  0  0  0  0  0  0  0  0  0  0
   -2.6480   23.6610  -30.5090 N   0  0  0  0  0  0  0  0  0  0  0  0
   -3.9000   24.3640  -30.5510 C   0  0  0  0  0  0  0  0  0  0  0  0
   -3.9020   25.6100  -30.3710 O   0  0  0  0  0  0  0  0  0  0  0  0
   -5.1760   23.6700  -30.8350 C   0  0  0  0  0  0  0  0  0  0  0  0
   -5.7560   22.8350  -29.8670 C   0  0  0  0  0  0  0  0  0  0  0  0
   -6.9150   22.1120  -30.1620 C   0  0  0  0  0  0  0  0  0  0  0  0
   -7.5200   22.2300  -31.4190 C   0  0  0  0  0  0  0  0  0  0  0  0
   -8.9380   21.2590  -31.8040 S   0  0  0  0  0  0  0  0  0  0  0  0
   -9.4750   20.6690  -30.5290 O   0  0  0  0  0  0  0  0  0  0  0  0
  -10.0030   22.1290  -32.4150 O   0  0  0  0  0  0  0  0  0  0  0  0
   -8.4960   19.9710  -32.9060 N   0  0  0  0  0  0  0  0  0  0  0  0
   -8.7110   18.6590  -32.2860 C   0  0  0  0  0  0  0  0  0  0  0  0
   -7.4140   18.2370  -31.6150 C   0  0  0  0  0  0  0  0  0  0  0  0
   -6.3350   19.1010  -32.2400 C   0  0  0  0  0  0  0  0  0  0  0  0
   -7.0620   20.0280  -33.2080 C   0  0  0  0  0  0  0  0  0  0  0  0
   -6.9670   23.0910  -32.3750 C   0  0  0  0  0  0  0  0  0  0  0  0
   -5.8050   23.8100  -32.0840 C   0  0  0  0  0  0  0  0  0  0  0  0
   -1.3080   21.5770  -30.6550 C   0  0  0  0  0  0  0  0  0  0  0  0
   -1.2330   20.0970  -27.0680 C   0  0  0  0  0  0  0  0  0  0  0  0
   -1.4650   21.1800  -26.2140 C   0  0  0  0  0  0  0  0  0  0  0  0
   -0.3061   23.7006  -23.4806 H   0  0  0  0  0  0  0  0  0  0  0  0
    1.0378   23.3441  -24.6179 H   0  0  0  0  0  0  0  0  0  0  0  0
    0.2678   24.9670  -24.6179 H   0  0  0  0  0  0  0  0  0  0  0  0
    1.0109   23.2708  -27.3068 H   0  0  0  0  0  0  0  0  0  0  0  0
    1.4189   21.3414  -28.8274 H   0  0  0  0  0  0  0  0  0  0  0  0
    0.1679   17.7218  -27.2538 H   0  0  0  0  0  0  0  0  0  0  0  0
   -0.6693   17.0619  -28.6996 H   0  0  0  0  0  0  0  0  0  0  0  0
    1.1182   17.2389  -28.6996 H   0  0  0  0  0  0  0  0  0  0  0  0
   -1.8139   18.8304  -32.6270 H   0  0  0  0  0  0  0  0  0  0  0  0
   -3.6662   20.2760  -33.4661 H   0  0  0  0  0  0  0  0  0  0  0  0
   -4.0382   22.5357  -32.4807 H   0  0  0  0  0  0  0  0  0  0  0  0
   -5.2960   22.7494  -28.8715 H   0  0  0  0  0  0  0  0  0  0  0  0
   -7.3538   21.4473  -29.4033 H   0  0  0  0  0  0  0  0  0  0  0  0
   -9.5136   18.7274  -31.5368 H   0  0  0  0  0  0  0  0  0  0  0  0
   -9.0048   17.9209  -33.0468 H   0  0  0  0  0  0  0  0  0  0  0  0
   -7.4672   18.4129  -30.5305 H   0  0  0  0  0  0  0  0  0  0  0  0
   -7.2113   17.1651  -31.7561 H   0  0  0  0  0  0  0  0  0  0  0  0
   -5.8147   19.6850  -31.4666 H   0  0  0  0  0  0  0  0  0  0  0  0
   -5.5732   18.4944  -32.7516 H   0  0  0  0  0  0  0  0  0  0  0  0
   -6.6958   21.0578  -33.0837 H   0  0  0  0  0  0  0  0  0  0  0  0
   -6.8791   19.7131  -34.2460 H   0  0  0  0  0  0  0  0  0  0  0  0
   -7.4488   23.2015  -33.3577 H   0  0  0  0  0  0  0  0  0  0  0  0
   -5.3798   24.4898  -32.8370 H   0  0  0  0  0  0  0  0  0  0  0  0
   -0.6149   21.9622  -29.8926 H   0  0  0  0  0  0  0  0  0  0  0  0
   -1.8697   19.2025  -27.0007 H   0  0  0  0  0  0  0  0  0  0  0  0
   -2.2810   21.1324  -25.4779 H   0  0  0  0  0  0  0  0  0  0  0  0
  1  2  1  0
  2  3  1  0
  3  4  2  0
  4  5  1  0
  5  6  2  0
  6  7  1  0
  7  8  1  0
  7  9  1  0
  9 10  2  0
  9 11  2  0
  9 12  1  0
 12 13  2  0
 13 14  1  0
 14 15  2  0
 15 16  1  0
 16 17  1  0
 17 18  1  0
 18 19  2  0
 18 20  1  0
 20 21  2  0
 21 22  1  0
 22 23  2  0
 23 24  1  0
 24 25  2  0
 24 26  2  0
 24 27  1  0
 27 28  1  0
 28 29  1  0
 29 30  1  0
 30 31  1  0
 23 32  1  0
 32 33  2  0
 16 34  2  0
  6 35  1  0
 35 36  2  0
 36  3  1  0
 34 12  1  0
 33 20  1  0
 31 27  1  0
  1 37  1  0
  1 38  1  0
  1 39  1  0
  4 40  1  0
  5 41  1  0
  8 42  1  0
  8 43  1  0
  8 44  1  0
 13 45  1  0
 14 46  1  0
 15 47  1  0
 21 48  1  0
 22 49  1  0
 28 50  1  0
 28 51  1  0
 29 52  1  0
 29 53  1  0
 30 54  1  0
 30 55  1  0
 31 56  1  0
 31 57  1  0
 32 58  1  0
 33 59  1  0
 34 60  1  0
 35 61  1  0
 36 62  1  0
M  CHG  1  17  -1
M  END
>  <UniqueID>  (18) 
17

>  <SMILES>  (18) 
COc1ccc(N(C)S(=O)(=O)c2cccc([N-]C(=O)c3ccc(S(=O)(=O)N4CCCC4)cc3)c2)cc1

>  <Energy>  (18) 
75.6763922768464

>  <Genealogy>  (18) 
COc1ccc(N(C)S(=O)(=O)c2cccc([N-]C(=O)c3ccc(S(=O)(=O)N4CCCC4)cc3)c2)cc1 (protonated)
COc1ccc(N(C)S(=O)(=O)c2cccc([N-]C(=O)c3ccc(S(=O)(=O)N4CCCC4)cc3)c2)cc1 (3D coordinates assigned)
COc1ccc(N(C)S(=O)(=O)c2cccc([N-]C(=O)c3ccc(S(=O)(=O)N4CCCC4)cc3)c2)cc1 (nonaromatic ring conformer: 75.6763922768464 kcal/mol)

>  <smiles>  (18) 
COc1ccc(N(C)S(=O)(=O)c2cccc(NC(=O)c3ccc(S(=O)(=O)N4CCCC4)cc3)c2)cc1

>  <score_type>  (18) 
oracle

>  <origin>  (18) 
adgpu

>  <m_score__min__energy>  (18) 
-12.130000000000001

>  <m_primary>  (18) 
energy

$$$$
18:0
     RDKit          3D

 55 58  0  0  0  0  0  0  0  0999 V2000
    1.0370   15.8630  -27.1310 C   0  0  0  0  0  0  0  0  0  0  0  0
    1.4140   17.0050  -27.8940 O   0  0  0  0  0  0  0  0  0  0  0  0
    0.6610   18.1860  -27.9770 C   0  0  0  0  0  0  0  0  0  0  0  0
    1.2590   19.3180  -28.5400 C   0  0  0  0  0  0  0  0  0  0  0  0
    0.5570   20.5240  -28.6290 C   0  0  0  0  0  0  0  0  0  0  0  0
   -0.7650   20.6150  -28.1590 C   0  0  0  0  0  0  0  0  0  0  0  0
   -1.4980   21.9030  -28.1970 C   0  0  0  0  0  0  0  0  0  0  0  0
   -1.2380   22.7880  -27.3360 O   0  0  0  0  0  0  0  0  0  0  0  0
   -2.5340   22.1750  -29.2120 C   0  0  0  0  0  0  0  0  0  0  0  0
   -2.7490   21.2780  -30.6220 S   0  0  0  0  0  0  0  0  0  0  0  0
   -4.0970   22.1230  -31.1620 C   0  0  0  0  0  0  0  0  0  0  0  0
   -4.7420   21.8930  -32.4200 N   0  0  0  0  0  0  0  0  0  0  0  0
   -5.2970   20.6220  -32.8060 C   0  0  0  0  0  0  0  0  0  0  0  0
   -4.5300   19.6640  -33.4950 C   0  0  0  0  0  0  0  0  0  0  0  0
   -5.0750   18.4140  -33.8050 C   0  0  0  0  0  0  0  0  0  0  0  0
   -6.3830   18.1010  -33.4250 C   0  0  0  0  0  0  0  0  0  0  0  0
   -7.1530   19.0350  -32.7190 C   0  0  0  0  0  0  0  0  0  0  0  0
   -8.5650   18.7030  -32.3320 C   0  0  0  0  0  0  0  0  0  0  0  0
   -6.6090   20.2980  -32.4230 C   0  0  0  0  0  0  0  0  0  0  0  0
   -4.4070   23.1380  -30.2550 C   0  0  0  0  0  0  0  0  0  0  0  0
   -5.7400   24.2840  -30.4540 S   0  0  0  0  0  0  0  0  0  0  0  0
   -5.9910   25.0690  -29.1980 O   0  0  0  0  0  0  0  0  0  0  0  0
   -5.3800   25.2470  -31.5510 O   0  0  0  0  0  0  0  0  0  0  0  0
   -7.2050   23.3980  -30.8670 C   0  0  0  0  0  0  0  0  0  0  0  0
   -7.9580   23.7480  -31.9990 C   0  0  0  0  0  0  0  0  0  0  0  0
   -9.1130   23.0270  -32.3250 C   0  0  0  0  0  0  0  0  0  0  0  0
   -9.5210   21.9550  -31.5230 C   0  0  0  0  0  0  0  0  0  0  0  0
   -8.7760   21.6070  -30.3910 C   0  0  0  0  0  0  0  0  0  0  0  0
   -7.6220   22.3270  -30.0600 C   0  0  0  0  0  0  0  0  0  0  0  0
   -3.5300   23.1550  -29.1490 C   0  0  0  0  0  0  0  0  0  0  0  0
   -3.6110   24.1180  -28.0920 N   0  0  0  0  0  0  0  0  0  0  0  0
   -1.3670   19.4770  -27.5970 C   0  0  0  0  0  0  0  0  0  0  0  0
   -0.6650   18.2700  -27.5100 C   0  0  0  0  0  0  0  0  0  0  0  0
    1.1141   16.0966  -26.0589 H   0  0  0  0  0  0  0  0  0  0  0  0
   -0.0000   15.5868  -27.3724 H   0  0  0  0  0  0  0  0  0  0  0  0
    1.7057   15.0236  -27.3724 H   0  0  0  0  0  0  0  0  0  0  0  0
    2.2910   19.2591  -28.9162 H   0  0  0  0  0  0  0  0  0  0  0  0
    1.0422   21.4074  -29.0696 H   0  0  0  0  0  0  0  0  0  0  0  0
   -4.7960   22.6910  -33.0920 H   0  0  0  0  0  0  0  0  0  0  0  0
   -3.4971   19.8996  -33.7910 H   0  0  0  0  0  0  0  0  0  0  0  0
   -4.4714   17.6737  -34.3505 H   0  0  0  0  0  0  0  0  0  0  0  0
   -6.8089   17.1195  -33.6806 H   0  0  0  0  0  0  0  0  0  0  0  0
   -8.6496   18.6831  -31.2354 H   0  0  0  0  0  0  0  0  0  0  0  0
   -9.2456   19.4656  -32.7385 H   0  0  0  0  0  0  0  0  0  0  0  0
   -8.8344   17.7170  -32.7385 H   0  0  0  0  0  0  0  0  0  0  0  0
   -7.2178   21.0401  -31.8857 H   0  0  0  0  0  0  0  0  0  0  0  0
   -7.6399   24.5903  -32.6310 H   0  0  0  0  0  0  0  0  0  0  0  0
   -9.7007   23.3035  -33.2128 H   0  0  0  0  0  0  0  0  0  0  0  0
  -10.4264   21.3867  -31.7824 H   0  0  0  0  0  0  0  0  0  0  0  0
   -9.0978   20.7657  -29.7596 H   0  0  0  0  0  0  0  0  0  0  0  0
   -7.0412   22.0535  -29.1668 H   0  0  0  0  0  0  0  0  0  0  0  0
   -3.0580   24.0110  -27.2130 H   0  0  0  0  0  0  0  0  0  0  0  0
   -4.2520   24.9390  -28.1540 H   0  0  0  0  0  0  0  0  0  0  0  0
   -2.3995   19.5354  -27.2220 H   0  0  0  0  0  0  0  0  0  0  0  0
   -1.1503   17.3837  -27.0754 H   0  0  0  0  0  0  0  0  0  0  0  0
  1  2  1  0
  2  3  1  0
  3  4  2  0
  4  5  1  0
  5  6  2  0
  6  7  1  0
  7  8  2  0
  7  9  1  0
  9 10  1  0
 10 11  1  0
 11 12  1  0
 12 13  1  0
 13 14  2  0
 14 15  1  0
 15 16  2  0
 16 17  1  0
 17 18  1  0
 17 19  2  0
 11 20  2  0
 20 21  1  0
 21 22  2  0
 21 23  2  0
 21 24  1  0
 24 25  2  0
 25 26  1  0
 26 27  2  0
 27 28  1  0
 28 29  2  0
 20 30  1  0
 30 31  1  0
  6 32  1  0
 32 33  2  0
 33  3  1  0
 30  9  2  0
 19 13  1  0
 29 24  1  0
  1 34  1  0
  1 35  1  0
  1 36  1  0
  4 37  1  0
  5 38  1  0
 12 39  1  0
 14 40  1  0
 15 41  1  0
 16 42  1  0
 18 43  1  0
 18 44  1  0
 18 45  1  0
 19 46  1  0
 25 47  1  0
 26 48  1  0
 27 49  1  0
 28 50  1  0
 29 51  1  0
 31 52  1  0
 31 53  1  0
 32 54  1  0
 33 55  1  0
M  END
>  <UniqueID>  (19) 
18

>  <SMILES>  (19) 
COc1ccc(C(=O)c2sc(Nc3cccc(C)c3)c(S(=O)(=O)c3ccccc3)c2N)cc1

>  <Energy>  (19) 
99.60930241285317

>  <Genealogy>  (19) 
COc1ccc(C(=O)c2sc(Nc3cccc(C)c3)c(S(=O)(=O)c3ccccc3)c2N)cc1 (3D coordinates assigned)
COc1ccc(C(=O)c2sc(Nc3cccc(C)c3)c(S(=O)(=O)c3ccccc3)c2N)cc1 (optimized conformer: 99.60930241285317 kcal/mol)

>  <smiles>  (19) 
COc1ccc(C(=O)c2sc(Nc3cccc(C)c3)c(S(=O)(=O)c3ccccc3)c2N)cc1

>  <score_type>  (19) 
oracle

>  <origin>  (19) 
adgpu

>  <m_score__min__energy>  (19) 
-10.24

>  <m_primary>  (19) 
energy

$$$$
19:0
     RDKit          3D

 69 72  0  0  0  0  0  0  0  0999 V2000
    0.4510   19.1310  -36.0220 C   0  0  0  0  0  0  0  0  0  0  0  0
   -0.0310   19.6130  -34.6790 C   0  0  0  0  0  0  0  0  0  0  0  0
   -0.8700   20.7370  -34.6060 C   0  0  0  0  0  0  0  0  0  0  0  0
   -1.3360   21.1940  -33.3710 C   0  0  0  0  0  0  0  0  0  0  0  0
   -0.9540   20.5520  -32.1890 C   0  0  0  0  0  0  0  0  0  0  0  0
   -1.5850   21.1090  -30.6390 S   0  0  0  0  0  0  0  0  0  0  0  0
   -0.5010   21.0330  -29.6000 O   0  0  0  0  0  0  0  0  0  0  0  0
   -2.7140   20.2200  -30.2000 O   0  0  0  0  0  0  0  0  0  0  0  0
   -2.1140   22.7560  -30.7600 N   0  0  0  0  0  0  0  0  0  0  0  0
   -3.5040   23.1020  -30.8240 C   0  0  0  0  0  0  0  0  0  0  0  0
   -4.4070   22.1990  -31.4040 C   0  0  0  0  0  0  0  0  0  0  0  0
   -5.7710   22.5190  -31.5150 C   0  0  0  0  0  0  0  0  0  0  0  0
   -6.7130   21.5700  -32.1490 C   0  0  0  0  0  0  0  0  0  0  0  0
   -7.9190   21.8980  -32.3150 O   0  0  0  0  0  0  0  0  0  0  0  0
   -6.2690   20.2800  -32.5920 N   0  0  0  0  0  0  0  0  0  0  0  0
   -6.4090   19.9090  -34.0020 C   0  0  0  0  0  0  0  0  0  0  0  0
   -6.4000   18.3810  -34.1690 C   0  0  0  0  0  0  0  0  0  0  0  0
   -5.2700   17.7100  -33.4840 N   0  0  0  0  0  0  0  0  0  0  0  0
   -4.0240   17.2270  -34.6120 S   0  0  0  0  0  0  0  0  0  0  0  0
   -3.6000   15.5040  -34.4240 C   0  0  0  0  0  0  0  0  0  0  0  0
   -2.7940   18.0580  -34.3750 O   0  0  0  0  0  0  0  0  0  0  0  0
   -4.5000   17.4590  -36.0190 O   0  0  0  0  0  0  0  0  0  0  0  0
   -4.6840   18.4420  -32.3420 C   0  0  0  0  0  0  0  0  0  0  0  0
   -5.7120   19.3240  -31.6340 C   0  0  0  0  0  0  0  0  0  0  0  0
   -6.2220   23.7630  -31.0480 C   0  0  0  0  0  0  0  0  0  0  0  0
   -5.3260   24.6690  -30.4770 C   0  0  0  0  0  0  0  0  0  0  0  0
   -3.9700   24.3520  -30.3750 C   0  0  0  0  0  0  0  0  0  0  0  0
   -3.0930   25.2960  -29.8530 O   0  0  0  0  0  0  0  0  0  0  0  0
   -0.0920   19.4490  -32.2500 C   0  0  0  0  0  0  0  0  0  0  0  0
    0.3680   18.9730  -33.4850 C   0  0  0  0  0  0  0  0  0  0  0  0
    1.2380   17.7820  -33.5030 C   0  0  0  0  0  0  0  0  0  0  0  0
    2.4780   17.9520  -33.6510 O   0  0  0  0  0  0  0  0  0  0  0  0
    0.7000   16.4460  -33.3970 N   0  0  0  0  0  0  0  0  0  0  0  0
    1.5700   15.3060  -33.7270 C   0  0  0  0  0  0  0  0  0  0  0  0
    0.7880   13.9870  -33.7570 C   0  0  0  0  0  0  0  0  0  0  0  0
   -0.0130   13.7940  -32.4630 C   0  0  0  0  0  0  0  0  0  0  0  0
   -0.8100   15.0480  -32.0370 C   0  0  0  0  0  0  0  0  0  0  0  0
   -0.7080   16.2070  -33.0390 C   0  0  0  0  0  0  0  0  0  0  0  0
    1.2223   18.3597  -35.8796 H   0  0  0  0  0  0  0  0  0  0  0  0
   -0.3937   18.7055  -36.5837 H   0  0  0  0  0  0  0  0  0  0  0  0
    0.8765   19.9757  -36.5837 H   0  0  0  0  0  0  0  0  0  0  0  0
   -1.1622   21.2611  -35.5279 H   0  0  0  0  0  0  0  0  0  0  0  0
   -2.0075   22.0642  -33.3281 H   0  0  0  0  0  0  0  0  0  0  0  0
   -1.4240   23.4380  -31.1470 H   0  0  0  0  0  0  0  0  0  0  0  0
   -4.0436   21.2297  -31.7761 H   0  0  0  0  0  0  0  0  0  0  0  0
   -7.3590   20.3081  -34.3871 H   0  0  0  0  0  0  0  0  0  0  0  0
   -5.5611   20.3295  -34.5626 H   0  0  0  0  0  0  0  0  0  0  0  0
   -7.3397   17.9820  -33.7595 H   0  0  0  0  0  0  0  0  0  0  0  0
   -6.2886   18.1774  -35.2442 H   0  0  0  0  0  0  0  0  0  0  0  0
   -3.5390   15.2560  -33.3540 H   0  0  0  0  0  0  0  0  0  0  0  0
   -4.3719   14.8823  -34.9010 H   0  0  0  0  0  0  0  0  0  0  0  0
   -2.6277   15.3115  -34.9010 H   0  0  0  0  0  0  0  0  0  0  0  0
   -4.2856   17.7133  -31.6208 H   0  0  0  0  0  0  0  0  0  0  0  0
   -3.8890   19.0951  -32.7311 H   0  0  0  0  0  0  0  0  0  0  0  0
   -6.5194   18.6957  -31.2299 H   0  0  0  0  0  0  0  0  0  0  0  0
   -5.2267   19.8676  -30.8100 H   0  0  0  0  0  0  0  0  0  0  0  0
   -7.2868   24.0258  -31.1322 H   0  0  0  0  0  0  0  0  0  0  0  0
   -5.6905   25.6380  -30.1054 H   0  0  0  0  0  0  0  0  0  0  0  0
    0.2261   18.9529  -31.3212 H   0  0  0  0  0  0  0  0  0  0  0  0
    2.0208   15.4759  -34.7159 H   0  0  0  0  0  0  0  0  0  0  0  0
    2.3442   15.2285  -32.9494 H   0  0  0  0  0  0  0  0  0  0  0  0
    0.0947   13.9990  -34.6109 H   0  0  0  0  0  0  0  0  0  0  0  0
    1.5035   13.1572  -33.8536 H   0  0  0  0  0  0  0  0  0  0  0  0
   -0.7213   12.9657  -32.6125 H   0  0  0  0  0  0  0  0  0  0  0  0
    0.7119   13.5846  -31.6626 H   0  0  0  0  0  0  0  0  0  0  0  0
   -1.8690   14.7692  -31.9335 H   0  0  0  0  0  0  0  0  0  0  0  0
   -0.3773   15.4003  -31.0890 H   0  0  0  0  0  0  0  0  0  0  0  0
   -1.2759   15.9541  -33.9465 H   0  0  0  0  0  0  0  0  0  0  0  0
   -1.1213   17.1169  -32.5793 H   0  0  0  0  0  0  0  0  0  0  0  0
  1  2  1  0
  2  3  2  0
  3  4  1  0
  4  5  2  0
  5  6  1  0
  6  7  2  0
  6  8  2  0
  6  9  1  0
  9 10  1  0
 10 11  2  0
 11 12  1  0
 12 13  1  0
 13 14  2  0
 13 15  1  0
 15 16  1  0
 16 17  1  0
 17 18  1  0
 18 19  1  0
 19 20  1  0
 19 21  2  0
 19 22  2  0
 18 23  1  0
 23 24  1  0
 12 25  2  0
 25 26  1  0
 26 27  2  0
 27 28  1  0
  5 29  1  0
 29 30  2  0
 30 31  1  0
 31 32  2  0
 31 33  1  0
 33 34  1  0
 34 35  1  0
 35 36  1  0
 36 37  1  0
 37 38  1  0
 30  2  1  0
 38 33  1  0
 27 10  1  0
 24 15  1  0
  1 39  1  0
  1 40  1  0
  1 41  1  0
  3 42  1  0
  4 43  1  0
  9 44  1  0
 11 45  1  0
 16 46  1  0
 16 47  1  0
 17 48  1  0
 17 49  1  0
 20 50  1  0
 20 51  1  0
 20 52  1  0
 23 53  1  0
 23 54  1  0
 24 55  1  0
 24 56  1  0
 25 57  1  0
 26 58  1  0
 29 59  1  0
 34 60  1  0
 34 61  1  0
 35 62  1  0
 35 63  1  0
 36 64  1  0
 36 65  1  0
 37 66  1  0
 37 67  1  0
 38 68  1  0
 38 69  1  0
M  CHG  1  28  -1
M  END
>  <UniqueID>  (20) 
19

>  <SMILES>  (20) 
Cc1ccc(S(=O)(=O)Nc2cc(C(=O)N3CCN(S(C)(=O)=O)CC3)ccc2[O-])cc1C(=O)N1CCCCC1

>  <Energy>  (20) 
89.40864891647853

>  <Genealogy>  (20) 
Cc1ccc(S(=O)(=O)Nc2cc(C(=O)N3CCN(S(C)(=O)=O)CC3)ccc2[O-])cc1C(=O)N1CCCCC1 (protonated)
Cc1ccc(S(=O)(=O)Nc2cc(C(=O)N3CCN(S(C)(=O)=O)CC3)ccc2[O-])cc1C(=O)N1CCCCC1 (3D coordinates assigned)
Cc1ccc(S(=O)(=O)Nc2cc(C(=O)N3CCN(S(C)(=O)=O)CC3)ccc2[O-])cc1C(=O)N1CCCCC1 (nonaromatic ring conformer: 89.40864891647853 kcal/mol)

>  <smiles>  (20) 
Cc1ccc(S(=O)(=O)Nc2cc(C(=O)N3CCN(S(C)(=O)=O)CC3)ccc2O)cc1C(=O)N1CCCCC1

>  <score_type>  (20) 
oracle

>  <origin>  (20) 
adgpu

>  <m_score__min__energy>  (20) 
-14.65

>  <m_primary>  (20) 
energy

$$$$
20:0
     RDKit          3D

 37 38  0  0  0  0  0  0  0  0999 V2000
   -4.7630   18.8140  -34.2170 C   0  0  0  0  0  0  0  0  0  0  0  0
   -5.9420   19.3390  -33.4490 C   0  0  0  0  0  0  0  0  0  0  0  0
   -6.0490   20.6830  -33.3000 N   0  0  0  0  0  0  0  0  0  0  0  0
   -7.0700   21.2700  -32.6300 C   0  0  0  0  0  0  0  0  0  0  0  0
   -7.0820   23.0630  -32.4820 S   0  0  0  0  0  0  0  0  0  0  0  0
   -6.6280   23.0230  -30.7150 C   0  0  0  0  0  0  0  0  0  0  0  0
   -5.3090   23.7090  -30.5170 C   0  0  0  0  0  0  0  0  0  0  0  0
   -4.0460   23.2310  -30.8140 C   0  0  0  0  0  0  0  0  0  0  0  0
   -3.7020   21.8670  -31.3220 C   0  0  0  0  0  0  0  0  0  0  0  0
   -3.1370   24.1960  -30.5800 N   0  0  0  0  0  0  0  0  0  0  0  0
   -3.7890   25.2420  -30.1590 O   0  0  0  0  0  0  0  0  0  0  0  0
   -5.0800   25.0070  -30.1020 C   0  0  0  0  0  0  0  0  0  0  0  0
   -6.1020   26.0230  -29.7000 C   0  0  0  0  0  0  0  0  0  0  0  0
   -8.0860   20.4790  -32.0680 C   0  0  0  0  0  0  0  0  0  0  0  0
   -9.1740   21.1220  -31.3590 C   0  0  0  0  0  0  0  0  0  0  0  0
  -10.0420   21.6360  -30.7910 N   0  0  0  0  0  0  0  0  0  0  0  0
   -8.0290   19.0710  -32.2090 C   0  0  0  0  0  0  0  0  0  0  0  0
   -9.1040   18.1940  -31.5990 C   0  0  0  0  0  0  0  0  0  0  0  0
   -6.9120   18.4860  -32.8660 C   0  0  0  0  0  0  0  0  0  0  0  0
   -6.7950   16.9800  -32.9880 C   0  0  0  0  0  0  0  0  0  0  0  0
   -3.9907   18.4701  -33.5133 H   0  0  0  0  0  0  0  0  0  0  0  0
   -5.0827   17.9732  -34.8501 H   0  0  0  0  0  0  0  0  0  0  0  0
   -4.3520   19.6142  -34.8501 H   0  0  0  0  0  0  0  0  0  0  0  0
   -7.4009   23.5396  -30.1270 H   0  0  0  0  0  0  0  0  0  0  0  0
   -6.5487   21.9774  -30.3825 H   0  0  0  0  0  0  0  0  0  0  0  0
   -3.5315   21.1910  -30.4711 H   0  0  0  0  0  0  0  0  0  0  0  0
   -4.5316   21.4837  -31.9343 H   0  0  0  0  0  0  0  0  0  0  0  0
   -2.7899   21.9230  -31.9343 H   0  0  0  0  0  0  0  0  0  0  0  0
   -6.1548   26.0755  -28.6025 H   0  0  0  0  0  0  0  0  0  0  0  0
   -5.8181   27.0072  -30.1010 H   0  0  0  0  0  0  0  0  0  0  0  0
   -7.0845   25.7333  -30.1010 H   0  0  0  0  0  0  0  0  0  0  0  0
   -9.0406   18.2457  -30.5020 H   0  0  0  0  0  0  0  0  0  0  0  0
  -10.0936   18.5458  -31.9261 H   0  0  0  0  0  0  0  0  0  0  0  0
   -8.9581   17.1540  -31.9261 H   0  0  0  0  0  0  0  0  0  0  0  0
   -6.7602   16.5324  -31.9838 H   0  0  0  0  0  0  0  0  0  0  0  0
   -7.6654   16.5877  -33.5344 H   0  0  0  0  0  0  0  0  0  0  0  0
   -5.8745   16.7268  -33.5344 H   0  0  0  0  0  0  0  0  0  0  0  0
  1  2  1  0
  2  3  2  0
  3  4  1  0
  4  5  1  0
  5  6  1  0
  6  7  1  0
  7  8  1  0
  8  9  1  0
  8 10  2  0
 10 11  1  0
 11 12  1  0
 12 13  1  0
  4 14  2  0
 14 15  1  0
 15 16  3  0
 14 17  1  0
 17 18  1  0
 17 19  2  0
 19 20  1  0
 19  2  1  0
 12  7  2  0
  1 21  1  0
  1 22  1  0
  1 23  1  0
  6 24  1  0
  6 25  1  0
  9 26  1  0
  9 27  1  0
  9 28  1  0
 13 29  1  0
 13 30  1  0
 13 31  1  0
 18 32  1  0
 18 33  1  0
 18 34  1  0
 20 35  1  0
 20 36  1  0
 20 37  1  0
M  END
>  <UniqueID>  (21) 
20

>  <SMILES>  (21) 
Cc1nc(SCc2c(C)noc2C)c(C#N)c(C)c1C

>  <Energy>  (21) 
64.7386500850448

>  <Genealogy>  (21) 
Cc1nc(SCc2c(C)noc2C)c(C#N)c(C)c1C (3D coordinates assigned)
Cc1nc(SCc2c(C)noc2C)c(C#N)c(C)c1C (optimized conformer: 64.7386500850448 kcal/mol)

>  <smiles>  (21) 
Cc1nc(SCc2c(C)noc2C)c(C#N)c(C)c1C

>  <score_type>  (21) 
oracle

>  <origin>  (21) 
adgpu

>  <m_score__min__energy>  (21) 
-9.3000000000000007

>  <m_primary>  (21) 
energy

$$$$
21:0
     RDKit          3D

 49 53  0  0  0  0  0  0  0  0999 V2000
    0.4810   19.0080  -31.5520 C   0  0  0  0  0  0  0  0  0  0  0  0
   -0.2010   19.8090  -32.9860 S   0  0  0  0  0  0  0  0  0  0  0  0
   -0.3310   18.7980  -34.0910 O   0  0  0  0  0  0  0  0  0  0  0  0
    0.7160   20.9110  -33.4390 O   0  0  0  0  0  0  0  0  0  0  0  0
   -1.7750   20.4860  -32.5900 C   0  0  0  0  0  0  0  0  0  0  0  0
   -2.4060   20.1180  -31.3940 C   0  0  0  0  0  0  0  0  0  0  0  0
   -3.6580   20.6480  -31.0640 C   0  0  0  0  0  0  0  0  0  0  0  0
   -4.2820   21.5690  -31.9210 C   0  0  0  0  0  0  0  0  0  0  0  0
   -5.6110   22.1160  -31.5860 C   0  0  0  0  0  0  0  0  0  0  0  0
   -5.8800   23.2980  -30.9990 C   0  0  0  0  0  0  0  0  0  0  0  0
   -4.8780   24.2880  -30.5310 C   0  0  0  0  0  0  0  0  0  0  0  0
   -4.6190   25.3160  -31.2190 O   0  0  0  0  0  0  0  0  0  0  0  0
   -4.1230   24.0760  -29.2880 C   0  0  0  0  0  0  0  0  0  0  0  0
   -4.6140   24.2350  -27.9980 C   0  0  0  0  0  0  0  0  0  0  0  0
   -3.6810   23.8730  -27.0880 N   0  0  0  0  0  0  0  0  0  0  0  0
   -2.6120   23.4660  -27.7950 C   0  0  0  0  0  0  0  0  0  0  0  0
   -1.4220   22.9450  -27.2940 C   0  0  0  0  0  0  0  0  0  0  0  0
   -0.4510   22.5200  -28.2180 C   0  0  0  0  0  0  0  0  0  0  0  0
   -0.6970   22.6070  -29.6070 C   0  0  0  0  0  0  0  0  0  0  0  0
   -1.9130   23.1260  -30.0840 C   0  0  0  0  0  0  0  0  0  0  0  0
   -2.8460   23.5690  -29.1440 C   0  0  0  0  0  0  0  0  0  0  0  0
   -7.3730   23.4940  -30.8380 C   0  0  0  0  0  0  0  0  0  0  0  0
   -7.9000   22.2520  -31.4640 C   0  0  0  0  0  0  0  0  0  0  0  0
   -9.2310   21.8610  -31.6290 C   0  0  0  0  0  0  0  0  0  0  0  0
   -9.4940   20.6290  -32.2550 C   0  0  0  0  0  0  0  0  0  0  0  0
   -8.4310   19.8140  -32.7000 C   0  0  0  0  0  0  0  0  0  0  0  0
   -7.1000   20.2270  -32.5210 C   0  0  0  0  0  0  0  0  0  0  0  0
   -6.8680   21.4580  -31.9000 C   0  0  0  0  0  0  0  0  0  0  0  0
   -3.6620   21.9190  -33.1300 C   0  0  0  0  0  0  0  0  0  0  0  0
   -2.4140   21.3830  -33.4610 C   0  0  0  0  0  0  0  0  0  0  0  0
    0.0795   19.4795  -30.6429 H   0  0  0  0  0  0  0  0  0  0  0  0
    0.2088   17.9423  -31.5631 H   0  0  0  0  0  0  0  0  0  0  0  0
    1.5765   19.1068  -31.5631 H   0  0  0  0  0  0  0  0  0  0  0  0
   -1.9145   19.4091  -30.7115 H   0  0  0  0  0  0  0  0  0  0  0  0
   -4.1547   20.3426  -30.1312 H   0  0  0  0  0  0  0  0  0  0  0  0
   -5.6206   24.6037  -27.7513 H   0  0  0  0  0  0  0  0  0  0  0  0
   -3.7860   23.8810  -26.0480 H   0  0  0  0  0  0  0  0  0  0  0  0
   -1.2471   22.8684  -26.2107 H   0  0  0  0  0  0  0  0  0  0  0  0
    0.5068   22.1170  -27.8572 H   0  0  0  0  0  0  0  0  0  0  0  0
    0.0685   22.2662  -30.3197 H   0  0  0  0  0  0  0  0  0  0  0  0
   -2.1229   23.1814  -31.1624 H   0  0  0  0  0  0  0  0  0  0  0  0
   -7.6580   23.5626  -29.7778 H   0  0  0  0  0  0  0  0  0  0  0  0
   -7.7562   24.4221  -31.2872 H   0  0  0  0  0  0  0  0  0  0  0  0
  -10.0537   22.5012  -31.2778 H   0  0  0  0  0  0  0  0  0  0  0  0
  -10.5335   20.2991  -32.3985 H   0  0  0  0  0  0  0  0  0  0  0  0
   -8.6454   18.8521  -33.1887 H   0  0  0  0  0  0  0  0  0  0  0  0
   -6.2631   19.5988  -32.8603 H   0  0  0  0  0  0  0  0  0  0  0  0
   -4.1593   22.6171  -33.8194 H   0  0  0  0  0  0  0  0  0  0  0  0
   -1.9305   21.6652  -34.4079 H   0  0  0  0  0  0  0  0  0  0  0  0
  1  2  1  0
  2  3  2  0
  2  4  2  0
  2  5  1  0
  5  6  2  0
  6  7  1  0
  7  8  2  0
  8  9  1  0
  9 10  2  0
 10 11  1  0
 11 12  2  0
 11 13  1  0
 13 14  2  0
 14 15  1  0
 15 16  1  0
 16 17  2  0
 17 18  1  0
 18 19  2  0
 19 20  1  0
 20 21  2  0
 10 22  1  0
 22 23  1  0
 23 24  2  0
 24 25  1  0
 25 26  2  0
 26 27  1  0
 27 28  2  0
  8 29  1  0
 29 30  2  0
 30  5  1  0
 28  9  1  0
 21 13  1  0
 28 23  1  0
 21 16  1  0
  1 31  1  0
  1 32  1  0
  1 33  1  0
  6 34  1  0
  7 35  1  0
 14 36  1  0
 15 37  1  0
 17 38  1  0
 18 39  1  0
 19 40  1  0
 20 41  1  0
 22 42  1  0
 22 43  1  0
 24 44  1  0
 25 45  1  0
 26 46  1  0
 27 47  1  0
 29 48  1  0
 30 49  1  0
M  END
>  <UniqueID>  (22) 
21

>  <SMILES>  (22) 
CS(=O)(=O)c1ccc(C2=C(C(=O)c3c[nH]c4ccccc34)Cc3ccccc32)cc1

>  <Energy>  (22) 
116.91112767986588

>  <Genealogy>  (22) 
CS(=O)(=O)c1ccc(C2=C(C(=O)c3c[nH]c4ccccc34)Cc3ccccc32)cc1 (3D coordinates assigned)
CS(=O)(=O)c1ccc(C2=C(C(=O)c3c[nH]c4ccccc34)Cc3ccccc32)cc1 (nonaromatic ring conformer: 116.91112767986588 kcal/mol)

>  <smiles>  (22) 
CS(=O)(=O)c1ccc(C2=C(C(=O)c3c[nH]c4ccccc34)Cc3ccccc32)cc1

>  <score_type>  (22) 
oracle

>  <origin>  (22) 
adgpu

>  <m_score__min__energy>  (22) 
-10.67

>  <m_primary>  (22) 
energy

$$$$
22:0
     RDKit          3D

 40 42  0  0  0  0  0  0  0  0999 V2000
   -1.8841   26.3348  -28.1079 H   0  0  0  0  0  0  0  0  0  0  0  0
   -1.7520   25.3440  -28.5670 C   0  0  0  0  0  0  0  0  0  0  0  0
   -2.7210   24.8330  -29.3740 N   0  0  0  0  0  0  0  0  0  0  0  0
   -2.5990   23.6080  -29.9630 C   0  0  0  0  0  0  0  0  0  0  0  0
   -3.5440   23.1290  -30.7210 N   0  0  0  0  0  0  0  0  0  0  0  0
   -4.7410   23.8240  -31.1050 C   0  0  0  0  0  0  0  0  0  0  0  0
   -4.7240   25.0840  -31.1320 O   0  0  0  0  0  0  0  0  0  0  0  0
   -6.0050   23.1070  -31.4030 C   0  0  0  0  0  0  0  0  0  0  0  0
   -7.2350   23.7830  -31.3340 C   0  0  0  0  0  0  0  0  0  0  0  0
   -7.2596   24.8476  -31.0584 H   0  0  0  0  0  0  0  0  0  0  0  0
   -8.4280   23.1090  -31.6140 C   0  0  0  0  0  0  0  0  0  0  0  0
   -9.3864   23.6469  -31.5672 H   0  0  0  0  0  0  0  0  0  0  0  0
   -8.4050   21.7540  -31.9530 C   0  0  0  0  0  0  0  0  0  0  0  0
   -9.3442   21.2298  -32.1834 H   0  0  0  0  0  0  0  0  0  0  0  0
   -7.1890   21.0620  -32.0000 C   0  0  0  0  0  0  0  0  0  0  0  0
   -7.1610   19.3560  -32.4450 S   0  0  0  0  0  0  0  0  0  0  0  0
   -8.5100   18.9700  -32.9890 O   0  0  0  0  0  0  0  0  0  0  0  0
   -6.8840   18.5210  -31.2240 O   0  0  0  0  0  0  0  0  0  0  0  0
   -5.9390   19.0750  -33.6610 N   0  0  0  0  0  0  0  0  0  0  0  0
   -4.6030   19.1970  -33.0590 C   0  0  0  0  0  0  0  0  0  0  0  0
   -4.4511   20.2304  -32.7140 H   0  0  0  0  0  0  0  0  0  0  0  0
   -4.5246   18.5059  -32.2068 H   0  0  0  0  0  0  0  0  0  0  0  0
   -3.5300   18.8440  -34.0970 C   0  0  0  0  0  0  0  0  0  0  0  0
   -3.5859   19.5590  -34.9310 H   0  0  0  0  0  0  0  0  0  0  0  0
   -2.5426   18.8948  -33.6149 H   0  0  0  0  0  0  0  0  0  0  0  0
   -3.7250   17.5340  -34.5950 O   0  0  0  0  0  0  0  0  0  0  0  0
   -4.9850   17.4470  -35.2320 C   0  0  0  0  0  0  0  0  0  0  0  0
   -5.0287   18.1826  -36.0487 H   0  0  0  0  0  0  0  0  0  0  0  0
   -5.1119   16.4292  -35.6294 H   0  0  0  0  0  0  0  0  0  0  0  0
   -6.1150   17.7330  -34.2350 C   0  0  0  0  0  0  0  0  0  0  0  0
   -7.0832   17.6812  -34.7545 H   0  0  0  0  0  0  0  0  0  0  0  0
   -6.0888   16.9849  -33.4290 H   0  0  0  0  0  0  0  0  0  0  0  0
   -5.9940   21.7380  -31.7250 C   0  0  0  0  0  0  0  0  0  0  0  0
   -5.0387   21.1938  -31.7611 H   0  0  0  0  0  0  0  0  0  0  0  0
   -1.4530   22.8400  -29.7240 C   0  0  0  0  0  0  0  0  0  0  0  0
   -1.3482   21.8436  -30.1781 H   0  0  0  0  0  0  0  0  0  0  0  0
   -0.4440   23.3500  -28.9040 C   0  0  0  0  0  0  0  0  0  0  0  0
    0.4648   22.7592  -28.7171 H   0  0  0  0  0  0  0  0  0  0  0  0
   -0.5900   24.6100  -28.3220 C   0  0  0  0  0  0  0  0  0  0  0  0
    0.2015   25.0201  -27.6775 H   0  0  0  0  0  0  0  0  0  0  0  0
  1  2  1  0
  2  3  1  0
  3  4  1  0
  4  5  2  0
  5  6  1  0
  6  7  2  0
  6  8  1  0
  8  9  2  0
  9 10  1  0
  9 11  1  0
 11 12  1  0
 11 13  2  0
 13 14  1  0
 13 15  1  0
 15 16  1  0
 16 17  2  0
 16 18  2  0
 16 19  1  0
 19 20  1  0
 20 21  1  0
 20 22  1  0
 20 23  1  0
 23 24  1  0
 23 25  1  0
 23 26  1  0
 26 27  1  0
 27 28  1  0
 27 29  1  0
 27 30  1  0
 30 31  1  0
 30 32  1  0
 15 33  2  0
 33 34  1  0
  4 35  1  0
 35 36  1  0
 35 37  2  0
 37 38  1  0
 37 39  1  0
 39 40  1  0
 39  2  2  0
 33  8  1  0
 30 19  1  0
M  CHG  1   3  -1
M  END
>  <UniqueID>  (23) 
22

>  <SMILES>  (23) 
O=C(/N=c1/cccc[n-]1)c1cccc(S(=O)(=O)N2CCOCC2)c1

>  <Energy>  (23) 
48.248682632310064

>  <Genealogy>  (23) 
O=C(N=c1cccc[n-]1)c1cccc(S(=O)(=O)N2CCOCC2)c1 (protonated)
O=C(/N=c1/cccc[n-]1)c1cccc(S(=O)(=O)N2CCOCC2)c1 (cis-trans isomerization)
O=C(/N=c1/cccc[n-]1)c1cccc(S(=O)(=O)N2CCOCC2)c1 (3D coordinates assigned)
O=C(/N=c1/cccc[n-]1)c1cccc(S(=O)(=O)N2CCOCC2)c1 (nonaromatic ring conformer: 48.248682632310064 kcal/mol)

>  <smiles>  (23) 
O=C(N=c1cccc[nH]1)c1cccc(S(=O)(=O)N2CCOCC2)c1

>  <score_type>  (23) 
oracle

>  <origin>  (23) 
adgpu

>  <m_score__min__energy>  (23) 
-10.01

>  <m_primary>  (23) 
energy

$$$$
23:0
     RDKit          3D

 45 47  0  0  0  0  0  0  0  0999 V2000
   -4.5216   20.1090  -33.3618 H   0  0  0  0  0  0  0  0  0  0  0  0
   -5.5770   20.3150  -33.1300 C   0  0  0  0  0  0  0  0  0  0  0  0
   -6.4980   19.4440  -33.5600 C   0  0  0  0  0  0  0  0  0  0  0  0
   -7.5573   19.6232  -33.3241 H   0  0  0  0  0  0  0  0  0  0  0  0
   -6.1200   18.2260  -34.3580 C   0  0  0  0  0  0  0  0  0  0  0  0
   -5.0486   18.2799  -34.6012 H   0  0  0  0  0  0  0  0  0  0  0  0
   -6.7363   18.2136  -35.2691 H   0  0  0  0  0  0  0  0  0  0  0  0
   -6.3890   16.9200  -33.5860 C   0  0  0  0  0  0  0  0  0  0  0  0
   -5.7008   16.1444  -33.9533 H   0  0  0  0  0  0  0  0  0  0  0  0
   -7.4392   16.6403  -33.7558 H   0  0  0  0  0  0  0  0  0  0  0  0
   -6.1870   17.0820  -32.0760 C   0  0  0  0  0  0  0  0  0  0  0  0
   -6.9361   16.4813  -31.5393 H   0  0  0  0  0  0  0  0  0  0  0  0
   -5.1780   16.7399  -31.8022 H   0  0  0  0  0  0  0  0  0  0  0  0
   -6.3019   18.1412  -31.8022 H   0  0  0  0  0  0  0  0  0  0  0  0
   -5.8960   21.5420  -32.3590 C   0  0  0  0  0  0  0  0  0  0  0  0
   -7.2260   22.0170  -32.3550 C   0  0  0  0  0  0  0  0  0  0  0  0
   -8.0007   21.4699  -32.9123 H   0  0  0  0  0  0  0  0  0  0  0  0
   -7.5700   23.1790  -31.6480 C   0  0  0  0  0  0  0  0  0  0  0  0
   -8.6019   23.5599  -31.6505 H   0  0  0  0  0  0  0  0  0  0  0  0
   -6.5640   23.8350  -30.9430 C   0  0  0  0  0  0  0  0  0  0  0  0
   -6.7150   24.9790  -30.2460 N   0  0  0  0  0  0  0  0  0  0  0  0
   -5.4680   25.2370  -29.7860 C   0  0  0  0  0  0  0  0  0  0  0  0
   -5.1866   26.1082  -29.1763 H   0  0  0  0  0  0  0  0  0  0  0  0
   -4.6000   24.2400  -30.1980 C   0  0  0  0  0  0  0  0  0  0  0  0
   -3.1620   24.1570  -29.8520 C   0  0  0  0  0  0  0  0  0  0  0  0
   -2.5580   23.0670  -30.0200 O   0  0  0  0  0  0  0  0  0  0  0  0
   -2.4300   25.2820  -29.3430 N   0  0  0  0  0  0  0  0  0  0  0  0
   -1.8010   25.3450  -28.0550 C   0  0  0  0  0  0  0  0  0  0  0  0
   -2.5800   25.1370  -26.9100 C   0  0  0  0  0  0  0  0  0  0  0  0
   -3.6349   24.8425  -27.0118 H   0  0  0  0  0  0  0  0  0  0  0  0
   -2.0230   25.3020  -25.6370 C   0  0  0  0  0  0  0  0  0  0  0  0
   -2.6567   25.1994  -24.7437 H   0  0  0  0  0  0  0  0  0  0  0  0
   -0.6540   25.5990  -25.4960 C   0  0  0  0  0  0  0  0  0  0  0  0
   -0.0470   25.7850  -24.2430 O   0  0  0  0  0  0  0  0  0  0  0  0
   -0.0220   27.0270  -23.5320 C   0  0  0  0  0  0  0  0  0  0  0  0
    1.2710   27.5100  -23.5210 F   0  0  0  0  0  0  0  0  0  0  0  0
   -0.4450   26.8480  -22.2220 F   0  0  0  0  0  0  0  0  0  0  0  0
   -0.8360   27.9560  -24.1670 F   0  0  0  0  0  0  0  0  0  0  0  0
    0.1390   25.7280  -26.6440 C   0  0  0  0  0  0  0  0  0  0  0  0
    1.2198   25.9056  -26.5427 H   0  0  0  0  0  0  0  0  0  0  0  0
   -0.4310   25.6330  -27.9170 C   0  0  0  0  0  0  0  0  0  0  0  0
    0.1920   25.7835  -28.8110 H   0  0  0  0  0  0  0  0  0  0  0  0
   -5.3030   23.3700  -30.9440 N   0  0  0  0  0  0  0  0  0  0  0  0
   -4.9160   22.2760  -31.6550 C   0  0  0  0  0  0  0  0  0  0  0  0
   -3.8600   21.9692  -31.6809 H   0  0  0  0  0  0  0  0  0  0  0  0
  1  2  1  0
  2  3  2  0
  3  4  1  0
  3  5  1  0
  5  6  1  0
  5  7  1  0
  5  8  1  0
  8  9  1  0
  8 10  1  0
  8 11  1  0
 11 12  1  0
 11 13  1  0
 11 14  1  0
  2 15  1  0
 15 16  1  0
 16 17  1  0
 16 18  2  0
 18 19  1  0
 18 20  1  0
 20 21  2  0
 21 22  1  0
 22 23  1  0
 22 24  2  0
 24 25  1  0
 25 26  2  0
 25 27  1  0
 27 28  1  0
 28 29  2  0
 29 30  1  0
 29 31  1  0
 31 32  1  0
 31 33  2  0
 33 34  1  0
 34 35  1  0
 35 36  1  0
 35 37  1  0
 35 38  1  0
 33 39  1  0
 39 40  1  0
 39 41  2  0
 41 42  1  0
 24 43  1  0
 43 44  1  0
 44 45  1  0
 44 15  2  0
 43 20  1  0
 41 28  1  0
M  CHG  1  27  -1
M  END
>  <UniqueID>  (24) 
23

>  <SMILES>  (24) 
CCC/C=C/c1ccc2ncc(C(=O)[N-]c3ccc(OC(F)(F)F)cc3)n2c1

>  <Energy>  (24) 
84.75461068982831

>  <Genealogy>  (24) 
CCCC=Cc1ccc2ncc(C(=O)[N-]c3ccc(OC(F)(F)F)cc3)n2c1 (protonated)
CCC/C=C/c1ccc2ncc(C(=O)[N-]c3ccc(OC(F)(F)F)cc3)n2c1 (cis-trans isomerization)
CCC/C=C/c1ccc2ncc(C(=O)[N-]c3ccc(OC(F)(F)F)cc3)n2c1 (3D coordinates assigned)
CCC/C=C/c1ccc2ncc(C(=O)[N-]c3ccc(OC(F)(F)F)cc3)n2c1 (optimized conformer: 84.75461068982831 kcal/mol)

>  <smiles>  (24) 
CCCC=Cc1ccc2ncc(C(=O)Nc3ccc(OC(F)(F)F)cc3)n2c1

>  <score_type>  (24) 
oracle

>  <origin>  (24) 
adgpu

>  <m_score__min__energy>  (24) 
-9.1199999999999992

>  <m_primary>  (24) 
energy

$$$$
24:0
     RDKit          3D

 42 44  0  0  0  0  0  0  0  0999 V2000
   -9.2360   22.2790  -31.6040 C   0  0  0  0  0  0  0  0  0  0  0  0
   -8.7120   20.9670  -32.0860 C   0  0  0  0  0  0  0  0  0  0  0  0
   -7.4110   20.7000  -32.4540 C   0  0  0  0  0  0  0  0  0  0  0  0
   -7.4270   19.3470  -32.7440 C   0  0  0  0  0  0  0  0  0  0  0  0
   -6.2960   18.5080  -33.2040 C   0  0  0  0  0  0  0  0  0  0  0  0
   -6.5090   17.2440  -33.7740 C   0  0  0  0  0  0  0  0  0  0  0  0
   -5.4290   16.4670  -34.1910 C   0  0  0  0  0  0  0  0  0  0  0  0
   -4.1110   16.9280  -34.0450 C   0  0  0  0  0  0  0  0  0  0  0  0
   -2.9780   16.0560  -34.5200 C   0  0  0  0  0  0  0  0  0  0  0  0
   -3.8850   18.2110  -33.4900 C   0  0  0  0  0  0  0  0  0  0  0  0
   -2.2510   18.8640  -33.2890 S   0  0  0  0  0  0  0  0  0  0  0  0
   -1.5470   18.8980  -34.6180 O   0  0  0  0  0  0  0  0  0  0  0  0
   -1.4710   17.9810  -32.3540 O   0  0  0  0  0  0  0  0  0  0  0  0
   -2.3690   20.4820  -32.6580 N   0  0  0  0  0  0  0  0  0  0  0  0
   -2.6370   20.4720  -31.2190 C   0  0  0  0  0  0  0  0  0  0  0  0
   -2.4630   21.8480  -30.6310 C   0  0  0  0  0  0  0  0  0  0  0  0
   -1.4140   22.1030  -29.7350 C   0  0  0  0  0  0  0  0  0  0  0  0
   -1.2560   23.3760  -29.1790 C   0  0  0  0  0  0  0  0  0  0  0  0
   -2.1460   24.4030  -29.5100 C   0  0  0  0  0  0  0  0  0  0  0  0
   -1.9800   25.6660  -28.9530 O   0  0  0  0  0  0  0  0  0  0  0  0
   -3.1980   24.1590  -30.4010 C   0  0  0  0  0  0  0  0  0  0  0  0
   -4.0830   25.1870  -30.7270 O   0  0  0  0  0  0  0  0  0  0  0  0
   -3.3560   22.8820  -30.9610 C   0  0  0  0  0  0  0  0  0  0  0  0
   -4.9810   18.9820  -33.0660 C   0  0  0  0  0  0  0  0  0  0  0  0
   -8.6440   18.8930  -32.5380 O   0  0  0  0  0  0  0  0  0  0  0  0
   -9.4430   19.8380  -32.1350 N   0  0  0  0  0  0  0  0  0  0  0  0
   -9.2405   22.2903  -30.5041 H   0  0  0  0  0  0  0  0  0  0  0  0
   -8.5927   23.0899  -31.9764 H   0  0  0  0  0  0  0  0  0  0  0  0
  -10.2609   22.4236  -31.9764 H   0  0  0  0  0  0  0  0  0  0  0  0
   -6.5615   21.3970  -32.5051 H   0  0  0  0  0  0  0  0  0  0  0  0
   -7.5343   16.8636  -33.8927 H   0  0  0  0  0  0  0  0  0  0  0  0
   -5.6120   15.4798  -34.6403 H   0  0  0  0  0  0  0  0  0  0  0  0
   -2.4431   15.6443  -33.6514 H   0  0  0  0  0  0  0  0  0  0  0  0
   -3.3796   15.2317  -35.1277 H   0  0  0  0  0  0  0  0  0  0  0  0
   -2.2840   16.6552  -35.1277 H   0  0  0  0  0  0  0  0  0  0  0  0
   -3.6698   20.1347  -31.0472 H   0  0  0  0  0  0  0  0  0  0  0  0
   -1.9244   19.7892  -30.7332 H   0  0  0  0  0  0  0  0  0  0  0  0
   -0.7130   21.2981  -29.4689 H   0  0  0  0  0  0  0  0  0  0  0  0
   -0.4297   23.5704  -28.4795 H   0  0  0  0  0  0  0  0  0  0  0  0
   -4.0200   25.6810  -31.6090 H   0  0  0  0  0  0  0  0  0  0  0  0
   -4.1822   22.6894  -31.6612 H   0  0  0  0  0  0  0  0  0  0  0  0
   -4.8063   19.9719  -32.6192 H   0  0  0  0  0  0  0  0  0  0  0  0
  1  2  1  0
  2  3  1  0
  3  4  2  0
  4  5  1  0
  5  6  2  0
  6  7  1  0
  7  8  2  0
  8  9  1  0
  8 10  1  0
 10 11  1  0
 11 12  2  0
 11 13  2  0
 11 14  1  0
 14 15  1  0
 15 16  1  0
 16 17  2  0
 17 18  1  0
 18 19  2  0
 19 20  1  0
 19 21  1  0
 21 22  1  0
 21 23  2  0
 10 24  2  0
  4 25  1  0
 25 26  1  0
 26  2  2  0
 24  5  1  0
 23 16  1  0
  1 27  1  0
  1 28  1  0
  1 29  1  0
  3 30  1  0
  6 31  1  0
  7 32  1  0
  9 33  1  0
  9 34  1  0
  9 35  1  0
 15 36  1  0
 15 37  1  0
 17 38  1  0
 18 39  1  0
 22 40  1  0
 23 41  1  0
 24 42  1  0
M  CHG  2  14  -1  20  -1
M  END
>  <UniqueID>  (25) 
24

>  <SMILES>  (25) 
Cc1cc(-c2ccc(C)c(S(=O)(=O)[N-]Cc3ccc([O-])c(O)c3)c2)on1

>  <Energy>  (25) 
74.71342325715098

>  <Genealogy>  (25) 
Cc1cc(-c2ccc(C)c(S(=O)(=O)[N-]Cc3ccc([O-])c(O)c3)c2)on1 (protonated)
Cc1cc(-c2ccc(C)c(S(=O)(=O)[N-]Cc3ccc([O-])c(O)c3)c2)on1 (3D coordinates assigned)
Cc1cc(-c2ccc(C)c(S(=O)(=O)[N-]Cc3ccc([O-])c(O)c3)c2)on1 (optimized conformer: 74.71342325715098 kcal/mol)

>  <smiles>  (25) 
Cc1cc(-c2ccc(C)c(S(=O)(=O)NCc3ccc(O)c(O)c3)c2)on1

>  <score_type>  (25) 
oracle

>  <origin>  (25) 
adgpu

>  <m_score__min__energy>  (25) 
-12.119999999999999

>  <m_primary>  (25) 
energy

$$$$
25:0
     RDKit          3D

 43 45  0  0  0  0  0  0  0  0999 V2000
   -2.5010   21.5650  -32.0960 C   0  0  0  0  0  0  0  0  0  0  0  0
   -3.8060   22.1320  -32.1620 O   0  0  0  0  0  0  0  0  0  0  0  0
   -4.9960   21.3880  -32.2190 C   0  0  0  0  0  0  0  0  0  0  0  0
   -5.0280   20.0810  -32.7480 C   0  0  0  0  0  0  0  0  0  0  0  0
   -6.2230   19.3600  -32.7800 C   0  0  0  0  0  0  0  0  0  0  0  0
   -7.3970   19.9270  -32.2800 C   0  0  0  0  0  0  0  0  0  0  0  0
   -9.0310   18.9370  -32.3220 Br  0  0  0  0  0  0  0  0  0  0  0  0
   -7.3770   21.2190  -31.7520 C   0  0  0  0  0  0  0  0  0  0  0  0
   -6.1870   21.9610  -31.7310 C   0  0  0  0  0  0  0  0  0  0  0  0
   -6.2060   23.6060  -31.0830 S   0  0  0  0  0  0  0  0  0  0  0  0
   -5.3450   24.4760  -31.9550 O   0  0  0  0  0  0  0  0  0  0  0  0
   -7.6030   24.1600  -31.0640 O   0  0  0  0  0  0  0  0  0  0  0  0
   -5.5770   23.6270  -29.4640 N   0  0  0  0  0  0  0  0  0  0  0  0
   -4.2010   23.3590  -29.1300 C   0  0  0  0  0  0  0  0  0  0  0  0
   -3.8430   22.2730  -28.3080 C   0  0  0  0  0  0  0  0  0  0  0  0
   -2.4980   22.0040  -28.0160 C   0  0  0  0  0  0  0  0  0  0  0  0
   -1.4930   22.8570  -28.5110 C   0  0  0  0  0  0  0  0  0  0  0  0
   -1.8460   23.9360  -29.3320 C   0  0  0  0  0  0  0  0  0  0  0  0
   -3.1850   24.1900  -29.6360 C   0  0  0  0  0  0  0  0  0  0  0  0
   -3.4990   25.2710  -30.4550 O   0  0  0  0  0  0  0  0  0  0  0  0
   -0.0310   22.5650  -28.2600 C   0  0  0  0  0  0  0  0  0  0  0  0
    0.1930   21.7040  -27.0820 N   0  0  0  0  0  0  0  0  0  0  0  0
    0.0680   22.4550  -25.8200 C   0  0  0  0  0  0  0  0  0  0  0  0
   -0.6680   20.5070  -27.1190 C   0  0  0  0  0  0  0  0  0  0  0  0
   -2.1640   20.8580  -27.0980 C   0  0  0  0  0  0  0  0  0  0  0  0
   -2.2091   21.4382  -31.0430 H   0  0  0  0  0  0  0  0  0  0  0  0
   -2.5009   20.5857  -32.5970 H   0  0  0  0  0  0  0  0  0  0  0  0
   -1.7851   22.2332  -32.5970 H   0  0  0  0  0  0  0  0  0  0  0  0
   -4.1052   19.6267  -33.1380 H   0  0  0  0  0  0  0  0  0  0  0  0
   -6.2398   18.3434  -33.1998 H   0  0  0  0  0  0  0  0  0  0  0  0
   -8.3015   21.6585  -31.3494 H   0  0  0  0  0  0  0  0  0  0  0  0
   -6.2440   23.9110  -28.7110 H   0  0  0  0  0  0  0  0  0  0  0  0
   -4.6289   21.6271  -27.8894 H   0  0  0  0  0  0  0  0  0  0  0  0
   -1.0610   24.5892  -29.7409 H   0  0  0  0  0  0  0  0  0  0  0  0
    0.3826   22.0609  -29.1459 H   0  0  0  0  0  0  0  0  0  0  0  0
    0.4667   23.5261  -28.0635 H   0  0  0  0  0  0  0  0  0  0  0  0
    0.1827   21.7659  -24.9703 H   0  0  0  0  0  0  0  0  0  0  0  0
    0.8500   23.2273  -25.7739 H   0  0  0  0  0  0  0  0  0  0  0  0
   -0.9220   22.9324  -25.7739 H   0  0  0  0  0  0  0  0  0  0  0  0
   -0.4505   19.9442  -28.0387 H   0  0  0  0  0  0  0  0  0  0  0  0
   -0.4515   19.9113  -26.2199 H   0  0  0  0  0  0  0  0  0  0  0  0
   -2.7386   19.9743  -27.4127 H   0  0  0  0  0  0  0  0  0  0  0  0
   -2.4224   21.1630  -26.0732 H   0  0  0  0  0  0  0  0  0  0  0  0
  1  2  1  0
  2  3  1  0
  3  4  2  0
  4  5  1  0
  5  6  2  0
  6  7  1  0
  6  8  1  0
  8  9  2  0
  9 10  1  0
 10 11  2  0
 10 12  2  0
 10 13  1  0
 13 14  1  0
 14 15  2  0
 15 16  1  0
 16 17  2  0
 17 18  1  0
 18 19  2  0
 19 20  1  0
 17 21  1  0
 21 22  1  0
 22 23  1  0
 22 24  1  0
 24 25  1  0
  9  3  1  0
 19 14  1  0
 25 16  1  0
  1 26  1  0
  1 27  1  0
  1 28  1  0
  4 29  1  0
  5 30  1  0
  8 31  1  0
 13 32  1  0
 15 33  1  0
 18 34  1  0
 21 35  1  0
 21 36  1  0
 23 37  1  0
 23 38  1  0
 23 39  1  0
 24 40  1  0
 24 41  1  0
 25 42  1  0
 25 43  1  0
M  CHG  1  20  -1
M  END
>  <UniqueID>  (26) 
25

>  <SMILES>  (26) 
COc1ccc(Br)cc1S(=O)(=O)Nc1cc2c(cc1[O-])CN(C)CC2

>  <Energy>  (26) 
52.690455968615645

>  <Genealogy>  (26) 
COc1ccc(Br)cc1S(=O)(=O)Nc1cc2c(cc1[O-])CN(C)CC2 (protonated)
COc1ccc(Br)cc1S(=O)(=O)Nc1cc2c(cc1[O-])CN(C)CC2 (3D coordinates assigned)
COc1ccc(Br)cc1S(=O)(=O)Nc1cc2c(cc1[O-])CN(C)CC2 (nonaromatic ring conformer: 52.690455968615645 kcal/mol)

>  <smiles>  (26) 
COc1ccc(Br)cc1S(=O)(=O)Nc1cc2c(cc1O)CN(C)CC2

>  <score_type>  (26) 
oracle

>  <origin>  (26) 
adgpu

>  <m_score__min__energy>  (26) 
-12.279999999999999

>  <m_primary>  (26) 
energy

$$$$
26:0
     RDKit          3D

 44 46  0  0  0  0  0  0  0  0999 V2000
   -1.7050   20.0740  -27.8390 O   0  0  0  0  0  0  0  0  0  0  0  0
   -0.6920   20.9680  -28.4980 S   0  0  0  0  0  0  0  0  0  0  0  0
    0.6890   20.4410  -28.2230 O   0  0  0  0  0  0  0  0  0  0  0  0
   -0.9520   21.0110  -30.2120 N   0  0  0  0  0  0  0  0  0  0  0  0
   -2.1710   20.6460  -30.8720 C   0  0  0  0  0  0  0  0  0  0  0  0
   -2.1020   19.8010  -31.9870 C   0  0  0  0  0  0  0  0  0  0  0  0
   -3.2650   19.4240  -32.6640 C   0  0  0  0  0  0  0  0  0  0  0  0
   -4.5140   19.8790  -32.2240 C   0  0  0  0  0  0  0  0  0  0  0  0
   -5.9780   19.4260  -33.0900 S   0  0  0  0  0  0  0  0  0  0  0  0
   -5.7540   19.5250  -34.5740 O   0  0  0  0  0  0  0  0  0  0  0  0
   -6.3390   18.0020  -32.7680 O   0  0  0  0  0  0  0  0  0  0  0  0
   -7.2840   20.5040  -32.6140 C   0  0  0  0  0  0  0  0  0  0  0  0
   -8.5770   20.0030  -32.4030 C   0  0  0  0  0  0  0  0  0  0  0  0
   -9.6100   20.8640  -32.0150 C   0  0  0  0  0  0  0  0  0  0  0  0
   -9.3530   22.2260  -31.8290 C   0  0  0  0  0  0  0  0  0  0  0  0
   -8.0640   22.7270  -32.0290 C   0  0  0  0  0  0  0  0  0  0  0  0
   -7.0300   21.8700  -32.4170 C   0  0  0  0  0  0  0  0  0  0  0  0
   -4.5890   20.7270  -31.1130 C   0  0  0  0  0  0  0  0  0  0  0  0
   -3.4260   21.1090  -30.4370 C   0  0  0  0  0  0  0  0  0  0  0  0
   -0.8600   22.6040  -27.8520 C   0  0  0  0  0  0  0  0  0  0  0  0
   -0.6570   22.8240  -26.4810 C   0  0  0  0  0  0  0  0  0  0  0  0
   -0.7760   24.1040  -25.9400 C   0  0  0  0  0  0  0  0  0  0  0  0
   -1.1120   25.1920  -26.7570 C   0  0  0  0  0  0  0  0  0  0  0  0
   -1.2020   26.5730  -26.1600 C   0  0  0  0  0  0  0  0  0  0  0  0
   -0.7260   27.5220  -27.0740 O   0  0  0  0  0  0  0  0  0  0  0  0
   -1.3000   24.9860  -28.1350 C   0  0  0  0  0  0  0  0  0  0  0  0
   -1.6030   26.0590  -28.9680 O   0  0  0  0  0  0  0  0  0  0  0  0
   -1.1820   23.7010  -28.6860 C   0  0  0  0  0  0  0  0  0  0  0  0
   -1.3900   23.5520  -30.0600 O   0  0  0  0  0  0  0  0  0  0  0  0
   -1.1252   19.4314  -32.3323 H   0  0  0  0  0  0  0  0  0  0  0  0
   -3.1991   18.7682  -33.5447 H   0  0  0  0  0  0  0  0  0  0  0  0
   -8.7796   18.9309  -32.5428 H   0  0  0  0  0  0  0  0  0  0  0  0
  -10.6244   20.4692  -31.8563 H   0  0  0  0  0  0  0  0  0  0  0  0
  -10.1653   22.9027  -31.5254 H   0  0  0  0  0  0  0  0  0  0  0  0
   -7.8625   23.7982  -31.8808 H   0  0  0  0  0  0  0  0  0  0  0  0
   -6.0154   22.2671  -32.5682 H   0  0  0  0  0  0  0  0  0  0  0  0
   -5.5674   21.0947  -30.7700 H   0  0  0  0  0  0  0  0  0  0  0  0
   -3.4928   21.7733  -29.5628 H   0  0  0  0  0  0  0  0  0  0  0  0
   -0.4013   21.9780  -25.8261 H   0  0  0  0  0  0  0  0  0  0  0  0
   -0.6050   24.2606  -24.8647 H   0  0  0  0  0  0  0  0  0  0  0  0
   -2.2510   26.7966  -25.9158 H   0  0  0  0  0  0  0  0  0  0  0  0
   -0.5898   26.6123  -25.2469 H   0  0  0  0  0  0  0  0  0  0  0  0
   -1.0730   27.2570  -27.9660 H   0  0  0  0  0  0  0  0  0  0  0  0
   -1.2300   22.6880  -30.5590 H   0  0  0  0  0  0  0  0  0  0  0  0
  1  2  2  0
  2  3  2  0
  2  4  1  0
  4  5  1  0
  5  6  2  0
  6  7  1  0
  7  8  2  0
  8  9  1  0
  9 10  2  0
  9 11  2  0
  9 12  1  0
 12 13  2  0
 13 14  1  0
 14 15  2  0
 15 16  1  0
 16 17  2  0
  8 18  1  0
 18 19  2  0
  2 20  1  0
 20 21  2  0
 21 22  1  0
 22 23  2  0
 23 24  1  0
 24 25  1  0
 23 26  1  0
 26 27  1  0
 26 28  2  0
 28 29  1  0
 19  5  1  0
 28 20  1  0
 17 12  1  0
  6 30  1  0
  7 31  1  0
 13 32  1  0
 14 33  1  0
 15 34  1  0
 16 35  1  0
 17 36  1  0
 18 37  1  0
 19 38  1  0
 21 39  1  0
 22 40  1  0
 24 41  1  0
 24 42  1  0
 25 43  1  0
 29 44  1  0
M  CHG  2   4  -1  27  -1
M  END
>  <UniqueID>  (27) 
26

>  <SMILES>  (27) 
O=S(=O)([N-]c1ccc(S(=O)(=O)c2ccccc2)cc1)c1ccc(CO)c([O-])c1O

>  <Energy>  (27) 
54.96447675048471

>  <Genealogy>  (27) 
O=S(=O)([N-]c1ccc(S(=O)(=O)c2ccccc2)cc1)c1ccc(CO)c([O-])c1O (protonated)
O=S(=O)([N-]c1ccc(S(=O)(=O)c2ccccc2)cc1)c1ccc(CO)c([O-])c1O (3D coordinates assigned)
O=S(=O)([N-]c1ccc(S(=O)(=O)c2ccccc2)cc1)c1ccc(CO)c([O-])c1O (optimized conformer: 54.96447675048471 kcal/mol)

>  <smiles>  (27) 
O=S(=O)(Nc1ccc(S(=O)(=O)c2ccccc2)cc1)c1ccc(CO)c(O)c1O

>  <score_type>  (27) 
oracle

>  <origin>  (27) 
adgpu

>  <m_score__min__energy>  (27) 
-12.710000000000001

>  <m_primary>  (27) 
energy

$$$$
27:0
     RDKit          3D

 58 61  0  0  0  0  0  0  0  0999 V2000
   -1.0340   25.3070  -28.2140 C   0  0  0  0  0  0  0  0  0  0  0  0
   -2.4940   24.9090  -27.9980 C   0  0  0  0  0  0  0  0  0  0  0  0
   -2.8910   23.8390  -28.9320 N   0  0  0  0  0  0  0  0  0  0  0  0
   -3.7500   24.1340  -30.0530 C   0  0  0  0  0  0  0  0  0  0  0  0
   -3.7940   25.3080  -30.5120 O   0  0  0  0  0  0  0  0  0  0  0  0
   -4.5390   23.0780  -30.7150 C   0  0  0  0  0  0  0  0  0  0  0  0
   -5.8910   22.9110  -30.3820 C   0  0  0  0  0  0  0  0  0  0  0  0
   -6.6650   21.9550  -31.0410 C   0  0  0  0  0  0  0  0  0  0  0  0
   -6.0970   21.1350  -32.0330 C   0  0  0  0  0  0  0  0  0  0  0  0
   -6.9510   20.1480  -32.7380 C   0  0  0  0  0  0  0  0  0  0  0  0
   -8.1090   20.4990  -33.0960 O   0  0  0  0  0  0  0  0  0  0  0  0
   -6.4870   18.7680  -33.0360 C   0  0  0  0  0  0  0  0  0  0  0  0
   -6.0780   18.4280  -34.3370 C   0  0  0  0  0  0  0  0  0  0  0  0
   -5.6710   17.1250  -34.6320 C   0  0  0  0  0  0  0  0  0  0  0  0
   -5.6430   16.1410  -33.6350 C   0  0  0  0  0  0  0  0  0  0  0  0
   -5.2950   14.8350  -34.0030 O   0  0  0  0  0  0  0  0  0  0  0  0
   -4.3800   14.0020  -33.3340 C   0  0  0  0  0  0  0  0  0  0  0  0
   -4.5660   13.7590  -31.9680 C   0  0  0  0  0  0  0  0  0  0  0  0
   -3.6820   12.9300  -31.2750 C   0  0  0  0  0  0  0  0  0  0  0  0
   -2.6110   12.3280  -31.9480 C   0  0  0  0  0  0  0  0  0  0  0  0
   -2.4270   12.5500  -33.3130 C   0  0  0  0  0  0  0  0  0  0  0  0
   -3.3110   13.3800  -34.0080 C   0  0  0  0  0  0  0  0  0  0  0  0
   -6.0240   16.4810  -32.3240 C   0  0  0  0  0  0  0  0  0  0  0  0
   -6.4330   17.7880  -32.0270 C   0  0  0  0  0  0  0  0  0  0  0  0
   -4.7230   21.2540  -32.3160 C   0  0  0  0  0  0  0  0  0  0  0  0
   -4.1060   20.3810  -33.2060 O   0  0  0  0  0  0  0  0  0  0  0  0
   -3.9530   22.2350  -31.6770 C   0  0  0  0  0  0  0  0  0  0  0  0
   -2.6040   22.3600  -31.9920 O   0  0  0  0  0  0  0  0  0  0  0  0
   -2.4930   22.4740  -28.6780 C   0  0  0  0  0  0  0  0  0  0  0  0
   -3.1940   21.6740  -27.7570 C   0  0  0  0  0  0  0  0  0  0  0  0
   -2.7690   20.3720  -27.4850 C   0  0  0  0  0  0  0  0  0  0  0  0
   -1.6460   19.8500  -28.1310 C   0  0  0  0  0  0  0  0  0  0  0  0
   -0.9510   20.6230  -29.0720 C   0  0  0  0  0  0  0  0  0  0  0  0
    0.2810   20.0810  -29.7340 C   0  0  0  0  0  0  0  0  0  0  0  0
   -1.3700   21.9370  -29.3320 C   0  0  0  0  0  0  0  0  0  0  0  0
   -0.5424   25.4410  -27.2391 H   0  0  0  0  0  0  0  0  0  0  0  0
   -0.5183   24.5167  -28.7792 H   0  0  0  0  0  0  0  0  0  0  0  0
   -0.9907   26.2497  -28.7792 H   0  0  0  0  0  0  0  0  0  0  0  0
   -2.6209   24.5514  -26.9655 H   0  0  0  0  0  0  0  0  0  0  0  0
   -3.1289   25.7885  -28.1805 H   0  0  0  0  0  0  0  0  0  0  0  0
   -6.3432   23.5362  -29.5980 H   0  0  0  0  0  0  0  0  0  0  0  0
   -7.7282   21.8416  -30.7826 H   0  0  0  0  0  0  0  0  0  0  0  0
   -6.0785   19.1928  -35.1276 H   0  0  0  0  0  0  0  0  0  0  0  0
   -5.3692   16.8685  -35.6582 H   0  0  0  0  0  0  0  0  0  0  0  0
   -5.4115   14.2228  -31.4389 H   0  0  0  0  0  0  0  0  0  0  0  0
   -3.8266   12.7494  -30.1996 H   0  0  0  0  0  0  0  0  0  0  0  0
   -1.9133   11.6786  -31.3988 H   0  0  0  0  0  0  0  0  0  0  0  0
   -1.5882   12.0729  -33.8410 H   0  0  0  0  0  0  0  0  0  0  0  0
   -3.1713   13.5482  -35.0860 H   0  0  0  0  0  0  0  0  0  0  0  0
   -6.0008   15.7194  -31.5306 H   0  0  0  0  0  0  0  0  0  0  0  0
   -6.7143   18.0504  -30.9965 H   0  0  0  0  0  0  0  0  0  0  0  0
   -4.0822   22.0767  -27.2481 H   0  0  0  0  0  0  0  0  0  0  0  0
   -3.3203   19.7555  -26.7597 H   0  0  0  0  0  0  0  0  0  0  0  0
   -1.3058   18.8295  -27.9009 H   0  0  0  0  0  0  0  0  0  0  0  0
    1.0011   19.7642  -28.9652 H   0  0  0  0  0  0  0  0  0  0  0  0
    0.0110   19.2186  -30.3611 H   0  0  0  0  0  0  0  0  0  0  0  0
    0.7344   20.8628  -30.3611 H   0  0  0  0  0  0  0  0  0  0  0  0
   -0.8144   22.5529  -30.0545 H   0  0  0  0  0  0  0  0  0  0  0  0
  1  2  1  0
  2  3  1  0
  3  4  1  0
  4  5  2  0
  4  6  1  0
  6  7  2  0
  7  8  1  0
  8  9  2  0
  9 10  1  0
 10 11  2  0
 10 12  1  0
 12 13  2  0
 13 14  1  0
 14 15  2  0
 15 16  1  0
 16 17  1  0
 17 18  2  0
 18 19  1  0
 19 20  2  0
 20 21  1  0
 21 22  2  0
 15 23  1  0
 23 24  2  0
  9 25  1  0
 25 26  1  0
 25 27  2  0
 27 28  1  0
  3 29  1  0
 29 30  2  0
 30 31  1  0
 31 32  2  0
 32 33  1  0
 33 34  1  0
 33 35  2  0
 27  6  1  0
 35 29  1  0
 24 12  1  0
 22 17  1  0
  1 36  1  0
  1 37  1  0
  1 38  1  0
  2 39  1  0
  2 40  1  0
  7 41  1  0
  8 42  1  0
 13 43  1  0
 14 44  1  0
 18 45  1  0
 19 46  1  0
 20 47  1  0
 21 48  1  0
 22 49  1  0
 23 50  1  0
 24 51  1  0
 30 52  1  0
 31 53  1  0
 32 54  1  0
 34 55  1  0
 34 56  1  0
 34 57  1  0
 35 58  1  0
M  CHG  2  26  -1  28  -1
M  END
>  <UniqueID>  (28) 
27

>  <SMILES>  (28) 
CCN(C(=O)c1ccc(C(=O)c2ccc(Oc3ccccc3)cc2)c([O-])c1[O-])c1cccc(C)c1

>  <Energy>  (28) 
86.40164637724719

>  <Genealogy>  (28) 
CCN(C(=O)c1ccc(C(=O)c2ccc(Oc3ccccc3)cc2)c([O-])c1[O-])c1cccc(C)c1 (protonated)
CCN(C(=O)c1ccc(C(=O)c2ccc(Oc3ccccc3)cc2)c([O-])c1[O-])c1cccc(C)c1 (3D coordinates assigned)
CCN(C(=O)c1ccc(C(=O)c2ccc(Oc3ccccc3)cc2)c([O-])c1[O-])c1cccc(C)c1 (optimized conformer: 86.40164637724719 kcal/mol)

>  <smiles>  (28) 
CCN(C(=O)c1ccc(C(=O)c2ccc(Oc3ccccc3)cc2)c(O)c1O)c1cccc(C)c1

>  <score_type>  (28) 
oracle

>  <origin>  (28) 
adgpu

>  <m_score__min__energy>  (28) 
-17.5

>  <m_primary>  (28) 
energy

$$$$
28:0
     RDKit          3D

 42 45  0  0  0  0  0  0  0  0999 V2000
   -1.5240   11.9660  -36.3300 C   0  0  0  0  0  0  0  0  0  0  0  0
   -0.9260   13.4660  -37.0730 S   0  0  0  0  0  0  0  0  0  0  0  0
   -1.3410   13.5110  -38.5170 O   0  0  0  0  0  0  0  0  0  0  0  0
    0.5750   13.4990  -37.0020 O   0  0  0  0  0  0  0  0  0  0  0  0
   -1.5960   14.8500  -36.2160 C   0  0  0  0  0  0  0  0  0  0  0  0
   -0.7780   15.9380  -35.8870 C   0  0  0  0  0  0  0  0  0  0  0  0
   -1.3120   17.0440  -35.2190 C   0  0  0  0  0  0  0  0  0  0  0  0
   -2.6750   17.0800  -34.8750 C   0  0  0  0  0  0  0  0  0  0  0  0
   -3.2440   18.2550  -34.1650 C   0  0  0  0  0  0  0  0  0  0  0  0
   -4.5940   18.2720  -33.7800 C   0  0  0  0  0  0  0  0  0  0  0  0
   -5.1300   19.3780  -33.1130 C   0  0  0  0  0  0  0  0  0  0  0  0
   -4.3260   20.4910  -32.8140 C   0  0  0  0  0  0  0  0  0  0  0  0
   -4.8920   21.6670  -32.1050 C   0  0  0  0  0  0  0  0  0  0  0  0
   -6.2400   21.8470  -31.7830 C   0  0  0  0  0  0  0  0  0  0  0  0
   -6.2990   23.0610  -31.1390 C   0  0  0  0  0  0  0  0  0  0  0  0
   -7.3840   23.7490  -30.5980 C   0  0  0  0  0  0  0  0  0  0  0  0
   -7.1360   24.9910  -29.9870 C   0  0  0  0  0  0  0  0  0  0  0  0
   -5.8240   25.5120  -29.9320 C   0  0  0  0  0  0  0  0  0  0  0  0
   -4.7490   24.7930  -30.4880 C   0  0  0  0  0  0  0  0  0  0  0  0
   -3.4550   25.2950  -30.4400 O   0  0  0  0  0  0  0  0  0  0  0  0
   -5.0260   23.5640  -31.0890 C   0  0  0  0  0  0  0  0  0  0  0  0
   -4.1570   22.7240  -31.6760 N   0  0  0  0  0  0  0  0  0  0  0  0
   -2.9740   20.4730  -33.2000 C   0  0  0  0  0  0  0  0  0  0  0  0
   -2.4400   19.3680  -33.8670 C   0  0  0  0  0  0  0  0  0  0  0  0
   -3.4910   15.9870  -35.2160 C   0  0  0  0  0  0  0  0  0  0  0  0
   -2.9560   14.8820  -35.8840 C   0  0  0  0  0  0  0  0  0  0  0  0
   -1.4868   12.0593  -35.2346 H   0  0  0  0  0  0  0  0  0  0  0  0
   -2.5619   11.7878  -36.6478 H   0  0  0  0  0  0  0  0  0  0  0  0
   -0.8933   11.1226  -36.6478 H   0  0  0  0  0  0  0  0  0  0  0  0
    0.2887   15.9224  -36.1552 H   0  0  0  0  0  0  0  0  0  0  0  0
   -0.6611   17.8923  -34.9606 H   0  0  0  0  0  0  0  0  0  0  0  0
   -5.2359   17.4075  -34.0051 H   0  0  0  0  0  0  0  0  0  0  0  0
   -6.1902   19.3767  -32.8198 H   0  0  0  0  0  0  0  0  0  0  0  0
   -7.0750   21.1641  -31.9984 H   0  0  0  0  0  0  0  0  0  0  0  0
   -8.4014   23.3337  -30.6475 H   0  0  0  0  0  0  0  0  0  0  0  0
   -7.9689   25.5606  -29.5490 H   0  0  0  0  0  0  0  0  0  0  0  0
   -5.6414   26.4848  -29.4521 H   0  0  0  0  0  0  0  0  0  0  0  0
   -3.1250   22.8590  -31.7550 H   0  0  0  0  0  0  0  0  0  0  0  0
   -2.3312   21.3367  -32.9747 H   0  0  0  0  0  0  0  0  0  0  0  0
   -1.3802   19.3692  -34.1617 H   0  0  0  0  0  0  0  0  0  0  0  0
   -4.5595   16.0017  -34.9549 H   0  0  0  0  0  0  0  0  0  0  0  0
   -3.6053   14.0348  -36.1498 H   0  0  0  0  0  0  0  0  0  0  0  0
  1  2  1  0
  2  3  2  0
  2  4  2  0
  2  5  1  0
  5  6  2  0
  6  7  1  0
  7  8  2  0
  8  9  1  0
  9 10  2  0
 10 11  1  0
 11 12  2  0
 12 13  1  0
 13 14  2  0
 14 15  1  0
 15 16  2  0
 16 17  1  0
 17 18  2  0
 18 19  1  0
 19 20  1  0
 19 21  2  0
 21 22  1  0
 12 23  1  0
 23 24  2  0
  8 25  1  0
 25 26  2  0
 26  5  1  0
 24  9  1  0
 22 13  1  0
 21 15  1  0
  1 27  1  0
  1 28  1  0
  1 29  1  0
  6 30  1  0
  7 31  1  0
 10 32  1  0
 11 33  1  0
 14 34  1  0
 16 35  1  0
 17 36  1  0
 18 37  1  0
 22 38  1  0
 23 39  1  0
 24 40  1  0
 25 41  1  0
 26 42  1  0
M  CHG  1  20  -1
M  END
>  <UniqueID>  (29) 
28

>  <SMILES>  (29) 
CS(=O)(=O)c1ccc(-c2ccc(-c3cc4cccc([O-])c4[nH]3)cc2)cc1

>  <Energy>  (29) 
84.76430857164326

>  <Genealogy>  (29) 
CS(=O)(=O)c1ccc(-c2ccc(-c3cc4cccc([O-])c4[nH]3)cc2)cc1 (protonated)
CS(=O)(=O)c1ccc(-c2ccc(-c3cc4cccc([O-])c4[nH]3)cc2)cc1 (3D coordinates assigned)
CS(=O)(=O)c1ccc(-c2ccc(-c3cc4cccc([O-])c4[nH]3)cc2)cc1 (optimized conformer: 84.76430857164326 kcal/mol)

>  <smiles>  (29) 
CS(=O)(=O)c1ccc(-c2ccc(-c3cc4cccc(O)c4[nH]3)cc2)cc1

>  <score_type>  (29) 
oracle

>  <origin>  (29) 
adgpu

>  <m_score__min__energy>  (29) 
-10.109999999999999

>  <m_primary>  (29) 
energy

$$$$
29:0
     RDKit          3D

 51 54  0  0  0  0  0  0  0  0999 V2000
   -7.2730   20.3700  -33.7840 O   0  0  0  0  0  0  0  0  0  0  0  0
   -6.2250   20.0360  -33.1660 C   0  0  0  0  0  0  0  0  0  0  0  0
   -5.6190   20.9790  -32.1980 C   0  0  0  0  0  0  0  0  0  0  0  0
   -4.2830   20.8280  -31.7910 C   0  0  0  0  0  0  0  0  0  0  0  0
   -3.7160   21.7200  -30.8790 C   0  0  0  0  0  0  0  0  0  0  0  0
   -4.4660   22.7870  -30.3630 C   0  0  0  0  0  0  0  0  0  0  0  0
   -3.7250   23.8930  -29.1990 S   0  0  0  0  0  0  0  0  0  0  0  0
   -3.5980   25.2550  -29.8220 O   0  0  0  0  0  0  0  0  0  0  0  0
   -4.5980   23.9580  -27.9770 O   0  0  0  0  0  0  0  0  0  0  0  0
   -2.1530   23.3130  -28.7480 N   0  0  0  0  0  0  0  0  0  0  0  0
   -1.1730   24.0130  -27.9670 C   0  0  0  0  0  0  0  0  0  0  0  0
   -0.5910   23.3290  -26.8930 C   0  0  0  0  0  0  0  0  0  0  0  0
    0.3500   23.9530  -26.0670 C   0  0  0  0  0  0  0  0  0  0  0  0
    0.7160   25.2900  -26.3110 C   0  0  0  0  0  0  0  0  0  0  0  0
    0.1740   25.9640  -27.4140 C   0  0  0  0  0  0  0  0  0  0  0  0
   -0.7620   25.3360  -28.2470 C   0  0  0  0  0  0  0  0  0  0  0  0
   -1.2530   26.0210  -29.3560 O   0  0  0  0  0  0  0  0  0  0  0  0
    1.7450   25.9710  -25.4420 C   0  0  0  0  0  0  0  0  0  0  0  0
    1.8040   25.3480  -24.0400 C   0  0  0  0  0  0  0  0  0  0  0  0
    1.9770   23.8310  -24.1360 C   0  0  0  0  0  0  0  0  0  0  0  0
    0.9120   23.2470  -24.9500 N   0  0  0  0  0  0  0  0  0  0  0  0
   -5.7990   22.9590  -30.7870 C   0  0  0  0  0  0  0  0  0  0  0  0
   -6.7980   24.2880  -30.2040 Cl  0  0  0  0  0  0  0  0  0  0  0  0
   -6.3650   22.0600  -31.6990 C   0  0  0  0  0  0  0  0  0  0  0  0
   -5.6250   18.7560  -33.4360 N   0  0  0  0  0  0  0  0  0  0  0  0
   -5.3290   17.8360  -32.3320 C   0  0  0  0  0  0  0  0  0  0  0  0
   -4.1900   16.8990  -32.7420 C   0  0  0  0  0  0  0  0  0  0  0  0
   -4.4870   16.2550  -33.9670 O   0  0  0  0  0  0  0  0  0  0  0  0
   -4.5590   17.2120  -35.0090 C   0  0  0  0  0  0  0  0  0  0  0  0
   -5.7220   18.1820  -34.7800 C   0  0  0  0  0  0  0  0  0  0  0  0
   -3.6795   20.0012  -32.1937 H   0  0  0  0  0  0  0  0  0  0  0  0
   -2.6713   21.5848  -30.5621 H   0  0  0  0  0  0  0  0  0  0  0  0
   -0.8779   22.2855  -26.6957 H   0  0  0  0  0  0  0  0  0  0  0  0
    0.4865   26.9967  -27.6281 H   0  0  0  0  0  0  0  0  0  0  0  0
   -2.0380   25.6710  -29.8950 H   0  0  0  0  0  0  0  0  0  0  0  0
    2.7326   25.8752  -25.9168 H   0  0  0  0  0  0  0  0  0  0  0  0
    1.4601   27.0282  -25.3364 H   0  0  0  0  0  0  0  0  0  0  0  0
    2.6548   25.7755  -23.4892 H   0  0  0  0  0  0  0  0  0  0  0  0
    0.8635   25.5667  -23.5131 H   0  0  0  0  0  0  0  0  0  0  0  0
    2.9502   23.6056  -24.5965 H   0  0  0  0  0  0  0  0  0  0  0  0
    1.9291   23.4017  -23.1244 H   0  0  0  0  0  0  0  0  0  0  0  0
    0.6240   22.2590  -24.7610 H   0  0  0  0  0  0  0  0  0  0  0  0
   -7.4049   22.2015  -32.0284 H   0  0  0  0  0  0  0  0  0  0  0  0
   -5.0286   18.4124  -31.4446 H   0  0  0  0  0  0  0  0  0  0  0  0
   -6.2256   17.2435  -32.0973 H   0  0  0  0  0  0  0  0  0  0  0  0
   -3.2653   17.4836  -32.8565 H   0  0  0  0  0  0  0  0  0  0  0  0
   -4.0642   16.1336  -31.9620 H   0  0  0  0  0  0  0  0  0  0  0  0
   -3.6175   17.7799  -35.0423 H   0  0  0  0  0  0  0  0  0  0  0  0
   -4.7231   16.6845  -35.9602 H   0  0  0  0  0  0  0  0  0  0  0  0
   -5.6785   18.9886  -35.5267 H   0  0  0  0  0  0  0  0  0  0  0  0
   -6.6744   17.6405  -34.8783 H   0  0  0  0  0  0  0  0  0  0  0  0
  1  2  2  0
  2  3  1  0
  3  4  2  0
  4  5  1  0
  5  6  2  0
  6  7  1  0
  7  8  2  0
  7  9  2  0
  7 10  1  0
 10 11  1  0
 11 12  2  0
 12 13  1  0
 13 14  2  0
 14 15  1  0
 15 16  2  0
 16 17  1  0
 14 18  1  0
 18 19  1  0
 19 20  1  0
 20 21  1  0
  6 22  1  0
 22 23  1  0
 22 24  2  0
  2 25  1  0
 25 26  1  0
 26 27  1  0
 27 28  1  0
 28 29  1  0
 29 30  1  0
 24  3  1  0
 30 25  1  0
 16 11  1  0
 21 13  1  0
  4 31  1  0
  5 32  1  0
 12 33  1  0
 15 34  1  0
 17 35  1  0
 18 36  1  0
 18 37  1  0
 19 38  1  0
 19 39  1  0
 20 40  1  0
 20 41  1  0
 21 42  1  0
 24 43  1  0
 26 44  1  0
 26 45  1  0
 27 46  1  0
 27 47  1  0
 29 48  1  0
 29 49  1  0
 30 50  1  0
 30 51  1  0
M  CHG  1  10  -1
M  END
>  <UniqueID>  (30) 
29

>  <SMILES>  (30) 
O=C(c1ccc(S(=O)(=O)[N-]c2cc3c(cc2O)CCCN3)c(Cl)c1)N1CCOCC1

>  <Energy>  (30) 
66.74753835798725

>  <Genealogy>  (30) 
O=C(c1ccc(S(=O)(=O)[N-]c2cc3c(cc2O)CCCN3)c(Cl)c1)N1CCOCC1 (protonated)
O=C(c1ccc(S(=O)(=O)[N-]c2cc3c(cc2O)CCCN3)c(Cl)c1)N1CCOCC1 (3D coordinates assigned)
O=C(c1ccc(S(=O)(=O)[N-]c2cc3c(cc2O)CCCN3)c(Cl)c1)N1CCOCC1 (nonaromatic ring conformer: 66.74753835798725 kcal/mol)

>  <smiles>  (30) 
O=C(c1ccc(S(=O)(=O)Nc2cc3c(cc2O)CCCN3)c(Cl)c1)N1CCOCC1

>  <score_type>  (30) 
oracle

>  <origin>  (30) 
adgpu

>  <m_score__min__energy>  (30) 
-12.029999999999999

>  <m_primary>  (30) 
energy

$$$$
30:0
     RDKit          3D

 56 59  0  0  0  0  0  0  0  0999 V2000
    0.8970   18.6620  -32.5650 O   0  0  0  0  0  0  0  0  0  0  0  0
   -0.2930   18.6900  -32.1480 C   0  0  0  0  0  0  0  0  0  0  0  0
   -1.1190   17.5230  -32.2520 N   0  0  0  0  0  0  0  0  0  0  0  0
   -2.0240   17.2050  -33.3200 C   0  0  0  0  0  0  0  0  0  0  0  0
   -1.6850   16.3020  -34.3440 C   0  0  0  0  0  0  0  0  0  0  0  0
   -2.6110   15.9930  -35.3440 C   0  0  0  0  0  0  0  0  0  0  0  0
   -3.8820   16.5700  -35.3250 C   0  0  0  0  0  0  0  0  0  0  0  0
   -4.2370   17.4570  -34.3020 C   0  0  0  0  0  0  0  0  0  0  0  0
   -5.8580   18.1500  -34.2660 S   0  0  0  0  0  0  0  0  0  0  0  0
   -6.8550   17.0270  -34.1860 O   0  0  0  0  0  0  0  0  0  0  0  0
   -6.1110   18.9250  -35.5300 O   0  0  0  0  0  0  0  0  0  0  0  0
   -6.0330   19.1920  -32.8700 N   0  0  0  0  0  0  0  0  0  0  0  0
   -7.1780   20.0990  -33.0220 C   0  0  0  0  0  0  0  0  0  0  0  0
   -8.3820   19.4270  -32.3810 C   0  0  0  0  0  0  0  0  0  0  0  0
   -7.8130   18.3570  -31.4660 C   0  0  0  0  0  0  0  0  0  0  0  0
   -6.3020   18.4080  -31.6590 C   0  0  0  0  0  0  0  0  0  0  0  0
   -3.3090   17.7640  -33.2970 C   0  0  0  0  0  0  0  0  0  0  0  0
   -0.8540   19.9480  -31.6020 C   0  0  0  0  0  0  0  0  0  0  0  0
   -0.0700   20.7850  -30.7870 C   0  0  0  0  0  0  0  0  0  0  0  0
   -0.6010   21.9710  -30.2720 C   0  0  0  0  0  0  0  0  0  0  0  0
   -1.9150   22.3390  -30.5670 C   0  0  0  0  0  0  0  0  0  0  0  0
   -2.7080   21.5210  -31.3820 C   0  0  0  0  0  0  0  0  0  0  0  0
   -4.3740   21.9700  -31.7340 S   0  0  0  0  0  0  0  0  0  0  0  0
   -5.3020   21.0480  -30.9940 O   0  0  0  0  0  0  0  0  0  0  0  0
   -4.6340   21.8270  -33.2090 O   0  0  0  0  0  0  0  0  0  0  0  0
   -4.6520   23.6130  -31.2160 N   0  0  0  0  0  0  0  0  0  0  0  0
   -6.0170   24.0400  -31.5190 C   0  0  0  0  0  0  0  0  0  0  0  0
   -6.3640   25.1200  -30.5100 C   0  0  0  0  0  0  0  0  0  0  0  0
   -5.4270   24.8840  -29.3360 C   0  0  0  0  0  0  0  0  0  0  0  0
   -4.5120   23.7470  -29.7660 C   0  0  0  0  0  0  0  0  0  0  0  0
   -2.1790   20.3270  -31.8910 C   0  0  0  0  0  0  0  0  0  0  0  0
   -0.6879   15.8377  -34.3576 H   0  0  0  0  0  0  0  0  0  0  0  0
   -2.3378   15.2936  -36.1478 H   0  0  0  0  0  0  0  0  0  0  0  0
   -4.6066   16.3269  -36.1162 H   0  0  0  0  0  0  0  0  0  0  0  0
   -5.1490   19.7430  -32.7570 H   0  0  0  0  0  0  0  0  0  0  0  0
   -6.9694   21.0547  -32.5189 H   0  0  0  0  0  0  0  0  0  0  0  0
   -7.3701   20.3054  -34.0852 H   0  0  0  0  0  0  0  0  0  0  0  0
   -8.9659   20.1571  -31.8014 H   0  0  0  0  0  0  0  0  0  0  0  0
   -9.0592   18.9997  -33.1352 H   0  0  0  0  0  0  0  0  0  0  0  0
   -8.0730   18.5704  -30.4187 H   0  0  0  0  0  0  0  0  0  0  0  0
   -8.2187   17.3626  -31.7038 H   0  0  0  0  0  0  0  0  0  0  0  0
   -5.8292   18.8878  -30.7894 H   0  0  0  0  0  0  0  0  0  0  0  0
   -5.8919   17.3922  -31.7587 H   0  0  0  0  0  0  0  0  0  0  0  0
   -3.5916   18.4490  -32.4840 H   0  0  0  0  0  0  0  0  0  0  0  0
    0.9676   20.5042  -30.5536 H   0  0  0  0  0  0  0  0  0  0  0  0
    0.0185   22.6166  -29.6321 H   0  0  0  0  0  0  0  0  0  0  0  0
   -2.3284   23.2730  -30.1587 H   0  0  0  0  0  0  0  0  0  0  0  0
   -6.0712   24.4431  -32.5411 H   0  0  0  0  0  0  0  0  0  0  0  0
   -6.7208   23.1968  -31.4575 H   0  0  0  0  0  0  0  0  0  0  0  0
   -6.1984   26.1183  -30.9411 H   0  0  0  0  0  0  0  0  0  0  0  0
   -7.4208   25.0765  -30.2080 H   0  0  0  0  0  0  0  0  0  0  0  0
   -4.8403   25.7902  -29.1246 H   0  0  0  0  0  0  0  0  0  0  0  0
   -5.9793   24.6372  -28.4173 H   0  0  0  0  0  0  0  0  0  0  0  0
   -3.4691   23.9823  -29.5069 H   0  0  0  0  0  0  0  0  0  0  0  0
   -4.7823   22.8104  -29.2565 H   0  0  0  0  0  0  0  0  0  0  0  0
   -2.8051   19.6796  -32.5225 H   0  0  0  0  0  0  0  0  0  0  0  0
  1  2  2  0
  2  3  1  0
  3  4  1  0
  4  5  2  0
  5  6  1  0
  6  7  2  0
  7  8  1  0
  8  9  1  0
  9 10  2  0
  9 11  2  0
  9 12  1  0
 12 13  1  0
 13 14  1  0
 14 15  1  0
 15 16  1  0
  8 17  2  0
  2 18  1  0
 18 19  2  0
 19 20  1  0
 20 21  2  0
 21 22  1  0
 22 23  1  0
 23 24  2  0
 23 25  2  0
 23 26  1  0
 26 27  1  0
 27 28  1  0
 28 29  1  0
 29 30  1  0
 22 31  2  0
 17  4  1  0
 31 18  1  0
 16 12  1  0
 30 26  1  0
  5 32  1  0
  6 33  1  0
  7 34  1  0
 12 35  1  0
 13 36  1  0
 13 37  1  0
 14 38  1  0
 14 39  1  0
 15 40  1  0
 15 41  1  0
 16 42  1  0
 16 43  1  0
 17 44  1  0
 19 45  1  0
 20 46  1  0
 21 47  1  0
 27 48  1  0
 27 49  1  0
 28 50  1  0
 28 51  1  0
 29 52  1  0
 29 53  1  0
 30 54  1  0
 30 55  1  0
 31 56  1  0
M  CHG  2   3  -1  12   1
M  END
>  <UniqueID>  (31) 
30

>  <SMILES>  (31) 
O=C([N-]c1cccc(S(=O)(=O)[NH+]2CCCC2)c1)c1cccc(S(=O)(=O)N2CCCC2)c1

>  <Energy>  (31) 
64.00958655137146

>  <Genealogy>  (31) 
O=C([N-]c1cccc(S(=O)(=O)[NH+]2CCCC2)c1)c1cccc(S(=O)(=O)N2CCCC2)c1 (protonated)
O=C([N-]c1cccc(S(=O)(=O)[NH+]2CCCC2)c1)c1cccc(S(=O)(=O)N2CCCC2)c1 (3D coordinates assigned)
O=C([N-]c1cccc(S(=O)(=O)[NH+]2CCCC2)c1)c1cccc(S(=O)(=O)N2CCCC2)c1 (nonaromatic ring conformer: 64.00958655137146 kcal/mol)

>  <smiles>  (31) 
O=C(Nc1cccc(S(=O)(=O)N2CCCC2)c1)c1cccc(S(=O)(=O)N2CCCC2)c1

>  <score_type>  (31) 
oracle

>  <origin>  (31) 
adgpu

>  <m_score__min__energy>  (31) 
-11.619999999999999

>  <m_primary>  (31) 
energy

$$$$
31:0
     RDKit          3D

 59 62  0  0  0  0  0  0  0  0999 V2000
   -5.9230   26.0720  -30.2360 O   0  0  0  0  0  0  0  0  0  0  0  0
   -5.1050   25.3410  -30.8610 C   0  0  0  0  0  0  0  0  0  0  0  0
   -5.5720   24.5600  -31.9710 N   0  0  0  0  0  0  0  0  0  0  0  0
   -6.3500   23.3590  -31.8730 C   0  0  0  0  0  0  0  0  0  0  0  0
   -7.6330   23.3580  -31.3010 C   0  0  0  0  0  0  0  0  0  0  0  0
   -8.3560   22.1630  -31.1970 C   0  0  0  0  0  0  0  0  0  0  0  0
   -7.8050   20.9650  -31.6610 C   0  0  0  0  0  0  0  0  0  0  0  0
   -6.5230   20.9530  -32.2250 C   0  0  0  0  0  0  0  0  0  0  0  0
   -5.8390   19.4350  -32.8030 S   0  0  0  0  0  0  0  0  0  0  0  0
   -6.4700   18.3000  -32.0440 O   0  0  0  0  0  0  0  0  0  0  0  0
   -6.1410   19.2590  -34.2690 O   0  0  0  0  0  0  0  0  0  0  0  0
   -4.1140   19.4360  -32.5290 N   0  0  0  0  0  0  0  0  0  0  0  0
   -3.7740   20.0820  -31.2590 C   0  0  0  0  0  0  0  0  0  0  0  0
   -2.3770   20.6670  -31.4230 C   0  0  0  0  0  0  0  0  0  0  0  0
   -2.1160   20.6850  -32.9200 C   0  0  0  0  0  0  0  0  0  0  0  0
   -3.4160   20.2070  -33.5560 C   0  0  0  0  0  0  0  0  0  0  0  0
   -5.7910   22.1480  -32.3080 C   0  0  0  0  0  0  0  0  0  0  0  0
   -3.7290   25.2790  -30.4550 N   0  0  0  0  0  0  0  0  0  0  0  0
   -3.1800   24.5030  -29.3760 C   0  0  0  0  0  0  0  0  0  0  0  0
   -3.8120   23.3350  -28.9060 C   0  0  0  0  0  0  0  0  0  0  0  0
   -3.2160   22.5640  -27.9050 C   0  0  0  0  0  0  0  0  0  0  0  0
   -1.9810   22.9390  -27.3760 C   0  0  0  0  0  0  0  0  0  0  0  0
   -1.3280   24.0940  -27.8350 C   0  0  0  0  0  0  0  0  0  0  0  0
    0.2460   24.5210  -27.1300 S   0  0  0  0  0  0  0  0  0  0  0  0
    0.8120   23.2930  -26.4500 O   0  0  0  0  0  0  0  0  0  0  0  0
    1.2070   24.9300  -28.2140 O   0  0  0  0  0  0  0  0  0  0  0  0
    0.1250   25.8500  -25.9870 N   0  0  0  0  0  0  0  0  0  0  0  0
   -0.7540   26.9210  -26.4950 C   0  0  0  0  0  0  0  0  0  0  0  0
   -0.6020   28.1940  -25.6380 C   0  0  0  0  0  0  0  0  0  0  0  0
   -0.2740   27.8750  -24.1610 C   0  0  0  0  0  0  0  0  0  0  0  0
   -0.8380   26.5070  -23.7400 C   0  0  0  0  0  0  0  0  0  0  0  0
   -0.3000   25.3680  -24.6470 C   0  0  0  0  0  0  0  0  0  0  0  0
   -1.9350   24.8760  -28.8460 C   0  0  0  0  0  0  0  0  0  0  0  0
   -1.3130   26.0240  -29.3320 O   0  0  0  0  0  0  0  0  0  0  0  0
   -8.0709   24.2980  -30.9339 H   0  0  0  0  0  0  0  0  0  0  0  0
   -9.3605   22.1672  -30.7488 H   0  0  0  0  0  0  0  0  0  0  0  0
   -8.3793   20.0301  -31.5830 H   0  0  0  0  0  0  0  0  0  0  0  0
   -4.4956   20.8817  -31.0358 H   0  0  0  0  0  0  0  0  0  0  0  0
   -3.8051   19.3611  -30.4287 H   0  0  0  0  0  0  0  0  0  0  0  0
   -2.3373   21.6873  -31.0138 H   0  0  0  0  0  0  0  0  0  0  0  0
   -1.6217   20.0755  -30.8847 H   0  0  0  0  0  0  0  0  0  0  0  0
   -1.8728   21.7034  -33.2573 H   0  0  0  0  0  0  0  0  0  0  0  0
   -1.2632   20.0479  -33.1972 H   0  0  0  0  0  0  0  0  0  0  0  0
   -4.0267   21.0672  -33.8677 H   0  0  0  0  0  0  0  0  0  0  0  0
   -3.2235   19.5985  -34.4519 H   0  0  0  0  0  0  0  0  0  0  0  0
   -4.7702   22.1347  -32.7177 H   0  0  0  0  0  0  0  0  0  0  0  0
   -4.7799   23.0284  -29.3294 H   0  0  0  0  0  0  0  0  0  0  0  0
   -3.7212   21.6602  -27.5336 H   0  0  0  0  0  0  0  0  0  0  0  0
   -1.5145   22.3242  -26.5921 H   0  0  0  0  0  0  0  0  0  0  0  0
   -0.4815   27.1502  -27.5358 H   0  0  0  0  0  0  0  0  0  0  0  0
   -1.7984   26.5794  -26.4438 H   0  0  0  0  0  0  0  0  0  0  0  0
    0.2107   28.8062  -26.0560 H   0  0  0  0  0  0  0  0  0  0  0  0
   -1.5626   28.7296  -25.6600 H   0  0  0  0  0  0  0  0  0  0  0  0
    0.8183   27.8663  -24.0314 H   0  0  0  0  0  0  0  0  0  0  0  0
   -0.7375   28.6479  -23.5303 H   0  0  0  0  0  0  0  0  0  0  0  0
   -0.5450   26.3042  -22.6993 H   0  0  0  0  0  0  0  0  0  0  0  0
   -1.9331   26.5394  -23.8385 H   0  0  0  0  0  0  0  0  0  0  0  0
    0.5642   24.9023  -24.1508 H   0  0  0  0  0  0  0  0  0  0  0  0
   -1.1198   24.6503  -24.7982 H   0  0  0  0  0  0  0  0  0  0  0  0
  1  2  2  0
  2  3  1  0
  3  4  1  0
  4  5  2  0
  5  6  1  0
  6  7  2  0
  7  8  1  0
  8  9  1  0
  9 10  2  0
  9 11  2  0
  9 12  1  0
 12 13  1  0
 13 14  1  0
 14 15  1  0
 15 16  1  0
  8 17  2  0
  2 18  1  0
 18 19  1  0
 19 20  2  0
 20 21  1  0
 21 22  2  0
 22 23  1  0
 23 24  1  0
 24 25  2  0
 24 26  2  0
 24 27  1  0
 27 28  1  0
 28 29  1  0
 29 30  1  0
 30 31  1  0
 31 32  1  0
 23 33  2  0
 33 34  1  0
 17  4  1  0
 33 19  1  0
 16 12  1  0
 32 27  1  0
  5 35  1  0
  6 36  1  0
  7 37  1  0
 13 38  1  0
 13 39  1  0
 14 40  1  0
 14 41  1  0
 15 42  1  0
 15 43  1  0
 16 44  1  0
 16 45  1  0
 17 46  1  0
 20 47  1  0
 21 48  1  0
 22 49  1  0
 28 50  1  0
 28 51  1  0
 29 52  1  0
 29 53  1  0
 30 54  1  0
 30 55  1  0
 31 56  1  0
 31 57  1  0
 32 58  1  0
 32 59  1  0
M  CHG  3   3  -1  18  -1  34  -1
M  END
>  <UniqueID>  (32) 
31

>  <SMILES>  (32) 
O=C([N-]c1cccc(S(=O)(=O)N2CCCC2)c1)[N-]c1cccc(S(=O)(=O)N2CCCCC2)c1[O-]

>  <Energy>  (32) 
75.67043056856139

>  <Genealogy>  (32) 
O=C([N-]c1cccc(S(=O)(=O)N2CCCC2)c1)[N-]c1cccc(S(=O)(=O)N2CCCCC2)c1[O-] (protonated)
O=C([N-]c1cccc(S(=O)(=O)N2CCCC2)c1)[N-]c1cccc(S(=O)(=O)N2CCCCC2)c1[O-] (3D coordinates assigned)
O=C([N-]c1cccc(S(=O)(=O)N2CCCC2)c1)[N-]c1cccc(S(=O)(=O)N2CCCCC2)c1[O-] (nonaromatic ring conformer: 75.67043056856139 kcal/mol)

>  <smiles>  (32) 
O=C(Nc1cccc(S(=O)(=O)N2CCCC2)c1)Nc1cccc(S(=O)(=O)N2CCCCC2)c1O

>  <score_type>  (32) 
oracle

>  <origin>  (32) 
adgpu

>  <m_score__min__energy>  (32) 
-17.23

>  <m_primary>  (32) 
energy

$$$$
32:0
     RDKit          3D

 40 43  0  0  0  0  0  0  0  0999 V2000
   -9.4780   18.8820  -33.0860 O   0  0  0  0  0  0  0  0  0  0  0  0
   -9.0140   19.9460  -32.5970 C   0  0  0  0  0  0  0  0  0  0  0  0
   -9.8620   20.8470  -31.9440 C   0  0  0  0  0  0  0  0  0  0  0  0
   -9.3340   22.0210  -31.4040 C   0  0  0  0  0  0  0  0  0  0  0  0
   -7.9640   22.2870  -31.5210 C   0  0  0  0  0  0  0  0  0  0  0  0
   -7.3990   23.4530  -30.9850 C   0  0  0  0  0  0  0  0  0  0  0  0
   -6.0210   23.6870  -31.1060 C   0  0  0  0  0  0  0  0  0  0  0  0
   -5.2900   25.1240  -30.3960 S   0  0  0  0  0  0  0  0  0  0  0  0
   -5.7380   25.3080  -28.9730 O   0  0  0  0  0  0  0  0  0  0  0  0
   -5.7070   26.3250  -31.1970 O   0  0  0  0  0  0  0  0  0  0  0  0
   -3.5620   24.9820  -30.4350 N   0  0  0  0  0  0  0  0  0  0  0  0
   -2.7760   24.2000  -29.5240 C   0  0  0  0  0  0  0  0  0  0  0  0
   -3.1410   22.8900  -29.1610 C   0  0  0  0  0  0  0  0  0  0  0  0
   -2.3430   22.1430  -28.2810 C   0  0  0  0  0  0  0  0  0  0  0  0
   -1.1530   22.7030  -27.7730 C   0  0  0  0  0  0  0  0  0  0  0  0
   -0.8070   24.0180  -28.1140 C   0  0  0  0  0  0  0  0  0  0  0  0
   -1.6080   24.7590  -28.9880 C   0  0  0  0  0  0  0  0  0  0  0  0
   -1.2370   26.0560  -29.3230 O   0  0  0  0  0  0  0  0  0  0  0  0
   -0.3060   21.9420  -26.7790 C   0  0  0  0  0  0  0  0  0  0  0  0
   -0.5310   20.4910  -26.8470 N   0  0  0  0  0  0  0  0  0  0  0  0
   -1.9620   20.1810  -26.7520 C   0  0  0  0  0  0  0  0  0  0  0  0
   -2.7210   20.7190  -27.9700 C   0  0  0  0  0  0  0  0  0  0  0  0
   -5.2120   22.7580  -31.7720 C   0  0  0  0  0  0  0  0  0  0  0  0
   -5.7690   21.5950  -32.3130 C   0  0  0  0  0  0  0  0  0  0  0  0
   -7.1410   21.3520  -32.1880 C   0  0  0  0  0  0  0  0  0  0  0  0
   -7.6850   20.2160  -32.7040 N   0  0  0  0  0  0  0  0  0  0  0  0
  -10.9372   20.6318  -31.8567 H   0  0  0  0  0  0  0  0  0  0  0  0
   -9.9923   22.7353  -30.8879 H   0  0  0  0  0  0  0  0  0  0  0  0
   -8.0372   24.1854  -30.4689 H   0  0  0  0  0  0  0  0  0  0  0  0
   -4.0608   22.4474  -29.5711 H   0  0  0  0  0  0  0  0  0  0  0  0
    0.1019   24.4704  -27.6906 H   0  0  0  0  0  0  0  0  0  0  0  0
    0.7543   22.1454  -26.9895 H   0  0  0  0  0  0  0  0  0  0  0  0
   -0.5882   22.2785  -25.7705 H   0  0  0  0  0  0  0  0  0  0  0  0
   -0.1600   20.1320  -27.7580 H   0  0  0  0  0  0  0  0  0  0  0  0
   -2.0913   19.0898  -26.7004 H   0  0  0  0  0  0  0  0  0  0  0  0
   -2.3656   20.6594  -25.8474 H   0  0  0  0  0  0  0  0  0  0  0  0
   -2.4868   20.0901  -28.8416 H   0  0  0  0  0  0  0  0  0  0  0  0
   -3.7966   20.6933  -27.7410 H   0  0  0  0  0  0  0  0  0  0  0  0
   -4.1323   22.9442  -31.8701 H   0  0  0  0  0  0  0  0  0  0  0  0
   -5.1280   20.8708  -32.8371 H   0  0  0  0  0  0  0  0  0  0  0  0
  1  2  2  0
  2  3  1  0
  3  4  2  0
  4  5  1  0
  5  6  2  0
  6  7  1  0
  7  8  1  0
  8  9  2  0
  8 10  2  0
  8 11  1  0
 11 12  1  0
 12 13  2  0
 13 14  1  0
 14 15  2  0
 15 16  1  0
 16 17  2  0
 17 18  1  0
 15 19  1  0
 19 20  1  0
 20 21  1  0
 21 22  1  0
  7 23  2  0
 23 24  1  0
 24 25  2  0
 25 26  1  0
 26  2  1  0
 25  5  1  0
 17 12  1  0
 22 14  1  0
  3 27  1  0
  4 28  1  0
  6 29  1  0
 13 30  1  0
 16 31  1  0
 19 32  1  0
 19 33  1  0
 20 34  1  0
 21 35  1  0
 21 36  1  0
 22 37  1  0
 22 38  1  0
 23 39  1  0
 24 40  1  0
M  CHG  3  11  -1  18  -1  26  -1
M  END
>  <UniqueID>  (33) 
32

>  <SMILES>  (33) 
O=c1ccc2cc(S(=O)(=O)[N-]c3cc4c(cc3[O-])CNCC4)ccc2[n-]1

>  <Energy>  (33) 
52.245083094405345

>  <Genealogy>  (33) 
O=c1ccc2cc(S(=O)(=O)[N-]c3cc4c(cc3[O-])CNCC4)ccc2[n-]1 (protonated)
O=c1ccc2cc(S(=O)(=O)[N-]c3cc4c(cc3[O-])CNCC4)ccc2[n-]1 (3D coordinates assigned)
O=c1ccc2cc(S(=O)(=O)[N-]c3cc4c(cc3[O-])CNCC4)ccc2[n-]1 (nonaromatic ring conformer: 52.245083094405345 kcal/mol)

>  <smiles>  (33) 
O=c1ccc2cc(S(=O)(=O)Nc3cc4c(cc3O)CNCC4)ccc2[nH]1

>  <score_type>  (33) 
oracle

>  <origin>  (33) 
adgpu

>  <m_score__min__energy>  (33) 
-14.109999999999999

>  <m_primary>  (33) 
energy

$$$$
33:0
     RDKit          3D

 43 45  0  0  0  0  0  0  0  0999 V2000
   -1.8880   19.5320  -27.0970 C   0  0  0  0  0  0  0  0  0  0  0  0
   -2.0450   20.9140  -27.6460 C   0  0  0  0  0  0  0  0  0  0  0  0
   -3.2650   21.5870  -27.5290 C   0  0  0  0  0  0  0  0  0  0  0  0
   -3.3930   22.8710  -28.0590 C   0  0  0  0  0  0  0  0  0  0  0  0
   -2.3060   23.4860  -28.7020 C   0  0  0  0  0  0  0  0  0  0  0  0
   -2.4460   24.8520  -29.2680 C   0  0  0  0  0  0  0  0  0  0  0  0
   -1.6030   25.7380  -28.9660 O   0  0  0  0  0  0  0  0  0  0  0  0
   -3.4840   25.1840  -30.2010 N   0  0  0  0  0  0  0  0  0  0  0  0
   -4.6650   24.4110  -30.4610 C   0  0  0  0  0  0  0  0  0  0  0  0
   -4.5200   23.1420  -31.0380 C   0  0  0  0  0  0  0  0  0  0  0  0
   -5.6420   22.3450  -31.2970 C   0  0  0  0  0  0  0  0  0  0  0  0
   -5.4400   20.7520  -32.0200 S   0  0  0  0  0  0  0  0  0  0  0  0
   -5.3580   20.8940  -33.5130 O   0  0  0  0  0  0  0  0  0  0  0  0
   -4.1610   20.1290  -31.5270 O   0  0  0  0  0  0  0  0  0  0  0  0
   -6.8100   19.7530  -31.6040 N   0  0  0  0  0  0  0  0  0  0  0  0
   -6.6160   18.3740  -32.0520 C   0  0  0  0  0  0  0  0  0  0  0  0
   -8.0040   17.7940  -32.2770 C   0  0  0  0  0  0  0  0  0  0  0  0
   -8.9240   18.9960  -32.4250 C   0  0  0  0  0  0  0  0  0  0  0  0
   -8.0250   20.2130  -32.2730 C   0  0  0  0  0  0  0  0  0  0  0  0
   -6.9210   22.8340  -31.0060 C   0  0  0  0  0  0  0  0  0  0  0  0
   -7.0770   24.1100  -30.4620 C   0  0  0  0  0  0  0  0  0  0  0  0
   -5.9570   24.9110  -30.2000 C   0  0  0  0  0  0  0  0  0  0  0  0
   -6.1310   26.2040  -29.7080 O   0  0  0  0  0  0  0  0  0  0  0  0
   -1.0990   22.7650  -28.8090 C   0  0  0  0  0  0  0  0  0  0  0  0
   -0.0930   23.2680  -29.3760 O   0  0  0  0  0  0  0  0  0  0  0  0
   -1.0040   21.5130  -28.2840 N   0  0  0  0  0  0  0  0  0  0  0  0
   -1.8925   19.5715  -25.9977 H   0  0  0  0  0  0  0  0  0  0  0  0
   -2.7204   18.9026  -27.4447 H   0  0  0  0  0  0  0  0  0  0  0  0
   -0.9356   19.1053  -27.4447 H   0  0  0  0  0  0  0  0  0  0  0  0
   -4.1165   21.1081  -27.0234 H   0  0  0  0  0  0  0  0  0  0  0  0
   -4.3508   23.4051  -27.9729 H   0  0  0  0  0  0  0  0  0  0  0  0
   -3.5163   22.7688  -31.2896 H   0  0  0  0  0  0  0  0  0  0  0  0
   -6.0402   18.3563  -32.9891 H   0  0  0  0  0  0  0  0  0  0  0  0
   -6.0561   17.7888  -31.3076 H   0  0  0  0  0  0  0  0  0  0  0  0
   -8.0217   17.1809  -33.1901 H   0  0  0  0  0  0  0  0  0  0  0  0
   -8.3140   17.1408  -31.4481 H   0  0  0  0  0  0  0  0  0  0  0  0
   -9.4045   18.9935  -33.4145 H   0  0  0  0  0  0  0  0  0  0  0  0
   -9.7315   18.9878  -31.6781 H   0  0  0  0  0  0  0  0  0  0  0  0
   -7.7798   20.6296  -33.2611 H   0  0  0  0  0  0  0  0  0  0  0  0
   -8.5225   21.0039  -31.6925 H   0  0  0  0  0  0  0  0  0  0  0  0
   -7.8052   22.2112  -31.2065 H   0  0  0  0  0  0  0  0  0  0  0  0
   -8.0849   24.4892  -30.2376 H   0  0  0  0  0  0  0  0  0  0  0  0
   -5.4220   26.6590  -29.1440 H   0  0  0  0  0  0  0  0  0  0  0  0
  1  2  1  0
  2  3  2  0
  3  4  1  0
  4  5  2  0
  5  6  1  0
  6  7  2  0
  6  8  1  0
  8  9  1  0
  9 10  2  0
 10 11  1  0
 11 12  1  0
 12 13  2  0
 12 14  2  0
 12 15  1  0
 15 16  1  0
 16 17  1  0
 17 18  1  0
 18 19  1  0
 11 20  2  0
 20 21  1  0
 21 22  2  0
 22 23  1  0
  5 24  1  0
 24 25  2  0
 24 26  1  0
 26  2  1  0
 22  9  1  0
 19 15  1  0
  1 27  1  0
  1 28  1  0
  1 29  1  0
  3 30  1  0
  4 31  1  0
 10 32  1  0
 16 33  1  0
 16 34  1  0
 17 35  1  0
 17 36  1  0
 18 37  1  0
 18 38  1  0
 19 39  1  0
 19 40  1  0
 20 41  1  0
 21 42  1  0
 23 43  1  0
M  CHG  2   8  -1  26  -1
M  END
>  <UniqueID>  (34) 
33

>  <SMILES>  (34) 
Cc1ccc(C(=O)[N-]c2cc(S(=O)(=O)N3CCCC3)ccc2O)c(=O)[n-]1

>  <Energy>  (34) 
53.629470932004324

>  <Genealogy>  (34) 
Cc1ccc(C(=O)[N-]c2cc(S(=O)(=O)N3CCCC3)ccc2O)c(=O)[n-]1 (protonated)
Cc1ccc(C(=O)[N-]c2cc(S(=O)(=O)N3CCCC3)ccc2O)c(=O)[n-]1 (3D coordinates assigned)
Cc1ccc(C(=O)[N-]c2cc(S(=O)(=O)N3CCCC3)ccc2O)c(=O)[n-]1 (nonaromatic ring conformer: 53.629470932004324 kcal/mol)

>  <smiles>  (34) 
Cc1ccc(C(=O)Nc2cc(S(=O)(=O)N3CCCC3)ccc2O)c(=O)[nH]1

>  <score_type>  (34) 
oracle

>  <origin>  (34) 
adgpu

>  <m_score__min__energy>  (34) 
-11.210000000000001

>  <m_primary>  (34) 
energy

$$$$
34:0
     RDKit          3D

 58 61  0  0  0  0  0  0  0  0999 V2000
   -2.3270   24.4730  -28.2030 C   0  0  0  0  0  0  0  0  0  0  0  0
   -2.7600   24.9300  -29.4790 O   0  0  0  0  0  0  0  0  0  0  0  0
   -3.9700   24.5320  -30.0540 C   0  0  0  0  0  0  0  0  0  0  0  0
   -4.5840   23.3560  -29.6280 C   0  0  0  0  0  0  0  0  0  0  0  0
   -5.7900   22.9660  -30.2070 C   0  0  0  0  0  0  0  0  0  0  0  0
   -6.3640   23.7690  -31.2080 C   0  0  0  0  0  0  0  0  0  0  0  0
   -7.4880   23.4700  -31.7930 N   0  0  0  0  0  0  0  0  0  0  0  0
   -8.4780   22.0780  -31.4790 S   0  0  0  0  0  0  0  0  0  0  0  0
   -8.7080   21.9550  -29.9980 O   0  0  0  0  0  0  0  0  0  0  0  0
   -9.7960   22.2080  -32.1910 O   0  0  0  0  0  0  0  0  0  0  0  0
   -7.6480   20.6450  -32.0760 C   0  0  0  0  0  0  0  0  0  0  0  0
   -8.0380   19.3780  -31.6210 C   0  0  0  0  0  0  0  0  0  0  0  0
   -7.3810   18.2320  -32.0810 C   0  0  0  0  0  0  0  0  0  0  0  0
   -6.3180   18.3400  -32.9860 C   0  0  0  0  0  0  0  0  0  0  0  0
   -5.6720   17.1430  -33.4430 N   0  0  0  0  0  0  0  0  0  0  0  0
   -4.4880   17.0750  -34.2500 C   0  0  0  0  0  0  0  0  0  0  0  0
   -4.4930   16.3290  -35.2650 O   0  0  0  0  0  0  0  0  0  0  0  0
   -3.2510   17.8100  -33.8950 C   0  0  0  0  0  0  0  0  0  0  0  0
   -2.1820   17.1580  -33.2570 C   0  0  0  0  0  0  0  0  0  0  0  0
   -1.0220   17.8610  -32.9230 C   0  0  0  0  0  0  0  0  0  0  0  0
   -0.9100   19.2240  -33.2260 C   0  0  0  0  0  0  0  0  0  0  0  0
    0.5620   20.0950  -32.8040 S   0  0  0  0  0  0  0  0  0  0  0  0
    1.1180   19.5020  -31.5380 O   0  0  0  0  0  0  0  0  0  0  0  0
    0.2370   21.5410  -32.5510 O   0  0  0  0  0  0  0  0  0  0  0  0
    1.7260   19.9380  -34.1060 N   0  0  0  0  0  0  0  0  0  0  0  0
    1.2610   18.9890  -35.1470 C   0  0  0  0  0  0  0  0  0  0  0  0
    0.6280   19.7000  -36.3590 C   0  0  0  0  0  0  0  0  0  0  0  0
   -0.0140   20.8850  -35.9530 O   0  0  0  0  0  0  0  0  0  0  0  0
    0.9430   21.8450  -35.5400 C   0  0  0  0  0  0  0  0  0  0  0  0
    2.0810   21.2540  -34.6740 C   0  0  0  0  0  0  0  0  0  0  0  0
   -1.9630   19.8740  -33.8830 C   0  0  0  0  0  0  0  0  0  0  0  0
   -3.1240   19.1720  -34.2190 C   0  0  0  0  0  0  0  0  0  0  0  0
   -5.9420   19.6110  -33.4570 C   0  0  0  0  0  0  0  0  0  0  0  0
   -6.5980   20.7560  -32.9970 C   0  0  0  0  0  0  0  0  0  0  0  0
   -5.7190   24.9060  -31.5810 N   0  0  0  0  0  0  0  0  0  0  0  0
   -4.5630   25.2760  -31.0270 N   0  0  0  0  0  0  0  0  0  0  0  0
   -2.8551   25.0304  -27.4153 H   0  0  0  0  0  0  0  0  0  0  0  0
   -2.5476   23.3999  -28.1036 H   0  0  0  0  0  0  0  0  0  0  0  0
   -1.2436   24.6354  -28.1036 H   0  0  0  0  0  0  0  0  0  0  0  0
   -4.1211   22.7412  -28.8420 H   0  0  0  0  0  0  0  0  0  0  0  0
   -6.2876   22.0396  -29.8842 H   0  0  0  0  0  0  0  0  0  0  0  0
   -8.8634   19.2845  -30.8999 H   0  0  0  0  0  0  0  0  0  0  0  0
   -7.7013   17.2400  -31.7297 H   0  0  0  0  0  0  0  0  0  0  0  0
   -2.2592   16.0868  -33.0190 H   0  0  0  0  0  0  0  0  0  0  0  0
   -0.1929   17.3420  -32.4198 H   0  0  0  0  0  0  0  0  0  0  0  0
    2.5920   19.5410  -33.6710 H   0  0  0  0  0  0  0  0  0  0  0  0
    2.1216   18.3988  -35.4950 H   0  0  0  0  0  0  0  0  0  0  0  0
    0.4874   18.3515  -34.6941 H   0  0  0  0  0  0  0  0  0  0  0  0
    1.4153   19.9455  -37.0869 H   0  0  0  0  0  0  0  0  0  0  0  0
   -0.1152   19.0307  -36.8170 H   0  0  0  0  0  0  0  0  0  0  0  0
    1.3890   22.2993  -36.4370 H   0  0  0  0  0  0  0  0  0  0  0  0
    0.4131   22.5807  -34.9171 H   0  0  0  0  0  0  0  0  0  0  0  0
    2.9785   21.1391  -35.2995 H   0  0  0  0  0  0  0  0  0  0  0  0
    2.2610   21.9448  -33.8371 H   0  0  0  0  0  0  0  0  0  0  0  0
   -1.8757   20.9411  -34.1354 H   0  0  0  0  0  0  0  0  0  0  0  0
   -3.9435   19.6885  -34.7402 H   0  0  0  0  0  0  0  0  0  0  0  0
   -5.1278   19.7041  -34.1908 H   0  0  0  0  0  0  0  0  0  0  0  0
   -6.2890   21.7476  -33.3592 H   0  0  0  0  0  0  0  0  0  0  0  0
  1  2  1  0
  2  3  1  0
  3  4  1  0
  4  5  2  0
  5  6  1  0
  6  7  2  3
  7  8  1  0
  8  9  2  0
  8 10  2  0
  8 11  1  0
 11 12  2  0
 12 13  1  0
 13 14  2  0
 14 15  1  0
 15 16  1  0
 16 17  2  0
 16 18  1  0
 18 19  2  0
 19 20  1  0
 20 21  2  0
 21 22  1  0
 22 23  2  0
 22 24  2  0
 22 25  1  0
 25 26  1  0
 26 27  1  0
 27 28  1  0
 28 29  1  0
 29 30  1  0
 21 31  1  0
 31 32  2  0
 14 33  1  0
 33 34  2  0
  6 35  1  0
 35 36  1  0
 36  3  2  0
 34 11  1  0
 32 18  1  0
 30 25  1  0
  1 37  1  0
  1 38  1  0
  1 39  1  0
  4 40  1  0
  5 41  1  0
 12 42  1  0
 13 43  1  0
 19 44  1  0
 20 45  1  0
 25 46  1  0
 26 47  1  0
 26 48  1  0
 27 49  1  0
 27 50  1  0
 29 51  1  0
 29 52  1  0
 30 53  1  0
 30 54  1  0
 31 55  1  0
 32 56  1  0
 33 57  1  0
 34 58  1  0
M  CHG  3  15  -1  25   1  35  -1
M  END
>  <UniqueID>  (35) 
34

>  <SMILES>  (35) 
COc1ccc(=NS(=O)(=O)c2ccc([N-]C(=O)c3ccc(S(=O)(=O)[NH+]4CCOCC4)cc3)cc2)[n-]n1

>  <Energy>  (35) 
84.15605154488411

>  <Genealogy>  (35) 
COc1ccc(=NS(=O)(=O)c2ccc([N-]C(=O)c3ccc(S(=O)(=O)[NH+]4CCOCC4)cc3)cc2)[n-]n1 (protonated)
COc1ccc(=NS(=O)(=O)c2ccc([N-]C(=O)c3ccc(S(=O)(=O)[NH+]4CCOCC4)cc3)cc2)[n-]n1 (3D coordinates assigned)
COc1ccc(=NS(=O)(=O)c2ccc([N-]C(=O)c3ccc(S(=O)(=O)[NH+]4CCOCC4)cc3)cc2)[n-]n1 (nonaromatic ring conformer: 84.15605154488411 kcal/mol)

>  <smiles>  (35) 
COc1ccc(=NS(=O)(=O)c2ccc(NC(=O)c3ccc(S(=O)(=O)N4CCOCC4)cc3)cc2)[nH]n1

>  <score_type>  (35) 
oracle

>  <origin>  (35) 
adgpu

>  <m_score__min__energy>  (35) 
-12.140000000000001

>  <m_primary>  (35) 
energy

$$$$
35:0
     RDKit          3D

 72 76  0  0  0  0  0  0  0  0999 V2000
   -0.9980   19.7410  -31.5970 O   0  0  0  0  0  0  0  0  0  0  0  0
   -2.2110   20.0610  -31.4650 C   0  0  0  0  0  0  0  0  0  0  0  0
   -2.6070   20.9860  -30.4360 N   0  0  0  0  0  0  0  0  0  0  0  0
   -1.7540   21.4220  -29.3630 C   0  0  0  0  0  0  0  0  0  0  0  0
   -1.1060   20.5070  -28.5130 C   0  0  0  0  0  0  0  0  0  0  0  0
   -0.2870   20.9670  -27.4760 C   0  0  0  0  0  0  0  0  0  0  0  0
   -0.1190   22.3380  -27.2680 C   0  0  0  0  0  0  0  0  0  0  0  0
   -0.7890   23.2580  -28.0850 C   0  0  0  0  0  0  0  0  0  0  0  0
   -0.5850   24.9900  -27.8280 S   0  0  0  0  0  0  0  0  0  0  0  0
    0.8810   25.3280  -27.8330 O   0  0  0  0  0  0  0  0  0  0  0  0
   -1.2520   25.7390  -28.9470 O   0  0  0  0  0  0  0  0  0  0  0  0
   -1.3160   25.4450  -26.3100 N   0  0  0  0  0  0  0  0  0  0  0  0
   -0.6170   24.8400  -25.1770 C   0  0  0  0  0  0  0  0  0  0  0  0
   -0.8420   25.7600  -23.9870 C   0  0  0  0  0  0  0  0  0  0  0  0
   -1.2340   27.1010  -24.5850 C   0  0  0  0  0  0  0  0  0  0  0  0
   -1.2300   26.8880  -26.0930 C   0  0  0  0  0  0  0  0  0  0  0  0
   -1.6050   22.7960  -29.1270 C   0  0  0  0  0  0  0  0  0  0  0  0
   -3.2200   19.5240  -32.4110 C   0  0  0  0  0  0  0  0  0  0  0  0
   -4.5510   19.3770  -31.9830 C   0  0  0  0  0  0  0  0  0  0  0  0
   -5.5360   18.8920  -32.8510 C   0  0  0  0  0  0  0  0  0  0  0  0
   -7.2080   18.7570  -32.2990 S   0  0  0  0  0  0  0  0  0  0  0  0
   -7.9750   17.8680  -33.2390 O   0  0  0  0  0  0  0  0  0  0  0  0
   -7.2260   18.1190  -30.9370 O   0  0  0  0  0  0  0  0  0  0  0  0
   -7.9850   20.3200  -32.2190 N   0  0  0  0  0  0  0  0  0  0  0  0
   -8.7650   20.4460  -30.9770 C   0  0  0  0  0  0  0  0  0  0  0  0
   -9.6510   21.7050  -31.0310 C   0  0  0  0  0  0  0  0  0  0  0  0
   -9.0920   22.7760  -31.9850 C   0  0  0  0  0  0  0  0  0  0  0  0
   -7.5610   22.7840  -31.9730 C   0  0  0  0  0  0  0  0  0  0  0  0
   -6.9760   21.3960  -32.3200 C   0  0  0  0  0  0  0  0  0  0  0  0
   -5.1890   18.5250  -34.1550 C   0  0  0  0  0  0  0  0  0  0  0  0
   -3.8690   18.6470  -34.5910 C   0  0  0  0  0  0  0  0  0  0  0  0
   -2.8780   19.1500  -33.7330 C   0  0  0  0  0  0  0  0  0  0  0  0
   -1.5400   19.3180  -34.2290 N   0  0  0  0  0  0  0  0  0  0  0  0
   -0.6050   18.1940  -34.1610 C   0  0  0  0  0  0  0  0  0  0  0  0
    0.4770   18.3610  -35.2330 C   0  0  0  0  0  0  0  0  0  0  0  0
    1.0760   19.6420  -35.1510 O   0  0  0  0  0  0  0  0  0  0  0  0
    0.1150   20.6410  -35.4450 C   0  0  0  0  0  0  0  0  0  0  0  0
   -0.9890   20.6640  -34.3860 C   0  0  0  0  0  0  0  0  0  0  0  0
   -3.5230   21.4730  -30.5500 H   0  0  0  0  0  0  0  0  0  0  0  0
   -1.2437   19.4262  -28.6643 H   0  0  0  0  0  0  0  0  0  0  0  0
    0.2263   20.2465  -26.8223 H   0  0  0  0  0  0  0  0  0  0  0  0
    0.5395   22.6954  -26.4626 H   0  0  0  0  0  0  0  0  0  0  0  0
   -1.0271   23.8410  -24.9674 H   0  0  0  0  0  0  0  0  0  0  0  0
    0.4557   24.7213  -25.3898 H   0  0  0  0  0  0  0  0  0  0  0  0
   -1.6490   25.3726  -23.3477 H   0  0  0  0  0  0  0  0  0  0  0  0
    0.0547   25.8394  -23.3548 H   0  0  0  0  0  0  0  0  0  0  0  0
   -2.2358   27.3978  -24.2409 H   0  0  0  0  0  0  0  0  0  0  0  0
   -0.5425   27.9014  -24.2831 H   0  0  0  0  0  0  0  0  0  0  0  0
   -2.0938   27.3929  -26.5501 H   0  0  0  0  0  0  0  0  0  0  0  0
   -0.3208   27.3050  -26.5506 H   0  0  0  0  0  0  0  0  0  0  0  0
   -2.1337   23.5187  -29.7659 H   0  0  0  0  0  0  0  0  0  0  0  0
   -4.8220   19.6469  -30.9516 H   0  0  0  0  0  0  0  0  0  0  0  0
   -9.4026   19.5578  -30.8566 H   0  0  0  0  0  0  0  0  0  0  0  0
   -8.0735   20.5298  -30.1257 H   0  0  0  0  0  0  0  0  0  0  0  0
  -10.6552   21.4157  -31.3743 H   0  0  0  0  0  0  0  0  0  0  0  0
   -9.6796   22.1384  -30.0204 H   0  0  0  0  0  0  0  0  0  0  0  0
   -9.4416   22.5644  -33.0063 H   0  0  0  0  0  0  0  0  0  0  0  0
   -9.4479   23.7612  -31.6493 H   0  0  0  0  0  0  0  0  0  0  0  0
   -7.2031   23.5159  -32.7121 H   0  0  0  0  0  0  0  0  0  0  0  0
   -7.2288   23.0507  -30.9588 H   0  0  0  0  0  0  0  0  0  0  0  0
   -6.5892   21.4226  -33.3494 H   0  0  0  0  0  0  0  0  0  0  0  0
   -6.1774   21.1771  -31.5959 H   0  0  0  0  0  0  0  0  0  0  0  0
   -5.9589   18.1389  -34.8392 H   0  0  0  0  0  0  0  0  0  0  0  0
   -3.6028   18.3467  -35.6152 H   0  0  0  0  0  0  0  0  0  0  0  0
   -0.1348   18.1684  -33.1669 H   0  0  0  0  0  0  0  0  0  0  0  0
   -1.1497   17.2542  -34.3345 H   0  0  0  0  0  0  0  0  0  0  0  0
    1.2499   17.5920  -35.0875 H   0  0  0  0  0  0  0  0  0  0  0  0
    0.0102   18.2539  -36.2233 H   0  0  0  0  0  0  0  0  0  0  0  0
    0.6114   21.6223  -35.4694 H   0  0  0  0  0  0  0  0  0  0  0  0
   -0.3388   20.4160  -36.4214 H   0  0  0  0  0  0  0  0  0  0  0  0
   -0.5706   21.0034  -33.4270 H   0  0  0  0  0  0  0  0  0  0  0  0
   -1.7864   21.3529  -34.7015 H   0  0  0  0  0  0  0  0  0  0  0  0
  1  2  2  0
  2  3  1  0
  3  4  1  0
  4  5  2  0
  5  6  1  0
  6  7  2  0
  7  8  1  0
  8  9  1  0
  9 10  2  0
  9 11  2  0
  9 12  1  0
 12 13  1  0
 13 14  1  0
 14 15  1  0
 15 16  1  0
  8 17  2  0
  2 18  1  0
 18 19  2  0
 19 20  1  0
 20 21  1  0
 21 22  2  0
 21 23  2  0
 21 24  1  0
 24 25  1  0
 25 26  1  0
 26 27  1  0
 27 28  1  0
 28 29  1  0
 20 30  2  0
 30 31  1  0
 31 32  2  0
 32 33  1  0
 33 34  1  0
 34 35  1  0
 35 36  1  0
 36 37  1  0
 37 38  1  0
 17  4  1  0
 32 18  1  0
 38 33  1  0
 16 12  1  0
 29 24  1  0
  3 39  1  0
  5 40  1  0
  6 41  1  0
  7 42  1  0
 13 43  1  0
 13 44  1  0
 14 45  1  0
 14 46  1  0
 15 47  1  0
 15 48  1  0
 16 49  1  0
 16 50  1  0
 17 51  1  0
 19 52  1  0
 25 53  1  0
 25 54  1  0
 26 55  1  0
 26 56  1  0
 27 57  1  0
 27 58  1  0
 28 59  1  0
 28 60  1  0
 29 61  1  0
 29 62  1  0
 30 63  1  0
 31 64  1  0
 34 65  1  0
 34 66  1  0
 35 67  1  0
 35 68  1  0
 37 69  1  0
 37 70  1  0
 38 71  1  0
 38 72  1  0
M  END
>  <UniqueID>  (36) 
35

>  <SMILES>  (36) 
O=C(Nc1cccc(S(=O)(=O)N2CCCC2)c1)c1cc(S(=O)(=O)N2CCCCC2)ccc1N1CCOCC1

>  <Energy>  (36) 
89.68645977142076

>  <Genealogy>  (36) 
O=C(Nc1cccc(S(=O)(=O)N2CCCC2)c1)c1cc(S(=O)(=O)N2CCCCC2)ccc1N1CCOCC1 (3D coordinates assigned)
O=C(Nc1cccc(S(=O)(=O)N2CCCC2)c1)c1cc(S(=O)(=O)N2CCCCC2)ccc1N1CCOCC1 (nonaromatic ring conformer: 89.68645977142076 kcal/mol)

>  <smiles>  (36) 
O=C(Nc1cccc(S(=O)(=O)N2CCCC2)c1)c1cc(S(=O)(=O)N2CCCCC2)ccc1N1CCOCC1

>  <score_type>  (36) 
oracle

>  <origin>  (36) 
adgpu

>  <m_score__min__energy>  (36) 
-10.94

>  <m_primary>  (36) 
energy

$$$$
36:0
     RDKit          3D

 47 50  0  0  0  0  0  0  0  0999 V2000
   -3.3280   25.6700  -25.8350 C   0  0  0  0  0  0  0  0  0  0  0  0
   -2.0440   25.5430  -25.4830 C   0  0  0  0  0  0  0  0  0  0  0  0
   -1.5510   26.1600  -24.3910 N   0  0  0  0  0  0  0  0  0  0  0  0
   -0.3050   25.7040  -24.1930 C   0  0  0  0  0  0  0  0  0  0  0  0
    0.0340   24.7920  -25.1750 C   0  0  0  0  0  0  0  0  0  0  0  0
    1.3660   24.1550  -25.2780 C   0  0  0  0  0  0  0  0  0  0  0  0
    2.0070   23.8940  -24.2240 O   0  0  0  0  0  0  0  0  0  0  0  0
    1.9330   23.8800  -26.5260 O   0  0  0  0  0  0  0  0  0  0  0  0
    2.1520   24.8840  -27.5090 C   0  0  0  0  0  0  0  0  0  0  0  0
   -1.0670   24.6940  -26.0360 C   0  0  0  0  0  0  0  0  0  0  0  0
   -1.1370   23.9030  -27.1280 C   0  0  0  0  0  0  0  0  0  0  0  0
   -2.1150   24.0350  -28.2190 C   0  0  0  0  0  0  0  0  0  0  0  0
   -3.0620   23.1200  -28.4840 N   0  0  0  0  0  0  0  0  0  0  0  0
   -3.6430   23.5670  -29.6230 C   0  0  0  0  0  0  0  0  0  0  0  0
   -4.7650   22.8690  -30.2870 C   0  0  0  0  0  0  0  0  0  0  0  0
   -6.0660   23.4000  -30.2360 C   0  0  0  0  0  0  0  0  0  0  0  0
   -7.1260   22.7380  -30.8620 C   0  0  0  0  0  0  0  0  0  0  0  0
   -6.9010   21.5370  -31.5420 C   0  0  0  0  0  0  0  0  0  0  0  0
   -8.2640   20.6840  -32.3350 S   0  0  0  0  0  0  0  0  0  0  0  0
   -7.2190   19.3340  -32.8860 C   0  0  0  0  0  0  0  0  0  0  0  0
   -7.1540   18.1480  -32.1430 C   0  0  0  0  0  0  0  0  0  0  0  0
   -6.3430   17.0950  -32.5760 C   0  0  0  0  0  0  0  0  0  0  0  0
   -5.5930   17.2250  -33.7500 C   0  0  0  0  0  0  0  0  0  0  0  0
   -5.6530   18.4090  -34.4900 C   0  0  0  0  0  0  0  0  0  0  0  0
   -6.4640   19.4640  -34.0590 C   0  0  0  0  0  0  0  0  0  0  0  0
   -5.6100   21.0030  -31.6030 C   0  0  0  0  0  0  0  0  0  0  0  0
   -4.5460   21.6640  -30.9790 C   0  0  0  0  0  0  0  0  0  0  0  0
   -3.0860   24.7030  -30.1080 N   0  0  0  0  0  0  0  0  0  0  0  0
   -2.1180   24.9760  -29.2200 C   0  0  0  0  0  0  0  0  0  0  0  0
   -1.2390   26.0450  -29.3410 O   0  0  0  0  0  0  0  0  0  0  0  0
   -3.7061   25.1560  -26.7311 H   0  0  0  0  0  0  0  0  0  0  0  0
   -4.0060   26.2884  -25.2285 H   0  0  0  0  0  0  0  0  0  0  0  0
   -2.0560   26.8320  -23.7690 H   0  0  0  0  0  0  0  0  0  0  0  0
    0.3531   26.0119  -23.3671 H   0  0  0  0  0  0  0  0  0  0  0  0
    2.3612   25.8433  -27.0130 H   0  0  0  0  0  0  0  0  0  0  0  0
    3.0096   24.6013  -28.1372 H   0  0  0  0  0  0  0  0  0  0  0  0
    1.2546   24.9841  -28.1372 H   0  0  0  0  0  0  0  0  0  0  0  0
   -0.3998   23.0905  -27.2088 H   0  0  0  0  0  0  0  0  0  0  0  0
   -6.2508   24.3426  -29.6999 H   0  0  0  0  0  0  0  0  0  0  0  0
   -8.1398   23.1628  -30.8196 H   0  0  0  0  0  0  0  0  0  0  0  0
   -7.7413   18.0454  -31.2186 H   0  0  0  0  0  0  0  0  0  0  0  0
   -6.2944   16.1633  -31.9932 H   0  0  0  0  0  0  0  0  0  0  0  0
   -4.9561   16.3953  -34.0905 H   0  0  0  0  0  0  0  0  0  0  0  0
   -5.0620   18.5113  -35.4121 H   0  0  0  0  0  0  0  0  0  0  0  0
   -6.5090   20.3962  -34.6413 H   0  0  0  0  0  0  0  0  0  0  0  0
   -5.4305   20.0614  -32.1426 H   0  0  0  0  0  0  0  0  0  0  0  0
   -3.5327   21.2389  -31.0299 H   0  0  0  0  0  0  0  0  0  0  0  0
  1  2  2  0
  2  3  1  0
  3  4  1  0
  4  5  2  0
  5  6  1  0
  6  7  2  0
  6  8  1  0
  8  9  1  0
  5 10  1  0
 10 11  2  3
 11 12  1  0
 12 13  1  0
 13 14  1  0
 14 15  1  0
 15 16  2  0
 16 17  1  0
 17 18  2  0
 18 19  1  0
 19 20  1  0
 20 21  2  0
 21 22  1  0
 22 23  2  0
 23 24  1  0
 24 25  2  0
 18 26  1  0
 26 27  2  0
 14 28  2  0
 28 29  1  0
 29 30  1  0
 10  2  1  0
 29 12  2  0
 27 15  1  0
 25 20  1  0
  1 31  1  0
  1 32  1  0
  3 33  1  0
  4 34  1  0
  9 35  1  0
  9 36  1  0
  9 37  1  0
 11 38  1  0
 16 39  1  0
 17 40  1  0
 21 41  1  0
 22 42  1  0
 23 43  1  0
 24 44  1  0
 25 45  1  0
 26 46  1  0
 27 47  1  0
M  CHG  2  13  -1  30  -1
M  END
>  <UniqueID>  (37) 
36

>  <SMILES>  (37) 
C=c1[nH]cc(C(=O)OC)c1=Cc1[n-]c(-c2ccc(Sc3ccccc3)cc2)nc1[O-]

>  <Energy>  (37) 
116.01682126729699

>  <Genealogy>  (37) 
C=c1[nH]cc(C(=O)OC)c1=Cc1[n-]c(-c2ccc(Sc3ccccc3)cc2)nc1[O-] (protonated)
C=c1[nH]cc(C(=O)OC)c1=Cc1[n-]c(-c2ccc(Sc3ccccc3)cc2)nc1[O-] (3D coordinates assigned)
C=c1[nH]cc(C(=O)OC)c1=Cc1[n-]c(-c2ccc(Sc3ccccc3)cc2)nc1[O-] (optimized conformer: 116.01682126729699 kcal/mol)

>  <smiles>  (37) 
C=c1[nH]cc(C(=O)OC)c1=Cc1[nH]c(-c2ccc(Sc3ccccc3)cc2)nc1O

>  <score_type>  (37) 
oracle

>  <origin>  (37) 
adgpu

>  <m_score__min__energy>  (37) 
-13.359999999999999

>  <m_primary>  (37) 
energy

$$$$
37:0
     RDKit          3D

 45 48  0  0  0  0  0  0  0  0999 V2000
   -3.5230   25.1920  -30.3810 O   0  0  0  0  0  0  0  0  0  0  0  0
   -3.4400   24.1550  -29.6700 C   0  0  0  0  0  0  0  0  0  0  0  0
   -4.5720   23.2810  -29.5530 N   0  0  0  0  0  0  0  0  0  0  0  0
   -5.6300   23.1180  -30.5110 C   0  0  0  0  0  0  0  0  0  0  0  0
   -6.8880   23.7220  -30.3170 C   0  0  0  0  0  0  0  0  0  0  0  0
   -7.9150   23.5290  -31.2440 C   0  0  0  0  0  0  0  0  0  0  0  0
   -7.7030   22.7250  -32.3650 C   0  0  0  0  0  0  0  0  0  0  0  0
   -6.4690   22.1030  -32.5570 C   0  0  0  0  0  0  0  0  0  0  0  0
   -5.4300   22.2870  -31.6310 C   0  0  0  0  0  0  0  0  0  0  0  0
   -3.8800   21.4760  -31.8800 S   0  0  0  0  0  0  0  0  0  0  0  0
   -3.7130   20.3850  -30.8600 O   0  0  0  0  0  0  0  0  0  0  0  0
   -2.7510   22.4560  -31.7260 O   0  0  0  0  0  0  0  0  0  0  0  0
   -3.8280   20.7900  -33.4700 N   0  0  0  0  0  0  0  0  0  0  0  0
   -3.8060   19.3760  -33.6840 C   0  0  0  0  0  0  0  0  0  0  0  0
   -2.6120   18.7870  -34.1130 C   0  0  0  0  0  0  0  0  0  0  0  0
   -2.5510   17.4190  -34.3800 C   0  0  0  0  0  0  0  0  0  0  0  0
   -3.6820   16.6160  -34.2170 C   0  0  0  0  0  0  0  0  0  0  0  0
   -3.5920   15.2570  -34.5030 O   0  0  0  0  0  0  0  0  0  0  0  0
   -4.8900   17.1820  -33.7630 C   0  0  0  0  0  0  0  0  0  0  0  0
   -6.0330   16.3830  -33.5770 C   0  0  0  0  0  0  0  0  0  0  0  0
   -7.2190   16.9480  -33.1020 C   0  0  0  0  0  0  0  0  0  0  0  0
   -7.2750   18.3080  -32.7980 C   0  0  0  0  0  0  0  0  0  0  0  0
   -6.1520   19.1160  -32.9780 C   0  0  0  0  0  0  0  0  0  0  0  0
   -4.9520   18.5730  -33.4790 C   0  0  0  0  0  0  0  0  0  0  0  0
   -2.1500   23.8090  -29.0170 C   0  0  0  0  0  0  0  0  0  0  0  0
   -1.9460   22.5000  -28.5370 C   0  0  0  0  0  0  0  0  0  0  0  0
   -0.7480   22.1480  -27.9110 C   0  0  0  0  0  0  0  0  0  0  0  0
    0.2670   23.0920  -27.7580 C   0  0  0  0  0  0  0  0  0  0  0  0
    1.4570   22.7400  -27.1350 O   0  0  0  0  0  0  0  0  0  0  0  0
    0.0860   24.3930  -28.2340 C   0  0  0  0  0  0  0  0  0  0  0  0
   -1.1100   24.7560  -28.8650 C   0  0  0  0  0  0  0  0  0  0  0  0
   -1.2380   26.0550  -29.3440 O   0  0  0  0  0  0  0  0  0  0  0  0
   -7.0625   24.3492  -29.4304 H   0  0  0  0  0  0  0  0  0  0  0  0
   -8.8917   24.0111  -31.0903 H   0  0  0  0  0  0  0  0  0  0  0  0
   -8.5102   22.5815  -33.0984 H   0  0  0  0  0  0  0  0  0  0  0  0
   -6.3093   21.4650  -33.4387 H   0  0  0  0  0  0  0  0  0  0  0  0
   -1.7131   19.4080  -34.2410 H   0  0  0  0  0  0  0  0  0  0  0  0
   -1.6064   16.9701  -34.7210 H   0  0  0  0  0  0  0  0  0  0  0  0
   -5.9925   15.3080  -33.8068 H   0  0  0  0  0  0  0  0  0  0  0  0
   -8.1111   16.3186  -32.9674 H   0  0  0  0  0  0  0  0  0  0  0  0
   -8.2086   18.7455  -32.4147 H   0  0  0  0  0  0  0  0  0  0  0  0
   -6.2037   20.1857  -32.7268 H   0  0  0  0  0  0  0  0  0  0  0  0
   -2.7389   21.7470  -28.6566 H   0  0  0  0  0  0  0  0  0  0  0  0
   -0.6048   21.1233  -27.5376 H   0  0  0  0  0  0  0  0  0  0  0  0
    0.8877   25.1363  -28.1123 H   0  0  0  0  0  0  0  0  0  0  0  0
  1  2  2  0
  2  3  1  0
  3  4  1  0
  4  5  2  0
  5  6  1  0
  6  7  2  0
  7  8  1  0
  8  9  2  0
  9 10  1  0
 10 11  2  0
 10 12  2  0
 10 13  1  0
 13 14  1  0
 14 15  2  0
 15 16  1  0
 16 17  2  0
 17 18  1  0
 17 19  1  0
 19 20  2  0
 20 21  1  0
 21 22  2  0
 22 23  1  0
 23 24  2  0
  2 25  1  0
 25 26  2  0
 26 27  1  0
 27 28  2  0
 28 29  1  0
 28 30  1  0
 30 31  2  0
 31 32  1  0
  9  4  1  0
 24 14  1  0
 31 25  1  0
 24 19  1  0
  5 33  1  0
  6 34  1  0
  7 35  1  0
  8 36  1  0
 15 37  1  0
 16 38  1  0
 20 39  1  0
 21 40  1  0
 22 41  1  0
 23 42  1  0
 26 43  1  0
 27 44  1  0
 30 45  1  0
M  CHG  5   3  -1  13  -1  18  -1  29  -1  32  -1
M  END
>  <UniqueID>  (38) 
37

>  <SMILES>  (38) 
O=C([N-]c1ccccc1S(=O)(=O)[N-]c1ccc([O-])c2ccccc12)c1ccc([O-])cc1[O-]

>  <Energy>  (38) 
71.8100920644405

>  <Genealogy>  (38) 
O=C([N-]c1ccccc1S(=O)(=O)[N-]c1ccc([O-])c2ccccc12)c1ccc([O-])cc1[O-] (protonated)
O=C([N-]c1ccccc1S(=O)(=O)[N-]c1ccc([O-])c2ccccc12)c1ccc([O-])cc1[O-] (3D coordinates assigned)
O=C([N-]c1ccccc1S(=O)(=O)[N-]c1ccc([O-])c2ccccc12)c1ccc([O-])cc1[O-] (optimized conformer: 71.8100920644405 kcal/mol)

>  <smiles>  (38) 
O=C(Nc1ccccc1S(=O)(=O)Nc1ccc(O)c2ccccc12)c1ccc(O)cc1O

>  <score_type>  (38) 
oracle

>  <origin>  (38) 
adgpu

>  <m_score__min__energy>  (38) 
-13.41

>  <m_primary>  (38) 
energy

$$$$
38:0
     RDKit          3D

 39 41  0  0  0  0  0  0  0  0999 V2000
   -0.8240   25.0670  -28.9470 O   0  0  0  0  0  0  0  0  0  0  0  0
   -1.7750   24.3190  -29.2970 C   0  0  0  0  0  0  0  0  0  0  0  0
   -3.0020   24.9260  -29.7270 N   0  0  0  0  0  0  0  0  0  0  0  0
   -4.0800   24.2710  -30.4120 C   0  0  0  0  0  0  0  0  0  0  0  0
   -5.3820   24.7510  -30.2360 C   0  0  0  0  0  0  0  0  0  0  0  0
   -6.4530   24.1370  -30.8880 C   0  0  0  0  0  0  0  0  0  0  0  0
   -6.2330   23.0320  -31.7130 C   0  0  0  0  0  0  0  0  0  0  0  0
   -4.9360   22.5170  -31.8840 C   0  0  0  0  0  0  0  0  0  0  0  0
   -4.6990   21.3430  -32.7580 C   0  0  0  0  0  0  0  0  0  0  0  0
   -3.5380   20.8610  -32.8610 O   0  0  0  0  0  0  0  0  0  0  0  0
   -5.7950   20.7260  -33.4460 N   0  0  0  0  0  0  0  0  0  0  0  0
   -6.8010   19.8800  -32.8700 C   0  0  0  0  0  0  0  0  0  0  0  0
   -8.1460   20.2890  -32.7710 C   0  0  0  0  0  0  0  0  0  0  0  0
   -9.0960   19.4490  -32.1820 C   0  0  0  0  0  0  0  0  0  0  0  0
   -8.7140   18.2060  -31.6730 C   0  0  0  0  0  0  0  0  0  0  0  0
   -7.3780   17.8030  -31.7440 C   0  0  0  0  0  0  0  0  0  0  0  0
   -6.4190   18.6390  -32.3340 C   0  0  0  0  0  0  0  0  0  0  0  0
   -5.0840   18.2410  -32.3960 O   0  0  0  0  0  0  0  0  0  0  0  0
   -3.8640   23.1380  -31.2170 C   0  0  0  0  0  0  0  0  0  0  0  0
   -1.5790   22.8500  -29.3010 C   0  0  0  0  0  0  0  0  0  0  0  0
   -0.8280   22.2410  -30.3220 C   0  0  0  0  0  0  0  0  0  0  0  0
   -0.6300   20.8580  -30.3260 C   0  0  0  0  0  0  0  0  0  0  0  0
   -1.1830   20.0680  -29.3160 C   0  0  0  0  0  0  0  0  0  0  0  0
   -1.9440   20.6590  -28.3030 C   0  0  0  0  0  0  0  0  0  0  0  0
   -2.6460   19.6650  -27.0380 Cl  0  0  0  0  0  0  0  0  0  0  0  0
   -2.1490   22.0420  -28.2990 C   0  0  0  0  0  0  0  0  0  0  0  0
   -5.5628   25.6160  -29.5810 H   0  0  0  0  0  0  0  0  0  0  0  0
   -7.4733   24.5248  -30.7514 H   0  0  0  0  0  0  0  0  0  0  0  0
   -7.0805   22.5612  -32.2327 H   0  0  0  0  0  0  0  0  0  0  0  0
   -8.4496   21.2727  -33.1585 H   0  0  0  0  0  0  0  0  0  0  0  0
  -10.1468   19.7681  -32.1194 H   0  0  0  0  0  0  0  0  0  0  0  0
   -9.4647   17.5443  -31.2163 H   0  0  0  0  0  0  0  0  0  0  0  0
   -7.0775   16.8268  -31.3358 H   0  0  0  0  0  0  0  0  0  0  0  0
   -4.3590   18.8670  -32.7260 H   0  0  0  0  0  0  0  0  0  0  0  0
   -2.8469   22.7334  -31.3262 H   0  0  0  0  0  0  0  0  0  0  0  0
   -0.3936   22.8575  -31.1228 H   0  0  0  0  0  0  0  0  0  0  0  0
   -0.0374   20.3906  -31.1262 H   0  0  0  0  0  0  0  0  0  0  0  0
   -1.0198   18.9802  -29.3174 H   0  0  0  0  0  0  0  0  0  0  0  0
   -2.7596   22.5017  -27.5079 H   0  0  0  0  0  0  0  0  0  0  0  0
  1  2  2  0
  2  3  1  0
  3  4  1  0
  4  5  2  0
  5  6  1  0
  6  7  2  0
  7  8  1  0
  8  9  1  0
  9 10  2  0
  9 11  1  0
 11 12  1  0
 12 13  2  0
 13 14  1  0
 14 15  2  0
 15 16  1  0
 16 17  2  0
 17 18  1  0
  8 19  2  0
  2 20  1  0
 20 21  2  0
 21 22  1  0
 22 23  2  0
 23 24  1  0
 24 25  1  0
 24 26  2  0
 19  4  1  0
 26 20  1  0
 17 12  1  0
  5 27  1  0
  6 28  1  0
  7 29  1  0
 13 30  1  0
 14 31  1  0
 15 32  1  0
 16 33  1  0
 18 34  1  0
 19 35  1  0
 21 36  1  0
 22 37  1  0
 23 38  1  0
 26 39  1  0
M  CHG  2   3  -1  11  -1
M  END
>  <UniqueID>  (39) 
38

>  <SMILES>  (39) 
O=C([N-]c1cccc(C(=O)[N-]c2ccccc2O)c1)c1cccc(Cl)c1

>  <Energy>  (39) 
52.60693476100437

>  <Genealogy>  (39) 
O=C([N-]c1cccc(C(=O)[N-]c2ccccc2O)c1)c1cccc(Cl)c1 (protonated)
O=C([N-]c1cccc(C(=O)[N-]c2ccccc2O)c1)c1cccc(Cl)c1 (3D coordinates assigned)
O=C([N-]c1cccc(C(=O)[N-]c2ccccc2O)c1)c1cccc(Cl)c1 (optimized conformer: 52.60693476100437 kcal/mol)

>  <smiles>  (39) 
O=C(Nc1cccc(C(=O)Nc2ccccc2O)c1)c1cccc(Cl)c1

>  <score_type>  (39) 
oracle

>  <origin>  (39) 
adgpu

>  <m_score__min__energy>  (39) 
-11.16

>  <m_primary>  (39) 
energy

$$$$
39:0
     RDKit          3D

 70 73  0  0  0  0  0  0  0  0999 V2000
   -0.8050   25.0720  -26.6370 C   0  0  0  0  0  0  0  0  0  0  0  0
   -1.6880   24.8480  -27.7910 N   0  0  0  0  0  0  0  0  0  0  0  0
   -2.7160   23.8360  -27.4580 C   0  0  0  0  0  0  0  0  0  0  0  0
   -3.4060   23.2940  -28.7120 C   0  0  0  0  0  0  0  0  0  0  0  0
   -2.4150   22.7070  -29.6230 N   0  0  0  0  0  0  0  0  0  0  0  0
   -2.8120   21.7200  -30.6010 C   0  0  0  0  0  0  0  0  0  0  0  0
   -2.3000   21.7390  -31.9050 C   0  0  0  0  0  0  0  0  0  0  0  0
   -2.7140   20.8220  -32.8160 N   0  0  0  0  0  0  0  0  0  0  0  0
   -3.6240   19.8630  -32.4920 C   0  0  0  0  0  0  0  0  0  0  0  0
   -4.0880   18.9300  -33.4930 N   0  0  0  0  0  0  0  0  0  0  0  0
   -5.3410   19.2360  -34.2140 C   0  0  0  0  0  0  0  0  0  0  0  0
   -6.4960   19.3430  -33.2510 C   0  0  0  0  0  0  0  0  0  0  0  0
   -7.3860   18.2710  -33.0830 C   0  0  0  0  0  0  0  0  0  0  0  0
   -8.4570   18.3800  -32.1930 C   0  0  0  0  0  0  0  0  0  0  0  0
   -8.6510   19.5570  -31.4650 C   0  0  0  0  0  0  0  0  0  0  0  0
   -7.7620   20.6400  -31.6090 C   0  0  0  0  0  0  0  0  0  0  0  0
   -7.9630   21.9040  -30.8590 C   0  0  0  0  0  0  0  0  0  0  0  0
   -9.1110   22.1830  -30.4130 O   0  0  0  0  0  0  0  0  0  0  0  0
   -6.8730   22.8150  -30.6300 N   0  0  0  0  0  0  0  0  0  0  0  0
   -6.9990   23.9680  -29.7400 C   0  0  0  0  0  0  0  0  0  0  0  0
   -6.3300   25.1960  -30.3610 C   0  0  0  0  0  0  0  0  0  0  0  0
   -4.9640   24.8520  -30.8700 C   0  0  0  0  0  0  0  0  0  0  0  0
   -4.7910   23.8240  -31.5800 O   0  0  0  0  0  0  0  0  0  0  0  0
   -3.8810   25.6700  -30.5720 O   0  0  0  0  0  0  0  0  0  0  0  0
   -6.6890   20.5220  -32.5130 C   0  0  0  0  0  0  0  0  0  0  0  0
   -3.2030   17.7980  -33.8510 C   0  0  0  0  0  0  0  0  0  0  0  0
   -3.8210   16.4410  -33.6160 C   0  0  0  0  0  0  0  0  0  0  0  0
   -4.9800   16.0610  -34.3120 C   0  0  0  0  0  0  0  0  0  0  0  0
   -5.5270   14.7880  -34.1270 C   0  0  0  0  0  0  0  0  0  0  0  0
   -4.9110   13.8770  -33.2630 C   0  0  0  0  0  0  0  0  0  0  0  0
   -3.7310   14.2310  -32.5790 C   0  0  0  0  0  0  0  0  0  0  0  0
   -3.0570   13.2650  -31.6370 C   0  0  0  0  0  0  0  0  0  0  0  0
   -2.9950   11.9910  -32.1840 F   0  0  0  0  0  0  0  0  0  0  0  0
   -1.7630   13.6820  -31.3710 F   0  0  0  0  0  0  0  0  0  0  0  0
   -3.7660   13.2140  -30.4520 F   0  0  0  0  0  0  0  0  0  0  0  0
   -3.2120   15.5280  -32.7360 C   0  0  0  0  0  0  0  0  0  0  0  0
   -4.1160   19.8140  -31.2240 N   0  0  0  0  0  0  0  0  0  0  0  0
   -3.7290   20.7090  -30.2800 C   0  0  0  0  0  0  0  0  0  0  0  0
   -1.0060   23.0950  -29.4820 C   0  0  0  0  0  0  0  0  0  0  0  0
   -0.9070   24.5560  -29.0200 C   0  0  0  0  0  0  0  0  0  0  0  0
   -1.3738   24.9277  -25.7066 H   0  0  0  0  0  0  0  0  0  0  0  0
    0.0306   24.3574  -26.6705 H   0  0  0  0  0  0  0  0  0  0  0  0
   -0.4111   26.0985  -26.6705 H   0  0  0  0  0  0  0  0  0  0  0  0
   -2.2352   23.0012  -26.9270 H   0  0  0  0  0  0  0  0  0  0  0  0
   -3.4789   24.3174  -26.8286 H   0  0  0  0  0  0  0  0  0  0  0  0
   -4.1341   22.5224  -28.4213 H   0  0  0  0  0  0  0  0  0  0  0  0
   -3.9193   24.1208  -29.2248 H   0  0  0  0  0  0  0  0  0  0  0  0
   -1.5595   22.5002  -32.1917 H   0  0  0  0  0  0  0  0  0  0  0  0
   -5.2265   20.1906  -34.7484 H   0  0  0  0  0  0  0  0  0  0  0  0
   -5.5475   18.4232  -34.9259 H   0  0  0  0  0  0  0  0  0  0  0  0
   -7.2397   17.3422  -33.6539 H   0  0  0  0  0  0  0  0  0  0  0  0
   -9.1506   17.5359  -32.0646 H   0  0  0  0  0  0  0  0  0  0  0  0
   -9.5037   19.6382  -30.7749 H   0  0  0  0  0  0  0  0  0  0  0  0
   -6.0030   22.7360  -31.2000 H   0  0  0  0  0  0  0  0  0  0  0  0
   -8.0649   24.1818  -29.5723 H   0  0  0  0  0  0  0  0  0  0  0  0
   -6.5052   23.7372  -28.7846 H   0  0  0  0  0  0  0  0  0  0  0  0
   -6.9461   25.5594  -31.1967 H   0  0  0  0  0  0  0  0  0  0  0  0
   -6.2352   25.9755  -29.5907 H   0  0  0  0  0  0  0  0  0  0  0  0
   -5.9931   21.3640  -32.6428 H   0  0  0  0  0  0  0  0  0  0  0  0
   -2.9471   17.8821  -34.9175 H   0  0  0  0  0  0  0  0  0  0  0  0
   -2.3198   17.8642  -33.1986 H   0  0  0  0  0  0  0  0  0  0  0  0
   -5.4592   16.7678  -35.0054 H   0  0  0  0  0  0  0  0  0  0  0  0
   -6.4444   14.5020  -34.6624 H   0  0  0  0  0  0  0  0  0  0  0  0
   -5.3499   12.8790  -33.1166 H   0  0  0  0  0  0  0  0  0  0  0  0
   -2.3218   15.8316  -32.1657 H   0  0  0  0  0  0  0  0  0  0  0  0
   -4.1358   20.6411  -29.2603 H   0  0  0  0  0  0  0  0  0  0  0  0
   -0.5217   22.4444  -28.7389 H   0  0  0  0  0  0  0  0  0  0  0  0
   -0.5034   22.9892  -30.4547 H   0  0  0  0  0  0  0  0  0  0  0  0
    0.1502   24.7869  -28.8226 H   0  0  0  0  0  0  0  0  0  0  0  0
   -1.3292   25.1766  -29.8241 H   0  0  0  0  0  0  0  0  0  0  0  0
  1  2  1  0
  2  3  1  0
  3  4  1  0
  4  5  1  0
  5  6  1  0
  6  7  2  0
  7  8  1  0
  8  9  2  0
  9 10  1  0
 10 11  1  0
 11 12  1  0
 12 13  2  0
 13 14  1  0
 14 15  2  0
 15 16  1  0
 16 17  1  0
 17 18  2  0
 17 19  1  0
 19 20  1  0
 20 21  1  0
 21 22  1  0
 22 23  2  0
 22 24  1  0
 16 25  2  0
 10 26  1  0
 26 27  1  0
 27 28  2  0
 28 29  1  0
 29 30  2  0
 30 31  1  0
 31 32  1  0
 32 33  1  0
 32 34  1  0
 32 35  1  0
 31 36  2  0
  9 37  1  0
 37 38  2  0
  5 39  1  0
 39 40  1  0
 40  2  1  0
 38  6  1  0
 25 12  1  0
 36 27  1  0
  1 41  1  0
  1 42  1  0
  1 43  1  0
  3 44  1  0
  3 45  1  0
  4 46  1  0
  4 47  1  0
  7 48  1  0
 11 49  1  0
 11 50  1  0
 13 51  1  0
 14 52  1  0
 15 53  1  0
 19 54  1  0
 20 55  1  0
 20 56  1  0
 21 57  1  0
 21 58  1  0
 25 59  1  0
 26 60  1  0
 26 61  1  0
 28 62  1  0
 29 63  1  0
 30 64  1  0
 36 65  1  0
 38 66  1  0
 39 67  1  0
 39 68  1  0
 40 69  1  0
 40 70  1  0
M  CHG  1  24  -1
M  END
>  <UniqueID>  (40) 
39

>  <SMILES>  (40) 
CN1CCN(c2cnc(N(Cc3cccc(C(=O)NCCC(=O)[O-])c3)Cc3cccc(C(F)(F)F)c3)nc2)CC1

>  <Energy>  (40) 
82.37392462708947

>  <Genealogy>  (40) 
CN1CCN(c2cnc(N(Cc3cccc(C(=O)NCCC(=O)[O-])c3)Cc3cccc(C(F)(F)F)c3)nc2)CC1 (protonated)
CN1CCN(c2cnc(N(Cc3cccc(C(=O)NCCC(=O)[O-])c3)Cc3cccc(C(F)(F)F)c3)nc2)CC1 (3D coordinates assigned)
CN1CCN(c2cnc(N(Cc3cccc(C(=O)NCCC(=O)[O-])c3)Cc3cccc(C(F)(F)F)c3)nc2)CC1 (nonaromatic ring conformer: 82.37392462708947 kcal/mol)

>  <smiles>  (40) 
CN1CCN(c2cnc(N(Cc3cccc(C(=O)NCCC(=O)O)c3)Cc3cccc(C(F)(F)F)c3)nc2)CC1

>  <score_type>  (40) 
oracle

>  <origin>  (40) 
adgpu

>  <m_score__min__energy>  (40) 
-11.15

>  <m_primary>  (40) 
energy

$$$$
40:0
     RDKit          3D

 29 30  0  0  0  0  0  0  0  0999 V2000
   -5.4846   21.6967  -32.5394 H   0  0  0  0  0  0  0  0  0  0  0  0
   -5.1720   20.7380  -32.1000 C   0  0  0  0  0  0  0  0  0  0  0  0
   -4.2700   20.7450  -31.1060 C   0  0  0  0  0  0  0  0  0  0  0  0
   -3.9722   19.7806  -30.6686 H   0  0  0  0  0  0  0  0  0  0  0  0
   -3.6520   21.9800  -30.5640 C   0  0  0  0  0  0  0  0  0  0  0  0
   -2.6560   21.8580  -29.5830 C   0  0  0  0  0  0  0  0  0  0  0  0
   -2.3477   20.8589  -29.2413 H   0  0  0  0  0  0  0  0  0  0  0  0
   -2.0520   22.9930  -29.0360 C   0  0  0  0  0  0  0  0  0  0  0  0
   -1.2664   22.8809  -28.2743 H   0  0  0  0  0  0  0  0  0  0  0  0
   -2.4430   24.2790  -29.4540 C   0  0  0  0  0  0  0  0  0  0  0  0
   -1.8620   25.4460  -28.9330 O   0  0  0  0  0  0  0  0  0  0  0  0
   -1.2620   25.5400  -27.6440 C   0  0  0  0  0  0  0  0  0  0  0  0
   -2.0345   25.4190  -26.8703 H   0  0  0  0  0  0  0  0  0  0  0  0
   -0.5052   24.7495  -27.5333 H   0  0  0  0  0  0  0  0  0  0  0  0
   -0.7832   26.5241  -27.5333 H   0  0  0  0  0  0  0  0  0  0  0  0
   -3.4490   24.4050  -30.4190 C   0  0  0  0  0  0  0  0  0  0  0  0
   -3.8590   25.6670  -30.8350 O   0  0  0  0  0  0  0  0  0  0  0  0
   -4.0530   23.2680  -30.9680 C   0  0  0  0  0  0  0  0  0  0  0  0
   -4.8470   23.3814  -31.7208 H   0  0  0  0  0  0  0  0  0  0  0  0
   -5.7600   19.4880  -32.6250 C   0  0  0  0  0  0  0  0  0  0  0  0
   -5.2400   18.8830  -33.7310 N   0  0  0  0  0  0  0  0  0  0  0  0
   -5.7600   17.7310  -34.2340 C   0  0  0  0  0  0  0  0  0  0  0  0
   -5.3130   17.2702  -35.1272 H   0  0  0  0  0  0  0  0  0  0  0  0
   -6.8610   17.1330  -33.6170 C   0  0  0  0  0  0  0  0  0  0  0  0
   -7.2871   16.2025  -34.0202 H   0  0  0  0  0  0  0  0  0  0  0  0
   -7.4140   17.7290  -32.4840 C   0  0  0  0  0  0  0  0  0  0  0  0
   -8.2807   17.2687  -31.9871 H   0  0  0  0  0  0  0  0  0  0  0  0
   -6.8660   18.9110  -31.9810 C   0  0  0  0  0  0  0  0  0  0  0  0
   -7.2974   19.3860  -31.0875 H   0  0  0  0  0  0  0  0  0  0  0  0
  1  2  1  0
  2  3  2  0
  3  4  1  0
  3  5  1  0
  5  6  2  0
  6  7  1  0
  6  8  1  0
  8  9  1  0
  8 10  2  0
 10 11  1  0
 11 12  1  0
 12 13  1  0
 12 14  1  0
 12 15  1  0
 10 16  1  0
 16 17  1  0
 16 18  2  0
 18 19  1  0
  2 20  1  0
 20 21  2  0
 21 22  1  0
 22 23  1  0
 22 24  2  0
 24 25  1  0
 24 26  1  0
 26 27  1  0
 26 28  2  0
 28 29  1  0
 18  5  1  0
 28 20  1  0
M  CHG  1  17  -1
M  END
>  <UniqueID>  (41) 
40

>  <SMILES>  (41) 
COc1ccc(/C=C/c2ccccn2)cc1[O-]

>  <Energy>  (41) 
32.189522070676674

>  <Genealogy>  (41) 
COc1ccc(C=Cc2ccccn2)cc1[O-] (protonated)
COc1ccc(/C=C/c2ccccn2)cc1[O-] (cis-trans isomerization)
COc1ccc(/C=C/c2ccccn2)cc1[O-] (3D coordinates assigned)
COc1ccc(/C=C/c2ccccn2)cc1[O-] (optimized conformer: 32.189522070676674 kcal/mol)

>  <smiles>  (41) 
COc1ccc(C=Cc2ccccn2)cc1O

>  <score_type>  (41) 
oracle

>  <origin>  (41) 
adgpu

>  <m_score__min__energy>  (41) 
-9.7599999999999998

>  <m_primary>  (41) 
energy

$$$$
41:0
     RDKit          3D

 58 61  0  0  0  0  0  0  0  0999 V2000
   -6.1310   15.0810  -34.2200 C   0  0  0  0  0  0  0  0  0  0  0  0
   -5.8580   16.4970  -33.9330 N   0  0  0  0  0  0  0  0  0  0  0  0
   -4.9040   17.0680  -34.8930 C   0  0  0  0  0  0  0  0  0  0  0  0
   -5.4980   16.7510  -32.5180 C   0  0  0  0  0  0  0  0  0  0  0  0
   -6.0560   18.0620  -31.9190 C   0  0  0  0  0  0  0  0  0  0  0  0
   -6.7900   18.8400  -32.9180 N   0  0  0  0  0  0  0  0  0  0  0  0
   -7.6220   19.9630  -32.5700 C   0  0  0  0  0  0  0  0  0  0  0  0
   -9.0190   19.8510  -32.6870 C   0  0  0  0  0  0  0  0  0  0  0  0
   -9.8580   20.8840  -32.2750 C   0  0  0  0  0  0  0  0  0  0  0  0
   -9.3240   22.0420  -31.7160 C   0  0  0  0  0  0  0  0  0  0  0  0
   -7.9380   22.1870  -31.5810 C   0  0  0  0  0  0  0  0  0  0  0  0
   -7.4090   23.3480  -30.9950 C   0  0  0  0  0  0  0  0  0  0  0  0
   -6.0250   23.5110  -30.8630 C   0  0  0  0  0  0  0  0  0  0  0  0
   -5.3650   24.9070  -30.0150 S   0  0  0  0  0  0  0  0  0  0  0  0
   -6.4590   25.9010  -29.7380 O   0  0  0  0  0  0  0  0  0  0  0  0
   -4.3130   25.5800  -30.8500 O   0  0  0  0  0  0  0  0  0  0  0  0
   -4.7010   24.3690  -28.5090 N   0  0  0  0  0  0  0  0  0  0  0  0
   -3.5990   23.4580  -28.4480 C   0  0  0  0  0  0  0  0  0  0  0  0
   -3.7540   22.1830  -27.8860 C   0  0  0  0  0  0  0  0  0  0  0  0
   -2.6630   21.3090  -27.7910 C   0  0  0  0  0  0  0  0  0  0  0  0
   -1.3920   21.7290  -28.2340 C   0  0  0  0  0  0  0  0  0  0  0  0
   -1.2500   22.9910  -28.8300 C   0  0  0  0  0  0  0  0  0  0  0  0
   -2.3470   23.8560  -28.9360 C   0  0  0  0  0  0  0  0  0  0  0  0
   -2.1930   25.1220  -29.5040 O   0  0  0  0  0  0  0  0  0  0  0  0
   -0.2020   20.8020  -28.1570 C   0  0  0  0  0  0  0  0  0  0  0  0
   -0.3860   19.7390  -27.1580 N   0  0  0  0  0  0  0  0  0  0  0  0
   -1.6580   19.0380  -27.3770 C   0  0  0  0  0  0  0  0  0  0  0  0
   -2.8470   19.9740  -27.1160 C   0  0  0  0  0  0  0  0  0  0  0  0
   -5.1650   22.5210  -31.3430 C   0  0  0  0  0  0  0  0  0  0  0  0
   -5.6750   21.3550  -31.9230 C   0  0  0  0  0  0  0  0  0  0  0  0
   -7.0680   21.1540  -32.0260 C   0  0  0  0  0  0  0  0  0  0  0  0
   -6.2374   14.5291  -33.2744 H   0  0  0  0  0  0  0  0  0  0  0  0
   -7.0618   14.9973  -34.8001 H   0  0  0  0  0  0  0  0  0  0  0  0
   -5.2980   14.6572  -34.8001 H   0  0  0  0  0  0  0  0  0  0  0  0
   -4.0843   17.5586  -34.3477 H   0  0  0  0  0  0  0  0  0  0  0  0
   -4.4954   16.2658  -35.5251 H   0  0  0  0  0  0  0  0  0  0  0  0
   -5.4179   17.8071  -35.5251 H   0  0  0  0  0  0  0  0  0  0  0  0
   -5.8782   15.9132  -31.9151 H   0  0  0  0  0  0  0  0  0  0  0  0
   -4.4026   16.8489  -32.4959 H   0  0  0  0  0  0  0  0  0  0  0  0
   -6.7347   17.8151  -31.0893 H   0  0  0  0  0  0  0  0  0  0  0  0
   -5.2084   18.6675  -31.5656 H   0  0  0  0  0  0  0  0  0  0  0  0
   -6.8670   18.4320  -33.8770 H   0  0  0  0  0  0  0  0  0  0  0  0
   -9.4556   18.9343  -33.1100 H   0  0  0  0  0  0  0  0  0  0  0  0
  -10.9472   20.7843  -32.3918 H   0  0  0  0  0  0  0  0  0  0  0  0
   -9.9941   22.8466  -31.3789 H   0  0  0  0  0  0  0  0  0  0  0  0
   -8.0877   24.1360  -30.6367 H   0  0  0  0  0  0  0  0  0  0  0  0
   -4.7404   21.8661  -27.5165 H   0  0  0  0  0  0  0  0  0  0  0  0
   -0.2692   23.3040  -29.2173 H   0  0  0  0  0  0  0  0  0  0  0  0
   -2.9930   25.6720  -29.7950 H   0  0  0  0  0  0  0  0  0  0  0  0
   -0.0505   20.3384  -29.1429 H   0  0  0  0  0  0  0  0  0  0  0  0
    0.6709   21.3996  -27.8554 H   0  0  0  0  0  0  0  0  0  0  0  0
   -0.3940   20.1710  -26.2030 H   0  0  0  0  0  0  0  0  0  0  0  0
   -1.6999   18.6829  -28.4173 H   0  0  0  0  0  0  0  0  0  0  0  0
   -1.7176   18.1887  -26.6804 H   0  0  0  0  0  0  0  0  0  0  0  0
   -3.7632   19.5028  -27.5014 H   0  0  0  0  0  0  0  0  0  0  0  0
   -2.9181   20.1445  -26.0316 H   0  0  0  0  0  0  0  0  0  0  0  0
   -4.0766   22.6595  -31.2642 H   0  0  0  0  0  0  0  0  0  0  0  0
   -4.9841   20.5877  -32.3023 H   0  0  0  0  0  0  0  0  0  0  0  0
  1  2  1  0
  2  3  1  0
  2  4  1  0
  4  5  1  0
  5  6  1  0
  6  7  1  0
  7  8  2  0
  8  9  1  0
  9 10  2  0
 10 11  1  0
 11 12  2  0
 12 13  1  0
 13 14  1  0
 14 15  2  0
 14 16  2  0
 14 17  1  0
 17 18  1  0
 18 19  2  0
 19 20  1  0
 20 21  2  0
 21 22  1  0
 22 23  2  0
 23 24  1  0
 21 25  1  0
 25 26  1  0
 26 27  1  0
 27 28  1  0
 13 29  2  0
 29 30  1  0
 30 31  2  0
 31  7  1  0
 31 11  1  0
 23 18  1  0
 28 20  1  0
  1 32  1  0
  1 33  1  0
  1 34  1  0
  3 35  1  0
  3 36  1  0
  3 37  1  0
  4 38  1  0
  4 39  1  0
  5 40  1  0
  5 41  1  0
  6 42  1  0
  8 43  1  0
  9 44  1  0
 10 45  1  0
 12 46  1  0
 19 47  1  0
 22 48  1  0
 24 49  1  0
 25 50  1  0
 25 51  1  0
 26 52  1  0
 27 53  1  0
 27 54  1  0
 28 55  1  0
 28 56  1  0
 29 57  1  0
 30 58  1  0
M  CHG  1  17  -1
M  END
>  <UniqueID>  (42) 
41

>  <SMILES>  (42) 
CN(C)CCNc1cccc2cc(S(=O)(=O)[N-]c3cc4c(cc3O)CNCC4)ccc12

>  <Energy>  (42) 
80.46989409645407

>  <Genealogy>  (42) 
CN(C)CCNc1cccc2cc(S(=O)(=O)[N-]c3cc4c(cc3O)CNCC4)ccc12 (protonated)
CN(C)CCNc1cccc2cc(S(=O)(=O)[N-]c3cc4c(cc3O)CNCC4)ccc12 (3D coordinates assigned)
CN(C)CCNc1cccc2cc(S(=O)(=O)[N-]c3cc4c(cc3O)CNCC4)ccc12 (nonaromatic ring conformer: 80.46989409645407 kcal/mol)

>  <smiles>  (42) 
CN(C)CCNc1cccc2cc(S(=O)(=O)Nc3cc4c(cc3O)CNCC4)ccc12

>  <score_type>  (42) 
oracle

>  <origin>  (42) 
adgpu

>  <m_score__min__energy>  (42) 
-13.65

>  <m_primary>  (42) 
energy

$$$$
42:0
     RDKit          3D

 56 59  0  0  0  0  0  0  0  0999 V2000
   -1.4202   17.8615  -34.7817 H   0  0  0  0  0  0  0  0  0  0  0  0
   -1.7090   18.7480  -34.1980 C   0  0  0  0  0  0  0  0  0  0  0  0
   -0.7320   19.6960  -33.8410 C   0  0  0  0  0  0  0  0  0  0  0  0
    0.6370   19.5040  -34.2410 C   0  0  0  0  0  0  0  0  0  0  0  0
    1.7370   19.3490  -34.5630 N   0  0  0  0  0  0  0  0  0  0  0  0
   -1.0930   20.8340  -33.1030 C   0  0  0  0  0  0  0  0  0  0  0  0
   -0.3417   21.5881  -32.8257 H   0  0  0  0  0  0  0  0  0  0  0  0
   -2.4260   20.9840  -32.7310 C   0  0  0  0  0  0  0  0  0  0  0  0
   -3.1110   22.2600  -31.8910 S   0  0  0  0  0  0  0  0  0  0  0  0
   -4.6590   21.5700  -31.9540 C   0  0  0  0  0  0  0  0  0  0  0  0
   -5.7430   22.1360  -31.5060 N   0  0  0  0  0  0  0  0  0  0  0  0
   -5.7880   23.3600  -30.7640 C   0  0  0  0  0  0  0  0  0  0  0  0
   -6.8780   23.9840  -30.6760 O   0  0  0  0  0  0  0  0  0  0  0  0
   -4.6080   23.8570  -30.0370 C   0  0  0  0  0  0  0  0  0  0  0  0
   -3.7510   24.7690  -30.5320 N   0  0  0  0  0  0  0  0  0  0  0  0
   -2.8310   24.9950  -29.6090 N   0  0  0  0  0  0  0  0  0  0  0  0
   -2.0360   25.6610  -29.7260 H   0  0  0  0  0  0  0  0  0  0  0  0
   -3.0880   24.2470  -28.5190 C   0  0  0  0  0  0  0  0  0  0  0  0
   -2.2300   24.2710  -27.2800 C   0  0  0  0  0  0  0  0  0  0  0  0
   -2.0377   23.1879  -27.2837 H   0  0  0  0  0  0  0  0  0  0  0  0
   -2.6140   25.2940  -26.2220 C   0  0  0  0  0  0  0  0  0  0  0  0
   -3.5032   25.9255  -26.3649 H   0  0  0  0  0  0  0  0  0  0  0  0
   -2.8137   25.2571  -25.1409 H   0  0  0  0  0  0  0  0  0  0  0  0
   -1.3780   25.5160  -27.0800 C   0  0  0  0  0  0  0  0  0  0  0  0
   -1.3734   26.3079  -27.8435 H   0  0  0  0  0  0  0  0  0  0  0  0
   -0.3138   25.7059  -26.8767 H   0  0  0  0  0  0  0  0  0  0  0  0
   -4.2300   23.5020  -28.7540 C   0  0  0  0  0  0  0  0  0  0  0  0
   -4.7243   22.7905  -28.0762 H   0  0  0  0  0  0  0  0  0  0  0  0
   -4.6630   20.3630  -32.5930 N   0  0  0  0  0  0  0  0  0  0  0  0
   -5.8730   19.5320  -32.7440 C   0  0  0  0  0  0  0  0  0  0  0  0
   -6.3543   19.4294  -31.7602 H   0  0  0  0  0  0  0  0  0  0  0  0
   -5.5586   18.5580  -33.1470 H   0  0  0  0  0  0  0  0  0  0  0  0
   -6.8920   20.1370  -33.7310 C   0  0  0  0  0  0  0  0  0  0  0  0
   -6.8222   19.5841  -34.6794 H   0  0  0  0  0  0  0  0  0  0  0  0
   -6.6343   21.2013  -33.8349 H   0  0  0  0  0  0  0  0  0  0  0  0
   -8.3510   20.0840  -33.2500 C   0  0  0  0  0  0  0  0  0  0  0  0
   -8.7709   19.0950  -33.4857 H   0  0  0  0  0  0  0  0  0  0  0  0
   -8.9158   20.8769  -33.7621 H   0  0  0  0  0  0  0  0  0  0  0  0
   -8.4420   20.3130  -31.7820 N   0  0  0  0  0  0  0  0  0  0  0  0
   -9.4830   21.3220  -31.4690 C   0  0  0  0  0  0  0  0  0  0  0  0
   -9.6291   21.3590  -30.3794 H   0  0  0  0  0  0  0  0  0  0  0  0
  -10.4128   21.0288  -31.9785 H   0  0  0  0  0  0  0  0  0  0  0  0
   -9.0810   22.7140  -31.9650 C   0  0  0  0  0  0  0  0  0  0  0  0
   -8.8916   23.3700  -31.1026 H   0  0  0  0  0  0  0  0  0  0  0  0
   -8.1685   22.6367  -32.5744 H   0  0  0  0  0  0  0  0  0  0  0  0
   -9.8942   23.1351  -32.5744 H   0  0  0  0  0  0  0  0  0  0  0  0
   -8.7180   19.0520  -31.0470 C   0  0  0  0  0  0  0  0  0  0  0  0
   -8.1058   19.0323  -30.1333 H   0  0  0  0  0  0  0  0  0  0  0  0
   -9.7913   19.0263  -30.8076 H   0  0  0  0  0  0  0  0  0  0  0  0
   -8.3920   17.8170  -31.8860 C   0  0  0  0  0  0  0  0  0  0  0  0
   -8.1685   16.9702  -31.2205 H   0  0  0  0  0  0  0  0  0  0  0  0
   -9.2548   17.5667  -32.5207 H   0  0  0  0  0  0  0  0  0  0  0  0
   -7.5180   18.0252  -32.5207 H   0  0  0  0  0  0  0  0  0  0  0  0
   -3.4070   20.0510  -33.0550 C   0  0  0  0  0  0  0  0  0  0  0  0
   -3.0500   18.9230  -33.8160 C   0  0  0  0  0  0  0  0  0  0  0  0
   -3.8122   18.1860  -34.1089 H   0  0  0  0  0  0  0  0  0  0  0  0
  1  2  1  0
  2  3  2  0
  3  4  1  0
  4  5  3  0
  3  6  1  0
  6  7  1  0
  6  8  2  0
  8  9  1  0
  9 10  1  0
 10 11  2  0
 11 12  1  0
 12 13  2  0
 12 14  1  0
 14 15  2  0
 15 16  1  0
 16 17  1  0
 16 18  1  0
 18 19  1  0
 19 20  1  0
 19 21  1  0
 21 22  1  0
 21 23  1  0
 21 24  1  0
 24 25  1  0
 24 26  1  0
 18 27  2  0
 27 28  1  0
 10 29  1  0
 29 30  1  0
 30 31  1  0
 30 32  1  0
 30 33  1  0
 33 34  1  0
 33 35  1  0
 33 36  1  0
 36 37  1  0
 36 38  1  0
 36 39  1  0
 39 40  1  0
 40 41  1  0
 40 42  1  0
 40 43  1  0
 43 44  1  0
 43 45  1  0
 43 46  1  0
 39 47  1  0
 47 48  1  0
 47 49  1  0
 47 50  1  0
 50 51  1  0
 50 52  1  0
 50 53  1  0
 29 54  1  0
 54 55  2  0
 55 56  1  0
 55  2  1  0
 54  8  1  0
 27 14  1  0
 24 19  1  0
M  END
>  <UniqueID>  (43) 
42

>  <SMILES>  (43) 
CCN(CC)CCCn1/c(=N/C(=O)c2cc(C3CC3)[nH]n2)sc2cc(C#N)ccc21

>  <Energy>  (43) 
392.9092994017068

>  <Genealogy>  (43) 
CCN(CC)CCCn1/c(=N/C(=O)c2cc(C3CC3)[nH]n2)sc2cc(C#N)ccc21 (cis-trans isomerization)
CCN(CC)CCCn1/c(=N/C(=O)c2cc(C3CC3)[nH]n2)sc2cc(C#N)ccc21 (3D coordinates assigned)
CCN(CC)CCCn1/c(=N/C(=O)c2cc(C3CC3)[nH]n2)sc2cc(C#N)ccc21 (nonaromatic ring conformer: 392.9092994017068 kcal/mol)

>  <smiles>  (43) 
CCN(CC)CCCn1c(=NC(=O)c2cc(C3CC3)[nH]n2)sc2cc(C#N)ccc21

>  <score_type>  (43) 
oracle

>  <origin>  (43) 
adgpu

>  <m_score__min__energy>  (43) 
-9.0299999999999994

>  <m_primary>  (43) 
energy

$$$$
43:0
     RDKit          3D

 49 52  0  0  0  0  0  0  0  0999 V2000
   -0.2860   20.1370  -29.4920 O   0  0  0  0  0  0  0  0  0  0  0  0
   -0.7590   20.9820  -30.2970 C   0  0  0  0  0  0  0  0  0  0  0  0
   -0.8940   20.6200  -31.6780 N   0  0  0  0  0  0  0  0  0  0  0  0
   -2.0620   20.0500  -32.2840 C   0  0  0  0  0  0  0  0  0  0  0  0
   -3.2170   20.8160  -32.5180 C   0  0  0  0  0  0  0  0  0  0  0  0
   -4.3410   20.2300  -33.1050 C   0  0  0  0  0  0  0  0  0  0  0  0
   -4.3240   18.8790  -33.4750 C   0  0  0  0  0  0  0  0  0  0  0  0
   -5.7550   18.1350  -34.1970 S   0  0  0  0  0  0  0  0  0  0  0  0
   -5.8240   18.5150  -35.6500 O   0  0  0  0  0  0  0  0  0  0  0  0
   -5.6230   16.6390  -34.1140 O   0  0  0  0  0  0  0  0  0  0  0  0
   -7.2390   18.6190  -33.4100 N   0  0  0  0  0  0  0  0  0  0  0  0
   -7.3520   20.0720  -33.2980 C   0  0  0  0  0  0  0  0  0  0  0  0
   -8.2700   20.3400  -32.1160 C   0  0  0  0  0  0  0  0  0  0  0  0
   -8.2500   19.0600  -31.2920 C   0  0  0  0  0  0  0  0  0  0  0  0
   -7.3270   18.1130  -32.0420 C   0  0  0  0  0  0  0  0  0  0  0  0
   -3.1560   18.1270  -33.2810 C   0  0  0  0  0  0  0  0  0  0  0  0
   -2.0300   18.7120  -32.6940 C   0  0  0  0  0  0  0  0  0  0  0  0
   -1.2130   22.2890  -29.7850 C   0  0  0  0  0  0  0  0  0  0  0  0
   -2.1180   23.1500  -30.3820 C   0  0  0  0  0  0  0  0  0  0  0  0
   -2.2450   24.2140  -29.5160 C   0  0  0  0  0  0  0  0  0  0  0  0
   -3.0930   25.2960  -29.7190 O   0  0  0  0  0  0  0  0  0  0  0  0
   -1.4690   24.0460  -28.4230 N   0  0  0  0  0  0  0  0  0  0  0  0
   -1.3370   24.9360  -27.2970 C   0  0  0  0  0  0  0  0  0  0  0  0
   -1.3970   24.4330  -25.9860 C   0  0  0  0  0  0  0  0  0  0  0  0
   -1.2630   25.2920  -24.8910 C   0  0  0  0  0  0  0  0  0  0  0  0
   -1.0600   26.6630  -25.0930 C   0  0  0  0  0  0  0  0  0  0  0  0
   -0.9250   27.5290  -24.0090 O   0  0  0  0  0  0  0  0  0  0  0  0
   -0.9900   27.1690  -26.3940 C   0  0  0  0  0  0  0  0  0  0  0  0
   -1.1250   26.3130  -27.4910 C   0  0  0  0  0  0  0  0  0  0  0  0
   -0.8440   22.8600  -28.5770 C   0  0  0  0  0  0  0  0  0  0  0  0
   -3.2359   21.8796  -32.2382 H   0  0  0  0  0  0  0  0  0  0  0  0
   -5.2447   20.8329  -33.2777 H   0  0  0  0  0  0  0  0  0  0  0  0
   -6.3624   20.5182  -33.1202 H   0  0  0  0  0  0  0  0  0  0  0  0
   -7.7520   20.5138  -34.2225 H   0  0  0  0  0  0  0  0  0  0  0  0
   -7.8955   21.1865  -31.5217 H   0  0  0  0  0  0  0  0  0  0  0  0
   -9.2879   20.6032  -32.4393 H   0  0  0  0  0  0  0  0  0  0  0  0
   -7.8608   19.2580  -30.2824 H   0  0  0  0  0  0  0  0  0  0  0  0
   -9.2578   18.6370  -31.1679 H   0  0  0  0  0  0  0  0  0  0  0  0
   -6.3310   18.1035  -31.5752 H   0  0  0  0  0  0  0  0  0  0  0  0
   -7.7116   17.0826  -32.0222 H   0  0  0  0  0  0  0  0  0  0  0  0
   -3.1258   17.0723  -33.5921 H   0  0  0  0  0  0  0  0  0  0  0  0
   -1.1148   18.1181  -32.5537 H   0  0  0  0  0  0  0  0  0  0  0  0
   -2.6290   23.0131  -31.3464 H   0  0  0  0  0  0  0  0  0  0  0  0
   -1.5504   23.3564  -25.8203 H   0  0  0  0  0  0  0  0  0  0  0  0
   -1.3171   24.8901  -23.8685 H   0  0  0  0  0  0  0  0  0  0  0  0
   -1.7070   27.7380  -23.3980 H   0  0  0  0  0  0  0  0  0  0  0  0
   -0.8281   28.2450  -26.5554 H   0  0  0  0  0  0  0  0  0  0  0  0
   -1.0651   26.7186  -28.5117 H   0  0  0  0  0  0  0  0  0  0  0  0
   -0.1466   22.4135  -27.8529 H   0  0  0  0  0  0  0  0  0  0  0  0
  1  2  2  0
  2  3  1  0
  3  4  1  0
  4  5  2  0
  5  6  1  0
  6  7  2  0
  7  8  1  0
  8  9  2  0
  8 10  2  0
  8 11  1  0
 11 12  1  0
 12 13  1  0
 13 14  1  0
 14 15  1  0
  7 16  1  0
 16 17  2  0
  2 18  1  0
 18 19  1  0
 19 20  2  0
 20 21  1  0
 20 22  1  0
 22 23  1  0
 23 24  2  0
 24 25  1  0
 25 26  2  0
 26 27  1  0
 26 28  1  0
 28 29  2  0
 22 30  1  0
 17  4  1  0
 30 18  2  0
 15 11  1  0
 29 23  1  0
  5 31  1  0
  6 32  1  0
 12 33  1  0
 12 34  1  0
 13 35  1  0
 13 36  1  0
 14 37  1  0
 14 38  1  0
 15 39  1  0
 15 40  1  0
 16 41  1  0
 17 42  1  0
 19 43  1  0
 24 44  1  0
 25 45  1  0
 27 46  1  0
 28 47  1  0
 29 48  1  0
 30 49  1  0
M  CHG  2   3  -1  21  -1
M  END
>  <UniqueID>  (44) 
43

>  <SMILES>  (44) 
O=C([N-]c1ccc(S(=O)(=O)N2CCCC2)cc1)c1cc([O-])n(-c2ccc(O)cc2)c1

>  <Energy>  (44) 
89.7606166520218

>  <Genealogy>  (44) 
O=C([N-]c1ccc(S(=O)(=O)N2CCCC2)cc1)c1cc([O-])n(-c2ccc(O)cc2)c1 (protonated)
O=C([N-]c1ccc(S(=O)(=O)N2CCCC2)cc1)c1cc([O-])n(-c2ccc(O)cc2)c1 (3D coordinates assigned)
O=C([N-]c1ccc(S(=O)(=O)N2CCCC2)cc1)c1cc([O-])n(-c2ccc(O)cc2)c1 (nonaromatic ring conformer: 89.7606166520218 kcal/mol)

>  <smiles>  (44) 
O=C(Nc1ccc(S(=O)(=O)N2CCCC2)cc1)c1cc(O)n(-c2ccc(O)cc2)c1

>  <score_type>  (44) 
oracle

>  <origin>  (44) 
adgpu

>  <m_score__min__energy>  (44) 
-11.73

>  <m_primary>  (44) 
energy

$$$$
44:0
     RDKit          3D

 51 54  0  0  0  0  0  0  0  0999 V2000
   -6.5440   25.6910  -29.8280 O   0  0  0  0  0  0  0  0  0  0  0  0
   -5.5050   24.6490  -30.1310 S   0  0  0  0  0  0  0  0  0  0  0  0
   -4.5130   25.2300  -31.0990 O   0  0  0  0  0  0  0  0  0  0  0  0
   -4.6860   24.2060  -28.6680 N   0  0  0  0  0  0  0  0  0  0  0  0
   -3.5280   23.3590  -28.6020 C   0  0  0  0  0  0  0  0  0  0  0  0
   -3.5960   22.0510  -28.0890 C   0  0  0  0  0  0  0  0  0  0  0  0
   -2.4430   21.2570  -27.9940 C   0  0  0  0  0  0  0  0  0  0  0  0
   -1.2010   21.7830  -28.3980 C   0  0  0  0  0  0  0  0  0  0  0  0
   -1.1430   23.0710  -28.9530 C   0  0  0  0  0  0  0  0  0  0  0  0
   -2.2980   23.8590  -29.0510 C   0  0  0  0  0  0  0  0  0  0  0  0
   -2.2280   25.1430  -29.5920 O   0  0  0  0  0  0  0  0  0  0  0  0
    0.0550   20.9430  -28.3210 C   0  0  0  0  0  0  0  0  0  0  0  0
   -0.0630   19.8570  -27.3370 N   0  0  0  0  0  0  0  0  0  0  0  0
   -1.2710   19.0610  -27.5920 C   0  0  0  0  0  0  0  0  0  0  0  0
   -2.5390   19.8940  -27.3590 C   0  0  0  0  0  0  0  0  0  0  0  0
   -6.3020   23.2300  -30.8090 C   0  0  0  0  0  0  0  0  0  0  0  0
   -7.6530   22.9930  -30.5320 C   0  0  0  0  0  0  0  0  0  0  0  0
   -8.2770   21.8460  -31.0210 C   0  0  0  0  0  0  0  0  0  0  0  0
   -7.5560   20.9190  -31.7820 C   0  0  0  0  0  0  0  0  0  0  0  0
   -8.4130   19.4900  -32.3580 Cl  0  0  0  0  0  0  0  0  0  0  0  0
   -6.1880   21.1390  -32.0650 C   0  0  0  0  0  0  0  0  0  0  0  0
   -5.2660   19.9400  -33.0080 S   0  0  0  0  0  0  0  0  0  0  0  0
   -5.1860   18.6730  -32.2030 O   0  0  0  0  0  0  0  0  0  0  0  0
   -6.0230   19.6590  -34.2770 O   0  0  0  0  0  0  0  0  0  0  0  0
   -3.6290   20.3890  -33.4410 N   0  0  0  0  0  0  0  0  0  0  0  0
   -2.8000   19.2420  -33.8270 C   0  0  0  0  0  0  0  0  0  0  0  0
   -1.4470   19.3840  -33.1390 C   0  0  0  0  0  0  0  0  0  0  0  0
   -1.4740   20.7350  -32.4470 C   0  0  0  0  0  0  0  0  0  0  0  0
   -2.9390   21.1290  -32.3810 C   0  0  0  0  0  0  0  0  0  0  0  0
   -5.5800   22.3100  -31.5800 C   0  0  0  0  0  0  0  0  0  0  0  0
   -4.5639   21.6461  -27.7586 H   0  0  0  0  0  0  0  0  0  0  0  0
   -0.1820   23.4657  -29.3145 H   0  0  0  0  0  0  0  0  0  0  0  0
   -3.0570   25.7100  -29.7170 H   0  0  0  0  0  0  0  0  0  0  0  0
    0.2493   20.5046  -29.3110 H   0  0  0  0  0  0  0  0  0  0  0  0
    0.8803   21.5976  -28.0043 H   0  0  0  0  0  0  0  0  0  0  0  0
   -0.1220   20.2760  -26.3770 H   0  0  0  0  0  0  0  0  0  0  0  0
   -1.2574   18.7108  -28.6347 H   0  0  0  0  0  0  0  0  0  0  0  0
   -1.2806   18.2073  -26.8984 H   0  0  0  0  0  0  0  0  0  0  0  0
   -3.3987   19.3607  -27.7908 H   0  0  0  0  0  0  0  0  0  0  0  0
   -2.6606   20.0320  -26.2745 H   0  0  0  0  0  0  0  0  0  0  0  0
   -8.2239   23.7130  -29.9273 H   0  0  0  0  0  0  0  0  0  0  0  0
   -9.3414   21.6689  -30.8075 H   0  0  0  0  0  0  0  0  0  0  0  0
   -3.2845   18.3074  -33.5079 H   0  0  0  0  0  0  0  0  0  0  0  0
   -2.6716   19.2144  -34.9191 H   0  0  0  0  0  0  0  0  0  0  0  0
   -1.3055   18.5793  -32.4025 H   0  0  0  0  0  0  0  0  0  0  0  0
   -0.6179   19.3144  -33.8585 H   0  0  0  0  0  0  0  0  0  0  0  0
   -1.0512   20.6566  -31.4345 H   0  0  0  0  0  0  0  0  0  0  0  0
   -0.8749   21.4822  -32.9880 H   0  0  0  0  0  0  0  0  0  0  0  0
   -3.3582   20.8624  -31.3996 H   0  0  0  0  0  0  0  0  0  0  0  0
   -3.0606   22.2139  -32.5161 H   0  0  0  0  0  0  0  0  0  0  0  0
   -4.5223   22.5066  -31.8092 H   0  0  0  0  0  0  0  0  0  0  0  0
  1  2  2  0
  2  3  2  0
  2  4  1  0
  4  5  1  0
  5  6  2  0
  6  7  1  0
  7  8  2  0
  8  9  1  0
  9 10  2  0
 10 11  1  0
  8 12  1  0
 12 13  1  0
 13 14  1  0
 14 15  1  0
  2 16  1  0
 16 17  2  0
 17 18  1  0
 18 19  2  0
 19 20  1  0
 19 21  1  0
 21 22  1  0
 22 23  2  0
 22 24  2  0
 22 25  1  0
 25 26  1  0
 26 27  1  0
 27 28  1  0
 28 29  1  0
 21 30  2  0
 10  5  1  0
 30 16  1  0
 15  7  1  0
 29 25  1  0
  6 31  1  0
  9 32  1  0
 11 33  1  0
 12 34  1  0
 12 35  1  0
 13 36  1  0
 14 37  1  0
 14 38  1  0
 15 39  1  0
 15 40  1  0
 17 41  1  0
 18 42  1  0
 26 43  1  0
 26 44  1  0
 27 45  1  0
 27 46  1  0
 28 47  1  0
 28 48  1  0
 29 49  1  0
 29 50  1  0
 30 51  1  0
M  CHG  1   4  -1
M  END
>  <UniqueID>  (45) 
44

>  <SMILES>  (45) 
O=S(=O)([N-]c1cc2c(cc1O)CNCC2)c1ccc(Cl)c(S(=O)(=O)N2CCCC2)c1

>  <Energy>  (45) 
61.97249359674609

>  <Genealogy>  (45) 
O=S(=O)([N-]c1cc2c(cc1O)CNCC2)c1ccc(Cl)c(S(=O)(=O)N2CCCC2)c1 (protonated)
O=S(=O)([N-]c1cc2c(cc1O)CNCC2)c1ccc(Cl)c(S(=O)(=O)N2CCCC2)c1 (3D coordinates assigned)
O=S(=O)([N-]c1cc2c(cc1O)CNCC2)c1ccc(Cl)c(S(=O)(=O)N2CCCC2)c1 (nonaromatic ring conformer: 61.97249359674609 kcal/mol)

>  <smiles>  (45) 
O=S(=O)(Nc1cc2c(cc1O)CNCC2)c1ccc(Cl)c(S(=O)(=O)N2CCCC2)c1

>  <score_type>  (45) 
oracle

>  <origin>  (45) 
adgpu

>  <m_score__min__energy>  (45) 
-12.92

>  <m_primary>  (45) 
energy

$$$$
45:0
     RDKit          3D

 62 65  0  0  0  0  0  0  0  0999 V2000
   -3.8080   16.9340  -34.9160 C   0  0  0  0  0  0  0  0  0  0  0  0
   -5.1330   17.4520  -34.3440 C   0  0  0  0  0  0  0  0  0  0  0  0
   -5.0930   18.9770  -34.1520 C   0  0  0  0  0  0  0  0  0  0  0  0
   -6.4260   19.5160  -33.5850 C   0  0  0  0  0  0  0  0  0  0  0  0
   -7.2790   18.4420  -33.0350 N   0  0  0  0  0  0  0  0  0  0  0  0
   -8.6110   19.1290  -32.1380 S   0  0  0  0  0  0  0  0  0  0  0  0
   -9.8800   18.9800  -32.9300 O   0  0  0  0  0  0  0  0  0  0  0  0
   -8.7780   18.3790  -30.8450 O   0  0  0  0  0  0  0  0  0  0  0  0
   -8.3390   20.8370  -31.7850 C   0  0  0  0  0  0  0  0  0  0  0  0
   -9.1960   21.8110  -32.3170 C   0  0  0  0  0  0  0  0  0  0  0  0
   -8.9810   23.1630  -32.0390 C   0  0  0  0  0  0  0  0  0  0  0  0
   -7.9160   23.5490  -31.2180 C   0  0  0  0  0  0  0  0  0  0  0  0
   -7.0670   22.5850  -30.6570 C   0  0  0  0  0  0  0  0  0  0  0  0
   -5.9740   23.0080  -29.8250 N   0  0  0  0  0  0  0  0  0  0  0  0
   -4.5900   22.7640  -30.1410 C   0  0  0  0  0  0  0  0  0  0  0  0
   -4.2890   22.0550  -31.1400 O   0  0  0  0  0  0  0  0  0  0  0  0
   -3.5000   23.3220  -29.3060 C   0  0  0  0  0  0  0  0  0  0  0  0
   -2.1710   23.3660  -29.7660 C   0  0  0  0  0  0  0  0  0  0  0  0
   -1.1620   23.9090  -28.9640 C   0  0  0  0  0  0  0  0  0  0  0  0
   -1.4640   24.4250  -27.6980 C   0  0  0  0  0  0  0  0  0  0  0  0
   -0.1930   25.1350  -26.7010 S   0  0  0  0  0  0  0  0  0  0  0  0
    0.1790   24.1660  -25.6130 O   0  0  0  0  0  0  0  0  0  0  0  0
    1.0260   25.3700  -27.5480 O   0  0  0  0  0  0  0  0  0  0  0  0
   -0.6940   26.6500  -25.9780 N   0  0  0  0  0  0  0  0  0  0  0  0
    0.4510   27.3750  -25.4170 C   0  0  0  0  0  0  0  0  0  0  0  0
    0.5030   27.1080  -23.9200 C   0  0  0  0  0  0  0  0  0  0  0  0
   -0.8340   26.4900  -23.5630 C   0  0  0  0  0  0  0  0  0  0  0  0
   -1.6210   26.4250  -24.8640 C   0  0  0  0  0  0  0  0  0  0  0  0
   -2.7860   24.3870  -27.2350 C   0  0  0  0  0  0  0  0  0  0  0  0
   -3.7970   23.8470  -28.0350 C   0  0  0  0  0  0  0  0  0  0  0  0
   -7.2710   21.2280  -30.9660 C   0  0  0  0  0  0  0  0  0  0  0  0
   -6.4970   17.5390  -32.1750 C   0  0  0  0  0  0  0  0  0  0  0  0
   -5.4750   16.7450  -33.0130 C   0  0  0  0  0  0  0  0  0  0  0  0
   -3.1308   16.6693  -34.0906 H   0  0  0  0  0  0  0  0  0  0  0  0
   -3.9983   16.0441  -35.5339 H   0  0  0  0  0  0  0  0  0  0  0  0
   -3.3443   17.7171  -35.5339 H   0  0  0  0  0  0  0  0  0  0  0  0
   -5.9255   17.2191  -35.0704 H   0  0  0  0  0  0  0  0  0  0  0  0
   -4.2811   19.2273  -33.4534 H   0  0  0  0  0  0  0  0  0  0  0  0
   -4.9246   19.4424  -35.1344 H   0  0  0  0  0  0  0  0  0  0  0  0
   -6.2037   20.2360  -32.7836 H   0  0  0  0  0  0  0  0  0  0  0  0
   -6.9750   19.9903  -34.4118 H   0  0  0  0  0  0  0  0  0  0  0  0
  -10.0399   21.5097  -32.9550 H   0  0  0  0  0  0  0  0  0  0  0  0
   -9.6497   23.9249  -32.4660 H   0  0  0  0  0  0  0  0  0  0  0  0
   -7.7438   24.6156  -31.0114 H   0  0  0  0  0  0  0  0  0  0  0  0
   -6.2190   23.4720  -28.9230 H   0  0  0  0  0  0  0  0  0  0  0  0
   -1.9241   22.9709  -30.7625 H   0  0  0  0  0  0  0  0  0  0  0  0
   -0.1249   23.9308  -29.3301 H   0  0  0  0  0  0  0  0  0  0  0  0
    1.3804   27.0240  -25.8893 H   0  0  0  0  0  0  0  0  0  0  0  0
    0.3437   28.4535  -25.6046 H   0  0  0  0  0  0  0  0  0  0  0  0
    1.3217   26.4125  -23.6834 H   0  0  0  0  0  0  0  0  0  0  0  0
    0.6868   28.0311  -23.3507 H   0  0  0  0  0  0  0  0  0  0  0  0
   -0.6914   25.4802  -23.1507 H   0  0  0  0  0  0  0  0  0  0  0  0
   -1.3619   27.0801  -22.7994 H   0  0  0  0  0  0  0  0  0  0  0  0
   -2.0901   25.4352  -24.9653 H   0  0  0  0  0  0  0  0  0  0  0  0
   -2.4091   27.1924  -24.8675 H   0  0  0  0  0  0  0  0  0  0  0  0
   -3.0291   24.7836  -26.2382 H   0  0  0  0  0  0  0  0  0  0  0  0
   -4.8337   23.8324  -27.6677 H   0  0  0  0  0  0  0  0  0  0  0  0
   -6.5868   20.4675  -30.5616 H   0  0  0  0  0  0  0  0  0  0  0  0
   -5.9620   18.1324  -31.4190 H   0  0  0  0  0  0  0  0  0  0  0  0
   -7.1826   16.8311  -31.6863 H   0  0  0  0  0  0  0  0  0  0  0  0
   -4.5515   16.6281  -32.4270 H   0  0  0  0  0  0  0  0  0  0  0  0
   -5.9230   15.7700  -33.2551 H   0  0  0  0  0  0  0  0  0  0  0  0
  1  2  1  0
  2  3  1  0
  3  4  1  0
  4  5  1  0
  5  6  1  0
  6  7  2  0
  6  8  2  0
  6  9  1  0
  9 10  2  0
 10 11  1  0
 11 12  2  0
 12 13  1  0
 13 14  1  0
 14 15  1  0
 15 16  2  0
 15 17  1  0
 17 18  2  0
 18 19  1  0
 19 20  2  0
 20 21  1  0
 21 22  2  0
 21 23  2  0
 21 24  1  0
 24 25  1  0
 25 26  1  0
 26 27  1  0
 27 28  1  0
 20 29  1  0
 29 30  2  0
 13 31  2  0
  5 32  1  0
 32 33  1  0
 33  2  1  0
 31  9  1  0
 30 17  1  0
 28 24  1  0
  1 34  1  0
  1 35  1  0
  1 36  1  0
  2 37  1  0
  3 38  1  0
  3 39  1  0
  4 40  1  0
  4 41  1  0
 10 42  1  0
 11 43  1  0
 12 44  1  0
 14 45  1  0
 18 46  1  0
 19 47  1  0
 25 48  1  0
 25 49  1  0
 26 50  1  0
 26 51  1  0
 27 52  1  0
 27 53  1  0
 28 54  1  0
 28 55  1  0
 29 56  1  0
 30 57  1  0
 31 58  1  0
 32 59  1  0
 32 60  1  0
 33 61  1  0
 33 62  1  0
M  END
>  <UniqueID>  (46) 
45

>  <SMILES>  (46) 
CC1CCN(S(=O)(=O)c2cccc(NC(=O)c3ccc(S(=O)(=O)N4CCCC4)cc3)c2)CC1

>  <Energy>  (46) 
71.33580726977571

>  <Genealogy>  (46) 
CC1CCN(S(=O)(=O)c2cccc(NC(=O)c3ccc(S(=O)(=O)N4CCCC4)cc3)c2)CC1 (3D coordinates assigned)
CC1CCN(S(=O)(=O)c2cccc(NC(=O)c3ccc(S(=O)(=O)N4CCCC4)cc3)c2)CC1 (nonaromatic ring conformer: 71.33580726977571 kcal/mol)

>  <smiles>  (46) 
CC1CCN(S(=O)(=O)c2cccc(NC(=O)c3ccc(S(=O)(=O)N4CCCC4)cc3)c2)CC1

>  <score_type>  (46) 
oracle

>  <origin>  (46) 
adgpu

>  <m_score__min__energy>  (46) 
-11.52

>  <m_primary>  (46) 
energy

$$$$
46:0
     RDKit          3D

 61 65  0  0  0  0  0  0  0  0999 V2000
   -9.8570   20.8080  -31.9920 C   0  0  0  0  0  0  0  0  0  0  0  0
   -8.9570   19.8300  -31.4820 O   0  0  0  0  0  0  0  0  0  0  0  0
   -7.8480   19.3230  -32.1820 C   0  0  0  0  0  0  0  0  0  0  0  0
   -7.7200   17.9540  -32.4790 C   0  0  0  0  0  0  0  0  0  0  0  0
   -6.6160   17.4810  -33.1910 C   0  0  0  0  0  0  0  0  0  0  0  0
   -5.6150   18.3660  -33.6210 C   0  0  0  0  0  0  0  0  0  0  0  0
   -4.4500   17.8770  -34.3970 C   0  0  0  0  0  0  0  0  0  0  0  0
   -4.6270   17.4550  -35.5700 O   0  0  0  0  0  0  0  0  0  0  0  0
   -3.1300   17.8150  -33.8400 N   0  0  0  0  0  0  0  0  0  0  0  0
   -2.2750   18.9280  -33.5420 C   0  0  0  0  0  0  0  0  0  0  0  0
   -2.3240   19.5890  -32.3030 C   0  0  0  0  0  0  0  0  0  0  0  0
   -1.4820   20.6760  -32.0530 C   0  0  0  0  0  0  0  0  0  0  0  0
   -0.6020   21.1250  -33.0430 C   0  0  0  0  0  0  0  0  0  0  0  0
   -0.5740   20.4970  -34.2950 C   0  0  0  0  0  0  0  0  0  0  0  0
    0.5380   21.0620  -35.5360 S   0  0  0  0  0  0  0  0  0  0  0  0
   -0.1330   20.9770  -36.8780 O   0  0  0  0  0  0  0  0  0  0  0  0
    1.7610   20.1840  -35.5570 O   0  0  0  0  0  0  0  0  0  0  0  0
    0.9760   22.7190  -35.2090 N   0  0  0  0  0  0  0  0  0  0  0  0
    2.4000   22.9510  -35.4520 C   0  0  0  0  0  0  0  0  0  0  0  0
    2.5450   24.4170  -35.8290 C   0  0  0  0  0  0  0  0  0  0  0  0
    1.1460   24.8770  -36.2120 C   0  0  0  0  0  0  0  0  0  0  0  0
    0.2730   23.6390  -36.1010 C   0  0  0  0  0  0  0  0  0  0  0  0
   -1.4120   19.4000  -34.5390 C   0  0  0  0  0  0  0  0  0  0  0  0
   -5.7470   19.7340  -33.3390 C   0  0  0  0  0  0  0  0  0  0  0  0
   -6.8410   20.2160  -32.6020 C   0  0  0  0  0  0  0  0  0  0  0  0
   -6.9540   21.6930  -32.3270 C   0  0  0  0  0  0  0  0  0  0  0  0
   -5.7170   22.3840  -32.6950 N   0  0  0  0  0  0  0  0  0  0  0  0
   -4.9390   23.1560  -31.7620 C   0  0  0  0  0  0  0  0  0  0  0  0
   -5.5030   24.3280  -31.1950 C   0  0  0  0  0  0  0  0  0  0  0  0
   -4.7720   25.1150  -30.2850 C   0  0  0  0  0  0  0  0  0  0  0  0
   -3.4830   24.7040  -29.9640 C   0  0  0  0  0  0  0  0  0  0  0  0
   -2.6160   25.3000  -29.1320 N   0  0  0  0  0  0  0  0  0  0  0  0
   -1.5400   24.4750  -29.2070 C   0  0  0  0  0  0  0  0  0  0  0  0
   -0.4830   24.6870  -28.5580 O   0  0  0  0  0  0  0  0  0  0  0  0
   -1.6860   23.4070  -30.0320 N   0  0  0  0  0  0  0  0  0  0  0  0
   -2.9320   23.5800  -30.4980 C   0  0  0  0  0  0  0  0  0  0  0  0
   -3.6220   22.7740  -31.4000 C   0  0  0  0  0  0  0  0  0  0  0  0
  -10.3404   21.3333  -31.1551 H   0  0  0  0  0  0  0  0  0  0  0  0
   -9.3021   21.5314  -32.6075 H   0  0  0  0  0  0  0  0  0  0  0  0
  -10.6239   20.3150  -32.6075 H   0  0  0  0  0  0  0  0  0  0  0  0
   -8.4969   17.2495  -32.1472 H   0  0  0  0  0  0  0  0  0  0  0  0
   -6.5302   16.4078  -33.4164 H   0  0  0  0  0  0  0  0  0  0  0  0
   -3.0270   19.2500  -31.5278 H   0  0  0  0  0  0  0  0  0  0  0  0
   -1.5114   21.1796  -31.0755 H   0  0  0  0  0  0  0  0  0  0  0  0
    0.0690   21.9723  -32.8383 H   0  0  0  0  0  0  0  0  0  0  0  0
    2.9801   22.7340  -34.5429 H   0  0  0  0  0  0  0  0  0  0  0  0
    2.7768   22.2972  -36.2523 H   0  0  0  0  0  0  0  0  0  0  0  0
    2.9207   24.9987  -34.9743 H   0  0  0  0  0  0  0  0  0  0  0  0
    3.2613   24.5585  -36.6517 H   0  0  0  0  0  0  0  0  0  0  0  0
    0.7952   25.6590  -35.5225 H   0  0  0  0  0  0  0  0  0  0  0  0
    1.1187   25.3089  -37.2233 H   0  0  0  0  0  0  0  0  0  0  0  0
   -0.7087   23.9019  -35.6801 H   0  0  0  0  0  0  0  0  0  0  0  0
    0.0980   23.1839  -37.0870 H   0  0  0  0  0  0  0  0  0  0  0  0
   -1.3916   18.9059  -35.5216 H   0  0  0  0  0  0  0  0  0  0  0  0
   -4.9833   20.4386  -33.7000 H   0  0  0  0  0  0  0  0  0  0  0  0
   -7.7872   22.1069  -32.9140 H   0  0  0  0  0  0  0  0  0  0  0  0
   -7.1347   21.8397  -31.2519 H   0  0  0  0  0  0  0  0  0  0  0  0
   -5.3660   22.3010  -33.6780 H   0  0  0  0  0  0  0  0  0  0  0  0
   -6.5255   24.6258  -31.4703 H   0  0  0  0  0  0  0  0  0  0  0  0
   -5.2057   26.0241  -29.8429 H   0  0  0  0  0  0  0  0  0  0  0  0
   -3.1594   21.8683  -31.8191 H   0  0  0  0  0  0  0  0  0  0  0  0
  1  2  1  0
  2  3  1  0
  3  4  2  0
  4  5  1  0
  5  6  2  0
  6  7  1  0
  7  8  2  0
  7  9  1  0
  9 10  1  0
 10 11  2  0
 11 12  1  0
 12 13  2  0
 13 14  1  0
 14 15  1  0
 15 16  2  0
 15 17  2  0
 15 18  1  0
 18 19  1  0
 19 20  1  0
 20 21  1  0
 21 22  1  0
 14 23  2  0
  6 24  1  0
 24 25  2  0
 25 26  1  0
 26 27  1  0
 27 28  1  0
 28 29  2  0
 29 30  1  0
 30 31  2  0
 31 32  1  0
 32 33  1  0
 33 34  2  0
 33 35  1  0
 35 36  1  0
 36 37  2  0
 25  3  1  0
 37 28  1  0
 23 10  1  0
 36 31  1  0
 22 18  1  0
  1 38  1  0
  1 39  1  0
  1 40  1  0
  4 41  1  0
  5 42  1  0
 11 43  1  0
 12 44  1  0
 13 45  1  0
 19 46  1  0
 19 47  1  0
 20 48  1  0
 20 49  1  0
 21 50  1  0
 21 51  1  0
 22 52  1  0
 22 53  1  0
 23 54  1  0
 24 55  1  0
 26 56  1  0
 26 57  1  0
 27 58  1  0
 29 59  1  0
 30 60  1  0
 37 61  1  0
M  CHG  3   9  -1  32  -1  35  -1
M  END
>  <UniqueID>  (47) 
46

>  <SMILES>  (47) 
COc1ccc(C(=O)[N-]c2cccc(S(=O)(=O)N3CCCC3)c2)cc1CNc1ccc2[n-]c(=O)[n-]c2c1

>  <Energy>  (47) 
107.98358226659161

>  <Genealogy>  (47) 
COc1ccc(C(=O)[N-]c2cccc(S(=O)(=O)N3CCCC3)c2)cc1CNc1ccc2[n-]c(=O)[n-]c2c1 (protonated)
COc1ccc(C(=O)[N-]c2cccc(S(=O)(=O)N3CCCC3)c2)cc1CNc1ccc2[n-]c(=O)[n-]c2c1 (3D coordinates assigned)
COc1ccc(C(=O)[N-]c2cccc(S(=O)(=O)N3CCCC3)c2)cc1CNc1ccc2[n-]c(=O)[n-]c2c1 (nonaromatic ring conformer: 107.98358226659161 kcal/mol)

>  <smiles>  (47) 
COc1ccc(C(=O)Nc2cccc(S(=O)(=O)N3CCCC3)c2)cc1CNc1ccc2[nH]c(=O)[nH]c2c1

>  <score_type>  (47) 
oracle

>  <origin>  (47) 
adgpu

>  <m_score__min__energy>  (47) 
-13.529999999999999

>  <m_primary>  (47) 
energy

$$$$
47:0
     RDKit          3D

 28 29  0  0  0  0  0  0  0  0999 V2000
   -7.8250   21.5470  -30.9630 C   0  0  0  0  0  0  0  0  0  0  0  0
   -6.7850   22.6270  -30.9250 C   0  0  0  0  0  0  0  0  0  0  0  0
   -7.1650   23.9750  -30.9730 C   0  0  0  0  0  0  0  0  0  0  0  0
   -6.1990   24.9810  -30.9070 C   0  0  0  0  0  0  0  0  0  0  0  0
   -4.8460   24.6540  -30.7750 C   0  0  0  0  0  0  0  0  0  0  0  0
   -3.9040   25.6760  -30.7580 O   0  0  0  0  0  0  0  0  0  0  0  0
   -4.4520   23.3040  -30.6810 C   0  0  0  0  0  0  0  0  0  0  0  0
   -3.0320   22.9230  -30.5090 C   0  0  0  0  0  0  0  0  0  0  0  0
   -2.6690   21.7520  -30.7990 O   0  0  0  0  0  0  0  0  0  0  0  0
   -2.0420   23.8550  -30.0510 N   0  0  0  0  0  0  0  0  0  0  0  0
   -1.7060   24.1340  -28.6820 C   0  0  0  0  0  0  0  0  0  0  0  0
   -1.7310   23.1280  -27.6980 C   0  0  0  0  0  0  0  0  0  0  0  0
   -1.3870   23.4270  -26.3770 C   0  0  0  0  0  0  0  0  0  0  0  0
   -0.9990   24.7240  -26.0310 C   0  0  0  0  0  0  0  0  0  0  0  0
   -0.9480   25.7220  -27.0070 C   0  0  0  0  0  0  0  0  0  0  0  0
   -1.2940   25.4290  -28.3310 C   0  0  0  0  0  0  0  0  0  0  0  0
   -1.2350   26.4300  -29.2940 O   0  0  0  0  0  0  0  0  0  0  0  0
   -5.4300   22.2970  -30.7690 C   0  0  0  0  0  0  0  0  0  0  0  0
   -8.0975   21.2640  -29.9355 H   0  0  0  0  0  0  0  0  0  0  0  0
   -8.7171   21.9154  -31.4907 H   0  0  0  0  0  0  0  0  0  0  0  0
   -7.4232   20.6694  -31.4907 H   0  0  0  0  0  0  0  0  0  0  0  0
   -8.2284   24.2416  -31.0630 H   0  0  0  0  0  0  0  0  0  0  0  0
   -6.5041   26.0366  -30.9591 H   0  0  0  0  0  0  0  0  0  0  0  0
   -2.0224   22.1027  -27.9698 H   0  0  0  0  0  0  0  0  0  0  0  0
   -1.4217   22.6405  -25.6087 H   0  0  0  0  0  0  0  0  0  0  0  0
   -0.7336   24.9592  -24.9897 H   0  0  0  0  0  0  0  0  0  0  0  0
   -0.6351   26.7407  -26.7343 H   0  0  0  0  0  0  0  0  0  0  0  0
   -5.1297   21.2402  -30.7150 H   0  0  0  0  0  0  0  0  0  0  0  0
  1  2  1  0
  2  3  2  0
  3  4  1  0
  4  5  2  0
  5  6  1  0
  5  7  1  0
  7  8  1  0
  8  9  2  0
  8 10  1  0
 10 11  1  0
 11 12  2  0
 12 13  1  0
 13 14  2  0
 14 15  1  0
 15 16  2  0
 16 17  1  0
  7 18  2  0
 18  2  1  0
 16 11  1  0
  1 19  1  0
  1 20  1  0
  1 21  1  0
  3 22  1  0
  4 23  1  0
 12 24  1  0
 13 25  1  0
 14 26  1  0
 15 27  1  0
 18 28  1  0
M  CHG  3   6  -1  10  -1  17  -1
M  END
>  <UniqueID>  (48) 
47

>  <SMILES>  (48) 
Cc1ccc([O-])c(C(=O)[N-]c2ccccc2[O-])c1

>  <Energy>  (48) 
36.852589512270406

>  <Genealogy>  (48) 
Cc1ccc([O-])c(C(=O)[N-]c2ccccc2[O-])c1 (protonated)
Cc1ccc([O-])c(C(=O)[N-]c2ccccc2[O-])c1 (3D coordinates assigned)
Cc1ccc([O-])c(C(=O)[N-]c2ccccc2[O-])c1 (optimized conformer: 36.852589512270406 kcal/mol)

>  <smiles>  (48) 
Cc1ccc(O)c(C(=O)Nc2ccccc2O)c1

>  <score_type>  (48) 
oracle

>  <origin>  (48) 
adgpu

>  <m_score__min__energy>  (48) 
-13.23

>  <m_primary>  (48) 
energy

$$$$
48:0
     RDKit          3D

 71 74  0  0  0  0  0  0  0  0999 V2000
   -7.5500   17.0615  -30.9515 H   0  0  0  0  0  0  0  0  0  0  0  0
   -7.4710   17.8590  -31.7050 C   0  0  0  0  0  0  0  0  0  0  0  0
   -7.6390   19.0910  -31.3140 N   0  0  0  0  0  0  0  0  0  0  0  0
   -7.6730   20.2600  -32.1450 C   0  0  0  0  0  0  0  0  0  0  0  0
   -8.5940   20.3750  -32.9950 O   0  0  0  0  0  0  0  0  0  0  0  0
   -6.6310   21.3040  -32.0610 C   0  0  0  0  0  0  0  0  0  0  0  0
   -5.2560   21.1250  -32.1410 C   0  0  0  0  0  0  0  0  0  0  0  0
   -4.5270   19.8380  -32.3850 C   0  0  0  0  0  0  0  0  0  0  0  0
   -4.2655   19.3763  -31.4214 H   0  0  0  0  0  0  0  0  0  0  0  0
   -5.1718   19.1540  -32.9563 H   0  0  0  0  0  0  0  0  0  0  0  0
   -3.6088   20.0393  -32.9563 H   0  0  0  0  0  0  0  0  0  0  0  0
   -4.6890   22.3650  -31.8790 C   0  0  0  0  0  0  0  0  0  0  0  0
   -3.2240   22.6600  -31.7170 C   0  0  0  0  0  0  0  0  0  0  0  0
   -2.6567   21.7209  -31.7958 H   0  0  0  0  0  0  0  0  0  0  0  0
   -2.9174   23.3616  -32.5068 H   0  0  0  0  0  0  0  0  0  0  0  0
   -2.9470   23.2940  -30.3740 C   0  0  0  0  0  0  0  0  0  0  0  0
   -3.2160   24.6080  -30.0430 C   0  0  0  0  0  0  0  0  0  0  0  0
   -3.8660   25.5230  -30.8630 O   0  0  0  0  0  0  0  0  0  0  0  0
   -2.7580   24.9210  -28.8220 N   0  0  0  0  0  0  0  0  0  0  0  0
   -2.1630   23.8060  -28.3520 C   0  0  0  0  0  0  0  0  0  0  0  0
   -2.2450   22.7680  -29.2920 C   0  0  0  0  0  0  0  0  0  0  0  0
   -1.7100   21.3860  -29.1890 C   0  0  0  0  0  0  0  0  0  0  0  0
   -1.2370   20.8450  -30.2260 O   0  0  0  0  0  0  0  0  0  0  0  0
   -1.7100   20.6460  -27.9500 N   0  0  0  0  0  0  0  0  0  0  0  0
   -1.4570   19.1970  -27.9640 C   0  0  0  0  0  0  0  0  0  0  0  0
   -1.9092   18.7391  -27.0719 H   0  0  0  0  0  0  0  0  0  0  0  0
   -1.9004   18.7606  -28.8711 H   0  0  0  0  0  0  0  0  0  0  0  0
    0.0200   18.9370  -27.9620 C   0  0  0  0  0  0  0  0  0  0  0  0
    0.8820   19.9780  -28.1320 N   0  0  0  0  0  0  0  0  0  0  0  0
    2.2280   19.7950  -28.1790 C   0  0  0  0  0  0  0  0  0  0  0  0
    2.8959   20.6595  -28.3077 H   0  0  0  0  0  0  0  0  0  0  0  0
    2.7640   18.5100  -28.0640 C   0  0  0  0  0  0  0  0  0  0  0  0
    3.8527   18.3563  -28.0983 H   0  0  0  0  0  0  0  0  0  0  0  0
    1.9020   17.4230  -27.9050 C   0  0  0  0  0  0  0  0  0  0  0  0
    2.3089   16.4044  -27.8217 H   0  0  0  0  0  0  0  0  0  0  0  0
    0.5220   17.6320  -27.8520 C   0  0  0  0  0  0  0  0  0  0  0  0
   -0.1642   16.7817  -27.7253 H   0  0  0  0  0  0  0  0  0  0  0  0
   -1.9350   21.3210  -26.6680 C   0  0  0  0  0  0  0  0  0  0  0  0
   -2.9625   21.7124  -26.6368 H   0  0  0  0  0  0  0  0  0  0  0  0
   -1.7869   20.6024  -25.8484 H   0  0  0  0  0  0  0  0  0  0  0  0
   -0.9440   22.4800  -26.5100 C   0  0  0  0  0  0  0  0  0  0  0  0
   -0.6674   22.5693  -25.4491 H   0  0  0  0  0  0  0  0  0  0  0  0
   -0.0635   22.2628  -27.1325 H   0  0  0  0  0  0  0  0  0  0  0  0
   -1.5400   23.8080  -26.9790 C   0  0  0  0  0  0  0  0  0  0  0  0
   -2.3169   24.1014  -26.2576 H   0  0  0  0  0  0  0  0  0  0  0  0
   -0.6933   24.5076  -27.0392 H   0  0  0  0  0  0  0  0  0  0  0  0
   -5.6530   23.2840  -31.6770 N   0  0  0  0  0  0  0  0  0  0  0  0
   -5.5090   24.2880  -31.4300 H   0  0  0  0  0  0  0  0  0  0  0  0
   -6.8340   22.6490  -31.7940 C   0  0  0  0  0  0  0  0  0  0  0  0
   -8.1550   23.3060  -31.5400 C   0  0  0  0  0  0  0  0  0  0  0  0
   -8.3210   23.3886  -30.4557 H   0  0  0  0  0  0  0  0  0  0  0  0
   -8.1574   24.3103  -31.9888 H   0  0  0  0  0  0  0  0  0  0  0  0
   -8.9573   22.7019  -31.9888 H   0  0  0  0  0  0  0  0  0  0  0  0
   -7.1730   17.4600  -33.1380 C   0  0  0  0  0  0  0  0  0  0  0  0
   -7.0450   18.3761  -33.7332 H   0  0  0  0  0  0  0  0  0  0  0  0
   -8.0199   16.8481  -33.4820 H   0  0  0  0  0  0  0  0  0  0  0  0
   -5.9520   16.6300  -33.2890 N   0  0  0  0  0  0  0  0  0  0  0  0
   -4.9440   17.1150  -34.2600 C   0  0  0  0  0  0  0  0  0  0  0  0
   -4.5096   16.2532  -34.7878 H   0  0  0  0  0  0  0  0  0  0  0  0
   -4.1651   17.6641  -33.7106 H   0  0  0  0  0  0  0  0  0  0  0  0
   -5.5750   18.0590  -35.2810 C   0  0  0  0  0  0  0  0  0  0  0  0
   -6.1119   18.8622  -34.7550 H   0  0  0  0  0  0  0  0  0  0  0  0
   -4.7871   18.4965  -35.9118 H   0  0  0  0  0  0  0  0  0  0  0  0
   -6.2805   17.4983  -35.9118 H   0  0  0  0  0  0  0  0  0  0  0  0
   -5.3830   16.1150  -32.0220 C   0  0  0  0  0  0  0  0  0  0  0  0
   -4.6819   16.8649  -31.6269 H   0  0  0  0  0  0  0  0  0  0  0  0
   -6.2289   15.9297  -31.3437 H   0  0  0  0  0  0  0  0  0  0  0  0
   -4.6350   14.7880  -32.1730 C   0  0  0  0  0  0  0  0  0  0  0  0
   -4.4056   14.3810  -31.1771 H   0  0  0  0  0  0  0  0  0  0  0  0
   -5.2634   14.0737  -32.7252 H   0  0  0  0  0  0  0  0  0  0  0  0
   -3.6985   14.9557  -32.7252 H   0  0  0  0  0  0  0  0  0  0  0  0
  1  2  1  0
  2  3  2  0
  3  4  1  0
  4  5  2  0
  4  6  1  0
  6  7  1  0
  7  8  1  0
  8  9  1  0
  8 10  1  0
  8 11  1  0
  7 12  2  0
 12 13  1  0
 13 14  1  0
 13 15  1  0
 13 16  1  0
 16 17  2  0
 17 18  1  0
 17 19  1  0
 19 20  1  0
 20 21  2  0
 21 22  1  0
 22 23  2  0
 22 24  1  0
 24 25  1  0
 25 26  1  0
 25 27  1  0
 25 28  1  0
 28 29  2  0
 29 30  1  0
 30 31  1  0
 30 32  2  0
 32 33  1  0
 32 34  1  0
 34 35  1  0
 34 36  2  0
 36 37  1  0
 24 38  1  0
 38 39  1  0
 38 40  1  0
 38 41  1  0
 41 42  1  0
 41 43  1  0
 41 44  1  0
 44 45  1  0
 44 46  1  0
 12 47  1  0
 47 48  1  0
 47 49  1  0
 49 50  1  0
 50 51  1  0
 50 52  1  0
 50 53  1  0
  2 54  1  0
 54 55  1  0
 54 56  1  0
 54 57  1  0
 57 58  1  0
 58 59  1  0
 58 60  1  0
 58 61  1  0
 61 62  1  0
 61 63  1  0
 61 64  1  0
 57 65  1  0
 65 66  1  0
 65 67  1  0
 65 68  1  0
 68 69  1  0
 68 70  1  0
 68 71  1  0
 49  6  2  0
 21 16  1  0
 36 28  1  0
 44 20  1  0
M  CHG  2  18  -1  19  -1
M  END
>  <UniqueID>  (49) 
48

>  <SMILES>  (49) 
CCN(CC)C/C=N\C(=O)c1c(C)[nH]c(Cc2c([O-])[n-]c3c2C(=O)N(Cc2ccccn2)CCC3)c1C

>  <Energy>  (49) 
141.0643417385734

>  <Genealogy>  (49) 
CCN(CC)CC=NC(=O)c1c(C)[nH]c(Cc2c([O-])[n-]c3c2C(=O)N(Cc2ccccn2)CCC3)c1C (protonated)
CCN(CC)C/C=N\C(=O)c1c(C)[nH]c(Cc2c([O-])[n-]c3c2C(=O)N(Cc2ccccn2)CCC3)c1C (cis-trans isomerization)
CCN(CC)C/C=N\C(=O)c1c(C)[nH]c(Cc2c([O-])[n-]c3c2C(=O)N(Cc2ccccn2)CCC3)c1C (3D coordinates assigned)
CCN(CC)C/C=N\C(=O)c1c(C)[nH]c(Cc2c([O-])[n-]c3c2C(=O)N(Cc2ccccn2)CCC3)c1C (nonaromatic ring conformer: 141.0643417385734 kcal/mol)

>  <smiles>  (49) 
CCN(CC)CC=NC(=O)c1c(C)[nH]c(Cc2c(O)[nH]c3c2C(=O)N(Cc2ccccn2)CCC3)c1C

>  <score_type>  (49) 
oracle

>  <origin>  (49) 
adgpu

>  <m_score__min__energy>  (49) 
-11.609999999999999

>  <m_primary>  (49) 
energy

$$$$
49:0
     RDKit          3D

 55 58  0  0  1  0  0  0  0  0999 V2000
   -8.3810   23.4240  -31.9830 C   0  0  0  0  0  0  0  0  0  0  0  0
   -7.2070   22.5000  -32.0490 C   0  0  0  0  0  0  0  0  0  0  0  0
   -7.3690   21.3060  -32.6400 N   0  0  0  0  0  0  0  0  0  0  0  0
   -6.3600   20.3990  -32.7570 C   0  0  0  0  0  0  0  0  0  0  0  0
   -6.6170   19.1620  -33.3930 N   0  0  0  0  0  0  0  0  0  0  0  0
   -7.4110   18.0920  -32.8380 C   0  0  0  0  0  0  0  0  0  0  0  0
   -6.5470   16.8310  -32.8880 C   0  0  0  0  0  0  0  0  0  0  0  0
   -6.0990   16.6600  -34.1770 O   0  0  0  0  0  0  0  0  0  0  0  0
   -5.2410   17.6580  -34.6200 C   0  0  0  0  0  0  0  0  0  0  0  0
   -6.0430   18.9320  -34.7240 C   0  0  0  0  0  0  0  0  0  0  0  0
   -5.1500   20.7690  -32.2310 C   0  0  0  0  0  0  0  0  0  0  0  0
   -4.9380   22.0020  -31.6080 C   0  0  0  0  0  0  0  0  0  0  0  0
   -3.7780   22.2910  -31.1390 N   0  0  0  0  0  0  0  0  0  0  0  0
   -3.5450   23.5310  -30.5100 C   0  0  0  0  0  0  0  0  0  0  0  0
   -4.1300   24.6120  -30.8510 O   0  0  0  0  0  0  0  0  0  0  0  0
   -2.5930   23.7020  -29.3920 C   0  0  0  0  0  0  0  0  0  0  0  0
   -3.1610   24.1510  -28.2070 C   0  0  0  0  0  0  0  0  0  0  0  0
   -2.3770   24.3160  -27.0880 C   0  0  0  0  0  0  0  0  0  0  0  0
   -1.0380   24.0210  -27.2060 C   0  0  0  0  0  0  0  0  0  0  0  0
   -0.0520   24.2060  -25.7460 S   0  0  0  0  0  0  0  0  0  0  0  0
    1.2130   23.4130  -25.8310 O   0  0  0  0  0  0  0  0  0  0  0  0
   -0.8180   23.7630  -24.5410 O   0  0  0  0  0  0  0  0  0  0  0  0
    0.3710   25.8650  -25.5310 N   0  0  0  0  0  0  0  0  0  0  0  0
   -0.7620   26.7370  -25.7720 C   0  0  0  0  0  0  0  0  0  0  0  0
   -1.5920   26.7920  -24.5340 C   0  0  0  0  0  0  0  0  0  0  0  0
   -0.6210   26.4610  -23.4470 C   0  0  0  0  0  0  0  0  0  0  0  0
    0.6770   26.0810  -24.1390 C   0  0  0  0  0  0  0  0  0  0  0  0
   -0.4620   23.5780  -28.3780 C   0  0  0  0  0  0  0  0  0  0  0  0
   -1.2550   23.4070  -29.5190 C   0  0  0  0  0  0  0  0  0  0  0  0
   -6.0010   22.8190  -31.5490 N   0  0  0  0  0  0  0  0  0  0  0  0
   -8.6329   23.6222  -30.9307 H   0  0  0  0  0  0  0  0  0  0  0  0
   -8.1314   24.3705  -32.4849 H   0  0  0  0  0  0  0  0  0  0  0  0
   -9.2423   22.9589  -32.4849 H   0  0  0  0  0  0  0  0  0  0  0  0
   -7.6843   18.3231  -31.7979 H   0  0  0  0  0  0  0  0  0  0  0  0
   -8.3429   17.9555  -33.4062 H   0  0  0  0  0  0  0  0  0  0  0  0
   -5.6890   16.9418  -32.2086 H   0  0  0  0  0  0  0  0  0  0  0  0
   -7.1371   15.9571  -32.5749 H   0  0  0  0  0  0  0  0  0  0  0  0
   -4.4170   17.7903  -33.9034 H   0  0  0  0  0  0  0  0  0  0  0  0
   -4.8079   17.3919  -35.5955 H   0  0  0  0  0  0  0  0  0  0  0  0
   -5.3912   19.7711  -35.0088 H   0  0  0  0  0  0  0  0  0  0  0  0
   -6.8272   18.8514  -35.4912 H   0  0  0  0  0  0  0  0  0  0  0  0
   -4.3083   20.0644  -32.3022 H   0  0  0  0  0  0  0  0  0  0  0  0
   -4.2371   24.3747  -28.1628 H   0  0  0  0  0  0  0  0  0  0  0  0
   -2.8035   24.6694  -26.1376 H   0  0  0  0  0  0  0  0  0  0  0  0
   -0.4055   27.7466  -26.0243 H   0  0  0  0  0  0  0  0  0  0  0  0
   -1.3616   26.3512  -26.6096 H   0  0  0  0  0  0  0  0  0  0  0  0
   -2.0163   27.7966  -24.3896 H   0  0  0  0  0  0  0  0  0  0  0  0
   -2.4514   26.1060  -24.5639 H   0  0  0  0  0  0  0  0  0  0  0  0
   -0.4648   27.3341  -22.7964 H   0  0  0  0  0  0  0  0  0  0  0  0
   -0.9923   25.6417  -22.8138 H   0  0  0  0  0  0  0  0  0  0  0  0
    1.4108   26.8940  -24.0363 H   0  0  0  0  0  0  0  0  0  0  0  0
    1.1084   25.1747  -23.6890 H   0  0  0  0  0  0  0  0  0  0  0  0
    0.6155   23.3600  -28.4162 H   0  0  0  0  0  0  0  0  0  0  0  0
   -0.8295   23.0542  -30.4700 H   0  0  0  0  0  0  0  0  0  0  0  0
   -5.9230   23.7480  -31.0910 H   0  0  0  0  0  0  0  0  0  0  0  0
  1  2  1  0
  2  3  2  0
  3  4  1  0
  4  5  1  0
  5  6  1  0
  6  7  1  0
  7  8  1  0
  8  9  1  0
  9 10  1  0
  4 11  2  0
 11 12  1  0
 12 13  2  0
 13 14  1  0
 14 15  2  0
 14 16  1  0
 16 17  2  0
 17 18  1  0
 18 19  2  0
 19 20  1  0
 20 21  2  0
 20 22  2  0
 20 23  1  0
 23 24  1  0
 24 25  1  0
 25 26  1  0
 26 27  1  0
 19 28  1  0
 28 29  2  0
 12 30  1  0
 30  2  1  0
 10  5  1  0
 29 16  1  0
 27 23  1  0
  1 31  1  0
  1 32  1  0
  1 33  1  0
  6 34  1  0
  6 35  1  0
  7 36  1  0
  7 37  1  0
  9 38  1  0
  9 39  1  0
 10 40  1  0
 10 41  1  0
 11 42  1  0
 17 43  1  0
 18 44  1  0
 24 45  1  0
 24 46  1  0
 25 47  1  0
 25 48  1  0
 26 49  1  0
 26 50  1  0
 27 51  1  0
 27 52  1  0
 28 53  1  0
 29 54  1  0
 30 55  1  0
M  END
>  <smiles>  (50) 
Cc1nc(N2CCOCC2)cc(=NC(=O)c2ccc(S(=O)(=O)N3CCCC3)cc2)[nH]1

>  <score_type>  (50) 
oracle

>  <origin>  (50) 
adgpu

>  <m_score__min__energy>  (50) 
-9.3800000000000008

>  <m_primary>  (50) 
energy

$$$$
