0:0
     RDKit          3D

 29 30  0  0  0  0  0  0  0  0999 V2000
   -3.8480   25.3080  -30.4520 O   0  0  0  0  0  0  0  0  0  0  0  0
   -3.6930   24.0590  -30.4650 C   0  0  0  0  0  0  0  0  0  0  0  0
   -4.6480   23.2510  -31.1650 N   0  0  0  0  0  0  0  0  0  0  0  0
   -5.9100   23.7410  -31.7030 C   0  0  0  0  0  0  0  0  0  0  0  0
   -6.8320   22.5800  -31.9410 C   0  0  0  0  0  0  0  0  0  0  0  0
   -8.1970   22.6840  -31.6260 C   0  0  0  0  0  0  0  0  0  0  0  0
   -9.0490   21.5900  -31.8140 C   0  0  0  0  0  0  0  0  0  0  0  0
   -8.5420   20.3850  -32.3070 C   0  0  0  0  0  0  0  0  0  0  0  0
   -7.1820   20.2690  -32.6080 C   0  0  0  0  0  0  0  0  0  0  0  0
   -6.3270   21.3600  -32.4200 C   0  0  0  0  0  0  0  0  0  0  0  0
   -2.5210   23.4730  -29.7820 C   0  0  0  0  0  0  0  0  0  0  0  0
   -2.4130   22.0800  -29.6430 C   0  0  0  0  0  0  0  0  0  0  0  0
   -1.3150   21.5200  -28.9840 C   0  0  0  0  0  0  0  0  0  0  0  0
   -0.3240   22.3450  -28.4490 C   0  0  0  0  0  0  0  0  0  0  0  0
   -0.4290   23.7370  -28.5660 C   0  0  0  0  0  0  0  0  0  0  0  0
    0.5540   24.5670  -28.0280 O   0  0  0  0  0  0  0  0  0  0  0  0
   -1.5270   24.3020  -29.2280 C   0  0  0  0  0  0  0  0  0  0  0  0
   -1.6220   25.6870  -29.3430 O   0  0  0  0  0  0  0  0  0  0  0  0
   -6.3709   24.4350  -30.9848 H   0  0  0  0  0  0  0  0  0  0  0  0
   -5.7269   24.2667  -32.6517 H   0  0  0  0  0  0  0  0  0  0  0  0
   -8.5976   23.6289  -31.2301 H   0  0  0  0  0  0  0  0  0  0  0  0
  -10.1187   21.6788  -31.5735 H   0  0  0  0  0  0  0  0  0  0  0  0
   -9.2136   19.5270  -32.4583 H   0  0  0  0  0  0  0  0  0  0  0  0
   -6.7836   19.3188  -32.9931 H   0  0  0  0  0  0  0  0  0  0  0  0
   -5.2554   21.2622  -32.6481 H   0  0  0  0  0  0  0  0  0  0  0  0
   -3.1962   21.4264  -30.0547 H   0  0  0  0  0  0  0  0  0  0  0  0
   -1.2316   20.4275  -28.8867 H   0  0  0  0  0  0  0  0  0  0  0  0
    0.5410   21.9011  -27.9345 H   0  0  0  0  0  0  0  0  0  0  0  0
    0.5550   25.5660  -28.2010 H   0  0  0  0  0  0  0  0  0  0  0  0
  1  2  2  0
  2  3  1  0
  3  4  1  0
  4  5  1  0
  5  6  2  0
  6  7  1  0
  7  8  2  0
  8  9  1  0
  9 10  2  0
  2 11  1  0
 11 12  2  0
 12 13  1  0
 13 14  2  0
 14 15  1  0
 15 16  1  0
 15 17  2  0
 17 18  1  0
 10  5  1  0
 17 11  1  0
  4 19  1  0
  4 20  1  0
  6 21  1  0
  7 22  1  0
  8 23  1  0
  9 24  1  0
 10 25  1  0
 12 26  1  0
 13 27  1  0
 14 28  1  0
 16 29  1  0
M  CHG  2   3  -1  18  -1
M  END
>  <UniqueID>  (1) 
1

>  <SMILES>  (1) 
O=C([N-]Cc1ccccc1)c1cccc(O)c1[O-]

>  <Energy>  (1) 
33.71184875751002

>  <Genealogy>  (1) 
O=C([N-]Cc1ccccc1)c1cccc(O)c1[O-] (protonated)
O=C([N-]Cc1ccccc1)c1cccc(O)c1[O-] (3D coordinates assigned)
O=C([N-]Cc1ccccc1)c1cccc(O)c1[O-] (optimized conformer: 33.71184875751002 kcal/mol)

>  <smiles>  (1) 
O=C(NCc1ccccc1)c1cccc(O)c1O

>  <score_type>  (1) 
oracle

>  <origin>  (1) 
adgpu

>  <m_score__min__energy>  (1) 
-11.460000000000001

>  <m_primary>  (1) 
energy

$$$$
1:0
     RDKit          3D

 38 40  0  0  0  0  0  0  0  0999 V2000
   -4.9200   15.9154  -33.8020 H   0  0  0  0  0  0  0  0  0  0  0  0
   -5.0770   17.0010  -33.8850 C   0  0  0  0  0  0  0  0  0  0  0  0
   -4.1000   18.1970  -33.2120 S   0  0  0  0  0  0  0  0  0  0  0  0
   -5.0380   19.4610  -33.8220 C   0  0  0  0  0  0  0  0  0  0  0  0
   -4.8450   20.7360  -33.6400 N   0  0  0  0  0  0  0  0  0  0  0  0
   -3.7510   21.3710  -32.9560 C   0  0  0  0  0  0  0  0  0  0  0  0
   -2.6680   21.5340  -33.5770 O   0  0  0  0  0  0  0  0  0  0  0  0
   -3.8300   21.8110  -31.5470 C   0  0  0  0  0  0  0  0  0  0  0  0
   -2.9750   21.1990  -30.6160 C   0  0  0  0  0  0  0  0  0  0  0  0
   -2.2788   20.4149  -30.9483 H   0  0  0  0  0  0  0  0  0  0  0  0
   -3.0010   21.5770  -29.2730 C   0  0  0  0  0  0  0  0  0  0  0  0
   -2.3195   21.0983  -28.5544 H   0  0  0  0  0  0  0  0  0  0  0  0
   -3.8890   22.5600  -28.8410 C   0  0  0  0  0  0  0  0  0  0  0  0
   -3.9009   22.8625  -27.7835 H   0  0  0  0  0  0  0  0  0  0  0  0
   -4.7640   23.1620  -29.7480 C   0  0  0  0  0  0  0  0  0  0  0  0
   -5.4718   23.9267  -29.3954 H   0  0  0  0  0  0  0  0  0  0  0  0
   -4.7500   22.8010  -31.1080 C   0  0  0  0  0  0  0  0  0  0  0  0
   -5.7810   23.4140  -32.0300 C   0  0  0  0  0  0  0  0  0  0  0  0
   -5.9872   24.4448  -31.7059 H   0  0  0  0  0  0  0  0  0  0  0  0
   -5.3847   23.4072  -33.0561 H   0  0  0  0  0  0  0  0  0  0  0  0
   -7.0620   22.6220  -32.0020 C   0  0  0  0  0  0  0  0  0  0  0  0
   -8.2980   23.2860  -32.0090 C   0  0  0  0  0  0  0  0  0  0  0  0
   -8.3298   24.3841  -32.0659 H   0  0  0  0  0  0  0  0  0  0  0  0
   -9.4880   22.5580  -31.9440 C   0  0  0  0  0  0  0  0  0  0  0  0
  -10.4537   23.0848  -31.9456 H   0  0  0  0  0  0  0  0  0  0  0  0
   -9.4560   21.1630  -31.8770 C   0  0  0  0  0  0  0  0  0  0  0  0
  -10.3966   20.5968  -31.8082 H   0  0  0  0  0  0  0  0  0  0  0  0
   -8.2280   20.4790  -31.8970 C   0  0  0  0  0  0  0  0  0  0  0  0
   -8.1870   18.9770  -31.7720 C   0  0  0  0  0  0  0  0  0  0  0  0
   -6.9360   18.5520  -31.3580 F   0  0  0  0  0  0  0  0  0  0  0  0
   -9.1200   18.5400  -30.8480 F   0  0  0  0  0  0  0  0  0  0  0  0
   -8.4690   18.4100  -33.0010 F   0  0  0  0  0  0  0  0  0  0  0  0
   -7.0340   21.2190  -31.9400 C   0  0  0  0  0  0  0  0  0  0  0  0
   -6.0675   20.6940  -31.9249 H   0  0  0  0  0  0  0  0  0  0  0  0
   -6.0910   18.9860  -34.5210 N   0  0  0  0  0  0  0  0  0  0  0  0
   -6.8090   19.5900  -34.9790 H   0  0  0  0  0  0  0  0  0  0  0  0
   -6.1170   17.6270  -34.5640 C   0  0  0  0  0  0  0  0  0  0  0  0
   -6.9002   17.0660  -35.0949 H   0  0  0  0  0  0  0  0  0  0  0  0
  1  2  1  0
  2  3  1  0
  3  4  1  0
  4  5  2  0
  5  6  1  0
  6  7  2  0
  6  8  1  0
  8  9  2  0
  9 10  1  0
  9 11  1  0
 11 12  1  0
 11 13  2  0
 13 14  1  0
 13 15  1  0
 15 16  1  0
 15 17  2  0
 17 18  1  0
 18 19  1  0
 18 20  1  0
 18 21  1  0
 21 22  2  0
 22 23  1  0
 22 24  1  0
 24 25  1  0
 24 26  2  0
 26 27  1  0
 26 28  1  0
 28 29  1  0
 29 30  1  0
 29 31  1  0
 29 32  1  0
 28 33  2  0
 33 34  1  0
  4 35  1  0
 35 36  1  0
 35 37  1  0
 37 38  1  0
 37  2  2  0
 17  8  1  0
 33 21  1  0
M  END
>  <UniqueID>  (2) 
2

>  <SMILES>  (2) 
O=C(/N=c1/[nH]ccs1)c1ccccc1Cc1cccc(C(F)(F)F)c1

>  <Energy>  (2) 
81.21483627603541

>  <Genealogy>  (2) 
O=C(/N=c1/[nH]ccs1)c1ccccc1Cc1cccc(C(F)(F)F)c1 (cis-trans isomerization)
O=C(/N=c1/[nH]ccs1)c1ccccc1Cc1cccc(C(F)(F)F)c1 (3D coordinates assigned)
O=C(/N=c1/[nH]ccs1)c1ccccc1Cc1cccc(C(F)(F)F)c1 (optimized conformer: 81.21483627603541 kcal/mol)

>  <smiles>  (2) 
O=C(N=c1[nH]ccs1)c1ccccc1Cc1cccc(C(F)(F)F)c1

>  <score_type>  (2) 
oracle

>  <origin>  (2) 
adgpu

>  <m_score__min__energy>  (2) 
-8.3399999999999999

>  <m_primary>  (2) 
energy

$$$$
2:0
     RDKit          3D

 44 46  0  0  0  0  0  0  0  0999 V2000
   -9.5624   18.1343  -31.5842 H   0  0  0  0  0  0  0  0  0  0  0  0
   -8.5600   18.4530  -31.9060 C   0  0  0  0  0  0  0  0  0  0  0  0
   -7.7160   17.5010  -32.3310 C   0  0  0  0  0  0  0  0  0  0  0  0
   -8.0246   16.4535  -32.1983 H   0  0  0  0  0  0  0  0  0  0  0  0
   -6.4030   17.7500  -32.9640 C   0  0  0  0  0  0  0  0  0  0  0  0
   -5.3040   18.1960  -32.2080 C   0  0  0  0  0  0  0  0  0  0  0  0
   -5.4091   18.3461  -31.1234 H   0  0  0  0  0  0  0  0  0  0  0  0
   -4.0790   18.4490  -32.8310 C   0  0  0  0  0  0  0  0  0  0  0  0
   -3.2164   18.7778  -32.2329 H   0  0  0  0  0  0  0  0  0  0  0  0
   -3.9480   18.2850  -34.2130 C   0  0  0  0  0  0  0  0  0  0  0  0
   -2.9812   18.4785  -34.7008 H   0  0  0  0  0  0  0  0  0  0  0  0
   -5.0460   17.8750  -34.9750 C   0  0  0  0  0  0  0  0  0  0  0  0
   -4.9448   17.7544  -36.0637 H   0  0  0  0  0  0  0  0  0  0  0  0
   -6.2730   17.6180  -34.3550 C   0  0  0  0  0  0  0  0  0  0  0  0
   -7.1391   17.3113  -34.9598 H   0  0  0  0  0  0  0  0  0  0  0  0
   -8.2500   19.8940  -31.8360 C   0  0  0  0  0  0  0  0  0  0  0  0
   -7.1260   20.4190  -31.3080 N   0  0  0  0  0  0  0  0  0  0  0  0
   -7.2240   21.7360  -31.3840 N   0  0  0  0  0  0  0  0  0  0  0  0
   -6.1730   22.6190  -30.9620 C   0  0  0  0  0  0  0  0  0  0  0  0
   -6.4740   23.6650  -30.0800 C   0  0  0  0  0  0  0  0  0  0  0  0
   -7.5055   23.7964  -29.7211 H   0  0  0  0  0  0  0  0  0  0  0  0
   -5.4750   24.5420  -29.6530 C   0  0  0  0  0  0  0  0  0  0  0  0
   -5.7209   25.3545  -28.9534 H   0  0  0  0  0  0  0  0  0  0  0  0
   -4.1570   24.3900  -30.1140 C   0  0  0  0  0  0  0  0  0  0  0  0
   -3.1160   25.2400  -29.7100 O   0  0  0  0  0  0  0  0  0  0  0  0
   -2.1730   24.9270  -28.6900 C   0  0  0  0  0  0  0  0  0  0  0  0
   -2.6352   25.0804  -27.7037 H   0  0  0  0  0  0  0  0  0  0  0  0
   -1.8606   23.8770  -28.7892 H   0  0  0  0  0  0  0  0  0  0  0  0
   -1.2947   25.5818  -28.7892 H   0  0  0  0  0  0  0  0  0  0  0  0
   -3.8600   23.3590  -31.0130 C   0  0  0  0  0  0  0  0  0  0  0  0
   -2.8296   23.2373  -31.3784 H   0  0  0  0  0  0  0  0  0  0  0  0
   -4.8640   22.4750  -31.4560 C   0  0  0  0  0  0  0  0  0  0  0  0
   -4.6010   21.4650  -32.3960 O   0  0  0  0  0  0  0  0  0  0  0  0
   -3.6400   21.5640  -33.4410 C   0  0  0  0  0  0  0  0  0  0  0  0
   -2.6349   21.6675  -33.0062 H   0  0  0  0  0  0  0  0  0  0  0  0
   -3.6791   20.6571  -34.0623 H   0  0  0  0  0  0  0  0  0  0  0  0
   -3.8632   22.4439  -34.0623 H   0  0  0  0  0  0  0  0  0  0  0  0
   -8.3970   22.0660  -31.9680 C   0  0  0  0  0  0  0  0  0  0  0  0
   -8.8680   23.4540  -32.2820 C   0  0  0  0  0  0  0  0  0  0  0  0
   -9.0530   23.9992  -31.3447 H   0  0  0  0  0  0  0  0  0  0  0  0
   -8.0978   23.9793  -32.8659 H   0  0  0  0  0  0  0  0  0  0  0  0
   -9.7988   23.4020  -32.8659 H   0  0  0  0  0  0  0  0  0  0  0  0
   -9.0950   20.9080  -32.2470 C   0  0  0  0  0  0  0  0  0  0  0  0
  -10.0955   20.8137  -32.6944 H   0  0  0  0  0  0  0  0  0  0  0  0
  1  2  1  0
  2  3  2  0
  3  4  1  0
  3  5  1  0
  5  6  2  0
  6  7  1  0
  6  8  1  0
  8  9  1  0
  8 10  2  0
 10 11  1  0
 10 12  1  0
 12 13  1  0
 12 14  2  0
 14 15  1  0
  2 16  1  0
 16 17  2  0
 17 18  1  0
 18 19  1  0
 19 20  2  0
 20 21  1  0
 20 22  1  0
 22 23  1  0
 22 24  2  0
 24 25  1  0
 25 26  1  0
 26 27  1  0
 26 28  1  0
 26 29  1  0
 24 30  1  0
 30 31  1  0
 30 32  2  0
 32 33  1  0
 33 34  1  0
 34 35  1  0
 34 36  1  0
 34 37  1  0
 18 38  1  0
 38 39  1  0
 39 40  1  0
 39 41  1  0
 39 42  1  0
 38 43  2  0
 43 44  1  0
 14  5  1  0
 43 16  1  0
 32 19  1  0
M  END
>  <UniqueID>  (3) 
3

>  <SMILES>  (3) 
COc1ccc(-n2nc(/C=C\c3ccccc3)cc2C)c(OC)c1

>  <Energy>  (3) 
86.24978498384057

>  <Genealogy>  (3) 
COc1ccc(-n2nc(/C=C\c3ccccc3)cc2C)c(OC)c1 (cis-trans isomerization)
COc1ccc(-n2nc(/C=C\c3ccccc3)cc2C)c(OC)c1 (3D coordinates assigned)
COc1ccc(-n2nc(/C=C\c3ccccc3)cc2C)c(OC)c1 (optimized conformer: 86.24978498384057 kcal/mol)

>  <smiles>  (3) 
COc1ccc(-n2nc(C=Cc3ccccc3)cc2C)c(OC)c1

>  <score_type>  (3) 
oracle

>  <origin>  (3) 
adgpu

>  <m_score__min__energy>  (3) 
-8.5899999999999999

>  <m_primary>  (3) 
energy

$$$$
3:0
     RDKit          3D

 44 46  0  0  0  0  0  0  0  0999 V2000
   -9.1130   18.3720  -31.6720 C   0  0  0  0  0  0  0  0  0  0  0  0
   -8.0880   19.4100  -32.0000 C   0  0  0  0  0  0  0  0  0  0  0  0
   -6.8560   19.0400  -32.5510 C   0  0  0  0  0  0  0  0  0  0  0  0
   -5.9340   20.0440  -32.8660 C   0  0  0  0  0  0  0  0  0  0  0  0
   -4.6030   19.7000  -33.4510 C   0  0  0  0  0  0  0  0  0  0  0  0
   -6.2490   21.3430  -32.6190 N   0  0  0  0  0  0  0  0  0  0  0  0
   -7.4550   21.6870  -32.1000 C   0  0  0  0  0  0  0  0  0  0  0  0
   -7.8600   23.4150  -31.8530 S   0  0  0  0  0  0  0  0  0  0  0  0
   -6.1350   24.0020  -31.9940 C   0  0  0  0  0  0  0  0  0  0  0  0
   -5.4040   23.8270  -30.7000 C   0  0  0  0  0  0  0  0  0  0  0  0
   -5.7860   22.9880  -29.6600 C   0  0  0  0  0  0  0  0  0  0  0  0
   -4.8510   22.9360  -28.6190 C   0  0  0  0  0  0  0  0  0  0  0  0
   -3.7280   23.7190  -28.8570 C   0  0  0  0  0  0  0  0  0  0  0  0
   -2.6100   23.8260  -27.9640 N   0  0  0  0  0  0  0  0  0  0  0  0
   -1.6220   24.8680  -28.0290 C   0  0  0  0  0  0  0  0  0  0  0  0
   -1.6080   25.6700  -29.0010 O   0  0  0  0  0  0  0  0  0  0  0  0
   -0.6060   24.9980  -26.9560 C   0  0  0  0  0  0  0  0  0  0  0  0
    0.7090   24.5710  -27.2190 C   0  0  0  0  0  0  0  0  0  0  0  0
    1.6930   24.6450  -26.2330 C   0  0  0  0  0  0  0  0  0  0  0  0
    1.3810   25.1430  -24.9700 C   0  0  0  0  0  0  0  0  0  0  0  0
    0.0850   25.5780  -24.6890 C   0  0  0  0  0  0  0  0  0  0  0  0
   -0.9180   25.5250  -25.6740 C   0  0  0  0  0  0  0  0  0  0  0  0
   -2.2950   26.0340  -25.3360 C   0  0  0  0  0  0  0  0  0  0  0  0
   -3.9040   24.5030  -30.3390 S   0  0  0  0  0  0  0  0  0  0  0  0
   -8.3650   20.7250  -31.7950 N   0  0  0  0  0  0  0  0  0  0  0  0
   -9.2045   18.2793  -30.5797 H   0  0  0  0  0  0  0  0  0  0  0  0
  -10.0834   18.6676  -32.0975 H   0  0  0  0  0  0  0  0  0  0  0  0
   -8.8052   17.4054  -32.0975 H   0  0  0  0  0  0  0  0  0  0  0  0
   -6.6174   17.9817  -32.7327 H   0  0  0  0  0  0  0  0  0  0  0  0
   -3.8832   19.5140  -32.6403 H   0  0  0  0  0  0  0  0  0  0  0  0
   -4.6977   18.7968  -34.0717 H   0  0  0  0  0  0  0  0  0  0  0  0
   -4.2482   20.5360  -34.0717 H   0  0  0  0  0  0  0  0  0  0  0  0
   -5.6217   23.4264  -32.7783 H   0  0  0  0  0  0  0  0  0  0  0  0
   -6.1476   25.0720  -32.2487 H   0  0  0  0  0  0  0  0  0  0  0  0
   -6.7288   22.4213  -29.6551 H   0  0  0  0  0  0  0  0  0  0  0  0
   -4.9910   22.3372  -27.7070 H   0  0  0  0  0  0  0  0  0  0  0  0
   -2.4680   23.0510  -27.2770 H   0  0  0  0  0  0  0  0  0  0  0  0
    0.9637   24.1746  -28.2130 H   0  0  0  0  0  0  0  0  0  0  0  0
    2.7172   24.3095  -26.4532 H   0  0  0  0  0  0  0  0  0  0  0  0
    2.1576   25.1935  -24.1926 H   0  0  0  0  0  0  0  0  0  0  0  0
   -0.1544   25.9659  -23.6879 H   0  0  0  0  0  0  0  0  0  0  0  0
   -2.4119   26.0772  -24.2431 H   0  0  0  0  0  0  0  0  0  0  0  0
   -2.4279   27.0407  -25.7591 H   0  0  0  0  0  0  0  0  0  0  0  0
   -3.0507   25.3558  -25.7591 H   0  0  0  0  0  0  0  0  0  0  0  0
  1  2  1  0
  2  3  2  0
  3  4  1  0
  4  5  1  0
  4  6  2  0
  6  7  1  0
  7  8  1  0
  8  9  1  0
  9 10  1  0
 10 11  2  0
 11 12  1  0
 12 13  2  0
 13 14  1  0
 14 15  1  0
 15 16  2  0
 15 17  1  0
 17 18  2  0
 18 19  1  0
 19 20  2  0
 20 21  1  0
 21 22  2  0
 22 23  1  0
 13 24  1  0
  7 25  2  0
 25  2  1  0
 24 10  1  0
 22 17  1  0
  1 26  1  0
  1 27  1  0
  1 28  1  0
  3 29  1  0
  5 30  1  0
  5 31  1  0
  5 32  1  0
  9 33  1  0
  9 34  1  0
 11 35  1  0
 12 36  1  0
 14 37  1  0
 18 38  1  0
 19 39  1  0
 20 40  1  0
 21 41  1  0
 23 42  1  0
 23 43  1  0
 23 44  1  0
M  END
>  <UniqueID>  (4) 
4

>  <SMILES>  (4) 
Cc1cc(C)nc(SCc2ccc(NC(=O)c3ccccc3C)s2)n1

>  <Energy>  (4) 
70.25429399247133

>  <Genealogy>  (4) 
Cc1cc(C)nc(SCc2ccc(NC(=O)c3ccccc3C)s2)n1 (3D coordinates assigned)
Cc1cc(C)nc(SCc2ccc(NC(=O)c3ccccc3C)s2)n1 (optimized conformer: 70.25429399247133 kcal/mol)

>  <smiles>  (4) 
Cc1cc(C)nc(SCc2ccc(NC(=O)c3ccccc3C)s2)n1

>  <score_type>  (4) 
oracle

>  <origin>  (4) 
adgpu

>  <m_score__min__energy>  (4) 
-8.8599999999999994

>  <m_primary>  (4) 
energy

$$$$
4:0
     RDKit          3D

 44 46  0  0  0  0  0  0  0  0999 V2000
   -0.3013   19.0114  -29.8219 H   0  0  0  0  0  0  0  0  0  0  0  0
   -0.3420   19.3230  -30.8760 C   0  0  0  0  0  0  0  0  0  0  0  0
    0.3610   20.4490  -31.2950 C   0  0  0  0  0  0  0  0  0  0  0  0
    0.9496   21.0304  -30.5700 H   0  0  0  0  0  0  0  0  0  0  0  0
    0.3200   20.8410  -32.6330 C   0  0  0  0  0  0  0  0  0  0  0  0
    0.8765   21.7334  -32.9554 H   0  0  0  0  0  0  0  0  0  0  0  0
   -0.4250   20.1080  -33.5750 C   0  0  0  0  0  0  0  0  0  0  0  0
   -0.4020   20.5590  -35.0130 C   0  0  0  0  0  0  0  0  0  0  0  0
   -0.3460   21.6569  -35.0521 H   0  0  0  0  0  0  0  0  0  0  0  0
    0.4754   20.1289  -35.5182 H   0  0  0  0  0  0  0  0  0  0  0  0
   -1.3186   20.2204  -35.5182 H   0  0  0  0  0  0  0  0  0  0  0  0
   -1.1650   18.9700  -33.1450 C   0  0  0  0  0  0  0  0  0  0  0  0
   -2.0110   18.1620  -34.0620 C   0  0  0  0  0  0  0  0  0  0  0  0
   -1.5680   17.1000  -34.5750 O   0  0  0  0  0  0  0  0  0  0  0  0
   -3.3520   18.5880  -34.3450 N   0  0  0  0  0  0  0  0  0  0  0  0
   -4.0610   19.6630  -33.7130 C   0  0  0  0  0  0  0  0  0  0  0  0
   -3.4860   20.9350  -33.5350 C   0  0  0  0  0  0  0  0  0  0  0  0
   -2.4687   21.1328  -33.9037 H   0  0  0  0  0  0  0  0  0  0  0  0
   -4.2030   21.9490  -32.8910 C   0  0  0  0  0  0  0  0  0  0  0  0
   -3.7494   22.9426  -32.7603 H   0  0  0  0  0  0  0  0  0  0  0  0
   -5.4960   21.7040  -32.4120 C   0  0  0  0  0  0  0  0  0  0  0  0
   -6.3920   22.9750  -31.5860 S   0  0  0  0  0  0  0  0  0  0  0  0
   -7.0000   22.4020  -30.3370 O   0  0  0  0  0  0  0  0  0  0  0  0
   -7.4760   23.4770  -32.4980 O   0  0  0  0  0  0  0  0  0  0  0  0
   -5.2810   24.2510  -31.2020 N   0  0  0  0  0  0  0  0  0  0  0  0
   -4.1990   24.2160  -30.4780 C   0  0  0  0  0  0  0  0  0  0  0  0
   -3.4730   25.2910  -30.2810 O   0  0  0  0  0  0  0  0  0  0  0  0
   -2.4350   25.0350  -29.5390 N   0  0  0  0  0  0  0  0  0  0  0  0
   -2.4830   23.7250  -29.2310 C   0  0  0  0  0  0  0  0  0  0  0  0
   -1.4480   23.0390  -28.3990 C   0  0  0  0  0  0  0  0  0  0  0  0
   -1.6753   23.1896  -27.3333 H   0  0  0  0  0  0  0  0  0  0  0  0
   -1.4497   21.9626  -28.6257 H   0  0  0  0  0  0  0  0  0  0  0  0
   -0.4573   23.4599  -28.6257 H   0  0  0  0  0  0  0  0  0  0  0  0
   -3.6060   23.1460  -29.8060 C   0  0  0  0  0  0  0  0  0  0  0  0
   -3.9770   21.6940  -29.7360 C   0  0  0  0  0  0  0  0  0  0  0  0
   -4.0557   21.3860  -28.6829 H   0  0  0  0  0  0  0  0  0  0  0  0
   -4.9439   21.5380  -30.2369 H   0  0  0  0  0  0  0  0  0  0  0  0
   -3.2035   21.0933  -30.2369 H   0  0  0  0  0  0  0  0  0  0  0  0
   -6.0570   20.4290  -32.5590 C   0  0  0  0  0  0  0  0  0  0  0  0
   -7.0648   20.2254  -32.1679 H   0  0  0  0  0  0  0  0  0  0  0  0
   -5.3410   19.4140  -33.2010 C   0  0  0  0  0  0  0  0  0  0  0  0
   -5.7858   18.4133  -33.3047 H   0  0  0  0  0  0  0  0  0  0  0  0
   -1.0980   18.5890  -31.7900 C   0  0  0  0  0  0  0  0  0  0  0  0
   -1.6494   17.7006  -31.4484 H   0  0  0  0  0  0  0  0  0  0  0  0
  1  2  1  0
  2  3  2  0
  3  4  1  0
  3  5  1  0
  5  6  1  0
  5  7  2  0
  7  8  1  0
  8  9  1  0
  8 10  1  0
  8 11  1  0
  7 12  1  0
 12 13  1  0
 13 14  2  0
 13 15  1  0
 15 16  1  0
 16 17  2  0
 17 18  1  0
 17 19  1  0
 19 20  1  0
 19 21  2  0
 21 22  1  0
 22 23  2  0
 22 24  2  0
 22 25  1  0
 25 26  2  0
 26 27  1  0
 27 28  1  0
 28 29  1  0
 29 30  1  0
 30 31  1  0
 30 32  1  0
 30 33  1  0
 29 34  2  0
 34 35  1  0
 35 36  1  0
 35 37  1  0
 35 38  1  0
 21 39  1  0
 39 40  1  0
 39 41  2  0
 41 42  1  0
 12 43  2  0
 43 44  1  0
 43  2  1  0
 41 16  1  0
 34 26  1  0
M  CHG  2  15  -1  28  -1
M  END
>  <UniqueID>  (5) 
5

>  <SMILES>  (5) 
Cc1ccccc1C(=O)[N-]c1ccc(S(=O)(=O)/N=c2/o[n-]c(C)c2C)cc1

>  <Energy>  (5) 
94.52676011746301

>  <Genealogy>  (5) 
Cc1ccccc1C(=O)[N-]c1ccc(S(=O)(=O)N=c2o[n-]c(C)c2C)cc1 (protonated)
Cc1ccccc1C(=O)[N-]c1ccc(S(=O)(=O)/N=c2/o[n-]c(C)c2C)cc1 (cis-trans isomerization)
Cc1ccccc1C(=O)[N-]c1ccc(S(=O)(=O)/N=c2/o[n-]c(C)c2C)cc1 (3D coordinates assigned)
Cc1ccccc1C(=O)[N-]c1ccc(S(=O)(=O)/N=c2/o[n-]c(C)c2C)cc1 (optimized conformer: 94.52676011746301 kcal/mol)

>  <smiles>  (5) 
Cc1ccccc1C(=O)Nc1ccc(S(=O)(=O)N=c2o[nH]c(C)c2C)cc1

>  <score_type>  (5) 
oracle

>  <origin>  (5) 
adgpu

>  <m_score__min__energy>  (5) 
-10.81

>  <m_primary>  (5) 
energy

$$$$
5:0
     RDKit          3D

 43 45  0  0  0  0  0  0  0  0999 V2000
   -1.0370   26.5470  -28.9570 N   0  0  0  0  0  0  0  0  0  0  0  0
   -1.2350   25.3690  -27.7070 S   0  0  0  0  0  0  0  0  0  0  0  0
    0.0870   25.1550  -27.0250 O   0  0  0  0  0  0  0  0  0  0  0  0
   -2.2290   25.8690  -26.6970 O   0  0  0  0  0  0  0  0  0  0  0  0
   -1.8190   23.8590  -28.4070 C   0  0  0  0  0  0  0  0  0  0  0  0
   -1.3840   22.6290  -27.8940 C   0  0  0  0  0  0  0  0  0  0  0  0
   -1.8450   21.4330  -28.4470 C   0  0  0  0  0  0  0  0  0  0  0  0
   -2.7450   21.4540  -29.5140 C   0  0  0  0  0  0  0  0  0  0  0  0
   -3.1940   22.6760  -30.0350 C   0  0  0  0  0  0  0  0  0  0  0  0
   -4.3520   22.6920  -31.3660 S   0  0  0  0  0  0  0  0  0  0  0  0
   -5.3820   21.6230  -31.1350 O   0  0  0  0  0  0  0  0  0  0  0  0
   -5.0410   24.0260  -31.4530 O   0  0  0  0  0  0  0  0  0  0  0  0
   -3.5430   22.3840  -32.8430 O   0  0  0  0  0  0  0  0  0  0  0  0
   -2.6360   21.3360  -33.0630 C   0  0  0  0  0  0  0  0  0  0  0  0
   -1.3170   21.5690  -33.5000 C   0  0  0  0  0  0  0  0  0  0  0  0
   -0.4220   20.5070  -33.6500 C   0  0  0  0  0  0  0  0  0  0  0  0
   -0.8280   19.2030  -33.3620 C   0  0  0  0  0  0  0  0  0  0  0  0
    0.3030   17.8740  -33.5370 Cl  0  0  0  0  0  0  0  0  0  0  0  0
   -2.1370   18.9570  -32.9390 C   0  0  0  0  0  0  0  0  0  0  0  0
   -3.0520   20.0110  -32.8100 C   0  0  0  0  0  0  0  0  0  0  0  0
   -4.3860   19.7220  -32.3580 N   0  0  0  0  0  0  0  0  0  0  0  0
   -5.4460   19.3310  -33.2440 C   0  0  0  0  0  0  0  0  0  0  0  0
   -5.1650   18.8740  -34.3860 O   0  0  0  0  0  0  0  0  0  0  0  0
   -6.8640   19.4250  -32.8220 C   0  0  0  0  0  0  0  0  0  0  0  0
   -7.5560   18.2960  -32.3480 C   0  0  0  0  0  0  0  0  0  0  0  0
   -8.8890   18.4180  -31.9480 C   0  0  0  0  0  0  0  0  0  0  0  0
   -9.5140   19.6230  -32.0120 N   0  0  0  0  0  0  0  0  0  0  0  0
   -8.8710   20.7340  -32.4570 C   0  0  0  0  0  0  0  0  0  0  0  0
   -7.5370   20.6580  -32.8660 C   0  0  0  0  0  0  0  0  0  0  0  0
   -2.7230   23.8810  -29.4850 C   0  0  0  0  0  0  0  0  0  0  0  0
   -3.1520   25.0990  -30.0060 O   0  0  0  0  0  0  0  0  0  0  0  0
   -1.2470   26.0690  -29.8610 H   0  0  0  0  0  0  0  0  0  0  0  0
   -0.6764   22.6062  -27.0521 H   0  0  0  0  0  0  0  0  0  0  0  0
   -1.4981   20.4714  -28.0409 H   0  0  0  0  0  0  0  0  0  0  0  0
   -3.1032   20.5086  -29.9476 H   0  0  0  0  0  0  0  0  0  0  0  0
   -0.9895   22.5948  -33.7247 H   0  0  0  0  0  0  0  0  0  0  0  0
    0.6045   20.6987  -33.9957 H   0  0  0  0  0  0  0  0  0  0  0  0
   -2.4515   17.9291  -32.7056 H   0  0  0  0  0  0  0  0  0  0  0  0
   -4.5430   19.6270  -31.3280 H   0  0  0  0  0  0  0  0  0  0  0  0
   -7.0497   17.3210  -32.2925 H   0  0  0  0  0  0  0  0  0  0  0  0
   -9.4342   17.5362  -31.5802 H   0  0  0  0  0  0  0  0  0  0  0  0
   -9.4022   21.6965  -32.4955 H   0  0  0  0  0  0  0  0  0  0  0  0
   -7.0159   21.5594  -33.2209 H   0  0  0  0  0  0  0  0  0  0  0  0
  1  2  1  0
  2  3  2  0
  2  4  2  0
  2  5  1  0
  5  6  2  0
  6  7  1  0
  7  8  2  0
  8  9  1  0
  9 10  1  0
 10 11  2  0
 10 12  2  0
 10 13  1  0
 13 14  1  0
 14 15  2  0
 15 16  1  0
 16 17  2  0
 17 18  1  0
 17 19  1  0
 19 20  2  0
 20 21  1  0
 21 22  1  0
 22 23  2  0
 22 24  1  0
 24 25  2  0
 25 26  1  0
 26 27  2  0
 27 28  1  0
 28 29  2  0
  9 30  2  0
 30 31  1  0
 30  5  1  0
 20 14  1  0
 29 24  1  0
  1 32  1  0
  6 33  1  0
  7 34  1  0
  8 35  1  0
 15 36  1  0
 16 37  1  0
 19 38  1  0
 21 39  1  0
 25 40  1  0
 26 41  1  0
 28 42  1  0
 29 43  1  0
M  CHG  2   1  -1  31  -1
M  END
>  <UniqueID>  (6) 
6

>  <SMILES>  (6) 
[NH-]S(=O)(=O)c1cccc(S(=O)(=O)Oc2ccc(Cl)cc2NC(=O)c2ccncc2)c1[O-]

>  <Energy>  (6) 
54.08225848034637

>  <Genealogy>  (6) 
[NH-]S(=O)(=O)c1cccc(S(=O)(=O)Oc2ccc(Cl)cc2NC(=O)c2ccncc2)c1[O-] (protonated)
[NH-]S(=O)(=O)c1cccc(S(=O)(=O)Oc2ccc(Cl)cc2NC(=O)c2ccncc2)c1[O-] (3D coordinates assigned)
[NH-]S(=O)(=O)c1cccc(S(=O)(=O)Oc2ccc(Cl)cc2NC(=O)c2ccncc2)c1[O-] (optimized conformer: 54.08225848034637 kcal/mol)

>  <smiles>  (6) 
NS(=O)(=O)c1cccc(S(=O)(=O)Oc2ccc(Cl)cc2NC(=O)c2ccncc2)c1O

>  <score_type>  (6) 
oracle

>  <origin>  (6) 
adgpu

>  <m_score__min__energy>  (6) 
-15.25

>  <m_primary>  (6) 
energy

$$$$
6:0
     RDKit          3D

 51 54  0  0  0  0  0  0  0  0999 V2000
   -6.8590   16.5280  -33.9290 C   0  0  0  0  0  0  0  0  0  0  0  0
   -5.8780   17.6610  -33.8300 C   0  0  0  0  0  0  0  0  0  0  0  0
   -6.1020   18.8630  -33.1850 C   0  0  0  0  0  0  0  0  0  0  0  0
   -7.2240   19.3750  -32.5470 C   0  0  0  0  0  0  0  0  0  0  0  0
   -7.1260   20.6150  -31.9870 N   0  0  0  0  0  0  0  0  0  0  0  0
   -5.9930   21.3380  -32.0250 N   0  0  0  0  0  0  0  0  0  0  0  0
   -6.0000   22.6360  -31.4000 C   0  0  0  0  0  0  0  0  0  0  0  0
   -7.2100   23.2780  -31.0840 C   0  0  0  0  0  0  0  0  0  0  0  0
   -7.2020   24.5450  -30.4990 C   0  0  0  0  0  0  0  0  0  0  0  0
   -5.9920   25.1890  -30.2300 C   0  0  0  0  0  0  0  0  0  0  0  0
   -4.7730   24.5670  -30.5530 C   0  0  0  0  0  0  0  0  0  0  0  0
   -3.5040   25.1890  -30.3030 N   0  0  0  0  0  0  0  0  0  0  0  0
   -2.3020   24.6270  -29.1860 S   0  0  0  0  0  0  0  0  0  0  0  0
   -3.0630   24.1670  -27.6450 C   0  0  0  0  0  0  0  0  0  0  0  0
   -1.6300   23.4160  -29.7710 O   0  0  0  0  0  0  0  0  0  0  0  0
   -1.2660   25.6920  -28.9640 O   0  0  0  0  0  0  0  0  0  0  0  0
   -4.7880   23.2960  -31.1430 C   0  0  0  0  0  0  0  0  0  0  0  0
   -4.8730   20.8500  -32.6610 C   0  0  0  0  0  0  0  0  0  0  0  0
   -3.8160   21.5340  -32.7410 O   0  0  0  0  0  0  0  0  0  0  0  0
   -4.9460   19.5810  -33.2380 C   0  0  0  0  0  0  0  0  0  0  0  0
   -4.0110   18.8070  -33.9090 C   0  0  0  0  0  0  0  0  0  0  0  0
   -2.5860   19.2200  -34.1590 C   0  0  0  0  0  0  0  0  0  0  0  0
   -4.5890   17.6240  -34.2710 N   0  0  0  0  0  0  0  0  0  0  0  0
   -3.9470   16.4760  -34.9290 C   0  0  0  0  0  0  0  0  0  0  0  0
   -3.4600   15.4850  -33.9050 C   0  0  0  0  0  0  0  0  0  0  0  0
   -2.0930   15.4000  -33.5930 C   0  0  0  0  0  0  0  0  0  0  0  0
   -1.6440   14.4930  -32.6280 C   0  0  0  0  0  0  0  0  0  0  0  0
   -2.5550   13.6640  -31.9680 C   0  0  0  0  0  0  0  0  0  0  0  0
   -3.9170   13.7410  -32.2710 C   0  0  0  0  0  0  0  0  0  0  0  0
   -4.3700   14.6460  -33.2360 C   0  0  0  0  0  0  0  0  0  0  0  0
   -7.1432   16.1997  -32.9183 H   0  0  0  0  0  0  0  0  0  0  0  0
   -7.7551   16.8651  -34.4706 H   0  0  0  0  0  0  0  0  0  0  0  0
   -6.3971   15.6893  -34.4706 H   0  0  0  0  0  0  0  0  0  0  0  0
   -8.1603   18.8000  -32.4949 H   0  0  0  0  0  0  0  0  0  0  0  0
   -8.1669   22.7797  -31.2987 H   0  0  0  0  0  0  0  0  0  0  0  0
   -8.1526   25.0386  -30.2487 H   0  0  0  0  0  0  0  0  0  0  0  0
   -5.9928   26.1855  -29.7642 H   0  0  0  0  0  0  0  0  0  0  0  0
   -2.4511   24.5369  -26.8091 H   0  0  0  0  0  0  0  0  0  0  0  0
   -4.0688   24.6085  -27.5866 H   0  0  0  0  0  0  0  0  0  0  0  0
   -3.1396   23.0712  -27.5866 H   0  0  0  0  0  0  0  0  0  0  0  0
   -3.8379   22.8092  -31.4081 H   0  0  0  0  0  0  0  0  0  0  0  0
   -2.0732   19.3686  -33.1973 H   0  0  0  0  0  0  0  0  0  0  0  0
   -2.0715   18.4340  -34.7313 H   0  0  0  0  0  0  0  0  0  0  0  0
   -2.5715   20.1593  -34.7313 H   0  0  0  0  0  0  0  0  0  0  0  0
   -4.6753   15.9843  -35.5907 H   0  0  0  0  0  0  0  0  0  0  0  0
   -3.0868   16.8360  -35.5125 H   0  0  0  0  0  0  0  0  0  0  0  0
   -1.3721   16.0502  -34.1104 H   0  0  0  0  0  0  0  0  0  0  0  0
   -0.5722   14.4320  -32.3881 H   0  0  0  0  0  0  0  0  0  0  0  0
   -2.1999   12.9506  -31.2097 H   0  0  0  0  0  0  0  0  0  0  0  0
   -4.6335   13.0890  -31.7499 H   0  0  0  0  0  0  0  0  0  0  0  0
   -5.4427   14.7022  -33.4731 H   0  0  0  0  0  0  0  0  0  0  0  0
  1  2  1  0
  2  3  2  0
  3  4  1  0
  4  5  2  0
  5  6  1  0
  6  7  1  0
  7  8  2  0
  8  9  1  0
  9 10  2  0
 10 11  1  0
 11 12  1  0
 12 13  1  0
 13 14  1  0
 13 15  2  0
 13 16  2  0
 11 17  2  0
  6 18  1  0
 18 19  2  0
 18 20  1  0
 20 21  2  0
 21 22  1  0
 21 23  1  0
 23 24  1  0
 24 25  1  0
 25 26  2  0
 26 27  1  0
 27 28  2  0
 28 29  1  0
 29 30  2  0
 23  2  1  0
 30 25  1  0
 20  3  1  0
 17  7  1  0
  1 31  1  0
  1 32  1  0
  1 33  1  0
  4 34  1  0
  8 35  1  0
  9 36  1  0
 10 37  1  0
 14 38  1  0
 14 39  1  0
 14 40  1  0
 17 41  1  0
 22 42  1  0
 22 43  1  0
 22 44  1  0
 24 45  1  0
 24 46  1  0
 26 47  1  0
 27 48  1  0
 28 49  1  0
 29 50  1  0
 30 51  1  0
M  CHG  1  12  -1
M  END
>  <UniqueID>  (7) 
7

>  <SMILES>  (7) 
Cc1c2cnn(-c3cccc([N-]S(C)(=O)=O)c3)c(=O)c2c(C)n1Cc1ccccc1

>  <Energy>  (7) 
97.7892422572338

>  <Genealogy>  (7) 
Cc1c2cnn(-c3cccc([N-]S(C)(=O)=O)c3)c(=O)c2c(C)n1Cc1ccccc1 (protonated)
Cc1c2cnn(-c3cccc([N-]S(C)(=O)=O)c3)c(=O)c2c(C)n1Cc1ccccc1 (3D coordinates assigned)
Cc1c2cnn(-c3cccc([N-]S(C)(=O)=O)c3)c(=O)c2c(C)n1Cc1ccccc1 (optimized conformer: 97.7892422572338 kcal/mol)

>  <smiles>  (7) 
Cc1c2cnn(-c3cccc(NS(C)(=O)=O)c3)c(=O)c2c(C)n1Cc1ccccc1

>  <score_type>  (7) 
oracle

>  <origin>  (7) 
adgpu

>  <m_score__min__energy>  (7) 
-11.5

>  <m_primary>  (7) 
energy

$$$$
7:0
     RDKit          3D

 43 45  0  0  0  0  0  0  0  0999 V2000
   -8.7600   21.0390  -31.5070 C   0  0  0  0  0  0  0  0  0  0  0  0
   -7.7870   22.1520  -31.2810 C   0  0  0  0  0  0  0  0  0  0  0  0
   -7.1310   22.7500  -32.3640 C   0  0  0  0  0  0  0  0  0  0  0  0
   -6.2160   23.7770  -32.1280 C   0  0  0  0  0  0  0  0  0  0  0  0
   -5.9650   24.2110  -30.8190 C   0  0  0  0  0  0  0  0  0  0  0  0
   -5.0010   25.3060  -30.5700 C   0  0  0  0  0  0  0  0  0  0  0  0
   -5.4270   26.4890  -30.4870 O   0  0  0  0  0  0  0  0  0  0  0  0
   -3.5900   25.0760  -30.4470 N   0  0  0  0  0  0  0  0  0  0  0  0
   -2.9600   23.8220  -30.1460 C   0  0  0  0  0  0  0  0  0  0  0  0
   -3.4770   22.6670  -30.7460 C   0  0  0  0  0  0  0  0  0  0  0  0
   -2.9670   21.4080  -30.4210 C   0  0  0  0  0  0  0  0  0  0  0  0
   -1.9280   21.2920  -29.4980 C   0  0  0  0  0  0  0  0  0  0  0  0
   -1.3760   22.4360  -28.9200 C   0  0  0  0  0  0  0  0  0  0  0  0
   -1.8580   23.7130  -29.2580 C   0  0  0  0  0  0  0  0  0  0  0  0
   -1.1520   24.8970  -28.7160 C   0  0  0  0  0  0  0  0  0  0  0  0
   -1.2360   25.9920  -29.3330 O   0  0  0  0  0  0  0  0  0  0  0  0
   -0.3580   24.8380  -27.5220 N   0  0  0  0  0  0  0  0  0  0  0  0
   -0.5270   25.6180  -26.3260 C   0  0  0  0  0  0  0  0  0  0  0  0
   -0.7440   27.0070  -26.3880 C   0  0  0  0  0  0  0  0  0  0  0  0
   -0.9140   27.7500  -25.2170 C   0  0  0  0  0  0  0  0  0  0  0  0
   -0.8520   27.1220  -23.9740 C   0  0  0  0  0  0  0  0  0  0  0  0
   -0.5980   25.7520  -23.8960 C   0  0  0  0  0  0  0  0  0  0  0  0
   -0.4060   24.9940  -25.0640 C   0  0  0  0  0  0  0  0  0  0  0  0
   -0.1430   23.5190  -24.9410 C   0  0  0  0  0  0  0  0  0  0  0  0
   -6.6250   23.5640  -29.7610 C   0  0  0  0  0  0  0  0  0  0  0  0
   -7.5090   22.5630  -30.0140 N   0  0  0  0  0  0  0  0  0  0  0  0
   -9.1017   20.6481  -30.5372 H   0  0  0  0  0  0  0  0  0  0  0  0
   -9.6232   21.4162  -32.0750 H   0  0  0  0  0  0  0  0  0  0  0  0
   -8.2708   20.2340  -32.0750 H   0  0  0  0  0  0  0  0  0  0  0  0
   -7.3350   22.4134  -33.3912 H   0  0  0  0  0  0  0  0  0  0  0  0
   -5.6901   24.2474  -32.9719 H   0  0  0  0  0  0  0  0  0  0  0  0
   -4.2920   22.7521  -31.4798 H   0  0  0  0  0  0  0  0  0  0  0  0
   -3.3853   20.5070  -30.8935 H   0  0  0  0  0  0  0  0  0  0  0  0
   -1.5433   20.2982  -29.2254 H   0  0  0  0  0  0  0  0  0  0  0  0
   -0.5562   22.3379  -28.1932 H   0  0  0  0  0  0  0  0  0  0  0  0
   -0.7800   27.5112  -27.3650 H   0  0  0  0  0  0  0  0  0  0  0  0
   -1.0972   28.8330  -25.2761 H   0  0  0  0  0  0  0  0  0  0  0  0
   -1.0033   27.7064  -23.0545 H   0  0  0  0  0  0  0  0  0  0  0  0
   -0.5477   25.2615  -22.9127 H   0  0  0  0  0  0  0  0  0  0  0  0
   -0.0937   23.2428  -23.8774 H   0  0  0  0  0  0  0  0  0  0  0  0
   -0.9556   22.9598  -25.4278 H   0  0  0  0  0  0  0  0  0  0  0  0
    0.8128   23.2751  -25.4278 H   0  0  0  0  0  0  0  0  0  0  0  0
   -6.4255   23.8689  -28.7231 H   0  0  0  0  0  0  0  0  0  0  0  0
  1  2  1  0
  2  3  2  0
  3  4  1  0
  4  5  2  0
  5  6  1  0
  6  7  2  0
  6  8  1  0
  8  9  1  0
  9 10  2  0
 10 11  1  0
 11 12  2  0
 12 13  1  0
 13 14  2  0
 14 15  1  0
 15 16  2  0
 15 17  1  0
 17 18  1  0
 18 19  2  0
 19 20  1  0
 20 21  2  0
 21 22  1  0
 22 23  2  0
 23 24  1  0
  5 25  1  0
 25 26  2  0
 26  2  1  0
 14  9  1  0
 23 18  1  0
  1 27  1  0
  1 28  1  0
  1 29  1  0
  3 30  1  0
  4 31  1  0
 10 32  1  0
 11 33  1  0
 12 34  1  0
 13 35  1  0
 19 36  1  0
 20 37  1  0
 21 38  1  0
 22 39  1  0
 24 40  1  0
 24 41  1  0
 24 42  1  0
 25 43  1  0
M  CHG  2   8  -1  17  -1
M  END
>  <UniqueID>  (8) 
8

>  <SMILES>  (8) 
Cc1ccc(C(=O)[N-]c2ccccc2C(=O)[N-]c2ccccc2C)cn1

>  <Energy>  (8) 
61.76977912051204

>  <Genealogy>  (8) 
Cc1ccc(C(=O)[N-]c2ccccc2C(=O)[N-]c2ccccc2C)cn1 (protonated)
Cc1ccc(C(=O)[N-]c2ccccc2C(=O)[N-]c2ccccc2C)cn1 (3D coordinates assigned)
Cc1ccc(C(=O)[N-]c2ccccc2C(=O)[N-]c2ccccc2C)cn1 (optimized conformer: 61.76977912051204 kcal/mol)

>  <smiles>  (8) 
Cc1ccc(C(=O)Nc2ccccc2C(=O)Nc2ccccc2C)cn1

>  <score_type>  (8) 
oracle

>  <origin>  (8) 
adgpu

>  <m_score__min__energy>  (8) 
-11.710000000000001

>  <m_primary>  (8) 
energy

$$$$
8:0
     RDKit          3D

 33 33  0  0  0  0  0  0  0  0999 V2000
    2.3790   23.7580  -27.2350 C   0  0  0  0  0  0  0  0  0  0  0  0
    0.9370   23.8580  -27.6180 C   0  0  0  0  0  0  0  0  0  0  0  0
    0.0780   22.7730  -27.4270 C   0  0  0  0  0  0  0  0  0  0  0  0
   -1.2740   22.8790  -27.7840 C   0  0  0  0  0  0  0  0  0  0  0  0
   -2.1870   21.7060  -27.5300 C   0  0  0  0  0  0  0  0  0  0  0  0
   -1.7600   24.1020  -28.3140 C   0  0  0  0  0  0  0  0  0  0  0  0
   -3.2080   24.2550  -28.7320 C   0  0  0  0  0  0  0  0  0  0  0  0
   -3.2950   24.9370  -30.0190 N   0  0  0  0  0  0  0  0  0  0  0  0
   -4.5280   25.2240  -30.6900 C   0  0  0  0  0  0  0  0  0  0  0  0
   -5.1310   26.3060  -30.4680 O   0  0  0  0  0  0  0  0  0  0  0  0
   -5.1030   24.2860  -31.6080 N   0  0  0  0  0  0  0  0  0  0  0  0
   -6.4320   23.6770  -31.5230 C   0  0  0  0  0  0  0  0  0  0  0  0
   -6.4800   22.3490  -32.2840 C   0  0  0  0  0  0  0  0  0  0  0  0
   -6.8830   23.5180  -30.0680 C   0  0  0  0  0  0  0  0  0  0  0  0
   -0.8510   25.1690  -28.4780 C   0  0  0  0  0  0  0  0  0  0  0  0
   -1.2330   26.2760  -28.9430 O   0  0  0  0  0  0  0  0  0  0  0  0
    0.4530   25.0180  -28.1300 N   0  0  0  0  0  0  0  0  0  0  0  0
    2.4676   23.7519  -26.1386 H   0  0  0  0  0  0  0  0  0  0  0  0
    2.8029   22.8283  -27.6423 H   0  0  0  0  0  0  0  0  0  0  0  0
    2.9272   24.6203  -27.6423 H   0  0  0  0  0  0  0  0  0  0  0  0
    0.4619   21.8362  -26.9969 H   0  0  0  0  0  0  0  0  0  0  0  0
   -2.3017   21.5586  -26.4460 H   0  0  0  0  0  0  0  0  0  0  0  0
   -3.1714   21.9035  -27.9794 H   0  0  0  0  0  0  0  0  0  0  0  0
   -1.7539   20.8002  -27.9794 H   0  0  0  0  0  0  0  0  0  0  0  0
   -3.6681   23.2595  -28.8172 H   0  0  0  0  0  0  0  0  0  0  0  0
   -3.7375   24.8517  -27.9747 H   0  0  0  0  0  0  0  0  0  0  0  0
   -7.1463   24.3586  -32.0080 H   0  0  0  0  0  0  0  0  0  0  0  0
   -6.5101   21.5160  -31.5662 H   0  0  0  0  0  0  0  0  0  0  0  0
   -7.3797   22.3210  -32.9162 H   0  0  0  0  0  0  0  0  0  0  0  0
   -5.5846   22.2561  -32.9162 H   0  0  0  0  0  0  0  0  0  0  0  0
   -6.0618   23.8075  -29.3959 H   0  0  0  0  0  0  0  0  0  0  0  0
   -7.7542   24.1632  -29.8816 H   0  0  0  0  0  0  0  0  0  0  0  0
   -7.1569   22.4691  -29.8816 H   0  0  0  0  0  0  0  0  0  0  0  0
  1  2  1  0
  2  3  2  0
  3  4  1  0
  4  5  1  0
  4  6  2  0
  6  7  1  0
  7  8  1  0
  8  9  1  0
  9 10  2  0
  9 11  1  0
 11 12  1  0
 12 13  1  0
 12 14  1  0
  6 15  1  0
 15 16  2  0
 15 17  1  0
 17  2  1  0
  1 18  1  0
  1 19  1  0
  1 20  1  0
  3 21  1  0
  5 22  1  0
  5 23  1  0
  5 24  1  0
  7 25  1  0
  7 26  1  0
 12 27  1  0
 13 28  1  0
 13 29  1  0
 13 30  1  0
 14 31  1  0
 14 32  1  0
 14 33  1  0
M  CHG  3   8  -1  11  -1  17  -1
M  END
>  <UniqueID>  (9) 
9

>  <SMILES>  (9) 
Cc1cc(C)c(C[N-]C(=O)[N-]C(C)C)c(=O)[n-]1

>  <Energy>  (9) 
24.9495840177664

>  <Genealogy>  (9) 
Cc1cc(C)c(C[N-]C(=O)[N-]C(C)C)c(=O)[n-]1 (protonated)
Cc1cc(C)c(C[N-]C(=O)[N-]C(C)C)c(=O)[n-]1 (3D coordinates assigned)
Cc1cc(C)c(C[N-]C(=O)[N-]C(C)C)c(=O)[n-]1 (optimized conformer: 24.9495840177664 kcal/mol)

>  <smiles>  (9) 
Cc1cc(C)c(CNC(=O)NC(C)C)c(=O)[nH]1

>  <score_type>  (9) 
oracle

>  <origin>  (9) 
adgpu

>  <m_score__min__energy>  (9) 
-9.3200000000000003

>  <m_primary>  (9) 
energy

$$$$
9:0
     RDKit          3D

 40 42  0  0  0  0  0  0  0  0999 V2000
   -4.6080   15.7000  -34.5240 C   0  0  0  0  0  0  0  0  0  0  0  0
   -5.4460   16.8450  -34.0380 C   0  0  0  0  0  0  0  0  0  0  0  0
   -6.3110   16.6780  -32.9480 C   0  0  0  0  0  0  0  0  0  0  0  0
   -7.0640   17.7560  -32.4720 C   0  0  0  0  0  0  0  0  0  0  0  0
   -6.9550   19.0250  -33.0710 C   0  0  0  0  0  0  0  0  0  0  0  0
   -7.7520   20.1710  -32.5650 C   0  0  0  0  0  0  0  0  0  0  0  0
   -9.1020   20.0640  -32.4250 N   0  0  0  0  0  0  0  0  0  0  0  0
   -9.8490   21.1040  -31.9720 C   0  0  0  0  0  0  0  0  0  0  0  0
   -9.2330   22.3090  -31.6380 C   0  0  0  0  0  0  0  0  0  0  0  0
   -7.8440   22.4070  -31.7710 C   0  0  0  0  0  0  0  0  0  0  0  0
   -7.1310   23.6900  -31.4590 C   0  0  0  0  0  0  0  0  0  0  0  0
   -5.7630   23.7260  -32.1440 C   0  0  0  0  0  0  0  0  0  0  0  0
   -4.7300   23.2320  -31.2350 N   0  0  0  0  0  0  0  0  0  0  0  0
   -4.5310   21.8330  -30.9010 C   0  0  0  0  0  0  0  0  0  0  0  0
   -3.3460   21.7970  -29.9150 C   0  0  0  0  0  0  0  0  0  0  0  0
   -2.9850   23.2530  -29.5750 C   0  0  0  0  0  0  0  0  0  0  0  0
   -3.8680   24.0380  -30.4580 C   0  0  0  0  0  0  0  0  0  0  0  0
   -3.8740   25.2970  -30.5020 O   0  0  0  0  0  0  0  0  0  0  0  0
   -7.1400   21.3440  -32.2390 N   0  0  0  0  0  0  0  0  0  0  0  0
   -6.0710   19.1890  -34.1530 C   0  0  0  0  0  0  0  0  0  0  0  0
   -5.3200   18.1100  -34.6270 C   0  0  0  0  0  0  0  0  0  0  0  0
   -4.2047   15.1489  -33.6617 H   0  0  0  0  0  0  0  0  0  0  0  0
   -5.2271   15.0252  -35.1334 H   0  0  0  0  0  0  0  0  0  0  0  0
   -3.7776   16.0861  -35.1334 H   0  0  0  0  0  0  0  0  0  0  0  0
   -6.3981   15.6939  -32.4644 H   0  0  0  0  0  0  0  0  0  0  0  0
   -7.7473   17.6109  -31.6222 H   0  0  0  0  0  0  0  0  0  0  0  0
  -10.9388   20.9955  -31.8688 H   0  0  0  0  0  0  0  0  0  0  0  0
   -9.8255   23.1631  -31.2782 H   0  0  0  0  0  0  0  0  0  0  0  0
   -7.7365   24.5362  -31.8160 H   0  0  0  0  0  0  0  0  0  0  0  0
   -6.9848   23.7591  -30.3709 H   0  0  0  0  0  0  0  0  0  0  0  0
   -5.7898   23.0920  -33.0425 H   0  0  0  0  0  0  0  0  0  0  0  0
   -5.5287   24.7638  -32.4235 H   0  0  0  0  0  0  0  0  0  0  0  0
   -5.4345   21.4205  -30.4282 H   0  0  0  0  0  0  0  0  0  0  0  0
   -4.3281   21.2291  -31.7977 H   0  0  0  0  0  0  0  0  0  0  0  0
   -3.6342   21.2579  -29.0005 H   0  0  0  0  0  0  0  0  0  0  0  0
   -2.4852   21.2780  -30.3617 H   0  0  0  0  0  0  0  0  0  0  0  0
   -3.1900   23.4728  -28.5168 H   0  0  0  0  0  0  0  0  0  0  0  0
   -1.9185   23.4775  -29.7238 H   0  0  0  0  0  0  0  0  0  0  0  0
   -5.9701   20.1750  -34.6300 H   0  0  0  0  0  0  0  0  0  0  0  0
   -4.6256   18.2547  -35.4678 H   0  0  0  0  0  0  0  0  0  0  0  0
  1  2  1  0
  2  3  2  0
  3  4  1  0
  4  5  2  0
  5  6  1  0
  6  7  2  0
  7  8  1  0
  8  9  2  0
  9 10  1  0
 10 11  1  0
 11 12  1  0
 12 13  1  0
 13 14  1  0
 14 15  1  0
 15 16  1  0
 16 17  1  0
 17 18  2  0
 10 19  2  0
  5 20  1  0
 20 21  2  0
 21  2  1  0
 19  6  1  0
 17 13  1  0
  1 22  1  0
  1 23  1  0
  1 24  1  0
  3 25  1  0
  4 26  1  0
  8 27  1  0
  9 28  1  0
 11 29  1  0
 11 30  1  0
 12 31  1  0
 12 32  1  0
 14 33  1  0
 14 34  1  0
 15 35  1  0
 15 36  1  0
 16 37  1  0
 16 38  1  0
 20 39  1  0
 21 40  1  0
M  END
>  <UniqueID>  (10) 
10

>  <SMILES>  (10) 
Cc1ccc(-c2nccc(CCN3CCCC3=O)n2)cc1

>  <Energy>  (10) 
43.89636276251974

>  <Genealogy>  (10) 
Cc1ccc(-c2nccc(CCN3CCCC3=O)n2)cc1 (3D coordinates assigned)
Cc1ccc(-c2nccc(CCN3CCCC3=O)n2)cc1 (nonaromatic ring conformer: 43.89636276251974 kcal/mol)

>  <smiles>  (10) 
Cc1ccc(-c2nccc(CCN3CCCC3=O)n2)cc1

>  <score_type>  (10) 
oracle

>  <origin>  (10) 
adgpu

>  <m_score__min__energy>  (10) 
-8.4499999999999993

>  <m_primary>  (10) 
energy

$$$$
10:0
     RDKit          3D

 29 30  0  0  0  0  0  0  0  0999 V2000
   -9.1430   22.2790  -31.7540 C   0  0  0  0  0  0  0  0  0  0  0  0
   -7.6660   22.5370  -31.7760 C   0  0  0  0  0  0  0  0  0  0  0  0
   -6.7920   21.5860  -32.3190 C   0  0  0  0  0  0  0  0  0  0  0  0
   -5.4150   21.8120  -32.3120 C   0  0  0  0  0  0  0  0  0  0  0  0
   -4.8900   22.9820  -31.7460 C   0  0  0  0  0  0  0  0  0  0  0  0
   -3.5160   23.2150  -31.7920 O   0  0  0  0  0  0  0  0  0  0  0  0
   -5.7570   23.9240  -31.1530 C   0  0  0  0  0  0  0  0  0  0  0  0
   -5.2400   25.1550  -30.5110 C   0  0  0  0  0  0  0  0  0  0  0  0
   -6.0340   26.1020  -30.2690 O   0  0  0  0  0  0  0  0  0  0  0  0
   -3.8530   25.3190  -30.1810 N   0  0  0  0  0  0  0  0  0  0  0  0
   -3.1190   24.5530  -29.2130 C   0  0  0  0  0  0  0  0  0  0  0  0
   -3.6960   23.3820  -28.7070 C   0  0  0  0  0  0  0  0  0  0  0  0
   -3.0170   22.6100  -27.7590 C   0  0  0  0  0  0  0  0  0  0  0  0
   -1.7450   22.9960  -27.3230 C   0  0  0  0  0  0  0  0  0  0  0  0
   -0.8170   21.9410  -26.0310 Br  0  0  0  0  0  0  0  0  0  0  0  0
   -1.1490   24.1470  -27.8470 C   0  0  0  0  0  0  0  0  0  0  0  0
   -1.8250   24.9220  -28.7960 C   0  0  0  0  0  0  0  0  0  0  0  0
   -1.1930   25.9940  -29.3360 F   0  0  0  0  0  0  0  0  0  0  0  0
   -7.1430   23.6980  -31.1870 C   0  0  0  0  0  0  0  0  0  0  0  0
   -9.4892   22.2185  -30.7116 H   0  0  0  0  0  0  0  0  0  0  0  0
   -9.6662   23.0994  -32.2671 H   0  0  0  0  0  0  0  0  0  0  0  0
   -9.3571   21.3299  -32.2671 H   0  0  0  0  0  0  0  0  0  0  0  0
   -7.1928   20.6578  -32.7524 H   0  0  0  0  0  0  0  0  0  0  0  0
   -4.7369   21.0669  -32.7537 H   0  0  0  0  0  0  0  0  0  0  0  0
   -3.1230   24.1270  -31.5950 H   0  0  0  0  0  0  0  0  0  0  0  0
   -4.6900   23.0671  -29.0574 H   0  0  0  0  0  0  0  0  0  0  0  0
   -3.4833   21.6989  -27.3560 H   0  0  0  0  0  0  0  0  0  0  0  0
   -0.1445   24.4446  -27.5119 H   0  0  0  0  0  0  0  0  0  0  0  0
   -7.8259   24.4396  -30.7469 H   0  0  0  0  0  0  0  0  0  0  0  0
  1  2  1  0
  2  3  2  0
  3  4  1  0
  4  5  2  0
  5  6  1  0
  5  7  1  0
  7  8  1  0
  8  9  2  0
  8 10  1  0
 10 11  1  0
 11 12  2  0
 12 13  1  0
 13 14  2  0
 14 15  1  0
 14 16  1  0
 16 17  2  0
 17 18  1  0
  7 19  2  0
 19  2  1  0
 17 11  1  0
  1 20  1  0
  1 21  1  0
  1 22  1  0
  3 23  1  0
  4 24  1  0
  6 25  1  0
 12 26  1  0
 13 27  1  0
 16 28  1  0
 19 29  1  0
M  CHG  1  10  -1
M  END
>  <UniqueID>  (11) 
11

>  <SMILES>  (11) 
Cc1ccc(O)c(C(=O)[N-]c2ccc(Br)cc2F)c1

>  <Energy>  (11) 
38.064062179722036

>  <Genealogy>  (11) 
Cc1ccc(O)c(C(=O)[N-]c2ccc(Br)cc2F)c1 (protonated)
Cc1ccc(O)c(C(=O)[N-]c2ccc(Br)cc2F)c1 (3D coordinates assigned)
Cc1ccc(O)c(C(=O)[N-]c2ccc(Br)cc2F)c1 (optimized conformer: 38.064062179722036 kcal/mol)

>  <smiles>  (11) 
Cc1ccc(O)c(C(=O)Nc2ccc(Br)cc2F)c1

>  <score_type>  (11) 
oracle

>  <origin>  (11) 
adgpu

>  <m_score__min__energy>  (11) 
-9.4000000000000004

>  <m_primary>  (11) 
energy

$$$$
11:0
     RDKit          3D

 61 64  0  0  0  0  0  0  0  0999 V2000
   -0.5310   21.2920  -32.5840 C   0  0  0  0  0  0  0  0  0  0  0  0
    0.2710   20.8100  -31.3790 C   0  0  0  0  0  0  0  0  0  0  0  0
   -0.1310   21.4960  -30.1930 O   0  0  0  0  0  0  0  0  0  0  0  0
   -0.5900   20.8920  -29.0100 C   0  0  0  0  0  0  0  0  0  0  0  0
   -0.2130   19.5840  -28.6370 C   0  0  0  0  0  0  0  0  0  0  0  0
   -0.7080   19.0150  -27.4610 C   0  0  0  0  0  0  0  0  0  0  0  0
   -1.5820   19.7340  -26.6460 C   0  0  0  0  0  0  0  0  0  0  0  0
   -1.9640   21.0270  -27.0030 C   0  0  0  0  0  0  0  0  0  0  0  0
   -1.4740   21.6100  -28.1800 C   0  0  0  0  0  0  0  0  0  0  0  0
   -1.8770   22.9890  -28.5140 C   0  0  0  0  0  0  0  0  0  0  0  0
   -1.1690   24.1470  -28.1770 C   0  0  0  0  0  0  0  0  0  0  0  0
    0.0240   24.2920  -27.3160 C   0  0  0  0  0  0  0  0  0  0  0  0
    1.1570   24.3880  -27.8610 O   0  0  0  0  0  0  0  0  0  0  0  0
   -0.0700   24.4180  -25.8180 C   0  0  0  0  0  0  0  0  0  0  0  0
   -0.7590   25.7220  -25.3550 C   0  0  0  0  0  0  0  0  0  0  0  0
   -0.4510   26.0520  -23.8870 C   0  0  0  0  0  0  0  0  0  0  0  0
   -2.2740   25.6960  -25.6010 C   0  0  0  0  0  0  0  0  0  0  0  0
   -1.7270   25.1600  -28.9360 C   0  0  0  0  0  0  0  0  0  0  0  0
   -1.3380   26.4940  -28.9490 O   0  0  0  0  0  0  0  0  0  0  0  0
   -2.7250   24.6030  -29.6940 C   0  0  0  0  0  0  0  0  0  0  0  0
   -3.5180   25.2890  -30.6070 O   0  0  0  0  0  0  0  0  0  0  0  0
   -2.8200   23.2830  -29.4450 N   0  0  0  0  0  0  0  0  0  0  0  0
   -3.6460   22.3510  -30.1610 C   0  0  0  0  0  0  0  0  0  0  0  0
   -3.0820   21.2110  -30.7480 C   0  0  0  0  0  0  0  0  0  0  0  0
   -3.8860   20.2920  -31.4260 C   0  0  0  0  0  0  0  0  0  0  0  0
   -5.2750   20.4980  -31.5360 C   0  0  0  0  0  0  0  0  0  0  0  0
   -6.1340   19.5220  -32.2570 C   0  0  0  0  0  0  0  0  0  0  0  0
   -7.5190   19.5280  -32.3710 C   0  0  0  0  0  0  0  0  0  0  0  0
   -7.9160   18.4660  -33.1000 N   0  0  0  0  0  0  0  0  0  0  0  0
   -6.8310   17.8000  -33.4570 N   0  0  0  0  0  0  0  0  0  0  0  0
   -6.8500   16.5640  -34.2270 C   0  0  0  0  0  0  0  0  0  0  0  0
   -5.7330   18.3990  -32.9620 C   0  0  0  0  0  0  0  0  0  0  0  0
   -5.8320   21.6520  -30.9520 C   0  0  0  0  0  0  0  0  0  0  0  0
   -5.0230   22.5690  -30.2750 C   0  0  0  0  0  0  0  0  0  0  0  0
   -1.4258   21.8298  -32.2375 H   0  0  0  0  0  0  0  0  0  0  0  0
    0.0900   21.9667  -33.1916 H   0  0  0  0  0  0  0  0  0  0  0  0
   -0.8354   20.4271  -33.1916 H   0  0  0  0  0  0  0  0  0  0  0  0
    0.1058   19.7308  -31.2446 H   0  0  0  0  0  0  0  0  0  0  0  0
    1.3363   21.0155  -31.5604 H   0  0  0  0  0  0  0  0  0  0  0  0
    0.4742   19.0096  -29.2756 H   0  0  0  0  0  0  0  0  0  0  0  0
   -0.4072   17.9958  -27.1767 H   0  0  0  0  0  0  0  0  0  0  0  0
   -1.9701   19.2813  -25.7216 H   0  0  0  0  0  0  0  0  0  0  0  0
   -2.6530   21.5920  -26.3580 H   0  0  0  0  0  0  0  0  0  0  0  0
   -0.6447   23.5634  -25.4313 H   0  0  0  0  0  0  0  0  0  0  0  0
    0.9584   24.4372  -25.4280 H   0  0  0  0  0  0  0  0  0  0  0  0
   -0.3344   26.5267  -25.9732 H   0  0  0  0  0  0  0  0  0  0  0  0
   -1.0538   25.4061  -23.2317 H   0  0  0  0  0  0  0  0  0  0  0  0
    0.6173   25.8803  -23.6889 H   0  0  0  0  0  0  0  0  0  0  0  0
   -0.6959   27.1059  -23.6889 H   0  0  0  0  0  0  0  0  0  0  0  0
   -2.8020   25.6869  -24.6361 H   0  0  0  0  0  0  0  0  0  0  0  0
   -2.5682   26.5892  -26.1716 H   0  0  0  0  0  0  0  0  0  0  0  0
   -2.5374   24.7932  -26.1716 H   0  0  0  0  0  0  0  0  0  0  0  0
   -1.9981   21.0384  -30.6744 H   0  0  0  0  0  0  0  0  0  0  0  0
   -3.4302   19.3989  -31.8783 H   0  0  0  0  0  0  0  0  0  0  0  0
   -8.1884   20.2833  -31.9336 H   0  0  0  0  0  0  0  0  0  0  0  0
   -6.8632   15.7045  -33.5406 H   0  0  0  0  0  0  0  0  0  0  0  0
   -7.7486   16.5407  -34.8610 H   0  0  0  0  0  0  0  0  0  0  0  0
   -5.9525   16.5131  -34.8610 H   0  0  0  0  0  0  0  0  0  0  0  0
   -4.6961   18.0564  -33.0942 H   0  0  0  0  0  0  0  0  0  0  0  0
   -6.9142   21.8335  -31.0293 H   0  0  0  0  0  0  0  0  0  0  0  0
   -5.4723   23.4684  -29.8287 H   0  0  0  0  0  0  0  0  0  0  0  0
  1  2  1  0
  2  3  1  0
  3  4  1  0
  4  5  2  0
  5  6  1  0
  6  7  2  0
  7  8  1  0
  8  9  2  0
  9 10  1  0
 10 11  2  0
 11 12  1  0
 12 13  2  0
 12 14  1  0
 14 15  1  0
 15 16  1  0
 15 17  1  0
 11 18  1  0
 18 19  1  0
 18 20  2  0
 20 21  1  0
 20 22  1  0
 22 23  1  0
 23 24  2  0
 24 25  1  0
 25 26  2  0
 26 27  1  0
 27 28  1  0
 28 29  2  0
 29 30  1  0
 30 31  1  0
 30 32  1  0
 26 33  1  0
 33 34  2  0
  9  4  1  0
 22 10  1  0
 34 23  1  0
 32 27  2  0
  1 35  1  0
  1 36  1  0
  1 37  1  0
  2 38  1  0
  2 39  1  0
  5 40  1  0
  6 41  1  0
  7 42  1  0
  8 43  1  0
 14 44  1  0
 14 45  1  0
 15 46  1  0
 16 47  1  0
 16 48  1  0
 16 49  1  0
 17 50  1  0
 17 51  1  0
 17 52  1  0
 24 53  1  0
 25 54  1  0
 28 55  1  0
 31 56  1  0
 31 57  1  0
 31 58  1  0
 32 59  1  0
 33 60  1  0
 34 61  1  0
M  CHG  2  19  -1  21  -1
M  END
>  <UniqueID>  (12) 
12

>  <SMILES>  (12) 
CCOc1ccccc1-c1c(C(=O)CC(C)C)c([O-])c([O-])n1-c1ccc(-c2cnn(C)c2)cc1

>  <Energy>  (12) 
133.0078911920615

>  <Genealogy>  (12) 
CCOc1ccccc1-c1c(C(=O)CC(C)C)c([O-])c([O-])n1-c1ccc(-c2cnn(C)c2)cc1 (protonated)
CCOc1ccccc1-c1c(C(=O)CC(C)C)c([O-])c([O-])n1-c1ccc(-c2cnn(C)c2)cc1 (3D coordinates assigned)
CCOc1ccccc1-c1c(C(=O)CC(C)C)c([O-])c([O-])n1-c1ccc(-c2cnn(C)c2)cc1 (optimized conformer: 133.0078911920615 kcal/mol)

>  <smiles>  (12) 
CCOc1ccccc1-c1c(C(=O)CC(C)C)c(O)c(O)n1-c1ccc(-c2cnn(C)c2)cc1

>  <score_type>  (12) 
oracle

>  <origin>  (12) 
adgpu

>  <m_score__min__energy>  (12) 
-15.07

>  <m_primary>  (12) 
energy

$$$$
12:0
     RDKit          3D

 41 43  0  0  0  0  0  0  0  0999 V2000
   -4.8600   17.4240  -34.9710 C   0  0  0  0  0  0  0  0  0  0  0  0
   -6.1260   17.7030  -34.3860 O   0  0  0  0  0  0  0  0  0  0  0  0
   -6.2610   18.2220  -33.0940 C   0  0  0  0  0  0  0  0  0  0  0  0
   -6.4480   17.4470  -32.1160 O   0  0  0  0  0  0  0  0  0  0  0  0
   -6.1120   19.6800  -32.8770 C   0  0  0  0  0  0  0  0  0  0  0  0
   -4.8360   20.2310  -33.0560 C   0  0  0  0  0  0  0  0  0  0  0  0
   -4.5890   21.5740  -32.7890 C   0  0  0  0  0  0  0  0  0  0  0  0
   -5.6150   22.4170  -32.3380 C   0  0  0  0  0  0  0  0  0  0  0  0
   -5.3610   23.8020  -32.0460 N   0  0  0  0  0  0  0  0  0  0  0  0
   -4.7560   24.4270  -30.5460 S   0  0  0  0  0  0  0  0  0  0  0  0
   -5.9100   24.8740  -29.6930 O   0  0  0  0  0  0  0  0  0  0  0  0
   -3.8730   25.6090  -30.8290 O   0  0  0  0  0  0  0  0  0  0  0  0
   -3.8060   23.1920  -29.7280 C   0  0  0  0  0  0  0  0  0  0  0  0
   -4.2260   22.7060  -28.4850 C   0  0  0  0  0  0  0  0  0  0  0  0
   -3.4790   21.7300  -27.8210 C   0  0  0  0  0  0  0  0  0  0  0  0
   -2.3040   21.2210  -28.3980 C   0  0  0  0  0  0  0  0  0  0  0  0
   -1.4880   20.1900  -27.6750 C   0  0  0  0  0  0  0  0  0  0  0  0
   -1.8770   21.7190  -29.6410 C   0  0  0  0  0  0  0  0  0  0  0  0
   -0.7310   21.2630  -30.2070 F   0  0  0  0  0  0  0  0  0  0  0  0
   -2.6280   22.6950  -30.3030 C   0  0  0  0  0  0  0  0  0  0  0  0
   -6.9180   21.8950  -32.1800 C   0  0  0  0  0  0  0  0  0  0  0  0
   -7.9750   22.7270  -31.7500 C   0  0  0  0  0  0  0  0  0  0  0  0
   -9.2710   22.2260  -31.6350 C   0  0  0  0  0  0  0  0  0  0  0  0
   -9.5400   20.9000  -31.9580 C   0  0  0  0  0  0  0  0  0  0  0  0
   -8.5120   20.0560  -32.3790 C   0  0  0  0  0  0  0  0  0  0  0  0
   -7.1810   20.5230  -32.4690 C   0  0  0  0  0  0  0  0  0  0  0  0
   -4.1170   17.2603  -34.1765 H   0  0  0  0  0  0  0  0  0  0  0  0
   -4.9352   16.5209  -35.5945 H   0  0  0  0  0  0  0  0  0  0  0  0
   -4.5486   18.2751  -35.5945 H   0  0  0  0  0  0  0  0  0  0  0  0
   -4.0159   19.5910  -33.4136 H   0  0  0  0  0  0  0  0  0  0  0  0
   -3.5767   21.9794  -32.9334 H   0  0  0  0  0  0  0  0  0  0  0  0
   -5.1485   23.0942  -28.0286 H   0  0  0  0  0  0  0  0  0  0  0  0
   -3.8128   21.3581  -26.8411 H   0  0  0  0  0  0  0  0  0  0  0  0
   -1.5987   20.3299  -26.5896 H   0  0  0  0  0  0  0  0  0  0  0  0
   -1.8378   19.1848  -27.9527 H   0  0  0  0  0  0  0  0  0  0  0  0
   -0.4293   20.2995  -27.9527 H   0  0  0  0  0  0  0  0  0  0  0  0
   -2.2930   23.0747  -31.2795 H   0  0  0  0  0  0  0  0  0  0  0  0
   -7.7740   23.7800  -31.5035 H   0  0  0  0  0  0  0  0  0  0  0  0
  -10.0834   22.8814  -31.2878 H   0  0  0  0  0  0  0  0  0  0  0  0
  -10.5676   20.5152  -31.8812 H   0  0  0  0  0  0  0  0  0  0  0  0
   -8.7404   19.0132  -32.6444 H   0  0  0  0  0  0  0  0  0  0  0  0
  1  2  1  0
  2  3  1  0
  3  4  2  0
  3  5  1  0
  5  6  2  0
  6  7  1  0
  7  8  2  0
  8  9  1  0
  9 10  1  0
 10 11  2  0
 10 12  2  0
 10 13  1  0
 13 14  2  0
 14 15  1  0
 15 16  2  0
 16 17  1  0
 16 18  1  0
 18 19  1  0
 18 20  2  0
  8 21  1  0
 21 22  2  0
 22 23  1  0
 23 24  2  0
 24 25  1  0
 25 26  2  0
 26  5  1  0
 20 13  1  0
 26 21  1  0
  1 27  1  0
  1 28  1  0
  1 29  1  0
  6 30  1  0
  7 31  1  0
 14 32  1  0
 15 33  1  0
 17 34  1  0
 17 35  1  0
 17 36  1  0
 20 37  1  0
 22 38  1  0
 23 39  1  0
 24 40  1  0
 25 41  1  0
M  CHG  1   9  -1
M  END
>  <UniqueID>  (13) 
13

>  <SMILES>  (13) 
COC(=O)c1ccc([N-]S(=O)(=O)c2ccc(C)c(F)c2)c2ccccc12

>  <Energy>  (13) 
55.78896536090504

>  <Genealogy>  (13) 
COC(=O)c1ccc([N-]S(=O)(=O)c2ccc(C)c(F)c2)c2ccccc12 (protonated)
COC(=O)c1ccc([N-]S(=O)(=O)c2ccc(C)c(F)c2)c2ccccc12 (3D coordinates assigned)
COC(=O)c1ccc([N-]S(=O)(=O)c2ccc(C)c(F)c2)c2ccccc12 (optimized conformer: 55.78896536090504 kcal/mol)

>  <smiles>  (13) 
COC(=O)c1ccc(NS(=O)(=O)c2ccc(C)c(F)c2)c2ccccc12

>  <score_type>  (13) 
oracle

>  <origin>  (13) 
adgpu

>  <m_score__min__energy>  (13) 
-9.9499999999999993

>  <m_primary>  (13) 
energy

$$$$
13:0
     RDKit          3D

 57 60  0  0  0  0  0  0  0  0999 V2000
   -3.3500   25.0880  -26.3740 C   0  0  0  0  0  0  0  0  0  0  0  0
   -4.1170   24.4870  -27.5480 C   0  0  0  0  0  0  0  0  0  0  0  0
   -3.2240   23.5950  -28.3760 C   0  0  0  0  0  0  0  0  0  0  0  0
   -2.7220   22.4090  -27.8120 C   0  0  0  0  0  0  0  0  0  0  0  0
   -1.9040   21.5620  -28.5610 C   0  0  0  0  0  0  0  0  0  0  0  0
   -1.5960   21.8720  -29.8850 C   0  0  0  0  0  0  0  0  0  0  0  0
   -2.1120   23.0310  -30.4680 C   0  0  0  0  0  0  0  0  0  0  0  0
   -2.9110   23.9120  -29.7170 C   0  0  0  0  0  0  0  0  0  0  0  0
   -3.4880   25.0770  -30.3240 N   0  0  0  0  0  0  0  0  0  0  0  0
   -4.8770   25.3140  -30.5820 C   0  0  0  0  0  0  0  0  0  0  0  0
   -5.3210   26.4880  -30.4860 O   0  0  0  0  0  0  0  0  0  0  0  0
   -5.7910   24.2320  -31.0840 C   0  0  0  0  0  0  0  0  0  0  0  0
   -6.3550   23.1850  -29.7000 S   0  0  0  0  0  0  0  0  0  0  0  0
   -7.3990   22.1380  -30.7240 C   0  0  0  0  0  0  0  0  0  0  0  0
   -8.7410   22.0960  -30.6220 N   0  0  0  0  0  0  0  0  0  0  0  0
   -9.1640   21.1870  -31.4920 N   0  0  0  0  0  0  0  0  0  0  0  0
   -8.0740   20.6940  -32.1150 C   0  0  0  0  0  0  0  0  0  0  0  0
   -8.1320   19.5630  -33.1050 C   0  0  0  0  0  0  0  0  0  0  0  0
   -7.1060   18.5030  -32.8040 C   0  0  0  0  0  0  0  0  0  0  0  0
   -7.0310   17.9360  -31.5210 C   0  0  0  0  0  0  0  0  0  0  0  0
   -6.1010   16.9260  -31.2500 C   0  0  0  0  0  0  0  0  0  0  0  0
   -5.2450   16.4740  -32.2570 C   0  0  0  0  0  0  0  0  0  0  0  0
   -5.3040   17.0420  -33.5330 C   0  0  0  0  0  0  0  0  0  0  0  0
   -6.2260   18.0570  -33.8060 C   0  0  0  0  0  0  0  0  0  0  0  0
   -6.9480   21.2700  -31.6460 N   0  0  0  0  0  0  0  0  0  0  0  0
   -5.5940   21.0440  -32.0520 C   0  0  0  0  0  0  0  0  0  0  0  0
   -5.0360   21.8020  -33.0860 C   0  0  0  0  0  0  0  0  0  0  0  0
   -3.7000   21.6120  -33.4500 C   0  0  0  0  0  0  0  0  0  0  0  0
   -2.9160   20.6520  -32.7890 C   0  0  0  0  0  0  0  0  0  0  0  0
   -1.4650   20.4890  -33.1350 C   0  0  0  0  0  0  0  0  0  0  0  0
   -3.4790   19.9000  -31.7460 C   0  0  0  0  0  0  0  0  0  0  0  0
   -4.8140   20.0890  -31.3850 C   0  0  0  0  0  0  0  0  0  0  0  0
   -3.7938   24.7402  -25.4295 H   0  0  0  0  0  0  0  0  0  0  0  0
   -2.2976   24.7716  -26.4230 H   0  0  0  0  0  0  0  0  0  0  0  0
   -3.4055   26.1855  -26.4230 H   0  0  0  0  0  0  0  0  0  0  0  0
   -4.9595   23.8944  -27.1620 H   0  0  0  0  0  0  0  0  0  0  0  0
   -4.4826   25.3061  -28.1847 H   0  0  0  0  0  0  0  0  0  0  0  0
   -2.9755   22.1471  -26.7741 H   0  0  0  0  0  0  0  0  0  0  0  0
   -1.5005   20.6459  -28.1049 H   0  0  0  0  0  0  0  0  0  0  0  0
   -0.9468   21.2038  -30.4699 H   0  0  0  0  0  0  0  0  0  0  0  0
   -1.8922   23.2567  -31.5219 H   0  0  0  0  0  0  0  0  0  0  0  0
   -6.6641   24.6915  -31.5704 H   0  0  0  0  0  0  0  0  0  0  0  0
   -5.2430   23.6071  -31.8046 H   0  0  0  0  0  0  0  0  0  0  0  0
   -9.1335   19.1095  -33.0691 H   0  0  0  0  0  0  0  0  0  0  0  0
   -7.9184   19.9716  -34.1037 H   0  0  0  0  0  0  0  0  0  0  0  0
   -7.7058   18.2872  -30.7264 H   0  0  0  0  0  0  0  0  0  0  0  0
   -6.0440   16.4875  -30.2428 H   0  0  0  0  0  0  0  0  0  0  0  0
   -4.5240   15.6706  -32.0458 H   0  0  0  0  0  0  0  0  0  0  0  0
   -4.6243   16.6900  -34.3231 H   0  0  0  0  0  0  0  0  0  0  0  0
   -6.2631   18.5084  -34.8084 H   0  0  0  0  0  0  0  0  0  0  0  0
   -5.6487   22.5481  -33.6132 H   0  0  0  0  0  0  0  0  0  0  0  0
   -3.2608   22.2166  -34.2572 H   0  0  0  0  0  0  0  0  0  0  0  0
   -0.8728   20.4225  -32.2104 H   0  0  0  0  0  0  0  0  0  0  0  0
   -1.3295   19.5700  -33.7241 H   0  0  0  0  0  0  0  0  0  0  0  0
   -1.1290   21.3550  -33.7241 H   0  0  0  0  0  0  0  0  0  0  0  0
   -2.8661   19.1593  -31.2114 H   0  0  0  0  0  0  0  0  0  0  0  0
   -5.2546   19.4878  -30.5761 H   0  0  0  0  0  0  0  0  0  0  0  0
  1  2  1  0
  2  3  1  0
  3  4  2  0
  4  5  1  0
  5  6  2  0
  6  7  1  0
  7  8  2  0
  8  9  1  0
  9 10  1  0
 10 11  2  0
 10 12  1  0
 12 13  1  0
 13 14  1  0
 14 15  2  0
 15 16  1  0
 16 17  2  0
 17 18  1  0
 18 19  1  0
 19 20  2  0
 20 21  1  0
 21 22  2  0
 22 23  1  0
 23 24  2  0
 17 25  1  0
 25 26  1  0
 26 27  2  0
 27 28  1  0
 28 29  2  0
 29 30  1  0
 29 31  1  0
 31 32  2  0
  8  3  1  0
 25 14  1  0
 32 26  1  0
 24 19  1  0
  1 33  1  0
  1 34  1  0
  1 35  1  0
  2 36  1  0
  2 37  1  0
  4 38  1  0
  5 39  1  0
  6 40  1  0
  7 41  1  0
 12 42  1  0
 12 43  1  0
 18 44  1  0
 18 45  1  0
 20 46  1  0
 21 47  1  0
 22 48  1  0
 23 49  1  0
 24 50  1  0
 27 51  1  0
 28 52  1  0
 30 53  1  0
 30 54  1  0
 30 55  1  0
 31 56  1  0
 32 57  1  0
M  CHG  1   9  -1
M  END
>  <UniqueID>  (14) 
14

>  <SMILES>  (14) 
CCc1ccccc1[N-]C(=O)CSc1nnc(Cc2ccccc2)n1-c1ccc(C)cc1

>  <Energy>  (14) 
91.63690174140886

>  <Genealogy>  (14) 
CCc1ccccc1[N-]C(=O)CSc1nnc(Cc2ccccc2)n1-c1ccc(C)cc1 (protonated)
CCc1ccccc1[N-]C(=O)CSc1nnc(Cc2ccccc2)n1-c1ccc(C)cc1 (3D coordinates assigned)
CCc1ccccc1[N-]C(=O)CSc1nnc(Cc2ccccc2)n1-c1ccc(C)cc1 (optimized conformer: 91.63690174140886 kcal/mol)

>  <smiles>  (14) 
CCc1ccccc1NC(=O)CSc1nnc(Cc2ccccc2)n1-c1ccc(C)cc1

>  <score_type>  (14) 
oracle

>  <origin>  (14) 
adgpu

>  <m_score__min__energy>  (14) 
-11.41

>  <m_primary>  (14) 
energy

$$$$
14:0
     RDKit          3D

 47 49  0  0  0  0  0  0  0  0999 V2000
    1.0740   26.1800  -23.5720 N   0  0  0  0  0  0  0  0  0  0  0  0
   -0.1520   26.7420  -24.0630 C   0  0  0  0  0  0  0  0  0  0  0  0
   -0.8420   27.5370  -23.3050 N   0  0  0  0  0  0  0  0  0  0  0  0
   -0.6300   26.3960  -25.4270 C   0  0  0  0  0  0  0  0  0  0  0  0
   -0.0880   27.0240  -26.5620 C   0  0  0  0  0  0  0  0  0  0  0  0
   -0.5140   26.6650  -27.8420 C   0  0  0  0  0  0  0  0  0  0  0  0
   -1.4990   25.6900  -28.0100 C   0  0  0  0  0  0  0  0  0  0  0  0
   -1.8650   25.2940  -29.3440 N   0  0  0  0  0  0  0  0  0  0  0  0
   -3.0690   24.6060  -29.7010 C   0  0  0  0  0  0  0  0  0  0  0  0
   -4.1030   25.2590  -30.0220 O   0  0  0  0  0  0  0  0  0  0  0  0
   -3.1340   23.1320  -29.6270 C   0  0  0  0  0  0  0  0  0  0  0  0
   -2.5260   22.5140  -28.5200 C   0  0  0  0  0  0  0  0  0  0  0  0
   -2.5240   21.1270  -28.3880 C   0  0  0  0  0  0  0  0  0  0  0  0
   -3.1330   20.3350  -29.3600 C   0  0  0  0  0  0  0  0  0  0  0  0
   -3.7560   20.9270  -30.4580 C   0  0  0  0  0  0  0  0  0  0  0  0
   -3.7700   22.3280  -30.6140 C   0  0  0  0  0  0  0  0  0  0  0  0
   -4.6020   22.9090  -31.7440 C   0  0  0  0  0  0  0  0  0  0  0  0
   -6.0390   23.2170  -31.3000 C   0  0  0  0  0  0  0  0  0  0  0  0
   -6.9890   22.0980  -31.6530 C   0  0  0  0  0  0  0  0  0  0  0  0
   -8.3380   22.1620  -31.2640 C   0  0  0  0  0  0  0  0  0  0  0  0
   -9.2340   21.1540  -31.6480 C   0  0  0  0  0  0  0  0  0  0  0  0
   -8.7900   20.0780  -32.4170 C   0  0  0  0  0  0  0  0  0  0  0  0
   -7.4480   20.0080  -32.8060 C   0  0  0  0  0  0  0  0  0  0  0  0
   -6.5510   21.0170  -32.4320 C   0  0  0  0  0  0  0  0  0  0  0  0
   -2.0400   25.0530  -26.8790 C   0  0  0  0  0  0  0  0  0  0  0  0
   -1.6140   25.4100  -25.5990 C   0  0  0  0  0  0  0  0  0  0  0  0
    1.6770   25.5880  -24.1850 H   0  0  0  0  0  0  0  0  0  0  0  0
    1.4150   26.3960  -22.6070 H   0  0  0  0  0  0  0  0  0  0  0  0
   -1.7570   27.9330  -23.6110 H   0  0  0  0  0  0  0  0  0  0  0  0
   -0.5060   27.7810  -22.3430 H   0  0  0  0  0  0  0  0  0  0  0  0
    0.6777   27.8043  -26.4405 H   0  0  0  0  0  0  0  0  0  0  0  0
   -0.0713   27.1529  -28.7229 H   0  0  0  0  0  0  0  0  0  0  0  0
   -2.0458   23.1335  -27.7483 H   0  0  0  0  0  0  0  0  0  0  0  0
   -2.0423   20.6575  -27.5176 H   0  0  0  0  0  0  0  0  0  0  0  0
   -3.1221   19.2396  -29.2605 H   0  0  0  0  0  0  0  0  0  0  0  0
   -4.2432   20.2922  -31.2128 H   0  0  0  0  0  0  0  0  0  0  0  0
   -4.1299   23.8402  -32.0902 H   0  0  0  0  0  0  0  0  0  0  0  0
   -4.6480   22.1627  -32.5508 H   0  0  0  0  0  0  0  0  0  0  0  0
   -6.0509   23.3630  -30.2098 H   0  0  0  0  0  0  0  0  0  0  0  0
   -6.3711   24.1247  -31.8251 H   0  0  0  0  0  0  0  0  0  0  0  0
   -8.6927   23.0069  -30.6554 H   0  0  0  0  0  0  0  0  0  0  0  0
  -10.2891   21.2118  -31.3423 H   0  0  0  0  0  0  0  0  0  0  0  0
   -9.4931   19.2869  -32.7166 H   0  0  0  0  0  0  0  0  0  0  0  0
   -7.0957   19.1573  -33.4079 H   0  0  0  0  0  0  0  0  0  0  0  0
   -5.4996   20.9613  -32.7504 H   0  0  0  0  0  0  0  0  0  0  0  0
   -2.8023   24.2699  -27.0039 H   0  0  0  0  0  0  0  0  0  0  0  0
   -2.0521   24.9156  -24.7194 H   0  0  0  0  0  0  0  0  0  0  0  0
  1  2  1  0
  2  3  2  0
  2  4  1  0
  4  5  2  0
  5  6  1  0
  6  7  2  0
  7  8  1  0
  8  9  1  0
  9 10  2  0
  9 11  1  0
 11 12  2  0
 12 13  1  0
 13 14  2  0
 14 15  1  0
 15 16  2  0
 16 17  1  0
 17 18  1  0
 18 19  1  0
 19 20  2  0
 20 21  1  0
 21 22  2  0
 22 23  1  0
 23 24  2  0
  7 25  1  0
 25 26  2  0
 26  4  1  0
 16 11  1  0
 24 19  1  0
  1 27  1  0
  1 28  1  0
  3 29  1  0
  3 30  1  0
  5 31  1  0
  6 32  1  0
 12 33  1  0
 13 34  1  0
 14 35  1  0
 15 36  1  0
 17 37  1  0
 17 38  1  0
 18 39  1  0
 18 40  1  0
 20 41  1  0
 21 42  1  0
 22 43  1  0
 23 44  1  0
 24 45  1  0
 25 46  1  0
 26 47  1  0
M  CHG  2   3   1   8  -1
M  END
>  <UniqueID>  (15) 
15

>  <SMILES>  (15) 
NC(=[NH2+])c1ccc([N-]C(=O)c2ccccc2CCc2ccccc2)cc1

>  <Energy>  (15) 
59.31370339702373

>  <Genealogy>  (15) 
NC(=[NH2+])c1ccc([N-]C(=O)c2ccccc2CCc2ccccc2)cc1 (protonated)
NC(=[NH2+])c1ccc([N-]C(=O)c2ccccc2CCc2ccccc2)cc1 (3D coordinates assigned)
NC(=[NH2+])c1ccc([N-]C(=O)c2ccccc2CCc2ccccc2)cc1 (optimized conformer: 59.31370339702373 kcal/mol)

>  <smiles>  (15) 
N=C(N)c1ccc(NC(=O)c2ccccc2CCc2ccccc2)cc1

>  <score_type>  (15) 
oracle

>  <origin>  (15) 
adgpu

>  <m_score__min__energy>  (15) 
-11.82

>  <m_primary>  (15) 
energy

$$$$
15:0
     RDKit          3D

 43 46  0  0  0  0  0  0  0  0999 V2000
    1.3110   19.0530  -34.3960 C   0  0  0  0  0  0  0  0  0  0  0  0
   -0.0390   19.6200  -34.0720 C   0  0  0  0  0  0  0  0  0  0  0  0
   -0.2010   21.0140  -33.9090 C   0  0  0  0  0  0  0  0  0  0  0  0
   -1.4590   21.5330  -33.5740 C   0  0  0  0  0  0  0  0  0  0  0  0
   -2.4860   20.6610  -33.3830 N   0  0  0  0  0  0  0  0  0  0  0  0
   -3.7800   20.8670  -33.0870 C   0  0  0  0  0  0  0  0  0  0  0  0
   -4.4050   22.1540  -32.9750 N   0  0  0  0  0  0  0  0  0  0  0  0
   -4.5660   22.8440  -31.7210 C   0  0  0  0  0  0  0  0  0  0  0  0
   -3.5120   22.8710  -30.7880 C   0  0  0  0  0  0  0  0  0  0  0  0
   -3.6660   23.5190  -29.5620 C   0  0  0  0  0  0  0  0  0  0  0  0
   -4.8740   24.1400  -29.2450 C   0  0  0  0  0  0  0  0  0  0  0  0
   -5.9330   24.1130  -30.1530 C   0  0  0  0  0  0  0  0  0  0  0  0
   -5.7930   23.4720  -31.3970 C   0  0  0  0  0  0  0  0  0  0  0  0
   -6.9490   23.4650  -32.3600 C   0  0  0  0  0  0  0  0  0  0  0  0
   -4.4240   19.6340  -33.0970 C   0  0  0  0  0  0  0  0  0  0  0  0
   -5.8540   19.3610  -32.8370 C   0  0  0  0  0  0  0  0  0  0  0  0
   -6.8440   20.3250  -33.1080 C   0  0  0  0  0  0  0  0  0  0  0  0
   -8.1880   20.0510  -32.8400 C   0  0  0  0  0  0  0  0  0  0  0  0
   -8.5580   18.8220  -32.2900 C   0  0  0  0  0  0  0  0  0  0  0  0
   -9.8620   18.5610  -32.0280 F   0  0  0  0  0  0  0  0  0  0  0  0
   -7.5820   17.8650  -32.0020 C   0  0  0  0  0  0  0  0  0  0  0  0
   -6.2360   18.1330  -32.2680 C   0  0  0  0  0  0  0  0  0  0  0  0
   -3.5230   18.6610  -33.3810 N   0  0  0  0  0  0  0  0  0  0  0  0
   -2.3630   19.3320  -33.5420 C   0  0  0  0  0  0  0  0  0  0  0  0
   -1.1380   18.7600  -33.8800 C   0  0  0  0  0  0  0  0  0  0  0  0
    1.8477   18.8276  -33.4626 H   0  0  0  0  0  0  0  0  0  0  0  0
    1.1900   18.1297  -34.9815 H   0  0  0  0  0  0  0  0  0  0  0  0
    1.8856   19.7858  -34.9815 H   0  0  0  0  0  0  0  0  0  0  0  0
    0.6567   21.6892  -34.0445 H   0  0  0  0  0  0  0  0  0  0  0  0
   -1.6122   22.6171  -33.4682 H   0  0  0  0  0  0  0  0  0  0  0  0
   -4.8320   22.5580  -33.8380 H   0  0  0  0  0  0  0  0  0  0  0  0
   -2.5589   22.3770  -31.0277 H   0  0  0  0  0  0  0  0  0  0  0  0
   -2.8330   23.5402  -28.8439 H   0  0  0  0  0  0  0  0  0  0  0  0
   -4.9919   24.6515  -28.2783 H   0  0  0  0  0  0  0  0  0  0  0  0
   -6.8859   24.5974  -29.8936 H   0  0  0  0  0  0  0  0  0  0  0  0
   -7.8945   23.4593  -31.7978 H   0  0  0  0  0  0  0  0  0  0  0  0
   -6.9043   24.3634  -32.9931 H   0  0  0  0  0  0  0  0  0  0  0  0
   -6.8934   22.5672  -32.9931 H   0  0  0  0  0  0  0  0  0  0  0  0
   -6.5581   21.2986  -33.5328 H   0  0  0  0  0  0  0  0  0  0  0  0
   -8.9566   20.8057  -33.0630 H   0  0  0  0  0  0  0  0  0  0  0  0
   -7.8732   16.8985  -31.5650 H   0  0  0  0  0  0  0  0  0  0  0  0
   -5.4711   17.3789  -32.0308 H   0  0  0  0  0  0  0  0  0  0  0  0
   -1.0326   17.6709  -33.9933 H   0  0  0  0  0  0  0  0  0  0  0  0
  1  2  1  0
  2  3  1  0
  3  4  2  0
  4  5  1  0
  5  6  1  0
  6  7  1  0
  7  8  1  0
  8  9  2  0
  9 10  1  0
 10 11  2  0
 11 12  1  0
 12 13  2  0
 13 14  1  0
  6 15  2  0
 15 16  1  0
 16 17  2  0
 17 18  1  0
 18 19  2  0
 19 20  1  0
 19 21  1  0
 21 22  2  0
 15 23  1  0
 23 24  2  0
 24 25  1  0
 25  2  2  0
 24  5  1  0
 13  8  1  0
 22 16  1  0
  1 26  1  0
  1 27  1  0
  1 28  1  0
  3 29  1  0
  4 30  1  0
  7 31  1  0
  9 32  1  0
 10 33  1  0
 11 34  1  0
 12 35  1  0
 14 36  1  0
 14 37  1  0
 14 38  1  0
 17 39  1  0
 18 40  1  0
 21 41  1  0
 22 42  1  0
 25 43  1  0
M  END
>  <UniqueID>  (16) 
16

>  <SMILES>  (16) 
Cc1ccn2c(Nc3ccccc3C)c(-c3ccc(F)cc3)nc2c1

>  <Energy>  (16) 
91.78198599327597

>  <Genealogy>  (16) 
Cc1ccn2c(Nc3ccccc3C)c(-c3ccc(F)cc3)nc2c1 (3D coordinates assigned)
Cc1ccn2c(Nc3ccccc3C)c(-c3ccc(F)cc3)nc2c1 (optimized conformer: 91.78198599327597 kcal/mol)

>  <smiles>  (16) 
Cc1ccn2c(Nc3ccccc3C)c(-c3ccc(F)cc3)nc2c1

>  <score_type>  (16) 
oracle

>  <origin>  (16) 
adgpu

>  <m_score__min__energy>  (16) 
-8.3300000000000001

>  <m_primary>  (16) 
energy

$$$$
16:0
     RDKit          3D

 47 48  0  0  0  0  0  0  0  0999 V2000
   -0.4760   18.7290  -31.6020 C   0  0  0  0  0  0  0  0  0  0  0  0
   -0.8370   19.1660  -30.2950 O   0  0  0  0  0  0  0  0  0  0  0  0
   -1.2500   20.4690  -29.9820 C   0  0  0  0  0  0  0  0  0  0  0  0
   -0.5370   21.6070  -30.4020 C   0  0  0  0  0  0  0  0  0  0  0  0
   -1.0000   22.8850  -30.0800 C   0  0  0  0  0  0  0  0  0  0  0  0
   -2.1720   23.0460  -29.3320 C   0  0  0  0  0  0  0  0  0  0  0  0
   -2.7870   24.6690  -29.0340 S   0  0  0  0  0  0  0  0  0  0  0  0
   -1.6250   25.6210  -28.9640 O   0  0  0  0  0  0  0  0  0  0  0  0
   -3.5530   24.7340  -27.7410 O   0  0  0  0  0  0  0  0  0  0  0  0
   -3.8190   25.1230  -30.3500 N   0  0  0  0  0  0  0  0  0  0  0  0
   -4.8630   24.2750  -30.8450 C   0  0  0  0  0  0  0  0  0  0  0  0
   -6.2150   24.5460  -30.5770 C   0  0  0  0  0  0  0  0  0  0  0  0
   -7.2050   23.6430  -30.9720 C   0  0  0  0  0  0  0  0  0  0  0  0
   -6.8550   22.4590  -31.6300 C   0  0  0  0  0  0  0  0  0  0  0  0
   -8.0990   21.2700  -31.9920 S   0  0  0  0  0  0  0  0  0  0  0  0
   -9.3850   21.9520  -32.3680 O   0  0  0  0  0  0  0  0  0  0  0  0
   -8.3510   20.4750  -30.7410 O   0  0  0  0  0  0  0  0  0  0  0  0
   -7.6120   20.1680  -33.2590 N   0  0  0  0  0  0  0  0  0  0  0  0
   -6.9470   18.9040  -32.8520 C   0  0  0  0  0  0  0  0  0  0  0  0
   -7.9640   17.8290  -32.4020 C   0  0  0  0  0  0  0  0  0  0  0  0
   -5.8980   19.1300  -31.7420 C   0  0  0  0  0  0  0  0  0  0  0  0
   -6.2080   18.3700  -34.0950 C   0  0  0  0  0  0  0  0  0  0  0  0
   -5.5110   22.2130  -31.9460 C   0  0  0  0  0  0  0  0  0  0  0  0
   -4.5230   23.1250  -31.5640 C   0  0  0  0  0  0  0  0  0  0  0  0
   -2.8800   21.9140  -28.9040 C   0  0  0  0  0  0  0  0  0  0  0  0
   -2.4210   20.6350  -29.2320 C   0  0  0  0  0  0  0  0  0  0  0  0
    0.2229   17.8830  -31.5258 H   0  0  0  0  0  0  0  0  0  0  0  0
   -1.3785   18.4113  -32.1447 H   0  0  0  0  0  0  0  0  0  0  0  0
    0.0064   19.5553  -32.1447 H   0  0  0  0  0  0  0  0  0  0  0  0
    0.3879   21.4899  -30.9858 H   0  0  0  0  0  0  0  0  0  0  0  0
   -0.4402   23.7701  -30.4163 H   0  0  0  0  0  0  0  0  0  0  0  0
   -6.4952   25.4724  -30.0543 H   0  0  0  0  0  0  0  0  0  0  0  0
   -8.2626   23.8635  -30.7651 H   0  0  0  0  0  0  0  0  0  0  0  0
   -8.4610   19.9520  -33.8320 H   0  0  0  0  0  0  0  0  0  0  0  0
   -7.9977   17.7933  -31.3031 H   0  0  0  0  0  0  0  0  0  0  0  0
   -8.9612   18.0818  -32.7914 H   0  0  0  0  0  0  0  0  0  0  0  0
   -7.6563   16.8473  -32.7914 H   0  0  0  0  0  0  0  0  0  0  0  0
   -6.3778   19.0266  -30.7576 H   0  0  0  0  0  0  0  0  0  0  0  0
   -5.0953   18.3842  -31.8388 H   0  0  0  0  0  0  0  0  0  0  0  0
   -5.4736   20.1402  -31.8388 H   0  0  0  0  0  0  0  0  0  0  0  0
   -5.3544   17.7532  -33.7773 H   0  0  0  0  0  0  0  0  0  0  0  0
   -6.8972   17.7599  -34.6974 H   0  0  0  0  0  0  0  0  0  0  0  0
   -5.8451   19.2159  -34.6974 H   0  0  0  0  0  0  0  0  0  0  0  0
   -5.2339   21.3011  -32.4952 H   0  0  0  0  0  0  0  0  0  0  0  0
   -3.4724   22.9370  -31.8304 H   0  0  0  0  0  0  0  0  0  0  0  0
   -3.7978   22.0325  -28.3094 H   0  0  0  0  0  0  0  0  0  0  0  0
   -2.9845   19.7513  -28.8981 H   0  0  0  0  0  0  0  0  0  0  0  0
  1  2  1  0
  2  3  1  0
  3  4  2  0
  4  5  1  0
  5  6  2  0
  6  7  1  0
  7  8  2  0
  7  9  2  0
  7 10  1  0
 10 11  1  0
 11 12  2  0
 12 13  1  0
 13 14  2  0
 14 15  1  0
 15 16  2  0
 15 17  2  0
 15 18  1  0
 18 19  1  0
 19 20  1  0
 19 21  1  0
 19 22  1  0
 14 23  1  0
 23 24  2  0
  6 25  1  0
 25 26  2  0
 26  3  1  0
 24 11  1  0
  1 27  1  0
  1 28  1  0
  1 29  1  0
  4 30  1  0
  5 31  1  0
 12 32  1  0
 13 33  1  0
 18 34  1  0
 20 35  1  0
 20 36  1  0
 20 37  1  0
 21 38  1  0
 21 39  1  0
 21 40  1  0
 22 41  1  0
 22 42  1  0
 22 43  1  0
 23 44  1  0
 24 45  1  0
 25 46  1  0
 26 47  1  0
M  CHG  1  10  -1
M  END
>  <UniqueID>  (17) 
17

>  <SMILES>  (17) 
COc1ccc(S(=O)(=O)[N-]c2ccc(S(=O)(=O)NC(C)(C)C)cc2)cc1

>  <Energy>  (17) 
49.45080529870022

>  <Genealogy>  (17) 
COc1ccc(S(=O)(=O)[N-]c2ccc(S(=O)(=O)NC(C)(C)C)cc2)cc1 (protonated)
COc1ccc(S(=O)(=O)[N-]c2ccc(S(=O)(=O)NC(C)(C)C)cc2)cc1 (3D coordinates assigned)
COc1ccc(S(=O)(=O)[N-]c2ccc(S(=O)(=O)NC(C)(C)C)cc2)cc1 (optimized conformer: 49.45080529870022 kcal/mol)

>  <smiles>  (17) 
COc1ccc(S(=O)(=O)Nc2ccc(S(=O)(=O)NC(C)(C)C)cc2)cc1

>  <score_type>  (17) 
oracle

>  <origin>  (17) 
adgpu

>  <m_score__min__energy>  (17) 
-10.390000000000001

>  <m_primary>  (17) 
energy

$$$$
17:0
     RDKit          3D

 56 59  0  0  0  0  0  0  0  0999 V2000
    0.2110   19.8220  -31.0610 C   0  0  0  0  0  0  0  0  0  0  0  0
   -0.1410   19.6890  -32.4340 O   0  0  0  0  0  0  0  0  0  0  0  0
   -1.4570   19.5950  -32.9130 C   0  0  0  0  0  0  0  0  0  0  0  0
   -1.9580   18.4140  -33.4980 C   0  0  0  0  0  0  0  0  0  0  0  0
   -3.2760   18.3600  -33.9600 C   0  0  0  0  0  0  0  0  0  0  0  0
   -4.1070   19.4740  -33.8380 C   0  0  0  0  0  0  0  0  0  0  0  0
   -3.6210   20.6480  -33.2570 C   0  0  0  0  0  0  0  0  0  0  0  0
   -2.2930   20.7190  -32.8100 C   0  0  0  0  0  0  0  0  0  0  0  0
   -1.7950   21.9150  -32.2060 N   0  0  0  0  0  0  0  0  0  0  0  0
   -2.3750   22.4950  -30.6800 S   0  0  0  0  0  0  0  0  0  0  0  0
   -1.2770   23.2600  -29.9950 O   0  0  0  0  0  0  0  0  0  0  0  0
   -2.7380   21.3220  -29.8150 O   0  0  0  0  0  0  0  0  0  0  0  0
   -3.7860   23.5350  -30.8890 C   0  0  0  0  0  0  0  0  0  0  0  0
   -4.8870   23.0560  -31.6150 C   0  0  0  0  0  0  0  0  0  0  0  0
   -6.0370   23.8490  -31.7840 C   0  0  0  0  0  0  0  0  0  0  0  0
   -7.1790   23.3840  -32.5330 N   0  0  0  0  0  0  0  0  0  0  0  0
   -8.3850   22.8120  -31.9330 C   0  0  0  0  0  0  0  0  0  0  0  0
   -8.3500   21.3160  -32.0090 C   0  0  0  0  0  0  0  0  0  0  0  0
   -9.4200   20.4520  -31.9060 C   0  0  0  0  0  0  0  0  0  0  0  0
   -8.9800   19.1900  -32.0660 N   0  0  0  0  0  0  0  0  0  0  0  0
   -7.6680   19.2300  -32.2610 N   0  0  0  0  0  0  0  0  0  0  0  0
   -6.8610   18.0570  -32.4890 C   0  0  0  0  0  0  0  0  0  0  0  0
   -6.7910   17.4910  -33.7760 C   0  0  0  0  0  0  0  0  0  0  0  0
   -6.0160   16.3530  -34.0120 C   0  0  0  0  0  0  0  0  0  0  0  0
   -5.3040   15.7530  -32.9670 C   0  0  0  0  0  0  0  0  0  0  0  0
   -4.3260   14.3210  -33.2700 S   0  0  0  0  0  0  0  0  0  0  0  0
   -5.0320   13.3830  -34.5390 N   0  0  0  0  0  0  0  0  0  0  0  0
   -4.2570   13.4760  -32.0290 O   0  0  0  0  0  0  0  0  0  0  0  0
   -2.9390   14.7380  -33.6690 O   0  0  0  0  0  0  0  0  0  0  0  0
   -5.3630   16.3100  -31.6840 C   0  0  0  0  0  0  0  0  0  0  0  0
   -6.1370   17.4490  -31.4430 C   0  0  0  0  0  0  0  0  0  0  0  0
   -7.2510   20.5150  -32.2310 C   0  0  0  0  0  0  0  0  0  0  0  0
   -6.0740   25.1250  -31.2020 C   0  0  0  0  0  0  0  0  0  0  0  0
   -4.9870   25.6000  -30.4650 C   0  0  0  0  0  0  0  0  0  0  0  0
   -3.8460   24.8100  -30.3020 C   0  0  0  0  0  0  0  0  0  0  0  0
   -2.7850   25.2970  -29.5450 O   0  0  0  0  0  0  0  0  0  0  0  0
   -0.6340   19.5027  -30.4333 H   0  0  0  0  0  0  0  0  0  0  0  0
    1.0869   19.1928  -30.8444 H   0  0  0  0  0  0  0  0  0  0  0  0
    0.4520   20.8732  -30.8444 H   0  0  0  0  0  0  0  0  0  0  0  0
   -1.3086   17.5311  -33.5912 H   0  0  0  0  0  0  0  0  0  0  0  0
   -3.6588   17.4374  -34.4207 H   0  0  0  0  0  0  0  0  0  0  0  0
   -5.1450   19.4280  -34.1993 H   0  0  0  0  0  0  0  0  0  0  0  0
   -4.2824   21.5204  -33.1496 H   0  0  0  0  0  0  0  0  0  0  0  0
   -4.8507   22.0493  -32.0570 H   0  0  0  0  0  0  0  0  0  0  0  0
   -7.1450   23.4350  -33.5760 H   0  0  0  0  0  0  0  0  0  0  0  0
   -8.4456   23.1196  -30.8786 H   0  0  0  0  0  0  0  0  0  0  0  0
   -9.2640   23.1758  -32.4852 H   0  0  0  0  0  0  0  0  0  0  0  0
  -10.4639   20.7465  -31.7228 H   0  0  0  0  0  0  0  0  0  0  0  0
   -7.3520   17.9493  -34.6038 H   0  0  0  0  0  0  0  0  0  0  0  0
   -5.9650   15.9262  -35.0245 H   0  0  0  0  0  0  0  0  0  0  0  0
   -4.7790   13.8490  -35.4400 H   0  0  0  0  0  0  0  0  0  0  0  0
   -4.7973   15.8489  -30.8610 H   0  0  0  0  0  0  0  0  0  0  0  0
   -6.1815   17.8741  -30.4295 H   0  0  0  0  0  0  0  0  0  0  0  0
   -6.2150   20.8612  -32.3611 H   0  0  0  0  0  0  0  0  0  0  0  0
   -6.9661   25.7562  -31.3271 H   0  0  0  0  0  0  0  0  0  0  0  0
   -5.0292   26.6009  -30.0106 H   0  0  0  0  0  0  0  0  0  0  0  0
  1  2  1  0
  2  3  1  0
  3  4  2  0
  4  5  1  0
  5  6  2  0
  6  7  1  0
  7  8  2  0
  8  9  1  0
  9 10  1  0
 10 11  2  0
 10 12  2  0
 10 13  1  0
 13 14  2  0
 14 15  1  0
 15 16  1  0
 16 17  1  0
 17 18  1  0
 18 19  1  0
 19 20  2  0
 20 21  1  0
 21 22  1  0
 22 23  2  0
 23 24  1  0
 24 25  2  0
 25 26  1  0
 26 27  1  0
 26 28  2  0
 26 29  2  0
 25 30  1  0
 30 31  2  0
 21 32  1  0
 15 33  2  0
 33 34  1  0
 34 35  2  0
 35 36  1  0
  8  3  1  0
 35 13  1  0
 32 18  2  0
 31 22  1  0
  1 37  1  0
  1 38  1  0
  1 39  1  0
  4 40  1  0
  5 41  1  0
  6 42  1  0
  7 43  1  0
 14 44  1  0
 16 45  1  0
 17 46  1  0
 17 47  1  0
 19 48  1  0
 23 49  1  0
 24 50  1  0
 27 51  1  0
 30 52  1  0
 31 53  1  0
 32 54  1  0
 33 55  1  0
 34 56  1  0
M  CHG  3   9  -1  27  -1  36  -1
M  END
>  <UniqueID>  (18) 
18

>  <SMILES>  (18) 
COc1ccccc1[N-]S(=O)(=O)c1cc(NCc2cnn(-c3ccc(S([NH-])(=O)=O)cc3)c2)ccc1[O-]

>  <Energy>  (18) 
99.72717264356884

>  <Genealogy>  (18) 
COc1ccccc1[N-]S(=O)(=O)c1cc(NCc2cnn(-c3ccc(S([NH-])(=O)=O)cc3)c2)ccc1[O-] (protonated)
COc1ccccc1[N-]S(=O)(=O)c1cc(NCc2cnn(-c3ccc(S([NH-])(=O)=O)cc3)c2)ccc1[O-] (3D coordinates assigned)
COc1ccccc1[N-]S(=O)(=O)c1cc(NCc2cnn(-c3ccc(S([NH-])(=O)=O)cc3)c2)ccc1[O-] (optimized conformer: 99.72717264356884 kcal/mol)

>  <smiles>  (18) 
COc1ccccc1NS(=O)(=O)c1cc(NCc2cnn(-c3ccc(S(N)(=O)=O)cc3)c2)ccc1O

>  <score_type>  (18) 
oracle

>  <origin>  (18) 
adgpu

>  <m_score__min__energy>  (18) 
-14.380000000000001

>  <m_primary>  (18) 
energy

$$$$
18:0
     RDKit          3D

 36 38  0  0  0  0  0  0  0  0999 V2000
   -8.4691   21.6034  -32.9250 H   0  0  0  0  0  0  0  0  0  0  0  0
   -7.4170   21.6310  -32.6050 C   0  0  0  0  0  0  0  0  0  0  0  0
   -6.6250   20.5420  -32.7790 N   0  0  0  0  0  0  0  0  0  0  0  0
   -5.3210   20.5520  -32.3840 C   0  0  0  0  0  0  0  0  0  0  0  0
   -4.5500   19.5210  -32.5690 N   0  0  0  0  0  0  0  0  0  0  0  0
   -4.9330   18.2410  -33.1000 C   0  0  0  0  0  0  0  0  0  0  0  0
   -6.0670   17.6080  -32.5760 C   0  0  0  0  0  0  0  0  0  0  0  0
   -6.6293   18.0834  -31.7588 H   0  0  0  0  0  0  0  0  0  0  0  0
   -6.4890   16.3770  -33.0840 C   0  0  0  0  0  0  0  0  0  0  0  0
   -7.3715   15.8830  -32.6514 H   0  0  0  0  0  0  0  0  0  0  0  0
   -5.8000   15.7660  -34.1380 C   0  0  0  0  0  0  0  0  0  0  0  0
   -6.2650   14.5250  -34.6040 O   0  0  0  0  0  0  0  0  0  0  0  0
   -5.9450   13.2580  -34.0330 C   0  0  0  0  0  0  0  0  0  0  0  0
   -7.1020   12.5360  -33.7960 F   0  0  0  0  0  0  0  0  0  0  0  0
   -5.2460   13.4300  -32.8520 F   0  0  0  0  0  0  0  0  0  0  0  0
   -5.1550   12.5540  -34.9200 F   0  0  0  0  0  0  0  0  0  0  0  0
   -4.6790   16.4150  -34.6890 C   0  0  0  0  0  0  0  0  0  0  0  0
   -4.1335   15.9508  -35.5238 H   0  0  0  0  0  0  0  0  0  0  0  0
   -4.2550   17.6480  -34.1800 C   0  0  0  0  0  0  0  0  0  0  0  0
   -3.3874   18.1555  -34.6268 H   0  0  0  0  0  0  0  0  0  0  0  0
   -4.8010   21.6750  -31.8230 N   0  0  0  0  0  0  0  0  0  0  0  0
   -5.5540   22.7930  -31.6360 C   0  0  0  0  0  0  0  0  0  0  0  0
   -5.0140   23.9750  -31.0220 N   0  0  0  0  0  0  0  0  0  0  0  0
   -3.8770   24.1270  -30.4050 C   0  0  0  0  0  0  0  0  0  0  0  0
   -2.8670   23.1950  -30.2250 C   0  0  0  0  0  0  0  0  0  0  0  0
   -2.8398   22.1472  -30.5588 H   0  0  0  0  0  0  0  0  0  0  0  0
   -1.9020   23.8960  -29.5260 C   0  0  0  0  0  0  0  0  0  0  0  0
   -0.5650   23.3700  -29.1240 C   0  0  0  0  0  0  0  0  0  0  0  0
   -0.4965   23.3430  -28.0265 H   0  0  0  0  0  0  0  0  0  0  0  0
   -0.4352   22.3538  -29.5246 H   0  0  0  0  0  0  0  0  0  0  0  0
    0.2224   24.0254  -29.5246 H   0  0  0  0  0  0  0  0  0  0  0  0
   -2.3020   25.1680  -29.3210 N   0  0  0  0  0  0  0  0  0  0  0  0
   -3.5060   25.2970  -29.8550 N   0  0  0  0  0  0  0  0  0  0  0  0
   -4.0600   26.1820  -29.8440 H   0  0  0  0  0  0  0  0  0  0  0  0
   -6.8960   22.7830  -32.0210 C   0  0  0  0  0  0  0  0  0  0  0  0
   -7.5300   23.6685  -31.8660 H   0  0  0  0  0  0  0  0  0  0  0  0
  1  2  1  0
  2  3  1  0
  3  4  1  0
  4  5  2  0
  5  6  1  0
  6  7  2  0
  7  8  1  0
  7  9  1  0
  9 10  1  0
  9 11  2  0
 11 12  1  0
 12 13  1  0
 13 14  1  0
 13 15  1  0
 13 16  1  0
 11 17  1  0
 17 18  1  0
 17 19  2  0
 19 20  1  0
  4 21  1  0
 21 22  2  0
 22 23  1  0
 23 24  2  0
 24 25  1  0
 25 26  1  0
 25 27  2  0
 27 28  1  0
 28 29  1  0
 28 30  1  0
 28 31  1  0
 27 32  1  0
 32 33  1  0
 33 34  1  0
 22 35  1  0
 35 36  1  0
 35  2  2  0
 19  6  1  0
 33 24  1  0
M  CHG  2   3  -1  32  -1
M  END
>  <UniqueID>  (19) 
19

>  <SMILES>  (19) 
Cc1c/c(=N\c2cc[n-]/c(=N\c3ccc(OC(F)(F)F)cc3)n2)[nH][n-]1

>  <Energy>  (19) 
79.93339743525304

>  <Genealogy>  (19) 
Cc1cc(=Nc2cc[n-]c(=Nc3ccc(OC(F)(F)F)cc3)n2)[nH][n-]1 (protonated)
Cc1c/c(=N\c2cc[n-]/c(=N\c3ccc(OC(F)(F)F)cc3)n2)[nH][n-]1 (cis-trans isomerization)
Cc1c/c(=N\c2cc[n-]/c(=N\c3ccc(OC(F)(F)F)cc3)n2)[nH][n-]1 (3D coordinates assigned)
Cc1c/c(=N\c2cc[n-]/c(=N\c3ccc(OC(F)(F)F)cc3)n2)[nH][n-]1 (optimized conformer: 79.93339743525304 kcal/mol)

>  <smiles>  (19) 
Cc1cc(=Nc2cc[nH]c(=Nc3ccc(OC(F)(F)F)cc3)n2)[nH][nH]1

>  <score_type>  (19) 
oracle

>  <origin>  (19) 
adgpu

>  <m_score__min__energy>  (19) 
-8.9100000000000001

>  <m_primary>  (19) 
energy

$$$$
19:0
     RDKit          3D

 53 55  0  0  0  0  0  0  0  0999 V2000
    0.3460   19.8800  -29.0680 C   0  0  0  0  0  0  0  0  0  0  0  0
    0.1340   21.1400  -28.4310 O   0  0  0  0  0  0  0  0  0  0  0  0
   -0.7630   22.1180  -28.8750 C   0  0  0  0  0  0  0  0  0  0  0  0
   -0.6930   23.4560  -28.4390 C   0  0  0  0  0  0  0  0  0  0  0  0
   -1.6090   24.3990  -28.9050 C   0  0  0  0  0  0  0  0  0  0  0  0
   -2.5790   24.0310  -29.8530 C   0  0  0  0  0  0  0  0  0  0  0  0
   -3.4820   24.9890  -30.4250 N   0  0  0  0  0  0  0  0  0  0  0  0
   -5.1960   25.0680  -30.1650 S   0  0  0  0  0  0  0  0  0  0  0  0
   -5.7090   26.4090  -30.6460 O   0  0  0  0  0  0  0  0  0  0  0  0
   -5.4710   24.9390  -28.6880 O   0  0  0  0  0  0  0  0  0  0  0  0
   -6.0290   23.7490  -30.9920 C   0  0  0  0  0  0  0  0  0  0  0  0
   -7.3520   23.4370  -30.6520 C   0  0  0  0  0  0  0  0  0  0  0  0
   -7.9870   22.3370  -31.2360 C   0  0  0  0  0  0  0  0  0  0  0  0
   -7.3060   21.5440  -32.1640 C   0  0  0  0  0  0  0  0  0  0  0  0
   -5.9810   21.8550  -32.5250 C   0  0  0  0  0  0  0  0  0  0  0  0
   -5.2500   21.0600  -33.4710 N   0  0  0  0  0  0  0  0  0  0  0  0
   -4.4340   19.5920  -33.0370 S   0  0  0  0  0  0  0  0  0  0  0  0
   -4.7480   18.5300  -34.0500 O   0  0  0  0  0  0  0  0  0  0  0  0
   -4.9140   19.1360  -31.6860 O   0  0  0  0  0  0  0  0  0  0  0  0
   -2.6940   19.8650  -33.0330 C   0  0  0  0  0  0  0  0  0  0  0  0
   -1.8430   19.0170  -32.3160 C   0  0  0  0  0  0  0  0  0  0  0  0
   -0.4610   19.2220  -32.3500 C   0  0  0  0  0  0  0  0  0  0  0  0
    0.0900   20.2660  -33.1230 C   0  0  0  0  0  0  0  0  0  0  0  0
    1.4750   20.4860  -33.2070 O   0  0  0  0  0  0  0  0  0  0  0  0
    2.4490   19.4500  -33.2790 C   0  0  0  0  0  0  0  0  0  0  0  0
   -0.7610   21.1130  -33.8510 C   0  0  0  0  0  0  0  0  0  0  0  0
   -0.1820   22.1210  -34.6400 O   0  0  0  0  0  0  0  0  0  0  0  0
    0.5620   21.8840  -35.8290 C   0  0  0  0  0  0  0  0  0  0  0  0
   -2.1550   20.9180  -33.7880 C   0  0  0  0  0  0  0  0  0  0  0  0
   -5.3550   22.9680  -31.9430 C   0  0  0  0  0  0  0  0  0  0  0  0
   -2.6660   22.6930  -30.2640 C   0  0  0  0  0  0  0  0  0  0  0  0
   -1.7650   21.7430  -29.7800 C   0  0  0  0  0  0  0  0  0  0  0  0
    0.4772   19.1001  -28.3035 H   0  0  0  0  0  0  0  0  0  0  0  0
   -0.5236   19.6355  -29.6957 H   0  0  0  0  0  0  0  0  0  0  0  0
    1.2478   19.9336  -29.6957 H   0  0  0  0  0  0  0  0  0  0  0  0
    0.0888   23.7587  -27.7268 H   0  0  0  0  0  0  0  0  0  0  0  0
   -1.5721   25.4324  -28.5299 H   0  0  0  0  0  0  0  0  0  0  0  0
   -7.8925   24.0593  -29.9236 H   0  0  0  0  0  0  0  0  0  0  0  0
   -9.0251   22.0949  -30.9646 H   0  0  0  0  0  0  0  0  0  0  0  0
   -7.8069   20.6741  -32.6138 H   0  0  0  0  0  0  0  0  0  0  0  0
   -5.0320   21.4660  -34.4010 H   0  0  0  0  0  0  0  0  0  0  0  0
   -2.2617   18.1888  -31.7254 H   0  0  0  0  0  0  0  0  0  0  0  0
    0.2026   18.5642  -31.7695 H   0  0  0  0  0  0  0  0  0  0  0  0
    2.7358   19.1450  -32.2618 H   0  0  0  0  0  0  0  0  0  0  0  0
    2.0275   18.5871  -33.8154 H   0  0  0  0  0  0  0  0  0  0  0  0
    3.3362   19.8175  -33.8154 H   0  0  0  0  0  0  0  0  0  0  0  0
    1.5798   21.5598  -35.5662 H   0  0  0  0  0  0  0  0  0  0  0  0
    0.0682   21.0987  -36.4201 H   0  0  0  0  0  0  0  0  0  0  0  0
    0.6134   22.8102  -36.4201 H   0  0  0  0  0  0  0  0  0  0  0  0
   -2.8261   21.5965  -34.3350 H   0  0  0  0  0  0  0  0  0  0  0  0
   -4.3274   23.2303  -32.2348 H   0  0  0  0  0  0  0  0  0  0  0  0
   -3.4503   22.3898  -30.9732 H   0  0  0  0  0  0  0  0  0  0  0  0
   -1.8418   20.6965  -30.1101 H   0  0  0  0  0  0  0  0  0  0  0  0
  1  2  1  0
  2  3  1  0
  3  4  2  0
  4  5  1  0
  5  6  2  0
  6  7  1  0
  7  8  1  0
  8  9  2  0
  8 10  2  0
  8 11  1  0
 11 12  2  0
 12 13  1  0
 13 14  2  0
 14 15  1  0
 15 16  1  0
 16 17  1  0
 17 18  2  0
 17 19  2  0
 17 20  1  0
 20 21  2  0
 21 22  1  0
 22 23  2  0
 23 24  1  0
 24 25  1  0
 23 26  1  0
 26 27  1  0
 27 28  1  0
 26 29  2  0
 15 30  2  0
  6 31  1  0
 31 32  2  0
 32  3  1  0
 30 11  1  0
 29 20  1  0
  1 33  1  0
  1 34  1  0
  1 35  1  0
  4 36  1  0
  5 37  1  0
 12 38  1  0
 13 39  1  0
 14 40  1  0
 16 41  1  0
 21 42  1  0
 22 43  1  0
 25 44  1  0
 25 45  1  0
 25 46  1  0
 28 47  1  0
 28 48  1  0
 28 49  1  0
 29 50  1  0
 30 51  1  0
 31 52  1  0
 32 53  1  0
M  CHG  1   7  -1
M  END
>  <UniqueID>  (20) 
20

>  <SMILES>  (20) 
COc1ccc([N-]S(=O)(=O)c2cccc(NS(=O)(=O)c3ccc(OC)c(OC)c3)c2)cc1

>  <Energy>  (20) 
58.143230004104815

>  <Genealogy>  (20) 
COc1ccc([N-]S(=O)(=O)c2cccc(NS(=O)(=O)c3ccc(OC)c(OC)c3)c2)cc1 (protonated)
COc1ccc([N-]S(=O)(=O)c2cccc(NS(=O)(=O)c3ccc(OC)c(OC)c3)c2)cc1 (3D coordinates assigned)
COc1ccc([N-]S(=O)(=O)c2cccc(NS(=O)(=O)c3ccc(OC)c(OC)c3)c2)cc1 (optimized conformer: 58.143230004104815 kcal/mol)

>  <smiles>  (20) 
COc1ccc(NS(=O)(=O)c2cccc(NS(=O)(=O)c3ccc(OC)c(OC)c3)c2)cc1

>  <score_type>  (20) 
oracle

>  <origin>  (20) 
adgpu

>  <m_score__min__energy>  (20) 
-10.369999999999999

>  <m_primary>  (20) 
energy

$$$$
20:0
     RDKit          3D

 67 71  0  0  0  0  0  0  0  0999 V2000
   -6.9501   17.7772  -34.3279 H   0  0  0  0  0  0  0  0  0  0  0  0
   -6.3840   18.5920  -33.8530 C   0  0  0  0  0  0  0  0  0  0  0  0
   -5.0590   18.7980  -33.9870 N   0  0  0  0  0  0  0  0  0  0  0  0
   -4.8140   19.8840  -33.2210 C   0  0  0  0  0  0  0  0  0  0  0  0
   -3.6410   20.4380  -33.1110 N   0  0  0  0  0  0  0  0  0  0  0  0
   -2.3980   19.9640  -33.6590 C   0  0  0  0  0  0  0  0  0  0  0  0
   -1.5010   20.9110  -34.1730 C   0  0  0  0  0  0  0  0  0  0  0  0
   -1.7934   21.9708  -34.2099 H   0  0  0  0  0  0  0  0  0  0  0  0
   -0.2330   20.5250  -34.6420 C   0  0  0  0  0  0  0  0  0  0  0  0
    0.7450   21.5440  -35.0940 C   0  0  0  0  0  0  0  0  0  0  0  0
    2.1420   21.3170  -34.9620 C   0  0  0  0  0  0  0  0  0  0  0  0
    2.4996   20.3848  -34.5004 H   0  0  0  0  0  0  0  0  0  0  0  0
    3.0740   22.2710  -35.4150 C   0  0  0  0  0  0  0  0  0  0  0  0
    4.1557   22.1006  -35.3112 H   0  0  0  0  0  0  0  0  0  0  0  0
    2.5840   23.4360  -35.9980 C   0  0  0  0  0  0  0  0  0  0  0  0
    1.2410   23.6630  -36.1290 C   0  0  0  0  0  0  0  0  0  0  0  0
    0.2900   22.7460  -35.6880 C   0  0  0  0  0  0  0  0  0  0  0  0
   -0.7853   22.9500  -35.7982 H   0  0  0  0  0  0  0  0  0  0  0  0
    1.0890   24.8830  -36.7540 C   0  0  0  0  0  0  0  0  0  0  0  0
    0.1470   25.3855  -37.0187 H   0  0  0  0  0  0  0  0  0  0  0  0
    2.3850   25.3420  -36.9780 C   0  0  0  0  0  0  0  0  0  0  0  0
    2.6347   26.2961  -37.4652 H   0  0  0  0  0  0  0  0  0  0  0  0
    3.2940   24.4550  -36.5150 N   0  0  0  0  0  0  0  0  0  0  0  0
    4.3320   24.5490  -36.5540 H   0  0  0  0  0  0  0  0  0  0  0  0
    0.1190   19.1640  -34.6100 C   0  0  0  0  0  0  0  0  0  0  0  0
    1.0906   18.8423  -35.0132 H   0  0  0  0  0  0  0  0  0  0  0  0
   -0.7540   18.2180  -34.0710 C   0  0  0  0  0  0  0  0  0  0  0  0
   -0.4618   17.1580  -34.0406 H   0  0  0  0  0  0  0  0  0  0  0  0
   -1.9970   18.6110  -33.5700 C   0  0  0  0  0  0  0  0  0  0  0  0
   -2.7550   17.6880  -32.9260 F   0  0  0  0  0  0  0  0  0  0  0  0
   -5.9290   20.3790  -32.6340 N   0  0  0  0  0  0  0  0  0  0  0  0
   -6.0790   21.5800  -31.8440 C   0  0  0  0  0  0  0  0  0  0  0  0
   -7.3580   21.9840  -31.4200 C   0  0  0  0  0  0  0  0  0  0  0  0
   -8.2337   21.3635  -31.6610 H   0  0  0  0  0  0  0  0  0  0  0  0
   -7.5250   23.1640  -30.6970 C   0  0  0  0  0  0  0  0  0  0  0  0
   -8.5290   23.4663  -30.3644 H   0  0  0  0  0  0  0  0  0  0  0  0
   -6.4210   23.9630  -30.3940 C   0  0  0  0  0  0  0  0  0  0  0  0
   -6.5631   24.9019  -29.8388 H   0  0  0  0  0  0  0  0  0  0  0  0
   -5.1280   23.5770  -30.7930 C   0  0  0  0  0  0  0  0  0  0  0  0
   -3.9710   24.4600  -30.5120 C   0  0  0  0  0  0  0  0  0  0  0  0
   -4.0120   25.6750  -30.8430 O   0  0  0  0  0  0  0  0  0  0  0  0
   -2.7980   23.9440  -29.8750 N   0  0  0  0  0  0  0  0  0  0  0  0
   -2.7830   23.5290  -28.4760 C   0  0  0  0  0  0  0  0  0  0  0  0
   -3.5867   24.0511  -27.9361 H   0  0  0  0  0  0  0  0  0  0  0  0
   -1.8041   23.7826  -28.0430 H   0  0  0  0  0  0  0  0  0  0  0  0
   -2.9970   22.0160  -28.3560 C   0  0  0  0  0  0  0  0  0  0  0  0
   -3.8491   21.7264  -28.9885 H   0  0  0  0  0  0  0  0  0  0  0  0
   -3.1896   21.7825  -27.2985 H   0  0  0  0  0  0  0  0  0  0  0  0
   -1.8010   21.2510  -28.7840 N   0  0  0  0  0  0  0  0  0  0  0  0
   -1.5990   20.0550  -27.9330 C   0  0  0  0  0  0  0  0  0  0  0  0
   -0.7681   20.2426  -27.2370 H   0  0  0  0  0  0  0  0  0  0  0  0
   -1.3674   19.1951  -28.5787 H   0  0  0  0  0  0  0  0  0  0  0  0
   -2.8660   19.7440  -27.1320 C   0  0  0  0  0  0  0  0  0  0  0  0
   -2.6425   19.7989  -26.0563 H   0  0  0  0  0  0  0  0  0  0  0  0
   -3.6471   20.4771  -27.3821 H   0  0  0  0  0  0  0  0  0  0  0  0
   -3.2189   18.7326  -27.3821 H   0  0  0  0  0  0  0  0  0  0  0  0
   -1.9160   20.8820  -30.2170 C   0  0  0  0  0  0  0  0  0  0  0  0
   -1.8135   19.7917  -30.3207 H   0  0  0  0  0  0  0  0  0  0  0  0
   -2.8982   21.2046  -30.5927 H   0  0  0  0  0  0  0  0  0  0  0  0
   -0.8230   21.5700  -31.0280 C   0  0  0  0  0  0  0  0  0  0  0  0
   -0.0935   22.0292  -30.3447 H   0  0  0  0  0  0  0  0  0  0  0  0
   -0.3151   20.8284  -31.6621 H   0  0  0  0  0  0  0  0  0  0  0  0
   -1.2720   22.3486  -31.6621 H   0  0  0  0  0  0  0  0  0  0  0  0
   -4.9650   22.3760  -31.5090 C   0  0  0  0  0  0  0  0  0  0  0  0
   -3.9570   22.0551  -31.8105 H   0  0  0  0  0  0  0  0  0  0  0  0
   -6.9210   19.5570  -33.0310 C   0  0  0  0  0  0  0  0  0  0  0  0
   -7.9801   19.6428  -32.7464 H   0  0  0  0  0  0  0  0  0  0  0  0
  1  2  1  0
  2  3  1  0
  3  4  1  0
  4  5  2  0
  5  6  1  0
  6  7  2  0
  7  8  1  0
  7  9  1  0
  9 10  1  0
 10 11  2  0
 11 12  1  0
 11 13  1  0
 13 14  1  0
 13 15  2  0
 15 16  1  0
 16 17  2  0
 17 18  1  0
 16 19  1  0
 19 20  1  0
 19 21  2  0
 21 22  1  0
 21 23  1  0
 23 24  1  0
  9 25  2  0
 25 26  1  0
 25 27  1  0
 27 28  1  0
 27 29  2  0
 29 30  1  0
  4 31  1  0
 31 32  1  0
 32 33  2  0
 33 34  1  0
 33 35  1  0
 35 36  1  0
 35 37  2  0
 37 38  1  0
 37 39  1  0
 39 40  1  0
 40 41  2  0
 40 42  1  0
 42 43  1  0
 43 44  1  0
 43 45  1  0
 43 46  1  0
 46 47  1  0
 46 48  1  0
 46 49  1  0
 49 50  1  0
 50 51  1  0
 50 52  1  0
 50 53  1  0
 53 54  1  0
 53 55  1  0
 53 56  1  0
 49 57  1  0
 57 58  1  0
 57 59  1  0
 57 60  1  0
 60 61  1  0
 60 62  1  0
 60 63  1  0
 39 64  2  0
 64 65  1  0
 31 66  1  0
 66 67  1  0
 66  2  2  0
 29  6  1  0
 64 32  1  0
 17 10  1  0
 23 15  1  0
M  CHG  2   3  -1  42  -1
M  END
>  <UniqueID>  (21) 
21

>  <SMILES>  (21) 
CCN(CC)CC[N-]C(=O)c1cccc(-n2cc[n-]/c2=N\c2cc(-c3ccc4[nH]ccc4c3)ccc2F)c1

>  <Energy>  (21) 
147.87928348526407

>  <Genealogy>  (21) 
CCN(CC)CC[N-]C(=O)c1cccc(-n2cc[n-]c2=Nc2cc(-c3ccc4[nH]ccc4c3)ccc2F)c1 (protonated)
CCN(CC)CC[N-]C(=O)c1cccc(-n2cc[n-]/c2=N\c2cc(-c3ccc4[nH]ccc4c3)ccc2F)c1 (cis-trans isomerization)
CCN(CC)CC[N-]C(=O)c1cccc(-n2cc[n-]/c2=N\c2cc(-c3ccc4[nH]ccc4c3)ccc2F)c1 (3D coordinates assigned)
CCN(CC)CC[N-]C(=O)c1cccc(-n2cc[n-]/c2=N\c2cc(-c3ccc4[nH]ccc4c3)ccc2F)c1 (optimized conformer: 147.87928348526407 kcal/mol)

>  <smiles>  (21) 
CCN(CC)CCNC(=O)c1cccc(-n2cc[nH]c2=Nc2cc(-c3ccc4[nH]ccc4c3)ccc2F)c1

>  <score_type>  (21) 
oracle

>  <origin>  (21) 
adgpu

>  <m_score__min__energy>  (21) 
-10.99

>  <m_primary>  (21) 
energy

$$$$
21:0
     RDKit          3D

 59 62  0  0  0  0  0  0  0  0999 V2000
   -6.3170   16.4460  -33.4530 C   0  0  0  0  0  0  0  0  0  0  0  0
   -6.7840   17.8450  -33.1860 C   0  0  0  0  0  0  0  0  0  0  0  0
   -7.8760   18.0790  -32.3380 C   0  0  0  0  0  0  0  0  0  0  0  0
   -8.2880   19.3870  -32.0630 C   0  0  0  0  0  0  0  0  0  0  0  0
   -7.6140   20.4780  -32.6230 C   0  0  0  0  0  0  0  0  0  0  0  0
   -8.0790   21.7690  -32.3230 O   0  0  0  0  0  0  0  0  0  0  0  0
   -8.1260   22.3480  -31.0180 C   0  0  0  0  0  0  0  0  0  0  0  0
   -6.8510   23.0860  -30.7100 C   0  0  0  0  0  0  0  0  0  0  0  0
   -5.6370   22.3910  -30.5880 C   0  0  0  0  0  0  0  0  0  0  0  0
   -4.4590   23.0780  -30.2840 C   0  0  0  0  0  0  0  0  0  0  0  0
   -4.4800   24.4700  -30.0860 C   0  0  0  0  0  0  0  0  0  0  0  0
   -3.3130   25.1970  -29.8090 O   0  0  0  0  0  0  0  0  0  0  0  0
   -2.4260   24.9360  -28.7550 C   0  0  0  0  0  0  0  0  0  0  0  0
   -2.8820   24.5670  -27.4800 C   0  0  0  0  0  0  0  0  0  0  0  0
   -1.9590   24.3530  -26.4560 C   0  0  0  0  0  0  0  0  0  0  0  0
   -0.5870   24.5200  -26.6950 C   0  0  0  0  0  0  0  0  0  0  0  0
    0.4000   24.2890  -25.6140 C   0  0  0  0  0  0  0  0  0  0  0  0
    0.9880   23.1750  -25.5410 O   0  0  0  0  0  0  0  0  0  0  0  0
    0.7230   25.3180  -24.6620 N   0  0  0  0  0  0  0  0  0  0  0  0
   -0.3410   26.0160  -23.9290 C   0  0  0  0  0  0  0  0  0  0  0  0
   -0.0070   27.5120  -23.7450 C   0  0  0  0  0  0  0  0  0  0  0  0
    1.4420   27.8150  -23.8760 N   0  0  0  0  0  0  0  0  0  0  0  0
    1.7650   29.0810  -23.1980 C   0  0  0  0  0  0  0  0  0  0  0  0
    2.2760   26.7190  -23.3430 C   0  0  0  0  0  0  0  0  0  0  0  0
    2.1120   25.4650  -24.2130 C   0  0  0  0  0  0  0  0  0  0  0  0
   -0.1750   24.8840  -27.9870 C   0  0  0  0  0  0  0  0  0  0  0  0
   -1.0930   25.0900  -28.9680 N   0  0  0  0  0  0  0  0  0  0  0  0
   -5.6890   25.1620  -30.2090 C   0  0  0  0  0  0  0  0  0  0  0  0
   -6.8710   24.4760  -30.5020 C   0  0  0  0  0  0  0  0  0  0  0  0
   -6.5030   20.2440  -33.4550 C   0  0  0  0  0  0  0  0  0  0  0  0
   -6.0900   18.9350  -33.7280 C   0  0  0  0  0  0  0  0  0  0  0  0
   -6.1443   15.9285  -32.4978 H   0  0  0  0  0  0  0  0  0  0  0  0
   -7.0839   15.9070  -34.0286 H   0  0  0  0  0  0  0  0  0  0  0  0
   -5.3801   16.4758  -34.0286 H   0  0  0  0  0  0  0  0  0  0  0  0
   -8.4109   17.2302  -31.8871 H   0  0  0  0  0  0  0  0  0  0  0  0
   -9.1492   19.5596  -31.4008 H   0  0  0  0  0  0  0  0  0  0  0  0
   -8.9703   23.0512  -30.9665 H   0  0  0  0  0  0  0  0  0  0  0  0
   -8.2513   21.5414  -30.2807 H   0  0  0  0  0  0  0  0  0  0  0  0
   -5.6133   21.3008  -30.7324 H   0  0  0  0  0  0  0  0  0  0  0  0
   -3.5106   22.5273  -30.1991 H   0  0  0  0  0  0  0  0  0  0  0  0
   -3.9588   24.4474  -27.2896 H   0  0  0  0  0  0  0  0  0  0  0  0
   -2.3085   24.0521  -25.4573 H   0  0  0  0  0  0  0  0  0  0  0  0
   -1.2822   25.9255  -24.4911 H   0  0  0  0  0  0  0  0  0  0  0  0
   -0.4362   25.5566  -22.9341 H   0  0  0  0  0  0  0  0  0  0  0  0
   -0.5535   28.0873  -24.5068 H   0  0  0  0  0  0  0  0  0  0  0  0
   -0.3045   27.7872  -22.7224 H   0  0  0  0  0  0  0  0  0  0  0  0
    1.6660   27.9400  -24.8940 H   0  0  0  0  0  0  0  0  0  0  0  0
    1.7274   28.9335  -22.1086 H   0  0  0  0  0  0  0  0  0  0  0  0
    2.7748   29.4057  -23.4894 H   0  0  0  0  0  0  0  0  0  0  0  0
    1.0342   29.8498  -23.4894 H   0  0  0  0  0  0  0  0  0  0  0  0
    3.3313   27.0294  -23.3463 H   0  0  0  0  0  0  0  0  0  0  0  0
    1.9582   26.4899  -22.3151 H   0  0  0  0  0  0  0  0  0  0  0  0
    2.7679   25.5482  -25.0921 H   0  0  0  0  0  0  0  0  0  0  0  0
    2.3831   24.5833  -23.6138 H   0  0  0  0  0  0  0  0  0  0  0  0
    0.8963   25.0031  -28.2064 H   0  0  0  0  0  0  0  0  0  0  0  0
   -5.7099   26.2535  -30.0743 H   0  0  0  0  0  0  0  0  0  0  0  0
   -7.8210   25.0263  -30.5701 H   0  0  0  0  0  0  0  0  0  0  0  0
   -5.9574   21.0932  -33.8922 H   0  0  0  0  0  0  0  0  0  0  0  0
   -5.2153   18.7607  -34.3719 H   0  0  0  0  0  0  0  0  0  0  0  0
  1  2  1  0
  2  3  2  0
  3  4  1  0
  4  5  2  0
  5  6  1  0
  6  7  1  0
  7  8  1  0
  8  9  2  0
  9 10  1  0
 10 11  2  0
 11 12  1  0
 12 13  1  0
 13 14  2  0
 14 15  1  0
 15 16  2  0
 16 17  1  0
 17 18  2  0
 17 19  1  0
 19 20  1  0
 20 21  1  0
 21 22  1  0
 22 23  1  0
 22 24  1  0
 24 25  1  0
 16 26  1  0
 26 27  2  0
 11 28  1  0
 28 29  2  0
  5 30  1  0
 30 31  2  0
 31  2  1  0
 29  8  1  0
 27 13  1  0
 25 19  1  0
  1 32  1  0
  1 33  1  0
  1 34  1  0
  3 35  1  0
  4 36  1  0
  7 37  1  0
  7 38  1  0
  9 39  1  0
 10 40  1  0
 14 41  1  0
 15 42  1  0
 20 43  1  0
 20 44  1  0
 21 45  1  0
 21 46  1  0
 22 47  1  0
 23 48  1  0
 23 49  1  0
 23 50  1  0
 24 51  1  0
 24 52  1  0
 25 53  1  0
 25 54  1  0
 26 55  1  0
 28 56  1  0
 29 57  1  0
 30 58  1  0
 31 59  1  0
M  CHG  1  22   1
M  END
>  <UniqueID>  (22) 
22

>  <SMILES>  (22) 
Cc1ccc(OCc2ccc(Oc3ccc(C(=O)N4CC[NH+](C)CC4)cn3)cc2)cc1

>  <Energy>  (22) 
78.42806251976243

>  <Genealogy>  (22) 
Cc1ccc(OCc2ccc(Oc3ccc(C(=O)N4CC[NH+](C)CC4)cn3)cc2)cc1 (protonated)
Cc1ccc(OCc2ccc(Oc3ccc(C(=O)N4CC[NH+](C)CC4)cn3)cc2)cc1 (3D coordinates assigned)
Cc1ccc(OCc2ccc(Oc3ccc(C(=O)N4CC[NH+](C)CC4)cn3)cc2)cc1 (nonaromatic ring conformer: 78.42806251976243 kcal/mol)

>  <smiles>  (22) 
Cc1ccc(OCc2ccc(Oc3ccc(C(=O)N4CCN(C)CC4)cn3)cc2)cc1

>  <score_type>  (22) 
oracle

>  <origin>  (22) 
adgpu

>  <m_score__min__energy>  (22) 
-10.19

>  <m_primary>  (22) 
energy

$$$$
22:0
     RDKit          3D

 42 44  0  0  0  0  0  0  0  0999 V2000
   -6.4500   25.7450  -29.1680 C   0  0  0  0  0  0  0  0  0  0  0  0
   -6.8910   25.2990  -30.4450 O   0  0  0  0  0  0  0  0  0  0  0  0
   -6.6220   24.0310  -30.9860 C   0  0  0  0  0  0  0  0  0  0  0  0
   -7.6570   23.1270  -31.2950 C   0  0  0  0  0  0  0  0  0  0  0  0
   -7.3690   21.8990  -31.8960 C   0  0  0  0  0  0  0  0  0  0  0  0
   -6.0490   21.5560  -32.2110 C   0  0  0  0  0  0  0  0  0  0  0  0
   -5.7500   20.2640  -32.8630 C   0  0  0  0  0  0  0  0  0  0  0  0
   -4.5240   19.8640  -33.3640 C   0  0  0  0  0  0  0  0  0  0  0  0
   -2.8890   20.8510  -33.4340 Br  0  0  0  0  0  0  0  0  0  0  0  0
   -4.7440   18.6070  -33.8860 C   0  0  0  0  0  0  0  0  0  0  0  0
   -6.0330   18.2620  -33.6990 N   0  0  0  0  0  0  0  0  0  0  0  0
   -6.6340   19.2640  -33.0720 N   0  0  0  0  0  0  0  0  0  0  0  0
   -8.0460   19.2360  -32.7020 C   0  0  0  0  0  0  0  0  0  0  0  0
   -5.0140   22.4460  -31.8910 C   0  0  0  0  0  0  0  0  0  0  0  0
   -5.2870   23.6640  -31.2560 C   0  0  0  0  0  0  0  0  0  0  0  0
   -4.1890   24.5360  -30.9580 N   0  0  0  0  0  0  0  0  0  0  0  0
   -3.1170   24.2420  -30.0540 C   0  0  0  0  0  0  0  0  0  0  0  0
   -2.6740   23.0680  -29.9550 O   0  0  0  0  0  0  0  0  0  0  0  0
   -2.4660   25.2920  -29.3310 N   0  0  0  0  0  0  0  0  0  0  0  0
   -1.8310   25.1640  -28.0480 C   0  0  0  0  0  0  0  0  0  0  0  0
   -0.4640   25.4380  -27.8730 C   0  0  0  0  0  0  0  0  0  0  0  0
    0.1160   25.3270  -26.6090 C   0  0  0  0  0  0  0  0  0  0  0  0
   -0.6760   24.9590  -25.5230 C   0  0  0  0  0  0  0  0  0  0  0  0
   -2.0030   24.7220  -25.6990 N   0  0  0  0  0  0  0  0  0  0  0  0
   -2.6010   24.8220  -26.9190 C   0  0  0  0  0  0  0  0  0  0  0  0
   -4.0690   24.5470  -27.0380 C   0  0  0  0  0  0  0  0  0  0  0  0
   -6.9908   25.1980  -28.3817 H   0  0  0  0  0  0  0  0  0  0  0  0
   -5.3704   25.5594  -29.0675 H   0  0  0  0  0  0  0  0  0  0  0  0
   -6.6477   26.8224  -29.0675 H   0  0  0  0  0  0  0  0  0  0  0  0
   -8.6994   23.3897  -31.0615 H   0  0  0  0  0  0  0  0  0  0  0  0
   -8.1850   21.1971  -32.1231 H   0  0  0  0  0  0  0  0  0  0  0  0
   -3.9846   17.9823  -34.3790 H   0  0  0  0  0  0  0  0  0  0  0  0
   -8.1378   19.2342  -31.6058 H   0  0  0  0  0  0  0  0  0  0  0  0
   -8.5498   20.1243  -33.1107 H   0  0  0  0  0  0  0  0  0  0  0  0
   -8.5142   18.3284  -33.1107 H   0  0  0  0  0  0  0  0  0  0  0  0
   -3.9753   22.1845  -32.1416 H   0  0  0  0  0  0  0  0  0  0  0  0
    0.1499   25.7406  -28.7341 H   0  0  0  0  0  0  0  0  0  0  0  0
    1.1886   25.5281  -26.4709 H   0  0  0  0  0  0  0  0  0  0  0  0
   -0.2274   24.8603  -24.5235 H   0  0  0  0  0  0  0  0  0  0  0  0
   -4.5092   24.4645  -26.0333 H   0  0  0  0  0  0  0  0  0  0  0  0
   -4.5532   25.3701  -27.5840 H   0  0  0  0  0  0  0  0  0  0  0  0
   -4.2224   23.6045  -27.5840 H   0  0  0  0  0  0  0  0  0  0  0  0
  1  2  1  0
  2  3  1  0
  3  4  2  0
  4  5  1  0
  5  6  2  0
  6  7  1  0
  7  8  2  0
  8  9  1  0
  8 10  1  0
 10 11  2  0
 11 12  1  0
 12 13  1  0
  6 14  1  0
 14 15  2  0
 15 16  1  0
 16 17  1  0
 17 18  2  0
 17 19  1  0
 19 20  1  0
 20 21  2  0
 21 22  1  0
 22 23  2  0
 23 24  1  0
 24 25  2  0
 25 26  1  0
 15  3  1  0
 25 20  1  0
 12  7  1  0
  1 27  1  0
  1 28  1  0
  1 29  1  0
  4 30  1  0
  5 31  1  0
 10 32  1  0
 13 33  1  0
 13 34  1  0
 13 35  1  0
 14 36  1  0
 21 37  1  0
 22 38  1  0
 23 39  1  0
 26 40  1  0
 26 41  1  0
 26 42  1  0
M  CHG  2  16  -1  19  -1
M  END
>  <UniqueID>  (23) 
23

>  <SMILES>  (23) 
COc1ccc(-c2c(Br)cnn2C)cc1[N-]C(=O)[N-]c1cccnc1C

>  <Energy>  (23) 
87.54560099042348

>  <Genealogy>  (23) 
COc1ccc(-c2c(Br)cnn2C)cc1[N-]C(=O)[N-]c1cccnc1C (protonated)
COc1ccc(-c2c(Br)cnn2C)cc1[N-]C(=O)[N-]c1cccnc1C (3D coordinates assigned)
COc1ccc(-c2c(Br)cnn2C)cc1[N-]C(=O)[N-]c1cccnc1C (optimized conformer: 87.54560099042348 kcal/mol)

>  <smiles>  (23) 
COc1ccc(-c2c(Br)cnn2C)cc1NC(=O)Nc1cccnc1C

>  <score_type>  (23) 
oracle

>  <origin>  (23) 
adgpu

>  <m_score__min__energy>  (23) 
-11.539999999999999

>  <m_primary>  (23) 
energy

$$$$
23:0
     RDKit          3D

 30 32  0  0  0  0  0  0  0  0999 V2000
   -9.4930   19.2760  -33.0660 N   0  0  0  0  0  0  0  0  0  0  0  0
   -8.3840   20.0200  -32.5550 C   0  0  0  0  0  0  0  0  0  0  0  0
   -8.5960   21.2270  -31.8780 C   0  0  0  0  0  0  0  0  0  0  0  0
   -7.5140   21.9560  -31.3780 C   0  0  0  0  0  0  0  0  0  0  0  0
   -6.1970   21.4920  -31.5540 C   0  0  0  0  0  0  0  0  0  0  0  0
   -5.0660   22.2810  -31.0030 C   0  0  0  0  0  0  0  0  0  0  0  0
   -5.0760   23.6860  -30.9980 C   0  0  0  0  0  0  0  0  0  0  0  0
   -3.9880   24.3800  -30.4680 C   0  0  0  0  0  0  0  0  0  0  0  0
   -4.0080   25.6400  -30.4670 O   0  0  0  0  0  0  0  0  0  0  0  0
   -2.8960   23.6610  -29.9410 C   0  0  0  0  0  0  0  0  0  0  0  0
   -1.7540   24.2850  -29.3860 C   0  0  0  0  0  0  0  0  0  0  0  0
   -1.6490   25.6730  -29.3390 O   0  0  0  0  0  0  0  0  0  0  0  0
   -0.7040   23.5000  -28.8740 C   0  0  0  0  0  0  0  0  0  0  0  0
    0.4320   24.0950  -28.3220 O   0  0  0  0  0  0  0  0  0  0  0  0
   -0.7900   22.1040  -28.9130 C   0  0  0  0  0  0  0  0  0  0  0  0
    0.2460   21.3270  -28.4070 O   0  0  0  0  0  0  0  0  0  0  0  0
   -1.9140   21.4830  -29.4590 C   0  0  0  0  0  0  0  0  0  0  0  0
   -2.9640   22.2490  -29.9720 C   0  0  0  0  0  0  0  0  0  0  0  0
   -4.0230   21.6330  -30.4890 O   0  0  0  0  0  0  0  0  0  0  0  0
   -5.9920   20.2710  -32.2240 C   0  0  0  0  0  0  0  0  0  0  0  0
   -7.0770   19.5440  -32.7230 C   0  0  0  0  0  0  0  0  0  0  0  0
  -10.0720   18.6770  -32.4360 H   0  0  0  0  0  0  0  0  0  0  0  0
   -9.7440   19.3180  -34.0800 H   0  0  0  0  0  0  0  0  0  0  0  0
   -9.6202   21.6035  -31.7390 H   0  0  0  0  0  0  0  0  0  0  0  0
   -7.6929   22.9001  -30.8425 H   0  0  0  0  0  0  0  0  0  0  0  0
   -5.9359   24.2351  -31.4092 H   0  0  0  0  0  0  0  0  0  0  0  0
    1.2020   23.5500  -27.9520 H   0  0  0  0  0  0  0  0  0  0  0  0
   -1.9738   20.3849  -29.4857 H   0  0  0  0  0  0  0  0  0  0  0  0
   -4.9701   19.8859  -32.3560 H   0  0  0  0  0  0  0  0  0  0  0  0
   -6.9037   18.5941  -33.2499 H   0  0  0  0  0  0  0  0  0  0  0  0
  1  2  1  0
  2  3  2  0
  3  4  1  0
  4  5  2  0
  5  6  1  0
  6  7  2  0
  7  8  1  0
  8  9  2  0
  8 10  1  0
 10 11  2  0
 11 12  1  0
 11 13  1  0
 13 14  1  0
 13 15  2  0
 15 16  1  0
 15 17  1  0
 17 18  2  0
 18 19  1  0
  5 20  1  0
 20 21  2  0
 21  2  1  0
 19  6  1  0
 18 10  1  0
  1 22  1  0
  1 23  1  0
  3 24  1  0
  4 25  1  0
  7 26  1  0
 14 27  1  0
 17 28  1  0
 20 29  1  0
 21 30  1  0
M  CHG  2  12  -1  16  -1
M  END
>  <UniqueID>  (24) 
24

>  <SMILES>  (24) 
Nc1ccc(-c2cc(=O)c3c([O-])c(O)c([O-])cc3o2)cc1

>  <Energy>  (24) 
43.03170473683589

>  <Genealogy>  (24) 
Nc1ccc(-c2cc(=O)c3c([O-])c(O)c([O-])cc3o2)cc1 (protonated)
Nc1ccc(-c2cc(=O)c3c([O-])c(O)c([O-])cc3o2)cc1 (3D coordinates assigned)
Nc1ccc(-c2cc(=O)c3c([O-])c(O)c([O-])cc3o2)cc1 (optimized conformer: 43.03170473683589 kcal/mol)

>  <smiles>  (24) 
Nc1ccc(-c2cc(=O)c3c(O)c(O)c(O)cc3o2)cc1

>  <score_type>  (24) 
oracle

>  <origin>  (24) 
adgpu

>  <m_score__min__energy>  (24) 
-10.94

>  <m_primary>  (24) 
energy

$$$$
24:0
     RDKit          3D

 53 56  0  0  0  0  0  0  0  0999 V2000
   -1.4930   21.3100  -31.8150 C   0  0  0  0  0  0  0  0  0  0  0  0
   -0.9010   20.9260  -30.6820 C   0  0  0  0  0  0  0  0  0  0  0  0
   -0.0080   19.9120  -30.6590 N   0  0  0  0  0  0  0  0  0  0  0  0
    0.4820   19.8190  -29.4320 N   0  0  0  0  0  0  0  0  0  0  0  0
    1.4470   18.8320  -29.0260 C   0  0  0  0  0  0  0  0  0  0  0  0
    2.7430   18.8680  -29.5690 C   0  0  0  0  0  0  0  0  0  0  0  0
    3.7180   17.9460  -29.1620 C   0  0  0  0  0  0  0  0  0  0  0  0
    5.0860   17.9750  -29.7750 C   0  0  0  0  0  0  0  0  0  0  0  0
    3.3860   16.9620  -28.2230 C   0  0  0  0  0  0  0  0  0  0  0  0
    2.1030   16.9140  -27.6770 C   0  0  0  0  0  0  0  0  0  0  0  0
    1.1200   17.8350  -28.0750 C   0  0  0  0  0  0  0  0  0  0  0  0
   -0.2580   17.7390  -27.4790 C   0  0  0  0  0  0  0  0  0  0  0  0
   -0.0900   20.7620  -28.6580 C   0  0  0  0  0  0  0  0  0  0  0  0
    0.1800   20.9390  -27.4390 O   0  0  0  0  0  0  0  0  0  0  0  0
   -1.0000   21.4930  -29.3990 C   0  0  0  0  0  0  0  0  0  0  0  0
   -1.7600   22.4960  -28.9160 C   0  0  0  0  0  0  0  0  0  0  0  0
   -2.8560   23.1580  -29.6470 C   0  0  0  0  0  0  0  0  0  0  0  0
   -2.8490   24.5450  -29.8180 C   0  0  0  0  0  0  0  0  0  0  0  0
   -1.7900   25.3100  -29.3350 O   0  0  0  0  0  0  0  0  0  0  0  0
   -3.8760   25.1490  -30.4640 N   0  0  0  0  0  0  0  0  0  0  0  0
   -4.9290   24.4410  -30.9450 C   0  0  0  0  0  0  0  0  0  0  0  0
   -5.8600   25.0540  -31.5330 O   0  0  0  0  0  0  0  0  0  0  0  0
   -4.9810   23.0810  -30.7770 N   0  0  0  0  0  0  0  0  0  0  0  0
   -6.1040   22.3330  -31.2870 C   0  0  0  0  0  0  0  0  0  0  0  0
   -5.9460   21.4850  -32.3930 C   0  0  0  0  0  0  0  0  0  0  0  0
   -7.0350   20.7610  -32.8900 C   0  0  0  0  0  0  0  0  0  0  0  0
   -8.3010   20.8780  -32.2820 C   0  0  0  0  0  0  0  0  0  0  0  0
   -9.4230   20.1740  -32.7420 O   0  0  0  0  0  0  0  0  0  0  0  0
   -9.6740   18.7980  -32.4760 C   0  0  0  0  0  0  0  0  0  0  0  0
   -8.4530   21.7250  -31.1780 C   0  0  0  0  0  0  0  0  0  0  0  0
   -7.3640   22.4480  -30.6820 C   0  0  0  0  0  0  0  0  0  0  0  0
   -3.9630   22.4340  -30.1240 C   0  0  0  0  0  0  0  0  0  0  0  0
   -4.0090   21.1830  -29.9550 O   0  0  0  0  0  0  0  0  0  0  0  0
   -2.2162   22.1388  -31.8042 H   0  0  0  0  0  0  0  0  0  0  0  0
   -1.2577   20.7977  -32.7595 H   0  0  0  0  0  0  0  0  0  0  0  0
    2.9955   19.6287  -30.3224 H   0  0  0  0  0  0  0  0  0  0  0  0
    5.8445   17.9911  -28.9785 H   0  0  0  0  0  0  0  0  0  0  0  0
    5.2276   17.0797  -30.3981 H   0  0  0  0  0  0  0  0  0  0  0  0
    5.1896   18.8755  -30.3981 H   0  0  0  0  0  0  0  0  0  0  0  0
    4.1403   16.2233  -27.9143 H   0  0  0  0  0  0  0  0  0  0  0  0
    1.8588   16.1471  -26.9272 H   0  0  0  0  0  0  0  0  0  0  0  0
   -0.1840   17.7442  -26.3815 H   0  0  0  0  0  0  0  0  0  0  0  0
   -0.8612   18.5973  -27.8099 H   0  0  0  0  0  0  0  0  0  0  0  0
   -0.7364   16.8054  -27.8099 H   0  0  0  0  0  0  0  0  0  0  0  0
   -1.5457   22.8483  -27.8962 H   0  0  0  0  0  0  0  0  0  0  0  0
   -1.5980   26.2300  -29.7150 H   0  0  0  0  0  0  0  0  0  0  0  0
   -4.9605   21.3887  -32.8722 H   0  0  0  0  0  0  0  0  0  0  0  0
   -6.9027   20.0984  -33.7580 H   0  0  0  0  0  0  0  0  0  0  0  0
   -9.7039   18.6343  -31.3887 H   0  0  0  0  0  0  0  0  0  0  0  0
  -10.6396   18.5095  -32.9169 H   0  0  0  0  0  0  0  0  0  0  0  0
   -8.8725   18.1872  -32.9169 H   0  0  0  0  0  0  0  0  0  0  0  0
   -9.4373   21.8226  -30.6967 H   0  0  0  0  0  0  0  0  0  0  0  0
   -7.4960   23.1099  -29.8134 H   0  0  0  0  0  0  0  0  0  0  0  0
  1  2  2  0
  2  3  1  0
  3  4  1  0
  4  5  1  0
  5  6  2  0
  6  7  1  0
  7  8  1  0
  7  9  2  0
  9 10  1  0
 10 11  2  0
 11 12  1  0
  4 13  1  0
 13 14  2  0
 13 15  1  0
 15 16  2  3
 16 17  1  0
 17 18  2  0
 18 19  1  0
 18 20  1  0
 20 21  1  0
 21 22  2  0
 21 23  1  0
 23 24  1  0
 24 25  2  0
 25 26  1  0
 26 27  2  0
 27 28  1  0
 28 29  1  0
 27 30  1  0
 30 31  2  0
 23 32  1  0
 32 33  2  0
 15  2  1  0
 32 17  1  0
 11  5  1  0
 31 24  1  0
  1 34  1  0
  1 35  1  0
  6 36  1  0
  8 37  1  0
  8 38  1  0
  8 39  1  0
  9 40  1  0
 10 41  1  0
 12 42  1  0
 12 43  1  0
 12 44  1  0
 16 45  1  0
 19 46  1  0
 25 47  1  0
 26 48  1  0
 29 49  1  0
 29 50  1  0
 29 51  1  0
 30 52  1  0
 31 53  1  0
M  CHG  2   3  -1  20  -1
M  END
>  <UniqueID>  (25) 
25

>  <SMILES>  (25) 
C=c1[n-]n(-c2cc(C)ccc2C)c(=O)c1=Cc1c(O)[n-]c(=O)n(-c2ccc(OC)cc2)c1=O

>  <Energy>  (25) 
118.21583253323695

>  <Genealogy>  (25) 
C=c1[n-]n(-c2cc(C)ccc2C)c(=O)c1=Cc1c(O)[n-]c(=O)n(-c2ccc(OC)cc2)c1=O (protonated)
C=c1[n-]n(-c2cc(C)ccc2C)c(=O)c1=Cc1c(O)[n-]c(=O)n(-c2ccc(OC)cc2)c1=O (3D coordinates assigned)
C=c1[n-]n(-c2cc(C)ccc2C)c(=O)c1=Cc1c(O)[n-]c(=O)n(-c2ccc(OC)cc2)c1=O (optimized conformer: 118.21583253323695 kcal/mol)

>  <smiles>  (25) 
C=c1[nH]n(-c2cc(C)ccc2C)c(=O)c1=Cc1c(O)[nH]c(=O)n(-c2ccc(OC)cc2)c1=O

>  <score_type>  (25) 
oracle

>  <origin>  (25) 
adgpu

>  <m_score__min__energy>  (25) 
-10.26

>  <m_primary>  (25) 
energy

$$$$
25:0
     RDKit          3D

 35 37  0  0  0  0  0  0  0  0999 V2000
   -0.4507   24.7406  -28.0573 H   0  0  0  0  0  0  0  0  0  0  0  0
   -1.5420   24.6270  -28.1360 C   0  0  0  0  0  0  0  0  0  0  0  0
   -2.1470   24.7000  -29.3510 N   0  0  0  0  0  0  0  0  0  0  0  0
   -3.4930   24.5600  -29.5080 C   0  0  0  0  0  0  0  0  0  0  0  0
   -3.9820   24.6580  -30.7140 N   0  0  0  0  0  0  0  0  0  0  0  0
   -5.3360   24.4730  -31.1640 C   0  0  0  0  0  0  0  0  0  0  0  0
   -6.0930   25.4640  -31.3430 O   0  0  0  0  0  0  0  0  0  0  0  0
   -5.8730   23.1000  -31.3030 C   0  0  0  0  0  0  0  0  0  0  0  0
   -7.1490   22.8140  -30.7830 C   0  0  0  0  0  0  0  0  0  0  0  0
   -7.7149   23.6026  -30.2655 H   0  0  0  0  0  0  0  0  0  0  0  0
   -7.7050   21.5390  -30.9170 C   0  0  0  0  0  0  0  0  0  0  0  0
   -8.7051   21.3306  -30.5092 H   0  0  0  0  0  0  0  0  0  0  0  0
   -6.9940   20.5300  -31.5670 C   0  0  0  0  0  0  0  0  0  0  0  0
   -7.4364   19.5290  -31.6780 H   0  0  0  0  0  0  0  0  0  0  0  0
   -5.7220   20.7910  -32.0760 C   0  0  0  0  0  0  0  0  0  0  0  0
   -5.1656   19.9919  -32.5877 H   0  0  0  0  0  0  0  0  0  0  0  0
   -5.1460   22.0610  -31.9420 C   0  0  0  0  0  0  0  0  0  0  0  0
   -3.4630   22.2880  -32.5430 S   0  0  0  0  0  0  0  0  0  0  0  0
   -2.7330   21.7640  -30.9900 C   0  0  0  0  0  0  0  0  0  0  0  0
   -3.5520   21.3250  -29.9430 C   0  0  0  0  0  0  0  0  0  0  0  0
   -4.6438   21.2961  -30.0743 H   0  0  0  0  0  0  0  0  0  0  0  0
   -2.9830   20.9230  -28.7300 C   0  0  0  0  0  0  0  0  0  0  0  0
   -3.6280   20.5822  -27.9067 H   0  0  0  0  0  0  0  0  0  0  0  0
   -1.5950   20.9540  -28.5630 C   0  0  0  0  0  0  0  0  0  0  0  0
   -1.1485   20.6410  -27.6076 H   0  0  0  0  0  0  0  0  0  0  0  0
   -0.7750   21.3830  -29.6110 C   0  0  0  0  0  0  0  0  0  0  0  0
    0.3171   21.4035  -29.4812 H   0  0  0  0  0  0  0  0  0  0  0  0
   -1.3420   21.7860  -30.8240 C   0  0  0  0  0  0  0  0  0  0  0  0
   -0.6954   22.1206  -31.6486 H   0  0  0  0  0  0  0  0  0  0  0  0
   -4.2930   24.3550  -28.3630 C   0  0  0  0  0  0  0  0  0  0  0  0
   -5.3844   24.2575  -28.4596 H   0  0  0  0  0  0  0  0  0  0  0  0
   -3.6880   24.2770  -27.1070 C   0  0  0  0  0  0  0  0  0  0  0  0
   -4.3030   24.1121  -26.2100 H   0  0  0  0  0  0  0  0  0  0  0  0
   -2.3050   24.4080  -26.9890 C   0  0  0  0  0  0  0  0  0  0  0  0
   -1.8214   24.3395  -26.0034 H   0  0  0  0  0  0  0  0  0  0  0  0
  1  2  1  0
  2  3  1  0
  3  4  1  0
  4  5  2  0
  5  6  1  0
  6  7  2  0
  6  8  1  0
  8  9  2  0
  9 10  1  0
  9 11  1  0
 11 12  1  0
 11 13  2  0
 13 14  1  0
 13 15  1  0
 15 16  1  0
 15 17  2  0
 17 18  1  0
 18 19  1  0
 19 20  2  0
 20 21  1  0
 20 22  1  0
 22 23  1  0
 22 24  2  0
 24 25  1  0
 24 26  1  0
 26 27  1  0
 26 28  2  0
 28 29  1  0
  4 30  1  0
 30 31  1  0
 30 32  2  0
 32 33  1  0
 32 34  1  0
 34 35  1  0
 34  2  2  0
 17  8  1  0
 28 19  1  0
M  CHG  1   3  -1
M  END
>  <UniqueID>  (26) 
26

>  <SMILES>  (26) 
O=C(/N=c1\cccc[n-]1)c1ccccc1Sc1ccccc1

>  <Energy>  (26) 
45.44399299102224

>  <Genealogy>  (26) 
O=C(N=c1cccc[n-]1)c1ccccc1Sc1ccccc1 (protonated)
O=C(/N=c1\cccc[n-]1)c1ccccc1Sc1ccccc1 (cis-trans isomerization)
O=C(/N=c1\cccc[n-]1)c1ccccc1Sc1ccccc1 (3D coordinates assigned)
O=C(/N=c1\cccc[n-]1)c1ccccc1Sc1ccccc1 (optimized conformer: 45.44399299102224 kcal/mol)

>  <smiles>  (26) 
O=C(N=c1cccc[nH]1)c1ccccc1Sc1ccccc1

>  <score_type>  (26) 
oracle

>  <origin>  (26) 
adgpu

>  <m_score__min__energy>  (26) 
-9.5

>  <m_primary>  (26) 
energy

$$$$
26:0
     RDKit          3D

 60 63  0  0  0  0  0  0  0  0999 V2000
    0.6860   17.1340  -27.9440 C   0  0  0  0  0  0  0  0  0  0  0  0
    0.3310   16.8480  -29.2930 O   0  0  0  0  0  0  0  0  0  0  0  0
    0.7970   17.5700  -30.4020 C   0  0  0  0  0  0  0  0  0  0  0  0
    0.7970   17.0370  -31.7050 C   0  0  0  0  0  0  0  0  0  0  0  0
    1.2740   17.7950  -32.7770 C   0  0  0  0  0  0  0  0  0  0  0  0
    1.7640   19.0960  -32.5680 C   0  0  0  0  0  0  0  0  0  0  0  0
    2.2560   19.8760  -33.6730 N   0  0  0  0  0  0  0  0  0  0  0  0
    3.6710   19.8280  -34.0360 C   0  0  0  0  0  0  0  0  0  0  0  0
    1.1760   20.8700  -34.6060 S   0  0  0  0  0  0  0  0  0  0  0  0
    1.1220   20.3930  -36.0320 O   0  0  0  0  0  0  0  0  0  0  0  0
    1.6650   22.2910  -34.5910 O   0  0  0  0  0  0  0  0  0  0  0  0
   -0.4440   20.7600  -33.9250 C   0  0  0  0  0  0  0  0  0  0  0  0
   -1.4150   19.9440  -34.5150 C   0  0  0  0  0  0  0  0  0  0  0  0
   -2.7060   19.8890  -33.9800 C   0  0  0  0  0  0  0  0  0  0  0  0
   -3.0400   20.6420  -32.8400 C   0  0  0  0  0  0  0  0  0  0  0  0
   -4.4160   20.5820  -32.2910 C   0  0  0  0  0  0  0  0  0  0  0  0
   -4.6530   19.8150  -31.3180 O   0  0  0  0  0  0  0  0  0  0  0  0
   -5.4750   21.3750  -32.8580 N   0  0  0  0  0  0  0  0  0  0  0  0
   -6.8470   21.2830  -32.4420 C   0  0  0  0  0  0  0  0  0  0  0  0
   -7.5240   22.4120  -31.9480 C   0  0  0  0  0  0  0  0  0  0  0  0
   -8.8780   22.3350  -31.6140 C   0  0  0  0  0  0  0  0  0  0  0  0
   -9.5760   21.1380  -31.7860 C   0  0  0  0  0  0  0  0  0  0  0  0
   -8.9200   20.0160  -32.2950 C   0  0  0  0  0  0  0  0  0  0  0  0
   -7.5580   20.0780  -32.6230 C   0  0  0  0  0  0  0  0  0  0  0  0
   -6.8980   18.9070  -33.1230 N   0  0  0  0  0  0  0  0  0  0  0  0
   -7.0210   17.5980  -32.5080 C   0  0  0  0  0  0  0  0  0  0  0  0
   -6.3280   16.6360  -33.4640 C   0  0  0  0  0  0  0  0  0  0  0  0
   -5.5110   17.5040  -34.4210 C   0  0  0  0  0  0  0  0  0  0  0  0
   -6.1180   18.8980  -34.3450 C   0  0  0  0  0  0  0  0  0  0  0  0
   -2.0610   21.4690  -32.2620 C   0  0  0  0  0  0  0  0  0  0  0  0
   -0.7730   21.5270  -32.8020 C   0  0  0  0  0  0  0  0  0  0  0  0
    1.7560   19.6270  -31.2690 C   0  0  0  0  0  0  0  0  0  0  0  0
    1.2780   18.8680  -30.1970 C   0  0  0  0  0  0  0  0  0  0  0  0
    0.0123   16.5913  -27.2646 H   0  0  0  0  0  0  0  0  0  0  0  0
    1.7234   16.8164  -27.7626 H   0  0  0  0  0  0  0  0  0  0  0  0
    0.5965   18.2152  -27.7626 H   0  0  0  0  0  0  0  0  0  0  0  0
    0.4195   16.0187  -31.8798 H   0  0  0  0  0  0  0  0  0  0  0  0
    1.2662   17.3709  -33.7919 H   0  0  0  0  0  0  0  0  0  0  0  0
    4.2834   19.8072  -33.1225 H   0  0  0  0  0  0  0  0  0  0  0  0
    3.8668   18.9227  -34.6294 H   0  0  0  0  0  0  0  0  0  0  0  0
    3.9277   20.7180  -34.6294 H   0  0  0  0  0  0  0  0  0  0  0  0
   -1.1625   19.3442  -35.4018 H   0  0  0  0  0  0  0  0  0  0  0  0
   -3.4665   19.2516  -34.4547 H   0  0  0  0  0  0  0  0  0  0  0  0
   -5.2600   22.0120  -33.6560 H   0  0  0  0  0  0  0  0  0  0  0  0
   -6.9837   23.3621  -31.8238 H   0  0  0  0  0  0  0  0  0  0  0  0
   -9.3957   23.2195  -31.2145 H   0  0  0  0  0  0  0  0  0  0  0  0
  -10.6419   21.0793  -31.5206 H   0  0  0  0  0  0  0  0  0  0  0  0
   -9.4749   19.0773  -32.4397 H   0  0  0  0  0  0  0  0  0  0  0  0
   -6.5272   17.5865  -31.5251 H   0  0  0  0  0  0  0  0  0  0  0  0
   -8.0724   17.3218  -32.3401 H   0  0  0  0  0  0  0  0  0  0  0  0
   -5.6671   15.9550  -32.9077 H   0  0  0  0  0  0  0  0  0  0  0  0
   -7.0559   16.0151  -34.0068 H   0  0  0  0  0  0  0  0  0  0  0  0
   -4.4565   17.5287  -34.1089 H   0  0  0  0  0  0  0  0  0  0  0  0
   -5.5382   17.1081  -35.4469 H   0  0  0  0  0  0  0  0  0  0  0  0
   -5.3271   19.6613  -34.3034 H   0  0  0  0  0  0  0  0  0  0  0  0
   -6.7337   19.1269  -35.2273 H   0  0  0  0  0  0  0  0  0  0  0  0
   -2.3104   22.0748  -31.3784 H   0  0  0  0  0  0  0  0  0  0  0  0
   -0.0151   22.1782  -32.3422 H   0  0  0  0  0  0  0  0  0  0  0  0
    2.1283   20.6471  -31.0933 H   0  0  0  0  0  0  0  0  0  0  0  0
    1.2799   19.2948  -29.1832 H   0  0  0  0  0  0  0  0  0  0  0  0
  1  2  1  0
  2  3  1  0
  3  4  2  0
  4  5  1  0
  5  6  2  0
  6  7  1  0
  7  8  1  0
  7  9  1  0
  9 10  2  0
  9 11  2  0
  9 12  1  0
 12 13  2  0
 13 14  1  0
 14 15  2  0
 15 16  1  0
 16 17  2  0
 16 18  1  0
 18 19  1  0
 19 20  2  0
 20 21  1  0
 21 22  2  0
 22 23  1  0
 23 24  2  0
 24 25  1  0
 25 26  1  0
 26 27  1  0
 27 28  1  0
 28 29  1  0
 15 30  1  0
 30 31  2  0
  6 32  1  0
 32 33  2  0
 33  3  1  0
 31 12  1  0
 24 19  1  0
 29 25  1  0
  1 34  1  0
  1 35  1  0
  1 36  1  0
  4 37  1  0
  5 38  1  0
  8 39  1  0
  8 40  1  0
  8 41  1  0
 13 42  1  0
 14 43  1  0
 18 44  1  0
 20 45  1  0
 21 46  1  0
 22 47  1  0
 23 48  1  0
 26 49  1  0
 26 50  1  0
 27 51  1  0
 27 52  1  0
 28 53  1  0
 28 54  1  0
 29 55  1  0
 29 56  1  0
 30 57  1  0
 31 58  1  0
 32 59  1  0
 33 60  1  0
M  END
>  <UniqueID>  (27) 
27

>  <SMILES>  (27) 
COc1ccc(N(C)S(=O)(=O)c2ccc(C(=O)Nc3ccccc3N3CCCC3)cc2)cc1

>  <Energy>  (27) 
78.76176623509325

>  <Genealogy>  (27) 
COc1ccc(N(C)S(=O)(=O)c2ccc(C(=O)Nc3ccccc3N3CCCC3)cc2)cc1 (3D coordinates assigned)
COc1ccc(N(C)S(=O)(=O)c2ccc(C(=O)Nc3ccccc3N3CCCC3)cc2)cc1 (nonaromatic ring conformer: 78.76176623509325 kcal/mol)

>  <smiles>  (27) 
COc1ccc(N(C)S(=O)(=O)c2ccc(C(=O)Nc3ccccc3N3CCCC3)cc2)cc1

>  <score_type>  (27) 
oracle

>  <origin>  (27) 
adgpu

>  <m_score__min__energy>  (27) 
-9.3599999999999994

>  <m_primary>  (27) 
energy

$$$$
27:0
     RDKit          3D

 44 46  0  0  0  0  0  0  0  0999 V2000
   -0.3832   24.8278  -26.8018 H   0  0  0  0  0  0  0  0  0  0  0  0
   -1.2950   25.3900  -27.0520 C   0  0  0  0  0  0  0  0  0  0  0  0
   -2.1480   24.9090  -28.1560 C   0  0  0  0  0  0  0  0  0  0  0  0
   -1.9180   25.2730  -29.3420 O   0  0  0  0  0  0  0  0  0  0  0  0
   -3.2180   23.9930  -27.8740 N   0  0  0  0  0  0  0  0  0  0  0  0
   -3.2020   23.4940  -26.9550 H   0  0  0  0  0  0  0  0  0  0  0  0
   -4.2420   23.6340  -28.8170 C   0  0  0  0  0  0  0  0  0  0  0  0
   -4.1930   22.4210  -29.5270 C   0  0  0  0  0  0  0  0  0  0  0  0
   -3.3676   21.7159  -29.3495 H   0  0  0  0  0  0  0  0  0  0  0  0
   -5.1880   22.1070  -30.4570 C   0  0  0  0  0  0  0  0  0  0  0  0
   -5.1443   21.1546  -31.0056 H   0  0  0  0  0  0  0  0  0  0  0  0
   -6.2400   23.0000  -30.6930 C   0  0  0  0  0  0  0  0  0  0  0  0
   -7.4780   22.6150  -31.8830 S   0  0  0  0  0  0  0  0  0  0  0  0
   -7.3260   23.5030  -33.0860 O   0  0  0  0  0  0  0  0  0  0  0  0
   -8.8430   22.8510  -31.2970 O   0  0  0  0  0  0  0  0  0  0  0  0
   -7.3140   20.9280  -32.3550 C   0  0  0  0  0  0  0  0  0  0  0  0
   -6.2320   20.5190  -33.1470 C   0  0  0  0  0  0  0  0  0  0  0  0
   -5.4913   21.2575  -33.4876 H   0  0  0  0  0  0  0  0  0  0  0  0
   -6.0920   19.1750  -33.5050 C   0  0  0  0  0  0  0  0  0  0  0  0
   -5.2438   18.8602  -34.1306 H   0  0  0  0  0  0  0  0  0  0  0  0
   -7.0280   18.2270  -33.0700 C   0  0  0  0  0  0  0  0  0  0  0  0
   -6.8840   16.8520  -33.4350 N   0  0  0  0  0  0  0  0  0  0  0  0
   -7.2620   16.4970  -34.3420 H   0  0  0  0  0  0  0  0  0  0  0  0
   -6.3990   16.1780  -32.8010 H   0  0  0  0  0  0  0  0  0  0  0  0
   -8.1060   18.6350  -32.2710 C   0  0  0  0  0  0  0  0  0  0  0  0
   -8.8435   17.8955  -31.9256 H   0  0  0  0  0  0  0  0  0  0  0  0
   -8.2460   19.9800  -31.9120 C   0  0  0  0  0  0  0  0  0  0  0  0
   -9.0900   20.2941  -31.2803 H   0  0  0  0  0  0  0  0  0  0  0  0
   -6.2750   24.2230  -30.0120 C   0  0  0  0  0  0  0  0  0  0  0  0
   -7.0881   24.9372  -30.2089 H   0  0  0  0  0  0  0  0  0  0  0  0
   -5.2800   24.5390  -29.0830 C   0  0  0  0  0  0  0  0  0  0  0  0
   -5.3111   25.5044  -28.5566 H   0  0  0  0  0  0  0  0  0  0  0  0
   -1.5930   26.4890  -26.3430 C   0  0  0  0  0  0  0  0  0  0  0  0
   -2.5107   27.0383  -26.6002 H   0  0  0  0  0  0  0  0  0  0  0  0
   -0.7570   27.0070  -25.2320 C   0  0  0  0  0  0  0  0  0  0  0  0
   -0.8630   26.4080  -23.9670 C   0  0  0  0  0  0  0  0  0  0  0  0
   -1.5655   25.5753  -23.8147 H   0  0  0  0  0  0  0  0  0  0  0  0
   -0.1040   26.8490  -22.9280 N   0  0  0  0  0  0  0  0  0  0  0  0
    0.7820   27.8690  -23.0740 C   0  0  0  0  0  0  0  0  0  0  0  0
    1.3785   28.2059  -22.2133 H   0  0  0  0  0  0  0  0  0  0  0  0
    0.9360   28.4890  -24.3130 C   0  0  0  0  0  0  0  0  0  0  0  0
    1.6546   29.3127  -24.4360 H   0  0  0  0  0  0  0  0  0  0  0  0
    0.1700   28.0550  -25.3960 C   0  0  0  0  0  0  0  0  0  0  0  0
    0.2904   28.5323  -26.3797 H   0  0  0  0  0  0  0  0  0  0  0  0
  1  2  1  0
  2  3  1  0
  3  4  2  0
  3  5  1  0
  5  6  1  0
  5  7  1  0
  7  8  2  0
  8  9  1  0
  8 10  1  0
 10 11  1  0
 10 12  2  0
 12 13  1  0
 13 14  2  0
 13 15  2  0
 13 16  1  0
 16 17  2  0
 17 18  1  0
 17 19  1  0
 19 20  1  0
 19 21  2  0
 21 22  1  0
 22 23  1  0
 22 24  1  0
 21 25  1  0
 25 26  1  0
 25 27  2  0
 27 28  1  0
 12 29  1  0
 29 30  1  0
 29 31  2  0
 31 32  1  0
  2 33  2  0
 33 34  1  0
 33 35  1  0
 35 36  2  0
 36 37  1  0
 36 38  1  0
 38 39  2  0
 39 40  1  0
 39 41  1  0
 41 42  1  0
 41 43  2  0
 43 44  1  0
 31  7  1  0
 43 35  1  0
 27 16  1  0
M  END
>  <UniqueID>  (28) 
28

>  <SMILES>  (28) 
Nc1ccc(S(=O)(=O)c2ccc(NC(=O)/C=C/c3cccnc3)cc2)cc1

>  <Energy>  (28) 
53.34523200350991

>  <Genealogy>  (28) 
Nc1ccc(S(=O)(=O)c2ccc(NC(=O)/C=C/c3cccnc3)cc2)cc1 (cis-trans isomerization)
Nc1ccc(S(=O)(=O)c2ccc(NC(=O)/C=C/c3cccnc3)cc2)cc1 (3D coordinates assigned)
Nc1ccc(S(=O)(=O)c2ccc(NC(=O)/C=C/c3cccnc3)cc2)cc1 (optimized conformer: 53.34523200350991 kcal/mol)

>  <smiles>  (28) 
Nc1ccc(S(=O)(=O)c2ccc(NC(=O)C=Cc3cccnc3)cc2)cc1

>  <score_type>  (28) 
oracle

>  <origin>  (28) 
adgpu

>  <m_score__min__energy>  (28) 
-8.4600000000000009

>  <m_primary>  (28) 
energy

$$$$
28:0
     RDKit          3D

 33 34  0  0  0  0  0  0  0  0999 V2000
   -5.5350   25.4060  -30.3200 C   0  0  0  0  0  0  0  0  0  0  0  0
   -4.3650   24.8290  -30.8880 O   0  0  0  0  0  0  0  0  0  0  0  0
   -4.0670   23.4560  -30.8790 C   0  0  0  0  0  0  0  0  0  0  0  0
   -4.8670   22.5190  -31.5630 C   0  0  0  0  0  0  0  0  0  0  0  0
   -4.5430   21.1600  -31.5360 C   0  0  0  0  0  0  0  0  0  0  0  0
   -3.4280   20.7200  -30.8250 C   0  0  0  0  0  0  0  0  0  0  0  0
   -2.6260   21.6380  -30.1430 C   0  0  0  0  0  0  0  0  0  0  0  0
   -2.9290   23.0120  -30.1740 C   0  0  0  0  0  0  0  0  0  0  0  0
   -2.1210   23.9580  -29.4490 N   0  0  0  0  0  0  0  0  0  0  0  0
   -1.9280   23.9110  -28.0260 C   0  0  0  0  0  0  0  0  0  0  0  0
   -2.1330   22.8340  -27.4000 O   0  0  0  0  0  0  0  0  0  0  0  0
   -1.4210   25.0930  -27.2900 C   0  0  0  0  0  0  0  0  0  0  0  0
   -1.3020   25.0370  -25.8890 C   0  0  0  0  0  0  0  0  0  0  0  0
   -0.8260   26.1410  -25.1650 C   0  0  0  0  0  0  0  0  0  0  0  0
   -0.6550   26.0510  -23.6770 C   0  0  0  0  0  0  0  0  0  0  0  0
   -0.4440   27.3020  -25.8490 C   0  0  0  0  0  0  0  0  0  0  0  0
   -0.5740   27.3750  -27.2370 C   0  0  0  0  0  0  0  0  0  0  0  0
   -1.0700   26.2850  -27.9600 C   0  0  0  0  0  0  0  0  0  0  0  0
   -1.2290   26.4100  -29.3360 O   0  0  0  0  0  0  0  0  0  0  0  0
   -5.4652   25.3716  -29.2228 H   0  0  0  0  0  0  0  0  0  0  0  0
   -5.6249   26.4518  -30.6491 H   0  0  0  0  0  0  0  0  0  0  0  0
   -6.4194   24.8407  -30.6491 H   0  0  0  0  0  0  0  0  0  0  0  0
   -5.7515   22.8593  -32.1213 H   0  0  0  0  0  0  0  0  0  0  0  0
   -5.1695   20.4357  -32.0772 H   0  0  0  0  0  0  0  0  0  0  0  0
   -3.1793   19.6488  -30.8009 H   0  0  0  0  0  0  0  0  0  0  0  0
   -1.7512   21.2844  -29.5776 H   0  0  0  0  0  0  0  0  0  0  0  0
   -1.5640   24.6550  -29.9920 H   0  0  0  0  0  0  0  0  0  0  0  0
   -1.5852   24.1177  -25.3554 H   0  0  0  0  0  0  0  0  0  0  0  0
   -1.5233   26.5080  -23.1798 H   0  0  0  0  0  0  0  0  0  0  0  0
   -0.5765   24.9947  -23.3802 H   0  0  0  0  0  0  0  0  0  0  0  0
    0.2601   26.5843  -23.3802 H   0  0  0  0  0  0  0  0  0  0  0  0
   -0.0401   28.1593  -25.2905 H   0  0  0  0  0  0  0  0  0  0  0  0
   -0.2846   28.2953  -27.7654 H   0  0  0  0  0  0  0  0  0  0  0  0
  1  2  1  0
  2  3  1  0
  3  4  2  0
  4  5  1  0
  5  6  2  0
  6  7  1  0
  7  8  2  0
  8  9  1  0
  9 10  1  0
 10 11  2  0
 10 12  1  0
 12 13  2  0
 13 14  1  0
 14 15  1  0
 14 16  2  0
 16 17  1  0
 17 18  2  0
 18 19  1  0
  8  3  1  0
 18 12  1  0
  1 20  1  0
  1 21  1  0
  1 22  1  0
  4 23  1  0
  5 24  1  0
  6 25  1  0
  7 26  1  0
  9 27  1  0
 13 28  1  0
 15 29  1  0
 15 30  1  0
 15 31  1  0
 16 32  1  0
 17 33  1  0
M  CHG  1  19  -1
M  END
>  <UniqueID>  (29) 
29

>  <SMILES>  (29) 
COc1ccccc1NC(=O)c1cc(C)ccc1[O-]

>  <Energy>  (29) 
40.222035620195676

>  <Genealogy>  (29) 
COc1ccccc1NC(=O)c1cc(C)ccc1[O-] (protonated)
COc1ccccc1NC(=O)c1cc(C)ccc1[O-] (3D coordinates assigned)
COc1ccccc1NC(=O)c1cc(C)ccc1[O-] (optimized conformer: 40.222035620195676 kcal/mol)

>  <smiles>  (29) 
COc1ccccc1NC(=O)c1cc(C)ccc1O

>  <score_type>  (29) 
oracle

>  <origin>  (29) 
adgpu

>  <m_score__min__energy>  (29) 
-9.7100000000000009

>  <m_primary>  (29) 
energy

$$$$
29:0
     RDKit          3D

 61 65  0  0  0  0  0  0  0  0999 V2000
   -6.1820   15.2730  -33.8360 C   0  0  0  0  0  0  0  0  0  0  0  0
   -5.8120   16.7120  -33.6330 C   0  0  0  0  0  0  0  0  0  0  0  0
   -6.0690   17.6620  -34.6410 C   0  0  0  0  0  0  0  0  0  0  0  0
   -5.6730   18.9940  -34.4780 C   0  0  0  0  0  0  0  0  0  0  0  0
   -5.0230   19.3940  -33.3010 C   0  0  0  0  0  0  0  0  0  0  0  0
   -4.5330   21.1040  -33.0750 S   0  0  0  0  0  0  0  0  0  0  0  0
   -6.0380   21.5120  -32.1840 C   0  0  0  0  0  0  0  0  0  0  0  0
   -7.0430   20.5400  -32.0990 C   0  0  0  0  0  0  0  0  0  0  0  0
   -8.2110   20.7960  -31.3660 C   0  0  0  0  0  0  0  0  0  0  0  0
   -8.3650   22.0100  -30.6900 C   0  0  0  0  0  0  0  0  0  0  0  0
   -7.3670   22.9810  -30.7670 C   0  0  0  0  0  0  0  0  0  0  0  0
   -6.2130   22.7580  -31.5300 C   0  0  0  0  0  0  0  0  0  0  0  0
   -5.2240   23.7950  -31.5900 N   0  0  0  0  0  0  0  0  0  0  0  0
   -4.2660   24.1150  -30.5730 C   0  0  0  0  0  0  0  0  0  0  0  0
   -3.8660   25.3010  -30.4820 O   0  0  0  0  0  0  0  0  0  0  0  0
   -3.7050   23.0940  -29.6530 C   0  0  0  0  0  0  0  0  0  0  0  0
   -3.2160   23.4860  -28.3920 C   0  0  0  0  0  0  0  0  0  0  0  0
   -2.5670   22.5660  -27.5620 C   0  0  0  0  0  0  0  0  0  0  0  0
   -2.4210   21.2320  -27.9680 C   0  0  0  0  0  0  0  0  0  0  0  0
   -1.5230   20.0800  -26.9760 S   0  0  0  0  0  0  0  0  0  0  0  0
   -1.6050   20.4770  -25.5240 O   0  0  0  0  0  0  0  0  0  0  0  0
   -2.1520   18.7210  -27.1280 O   0  0  0  0  0  0  0  0  0  0  0  0
    0.1490   20.0030  -27.5070 N   0  0  0  0  0  0  0  0  0  0  0  0
    0.5890   18.6370  -27.8550 C   0  0  0  0  0  0  0  0  0  0  0  0
   -0.1210   18.0840  -29.0990 C   0  0  0  0  0  0  0  0  0  0  0  0
   -0.1980   19.1030  -30.2080 C   0  0  0  0  0  0  0  0  0  0  0  0
   -0.5360   18.6830  -31.5040 C   0  0  0  0  0  0  0  0  0  0  0  0
   -0.6410   19.6130  -32.5430 C   0  0  0  0  0  0  0  0  0  0  0  0
   -0.4300   20.9730  -32.2930 C   0  0  0  0  0  0  0  0  0  0  0  0
   -0.1110   21.4040  -31.0060 C   0  0  0  0  0  0  0  0  0  0  0  0
   -0.0070   20.4790  -29.9510 C   0  0  0  0  0  0  0  0  0  0  0  0
    0.4300   20.9670  -28.5890 C   0  0  0  0  0  0  0  0  0  0  0  0
   -2.9450   20.8250  -29.2010 C   0  0  0  0  0  0  0  0  0  0  0  0
   -3.5750   21.7490  -30.0440 C   0  0  0  0  0  0  0  0  0  0  0  0
   -4.7390   18.4450  -32.3070 C   0  0  0  0  0  0  0  0  0  0  0  0
   -5.1240   17.1060  -32.4750 C   0  0  0  0  0  0  0  0  0  0  0  0
   -6.3074   14.7852  -32.8581 H   0  0  0  0  0  0  0  0  0  0  0  0
   -7.1248   15.2128  -34.3994 H   0  0  0  0  0  0  0  0  0  0  0  0
   -5.3851   14.7655  -34.3994 H   0  0  0  0  0  0  0  0  0  0  0  0
   -6.5846   17.3544  -35.5627 H   0  0  0  0  0  0  0  0  0  0  0  0
   -5.8714   19.7278  -35.2731 H   0  0  0  0  0  0  0  0  0  0  0  0
   -6.9158   19.5734  -32.6085 H   0  0  0  0  0  0  0  0  0  0  0  0
   -9.0083   20.0393  -31.3229 H   0  0  0  0  0  0  0  0  0  0  0  0
   -9.2726   22.1991  -30.0979 H   0  0  0  0  0  0  0  0  0  0  0  0
   -7.4867   23.9302  -30.2241 H   0  0  0  0  0  0  0  0  0  0  0  0
   -3.3456   24.5255  -28.0565 H   0  0  0  0  0  0  0  0  0  0  0  0
   -2.1703   22.8899  -26.5885 H   0  0  0  0  0  0  0  0  0  0  0  0
    1.6720   18.6544  -28.0467 H   0  0  0  0  0  0  0  0  0  0  0  0
    0.3357   17.9810  -27.0091 H   0  0  0  0  0  0  0  0  0  0  0  0
    0.4325   17.2056  -29.4622 H   0  0  0  0  0  0  0  0  0  0  0  0
   -1.1489   17.8173  -28.8120 H   0  0  0  0  0  0  0  0  0  0  0  0
   -0.7192   17.6168  -31.7033 H   0  0  0  0  0  0  0  0  0  0  0  0
   -0.8901   19.2742  -33.5594 H   0  0  0  0  0  0  0  0  0  0  0  0
   -0.5158   21.7025  -33.1118 H   0  0  0  0  0  0  0  0  0  0  0  0
    0.0604   22.4735  -30.8143 H   0  0  0  0  0  0  0  0  0  0  0  0
    1.5134   21.1554  -28.6164 H   0  0  0  0  0  0  0  0  0  0  0  0
   -0.1434   21.8798  -28.3699 H   0  0  0  0  0  0  0  0  0  0  0  0
   -2.8613   19.7725  -29.5096 H   0  0  0  0  0  0  0  0  0  0  0  0
   -3.9702   21.4213  -31.0169 H   0  0  0  0  0  0  0  0  0  0  0  0
   -4.2120   18.7522  -31.3916 H   0  0  0  0  0  0  0  0  0  0  0  0
   -4.8862   16.3644  -31.6981 H   0  0  0  0  0  0  0  0  0  0  0  0
  1  2  1  0
  2  3  2  0
  3  4  1  0
  4  5  2  0
  5  6  1  0
  6  7  1  0
  7  8  2  0
  8  9  1  0
  9 10  2  0
 10 11  1  0
 11 12  2  0
 12 13  1  0
 13 14  1  0
 14 15  2  0
 14 16  1  0
 16 17  2  0
 17 18  1  0
 18 19  2  0
 19 20  1  0
 20 21  2  0
 20 22  2  0
 20 23  1  0
 23 24  1  0
 24 25  1  0
 25 26  1  0
 26 27  2  0
 27 28  1  0
 28 29  2  0
 29 30  1  0
 30 31  2  0
 31 32  1  0
 19 33  1  0
 33 34  2  0
  5 35  1  0
 35 36  2  0
 36  2  1  0
 12  7  1  0
 34 16  1  0
 32 23  1  0
 31 26  1  0
  1 37  1  0
  1 38  1  0
  1 39  1  0
  3 40  1  0
  4 41  1  0
  8 42  1  0
  9 43  1  0
 10 44  1  0
 11 45  1  0
 17 46  1  0
 18 47  1  0
 24 48  1  0
 24 49  1  0
 25 50  1  0
 25 51  1  0
 27 52  1  0
 28 53  1  0
 29 54  1  0
 30 55  1  0
 32 56  1  0
 32 57  1  0
 33 58  1  0
 34 59  1  0
 35 60  1  0
 36 61  1  0
M  CHG  1  13  -1
M  END
>  <UniqueID>  (30) 
30

>  <SMILES>  (30) 
Cc1ccc(Sc2ccccc2[N-]C(=O)c2ccc(S(=O)(=O)N3CCc4ccccc4C3)cc2)cc1

>  <Energy>  (30) 
76.56197770811433

>  <Genealogy>  (30) 
Cc1ccc(Sc2ccccc2[N-]C(=O)c2ccc(S(=O)(=O)N3CCc4ccccc4C3)cc2)cc1 (protonated)
Cc1ccc(Sc2ccccc2[N-]C(=O)c2ccc(S(=O)(=O)N3CCc4ccccc4C3)cc2)cc1 (3D coordinates assigned)
Cc1ccc(Sc2ccccc2[N-]C(=O)c2ccc(S(=O)(=O)N3CCc4ccccc4C3)cc2)cc1 (nonaromatic ring conformer: 76.56197770811433 kcal/mol)

>  <smiles>  (30) 
Cc1ccc(Sc2ccccc2NC(=O)c2ccc(S(=O)(=O)N3CCc4ccccc4C3)cc2)cc1

>  <score_type>  (30) 
oracle

>  <origin>  (30) 
adgpu

>  <m_score__min__energy>  (30) 
-13.25

>  <m_primary>  (30) 
energy

$$$$
30:0
     RDKit          3D

 49 51  0  0  0  0  0  0  0  0999 V2000
   -3.0600   18.7260  -25.6390 C   0  0  0  0  0  0  0  0  0  0  0  0
   -2.4400   19.3560  -26.8500 C   0  0  0  0  0  0  0  0  0  0  0  0
   -1.1780   18.9370  -27.2940 C   0  0  0  0  0  0  0  0  0  0  0  0
   -0.5670   19.5690  -28.3820 C   0  0  0  0  0  0  0  0  0  0  0  0
   -1.2080   20.6340  -29.0320 C   0  0  0  0  0  0  0  0  0  0  0  0
   -0.5270   21.3610  -30.1590 C   0  0  0  0  0  0  0  0  0  0  0  0
   -0.2790   20.4590  -31.2860 N   0  0  0  0  0  0  0  0  0  0  0  0
   -1.3340   20.7960  -32.6310 S   0  0  0  0  0  0  0  0  0  0  0  0
   -1.5310   19.5340  -33.4200 O   0  0  0  0  0  0  0  0  0  0  0  0
   -0.7070   21.8330  -33.5250 O   0  0  0  0  0  0  0  0  0  0  0  0
   -2.9080   21.3580  -32.0700 C   0  0  0  0  0  0  0  0  0  0  0  0
   -4.0090   20.4950  -32.0930 C   0  0  0  0  0  0  0  0  0  0  0  0
   -5.2530   20.9320  -31.6340 C   0  0  0  0  0  0  0  0  0  0  0  0
   -5.4120   22.2420  -31.1770 C   0  0  0  0  0  0  0  0  0  0  0  0
   -4.3220   23.1310  -31.1700 C   0  0  0  0  0  0  0  0  0  0  0  0
   -4.5150   24.5410  -30.7490 C   0  0  0  0  0  0  0  0  0  0  0  0
   -5.5860   25.1350  -31.0440 O   0  0  0  0  0  0  0  0  0  0  0  0
   -3.4880   25.2780  -30.0700 N   0  0  0  0  0  0  0  0  0  0  0  0
   -2.7230   24.8050  -28.9540 C   0  0  0  0  0  0  0  0  0  0  0  0
   -3.3440   24.3080  -27.7990 C   0  0  0  0  0  0  0  0  0  0  0  0
   -2.5740   23.8720  -26.7170 C   0  0  0  0  0  0  0  0  0  0  0  0
   -1.1690   23.9200  -26.7730 C   0  0  0  0  0  0  0  0  0  0  0  0
   -0.3660   23.4440  -25.6200 C   0  0  0  0  0  0  0  0  0  0  0  0
   -0.1720   24.2570  -24.4590 N   0  0  0  0  0  0  0  0  0  0  0  0
    0.1700   22.3040  -25.6610 O   0  0  0  0  0  0  0  0  0  0  0  0
   -0.5550   24.4480  -27.9220 C   0  0  0  0  0  0  0  0  0  0  0  0
   -1.3290   24.8930  -28.9990 C   0  0  0  0  0  0  0  0  0  0  0  0
   -3.0700   22.6780  -31.6260 C   0  0  0  0  0  0  0  0  0  0  0  0
   -2.4720   21.0510  -28.5890 C   0  0  0  0  0  0  0  0  0  0  0  0
   -3.0800   20.4230  -27.4980 C   0  0  0  0  0  0  0  0  0  0  0  0
   -2.6241   19.1690  -24.7314 H   0  0  0  0  0  0  0  0  0  0  0  0
   -4.1456   18.9034  -25.6485 H   0  0  0  0  0  0  0  0  0  0  0  0
   -2.8653   17.6434  -25.6485 H   0  0  0  0  0  0  0  0  0  0  0  0
   -0.6660   18.1074  -26.7844 H   0  0  0  0  0  0  0  0  0  0  0  0
    0.4200   19.2295  -28.7292 H   0  0  0  0  0  0  0  0  0  0  0  0
   -1.1692   22.1887  -30.4943 H   0  0  0  0  0  0  0  0  0  0  0  0
    0.4377   21.7466  -29.7975 H   0  0  0  0  0  0  0  0  0  0  0  0
   -3.8942   19.4694  -32.4738 H   0  0  0  0  0  0  0  0  0  0  0  0
   -6.1102   20.2426  -31.6323 H   0  0  0  0  0  0  0  0  0  0  0  0
   -6.3959   22.5808  -30.8203 H   0  0  0  0  0  0  0  0  0  0  0  0
   -4.4416   24.2611  -27.7443 H   0  0  0  0  0  0  0  0  0  0  0  0
   -3.0708   23.4880  -25.8138 H   0  0  0  0  0  0  0  0  0  0  0  0
    0.3500   23.8760  -23.6390 H   0  0  0  0  0  0  0  0  0  0  0  0
   -0.4620   25.2590  -24.4340 H   0  0  0  0  0  0  0  0  0  0  0  0
    0.5419   24.5117  -27.9746 H   0  0  0  0  0  0  0  0  0  0  0  0
   -0.8369   25.3152  -29.8876 H   0  0  0  0  0  0  0  0  0  0  0  0
   -2.2112   23.3654  -31.6341 H   0  0  0  0  0  0  0  0  0  0  0  0
   -2.9872   21.8761  -29.1026 H   0  0  0  0  0  0  0  0  0  0  0  0
   -4.0639   20.7668  -27.1463 H   0  0  0  0  0  0  0  0  0  0  0  0
  1  2  1  0
  2  3  2  0
  3  4  1  0
  4  5  2  0
  5  6  1  0
  6  7  1  0
  7  8  1  0
  8  9  2  0
  8 10  2  0
  8 11  1  0
 11 12  2  0
 12 13  1  0
 13 14  2  0
 14 15  1  0
 15 16  1  0
 16 17  2  0
 16 18  1  0
 18 19  1  0
 19 20  2  0
 20 21  1  0
 21 22  2  0
 22 23  1  0
 23 24  1  0
 23 25  2  0
 22 26  1  0
 26 27  2  0
 15 28  2  0
  5 29  1  0
 29 30  2  0
 30  2  1  0
 28 11  1  0
 27 19  1  0
  1 31  1  0
  1 32  1  0
  1 33  1  0
  3 34  1  0
  4 35  1  0
  6 36  1  0
  6 37  1  0
 12 38  1  0
 13 39  1  0
 14 40  1  0
 20 41  1  0
 21 42  1  0
 24 43  1  0
 24 44  1  0
 26 45  1  0
 27 46  1  0
 28 47  1  0
 29 48  1  0
 30 49  1  0
M  CHG  2   7  -1  18  -1
M  END
>  <UniqueID>  (31) 
31

>  <SMILES>  (31) 
Cc1ccc(C[N-]S(=O)(=O)c2cccc(C(=O)[N-]c3ccc(C(N)=O)cc3)c2)cc1

>  <Energy>  (31) 
52.398062006377856

>  <Genealogy>  (31) 
Cc1ccc(C[N-]S(=O)(=O)c2cccc(C(=O)[N-]c3ccc(C(N)=O)cc3)c2)cc1 (protonated)
Cc1ccc(C[N-]S(=O)(=O)c2cccc(C(=O)[N-]c3ccc(C(N)=O)cc3)c2)cc1 (3D coordinates assigned)
Cc1ccc(C[N-]S(=O)(=O)c2cccc(C(=O)[N-]c3ccc(C(N)=O)cc3)c2)cc1 (optimized conformer: 52.398062006377856 kcal/mol)

>  <smiles>  (31) 
Cc1ccc(CNS(=O)(=O)c2cccc(C(=O)Nc3ccc(C(N)=O)cc3)c2)cc1

>  <score_type>  (31) 
oracle

>  <origin>  (31) 
adgpu

>  <m_score__min__energy>  (31) 
-11.56

>  <m_primary>  (31) 
energy

$$$$
31:0
     RDKit          3D

 52 56  0  0  0  0  0  0  0  0999 V2000
   -4.7730   23.7170  -31.7650 O   0  0  0  0  0  0  0  0  0  0  0  0
   -4.6330   22.5160  -31.4060 C   0  0  0  0  0  0  0  0  0  0  0  0
   -3.9580   22.2080  -30.1750 N   0  0  0  0  0  0  0  0  0  0  0  0
   -3.1670   23.1480  -29.4330 C   0  0  0  0  0  0  0  0  0  0  0  0
   -3.3560   24.5140  -29.3030 C   0  0  0  0  0  0  0  0  0  0  0  0
   -2.3400   25.0210  -28.5740 N   0  0  0  0  0  0  0  0  0  0  0  0
   -1.5350   24.0200  -28.2580 N   0  0  0  0  0  0  0  0  0  0  0  0
   -0.0840   24.2150  -27.3360 S   0  0  0  0  0  0  0  0  0  0  0  0
    1.0190   24.7410  -28.2110 O   0  0  0  0  0  0  0  0  0  0  0  0
    0.3360   22.8730  -26.8010 O   0  0  0  0  0  0  0  0  0  0  0  0
   -0.3770   25.3480  -26.0110 C   0  0  0  0  0  0  0  0  0  0  0  0
   -0.4490   26.7250  -26.2850 C   0  0  0  0  0  0  0  0  0  0  0  0
   -0.6810   27.6410  -25.2530 C   0  0  0  0  0  0  0  0  0  0  0  0
   -0.7700   29.3570  -25.6080 Cl  0  0  0  0  0  0  0  0  0  0  0  0
   -0.8410   27.1900  -23.9410 C   0  0  0  0  0  0  0  0  0  0  0  0
   -0.7630   25.8260  -23.6560 C   0  0  0  0  0  0  0  0  0  0  0  0
   -0.5280   24.9000  -24.6810 C   0  0  0  0  0  0  0  0  0  0  0  0
   -0.4280   23.1950  -24.2530 Cl  0  0  0  0  0  0  0  0  0  0  0  0
   -1.9960   22.8640  -28.7670 C   0  0  0  0  0  0  0  0  0  0  0  0
   -5.1570   21.4180  -32.2540 C   0  0  0  0  0  0  0  0  0  0  0  0
   -6.4760   21.0980  -32.1500 N   0  0  0  0  0  0  0  0  0  0  0  0
   -7.0570   20.0810  -32.8420 C   0  0  0  0  0  0  0  0  0  0  0  0
   -8.5370   19.8450  -32.6190 C   0  0  0  0  0  0  0  0  0  0  0  0
   -8.9320   18.7730  -31.6140 C   0  0  0  0  0  0  0  0  0  0  0  0
   -9.1120   20.2460  -31.2680 C   0  0  0  0  0  0  0  0  0  0  0  0
   -6.2610   19.3130  -33.7130 C   0  0  0  0  0  0  0  0  0  0  0  0
   -4.9080   19.6150  -33.8520 C   0  0  0  0  0  0  0  0  0  0  0  0
   -4.3340   20.6670  -33.1240 C   0  0  0  0  0  0  0  0  0  0  0  0
   -2.9590   21.0180  -33.3490 N   0  0  0  0  0  0  0  0  0  0  0  0
   -1.8830   20.6380  -32.4750 C   0  0  0  0  0  0  0  0  0  0  0  0
   -1.1650   21.5800  -31.7220 C   0  0  0  0  0  0  0  0  0  0  0  0
   -0.1390   21.1780  -30.9280 N   0  0  0  0  0  0  0  0  0  0  0  0
    0.2120   19.8690  -30.8500 C   0  0  0  0  0  0  0  0  0  0  0  0
   -0.4580   18.9390  -31.5800 N   0  0  0  0  0  0  0  0  0  0  0  0
   -1.4880   19.2980  -32.3900 C   0  0  0  0  0  0  0  0  0  0  0  0
   -4.0750   21.2530  -29.7680 H   0  0  0  0  0  0  0  0  0  0  0  0
   -4.1940   25.0892  -29.7236 H   0  0  0  0  0  0  0  0  0  0  0  0
   -0.3222   27.0845  -27.3168 H   0  0  0  0  0  0  0  0  0  0  0  0
   -1.0287   27.9106  -23.1314 H   0  0  0  0  0  0  0  0  0  0  0  0
   -0.8867   25.4758  -22.6206 H   0  0  0  0  0  0  0  0  0  0  0  0
   -1.5249   21.8748  -28.6694 H   0  0  0  0  0  0  0  0  0  0  0  0
   -8.7911   20.0586  -33.6677 H   0  0  0  0  0  0  0  0  0  0  0  0
   -9.8122   18.1405  -31.8018 H   0  0  0  0  0  0  0  0  0  0  0  0
   -8.4197   17.9205  -31.1442 H   0  0  0  0  0  0  0  0  0  0  0  0
  -10.1221   20.6771  -31.2061 H   0  0  0  0  0  0  0  0  0  0  0  0
   -8.7836   20.8978  -30.4450 H   0  0  0  0  0  0  0  0  0  0  0  0
   -6.7040   18.4807  -34.2796 H   0  0  0  0  0  0  0  0  0  0  0  0
   -4.2848   19.0232  -34.5386 H   0  0  0  0  0  0  0  0  0  0  0  0
   -2.7270   21.5360  -34.2260 H   0  0  0  0  0  0  0  0  0  0  0  0
   -1.4336   22.6454  -31.7750 H   0  0  0  0  0  0  0  0  0  0  0  0
    1.0401   19.5606  -30.1949 H   0  0  0  0  0  0  0  0  0  0  0  0
   -2.0131   18.5331  -32.9809 H   0  0  0  0  0  0  0  0  0  0  0  0
  1  2  2  0
  2  3  1  0
  3  4  1  0
  4  5  1  0
  5  6  2  0
  6  7  1  0
  7  8  1  0
  8  9  2  0
  8 10  2  0
  8 11  1  0
 11 12  2  0
 12 13  1  0
 13 14  1  0
 13 15  2  0
 15 16  1  0
 16 17  2  0
 17 18  1  0
  7 19  1  0
  2 20  1  0
 20 21  2  0
 21 22  1  0
 22 23  1  0
 23 24  1  0
 24 25  1  0
 22 26  2  0
 26 27  1  0
 27 28  2  0
 28 29  1  0
 29 30  1  0
 30 31  2  0
 31 32  1  0
 32 33  2  0
 33 34  1  0
 34 35  2  0
 19  4  2  0
 28 20  1  0
 35 30  1  0
 17 11  1  0
 25 23  1  0
  3 36  1  0
  5 37  1  0
 12 38  1  0
 15 39  1  0
 16 40  1  0
 19 41  1  0
 23 42  1  0
 24 43  1  0
 24 44  1  0
 25 45  1  0
 25 46  1  0
 26 47  1  0
 27 48  1  0
 29 49  1  0
 31 50  1  0
 33 51  1  0
 35 52  1  0
M  END
>  <UniqueID>  (32) 
32

>  <SMILES>  (32) 
O=C(Nc1cnn(S(=O)(=O)c2cc(Cl)ccc2Cl)c1)c1nc(C2CC2)ccc1Nc1cncnc1

>  <Energy>  (32) 
371.63471227625195

>  <Genealogy>  (32) 
O=C(Nc1cnn(S(=O)(=O)c2cc(Cl)ccc2Cl)c1)c1nc(C2CC2)ccc1Nc1cncnc1 (3D coordinates assigned)
O=C(Nc1cnn(S(=O)(=O)c2cc(Cl)ccc2Cl)c1)c1nc(C2CC2)ccc1Nc1cncnc1 (nonaromatic ring conformer: 371.63471227625195 kcal/mol)

>  <smiles>  (32) 
O=C(Nc1cnn(S(=O)(=O)c2cc(Cl)ccc2Cl)c1)c1nc(C2CC2)ccc1Nc1cncnc1

>  <score_type>  (32) 
oracle

>  <origin>  (32) 
adgpu

>  <m_score__min__energy>  (32) 
-10.85

>  <m_primary>  (32) 
energy

$$$$
32:0
     RDKit          3D

 46 49  0  0  0  0  0  0  0  0999 V2000
   -4.6010   19.6730  -31.6630 N   0  0  0  0  0  0  0  0  0  0  0  0
   -5.2510   18.7670  -32.5640 C   0  0  0  0  0  0  0  0  0  0  0  0
   -4.4770   18.0880  -33.5190 C   0  0  0  0  0  0  0  0  0  0  0  0
   -5.0580   17.1220  -34.3450 C   0  0  0  0  0  0  0  0  0  0  0  0
   -6.4140   16.8180  -34.2180 C   0  0  0  0  0  0  0  0  0  0  0  0
   -7.1990   17.4990  -33.2830 C   0  0  0  0  0  0  0  0  0  0  0  0
   -6.6390   18.4970  -32.4750 C   0  0  0  0  0  0  0  0  0  0  0  0
   -7.5080   19.2130  -31.5830 N   0  0  0  0  0  0  0  0  0  0  0  0
   -8.0640   20.5140  -31.8180 C   0  0  0  0  0  0  0  0  0  0  0  0
   -9.1960   20.5960  -32.3610 O   0  0  0  0  0  0  0  0  0  0  0  0
   -7.3460   21.7570  -31.4480 C   0  0  0  0  0  0  0  0  0  0  0  0
   -7.6140   22.4150  -30.2370 C   0  0  0  0  0  0  0  0  0  0  0  0
   -6.9440   23.5980  -29.9110 C   0  0  0  0  0  0  0  0  0  0  0  0
   -5.9880   24.1360  -30.7850 C   0  0  0  0  0  0  0  0  0  0  0  0
   -5.3140   25.4360  -30.4540 C   0  0  0  0  0  0  0  0  0  0  0  0
   -3.8740   25.2870  -30.6290 N   0  0  0  0  0  0  0  0  0  0  0  0
   -3.0110   24.5540  -29.7510 C   0  0  0  0  0  0  0  0  0  0  0  0
   -2.5690   25.1270  -28.7190 O   0  0  0  0  0  0  0  0  0  0  0  0
   -2.6080   23.1610  -30.0230 C   0  0  0  0  0  0  0  0  0  0  0  0
   -2.1800   22.3130  -28.9700 C   0  0  0  0  0  0  0  0  0  0  0  0
   -1.7690   20.9940  -29.2380 C   0  0  0  0  0  0  0  0  0  0  0  0
   -1.7820   20.5650  -30.5610 C   0  0  0  0  0  0  0  0  0  0  0  0
   -2.1750   21.3770  -31.5750 C   0  0  0  0  0  0  0  0  0  0  0  0
   -2.5890   22.6880  -31.3530 C   0  0  0  0  0  0  0  0  0  0  0  0
   -2.0790   20.6970  -32.7740 O   0  0  0  0  0  0  0  0  0  0  0  0
   -1.5970   19.3740  -32.4940 C   0  0  0  0  0  0  0  0  0  0  0  0
   -1.4200   19.3330  -31.0710 O   0  0  0  0  0  0  0  0  0  0  0  0
   -5.7090   23.4720  -31.9900 C   0  0  0  0  0  0  0  0  0  0  0  0
   -6.3740   22.2860  -32.3140 C   0  0  0  0  0  0  0  0  0  0  0  0
   -5.1420   20.2760  -31.0050 H   0  0  0  0  0  0  0  0  0  0  0  0
   -3.5610   19.6720  -31.5730 H   0  0  0  0  0  0  0  0  0  0  0  0
   -3.4059   18.3181  -33.6176 H   0  0  0  0  0  0  0  0  0  0  0  0
   -4.4459   16.6009  -35.0959 H   0  0  0  0  0  0  0  0  0  0  0  0
   -6.8654   16.0422  -34.8539 H   0  0  0  0  0  0  0  0  0  0  0  0
   -8.2654   17.2491  -33.1809 H   0  0  0  0  0  0  0  0  0  0  0  0
   -8.3557   21.9972  -29.5404 H   0  0  0  0  0  0  0  0  0  0  0  0
   -7.1679   24.1099  -28.9635 H   0  0  0  0  0  0  0  0  0  0  0  0
   -5.6865   26.2248  -31.1241 H   0  0  0  0  0  0  0  0  0  0  0  0
   -5.5334   25.7115  -29.4119 H   0  0  0  0  0  0  0  0  0  0  0  0
   -2.1692   22.6889  -27.9363 H   0  0  0  0  0  0  0  0  0  0  0  0
   -1.4477   20.3237  -28.4271 H   0  0  0  0  0  0  0  0  0  0  0  0
   -2.8921   23.3356  -32.1889 H   0  0  0  0  0  0  0  0  0  0  0  0
   -2.3314   18.6200  -32.8135 H   0  0  0  0  0  0  0  0  0  0  0  0
   -0.6629   19.1538  -33.0316 H   0  0  0  0  0  0  0  0  0  0  0  0
   -4.9628   23.8874  -32.6832 H   0  0  0  0  0  0  0  0  0  0  0  0
   -6.1351   21.7638  -33.2522 H   0  0  0  0  0  0  0  0  0  0  0  0
  1  2  1  0
  2  3  2  0
  3  4  1  0
  4  5  2  0
  5  6  1  0
  6  7  2  0
  7  8  1  0
  8  9  1  0
  9 10  2  0
  9 11  1  0
 11 12  2  0
 12 13  1  0
 13 14  2  0
 14 15  1  0
 15 16  1  0
 16 17  1  0
 17 18  2  0
 17 19  1  0
 19 20  2  0
 20 21  1  0
 21 22  2  0
 22 23  1  0
 23 24  2  0
 23 25  1  0
 25 26  1  0
 26 27  1  0
 14 28  1  0
 28 29  2  0
  7  2  1  0
 29 11  1  0
 24 19  1  0
 27 22  1  0
  1 30  1  0
  1 31  1  0
  3 32  1  0
  4 33  1  0
  5 34  1  0
  6 35  1  0
 12 36  1  0
 13 37  1  0
 15 38  1  0
 15 39  1  0
 20 40  1  0
 21 41  1  0
 24 42  1  0
 26 43  1  0
 26 44  1  0
 28 45  1  0
 29 46  1  0
M  CHG  2   8  -1  16  -1
M  END
>  <UniqueID>  (33) 
33

>  <SMILES>  (33) 
Nc1ccccc1[N-]C(=O)c1ccc(C[N-]C(=O)c2ccc3c(c2)OCO3)cc1

>  <Energy>  (33) 
91.09945245507441

>  <Genealogy>  (33) 
Nc1ccccc1[N-]C(=O)c1ccc(C[N-]C(=O)c2ccc3c(c2)OCO3)cc1 (protonated)
Nc1ccccc1[N-]C(=O)c1ccc(C[N-]C(=O)c2ccc3c(c2)OCO3)cc1 (3D coordinates assigned)
Nc1ccccc1[N-]C(=O)c1ccc(C[N-]C(=O)c2ccc3c(c2)OCO3)cc1 (nonaromatic ring conformer: 91.09945245507441 kcal/mol)

>  <smiles>  (33) 
Nc1ccccc1NC(=O)c1ccc(CNC(=O)c2ccc3c(c2)OCO3)cc1

>  <score_type>  (33) 
oracle

>  <origin>  (33) 
adgpu

>  <m_score__min__energy>  (33) 
-11.460000000000001

>  <m_primary>  (33) 
energy

$$$$
33:0
     RDKit          3D

 61 64  0  0  0  0  0  0  0  0999 V2000
   -6.4860   25.0750  -30.4520 C   0  0  0  0  0  0  0  0  0  0  0  0
   -6.5630   24.3100  -31.6520 O   0  0  0  0  0  0  0  0  0  0  0  0
   -7.1160   23.0210  -31.7410 C   0  0  0  0  0  0  0  0  0  0  0  0
   -8.4890   22.8140  -31.9450 C   0  0  0  0  0  0  0  0  0  0  0  0
   -9.0020   21.5150  -31.9910 C   0  0  0  0  0  0  0  0  0  0  0  0
  -10.2420   21.3500  -32.1520 O   0  0  0  0  0  0  0  0  0  0  0  0
   -8.1670   20.4350  -31.8590 N   0  0  0  0  0  0  0  0  0  0  0  0
   -8.7170   19.0740  -31.8810 C   0  0  0  0  0  0  0  0  0  0  0  0
   -6.8280   20.6180  -31.6530 C   0  0  0  0  0  0  0  0  0  0  0  0
   -6.2760   21.9070  -31.5920 C   0  0  0  0  0  0  0  0  0  0  0  0
   -4.8300   22.0750  -31.3190 C   0  0  0  0  0  0  0  0  0  0  0  0
   -4.4240   22.6810  -30.1190 C   0  0  0  0  0  0  0  0  0  0  0  0
   -3.0650   22.9000  -29.8430 C   0  0  0  0  0  0  0  0  0  0  0  0
   -2.6950   23.5140  -28.5930 N   0  0  0  0  0  0  0  0  0  0  0  0
   -1.1480   23.3040  -27.8290 S   0  0  0  0  0  0  0  0  0  0  0  0
   -0.0990   24.0270  -28.6240 O   0  0  0  0  0  0  0  0  0  0  0  0
   -1.1990   23.8930  -26.4470 O   0  0  0  0  0  0  0  0  0  0  0  0
   -0.7400   21.5910  -27.7680 C   0  0  0  0  0  0  0  0  0  0  0  0
   -1.6570   20.6740  -27.2330 C   0  0  0  0  0  0  0  0  0  0  0  0
   -1.3370   19.3130  -27.1660 C   0  0  0  0  0  0  0  0  0  0  0  0
   -0.1030   18.8530  -27.6510 C   0  0  0  0  0  0  0  0  0  0  0  0
    0.2560   17.4010  -27.5390 C   0  0  0  0  0  0  0  0  0  0  0  0
    0.8190   19.7760  -28.1760 C   0  0  0  0  0  0  0  0  0  0  0  0
    0.4990   21.1370  -28.2420 C   0  0  0  0  0  0  0  0  0  0  0  0
   -2.1080   22.5280  -30.8020 C   0  0  0  0  0  0  0  0  0  0  0  0
   -2.5020   21.9270  -31.9990 C   0  0  0  0  0  0  0  0  0  0  0  0
   -3.8510   21.6710  -32.2560 C   0  0  0  0  0  0  0  0  0  0  0  0
   -4.1900   21.0240  -33.4540 O   0  0  0  0  0  0  0  0  0  0  0  0
   -4.5390   19.6660  -33.5450 C   0  0  0  0  0  0  0  0  0  0  0  0
   -3.7300   18.6540  -32.9990 C   0  0  0  0  0  0  0  0  0  0  0  0
   -4.1210   17.3160  -33.0850 C   0  0  0  0  0  0  0  0  0  0  0  0
   -5.3260   16.9690  -33.7130 C   0  0  0  0  0  0  0  0  0  0  0  0
   -5.7320   15.5290  -33.8310 C   0  0  0  0  0  0  0  0  0  0  0  0
   -6.1140   17.9750  -34.2930 C   0  0  0  0  0  0  0  0  0  0  0  0
   -5.7210   19.3140  -34.2080 C   0  0  0  0  0  0  0  0  0  0  0  0
   -6.5536   24.4030  -29.5838 H   0  0  0  0  0  0  0  0  0  0  0  0
   -5.5288   25.6163  -30.4230 H   0  0  0  0  0  0  0  0  0  0  0  0
   -7.3161   25.7962  -30.4230 H   0  0  0  0  0  0  0  0  0  0  0  0
   -9.1620   23.6752  -32.0688 H   0  0  0  0  0  0  0  0  0  0  0  0
   -8.8602   18.7197  -30.8495 H   0  0  0  0  0  0  0  0  0  0  0  0
   -9.6842   19.0778  -32.4050 H   0  0  0  0  0  0  0  0  0  0  0  0
   -8.0187   18.4048  -32.4050 H   0  0  0  0  0  0  0  0  0  0  0  0
   -6.1735   19.7420  -31.5333 H   0  0  0  0  0  0  0  0  0  0  0  0
   -5.1824   22.9888  -29.3841 H   0  0  0  0  0  0  0  0  0  0  0  0
   -3.4090   24.0730  -28.0690 H   0  0  0  0  0  0  0  0  0  0  0  0
   -2.6318   21.0261  -26.8645 H   0  0  0  0  0  0  0  0  0  0  0  0
   -2.0550   18.6017  -26.7318 H   0  0  0  0  0  0  0  0  0  0  0  0
    0.3252   17.1212  -26.4774 H   0  0  0  0  0  0  0  0  0  0  0  0
   -0.5188   16.7929  -28.0287 H   0  0  0  0  0  0  0  0  0  0  0  0
    1.2249   17.2240  -28.0287 H   0  0  0  0  0  0  0  0  0  0  0  0
    1.7975   19.4263  -28.5369 H   0  0  0  0  0  0  0  0  0  0  0  0
    1.2202   21.8511  -28.6661 H   0  0  0  0  0  0  0  0  0  0  0  0
   -1.0408   22.7115  -30.6084 H   0  0  0  0  0  0  0  0  0  0  0  0
   -1.7432   21.6526  -32.7466 H   0  0  0  0  0  0  0  0  0  0  0  0
   -2.7848   18.9173  -32.5018 H   0  0  0  0  0  0  0  0  0  0  0  0
   -3.4805   16.5303  -32.6579 H   0  0  0  0  0  0  0  0  0  0  0  0
   -5.8533   15.0987  -32.8259 H   0  0  0  0  0  0  0  0  0  0  0  0
   -6.6846   15.4601  -34.3768 H   0  0  0  0  0  0  0  0  0  0  0  0
   -4.9557   14.9727  -34.3768 H   0  0  0  0  0  0  0  0  0  0  0  0
   -7.0442   17.7091  -34.8164 H   0  0  0  0  0  0  0  0  0  0  0  0
   -6.3446   20.0964  -34.6651 H   0  0  0  0  0  0  0  0  0  0  0  0
  1  2  1  0
  2  3  1  0
  3  4  2  0
  4  5  1  0
  5  6  2  0
  5  7  1  0
  7  8  1  0
  7  9  1  0
  9 10  2  0
 10 11  1  0
 11 12  2  0
 12 13  1  0
 13 14  1  0
 14 15  1  0
 15 16  2  0
 15 17  2  0
 15 18  1  0
 18 19  2  0
 19 20  1  0
 20 21  2  0
 21 22  1  0
 21 23  1  0
 23 24  2  0
 13 25  2  0
 25 26  1  0
 26 27  2  0
 27 28  1  0
 28 29  1  0
 29 30  2  0
 30 31  1  0
 31 32  2  0
 32 33  1  0
 32 34  1  0
 34 35  2  0
 10  3  1  0
 27 11  1  0
 35 29  1  0
 24 18  1  0
  1 36  1  0
  1 37  1  0
  1 38  1  0
  4 39  1  0
  8 40  1  0
  8 41  1  0
  8 42  1  0
  9 43  1  0
 12 44  1  0
 14 45  1  0
 19 46  1  0
 20 47  1  0
 22 48  1  0
 22 49  1  0
 22 50  1  0
 23 51  1  0
 24 52  1  0
 25 53  1  0
 26 54  1  0
 30 55  1  0
 31 56  1  0
 33 57  1  0
 33 58  1  0
 33 59  1  0
 34 60  1  0
 35 61  1  0
M  END
>  <UniqueID>  (34) 
34

>  <SMILES>  (34) 
COc1cc(=O)n(C)cc1-c1cc(NS(=O)(=O)c2ccc(C)cc2)ccc1Oc1ccc(C)cc1

>  <Energy>  (34) 
79.75853414476467

>  <Genealogy>  (34) 
COc1cc(=O)n(C)cc1-c1cc(NS(=O)(=O)c2ccc(C)cc2)ccc1Oc1ccc(C)cc1 (3D coordinates assigned)
COc1cc(=O)n(C)cc1-c1cc(NS(=O)(=O)c2ccc(C)cc2)ccc1Oc1ccc(C)cc1 (optimized conformer: 79.75853414476467 kcal/mol)

>  <smiles>  (34) 
COc1cc(=O)n(C)cc1-c1cc(NS(=O)(=O)c2ccc(C)cc2)ccc1Oc1ccc(C)cc1

>  <score_type>  (34) 
oracle

>  <origin>  (34) 
adgpu

>  <m_score__min__energy>  (34) 
-10.75

>  <m_primary>  (34) 
energy

$$$$
34:0
     RDKit          3D

 48 50  0  0  0  0  0  0  0  0999 V2000
   -1.0510   28.8090  -25.9870 H   0  0  0  0  0  0  0  0  0  0  0  0
   -0.8670   29.3120  -25.1280 O   0  0  0  0  0  0  0  0  0  0  0  0
   -0.0730   28.7550  -24.1500 N   0  0  0  0  0  0  0  0  0  0  0  0
    0.3420   29.3890  -23.4310 H   0  0  0  0  0  0  0  0  0  0  0  0
    0.1160   27.4690  -24.0650 C   0  0  0  0  0  0  0  0  0  0  0  0
   -0.4440   26.5280  -25.0630 C   0  0  0  0  0  0  0  0  0  0  0  0
   -0.7220   26.9800  -26.3160 N   0  0  0  0  0  0  0  0  0  0  0  0
   -1.2610   26.1810  -27.2730 C   0  0  0  0  0  0  0  0  0  0  0  0
   -1.4639   26.5876  -28.2747 H   0  0  0  0  0  0  0  0  0  0  0  0
   -1.5610   24.8370  -26.9900 C   0  0  0  0  0  0  0  0  0  0  0  0
   -2.1490   23.9510  -28.0280 C   0  0  0  0  0  0  0  0  0  0  0  0
   -1.9050   22.5670  -28.0080 C   0  0  0  0  0  0  0  0  0  0  0  0
   -1.2728   22.1365  -27.2174 H   0  0  0  0  0  0  0  0  0  0  0  0
   -2.4580   21.7330  -28.9830 C   0  0  0  0  0  0  0  0  0  0  0  0
   -2.2582   20.6517  -28.9533 H   0  0  0  0  0  0  0  0  0  0  0  0
   -3.2680   22.2650  -30.0020 C   0  0  0  0  0  0  0  0  0  0  0  0
   -3.8550   21.3790  -31.0390 C   0  0  0  0  0  0  0  0  0  0  0  0
   -3.0370   20.5120  -31.7860 C   0  0  0  0  0  0  0  0  0  0  0  0
   -1.9530   20.4901  -31.6005 H   0  0  0  0  0  0  0  0  0  0  0  0
   -3.5900   19.6780  -32.7620 C   0  0  0  0  0  0  0  0  0  0  0  0
   -2.9375   19.0050  -33.3376 H   0  0  0  0  0  0  0  0  0  0  0  0
   -4.9720   19.6920  -33.0140 C   0  0  0  0  0  0  0  0  0  0  0  0
   -5.5690   18.8070  -34.0460 C   0  0  0  0  0  0  0  0  0  0  0  0
   -5.1810   17.4240  -34.0980 N   0  0  0  0  0  0  0  0  0  0  0  0
   -4.3620   17.0940  -33.5380 H   0  0  0  0  0  0  0  0  0  0  0  0
   -5.7830   16.5460  -34.9440 O   0  0  0  0  0  0  0  0  0  0  0  0
   -6.5210   15.6600  -34.1390 C   0  0  0  0  0  0  0  0  0  0  0  0
   -6.3335   15.8851  -33.0787 H   0  0  0  0  0  0  0  0  0  0  0  0
   -7.5935   15.7757  -34.3543 H   0  0  0  0  0  0  0  0  0  0  0  0
   -6.2133   14.6261  -34.3543 H   0  0  0  0  0  0  0  0  0  0  0  0
   -6.4430   19.2730  -34.8900 N   0  0  0  0  0  0  0  0  0  0  0  0
   -6.7700   20.2630  -34.8480 H   0  0  0  0  0  0  0  0  0  0  0  0
   -6.8640   18.6650  -35.6260 H   0  0  0  0  0  0  0  0  0  0  0  0
   -5.7900   20.5550  -32.2660 C   0  0  0  0  0  0  0  0  0  0  0  0
   -6.8744   20.5739  -32.4498 H   0  0  0  0  0  0  0  0  0  0  0  0
   -5.2380   21.3900  -31.2900 C   0  0  0  0  0  0  0  0  0  0  0  0
   -5.8915   22.0613  -30.7136 H   0  0  0  0  0  0  0  0  0  0  0  0
   -3.5120   23.6490  -30.0230 C   0  0  0  0  0  0  0  0  0  0  0  0
   -4.1430   24.0794  -30.8146 H   0  0  0  0  0  0  0  0  0  0  0  0
   -2.9600   24.4830  -29.0470 C   0  0  0  0  0  0  0  0  0  0  0  0
   -3.1612   25.5641  -29.0757 H   0  0  0  0  0  0  0  0  0  0  0  0
   -1.2980   24.3560  -25.6970 C   0  0  0  0  0  0  0  0  0  0  0  0
   -1.5265   23.3099  -25.4451 H   0  0  0  0  0  0  0  0  0  0  0  0
   -0.7480   25.1990  -24.7300 C   0  0  0  0  0  0  0  0  0  0  0  0
   -0.5542   24.8243  -23.7141 H   0  0  0  0  0  0  0  0  0  0  0  0
    0.8470   26.9380  -22.9540 N   0  0  0  0  0  0  0  0  0  0  0  0
    1.2340   27.5660  -22.2150 H   0  0  0  0  0  0  0  0  0  0  0  0
    1.0210   25.9100  -22.8710 H   0  0  0  0  0  0  0  0  0  0  0  0
  1  2  1  0
  2  3  1  0
  3  4  1  0
  3  5  2  0
  5  6  1  0
  6  7  2  0
  7  8  1  0
  8  9  1  0
  8 10  2  0
 10 11  1  0
 11 12  2  0
 12 13  1  0
 12 14  1  0
 14 15  1  0
 14 16  2  0
 16 17  1  0
 17 18  2  0
 18 19  1  0
 18 20  1  0
 20 21  1  0
 20 22  2  0
 22 23  1  0
 23 24  1  0
 24 25  1  0
 24 26  1  0
 26 27  1  0
 27 28  1  0
 27 29  1  0
 27 30  1  0
 23 31  2  0
 31 32  1  0
 31 33  1  0
 22 34  1  0
 34 35  1  0
 34 36  2  0
 36 37  1  0
 16 38  1  0
 38 39  1  0
 38 40  2  0
 40 41  1  0
 10 42  1  0
 42 43  1  0
 42 44  2  0
 44 45  1  0
  5 46  1  0
 46 47  1  0
 46 48  1  0
 44  6  1  0
 40 11  1  0
 36 17  1  0
M  CHG  2   3   1  31   1
M  END
>  <UniqueID>  (35) 
35

>  <SMILES>  (35) 
CONC(=[NH2+])c1ccc(-c2ccc(-c3ccc(/C(N)=[NH+]\O)nc3)cc2)cc1

>  <Energy>  (35) 
65.5484048291096

>  <Genealogy>  (35) 
CONC(=[NH2+])c1ccc(-c2ccc(-c3ccc(C(N)=[NH+]O)nc3)cc2)cc1 (protonated)
CONC(=[NH2+])c1ccc(-c2ccc(-c3ccc(/C(N)=[NH+]\O)nc3)cc2)cc1 (cis-trans isomerization)
CONC(=[NH2+])c1ccc(-c2ccc(-c3ccc(/C(N)=[NH+]\O)nc3)cc2)cc1 (3D coordinates assigned)
CONC(=[NH2+])c1ccc(-c2ccc(-c3ccc(/C(N)=[NH+]\O)nc3)cc2)cc1 (optimized conformer: 65.5484048291096 kcal/mol)

>  <smiles>  (35) 
CONC(=N)c1ccc(-c2ccc(-c3ccc(C(N)=NO)nc3)cc2)cc1

>  <score_type>  (35) 
oracle

>  <origin>  (35) 
adgpu

>  <m_score__min__energy>  (35) 
-8.1199999999999992

>  <m_primary>  (35) 
energy

$$$$
35:0
     RDKit          3D

 42 44  0  0  0  0  0  0  0  0999 V2000
   -1.9200   25.6490  -28.7820 N   0  0  0  0  0  0  0  0  0  0  0  0
   -0.9520   24.8970  -27.5630 S   0  0  0  0  0  0  0  0  0  0  0  0
   -1.2360   25.5510  -26.2390 O   0  0  0  0  0  0  0  0  0  0  0  0
    0.5020   25.0740  -27.8920 O   0  0  0  0  0  0  0  0  0  0  0  0
   -1.3280   23.1720  -27.4930 C   0  0  0  0  0  0  0  0  0  0  0  0
   -0.9480   22.4210  -26.3690 C   0  0  0  0  0  0  0  0  0  0  0  0
   -1.2380   21.0570  -26.3010 C   0  0  0  0  0  0  0  0  0  0  0  0
   -1.9060   20.4310  -27.3530 C   0  0  0  0  0  0  0  0  0  0  0  0
   -2.2900   21.1670  -28.4770 C   0  0  0  0  0  0  0  0  0  0  0  0
   -2.0090   22.5440  -28.5570 C   0  0  0  0  0  0  0  0  0  0  0  0
   -2.3950   23.3220  -29.7010 N   0  0  0  0  0  0  0  0  0  0  0  0
   -3.9810   23.9510  -29.9980 S   0  0  0  0  0  0  0  0  0  0  0  0
   -4.7130   24.0810  -28.6930 O   0  0  0  0  0  0  0  0  0  0  0  0
   -3.8710   25.3130  -30.6250 O   0  0  0  0  0  0  0  0  0  0  0  0
   -4.8690   22.8420  -31.0380 C   0  0  0  0  0  0  0  0  0  0  0  0
   -6.1930   23.1340  -31.3890 C   0  0  0  0  0  0  0  0  0  0  0  0
   -6.9180   22.2570  -32.2000 C   0  0  0  0  0  0  0  0  0  0  0  0
   -6.3200   21.0770  -32.6780 C   0  0  0  0  0  0  0  0  0  0  0  0
   -7.0200   20.1640  -33.4810 O   0  0  0  0  0  0  0  0  0  0  0  0
   -6.6170   18.8480  -33.7530 C   0  0  0  0  0  0  0  0  0  0  0  0
   -5.5990   18.5580  -34.6830 C   0  0  0  0  0  0  0  0  0  0  0  0
   -5.2200   17.2330  -34.9190 C   0  0  0  0  0  0  0  0  0  0  0  0
   -5.8400   16.1920  -34.2230 C   0  0  0  0  0  0  0  0  0  0  0  0
   -6.8340   16.4750  -33.2810 C   0  0  0  0  0  0  0  0  0  0  0  0
   -7.2160   17.8000  -33.0440 C   0  0  0  0  0  0  0  0  0  0  0  0
   -5.0040   20.7770  -32.3070 C   0  0  0  0  0  0  0  0  0  0  0  0
   -4.2770   21.6560  -31.4980 C   0  0  0  0  0  0  0  0  0  0  0  0
   -2.8930   25.2890  -28.6640 H   0  0  0  0  0  0  0  0  0  0  0  0
   -1.5750   25.2970  -29.7050 H   0  0  0  0  0  0  0  0  0  0  0  0
   -0.4190   22.9100  -25.5377 H   0  0  0  0  0  0  0  0  0  0  0  0
   -0.9392   20.4753  -25.4165 H   0  0  0  0  0  0  0  0  0  0  0  0
   -2.1311   19.3557  -27.2979 H   0  0  0  0  0  0  0  0  0  0  0  0
   -2.8151   20.6673  -29.3044 H   0  0  0  0  0  0  0  0  0  0  0  0
   -6.6646   24.0585  -31.0244 H   0  0  0  0  0  0  0  0  0  0  0  0
   -7.9597   22.4901  -32.4655 H   0  0  0  0  0  0  0  0  0  0  0  0
   -5.1013   19.3759  -35.2246 H   0  0  0  0  0  0  0  0  0  0  0  0
   -4.4325   17.0097  -35.6538 H   0  0  0  0  0  0  0  0  0  0  0  0
   -5.5461   15.1497  -34.4161 H   0  0  0  0  0  0  0  0  0  0  0  0
   -7.3155   15.6561  -32.7264 H   0  0  0  0  0  0  0  0  0  0  0  0
   -7.9919   18.0196  -32.2958 H   0  0  0  0  0  0  0  0  0  0  0  0
   -4.5383   19.8430  -32.6544 H   0  0  0  0  0  0  0  0  0  0  0  0
   -3.2394   21.4172  -31.2218 H   0  0  0  0  0  0  0  0  0  0  0  0
  1  2  1  0
  2  3  2  0
  2  4  2  0
  2  5  1  0
  5  6  2  0
  6  7  1  0
  7  8  2  0
  8  9  1  0
  9 10  2  0
 10 11  1  0
 11 12  1  0
 12 13  2  0
 12 14  2  0
 12 15  1  0
 15 16  2  0
 16 17  1  0
 17 18  2  0
 18 19  1  0
 19 20  1  0
 20 21  2  0
 21 22  1  0
 22 23  2  0
 23 24  1  0
 24 25  2  0
 18 26  1  0
 26 27  2  0
 10  5  1  0
 27 15  1  0
 25 20  1  0
  1 28  1  0
  1 29  1  0
  6 30  1  0
  7 31  1  0
  8 32  1  0
  9 33  1  0
 16 34  1  0
 17 35  1  0
 21 36  1  0
 22 37  1  0
 23 38  1  0
 24 39  1  0
 25 40  1  0
 26 41  1  0
 27 42  1  0
M  CHG  1  11  -1
M  END
>  <UniqueID>  (36) 
36

>  <SMILES>  (36) 
NS(=O)(=O)c1ccccc1[N-]S(=O)(=O)c1ccc(Oc2ccccc2)cc1

>  <Energy>  (36) 
53.81094702770103

>  <Genealogy>  (36) 
NS(=O)(=O)c1ccccc1[N-]S(=O)(=O)c1ccc(Oc2ccccc2)cc1 (protonated)
NS(=O)(=O)c1ccccc1[N-]S(=O)(=O)c1ccc(Oc2ccccc2)cc1 (3D coordinates assigned)
NS(=O)(=O)c1ccccc1[N-]S(=O)(=O)c1ccc(Oc2ccccc2)cc1 (optimized conformer: 53.81094702770103 kcal/mol)

>  <smiles>  (36) 
NS(=O)(=O)c1ccccc1NS(=O)(=O)c1ccc(Oc2ccccc2)cc1

>  <score_type>  (36) 
oracle

>  <origin>  (36) 
adgpu

>  <m_score__min__energy>  (36) 
-10.5

>  <m_primary>  (36) 
energy

$$$$
36:0
     RDKit          3D

 42 44  0  0  0  0  0  0  0  0999 V2000
   -2.2654   19.5073  -27.4518 H   0  0  0  0  0  0  0  0  0  0  0  0
   -2.3990   20.5130  -27.8770 C   0  0  0  0  0  0  0  0  0  0  0  0
   -2.8460   20.6610  -29.1900 C   0  0  0  0  0  0  0  0  0  0  0  0
   -3.0768   19.7717  -29.7949 H   0  0  0  0  0  0  0  0  0  0  0  0
   -3.0010   21.9360  -29.7380 C   0  0  0  0  0  0  0  0  0  0  0  0
   -3.3630   22.0458  -30.7709 H   0  0  0  0  0  0  0  0  0  0  0  0
   -2.6980   23.0800  -28.9800 C   0  0  0  0  0  0  0  0  0  0  0  0
   -2.8120   24.4100  -29.6160 C   0  0  0  0  0  0  0  0  0  0  0  0
   -1.9570   25.2950  -29.3470 O   0  0  0  0  0  0  0  0  0  0  0  0
   -3.8660   24.7190  -30.5370 N   0  0  0  0  0  0  0  0  0  0  0  0
   -4.9710   23.8590  -30.8430 C   0  0  0  0  0  0  0  0  0  0  0  0
   -6.1490   23.8800  -30.0760 C   0  0  0  0  0  0  0  0  0  0  0  0
   -6.2614   24.6134  -29.2639 H   0  0  0  0  0  0  0  0  0  0  0  0
   -7.1780   22.9720  -30.3420 C   0  0  0  0  0  0  0  0  0  0  0  0
   -8.1000   22.9952  -29.7425 H   0  0  0  0  0  0  0  0  0  0  0  0
   -7.0360   22.0320  -31.3720 C   0  0  0  0  0  0  0  0  0  0  0  0
   -8.2540   20.7900  -31.6190 S   0  0  0  0  0  0  0  0  0  0  0  0
   -9.5010   21.0670  -30.8270 O   0  0  0  0  0  0  0  0  0  0  0  0
   -8.6130   20.7800  -33.0780 O   0  0  0  0  0  0  0  0  0  0  0  0
   -7.6340   19.2240  -31.1960 N   0  0  0  0  0  0  0  0  0  0  0  0
   -6.8640   18.4140  -31.8690 C   0  0  0  0  0  0  0  0  0  0  0  0
   -6.5140   17.2470  -31.3800 O   0  0  0  0  0  0  0  0  0  0  0  0
   -5.7730   16.5950  -32.2240 N   0  0  0  0  0  0  0  0  0  0  0  0
   -5.3810   15.6420  -32.0600 H   0  0  0  0  0  0  0  0  0  0  0  0
   -5.6220   17.3520  -33.3230 C   0  0  0  0  0  0  0  0  0  0  0  0
   -4.8480   16.9290  -34.5330 C   0  0  0  0  0  0  0  0  0  0  0  0
   -3.9231   16.4235  -34.2184 H   0  0  0  0  0  0  0  0  0  0  0  0
   -5.4569   16.2382  -35.1348 H   0  0  0  0  0  0  0  0  0  0  0  0
   -4.5954   17.8145  -35.1348 H   0  0  0  0  0  0  0  0  0  0  0  0
   -6.2900   18.5560  -33.1430 C   0  0  0  0  0  0  0  0  0  0  0  0
   -6.3990   19.6420  -34.1720 C   0  0  0  0  0  0  0  0  0  0  0  0
   -6.4967   20.6153  -33.6689 H   0  0  0  0  0  0  0  0  0  0  0  0
   -5.4965   19.6432  -34.8008 H   0  0  0  0  0  0  0  0  0  0  0  0
   -7.2838   19.4638  -34.8008 H   0  0  0  0  0  0  0  0  0  0  0  0
   -5.8920   22.0560  -32.1800 C   0  0  0  0  0  0  0  0  0  0  0  0
   -5.7975   21.3499  -33.0182 H   0  0  0  0  0  0  0  0  0  0  0  0
   -4.8700   22.9750  -31.9240 C   0  0  0  0  0  0  0  0  0  0  0  0
   -3.9833   23.0036  -32.5743 H   0  0  0  0  0  0  0  0  0  0  0  0
   -2.2760   22.9250  -27.6390 C   0  0  0  0  0  0  0  0  0  0  0  0
   -1.9890   24.4210  -26.4710 Br  0  0  0  0  0  0  0  0  0  0  0  0
   -2.1210   21.6410  -27.1020 C   0  0  0  0  0  0  0  0  0  0  0  0
   -1.7783   21.5202  -26.0637 H   0  0  0  0  0  0  0  0  0  0  0  0
  1  2  1  0
  2  3  2  0
  3  4  1  0
  3  5  1  0
  5  6  1  0
  5  7  2  0
  7  8  1  0
  8  9  2  0
  8 10  1  0
 10 11  1  0
 11 12  2  0
 12 13  1  0
 12 14  1  0
 14 15  1  0
 14 16  2  0
 16 17  1  0
 17 18  2  0
 17 19  2  0
 17 20  1  0
 20 21  2  0
 21 22  1  0
 22 23  1  0
 23 24  1  0
 23 25  1  0
 25 26  1  0
 26 27  1  0
 26 28  1  0
 26 29  1  0
 25 30  2  0
 30 31  1  0
 31 32  1  0
 31 33  1  0
 31 34  1  0
 16 35  1  0
 35 36  1  0
 35 37  2  0
 37 38  1  0
  7 39  1  0
 39 40  1  0
 39 41  2  0
 41 42  1  0
 41  2  1  0
 37 11  1  0
 30 21  1  0
M  CHG  1  10  -1
M  END
>  <UniqueID>  (37) 
37

>  <SMILES>  (37) 
Cc1[nH]o/c(=N/S(=O)(=O)c2ccc([N-]C(=O)c3ccccc3Br)cc2)c1C

>  <Energy>  (37) 
92.67512598279252

>  <Genealogy>  (37) 
Cc1[nH]oc(=NS(=O)(=O)c2ccc([N-]C(=O)c3ccccc3Br)cc2)c1C (protonated)
Cc1[nH]o/c(=N/S(=O)(=O)c2ccc([N-]C(=O)c3ccccc3Br)cc2)c1C (cis-trans isomerization)
Cc1[nH]o/c(=N/S(=O)(=O)c2ccc([N-]C(=O)c3ccccc3Br)cc2)c1C (3D coordinates assigned)
Cc1[nH]o/c(=N/S(=O)(=O)c2ccc([N-]C(=O)c3ccccc3Br)cc2)c1C (optimized conformer: 92.67512598279252 kcal/mol)

>  <smiles>  (37) 
Cc1[nH]oc(=NS(=O)(=O)c2ccc(NC(=O)c3ccccc3Br)cc2)c1C

>  <score_type>  (37) 
oracle

>  <origin>  (37) 
adgpu

>  <m_score__min__energy>  (37) 
-11

>  <m_primary>  (37) 
energy

$$$$
37:0
     RDKit          3D

 54 58  0  0  0  0  0  0  0  0999 V2000
   -8.4040   23.6660  -31.6920 C   0  0  0  0  0  0  0  0  0  0  0  0
   -6.9550   23.5040  -31.3390 C   0  0  0  0  0  0  0  0  0  0  0  0
   -6.3640   22.2350  -31.3600 C   0  0  0  0  0  0  0  0  0  0  0  0
   -5.0080   22.0830  -31.0650 C   0  0  0  0  0  0  0  0  0  0  0  0
   -4.2150   23.1970  -30.7440 C   0  0  0  0  0  0  0  0  0  0  0  0
   -2.7830   22.9920  -30.4260 C   0  0  0  0  0  0  0  0  0  0  0  0
   -2.1900   23.3540  -29.2140 C   0  0  0  0  0  0  0  0  0  0  0  0
   -0.5710   22.8980  -29.2640 S   0  0  0  0  0  0  0  0  0  0  0  0
   -0.6950   22.2620  -30.8100 C   0  0  0  0  0  0  0  0  0  0  0  0
    0.3020   21.7250  -31.4470 N   0  0  0  0  0  0  0  0  0  0  0  0
    0.2650   21.1780  -32.7770 C   0  0  0  0  0  0  0  0  0  0  0  0
    1.1830   21.4380  -33.6030 O   0  0  0  0  0  0  0  0  0  0  0  0
   -0.8510   20.2880  -33.1770 C   0  0  0  0  0  0  0  0  0  0  0  0
   -2.1130   20.8260  -33.4960 C   0  0  0  0  0  0  0  0  0  0  0  0
   -3.1610   19.9880  -33.8900 C   0  0  0  0  0  0  0  0  0  0  0  0
   -2.9680   18.6030  -33.9650 C   0  0  0  0  0  0  0  0  0  0  0  0
   -4.2800   17.5350  -34.4470 S   0  0  0  0  0  0  0  0  0  0  0  0
   -4.9760   18.0630  -35.6710 O   0  0  0  0  0  0  0  0  0  0  0  0
   -3.7170   16.1800  -34.7690 O   0  0  0  0  0  0  0  0  0  0  0  0
   -5.4190   17.4030  -33.1490 N   0  0  0  0  0  0  0  0  0  0  0  0
   -5.3110   16.4420  -32.0540 C   0  0  0  0  0  0  0  0  0  0  0  0
   -6.4470   16.8010  -31.0630 C   0  0  0  0  0  0  0  0  0  0  0  0
   -7.0910   17.9890  -31.6930 C   0  0  0  0  0  0  0  0  0  0  0  0
   -8.1710   18.7370  -31.2180 C   0  0  0  0  0  0  0  0  0  0  0  0
   -8.6150   19.8280  -31.9810 C   0  0  0  0  0  0  0  0  0  0  0  0
   -7.9780   20.1530  -33.1950 C   0  0  0  0  0  0  0  0  0  0  0  0
   -6.8950   19.3830  -33.6530 C   0  0  0  0  0  0  0  0  0  0  0  0
   -6.4760   18.3010  -32.8740 C   0  0  0  0  0  0  0  0  0  0  0  0
   -1.7200   18.0610  -33.6360 C   0  0  0  0  0  0  0  0  0  0  0  0
   -0.6670   18.8960  -33.2490 C   0  0  0  0  0  0  0  0  0  0  0  0
   -1.9460   22.3760  -31.3070 N   0  0  0  0  0  0  0  0  0  0  0  0
   -4.7980   24.4830  -30.7640 C   0  0  0  0  0  0  0  0  0  0  0  0
   -4.0250   25.6180  -30.5220 O   0  0  0  0  0  0  0  0  0  0  0  0
   -6.1630   24.6260  -31.0580 C   0  0  0  0  0  0  0  0  0  0  0  0
   -9.0007   23.7327  -30.7703 H   0  0  0  0  0  0  0  0  0  0  0  0
   -8.5371   24.5846  -32.2823 H   0  0  0  0  0  0  0  0  0  0  0  0
   -8.7367   22.7995  -32.2823 H   0  0  0  0  0  0  0  0  0  0  0  0
   -6.9715   21.3528  -31.6103 H   0  0  0  0  0  0  0  0  0  0  0  0
   -4.5559   21.0804  -31.0841 H   0  0  0  0  0  0  0  0  0  0  0  0
   -2.6943   23.8513  -28.3723 H   0  0  0  0  0  0  0  0  0  0  0  0
   -2.2753   21.9122  -33.4348 H   0  0  0  0  0  0  0  0  0  0  0  0
   -4.1413   20.4187  -34.1421 H   0  0  0  0  0  0  0  0  0  0  0  0
   -5.4409   15.4165  -32.4302 H   0  0  0  0  0  0  0  0  0  0  0  0
   -4.3236   16.4876  -31.5714 H   0  0  0  0  0  0  0  0  0  0  0  0
   -7.1619   15.9707  -30.9659 H   0  0  0  0  0  0  0  0  0  0  0  0
   -6.0821   16.9994  -30.0444 H   0  0  0  0  0  0  0  0  0  0  0  0
   -8.6618   18.4770  -30.2685 H   0  0  0  0  0  0  0  0  0  0  0  0
   -9.4643   20.4323  -31.6296 H   0  0  0  0  0  0  0  0  0  0  0  0
   -8.3292   21.0117  -33.7860 H   0  0  0  0  0  0  0  0  0  0  0  0
   -6.3904   19.6257  -34.5998 H   0  0  0  0  0  0  0  0  0  0  0  0
   -1.5668   16.9727  -33.6821 H   0  0  0  0  0  0  0  0  0  0  0  0
    0.3119   18.4607  -32.9992 H   0  0  0  0  0  0  0  0  0  0  0  0
   -3.0570   25.6750  -30.8180 H   0  0  0  0  0  0  0  0  0  0  0  0
   -6.6158   25.6284  -31.0680 H   0  0  0  0  0  0  0  0  0  0  0  0
  1  2  1  0
  2  3  2  0
  3  4  1  0
  4  5  2  0
  5  6  1  0
  6  7  2  0
  7  8  1  0
  8  9  1  0
  9 10  2  3
 10 11  1  0
 11 12  2  0
 11 13  1  0
 13 14  2  0
 14 15  1  0
 15 16  2  0
 16 17  1  0
 17 18  2  0
 17 19  2  0
 17 20  1  0
 20 21  1  0
 21 22  1  0
 22 23  1  0
 23 24  2  0
 24 25  1  0
 25 26  2  0
 26 27  1  0
 27 28  2  0
 16 29  1  0
 29 30  2  0
  9 31  1  0
  5 32  1  0
 32 33  1  0
 32 34  2  0
 34  2  1  0
 31  6  1  0
 30 13  1  0
 28 20  1  0
 28 23  1  0
  1 35  1  0
  1 36  1  0
  1 37  1  0
  3 38  1  0
  4 39  1  0
  7 40  1  0
 14 41  1  0
 15 42  1  0
 21 43  1  0
 21 44  1  0
 22 45  1  0
 22 46  1  0
 24 47  1  0
 25 48  1  0
 26 49  1  0
 27 50  1  0
 29 51  1  0
 30 52  1  0
 33 53  1  0
 34 54  1  0
M  CHG  1  31  -1
M  END
>  <UniqueID>  (38) 
38

>  <SMILES>  (38) 
Cc1ccc(-c2csc(=NC(=O)c3ccc(S(=O)(=O)N4CCc5ccccc54)cc3)[n-]2)c(O)c1

>  <Energy>  (38) 
111.97254918729305

>  <Genealogy>  (38) 
Cc1ccc(-c2csc(=NC(=O)c3ccc(S(=O)(=O)N4CCc5ccccc54)cc3)[n-]2)c(O)c1 (protonated)
Cc1ccc(-c2csc(=NC(=O)c3ccc(S(=O)(=O)N4CCc5ccccc54)cc3)[n-]2)c(O)c1 (3D coordinates assigned)
Cc1ccc(-c2csc(=NC(=O)c3ccc(S(=O)(=O)N4CCc5ccccc54)cc3)[n-]2)c(O)c1 (nonaromatic ring conformer: 111.97254918729305 kcal/mol)

>  <smiles>  (38) 
Cc1ccc(-c2csc(=NC(=O)c3ccc(S(=O)(=O)N4CCc5ccccc54)cc3)[nH]2)c(O)c1

>  <score_type>  (38) 
oracle

>  <origin>  (38) 
adgpu

>  <m_score__min__energy>  (38) 
-10.65

>  <m_primary>  (38) 
energy

$$$$
38:0
     RDKit          3D

 37 39  0  0  0  0  0  0  0  0999 V2000
   -1.7520   25.8990  -25.6570 C   0  0  0  0  0  0  0  0  0  0  0  0
   -1.7930   25.1150  -26.9250 C   0  0  0  0  0  0  0  0  0  0  0  0
   -0.8000   25.0830  -27.8970 C   0  0  0  0  0  0  0  0  0  0  0  0
   -1.0380   24.2240  -28.9240 N   0  0  0  0  0  0  0  0  0  0  0  0
   -2.2070   23.5590  -28.7770 C   0  0  0  0  0  0  0  0  0  0  0  0
   -2.6850   22.5320  -29.7740 C   0  0  2  0  0  0  0  0  0  0  0  0
   -1.6610   22.2370  -30.8790 C   0  0  0  0  0  0  0  0  0  0  0  0
   -4.0260   22.9290  -30.3660 C   0  0  0  0  0  0  0  0  0  0  0  0
   -4.9720   21.9280  -30.6590 C   0  0  0  0  0  0  0  0  0  0  0  0
   -6.2210   22.2500  -31.2200 C   0  0  0  0  0  0  0  0  0  0  0  0
   -7.2110   21.1840  -31.5180 C   0  0  0  0  0  0  0  0  0  0  0  0
   -8.5670   21.5040  -31.7290 C   0  0  0  0  0  0  0  0  0  0  0  0
   -9.4970   20.4990  -32.0090 C   0  0  0  0  0  0  0  0  0  0  0  0
   -9.0880   19.1650  -32.0820 C   0  0  0  0  0  0  0  0  0  0  0  0
   -9.9950   18.1940  -32.3540 F   0  0  0  0  0  0  0  0  0  0  0  0
   -7.7460   18.8340  -31.8740 C   0  0  0  0  0  0  0  0  0  0  0  0
   -7.3480   17.5390  -31.9400 F   0  0  0  0  0  0  0  0  0  0  0  0
   -6.8120   19.8360  -31.5950 C   0  0  0  0  0  0  0  0  0  0  0  0
   -6.5170   23.5950  -31.4950 C   0  0  0  0  0  0  0  0  0  0  0  0
   -5.5860   24.5950  -31.2150 C   0  0  0  0  0  0  0  0  0  0  0  0
   -4.3470   24.2740  -30.6570 C   0  0  0  0  0  0  0  0  0  0  0  0
   -3.4440   25.2980  -30.3960 O   0  0  0  0  0  0  0  0  0  0  0  0
   -2.9870   24.0120  -27.3480 S   0  0  0  0  0  0  0  0  0  0  0  0
   -1.7880   25.2112  -24.7993 H   0  0  0  0  0  0  0  0  0  0  0  0
   -0.8220   26.4851  -25.6182 H   0  0  0  0  0  0  0  0  0  0  0  0
   -2.6158   26.5789  -25.6182 H   0  0  0  0  0  0  0  0  0  0  0  0
    0.1066   25.7034  -27.8400 H   0  0  0  0  0  0  0  0  0  0  0  0
   -2.8110   21.5944  -29.2127 H   0  0  0  0  0  0  0  0  0  0  0  0
   -0.6991   21.9599  -30.4230 H   0  0  0  0  0  0  0  0  0  0  0  0
   -2.0237   21.4068  -31.5029 H   0  0  0  0  0  0  0  0  0  0  0  0
   -1.5265   23.1329  -31.5029 H   0  0  0  0  0  0  0  0  0  0  0  0
   -4.7301   20.8764  -30.4455 H   0  0  0  0  0  0  0  0  0  0  0  0
   -8.8959   22.5522  -31.6729 H   0  0  0  0  0  0  0  0  0  0  0  0
  -10.5533   20.7588  -32.1723 H   0  0  0  0  0  0  0  0  0  0  0  0
   -5.7570   19.5692  -31.4344 H   0  0  0  0  0  0  0  0  0  0  0  0
   -7.4897   23.8616  -31.9342 H   0  0  0  0  0  0  0  0  0  0  0  0
   -5.8297   25.6448  -31.4355 H   0  0  0  0  0  0  0  0  0  0  0  0
  1  2  1  0
  2  3  2  0
  3  4  1  0
  4  5  2  0
  5  6  1  0
  6  7  1  0
  6  8  1  0
  8  9  2  0
  9 10  1  0
 10 11  1  0
 11 12  2  0
 12 13  1  0
 13 14  2  0
 14 15  1  0
 14 16  1  0
 16 17  1  0
 16 18  2  0
 10 19  2  0
 19 20  1  0
 20 21  2  0
 21 22  1  0
  5 23  1  0
 23  2  1  0
 21  8  1  0
 18 11  1  0
  1 24  1  0
  1 25  1  0
  1 26  1  0
  3 27  1  0
  6 28  1  1
  7 29  1  0
  7 30  1  0
  7 31  1  0
  9 32  1  0
 12 33  1  0
 13 34  1  0
 18 35  1  0
 19 36  1  0
 20 37  1  0
M  CHG  1  22  -1
M  END
>  <UniqueID>  (39) 
39

>  <SMILES>  (39) 
Cc1cnc([C@H](C)c2cc(-c3ccc(F)c(F)c3)ccc2[O-])s1

>  <Energy>  (39) 
73.67674604177866

>  <Genealogy>  (39) 
Cc1cnc(C(C)c2cc(-c3ccc(F)c(F)c3)ccc2[O-])s1 (protonated)
Cc1cnc([C@H](C)c2cc(-c3ccc(F)c(F)c3)ccc2[O-])s1 (chirality)
Cc1cnc([C@H](C)c2cc(-c3ccc(F)c(F)c3)ccc2[O-])s1 (3D coordinates assigned)
Cc1cnc([C@H](C)c2cc(-c3ccc(F)c(F)c3)ccc2[O-])s1 (optimized conformer: 73.67674604177866 kcal/mol)

>  <smiles>  (39) 
Cc1cnc(C(C)c2cc(-c3ccc(F)c(F)c3)ccc2O)s1

>  <score_type>  (39) 
oracle

>  <origin>  (39) 
adgpu

>  <m_score__min__energy>  (39) 
-11.41

>  <m_primary>  (39) 
energy

$$$$
39:0
     RDKit          3D

 48 50  0  0  0  0  0  0  0  0999 V2000
   -1.9730   23.6290  -27.1600 C   0  0  0  0  0  0  0  0  0  0  0  0
   -2.7760   22.8320  -28.1030 N   0  0  0  0  0  0  0  0  0  0  0  0
   -4.2170   23.0500  -27.8820 C   0  0  0  0  0  0  0  0  0  0  0  0
   -2.4120   21.3930  -28.0950 C   0  0  0  0  0  0  0  0  0  0  0  0
   -1.6680   20.9110  -29.3580 C   0  0  0  0  0  0  0  0  0  0  0  0
   -1.2870   22.0740  -30.1810 N   0  0  0  0  0  0  0  0  0  0  0  0
   -1.6580   21.9110  -31.5960 C   0  0  0  0  0  0  0  0  0  0  0  0
   -3.1580   21.8460  -31.7580 C   0  0  0  0  0  0  0  0  0  0  0  0
   -3.7540   20.6890  -32.2740 C   0  0  0  0  0  0  0  0  0  0  0  0
   -5.1110   20.5840  -32.3990 N   0  0  0  0  0  0  0  0  0  0  0  0
   -5.6300   19.3370  -32.9000 C   0  0  0  0  0  0  0  0  0  0  0  0
   -5.3570   18.9360  -34.2180 C   0  0  0  0  0  0  0  0  0  0  0  0
   -5.8400   17.7130  -34.6950 C   0  0  0  0  0  0  0  0  0  0  0  0
   -6.5920   16.8830  -33.8600 C   0  0  0  0  0  0  0  0  0  0  0  0
   -6.8600   17.2710  -32.5440 C   0  0  0  0  0  0  0  0  0  0  0  0
   -6.3800   18.4930  -32.0630 C   0  0  0  0  0  0  0  0  0  0  0  0
   -5.9340   21.6290  -32.0380 C   0  0  0  0  0  0  0  0  0  0  0  0
   -7.3370   21.5670  -32.2160 C   0  0  0  0  0  0  0  0  0  0  0  0
   -8.1530   22.6310  -31.8320 C   0  0  0  0  0  0  0  0  0  0  0  0
   -7.5940   23.7790  -31.2740 C   0  0  0  0  0  0  0  0  0  0  0  0
   -6.2130   23.8750  -31.1060 C   0  0  0  0  0  0  0  0  0  0  0  0
   -5.3710   22.8130  -31.4910 C   0  0  0  0  0  0  0  0  0  0  0  0
   -3.9750   22.9090  -31.3490 C   0  0  0  0  0  0  0  0  0  0  0  0
   -3.4530   23.9470  -30.8560 O   0  0  0  0  0  0  0  0  0  0  0  0
   -2.2444   23.3597  -26.1286 H   0  0  0  0  0  0  0  0  0  0  0  0
   -0.9048   23.4238  -27.3236 H   0  0  0  0  0  0  0  0  0  0  0  0
   -2.1701   24.6988  -27.3236 H   0  0  0  0  0  0  0  0  0  0  0  0
   -2.5600   23.1880  -29.0650 H   0  0  0  0  0  0  0  0  0  0  0  0
   -4.4217   23.0810  -26.8017 H   0  0  0  0  0  0  0  0  0  0  0  0
   -4.5180   24.0039  -28.3397 H   0  0  0  0  0  0  0  0  0  0  0  0
   -4.7867   22.2278  -28.3397 H   0  0  0  0  0  0  0  0  0  0  0  0
   -1.7657   21.2075  -27.2244 H   0  0  0  0  0  0  0  0  0  0  0  0
   -3.3578   20.8326  -28.0577 H   0  0  0  0  0  0  0  0  0  0  0  0
   -0.7633   20.3596  -29.0621 H   0  0  0  0  0  0  0  0  0  0  0  0
   -2.3270   20.2508  -29.9409 H   0  0  0  0  0  0  0  0  0  0  0  0
   -0.2440   22.1720  -30.1460 H   0  0  0  0  0  0  0  0  0  0  0  0
   -1.2709   22.7657  -32.1702 H   0  0  0  0  0  0  0  0  0  0  0  0
   -1.2244   20.9702  -31.9659 H   0  0  0  0  0  0  0  0  0  0  0  0
   -3.1174   19.8476  -32.5850 H   0  0  0  0  0  0  0  0  0  0  0  0
   -4.7618   19.5854  -34.8769 H   0  0  0  0  0  0  0  0  0  0  0  0
   -5.6274   17.4043  -35.7292 H   0  0  0  0  0  0  0  0  0  0  0  0
   -6.9736   15.9232  -34.2384 H   0  0  0  0  0  0  0  0  0  0  0  0
   -7.4489   16.6146  -31.8865 H   0  0  0  0  0  0  0  0  0  0  0  0
   -6.5900   18.7948  -31.0263 H   0  0  0  0  0  0  0  0  0  0  0  0
   -7.7890   20.6690  -32.6625 H   0  0  0  0  0  0  0  0  0  0  0  0
   -9.2422   22.5636  -31.9702 H   0  0  0  0  0  0  0  0  0  0  0  0
   -8.2435   24.6114  -30.9653 H   0  0  0  0  0  0  0  0  0  0  0  0
   -5.7780   24.7863  -30.6698 H   0  0  0  0  0  0  0  0  0  0  0  0
  1  2  1  0
  2  3  1  0
  2  4  1  0
  4  5  1  0
  5  6  1  0
  6  7  1  0
  7  8  1  0
  8  9  2  0
  9 10  1  0
 10 11  1  0
 11 12  2  0
 12 13  1  0
 13 14  2  0
 14 15  1  0
 15 16  2  0
 10 17  1  0
 17 18  2  0
 18 19  1  0
 19 20  2  0
 20 21  1  0
 21 22  2  0
 22 23  1  0
 23 24  2  0
 23  8  1  0
 16 11  1  0
 22 17  1  0
  1 25  1  0
  1 26  1  0
  1 27  1  0
  2 28  1  0
  3 29  1  0
  3 30  1  0
  3 31  1  0
  4 32  1  0
  4 33  1  0
  5 34  1  0
  5 35  1  0
  6 36  1  0
  7 37  1  0
  7 38  1  0
  9 39  1  0
 12 40  1  0
 13 41  1  0
 14 42  1  0
 15 43  1  0
 16 44  1  0
 18 45  1  0
 19 46  1  0
 20 47  1  0
 21 48  1  0
M  CHG  1   2   1
M  END
>  <UniqueID>  (40) 
40

>  <SMILES>  (40) 
C[NH+](C)CCNCc1cn(-c2ccccc2)c2ccccc2c1=O

>  <Energy>  (40) 
65.58419274708149

>  <Genealogy>  (40) 
C[NH+](C)CCNCc1cn(-c2ccccc2)c2ccccc2c1=O (protonated)
C[NH+](C)CCNCc1cn(-c2ccccc2)c2ccccc2c1=O (3D coordinates assigned)
C[NH+](C)CCNCc1cn(-c2ccccc2)c2ccccc2c1=O (optimized conformer: 65.58419274708149 kcal/mol)

>  <smiles>  (40) 
CN(C)CCNCc1cn(-c2ccccc2)c2ccccc2c1=O

>  <score_type>  (40) 
oracle

>  <origin>  (40) 
adgpu

>  <m_score__min__energy>  (40) 
-6.9400000000000004

>  <m_primary>  (40) 
energy

$$$$
40:0
     RDKit          3D

 46 48  0  0  0  0  0  0  0  0999 V2000
   -1.1899   20.7127  -25.0789 H   0  0  0  0  0  0  0  0  0  0  0  0
   -1.2780   21.0040  -26.1360 C   0  0  0  0  0  0  0  0  0  0  0  0
   -0.5640   22.1060  -26.6190 C   0  0  0  0  0  0  0  0  0  0  0  0
    0.0871   22.6789  -25.9423 H   0  0  0  0  0  0  0  0  0  0  0  0
   -0.6780   22.4800  -27.9640 C   0  0  0  0  0  0  0  0  0  0  0  0
    0.2300   23.9000  -28.5860 S   0  0  0  0  0  0  0  0  0  0  0  0
   -0.8130   25.1430  -27.7440 C   0  0  0  0  0  0  0  0  0  0  0  0
   -0.5255   26.1468  -28.0901 H   0  0  0  0  0  0  0  0  0  0  0  0
   -0.6602   25.0492  -26.6587 H   0  0  0  0  0  0  0  0  0  0  0  0
   -2.2620   24.9210  -28.0400 C   0  0  0  0  0  0  0  0  0  0  0  0
   -3.0590   24.6700  -27.0980 O   0  0  0  0  0  0  0  0  0  0  0  0
   -2.7370   25.0510  -29.3870 N   0  0  0  0  0  0  0  0  0  0  0  0
   -3.8710   24.3800  -29.9540 C   0  0  0  0  0  0  0  0  0  0  0  0
   -5.1480   24.9070  -29.7230 C   0  0  0  0  0  0  0  0  0  0  0  0
   -5.2634   25.8036  -29.0963 H   0  0  0  0  0  0  0  0  0  0  0  0
   -6.2770   24.3020  -30.2830 C   0  0  0  0  0  0  0  0  0  0  0  0
   -7.2763   24.7180  -30.0873 H   0  0  0  0  0  0  0  0  0  0  0  0
   -6.1390   23.1670  -31.0930 C   0  0  0  0  0  0  0  0  0  0  0  0
   -7.5500   22.4170  -31.8320 S   0  0  0  0  0  0  0  0  0  0  0  0
   -8.4070   21.8130  -30.7550 O   0  0  0  0  0  0  0  0  0  0  0  0
   -8.3650   23.4370  -32.5770 O   0  0  0  0  0  0  0  0  0  0  0  0
   -7.0430   21.1710  -32.9230 N   0  0  0  0  0  0  0  0  0  0  0  0
   -6.8900   19.9400  -32.5470 C   0  0  0  0  0  0  0  0  0  0  0  0
   -7.0880   19.4980  -31.3260 O   0  0  0  0  0  0  0  0  0  0  0  0
   -6.8350   18.2230  -31.2690 N   0  0  0  0  0  0  0  0  0  0  0  0
   -6.9180   17.6360  -30.4090 H   0  0  0  0  0  0  0  0  0  0  0  0
   -6.4490   17.8140  -32.4950 C   0  0  0  0  0  0  0  0  0  0  0  0
   -6.0780   16.4090  -32.8410 C   0  0  0  0  0  0  0  0  0  0  0  0
   -5.9256   15.8319  -31.9170 H   0  0  0  0  0  0  0  0  0  0  0  0
   -6.8860   15.9510  -33.4304 H   0  0  0  0  0  0  0  0  0  0  0  0
   -5.1492   16.4096  -33.4304 H   0  0  0  0  0  0  0  0  0  0  0  0
   -6.4930   18.8950  -33.3580 C   0  0  0  0  0  0  0  0  0  0  0  0
   -6.0890   18.9450  -34.7980 C   0  0  0  0  0  0  0  0  0  0  0  0
   -4.9996   19.0798  -34.8687 H   0  0  0  0  0  0  0  0  0  0  0  0
   -6.3749   18.0046  -35.2919 H   0  0  0  0  0  0  0  0  0  0  0  0
   -6.5955   19.7873  -35.2919 H   0  0  0  0  0  0  0  0  0  0  0  0
   -4.8620   22.6530  -31.3510 C   0  0  0  0  0  0  0  0  0  0  0  0
   -4.7467   21.7716  -31.9990 H   0  0  0  0  0  0  0  0  0  0  0  0
   -3.7330   23.2560  -30.7880 C   0  0  0  0  0  0  0  0  0  0  0  0
   -2.7327   22.8495  -30.9983 H   0  0  0  0  0  0  0  0  0  0  0  0
   -1.4950   21.7380  -28.8270 C   0  0  0  0  0  0  0  0  0  0  0  0
   -1.5738   22.0208  -29.8871 H   0  0  0  0  0  0  0  0  0  0  0  0
   -2.2100   20.6390  -28.3430 C   0  0  0  0  0  0  0  0  0  0  0  0
   -2.8564   20.0620  -29.0207 H   0  0  0  0  0  0  0  0  0  0  0  0
   -2.1040   20.2720  -26.9960 C   0  0  0  0  0  0  0  0  0  0  0  0
   -3.0030   18.8940  -26.3890 Cl  0  0  0  0  0  0  0  0  0  0  0  0
  1  2  1  0
  2  3  2  0
  3  4  1  0
  3  5  1  0
  5  6  1  0
  6  7  1  0
  7  8  1  0
  7  9  1  0
  7 10  1  0
 10 11  2  0
 10 12  1  0
 12 13  1  0
 13 14  2  0
 14 15  1  0
 14 16  1  0
 16 17  1  0
 16 18  2  0
 18 19  1  0
 19 20  2  0
 19 21  2  0
 19 22  1  0
 22 23  2  0
 23 24  1  0
 24 25  1  0
 25 26  1  0
 25 27  1  0
 27 28  1  0
 28 29  1  0
 28 30  1  0
 28 31  1  0
 27 32  2  0
 32 33  1  0
 33 34  1  0
 33 35  1  0
 33 36  1  0
 18 37  1  0
 37 38  1  0
 37 39  2  0
 39 40  1  0
  5 41  2  0
 41 42  1  0
 41 43  1  0
 43 44  1  0
 43 45  2  0
 45 46  1  0
 45  2  1  0
 39 13  1  0
 32 23  1  0
M  CHG  1  12  -1
M  END
>  <UniqueID>  (41) 
41

>  <SMILES>  (41) 
Cc1[nH]o/c(=N\S(=O)(=O)c2ccc([N-]C(=O)CSc3ccc(Cl)cc3)cc2)c1C

>  <Energy>  (41) 
78.15440427778591

>  <Genealogy>  (41) 
Cc1[nH]oc(=NS(=O)(=O)c2ccc([N-]C(=O)CSc3ccc(Cl)cc3)cc2)c1C (protonated)
Cc1[nH]o/c(=N\S(=O)(=O)c2ccc([N-]C(=O)CSc3ccc(Cl)cc3)cc2)c1C (cis-trans isomerization)
Cc1[nH]o/c(=N\S(=O)(=O)c2ccc([N-]C(=O)CSc3ccc(Cl)cc3)cc2)c1C (3D coordinates assigned)
Cc1[nH]o/c(=N\S(=O)(=O)c2ccc([N-]C(=O)CSc3ccc(Cl)cc3)cc2)c1C (optimized conformer: 78.15440427778591 kcal/mol)

>  <smiles>  (41) 
Cc1[nH]oc(=NS(=O)(=O)c2ccc(NC(=O)CSc3ccc(Cl)cc3)cc2)c1C

>  <score_type>  (41) 
oracle

>  <origin>  (41) 
adgpu

>  <m_score__min__energy>  (41) 
-11.279999999999999

>  <m_primary>  (41) 
energy

$$$$
41:0
     RDKit          3D

 46 49  0  0  0  0  0  0  0  0999 V2000
   -3.3840   22.4090  -28.6500 C   0  0  0  0  0  0  0  0  0  0  0  0
   -3.3320   23.7100  -28.3710 C   0  0  0  0  0  0  0  0  0  0  0  0
   -2.9880   24.7350  -29.3760 C   0  0  0  0  0  0  0  0  0  0  0  0
   -1.8680   25.3040  -29.2980 O   0  0  0  0  0  0  0  0  0  0  0  0
   -3.8610   25.0790  -30.4620 N   0  0  0  0  0  0  0  0  0  0  0  0
   -5.0140   24.3360  -30.8910 C   0  0  0  0  0  0  0  0  0  0  0  0
   -4.8870   23.2620  -31.7890 C   0  0  0  0  0  0  0  0  0  0  0  0
   -6.0060   22.5090  -32.1690 C   0  0  0  0  0  0  0  0  0  0  0  0
   -5.8340   21.3810  -33.0460 N   0  0  0  0  0  0  0  0  0  0  0  0
   -6.5370   20.1350  -32.8960 C   0  0  0  0  0  0  0  0  0  0  0  0
   -7.8940   20.1700  -32.5590 C   0  0  0  0  0  0  0  0  0  0  0  0
   -8.5870   18.9820  -32.3450 C   0  0  0  0  0  0  0  0  0  0  0  0
   -7.9510   17.7870  -32.4720 N   0  0  0  0  0  0  0  0  0  0  0  0
   -6.6410   17.7080  -32.8320 C   0  0  0  0  0  0  0  0  0  0  0  0
   -6.1060   16.5730  -32.9660 O   0  0  0  0  0  0  0  0  0  0  0  0
   -5.8970   18.8820  -33.0730 C   0  0  0  0  0  0  0  0  0  0  0  0
   -4.4910   18.7930  -33.5320 C   0  0  0  0  0  0  0  0  0  0  0  0
   -3.6810   19.8800  -33.6450 N   0  0  0  0  0  0  0  0  0  0  0  0
   -2.5140   19.3390  -34.0170 C   0  0  0  0  0  0  0  0  0  0  0  0
   -1.3070   19.9940  -34.2480 C   0  0  0  0  0  0  0  0  0  0  0  0
   -0.1970   19.2070  -34.6090 C   0  0  0  0  0  0  0  0  0  0  0  0
   -0.3230   17.8040  -34.7250 C   0  0  0  0  0  0  0  0  0  0  0  0
   -1.5600   17.1770  -34.4790 C   0  0  0  0  0  0  0  0  0  0  0  0
   -2.6350   17.9890  -34.1250 C   0  0  0  0  0  0  0  0  0  0  0  0
   -3.8850   17.6100  -33.8240 N   0  0  0  0  0  0  0  0  0  0  0  0
   -7.2700   22.8560  -31.6650 C   0  0  0  0  0  0  0  0  0  0  0  0
   -7.4030   23.9090  -30.7600 C   0  0  0  0  0  0  0  0  0  0  0  0
   -6.2800   24.6470  -30.3560 C   0  0  0  0  0  0  0  0  0  0  0  0
   -6.4340   25.7710  -29.3700 C   0  0  0  0  0  0  0  0  0  0  0  0
   -3.6461   21.6876  -27.8621 H   0  0  0  0  0  0  0  0  0  0  0  0
   -3.1649   22.0557  -29.6684 H   0  0  0  0  0  0  0  0  0  0  0  0
   -3.5557   24.0359  -27.3445 H   0  0  0  0  0  0  0  0  0  0  0  0
   -3.8976   23.0097  -32.1982 H   0  0  0  0  0  0  0  0  0  0  0  0
   -5.2150   21.4940  -33.8800 H   0  0  0  0  0  0  0  0  0  0  0  0
   -8.4129   21.1352  -32.4632 H   0  0  0  0  0  0  0  0  0  0  0  0
   -9.6523   19.0100  -32.0723 H   0  0  0  0  0  0  0  0  0  0  0  0
   -8.4930   16.9100  -32.3000 H   0  0  0  0  0  0  0  0  0  0  0  0
   -1.2239   21.0866  -34.1519 H   0  0  0  0  0  0  0  0  0  0  0  0
    0.7739   19.6867  -34.8019 H   0  0  0  0  0  0  0  0  0  0  0  0
    0.5501   17.1982  -35.0091 H   0  0  0  0  0  0  0  0  0  0  0  0
   -1.6730   16.0861  -34.5633 H   0  0  0  0  0  0  0  0  0  0  0  0
   -8.1599   22.2944  -31.9856 H   0  0  0  0  0  0  0  0  0  0  0  0
   -8.3957   24.1628  -30.3600 H   0  0  0  0  0  0  0  0  0  0  0  0
   -6.3792   25.3712  -28.3467 H   0  0  0  0  0  0  0  0  0  0  0  0
   -5.6279   26.5041  -29.5209 H   0  0  0  0  0  0  0  0  0  0  0  0
   -7.4076   26.2603  -29.5209 H   0  0  0  0  0  0  0  0  0  0  0  0
  1  2  2  0
  2  3  1  0
  3  4  2  0
  3  5  1  0
  5  6  1  0
  6  7  2  0
  7  8  1  0
  8  9  1  0
  9 10  1  0
 10 11  1  0
 11 12  2  0
 12 13  1  0
 13 14  1  0
 14 15  2  0
 14 16  1  0
 16 17  1  0
 17 18  2  0
 18 19  1  0
 19 20  2  0
 20 21  1  0
 21 22  2  0
 22 23  1  0
 23 24  2  0
 24 25  1  0
  8 26  2  0
 26 27  1  0
 27 28  2  0
 28 29  1  0
 28  6  1  0
 16 10  2  0
 25 17  1  0
 24 19  1  0
  1 30  1  0
  1 31  1  0
  2 32  1  0
  7 33  1  0
  9 34  1  0
 11 35  1  0
 12 36  1  0
 13 37  1  0
 20 38  1  0
 21 39  1  0
 22 40  1  0
 23 41  1  0
 26 42  1  0
 27 43  1  0
 29 44  1  0
 29 45  1  0
 29 46  1  0
M  CHG  2   5  -1  25  -1
M  END
>  <UniqueID>  (42) 
42

>  <SMILES>  (42) 
C=CC(=O)[N-]c1cc(Nc2cc[nH]c(=O)c2-c2nc3ccccc3[n-]2)ccc1C

>  <Energy>  (42) 
100.53489852651556

>  <Genealogy>  (42) 
C=CC(=O)[N-]c1cc(Nc2cc[nH]c(=O)c2-c2nc3ccccc3[n-]2)ccc1C (protonated)
C=CC(=O)[N-]c1cc(Nc2cc[nH]c(=O)c2-c2nc3ccccc3[n-]2)ccc1C (3D coordinates assigned)
C=CC(=O)[N-]c1cc(Nc2cc[nH]c(=O)c2-c2nc3ccccc3[n-]2)ccc1C (optimized conformer: 100.53489852651556 kcal/mol)

>  <smiles>  (42) 
C=CC(=O)Nc1cc(Nc2cc[nH]c(=O)c2-c2nc3ccccc3[nH]2)ccc1C

>  <score_type>  (42) 
oracle

>  <origin>  (42) 
adgpu

>  <m_score__min__energy>  (42) 
-11.210000000000001

>  <m_primary>  (42) 
energy

$$$$
42:0
     RDKit          3D

 37 39  0  0  0  0  0  0  0  0999 V2000
   -5.0090   17.9120  -32.7940 C   0  0  0  0  0  0  0  0  0  0  0  0
   -6.4140   18.2770  -32.4410 C   0  0  0  0  0  0  0  0  0  0  0  0
   -7.2790   17.4270  -31.8540 N   0  0  0  0  0  0  0  0  0  0  0  0
   -8.4230   18.0460  -31.7690 O   0  0  0  0  0  0  0  0  0  0  0  0
   -8.3500   19.2540  -32.2790 C   0  0  0  0  0  0  0  0  0  0  0  0
   -9.4970   20.2060  -32.3530 C   0  0  0  0  0  0  0  0  0  0  0  0
   -7.0610   19.4650  -32.7290 C   0  0  0  0  0  0  0  0  0  0  0  0
   -6.5280   20.6570  -33.4730 C   0  0  0  0  0  0  0  0  0  0  0  0
   -6.3990   21.8020  -32.5630 N   0  0  0  0  0  0  0  0  0  0  0  0
   -7.5170   22.4430  -32.2080 N   0  0  0  0  0  0  0  0  0  0  0  0
   -7.5010   23.5270  -31.3930 C   0  0  0  0  0  0  0  0  0  0  0  0
   -6.2890   24.0110  -30.9090 C   0  0  0  0  0  0  0  0  0  0  0  0
   -6.2930   25.3700  -29.7940 Cl  0  0  0  0  0  0  0  0  0  0  0  0
   -5.1030   23.3630  -31.2860 C   0  0  0  0  0  0  0  0  0  0  0  0
   -3.8500   23.8010  -30.8380 O   0  0  0  0  0  0  0  0  0  0  0  0
   -3.1740   23.2920  -29.7180 C   0  0  0  0  0  0  0  0  0  0  0  0
   -3.4180   21.9650  -29.3430 C   0  0  0  0  0  0  0  0  0  0  0  0
   -2.7710   21.4100  -28.2350 C   0  0  0  0  0  0  0  0  0  0  0  0
   -1.8660   22.1770  -27.4980 C   0  0  0  0  0  0  0  0  0  0  0  0
   -1.5990   23.4950  -27.8730 C   0  0  0  0  0  0  0  0  0  0  0  0
   -2.2420   24.0570  -28.9820 C   0  0  0  0  0  0  0  0  0  0  0  0
   -1.9270   25.3240  -29.3480 F   0  0  0  0  0  0  0  0  0  0  0  0
   -5.1800   22.2330  -32.1080 C   0  0  0  0  0  0  0  0  0  0  0  0
   -4.1190   21.6290  -32.4260 O   0  0  0  0  0  0  0  0  0  0  0  0
   -4.4270   17.7608  -31.8729 H   0  0  0  0  0  0  0  0  0  0  0  0
   -5.0086   16.9839  -33.3845 H   0  0  0  0  0  0  0  0  0  0  0  0
   -4.5569   18.7225  -33.3845 H   0  0  0  0  0  0  0  0  0  0  0  0
   -9.8184   20.4727  -31.3354 H   0  0  0  0  0  0  0  0  0  0  0  0
   -9.1854   21.1146  -32.8891 H   0  0  0  0  0  0  0  0  0  0  0  0
  -10.3326   19.7324  -32.8891 H   0  0  0  0  0  0  0  0  0  0  0  0
   -5.5411   20.4126  -33.8928 H   0  0  0  0  0  0  0  0  0  0  0  0
   -7.2248   20.9173  -34.2834 H   0  0  0  0  0  0  0  0  0  0  0  0
   -8.4431   24.0222  -31.1153 H   0  0  0  0  0  0  0  0  0  0  0  0
   -4.1243   21.3546  -29.9248 H   0  0  0  0  0  0  0  0  0  0  0  0
   -2.9747   20.3690  -27.9436 H   0  0  0  0  0  0  0  0  0  0  0  0
   -1.3632   21.7423  -26.6215 H   0  0  0  0  0  0  0  0  0  0  0  0
   -0.8804   24.0942  -27.2946 H   0  0  0  0  0  0  0  0  0  0  0  0
  1  2  1  0
  2  3  2  0
  3  4  1  0
  4  5  1  0
  5  6  1  0
  5  7  2  0
  7  8  1  0
  8  9  1  0
  9 10  1  0
 10 11  2  0
 11 12  1  0
 12 13  1  0
 12 14  2  0
 14 15  1  0
 15 16  1  0
 16 17  2  0
 17 18  1  0
 18 19  2  0
 19 20  1  0
 20 21  2  0
 21 22  1  0
 14 23  1  0
 23 24  2  0
  7  2  1  0
 23  9  1  0
 21 16  1  0
  1 25  1  0
  1 26  1  0
  1 27  1  0
  6 28  1  0
  6 29  1  0
  6 30  1  0
  8 31  1  0
  8 32  1  0
 11 33  1  0
 17 34  1  0
 18 35  1  0
 19 36  1  0
 20 37  1  0
M  END
>  <UniqueID>  (43) 
43

>  <SMILES>  (43) 
Cc1noc(C)c1Cn1ncc(Cl)c(Oc2ccccc2F)c1=O

>  <Energy>  (43) 
78.33064527061538

>  <Genealogy>  (43) 
Cc1noc(C)c1Cn1ncc(Cl)c(Oc2ccccc2F)c1=O (3D coordinates assigned)
Cc1noc(C)c1Cn1ncc(Cl)c(Oc2ccccc2F)c1=O (optimized conformer: 78.33064527061538 kcal/mol)

>  <smiles>  (43) 
Cc1noc(C)c1Cn1ncc(Cl)c(Oc2ccccc2F)c1=O

>  <score_type>  (43) 
oracle

>  <origin>  (43) 
adgpu

>  <m_score__min__energy>  (43) 
-8.5600000000000005

>  <m_primary>  (43) 
energy

$$$$
43:0
     RDKit          3D

 45 47  0  0  0  0  0  0  0  0999 V2000
   -9.0720   18.1520  -31.5880 C   0  0  0  0  0  0  0  0  0  0  0  0
   -9.2480   19.3570  -32.5090 C   0  0  0  0  0  0  0  0  0  0  0  0
   -8.2830   20.4080  -32.1730 N   0  0  0  0  0  0  0  0  0  0  0  0
   -6.8760   20.2050  -32.3980 C   0  0  0  0  0  0  0  0  0  0  0  0
   -5.9590   20.3640  -31.3450 C   0  0  0  0  0  0  0  0  0  0  0  0
   -4.5930   20.1540  -31.5590 C   0  0  0  0  0  0  0  0  0  0  0  0
   -4.1320   19.7810  -32.8250 C   0  0  0  0  0  0  0  0  0  0  0  0
   -5.0390   19.6150  -33.8760 C   0  0  0  0  0  0  0  0  0  0  0  0
   -6.4060   19.8220  -33.6650 C   0  0  0  0  0  0  0  0  0  0  0  0
   -8.8380   21.8730  -31.4170 S   0  0  0  0  0  0  0  0  0  0  0  0
   -9.8480   22.5510  -32.3010 O   0  0  0  0  0  0  0  0  0  0  0  0
   -9.5020   21.5520  -30.1070 O   0  0  0  0  0  0  0  0  0  0  0  0
   -7.4630   22.9380  -31.1470 C   0  0  0  0  0  0  0  0  0  0  0  0
   -6.7520   23.4670  -32.2330 C   0  0  0  0  0  0  0  0  0  0  0  0
   -5.5860   24.2040  -32.0150 C   0  0  0  0  0  0  0  0  0  0  0  0
   -5.1140   24.4110  -30.7070 C   0  0  0  0  0  0  0  0  0  0  0  0
   -3.8640   25.0690  -30.4610 N   0  0  0  0  0  0  0  0  0  0  0  0
   -2.7790   24.5290  -29.6910 C   0  0  0  0  0  0  0  0  0  0  0  0
   -2.1050   25.3130  -28.9720 O   0  0  0  0  0  0  0  0  0  0  0  0
   -2.4570   23.0800  -29.6860 C   0  0  0  0  0  0  0  0  0  0  0  0
   -1.8740   22.4620  -30.8070 C   0  0  0  0  0  0  0  0  0  0  0  0
   -1.5450   21.1060  -30.7570 C   0  0  0  0  0  0  0  0  0  0  0  0
   -0.7600   20.3390  -32.1240 Cl  0  0  0  0  0  0  0  0  0  0  0  0
   -1.8200   20.3790  -29.6420 N   0  0  0  0  0  0  0  0  0  0  0  0
   -2.4160   20.9380  -28.5560 C   0  0  0  0  0  0  0  0  0  0  0  0
   -2.7610   19.9490  -27.1510 Cl  0  0  0  0  0  0  0  0  0  0  0  0
   -2.7450   22.2970  -28.5580 C   0  0  0  0  0  0  0  0  0  0  0  0
   -5.8640   23.9430  -29.6230 C   0  0  0  0  0  0  0  0  0  0  0  0
   -7.0280   23.2000  -29.8410 C   0  0  0  0  0  0  0  0  0  0  0  0
   -9.1201   18.4816  -30.5397 H   0  0  0  0  0  0  0  0  0  0  0  0
   -9.8732   17.4233  -31.7804 H   0  0  0  0  0  0  0  0  0  0  0  0
   -8.0958   17.6829  -31.7804 H   0  0  0  0  0  0  0  0  0  0  0  0
   -9.0909   19.0416  -33.5511 H   0  0  0  0  0  0  0  0  0  0  0  0
  -10.2653   19.7555  -32.3814 H   0  0  0  0  0  0  0  0  0  0  0  0
   -6.3177   20.6553  -30.3468 H   0  0  0  0  0  0  0  0  0  0  0  0
   -3.8808   20.2824  -30.7306 H   0  0  0  0  0  0  0  0  0  0  0  0
   -3.0573   19.6184  -32.9940 H   0  0  0  0  0  0  0  0  0  0  0  0
   -4.6763   19.3207  -34.8719 H   0  0  0  0  0  0  0  0  0  0  0  0
   -7.1156   19.6844  -34.4942 H   0  0  0  0  0  0  0  0  0  0  0  0
   -7.1131   23.3013  -33.2588 H   0  0  0  0  0  0  0  0  0  0  0  0
   -5.0351   24.6239  -32.8695 H   0  0  0  0  0  0  0  0  0  0  0  0
   -1.6781   23.0446  -31.7193 H   0  0  0  0  0  0  0  0  0  0  0  0
   -3.2273   22.7501  -27.6793 H   0  0  0  0  0  0  0  0  0  0  0  0
   -5.5368   24.1603  -28.5955 H   0  0  0  0  0  0  0  0  0  0  0  0
   -7.6042   22.8199  -28.9846 H   0  0  0  0  0  0  0  0  0  0  0  0
  1  2  1  0
  2  3  1  0
  3  4  1  0
  4  5  2  0
  5  6  1  0
  6  7  2  0
  7  8  1  0
  8  9  2  0
  3 10  1  0
 10 11  2  0
 10 12  2  0
 10 13  1  0
 13 14  2  0
 14 15  1  0
 15 16  2  0
 16 17  1  0
 17 18  1  0
 18 19  2  0
 18 20  1  0
 20 21  2  0
 21 22  1  0
 22 23  1  0
 22 24  2  0
 24 25  1  0
 25 26  1  0
 25 27  2  0
 16 28  1  0
 28 29  2  0
  9  4  1  0
 29 13  1  0
 27 20  1  0
  1 30  1  0
  1 31  1  0
  1 32  1  0
  2 33  1  0
  2 34  1  0
  5 35  1  0
  6 36  1  0
  7 37  1  0
  8 38  1  0
  9 39  1  0
 14 40  1  0
 15 41  1  0
 21 42  1  0
 27 43  1  0
 28 44  1  0
 29 45  1  0
M  CHG  1  17  -1
M  END
>  <UniqueID>  (44) 
44

>  <SMILES>  (44) 
CCN(c1ccccc1)S(=O)(=O)c1ccc([N-]C(=O)c2cc(Cl)nc(Cl)c2)cc1

>  <Energy>  (44) 
55.346023782065274

>  <Genealogy>  (44) 
CCN(c1ccccc1)S(=O)(=O)c1ccc([N-]C(=O)c2cc(Cl)nc(Cl)c2)cc1 (protonated)
CCN(c1ccccc1)S(=O)(=O)c1ccc([N-]C(=O)c2cc(Cl)nc(Cl)c2)cc1 (3D coordinates assigned)
CCN(c1ccccc1)S(=O)(=O)c1ccc([N-]C(=O)c2cc(Cl)nc(Cl)c2)cc1 (optimized conformer: 55.346023782065274 kcal/mol)

>  <smiles>  (44) 
CCN(c1ccccc1)S(=O)(=O)c1ccc(NC(=O)c2cc(Cl)nc(Cl)c2)cc1

>  <score_type>  (44) 
oracle

>  <origin>  (44) 
adgpu

>  <m_score__min__energy>  (44) 
-11.199999999999999

>  <m_primary>  (44) 
energy

$$$$
44:0
     RDKit          3D

 37 39  0  0  0  0  0  0  0  0999 V2000
   -0.5740   22.7560  -26.2610 C   0  0  0  0  0  0  0  0  0  0  0  0
   -0.9180   24.2050  -26.1180 C   0  0  0  0  0  0  0  0  0  0  0  0
   -0.9480   24.9180  -24.9370 C   0  0  0  0  0  0  0  0  0  0  0  0
   -1.3060   26.2050  -25.2850 C   0  0  0  0  0  0  0  0  0  0  0  0
   -1.4790   26.2820  -26.5850 O   0  0  0  0  0  0  0  0  0  0  0  0
   -1.2560   25.1030  -27.1190 C   0  0  0  0  0  0  0  0  0  0  0  0
   -1.3480   24.8310  -28.5690 C   0  0  0  0  0  0  0  0  0  0  0  0
   -0.3930   24.2640  -29.1620 O   0  0  0  0  0  0  0  0  0  0  0  0
   -2.4720   25.2710  -29.3410 N   0  0  0  0  0  0  0  0  0  0  0  0
   -3.5030   24.4350  -29.8850 C   0  0  0  0  0  0  0  0  0  0  0  0
   -3.3500   23.0410  -29.9740 C   0  0  0  0  0  0  0  0  0  0  0  0
   -4.3620   22.2560  -30.5320 C   0  0  0  0  0  0  0  0  0  0  0  0
   -5.5330   22.8520  -31.0290 C   0  0  0  0  0  0  0  0  0  0  0  0
   -6.5810   22.0380  -31.5940 N   0  0  0  0  0  0  0  0  0  0  0  0
   -7.9760   22.2290  -31.1710 C   0  0  0  0  0  0  0  0  0  0  0  0
   -8.7270   20.8920  -31.1250 C   0  0  0  0  0  0  0  0  0  0  0  0
   -8.5550   20.1420  -32.4110 C   0  0  0  0  0  0  0  0  0  0  0  0
   -9.4650   19.3720  -32.8180 O   0  0  0  0  0  0  0  0  0  0  0  0
   -7.3300   20.2480  -33.1400 N   0  0  0  0  0  0  0  0  0  0  0  0
   -6.3160   21.1550  -32.7020 C   0  0  0  0  0  0  0  0  0  0  0  0
   -5.2080   21.1880  -33.3020 O   0  0  0  0  0  0  0  0  0  0  0  0
   -5.6730   24.2470  -30.9570 C   0  0  0  0  0  0  0  0  0  0  0  0
   -4.6590   25.0320  -30.4000 C   0  0  0  0  0  0  0  0  0  0  0  0
   -0.4668   22.3044  -25.2637 H   0  0  0  0  0  0  0  0  0  0  0  0
   -1.3750   22.2416  -26.8122 H   0  0  0  0  0  0  0  0  0  0  0  0
    0.3727   22.6566  -26.8122 H   0  0  0  0  0  0  0  0  0  0  0  0
   -0.7315   24.5392  -23.9272 H   0  0  0  0  0  0  0  0  0  0  0  0
   -1.4281   27.0404  -24.5799 H   0  0  0  0  0  0  0  0  0  0  0  0
   -2.4299   22.5660  -29.6029 H   0  0  0  0  0  0  0  0  0  0  0  0
   -4.2411   21.1638  -30.5825 H   0  0  0  0  0  0  0  0  0  0  0  0
   -7.9887   22.6829  -30.1691 H   0  0  0  0  0  0  0  0  0  0  0  0
   -8.4752   22.8853  -31.8990 H   0  0  0  0  0  0  0  0  0  0  0  0
   -8.3320   20.2845  -30.2974 H   0  0  0  0  0  0  0  0  0  0  0  0
   -9.7978   21.0934  -30.9742 H   0  0  0  0  0  0  0  0  0  0  0  0
   -7.1740   19.6590  -33.9900 H   0  0  0  0  0  0  0  0  0  0  0  0
   -6.5860   24.7253  -31.3412 H   0  0  0  0  0  0  0  0  0  0  0  0
   -4.7707   26.1258  -30.3664 H   0  0  0  0  0  0  0  0  0  0  0  0
  1  2  1  0
  2  3  1  0
  3  4  2  0
  4  5  1  0
  5  6  1  0
  6  7  1  0
  7  8  2  0
  7  9  1  0
  9 10  1  0
 10 11  2  0
 11 12  1  0
 12 13  2  0
 13 14  1  0
 14 15  1  0
 15 16  1  0
 16 17  1  0
 17 18  2  0
 17 19  1  0
 19 20  1  0
 20 21  2  0
 13 22  1  0
 22 23  2  0
  6  2  2  0
 23 10  1  0
 20 14  1  0
  1 24  1  0
  1 25  1  0
  1 26  1  0
  3 27  1  0
  4 28  1  0
 11 29  1  0
 12 30  1  0
 15 31  1  0
 15 32  1  0
 16 33  1  0
 16 34  1  0
 19 35  1  0
 22 36  1  0
 23 37  1  0
M  CHG  1   9  -1
M  END
>  <UniqueID>  (45) 
45

>  <SMILES>  (45) 
Cc1ccoc1C(=O)[N-]c1ccc(N2CCC(=O)NC2=O)cc1

>  <Energy>  (45) 
71.86978196527048

>  <Genealogy>  (45) 
Cc1ccoc1C(=O)[N-]c1ccc(N2CCC(=O)NC2=O)cc1 (protonated)
Cc1ccoc1C(=O)[N-]c1ccc(N2CCC(=O)NC2=O)cc1 (3D coordinates assigned)
Cc1ccoc1C(=O)[N-]c1ccc(N2CCC(=O)NC2=O)cc1 (nonaromatic ring conformer: 71.86978196527048 kcal/mol)

>  <smiles>  (45) 
Cc1ccoc1C(=O)Nc1ccc(N2CCC(=O)NC2=O)cc1

>  <score_type>  (45) 
oracle

>  <origin>  (45) 
adgpu

>  <m_score__min__energy>  (45) 
-9.7400000000000002

>  <m_primary>  (45) 
energy

$$$$
45:0
     RDKit          3D

 52 54  0  0  0  0  0  0  0  0999 V2000
   -5.1690   13.0790  -34.7960 C   0  0  0  0  0  0  0  0  0  0  0  0
   -5.0890   14.3440  -34.0060 C   0  0  0  0  0  0  0  0  0  0  0  0
   -4.0830   14.5510  -33.2740 O   0  0  0  0  0  0  0  0  0  0  0  0
   -6.1930   15.2630  -34.0100 N   0  0  0  0  0  0  0  0  0  0  0  0
   -6.1460   16.5780  -33.4300 C   0  0  0  0  0  0  0  0  0  0  0  0
   -6.4730   17.7220  -34.1780 C   0  0  0  0  0  0  0  0  0  0  0  0
   -6.4240   18.9880  -33.5900 C   0  0  0  0  0  0  0  0  0  0  0  0
   -6.0550   19.1320  -32.2450 C   0  0  0  0  0  0  0  0  0  0  0  0
   -5.9300   20.5040  -31.6410 C   0  0  0  0  0  0  0  0  0  0  0  0
   -4.6810   21.1430  -32.0710 N   0  0  0  0  0  0  0  0  0  0  0  0
   -4.0080   20.7240  -33.3070 C   0  0  0  0  0  0  0  0  0  0  0  0
   -2.5780   20.3500  -33.0220 C   0  0  0  0  0  0  0  0  0  0  0  0
   -2.2700   19.0900  -32.4850 C   0  0  0  0  0  0  0  0  0  0  0  0
   -0.9480   18.7620  -32.1650 C   0  0  0  0  0  0  0  0  0  0  0  0
    0.0800   19.6960  -32.3640 C   0  0  0  0  0  0  0  0  0  0  0  0
    1.5020   19.3360  -32.0530 C   0  0  0  0  0  0  0  0  0  0  0  0
   -0.2240   20.9500  -32.9160 C   0  0  0  0  0  0  0  0  0  0  0  0
   -1.5450   21.2760  -33.2360 C   0  0  0  0  0  0  0  0  0  0  0  0
   -4.0110   22.0430  -31.1790 C   0  0  0  0  0  0  0  0  0  0  0  0
   -3.1300   21.5490  -30.2130 C   0  0  0  0  0  0  0  0  0  0  0  0
   -2.4840   22.4240  -29.3360 C   0  0  0  0  0  0  0  0  0  0  0  0
   -2.7070   23.8120  -29.4130 C   0  0  0  0  0  0  0  0  0  0  0  0
   -2.0040   24.7150  -28.4660 C   0  0  0  0  0  0  0  0  0  0  0  0
   -1.8530   24.3980  -27.2570 O   0  0  0  0  0  0  0  0  0  0  0  0
   -1.5020   25.9360  -28.9040 O   0  0  0  0  0  0  0  0  0  0  0  0
   -3.6010   24.3050  -30.3920 C   0  0  0  0  0  0  0  0  0  0  0  0
   -3.8610   25.6660  -30.5120 O   0  0  0  0  0  0  0  0  0  0  0  0
   -4.2440   23.4200  -31.2650 C   0  0  0  0  0  0  0  0  0  0  0  0
   -5.7590   17.9880  -31.4880 C   0  0  0  0  0  0  0  0  0  0  0  0
   -5.8150   16.7200  -32.0750 C   0  0  0  0  0  0  0  0  0  0  0  0
   -5.2233   12.2210  -34.1098 H   0  0  0  0  0  0  0  0  0  0  0  0
   -6.0677   13.0989  -35.4300 H   0  0  0  0  0  0  0  0  0  0  0  0
   -4.2750   12.9855  -35.4300 H   0  0  0  0  0  0  0  0  0  0  0  0
   -7.1100   14.9180  -34.3740 H   0  0  0  0  0  0  0  0  0  0  0  0
   -6.7692   17.6198  -35.2324 H   0  0  0  0  0  0  0  0  0  0  0  0
   -6.6765   19.8775  -34.1858 H   0  0  0  0  0  0  0  0  0  0  0  0
   -6.7818   21.1206  -31.9638 H   0  0  0  0  0  0  0  0  0  0  0  0
   -5.9230   20.4109  -30.5450 H   0  0  0  0  0  0  0  0  0  0  0  0
   -4.5332   19.8547  -33.7294 H   0  0  0  0  0  0  0  0  0  0  0  0
   -4.0237   21.5584  -34.0236 H   0  0  0  0  0  0  0  0  0  0  0  0
   -3.0722   18.3568  -32.3149 H   0  0  0  0  0  0  0  0  0  0  0  0
   -0.7137   17.7682  -31.7559 H   0  0  0  0  0  0  0  0  0  0  0  0
    1.6412   19.3008  -30.9624 H   0  0  0  0  0  0  0  0  0  0  0  0
    1.7336   18.3509  -32.4842 H   0  0  0  0  0  0  0  0  0  0  0  0
    2.1744   20.0923  -32.4842 H   0  0  0  0  0  0  0  0  0  0  0  0
    0.5799   21.6786  -33.0974 H   0  0  0  0  0  0  0  0  0  0  0  0
   -1.7767   22.2649  -33.6584 H   0  0  0  0  0  0  0  0  0  0  0  0
   -2.9445   20.4670  -30.1429 H   0  0  0  0  0  0  0  0  0  0  0  0
   -1.7943   22.0245  -28.5779 H   0  0  0  0  0  0  0  0  0  0  0  0
   -4.9377   23.8099  -32.0244 H   0  0  0  0  0  0  0  0  0  0  0  0
   -5.4817   18.0892  -30.4283 H   0  0  0  0  0  0  0  0  0  0  0  0
   -5.5978   15.8277  -31.4694 H   0  0  0  0  0  0  0  0  0  0  0  0
  1  2  1  0
  2  3  2  0
  2  4  1  0
  4  5  1  0
  5  6  2  0
  6  7  1  0
  7  8  2  0
  8  9  1  0
  9 10  1  0
 10 11  1  0
 11 12  1  0
 12 13  2  0
 13 14  1  0
 14 15  2  0
 15 16  1  0
 15 17  1  0
 17 18  2  0
 10 19  1  0
 19 20  2  0
 20 21  1  0
 21 22  2  0
 22 23  1  0
 23 24  2  0
 23 25  1  0
 22 26  1  0
 26 27  1  0
 26 28  2  0
  8 29  1  0
 29 30  2  0
 30  5  1  0
 18 12  1  0
 28 19  1  0
  1 31  1  0
  1 32  1  0
  1 33  1  0
  4 34  1  0
  6 35  1  0
  7 36  1  0
  9 37  1  0
  9 38  1  0
 11 39  1  0
 11 40  1  0
 13 41  1  0
 14 42  1  0
 16 43  1  0
 16 44  1  0
 16 45  1  0
 17 46  1  0
 18 47  1  0
 20 48  1  0
 21 49  1  0
 28 50  1  0
 29 51  1  0
 30 52  1  0
M  CHG  2  25  -1  27  -1
M  END
>  <UniqueID>  (46) 
46

>  <SMILES>  (46) 
CC(=O)Nc1ccc(CN(Cc2ccc(C)cc2)c2ccc(C(=O)[O-])c([O-])c2)cc1

>  <Energy>  (46) 
57.69725138470873

>  <Genealogy>  (46) 
CC(=O)Nc1ccc(CN(Cc2ccc(C)cc2)c2ccc(C(=O)[O-])c([O-])c2)cc1 (protonated)
CC(=O)Nc1ccc(CN(Cc2ccc(C)cc2)c2ccc(C(=O)[O-])c([O-])c2)cc1 (3D coordinates assigned)
CC(=O)Nc1ccc(CN(Cc2ccc(C)cc2)c2ccc(C(=O)[O-])c([O-])c2)cc1 (optimized conformer: 57.69725138470873 kcal/mol)

>  <smiles>  (46) 
CC(=O)Nc1ccc(CN(Cc2ccc(C)cc2)c2ccc(C(=O)O)c(O)c2)cc1

>  <score_type>  (46) 
oracle

>  <origin>  (46) 
adgpu

>  <m_score__min__energy>  (46) 
-13.27

>  <m_primary>  (46) 
energy

$$$$
46:0
     RDKit          3D

 24 25  0  0  0  0  0  0  0  0999 V2000
   -2.0130   25.6780  -29.7750 H   0  0  0  0  0  0  0  0  0  0  0  0
   -1.1610   25.7720  -29.2400 O   0  0  0  0  0  0  0  0  0  0  0  0
   -0.5070   24.6980  -28.6330 C   0  0  0  0  0  0  0  0  0  0  0  0
    0.7500   24.9040  -28.1640 N   0  0  0  0  0  0  0  0  0  0  0  0
    1.4280   23.9340  -27.5010 C   0  0  0  0  0  0  0  0  0  0  0  0
    2.9350   24.2260  -26.9470 S   0  0  0  0  0  0  0  0  0  0  0  0
    0.8480   22.7290  -27.2860 N   0  0  0  0  0  0  0  0  0  0  0  0
   -0.4000   22.4570  -27.7430 C   0  0  0  0  0  0  0  0  0  0  0  0
   -0.8960   21.3180  -27.5330 O   0  0  0  0  0  0  0  0  0  0  0  0
   -1.1180   23.4330  -28.4610 C   0  0  0  0  0  0  0  0  0  0  0  0
   -2.4470   23.0920  -29.0180 C   0  0  0  0  0  0  0  0  0  0  0  0
   -3.0573   22.3193  -28.5276 H   0  0  0  0  0  0  0  0  0  0  0  0
   -2.9030   23.6900  -30.0750 N   0  0  0  0  0  0  0  0  0  0  0  0
   -4.1390   23.3730  -30.7340 C   0  0  0  0  0  0  0  0  0  0  0  0
   -4.5040   22.0460  -31.0590 C   0  0  0  0  0  0  0  0  0  0  0  0
   -3.6580   20.9780  -30.7800 O   0  0  0  0  0  0  0  0  0  0  0  0
   -5.7190   21.7940  -31.7040 C   0  0  0  0  0  0  0  0  0  0  0  0
   -6.0120   20.7589  -31.9337 H   0  0  0  0  0  0  0  0  0  0  0  0
   -6.5620   22.8490  -32.0580 C   0  0  0  0  0  0  0  0  0  0  0  0
   -7.5194   22.6435  -32.5591 H   0  0  0  0  0  0  0  0  0  0  0  0
   -6.1900   24.1650  -31.7760 C   0  0  0  0  0  0  0  0  0  0  0  0
   -6.8485   24.9963  -32.0681 H   0  0  0  0  0  0  0  0  0  0  0  0
   -4.9820   24.4280  -31.1230 C   0  0  0  0  0  0  0  0  0  0  0  0
   -4.6240   25.7440  -30.8530 O   0  0  0  0  0  0  0  0  0  0  0  0
  1  2  1  0
  2  3  1  0
  3  4  1  0
  4  5  1  0
  5  6  2  0
  5  7  1  0
  7  8  1  0
  8  9  2  0
  8 10  1  0
 10 11  1  0
 11 12  1  0
 11 13  2  0
 13 14  1  0
 14 15  2  0
 15 16  1  0
 15 17  1  0
 17 18  1  0
 17 19  2  0
 19 20  1  0
 19 21  1  0
 21 22  1  0
 21 23  2  0
 23 24  1  0
 10  3  2  0
 23 14  1  0
M  CHG  4   4  -1   7  -1  16  -1  24  -1
M  END
>  <UniqueID>  (47) 
47

>  <SMILES>  (47) 
O=c1[n-]c(=S)[n-]c(O)c1/C=N/c1c([O-])cccc1[O-]

>  <Energy>  (47) 
37.77837469767702

>  <Genealogy>  (47) 
O=c1[n-]c(=S)[n-]c(O)c1C=Nc1c([O-])cccc1[O-] (protonated)
O=c1[n-]c(=S)[n-]c(O)c1/C=N/c1c([O-])cccc1[O-] (cis-trans isomerization)
O=c1[n-]c(=S)[n-]c(O)c1/C=N/c1c([O-])cccc1[O-] (3D coordinates assigned)
O=c1[n-]c(=S)[n-]c(O)c1/C=N/c1c([O-])cccc1[O-] (optimized conformer: 37.77837469767702 kcal/mol)

>  <smiles>  (47) 
O=c1[nH]c(=S)[nH]c(O)c1C=Nc1c(O)cccc1O

>  <score_type>  (47) 
oracle

>  <origin>  (47) 
adgpu

>  <m_score__min__energy>  (47) 
-9.4100000000000001

>  <m_primary>  (47) 
energy

$$$$
47:0
     RDKit          3D

 41 43  0  0  0  0  0  0  0  0999 V2000
   -9.1280   18.5390  -31.6700 C   0  0  0  0  0  0  0  0  0  0  0  0
   -8.2330   19.7250  -31.8830 C   0  0  0  0  0  0  0  0  0  0  0  0
   -8.7440   21.0260  -31.7640 C   0  0  0  0  0  0  0  0  0  0  0  0
   -7.9120   22.1290  -31.9730 C   0  0  0  0  0  0  0  0  0  0  0  0
   -6.5740   21.9410  -32.3280 C   0  0  0  0  0  0  0  0  0  0  0  0
   -6.0620   20.6490  -32.5030 C   0  0  0  0  0  0  0  0  0  0  0  0
   -4.6730   20.5020  -32.8430 N   0  0  0  0  0  0  0  0  0  0  0  0
   -4.0980   19.4640  -33.3830 C   0  0  0  0  0  0  0  0  0  0  0  0
   -4.8460   18.3980  -33.7880 N   0  0  0  0  0  0  0  0  0  0  0  0
   -4.3030   17.3120  -34.3950 C   0  0  0  0  0  0  0  0  0  0  0  0
   -2.9340   17.2640  -34.6370 C   0  0  0  0  0  0  0  0  0  0  0  0
   -2.1340   18.3370  -34.2490 C   0  0  0  0  0  0  0  0  0  0  0  0
   -2.6970   19.4590  -33.6120 C   0  0  0  0  0  0  0  0  0  0  0  0
   -1.8080   20.5870  -33.2100 C   0  0  0  0  0  0  0  0  0  0  0  0
   -1.4390   21.4260  -34.0750 O   0  0  0  0  0  0  0  0  0  0  0  0
   -1.3160   20.6860  -31.8660 N   0  0  0  0  0  0  0  0  0  0  0  0
   -1.8340   21.5250  -30.8230 C   0  0  0  0  0  0  0  0  0  0  0  0
   -3.0860   21.2190  -30.2810 C   0  0  0  0  0  0  0  0  0  0  0  0
   -3.6380   22.0200  -29.2800 C   0  0  0  0  0  0  0  0  0  0  0  0
   -2.9500   23.1460  -28.8230 C   0  0  0  0  0  0  0  0  0  0  0  0
   -1.7010   23.4890  -29.3730 C   0  0  0  0  0  0  0  0  0  0  0  0
   -0.9820   24.6960  -28.9010 C   0  0  0  0  0  0  0  0  0  0  0  0
   -1.6120   25.9760  -28.9330 N   0  0  0  0  0  0  0  0  0  0  0  0
    0.1980   24.6050  -28.4670 O   0  0  0  0  0  0  0  0  0  0  0  0
   -1.1530   22.6740  -30.3820 C   0  0  0  0  0  0  0  0  0  0  0  0
   -6.8920   19.5390  -32.2580 C   0  0  0  0  0  0  0  0  0  0  0  0
   -9.2580   18.3668  -30.5914 H   0  0  0  0  0  0  0  0  0  0  0  0
  -10.1079   18.7316  -32.1313 H   0  0  0  0  0  0  0  0  0  0  0  0
   -8.6740   17.6495  -32.1313 H   0  0  0  0  0  0  0  0  0  0  0  0
   -9.8023   21.1782  -31.5055 H   0  0  0  0  0  0  0  0  0  0  0  0
   -8.3114   23.1474  -31.8578 H   0  0  0  0  0  0  0  0  0  0  0  0
   -5.9186   22.8128  -32.4710 H   0  0  0  0  0  0  0  0  0  0  0  0
   -4.9450   16.4707  -34.6952 H   0  0  0  0  0  0  0  0  0  0  0  0
   -2.4874   16.3878  -35.1297 H   0  0  0  0  0  0  0  0  0  0  0  0
   -1.0516   18.3069  -34.4425 H   0  0  0  0  0  0  0  0  0  0  0  0
   -3.6396   20.3413  -30.6458 H   0  0  0  0  0  0  0  0  0  0  0  0
   -4.6175   21.7636  -28.8500 H   0  0  0  0  0  0  0  0  0  0  0  0
   -3.3870   23.7685  -28.0283 H   0  0  0  0  0  0  0  0  0  0  0  0
   -1.1320   26.8000  -29.3560 H   0  0  0  0  0  0  0  0  0  0  0  0
   -0.1835   22.9383  -30.8294 H   0  0  0  0  0  0  0  0  0  0  0  0
   -6.4886   18.5208  -32.3607 H   0  0  0  0  0  0  0  0  0  0  0  0
  1  2  1  0
  2  3  2  0
  3  4  1  0
  4  5  2  0
  5  6  1  0
  6  7  1  0
  7  8  2  3
  8  9  1  0
  9 10  1  0
 10 11  2  0
 11 12  1  0
 12 13  2  0
 13 14  1  0
 14 15  2  0
 14 16  1  0
 16 17  1  0
 17 18  2  0
 18 19  1  0
 19 20  2  0
 20 21  1  0
 21 22  1  0
 22 23  1  0
 22 24  2  0
 21 25  2  0
  6 26  2  0
 26  2  1  0
 13  8  1  0
 25 17  1  0
  1 27  1  0
  1 28  1  0
  1 29  1  0
  3 30  1  0
  4 31  1  0
  5 32  1  0
 10 33  1  0
 11 34  1  0
 12 35  1  0
 18 36  1  0
 19 37  1  0
 20 38  1  0
 23 39  1  0
 25 40  1  0
 26 41  1  0
M  CHG  3   9  -1  16  -1  23  -1
M  END
>  <UniqueID>  (48) 
48

>  <SMILES>  (48) 
Cc1cccc(N=c2[n-]cccc2C(=O)[N-]c2cccc(C([NH-])=O)c2)c1

>  <Energy>  (48) 
57.32104550862051

>  <Genealogy>  (48) 
Cc1cccc(N=c2[n-]cccc2C(=O)[N-]c2cccc(C([NH-])=O)c2)c1 (protonated)
Cc1cccc(N=c2[n-]cccc2C(=O)[N-]c2cccc(C([NH-])=O)c2)c1 (3D coordinates assigned)
Cc1cccc(N=c2[n-]cccc2C(=O)[N-]c2cccc(C([NH-])=O)c2)c1 (optimized conformer: 57.32104550862051 kcal/mol)

>  <smiles>  (48) 
Cc1cccc(N=c2[nH]cccc2C(=O)Nc2cccc(C(N)=O)c2)c1

>  <score_type>  (48) 
oracle

>  <origin>  (48) 
adgpu

>  <m_score__min__energy>  (48) 
-11.119999999999999

>  <m_primary>  (48) 
energy

$$$$
48:0
     RDKit          3D

 54 57  0  0  0  0  0  0  0  0999 V2000
   -1.8370   25.5580  -28.9480 O   0  0  0  0  0  0  0  0  0  0  0  0
   -2.5660   24.6400  -29.4120 C   0  0  0  0  0  0  0  0  0  0  0  0
   -2.3340   23.2050  -28.9950 C   0  0  0  0  0  0  0  0  0  0  0  0
   -2.7370   22.9150  -27.5380 C   0  0  0  0  0  0  0  0  0  0  0  0
   -2.0470   21.7230  -26.9920 N   0  0  0  0  0  0  0  0  0  0  0  0
   -2.5710   20.4680  -27.5900 C   0  0  0  0  0  0  0  0  0  0  0  0
   -1.5440   19.3280  -27.5330 C   0  0  0  0  0  0  0  0  0  0  0  0
   -0.2950   19.6740  -28.2510 N   0  0  0  0  0  0  0  0  0  0  0  0
   -0.0960   18.9540  -29.5290 C   0  0  0  0  0  0  0  0  0  0  0  0
   -0.5360   19.7370  -30.7510 C   0  0  0  0  0  0  0  0  0  0  0  0
    0.3840   20.0300  -31.7740 C   0  0  0  0  0  0  0  0  0  0  0  0
   -0.0160   20.7570  -32.8990 C   0  0  0  0  0  0  0  0  0  0  0  0
   -1.3400   21.1850  -33.0220 C   0  0  0  0  0  0  0  0  0  0  0  0
   -2.2690   20.8750  -32.0250 C   0  0  0  0  0  0  0  0  0  0  0  0
   -1.8720   20.1470  -30.8990 C   0  0  0  0  0  0  0  0  0  0  0  0
   -0.0190   21.1250  -28.3330 C   0  0  0  0  0  0  0  0  0  0  0  0
   -0.5710   21.8560  -27.1040 C   0  0  0  0  0  0  0  0  0  0  0  0
   -3.4970   24.9690  -30.4510 N   0  0  0  0  0  0  0  0  0  0  0  0
   -4.7000   24.2560  -30.7570 C   0  0  0  0  0  0  0  0  0  0  0  0
   -5.9220   24.7450  -30.2810 C   0  0  0  0  0  0  0  0  0  0  0  0
   -7.1100   24.0560  -30.5380 C   0  0  0  0  0  0  0  0  0  0  0  0
   -7.0860   22.8530  -31.2590 C   0  0  0  0  0  0  0  0  0  0  0  0
   -8.2730   22.1540  -31.5270 C   0  0  0  0  0  0  0  0  0  0  0  0
   -8.2340   20.9530  -32.2420 C   0  0  0  0  0  0  0  0  0  0  0  0
   -7.0130   20.4410  -32.6890 C   0  0  0  0  0  0  0  0  0  0  0  0
   -5.8230   21.1260  -32.4280 C   0  0  0  0  0  0  0  0  0  0  0  0
   -5.8500   22.3370  -31.7150 C   0  0  0  0  0  0  0  0  0  0  0  0
   -4.6640   23.0340  -31.4470 C   0  0  0  0  0  0  0  0  0  0  0  0
   -2.9225   22.5512  -29.6555 H   0  0  0  0  0  0  0  0  0  0  0  0
   -1.2533   23.0160  -29.0750 H   0  0  0  0  0  0  0  0  0  0  0  0
   -2.4798   23.7873  -26.9192 H   0  0  0  0  0  0  0  0  0  0  0  0
   -3.8187   22.7160  -27.5206 H   0  0  0  0  0  0  0  0  0  0  0  0
   -3.4720   20.1615  -27.0384 H   0  0  0  0  0  0  0  0  0  0  0  0
   -2.7986   20.6662  -28.6478 H   0  0  0  0  0  0  0  0  0  0  0  0
   -1.3029   19.1187  -26.4804 H   0  0  0  0  0  0  0  0  0  0  0  0
   -1.9852   18.4466  -28.0213 H   0  0  0  0  0  0  0  0  0  0  0  0
    0.9743   18.7225  -29.6330 H   0  0  0  0  0  0  0  0  0  0  0  0
   -0.7217   18.0502  -29.4868 H   0  0  0  0  0  0  0  0  0  0  0  0
    1.4249   19.6848  -31.6882 H   0  0  0  0  0  0  0  0  0  0  0  0
    0.7129   20.9924  -33.6885 H   0  0  0  0  0  0  0  0  0  0  0  0
   -1.6512   21.7656  -33.9029 H   0  0  0  0  0  0  0  0  0  0  0  0
   -3.3137   21.2041  -32.1261 H   0  0  0  0  0  0  0  0  0  0  0  0
   -2.6103   19.8936  -30.1240 H   0  0  0  0  0  0  0  0  0  0  0  0
    1.0683   21.2825  -28.3877 H   0  0  0  0  0  0  0  0  0  0  0  0
   -0.5105   21.5265  -29.2315 H   0  0  0  0  0  0  0  0  0  0  0  0
   -0.1070   21.4325  -26.2010 H   0  0  0  0  0  0  0  0  0  0  0  0
   -0.3338   22.9249  -27.2101 H   0  0  0  0  0  0  0  0  0  0  0  0
   -5.9473   25.6788  -29.7002 H   0  0  0  0  0  0  0  0  0  0  0  0
   -8.0669   24.4581  -30.1739 H   0  0  0  0  0  0  0  0  0  0  0  0
   -9.2359   22.5517  -31.1739 H   0  0  0  0  0  0  0  0  0  0  0  0
   -9.1669   20.4098  -32.4532 H   0  0  0  0  0  0  0  0  0  0  0  0
   -6.9883   19.4945  -33.2489 H   0  0  0  0  0  0  0  0  0  0  0  0
   -4.8647   20.7171  -32.7808 H   0  0  0  0  0  0  0  0  0  0  0  0
   -3.6999   22.6214  -31.7791 H   0  0  0  0  0  0  0  0  0  0  0  0
  1  2  2  0
  2  3  1  0
  3  4  1  0
  4  5  1  0
  5  6  1  0
  6  7  1  0
  7  8  1  0
  8  9  1  0
  9 10  1  0
 10 11  2  0
 11 12  1  0
 12 13  2  0
 13 14  1  0
 14 15  2  0
  8 16  1  0
 16 17  1  0
  2 18  1  0
 18 19  1  0
 19 20  2  0
 20 21  1  0
 21 22  2  0
 22 23  1  0
 23 24  2  0
 24 25  1  0
 25 26  2  0
 26 27  1  0
 27 28  2  0
 17  5  1  0
 28 19  1  0
 15 10  1  0
 27 22  1  0
  3 29  1  0
  3 30  1  0
  4 31  1  0
  4 32  1  0
  6 33  1  0
  6 34  1  0
  7 35  1  0
  7 36  1  0
  9 37  1  0
  9 38  1  0
 11 39  1  0
 12 40  1  0
 13 41  1  0
 14 42  1  0
 15 43  1  0
 16 44  1  0
 16 45  1  0
 17 46  1  0
 17 47  1  0
 20 48  1  0
 21 49  1  0
 23 50  1  0
 24 51  1  0
 25 52  1  0
 26 53  1  0
 28 54  1  0
M  CHG  1  18  -1
M  END
>  <UniqueID>  (49) 
49

>  <SMILES>  (49) 
O=C(CCN1CCN(Cc2ccccc2)CC1)[N-]c1ccc2ccccc2c1

>  <Energy>  (49) 
80.58702759542528

>  <Genealogy>  (49) 
O=C(CCN1CCN(Cc2ccccc2)CC1)[N-]c1ccc2ccccc2c1 (protonated)
O=C(CCN1CCN(Cc2ccccc2)CC1)[N-]c1ccc2ccccc2c1 (3D coordinates assigned)
O=C(CCN1CCN(Cc2ccccc2)CC1)[N-]c1ccc2ccccc2c1 (nonaromatic ring conformer: 80.58702759542528 kcal/mol)

>  <smiles>  (49) 
O=C(CCN1CCN(Cc2ccccc2)CC1)Nc1ccc2ccccc2c1

>  <score_type>  (49) 
oracle

>  <origin>  (49) 
adgpu

>  <m_score__min__energy>  (49) 
-11.470000000000001

>  <m_primary>  (49) 
energy

$$$$
49:0
     RDKit          3D

 55 58  0  0  0  0  0  0  0  0999 V2000
   -6.1640   19.2040  -34.6060 O   0  0  0  0  0  0  0  0  0  0  0  0
   -5.3520   19.3760  -33.6550 C   0  0  0  0  0  0  0  0  0  0  0  0
   -5.8000   19.9930  -32.4360 N   0  0  0  0  0  0  0  0  0  0  0  0
   -7.1510   20.4340  -32.2280 C   0  0  0  0  0  0  0  0  0  0  0  0
   -8.2290   19.5660  -32.4770 C   0  0  0  0  0  0  0  0  0  0  0  0
   -9.5450   20.0170  -32.3470 C   0  0  0  0  0  0  0  0  0  0  0  0
   -9.7990   21.3390  -31.9830 C   0  0  0  0  0  0  0  0  0  0  0  0
   -8.7390   22.2150  -31.7450 C   0  0  0  0  0  0  0  0  0  0  0  0
   -7.4130   21.7730  -31.8610 C   0  0  0  0  0  0  0  0  0  0  0  0
   -6.3440   22.6880  -31.5750 N   0  0  0  0  0  0  0  0  0  0  0  0
   -5.0780   22.6080  -32.3070 C   0  0  0  0  0  0  0  0  0  0  0  0
   -3.9320   23.0410  -31.3890 C   0  0  0  0  0  0  0  0  0  0  0  0
   -4.2050   24.3050  -30.8090 O   0  0  0  0  0  0  0  0  0  0  0  0
   -5.3260   24.2070  -29.9480 C   0  0  0  0  0  0  0  0  0  0  0  0
   -6.5940   23.8630  -30.7380 C   0  0  0  0  0  0  0  0  0  0  0  0
   -3.9480   18.9280  -33.8210 C   0  0  0  0  0  0  0  0  0  0  0  0
   -3.6410   17.6110  -34.2100 C   0  0  0  0  0  0  0  0  0  0  0  0
   -2.3120   17.2150  -34.3790 C   0  0  0  0  0  0  0  0  0  0  0  0
   -1.2730   18.1220  -34.1660 C   0  0  0  0  0  0  0  0  0  0  0  0
    0.0090   17.7210  -34.3530 F   0  0  0  0  0  0  0  0  0  0  0  0
   -1.5600   19.4390  -33.7780 C   0  0  0  0  0  0  0  0  0  0  0  0
   -0.2500   20.5970  -33.5380 S   0  0  0  0  0  0  0  0  0  0  0  0
   -0.6230   21.8950  -34.1980 O   0  0  0  0  0  0  0  0  0  0  0  0
    1.0130   20.0840  -34.1740 O   0  0  0  0  0  0  0  0  0  0  0  0
   -0.0020   20.8530  -31.8300 N   0  0  0  0  0  0  0  0  0  0  0  0
   -1.1280   21.6220  -31.2670 C   0  0  0  0  0  0  0  0  0  0  0  0
   -1.0980   21.5930  -29.7260 C   0  0  0  0  0  0  0  0  0  0  0  0
    0.1520   21.1350  -29.2520 O   0  0  0  0  0  0  0  0  0  0  0  0
    0.3410   19.7820  -29.6310 C   0  0  0  0  0  0  0  0  0  0  0  0
    0.1250   19.5590  -31.1440 C   0  0  0  0  0  0  0  0  0  0  0  0
   -2.8950   19.8390  -33.6190 C   0  0  0  0  0  0  0  0  0  0  0  0
   -5.1340   20.1070  -31.6400 H   0  0  0  0  0  0  0  0  0  0  0  0
   -8.0349   18.5254  -32.7760 H   0  0  0  0  0  0  0  0  0  0  0  0
  -10.3823   19.3280  -32.5321 H   0  0  0  0  0  0  0  0  0  0  0  0
  -10.8361   21.6918  -31.8833 H   0  0  0  0  0  0  0  0  0  0  0  0
   -8.9448   23.2586  -31.4647 H   0  0  0  0  0  0  0  0  0  0  0  0
   -4.9110   21.5728  -32.6393 H   0  0  0  0  0  0  0  0  0  0  0  0
   -5.1176   23.2715  -33.1835 H   0  0  0  0  0  0  0  0  0  0  0  0
   -3.8087   22.2958  -30.5893 H   0  0  0  0  0  0  0  0  0  0  0  0
   -3.0107   23.1170  -31.9852 H   0  0  0  0  0  0  0  0  0  0  0  0
   -5.1405   23.4187  -29.2035 H   0  0  0  0  0  0  0  0  0  0  0  0
   -5.4737   25.1773  -29.4514 H   0  0  0  0  0  0  0  0  0  0  0  0
   -7.4146   23.6467  -30.0382 H   0  0  0  0  0  0  0  0  0  0  0  0
   -6.8710   24.7153  -31.3759 H   0  0  0  0  0  0  0  0  0  0  0  0
   -4.4526   16.8887  -34.3821 H   0  0  0  0  0  0  0  0  0  0  0  0
   -2.0832   16.1825  -34.6817 H   0  0  0  0  0  0  0  0  0  0  0  0
   -1.0584   22.6652  -31.6090 H   0  0  0  0  0  0  0  0  0  0  0  0
   -2.0697   21.1676  -31.6088 H   0  0  0  0  0  0  0  0  0  0  0  0
   -1.2774   22.6087  -29.3436 H   0  0  0  0  0  0  0  0  0  0  0  0
   -1.8800   20.9045  -29.3733 H   0  0  0  0  0  0  0  0  0  0  0  0
    1.3676   19.4829  -29.3728 H   0  0  0  0  0  0  0  0  0  0  0  0
   -0.4027   19.1758  -29.0930 H   0  0  0  0  0  0  0  0  0  0  0  0
    0.9840   19.0102  -31.5576 H   0  0  0  0  0  0  0  0  0  0  0  0
   -0.7968   18.9782  -31.2953 H   0  0  0  0  0  0  0  0  0  0  0  0
   -3.1213   20.8768  -33.3331 H   0  0  0  0  0  0  0  0  0  0  0  0
  1  2  2  0
  2  3  1  0
  3  4  1  0
  4  5  2  0
  5  6  1  0
  6  7  2  0
  7  8  1  0
  8  9  2  0
  9 10  1  0
 10 11  1  0
 11 12  1  0
 12 13  1  0
 13 14  1  0
 14 15  1  0
  2 16  1  0
 16 17  2  0
 17 18  1  0
 18 19  2  0
 19 20  1  0
 19 21  1  0
 21 22  1  0
 22 23  2  0
 22 24  2  0
 22 25  1  0
 25 26  1  0
 26 27  1  0
 27 28  1  0
 28 29  1  0
 29 30  1  0
 21 31  2  0
  9  4  1  0
 15 10  1  0
 31 16  1  0
 30 25  1  0
  3 32  1  0
  5 33  1  0
  6 34  1  0
  7 35  1  0
  8 36  1  0
 11 37  1  0
 11 38  1  0
 12 39  1  0
 12 40  1  0
 14 41  1  0
 14 42  1  0
 15 43  1  0
 15 44  1  0
 17 45  1  0
 18 46  1  0
 26 47  1  0
 26 48  1  0
 27 49  1  0
 27 50  1  0
 29 51  1  0
 29 52  1  0
 30 53  1  0
 30 54  1  0
 31 55  1  0
M  END
>  <UniqueID>  (50) 
50

>  <SMILES>  (50) 
O=C(Nc1ccccc1N1CCOCC1)c1ccc(F)c(S(=O)(=O)N2CCOCC2)c1

>  <Energy>  (50) 
77.88931074741598

>  <Genealogy>  (50) 
O=C(Nc1ccccc1N1CCOCC1)c1ccc(F)c(S(=O)(=O)N2CCOCC2)c1 (3D coordinates assigned)
O=C(Nc1ccccc1N1CCOCC1)c1ccc(F)c(S(=O)(=O)N2CCOCC2)c1 (nonaromatic ring conformer: 77.88931074741598 kcal/mol)

>  <smiles>  (50) 
O=C(Nc1ccccc1N1CCOCC1)c1ccc(F)c(S(=O)(=O)N2CCOCC2)c1

>  <score_type>  (50) 
oracle

>  <origin>  (50) 
adgpu

>  <m_score__min__energy>  (50) 
-9.5199999999999996

>  <m_primary>  (50) 
energy

$$$$
