0:0
     RDKit          3D

 23 24  0  0  0  0  0  0  0  0999 V2000
   -6.8550   15.9890  -33.8360 N   0  0  0  0  0  0  0  0  0  0  0  0
   -7.0170   17.0710  -33.4590 C   0  0  0  0  0  0  0  0  0  0  0  0
   -7.2190   18.4160  -32.9880 C   0  0  0  0  0  0  0  0  0  0  0  0
   -6.4840   19.4710  -33.5430 C   0  0  0  0  0  0  0  0  0  0  0  0
   -6.6790   20.7780  -33.0860 C   0  0  0  0  0  0  0  0  0  0  0  0
   -7.6220   21.0460  -32.0830 C   0  0  0  0  0  0  0  0  0  0  0  0
   -7.7870   22.3890  -31.6080 N   0  0  0  0  0  0  0  0  0  0  0  0
   -6.6970   23.2910  -31.3890 C   0  0  0  0  0  0  0  0  0  0  0  0
   -5.3920   23.4120  -31.8390 C   0  0  0  0  0  0  0  0  0  0  0  0
   -4.5440   22.6790  -32.7200 N   0  0  0  0  0  0  0  0  0  0  0  0
   -5.2250   24.5320  -31.0500 C   0  0  0  0  0  0  0  0  0  0  0  0
   -4.2800   25.3370  -30.8360 O   0  0  0  0  0  0  0  0  0  0  0  0
   -6.5130   24.3920  -30.5760 C   0  0  0  0  0  0  0  0  0  0  0  0
   -7.2290   25.0160  -29.7490 O   0  0  0  0  0  0  0  0  0  0  0  0
   -8.3390   19.9790  -31.5120 C   0  0  0  0  0  0  0  0  0  0  0  0
   -8.1430   18.6720  -31.9690 C   0  0  0  0  0  0  0  0  0  0  0  0
   -5.7522   19.2712  -34.3396 H   0  0  0  0  0  0  0  0  0  0  0  0
   -6.0892   21.6011  -33.5158 H   0  0  0  0  0  0  0  0  0  0  0  0
   -8.7480   22.7250  -31.3740 H   0  0  0  0  0  0  0  0  0  0  0  0
   -3.7830   22.0720  -32.3440 H   0  0  0  0  0  0  0  0  0  0  0  0
   -4.6490   22.7870  -33.7530 H   0  0  0  0  0  0  0  0  0  0  0  0
   -9.0574   20.1737  -30.7020 H   0  0  0  0  0  0  0  0  0  0  0  0
   -8.7162   17.8439  -31.5267 H   0  0  0  0  0  0  0  0  0  0  0  0
  1  2  3  0
  2  3  1  0
  3  4  2  0
  4  5  1  0
  5  6  2  0
  6  7  1  0
  7  8  1  0
  8  9  2  0
  9 10  1  0
  9 11  1  0
 11 12  2  0
 11 13  1  0
 13 14  2  0
  6 15  1  0
 15 16  2  0
 16  3  1  0
 13  8  1  0
  4 17  1  0
  5 18  1  0
  7 19  1  0
 10 20  1  0
 10 21  1  0
 15 22  1  0
 16 23  1  0
M  END
>  <UniqueID>  (1) 
1

>  <SMILES>  (1) 
N#Cc1ccc(Nc2c(N)c(=O)c2=O)cc1

>  <Energy>  (1) 
16.096756043780452

>  <Genealogy>  (1) 
N#Cc1ccc(Nc2c(N)c(=O)c2=O)cc1 (3D coordinates assigned)
N#Cc1ccc(Nc2c(N)c(=O)c2=O)cc1 (optimized conformer: 16.096756043780452 kcal/mol)

>  <smiles>  (1) 
N#Cc1ccc(Nc2c(N)c(=O)c2=O)cc1

>  <score_type>  (1) 
oracle

>  <origin>  (1) 
adgpu

>  <m_score__min__energy>  (1) 
-6.9000000000000004

>  <m_primary>  (1) 
energy

$$$$
1:0
     RDKit          3D

 38 41  0  0  0  0  0  0  0  0999 V2000
   -5.1717   18.1939  -35.2147 H   0  0  0  0  0  0  0  0  0  0  0  0
   -5.9020   18.3390  -34.4050 C   0  0  0  0  0  0  0  0  0  0  0  0
   -6.1790   19.5920  -33.9570 N   0  0  0  0  0  0  0  0  0  0  0  0
   -7.0810   19.8210  -32.9610 C   0  0  0  0  0  0  0  0  0  0  0  0
   -7.3270   21.1240  -32.5050 O   0  0  0  0  0  0  0  0  0  0  0  0
   -6.3590   22.0030  -31.9990 C   0  0  0  0  0  0  0  0  0  0  0  0
   -6.7740   23.2500  -31.5180 C   0  0  0  0  0  0  0  0  0  0  0  0
   -7.8417   23.5141  -31.5353 H   0  0  0  0  0  0  0  0  0  0  0  0
   -5.8420   24.1620  -31.0160 C   0  0  0  0  0  0  0  0  0  0  0  0
   -6.1839   25.1266  -30.6127 H   0  0  0  0  0  0  0  0  0  0  0  0
   -4.4750   23.8560  -31.0230 C   0  0  0  0  0  0  0  0  0  0  0  0
   -3.5490   24.7990  -30.4640 N   0  0  0  0  0  0  0  0  0  0  0  0
   -2.8020   24.6220  -29.4140 C   0  0  0  0  0  0  0  0  0  0  0  0
   -1.9900   25.5980  -28.9430 N   0  0  0  0  0  0  0  0  0  0  0  0
   -1.2770   25.1630  -27.8720 C   0  0  0  0  0  0  0  0  0  0  0  0
   -0.3590   25.9430  -27.1680 C   0  0  0  0  0  0  0  0  0  0  0  0
   -0.1680   26.9860  -27.4607 H   0  0  0  0  0  0  0  0  0  0  0  0
    0.3170   25.3690  -26.0770 C   0  0  0  0  0  0  0  0  0  0  0  0
    1.0432   25.9681  -25.5082 H   0  0  0  0  0  0  0  0  0  0  0  0
    0.0710   24.0320  -25.7070 C   0  0  0  0  0  0  0  0  0  0  0  0
    0.6059   23.5936  -24.8516 H   0  0  0  0  0  0  0  0  0  0  0  0
   -0.8540   23.2560  -26.4250 C   0  0  0  0  0  0  0  0  0  0  0  0
   -1.0528   22.2107  -26.1460 H   0  0  0  0  0  0  0  0  0  0  0  0
   -1.5120   23.8480  -27.5000 C   0  0  0  0  0  0  0  0  0  0  0  0
   -2.6500   23.1730  -28.5330 S   0  0  0  0  0  0  0  0  0  0  0  0
   -4.0550   22.6000  -31.4940 C   0  0  0  0  0  0  0  0  0  0  0  0
   -2.9879   22.3343  -31.4683 H   0  0  0  0  0  0  0  0  0  0  0  0
   -4.9880   21.6870  -31.9950 C   0  0  0  0  0  0  0  0  0  0  0  0
   -4.6485   20.7172  -32.3878 H   0  0  0  0  0  0  0  0  0  0  0  0
   -7.7400   18.7360  -32.3570 C   0  0  0  0  0  0  0  0  0  0  0  0
   -8.7250   18.9640  -31.2460 C   0  0  0  0  0  0  0  0  0  0  0  0
   -8.2182   18.8467  -30.2768 H   0  0  0  0  0  0  0  0  0  0  0  0
   -9.1365   19.9811  -31.3238 H   0  0  0  0  0  0  0  0  0  0  0  0
   -9.5416   18.2311  -31.3238 H   0  0  0  0  0  0  0  0  0  0  0  0
   -7.4620   17.4380  -32.8100 C   0  0  0  0  0  0  0  0  0  0  0  0
   -7.9703   16.5765  -32.3523 H   0  0  0  0  0  0  0  0  0  0  0  0
   -6.5430   17.2370  -33.8390 C   0  0  0  0  0  0  0  0  0  0  0  0
   -6.3259   16.2210  -34.2004 H   0  0  0  0  0  0  0  0  0  0  0  0
  1  2  1  0
  2  3  2  0
  3  4  1  0
  4  5  1  0
  5  6  1  0
  6  7  2  0
  7  8  1  0
  7  9  1  0
  9 10  1  0
  9 11  2  0
 11 12  1  0
 12 13  2  0
 13 14  1  0
 14 15  1  0
 15 16  2  0
 16 17  1  0
 16 18  1  0
 18 19  1  0
 18 20  2  0
 20 21  1  0
 20 22  1  0
 22 23  1  0
 22 24  2  0
 24 25  1  0
 11 26  1  0
 26 27  1  0
 26 28  2  0
 28 29  1  0
  4 30  2  0
 30 31  1  0
 31 32  1  0
 31 33  1  0
 31 34  1  0
 30 35  1  0
 35 36  1  0
 35 37  2  0
 37 38  1  0
 37  2  1  0
 28  6  1  0
 25 13  1  0
 24 15  1  0
M  CHG  1  14  -1
M  END
>  <UniqueID>  (2) 
2

>  <SMILES>  (2) 
Cc1cccnc1Oc1ccc(/N=c2/[n-]c3ccccc3s2)cc1

>  <Energy>  (2) 
90.10999412420179

>  <Genealogy>  (2) 
Cc1cccnc1Oc1ccc(N=c2[n-]c3ccccc3s2)cc1 (protonated)
Cc1cccnc1Oc1ccc(/N=c2/[n-]c3ccccc3s2)cc1 (cis-trans isomerization)
Cc1cccnc1Oc1ccc(/N=c2/[n-]c3ccccc3s2)cc1 (3D coordinates assigned)
Cc1cccnc1Oc1ccc(/N=c2/[n-]c3ccccc3s2)cc1 (optimized conformer: 90.10999412420179 kcal/mol)

>  <smiles>  (2) 
Cc1cccnc1Oc1ccc(N=c2[nH]c3ccccc3s2)cc1

>  <score_type>  (2) 
oracle

>  <origin>  (2) 
adgpu

>  <m_score__min__energy>  (2) 
-10.76

>  <m_primary>  (2) 
energy

$$$$
2:0
     RDKit          3D

 48 51  0  0  0  0  0  0  0  0999 V2000
   -4.5940   24.9180  -30.9480 O   0  0  0  0  0  0  0  0  0  0  0  0
   -4.6730   23.6670  -30.8250 C   0  0  0  0  0  0  0  0  0  0  0  0
   -3.4970   22.9410  -30.4490 N   0  0  0  0  0  0  0  0  0  0  0  0
   -2.7090   22.1250  -31.3250 C   0  0  0  0  0  0  0  0  0  0  0  0
   -1.5820   21.4720  -30.8130 C   0  0  0  0  0  0  0  0  0  0  0  0
   -0.8110   20.6430  -31.6330 C   0  0  0  0  0  0  0  0  0  0  0  0
   -1.1780   20.4440  -32.9680 C   0  0  0  0  0  0  0  0  0  0  0  0
   -0.4350   19.6350  -33.7630 F   0  0  0  0  0  0  0  0  0  0  0  0
   -2.3160   21.0730  -33.4800 C   0  0  0  0  0  0  0  0  0  0  0  0
   -3.0780   21.9170  -32.6650 C   0  0  0  0  0  0  0  0  0  0  0  0
   -5.9470   22.9790  -31.1500 C   0  0  0  0  0  0  0  0  0  0  0  0
   -7.0980   23.7300  -31.4450 C   0  0  0  0  0  0  0  0  0  0  0  0
   -8.2750   23.0950  -31.8460 C   0  0  0  0  0  0  0  0  0  0  0  0
   -8.3190   21.7050  -31.9570 C   0  0  0  0  0  0  0  0  0  0  0  0
   -7.1980   20.9340  -31.6270 C   0  0  0  0  0  0  0  0  0  0  0  0
   -7.2580   19.1710  -31.7850 S   0  0  0  0  0  0  0  0  0  0  0  0
   -6.1060   18.6000  -31.0070 O   0  0  0  0  0  0  0  0  0  0  0  0
   -8.5280   18.6650  -31.1570 O   0  0  0  0  0  0  0  0  0  0  0  0
   -7.1660   18.5840  -33.4400 N   0  0  1  0  0  0  0  0  0  0  0  0
   -6.2550   19.3710  -34.2930 C   0  0  0  0  0  0  0  0  0  0  0  0
   -4.7770   19.1850  -33.9270 C   0  0  0  0  0  0  0  0  0  0  0  0
   -4.4280   17.7610  -33.5900 C   0  0  0  0  0  0  0  0  0  0  0  0
   -3.0800   17.4080  -33.4250 C   0  0  0  0  0  0  0  0  0  0  0  0
   -2.7280   16.1060  -33.0570 C   0  0  0  0  0  0  0  0  0  0  0  0
   -3.7180   15.1470  -32.8530 C   0  0  0  0  0  0  0  0  0  0  0  0
   -5.0640   15.4870  -33.0060 C   0  0  0  0  0  0  0  0  0  0  0  0
   -5.4300   16.7980  -33.3510 C   0  0  0  0  0  0  0  0  0  0  0  0
   -6.8910   17.1360  -33.5190 C   0  0  0  0  0  0  0  0  0  0  0  0
   -6.0080   21.5760  -31.2470 C   0  0  0  0  0  0  0  0  0  0  0  0
   -1.3011   21.6120  -29.7587 H   0  0  0  0  0  0  0  0  0  0  0  0
    0.0839   20.1474  -31.2286 H   0  0  0  0  0  0  0  0  0  0  0  0
   -2.6131   20.9042  -34.5256 H   0  0  0  0  0  0  0  0  0  0  0  0
   -3.9675   22.4187  -33.0737 H   0  0  0  0  0  0  0  0  0  0  0  0
   -7.0712   24.8263  -31.3593 H   0  0  0  0  0  0  0  0  0  0  0  0
   -9.1699   23.6922  -32.0750 H   0  0  0  0  0  0  0  0  0  0  0  0
   -9.2388   21.2125  -32.3054 H   0  0  0  0  0  0  0  0  0  0  0  0
   -8.1280   18.7250  -33.8300 H   0  0  0  0  0  0  0  0  0  0  0  0
   -6.3985   19.0604  -35.3384 H   0  0  0  0  0  0  0  0  0  0  0  0
   -6.4993   20.4328  -34.1416 H   0  0  0  0  0  0  0  0  0  0  0  0
   -4.1618   19.5036  -34.7814 H   0  0  0  0  0  0  0  0  0  0  0  0
   -4.5818   19.7919  -33.0305 H   0  0  0  0  0  0  0  0  0  0  0  0
   -2.2946   18.1611  -33.5863 H   0  0  0  0  0  0  0  0  0  0  0  0
   -1.6688   15.8385  -32.9284 H   0  0  0  0  0  0  0  0  0  0  0  0
   -3.4392   14.1209  -32.5711 H   0  0  0  0  0  0  0  0  0  0  0  0
   -5.8416   14.7236  -32.8554 H   0  0  0  0  0  0  0  0  0  0  0  0
   -7.2237   16.7701  -34.5016 H   0  0  0  0  0  0  0  0  0  0  0  0
   -7.4348   16.6546  -32.6928 H   0  0  0  0  0  0  0  0  0  0  0  0
   -5.1138   20.9759  -31.0227 H   0  0  0  0  0  0  0  0  0  0  0  0
  1  2  2  0
  2  3  1  0
  3  4  1  0
  4  5  2  0
  5  6  1  0
  6  7  2  0
  7  8  1  0
  7  9  1  0
  9 10  2  0
  2 11  1  0
 11 12  2  0
 12 13  1  0
 13 14  2  0
 14 15  1  0
 15 16  1  0
 16 17  2  0
 16 18  2  0
 16 19  1  0
 19 20  1  0
 20 21  1  0
 21 22  1  0
 22 23  2  0
 23 24  1  0
 24 25  2  0
 25 26  1  0
 26 27  2  0
 27 28  1  0
 15 29  2  0
 10  4  1  0
 29 11  1  0
 28 19  1  0
 27 22  1  0
  5 30  1  0
  6 31  1  0
  9 32  1  0
 10 33  1  0
 12 34  1  0
 13 35  1  0
 14 36  1  0
 19 37  1  6
 20 38  1  0
 20 39  1  0
 21 40  1  0
 21 41  1  0
 23 42  1  0
 24 43  1  0
 25 44  1  0
 26 45  1  0
 28 46  1  0
 28 47  1  0
 29 48  1  0
M  CHG  2   3  -1  19   1
M  END
>  <UniqueID>  (3) 
3

>  <SMILES>  (3) 
O=C([N-]c1ccc(F)cc1)c1cccc(S(=O)(=O)[N@H+]2CCc3ccccc3C2)c1

>  <Energy>  (3) 
60.069817062570785

>  <Genealogy>  (3) 
O=C([N-]c1ccc(F)cc1)c1cccc(S(=O)(=O)[NH+]2CCc3ccccc3C2)c1 (protonated)
O=C([N-]c1ccc(F)cc1)c1cccc(S(=O)(=O)[N@H+]2CCc3ccccc3C2)c1 (chirality)
O=C([N-]c1ccc(F)cc1)c1cccc(S(=O)(=O)[N@H+]2CCc3ccccc3C2)c1 (3D coordinates assigned)
O=C([N-]c1ccc(F)cc1)c1cccc(S(=O)(=O)[N@H+]2CCc3ccccc3C2)c1 (nonaromatic ring conformer: 60.069817062570785 kcal/mol)

>  <smiles>  (3) 
O=C(Nc1ccc(F)cc1)c1cccc(S(=O)(=O)N2CCc3ccccc3C2)c1

>  <score_type>  (3) 
oracle

>  <origin>  (3) 
adgpu

>  <m_score__min__energy>  (3) 
-10.470000000000001

>  <m_primary>  (3) 
energy

$$$$
3:0
     RDKit          3D

 36 37  0  0  1  0  0  0  0  0999 V2000
   -5.3700   16.5060  -32.2800 C   0  0  0  0  0  0  0  0  0  0  0  0
   -6.2680   16.7570  -33.4430 C   0  0  0  0  0  0  0  0  0  0  0  0
   -5.7230   17.6970  -34.4860 C   0  0  2  0  0  0  0  0  0  0  0  0
   -4.6500   17.0520  -35.3340 C   0  0  0  0  0  0  0  0  0  0  0  0
   -5.1300   18.8880  -33.9130 N   0  0  0  0  0  0  0  0  0  0  0  0
   -5.8690   19.7520  -33.2770 C   0  0  0  0  0  0  0  0  0  0  0  0
   -5.2800   20.8990  -32.7280 C   0  0  0  0  0  0  0  0  0  0  0  0
   -6.0340   21.8400  -32.0460 C   0  0  0  0  0  0  0  0  0  0  0  0
   -5.4380   23.0240  -31.4770 C   0  0  0  0  0  0  0  0  0  0  0  0
   -6.1280   24.2180  -31.3900 C   0  0  0  0  0  0  0  0  0  0  0  0
   -5.5200   25.3490  -30.8330 C   0  0  0  0  0  0  0  0  0  0  0  0
   -4.2630   25.3280  -30.3660 N   0  0  0  0  0  0  0  0  0  0  0  0
   -3.5790   24.1830  -30.4400 C   0  0  0  0  0  0  0  0  0  0  0  0
   -4.1460   23.0280  -30.9900 C   0  0  0  0  0  0  0  0  0  0  0  0
   -7.3540   21.5770  -31.9470 N   0  0  0  0  0  0  0  0  0  0  0  0
   -7.9210   20.4720  -32.4760 C   0  0  0  0  0  0  0  0  0  0  0  0
   -9.3980   20.2350  -32.3320 C   0  0  0  0  0  0  0  0  0  0  0  0
   -7.2040   19.5500  -33.1410 N   0  0  0  0  0  0  0  0  0  0  0  0
   -5.9284   16.6621  -31.3452 H   0  0  0  0  0  0  0  0  0  0  0  0
   -5.0012   15.4704  -32.3183 H   0  0  0  0  0  0  0  0  0  0  0  0
   -4.5177   17.2003  -32.3183 H   0  0  0  0  0  0  0  0  0  0  0  0
   -6.4724   15.7916  -33.9291 H   0  0  0  0  0  0  0  0  0  0  0  0
   -7.1659   17.2436  -33.0345 H   0  0  0  0  0  0  0  0  0  0  0  0
   -6.5992   17.9614  -35.0962 H   0  0  0  0  0  0  0  0  0  0  0  0
   -3.8913   16.5960  -34.6810 H   0  0  0  0  0  0  0  0  0  0  0  0
   -5.1018   16.2756  -35.9690 H   0  0  0  0  0  0  0  0  0  0  0  0
   -4.1763   17.8152  -35.9690 H   0  0  0  0  0  0  0  0  0  0  0  0
   -4.1970   21.0553  -32.8409 H   0  0  0  0  0  0  0  0  0  0  0  0
   -7.1617   24.2801  -31.7609 H   0  0  0  0  0  0  0  0  0  0  0  0
   -6.0924   26.2866  -30.7764 H   0  0  0  0  0  0  0  0  0  0  0  0
   -2.5473   24.1473  -30.0602 H   0  0  0  0  0  0  0  0  0  0  0  0
   -3.5503   22.1044  -31.0353 H   0  0  0  0  0  0  0  0  0  0  0  0
   -8.0140   22.2230  -31.4510 H   0  0  0  0  0  0  0  0  0  0  0  0
   -9.6602   20.1929  -31.2645 H   0  0  0  0  0  0  0  0  0  0  0  0
   -9.9497   21.0561  -32.8130 H   0  0  0  0  0  0  0  0  0  0  0  0
   -9.6651   19.2825  -32.8130 H   0  0  0  0  0  0  0  0  0  0  0  0
  1  2  1  0
  2  3  1  0
  3  4  1  0
  3  5  1  0
  5  6  2  0
  6  7  1  0
  7  8  2  0
  8  9  1  0
  9 10  2  0
 10 11  1  0
 11 12  2  0
 12 13  1  0
 13 14  2  0
  8 15  1  0
 15 16  1  0
 16 17  1  0
 16 18  2  0
 18  6  1  0
 14  9  1  0
  1 19  1  0
  1 20  1  0
  1 21  1  0
  2 22  1  0
  2 23  1  0
  3 24  1  6
  4 25  1  0
  4 26  1  0
  4 27  1  0
  7 28  1  0
 10 29  1  0
 11 30  1  0
 13 31  1  0
 14 32  1  0
 15 33  1  0
 17 34  1  0
 17 35  1  0
 17 36  1  0
M  END
>  <smiles>  (4) 
CCC(C)N=c1cc(-c2ccncc2)[nH]c(C)n1

>  <score_type>  (4) 
oracle

>  <origin>  (4) 
adgpu

>  <m_score__min__energy>  (4) 
-6.8600000000000003

>  <m_primary>  (4) 
energy

$$$$
4:0
     RDKit          3D

 43 46  0  0  1  0  0  0  0  0999 V2000
   -3.2830   18.1790  -25.5970 N   0  0  0  0  0  0  0  0  0  0  0  0
   -2.4450   18.7520  -26.3810 C   0  0  0  0  0  0  0  0  0  0  0  0
   -2.6690   20.0290  -26.9090 C   0  0  0  0  0  0  0  0  0  0  0  0
   -1.7490   20.6100  -27.7430 C   0  0  0  0  0  0  0  0  0  0  0  0
   -1.9640   21.9320  -28.2990 C   0  0  0  0  0  0  0  0  0  0  0  0
   -1.1120   22.9900  -28.1580 C   0  0  0  0  0  0  0  0  0  0  0  0
   -1.3490   24.2460  -28.7050 C   0  0  0  0  0  0  0  0  0  0  0  0
   -2.4880   24.3990  -29.4050 N   0  0  0  0  0  0  0  0  0  0  0  0
   -3.3760   23.4150  -29.5890 C   0  0  0  0  0  0  0  0  0  0  0  0
   -4.5860   23.5770  -30.3330 N   0  0  0  0  0  0  0  0  0  0  0  0
   -5.3390   24.7950  -30.5720 C   0  0  0  0  0  0  0  0  0  0  0  0
   -6.7430   24.2500  -30.8390 C   0  0  0  0  0  0  0  0  0  0  0  0
   -6.4100   23.0790  -31.7290 C   0  0  2  0  0  0  0  0  0  0  0  0
   -7.5220   22.1550  -31.9650 C   0  0  0  0  0  0  0  0  0  0  0  0
   -7.2440   20.9080  -32.4870 C   0  0  0  0  0  0  0  0  0  0  0  0
   -8.2270   19.9960  -32.7330 C   0  0  0  0  0  0  0  0  0  0  0  0
   -9.5330   20.3330  -32.4510 C   0  0  0  0  0  0  0  0  0  0  0  0
   -9.8680   21.5540  -31.9320 C   0  0  0  0  0  0  0  0  0  0  0  0
   -8.8350   22.4480  -31.6990 C   0  0  0  0  0  0  0  0  0  0  0  0
   -5.2590   22.4570  -30.9890 C   0  0  0  0  0  0  0  0  0  0  0  0
   -3.1280   22.1670  -29.0390 C   0  0  0  0  0  0  0  0  0  0  0  0
   -0.6390   19.9080  -28.0280 N   0  0  0  0  0  0  0  0  0  0  0  0
   -0.4490   18.6840  -27.5080 C   0  0  0  0  0  0  0  0  0  0  0  0
   -1.3220   18.0780  -26.6870 N   0  0  0  0  0  0  0  0  0  0  0  0
   -4.1810   18.6210  -25.3020 H   0  0  0  0  0  0  0  0  0  0  0  0
   -3.5912   20.5710  -26.6525 H   0  0  0  0  0  0  0  0  0  0  0  0
   -0.1880   22.8403  -27.5802 H   0  0  0  0  0  0  0  0  0  0  0  0
   -0.6389   25.0755  -28.5718 H   0  0  0  0  0  0  0  0  0  0  0  0
   -5.3261   25.4529  -29.6906 H   0  0  0  0  0  0  0  0  0  0  0  0
   -4.9386   25.4121  -31.3898 H   0  0  0  0  0  0  0  0  0  0  0  0
   -7.2385   23.9285  -29.9110 H   0  0  0  0  0  0  0  0  0  0  0  0
   -7.4446   24.9763  -31.2753 H   0  0  0  0  0  0  0  0  0  0  0  0
   -6.1704   23.3789  -32.7599 H   0  0  0  0  0  0  0  0  0  0  0  0
   -6.2002   20.6426  -32.7108 H   0  0  0  0  0  0  0  0  0  0  0  0
   -7.9818   19.0079  -33.1495 H   0  0  0  0  0  0  0  0  0  0  0  0
  -10.3288   19.5997  -32.6487 H   0  0  0  0  0  0  0  0  0  0  0  0
  -10.9131   21.8149  -31.7091 H   0  0  0  0  0  0  0  0  0  0  0  0
   -9.0791   23.4363  -31.2823 H   0  0  0  0  0  0  0  0  0  0  0  0
   -5.6229   21.7339  -30.2442 H   0  0  0  0  0  0  0  0  0  0  0  0
   -4.5852   21.9037  -31.6598 H   0  0  0  0  0  0  0  0  0  0  0  0
   -3.8535   21.3533  -29.1858 H   0  0  0  0  0  0  0  0  0  0  0  0
    0.4748   18.1473  -27.7698 H   0  0  0  0  0  0  0  0  0  0  0  0
   -1.1300   17.1220  -26.3060 H   0  0  0  0  0  0  0  0  0  0  0  0
  1  2  2  3
  2  3  1  0
  3  4  2  0
  4  5  1  0
  5  6  2  0
  6  7  1  0
  7  8  2  0
  8  9  1  0
  9 10  1  0
 10 11  1  0
 11 12  1  0
 12 13  1  0
 13 14  1  0
 14 15  2  0
 15 16  1  0
 16 17  2  0
 17 18  1  0
 18 19  2  0
 13 20  1  0
  9 21  2  0
  4 22  1  0
 22 23  2  0
 23 24  1  0
 24  2  1  0
 21  5  1  0
 20 10  1  0
 19 14  1  0
  1 25  1  0
  3 26  1  0
  6 27  1  0
  7 28  1  0
 11 29  1  0
 11 30  1  0
 12 31  1  0
 12 32  1  0
 13 33  1  6
 15 34  1  0
 16 35  1  0
 17 36  1  0
 18 37  1  0
 19 38  1  0
 20 39  1  0
 20 40  1  0
 21 41  1  0
 23 42  1  0
 24 43  1  0
M  END
>  <smiles>  (5) 
N=c1cc(-c2ccnc(N3CCC(c4ccccc4)C3)c2)nc[nH]1

>  <score_type>  (5) 
oracle

>  <origin>  (5) 
adgpu

>  <m_score__min__energy>  (5) 
-9.3699999999999992

>  <m_primary>  (5) 
energy

$$$$
5:0
     RDKit          3D

 49 51  0  0  0  0  0  0  0  0999 V2000
   -0.0150   18.4406  -34.4550 H   0  0  0  0  0  0  0  0  0  0  0  0
   -0.8740   18.5520  -33.7770 C   0  0  0  0  0  0  0  0  0  0  0  0
   -0.8220   17.8050  -32.4950 C   0  0  0  0  0  0  0  0  0  0  0  0
   -1.4560   16.7270  -32.3480 O   0  0  0  0  0  0  0  0  0  0  0  0
   -0.0280   18.2780  -31.3990 N   0  0  0  0  0  0  0  0  0  0  0  0
   -0.2310   19.4970  -30.6700 C   0  0  0  0  0  0  0  0  0  0  0  0
   -0.3360   20.7010  -31.3770 C   0  0  0  0  0  0  0  0  0  0  0  0
   -0.2875   20.6952  -32.4759 H   0  0  0  0  0  0  0  0  0  0  0  0
   -0.5020   21.9100  -30.6960 C   0  0  0  0  0  0  0  0  0  0  0  0
   -0.5944   22.8496  -31.2605 H   0  0  0  0  0  0  0  0  0  0  0  0
   -0.5510   21.9280  -29.2950 C   0  0  0  0  0  0  0  0  0  0  0  0
   -0.7470   23.4480  -28.4290 S   0  0  0  0  0  0  0  0  0  0  0  0
   -1.4250   23.1590  -27.1200 O   0  0  0  0  0  0  0  0  0  0  0  0
    0.6060   24.0600  -28.2010 O   0  0  0  0  0  0  0  0  0  0  0  0
   -1.7120   24.5130  -29.4040 N   0  0  0  0  0  0  0  0  0  0  0  0
   -2.9470   24.3830  -29.7980 C   0  0  0  0  0  0  0  0  0  0  0  0
   -3.5320   25.3010  -30.5310 O   0  0  0  0  0  0  0  0  0  0  0  0
   -4.7550   24.9710  -30.8210 N   0  0  0  0  0  0  0  0  0  0  0  0
   -4.9880   23.7740  -30.2490 C   0  0  0  0  0  0  0  0  0  0  0  0
   -6.2870   23.0440  -30.3710 C   0  0  0  0  0  0  0  0  0  0  0  0
   -6.6794   22.8235  -29.3673 H   0  0  0  0  0  0  0  0  0  0  0  0
   -7.0087   23.6687  -30.9177 H   0  0  0  0  0  0  0  0  0  0  0  0
   -6.1287   22.1027  -30.9177 H   0  0  0  0  0  0  0  0  0  0  0  0
   -3.8560   23.3490  -29.5680 C   0  0  0  0  0  0  0  0  0  0  0  0
   -3.7020   22.0370  -28.8560 C   0  0  0  0  0  0  0  0  0  0  0  0
   -3.7217   22.2051  -27.7691 H   0  0  0  0  0  0  0  0  0  0  0  0
   -4.5277   21.3674  -29.1385 H   0  0  0  0  0  0  0  0  0  0  0  0
   -2.7437   21.5768  -29.1385 H   0  0  0  0  0  0  0  0  0  0  0  0
   -0.4090   20.7300  -28.5830 C   0  0  0  0  0  0  0  0  0  0  0  0
   -0.4273   20.7403  -27.4832 H   0  0  0  0  0  0  0  0  0  0  0  0
   -0.2440   19.5210  -29.2660 C   0  0  0  0  0  0  0  0  0  0  0  0
   -0.1239   18.5848  -28.7011 H   0  0  0  0  0  0  0  0  0  0  0  0
   -1.8730   19.3510  -34.1850 C   0  0  0  0  0  0  0  0  0  0  0  0
   -1.7080   19.9344  -35.1029 H   0  0  0  0  0  0  0  0  0  0  0  0
   -3.1730   19.5130  -33.5070 C   0  0  0  0  0  0  0  0  0  0  0  0
   -3.4390   20.6910  -32.7970 C   0  0  0  0  0  0  0  0  0  0  0  0
   -2.6632   21.4664  -32.7141 H   0  0  0  0  0  0  0  0  0  0  0  0
   -4.6850   20.8870  -32.1930 C   0  0  0  0  0  0  0  0  0  0  0  0
   -4.8791   21.8076  -31.6230 H   0  0  0  0  0  0  0  0  0  0  0  0
   -5.6920   19.9100  -32.3120 C   0  0  0  0  0  0  0  0  0  0  0  0
   -6.9570   20.0580  -31.7240 O   0  0  0  0  0  0  0  0  0  0  0  0
   -8.1580   19.5030  -32.2520 C   0  0  0  0  0  0  0  0  0  0  0  0
   -8.8161   19.1989  -31.4247 H   0  0  0  0  0  0  0  0  0  0  0  0
   -8.6694   20.2561  -32.8695 H   0  0  0  0  0  0  0  0  0  0  0  0
   -7.9159   18.6255  -32.8695 H   0  0  0  0  0  0  0  0  0  0  0  0
   -5.4320   18.7470  -33.0480 C   0  0  0  0  0  0  0  0  0  0  0  0
   -6.2142   17.9806  -33.1520 H   0  0  0  0  0  0  0  0  0  0  0  0
   -4.1870   18.5530  -33.6510 C   0  0  0  0  0  0  0  0  0  0  0  0
   -4.0003   17.6438  -34.2414 H   0  0  0  0  0  0  0  0  0  0  0  0
  1  2  1  0
  2  3  1  0
  3  4  2  0
  3  5  1  0
  5  6  1  0
  6  7  2  0
  7  8  1  0
  7  9  1  0
  9 10  1  0
  9 11  2  0
 11 12  1  0
 12 13  2  0
 12 14  2  0
 12 15  1  0
 15 16  2  3
 16 17  1  0
 17 18  1  0
 18 19  1  0
 19 20  1  0
 20 21  1  0
 20 22  1  0
 20 23  1  0
 19 24  2  0
 24 25  1  0
 25 26  1  0
 25 27  1  0
 25 28  1  0
 11 29  1  0
 29 30  1  0
 29 31  2  0
 31 32  1  0
  2 33  2  0
 33 34  1  0
 33 35  1  0
 35 36  2  0
 36 37  1  0
 36 38  1  0
 38 39  1  0
 38 40  2  0
 40 41  1  0
 41 42  1  0
 42 43  1  0
 42 44  1  0
 42 45  1  0
 40 46  1  0
 46 47  1  0
 46 48  2  0
 48 49  1  0
 31  6  1  0
 48 35  1  0
 24 16  1  0
M  CHG  2   5  -1  18  -1
M  END
>  <UniqueID>  (6) 
4

>  <SMILES>  (6) 
COc1ccc(/C=C\C(=O)[N-]c2ccc(S(=O)(=O)N=c3o[n-]c(C)c3C)cc2)cc1

>  <Energy>  (6) 
104.16967957404762

>  <Genealogy>  (6) 
COc1ccc(C=CC(=O)[N-]c2ccc(S(=O)(=O)N=c3o[n-]c(C)c3C)cc2)cc1 (protonated)
COc1ccc(/C=C\C(=O)[N-]c2ccc(S(=O)(=O)N=c3o[n-]c(C)c3C)cc2)cc1 (cis-trans isomerization)
COc1ccc(/C=C\C(=O)[N-]c2ccc(S(=O)(=O)N=c3o[n-]c(C)c3C)cc2)cc1 (3D coordinates assigned)
COc1ccc(/C=C\C(=O)[N-]c2ccc(S(=O)(=O)N=c3o[n-]c(C)c3C)cc2)cc1 (optimized conformer: 104.16967957404762 kcal/mol)

>  <smiles>  (6) 
COc1ccc(C=CC(=O)Nc2ccc(S(=O)(=O)N=c3o[nH]c(C)c3C)cc2)cc1

>  <score_type>  (6) 
oracle

>  <origin>  (6) 
adgpu

>  <m_score__min__energy>  (6) 
-11.1

>  <m_primary>  (6) 
energy

$$$$
6:0
     RDKit          3D

 55 58  0  0  0  0  0  0  0  0999 V2000
   -4.9730   17.7200  -33.8180 C   0  0  0  0  0  0  0  0  0  0  0  0
   -5.3770   17.0600  -32.6540 C   0  0  0  0  0  0  0  0  0  0  0  0
   -6.4650   17.5390  -31.9180 C   0  0  0  0  0  0  0  0  0  0  0  0
   -7.1630   18.6800  -32.3490 C   0  0  0  0  0  0  0  0  0  0  0  0
   -8.3140   19.2160  -31.5400 C   0  0  0  0  0  0  0  0  0  0  0  0
   -9.2080   20.1160  -32.4060 C   0  0  0  0  0  0  0  0  0  0  0  0
   -9.8530   21.2700  -31.6190 C   0  0  0  0  0  0  0  0  0  0  0  0
   -9.2970   22.6610  -31.9770 C   0  0  0  0  0  0  0  0  0  0  0  0
   -7.8110   22.7570  -31.8170 C   0  0  0  0  0  0  0  0  0  0  0  0
   -7.2130   23.1540  -30.6720 N   0  0  0  0  0  0  0  0  0  0  0  0
   -5.8960   23.0790  -30.9570 C   0  0  0  0  0  0  0  0  0  0  0  0
   -4.8350   23.4540  -30.0010 C   0  0  0  0  0  0  0  0  0  0  0  0
   -4.8880   23.0390  -28.6580 C   0  0  0  0  0  0  0  0  0  0  0  0
   -3.8640   23.3880  -27.7720 C   0  0  0  0  0  0  0  0  0  0  0  0
   -2.7750   24.1410  -28.2200 C   0  0  0  0  0  0  0  0  0  0  0  0
   -2.7040   24.5390  -29.5580 C   0  0  0  0  0  0  0  0  0  0  0  0
   -3.7250   24.1900  -30.4470 C   0  0  0  0  0  0  0  0  0  0  0  0
   -5.7560   22.6200  -32.2530 C   0  0  0  0  0  0  0  0  0  0  0  0
   -4.5380   22.3300  -32.9480 N   0  0  0  0  0  0  0  0  0  0  0  0
   -3.8490   21.0520  -32.7850 C   0  0  0  0  0  0  0  0  0  0  0  0
   -2.8550   21.1240  -31.6550 C   0  0  0  0  0  0  0  0  0  0  0  0
   -1.5480   21.5900  -31.8820 C   0  0  0  0  0  0  0  0  0  0  0  0
   -0.6210   21.6210  -30.8350 C   0  0  0  0  0  0  0  0  0  0  0  0
   -0.9910   21.1900  -29.5590 C   0  0  0  0  0  0  0  0  0  0  0  0
   -2.2890   20.7260  -29.3260 C   0  0  0  0  0  0  0  0  0  0  0  0
   -3.2190   20.6910  -30.3700 C   0  0  0  0  0  0  0  0  0  0  0  0
   -6.9480   22.4330  -32.7550 O   0  0  0  0  0  0  0  0  0  0  0  0
   -6.7430   19.3450  -33.5130 C   0  0  0  0  0  0  0  0  0  0  0  0
   -5.6540   18.8630  -34.2450 C   0  0  0  0  0  0  0  0  0  0  0  0
   -4.1191   17.3397  -34.3978 H   0  0  0  0  0  0  0  0  0  0  0  0
   -4.8381   16.1624  -32.3165 H   0  0  0  0  0  0  0  0  0  0  0  0
   -6.7756   17.0211  -30.9986 H   0  0  0  0  0  0  0  0  0  0  0  0
   -8.9102   18.3745  -31.1572 H   0  0  0  0  0  0  0  0  0  0  0  0
   -7.9151   19.8097  -30.7043 H   0  0  0  0  0  0  0  0  0  0  0  0
   -8.5955   20.5434  -33.2136 H   0  0  0  0  0  0  0  0  0  0  0  0
  -10.0246   19.4889  -32.7932 H   0  0  0  0  0  0  0  0  0  0  0  0
  -10.9338   21.2665  -31.8237 H   0  0  0  0  0  0  0  0  0  0  0  0
   -9.6220   21.0989  -30.5572 H   0  0  0  0  0  0  0  0  0  0  0  0
   -9.5516   22.8812  -33.0242 H   0  0  0  0  0  0  0  0  0  0  0  0
   -9.7497   23.3845  -31.2830 H   0  0  0  0  0  0  0  0  0  0  0  0
   -5.7381   22.4377  -28.3034 H   0  0  0  0  0  0  0  0  0  0  0  0
   -3.9156   23.0693  -26.7204 H   0  0  0  0  0  0  0  0  0  0  0  0
   -1.9740   24.4203  -27.5197 H   0  0  0  0  0  0  0  0  0  0  0  0
   -1.8443   25.1271  -29.9117 H   0  0  0  0  0  0  0  0  0  0  0  0
   -3.6586   24.4937  -31.5022 H   0  0  0  0  0  0  0  0  0  0  0  0
   -4.1220   23.0420  -33.5880 H   0  0  0  0  0  0  0  0  0  0  0  0
   -4.5889   20.2681  -32.5658 H   0  0  0  0  0  0  0  0  0  0  0  0
   -3.3108   20.8188  -33.7156 H   0  0  0  0  0  0  0  0  0  0  0  0
   -1.2537   21.9311  -32.8855 H   0  0  0  0  0  0  0  0  0  0  0  0
    0.4009   21.9853  -31.0168 H   0  0  0  0  0  0  0  0  0  0  0  0
   -0.2606   21.2157  -28.7369 H   0  0  0  0  0  0  0  0  0  0  0  0
   -2.5792   20.3880  -28.3203 H   0  0  0  0  0  0  0  0  0  0  0  0
   -4.2388   20.3231  -30.1838 H   0  0  0  0  0  0  0  0  0  0  0  0
   -7.2730   20.2482  -33.8496 H   0  0  0  0  0  0  0  0  0  0  0  0
   -5.3326   19.3844  -35.1587 H   0  0  0  0  0  0  0  0  0  0  0  0
  1  2  2  0
  2  3  1  0
  3  4  2  0
  4  5  1  0
  5  6  1  0
  6  7  1  0
  7  8  1  0
  8  9  1  0
  9 10  2  0
 10 11  1  0
 11 12  1  0
 12 13  2  0
 13 14  1  0
 14 15  2  0
 15 16  1  0
 16 17  2  0
 11 18  2  0
 18 19  1  0
 19 20  1  0
 20 21  1  0
 21 22  2  0
 22 23  1  0
 23 24  2  0
 24 25  1  0
 25 26  2  0
 18 27  1  0
  4 28  1  0
 28 29  2  0
 29  1  1  0
 27  9  1  0
 17 12  1  0
 26 21  1  0
  1 30  1  0
  2 31  1  0
  3 32  1  0
  5 33  1  0
  5 34  1  0
  6 35  1  0
  6 36  1  0
  7 37  1  0
  7 38  1  0
  8 39  1  0
  8 40  1  0
 13 41  1  0
 14 42  1  0
 15 43  1  0
 16 44  1  0
 17 45  1  0
 19 46  1  0
 20 47  1  0
 20 48  1  0
 22 49  1  0
 23 50  1  0
 24 51  1  0
 25 52  1  0
 26 53  1  0
 28 54  1  0
 29 55  1  0
M  END
>  <UniqueID>  (7) 
5

>  <SMILES>  (7) 
c1ccc(CCCCc2nc(-c3ccccc3)c(NCc3ccccc3)o2)cc1

>  <Energy>  (7) 
84.1271792551265

>  <Genealogy>  (7) 
c1ccc(CCCCc2nc(-c3ccccc3)c(NCc3ccccc3)o2)cc1 (3D coordinates assigned)
c1ccc(CCCCc2nc(-c3ccccc3)c(NCc3ccccc3)o2)cc1 (optimized conformer: 84.1271792551265 kcal/mol)

>  <smiles>  (7) 
c1ccc(CCCCc2nc(-c3ccccc3)c(NCc3ccccc3)o2)cc1

>  <score_type>  (7) 
oracle

>  <origin>  (7) 
adgpu

>  <m_score__min__energy>  (7) 
-10.300000000000001

>  <m_primary>  (7) 
energy

$$$$
7:0
     RDKit          3D

 46 48  0  0  0  0  0  0  0  0999 V2000
   -3.5519   22.7803  -31.9074 H   0  0  0  0  0  0  0  0  0  0  0  0
   -4.5200   23.0190  -31.4430 C   0  0  0  0  0  0  0  0  0  0  0  0
   -5.6480   22.2610  -31.7600 C   0  0  0  0  0  0  0  0  0  0  0  0
   -5.5632   21.4197  -32.4636 H   0  0  0  0  0  0  0  0  0  0  0  0
   -6.8880   22.5680  -31.1850 C   0  0  0  0  0  0  0  0  0  0  0  0
   -8.3330   21.7020  -31.6960 S   0  0  0  0  0  0  0  0  0  0  0  0
   -8.9670   21.0560  -30.4980 O   0  0  0  0  0  0  0  0  0  0  0  0
   -9.3140   22.6490  -32.3270 O   0  0  0  0  0  0  0  0  0  0  0  0
   -7.9140   20.4750  -32.8500 N   0  0  0  0  0  0  0  0  0  0  0  0
   -7.2080   19.4280  -32.5510 C   0  0  0  0  0  0  0  0  0  0  0  0
   -6.7110   19.1660  -31.3260 N   0  0  0  0  0  0  0  0  0  0  0  0
   -6.1100   18.0140  -31.4180 O   0  0  0  0  0  0  0  0  0  0  0  0
   -6.1980   17.5310  -32.6380 C   0  0  0  0  0  0  0  0  0  0  0  0
   -5.6460   16.2150  -33.0680 C   0  0  0  0  0  0  0  0  0  0  0  0
   -5.3945   15.6153  -32.1808 H   0  0  0  0  0  0  0  0  0  0  0  0
   -6.3963   15.6818  -33.6703 H   0  0  0  0  0  0  0  0  0  0  0  0
   -4.7398   16.3766  -33.6703 H   0  0  0  0  0  0  0  0  0  0  0  0
   -6.9040   18.4130  -33.4280 C   0  0  0  0  0  0  0  0  0  0  0  0
   -7.1604   18.3265  -34.4942 H   0  0  0  0  0  0  0  0  0  0  0  0
   -6.9750   23.5950  -30.2350 C   0  0  0  0  0  0  0  0  0  0  0  0
   -7.9373   23.8135  -29.7489 H   0  0  0  0  0  0  0  0  0  0  0  0
   -5.8390   24.3430  -29.9040 C   0  0  0  0  0  0  0  0  0  0  0  0
   -5.9079   25.1369  -29.1458 H   0  0  0  0  0  0  0  0  0  0  0  0
   -4.6150   24.0850  -30.5340 C   0  0  0  0  0  0  0  0  0  0  0  0
   -3.5010   24.9450  -30.2690 N   0  0  0  0  0  0  0  0  0  0  0  0
   -2.4030   24.6870  -28.9530 S   0  0  0  0  0  0  0  0  0  0  0  0
   -1.2590   25.6550  -29.0590 O   0  0  0  0  0  0  0  0  0  0  0  0
   -3.1130   24.9130  -27.6470 O   0  0  0  0  0  0  0  0  0  0  0  0
   -1.7740   23.0440  -29.0610 C   0  0  0  0  0  0  0  0  0  0  0  0
   -1.9200   22.1440  -27.9970 C   0  0  0  0  0  0  0  0  0  0  0  0
   -2.3753   22.4791  -27.0534 H   0  0  0  0  0  0  0  0  0  0  0  0
   -1.4880   20.8200  -28.1320 C   0  0  0  0  0  0  0  0  0  0  0  0
   -1.5983   20.1212  -27.2897 H   0  0  0  0  0  0  0  0  0  0  0  0
   -0.9150   20.3770  -29.3340 C   0  0  0  0  0  0  0  0  0  0  0  0
   -0.4620   19.0150  -29.4410 N   0  0  0  0  0  0  0  0  0  0  0  0
   -0.8040   18.4440  -30.2460 H   0  0  0  0  0  0  0  0  0  0  0  0
    0.4960   18.4140  -28.5570 C   0  0  0  0  0  0  0  0  0  0  0  0
    1.2430   19.1300  -27.8360 O   0  0  0  0  0  0  0  0  0  0  0  0
    0.6890   16.9320  -28.5620 C   0  0  0  0  0  0  0  0  0  0  0  0
    0.7368   16.5650  -27.5261 H   0  0  0  0  0  0  0  0  0  0  0  0
   -0.1545   16.4541  -29.0818 H   0  0  0  0  0  0  0  0  0  0  0  0
    1.6268   16.6861  -29.0818 H   0  0  0  0  0  0  0  0  0  0  0  0
   -0.7460   21.2920  -30.3880 C   0  0  0  0  0  0  0  0  0  0  0  0
   -0.2673   20.9669  -31.3235 H   0  0  0  0  0  0  0  0  0  0  0  0
   -1.1830   22.6120  -30.2530 C   0  0  0  0  0  0  0  0  0  0  0  0
   -1.0616   23.3161  -31.0893 H   0  0  0  0  0  0  0  0  0  0  0  0
  1  2  1  0
  2  3  2  0
  3  4  1  0
  3  5  1  0
  5  6  1  0
  6  7  2  0
  6  8  2  0
  6  9  1  0
  9 10  2  0
 10 11  1  0
 11 12  1  0
 12 13  1  0
 13 14  1  0
 14 15  1  0
 14 16  1  0
 14 17  1  0
 13 18  2  0
 18 19  1  0
  5 20  2  0
 20 21  1  0
 20 22  1  0
 22 23  1  0
 22 24  2  0
 24 25  1  0
 25 26  1  0
 26 27  2  0
 26 28  2  0
 26 29  1  0
 29 30  2  0
 30 31  1  0
 30 32  1  0
 32 33  1  0
 32 34  2  0
 34 35  1  0
 35 36  1  0
 35 37  1  0
 37 38  2  0
 37 39  1  0
 39 40  1  0
 39 41  1  0
 39 42  1  0
 34 43  1  0
 43 44  1  0
 43 45  2  0
 45 46  1  0
 24  2  1  0
 45 29  1  0
 18 10  1  0
M  CHG  2  11  -1  25  -1
M  END
>  <UniqueID>  (8) 
6

>  <SMILES>  (8) 
CC(=O)Nc1ccc(S(=O)(=O)[N-]c2ccc(S(=O)(=O)/N=c3/cc(C)o[n-]3)cc2)cc1

>  <Energy>  (8) 
83.96740290772735

>  <Genealogy>  (8) 
CC(=O)Nc1ccc(S(=O)(=O)[N-]c2ccc(S(=O)(=O)N=c3cc(C)o[n-]3)cc2)cc1 (protonated)
CC(=O)Nc1ccc(S(=O)(=O)[N-]c2ccc(S(=O)(=O)/N=c3/cc(C)o[n-]3)cc2)cc1 (cis-trans isomerization)
CC(=O)Nc1ccc(S(=O)(=O)[N-]c2ccc(S(=O)(=O)/N=c3/cc(C)o[n-]3)cc2)cc1 (3D coordinates assigned)
CC(=O)Nc1ccc(S(=O)(=O)[N-]c2ccc(S(=O)(=O)/N=c3/cc(C)o[n-]3)cc2)cc1 (optimized conformer: 83.96740290772735 kcal/mol)

>  <smiles>  (8) 
CC(=O)Nc1ccc(S(=O)(=O)Nc2ccc(S(=O)(=O)N=c3cc(C)o[nH]3)cc2)cc1

>  <score_type>  (8) 
oracle

>  <origin>  (8) 
adgpu

>  <m_score__min__energy>  (8) 
-11.4

>  <m_primary>  (8) 
energy

$$$$
8:0
     RDKit          3D

 38 39  0  0  1  0  0  0  0  0999 V2000
   -0.1770   23.9080  -25.6030 C   0  0  0  0  0  0  0  0  0  0  0  0
    0.5160   23.5520  -26.7920 N   0  0  0  0  0  0  0  0  0  0  0  0
    0.4360   22.1900  -27.1980 C   0  0  0  0  0  0  0  0  0  0  0  0
    0.5900   24.5310  -27.8150 C   0  0  0  0  0  0  0  0  0  0  0  0
   -0.4410   25.6500  -27.6880 C   0  0  0  0  0  0  0  0  0  0  0  0
   -1.4300   25.6150  -28.7070 N   0  0  0  0  0  0  0  0  0  0  0  0
   -2.2580   24.6650  -28.9590 C   0  0  0  0  0  0  0  0  0  0  0  0
   -2.2320   23.5510  -28.2080 N   0  0  0  0  0  0  0  0  0  0  0  0
   -3.1160   22.5820  -28.4890 C   0  0  0  0  0  0  0  0  0  0  0  0
   -3.0950   21.1240  -27.5180 Cl  0  0  0  0  0  0  0  0  0  0  0  0
   -4.0490   22.6730  -29.5120 C   0  0  0  0  0  0  0  0  0  0  0  0
   -4.0390   23.8260  -30.2540 C   0  0  0  0  0  0  0  0  0  0  0  0
   -4.8350   24.0730  -31.2350 N   0  0  0  0  0  0  0  0  0  0  0  0
   -5.7920   23.0790  -31.5760 C   0  0  0  0  0  0  0  0  0  0  0  0
   -5.4910   21.9710  -32.3380 C   0  0  0  0  0  0  0  0  0  0  0  0
   -6.4690   21.0210  -32.6440 C   0  0  0  0  0  0  0  0  0  0  0  0
   -7.7770   21.1750  -32.1830 C   0  0  0  0  0  0  0  0  0  0  0  0
   -9.0210   19.9810  -32.5640 Cl  0  0  0  0  0  0  0  0  0  0  0  0
   -8.0830   22.3000  -31.4080 C   0  0  0  0  0  0  0  0  0  0  0  0
   -7.0900   23.2150  -31.1270 C   0  0  0  0  0  0  0  0  0  0  0  0
   -3.1360   24.7820  -29.9430 N   0  0  0  0  0  0  0  0  0  0  0  0
    0.4158   23.6034  -24.7279 H   0  0  0  0  0  0  0  0  0  0  0  0
   -0.3312   24.9969  -25.5805 H   0  0  0  0  0  0  0  0  0  0  0  0
   -1.1520   23.3991  -25.5805 H   0  0  0  0  0  0  0  0  0  0  0  0
    0.3980   21.5439  -26.3086 H   0  0  0  0  0  0  0  0  0  0  0  0
   -0.4725   22.0395  -27.7996 H   0  0  0  0  0  0  0  0  0  0  0  0
    1.3207   21.9341  -27.7996 H   0  0  0  0  0  0  0  0  0  0  0  0
    1.5930   24.9818  -27.7888 H   0  0  0  0  0  0  0  0  0  0  0  0
    0.3791   24.0137  -28.7626 H   0  0  0  0  0  0  0  0  0  0  0  0
   -0.9403   25.5569  -26.7123 H   0  0  0  0  0  0  0  0  0  0  0  0
    0.0971   26.6044  -27.7860 H   0  0  0  0  0  0  0  0  0  0  0  0
   -1.5430   23.4740  -27.4540 H   0  0  0  0  0  0  0  0  0  0  0  0
   -4.7614   21.8604  -29.7175 H   0  0  0  0  0  0  0  0  0  0  0  0
   -4.4655   21.8323  -32.7110 H   0  0  0  0  0  0  0  0  0  0  0  0
   -6.2055   20.1441  -33.2536 H   0  0  0  0  0  0  0  0  0  0  0  0
   -9.1038   22.4525  -31.0275 H   0  0  0  0  0  0  0  0  0  0  0  0
   -7.3444   24.0941  -30.5166 H   0  0  0  0  0  0  0  0  0  0  0  0
   -3.1150   25.6740  -30.5020 H   0  0  0  0  0  0  0  0  0  0  0  0
  1  2  1  0
  2  3  1  0
  2  4  1  0
  4  5  1  0
  5  6  1  0
  6  7  2  0
  7  8  1  0
  8  9  1  0
  9 10  1  0
  9 11  2  0
 11 12  1  0
 12 13  2  0
 13 14  1  0
 14 15  2  0
 15 16  1  0
 16 17  2  0
 17 18  1  0
 17 19  1  0
 19 20  2  0
 12 21  1  0
 21  7  1  0
 20 14  1  0
  1 22  1  0
  1 23  1  0
  1 24  1  0
  3 25  1  0
  3 26  1  0
  3 27  1  0
  4 28  1  0
  4 29  1  0
  5 30  1  0
  5 31  1  0
  8 32  1  0
 11 33  1  0
 15 34  1  0
 16 35  1  0
 19 36  1  0
 20 37  1  0
 21 38  1  0
M  END
>  <smiles>  (9) 
CN(C)CCN=c1[nH]c(Cl)cc(=Nc2ccc(Cl)cc2)[nH]1

>  <score_type>  (9) 
oracle

>  <origin>  (9) 
adgpu

>  <m_score__min__energy>  (9) 
-8.1600000000000001

>  <m_primary>  (9) 
energy

$$$$
9:0
     RDKit          3D

 31 32  0  0  0  0  0  0  0  0999 V2000
   -9.4020   19.2310  -32.2560 C   0  0  0  0  0  0  0  0  0  0  0  0
   -7.9720   18.9210  -32.5860 C   0  0  0  0  0  0  0  0  0  0  0  0
   -7.5440   17.5890  -32.6860 C   0  0  0  0  0  0  0  0  0  0  0  0
   -6.2210   17.3000  -33.0270 C   0  0  0  0  0  0  0  0  0  0  0  0
   -5.3200   18.3350  -33.2870 C   0  0  0  0  0  0  0  0  0  0  0  0
   -5.7380   19.6780  -33.2170 C   0  0  0  0  0  0  0  0  0  0  0  0
   -4.8390   20.7710  -33.4910 N   0  0  0  0  0  0  0  0  0  0  0  0
   -3.8640   21.3010  -32.5360 C   0  0  0  0  0  0  0  0  0  0  0  0
   -4.4060   22.5250  -31.8440 C   0  0  0  0  0  0  0  0  0  0  0  0
   -5.7610   22.8730  -31.9640 C   0  0  0  0  0  0  0  0  0  0  0  0
   -6.2560   24.0120  -31.3230 C   0  0  0  0  0  0  0  0  0  0  0  0
   -5.4000   24.8220  -30.5640 C   0  0  0  0  0  0  0  0  0  0  0  0
   -5.8880   25.9590  -29.9230 O   0  0  0  0  0  0  0  0  0  0  0  0
   -4.0450   24.4870  -30.4520 C   0  0  0  0  0  0  0  0  0  0  0  0
   -3.1880   25.2860  -29.7050 O   0  0  0  0  0  0  0  0  0  0  0  0
   -3.5490   23.3460  -31.0920 C   0  0  0  0  0  0  0  0  0  0  0  0
   -7.0690   19.9580  -32.8650 C   0  0  0  0  0  0  0  0  0  0  0  0
   -9.5286   19.2584  -31.1637 H   0  0  0  0  0  0  0  0  0  0  0  0
   -9.6728   20.2087  -32.6812 H   0  0  0  0  0  0  0  0  0  0  0  0
  -10.0533   18.4532  -32.6812 H   0  0  0  0  0  0  0  0  0  0  0  0
   -8.2526   16.7696  -32.4952 H   0  0  0  0  0  0  0  0  0  0  0  0
   -5.8874   16.2538  -33.0910 H   0  0  0  0  0  0  0  0  0  0  0  0
   -4.2776   18.0998  -33.5480 H   0  0  0  0  0  0  0  0  0  0  0  0
   -4.8450   21.1930  -34.4470 H   0  0  0  0  0  0  0  0  0  0  0  0
   -3.6401   20.5304  -31.7836 H   0  0  0  0  0  0  0  0  0  0  0  0
   -2.9503   21.5792  -33.0816 H   0  0  0  0  0  0  0  0  0  0  0  0
   -6.4360   22.2463  -32.5653 H   0  0  0  0  0  0  0  0  0  0  0  0
   -7.3205   24.2736  -31.4144 H   0  0  0  0  0  0  0  0  0  0  0  0
   -5.3760   26.4060  -29.1720 H   0  0  0  0  0  0  0  0  0  0  0  0
   -2.4826   23.0904  -31.0060 H   0  0  0  0  0  0  0  0  0  0  0  0
   -7.4073   21.0031  -32.8074 H   0  0  0  0  0  0  0  0  0  0  0  0
  1  2  1  0
  2  3  2  0
  3  4  1  0
  4  5  2  0
  5  6  1  0
  6  7  1  0
  7  8  1  0
  8  9  1  0
  9 10  2  0
 10 11  1  0
 11 12  2  0
 12 13  1  0
 12 14  1  0
 14 15  1  0
 14 16  2  0
  6 17  2  0
 17  2  1  0
 16  9  1  0
  1 18  1  0
  1 19  1  0
  1 20  1  0
  3 21  1  0
  4 22  1  0
  5 23  1  0
  7 24  1  0
  8 25  1  0
  8 26  1  0
 10 27  1  0
 11 28  1  0
 13 29  1  0
 16 30  1  0
 17 31  1  0
M  CHG  1  15  -1
M  END
>  <UniqueID>  (10) 
7

>  <SMILES>  (10) 
Cc1cccc(NCc2ccc(O)c([O-])c2)c1

>  <Energy>  (10) 
29.729886909293942

>  <Genealogy>  (10) 
Cc1cccc(NCc2ccc(O)c([O-])c2)c1 (protonated)
Cc1cccc(NCc2ccc(O)c([O-])c2)c1 (3D coordinates assigned)
Cc1cccc(NCc2ccc(O)c([O-])c2)c1 (optimized conformer: 29.729886909293942 kcal/mol)

>  <smiles>  (10) 
Cc1cccc(NCc2ccc(O)c(O)c2)c1

>  <score_type>  (10) 
oracle

>  <origin>  (10) 
adgpu

>  <m_score__min__energy>  (10) 
-10.17

>  <m_primary>  (10) 
energy

$$$$
10:0
     RDKit          3D

 50 53  0  0  0  0  0  0  0  0999 V2000
   -1.3110   21.8330  -27.5930 C   0  0  0  0  0  0  0  0  0  0  0  0
   -1.2150   23.0020  -26.6460 C   0  0  0  0  0  0  0  0  0  0  0  0
   -0.4920   22.8400  -25.4520 C   0  0  0  0  0  0  0  0  0  0  0  0
   -0.3400   23.9060  -24.5620 C   0  0  0  0  0  0  0  0  0  0  0  0
   -0.9090   25.1460  -24.8520 C   0  0  0  0  0  0  0  0  0  0  0  0
   -1.6480   25.3190  -26.0240 C   0  0  0  0  0  0  0  0  0  0  0  0
   -1.8300   24.2520  -26.9190 C   0  0  0  0  0  0  0  0  0  0  0  0
   -2.6480   24.4840  -28.1270 C   0  0  0  0  0  0  0  0  0  0  0  0
   -2.2210   25.2740  -29.0110 O   0  0  0  0  0  0  0  0  0  0  0  0
   -3.9160   23.8240  -28.2860 N   0  0  0  0  0  0  0  0  0  0  0  0
   -4.7480   23.9510  -29.4500 C   0  0  0  0  0  0  0  0  0  0  0  0
   -4.9260   25.1880  -30.0900 C   0  0  0  0  0  0  0  0  0  0  0  0
   -5.7690   25.2910  -31.1980 C   0  0  0  0  0  0  0  0  0  0  0  0
   -6.4480   24.1670  -31.6730 C   0  0  0  0  0  0  0  0  0  0  0  0
   -6.2940   22.9210  -31.0420 C   0  0  0  0  0  0  0  0  0  0  0  0
   -7.0340   21.7370  -31.5490 C   0  0  0  0  0  0  0  0  0  0  0  0
   -6.3750   20.6650  -32.1710 C   0  0  0  0  0  0  0  0  0  0  0  0
   -7.1290   19.5750  -32.6260 C   0  0  0  0  0  0  0  0  0  0  0  0
   -6.4950   18.4560  -33.2770 N   0  0  0  0  0  0  0  0  0  0  0  0
   -5.2180   18.6350  -33.9780 C   0  0  0  0  0  0  0  0  0  0  0  0
   -5.0530   17.5420  -35.0380 C   0  0  0  0  0  0  0  0  0  0  0  0
   -5.2290   16.2590  -34.4680 O   0  0  0  0  0  0  0  0  0  0  0  0
   -6.5610   16.1170  -34.0140 C   0  0  0  0  0  0  0  0  0  0  0  0
   -6.8550   17.0940  -32.8710 C   0  0  0  0  0  0  0  0  0  0  0  0
   -8.4820   19.5960  -32.4830 N   0  0  0  0  0  0  0  0  0  0  0  0
   -9.1100   20.6440  -31.8920 C   0  0  0  0  0  0  0  0  0  0  0  0
   -8.3900   21.6980  -31.4330 N   0  0  0  0  0  0  0  0  0  0  0  0
   -5.4520   22.8290  -29.9150 C   0  0  0  0  0  0  0  0  0  0  0  0
   -1.3877   20.8994  -27.0164 H   0  0  0  0  0  0  0  0  0  0  0  0
   -2.2028   21.9468  -28.2268 H   0  0  0  0  0  0  0  0  0  0  0  0
   -0.4126   21.7998  -28.2268 H   0  0  0  0  0  0  0  0  0  0  0  0
   -0.0415   21.8647  -25.2159 H   0  0  0  0  0  0  0  0  0  0  0  0
    0.2293   23.7672  -23.6311 H   0  0  0  0  0  0  0  0  0  0  0  0
   -0.7755   25.9881  -24.1570 H   0  0  0  0  0  0  0  0  0  0  0  0
   -2.0918   26.3002  -26.2484 H   0  0  0  0  0  0  0  0  0  0  0  0
   -4.2150   23.1430  -27.5520 H   0  0  0  0  0  0  0  0  0  0  0  0
   -4.3995   26.0789  -29.7171 H   0  0  0  0  0  0  0  0  0  0  0  0
   -5.8989   26.2616  -31.6990 H   0  0  0  0  0  0  0  0  0  0  0  0
   -7.1085   24.2577  -32.5479 H   0  0  0  0  0  0  0  0  0  0  0  0
   -5.2826   20.6803  -32.2994 H   0  0  0  0  0  0  0  0  0  0  0  0
   -5.2032   19.6214  -34.4646 H   0  0  0  0  0  0  0  0  0  0  0  0
   -4.3926   18.5677  -33.2540 H   0  0  0  0  0  0  0  0  0  0  0  0
   -5.8024   17.6910  -35.8294 H   0  0  0  0  0  0  0  0  0  0  0  0
   -4.0374   17.6061  -35.4556 H   0  0  0  0  0  0  0  0  0  0  0  0
   -7.2494   16.3200  -34.8476 H   0  0  0  0  0  0  0  0  0  0  0  0
   -6.6990   15.0904  -33.6437 H   0  0  0  0  0  0  0  0  0  0  0  0
   -7.9267   17.0573  -32.6257 H   0  0  0  0  0  0  0  0  0  0  0  0
   -6.2629   16.8095  -31.9887 H   0  0  0  0  0  0  0  0  0  0  0  0
  -10.2048   20.6387  -31.7850 H   0  0  0  0  0  0  0  0  0  0  0  0
   -5.3454   21.8663  -29.3937 H   0  0  0  0  0  0  0  0  0  0  0  0
  1  2  1  0
  2  3  2  0
  3  4  1  0
  4  5  2  0
  5  6  1  0
  6  7  2  0
  7  8  1  0
  8  9  2  0
  8 10  1  0
 10 11  1  0
 11 12  2  0
 12 13  1  0
 13 14  2  0
 14 15  1  0
 15 16  1  0
 16 17  2  0
 17 18  1  0
 18 19  1  0
 19 20  1  0
 20 21  1  0
 21 22  1  0
 22 23  1  0
 23 24  1  0
 18 25  2  0
 25 26  1  0
 26 27  2  0
 15 28  2  0
  7  2  1  0
 28 11  1  0
 27 16  1  0
 24 19  1  0
  1 29  1  0
  1 30  1  0
  1 31  1  0
  3 32  1  0
  4 33  1  0
  5 34  1  0
  6 35  1  0
 10 36  1  0
 12 37  1  0
 13 38  1  0
 14 39  1  0
 17 40  1  0
 20 41  1  0
 20 42  1  0
 21 43  1  0
 21 44  1  0
 23 45  1  0
 23 46  1  0
 24 47  1  0
 24 48  1  0
 26 49  1  0
 28 50  1  0
M  END
>  <UniqueID>  (11) 
8

>  <SMILES>  (11) 
Cc1ccccc1C(=O)Nc1cccc(-c2cc(N3CCOCC3)ncn2)c1

>  <Energy>  (11) 
72.73394262396242

>  <Genealogy>  (11) 
Cc1ccccc1C(=O)Nc1cccc(-c2cc(N3CCOCC3)ncn2)c1 (3D coordinates assigned)
Cc1ccccc1C(=O)Nc1cccc(-c2cc(N3CCOCC3)ncn2)c1 (nonaromatic ring conformer: 72.73394262396242 kcal/mol)

>  <smiles>  (11) 
Cc1ccccc1C(=O)Nc1cccc(-c2cc(N3CCOCC3)ncn2)c1

>  <score_type>  (11) 
oracle

>  <origin>  (11) 
adgpu

>  <m_score__min__energy>  (11) 
-9.3300000000000001

>  <m_primary>  (11) 
energy

$$$$
11:0
     RDKit          3D

 46 47  0  0  0  0  0  0  0  0999 V2000
   -0.5590   24.1880  -25.3440 C   0  0  0  0  0  0  0  0  0  0  0  0
   -1.5380   24.6360  -26.3460 N   0  0  0  0  0  0  0  0  0  0  0  0
   -2.4560   25.6170  -25.7450 C   0  0  0  0  0  0  0  0  0  0  0  0
   -2.2750   23.4890  -26.9350 C   0  0  0  0  0  0  0  0  0  0  0  0
   -2.6420   23.7740  -28.4140 C   0  0  0  0  0  0  0  0  0  0  0  0
   -2.3600   22.4890  -29.2260 C   0  0  0  0  0  0  0  0  0  0  0  0
   -1.7590   24.9310  -28.9300 C   0  0  0  0  0  0  0  0  0  0  0  0
   -4.0700   24.1580  -28.4420 N   0  0  0  0  0  0  0  0  0  0  0  0
   -4.7740   24.4870  -30.0070 S   0  0  0  0  0  0  0  0  0  0  0  0
   -6.0680   25.2230  -29.8070 O   0  0  0  0  0  0  0  0  0  0  0  0
   -3.8640   25.3430  -30.8430 O   0  0  0  0  0  0  0  0  0  0  0  0
   -5.1240   22.9720  -30.8350 C   0  0  0  0  0  0  0  0  0  0  0  0
   -4.1760   22.4250  -31.7080 C   0  0  0  0  0  0  0  0  0  0  0  0
   -4.4450   21.2310  -32.3820 C   0  0  0  0  0  0  0  0  0  0  0  0
   -5.6670   20.5620  -32.1890 C   0  0  0  0  0  0  0  0  0  0  0  0
   -5.9560   19.2950  -32.9060 C   0  0  0  0  0  0  0  0  0  0  0  0
   -6.7980   18.3220  -32.3310 C   0  0  0  0  0  0  0  0  0  0  0  0
   -7.0680   17.1300  -33.0090 C   0  0  0  0  0  0  0  0  0  0  0  0
   -6.5030   16.8920  -34.2640 C   0  0  0  0  0  0  0  0  0  0  0  0
   -5.6660   17.8480  -34.8450 C   0  0  0  0  0  0  0  0  0  0  0  0
   -5.3930   19.0430  -34.1720 C   0  0  0  0  0  0  0  0  0  0  0  0
   -6.6120   21.1140  -31.3040 C   0  0  0  0  0  0  0  0  0  0  0  0
   -6.3400   22.3100  -30.6310 C   0  0  0  0  0  0  0  0  0  0  0  0
   -0.9574   24.3703  -24.3350 H   0  0  0  0  0  0  0  0  0  0  0  0
   -0.3674   23.1126  -25.4738 H   0  0  0  0  0  0  0  0  0  0  0  0
    0.3800   24.7460  -25.4738 H   0  0  0  0  0  0  0  0  0  0  0  0
   -2.3953   25.5522  -24.6486 H   0  0  0  0  0  0  0  0  0  0  0  0
   -2.1736   26.6297  -26.0686 H   0  0  0  0  0  0  0  0  0  0  0  0
   -3.4852   25.4023  -26.0686 H   0  0  0  0  0  0  0  0  0  0  0  0
   -1.6424   22.5904  -26.8868 H   0  0  0  0  0  0  0  0  0  0  0  0
   -3.2025   23.3343  -26.3642 H   0  0  0  0  0  0  0  0  0  0  0  0
   -2.1764   21.6522  -28.5361 H   0  0  0  0  0  0  0  0  0  0  0  0
   -3.2288   22.2577  -29.8598 H   0  0  0  0  0  0  0  0  0  0  0  0
   -1.4742   22.6428  -29.8598 H   0  0  0  0  0  0  0  0  0  0  0  0
   -1.3391   25.4812  -28.0750 H   0  0  0  0  0  0  0  0  0  0  0  0
   -0.9405   24.5231  -29.5413 H   0  0  0  0  0  0  0  0  0  0  0  0
   -2.3684   25.6129  -29.5413 H   0  0  0  0  0  0  0  0  0  0  0  0
   -3.2152   22.9374  -31.8640 H   0  0  0  0  0  0  0  0  0  0  0  0
   -3.6953   20.8111  -33.0688 H   0  0  0  0  0  0  0  0  0  0  0  0
   -7.2455   18.5019  -31.3424 H   0  0  0  0  0  0  0  0  0  0  0  0
   -7.7275   16.3770  -32.5528 H   0  0  0  0  0  0  0  0  0  0  0  0
   -6.7169   15.9525  -34.7946 H   0  0  0  0  0  0  0  0  0  0  0  0
   -5.2211   17.6604  -35.8334 H   0  0  0  0  0  0  0  0  0  0  0  0
   -4.7335   19.7918  -34.6350 H   0  0  0  0  0  0  0  0  0  0  0  0
   -7.5714   20.6013  -31.1403 H   0  0  0  0  0  0  0  0  0  0  0  0
   -7.0843   22.7314  -29.9393 H   0  0  0  0  0  0  0  0  0  0  0  0
  1  2  1  0
  2  3  1  0
  2  4  1  0
  4  5  1  0
  5  6  1  0
  5  7  1  0
  5  8  1  0
  8  9  1  0
  9 10  2  0
  9 11  2  0
  9 12  1  0
 12 13  2  0
 13 14  1  0
 14 15  2  0
 15 16  1  0
 16 17  2  0
 17 18  1  0
 18 19  2  0
 19 20  1  0
 20 21  2  0
 15 22  1  0
 22 23  2  0
 23 12  1  0
 21 16  1  0
  1 24  1  0
  1 25  1  0
  1 26  1  0
  3 27  1  0
  3 28  1  0
  3 29  1  0
  4 30  1  0
  4 31  1  0
  6 32  1  0
  6 33  1  0
  6 34  1  0
  7 35  1  0
  7 36  1  0
  7 37  1  0
 13 38  1  0
 14 39  1  0
 17 40  1  0
 18 41  1  0
 19 42  1  0
 20 43  1  0
 21 44  1  0
 22 45  1  0
 23 46  1  0
M  CHG  1   8  -1
M  END
>  <UniqueID>  (12) 
9

>  <SMILES>  (12) 
CN(C)CC(C)(C)[N-]S(=O)(=O)c1ccc(-c2ccccc2)cc1

>  <Energy>  (12) 
54.78010709452779

>  <Genealogy>  (12) 
CN(C)CC(C)(C)[N-]S(=O)(=O)c1ccc(-c2ccccc2)cc1 (protonated)
CN(C)CC(C)(C)[N-]S(=O)(=O)c1ccc(-c2ccccc2)cc1 (3D coordinates assigned)
CN(C)CC(C)(C)[N-]S(=O)(=O)c1ccc(-c2ccccc2)cc1 (optimized conformer: 54.78010709452779 kcal/mol)

>  <smiles>  (12) 
CN(C)CC(C)(C)NS(=O)(=O)c1ccc(-c2ccccc2)cc1

>  <score_type>  (12) 
oracle

>  <origin>  (12) 
adgpu

>  <m_score__min__energy>  (12) 
-9.8800000000000008

>  <m_primary>  (12) 
energy

$$$$
12:0
     RDKit          3D

 53 56  0  0  0  0  0  0  0  0999 V2000
   -6.9033   16.1885  -33.5622 H   0  0  0  0  0  0  0  0  0  0  0  0
   -6.0080   16.8130  -33.6980 C   0  0  0  0  0  0  0  0  0  0  0  0
   -5.8830   18.1680  -33.4200 C   0  0  0  0  0  0  0  0  0  0  0  0
   -6.9190   19.0670  -32.8610 C   0  0  0  0  0  0  0  0  0  0  0  0
   -6.7260   20.4590  -32.9110 C   0  0  0  0  0  0  0  0  0  0  0  0
   -5.8133   20.8661  -33.3707 H   0  0  0  0  0  0  0  0  0  0  0  0
   -7.6830   21.3310  -32.3820 C   0  0  0  0  0  0  0  0  0  0  0  0
   -7.5276   22.4182  -32.4442 H   0  0  0  0  0  0  0  0  0  0  0  0
   -8.8410   20.8240  -31.7720 C   0  0  0  0  0  0  0  0  0  0  0  0
   -9.8830   21.7620  -31.2360 C   0  0  0  0  0  0  0  0  0  0  0  0
   -9.8623   21.7434  -30.1364 H   0  0  0  0  0  0  0  0  0  0  0  0
   -9.6743   22.7826  -31.5894 H   0  0  0  0  0  0  0  0  0  0  0  0
  -10.8761   21.4475  -31.5894 H   0  0  0  0  0  0  0  0  0  0  0  0
   -9.0480   19.4370  -31.7320 C   0  0  0  0  0  0  0  0  0  0  0  0
   -9.9641   19.0332  -31.2762 H   0  0  0  0  0  0  0  0  0  0  0  0
   -8.0950   18.5650  -32.2690 C   0  0  0  0  0  0  0  0  0  0  0  0
   -8.2650   17.4790  -32.2288 H   0  0  0  0  0  0  0  0  0  0  0  0
   -4.6650   18.5660  -33.7130 O   0  0  0  0  0  0  0  0  0  0  0  0
   -3.9830   17.5380  -34.1610 C   0  0  0  0  0  0  0  0  0  0  0  0
   -2.5450   17.6080  -34.5670 C   0  0  0  0  0  0  0  0  0  0  0  0
   -2.4794   17.8820  -35.6303 H   0  0  0  0  0  0  0  0  0  0  0  0
   -2.0755   16.6264  -34.4056 H   0  0  0  0  0  0  0  0  0  0  0  0
   -1.8480   18.6120  -33.7640 N   0  0  0  0  0  0  0  0  0  0  0  0
   -0.8020   18.5890  -33.7680 H   0  0  0  0  0  0  0  0  0  0  0  0
   -2.5090   19.7060  -33.0980 C   0  0  0  0  0  0  0  0  0  0  0  0
   -2.6990   19.7180  -31.7040 C   0  0  0  0  0  0  0  0  0  0  0  0
   -2.3335   18.8780  -31.0950 H   0  0  0  0  0  0  0  0  0  0  0  0
   -3.3500   20.7920  -31.0880 C   0  0  0  0  0  0  0  0  0  0  0  0
   -3.4844   20.7978  -29.9963 H   0  0  0  0  0  0  0  0  0  0  0  0
   -3.8310   21.8590  -31.8550 C   0  0  0  0  0  0  0  0  0  0  0  0
   -4.6330   23.2130  -31.0640 S   0  0  0  0  0  0  0  0  0  0  0  0
   -5.3480   22.7130  -29.8390 O   0  0  0  0  0  0  0  0  0  0  0  0
   -5.6480   23.8410  -31.9780 O   0  0  0  0  0  0  0  0  0  0  0  0
   -3.4530   24.3940  -30.5870 N   0  0  0  0  0  0  0  0  0  0  0  0
   -2.6380   24.2560  -29.5840 C   0  0  0  0  0  0  0  0  0  0  0  0
   -2.5380   22.9200  -28.5500 S   0  0  0  0  0  0  0  0  0  0  0  0
   -1.2820   23.6530  -27.6870 C   0  0  0  0  0  0  0  0  0  0  0  0
   -0.5990   23.0610  -26.4960 C   0  0  0  0  0  0  0  0  0  0  0  0
    0.3979   22.7033  -26.7932 H   0  0  0  0  0  0  0  0  0  0  0  0
   -1.2093   22.2271  -26.1189 H   0  0  0  0  0  0  0  0  0  0  0  0
   -0.4480   24.0960  -25.3860 C   0  0  0  0  0  0  0  0  0  0  0  0
   -0.5207   23.5979  -24.4079 H   0  0  0  0  0  0  0  0  0  0  0  0
    0.5315   24.5886  -25.4748 H   0  0  0  0  0  0  0  0  0  0  0  0
   -1.2460   24.8479  -25.4748 H   0  0  0  0  0  0  0  0  0  0  0  0
   -0.9790   24.8700  -28.1970 N   0  0  0  0  0  0  0  0  0  0  0  0
   -1.7320   25.1990  -29.2460 N   0  0  0  0  0  0  0  0  0  0  0  0
   -1.6130   26.1010  -29.7590 H   0  0  0  0  0  0  0  0  0  0  0  0
   -3.6420   21.8530  -33.2420 C   0  0  0  0  0  0  0  0  0  0  0  0
   -4.0172   22.6898  -33.8494 H   0  0  0  0  0  0  0  0  0  0  0  0
   -2.9790   20.7890  -33.8580 C   0  0  0  0  0  0  0  0  0  0  0  0
   -2.8239   20.7996  -34.9470 H   0  0  0  0  0  0  0  0  0  0  0  0
   -4.7800   16.4110  -34.1790 C   0  0  0  0  0  0  0  0  0  0  0  0
   -4.4944   15.4012  -34.5088 H   0  0  0  0  0  0  0  0  0  0  0  0
  1  2  1  0
  2  3  2  0
  3  4  1  0
  4  5  2  0
  5  6  1  0
  5  7  1  0
  7  8  1  0
  7  9  2  0
  9 10  1  0
 10 11  1  0
 10 12  1  0
 10 13  1  0
  9 14  1  0
 14 15  1  0
 14 16  2  0
 16 17  1  0
  3 18  1  0
 18 19  1  0
 19 20  1  0
 20 21  1  0
 20 22  1  0
 20 23  1  0
 23 24  1  0
 23 25  1  0
 25 26  2  0
 26 27  1  0
 26 28  1  0
 28 29  1  0
 28 30  2  0
 30 31  1  0
 31 32  2  0
 31 33  2  0
 31 34  1  0
 34 35  2  0
 35 36  1  0
 36 37  1  0
 37 38  1  0
 38 39  1  0
 38 40  1  0
 38 41  1  0
 41 42  1  0
 41 43  1  0
 41 44  1  0
 37 45  2  0
 45 46  1  0
 46 47  1  0
 30 48  1  0
 48 49  1  0
 48 50  2  0
 50 51  1  0
 19 52  2  0
 52 53  1  0
 52  2  1  0
 16  4  1  0
 50 25  1  0
 46 35  1  0
M  END
>  <UniqueID>  (13) 
10

>  <SMILES>  (13) 
CCc1n[nH]/c(=N/S(=O)(=O)c2ccc(NCc3ccc(-c4ccc(C)cc4)o3)cc2)s1

>  <Energy>  (13) 
115.56616176647145

>  <Genealogy>  (13) 
CCc1n[nH]/c(=N/S(=O)(=O)c2ccc(NCc3ccc(-c4ccc(C)cc4)o3)cc2)s1 (cis-trans isomerization)
CCc1n[nH]/c(=N/S(=O)(=O)c2ccc(NCc3ccc(-c4ccc(C)cc4)o3)cc2)s1 (3D coordinates assigned)
CCc1n[nH]/c(=N/S(=O)(=O)c2ccc(NCc3ccc(-c4ccc(C)cc4)o3)cc2)s1 (optimized conformer: 115.56616176647145 kcal/mol)

>  <smiles>  (13) 
CCc1n[nH]c(=NS(=O)(=O)c2ccc(NCc3ccc(-c4ccc(C)cc4)o3)cc2)s1

>  <score_type>  (13) 
oracle

>  <origin>  (13) 
adgpu

>  <m_score__min__energy>  (13) 
-10.619999999999999

>  <m_primary>  (13) 
energy

$$$$
13:0
     RDKit          3D

 40 42  0  0  0  0  0  0  0  0999 V2000
   -3.9350   25.5640  -30.5600 O   0  0  0  0  0  0  0  0  0  0  0  0
   -3.9840   24.3130  -30.4210 C   0  0  0  0  0  0  0  0  0  0  0  0
   -5.1800   23.6240  -30.8110 N   0  0  0  0  0  0  0  0  0  0  0  0
   -5.2180   22.4350  -31.6130 C   0  0  0  0  0  0  0  0  0  0  0  0
   -4.3740   22.3320  -32.7240 C   0  0  0  0  0  0  0  0  0  0  0  0
   -4.3390   21.1530  -33.4740 C   0  0  0  0  0  0  0  0  0  0  0  0
   -5.1690   20.0770  -33.1350 C   0  0  0  0  0  0  0  0  0  0  0  0
   -5.0230   18.5560  -34.0110 S   0  0  0  0  0  0  0  0  0  0  0  0
   -5.6140   17.4180  -33.2260 O   0  0  0  0  0  0  0  0  0  0  0  0
   -5.7560   18.6740  -35.3170 O   0  0  0  0  0  0  0  0  0  0  0  0
   -3.3460   18.2380  -34.3210 N   0  0  0  0  0  0  0  0  0  0  0  0
   -2.2520   18.8110  -33.5900 C   0  0  0  0  0  0  0  0  0  0  0  0
   -1.8480   18.1990  -32.3970 C   0  0  0  0  0  0  0  0  0  0  0  0
   -0.7710   18.7100  -31.6680 C   0  0  0  0  0  0  0  0  0  0  0  0
   -0.0900   19.8470  -32.1220 C   0  0  0  0  0  0  0  0  0  0  0  0
    0.9890   20.3640  -31.4080 O   0  0  0  0  0  0  0  0  0  0  0  0
   -0.4990   20.4720  -33.3040 C   0  0  0  0  0  0  0  0  0  0  0  0
   -1.5760   19.9620  -34.0340 C   0  0  0  0  0  0  0  0  0  0  0  0
   -6.0600   20.2000  -32.0590 C   0  0  0  0  0  0  0  0  0  0  0  0
   -6.0840   21.3730  -31.3010 C   0  0  0  0  0  0  0  0  0  0  0  0
   -2.7940   23.5840  -29.9170 C   0  0  0  0  0  0  0  0  0  0  0  0
   -2.7640   22.1770  -29.9570 C   0  0  0  0  0  0  0  0  0  0  0  0
   -1.6540   21.4770  -29.4760 C   0  0  0  0  0  0  0  0  0  0  0  0
   -0.5590   22.1720  -28.9590 C   0  0  0  0  0  0  0  0  0  0  0  0
    0.5430   21.4740  -28.4790 O   0  0  0  0  0  0  0  0  0  0  0  0
   -0.5700   23.5690  -28.9270 C   0  0  0  0  0  0  0  0  0  0  0  0
   -1.6790   24.2780  -29.4030 C   0  0  0  0  0  0  0  0  0  0  0  0
   -1.6710   25.6680  -29.3440 O   0  0  0  0  0  0  0  0  0  0  0  0
   -3.7358   23.1817  -33.0083 H   0  0  0  0  0  0  0  0  0  0  0  0
   -3.6573   21.0700  -34.3333 H   0  0  0  0  0  0  0  0  0  0  0  0
   -2.3822   17.3097  -32.0312 H   0  0  0  0  0  0  0  0  0  0  0  0
   -0.4571   18.2183  -30.7354 H   0  0  0  0  0  0  0  0  0  0  0  0
    0.8720   20.7460  -30.4770 H   0  0  0  0  0  0  0  0  0  0  0  0
    0.0290   21.3686  -33.6607 H   0  0  0  0  0  0  0  0  0  0  0  0
   -1.8965   20.4626  -34.9596 H   0  0  0  0  0  0  0  0  0  0  0  0
   -6.7406   19.3720  -31.8117 H   0  0  0  0  0  0  0  0  0  0  0  0
   -6.7832   21.4659  -30.4569 H   0  0  0  0  0  0  0  0  0  0  0  0
   -3.6208   21.6244  -30.3700 H   0  0  0  0  0  0  0  0  0  0  0  0
   -1.6431   20.3774  -29.5048 H   0  0  0  0  0  0  0  0  0  0  0  0
    0.2971   24.1141  -28.5258 H   0  0  0  0  0  0  0  0  0  0  0  0
  1  2  2  0
  2  3  1  0
  3  4  1  0
  4  5  2  0
  5  6  1  0
  6  7  2  0
  7  8  1  0
  8  9  2  0
  8 10  2  0
  8 11  1  0
 11 12  1  0
 12 13  2  0
 13 14  1  0
 14 15  2  0
 15 16  1  0
 15 17  1  0
 17 18  2  0
  7 19  1  0
 19 20  2  0
  2 21  1  0
 21 22  2  0
 22 23  1  0
 23 24  2  0
 24 25  1  0
 24 26  1  0
 26 27  2  0
 27 28  1  0
 20  4  1  0
 27 21  1  0
 18 12  1  0
  5 29  1  0
  6 30  1  0
 13 31  1  0
 14 32  1  0
 16 33  1  0
 17 34  1  0
 18 35  1  0
 19 36  1  0
 20 37  1  0
 22 38  1  0
 23 39  1  0
 26 40  1  0
M  CHG  4   3  -1  11  -1  25  -1  28  -1
M  END
>  <UniqueID>  (14) 
11

>  <SMILES>  (14) 
O=C([N-]c1ccc(S(=O)(=O)[N-]c2ccc(O)cc2)cc1)c1ccc([O-])cc1[O-]

>  <Energy>  (14) 
53.01526180788287

>  <Genealogy>  (14) 
O=C([N-]c1ccc(S(=O)(=O)[N-]c2ccc(O)cc2)cc1)c1ccc([O-])cc1[O-] (protonated)
O=C([N-]c1ccc(S(=O)(=O)[N-]c2ccc(O)cc2)cc1)c1ccc([O-])cc1[O-] (3D coordinates assigned)
O=C([N-]c1ccc(S(=O)(=O)[N-]c2ccc(O)cc2)cc1)c1ccc([O-])cc1[O-] (optimized conformer: 53.01526180788287 kcal/mol)

>  <smiles>  (14) 
O=C(Nc1ccc(S(=O)(=O)Nc2ccc(O)cc2)cc1)c1ccc(O)cc1O

>  <score_type>  (14) 
oracle

>  <origin>  (14) 
adgpu

>  <m_score__min__energy>  (14) 
-12.390000000000001

>  <m_primary>  (14) 
energy

$$$$
14:0
     RDKit          3D

 50 52  0  0  0  0  0  0  0  0999 V2000
    1.8870   23.4780  -35.7380 C   0  0  0  0  0  0  0  0  0  0  0  0
    0.6450   22.8010  -35.6180 O   0  0  0  0  0  0  0  0  0  0  0  0
    0.3840   21.7710  -34.6960 C   0  0  0  0  0  0  0  0  0  0  0  0
    1.4390   20.9340  -34.3170 C   0  0  0  0  0  0  0  0  0  0  0  0
    1.2350   19.8970  -33.4030 C   0  0  0  0  0  0  0  0  0  0  0  0
   -0.0320   19.6860  -32.8510 C   0  0  0  0  0  0  0  0  0  0  0  0
   -0.2830   18.3940  -31.6790 S   0  0  0  0  0  0  0  0  0  0  0  0
    0.8930   17.4550  -31.7020 O   0  0  0  0  0  0  0  0  0  0  0  0
   -1.5170   17.6200  -32.0630 O   0  0  0  0  0  0  0  0  0  0  0  0
   -0.4930   19.0160  -30.0800 N   0  0  0  0  0  0  0  0  0  0  0  0
   -0.9910   20.3290  -29.8290 C   0  0  0  0  0  0  0  0  0  0  0  0
   -0.0910   21.3840  -29.6620 C   0  0  0  0  0  0  0  0  0  0  0  0
   -0.5640   22.6790  -29.4360 C   0  0  0  0  0  0  0  0  0  0  0  0
   -1.9410   22.9240  -29.3470 C   0  0  0  0  0  0  0  0  0  0  0  0
   -2.5180   24.5750  -29.1680 S   0  0  0  0  0  0  0  0  0  0  0  0
   -1.3410   25.5110  -29.2130 O   0  0  0  0  0  0  0  0  0  0  0  0
   -3.2290   24.7660  -27.8550 O   0  0  0  0  0  0  0  0  0  0  0  0
   -3.5800   24.9370  -30.4900 N   0  0  0  0  0  0  0  0  0  0  0  0
   -4.7330   24.1590  -30.8480 C   0  0  0  0  0  0  0  0  0  0  0  0
   -4.6110   23.0270  -31.6710 C   0  0  0  0  0  0  0  0  0  0  0  0
   -5.7390   22.2800  -32.0180 C   0  0  0  0  0  0  0  0  0  0  0  0
   -7.0020   22.6520  -31.5670 C   0  0  0  0  0  0  0  0  0  0  0  0
   -8.2240   21.8830  -31.9780 C   0  0  0  0  0  0  0  0  0  0  0  0
   -7.1370   23.7830  -30.7430 C   0  0  0  0  0  0  0  0  0  0  0  0
   -6.0100   24.5330  -30.3690 C   0  0  0  0  0  0  0  0  0  0  0  0
   -6.1710   25.7430  -29.4920 C   0  0  0  0  0  0  0  0  0  0  0  0
   -2.8410   21.8590  -29.4770 C   0  0  0  0  0  0  0  0  0  0  0  0
   -2.3690   20.5660  -29.7120 C   0  0  0  0  0  0  0  0  0  0  0  0
   -1.0980   20.5130  -33.2320 C   0  0  0  0  0  0  0  0  0  0  0  0
   -0.8940   21.5510  -34.1470 C   0  0  0  0  0  0  0  0  0  0  0  0
    2.2848   23.6948  -34.7356 H   0  0  0  0  0  0  0  0  0  0  0  0
    2.5992   22.8433  -36.2857 H   0  0  0  0  0  0  0  0  0  0  0  0
    1.7395   24.4205  -36.2857 H   0  0  0  0  0  0  0  0  0  0  0  0
    2.4403   21.0941  -34.7433 H   0  0  0  0  0  0  0  0  0  0  0  0
    2.0735   19.2449  -33.1170 H   0  0  0  0  0  0  0  0  0  0  0  0
    0.9916   21.1950  -29.7085 H   0  0  0  0  0  0  0  0  0  0  0  0
    0.1479   23.5105  -29.3274 H   0  0  0  0  0  0  0  0  0  0  0  0
   -3.6208   22.7270  -32.0445 H   0  0  0  0  0  0  0  0  0  0  0  0
   -5.6281   21.3892  -32.6538 H   0  0  0  0  0  0  0  0  0  0  0  0
   -8.7628   21.5439  -31.0809 H   0  0  0  0  0  0  0  0  0  0  0  0
   -8.8807   22.5309  -32.5771 H   0  0  0  0  0  0  0  0  0  0  0  0
   -7.9240   21.0106  -32.5771 H   0  0  0  0  0  0  0  0  0  0  0  0
   -8.1340   24.0831  -30.3881 H   0  0  0  0  0  0  0  0  0  0  0  0
   -6.1305   25.4383  -28.4358 H   0  0  0  0  0  0  0  0  0  0  0  0
   -5.3599   26.4566  -29.6992 H   0  0  0  0  0  0  0  0  0  0  0  0
   -7.1405   26.2196  -29.6992 H   0  0  0  0  0  0  0  0  0  0  0  0
   -3.9226   22.0415  -29.3938 H   0  0  0  0  0  0  0  0  0  0  0  0
   -3.0792   19.7312  -29.8056 H   0  0  0  0  0  0  0  0  0  0  0  0
   -2.0995   20.3448  -32.8094 H   0  0  0  0  0  0  0  0  0  0  0  0
   -1.7347   22.1977  -34.4387 H   0  0  0  0  0  0  0  0  0  0  0  0
  1  2  1  0
  2  3  1  0
  3  4  2  0
  4  5  1  0
  5  6  2  0
  6  7  1  0
  7  8  2  0
  7  9  2  0
  7 10  1  0
 10 11  1  0
 11 12  2  0
 12 13  1  0
 13 14  2  0
 14 15  1  0
 15 16  2  0
 15 17  2  0
 15 18  1  0
 18 19  1  0
 19 20  2  0
 20 21  1  0
 21 22  2  0
 22 23  1  0
 22 24  1  0
 24 25  2  0
 25 26  1  0
 14 27  1  0
 27 28  2  0
  6 29  1  0
 29 30  2  0
 30  3  1  0
 28 11  1  0
 25 19  1  0
  1 31  1  0
  1 32  1  0
  1 33  1  0
  4 34  1  0
  5 35  1  0
 12 36  1  0
 13 37  1  0
 20 38  1  0
 21 39  1  0
 23 40  1  0
 23 41  1  0
 23 42  1  0
 24 43  1  0
 26 44  1  0
 26 45  1  0
 26 46  1  0
 27 47  1  0
 28 48  1  0
 29 49  1  0
 30 50  1  0
M  CHG  2  10  -1  18  -1
M  END
>  <UniqueID>  (15) 
12

>  <SMILES>  (15) 
COc1ccc(S(=O)(=O)[N-]c2ccc(S(=O)(=O)[N-]c3ccc(C)cc3C)cc2)cc1

>  <Energy>  (15) 
61.53337719566534

>  <Genealogy>  (15) 
COc1ccc(S(=O)(=O)[N-]c2ccc(S(=O)(=O)[N-]c3ccc(C)cc3C)cc2)cc1 (protonated)
COc1ccc(S(=O)(=O)[N-]c2ccc(S(=O)(=O)[N-]c3ccc(C)cc3C)cc2)cc1 (3D coordinates assigned)
COc1ccc(S(=O)(=O)[N-]c2ccc(S(=O)(=O)[N-]c3ccc(C)cc3C)cc2)cc1 (optimized conformer: 61.53337719566534 kcal/mol)

>  <smiles>  (15) 
COc1ccc(S(=O)(=O)Nc2ccc(S(=O)(=O)Nc3ccc(C)cc3C)cc2)cc1

>  <score_type>  (15) 
oracle

>  <origin>  (15) 
adgpu

>  <m_score__min__energy>  (15) 
-11.390000000000001

>  <m_primary>  (15) 
energy

$$$$
15:0
     RDKit          3D

 36 37  0  0  0  0  0  0  0  0999 V2000
   -7.4660   20.4900  -32.7000 C   0  0  0  0  0  0  0  0  0  0  0  0
   -5.9800   20.7530  -32.8420 C   0  0  0  0  0  0  0  0  0  0  0  0
   -5.4130   21.9310  -32.3020 C   0  0  0  0  0  0  0  0  0  0  0  0
   -6.3860   23.3010  -31.6940 S   0  0  0  0  0  0  0  0  0  0  0  0
   -7.3780   23.7940  -32.7110 O   0  0  0  0  0  0  0  0  0  0  0  0
   -7.1390   22.8430  -30.4770 O   0  0  0  0  0  0  0  0  0  0  0  0
   -5.3580   24.6380  -31.2490 N   0  0  0  0  0  0  0  0  0  0  0  0
   -5.3360   24.8560  -29.7950 C   0  0  0  0  0  0  0  0  0  0  0  0
   -3.9960   24.5550  -29.1910 C   0  0  0  0  0  0  0  0  0  0  0  0
   -3.7780   23.8490  -28.0230 C   0  0  0  0  0  0  0  0  0  0  0  0
   -2.4090   23.8050  -27.8710 C   0  0  0  0  0  0  0  0  0  0  0  0
   -1.8800   24.4840  -28.9500 C   0  0  0  0  0  0  0  0  0  0  0  0
   -2.8520   24.9180  -29.7200 O   0  0  0  0  0  0  0  0  0  0  0  0
   -4.0160   22.0260  -32.2480 C   0  0  0  0  0  0  0  0  0  0  0  0
   -3.4840   23.0360  -31.7090 O   0  0  0  0  0  0  0  0  0  0  0  0
   -3.2300   21.0360  -32.7700 N   0  0  0  0  0  0  0  0  0  0  0  0
   -1.7620   21.1580  -32.7120 C   0  0  0  0  0  0  0  0  0  0  0  0
   -3.8030   19.9820  -33.4300 C   0  0  0  0  0  0  0  0  0  0  0  0
   -3.0620   19.1170  -33.9790 O   0  0  0  0  0  0  0  0  0  0  0  0
   -5.1690   19.8530  -33.4950 N   0  0  0  0  0  0  0  0  0  0  0  0
   -5.7490   18.7160  -34.2370 C   0  0  0  0  0  0  0  0  0  0  0  0
   -7.7298   20.4433  -31.6331 H   0  0  0  0  0  0  0  0  0  0  0  0
   -8.0298   21.3023  -33.1819 H   0  0  0  0  0  0  0  0  0  0  0  0
   -7.7168   19.5335  -33.1819 H   0  0  0  0  0  0  0  0  0  0  0  0
   -4.3880   24.4220  -31.5780 H   0  0  0  0  0  0  0  0  0  0  0  0
   -5.5868   25.9076  -29.5918 H   0  0  0  0  0  0  0  0  0  0  0  0
   -6.0688   24.1718  -29.3425 H   0  0  0  0  0  0  0  0  0  0  0  0
   -4.5368   23.4142  -27.3558 H   0  0  0  0  0  0  0  0  0  0  0  0
   -1.8502   23.3252  -27.0540 H   0  0  0  0  0  0  0  0  0  0  0  0
   -0.8070   24.6384  -29.1369 H   0  0  0  0  0  0  0  0  0  0  0  0
   -1.4375   21.1850  -31.6613 H   0  0  0  0  0  0  0  0  0  0  0  0
   -1.3022   20.2950  -33.2157 H   0  0  0  0  0  0  0  0  0  0  0  0
   -1.4509   22.0851  -33.2157 H   0  0  0  0  0  0  0  0  0  0  0  0
   -6.1299   17.9693  -33.5247 H   0  0  0  0  0  0  0  0  0  0  0  0
   -6.5747   19.0739  -34.8696 H   0  0  0  0  0  0  0  0  0  0  0  0
   -4.9746   18.2576  -34.8696 H   0  0  0  0  0  0  0  0  0  0  0  0
  1  2  1  0
  2  3  2  0
  3  4  1  0
  4  5  2  0
  4  6  2  0
  4  7  1  0
  7  8  1  0
  8  9  1  0
  9 10  2  0
 10 11  1  0
 11 12  2  0
 12 13  1  0
  3 14  1  0
 14 15  2  0
 14 16  1  0
 16 17  1  0
 16 18  1  0
 18 19  2  0
 18 20  1  0
 20 21  1  0
 20  2  1  0
 13  9  1  0
  1 22  1  0
  1 23  1  0
  1 24  1  0
  7 25  1  0
  8 26  1  0
  8 27  1  0
 10 28  1  0
 11 29  1  0
 12 30  1  0
 17 31  1  0
 17 32  1  0
 17 33  1  0
 21 34  1  0
 21 35  1  0
 21 36  1  0
M  END
>  <UniqueID>  (16) 
13

>  <SMILES>  (16) 
Cc1c(S(=O)(=O)NCc2ccco2)c(=O)n(C)c(=O)n1C

>  <Energy>  (16) 
75.08935663852844

>  <Genealogy>  (16) 
Cc1c(S(=O)(=O)NCc2ccco2)c(=O)n(C)c(=O)n1C (3D coordinates assigned)
Cc1c(S(=O)(=O)NCc2ccco2)c(=O)n(C)c(=O)n1C (optimized conformer: 75.08935663852844 kcal/mol)

>  <smiles>  (16) 
Cc1c(S(=O)(=O)NCc2ccco2)c(=O)n(C)c(=O)n1C

>  <score_type>  (16) 
oracle

>  <origin>  (16) 
adgpu

>  <m_score__min__energy>  (16) 
-7.8099999999999996

>  <m_primary>  (16) 
energy

$$$$
16:0
     RDKit          3D

 44 46  0  0  0  0  0  0  0  0999 V2000
   -5.9250   24.8430  -30.1290 C   0  0  0  0  0  0  0  0  0  0  0  0
   -5.2760   24.4210  -31.3240 O   0  0  0  0  0  0  0  0  0  0  0  0
   -5.3470   23.1200  -31.8450 C   0  0  0  0  0  0  0  0  0  0  0  0
   -6.4670   22.2880  -31.6540 C   0  0  0  0  0  0  0  0  0  0  0  0
   -6.4870   20.9980  -32.1930 C   0  0  0  0  0  0  0  0  0  0  0  0
   -5.3920   20.5230  -32.9260 C   0  0  0  0  0  0  0  0  0  0  0  0
   -5.4090   18.8950  -33.5960 S   0  0  0  0  0  0  0  0  0  0  0  0
   -6.3440   18.0100  -32.8180 O   0  0  0  0  0  0  0  0  0  0  0  0
   -5.8730   18.9610  -35.0230 O   0  0  0  0  0  0  0  0  0  0  0  0
   -3.8160   18.2130  -33.5490 N   0  0  0  0  0  0  0  0  0  0  0  0
   -2.6040   18.9530  -33.3350 C   0  0  0  0  0  0  0  0  0  0  0  0
   -1.9120   19.5720  -34.3910 C   0  0  0  0  0  0  0  0  0  0  0  0
   -0.7200   20.2570  -34.1410 C   0  0  0  0  0  0  0  0  0  0  0  0
   -0.2170   20.3400  -32.8410 C   0  0  0  0  0  0  0  0  0  0  0  0
   -0.9110   19.7550  -31.7740 C   0  0  0  0  0  0  0  0  0  0  0  0
   -0.3490   19.8480  -30.4580 N   0  0  0  0  0  0  0  0  0  0  0  0
   -0.9740   20.4230  -29.3000 C   0  0  0  0  0  0  0  0  0  0  0  0
   -1.4040   19.6780  -28.3790 O   0  0  0  0  0  0  0  0  0  0  0  0
   -1.1620   21.8910  -29.2120 C   0  0  0  0  0  0  0  0  0  0  0  0
   -2.3780   22.4790  -29.6090 C   0  0  0  0  0  0  0  0  0  0  0  0
   -2.5570   23.8620  -29.5230 C   0  0  0  0  0  0  0  0  0  0  0  0
   -1.5280   24.6760  -29.0430 C   0  0  0  0  0  0  0  0  0  0  0  0
   -1.7150   26.0510  -28.9620 O   0  0  0  0  0  0  0  0  0  0  0  0
   -0.3140   24.1070  -28.6430 C   0  0  0  0  0  0  0  0  0  0  0  0
    0.7070   24.9250  -28.1620 O   0  0  0  0  0  0  0  0  0  0  0  0
   -0.1320   22.7190  -28.7270 C   0  0  0  0  0  0  0  0  0  0  0  0
   -2.0970   19.0450  -32.0320 C   0  0  0  0  0  0  0  0  0  0  0  0
   -4.2800   21.3500  -33.1230 C   0  0  0  0  0  0  0  0  0  0  0  0
   -4.2580   22.6390  -32.5840 C   0  0  0  0  0  0  0  0  0  0  0  0
   -5.3624   24.4772  -29.2574 H   0  0  0  0  0  0  0  0  0  0  0  0
   -5.9674   25.9419  -30.1032 H   0  0  0  0  0  0  0  0  0  0  0  0
   -6.9466   24.4360  -30.1032 H   0  0  0  0  0  0  0  0  0  0  0  0
   -7.3297   22.6545  -31.0784 H   0  0  0  0  0  0  0  0  0  0  0  0
   -7.3657   20.3540  -32.0409 H   0  0  0  0  0  0  0  0  0  0  0  0
   -2.3095   19.5169  -35.4152 H   0  0  0  0  0  0  0  0  0  0  0  0
   -0.1763   20.7323  -34.9707 H   0  0  0  0  0  0  0  0  0  0  0  0
    0.7297   20.8678  -32.6537 H   0  0  0  0  0  0  0  0  0  0  0  0
   -3.1927   21.8453  -29.9895 H   0  0  0  0  0  0  0  0  0  0  0  0
   -3.5115   24.3115  -29.8343 H   0  0  0  0  0  0  0  0  0  0  0  0
    0.6430   25.9360  -28.2080 H   0  0  0  0  0  0  0  0  0  0  0  0
    0.8231   22.2738  -28.4114 H   0  0  0  0  0  0  0  0  0  0  0  0
   -2.6316   18.5574  -31.2035 H   0  0  0  0  0  0  0  0  0  0  0  0
   -3.4207   20.9840  -33.7040 H   0  0  0  0  0  0  0  0  0  0  0  0
   -3.3788   23.2812  -32.7411 H   0  0  0  0  0  0  0  0  0  0  0  0
  1  2  1  0
  2  3  1  0
  3  4  2  0
  4  5  1  0
  5  6  2  0
  6  7  1  0
  7  8  2  0
  7  9  2  0
  7 10  1  0
 10 11  1  0
 11 12  2  0
 12 13  1  0
 13 14  2  0
 14 15  1  0
 15 16  1  0
 16 17  1  0
 17 18  2  0
 17 19  1  0
 19 20  2  0
 20 21  1  0
 21 22  2  0
 22 23  1  0
 22 24  1  0
 24 25  1  0
 24 26  2  0
 15 27  2  0
  6 28  1  0
 28 29  2  0
 29  3  1  0
 27 11  1  0
 26 19  1  0
  1 30  1  0
  1 31  1  0
  1 32  1  0
  4 33  1  0
  5 34  1  0
 12 35  1  0
 13 36  1  0
 14 37  1  0
 20 38  1  0
 21 39  1  0
 25 40  1  0
 26 41  1  0
 27 42  1  0
 28 43  1  0
 29 44  1  0
M  CHG  3  10  -1  16  -1  23  -1
M  END
>  <UniqueID>  (17) 
14

>  <SMILES>  (17) 
COc1ccc(S(=O)(=O)[N-]c2cccc([N-]C(=O)c3ccc([O-])c(O)c3)c2)cc1

>  <Energy>  (17) 
53.48889242290612

>  <Genealogy>  (17) 
COc1ccc(S(=O)(=O)[N-]c2cccc([N-]C(=O)c3ccc([O-])c(O)c3)c2)cc1 (protonated)
COc1ccc(S(=O)(=O)[N-]c2cccc([N-]C(=O)c3ccc([O-])c(O)c3)c2)cc1 (3D coordinates assigned)
COc1ccc(S(=O)(=O)[N-]c2cccc([N-]C(=O)c3ccc([O-])c(O)c3)c2)cc1 (optimized conformer: 53.48889242290612 kcal/mol)

>  <smiles>  (17) 
COc1ccc(S(=O)(=O)Nc2cccc(NC(=O)c3ccc(O)c(O)c3)c2)cc1

>  <score_type>  (17) 
oracle

>  <origin>  (17) 
adgpu

>  <m_score__min__energy>  (17) 
-11.69

>  <m_primary>  (17) 
energy

$$$$
17:0
     RDKit          3D

 35 37  0  0  0  0  0  0  0  0999 V2000
   -1.4920   26.4320  -28.9150 O   0  0  0  0  0  0  0  0  0  0  0  0
   -1.6220   25.0500  -28.9930 C   0  0  0  0  0  0  0  0  0  0  0  0
   -0.7240   24.2280  -28.3110 C   0  0  0  0  0  0  0  0  0  0  0  0
   -0.8460   22.8380  -28.3860 C   0  0  0  0  0  0  0  0  0  0  0  0
   -1.8700   22.2460  -29.1510 C   0  0  0  0  0  0  0  0  0  0  0  0
   -1.9650   20.7250  -29.2040 C   0  0  2  0  0  0  0  0  0  0  0  0
   -1.7230   20.0710  -27.8280 C   0  0  0  0  0  0  0  0  0  0  0  0
   -0.4650   20.4830  -27.1880 N   0  0  0  0  0  0  0  0  0  0  0  0
    0.7620   20.0590  -27.8830 C   0  0  0  0  0  0  0  0  0  0  0  0
    0.5600   18.8760  -28.8390 C   0  0  0  0  0  0  0  0  0  0  0  0
   -0.0090   19.2810  -30.1850 C   0  0  0  0  0  0  0  0  0  0  0  0
    0.6250   18.7630  -31.3300 C   0  0  0  0  0  0  0  0  0  0  0  0
    0.1610   19.0550  -32.6140 C   0  0  0  0  0  0  0  0  0  0  0  0
    0.8320   18.5250  -33.7160 O   0  0  0  0  0  0  0  0  0  0  0  0
   -0.9620   19.8700  -32.7750 C   0  0  0  0  0  0  0  0  0  0  0  0
   -1.4340   20.1800  -34.0450 O   0  0  0  0  0  0  0  0  0  0  0  0
   -1.6200   20.3780  -31.6550 C   0  0  0  0  0  0  0  0  0  0  0  0
   -1.1770   20.0880  -30.3490 C   0  0  0  0  0  0  0  0  0  0  0  0
   -2.7770   23.0910  -29.8280 C   0  0  0  0  0  0  0  0  0  0  0  0
   -2.6500   24.4820  -29.7510 C   0  0  0  0  0  0  0  0  0  0  0  0
   -3.5490   25.2960  -30.4300 O   0  0  0  0  0  0  0  0  0  0  0  0
    0.0828   24.6758  -27.7122 H   0  0  0  0  0  0  0  0  0  0  0  0
   -0.1348   22.1992  -27.8418 H   0  0  0  0  0  0  0  0  0  0  0  0
   -3.0118   20.5014  -29.4575 H   0  0  0  0  0  0  0  0  0  0  0  0
   -2.5558   20.3437  -27.1632 H   0  0  0  0  0  0  0  0  0  0  0  0
   -1.6564   18.9860  -27.9963 H   0  0  0  0  0  0  0  0  0  0  0  0
   -0.4540   20.0690  -26.2260 H   0  0  0  0  0  0  0  0  0  0  0  0
    1.1431   20.9120  -28.4637 H   0  0  0  0  0  0  0  0  0  0  0  0
    1.4678   19.7254  -27.1081 H   0  0  0  0  0  0  0  0  0  0  0  0
    1.5332   18.3903  -29.0035 H   0  0  0  0  0  0  0  0  0  0  0  0
   -0.1680   18.1986  -28.3688 H   0  0  0  0  0  0  0  0  0  0  0  0
    1.5051   18.1141  -31.2106 H   0  0  0  0  0  0  0  0  0  0  0  0
    0.5230   18.6920  -34.6650 H   0  0  0  0  0  0  0  0  0  0  0  0
   -2.5034   21.0185  -31.7941 H   0  0  0  0  0  0  0  0  0  0  0  0
   -3.5916   22.6508  -30.4219 H   0  0  0  0  0  0  0  0  0  0  0  0
  1  2  1  0
  2  3  2  0
  3  4  1  0
  4  5  2  0
  5  6  1  0
  6  7  1  0
  7  8  1  0
  8  9  1  0
  9 10  1  0
 10 11  1  0
 11 12  2  0
 12 13  1  0
 13 14  1  0
 13 15  2  0
 15 16  1  0
 15 17  1  0
 17 18  2  0
  5 19  1  0
 19 20  2  0
 20 21  1  0
 20  2  1  0
 18  6  1  0
 18 11  1  0
  3 22  1  0
  4 23  1  0
  6 24  1  6
  7 25  1  0
  7 26  1  0
  8 27  1  0
  9 28  1  0
  9 29  1  0
 10 30  1  0
 10 31  1  0
 12 32  1  0
 14 33  1  0
 17 34  1  0
 19 35  1  0
M  CHG  3   1  -1  16  -1  21  -1
M  END
>  <UniqueID>  (18) 
15

>  <SMILES>  (18) 
[O-]c1ccc([C@@H]2CNCCc3cc(O)c([O-])cc32)cc1[O-]

>  <Energy>  (18) 
53.09433562927592

>  <Genealogy>  (18) 
[O-]c1ccc(C2CNCCc3cc(O)c([O-])cc32)cc1[O-] (protonated)
[O-]c1ccc([C@@H]2CNCCc3cc(O)c([O-])cc32)cc1[O-] (chirality)
[O-]c1ccc([C@@H]2CNCCc3cc(O)c([O-])cc32)cc1[O-] (3D coordinates assigned)
[O-]c1ccc([C@@H]2CNCCc3cc(O)c([O-])cc32)cc1[O-] (nonaromatic ring conformer: 53.09433562927592 kcal/mol)

>  <smiles>  (18) 
Oc1ccc(C2CNCCc3cc(O)c(O)cc32)cc1O

>  <score_type>  (18) 
oracle

>  <origin>  (18) 
adgpu

>  <m_score__min__energy>  (18) 
-9.6099999999999994

>  <m_primary>  (18) 
energy

$$$$
18:0
     RDKit          3D

 24 25  0  0  0  0  0  0  0  0999 V2000
   -3.8670   25.3430  -30.8030 O   0  0  0  0  0  0  0  0  0  0  0  0
   -4.2030   24.4070  -30.0300 C   0  0  0  0  0  0  0  0  0  0  0  0
   -5.5720   23.9730  -30.0320 N   0  0  0  0  0  0  0  0  0  0  0  0
   -6.1230   23.0970  -30.8280 C   0  0  0  0  0  0  0  0  0  0  0  0
   -5.3840   22.3440  -31.7650 C   0  0  0  0  0  0  0  0  0  0  0  0
   -6.0450   21.4220  -32.5800 C   0  0  0  0  0  0  0  0  0  0  0  0
   -7.3870   21.2450  -32.4650 N   0  0  0  0  0  0  0  0  0  0  0  0
   -8.1220   21.9440  -31.5600 C   0  0  0  0  0  0  0  0  0  0  0  0
   -7.5030   22.8760  -30.7240 C   0  0  0  0  0  0  0  0  0  0  0  0
   -3.1660   23.7480  -29.1960 C   0  0  0  0  0  0  0  0  0  0  0  0
   -3.4120   22.4620  -28.6810 C   0  0  0  0  0  0  0  0  0  0  0  0
   -2.4480   21.8110  -27.9060 C   0  0  0  0  0  0  0  0  0  0  0  0
   -2.6970   20.5360  -27.4110 O   0  0  0  0  0  0  0  0  0  0  0  0
   -1.2300   22.4390  -27.6310 C   0  0  0  0  0  0  0  0  0  0  0  0
   -0.9800   23.7210  -28.1220 C   0  0  0  0  0  0  0  0  0  0  0  0
   -1.9410   24.3830  -28.8950 C   0  0  0  0  0  0  0  0  0  0  0  0
   -1.6760   25.6750  -29.3360 O   0  0  0  0  0  0  0  0  0  0  0  0
   -4.2962   22.4819  -31.8529 H   0  0  0  0  0  0  0  0  0  0  0  0
   -5.4766   20.8369  -33.3179 H   0  0  0  0  0  0  0  0  0  0  0  0
   -9.2065   21.7753  -31.4859 H   0  0  0  0  0  0  0  0  0  0  0  0
   -8.0970   23.4350  -29.9860 H   0  0  0  0  0  0  0  0  0  0  0  0
   -4.3707   21.9649  -28.8900 H   0  0  0  0  0  0  0  0  0  0  0  0
   -0.4687   21.9228  -27.0277 H   0  0  0  0  0  0  0  0  0  0  0  0
   -0.0221   24.2143  -27.9003 H   0  0  0  0  0  0  0  0  0  0  0  0
  1  2  2  0
  2  3  1  0
  3  4  2  3
  4  5  1  0
  5  6  2  0
  6  7  1  0
  7  8  1  0
  8  9  2  0
  2 10  1  0
 10 11  2  0
 11 12  1  0
 12 13  1  0
 12 14  2  0
 14 15  1  0
 15 16  2  0
 16 17  1  0
  9  4  1  0
 16 10  1  0
  5 18  1  0
  6 19  1  0
  8 20  1  0
  9 21  1  0
 11 22  1  0
 14 23  1  0
 15 24  1  0
M  CHG  3   7  -1  13  -1  17  -1
M  END
>  <UniqueID>  (19) 
16

>  <SMILES>  (19) 
O=C(N=c1cc[n-]cc1)c1cc([O-])ccc1[O-]

>  <Energy>  (19) 
38.39427636055484

>  <Genealogy>  (19) 
O=C(N=c1cc[n-]cc1)c1cc([O-])ccc1[O-] (protonated)
O=C(N=c1cc[n-]cc1)c1cc([O-])ccc1[O-] (3D coordinates assigned)
O=C(N=c1cc[n-]cc1)c1cc([O-])ccc1[O-] (optimized conformer: 38.39427636055484 kcal/mol)

>  <smiles>  (19) 
O=C(N=c1cc[nH]cc1)c1cc(O)ccc1O

>  <score_type>  (19) 
oracle

>  <origin>  (19) 
adgpu

>  <m_score__min__energy>  (19) 
-8.9499999999999993

>  <m_primary>  (19) 
energy

$$$$
19:0
     RDKit          3D

 21 22  0  0  0  0  0  0  0  0999 V2000
   -3.6080   25.8950  -30.8300 H   0  0  0  0  0  0  0  0  0  0  0  0
   -3.5950   24.9080  -30.4850 N   0  0  0  0  0  0  0  0  0  0  0  0
   -2.7090   24.5020  -29.6360 C   0  0  0  0  0  0  0  0  0  0  0  0
   -2.7230   23.2130  -29.2130 N   0  0  0  0  0  0  0  0  0  0  0  0
   -1.8050   22.7430  -28.3240 C   0  0  0  0  0  0  0  0  0  0  0  0
   -1.8810   21.3250  -27.9180 C   0  0  0  0  0  0  0  0  0  0  0  0
   -0.7340   20.5160  -27.9880 C   0  0  0  0  0  0  0  0  0  0  0  0
    0.2099   20.9360  -28.3656 H   0  0  0  0  0  0  0  0  0  0  0  0
   -0.7870   19.1800  -27.5800 C   0  0  0  0  0  0  0  0  0  0  0  0
    0.1113   18.5489  -27.6488 H   0  0  0  0  0  0  0  0  0  0  0  0
   -1.9790   18.6450  -27.0850 C   0  0  0  0  0  0  0  0  0  0  0  0
   -2.0198   17.5923  -26.7685 H   0  0  0  0  0  0  0  0  0  0  0  0
   -3.1190   19.4470  -26.9920 C   0  0  0  0  0  0  0  0  0  0  0  0
   -4.0558   19.0263  -26.5978 H   0  0  0  0  0  0  0  0  0  0  0  0
   -3.0710   20.7830  -27.3990 C   0  0  0  0  0  0  0  0  0  0  0  0
   -3.9680   21.4139  -27.3132 H   0  0  0  0  0  0  0  0  0  0  0  0
   -0.8290   23.6250  -27.8150 C   0  0  0  0  0  0  0  0  0  0  0  0
    0.3260   23.1300  -26.5740 Cl  0  0  0  0  0  0  0  0  0  0  0  0
   -0.8330   24.9510  -28.2680 C   0  0  0  0  0  0  0  0  0  0  0  0
    0.0200   25.7740  -27.8420 O   0  0  0  0  0  0  0  0  0  0  0  0
   -1.7650   25.3580  -29.1660 N   0  0  0  0  0  0  0  0  0  0  0  0
  1  2  1  0
  2  3  2  0
  3  4  1  0
  4  5  1  0
  5  6  1  0
  6  7  2  0
  7  8  1  0
  7  9  1  0
  9 10  1  0
  9 11  2  0
 11 12  1  0
 11 13  1  0
 13 14  1  0
 13 15  2  0
 15 16  1  0
  5 17  2  0
 17 18  1  0
 17 19  1  0
 19 20  2  0
 19 21  1  0
 21  3  1  0
 15  6  1  0
M  CHG  2   4  -1  21  -1
M  END
>  <UniqueID>  (20) 
17

>  <SMILES>  (20) 
[H]/N=c1/[n-]c(-c2ccccc2)c(Cl)c(=O)[n-]1

>  <Energy>  (20) 
30.299258542055338

>  <Genealogy>  (20) 
N=c1[n-]c(-c2ccccc2)c(Cl)c(=O)[n-]1 (protonated)
[H]/N=c1/[n-]c(-c2ccccc2)c(Cl)c(=O)[n-]1 (cis-trans isomerization)
[H]/N=c1/[n-]c(-c2ccccc2)c(Cl)c(=O)[n-]1 (3D coordinates assigned)
[H]/N=c1/[n-]c(-c2ccccc2)c(Cl)c(=O)[n-]1 (optimized conformer: 30.299258542055338 kcal/mol)

>  <smiles>  (20) 
N=c1[nH]c(-c2ccccc2)c(Cl)c(=O)[nH]1

>  <score_type>  (20) 
oracle

>  <origin>  (20) 
adgpu

>  <m_score__min__energy>  (20) 
-8.8699999999999992

>  <m_primary>  (20) 
energy

$$$$
20:0
     RDKit          3D

 31 32  0  0  0  0  0  0  0  0999 V2000
   -2.4610   26.4250  -28.9660 H   0  0  0  0  0  0  0  0  0  0  0  0
   -1.9970   25.5320  -28.8480 O   0  0  0  0  0  0  0  0  0  0  0  0
   -2.5100   24.3650  -29.4120 C   0  0  0  0  0  0  0  0  0  0  0  0
   -2.0600   23.1100  -28.9820 C   0  0  0  0  0  0  0  0  0  0  0  0
   -1.2944   23.0420  -28.1951 H   0  0  0  0  0  0  0  0  0  0  0  0
   -2.5810   21.9440  -29.5500 C   0  0  0  0  0  0  0  0  0  0  0  0
   -2.2138   20.9631  -29.2138 H   0  0  0  0  0  0  0  0  0  0  0  0
   -3.5690   22.0130  -30.5460 C   0  0  0  0  0  0  0  0  0  0  0  0
   -4.0820   20.7450  -31.1240 C   0  0  0  0  0  0  0  0  0  0  0  0
   -3.5637   19.8094  -30.8672 H   0  0  0  0  0  0  0  0  0  0  0  0
   -5.1440   20.6780  -31.9430 C   0  0  0  0  0  0  0  0  0  0  0  0
   -5.6621   21.6136  -32.2004 H   0  0  0  0  0  0  0  0  0  0  0  0
   -5.6570   19.4100  -32.5200 C   0  0  0  0  0  0  0  0  0  0  0  0
   -6.7390   18.7040  -31.9600 C   0  0  0  0  0  0  0  0  0  0  0  0
   -7.2307   19.0872  -31.0537 H   0  0  0  0  0  0  0  0  0  0  0  0
   -7.1930   17.5190  -32.5480 C   0  0  0  0  0  0  0  0  0  0  0  0
   -8.0337   16.9721  -32.0961 H   0  0  0  0  0  0  0  0  0  0  0  0
   -6.5820   17.0220  -33.7130 C   0  0  0  0  0  0  0  0  0  0  0  0
   -7.0060   15.8360  -34.3340 O   0  0  0  0  0  0  0  0  0  0  0  0
   -6.3460   14.5810  -34.2070 C   0  0  0  0  0  0  0  0  0  0  0  0
   -6.2191   14.3397  -33.1413 H   0  0  0  0  0  0  0  0  0  0  0  0
   -6.9494   13.7988  -34.6908 H   0  0  0  0  0  0  0  0  0  0  0  0
   -5.3596   14.6349  -34.6908 H   0  0  0  0  0  0  0  0  0  0  0  0
   -5.5170   17.7330  -34.2810 C   0  0  0  0  0  0  0  0  0  0  0  0
   -4.9040   17.2610  -35.4360 O   0  0  0  0  0  0  0  0  0  0  0  0
   -5.0630   18.9180  -33.6930 C   0  0  0  0  0  0  0  0  0  0  0  0
   -4.2314   19.4705  -34.1547 H   0  0  0  0  0  0  0  0  0  0  0  0
   -4.0060   23.2790  -30.9840 C   0  0  0  0  0  0  0  0  0  0  0  0
   -4.7638   23.3509  -31.7781 H   0  0  0  0  0  0  0  0  0  0  0  0
   -3.4820   24.4460  -30.4150 C   0  0  0  0  0  0  0  0  0  0  0  0
   -3.9250   25.6870  -30.8570 O   0  0  0  0  0  0  0  0  0  0  0  0
  1  2  1  0
  2  3  1  0
  3  4  2  0
  4  5  1  0
  4  6  1  0
  6  7  1  0
  6  8  2  0
  8  9  1  0
  9 10  1  0
  9 11  2  0
 11 12  1  0
 11 13  1  0
 13 14  2  0
 14 15  1  0
 14 16  1  0
 16 17  1  0
 16 18  2  0
 18 19  1  0
 19 20  1  0
 20 21  1  0
 20 22  1  0
 20 23  1  0
 18 24  1  0
 24 25  1  0
 24 26  2  0
 26 27  1  0
  8 28  1  0
 28 29  1  0
 28 30  2  0
 30 31  1  0
 30  3  1  0
 26 13  1  0
M  CHG  2  25  -1  31  -1
M  END
>  <UniqueID>  (21) 
18

>  <SMILES>  (21) 
COc1ccc(/C=C/c2ccc(O)c([O-])c2)cc1[O-]

>  <Energy>  (21) 
36.38536456961622

>  <Genealogy>  (21) 
COc1ccc(C=Cc2ccc(O)c([O-])c2)cc1[O-] (protonated)
COc1ccc(/C=C/c2ccc(O)c([O-])c2)cc1[O-] (cis-trans isomerization)
COc1ccc(/C=C/c2ccc(O)c([O-])c2)cc1[O-] (3D coordinates assigned)
COc1ccc(/C=C/c2ccc(O)c([O-])c2)cc1[O-] (optimized conformer: 36.38536456961622 kcal/mol)

>  <smiles>  (21) 
COc1ccc(C=Cc2ccc(O)c(O)c2)cc1O

>  <score_type>  (21) 
oracle

>  <origin>  (21) 
adgpu

>  <m_score__min__energy>  (21) 
-9.9700000000000006

>  <m_primary>  (21) 
energy

$$$$
21:0
     RDKit          3D

 63 66  0  0  0  0  0  0  0  0999 V2000
   -5.8330   13.5830  -34.2290 C   0  0  0  0  0  0  0  0  0  0  0  0
   -4.6320   14.3220  -34.6080 N   0  0  0  0  0  0  0  0  0  0  0  0
   -4.4830   15.7470  -34.5060 C   0  0  0  0  0  0  0  0  0  0  0  0
   -3.6910   16.3350  -35.2880 O   0  0  0  0  0  0  0  0  0  0  0  0
   -5.2080   16.5460  -33.4990 C   0  0  0  0  0  0  0  0  0  0  0  0
   -5.7540   17.7940  -33.8270 C   0  0  0  0  0  0  0  0  0  0  0  0
   -6.4540   18.5170  -32.8570 C   0  0  0  0  0  0  0  0  0  0  0  0
   -7.0160   19.7510  -33.2020 O   0  0  0  0  0  0  0  0  0  0  0  0
   -6.5100   20.9960  -32.8070 C   0  0  0  0  0  0  0  0  0  0  0  0
   -7.3870   21.9370  -32.2550 C   0  0  0  0  0  0  0  0  0  0  0  0
   -6.9170   23.1920  -31.8530 C   0  0  0  0  0  0  0  0  0  0  0  0
   -5.5580   23.5070  -31.9660 C   0  0  0  0  0  0  0  0  0  0  0  0
   -5.1020   24.8150  -31.5840 N   0  0  0  0  0  0  0  0  0  0  0  0
   -4.7490   25.1800  -30.2480 C   0  0  0  0  0  0  0  0  0  0  0  0
   -5.6060   25.7240  -29.5040 O   0  0  0  0  0  0  0  0  0  0  0  0
   -3.4510   24.8580  -29.7400 N   0  0  0  0  0  0  0  0  0  0  0  0
   -3.0650   23.6660  -29.0410 C   0  0  0  0  0  0  0  0  0  0  0  0
   -3.9400   23.1850  -28.0630 C   0  0  0  0  0  0  0  0  0  0  0  0
   -3.7340   21.9460  -27.4800 C   0  0  0  0  0  0  0  0  0  0  0  0
   -2.6710   21.1340  -27.8870 C   0  0  0  0  0  0  0  0  0  0  0  0
   -2.6130   19.5360  -27.1490 Cl  0  0  0  0  0  0  0  0  0  0  0  0
   -1.7540   21.5880  -28.8750 C   0  0  0  0  0  0  0  0  0  0  0  0
   -0.4840   20.4860  -29.5120 S   0  0  0  0  0  0  0  0  0  0  0  0
    0.7910   20.6450  -28.7290 O   0  0  0  0  0  0  0  0  0  0  0  0
   -0.8930   19.0500  -29.3440 O   0  0  0  0  0  0  0  0  0  0  0  0
   -0.1920   20.7510  -31.2190 N   0  0  0  0  0  0  0  0  0  0  0  0
   -1.4340   20.7290  -32.0010 C   0  0  0  0  0  0  0  0  0  0  0  0
   -1.1490   21.2030  -33.4410 C   0  0  0  0  0  0  0  0  0  0  0  0
    0.2740   21.0320  -33.8100 N   0  0  0  0  0  0  0  0  0  0  0  0
    0.4320   21.1000  -35.2730 C   0  0  0  0  0  0  0  0  0  0  0  0
    0.8070   19.7610  -33.2890 C   0  0  0  0  0  0  0  0  0  0  0  0
    0.7810   19.7710  -31.7450 C   0  0  0  0  0  0  0  0  0  0  0  0
   -1.9460   22.8910  -29.4280 C   0  0  0  0  0  0  0  0  0  0  0  0
   -1.0790   23.4320  -30.3780 O   0  0  0  0  0  0  0  0  0  0  0  0
   -4.6750   22.5580  -32.5090 C   0  0  0  0  0  0  0  0  0  0  0  0
   -5.1440   21.3100  -32.9190 C   0  0  0  0  0  0  0  0  0  0  0  0
   -4.2580   20.3990  -33.3940 F   0  0  0  0  0  0  0  0  0  0  0  0
   -6.5490   18.0060  -31.5510 C   0  0  0  0  0  0  0  0  0  0  0  0
   -5.9450   16.7860  -31.2450 C   0  0  0  0  0  0  0  0  0  0  0  0
   -5.2910   16.0890  -32.2140 N   0  0  0  0  0  0  0  0  0  0  0  0
   -5.9053   13.5385  -33.1323 H   0  0  0  0  0  0  0  0  0  0  0  0
   -6.7199   14.0918  -34.6346 H   0  0  0  0  0  0  0  0  0  0  0  0
   -5.7785   12.5620  -34.6346 H   0  0  0  0  0  0  0  0  0  0  0  0
   -5.6325   18.2021  -34.8412 H   0  0  0  0  0  0  0  0  0  0  0  0
   -8.4520   21.6883  -32.1366 H   0  0  0  0  0  0  0  0  0  0  0  0
   -7.6190   23.9347  -31.4461 H   0  0  0  0  0  0  0  0  0  0  0  0
   -4.8004   23.7965  -27.7535 H   0  0  0  0  0  0  0  0  0  0  0  0
   -4.4136   21.5970  -26.6886 H   0  0  0  0  0  0  0  0  0  0  0  0
   -1.8328   19.7041  -32.0254 H   0  0  0  0  0  0  0  0  0  0  0  0
   -2.1703   21.4004  -31.5350 H   0  0  0  0  0  0  0  0  0  0  0  0
   -1.7689   20.6182  -34.1365 H   0  0  0  0  0  0  0  0  0  0  0  0
   -1.3885   22.2750  -33.4993 H   0  0  0  0  0  0  0  0  0  0  0  0
    1.4174   21.5241  -35.5161 H   0  0  0  0  0  0  0  0  0  0  0  0
    0.3533   20.0884  -35.6977 H   0  0  0  0  0  0  0  0  0  0  0  0
   -0.3568   21.7383  -35.6977 H   0  0  0  0  0  0  0  0  0  0  0  0
    0.1901   18.9285  -33.6584 H   0  0  0  0  0  0  0  0  0  0  0  0
    1.8448   19.6369  -33.6320 H   0  0  0  0  0  0  0  0  0  0  0  0
    0.5052   18.7681  -31.3870 H   0  0  0  0  0  0  0  0  0  0  0  0
    1.7814   20.0569  -31.3880 H   0  0  0  0  0  0  0  0  0  0  0  0
   -0.4930   22.9010  -30.9970 H   0  0  0  0  0  0  0  0  0  0  0  0
   -3.6071   22.8010  -32.6113 H   0  0  0  0  0  0  0  0  0  0  0  0
   -7.0954   18.5637  -30.7761 H   0  0  0  0  0  0  0  0  0  0  0  0
   -5.9974   16.3877  -30.2210 H   0  0  0  0  0  0  0  0  0  0  0  0
  1  2  1  0
  2  3  1  0
  3  4  2  0
  3  5  1  0
  5  6  2  0
  6  7  1  0
  7  8  1  0
  8  9  1  0
  9 10  2  0
 10 11  1  0
 11 12  2  0
 12 13  1  0
 13 14  1  0
 14 15  2  0
 14 16  1  0
 16 17  1  0
 17 18  2  0
 18 19  1  0
 19 20  2  0
 20 21  1  0
 20 22  1  0
 22 23  1  0
 23 24  2  0
 23 25  2  0
 23 26  1  0
 26 27  1  0
 27 28  1  0
 28 29  1  0
 29 30  1  0
 29 31  1  0
 31 32  1  0
 22 33  2  0
 33 34  1  0
 12 35  1  0
 35 36  2  0
 36 37  1  0
  7 38  2  0
 38 39  1  0
 39 40  2  0
 40  5  1  0
 36  9  1  0
 33 17  1  0
 32 26  1  0
  1 41  1  0
  1 42  1  0
  1 43  1  0
  6 44  1  0
 10 45  1  0
 11 46  1  0
 18 47  1  0
 19 48  1  0
 27 49  1  0
 27 50  1  0
 28 51  1  0
 28 52  1  0
 30 53  1  0
 30 54  1  0
 30 55  1  0
 31 56  1  0
 31 57  1  0
 32 58  1  0
 32 59  1  0
 34 60  1  0
 35 61  1  0
 38 62  1  0
 39 63  1  0
M  CHG  3   2  -1  13  -1  16  -1
M  END
>  <UniqueID>  (22) 
19

>  <SMILES>  (22) 
C[N-]C(=O)c1cc(Oc2ccc([N-]C(=O)[N-]c3ccc(Cl)c(S(=O)(=O)N4CCN(C)CC4)c3O)cc2F)ccn1

>  <Energy>  (22) 
103.21993089866993

>  <Genealogy>  (22) 
C[N-]C(=O)c1cc(Oc2ccc([N-]C(=O)[N-]c3ccc(Cl)c(S(=O)(=O)N4CCN(C)CC4)c3O)cc2F)ccn1 (protonated)
C[N-]C(=O)c1cc(Oc2ccc([N-]C(=O)[N-]c3ccc(Cl)c(S(=O)(=O)N4CCN(C)CC4)c3O)cc2F)ccn1 (3D coordinates assigned)
C[N-]C(=O)c1cc(Oc2ccc([N-]C(=O)[N-]c3ccc(Cl)c(S(=O)(=O)N4CCN(C)CC4)c3O)cc2F)ccn1 (nonaromatic ring conformer: 103.21993089866993 kcal/mol)

>  <smiles>  (22) 
CNC(=O)c1cc(Oc2ccc(NC(=O)Nc3ccc(Cl)c(S(=O)(=O)N4CCN(C)CC4)c3O)cc2F)ccn1

>  <score_type>  (22) 
oracle

>  <origin>  (22) 
adgpu

>  <m_score__min__energy>  (22) 
-13.06

>  <m_primary>  (22) 
energy

$$$$
22:0
     RDKit          3D

 48 50  0  0  0  0  0  0  0  0999 V2000
   -3.5470   25.1810  -30.4160 N   0  0  0  0  0  0  0  0  0  0  0  0
   -4.6870   23.9540  -30.8420 S   0  0  0  0  0  0  0  0  0  0  0  0
   -5.4410   23.5260  -29.6150 O   0  0  0  0  0  0  0  0  0  0  0  0
   -5.6650   24.5010  -31.8440 O   0  0  0  0  0  0  0  0  0  0  0  0
   -3.8330   22.5820  -31.5360 C   0  0  0  0  0  0  0  0  0  0  0  0
   -4.2270   22.0740  -32.7790 C   0  0  0  0  0  0  0  0  0  0  0  0
   -3.5190   21.0220  -33.3650 C   0  0  0  0  0  0  0  0  0  0  0  0
   -2.3940   20.4870  -32.7270 C   0  0  0  0  0  0  0  0  0  0  0  0
   -1.6470   19.4600  -33.3900 N   0  0  0  0  0  0  0  0  0  0  0  0
   -1.9340   18.0530  -33.4310 C   0  0  0  0  0  0  0  0  0  0  0  0
   -1.7790   17.3840  -32.3770 O   0  0  0  0  0  0  0  0  0  0  0  0
   -2.4600   17.3330  -34.6530 C   0  0  0  0  0  0  0  0  0  0  0  0
   -3.7840   16.8190  -34.4960 O   0  0  0  0  0  0  0  0  0  0  0  0
   -4.8560   17.4780  -33.8770 C   0  0  0  0  0  0  0  0  0  0  0  0
   -5.3770   18.6970  -34.3490 C   0  0  0  0  0  0  0  0  0  0  0  0
   -6.5170   19.2480  -33.7570 C   0  0  0  0  0  0  0  0  0  0  0  0
   -7.1400   18.5960  -32.6850 C   0  0  0  0  0  0  0  0  0  0  0  0
   -8.6310   19.2310  -31.9960 S   0  0  0  0  0  0  0  0  0  0  0  0
   -9.3390   18.1470  -31.2300 O   0  0  0  0  0  0  0  0  0  0  0  0
   -9.5150   19.7020  -33.1160 O   0  0  0  0  0  0  0  0  0  0  0  0
   -8.2640   20.5690  -30.9280 N   0  0  0  0  0  0  0  0  0  0  0  0
   -9.3690   21.5340  -30.9080 C   0  0  0  0  0  0  0  0  0  0  0  0
   -9.0680   22.6210  -31.9290 C   0  0  0  0  0  0  0  0  0  0  0  0
   -7.5970   22.4720  -32.2650 C   0  0  0  0  0  0  0  0  0  0  0  0
   -7.0990   21.3120  -31.4160 C   0  0  0  0  0  0  0  0  0  0  0  0
   -6.5900   17.4130  -32.1800 C   0  0  0  0  0  0  0  0  0  0  0  0
   -5.4520   16.8620  -32.7710 C   0  0  0  0  0  0  0  0  0  0  0  0
   -2.0220   20.9670  -31.4610 C   0  0  0  0  0  0  0  0  0  0  0  0
   -2.7340   22.0180  -30.8730 C   0  0  0  0  0  0  0  0  0  0  0  0
   -3.8800   26.0710  -30.8480 H   0  0  0  0  0  0  0  0  0  0  0  0
   -5.0971   22.5045  -33.2963 H   0  0  0  0  0  0  0  0  0  0  0  0
   -3.8470   20.6124  -34.3318 H   0  0  0  0  0  0  0  0  0  0  0  0
   -2.4599   18.0380  -35.4974 H   0  0  0  0  0  0  0  0  0  0  0  0
   -1.8001   16.4697  -34.8241 H   0  0  0  0  0  0  0  0  0  0  0  0
   -4.8864   19.2170  -35.1850 H   0  0  0  0  0  0  0  0  0  0  0  0
   -6.9263   20.1968  -34.1341 H   0  0  0  0  0  0  0  0  0  0  0  0
  -10.3102   21.0281  -31.1690 H   0  0  0  0  0  0  0  0  0  0  0  0
   -9.4727   21.9728  -29.9046 H   0  0  0  0  0  0  0  0  0  0  0  0
   -9.6833   22.4818  -32.8301 H   0  0  0  0  0  0  0  0  0  0  0  0
   -9.2951   23.6225  -31.5348 H   0  0  0  0  0  0  0  0  0  0  0  0
   -7.4681   22.2483  -33.3343 H   0  0  0  0  0  0  0  0  0  0  0  0
   -7.0370   23.3963  -32.0600 H   0  0  0  0  0  0  0  0  0  0  0  0
   -6.4638   20.6512  -32.0241 H   0  0  0  0  0  0  0  0  0  0  0  0
   -6.5059   21.6878  -30.5693 H   0  0  0  0  0  0  0  0  0  0  0  0
   -7.0552   16.9163  -31.3158 H   0  0  0  0  0  0  0  0  0  0  0  0
   -5.0201   15.9358  -32.3640 H   0  0  0  0  0  0  0  0  0  0  0  0
   -1.1700   20.5163  -30.9310 H   0  0  0  0  0  0  0  0  0  0  0  0
   -2.4308   22.4028  -29.8881 H   0  0  0  0  0  0  0  0  0  0  0  0
  1  2  1  0
  2  3  2  0
  2  4  2  0
  2  5  1  0
  5  6  2  0
  6  7  1  0
  7  8  2  0
  8  9  1  0
  9 10  1  0
 10 11  2  0
 10 12  1  0
 12 13  1  0
 13 14  1  0
 14 15  2  0
 15 16  1  0
 16 17  2  0
 17 18  1  0
 18 19  2  0
 18 20  2  0
 18 21  1  0
 21 22  1  0
 22 23  1  0
 23 24  1  0
 24 25  1  0
 17 26  1  0
 26 27  2  0
  8 28  1  0
 28 29  2  0
 29  5  1  0
 27 14  1  0
 25 21  1  0
  1 30  1  0
  6 31  1  0
  7 32  1  0
 12 33  1  0
 12 34  1  0
 15 35  1  0
 16 36  1  0
 22 37  1  0
 22 38  1  0
 23 39  1  0
 23 40  1  0
 24 41  1  0
 24 42  1  0
 25 43  1  0
 25 44  1  0
 26 45  1  0
 27 46  1  0
 28 47  1  0
 29 48  1  0
M  CHG  2   1  -1   9  -1
M  END
>  <UniqueID>  (23) 
20

>  <SMILES>  (23) 
[NH-]S(=O)(=O)c1ccc([N-]C(=O)COc2ccc(S(=O)(=O)N3CCCC3)cc2)cc1

>  <Energy>  (23) 
52.62196442830262

>  <Genealogy>  (23) 
[NH-]S(=O)(=O)c1ccc([N-]C(=O)COc2ccc(S(=O)(=O)N3CCCC3)cc2)cc1 (protonated)
[NH-]S(=O)(=O)c1ccc([N-]C(=O)COc2ccc(S(=O)(=O)N3CCCC3)cc2)cc1 (3D coordinates assigned)
[NH-]S(=O)(=O)c1ccc([N-]C(=O)COc2ccc(S(=O)(=O)N3CCCC3)cc2)cc1 (nonaromatic ring conformer: 52.62196442830262 kcal/mol)

>  <smiles>  (23) 
NS(=O)(=O)c1ccc(NC(=O)COc2ccc(S(=O)(=O)N3CCCC3)cc2)cc1

>  <score_type>  (23) 
oracle

>  <origin>  (23) 
adgpu

>  <m_score__min__energy>  (23) 
-12.06

>  <m_primary>  (23) 
energy

$$$$
23:0
     RDKit          3D

 52 54  0  0  0  0  0  0  0  0999 V2000
   -9.4100   21.3480  -31.5190 C   0  0  0  0  0  0  0  0  0  0  0  0
   -9.0960   20.1520  -32.3660 C   0  0  0  0  0  0  0  0  0  0  0  0
  -10.0520   19.5470  -32.9260 O   0  0  0  0  0  0  0  0  0  0  0  0
   -7.7030   19.6750  -32.5630 C   0  0  0  0  0  0  0  0  0  0  0  0
   -7.2540   18.5270  -31.8870 C   0  0  0  0  0  0  0  0  0  0  0  0
   -5.9490   18.0570  -32.0760 C   0  0  0  0  0  0  0  0  0  0  0  0
   -5.0760   18.7220  -32.9460 C   0  0  0  0  0  0  0  0  0  0  0  0
   -3.4480   18.1020  -33.1980 S   0  0  0  0  0  0  0  0  0  0  0  0
   -3.3350   16.6840  -32.7110 O   0  0  0  0  0  0  0  0  0  0  0  0
   -3.1390   18.1410  -34.6680 O   0  0  0  0  0  0  0  0  0  0  0  0
   -2.3040   19.0870  -32.3450 N   0  0  0  0  0  0  0  0  0  0  0  0
   -2.6340   20.3430  -31.7310 C   0  0  0  0  0  0  0  0  0  0  0  0
   -2.6200   20.5150  -30.3340 C   0  0  0  0  0  0  0  0  0  0  0  0
   -2.9630   21.7470  -29.7690 C   0  0  0  0  0  0  0  0  0  0  0  0
   -3.3130   22.8260  -30.5880 C   0  0  0  0  0  0  0  0  0  0  0  0
   -3.7630   24.3680  -29.8680 S   0  0  0  0  0  0  0  0  0  0  0  0
   -4.6870   24.1490  -28.7010 O   0  0  0  0  0  0  0  0  0  0  0  0
   -4.4920   25.1890  -30.8950 O   0  0  0  0  0  0  0  0  0  0  0  0
   -2.3700   25.2500  -29.3330 N   0  0  0  0  0  0  0  0  0  0  0  0
   -1.6700   24.9400  -28.1200 C   0  0  0  0  0  0  0  0  0  0  0  0
   -2.0250   25.5670  -26.9170 C   0  0  0  0  0  0  0  0  0  0  0  0
   -1.3450   25.2710  -25.7350 C   0  0  0  0  0  0  0  0  0  0  0  0
   -0.2910   24.3460  -25.7410 C   0  0  0  0  0  0  0  0  0  0  0  0
    0.4260   24.0060  -24.4680 C   0  0  0  0  0  0  0  0  0  0  0  0
    0.0420   23.6870  -26.9330 C   0  0  0  0  0  0  0  0  0  0  0  0
   -0.6500   23.9700  -28.1240 C   0  0  0  0  0  0  0  0  0  0  0  0
   -0.2710   23.2700  -29.4000 C   0  0  0  0  0  0  0  0  0  0  0  0
   -3.3170   22.6650  -31.9800 C   0  0  0  0  0  0  0  0  0  0  0  0
   -2.9770   21.4330  -32.5460 C   0  0  0  0  0  0  0  0  0  0  0  0
   -5.5150   19.8680  -33.6180 C   0  0  0  0  0  0  0  0  0  0  0  0
   -6.8160   20.3410  -33.4310 C   0  0  0  0  0  0  0  0  0  0  0  0
   -9.3380   21.0737  -30.4562 H   0  0  0  0  0  0  0  0  0  0  0  0
   -8.6925   22.1521  -31.7396 H   0  0  0  0  0  0  0  0  0  0  0  0
  -10.4299   21.6960  -31.7396 H   0  0  0  0  0  0  0  0  0  0  0  0
   -7.9329   17.9944  -31.2048 H   0  0  0  0  0  0  0  0  0  0  0  0
   -5.6074   17.1603  -31.5382 H   0  0  0  0  0  0  0  0  0  0  0  0
   -1.3020   18.7830  -32.3680 H   0  0  0  0  0  0  0  0  0  0  0  0
   -2.3374   19.6748  -29.6827 H   0  0  0  0  0  0  0  0  0  0  0  0
   -2.9577   21.8685  -28.6757 H   0  0  0  0  0  0  0  0  0  0  0  0
   -2.8465   26.2984  -26.9050 H   0  0  0  0  0  0  0  0  0  0  0  0
   -1.6365   25.7645  -24.7961 H   0  0  0  0  0  0  0  0  0  0  0  0
   -0.1940   24.3000  -23.6082 H   0  0  0  0  0  0  0  0  0  0  0  0
    0.6140   22.9228  -24.4311 H   0  0  0  0  0  0  0  0  0  0  0  0
    1.3837   24.5459  -24.4311 H   0  0  0  0  0  0  0  0  0  0  0  0
    0.8515   22.9422  -26.9365 H   0  0  0  0  0  0  0  0  0  0  0  0
    0.2403   22.3256  -29.1622 H   0  0  0  0  0  0  0  0  0  0  0  0
   -1.1779   23.0586  -29.9856 H   0  0  0  0  0  0  0  0  0  0  0  0
    0.4017   23.9139  -29.9856 H   0  0  0  0  0  0  0  0  0  0  0  0
   -3.5885   23.5105  -32.6291 H   0  0  0  0  0  0  0  0  0  0  0  0
   -2.9783   21.3167  -33.6398 H   0  0  0  0  0  0  0  0  0  0  0  0
   -4.8320   20.3993  -34.2972 H   0  0  0  0  0  0  0  0  0  0  0  0
   -7.1507   21.2417  -33.9664 H   0  0  0  0  0  0  0  0  0  0  0  0
  1  2  1  0
  2  3  2  0
  2  4  1  0
  4  5  2  0
  5  6  1  0
  6  7  2  0
  7  8  1  0
  8  9  2  0
  8 10  2  0
  8 11  1  0
 11 12  1  0
 12 13  2  0
 13 14  1  0
 14 15  2  0
 15 16  1  0
 16 17  2  0
 16 18  2  0
 16 19  1  0
 19 20  1  0
 20 21  2  0
 21 22  1  0
 22 23  2  0
 23 24  1  0
 23 25  1  0
 25 26  2  0
 26 27  1  0
 15 28  1  0
 28 29  2  0
  7 30  1  0
 30 31  2  0
 31  4  1  0
 29 12  1  0
 26 20  1  0
  1 32  1  0
  1 33  1  0
  1 34  1  0
  5 35  1  0
  6 36  1  0
 11 37  1  0
 13 38  1  0
 14 39  1  0
 21 40  1  0
 22 41  1  0
 24 42  1  0
 24 43  1  0
 24 44  1  0
 25 45  1  0
 27 46  1  0
 27 47  1  0
 27 48  1  0
 28 49  1  0
 29 50  1  0
 30 51  1  0
 31 52  1  0
M  CHG  1  19  -1
M  END
>  <UniqueID>  (24) 
21

>  <SMILES>  (24) 
CC(=O)c1ccc(S(=O)(=O)Nc2ccc(S(=O)(=O)[N-]c3ccc(C)cc3C)cc2)cc1

>  <Energy>  (24) 
64.0552487988507

>  <Genealogy>  (24) 
CC(=O)c1ccc(S(=O)(=O)Nc2ccc(S(=O)(=O)[N-]c3ccc(C)cc3C)cc2)cc1 (protonated)
CC(=O)c1ccc(S(=O)(=O)Nc2ccc(S(=O)(=O)[N-]c3ccc(C)cc3C)cc2)cc1 (3D coordinates assigned)
CC(=O)c1ccc(S(=O)(=O)Nc2ccc(S(=O)(=O)[N-]c3ccc(C)cc3C)cc2)cc1 (optimized conformer: 64.0552487988507 kcal/mol)

>  <smiles>  (24) 
CC(=O)c1ccc(S(=O)(=O)Nc2ccc(S(=O)(=O)Nc3ccc(C)cc3C)cc2)cc1

>  <score_type>  (24) 
oracle

>  <origin>  (24) 
adgpu

>  <m_score__min__energy>  (24) 
-11.81

>  <m_primary>  (24) 
energy

$$$$
24:0
     RDKit          3D

 48 50  0  0  0  0  0  0  0  0999 V2000
   -2.3440   24.4530  -28.3420 C   0  0  0  0  0  0  0  0  0  0  0  0
   -2.7010   24.9340  -29.6720 N   0  0  0  0  0  0  0  0  0  0  0  0
   -3.9360   23.9220  -30.3570 S   0  0  0  0  0  0  0  0  0  0  0  0
   -4.8670   24.7480  -31.2020 O   0  0  0  0  0  0  0  0  0  0  0  0
   -4.7330   23.3020  -29.2410 O   0  0  0  0  0  0  0  0  0  0  0  0
   -3.2180   22.6420  -31.3340 C   0  0  0  0  0  0  0  0  0  0  0  0
   -2.0890   21.9520  -30.8710 C   0  0  0  0  0  0  0  0  0  0  0  0
   -1.5340   20.9220  -31.6350 C   0  0  0  0  0  0  0  0  0  0  0  0
   -2.0910   20.5740  -32.8700 C   0  0  0  0  0  0  0  0  0  0  0  0
   -1.5200   19.5160  -33.5910 O   0  0  0  0  0  0  0  0  0  0  0  0
   -2.2160   18.4160  -34.1120 C   0  0  0  0  0  0  0  0  0  0  0  0
   -1.5710   17.4120  -34.8530 C   0  0  0  0  0  0  0  0  0  0  0  0
   -2.2980   16.3230  -35.3410 C   0  0  0  0  0  0  0  0  0  0  0  0
   -3.6670   16.2200  -35.0840 C   0  0  0  0  0  0  0  0  0  0  0  0
   -4.3180   17.2030  -34.3160 C   0  0  0  0  0  0  0  0  0  0  0  0
   -5.7290   17.1560  -34.0600 N   0  0  0  0  0  0  0  0  0  0  0  0
   -6.4620   18.0270  -33.1900 C   0  0  0  0  0  0  0  0  0  0  0  0
   -6.7090   17.6850  -32.0010 O   0  0  0  0  0  0  0  0  0  0  0  0
   -6.8940   19.3010  -33.6830 N   0  0  0  0  0  0  0  0  0  0  0  0
   -7.4120   20.3490  -32.8440 C   0  0  0  0  0  0  0  0  0  0  0  0
   -6.7050   21.5560  -32.7000 C   0  0  0  0  0  0  0  0  0  0  0  0
   -7.2220   22.5940  -31.9220 C   0  0  0  0  0  0  0  0  0  0  0  0
   -8.4550   22.4450  -31.2890 C   0  0  0  0  0  0  0  0  0  0  0  0
   -9.1780   21.2590  -31.4320 C   0  0  0  0  0  0  0  0  0  0  0  0
   -8.6650   20.2010  -32.2030 C   0  0  0  0  0  0  0  0  0  0  0  0
   -9.4560   18.9270  -32.3320 C   0  0  0  0  0  0  0  0  0  0  0  0
   -3.5860   18.2990  -33.8430 C   0  0  0  0  0  0  0  0  0  0  0  0
   -3.2340   21.2570  -33.3260 C   0  0  0  0  0  0  0  0  0  0  0  0
   -3.7890   22.2870  -32.5620 C   0  0  0  0  0  0  0  0  0  0  0  0
   -2.8178   25.0914  -27.5818 H   0  0  0  0  0  0  0  0  0  0  0  0
   -2.6937   23.4171  -28.2206 H   0  0  0  0  0  0  0  0  0  0  0  0
   -1.2513   24.4877  -28.2206 H   0  0  0  0  0  0  0  0  0  0  0  0
   -1.6390   22.2219  -29.9042 H   0  0  0  0  0  0  0  0  0  0  0  0
   -0.6520   20.3805  -31.2622 H   0  0  0  0  0  0  0  0  0  0  0  0
   -0.4911   17.4832  -35.0496 H   0  0  0  0  0  0  0  0  0  0  0  0
   -1.7905   15.5444  -35.9294 H   0  0  0  0  0  0  0  0  0  0  0  0
   -4.2376   15.3684  -35.4829 H   0  0  0  0  0  0  0  0  0  0  0  0
   -6.8610   19.4520  -34.7160 H   0  0  0  0  0  0  0  0  0  0  0  0
   -5.7360   21.6837  -33.2047 H   0  0  0  0  0  0  0  0  0  0  0  0
   -6.6557   23.5302  -31.8085 H   0  0  0  0  0  0  0  0  0  0  0  0
   -8.8593   23.2636  -30.6754 H   0  0  0  0  0  0  0  0  0  0  0  0
  -10.1551   21.1517  -30.9383 H   0  0  0  0  0  0  0  0  0  0  0  0
   -9.6956   18.5411  -31.3302 H   0  0  0  0  0  0  0  0  0  0  0  0
  -10.3883   19.1281  -32.8801 H   0  0  0  0  0  0  0  0  0  0  0  0
   -8.8622   18.1806  -32.8801 H   0  0  0  0  0  0  0  0  0  0  0  0
   -4.0925   19.0773  -33.2533 H   0  0  0  0  0  0  0  0  0  0  0  0
   -3.6919   20.9791  -34.2868 H   0  0  0  0  0  0  0  0  0  0  0  0
   -4.6785   22.8213  -32.9271 H   0  0  0  0  0  0  0  0  0  0  0  0
  1  2  1  0
  2  3  1  0
  3  4  2  0
  3  5  2  0
  3  6  1  0
  6  7  2  0
  7  8  1  0
  8  9  2  0
  9 10  1  0
 10 11  1  0
 11 12  2  0
 12 13  1  0
 13 14  2  0
 14 15  1  0
 15 16  1  0
 16 17  1  0
 17 18  2  0
 17 19  1  0
 19 20  1  0
 20 21  2  0
 21 22  1  0
 22 23  2  0
 23 24  1  0
 24 25  2  0
 25 26  1  0
 15 27  2  0
  9 28  1  0
 28 29  2  0
 29  6  1  0
 27 11  1  0
 25 20  1  0
  1 30  1  0
  1 31  1  0
  1 32  1  0
  7 33  1  0
  8 34  1  0
 12 35  1  0
 13 36  1  0
 14 37  1  0
 19 38  1  0
 21 39  1  0
 22 40  1  0
 23 41  1  0
 24 42  1  0
 26 43  1  0
 26 44  1  0
 26 45  1  0
 27 46  1  0
 28 47  1  0
 29 48  1  0
M  CHG  2   2  -1  16  -1
M  END
>  <UniqueID>  (25) 
22

>  <SMILES>  (25) 
C[N-]S(=O)(=O)c1ccc(Oc2cccc([N-]C(=O)Nc3ccccc3C)c2)cc1

>  <Energy>  (25) 
62.56610234918484

>  <Genealogy>  (25) 
C[N-]S(=O)(=O)c1ccc(Oc2cccc([N-]C(=O)Nc3ccccc3C)c2)cc1 (protonated)
C[N-]S(=O)(=O)c1ccc(Oc2cccc([N-]C(=O)Nc3ccccc3C)c2)cc1 (3D coordinates assigned)
C[N-]S(=O)(=O)c1ccc(Oc2cccc([N-]C(=O)Nc3ccccc3C)c2)cc1 (optimized conformer: 62.56610234918484 kcal/mol)

>  <smiles>  (25) 
CNS(=O)(=O)c1ccc(Oc2cccc(NC(=O)Nc3ccccc3C)c2)cc1

>  <score_type>  (25) 
oracle

>  <origin>  (25) 
adgpu

>  <m_score__min__energy>  (25) 
-11.380000000000001

>  <m_primary>  (25) 
energy

$$$$
25:0
     RDKit          3D

 42 44  0  0  0  0  0  0  0  0999 V2000
   -2.9480   19.4840  -34.2080 O   0  0  0  0  0  0  0  0  0  0  0  0
   -3.0660   18.2570  -34.0120 N   0  0  0  0  0  0  0  0  0  0  0  0
   -1.9300   17.4820  -33.9510 O   0  0  0  0  0  0  0  0  0  0  0  0
   -4.3670   17.6600  -33.8590 C   0  0  0  0  0  0  0  0  0  0  0  0
   -4.5860   16.3260  -34.2450 C   0  0  0  0  0  0  0  0  0  0  0  0
   -5.8510   15.7490  -34.1100 C   0  0  0  0  0  0  0  0  0  0  0  0
   -6.9120   16.4940  -33.5910 C   0  0  0  0  0  0  0  0  0  0  0  0
   -6.7140   17.8250  -33.1940 C   0  0  0  0  0  0  0  0  0  0  0  0
   -7.8800   18.6410  -32.6970 C   0  0  0  0  0  0  0  0  0  0  0  0
   -7.7600   20.0280  -33.1470 N   0  0  0  0  0  0  0  0  0  0  0  0
   -7.1260   21.0510  -32.3610 C   0  0  0  0  0  0  0  0  0  0  0  0
   -5.8150   21.4790  -32.6390 C   0  0  0  0  0  0  0  0  0  0  0  0
   -5.2650   22.5590  -31.9460 C   0  0  0  0  0  0  0  0  0  0  0  0
   -6.0090   23.2180  -30.9610 C   0  0  0  0  0  0  0  0  0  0  0  0
   -5.3740   24.6930  -30.2410 S   0  0  0  0  0  0  0  0  0  0  0  0
   -4.2890   25.2820  -31.0990 O   0  0  0  0  0  0  0  0  0  0  0  0
   -6.4890   25.6910  -30.1050 O   0  0  0  0  0  0  0  0  0  0  0  0
   -4.7240   24.3330  -28.6710 N   0  0  0  0  0  0  0  0  0  0  0  0
   -3.4700   24.4710  -28.3570 C   0  0  0  0  0  0  0  0  0  0  0  0
   -3.0380   24.1240  -27.0710 C   0  0  0  0  0  0  0  0  0  0  0  0
   -1.6850   24.2490  -26.7450 C   0  0  0  0  0  0  0  0  0  0  0  0
   -0.7810   24.7220  -27.6980 C   0  0  0  0  0  0  0  0  0  0  0  0
   -1.2460   25.0650  -28.9680 C   0  0  0  0  0  0  0  0  0  0  0  0
   -2.5660   24.9350  -29.2660 N   0  0  0  0  0  0  0  0  0  0  0  0
   -7.2910   22.7550  -30.6350 C   0  0  0  0  0  0  0  0  0  0  0  0
   -7.8430   21.6720  -31.3260 C   0  0  0  0  0  0  0  0  0  0  0  0
   -5.4390   18.4020  -33.3290 C   0  0  0  0  0  0  0  0  0  0  0  0
   -3.7558   15.7328  -34.6560 H   0  0  0  0  0  0  0  0  0  0  0  0
   -6.0119   14.7040  -34.4136 H   0  0  0  0  0  0  0  0  0  0  0  0
   -7.9070   16.0354  -33.4930 H   0  0  0  0  0  0  0  0  0  0  0  0
   -8.8149   18.2127  -33.0876 H   0  0  0  0  0  0  0  0  0  0  0  0
   -7.8862   18.6218  -31.5972 H   0  0  0  0  0  0  0  0  0  0  0  0
   -7.9610   20.2270  -34.1540 H   0  0  0  0  0  0  0  0  0  0  0  0
   -5.2207   20.9605  -33.4057 H   0  0  0  0  0  0  0  0  0  0  0  0
   -4.2424   22.8933  -32.1753 H   0  0  0  0  0  0  0  0  0  0  0  0
   -3.7572   23.7564  -26.3242 H   0  0  0  0  0  0  0  0  0  0  0  0
   -1.3328   23.9753  -25.7395 H   0  0  0  0  0  0  0  0  0  0  0  0
    0.2860   24.8231  -27.4504 H   0  0  0  0  0  0  0  0  0  0  0  0
   -0.5448   25.4405  -29.7278 H   0  0  0  0  0  0  0  0  0  0  0  0
   -7.8641   23.2446  -29.8339 H   0  0  0  0  0  0  0  0  0  0  0  0
   -8.8444   21.3046  -31.0572 H   0  0  0  0  0  0  0  0  0  0  0  0
   -5.2776   19.4444  -33.0171 H   0  0  0  0  0  0  0  0  0  0  0  0
  1  2  2  0
  2  3  1  0
  2  4  1  0
  4  5  2  0
  5  6  1  0
  6  7  2  0
  7  8  1  0
  8  9  1  0
  9 10  1  0
 10 11  1  0
 11 12  2  0
 12 13  1  0
 13 14  2  0
 14 15  1  0
 15 16  2  0
 15 17  2  0
 15 18  1  0
 18 19  2  3
 19 20  1  0
 20 21  2  0
 21 22  1  0
 22 23  2  0
 23 24  1  0
 14 25  1  0
 25 26  2  0
  8 27  2  0
 27  4  1  0
 26 11  1  0
 24 19  1  0
  5 28  1  0
  6 29  1  0
  7 30  1  0
  9 31  1  0
  9 32  1  0
 10 33  1  0
 12 34  1  0
 13 35  1  0
 20 36  1  0
 21 37  1  0
 22 38  1  0
 23 39  1  0
 25 40  1  0
 26 41  1  0
 27 42  1  0
M  CHG  3   2   1   3  -1  24  -1
M  END
>  <UniqueID>  (26) 
23

>  <SMILES>  (26) 
O=[N+]([O-])c1cccc(CNc2ccc(S(=O)(=O)N=c3cccc[n-]3)cc2)c1

>  <Energy>  (26) 
47.022419864380595

>  <Genealogy>  (26) 
O=[N+]([O-])c1cccc(CNc2ccc(S(=O)(=O)N=c3cccc[n-]3)cc2)c1 (protonated)
O=[N+]([O-])c1cccc(CNc2ccc(S(=O)(=O)N=c3cccc[n-]3)cc2)c1 (3D coordinates assigned)
O=[N+]([O-])c1cccc(CNc2ccc(S(=O)(=O)N=c3cccc[n-]3)cc2)c1 (optimized conformer: 47.022419864380595 kcal/mol)

>  <smiles>  (26) 
O=[N+]([O-])c1cccc(CNc2ccc(S(=O)(=O)N=c3cccc[nH]3)cc2)c1

>  <score_type>  (26) 
oracle

>  <origin>  (26) 
adgpu

>  <m_score__min__energy>  (26) 
-11.220000000000001

>  <m_primary>  (26) 
energy

$$$$
26:0
     RDKit          3D

 47 50  0  0  0  0  0  0  0  0999 V2000
   -1.2597   20.6186  -34.0228 H   0  0  0  0  0  0  0  0  0  0  0  0
   -1.9510   20.8460  -33.1980 C   0  0  0  0  0  0  0  0  0  0  0  0
   -1.7670   20.4920  -31.9110 N   0  0  0  0  0  0  0  0  0  0  0  0
   -2.7990   20.9420  -31.2160 N   0  0  0  0  0  0  0  0  0  0  0  0
   -2.9310   20.7510  -29.7750 C   0  0  0  0  0  0  0  0  0  0  0  0
   -2.3820   21.5453  -29.2480 H   0  0  0  0  0  0  0  0  0  0  0  0
   -3.9941   20.7925  -29.4955 H   0  0  0  0  0  0  0  0  0  0  0  0
   -2.5164   19.7712  -29.4955 H   0  0  0  0  0  0  0  0  0  0  0  0
   -3.6590   21.5730  -32.0450 C   0  0  0  0  0  0  0  0  0  0  0  0
   -4.9450   22.1950  -31.6550 C   0  0  0  0  0  0  0  0  0  0  0  0
   -6.1500   21.5130  -31.8870 C   0  0  0  0  0  0  0  0  0  0  0  0
   -6.1283   20.5181  -32.3558 H   0  0  0  0  0  0  0  0  0  0  0  0
   -7.3830   22.0830  -31.5290 C   0  0  0  0  0  0  0  0  0  0  0  0
   -8.6750   21.3650  -31.8240 C   0  0  0  0  0  0  0  0  0  0  0  0
   -9.0800   20.6220  -30.7280 F   0  0  0  0  0  0  0  0  0  0  0  0
   -9.6540   22.2940  -32.1270 F   0  0  0  0  0  0  0  0  0  0  0  0
   -8.5250   20.5030  -32.8980 F   0  0  0  0  0  0  0  0  0  0  0  0
   -7.4010   23.3750  -30.9780 C   0  0  0  0  0  0  0  0  0  0  0  0
   -8.3612   23.8464  -30.7215 H   0  0  0  0  0  0  0  0  0  0  0  0
   -6.2090   24.0640  -30.7540 C   0  0  0  0  0  0  0  0  0  0  0  0
   -6.2358   25.0669  -30.3030 H   0  0  0  0  0  0  0  0  0  0  0  0
   -4.9750   23.4890  -31.0990 C   0  0  0  0  0  0  0  0  0  0  0  0
   -3.7680   24.1600  -30.8440 O   0  0  0  0  0  0  0  0  0  0  0  0
   -3.0500   24.1110  -29.6420 C   0  0  0  0  0  0  0  0  0  0  0  0
   -3.6190   24.5020  -28.4160 C   0  0  0  0  0  0  0  0  0  0  0  0
   -4.6648   24.8411  -28.3805 H   0  0  0  0  0  0  0  0  0  0  0  0
   -2.8600   24.4610  -27.2430 C   0  0  0  0  0  0  0  0  0  0  0  0
   -3.3138   24.7588  -26.2862 H   0  0  0  0  0  0  0  0  0  0  0  0
   -1.5230   24.0420  -27.2810 C   0  0  0  0  0  0  0  0  0  0  0  0
   -0.5720   24.0180  -25.8000 S   0  0  0  0  0  0  0  0  0  0  0  0
    0.8990   24.0750  -26.1100 O   0  0  0  0  0  0  0  0  0  0  0  0
   -0.8620   22.7450  -25.0560 O   0  0  0  0  0  0  0  0  0  0  0  0
   -0.9930   25.3710  -24.8000 N   0  0  0  0  0  0  0  0  0  0  0  0
   -0.8390   26.6140  -25.1490 C   0  0  0  0  0  0  0  0  0  0  0  0
   -0.2110   27.1650  -26.6140 S   0  0  0  0  0  0  0  0  0  0  0  0
   -0.3870   28.7880  -26.1940 C   0  0  0  0  0  0  0  0  0  0  0  0
   -0.1159   29.6496  -26.8219 H   0  0  0  0  0  0  0  0  0  0  0  0
   -0.9340   28.8500  -24.9170 C   0  0  0  0  0  0  0  0  0  0  0  0
   -1.1485   29.8020  -24.4093 H   0  0  0  0  0  0  0  0  0  0  0  0
   -1.1830   27.6420  -24.3450 N   0  0  0  0  0  0  0  0  0  0  0  0
   -1.5900   27.5280  -23.3900 H   0  0  0  0  0  0  0  0  0  0  0  0
   -0.9520   23.6640  -28.5030 C   0  0  0  0  0  0  0  0  0  0  0  0
    0.0967   23.3340  -28.5396 H   0  0  0  0  0  0  0  0  0  0  0  0
   -1.7110   23.7050  -29.6760 C   0  0  0  0  0  0  0  0  0  0  0  0
   -1.2524   23.4160  -30.6332 H   0  0  0  0  0  0  0  0  0  0  0  0
   -3.1400   21.5380  -33.3240 C   0  0  0  0  0  0  0  0  0  0  0  0
   -3.5759   21.9656  -34.2389 H   0  0  0  0  0  0  0  0  0  0  0  0
  1  2  1  0
  2  3  2  0
  3  4  1  0
  4  5  1  0
  5  6  1  0
  5  7  1  0
  5  8  1  0
  4  9  1  0
  9 10  1  0
 10 11  2  0
 11 12  1  0
 11 13  1  0
 13 14  1  0
 14 15  1  0
 14 16  1  0
 14 17  1  0
 13 18  2  0
 18 19  1  0
 18 20  1  0
 20 21  1  0
 20 22  2  0
 22 23  1  0
 23 24  1  0
 24 25  2  0
 25 26  1  0
 25 27  1  0
 27 28  1  0
 27 29  2  0
 29 30  1  0
 30 31  2  0
 30 32  2  0
 30 33  1  0
 33 34  2  0
 34 35  1  0
 35 36  1  0
 36 37  1  0
 36 38  2  0
 38 39  1  0
 38 40  1  0
 40 41  1  0
 29 42  1  0
 42 43  1  0
 42 44  2  0
 44 45  1  0
  9 46  2  0
 46 47  1  0
 46  2  1  0
 22 10  1  0
 44 24  1  0
 40 34  1  0
M  END
>  <UniqueID>  (27) 
24

>  <SMILES>  (27) 
Cn1nccc1-c1cc(C(F)(F)F)ccc1Oc1ccc(S(=O)(=O)/N=c2/[nH]ccs2)cc1

>  <Energy>  (27) 
125.83662804596278

>  <Genealogy>  (27) 
Cn1nccc1-c1cc(C(F)(F)F)ccc1Oc1ccc(S(=O)(=O)/N=c2/[nH]ccs2)cc1 (cis-trans isomerization)
Cn1nccc1-c1cc(C(F)(F)F)ccc1Oc1ccc(S(=O)(=O)/N=c2/[nH]ccs2)cc1 (3D coordinates assigned)
Cn1nccc1-c1cc(C(F)(F)F)ccc1Oc1ccc(S(=O)(=O)/N=c2/[nH]ccs2)cc1 (optimized conformer: 125.83662804596278 kcal/mol)

>  <smiles>  (27) 
Cn1nccc1-c1cc(C(F)(F)F)ccc1Oc1ccc(S(=O)(=O)N=c2[nH]ccs2)cc1

>  <score_type>  (27) 
oracle

>  <origin>  (27) 
adgpu

>  <m_score__min__energy>  (27) 
-9.2799999999999994

>  <m_primary>  (27) 
energy

$$$$
27:0
     RDKit          3D

 55 58  0  0  1  0  0  0  0  0999 V2000
   -2.2910   21.2630  -32.7050 C   0  0  0  0  0  0  0  0  0  0  0  0
   -2.8270   22.2850  -31.9220 O   0  0  0  0  0  0  0  0  0  0  0  0
   -4.1230   22.4200  -31.5030 C   0  0  0  0  0  0  0  0  0  0  0  0
   -5.1110   21.4970  -31.7780 C   0  0  0  0  0  0  0  0  0  0  0  0
   -6.4160   21.6350  -31.3550 C   0  0  0  0  0  0  0  0  0  0  0  0
   -7.4170   20.6750  -31.6480 N   0  0  0  0  0  0  0  0  0  0  0  0
   -8.7780   21.0880  -31.9470 C   0  0  0  0  0  0  0  0  0  0  0  0
   -9.5570   20.0250  -32.6680 C   0  0  0  0  0  0  0  0  0  0  0  0
   -9.3580   18.8020  -32.0130 O   0  0  0  0  0  0  0  0  0  0  0  0
   -8.0720   18.4020  -32.3270 C   0  0  0  0  0  0  0  0  0  0  0  0
   -7.0380   19.2760  -31.6370 C   0  0  0  0  0  0  0  0  0  0  0  0
   -6.7050   22.7730  -30.6190 C   0  0  0  0  0  0  0  0  0  0  0  0
   -5.7450   23.7180  -30.3240 C   0  0  0  0  0  0  0  0  0  0  0  0
   -4.4390   23.5590  -30.7590 C   0  0  0  0  0  0  0  0  0  0  0  0
   -3.4260   24.5190  -30.4700 N   0  0  0  0  0  0  0  0  0  0  0  0
   -2.7590   24.3540  -29.3790 C   0  0  0  0  0  0  0  0  0  0  0  0
   -2.9580   23.3290  -28.4950 C   0  0  0  0  0  0  0  0  0  0  0  0
   -2.1650   23.2670  -27.3530 C   0  0  0  0  0  0  0  0  0  0  0  0
   -1.2110   24.1760  -27.0850 N   0  0  0  0  0  0  0  0  0  0  0  0
   -1.0550   25.1660  -27.9880 C   0  0  0  0  0  0  0  0  0  0  0  0
   -0.1570   26.0600  -27.7780 N   0  0  0  0  0  0  0  0  0  0  0  0
    0.7060   26.0930  -26.6470 C   0  0  0  0  0  0  0  0  0  0  0  0
    1.4920   24.9670  -26.3730 C   0  0  0  0  0  0  0  0  0  0  0  0
    2.3530   24.9610  -25.2710 C   0  0  0  0  0  0  0  0  0  0  0  0
    2.4150   26.0760  -24.4610 C   0  0  0  0  0  0  0  0  0  0  0  0
    1.6350   27.1790  -24.7420 C   0  0  0  0  0  0  0  0  0  0  0  0
    1.7230   28.3420  -23.8670 C   0  0  0  0  0  0  0  0  0  0  0  0
    1.2550   28.2680  -22.5190 N   0  0  0  0  0  0  0  0  0  0  0  0
    2.2240   29.4000  -24.3530 O   0  0  0  0  0  0  0  0  0  0  0  0
    0.7730   27.2080  -25.8310 C   0  0  0  0  0  0  0  0  0  0  0  0
   -1.8060   25.2580  -29.1070 N   0  0  0  0  0  0  0  0  0  0  0  0
   -1.8796   20.4786  -32.0527 H   0  0  0  0  0  0  0  0  0  0  0  0
   -3.0807   20.8350  -33.3400 H   0  0  0  0  0  0  0  0  0  0  0  0
   -1.4899   21.6693  -33.3400 H   0  0  0  0  0  0  0  0  0  0  0  0
   -4.8439   20.6056  -32.3646 H   0  0  0  0  0  0  0  0  0  0  0  0
   -9.2911   21.3218  -31.0025 H   0  0  0  0  0  0  0  0  0  0  0  0
   -8.7232   21.9669  -32.6062 H   0  0  0  0  0  0  0  0  0  0  0  0
  -10.6270   20.2799  -32.6596 H   0  0  0  0  0  0  0  0  0  0  0  0
   -9.2159   19.9521  -33.7112 H   0  0  0  0  0  0  0  0  0  0  0  0
   -7.9323   17.3595  -32.0050 H   0  0  0  0  0  0  0  0  0  0  0  0
   -7.9352   18.4950  -33.4145 H   0  0  0  0  0  0  0  0  0  0  0  0
   -6.9321   18.9447  -30.5934 H   0  0  0  0  0  0  0  0  0  0  0  0
   -6.0887   19.1763  -32.1837 H   0  0  0  0  0  0  0  0  0  0  0  0
   -7.7328   22.9274  -30.2587 H   0  0  0  0  0  0  0  0  0  0  0  0
   -6.0188   24.6073  -29.7373 H   0  0  0  0  0  0  0  0  0  0  0  0
   -3.7300   22.5684  -28.6833 H   0  0  0  0  0  0  0  0  0  0  0  0
   -2.3247   22.4427  -26.6423 H   0  0  0  0  0  0  0  0  0  0  0  0
   -0.6040   24.1530  -26.2370 H   0  0  0  0  0  0  0  0  0  0  0  0
    1.4320   24.0843  -27.0267 H   0  0  0  0  0  0  0  0  0  0  0  0
    2.9727   24.0787  -25.0529 H   0  0  0  0  0  0  0  0  0  0  0  0
    3.0870   26.0858  -23.5902 H   0  0  0  0  0  0  0  0  0  0  0  0
    1.5680   27.5380  -21.8450 H   0  0  0  0  0  0  0  0  0  0  0  0
    0.5770   28.9690  -22.1960 H   0  0  0  0  0  0  0  0  0  0  0  0
    0.1585   28.0962  -26.0394 H   0  0  0  0  0  0  0  0  0  0  0  0
   -1.6310   26.0510  -29.7630 H   0  0  0  0  0  0  0  0  0  0  0  0
  1  2  1  0
  2  3  1  0
  3  4  2  0
  4  5  1  0
  5  6  1  0
  6  7  1  0
  7  8  1  0
  8  9  1  0
  9 10  1  0
 10 11  1  0
  5 12  2  0
 12 13  1  0
 13 14  2  0
 14 15  1  0
 15 16  2  0
 16 17  1  0
 17 18  2  0
 18 19  1  0
 19 20  1  0
 20 21  2  0
 21 22  1  0
 22 23  2  0
 23 24  1  0
 24 25  2  0
 25 26  1  0
 26 27  1  0
 27 28  1  0
 27 29  2  0
 26 30  2  0
 20 31  1  0
 14  3  1  0
 31 16  1  0
 11  6  1  0
 30 22  1  0
  1 32  1  0
  1 33  1  0
  1 34  1  0
  4 35  1  0
  7 36  1  0
  7 37  1  0
  8 38  1  0
  8 39  1  0
 10 40  1  0
 10 41  1  0
 11 42  1  0
 11 43  1  0
 12 44  1  0
 13 45  1  0
 17 46  1  0
 18 47  1  0
 19 48  1  0
 23 49  1  0
 24 50  1  0
 25 51  1  0
 28 52  1  0
 28 53  1  0
 30 54  1  0
 31 55  1  0
M  END
>  <smiles>  (28) 
COc1cc(N2CCOCC2)ccc1N=c1cc[nH]c(=Nc2cccc(C(N)=O)c2)[nH]1

>  <score_type>  (28) 
oracle

>  <origin>  (28) 
adgpu

>  <m_score__min__energy>  (28) 
-9.9399999999999995

>  <m_primary>  (28) 
energy

$$$$
28:0
     RDKit          3D

 59 62  0  0  0  0  0  0  0  0999 V2000
   -0.8560   28.0950  -24.6770 C   0  0  0  0  0  0  0  0  0  0  0  0
   -1.1170   27.0090  -25.6780 C   0  0  0  0  0  0  0  0  0  0  0  0
   -0.5610   27.0850  -26.9640 C   0  0  0  0  0  0  0  0  0  0  0  0
   -0.8340   26.0920  -27.9100 C   0  0  0  0  0  0  0  0  0  0  0  0
   -1.6770   25.0190  -27.5860 C   0  0  0  0  0  0  0  0  0  0  0  0
   -1.9600   23.9980  -28.5580 N   0  0  0  0  0  0  0  0  0  0  0  0
   -1.0930   23.0680  -29.0210 C   0  0  0  0  0  0  0  0  0  0  0  0
    0.3340   22.9260  -28.5860 C   0  0  0  0  0  0  0  0  0  0  0  0
   -1.7160   22.2500  -29.9440 C   0  0  0  0  0  0  0  0  0  0  0  0
   -3.0110   22.7180  -30.0720 C   0  0  0  0  0  0  0  0  0  0  0  0
   -4.0340   22.1410  -30.9630 C   0  0  0  0  0  0  0  0  0  0  0  0
   -3.7710   21.0860  -31.6010 O   0  0  0  0  0  0  0  0  0  0  0  0
   -5.2910   22.8030  -31.1640 N   0  0  0  0  0  0  0  0  0  0  0  0
   -6.5080   22.1210  -31.5100 C   0  0  0  0  0  0  0  0  0  0  0  0
   -7.7000   22.8520  -31.6180 C   0  0  0  0  0  0  0  0  0  0  0  0
   -8.9030   22.2030  -31.9070 C   0  0  0  0  0  0  0  0  0  0  0  0
   -8.9310   20.8170  -32.0720 C   0  0  0  0  0  0  0  0  0  0  0  0
   -7.7540   20.0700  -31.9420 C   0  0  0  0  0  0  0  0  0  0  0  0
   -7.7930   18.3120  -32.0920 S   0  0  0  0  0  0  0  0  0  0  0  0
   -9.2190   17.8500  -31.9860 O   0  0  0  0  0  0  0  0  0  0  0  0
   -7.0290   17.7020  -30.9490 O   0  0  0  0  0  0  0  0  0  0  0  0
   -7.1130   17.7490  -33.6060 N   0  0  0  0  0  0  0  0  0  0  0  0
   -6.1860   18.7250  -34.2190 C   0  0  0  0  0  0  0  0  0  0  0  0
   -4.7070   18.3640  -34.0060 C   0  0  0  0  0  0  0  0  0  0  0  0
   -4.5410   17.6550  -32.8020 O   0  0  0  0  0  0  0  0  0  0  0  0
   -5.1170   16.3690  -32.9200 C   0  0  0  0  0  0  0  0  0  0  0  0
   -6.5510   16.3910  -33.5020 C   0  0  0  0  0  0  0  0  0  0  0  0
   -6.5440   20.7240  -31.6680 C   0  0  0  0  0  0  0  0  0  0  0  0
   -3.1400   23.7850  -29.1870 C   0  0  0  0  0  0  0  0  0  0  0  0
   -4.4000   24.5560  -28.9080 C   0  0  0  0  0  0  0  0  0  0  0  0
   -2.2450   24.9510  -26.3060 C   0  0  0  0  0  0  0  0  0  0  0  0
   -1.9740   25.9440  -25.3610 C   0  0  0  0  0  0  0  0  0  0  0  0
   -0.9539   27.6875  -23.6600 H   0  0  0  0  0  0  0  0  0  0  0  0
    0.1620   28.4871  -24.8184 H   0  0  0  0  0  0  0  0  0  0  0  0
   -1.5846   28.9069  -24.8184 H   0  0  0  0  0  0  0  0  0  0  0  0
    0.0924   27.9293  -27.2292 H   0  0  0  0  0  0  0  0  0  0  0  0
   -0.3856   26.1527  -28.9126 H   0  0  0  0  0  0  0  0  0  0  0  0
    0.3836   22.9211  -27.4871 H   0  0  0  0  0  0  0  0  0  0  0  0
    0.7440   21.9826  -28.9758 H   0  0  0  0  0  0  0  0  0  0  0  0
    0.9219   23.7701  -28.9758 H   0  0  0  0  0  0  0  0  0  0  0  0
   -1.2698   21.3949  -30.4729 H   0  0  0  0  0  0  0  0  0  0  0  0
   -5.3050   23.8470  -31.1120 H   0  0  0  0  0  0  0  0  0  0  0  0
   -7.6877   23.9425  -31.4744 H   0  0  0  0  0  0  0  0  0  0  0  0
   -9.8308   22.7858  -32.0048 H   0  0  0  0  0  0  0  0  0  0  0  0
   -9.8796   20.3109  -32.3046 H   0  0  0  0  0  0  0  0  0  0  0  0
   -6.3847   18.7659  -35.3001 H   0  0  0  0  0  0  0  0  0  0  0  0
   -6.3612   19.6958  -33.7324 H   0  0  0  0  0  0  0  0  0  0  0  0
   -4.3624   17.7401  -34.8439 H   0  0  0  0  0  0  0  0  0  0  0  0
   -4.1180   19.2917  -33.9565 H   0  0  0  0  0  0  0  0  0  0  0  0
   -4.4814   15.7611  -33.5807 H   0  0  0  0  0  0  0  0  0  0  0  0
   -5.1836   15.9478  -31.9060 H   0  0  0  0  0  0  0  0  0  0  0  0
   -6.5276   15.9441  -34.5069 H   0  0  0  0  0  0  0  0  0  0  0  0
   -7.1929   15.8228  -32.8127 H   0  0  0  0  0  0  0  0  0  0  0  0
   -5.6164   20.1400  -31.5760 H   0  0  0  0  0  0  0  0  0  0  0  0
   -4.5431   24.6436  -27.8209 H   0  0  0  0  0  0  0  0  0  0  0  0
   -4.3206   25.5604  -29.3495 H   0  0  0  0  0  0  0  0  0  0  0  0
   -5.2582   24.0282  -29.3495 H   0  0  0  0  0  0  0  0  0  0  0  0
   -2.9069   24.1122  -26.0445 H   0  0  0  0  0  0  0  0  0  0  0  0
   -2.4348   25.8906  -24.3636 H   0  0  0  0  0  0  0  0  0  0  0  0
  1  2  1  0
  2  3  2  0
  3  4  1  0
  4  5  2  0
  5  6  1  0
  6  7  1  0
  7  8  1  0
  7  9  2  0
  9 10  1  0
 10 11  1  0
 11 12  2  0
 11 13  1  0
 13 14  1  0
 14 15  2  0
 15 16  1  0
 16 17  2  0
 17 18  1  0
 18 19  1  0
 19 20  2  0
 19 21  2  0
 19 22  1  0
 22 23  1  0
 23 24  1  0
 24 25  1  0
 25 26  1  0
 26 27  1  0
 18 28  2  0
 10 29  2  0
 29 30  1  0
  5 31  1  0
 31 32  2  0
 32  2  1  0
 29  6  1  0
 28 14  1  0
 27 22  1  0
  1 33  1  0
  1 34  1  0
  1 35  1  0
  3 36  1  0
  4 37  1  0
  8 38  1  0
  8 39  1  0
  8 40  1  0
  9 41  1  0
 13 42  1  0
 15 43  1  0
 16 44  1  0
 17 45  1  0
 23 46  1  0
 23 47  1  0
 24 48  1  0
 24 49  1  0
 26 50  1  0
 26 51  1  0
 27 52  1  0
 27 53  1  0
 28 54  1  0
 30 55  1  0
 30 56  1  0
 30 57  1  0
 31 58  1  0
 32 59  1  0
M  END
>  <UniqueID>  (29) 
25

>  <SMILES>  (29) 
Cc1ccc(-n2c(C)cc(C(=O)Nc3cccc(S(=O)(=O)N4CCOCC4)c3)c2C)cc1

>  <Energy>  (29) 
107.43372948738597

>  <Genealogy>  (29) 
Cc1ccc(-n2c(C)cc(C(=O)Nc3cccc(S(=O)(=O)N4CCOCC4)c3)c2C)cc1 (3D coordinates assigned)
Cc1ccc(-n2c(C)cc(C(=O)Nc3cccc(S(=O)(=O)N4CCOCC4)c3)c2C)cc1 (nonaromatic ring conformer: 107.43372948738597 kcal/mol)

>  <smiles>  (29) 
Cc1ccc(-n2c(C)cc(C(=O)Nc3cccc(S(=O)(=O)N4CCOCC4)c3)c2C)cc1

>  <score_type>  (29) 
oracle

>  <origin>  (29) 
adgpu

>  <m_score__min__energy>  (29) 
-10.34

>  <m_primary>  (29) 
energy

$$$$
29:0
     RDKit          3D

 53 55  0  0  0  0  0  0  0  0999 V2000
   -7.0530   20.4910  -31.6100 C   0  0  0  0  0  0  0  0  0  0  0  0
   -6.2400   19.6910  -32.5850 C   0  0  0  0  0  0  0  0  0  0  0  0
   -6.8640   18.7610  -33.4240 C   0  0  0  0  0  0  0  0  0  0  0  0
   -6.1070   18.0260  -34.3380 C   0  0  0  0  0  0  0  0  0  0  0  0
   -4.7290   18.2290  -34.4380 C   0  0  0  0  0  0  0  0  0  0  0  0
   -4.0900   19.1890  -33.6300 C   0  0  0  0  0  0  0  0  0  0  0  0
   -2.6280   19.4280  -33.7290 C   0  0  0  0  0  0  0  0  0  0  0  0
   -1.8290   18.5030  -33.4180 O   0  0  0  0  0  0  0  0  0  0  0  0
   -2.1050   20.6960  -34.1620 N   0  0  0  0  0  0  0  0  0  0  0  0
   -0.6850   20.9000  -34.4390 C   0  0  0  0  0  0  0  0  0  0  0  0
    0.1410   20.4830  -33.2620 C   0  0  0  0  0  0  0  0  0  0  0  0
    0.7490   19.3800  -33.2910 O   0  0  0  0  0  0  0  0  0  0  0  0
    0.1840   21.3180  -32.1000 N   0  0  0  0  0  0  0  0  0  0  0  0
   -0.8080   21.4150  -31.0660 C   0  0  0  0  0  0  0  0  0  0  0  0
   -1.1360   20.2610  -30.3430 C   0  0  0  0  0  0  0  0  0  0  0  0
   -2.1160   20.3020  -29.3490 C   0  0  0  0  0  0  0  0  0  0  0  0
   -2.7840   21.4960  -29.0740 C   0  0  0  0  0  0  0  0  0  0  0  0
   -2.4790   22.6560  -29.7970 C   0  0  0  0  0  0  0  0  0  0  0  0
   -3.3530   24.1490  -29.4610 S   0  0  0  0  0  0  0  0  0  0  0  0
   -4.1460   23.9690  -28.1970 O   0  0  0  0  0  0  0  0  0  0  0  0
   -2.3820   25.2790  -29.2580 O   0  0  0  0  0  0  0  0  0  0  0  0
   -4.4280   24.5160  -30.7890 N   0  0  0  0  0  0  0  0  0  0  0  0
   -5.5860   25.3250  -30.3330 C   0  0  0  0  0  0  0  0  0  0  0  0
   -6.8610   24.4900  -30.1440 C   0  0  0  0  0  0  0  0  0  0  0  0
   -7.2650   23.7860  -31.4510 C   0  0  0  0  0  0  0  0  0  0  0  0
   -6.0550   23.4450  -32.3390 C   0  0  0  0  0  0  0  0  0  0  0  0
   -4.7890   23.2670  -31.4980 C   0  0  0  0  0  0  0  0  0  0  0  0
   -1.5000   22.6110  -30.8020 C   0  0  0  0  0  0  0  0  0  0  0  0
   -4.8590   19.9130  -32.7010 C   0  0  0  0  0  0  0  0  0  0  0  0
   -6.7713   20.2138  -30.5834 H   0  0  0  0  0  0  0  0  0  0  0  0
   -6.8619   21.5630  -31.7659 H   0  0  0  0  0  0  0  0  0  0  0  0
   -8.1218   20.2826  -31.7659 H   0  0  0  0  0  0  0  0  0  0  0  0
   -7.9518   18.6090  -33.3632 H   0  0  0  0  0  0  0  0  0  0  0  0
   -6.5986   17.2828  -34.9830 H   0  0  0  0  0  0  0  0  0  0  0  0
   -4.1393   17.6355  -35.1521 H   0  0  0  0  0  0  0  0  0  0  0  0
   -2.7340   21.5280  -34.2200 H   0  0  0  0  0  0  0  0  0  0  0  0
   -0.3967   20.3003  -35.3149 H   0  0  0  0  0  0  0  0  0  0  0  0
   -0.5098   21.9676  -34.6379 H   0  0  0  0  0  0  0  0  0  0  0  0
   -0.6177   19.3153  -30.5598 H   0  0  0  0  0  0  0  0  0  0  0  0
   -2.3617   19.3920  -28.7820 H   0  0  0  0  0  0  0  0  0  0  0  0
   -3.5522   21.5261  -28.2872 H   0  0  0  0  0  0  0  0  0  0  0  0
   -5.3290   25.7955  -29.3725 H   0  0  0  0  0  0  0  0  0  0  0  0
   -5.7937   26.0728  -31.1125 H   0  0  0  0  0  0  0  0  0  0  0  0
   -6.6809   23.7308  -29.3686 H   0  0  0  0  0  0  0  0  0  0  0  0
   -7.6773   25.1641  -29.8453 H   0  0  0  0  0  0  0  0  0  0  0  0
   -7.7918   22.8535  -31.2004 H   0  0  0  0  0  0  0  0  0  0  0  0
   -7.9083   24.4767  -32.0159 H   0  0  0  0  0  0  0  0  0  0  0  0
   -6.2598   22.5109  -32.8825 H   0  0  0  0  0  0  0  0  0  0  0  0
   -5.8934   24.2740  -33.0437 H   0  0  0  0  0  0  0  0  0  0  0  0
   -4.9610   22.4724  -30.7571 H   0  0  0  0  0  0  0  0  0  0  0  0
   -3.9614   23.0015  -32.1723 H   0  0  0  0  0  0  0  0  0  0  0  0
   -1.2729   23.5152  -31.3858 H   0  0  0  0  0  0  0  0  0  0  0  0
   -4.3726   20.6615  -32.0582 H   0  0  0  0  0  0  0  0  0  0  0  0
  1  2  1  0
  2  3  2  0
  3  4  1  0
  4  5  2  0
  5  6  1  0
  6  7  1  0
  7  8  2  0
  7  9  1  0
  9 10  1  0
 10 11  1  0
 11 12  2  0
 11 13  1  0
 13 14  1  0
 14 15  2  0
 15 16  1  0
 16 17  2  0
 17 18  1  0
 18 19  1  0
 19 20  2  0
 19 21  2  0
 19 22  1  0
 22 23  1  0
 23 24  1  0
 24 25  1  0
 25 26  1  0
 26 27  1  0
 18 28  2  0
  6 29  2  0
 29  2  1  0
 28 14  1  0
 27 22  1  0
  1 30  1  0
  1 31  1  0
  1 32  1  0
  3 33  1  0
  4 34  1  0
  5 35  1  0
  9 36  1  0
 10 37  1  0
 10 38  1  0
 15 39  1  0
 16 40  1  0
 17 41  1  0
 23 42  1  0
 23 43  1  0
 24 44  1  0
 24 45  1  0
 25 46  1  0
 25 47  1  0
 26 48  1  0
 26 49  1  0
 27 50  1  0
 27 51  1  0
 28 52  1  0
 29 53  1  0
M  CHG  1  13  -1
M  END
>  <UniqueID>  (30) 
26

>  <SMILES>  (30) 
Cc1cccc(C(=O)NCC(=O)[N-]c2cccc(S(=O)(=O)N3CCCCC3)c2)c1

>  <Energy>  (30) 
61.323012577876376

>  <Genealogy>  (30) 
Cc1cccc(C(=O)NCC(=O)[N-]c2cccc(S(=O)(=O)N3CCCCC3)c2)c1 (protonated)
Cc1cccc(C(=O)NCC(=O)[N-]c2cccc(S(=O)(=O)N3CCCCC3)c2)c1 (3D coordinates assigned)
Cc1cccc(C(=O)NCC(=O)[N-]c2cccc(S(=O)(=O)N3CCCCC3)c2)c1 (nonaromatic ring conformer: 61.323012577876376 kcal/mol)

>  <smiles>  (30) 
Cc1cccc(C(=O)NCC(=O)Nc2cccc(S(=O)(=O)N3CCCCC3)c2)c1

>  <score_type>  (30) 
oracle

>  <origin>  (30) 
adgpu

>  <m_score__min__energy>  (30) 
-10.960000000000001

>  <m_primary>  (30) 
energy

$$$$
30:0
     RDKit          3D

 35 37  0  0  1  0  0  0  0  0999 V2000
   -5.7380   25.5400  -30.6660 C   0  0  0  0  0  0  0  0  0  0  0  0
   -4.6420   24.6690  -30.8380 N   0  0  0  0  0  0  0  0  0  0  0  0
   -4.5880   23.4970  -31.2310 C   0  0  0  0  0  0  0  0  0  0  0  0
   -3.4080   22.8720  -31.3080 N   0  0  0  0  0  0  0  0  0  0  0  0
   -3.2370   21.6070  -31.7190 C   0  0  0  0  0  0  0  0  0  0  0  0
   -1.6430   20.8090  -31.8090 S   0  0  0  0  0  0  0  0  0  0  0  0
   -1.1360   20.5250  -33.5030 C   0  0  0  0  0  0  0  0  0  0  0  0
   -4.3420   20.9310  -32.0760 N   0  0  0  0  0  0  0  0  0  0  0  0
   -5.5440   21.5170  -32.0140 C   0  0  0  0  0  0  0  0  0  0  0  0
   -5.7330   22.8320  -31.5880 C   0  0  0  0  0  0  0  0  0  0  0  0
   -6.9230   23.4170  -31.5260 N   0  0  0  0  0  0  0  0  0  0  0  0
   -8.0160   22.6700  -31.9040 C   0  0  0  0  0  0  0  0  0  0  0  0
   -9.1770   23.1320  -31.8800 O   0  0  0  0  0  0  0  0  0  0  0  0
   -7.7960   21.3910  -32.3150 C   0  0  0  0  0  0  0  0  0  0  0  0
   -8.7990   20.7190  -32.6580 O   0  0  0  0  0  0  0  0  0  0  0  0
   -6.6060   20.7870  -32.3840 N   0  0  0  0  0  0  0  0  0  0  0  0
   -6.4320   19.4490  -32.8200 C   0  0  0  0  0  0  0  0  0  0  0  0
   -6.6420   18.3870  -31.9470 C   0  0  0  0  0  0  0  0  0  0  0  0
   -6.4840   17.0720  -32.3280 C   0  0  0  0  0  0  0  0  0  0  0  0
   -6.1060   16.7690  -33.6150 C   0  0  0  0  0  0  0  0  0  0  0  0
   -5.8750   14.9590  -34.1880 Br  0  0  0  0  0  0  0  0  0  0  0  0
   -5.8900   17.8090  -34.5000 C   0  0  0  0  0  0  0  0  0  0  0  0
   -6.0540   19.1280  -34.1000 C   0  0  0  0  0  0  0  0  0  0  0  0
   -5.9239   25.6877  -29.5919 H   0  0  0  0  0  0  0  0  0  0  0  0
   -5.5136   26.5089  -31.1360 H   0  0  0  0  0  0  0  0  0  0  0  0
   -6.6312   25.1026  -31.1360 H   0  0  0  0  0  0  0  0  0  0  0  0
   -2.5400   23.3900  -31.0330 H   0  0  0  0  0  0  0  0  0  0  0  0
   -0.1764   19.9874  -33.5133 H   0  0  0  0  0  0  0  0  0  0  0  0
   -1.8991   19.9230  -34.0181 H   0  0  0  0  0  0  0  0  0  0  0  0
   -1.0212   21.4901  -34.0181 H   0  0  0  0  0  0  0  0  0  0  0  0
   -7.2030   24.3410  -31.2430 H   0  0  0  0  0  0  0  0  0  0  0  0
   -6.9459   18.6050  -30.9125 H   0  0  0  0  0  0  0  0  0  0  0  0
   -6.6603   16.2644  -31.6023 H   0  0  0  0  0  0  0  0  0  0  0  0
   -5.5845   17.5885  -35.5335 H   0  0  0  0  0  0  0  0  0  0  0  0
   -5.8769   19.9352  -34.8260 H   0  0  0  0  0  0  0  0  0  0  0  0
  1  2  1  0
  2  3  2  0
  3  4  1  0
  4  5  1  0
  5  6  1  0
  6  7  1  0
  5  8  2  0
  8  9  1  0
  9 10  2  0
 10 11  1  0
 11 12  1  0
 12 13  2  0
 12 14  1  0
 14 15  2  0
 14 16  1  0
 16 17  1  0
 17 18  2  0
 18 19  1  0
 19 20  2  0
 20 21  1  0
 20 22  1  0
 22 23  2  0
 10  3  1  0
 23 17  1  0
 16  9  1  0
  1 24  1  0
  1 25  1  0
  1 26  1  0
  4 27  1  0
  7 28  1  0
  7 29  1  0
  7 30  1  0
 11 31  1  0
 18 32  1  0
 19 33  1  0
 22 34  1  0
 23 35  1  0
M  END
>  <smiles>  (31) 
CN=c1[nH]c(SC)nc2c1[nH]c(=O)c(=O)n2-c1ccc(Br)cc1

>  <score_type>  (31) 
oracle

>  <origin>  (31) 
adgpu

>  <m_score__min__energy>  (31) 
-8.0099999999999998

>  <m_primary>  (31) 
energy

$$$$
31:0
     RDKit          3D

 45 48  0  0  1  0  0  0  0  0999 V2000
   -3.8330   14.2170  -34.9520 C   0  0  0  0  0  0  0  0  0  0  0  0
   -3.3550   15.5140  -35.2290 O   0  0  0  0  0  0  0  0  0  0  0  0
   -3.7920   16.6510  -34.5610 C   0  0  0  0  0  0  0  0  0  0  0  0
   -5.0790   17.0290  -34.5010 N   0  0  0  0  0  0  0  0  0  0  0  0
   -5.4570   18.1400  -33.8410 C   0  0  0  0  0  0  0  0  0  0  0  0
   -6.6280   18.7440  -33.6190 N   0  0  0  0  0  0  0  0  0  0  0  0
   -6.4050   19.8460  -32.8810 C   0  0  0  0  0  0  0  0  0  0  0  0
   -7.4500   20.7820  -32.4280 C   0  0  0  0  0  0  0  0  0  0  0  0
   -8.7490   20.3210  -32.3610 C   0  0  0  0  0  0  0  0  0  0  0  0
   -9.7330   21.1820  -31.9400 C   0  0  0  0  0  0  0  0  0  0  0  0
   -9.4070   22.4880  -31.5940 C   0  0  0  0  0  0  0  0  0  0  0  0
   -8.1090   22.9620  -31.6560 C   0  0  0  0  0  0  0  0  0  0  0  0
   -7.1470   22.0630  -32.0850 C   0  0  0  0  0  0  0  0  0  0  0  0
   -5.0810   19.9700  -32.6130 N   0  0  0  0  0  0  0  0  0  0  0  0
   -4.4900   18.9100  -33.2100 C   0  0  0  0  0  0  0  0  0  0  0  0
   -3.1620   18.5290  -33.2670 C   0  0  0  0  0  0  0  0  0  0  0  0
   -2.2050   19.1690  -32.7210 N   0  0  0  0  0  0  0  0  0  0  0  0
   -2.5180   20.3590  -32.0000 C   0  0  0  0  0  0  0  0  0  0  0  0
   -2.5130   20.4130  -30.6190 C   0  0  0  0  0  0  0  0  0  0  0  0
   -2.8230   21.5890  -29.9500 C   0  0  0  0  0  0  0  0  0  0  0  0
   -3.1440   22.7440  -30.6370 C   0  0  0  0  0  0  0  0  0  0  0  0
   -3.5390   24.2470  -29.8360 S   0  0  0  0  0  0  0  0  0  0  0  0
   -4.6130   24.0330  -28.4550 C   0  0  0  0  0  0  0  0  0  0  0  0
   -2.2950   24.9460  -29.3440 O   0  0  0  0  0  0  0  0  0  0  0  0
   -4.2070   25.2140  -30.7860 O   0  0  0  0  0  0  0  0  0  0  0  0
   -3.1430   22.6750  -32.0230 C   0  0  0  0  0  0  0  0  0  0  0  0
   -2.8380   21.5140  -32.7070 C   0  0  0  0  0  0  0  0  0  0  0  0
   -2.8370   17.3940  -33.9500 N   0  0  0  0  0  0  0  0  0  0  0  0
   -3.8869   14.0709  -33.8631 H   0  0  0  0  0  0  0  0  0  0  0  0
   -4.8353   14.0946  -35.3884 H   0  0  0  0  0  0  0  0  0  0  0  0
   -3.1498   13.4735  -35.3884 H   0  0  0  0  0  0  0  0  0  0  0  0
   -7.5600   18.3910  -33.9780 H   0  0  0  0  0  0  0  0  0  0  0  0
   -8.9916   19.2848  -32.6392 H   0  0  0  0  0  0  0  0  0  0  0  0
  -10.7762   20.8388  -31.8769 H   0  0  0  0  0  0  0  0  0  0  0  0
  -10.2063   23.1660  -31.2604 H   0  0  0  0  0  0  0  0  0  0  0  0
   -7.8549   23.9960  -31.3798 H   0  0  0  0  0  0  0  0  0  0  0  0
   -6.1009   22.3966  -32.1507 H   0  0  0  0  0  0  0  0  0  0  0  0
   -2.2598   19.5114  -30.0419 H   0  0  0  0  0  0  0  0  0  0  0  0
   -2.8129   21.6017  -28.8501 H   0  0  0  0  0  0  0  0  0  0  0  0
   -4.0395   24.1473  -27.5233 H   0  0  0  0  0  0  0  0  0  0  0  0
   -5.4104   24.7899  -28.4899 H   0  0  0  0  0  0  0  0  0  0  0  0
   -5.0594   23.0283  -28.4899 H   0  0  0  0  0  0  0  0  0  0  0  0
   -3.3944   23.5782  -32.5984 H   0  0  0  0  0  0  0  0  0  0  0  0
   -2.8481   21.5027  -33.8069 H   0  0  0  0  0  0  0  0  0  0  0  0
   -1.8330   17.0980  -33.9980 H   0  0  0  0  0  0  0  0  0  0  0  0
  1  2  1  0
  2  3  1  0
  3  4  2  0
  4  5  1  0
  5  6  1  0
  6  7  1  0
  7  8  1  0
  8  9  2  0
  9 10  1  0
 10 11  2  0
 11 12  1  0
 12 13  2  0
  7 14  2  0
 14 15  1  0
 15 16  1  0
 16 17  2  0
 17 18  1  0
 18 19  2  0
 19 20  1  0
 20 21  2  0
 21 22  1  0
 22 23  1  0
 22 24  2  0
 22 25  2  0
 21 26  1  0
 26 27  2  0
 16 28  1  0
 28  3  1  0
 15  5  2  0
 27 18  1  0
 13  8  1  0
  1 29  1  0
  1 30  1  0
  1 31  1  0
  6 32  1  0
  9 33  1  0
 10 34  1  0
 11 35  1  0
 12 36  1  0
 13 37  1  0
 19 38  1  0
 20 39  1  0
 23 40  1  0
 23 41  1  0
 23 42  1  0
 26 43  1  0
 27 44  1  0
 28 45  1  0
M  END
>  <smiles>  (32) 
COc1nc2[nH]c(-c3ccccc3)nc2c(=Nc2ccc(S(C)(=O)=O)cc2)[nH]1

>  <score_type>  (32) 
oracle

>  <origin>  (32) 
adgpu

>  <m_score__min__energy>  (32) 
-8.9000000000000004

>  <m_primary>  (32) 
energy

$$$$
32:0
     RDKit          3D

 52 54  0  0  0  0  0  0  0  0999 V2000
   -8.8700   20.8580  -32.0560 C   0  0  0  0  0  0  0  0  0  0  0  0
   -7.3800   21.0540  -32.1800 C   0  0  0  0  0  0  0  0  0  0  0  0
   -6.6440   20.1320  -32.9400 C   0  0  0  0  0  0  0  0  0  0  0  0
   -5.2670   20.2740  -33.0900 C   0  0  0  0  0  0  0  0  0  0  0  0
   -4.6010   21.3250  -32.4660 C   0  0  0  0  0  0  0  0  0  0  0  0
   -5.3030   22.2570  -31.6890 C   0  0  0  0  0  0  0  0  0  0  0  0
   -4.5240   23.3130  -31.0090 C   0  0  0  0  0  0  0  0  0  0  0  0
   -3.4880   23.1250  -30.1160 C   0  0  0  0  0  0  0  0  0  0  0  0
   -3.1110   24.4050  -29.7760 C   0  0  0  0  0  0  0  0  0  0  0  0
   -2.0640   24.7630  -28.8080 C   0  0  0  0  0  0  0  0  0  0  0  0
   -1.4480   25.8510  -28.9460 O   0  0  0  0  0  0  0  0  0  0  0  0
   -1.6950   23.8900  -27.7310 N   0  0  0  0  0  0  0  0  0  0  0  0
   -2.4080   22.6690  -27.3550 C   0  0  0  0  0  0  0  0  0  0  0  0
   -1.6000   21.4500  -27.7230 C   0  0  0  0  0  0  0  0  0  0  0  0
   -1.8330   20.2320  -27.0740 C   0  0  0  0  0  0  0  0  0  0  0  0
   -1.0430   19.1150  -27.3580 C   0  0  0  0  0  0  0  0  0  0  0  0
    0.0110   19.1860  -28.2980 C   0  0  0  0  0  0  0  0  0  0  0  0
    0.8750   17.9370  -28.5680 C   0  0  0  0  0  0  0  0  0  0  0  0
    0.5760   17.2780  -29.9360 C   0  0  0  0  0  0  0  0  0  0  0  0
    0.6090   16.8860  -27.4690 C   0  0  0  0  0  0  0  0  0  0  0  0
    2.3700   18.3230  -28.5550 C   0  0  0  0  0  0  0  0  0  0  0  0
    0.2110   20.4140  -28.9680 C   0  0  0  0  0  0  0  0  0  0  0  0
   -0.5860   21.5260  -28.6860 C   0  0  0  0  0  0  0  0  0  0  0  0
   -3.8570   25.2970  -30.4560 N   0  0  0  0  0  0  0  0  0  0  0  0
   -4.7140   24.6320  -31.2130 N   0  0  0  0  0  0  0  0  0  0  0  0
   -6.7190   22.1620  -31.5850 C   0  0  0  0  0  0  0  0  0  0  0  0
   -7.5150   23.2210  -30.8550 C   0  0  0  0  0  0  0  0  0  0  0  0
   -9.1477   20.8215  -30.9923 H   0  0  0  0  0  0  0  0  0  0  0  0
   -9.3917   21.6953  -32.5426 H   0  0  0  0  0  0  0  0  0  0  0  0
   -9.1574   19.9143  -32.5426 H   0  0  0  0  0  0  0  0  0  0  0  0
   -7.1601   19.2886  -33.4221 H   0  0  0  0  0  0  0  0  0  0  0  0
   -4.7044   19.5543  -33.7028 H   0  0  0  0  0  0  0  0  0  0  0  0
   -3.5119   21.4253  -32.5839 H   0  0  0  0  0  0  0  0  0  0  0  0
   -3.0632   22.1750  -29.7595 H   0  0  0  0  0  0  0  0  0  0  0  0
   -2.5837   22.6724  -26.2691 H   0  0  0  0  0  0  0  0  0  0  0  0
   -3.3661   22.6365  -27.8944 H   0  0  0  0  0  0  0  0  0  0  0  0
   -2.6440   20.1535  -26.3350 H   0  0  0  0  0  0  0  0  0  0  0  0
   -1.2443   18.1647  -26.8418 H   0  0  0  0  0  0  0  0  0  0  0  0
    0.1264   16.2870  -29.7752 H   0  0  0  0  0  0  0  0  0  0  0  0
   -0.1234   17.9104  -30.5026 H   0  0  0  0  0  0  0  0  0  0  0  0
    1.5124   17.1682  -30.5026 H   0  0  0  0  0  0  0  0  0  0  0  0
    0.7270   17.3521  -26.4796 H   0  0  0  0  0  0  0  0  0  0  0  0
   -0.4154   16.4989  -27.5721 H   0  0  0  0  0  0  0  0  0  0  0  0
    1.3259   16.0581  -27.5721 H   0  0  0  0  0  0  0  0  0  0  0  0
    2.7166   18.4125  -27.5149 H   0  0  0  0  0  0  0  0  0  0  0  0
    2.9538   17.5461  -29.0704 H   0  0  0  0  0  0  0  0  0  0  0  0
    2.5047   19.2854  -29.0704 H   0  0  0  0  0  0  0  0  0  0  0  0
    1.0066   20.4955  -29.7233 H   0  0  0  0  0  0  0  0  0  0  0  0
   -0.4157   22.4696  -29.2250 H   0  0  0  0  0  0  0  0  0  0  0  0
   -7.4072   23.0776  -29.7697 H   0  0  0  0  0  0  0  0  0  0  0  0
   -7.1404   24.2174  -31.1322 H   0  0  0  0  0  0  0  0  0  0  0  0
   -8.5763   23.1381  -31.1322 H   0  0  0  0  0  0  0  0  0  0  0  0
  1  2  1  0
  2  3  2  0
  3  4  1  0
  4  5  2  0
  5  6  1  0
  6  7  1  0
  7  8  1  0
  8  9  2  0
  9 10  1  0
 10 11  2  0
 10 12  1  0
 12 13  1  0
 13 14  1  0
 14 15  2  0
 15 16  1  0
 16 17  2  0
 17 18  1  0
 18 19  1  0
 18 20  1  0
 18 21  1  0
 17 22  1  0
 22 23  2  0
  9 24  1  0
 24 25  1  0
  6 26  2  0
 26 27  1  0
 26  2  1  0
 25  7  2  0
 23 14  1  0
  1 28  1  0
  1 29  1  0
  1 30  1  0
  3 31  1  0
  4 32  1  0
  5 33  1  0
  8 34  1  0
 13 35  1  0
 13 36  1  0
 15 37  1  0
 16 38  1  0
 19 39  1  0
 19 40  1  0
 19 41  1  0
 20 42  1  0
 20 43  1  0
 20 44  1  0
 21 45  1  0
 21 46  1  0
 21 47  1  0
 22 48  1  0
 23 49  1  0
 27 50  1  0
 27 51  1  0
 27 52  1  0
M  CHG  2  12  -1  24  -1
M  END
>  <UniqueID>  (33) 
27

>  <SMILES>  (33) 
Cc1cccc(-c2cc(C(=O)[N-]Cc3ccc(C(C)(C)C)cc3)[n-]n2)c1C

>  <Energy>  (33) 
89.9857204586073

>  <Genealogy>  (33) 
Cc1cccc(-c2cc(C(=O)[N-]Cc3ccc(C(C)(C)C)cc3)[n-]n2)c1C (protonated)
Cc1cccc(-c2cc(C(=O)[N-]Cc3ccc(C(C)(C)C)cc3)[n-]n2)c1C (3D coordinates assigned)
Cc1cccc(-c2cc(C(=O)[N-]Cc3ccc(C(C)(C)C)cc3)[n-]n2)c1C (optimized conformer: 89.9857204586073 kcal/mol)

>  <smiles>  (33) 
Cc1cccc(-c2cc(C(=O)NCc3ccc(C(C)(C)C)cc3)[nH]n2)c1C

>  <score_type>  (33) 
oracle

>  <origin>  (33) 
adgpu

>  <m_score__min__energy>  (33) 
-12.289999999999999

>  <m_primary>  (33) 
energy

$$$$
33:0
     RDKit          3D

 47 50  0  0  0  0  0  0  0  0999 V2000
   -2.5820   13.9640  -32.5020 C   0  0  0  0  0  0  0  0  0  0  0  0
   -3.3680   14.7580  -33.4590 N   0  0  0  0  0  0  0  0  0  0  0  0
   -4.7740   14.9110  -33.0120 C   0  0  0  0  0  0  0  0  0  0  0  0
   -5.0260   16.2620  -32.3190 C   0  0  0  0  0  0  0  0  0  0  0  0
   -4.6760   17.4210  -33.1830 N   0  0  0  0  0  0  0  0  0  0  0  0
   -6.1040   18.1460  -33.8900 S   0  0  0  0  0  0  0  0  0  0  0  0
   -5.8190   18.5170  -35.3190 O   0  0  0  0  0  0  0  0  0  0  0  0
   -7.2270   17.1460  -33.8860 O   0  0  0  0  0  0  0  0  0  0  0  0
   -6.6100   19.5910  -33.0080 C   0  0  0  0  0  0  0  0  0  0  0  0
   -7.9620   19.9510  -32.9630 C   0  0  0  0  0  0  0  0  0  0  0  0
   -8.3640   21.0820  -32.2490 C   0  0  0  0  0  0  0  0  0  0  0  0
   -7.4190   21.8600  -31.5770 C   0  0  0  0  0  0  0  0  0  0  0  0
   -6.0550   21.5190  -31.6150 C   0  0  0  0  0  0  0  0  0  0  0  0
   -5.0500   22.3410  -30.8960 C   0  0  0  0  0  0  0  0  0  0  0  0
   -4.9180   23.6670  -31.1760 N   0  0  0  0  0  0  0  0  0  0  0  0
   -4.0100   24.4470  -30.5340 C   0  0  0  0  0  0  0  0  0  0  0  0
   -3.9270   25.6690  -30.8290 O   0  0  0  0  0  0  0  0  0  0  0  0
   -3.1790   23.8810  -29.5530 C   0  0  0  0  0  0  0  0  0  0  0  0
   -2.2190   24.6320  -28.8500 C   0  0  0  0  0  0  0  0  0  0  0  0
   -1.4190   24.0150  -27.8820 C   0  0  0  0  0  0  0  0  0  0  0  0
   -0.1150   25.0360  -26.9300 Br  0  0  0  0  0  0  0  0  0  0  0  0
   -1.5710   22.6510  -27.6110 C   0  0  0  0  0  0  0  0  0  0  0  0
   -2.5240   21.8980  -28.3040 C   0  0  0  0  0  0  0  0  0  0  0  0
   -3.3280   22.5080  -29.2740 C   0  0  0  0  0  0  0  0  0  0  0  0
   -4.2530   21.7760  -29.9480 N   0  0  0  0  0  0  0  0  0  0  0  0
   -5.6600   20.3800  -32.3420 C   0  0  0  0  0  0  0  0  0  0  0  0
   -3.6890   17.0980  -34.2380 C   0  0  0  0  0  0  0  0  0  0  0  0
   -2.6910   16.0430  -33.7500 C   0  0  0  0  0  0  0  0  0  0  0  0
   -2.8607   14.2456  -31.4758 H   0  0  0  0  0  0  0  0  0  0  0  0
   -2.7871   12.8945  -32.6573 H   0  0  0  0  0  0  0  0  0  0  0  0
   -1.5105   14.1582  -32.6573 H   0  0  0  0  0  0  0  0  0  0  0  0
   -5.4336   14.8354  -33.8890 H   0  0  0  0  0  0  0  0  0  0  0  0
   -4.9819   14.1155  -32.2813 H   0  0  0  0  0  0  0  0  0  0  0  0
   -6.0915   16.3289  -32.0541 H   0  0  0  0  0  0  0  0  0  0  0  0
   -4.3833   16.3045  -31.4273 H   0  0  0  0  0  0  0  0  0  0  0  0
   -4.2530   18.1560  -32.5670 H   0  0  0  0  0  0  0  0  0  0  0  0
   -8.7098   19.3415  -33.4914 H   0  0  0  0  0  0  0  0  0  0  0  0
   -9.4276   21.3606  -32.2159 H   0  0  0  0  0  0  0  0  0  0  0  0
   -7.7440   22.7469  -31.0133 H   0  0  0  0  0  0  0  0  0  0  0  0
   -2.0974   25.7046  -29.0615 H   0  0  0  0  0  0  0  0  0  0  0  0
   -0.9389   22.1693  -26.8504 H   0  0  0  0  0  0  0  0  0  0  0  0
   -2.6419   20.8261  -28.0868 H   0  0  0  0  0  0  0  0  0  0  0  0
   -4.5957   20.1058  -32.3884 H   0  0  0  0  0  0  0  0  0  0  0  0
   -4.2192   16.7109  -35.1206 H   0  0  0  0  0  0  0  0  0  0  0  0
   -3.1352   18.0137  -34.4928 H   0  0  0  0  0  0  0  0  0  0  0  0
   -1.9318   15.8800  -34.5291 H   0  0  0  0  0  0  0  0  0  0  0  0
   -2.2242   16.4080  -32.8233 H   0  0  0  0  0  0  0  0  0  0  0  0
  1  2  1  0
  2  3  1  0
  3  4  1  0
  4  5  1  0
  5  6  1  0
  6  7  2  0
  6  8  2  0
  6  9  1  0
  9 10  2  0
 10 11  1  0
 11 12  2  0
 12 13  1  0
 13 14  1  0
 14 15  2  0
 15 16  1  0
 16 17  2  0
 16 18  1  0
 18 19  2  0
 19 20  1  0
 20 21  1  0
 20 22  2  0
 22 23  1  0
 23 24  2  0
 24 25  1  0
 13 26  2  0
  5 27  1  0
 27 28  1  0
 28  2  1  0
 26  9  1  0
 25 14  1  0
 24 18  1  0
  1 29  1  0
  1 30  1  0
  1 31  1  0
  3 32  1  0
  3 33  1  0
  4 34  1  0
  4 35  1  0
  5 36  1  0
 10 37  1  0
 11 38  1  0
 12 39  1  0
 19 40  1  0
 22 41  1  0
 23 42  1  0
 26 43  1  0
 27 44  1  0
 27 45  1  0
 28 46  1  0
 28 47  1  0
M  CHG  2   5   1  25  -1
M  END
>  <UniqueID>  (34) 
28

>  <SMILES>  (34) 
CN1CC[NH+](S(=O)(=O)c2cccc(-c3nc(=O)c4cc(Br)ccc4[n-]3)c2)CC1

>  <Energy>  (34) 
65.79939253803853

>  <Genealogy>  (34) 
CN1CC[NH+](S(=O)(=O)c2cccc(-c3nc(=O)c4cc(Br)ccc4[n-]3)c2)CC1 (protonated)
CN1CC[NH+](S(=O)(=O)c2cccc(-c3nc(=O)c4cc(Br)ccc4[n-]3)c2)CC1 (3D coordinates assigned)
CN1CC[NH+](S(=O)(=O)c2cccc(-c3nc(=O)c4cc(Br)ccc4[n-]3)c2)CC1 (nonaromatic ring conformer: 65.79939253803853 kcal/mol)

>  <smiles>  (34) 
CN1CCN(S(=O)(=O)c2cccc(-c3nc(=O)c4cc(Br)ccc4[nH]3)c2)CC1

>  <score_type>  (34) 
oracle

>  <origin>  (34) 
adgpu

>  <m_score__min__energy>  (34) 
-10.35

>  <m_primary>  (34) 
energy

$$$$
34:0
     RDKit          3D

 41 43  0  0  0  0  0  0  0  0999 V2000
   -6.8320   20.4330  -32.2740 C   0  0  0  0  0  0  0  0  0  0  0  0
   -5.5940   21.1290  -31.9040 N   0  0  0  0  0  0  0  0  0  0  0  0
   -5.6830   22.4420  -31.3150 C   0  0  0  0  0  0  0  0  0  0  0  0
   -6.9310   22.9630  -30.9320 C   0  0  0  0  0  0  0  0  0  0  0  0
   -7.0220   24.2550  -30.4030 C   0  0  0  0  0  0  0  0  0  0  0  0
   -5.8720   25.0340  -30.2540 C   0  0  0  0  0  0  0  0  0  0  0  0
   -4.6260   24.5220  -30.6250 C   0  0  0  0  0  0  0  0  0  0  0  0
   -3.4830   25.2970  -30.4790 O   0  0  0  0  0  0  0  0  0  0  0  0
   -4.5300   23.2270  -31.1480 C   0  0  0  0  0  0  0  0  0  0  0  0
   -4.2950   20.5790  -32.2250 C   0  0  0  0  0  0  0  0  0  0  0  0
   -4.0140   19.9980  -33.4730 C   0  0  0  0  0  0  0  0  0  0  0  0
   -2.7280   19.5080  -33.7110 C   0  0  0  0  0  0  0  0  0  0  0  0
   -1.7740   19.6000  -32.7490 N   0  0  0  0  0  0  0  0  0  0  0  0
   -2.0460   20.1720  -31.5480 C   0  0  0  0  0  0  0  0  0  0  0  0
   -1.1210   20.2200  -30.6350 N   0  0  0  0  0  0  0  0  0  0  0  0
   -1.2460   20.8160  -29.3320 C   0  0  0  0  0  0  0  0  0  0  0  0
   -1.6970   20.0840  -28.2160 C   0  0  0  0  0  0  0  0  0  0  0  0
   -1.7940   20.6970  -26.9640 C   0  0  0  0  0  0  0  0  0  0  0  0
   -1.4680   22.0480  -26.8180 C   0  0  0  0  0  0  0  0  0  0  0  0
   -1.0610   22.7970  -27.9290 C   0  0  0  0  0  0  0  0  0  0  0  0
   -0.6450   24.4980  -27.7410 S   0  0  0  0  0  0  0  0  0  0  0  0
   -1.5580   25.4440  -28.8630 N   0  0  0  0  0  0  0  0  0  0  0  0
    0.8230   24.6940  -27.9980 O   0  0  0  0  0  0  0  0  0  0  0  0
   -0.9530   24.9480  -26.3400 O   0  0  0  0  0  0  0  0  0  0  0  0
   -0.9540   22.1790  -29.1830 C   0  0  0  0  0  0  0  0  0  0  0  0
   -3.2960   20.6450  -31.3030 N   0  0  0  0  0  0  0  0  0  0  0  0
   -7.3692   20.1310  -31.3628 H   0  0  0  0  0  0  0  0  0  0  0  0
   -7.4675   21.1061  -32.8682 H   0  0  0  0  0  0  0  0  0  0  0  0
   -6.5872   19.5403  -32.8682 H   0  0  0  0  0  0  0  0  0  0  0  0
   -7.8389   22.3530  -31.0485 H   0  0  0  0  0  0  0  0  0  0  0  0
   -8.0008   24.6581  -30.1039 H   0  0  0  0  0  0  0  0  0  0  0  0
   -5.9475   26.0519  -29.8440 H   0  0  0  0  0  0  0  0  0  0  0  0
   -3.5468   22.8221  -31.4296 H   0  0  0  0  0  0  0  0  0  0  0  0
   -4.7919   19.9304  -34.2478 H   0  0  0  0  0  0  0  0  0  0  0  0
   -2.4873   19.0464  -34.6800 H   0  0  0  0  0  0  0  0  0  0  0  0
   -1.9739   19.0256  -28.3306 H   0  0  0  0  0  0  0  0  0  0  0  0
   -2.1275   20.1152  -26.0920 H   0  0  0  0  0  0  0  0  0  0  0  0
   -1.5312   22.5241  -25.8284 H   0  0  0  0  0  0  0  0  0  0  0  0
   -2.5550   25.4040  -28.5550 H   0  0  0  0  0  0  0  0  0  0  0  0
   -1.5080   24.9570  -29.7850 H   0  0  0  0  0  0  0  0  0  0  0  0
   -0.6385   22.7682  -30.0567 H   0  0  0  0  0  0  0  0  0  0  0  0
  1  2  1  0
  2  3  1  0
  3  4  2  0
  4  5  1  0
  5  6  2  0
  6  7  1  0
  7  8  1  0
  7  9  2  0
  2 10  1  0
 10 11  1  0
 11 12  2  0
 12 13  1  0
 13 14  1  0
 14 15  2  3
 15 16  1  0
 16 17  2  0
 17 18  1  0
 18 19  2  0
 19 20  1  0
 20 21  1  0
 21 22  1  0
 21 23  2  0
 21 24  2  0
 20 25  2  0
 14 26  1  0
  9  3  1  0
 26 10  2  0
 25 16  1  0
  1 27  1  0
  1 28  1  0
  1 29  1  0
  4 30  1  0
  5 31  1  0
  6 32  1  0
  9 33  1  0
 11 34  1  0
 12 35  1  0
 17 36  1  0
 18 37  1  0
 19 38  1  0
 22 39  1  0
 22 40  1  0
 25 41  1  0
M  CHG  2   8  -1  13  -1
M  END
>  <UniqueID>  (35) 
29

>  <SMILES>  (35) 
CN(c1cccc([O-])c1)c1cc[n-]c(=Nc2cccc(S(N)(=O)=O)c2)n1

>  <Energy>  (35) 
54.494583866969414

>  <Genealogy>  (35) 
CN(c1cccc([O-])c1)c1cc[n-]c(=Nc2cccc(S(N)(=O)=O)c2)n1 (protonated)
CN(c1cccc([O-])c1)c1cc[n-]c(=Nc2cccc(S(N)(=O)=O)c2)n1 (3D coordinates assigned)
CN(c1cccc([O-])c1)c1cc[n-]c(=Nc2cccc(S(N)(=O)=O)c2)n1 (optimized conformer: 54.494583866969414 kcal/mol)

>  <smiles>  (35) 
CN(c1cccc(O)c1)c1cc[nH]c(=Nc2cccc(S(N)(=O)=O)c2)n1

>  <score_type>  (35) 
oracle

>  <origin>  (35) 
adgpu

>  <m_score__min__energy>  (35) 
-12.06

>  <m_primary>  (35) 
energy

$$$$
35:0
     RDKit          3D

 49 50  0  0  0  0  0  0  0  0999 V2000
   -5.3330   22.2330  -32.1420 C   0  0  0  0  0  0  0  0  0  0  0  0
   -3.9760   22.6640  -32.2000 O   0  0  0  0  0  0  0  0  0  0  0  0
   -3.2070   23.0170  -31.0800 C   0  0  0  0  0  0  0  0  0  0  0  0
   -2.1380   22.2200  -30.6270 C   0  0  0  0  0  0  0  0  0  0  0  0
   -1.3920   22.6050  -29.5120 C   0  0  0  0  0  0  0  0  0  0  0  0
   -1.6980   23.7910  -28.8350 C   0  0  0  0  0  0  0  0  0  0  0  0
   -0.7580   24.3010  -27.4370 S   0  0  0  0  0  0  0  0  0  0  0  0
    0.5960   24.7940  -27.8680 O   0  0  0  0  0  0  0  0  0  0  0  0
   -1.4730   25.4260  -26.7450 O   0  0  0  0  0  0  0  0  0  0  0  0
   -0.5590   22.9510  -26.3590 N   0  0  0  0  0  0  0  0  0  0  0  0
   -0.4910   23.1810  -24.9150 C   0  0  0  0  0  0  0  0  0  0  0  0
    0.7020   24.0420  -24.5890 C   0  0  0  0  0  0  0  0  0  0  0  0
    1.6970   23.5160  -24.1050 O   0  0  0  0  0  0  0  0  0  0  0  0
    0.6840   25.4700  -24.8380 N   0  0  0  0  0  0  0  0  0  0  0  0
    1.9940   26.0560  -24.5170 C   0  0  0  0  0  0  0  0  0  0  0  0
   -0.3790   26.1070  -24.0440 C   0  0  0  0  0  0  0  0  0  0  0  0
   -0.3620   21.6340  -26.8920 C   0  0  0  0  0  0  0  0  0  0  0  0
    0.8200   21.3160  -27.5780 C   0  0  0  0  0  0  0  0  0  0  0  0
    1.0110   20.0280  -28.0930 C   0  0  0  0  0  0  0  0  0  0  0  0
    0.0290   19.0470  -27.9140 C   0  0  0  0  0  0  0  0  0  0  0  0
    0.2700   17.4350  -28.5600 Cl  0  0  0  0  0  0  0  0  0  0  0  0
   -1.1510   19.3620  -27.2350 C   0  0  0  0  0  0  0  0  0  0  0  0
   -1.3480   20.6490  -26.7250 C   0  0  0  0  0  0  0  0  0  0  0  0
   -2.7560   24.5890  -29.2830 C   0  0  0  0  0  0  0  0  0  0  0  0
   -3.5210   24.2040  -30.4010 C   0  0  0  0  0  0  0  0  0  0  0  0
   -4.5980   24.9760  -30.8650 O   0  0  0  0  0  0  0  0  0  0  0  0
   -5.7620   25.2820  -30.0990 C   0  0  0  0  0  0  0  0  0  0  0  0
   -5.6419   22.1349  -31.0908 H   0  0  0  0  0  0  0  0  0  0  0  0
   -5.9742   22.9717  -32.6452 H   0  0  0  0  0  0  0  0  0  0  0  0
   -5.4304   21.2597  -32.6452 H   0  0  0  0  0  0  0  0  0  0  0  0
   -1.8893   21.2878  -31.1554 H   0  0  0  0  0  0  0  0  0  0  0  0
   -0.5607   21.9741  -29.1642 H   0  0  0  0  0  0  0  0  0  0  0  0
   -1.4088   23.6883  -24.5827 H   0  0  0  0  0  0  0  0  0  0  0  0
   -0.3927   22.2149  -24.3984 H   0  0  0  0  0  0  0  0  0  0  0  0
    0.4840   25.6560  -25.8480 H   0  0  0  0  0  0  0  0  0  0  0  0
    2.1140   26.1097  -23.4249 H   0  0  0  0  0  0  0  0  0  0  0  0
    2.7907   25.4285  -24.9430 H   0  0  0  0  0  0  0  0  0  0  0  0
    2.0572   27.0682  -24.9430 H   0  0  0  0  0  0  0  0  0  0  0  0
   -0.1639   25.9781  -22.9730 H   0  0  0  0  0  0  0  0  0  0  0  0
   -0.4221   27.1799  -24.2828 H   0  0  0  0  0  0  0  0  0  0  0  0
   -1.3454   25.6391  -24.2828 H   0  0  0  0  0  0  0  0  0  0  0  0
    1.5991   22.0810  -27.7116 H   0  0  0  0  0  0  0  0  0  0  0  0
    1.9347   19.7867  -28.6394 H   0  0  0  0  0  0  0  0  0  0  0  0
   -1.9278   18.5947  -27.1012 H   0  0  0  0  0  0  0  0  0  0  0  0
   -2.2789   20.8904  -26.1911 H   0  0  0  0  0  0  0  0  0  0  0  0
   -2.9926   25.5258  -28.7572 H   0  0  0  0  0  0  0  0  0  0  0  0
   -5.5226   25.2191  -29.0272 H   0  0  0  0  0  0  0  0  0  0  0  0
   -6.1021   26.3001  -30.3396 H   0  0  0  0  0  0  0  0  0  0  0  0
   -6.5588   24.5628  -30.3396 H   0  0  0  0  0  0  0  0  0  0  0  0
  1  2  1  0
  2  3  1  0
  3  4  2  0
  4  5  1  0
  5  6  2  0
  6  7  1  0
  7  8  2  0
  7  9  2  0
  7 10  1  0
 10 11  1  0
 11 12  1  0
 12 13  2  0
 12 14  1  0
 14 15  1  0
 14 16  1  0
 10 17  1  0
 17 18  2  0
 18 19  1  0
 19 20  2  0
 20 21  1  0
 20 22  1  0
 22 23  2  0
  6 24  1  0
 24 25  2  0
 25 26  1  0
 26 27  1  0
 25  3  1  0
 23 17  1  0
  1 28  1  0
  1 29  1  0
  1 30  1  0
  4 31  1  0
  5 32  1  0
 11 33  1  0
 11 34  1  0
 14 35  1  0
 15 36  1  0
 15 37  1  0
 15 38  1  0
 16 39  1  0
 16 40  1  0
 16 41  1  0
 18 42  1  0
 19 43  1  0
 22 44  1  0
 23 45  1  0
 24 46  1  0
 27 47  1  0
 27 48  1  0
 27 49  1  0
M  CHG  1  14   1
M  END
>  <UniqueID>  (36) 
30

>  <SMILES>  (36) 
COc1ccc(S(=O)(=O)N(CC(=O)[NH+](C)C)c2ccc(Cl)cc2)cc1OC

>  <Energy>  (36) 
50.74882404179236

>  <Genealogy>  (36) 
COc1ccc(S(=O)(=O)N(CC(=O)[NH+](C)C)c2ccc(Cl)cc2)cc1OC (protonated)
COc1ccc(S(=O)(=O)N(CC(=O)[NH+](C)C)c2ccc(Cl)cc2)cc1OC (3D coordinates assigned)
COc1ccc(S(=O)(=O)N(CC(=O)[NH+](C)C)c2ccc(Cl)cc2)cc1OC (optimized conformer: 50.74882404179236 kcal/mol)

>  <smiles>  (36) 
COc1ccc(S(=O)(=O)N(CC(=O)N(C)C)c2ccc(Cl)cc2)cc1OC

>  <score_type>  (36) 
oracle

>  <origin>  (36) 
adgpu

>  <m_score__min__energy>  (36) 
-7.3600000000000003

>  <m_primary>  (36) 
energy

$$$$
36:0
     RDKit          3D

 49 52  0  0  0  0  0  0  0  0999 V2000
   -0.6633   26.2381  -27.5842 H   0  0  0  0  0  0  0  0  0  0  0  0
   -1.5880   25.6650  -27.7470 C   0  0  0  0  0  0  0  0  0  0  0  0
   -1.9640   25.3250  -29.0090 N   0  0  0  0  0  0  0  0  0  0  0  0
   -3.0990   24.6190  -29.2650 C   0  0  0  0  0  0  0  0  0  0  0  0
   -3.3850   24.3380  -30.5040 N   0  0  0  0  0  0  0  0  0  0  0  0
   -4.7760   23.4670  -31.0770 S   0  0  0  0  0  0  0  0  0  0  0  0
   -5.5750   22.9900  -29.8990 O   0  0  0  0  0  0  0  0  0  0  0  0
   -5.6420   24.3790  -31.9000 O   0  0  0  0  0  0  0  0  0  0  0  0
   -4.2570   22.0670  -32.0110 C   0  0  0  0  0  0  0  0  0  0  0  0
   -2.9920   22.0330  -32.6120 C   0  0  0  0  0  0  0  0  0  0  0  0
   -2.3188   22.8983  -32.5227 H   0  0  0  0  0  0  0  0  0  0  0  0
   -2.5830   20.9020  -33.3250 C   0  0  0  0  0  0  0  0  0  0  0  0
   -1.5846   20.8784  -33.7861 H   0  0  0  0  0  0  0  0  0  0  0  0
   -3.4350   19.8000  -33.4560 C   0  0  0  0  0  0  0  0  0  0  0  0
   -2.9630   18.6660  -34.1340 O   0  0  0  0  0  0  0  0  0  0  0  0
   -2.1320   17.6960  -33.5650 C   0  0  0  0  0  0  0  0  0  0  0  0
   -0.8560   18.0450  -33.1010 C   0  0  0  0  0  0  0  0  0  0  0  0
   -0.5012   19.0814  -33.2006 H   0  0  0  0  0  0  0  0  0  0  0  0
   -0.0340   17.0820  -32.5130 C   0  0  0  0  0  0  0  0  0  0  0  0
    0.9675   17.3599  -32.1526 H   0  0  0  0  0  0  0  0  0  0  0  0
   -0.4830   15.7650  -32.3820 C   0  0  0  0  0  0  0  0  0  0  0  0
    0.5520   14.5550  -31.6450 Cl  0  0  0  0  0  0  0  0  0  0  0  0
   -1.7530   15.4080  -32.8480 C   0  0  0  0  0  0  0  0  0  0  0  0
   -2.1016   14.3694  -32.7491 H   0  0  0  0  0  0  0  0  0  0  0  0
   -2.5830   16.3710  -33.4410 C   0  0  0  0  0  0  0  0  0  0  0  0
   -4.1480   15.9040  -34.1120 S   0  0  0  0  0  0  0  0  0  0  0  0
   -4.2870   14.4090  -34.0340 O   0  0  0  0  0  0  0  0  0  0  0  0
   -4.2600   16.3260  -35.5500 O   0  0  0  0  0  0  0  0  0  0  0  0
   -5.4160   16.7010  -33.1840 C   0  0  0  0  0  0  0  0  0  0  0  0
   -5.3800   16.7190  -31.7820 C   0  0  0  0  0  0  0  0  0  0  0  0
   -4.5816   16.1845  -31.2464 H   0  0  0  0  0  0  0  0  0  0  0  0
   -6.3570   17.4150  -31.0640 C   0  0  0  0  0  0  0  0  0  0  0  0
   -6.3241   17.4304  -29.9646 H   0  0  0  0  0  0  0  0  0  0  0  0
   -7.3750   18.0910  -31.7410 C   0  0  0  0  0  0  0  0  0  0  0  0
   -8.1431   18.6377  -31.1744 H   0  0  0  0  0  0  0  0  0  0  0  0
   -7.4180   18.0730  -33.1370 C   0  0  0  0  0  0  0  0  0  0  0  0
   -8.2203   18.6052  -33.6689 H   0  0  0  0  0  0  0  0  0  0  0  0
   -6.4420   17.3790  -33.8590 C   0  0  0  0  0  0  0  0  0  0  0  0
   -6.4788   17.3647  -34.9583 H   0  0  0  0  0  0  0  0  0  0  0  0
   -4.7080   19.8400  -32.8600 C   0  0  0  0  0  0  0  0  0  0  0  0
   -5.3881   18.9815  -32.9620 H   0  0  0  0  0  0  0  0  0  0  0  0
   -5.1120   20.9660  -32.1390 C   0  0  0  0  0  0  0  0  0  0  0  0
   -6.1066   20.9877  -31.6696 H   0  0  0  0  0  0  0  0  0  0  0  0
   -3.9160   24.2230  -28.1860 C   0  0  0  0  0  0  0  0  0  0  0  0
   -4.8392   23.6536  -28.3690 H   0  0  0  0  0  0  0  0  0  0  0  0
   -3.5430   24.5600  -26.8830 C   0  0  0  0  0  0  0  0  0  0  0  0
   -4.1707   24.2518  -26.0339 H   0  0  0  0  0  0  0  0  0  0  0  0
   -2.3750   25.2870  -26.6590 C   0  0  0  0  0  0  0  0  0  0  0  0
   -2.0070   25.6240  -25.3980 F   0  0  0  0  0  0  0  0  0  0  0  0
  1  2  1  0
  2  3  1  0
  3  4  1  0
  4  5  2  0
  5  6  1  0
  6  7  2  0
  6  8  2  0
  6  9  1  0
  9 10  2  0
 10 11  1  0
 10 12  1  0
 12 13  1  0
 12 14  2  0
 14 15  1  0
 15 16  1  0
 16 17  2  0
 17 18  1  0
 17 19  1  0
 19 20  1  0
 19 21  2  0
 21 22  1  0
 21 23  1  0
 23 24  1  0
 23 25  2  0
 25 26  1  0
 26 27  2  0
 26 28  2  0
 26 29  1  0
 29 30  2  0
 30 31  1  0
 30 32  1  0
 32 33  1  0
 32 34  2  0
 34 35  1  0
 34 36  1  0
 36 37  1  0
 36 38  2  0
 38 39  1  0
 14 40  1  0
 40 41  1  0
 40 42  2  0
 42 43  1  0
  4 44  1  0
 44 45  1  0
 44 46  2  0
 46 47  1  0
 46 48  1  0
 48 49  1  0
 48  2  2  0
 42  9  1  0
 25 16  1  0
 38 29  1  0
M  CHG  1   3  -1
M  END
>  <UniqueID>  (37) 
31

>  <SMILES>  (37) 
O=S(=O)(/N=c1\ccc(F)c[n-]1)c1ccc(Oc2ccc(Cl)cc2S(=O)(=O)c2ccccc2)cc1

>  <Energy>  (37) 
64.09142987294447

>  <Genealogy>  (37) 
O=S(=O)(N=c1ccc(F)c[n-]1)c1ccc(Oc2ccc(Cl)cc2S(=O)(=O)c2ccccc2)cc1 (protonated)
O=S(=O)(/N=c1\ccc(F)c[n-]1)c1ccc(Oc2ccc(Cl)cc2S(=O)(=O)c2ccccc2)cc1 (cis-trans isomerization)
O=S(=O)(/N=c1\ccc(F)c[n-]1)c1ccc(Oc2ccc(Cl)cc2S(=O)(=O)c2ccccc2)cc1 (3D coordinates assigned)
O=S(=O)(/N=c1\ccc(F)c[n-]1)c1ccc(Oc2ccc(Cl)cc2S(=O)(=O)c2ccccc2)cc1 (optimized conformer: 64.09142987294447 kcal/mol)

>  <smiles>  (37) 
O=S(=O)(N=c1ccc(F)c[nH]1)c1ccc(Oc2ccc(Cl)cc2S(=O)(=O)c2ccccc2)cc1

>  <score_type>  (37) 
oracle

>  <origin>  (37) 
adgpu

>  <m_score__min__energy>  (37) 
-11.52

>  <m_primary>  (37) 
energy

$$$$
37:0
     RDKit          3D

 36 38  0  0  0  0  0  0  0  0999 V2000
   -9.0920   18.9760  -32.3000 C   0  0  0  0  0  0  0  0  0  0  0  0
   -9.0190   20.3750  -32.5500 O   0  0  0  0  0  0  0  0  0  0  0  0
   -8.0750   21.2350  -31.9690 C   0  0  0  0  0  0  0  0  0  0  0  0
   -8.3820   22.0680  -30.8780 C   0  0  0  0  0  0  0  0  0  0  0  0
   -7.4060   22.9100  -30.3340 C   0  0  0  0  0  0  0  0  0  0  0  0
   -6.1080   22.9400  -30.8730 C   0  0  0  0  0  0  0  0  0  0  0  0
   -5.0610   23.8230  -30.3020 C   0  0  0  0  0  0  0  0  0  0  0  0
   -4.5760   24.7430  -31.0150 O   0  0  0  0  0  0  0  0  0  0  0  0
   -4.6170   23.6600  -28.9440 N   0  0  0  0  0  0  0  0  0  0  0  0
   -3.4470   24.3000  -28.4150 C   0  0  0  0  0  0  0  0  0  0  0  0
   -2.2940   24.5460  -29.1190 C   0  0  0  0  0  0  0  0  0  0  0  0
   -1.4700   25.1560  -28.3060 O   0  0  0  0  0  0  0  0  0  0  0  0
   -2.0830   25.2870  -27.1470 C   0  0  0  0  0  0  0  0  0  0  0  0
   -1.4730   25.9300  -25.9660 C   0  0  0  0  0  0  0  0  0  0  0  0
   -1.1210   25.1690  -24.8360 C   0  0  0  0  0  0  0  0  0  0  0  0
   -0.5430   25.7870  -23.7220 C   0  0  0  0  0  0  0  0  0  0  0  0
   -0.3130   27.1640  -23.7250 C   0  0  0  0  0  0  0  0  0  0  0  0
   -0.6590   27.9280  -24.8430 C   0  0  0  0  0  0  0  0  0  0  0  0
   -1.2360   27.3150  -25.9590 C   0  0  0  0  0  0  0  0  0  0  0  0
   -3.3310   24.7680  -27.1570 N   0  0  0  0  0  0  0  0  0  0  0  0
   -5.8040   22.0970  -31.9560 C   0  0  0  0  0  0  0  0  0  0  0  0
   -6.7800   21.2570  -32.4990 C   0  0  0  0  0  0  0  0  0  0  0  0
   -9.1013   18.7975  -31.2146 H   0  0  0  0  0  0  0  0  0  0  0  0
  -10.0125   18.5714  -32.7461 H   0  0  0  0  0  0  0  0  0  0  0  0
   -8.2186   18.4777  -32.7461 H   0  0  0  0  0  0  0  0  0  0  0  0
   -9.3953   22.0574  -30.4500 H   0  0  0  0  0  0  0  0  0  0  0  0
   -7.6563   23.5536  -29.4778 H   0  0  0  0  0  0  0  0  0  0  0  0
   -5.1880   23.0820  -28.2870 H   0  0  0  0  0  0  0  0  0  0  0  0
   -2.0997   24.2803  -30.1686 H   0  0  0  0  0  0  0  0  0  0  0  0
   -1.3010   24.0839  -24.8285 H   0  0  0  0  0  0  0  0  0  0  0  0
   -0.2692   25.1867  -22.8418 H   0  0  0  0  0  0  0  0  0  0  0  0
    0.1406   27.6477  -22.8473 H   0  0  0  0  0  0  0  0  0  0  0  0
   -0.4771   29.0129  -24.8448 H   0  0  0  0  0  0  0  0  0  0  0  0
   -1.5061   27.9204  -26.8368 H   0  0  0  0  0  0  0  0  0  0  0  0
   -4.7889   22.0985  -32.3798 H   0  0  0  0  0  0  0  0  0  0  0  0
   -6.5281   20.6075  -33.3503 H   0  0  0  0  0  0  0  0  0  0  0  0
  1  2  1  0
  2  3  1  0
  3  4  2  0
  4  5  1  0
  5  6  2  0
  6  7  1  0
  7  8  2  0
  7  9  1  0
  9 10  1  0
 10 11  2  0
 11 12  1  0
 12 13  1  0
 13 14  1  0
 14 15  2  0
 15 16  1  0
 16 17  2  0
 17 18  1  0
 18 19  2  0
 13 20  2  0
  6 21  1  0
 21 22  2  0
 22  3  1  0
 20 10  1  0
 19 14  1  0
  1 23  1  0
  1 24  1  0
  1 25  1  0
  4 26  1  0
  5 27  1  0
  9 28  1  0
 11 29  1  0
 15 30  1  0
 16 31  1  0
 17 32  1  0
 18 33  1  0
 19 34  1  0
 21 35  1  0
 22 36  1  0
M  END
>  <UniqueID>  (38) 
32

>  <SMILES>  (38) 
COc1ccc(C(=O)Nc2coc(-c3ccccc3)n2)cc1

>  <Energy>  (38) 
70.79224128296616

>  <Genealogy>  (38) 
COc1ccc(C(=O)Nc2coc(-c3ccccc3)n2)cc1 (3D coordinates assigned)
COc1ccc(C(=O)Nc2coc(-c3ccccc3)n2)cc1 (optimized conformer: 70.79224128296616 kcal/mol)

>  <smiles>  (38) 
COc1ccc(C(=O)Nc2coc(-c3ccccc3)n2)cc1

>  <score_type>  (38) 
oracle

>  <origin>  (38) 
adgpu

>  <m_score__min__energy>  (38) 
-7.3899999999999997

>  <m_primary>  (38) 
energy

$$$$
38:0
     RDKit          3D

 49 52  0  0  0  0  0  0  0  0999 V2000
   -2.5186   22.5267  -27.6980 H   0  0  0  0  0  0  0  0  0  0  0  0
   -2.7920   22.3640  -28.7510 C   0  0  0  0  0  0  0  0  0  0  0  0
   -3.0630   21.0730  -29.2100 C   0  0  0  0  0  0  0  0  0  0  0  0
   -2.9941   20.2189  -28.5202 H   0  0  0  0  0  0  0  0  0  0  0  0
   -3.4220   20.8650  -30.5460 C   0  0  0  0  0  0  0  0  0  0  0  0
   -3.6291   19.8463  -30.9057 H   0  0  0  0  0  0  0  0  0  0  0  0
   -3.5190   21.9530  -31.4300 C   0  0  0  0  0  0  0  0  0  0  0  0
   -3.8690   21.7270  -32.8740 C   0  0  0  0  0  0  0  0  0  0  0  0
   -4.1775   22.6803  -33.3280 H   0  0  0  0  0  0  0  0  0  0  0  0
   -4.6928   21.0009  -32.9374 H   0  0  0  0  0  0  0  0  0  0  0  0
   -2.7090   21.2020  -33.5910 N   0  0  0  0  0  0  0  0  0  0  0  0
   -2.2250   21.8630  -34.2390 H   0  0  0  0  0  0  0  0  0  0  0  0
   -1.9270   20.1200  -33.0620 C   0  0  0  0  0  0  0  0  0  0  0  0
   -0.5650   20.3700  -32.7070 N   0  0  0  0  0  0  0  0  0  0  0  0
    0.0420   19.6110  -32.3250 H   0  0  0  0  0  0  0  0  0  0  0  0
   -0.1550   21.3210  -32.8360 H   0  0  0  0  0  0  0  0  0  0  0  0
   -2.4330   18.9280  -32.8810 N   0  0  0  0  0  0  0  0  0  0  0  0
   -1.8520   18.2080  -32.3930 H   0  0  0  0  0  0  0  0  0  0  0  0
   -3.7460   18.5170  -33.3030 C   0  0  0  0  0  0  0  0  0  0  0  0
   -3.9810   18.0410  -34.6040 C   0  0  0  0  0  0  0  0  0  0  0  0
   -3.1539   17.9924  -35.3276 H   0  0  0  0  0  0  0  0  0  0  0  0
   -5.2620   17.6290  -34.9820 C   0  0  0  0  0  0  0  0  0  0  0  0
   -5.4426   17.2677  -36.0051 H   0  0  0  0  0  0  0  0  0  0  0  0
   -6.3130   17.6750  -34.0640 C   0  0  0  0  0  0  0  0  0  0  0  0
   -7.3203   17.3548  -34.3686 H   0  0  0  0  0  0  0  0  0  0  0  0
   -6.0900   18.1280  -32.7540 C   0  0  0  0  0  0  0  0  0  0  0  0
   -7.2130   18.1290  -31.7540 C   0  0  0  0  0  0  0  0  0  0  0  0
   -7.7914   17.1989  -31.8559 H   0  0  0  0  0  0  0  0  0  0  0  0
   -6.7917   18.1993  -30.7403 H   0  0  0  0  0  0  0  0  0  0  0  0
   -8.1150   19.3020  -31.9920 C   0  0  0  0  0  0  0  0  0  0  0  0
   -7.8280   20.6340  -31.7900 C   0  0  0  0  0  0  0  0  0  0  0  0
   -6.6730   21.3070  -31.3950 C   0  0  0  0  0  0  0  0  0  0  0  0
   -5.7403   20.7641  -31.1821 H   0  0  0  0  0  0  0  0  0  0  0  0
   -6.7460   22.7080  -31.2790 C   0  0  0  0  0  0  0  0  0  0  0  0
   -5.8566   23.2768  -30.9703 H   0  0  0  0  0  0  0  0  0  0  0  0
   -7.9530   23.3900  -31.5560 C   0  0  0  0  0  0  0  0  0  0  0  0
   -7.9953   24.4852  -31.4624 H   0  0  0  0  0  0  0  0  0  0  0  0
   -9.1020   22.6770  -31.9510 C   0  0  0  0  0  0  0  0  0  0  0  0
  -10.0477   23.1955  -32.1673 H   0  0  0  0  0  0  0  0  0  0  0  0
   -8.9980   21.2920  -32.0580 C   0  0  0  0  0  0  0  0  0  0  0  0
   -9.9660   20.4190  -32.3950 N   0  0  0  0  0  0  0  0  0  0  0  0
   -9.4170   19.2090  -32.3470 N   0  0  0  0  0  0  0  0  0  0  0  0
   -9.9370   18.3260  -32.5450 H   0  0  0  0  0  0  0  0  0  0  0  0
   -4.7980   18.5320  -32.3760 C   0  0  0  0  0  0  0  0  0  0  0  0
   -4.6104   18.8629  -31.3439 H   0  0  0  0  0  0  0  0  0  0  0  0
   -3.2240   23.2460  -30.9660 C   0  0  0  0  0  0  0  0  0  0  0  0
   -3.2732   24.1007  -31.6567 H   0  0  0  0  0  0  0  0  0  0  0  0
   -2.8680   23.4500  -29.6290 C   0  0  0  0  0  0  0  0  0  0  0  0
   -2.6476   24.4653  -29.2677 H   0  0  0  0  0  0  0  0  0  0  0  0
  1  2  1  0
  2  3  2  0
  3  4  1  0
  3  5  1  0
  5  6  1  0
  5  7  2  0
  7  8  1  0
  8  9  1  0
  8 10  1  0
  8 11  1  0
 11 12  1  0
 11 13  1  0
 13 14  1  0
 14 15  1  0
 14 16  1  0
 13 17  2  0
 17 18  1  0
 17 19  1  0
 19 20  2  0
 20 21  1  0
 20 22  1  0
 22 23  1  0
 22 24  2  0
 24 25  1  0
 24 26  1  0
 26 27  1  0
 27 28  1  0
 27 29  1  0
 27 30  1  0
 30 31  2  0
 31 32  1  0
 32 33  1  0
 32 34  2  0
 34 35  1  0
 34 36  1  0
 36 37  1  0
 36 38  2  0
 38 39  1  0
 38 40  1  0
 40 41  2  0
 41 42  1  0
 42 43  1  0
 26 44  2  0
 44 45  1  0
  7 46  1  0
 46 47  1  0
 46 48  2  0
 48 49  1  0
 48  2  1  0
 44 19  1  0
 42 30  1  0
 40 31  1  0
M  CHG  1  17   1
M  END
>  <UniqueID>  (39) 
33

>  <SMILES>  (39) 
N/C(NCc1ccccc1)=[NH+]/c1cccc(Cc2[nH]nc3ccccc23)c1

>  <Energy>  (39) 
95.91023091608363

>  <Genealogy>  (39) 
NC(NCc1ccccc1)=[NH+]c1cccc(Cc2[nH]nc3ccccc23)c1 (protonated)
N/C(NCc1ccccc1)=[NH+]/c1cccc(Cc2[nH]nc3ccccc23)c1 (cis-trans isomerization)
N/C(NCc1ccccc1)=[NH+]/c1cccc(Cc2[nH]nc3ccccc23)c1 (3D coordinates assigned)
N/C(NCc1ccccc1)=[NH+]/c1cccc(Cc2[nH]nc3ccccc23)c1 (optimized conformer: 95.91023091608363 kcal/mol)

>  <smiles>  (39) 
NC(=Nc1cccc(Cc2[nH]nc3ccccc23)c1)NCc1ccccc1

>  <score_type>  (39) 
oracle

>  <origin>  (39) 
adgpu

>  <m_score__min__energy>  (39) 
-9.2300000000000004

>  <m_primary>  (39) 
energy

$$$$
39:0
     RDKit          3D

 50 53  0  0  0  0  0  0  0  0999 V2000
   -5.5510   26.1380  -30.6250 O   0  0  0  0  0  0  0  0  0  0  0  0
   -4.9660   25.0250  -30.6850 C   0  0  0  0  0  0  0  0  0  0  0  0
   -3.5500   24.9690  -30.4680 N   0  0  0  0  0  0  0  0  0  0  0  0
   -2.9530   24.5400  -29.2380 C   0  0  0  0  0  0  0  0  0  0  0  0
   -3.3760   23.3590  -28.6060 C   0  0  0  0  0  0  0  0  0  0  0  0
   -2.7500   22.9290  -27.4330 C   0  0  0  0  0  0  0  0  0  0  0  0
   -1.6890   23.6610  -26.8980 C   0  0  0  0  0  0  0  0  0  0  0  0
   -1.2480   24.8320  -27.5300 C   0  0  0  0  0  0  0  0  0  0  0  0
    0.1600   25.7000  -26.9140 S   0  0  0  0  0  0  0  0  0  0  0  0
    1.4090   25.0140  -27.3920 O   0  0  0  0  0  0  0  0  0  0  0  0
    0.1540   27.0990  -27.4660 O   0  0  0  0  0  0  0  0  0  0  0  0
    0.1810   25.7720  -25.1670 N   0  0  0  0  0  0  0  0  0  0  0  0
   -1.1090   26.1740  -24.6050 C   0  0  0  0  0  0  0  0  0  0  0  0
   -0.8150   26.7980  -23.2470 C   0  0  0  0  0  0  0  0  0  0  0  0
    0.6590   27.1750  -23.2840 C   0  0  0  0  0  0  0  0  0  0  0  0
    1.1530   26.7430  -24.6580 C   0  0  0  0  0  0  0  0  0  0  0  0
   -1.9100   25.2870  -28.6810 C   0  0  0  0  0  0  0  0  0  0  0  0
   -5.7390   23.8050  -31.0110 C   0  0  0  0  0  0  0  0  0  0  0  0
   -6.9590   23.5420  -30.3680 C   0  0  0  0  0  0  0  0  0  0  0  0
   -7.6640   22.3680  -30.6510 C   0  0  0  0  0  0  0  0  0  0  0  0
   -7.1610   21.4510  -31.5790 C   0  0  0  0  0  0  0  0  0  0  0  0
   -5.9470   21.7090  -32.2370 C   0  0  0  0  0  0  0  0  0  0  0  0
   -5.4260   20.8300  -33.1940 O   0  0  0  0  0  0  0  0  0  0  0  0
   -5.7050   19.4580  -33.2700 C   0  0  0  0  0  0  0  0  0  0  0  0
   -5.7890   18.7110  -32.0940 C   0  0  0  0  0  0  0  0  0  0  0  0
   -6.0890   17.3870  -32.1470 N   0  0  0  0  0  0  0  0  0  0  0  0
   -6.3190   16.7710  -33.3350 C   0  0  0  0  0  0  0  0  0  0  0  0
   -6.2590   17.4800  -34.4920 N   0  0  0  0  0  0  0  0  0  0  0  0
   -5.9600   18.8050  -34.4850 C   0  0  0  0  0  0  0  0  0  0  0  0
   -5.2560   22.8930  -31.9670 C   0  0  0  0  0  0  0  0  0  0  0  0
   -4.2013   22.7718  -29.0351 H   0  0  0  0  0  0  0  0  0  0  0  0
   -3.0938   22.0127  -26.9308 H   0  0  0  0  0  0  0  0  0  0  0  0
   -1.1966   23.3175  -25.9763 H   0  0  0  0  0  0  0  0  0  0  0  0
    0.4300   24.8210  -24.8030 H   0  0  0  0  0  0  0  0  0  0  0  0
   -1.5975   26.9082  -25.2625 H   0  0  0  0  0  0  0  0  0  0  0  0
   -1.7859   25.3124  -24.5081 H   0  0  0  0  0  0  0  0  0  0  0  0
   -1.4368   27.6920  -23.0919 H   0  0  0  0  0  0  0  0  0  0  0  0
   -1.0388   26.1053  -22.4223 H   0  0  0  0  0  0  0  0  0  0  0  0
    0.7819   28.2604  -23.1547 H   0  0  0  0  0  0  0  0  0  0  0  0
    1.2254   26.6906  -22.4749 H   0  0  0  0  0  0  0  0  0  0  0  0
    1.2099   27.6113  -25.3310 H   0  0  0  0  0  0  0  0  0  0  0  0
    2.1589   26.3021  -24.5969 H   0  0  0  0  0  0  0  0  0  0  0  0
   -1.6069   26.2360  -29.1474 H   0  0  0  0  0  0  0  0  0  0  0  0
   -7.3614   24.2614  -29.6396 H   0  0  0  0  0  0  0  0  0  0  0  0
   -8.6177   22.1652  -30.1417 H   0  0  0  0  0  0  0  0  0  0  0  0
   -7.7167   20.5263  -31.7941 H   0  0  0  0  0  0  0  0  0  0  0  0
   -5.6120   19.1952  -31.1223 H   0  0  0  0  0  0  0  0  0  0  0  0
   -6.5541   15.6967  -33.3605 H   0  0  0  0  0  0  0  0  0  0  0  0
   -5.9179   19.3651  -35.4308 H   0  0  0  0  0  0  0  0  0  0  0  0
   -4.3241   23.1144  -32.5079 H   0  0  0  0  0  0  0  0  0  0  0  0
  1  2  2  0
  2  3  1  0
  3  4  1  0
  4  5  2  0
  5  6  1  0
  6  7  2  0
  7  8  1  0
  8  9  1  0
  9 10  2  0
  9 11  2  0
  9 12  1  0
 12 13  1  0
 13 14  1  0
 14 15  1  0
 15 16  1  0
  8 17  2  0
  2 18  1  0
 18 19  2  0
 19 20  1  0
 20 21  2  0
 21 22  1  0
 22 23  1  0
 23 24  1  0
 24 25  2  0
 25 26  1  0
 26 27  2  0
 27 28  1  0
 28 29  2  0
 22 30  2  0
 17  4  1  0
 30 18  1  0
 16 12  1  0
 29 24  1  0
  5 31  1  0
  6 32  1  0
  7 33  1  0
 12 34  1  0
 13 35  1  0
 13 36  1  0
 14 37  1  0
 14 38  1  0
 15 39  1  0
 15 40  1  0
 16 41  1  0
 16 42  1  0
 17 43  1  0
 19 44  1  0
 20 45  1  0
 21 46  1  0
 25 47  1  0
 27 48  1  0
 29 49  1  0
 30 50  1  0
M  CHG  2   3  -1  12   1
M  END
>  <UniqueID>  (40) 
34

>  <SMILES>  (40) 
O=C([N-]c1cccc(S(=O)(=O)[NH+]2CCCC2)c1)c1cccc(Oc2cncnc2)c1

>  <Energy>  (40) 
67.08402002241989

>  <Genealogy>  (40) 
O=C([N-]c1cccc(S(=O)(=O)[NH+]2CCCC2)c1)c1cccc(Oc2cncnc2)c1 (protonated)
O=C([N-]c1cccc(S(=O)(=O)[NH+]2CCCC2)c1)c1cccc(Oc2cncnc2)c1 (3D coordinates assigned)
O=C([N-]c1cccc(S(=O)(=O)[NH+]2CCCC2)c1)c1cccc(Oc2cncnc2)c1 (nonaromatic ring conformer: 67.08402002241989 kcal/mol)

>  <smiles>  (40) 
O=C(Nc1cccc(S(=O)(=O)N2CCCC2)c1)c1cccc(Oc2cncnc2)c1

>  <score_type>  (40) 
oracle

>  <origin>  (40) 
adgpu

>  <m_score__min__energy>  (40) 
-11.039999999999999

>  <m_primary>  (40) 
energy

$$$$
40:0
     RDKit          3D

 59 62  0  0  0  0  0  0  0  0999 V2000
   -1.2050   19.7980  -33.1440 C   0  0  0  0  0  0  0  0  0  0  0  0
   -1.9400   18.5210  -33.1390 N   0  0  0  0  0  0  0  0  0  0  0  0
   -2.9180   18.4710  -34.2590 C   0  0  0  0  0  0  0  0  0  0  0  0
   -3.0140   17.0980  -34.9490 C   0  0  0  0  0  0  0  0  0  0  0  0
   -2.8530   16.0170  -33.9710 N   0  0  0  0  0  0  0  0  0  0  0  0
   -3.6770   14.8430  -34.0440 C   0  0  0  0  0  0  0  0  0  0  0  0
   -3.1710   13.6830  -34.6500 C   0  0  0  0  0  0  0  0  0  0  0  0
   -3.9410   12.5190  -34.7040 C   0  0  0  0  0  0  0  0  0  0  0  0
   -5.2250   12.5040  -34.1570 C   0  0  0  0  0  0  0  0  0  0  0  0
   -5.7440   13.6530  -33.5550 C   0  0  0  0  0  0  0  0  0  0  0  0
   -4.9760   14.8300  -33.4880 C   0  0  0  0  0  0  0  0  0  0  0  0
   -5.5400   16.0290  -32.9330 N   0  0  0  0  0  0  0  0  0  0  0  0
   -6.1480   17.0530  -33.7370 C   0  0  0  0  0  0  0  0  0  0  0  0
   -6.4200   16.8200  -34.9470 O   0  0  0  0  0  0  0  0  0  0  0  0
   -6.5050   18.3680  -33.1520 C   0  0  0  0  0  0  0  0  0  0  0  0
   -5.9250   19.5570  -33.6330 C   0  0  0  0  0  0  0  0  0  0  0  0
   -6.2700   20.7910  -33.0720 C   0  0  0  0  0  0  0  0  0  0  0  0
   -7.1990   20.8580  -32.0290 C   0  0  0  0  0  0  0  0  0  0  0  0
   -7.6130   22.4230  -31.3340 S   0  0  0  0  0  0  0  0  0  0  0  0
   -7.9090   23.3850  -32.4540 O   0  0  0  0  0  0  0  0  0  0  0  0
   -8.8350   22.2990  -30.4620 O   0  0  0  0  0  0  0  0  0  0  0  0
   -6.2650   23.0080  -30.3850 N   0  0  0  0  0  0  0  0  0  0  0  0
   -6.4610   24.4240  -29.9960 C   0  0  0  0  0  0  0  0  0  0  0  0
   -5.6030   25.3800  -30.8430 C   0  0  0  0  0  0  0  0  0  0  0  0
   -4.2110   25.1110  -30.7610 O   0  0  0  0  0  0  0  0  0  0  0  0
   -3.9010   23.7270  -30.6060 C   0  0  0  0  0  0  0  0  0  0  0  0
   -5.0010   22.7780  -31.1130 C   0  0  0  0  0  0  0  0  0  0  0  0
   -7.7890   19.6800  -31.5520 C   0  0  0  0  0  0  0  0  0  0  0  0
   -7.4480   18.4460  -32.1110 C   0  0  0  0  0  0  0  0  0  0  0  0
   -1.7700   16.0750  -32.9850 C   0  0  0  0  0  0  0  0  0  0  0  0
   -0.9960   17.3880  -33.1170 C   0  0  0  0  0  0  0  0  0  0  0  0
   -1.0203   20.1188  -32.1082 H   0  0  0  0  0  0  0  0  0  0  0  0
   -0.2446   19.6662  -33.6638 H   0  0  0  0  0  0  0  0  0  0  0  0
   -1.8014   20.5623  -33.6638 H   0  0  0  0  0  0  0  0  0  0  0  0
   -3.9111   18.7283  -33.8621 H   0  0  0  0  0  0  0  0  0  0  0  0
   -2.5664   19.1841  -35.0192 H   0  0  0  0  0  0  0  0  0  0  0  0
   -3.9974   17.0044  -35.4328 H   0  0  0  0  0  0  0  0  0  0  0  0
   -2.2126   17.0207  -35.6985 H   0  0  0  0  0  0  0  0  0  0  0  0
   -2.1609   13.6904  -35.0855 H   0  0  0  0  0  0  0  0  0  0  0  0
   -3.5351   11.6132  -35.1781 H   0  0  0  0  0  0  0  0  0  0  0  0
   -5.8294   11.5859  -34.2000 H   0  0  0  0  0  0  0  0  0  0  0  0
   -6.7589   13.6374  -33.1310 H   0  0  0  0  0  0  0  0  0  0  0  0
   -5.6220   16.0960  -31.8940 H   0  0  0  0  0  0  0  0  0  0  0  0
   -5.1957   19.5154  -34.4554 H   0  0  0  0  0  0  0  0  0  0  0  0
   -5.8081   21.7136  -33.4533 H   0  0  0  0  0  0  0  0  0  0  0  0
   -7.5210   24.6854  -30.1301 H   0  0  0  0  0  0  0  0  0  0  0  0
   -6.1534   24.5328  -28.9455 H   0  0  0  0  0  0  0  0  0  0  0  0
   -5.9143   25.2894  -31.8941 H   0  0  0  0  0  0  0  0  0  0  0  0
   -5.7615   26.3945  -30.4485 H   0  0  0  0  0  0  0  0  0  0  0  0
   -2.9771   23.5150  -31.1642 H   0  0  0  0  0  0  0  0  0  0  0  0
   -3.7956   23.5437  -29.5265 H   0  0  0  0  0  0  0  0  0  0  0  0
   -5.1649   22.9557  -32.1861 H   0  0  0  0  0  0  0  0  0  0  0  0
   -4.6787   21.7401  -30.9429 H   0  0  0  0  0  0  0  0  0  0  0  0
   -8.5234   19.7271  -30.7344 H   0  0  0  0  0  0  0  0  0  0  0  0
   -7.9210   17.5273  -31.7339 H   0  0  0  0  0  0  0  0  0  0  0  0
   -2.1970   16.0065  -31.9736 H   0  0  0  0  0  0  0  0  0  0  0  0
   -1.0811   15.2361  -33.1630 H   0  0  0  0  0  0  0  0  0  0  0  0
   -0.3131   17.4975  -32.2617 H   0  0  0  0  0  0  0  0  0  0  0  0
   -0.4174   17.3775  -34.0525 H   0  0  0  0  0  0  0  0  0  0  0  0
  1  2  1  0
  2  3  1  0
  3  4  1  0
  4  5  1  0
  5  6  1  0
  6  7  2  0
  7  8  1  0
  8  9  2  0
  9 10  1  0
 10 11  2  0
 11 12  1  0
 12 13  1  0
 13 14  2  0
 13 15  1  0
 15 16  2  0
 16 17  1  0
 17 18  2  0
 18 19  1  0
 19 20  2  0
 19 21  2  0
 19 22  1  0
 22 23  1  0
 23 24  1  0
 24 25  1  0
 25 26  1  0
 26 27  1  0
 18 28  1  0
 28 29  2  0
  5 30  1  0
 30 31  1  0
 31  2  1  0
 11  6  1  0
 29 15  1  0
 27 22  1  0
  1 32  1  0
  1 33  1  0
  1 34  1  0
  3 35  1  0
  3 36  1  0
  4 37  1  0
  4 38  1  0
  7 39  1  0
  8 40  1  0
  9 41  1  0
 10 42  1  0
 12 43  1  0
 16 44  1  0
 17 45  1  0
 23 46  1  0
 23 47  1  0
 24 48  1  0
 24 49  1  0
 26 50  1  0
 26 51  1  0
 27 52  1  0
 27 53  1  0
 28 54  1  0
 29 55  1  0
 30 56  1  0
 30 57  1  0
 31 58  1  0
 31 59  1  0
M  END
>  <UniqueID>  (41) 
35

>  <SMILES>  (41) 
CN1CCN(c2ccccc2NC(=O)c2ccc(S(=O)(=O)N3CCOCC3)cc2)CC1

>  <Energy>  (41) 
89.43928790484384

>  <Genealogy>  (41) 
CN1CCN(c2ccccc2NC(=O)c2ccc(S(=O)(=O)N3CCOCC3)cc2)CC1 (3D coordinates assigned)
CN1CCN(c2ccccc2NC(=O)c2ccc(S(=O)(=O)N3CCOCC3)cc2)CC1 (nonaromatic ring conformer: 89.43928790484384 kcal/mol)

>  <smiles>  (41) 
CN1CCN(c2ccccc2NC(=O)c2ccc(S(=O)(=O)N3CCOCC3)cc2)CC1

>  <score_type>  (41) 
oracle

>  <origin>  (41) 
adgpu

>  <m_score__min__energy>  (41) 
-9.9000000000000004

>  <m_primary>  (41) 
energy

$$$$
41:0
     RDKit          3D

 43 46  0  0  0  0  0  0  0  0999 V2000
    0.1990   17.2790  -27.9520 C   0  0  0  0  0  0  0  0  0  0  0  0
   -0.2320   18.6880  -28.2310 C   0  0  0  0  0  0  0  0  0  0  0  0
   -1.2720   19.2690  -27.4900 C   0  0  0  0  0  0  0  0  0  0  0  0
   -1.6980   20.5690  -27.7730 C   0  0  0  0  0  0  0  0  0  0  0  0
   -1.1010   21.3010  -28.8110 C   0  0  0  0  0  0  0  0  0  0  0  0
   -1.5410   22.6850  -29.1000 C   0  0  0  0  0  0  0  0  0  0  0  0
   -0.9250   23.8480  -28.6350 C   0  0  0  0  0  0  0  0  0  0  0  0
    0.2150   23.9440  -27.7000 C   0  0  0  0  0  0  0  0  0  0  0  0
    1.3590   24.2200  -28.1480 O   0  0  0  0  0  0  0  0  0  0  0  0
    0.0400   23.7390  -26.2520 C   0  0  0  0  0  0  0  0  0  0  0  0
   -0.5230   24.6440  -25.3720 C   0  0  0  0  0  0  0  0  0  0  0  0
   -0.4970   24.0300  -24.1390 C   0  0  0  0  0  0  0  0  0  0  0  0
    0.0740   22.7900  -24.3410 C   0  0  0  0  0  0  0  0  0  0  0  0
    0.3810   22.6460  -25.6090 O   0  0  0  0  0  0  0  0  0  0  0  0
   -1.6780   24.8950  -29.1340 C   0  0  0  0  0  0  0  0  0  0  0  0
   -1.4830   26.2500  -28.8950 O   0  0  0  0  0  0  0  0  0  0  0  0
   -2.6900   24.3520  -29.8870 C   0  0  0  0  0  0  0  0  0  0  0  0
   -3.6390   25.0930  -30.5900 O   0  0  0  0  0  0  0  0  0  0  0  0
   -2.6170   23.0040  -29.8660 N   0  0  0  0  0  0  0  0  0  0  0  0
   -3.4790   22.0910  -30.5670 C   0  0  0  0  0  0  0  0  0  0  0  0
   -4.8700   22.2760  -30.5490 C   0  0  0  0  0  0  0  0  0  0  0  0
   -5.7060   21.4050  -31.2530 C   0  0  0  0  0  0  0  0  0  0  0  0
   -5.1580   20.3430  -31.9810 C   0  0  0  0  0  0  0  0  0  0  0  0
   -6.2060   19.2520  -32.8670 Cl  0  0  0  0  0  0  0  0  0  0  0  0
   -3.7710   20.1560  -32.0050 C   0  0  0  0  0  0  0  0  0  0  0  0
   -2.9340   21.0270  -31.3020 C   0  0  0  0  0  0  0  0  0  0  0  0
   -0.0740   20.7120  -29.5660 C   0  0  0  0  0  0  0  0  0  0  0  0
    0.3530   19.4110  -29.2810 C   0  0  0  0  0  0  0  0  0  0  0  0
    0.2479   17.1190  -26.8648 H   0  0  0  0  0  0  0  0  0  0  0  0
   -0.5263   16.5795  -28.3933 H   0  0  0  0  0  0  0  0  0  0  0  0
    1.1915   17.1050  -28.3933 H   0  0  0  0  0  0  0  0  0  0  0  0
   -1.7541   18.6984  -26.6826 H   0  0  0  0  0  0  0  0  0  0  0  0
   -2.5058   21.0214  -27.1790 H   0  0  0  0  0  0  0  0  0  0  0  0
   -0.9111   25.6460  -25.6072 H   0  0  0  0  0  0  0  0  0  0  0  0
   -0.8583   24.4443  -23.1862 H   0  0  0  0  0  0  0  0  0  0  0  0
    0.2458   22.0366  -23.5581 H   0  0  0  0  0  0  0  0  0  0  0  0
   -3.4800   26.0600  -30.8440 H   0  0  0  0  0  0  0  0  0  0  0  0
   -5.3042   23.1102  -29.9783 H   0  0  0  0  0  0  0  0  0  0  0  0
   -6.7957   21.5544  -31.2348 H   0  0  0  0  0  0  0  0  0  0  0  0
   -3.3391   19.3223  -32.5780 H   0  0  0  0  0  0  0  0  0  0  0  0
   -1.8444   20.8780  -31.3249 H   0  0  0  0  0  0  0  0  0  0  0  0
    0.3966   21.2760  -30.3848 H   0  0  0  0  0  0  0  0  0  0  0  0
    1.1513   18.9526  -29.8831 H   0  0  0  0  0  0  0  0  0  0  0  0
  1  2  1  0
  2  3  2  0
  3  4  1  0
  4  5  2  0
  5  6  1  0
  6  7  2  0
  7  8  1  0
  8  9  2  0
  8 10  1  0
 10 11  2  0
 11 12  1  0
 12 13  2  0
 13 14  1  0
  7 15  1  0
 15 16  1  0
 15 17  2  0
 17 18  1  0
 17 19  1  0
 19 20  1  0
 20 21  2  0
 21 22  1  0
 22 23  2  0
 23 24  1  0
 23 25  1  0
 25 26  2  0
  5 27  1  0
 27 28  2  0
 28  2  1  0
 19  6  1  0
 26 20  1  0
 14 10  1  0
  1 29  1  0
  1 30  1  0
  1 31  1  0
  3 32  1  0
  4 33  1  0
 11 34  1  0
 12 35  1  0
 13 36  1  0
 18 37  1  0
 21 38  1  0
 22 39  1  0
 25 40  1  0
 26 41  1  0
 27 42  1  0
 28 43  1  0
M  CHG  1  16  -1
M  END
>  <UniqueID>  (42) 
36

>  <SMILES>  (42) 
Cc1ccc(-c2c(C(=O)c3ccco3)c([O-])c(O)n2-c2ccc(Cl)cc2)cc1

>  <Energy>  (42) 
115.0359417310527

>  <Genealogy>  (42) 
Cc1ccc(-c2c(C(=O)c3ccco3)c([O-])c(O)n2-c2ccc(Cl)cc2)cc1 (protonated)
Cc1ccc(-c2c(C(=O)c3ccco3)c([O-])c(O)n2-c2ccc(Cl)cc2)cc1 (3D coordinates assigned)
Cc1ccc(-c2c(C(=O)c3ccco3)c([O-])c(O)n2-c2ccc(Cl)cc2)cc1 (optimized conformer: 115.0359417310527 kcal/mol)

>  <smiles>  (42) 
Cc1ccc(-c2c(C(=O)c3ccco3)c(O)c(O)n2-c2ccc(Cl)cc2)cc1

>  <score_type>  (42) 
oracle

>  <origin>  (42) 
adgpu

>  <m_score__min__energy>  (42) 
-11.609999999999999

>  <m_primary>  (42) 
energy

$$$$
42:0
     RDKit          3D

 21 22  0  0  0  0  0  0  0  0999 V2000
   -4.2380   25.6730  -30.4850 O   0  0  0  0  0  0  0  0  0  0  0  0
   -4.9780   24.6950  -30.7710 C   0  0  0  0  0  0  0  0  0  0  0  0
   -4.5270   23.7270  -31.6030 N   0  0  0  0  0  0  0  0  0  0  0  0
   -5.3060   22.6640  -31.9240 C   0  0  0  0  0  0  0  0  0  0  0  0
   -4.8630   21.7940  -32.7200 O   0  0  0  0  0  0  0  0  0  0  0  0
   -6.5680   22.5610  -31.3940 N   0  0  0  0  0  0  0  0  0  0  0  0
   -7.4180   21.4410  -31.7130 C   0  0  0  0  0  0  0  0  0  0  0  0
   -8.7730   21.6510  -32.0230 C   0  0  0  0  0  0  0  0  0  0  0  0
   -9.6050   20.5680  -32.3180 C   0  0  0  0  0  0  0  0  0  0  0  0
   -9.0950   19.2660  -32.3000 C   0  0  0  0  0  0  0  0  0  0  0  0
   -7.7520   19.0470  -31.9830 C   0  0  0  0  0  0  0  0  0  0  0  0
   -7.2600   17.7830  -31.9580 F   0  0  0  0  0  0  0  0  0  0  0  0
   -6.9160   20.1280  -31.6880 C   0  0  0  0  0  0  0  0  0  0  0  0
   -7.0290   23.5190  -30.5780 N   0  0  0  0  0  0  0  0  0  0  0  0
   -6.2650   24.5930  -30.2440 C   0  0  0  0  0  0  0  0  0  0  0  0
   -6.7160   25.4780  -29.4680 O   0  0  0  0  0  0  0  0  0  0  0  0
   -9.1802   22.6728  -32.0334 H   0  0  0  0  0  0  0  0  0  0  0  0
  -10.6631   20.7398  -32.5649 H   0  0  0  0  0  0  0  0  0  0  0  0
   -9.7508   18.4148  -32.5353 H   0  0  0  0  0  0  0  0  0  0  0  0
   -5.8603   19.9504  -31.4351 H   0  0  0  0  0  0  0  0  0  0  0  0
   -7.9890   23.4420  -30.1690 H   0  0  0  0  0  0  0  0  0  0  0  0
  1  2  2  0
  2  3  1  0
  3  4  1  0
  4  5  2  0
  4  6  1  0
  6  7  1  0
  7  8  2  0
  8  9  1  0
  9 10  2  0
 10 11  1  0
 11 12  1  0
 11 13  2  0
  6 14  1  0
 14 15  1  0
 15 16  2  0
 15  2  1  0
 13  7  1  0
  8 17  1  0
  9 18  1  0
 10 19  1  0
 13 20  1  0
 14 21  1  0
M  CHG  1   3  -1
M  END
>  <UniqueID>  (43) 
37

>  <SMILES>  (43) 
O=c1[n-]c(=O)n(-c2cccc(F)c2)[nH]c1=O

>  <Energy>  (43) 
31.758056417519597

>  <Genealogy>  (43) 
O=c1[n-]c(=O)n(-c2cccc(F)c2)[nH]c1=O (protonated)
O=c1[n-]c(=O)n(-c2cccc(F)c2)[nH]c1=O (3D coordinates assigned)
O=c1[n-]c(=O)n(-c2cccc(F)c2)[nH]c1=O (optimized conformer: 31.758056417519597 kcal/mol)

>  <smiles>  (43) 
O=c1[nH]c(=O)n(-c2cccc(F)c2)[nH]c1=O

>  <score_type>  (43) 
oracle

>  <origin>  (43) 
adgpu

>  <m_score__min__energy>  (43) 
-7.0999999999999996

>  <m_primary>  (43) 
energy

$$$$
43:0
     RDKit          3D

 50 53  0  0  0  0  0  0  0  0999 V2000
    1.6160   18.2472  -30.5328 H   0  0  0  0  0  0  0  0  0  0  0  0
    0.9390   18.7040  -29.7960 C   0  0  0  0  0  0  0  0  0  0  0  0
    0.0260   17.9100  -29.1020 C   0  0  0  0  0  0  0  0  0  0  0  0
   -0.0227   16.8290  -29.2999 H   0  0  0  0  0  0  0  0  0  0  0  0
   -0.8260   18.4840  -28.1570 C   0  0  0  0  0  0  0  0  0  0  0  0
   -1.5407   17.8518  -27.6097 H   0  0  0  0  0  0  0  0  0  0  0  0
   -0.7760   19.8640  -27.9010 C   0  0  0  0  0  0  0  0  0  0  0  0
   -1.8750   20.5710  -26.7110 S   0  0  0  0  0  0  0  0  0  0  0  0
   -2.8820   21.4420  -27.4080 O   0  0  0  0  0  0  0  0  0  0  0  0
   -1.1090   21.4140  -25.7300 O   0  0  0  0  0  0  0  0  0  0  0  0
   -2.7110   19.2740  -25.8260 C   0  0  0  0  0  0  0  0  0  0  0  0
   -2.6038   19.4403  -24.7439 H   0  0  0  0  0  0  0  0  0  0  0  0
   -3.7780   19.2764  -26.0934 H   0  0  0  0  0  0  0  0  0  0  0  0
   -2.2682   18.3032  -26.0934 H   0  0  0  0  0  0  0  0  0  0  0  0
    0.1230   20.6750  -28.6250 C   0  0  0  0  0  0  0  0  0  0  0  0
    0.1900   22.0850  -28.3460 N   0  0  0  0  0  0  0  0  0  0  0  0
   -0.6600   22.9920  -28.7290 C   0  0  0  0  0  0  0  0  0  0  0  0
   -0.4300   24.2890  -28.4150 N   0  0  0  0  0  0  0  0  0  0  0  0
   -1.3150   25.2540  -28.7770 C   0  0  0  0  0  0  0  0  0  0  0  0
   -1.0780   26.5950  -28.4610 O   0  0  0  0  0  0  0  0  0  0  0  0
   -0.5440   27.0090  -27.2090 C   0  0  0  0  0  0  0  0  0  0  0  0
   -1.1277   26.5565  -26.3938 H   0  0  0  0  0  0  0  0  0  0  0  0
    0.5046   26.6855  -27.1326 H   0  0  0  0  0  0  0  0  0  0  0  0
   -0.5960   28.1051  -27.1326 H   0  0  0  0  0  0  0  0  0  0  0  0
   -2.4450   24.9150  -29.4530 N   0  0  0  0  0  0  0  0  0  0  0  0
   -3.1010   25.6780  -29.7250 H   0  0  0  0  0  0  0  0  0  0  0  0
   -2.6930   23.6060  -29.7600 C   0  0  0  0  0  0  0  0  0  0  0  0
   -3.7710   23.2350  -30.3920 N   0  0  0  0  0  0  0  0  0  0  0  0
   -4.8670   24.0960  -30.8400 C   0  0  0  0  0  0  0  0  0  0  0  0
   -5.1699   24.7535  -30.0118 H   0  0  0  0  0  0  0  0  0  0  0  0
   -4.5179   24.6918  -31.6962 H   0  0  0  0  0  0  0  0  0  0  0  0
   -6.0530   23.2750  -31.2770 C   0  0  0  0  0  0  0  0  0  0  0  0
   -7.3510   23.8000  -31.1950 C   0  0  0  0  0  0  0  0  0  0  0  0
   -7.5068   24.8166  -30.8047 H   0  0  0  0  0  0  0  0  0  0  0  0
   -8.4450   23.0390  -31.6060 C   0  0  0  0  0  0  0  0  0  0  0  0
   -9.4605   23.4556  -31.5337 H   0  0  0  0  0  0  0  0  0  0  0  0
   -8.2560   21.7500  -32.1090 C   0  0  0  0  0  0  0  0  0  0  0  0
   -9.1256   21.1550  -32.4250 H   0  0  0  0  0  0  0  0  0  0  0  0
   -6.9630   21.2060  -32.2150 C   0  0  0  0  0  0  0  0  0  0  0  0
   -6.7830   19.8750  -32.7380 N   0  0  0  0  0  0  0  0  0  0  0  0
   -7.2940   18.7780  -32.2040 N   0  0  0  0  0  0  0  0  0  0  0  0
   -6.9280   17.7370  -32.9350 N   0  0  0  0  0  0  0  0  0  0  0  0
   -6.1750   18.1380  -33.9490 N   0  0  0  0  0  0  0  0  0  0  0  0
   -6.0880   19.4740  -33.8210 C   0  0  0  0  0  0  0  0  0  0  0  0
   -5.5330   20.1395  -34.4985 H   0  0  0  0  0  0  0  0  0  0  0  0
   -5.8630   21.9840  -31.8000 C   0  0  0  0  0  0  0  0  0  0  0  0
   -4.8449   21.5764  -31.8864 H   0  0  0  0  0  0  0  0  0  0  0  0
   -1.7960   22.6560  -29.3950 N   0  0  0  0  0  0  0  0  0  0  0  0
    0.9940   20.0780  -29.5560 C   0  0  0  0  0  0  0  0  0  0  0  0
    1.7229   20.6985  -30.0980 H   0  0  0  0  0  0  0  0  0  0  0  0
  1  2  1  0
  2  3  2  0
  3  4  1  0
  3  5  1  0
  5  6  1  0
  5  7  2  0
  7  8  1  0
  8  9  2  0
  8 10  2  0
  8 11  1  0
 11 12  1  0
 11 13  1  0
 11 14  1  0
  7 15  1  0
 15 16  1  0
 16 17  2  0
 17 18  1  0
 18 19  2  0
 19 20  1  0
 20 21  1  0
 21 22  1  0
 21 23  1  0
 21 24  1  0
 19 25  1  0
 25 26  1  0
 25 27  1  0
 27 28  2  3
 28 29  1  0
 29 30  1  0
 29 31  1  0
 29 32  1  0
 32 33  2  0
 33 34  1  0
 33 35  1  0
 35 36  1  0
 35 37  2  0
 37 38  1  0
 37 39  1  0
 39 40  1  0
 40 41  1  0
 41 42  2  0
 42 43  1  0
 43 44  2  0
 44 45  1  0
 39 46  2  0
 46 47  1  0
 27 48  1  0
 15 49  2  0
 49 50  1  0
 49  2  1  0
 48 17  1  0
 46 32  1  0
 44 40  1  0
M  CHG  1  48  -1
M  END
>  <UniqueID>  (44) 
38

>  <SMILES>  (44) 
COc1n/c(=N/c2ccccc2S(C)(=O)=O)[n-]c(=NCc2cccc(-n3cnnn3)c2)[nH]1

>  <Energy>  (44) 
99.32399928126263

>  <Genealogy>  (44) 
COc1nc(=Nc2ccccc2S(C)(=O)=O)[n-]c(=NCc2cccc(-n3cnnn3)c2)[nH]1 (protonated)
COc1n/c(=N/c2ccccc2S(C)(=O)=O)[n-]c(=NCc2cccc(-n3cnnn3)c2)[nH]1 (cis-trans isomerization)
COc1n/c(=N/c2ccccc2S(C)(=O)=O)[n-]c(=NCc2cccc(-n3cnnn3)c2)[nH]1 (3D coordinates assigned)
COc1n/c(=N/c2ccccc2S(C)(=O)=O)[n-]c(=NCc2cccc(-n3cnnn3)c2)[nH]1 (optimized conformer: 99.32399928126263 kcal/mol)

>  <smiles>  (44) 
COc1nc(=Nc2ccccc2S(C)(=O)=O)[nH]c(=NCc2cccc(-n3cnnn3)c2)[nH]1

>  <score_type>  (44) 
oracle

>  <origin>  (44) 
adgpu

>  <m_score__min__energy>  (44) 
-10.539999999999999

>  <m_primary>  (44) 
energy

$$$$
44:0
     RDKit          3D

 43 45  0  0  0  0  0  0  0  0999 V2000
   -4.0840   15.9630  -34.6070 C   0  0  0  0  0  0  0  0  0  0  0  0
   -3.5170   17.2690  -34.5730 O   0  0  0  0  0  0  0  0  0  0  0  0
   -4.1380   18.3870  -33.9960 C   0  0  0  0  0  0  0  0  0  0  0  0
   -3.4070   19.4400  -33.4140 C   0  0  0  0  0  0  0  0  0  0  0  0
   -4.0730   20.5320  -32.8480 C   0  0  0  0  0  0  0  0  0  0  0  0
   -5.4770   20.5940  -32.8540 C   0  0  0  0  0  0  0  0  0  0  0  0
   -6.1820   21.7540  -32.2510 C   0  0  0  0  0  0  0  0  0  0  0  0
   -7.5790   21.8830  -32.3700 C   0  0  0  0  0  0  0  0  0  0  0  0
   -8.2400   22.9710  -31.7920 C   0  0  0  0  0  0  0  0  0  0  0  0
   -7.5190   23.9410  -31.0940 C   0  0  0  0  0  0  0  0  0  0  0  0
   -6.1280   23.8300  -30.9720 C   0  0  0  0  0  0  0  0  0  0  0  0
   -5.2070   25.0570  -30.1080 S   0  0  0  0  0  0  0  0  0  0  0  0
   -5.6850   26.4370  -30.4690 O   0  0  0  0  0  0  0  0  0  0  0  0
   -5.3850   24.8460  -28.6320 O   0  0  0  0  0  0  0  0  0  0  0  0
   -3.5240   24.9190  -30.5020 N   0  0  0  0  0  0  0  0  0  0  0  0
   -2.5550   24.1690  -29.7550 C   0  0  0  0  0  0  0  0  0  0  0  0
   -2.5340   22.7610  -29.7680 C   0  0  0  0  0  0  0  0  0  0  0  0
   -1.5720   22.0580  -29.0260 C   0  0  0  0  0  0  0  0  0  0  0  0
   -1.5840   20.5580  -29.0200 C   0  0  0  0  0  0  0  0  0  0  0  0
   -0.6410   22.7670  -28.2540 C   0  0  0  0  0  0  0  0  0  0  0  0
   -0.6550   24.1630  -28.2430 C   0  0  0  0  0  0  0  0  0  0  0  0
   -1.6060   24.8620  -28.9900 C   0  0  0  0  0  0  0  0  0  0  0  0
   -1.6080   26.2530  -28.9670 O   0  0  0  0  0  0  0  0  0  0  0  0
   -5.4650   22.7380  -31.5470 C   0  0  0  0  0  0  0  0  0  0  0  0
   -6.2020   19.5400  -33.4370 C   0  0  0  0  0  0  0  0  0  0  0  0
   -5.5350   18.4490  -34.0030 C   0  0  0  0  0  0  0  0  0  0  0  0
   -4.2398   15.6041  -33.5790 H   0  0  0  0  0  0  0  0  0  0  0  0
   -5.0489   15.9958  -35.1341 H   0  0  0  0  0  0  0  0  0  0  0  0
   -3.4012   15.2804  -35.1341 H   0  0  0  0  0  0  0  0  0  0  0  0
   -2.3076   19.4038  -33.4043 H   0  0  0  0  0  0  0  0  0  0  0  0
   -3.4930   21.3492  -32.3943 H   0  0  0  0  0  0  0  0  0  0  0  0
   -8.1535   21.1236  -32.9207 H   0  0  0  0  0  0  0  0  0  0  0  0
   -9.3320   23.0628  -31.8877 H   0  0  0  0  0  0  0  0  0  0  0  0
   -8.0439   24.7939  -30.6390 H   0  0  0  0  0  0  0  0  0  0  0  0
   -3.2760   22.2087  -30.3633 H   0  0  0  0  0  0  0  0  0  0  0  0
   -1.5869   20.1955  -27.9815 H   0  0  0  0  0  0  0  0  0  0  0  0
   -2.4851   20.1965  -29.5371 H   0  0  0  0  0  0  0  0  0  0  0  0
   -0.6888   20.1821  -29.5371 H   0  0  0  0  0  0  0  0  0  0  0  0
    0.1030   22.2216  -27.6549 H   0  0  0  0  0  0  0  0  0  0  0  0
    0.0851   24.7141  -27.6443 H   0  0  0  0  0  0  0  0  0  0  0  0
   -4.3732   22.6494  -31.4469 H   0  0  0  0  0  0  0  0  0  0  0  0
   -7.3014   19.5737  -33.4480 H   0  0  0  0  0  0  0  0  0  0  0  0
   -6.1145   17.6321  -34.4579 H   0  0  0  0  0  0  0  0  0  0  0  0
  1  2  1  0
  2  3  1  0
  3  4  2  0
  4  5  1  0
  5  6  2  0
  6  7  1  0
  7  8  2  0
  8  9  1  0
  9 10  2  0
 10 11  1  0
 11 12  1  0
 12 13  2  0
 12 14  2  0
 12 15  1  0
 15 16  1  0
 16 17  2  0
 17 18  1  0
 18 19  1  0
 18 20  2  0
 20 21  1  0
 21 22  2  0
 22 23  1  0
 11 24  2  0
  6 25  1  0
 25 26  2  0
 26  3  1  0
 24  7  1  0
 22 16  1  0
  1 27  1  0
  1 28  1  0
  1 29  1  0
  4 30  1  0
  5 31  1  0
  8 32  1  0
  9 33  1  0
 10 34  1  0
 17 35  1  0
 19 36  1  0
 19 37  1  0
 19 38  1  0
 20 39  1  0
 21 40  1  0
 24 41  1  0
 25 42  1  0
 26 43  1  0
M  CHG  2  15  -1  23  -1
M  END
>  <UniqueID>  (45) 
39

>  <SMILES>  (45) 
COc1ccc(-c2cccc(S(=O)(=O)[N-]c3cc(C)ccc3[O-])c2)cc1

>  <Energy>  (45) 
52.28502672064281

>  <Genealogy>  (45) 
COc1ccc(-c2cccc(S(=O)(=O)[N-]c3cc(C)ccc3[O-])c2)cc1 (protonated)
COc1ccc(-c2cccc(S(=O)(=O)[N-]c3cc(C)ccc3[O-])c2)cc1 (3D coordinates assigned)
COc1ccc(-c2cccc(S(=O)(=O)[N-]c3cc(C)ccc3[O-])c2)cc1 (optimized conformer: 52.28502672064281 kcal/mol)

>  <smiles>  (45) 
COc1ccc(-c2cccc(S(=O)(=O)Nc3cc(C)ccc3O)c2)cc1

>  <score_type>  (45) 
oracle

>  <origin>  (45) 
adgpu

>  <m_score__min__energy>  (45) 
-13.69

>  <m_primary>  (45) 
energy

$$$$
45:0
     RDKit          3D

 60 63  0  0  0  0  0  0  0  0999 V2000
   -0.4990   27.3770  -27.7850 C   0  0  0  0  0  0  0  0  0  0  0  0
   -1.1660   26.4100  -28.5970 O   0  0  0  0  0  0  0  0  0  0  0  0
   -1.4620   25.0970  -28.1980 C   0  0  0  0  0  0  0  0  0  0  0  0
   -0.8140   24.4900  -27.1020 C   0  0  0  0  0  0  0  0  0  0  0  0
   -1.0860   23.1540  -26.7730 C   0  0  0  0  0  0  0  0  0  0  0  0
   -2.0000   22.4150  -27.5280 C   0  0  0  0  0  0  0  0  0  0  0  0
   -2.6560   23.0150  -28.6060 C   0  0  0  0  0  0  0  0  0  0  0  0
   -2.4120   24.3560  -28.9320 C   0  0  0  0  0  0  0  0  0  0  0  0
   -3.1110   24.9280  -30.0440 N   0  0  0  0  0  0  0  0  0  0  0  0
   -4.8110   24.7040  -30.2930 S   0  0  0  0  0  0  0  0  0  0  0  0
   -5.5560   24.8140  -28.9900 O   0  0  0  0  0  0  0  0  0  0  0  0
   -5.3170   25.7740  -31.2210 O   0  0  0  0  0  0  0  0  0  0  0  0
   -5.0790   23.1280  -31.0320 C   0  0  0  0  0  0  0  0  0  0  0  0
   -4.0060   22.2560  -31.2540 C   0  0  0  0  0  0  0  0  0  0  0  0
   -4.2170   21.0320  -31.8980 C   0  0  0  0  0  0  0  0  0  0  0  0
   -5.4980   20.6730  -32.3450 C   0  0  0  0  0  0  0  0  0  0  0  0
   -5.6920   19.4030  -32.9890 N   0  0  0  0  0  0  0  0  0  0  0  0
   -6.1270   18.2120  -32.3070 C   0  0  0  0  0  0  0  0  0  0  0  0
   -6.5890   18.2880  -31.1390 O   0  0  0  0  0  0  0  0  0  0  0  0
   -6.0580   16.8880  -32.9700 C   0  0  0  0  0  0  0  0  0  0  0  0
   -7.0670   16.4580  -33.8520 C   0  0  0  0  0  0  0  0  0  0  0  0
   -6.9720   15.2150  -34.4800 C   0  0  0  0  0  0  0  0  0  0  0  0
   -5.8760   14.3830  -34.2320 C   0  0  0  0  0  0  0  0  0  0  0  0
   -5.8060   13.1900  -34.8720 F   0  0  0  0  0  0  0  0  0  0  0  0
   -4.8690   14.7900  -33.3420 C   0  0  0  0  0  0  0  0  0  0  0  0
   -3.4400   13.7960  -33.0300 S   0  0  0  0  0  0  0  0  0  0  0  0
   -3.7700   12.3330  -33.1640 O   0  0  0  0  0  0  0  0  0  0  0  0
   -2.9910   14.0520  -31.6170 O   0  0  0  0  0  0  0  0  0  0  0  0
   -2.1470   14.2300  -34.1350 N   0  0  0  0  0  0  0  0  0  0  0  0
   -1.0480   14.9340  -33.4460 C   0  0  0  0  0  0  0  0  0  0  0  0
   -1.4460   16.3760  -33.0420 C   0  0  0  0  0  0  0  0  0  0  0  0
   -2.5230   16.9070  -33.7950 O   0  0  0  0  0  0  0  0  0  0  0  0
   -2.4190   16.5200  -35.1490 C   0  0  0  0  0  0  0  0  0  0  0  0
   -2.6530   15.0020  -35.2930 C   0  0  0  0  0  0  0  0  0  0  0  0
   -4.9690   16.0390  -32.7140 C   0  0  0  0  0  0  0  0  0  0  0  0
   -6.5750   21.5380  -32.0900 C   0  0  0  0  0  0  0  0  0  0  0  0
   -6.3620   22.7610  -31.4500 C   0  0  0  0  0  0  0  0  0  0  0  0
   -0.6626   27.1399  -26.7234 H   0  0  0  0  0  0  0  0  0  0  0  0
    0.5790   27.3580  -28.0031 H   0  0  0  0  0  0  0  0  0  0  0  0
   -0.8997   28.3780  -28.0031 H   0  0  0  0  0  0  0  0  0  0  0  0
   -0.0931   25.0662  -26.5035 H   0  0  0  0  0  0  0  0  0  0  0  0
   -0.5776   22.6862  -25.9170 H   0  0  0  0  0  0  0  0  0  0  0  0
   -2.2027   21.3639  -27.2746 H   0  0  0  0  0  0  0  0  0  0  0  0
   -3.3701   22.4297  -29.2039 H   0  0  0  0  0  0  0  0  0  0  0  0
   -2.9950   22.5340  -30.9213 H   0  0  0  0  0  0  0  0  0  0  0  0
   -3.3720   20.3455  -32.0553 H   0  0  0  0  0  0  0  0  0  0  0  0
   -5.5030   19.3620  -34.0120 H   0  0  0  0  0  0  0  0  0  0  0  0
   -7.9350   17.1048  -34.0475 H   0  0  0  0  0  0  0  0  0  0  0  0
   -7.7621   14.8889  -35.1724 H   0  0  0  0  0  0  0  0  0  0  0  0
   -0.7797   14.3723  -32.5391 H   0  0  0  0  0  0  0  0  0  0  0  0
   -0.1972   14.9981  -34.1403 H   0  0  0  0  0  0  0  0  0  0  0  0
   -1.7348   16.3711  -31.9806 H   0  0  0  0  0  0  0  0  0  0  0  0
   -0.5728   17.0153  -33.2392 H   0  0  0  0  0  0  0  0  0  0  0  0
   -3.1731   17.0608  -35.7396 H   0  0  0  0  0  0  0  0  0  0  0  0
   -1.4096   16.7619  -35.5131 H   0  0  0  0  0  0  0  0  0  0  0  0
   -3.7336   14.8209  -35.3908 H   0  0  0  0  0  0  0  0  0  0  0  0
   -2.1001   14.6650  -36.1822 H   0  0  0  0  0  0  0  0  0  0  0  0
   -4.1847   16.3582  -32.0119 H   0  0  0  0  0  0  0  0  0  0  0  0
   -7.5917   21.2506  -32.3960 H   0  0  0  0  0  0  0  0  0  0  0  0
   -7.2092   23.4401  -31.2736 H   0  0  0  0  0  0  0  0  0  0  0  0
  1  2  1  0
  2  3  1  0
  3  4  2  0
  4  5  1  0
  5  6  2  0
  6  7  1  0
  7  8  2  0
  8  9  1  0
  9 10  1  0
 10 11  2  0
 10 12  2  0
 10 13  1  0
 13 14  2  0
 14 15  1  0
 15 16  2  0
 16 17  1  0
 17 18  1  0
 18 19  2  0
 18 20  1  0
 20 21  2  0
 21 22  1  0
 22 23  2  0
 23 24  1  0
 23 25  1  0
 25 26  1  0
 26 27  2  0
 26 28  2  0
 26 29  1  0
 29 30  1  0
 30 31  1  0
 31 32  1  0
 32 33  1  0
 33 34  1  0
 25 35  2  0
 16 36  1  0
 36 37  2  0
  8  3  1  0
 37 13  1  0
 35 20  1  0
 34 29  1  0
  1 38  1  0
  1 39  1  0
  1 40  1  0
  4 41  1  0
  5 42  1  0
  6 43  1  0
  7 44  1  0
 14 45  1  0
 15 46  1  0
 17 47  1  0
 21 48  1  0
 22 49  1  0
 30 50  1  0
 30 51  1  0
 31 52  1  0
 31 53  1  0
 33 54  1  0
 33 55  1  0
 34 56  1  0
 34 57  1  0
 35 58  1  0
 36 59  1  0
 37 60  1  0
M  CHG  1   9  -1
M  END
>  <UniqueID>  (46) 
40

>  <SMILES>  (46) 
COc1ccccc1[N-]S(=O)(=O)c1ccc(NC(=O)c2ccc(F)c(S(=O)(=O)N3CCOCC3)c2)cc1

>  <Energy>  (46) 
89.98265444903849

>  <Genealogy>  (46) 
COc1ccccc1[N-]S(=O)(=O)c1ccc(NC(=O)c2ccc(F)c(S(=O)(=O)N3CCOCC3)c2)cc1 (protonated)
COc1ccccc1[N-]S(=O)(=O)c1ccc(NC(=O)c2ccc(F)c(S(=O)(=O)N3CCOCC3)c2)cc1 (3D coordinates assigned)
COc1ccccc1[N-]S(=O)(=O)c1ccc(NC(=O)c2ccc(F)c(S(=O)(=O)N3CCOCC3)c2)cc1 (nonaromatic ring conformer: 89.98265444903849 kcal/mol)

>  <smiles>  (46) 
COc1ccccc1NS(=O)(=O)c1ccc(NC(=O)c2ccc(F)c(S(=O)(=O)N3CCOCC3)c2)cc1

>  <score_type>  (46) 
oracle

>  <origin>  (46) 
adgpu

>  <m_score__min__energy>  (46) 
-10.59

>  <m_primary>  (46) 
energy

$$$$
46:0
     RDKit          3D

 50 52  0  0  0  0  0  0  0  0999 V2000
   -0.4900   20.2550  -34.5530 C   0  0  0  0  0  0  0  0  0  0  0  0
   -0.5390   20.2080  -33.0560 C   0  0  0  0  0  0  0  0  0  0  0  0
   -0.4290   21.3870  -32.2990 C   0  0  0  0  0  0  0  0  0  0  0  0
   -0.4560   21.3320  -30.9030 C   0  0  0  0  0  0  0  0  0  0  0  0
   -0.5800   20.0980  -30.2470 C   0  0  0  0  0  0  0  0  0  0  0  0
   -0.5950   20.0400  -28.8150 N   0  0  0  0  0  0  0  0  0  0  0  0
    0.4310   19.2720  -28.1100 C   0  0  0  0  0  0  0  0  0  0  0  0
   -1.9390   20.7250  -27.9520 S   0  0  0  0  0  0  0  0  0  0  0  0
   -1.5210   21.1080  -26.5590 O   0  0  0  0  0  0  0  0  0  0  0  0
   -3.0520   19.7180  -27.8470 O   0  0  0  0  0  0  0  0  0  0  0  0
   -2.4870   22.1600  -28.8120 C   0  0  0  0  0  0  0  0  0  0  0  0
   -1.9150   23.4120  -28.5610 C   0  0  0  0  0  0  0  0  0  0  0  0
   -2.3840   24.5440  -29.2310 C   0  0  0  0  0  0  0  0  0  0  0  0
   -1.8070   25.7810  -28.9680 O   0  0  0  0  0  0  0  0  0  0  0  0
   -3.4340   24.4430  -30.1540 C   0  0  0  0  0  0  0  0  0  0  0  0
   -3.9050   25.6170  -30.7490 O   0  0  0  0  0  0  0  0  0  0  0  0
   -4.0030   23.1740  -30.4310 C   0  0  0  0  0  0  0  0  0  0  0  0
   -5.0810   22.9830  -31.4230 C   0  0  0  0  0  0  0  0  0  0  0  0
   -5.3800   23.9150  -32.2130 O   0  0  0  0  0  0  0  0  0  0  0  0
   -5.6990   21.6940  -31.5370 N   0  0  0  0  0  0  0  0  0  0  0  0
   -5.3060   20.5670  -32.3380 C   0  0  0  0  0  0  0  0  0  0  0  0
   -4.0890   20.5190  -33.0480 C   0  0  0  0  0  0  0  0  0  0  0  0
   -3.7690   19.3960  -33.8170 C   0  0  0  0  0  0  0  0  0  0  0  0
   -4.6640   18.3270  -33.9080 C   0  0  0  0  0  0  0  0  0  0  0  0
   -5.8980   18.3810  -33.2430 C   0  0  0  0  0  0  0  0  0  0  0  0
   -6.8590   17.2320  -33.3270 C   0  0  0  0  0  0  0  0  0  0  0  0
   -6.2040   19.4970  -32.4500 C   0  0  0  0  0  0  0  0  0  0  0  0
   -3.5250   22.0460  -29.7420 C   0  0  0  0  0  0  0  0  0  0  0  0
   -0.6730   18.9190  -31.0010 C   0  0  0  0  0  0  0  0  0  0  0  0
   -0.6470   18.9720  -32.3970 C   0  0  0  0  0  0  0  0  0  0  0  0
    0.2697   20.9837  -34.8723 H   0  0  0  0  0  0  0  0  0  0  0  0
   -0.2301   19.2597  -34.9428 H   0  0  0  0  0  0  0  0  0  0  0  0
   -1.4736   20.5561  -34.9428 H   0  0  0  0  0  0  0  0  0  0  0  0
   -0.3213   22.3566  -32.8073 H   0  0  0  0  0  0  0  0  0  0  0  0
   -0.3798   22.2594  -30.3164 H   0  0  0  0  0  0  0  0  0  0  0  0
    0.2880   19.3790  -27.0246 H   0  0  0  0  0  0  0  0  0  0  0  0
    0.3501   18.2107  -28.3876 H   0  0  0  0  0  0  0  0  0  0  0  0
    1.4265   19.6487  -28.3876 H   0  0  0  0  0  0  0  0  0  0  0  0
   -1.0943   23.5048  -27.8345 H   0  0  0  0  0  0  0  0  0  0  0  0
   -4.2090   25.6720  -31.7120 H   0  0  0  0  0  0  0  0  0  0  0  0
   -3.3898   21.3667  -32.9969 H   0  0  0  0  0  0  0  0  0  0  0  0
   -2.8090   19.3540  -34.3524 H   0  0  0  0  0  0  0  0  0  0  0  0
   -4.4002   17.4402  -34.5030 H   0  0  0  0  0  0  0  0  0  0  0  0
   -7.1311   16.9066  -32.3121 H   0  0  0  0  0  0  0  0  0  0  0  0
   -7.7642   17.5497  -33.8653 H   0  0  0  0  0  0  0  0  0  0  0  0
   -6.3863   16.3972  -33.8653 H   0  0  0  0  0  0  0  0  0  0  0  0
   -7.1612   19.5327  -31.9091 H   0  0  0  0  0  0  0  0  0  0  0  0
   -3.9733   21.0606  -29.9369 H   0  0  0  0  0  0  0  0  0  0  0  0
   -0.7668   17.9487  -30.4913 H   0  0  0  0  0  0  0  0  0  0  0  0
   -0.7113   18.0427  -32.9821 H   0  0  0  0  0  0  0  0  0  0  0  0
  1  2  1  0
  2  3  2  0
  3  4  1  0
  4  5  2  0
  5  6  1  0
  6  7  1  0
  6  8  1  0
  8  9  2  0
  8 10  2  0
  8 11  1  0
 11 12  2  0
 12 13  1  0
 13 14  1  0
 13 15  2  0
 15 16  1  0
 15 17  1  0
 17 18  1  0
 18 19  2  0
 18 20  1  0
 20 21  1  0
 21 22  2  0
 22 23  1  0
 23 24  2  0
 24 25  1  0
 25 26  1  0
 25 27  2  0
 17 28  2  0
  5 29  1  0
 29 30  2  0
 30  2  1  0
 28 11  1  0
 27 21  1  0
  1 31  1  0
  1 32  1  0
  1 33  1  0
  3 34  1  0
  4 35  1  0
  7 36  1  0
  7 37  1  0
  7 38  1  0
 12 39  1  0
 16 40  1  0
 22 41  1  0
 23 42  1  0
 24 43  1  0
 26 44  1  0
 26 45  1  0
 26 46  1  0
 27 47  1  0
 28 48  1  0
 29 49  1  0
 30 50  1  0
M  CHG  2  14  -1  20  -1
M  END
>  <UniqueID>  (47) 
41

>  <SMILES>  (47) 
Cc1ccc(N(C)S(=O)(=O)c2cc([O-])c(O)c(C(=O)[N-]c3cccc(C)c3)c2)cc1

>  <Energy>  (47) 
63.45505999380651

>  <Genealogy>  (47) 
Cc1ccc(N(C)S(=O)(=O)c2cc([O-])c(O)c(C(=O)[N-]c3cccc(C)c3)c2)cc1 (protonated)
Cc1ccc(N(C)S(=O)(=O)c2cc([O-])c(O)c(C(=O)[N-]c3cccc(C)c3)c2)cc1 (3D coordinates assigned)
Cc1ccc(N(C)S(=O)(=O)c2cc([O-])c(O)c(C(=O)[N-]c3cccc(C)c3)c2)cc1 (optimized conformer: 63.45505999380651 kcal/mol)

>  <smiles>  (47) 
Cc1ccc(N(C)S(=O)(=O)c2cc(O)c(O)c(C(=O)Nc3cccc(C)c3)c2)cc1

>  <score_type>  (47) 
oracle

>  <origin>  (47) 
adgpu

>  <m_score__min__energy>  (47) 
-13.07

>  <m_primary>  (47) 
energy

$$$$
47:0
     RDKit          3D

 38 40  0  0  0  0  0  0  0  0999 V2000
    1.0290   19.8140  -27.5530 O   0  0  0  0  0  0  0  0  0  0  0  0
    0.1290   20.5230  -28.0780 C   0  0  0  0  0  0  0  0  0  0  0  0
   -0.9930   19.9200  -28.6420 C   0  0  0  0  0  0  0  0  0  0  0  0
   -1.9760   20.7220  -29.2160 C   0  0  0  0  0  0  0  0  0  0  0  0
   -1.8370   22.1240  -29.2130 C   0  0  0  0  0  0  0  0  0  0  0  0
   -2.8050   23.0170  -29.7590 C   0  0  0  0  0  0  0  0  0  0  0  0
   -4.1280   22.5640  -30.3520 C   0  0  0  0  0  0  0  0  0  0  0  0
   -4.3770   23.2700  -31.6170 N   0  0  0  0  0  0  0  0  0  0  0  0
   -5.7460   23.8000  -31.7090 C   0  0  0  0  0  0  0  0  0  0  0  0
   -6.6570   23.0670  -30.7240 C   0  0  0  0  0  0  0  0  0  0  0  0
   -7.4230   21.9650  -31.4110 C   0  0  0  0  0  0  0  0  0  0  0  0
   -8.8270   21.9440  -31.3760 C   0  0  0  0  0  0  0  0  0  0  0  0
   -9.5310   20.8990  -31.9830 C   0  0  0  0  0  0  0  0  0  0  0  0
   -8.8380   19.8650  -32.6200 C   0  0  0  0  0  0  0  0  0  0  0  0
   -7.4420   19.8720  -32.6460 C   0  0  0  0  0  0  0  0  0  0  0  0
   -6.7340   20.9150  -32.0440 C   0  0  0  0  0  0  0  0  0  0  0  0
   -2.5590   24.4070  -29.6960 C   0  0  0  0  0  0  0  0  0  0  0  0
   -3.4900   25.3140  -30.1940 O   0  0  0  0  0  0  0  0  0  0  0  0
   -1.3850   24.9000  -29.1280 C   0  0  0  0  0  0  0  0  0  0  0  0
   -0.4390   24.0320  -28.5920 C   0  0  0  0  0  0  0  0  0  0  0  0
    0.7180   24.5440  -28.0170 O   0  0  0  0  0  0  0  0  0  0  0  0
   -0.6560   22.6520  -28.6240 C   0  0  0  0  0  0  0  0  0  0  0  0
    0.2570   21.8430  -28.0910 O   0  0  0  0  0  0  0  0  0  0  0  0
   -1.1010   18.8253  -28.6340 H   0  0  0  0  0  0  0  0  0  0  0  0
   -2.8634   20.2597  -29.6730 H   0  0  0  0  0  0  0  0  0  0  0  0
   -4.0917   21.4808  -30.5399 H   0  0  0  0  0  0  0  0  0  0  0  0
   -4.9389   22.7916  -29.6445 H   0  0  0  0  0  0  0  0  0  0  0  0
   -4.2310   22.5960  -32.4060 H   0  0  0  0  0  0  0  0  0  0  0  0
   -5.7381   24.8734  -31.4686 H   0  0  0  0  0  0  0  0  0  0  0  0
   -6.1238   23.6498  -32.7311 H   0  0  0  0  0  0  0  0  0  0  0  0
   -6.0427   22.6317  -29.9220 H   0  0  0  0  0  0  0  0  0  0  0  0
   -7.3773   23.7884  -30.3107 H   0  0  0  0  0  0  0  0  0  0  0  0
   -9.3748   22.7523  -30.8694 H   0  0  0  0  0  0  0  0  0  0  0  0
  -10.6307   20.8905  -31.9593 H   0  0  0  0  0  0  0  0  0  0  0  0
   -9.3928   19.0458  -33.1008 H   0  0  0  0  0  0  0  0  0  0  0  0
   -6.8984   19.0542  -33.1417 H   0  0  0  0  0  0  0  0  0  0  0  0
   -5.6342   20.9150  -32.0651 H   0  0  0  0  0  0  0  0  0  0  0  0
   -1.2051   25.9849  -29.1034 H   0  0  0  0  0  0  0  0  0  0  0  0
  1  2  2  0
  2  3  1  0
  3  4  2  0
  4  5  1  0
  5  6  2  0
  6  7  1  0
  7  8  1  0
  8  9  1  0
  9 10  1  0
 10 11  1  0
 11 12  2  0
 12 13  1  0
 13 14  2  0
 14 15  1  0
 15 16  2  0
  6 17  1  0
 17 18  1  0
 17 19  2  0
 19 20  1  0
 20 21  1  0
 20 22  2  0
 22 23  1  0
 23  2  1  0
 22  5  1  0
 16 11  1  0
  3 24  1  0
  4 25  1  0
  7 26  1  0
  7 27  1  0
  8 28  1  0
  9 29  1  0
  9 30  1  0
 10 31  1  0
 10 32  1  0
 12 33  1  0
 13 34  1  0
 14 35  1  0
 15 36  1  0
 16 37  1  0
 19 38  1  0
M  CHG  2  18  -1  21  -1
M  END
>  <UniqueID>  (48) 
42

>  <SMILES>  (48) 
O=c1ccc2c(CNCCc3ccccc3)c([O-])cc([O-])c2o1

>  <Energy>  (48) 
42.62772675468998

>  <Genealogy>  (48) 
O=c1ccc2c(CNCCc3ccccc3)c([O-])cc([O-])c2o1 (protonated)
O=c1ccc2c(CNCCc3ccccc3)c([O-])cc([O-])c2o1 (3D coordinates assigned)
O=c1ccc2c(CNCCc3ccccc3)c([O-])cc([O-])c2o1 (optimized conformer: 42.62772675468998 kcal/mol)

>  <smiles>  (48) 
O=c1ccc2c(CNCCc3ccccc3)c(O)cc(O)c2o1

>  <score_type>  (48) 
oracle

>  <origin>  (48) 
adgpu

>  <m_score__min__energy>  (48) 
-11.18

>  <m_primary>  (48) 
energy

$$$$
48:0
     RDKit          3D

 62 67  0  0  0  0  0  0  0  0999 V2000
   -4.2610   16.0190  -35.0130 F   0  0  0  0  0  0  0  0  0  0  0  0
   -3.2550   16.8150  -34.5710 C   0  0  0  0  0  0  0  0  0  0  0  0
   -1.9360   16.4750  -34.8960 C   0  0  0  0  0  0  0  0  0  0  0  0
   -0.8770   17.2880  -34.4850 C   0  0  0  0  0  0  0  0  0  0  0  0
   -1.1350   18.4640  -33.7740 C   0  0  0  0  0  0  0  0  0  0  0  0
   -2.4500   18.8030  -33.4360 C   0  0  0  0  0  0  0  0  0  0  0  0
   -3.5260   17.9830  -33.8270 C   0  0  0  0  0  0  0  0  0  0  0  0
   -4.8790   18.3460  -33.4780 N   0  0  0  0  0  0  0  0  0  0  0  0
   -5.8040   17.3330  -32.9590 C   0  0  0  0  0  0  0  0  0  0  0  0
   -6.9040   18.0040  -32.1280 C   0  0  0  0  0  0  0  0  0  0  0  0
   -7.6700   18.9990  -32.9240 N   0  0  0  0  0  0  0  0  0  0  0  0
   -8.4640   19.9170  -32.0670 C   0  0  0  0  0  0  0  0  0  0  0  0
   -7.8110   21.2630  -31.8070 C   0  0  0  0  0  0  0  0  0  0  0  0
   -8.5630   22.4500  -31.8520 C   0  0  0  0  0  0  0  0  0  0  0  0
   -7.9470   23.6840  -31.6300 C   0  0  0  0  0  0  0  0  0  0  0  0
   -6.5820   23.7480  -31.3460 C   0  0  0  0  0  0  0  0  0  0  0  0
   -5.8190   22.5720  -31.2560 C   0  0  0  0  0  0  0  0  0  0  0  0
   -4.3770   22.6380  -30.9170 C   0  0  0  0  0  0  0  0  0  0  0  0
   -3.4560   21.7760  -31.5410 C   0  0  0  0  0  0  0  0  0  0  0  0
   -2.1060   21.8180  -31.1930 C   0  0  0  0  0  0  0  0  0  0  0  0
   -1.6530   22.7330  -30.2380 C   0  0  0  0  0  0  0  0  0  0  0  0
   -2.5530   23.6120  -29.6130 C   0  0  0  0  0  0  0  0  0  0  0  0
   -2.0740   24.5940  -28.6170 C   0  0  0  0  0  0  0  0  0  0  0  0
   -1.3620   25.7050  -28.9520 N   0  0  0  0  0  0  0  0  0  0  0  0
   -1.1600   26.2950  -27.7650 C   0  0  0  0  0  0  0  0  0  0  0  0
   -0.4890   27.4900  -27.5110 C   0  0  0  0  0  0  0  0  0  0  0  0
   -0.4250   27.9320  -26.1790 C   0  0  0  0  0  0  0  0  0  0  0  0
   -1.0140   27.1640  -25.1430 C   0  0  0  0  0  0  0  0  0  0  0  0
   -1.6780   25.9560  -25.4390 C   0  0  0  0  0  0  0  0  0  0  0  0
   -1.7280   25.5600  -26.7750 C   0  0  0  0  0  0  0  0  0  0  0  0
   -2.3100   24.4660  -27.2840 N   0  0  0  0  0  0  0  0  0  0  0  0
   -3.9140   23.5540  -29.9550 C   0  0  0  0  0  0  0  0  0  0  0  0
   -6.4440   21.3320  -31.4800 C   0  0  0  0  0  0  0  0  0  0  0  0
   -6.8670   19.7080  -33.9630 C   0  0  0  0  0  0  0  0  0  0  0  0
   -5.3640   19.7200  -33.6580 C   0  0  0  0  0  0  0  0  0  0  0  0
   -1.7329   15.5636  -35.4775 H   0  0  0  0  0  0  0  0  0  0  0  0
    0.1591   17.0033  -34.7205 H   0  0  0  0  0  0  0  0  0  0  0  0
   -0.3044   19.1227  -33.4803 H   0  0  0  0  0  0  0  0  0  0  0  0
   -2.6451   19.7191  -32.8592 H   0  0  0  0  0  0  0  0  0  0  0  0
   -6.2618   16.7924  -33.8006 H   0  0  0  0  0  0  0  0  0  0  0  0
   -5.2484   16.6294  -32.3216 H   0  0  0  0  0  0  0  0  0  0  0  0
   -7.5964   17.2308  -31.7637 H   0  0  0  0  0  0  0  0  0  0  0  0
   -6.4247   18.5327  -31.2909 H   0  0  0  0  0  0  0  0  0  0  0  0
   -8.3860   18.4430  -33.4530 H   0  0  0  0  0  0  0  0  0  0  0  0
   -9.4317   20.0946  -32.5591 H   0  0  0  0  0  0  0  0  0  0  0  0
   -8.5612   19.4237  -31.0886 H   0  0  0  0  0  0  0  0  0  0  0  0
   -9.6417   22.4069  -32.0630 H   0  0  0  0  0  0  0  0  0  0  0  0
   -8.5402   24.6090  -31.6792 H   0  0  0  0  0  0  0  0  0  0  0  0
   -6.1008   24.7251  -31.1917 H   0  0  0  0  0  0  0  0  0  0  0  0
   -3.8023   21.0660  -32.3065 H   0  0  0  0  0  0  0  0  0  0  0  0
   -1.3950   21.1286  -31.6718 H   0  0  0  0  0  0  0  0  0  0  0  0
   -0.5855   22.7648  -29.9744 H   0  0  0  0  0  0  0  0  0  0  0  0
   -0.0258   28.0668  -28.3250 H   0  0  0  0  0  0  0  0  0  0  0  0
    0.0839   28.8772  -25.9390 H   0  0  0  0  0  0  0  0  0  0  0  0
   -0.9525   27.5128  -24.1016 H   0  0  0  0  0  0  0  0  0  0  0  0
   -2.1391   25.3489  -24.6460 H   0  0  0  0  0  0  0  0  0  0  0  0
   -4.6267   24.2333  -29.4645 H   0  0  0  0  0  0  0  0  0  0  0  0
   -5.8572   20.4051  -31.3986 H   0  0  0  0  0  0  0  0  0  0  0  0
   -7.0240   19.2064  -34.9293 H   0  0  0  0  0  0  0  0  0  0  0  0
   -7.2060   20.7543  -33.9818 H   0  0  0  0  0  0  0  0  0  0  0  0
   -4.8260   20.1899  -34.4945 H   0  0  0  0  0  0  0  0  0  0  0  0
   -5.1868   20.2902  -32.7342 H   0  0  0  0  0  0  0  0  0  0  0  0
  1  2  1  0
  2  3  2  0
  3  4  1  0
  4  5  2  0
  5  6  1  0
  6  7  2  0
  7  8  1  0
  8  9  1  0
  9 10  1  0
 10 11  1  0
 11 12  1  0
 12 13  1  0
 13 14  2  0
 14 15  1  0
 15 16  2  0
 16 17  1  0
 17 18  1  0
 18 19  2  0
 19 20  1  0
 20 21  2  0
 21 22  1  0
 22 23  1  0
 23 24  2  0
 24 25  1  0
 25 26  2  0
 26 27  1  0
 27 28  2  0
 28 29  1  0
 29 30  2  0
 30 31  1  0
 22 32  2  0
 17 33  2  0
 11 34  1  0
 34 35  1  0
  7  2  1  0
 35  8  1  0
 33 13  1  0
 32 18  1  0
 31 23  1  0
 30 25  1  0
  3 36  1  0
  4 37  1  0
  5 38  1  0
  6 39  1  0
  9 40  1  0
  9 41  1  0
 10 42  1  0
 10 43  1  0
 11 44  1  0
 12 45  1  0
 12 46  1  0
 14 47  1  0
 15 48  1  0
 16 49  1  0
 19 50  1  0
 20 51  1  0
 21 52  1  0
 26 53  1  0
 27 54  1  0
 28 55  1  0
 29 56  1  0
 32 57  1  0
 33 58  1  0
 34 59  1  0
 34 60  1  0
 35 61  1  0
 35 62  1  0
M  CHG  2  11   1  31  -1
M  END
>  <UniqueID>  (49) 
43

>  <SMILES>  (49) 
Fc1ccccc1N1CC[NH+](Cc2cccc(-c3cccc(-c4nc5ccccc5[n-]4)c3)c2)CC1

>  <Energy>  (49) 
125.64659761239398

>  <Genealogy>  (49) 
Fc1ccccc1N1CC[NH+](Cc2cccc(-c3cccc(-c4nc5ccccc5[n-]4)c3)c2)CC1 (protonated)
Fc1ccccc1N1CC[NH+](Cc2cccc(-c3cccc(-c4nc5ccccc5[n-]4)c3)c2)CC1 (3D coordinates assigned)
Fc1ccccc1N1CC[NH+](Cc2cccc(-c3cccc(-c4nc5ccccc5[n-]4)c3)c2)CC1 (nonaromatic ring conformer: 125.64659761239398 kcal/mol)

>  <smiles>  (49) 
Fc1ccccc1N1CCN(Cc2cccc(-c3cccc(-c4nc5ccccc5[nH]4)c3)c2)CC1

>  <score_type>  (49) 
oracle

>  <origin>  (49) 
adgpu

>  <m_score__min__energy>  (49) 
-11.23

>  <m_primary>  (49) 
energy

$$$$
49:0
     RDKit          3D

 45 47  0  0  0  0  0  0  0  0999 V2000
   -6.4230   24.3920  -29.7820 O   0  0  0  0  0  0  0  0  0  0  0  0
   -5.4110   24.3280  -30.8910 S   0  0  0  0  0  0  0  0  0  0  0  0
   -4.9410   25.7200  -31.2050 O   0  0  0  0  0  0  0  0  0  0  0  0
   -6.1610   23.6440  -32.2970 N   0  0  0  0  0  0  0  0  0  0  0  0
   -7.2070   22.6630  -32.2090 C   0  0  0  0  0  0  0  0  0  0  0  0
   -8.5430   23.0370  -31.9820 C   0  0  0  0  0  0  0  0  0  0  0  0
   -9.5370   22.0620  -31.8650 C   0  0  0  0  0  0  0  0  0  0  0  0
   -9.2070   20.7090  -31.9620 C   0  0  0  0  0  0  0  0  0  0  0  0
   -7.8770   20.3210  -32.1760 C   0  0  0  0  0  0  0  0  0  0  0  0
   -7.4510   18.6110  -32.2400 S   0  0  0  0  0  0  0  0  0  0  0  0
   -6.4370   18.3220  -31.1670 O   0  0  0  0  0  0  0  0  0  0  0  0
   -8.6730   17.7840  -31.9500 O   0  0  0  0  0  0  0  0  0  0  0  0
   -6.7960   18.1470  -33.7950 N   0  0  0  0  0  0  0  0  0  0  0  0
   -6.3780   16.7250  -33.8470 C   0  0  0  0  0  0  0  0  0  0  0  0
   -4.9460   16.5180  -34.3580 C   0  0  0  0  0  0  0  0  0  0  0  0
   -3.9960   17.4630  -33.6280 C   0  0  0  0  0  0  0  0  0  0  0  0
   -4.3860   18.9320  -33.8440 C   0  0  0  0  0  0  0  0  0  0  0  0
   -5.8350   19.1320  -34.3360 C   0  0  0  0  0  0  0  0  0  0  0  0
   -6.8880   21.3030  -32.3310 C   0  0  0  0  0  0  0  0  0  0  0  0
   -4.0110   23.3450  -30.4450 C   0  0  0  0  0  0  0  0  0  0  0  0
   -4.0760   21.9570  -30.6380 C   0  0  0  0  0  0  0  0  0  0  0  0
   -3.0050   21.1410  -30.2640 C   0  0  0  0  0  0  0  0  0  0  0  0
   -1.8580   21.7050  -29.7020 C   0  0  0  0  0  0  0  0  0  0  0  0
   -1.7790   23.0880  -29.5180 C   0  0  0  0  0  0  0  0  0  0  0  0
   -2.8480   23.9120  -29.8890 C   0  0  0  0  0  0  0  0  0  0  0  0
   -2.7390   25.2850  -29.7020 O   0  0  0  0  0  0  0  0  0  0  0  0
   -5.6850   23.7980  -33.2150 H   0  0  0  0  0  0  0  0  0  0  0  0
   -8.8069   24.1014  -31.8962 H   0  0  0  0  0  0  0  0  0  0  0  0
  -10.5820   22.3612  -31.6961 H   0  0  0  0  0  0  0  0  0  0  0  0
   -9.9930   19.9450  -31.8702 H   0  0  0  0  0  0  0  0  0  0  0  0
   -6.4481   16.3057  -32.8324 H   0  0  0  0  0  0  0  0  0  0  0  0
   -7.0479   16.2203  -34.5587 H   0  0  0  0  0  0  0  0  0  0  0  0
   -4.6393   15.4777  -34.1742 H   0  0  0  0  0  0  0  0  0  0  0  0
   -4.9109   16.7291  -35.4370 H   0  0  0  0  0  0  0  0  0  0  0  0
   -4.0273   17.2397  -32.5514 H   0  0  0  0  0  0  0  0  0  0  0  0
   -2.9834   17.3124  -34.0304 H   0  0  0  0  0  0  0  0  0  0  0  0
   -4.2686   19.4649  -32.8889 H   0  0  0  0  0  0  0  0  0  0  0  0
   -3.7259   19.3235  -34.6321 H   0  0  0  0  0  0  0  0  0  0  0  0
   -6.1658   20.1377  -34.0375 H   0  0  0  0  0  0  0  0  0  0  0  0
   -5.8216   18.9967  -35.4276 H   0  0  0  0  0  0  0  0  0  0  0  0
   -5.8525   21.0037  -32.5503 H   0  0  0  0  0  0  0  0  0  0  0  0
   -4.9749   21.5085  -31.0862 H   0  0  0  0  0  0  0  0  0  0  0  0
   -3.0657   20.0528  -30.4126 H   0  0  0  0  0  0  0  0  0  0  0  0
   -1.0172   21.0612  -29.4043 H   0  0  0  0  0  0  0  0  0  0  0  0
   -0.8726   23.5311  -29.0796 H   0  0  0  0  0  0  0  0  0  0  0  0
  1  2  2  0
  2  3  2  0
  2  4  1  0
  4  5  1  0
  5  6  2  0
  6  7  1  0
  7  8  2  0
  8  9  1  0
  9 10  1  0
 10 11  2  0
 10 12  2  0
 10 13  1  0
 13 14  1  0
 14 15  1  0
 15 16  1  0
 16 17  1  0
 17 18  1  0
  9 19  2  0
  2 20  1  0
 20 21  2  0
 21 22  1  0
 22 23  2  0
 23 24  1  0
 24 25  2  0
 25 26  1  0
 19  5  1  0
 25 20  1  0
 18 13  1  0
  4 27  1  0
  6 28  1  0
  7 29  1  0
  8 30  1  0
 14 31  1  0
 14 32  1  0
 15 33  1  0
 15 34  1  0
 16 35  1  0
 16 36  1  0
 17 37  1  0
 17 38  1  0
 18 39  1  0
 18 40  1  0
 19 41  1  0
 21 42  1  0
 22 43  1  0
 23 44  1  0
 24 45  1  0
M  CHG  1  26  -1
M  END
>  <UniqueID>  (50) 
44

>  <SMILES>  (50) 
O=S(=O)(Nc1cccc(S(=O)(=O)N2CCCCC2)c1)c1ccccc1[O-]

>  <Energy>  (50) 
55.873015834861775

>  <Genealogy>  (50) 
O=S(=O)(Nc1cccc(S(=O)(=O)N2CCCCC2)c1)c1ccccc1[O-] (protonated)
O=S(=O)(Nc1cccc(S(=O)(=O)N2CCCCC2)c1)c1ccccc1[O-] (3D coordinates assigned)
O=S(=O)(Nc1cccc(S(=O)(=O)N2CCCCC2)c1)c1ccccc1[O-] (nonaromatic ring conformer: 55.873015834861775 kcal/mol)

>  <smiles>  (50) 
O=S(=O)(Nc1cccc(S(=O)(=O)N2CCCCC2)c1)c1ccccc1O

>  <score_type>  (50) 
oracle

>  <origin>  (50) 
adgpu

>  <m_score__min__energy>  (50) 
-13.74

>  <m_primary>  (50) 
energy

$$$$
