0:0
     RDKit          3D

 46 48  0  0  0  0  0  0  0  0999 V2000
   -5.6480   15.1160  -33.7620 C   0  0  0  0  0  0  0  0  0  0  0  0
   -4.8380   15.8340  -34.6880 O   0  0  0  0  0  0  0  0  0  0  0  0
   -4.0420   16.9480  -34.3580 C   0  0  0  0  0  0  0  0  0  0  0  0
   -2.6420   16.8500  -34.2280 C   0  0  0  0  0  0  0  0  0  0  0  0
   -1.8820   17.9740  -33.9050 C   0  0  0  0  0  0  0  0  0  0  0  0
   -2.4990   19.2090  -33.7070 C   0  0  0  0  0  0  0  0  0  0  0  0
   -3.8860   19.3220  -33.8320 C   0  0  0  0  0  0  0  0  0  0  0  0
   -4.6670   18.1980  -34.1500 C   0  0  0  0  0  0  0  0  0  0  0  0
   -6.1710   18.3320  -34.2220 C   0  0  0  0  0  0  0  0  0  0  0  0
   -6.7100   18.7830  -32.9440 N   0  0  0  0  0  0  0  0  0  0  0  0
   -7.5730   19.9160  -32.8010 C   0  0  0  0  0  0  0  0  0  0  0  0
   -8.8000   19.8080  -33.0720 O   0  0  0  0  0  0  0  0  0  0  0  0
   -7.0300   21.2000  -32.2970 C   0  0  0  0  0  0  0  0  0  0  0  0
   -5.6420   21.4230  -32.2610 C   0  0  0  0  0  0  0  0  0  0  0  0
   -5.1270   22.6170  -31.7480 C   0  0  0  0  0  0  0  0  0  0  0  0
   -5.9900   23.6020  -31.2540 C   0  0  0  0  0  0  0  0  0  0  0  0
   -5.3190   25.0210  -30.4540 S   0  0  0  0  0  0  0  0  0  0  0  0
   -5.8400   25.0990  -29.0390 O   0  0  0  0  0  0  0  0  0  0  0  0
   -5.7440   26.2570  -31.2020 O   0  0  0  0  0  0  0  0  0  0  0  0
   -3.5820   24.9340  -30.4250 N   0  0  0  0  0  0  0  0  0  0  0  0
   -2.8690   24.2640  -29.3780 C   0  0  0  0  0  0  0  0  0  0  0  0
   -3.3280   23.0360  -28.8750 C   0  0  0  0  0  0  0  0  0  0  0  0
   -2.5990   22.3630  -27.8880 C   0  0  0  0  0  0  0  0  0  0  0  0
   -1.4210   22.9240  -27.3860 C   0  0  0  0  0  0  0  0  0  0  0  0
   -0.9730   24.1600  -27.8640 C   0  0  0  0  0  0  0  0  0  0  0  0
   -1.6960   24.8320  -28.8560 C   0  0  0  0  0  0  0  0  0  0  0  0
   -1.2310   26.0510  -29.3380 O   0  0  0  0  0  0  0  0  0  0  0  0
   -7.3750   23.3960  -31.3040 C   0  0  0  0  0  0  0  0  0  0  0  0
   -7.8920   22.2050  -31.8200 C   0  0  0  0  0  0  0  0  0  0  0  0
   -5.3520   15.3784  -32.7356 H   0  0  0  0  0  0  0  0  0  0  0  0
   -6.7045   15.3797  -33.9177 H   0  0  0  0  0  0  0  0  0  0  0  0
   -5.5130   14.0355  -33.9177 H   0  0  0  0  0  0  0  0  0  0  0  0
   -2.1455   15.8806  -34.3823 H   0  0  0  0  0  0  0  0  0  0  0  0
   -0.7900   17.8859  -33.8059 H   0  0  0  0  0  0  0  0  0  0  0  0
   -1.8948   20.0924  -33.4529 H   0  0  0  0  0  0  0  0  0  0  0  0
   -4.3701   20.2980  -33.6804 H   0  0  0  0  0  0  0  0  0  0  0  0
   -6.4315   19.0627  -35.0019 H   0  0  0  0  0  0  0  0  0  0  0  0
   -6.6027   17.3488  -34.4608 H   0  0  0  0  0  0  0  0  0  0  0  0
   -4.9557   20.6513  -32.6398 H   0  0  0  0  0  0  0  0  0  0  0  0
   -4.0397   22.7830  -31.7325 H   0  0  0  0  0  0  0  0  0  0  0  0
   -4.2633   22.6017  -29.2579 H   0  0  0  0  0  0  0  0  0  0  0  0
   -2.9526   21.3934  -27.5075 H   0  0  0  0  0  0  0  0  0  0  0  0
   -0.8454   22.3926  -26.6138 H   0  0  0  0  0  0  0  0  0  0  0  0
   -0.0514   24.6042  -27.4597 H   0  0  0  0  0  0  0  0  0  0  0  0
   -8.0582   24.1753  -30.9354 H   0  0  0  0  0  0  0  0  0  0  0  0
   -8.9807   22.0517  -31.8537 H   0  0  0  0  0  0  0  0  0  0  0  0
  1  2  1  0
  2  3  1  0
  3  4  2  0
  4  5  1  0
  5  6  2  0
  6  7  1  0
  7  8  2  0
  8  9  1  0
  9 10  1  0
 10 11  1  0
 11 12  2  0
 11 13  1  0
 13 14  2  0
 14 15  1  0
 15 16  2  0
 16 17  1  0
 17 18  2  0
 17 19  2  0
 17 20  1  0
 20 21  1  0
 21 22  2  0
 22 23  1  0
 23 24  2  0
 24 25  1  0
 25 26  2  0
 26 27  1  0
 16 28  1  0
 28 29  2  0
  8  3  1  0
 29 13  1  0
 26 21  1  0
  1 30  1  0
  1 31  1  0
  1 32  1  0
  4 33  1  0
  5 34  1  0
  6 35  1  0
  7 36  1  0
  9 37  1  0
  9 38  1  0
 14 39  1  0
 15 40  1  0
 22 41  1  0
 23 42  1  0
 24 43  1  0
 25 44  1  0
 28 45  1  0
 29 46  1  0
M  CHG  3  10  -1  20  -1  27  -1
M  END
>  <UniqueID>  (1) 
1

>  <SMILES>  (1) 
COc1ccccc1C[N-]C(=O)c1ccc(S(=O)(=O)[N-]c2ccccc2[O-])cc1

>  <Energy>  (1) 
55.065773579825745

>  <Genealogy>  (1) 
COc1ccccc1C[N-]C(=O)c1ccc(S(=O)(=O)[N-]c2ccccc2[O-])cc1 (protonated)
COc1ccccc1C[N-]C(=O)c1ccc(S(=O)(=O)[N-]c2ccccc2[O-])cc1 (3D coordinates assigned)
COc1ccccc1C[N-]C(=O)c1ccc(S(=O)(=O)[N-]c2ccccc2[O-])cc1 (optimized conformer: 55.065773579825745 kcal/mol)

>  <smiles>  (1) 
COc1ccccc1CNC(=O)c1ccc(S(=O)(=O)Nc2ccccc2O)cc1

>  <score_type>  (1) 
oracle

>  <origin>  (1) 
adgpu

>  <m_score__min__energy>  (1) 
-13.699999999999999

>  <m_primary>  (1) 
energy

$$$$
1:0
     RDKit          3D

 54 57  0  0  0  0  0  0  0  0999 V2000
   -3.8950   25.6080  -30.8400 O   0  0  0  0  0  0  0  0  0  0  0  0
   -4.0980   24.3270  -30.0780 S   0  0  0  0  0  0  0  0  0  0  0  0
   -5.3210   24.4720  -29.2160 O   0  0  0  0  0  0  0  0  0  0  0  0
   -4.3260   23.0040  -31.1770 N   0  0  0  0  0  0  0  0  0  0  0  0
   -5.5960   22.3980  -31.4630 C   0  0  0  0  0  0  0  0  0  0  0  0
   -5.7400   21.0060  -31.5680 C   0  0  0  0  0  0  0  0  0  0  0  0
   -6.9920   20.4370  -31.8430 C   0  0  0  0  0  0  0  0  0  0  0  0
   -8.1080   21.2700  -32.0710 C   0  0  0  0  0  0  0  0  0  0  0  0
   -7.9670   22.6590  -31.9510 C   0  0  0  0  0  0  0  0  0  0  0  0
   -6.7160   23.2240  -31.6590 C   0  0  0  0  0  0  0  0  0  0  0  0
   -6.5820   24.6080  -31.5620 O   0  0  0  0  0  0  0  0  0  0  0  0
   -9.4720   20.6780  -32.3540 C   0  0  0  0  0  0  0  0  0  0  0  0
   -9.3830   19.2980  -32.8630 N   0  0  0  0  0  0  0  0  0  0  0  0
   -8.5550   18.4670  -31.9730 C   0  0  0  0  0  0  0  0  0  0  0  0
   -7.0960   18.9390  -31.9870 C   0  0  0  0  0  0  0  0  0  0  0  0
   -2.7140   23.9620  -29.0540 C   0  0  0  0  0  0  0  0  0  0  0  0
   -2.7370   22.8720  -28.1670 C   0  0  0  0  0  0  0  0  0  0  0  0
   -1.7240   22.7200  -27.2140 C   0  0  0  0  0  0  0  0  0  0  0  0
   -0.6770   23.6540  -27.1460 C   0  0  0  0  0  0  0  0  0  0  0  0
    0.4690   23.6090  -25.8040 S   0  0  0  0  0  0  0  0  0  0  0  0
    1.8610   23.4530  -26.3460 O   0  0  0  0  0  0  0  0  0  0  0  0
    0.1710   22.4250  -24.9280 O   0  0  0  0  0  0  0  0  0  0  0  0
    0.3800   25.0810  -24.8590 N   0  0  0  0  0  0  0  0  0  0  0  0
   -1.0240   25.3660  -24.4780 C   0  0  0  0  0  0  0  0  0  0  0  0
   -1.2120   26.8340  -24.0670 C   0  0  0  0  0  0  0  0  0  0  0  0
   -0.8670   27.7880  -25.2260 C   0  0  0  0  0  0  0  0  0  0  0  0
    0.1130   27.1720  -26.2360 C   0  0  0  0  0  0  0  0  0  0  0  0
    1.0790   26.2040  -25.5350 C   0  0  0  0  0  0  0  0  0  0  0  0
   -0.6130   24.6960  -28.0860 C   0  0  0  0  0  0  0  0  0  0  0  0
   -1.6310   24.8530  -29.0290 C   0  0  0  0  0  0  0  0  0  0  0  0
   -4.8632   20.3555  -31.4334 H   0  0  0  0  0  0  0  0  0  0  0  0
   -8.8427   23.3108  -32.0866 H   0  0  0  0  0  0  0  0  0  0  0  0
   -5.7130   25.0360  -31.2670 H   0  0  0  0  0  0  0  0  0  0  0  0
  -10.0576   20.6754  -31.4228 H   0  0  0  0  0  0  0  0  0  0  0  0
   -9.9544   21.2937  -33.1274 H   0  0  0  0  0  0  0  0  0  0  0  0
   -8.9490   19.3110  -33.8240 H   0  0  0  0  0  0  0  0  0  0  0  0
   -8.9465   18.5366  -30.9474 H   0  0  0  0  0  0  0  0  0  0  0  0
   -8.5919   17.4264  -32.3277 H   0  0  0  0  0  0  0  0  0  0  0  0
   -6.5594   18.4628  -31.1532 H   0  0  0  0  0  0  0  0  0  0  0  0
   -6.6537   18.6563  -32.9537 H   0  0  0  0  0  0  0  0  0  0  0  0
   -3.5533   22.1367  -28.2222 H   0  0  0  0  0  0  0  0  0  0  0  0
   -1.7475   21.8688  -26.5177 H   0  0  0  0  0  0  0  0  0  0  0  0
   -1.6776   25.1490  -25.3357 H   0  0  0  0  0  0  0  0  0  0  0  0
   -1.2820   24.7321  -23.6169 H   0  0  0  0  0  0  0  0  0  0  0  0
   -2.2599   26.9923  -23.7724 H   0  0  0  0  0  0  0  0  0  0  0  0
   -0.5350   27.0489  -23.2271 H   0  0  0  0  0  0  0  0  0  0  0  0
   -1.7961   28.0499  -25.7534 H   0  0  0  0  0  0  0  0  0  0  0  0
   -0.3797   28.6731  -24.7910 H   0  0  0  0  0  0  0  0  0  0  0  0
   -0.4551   26.6236  -27.0019 H   0  0  0  0  0  0  0  0  0  0  0  0
    0.6973   27.9804  -26.6998 H   0  0  0  0  0  0  0  0  0  0  0  0
    1.7667   25.7884  -26.2863 H   0  0  0  0  0  0  0  0  0  0  0  0
    1.6149   26.7737  -24.7615 H   0  0  0  0  0  0  0  0  0  0  0  0
    0.2407   25.3897  -28.0793 H   0  0  0  0  0  0  0  0  0  0  0  0
   -1.5834   25.6783  -29.7547 H   0  0  0  0  0  0  0  0  0  0  0  0
  1  2  2  0
  2  3  2  0
  2  4  1  0
  4  5  1  0
  5  6  2  0
  6  7  1  0
  7  8  2  0
  8  9  1  0
  9 10  2  0
 10 11  1  0
  8 12  1  0
 12 13  1  0
 13 14  1  0
 14 15  1  0
  2 16  1  0
 16 17  2  0
 17 18  1  0
 18 19  2  0
 19 20  1  0
 20 21  2  0
 20 22  2  0
 20 23  1  0
 23 24  1  0
 24 25  1  0
 25 26  1  0
 26 27  1  0
 27 28  1  0
 19 29  1  0
 29 30  2  0
 10  5  1  0
 30 16  1  0
 15  7  1  0
 28 23  1  0
  6 31  1  0
  9 32  1  0
 11 33  1  0
 12 34  1  0
 12 35  1  0
 13 36  1  0
 14 37  1  0
 14 38  1  0
 15 39  1  0
 15 40  1  0
 17 41  1  0
 18 42  1  0
 24 43  1  0
 24 44  1  0
 25 45  1  0
 25 46  1  0
 26 47  1  0
 26 48  1  0
 27 49  1  0
 27 50  1  0
 28 51  1  0
 28 52  1  0
 29 53  1  0
 30 54  1  0
M  CHG  1   4  -1
M  END
>  <UniqueID>  (2) 
2

>  <SMILES>  (2) 
O=S(=O)([N-]c1cc2c(cc1O)CNCC2)c1ccc(S(=O)(=O)N2CCCCC2)cc1

>  <Energy>  (2) 
63.730517690694455

>  <Genealogy>  (2) 
O=S(=O)([N-]c1cc2c(cc1O)CNCC2)c1ccc(S(=O)(=O)N2CCCCC2)cc1 (protonated)
O=S(=O)([N-]c1cc2c(cc1O)CNCC2)c1ccc(S(=O)(=O)N2CCCCC2)cc1 (3D coordinates assigned)
O=S(=O)([N-]c1cc2c(cc1O)CNCC2)c1ccc(S(=O)(=O)N2CCCCC2)cc1 (nonaromatic ring conformer: 63.730517690694455 kcal/mol)

>  <smiles>  (2) 
O=S(=O)(Nc1cc2c(cc1O)CNCC2)c1ccc(S(=O)(=O)N2CCCCC2)cc1

>  <score_type>  (2) 
oracle

>  <origin>  (2) 
adgpu

>  <m_score__min__energy>  (2) 
-13.220000000000001

>  <m_primary>  (2) 
energy

$$$$
2:0
     RDKit          3D

 54 57  0  0  0  0  0  0  0  0999 V2000
    4.4760   24.5700  -26.2200 C   0  0  0  0  0  0  0  0  0  0  0  0
    3.6220   25.1490  -27.3070 C   0  0  0  0  0  0  0  0  0  0  0  0
    3.9820   24.9910  -28.5040 O   0  0  0  0  0  0  0  0  0  0  0  0
    2.3650   25.8830  -27.0080 C   0  0  0  0  0  0  0  0  0  0  0  0
    2.3870   27.0970  -26.2920 C   0  0  0  0  0  0  0  0  0  0  0  0
    3.5900   27.5970  -25.8020 O   0  0  0  0  0  0  0  0  0  0  0  0
    1.1940   27.7980  -26.0410 C   0  0  0  0  0  0  0  0  0  0  0  0
    1.2250   29.0830  -25.2540 C   0  0  0  0  0  0  0  0  0  0  0  0
   -0.0360   27.2490  -26.4470 C   0  0  0  0  0  0  0  0  0  0  0  0
   -1.2190   27.9100  -26.1270 O   0  0  0  0  0  0  0  0  0  0  0  0
   -0.0780   26.0280  -27.1520 C   0  0  0  0  0  0  0  0  0  0  0  0
   -1.3770   25.4560  -27.5890 C   0  0  0  0  0  0  0  0  0  0  0  0
   -2.2500   25.1420  -26.7340 O   0  0  0  0  0  0  0  0  0  0  0  0
   -1.6190   25.2010  -28.9790 N   0  0  0  0  0  0  0  0  0  0  0  0
   -2.3690   24.0970  -29.5110 C   0  0  0  0  0  0  0  0  0  0  0  0
   -3.4990   24.3570  -30.2930 C   0  0  0  0  0  0  0  0  0  0  0  0
   -3.8650   25.6730  -30.5640 O   0  0  0  0  0  0  0  0  0  0  0  0
   -4.2480   23.2880  -30.8060 C   0  0  0  0  0  0  0  0  0  0  0  0
   -5.3800   23.4880  -31.6130 C   0  0  0  0  0  0  0  0  0  0  0  0
   -6.0930   22.3920  -32.1060 C   0  0  0  0  0  0  0  0  0  0  0  0
   -5.6850   21.0860  -31.8020 C   0  0  0  0  0  0  0  0  0  0  0  0
   -6.6030   19.7190  -32.4240 S   0  0  0  0  0  0  0  0  0  0  0  0
   -7.8740   19.5730  -31.6320 O   0  0  0  0  0  0  0  0  0  0  0  0
   -6.9590   20.0030  -33.8580 O   0  0  0  0  0  0  0  0  0  0  0  0
   -5.6080   18.2780  -32.2800 N   0  0  0  0  0  0  0  0  0  0  0  0
   -4.5180   18.2370  -33.2720 C   0  0  0  0  0  0  0  0  0  0  0  0
   -5.0160   17.7640  -34.6460 C   0  0  0  0  0  0  0  0  0  0  0  0
   -5.6560   16.5090  -34.5430 O   0  0  0  0  0  0  0  0  0  0  0  0
   -6.7980   16.6300  -33.7200 C   0  0  0  0  0  0  0  0  0  0  0  0
   -6.3970   17.0330  -32.2920 C   0  0  0  0  0  0  0  0  0  0  0  0
   -4.5590   20.8810  -30.9920 C   0  0  0  0  0  0  0  0  0  0  0  0
   -3.8400   21.9720  -30.4950 C   0  0  0  0  0  0  0  0  0  0  0  0
   -2.7790   21.7660  -29.7210 O   0  0  0  0  0  0  0  0  0  0  0  0
   -2.0480   22.7560  -29.2170 C   0  0  0  0  0  0  0  0  0  0  0  0
   -1.0890   22.4760  -28.4510 O   0  0  0  0  0  0  0  0  0  0  0  0
    1.1300   25.3570  -27.4390 C   0  0  0  0  0  0  0  0  0  0  0  0
    1.1110   24.1810  -28.1870 O   0  0  0  0  0  0  0  0  0  0  0  0
    4.0623   24.8505  -25.2401 H   0  0  0  0  0  0  0  0  0  0  0  0
    4.4922   23.4739  -26.3110 H   0  0  0  0  0  0  0  0  0  0  0  0
    5.5002   24.9607  -26.3110 H   0  0  0  0  0  0  0  0  0  0  0  0
    1.2195   28.8542  -24.1781 H   0  0  0  0  0  0  0  0  0  0  0  0
    2.1370   29.6446  -25.5048 H   0  0  0  0  0  0  0  0  0  0  0  0
    0.3412   29.6880  -25.5048 H   0  0  0  0  0  0  0  0  0  0  0  0
   -5.7060   24.5097  -31.8575 H   0  0  0  0  0  0  0  0  0  0  0  0
   -6.9796   22.5551  -32.7363 H   0  0  0  0  0  0  0  0  0  0  0  0
   -4.0923   19.2460  -33.3754 H   0  0  0  0  0  0  0  0  0  0  0  0
   -3.7598   17.5229  -32.9182 H   0  0  0  0  0  0  0  0  0  0  0  0
   -5.7291   18.5008  -35.0443 H   0  0  0  0  0  0  0  0  0  0  0  0
   -4.1517   17.6647  -35.3192 H   0  0  0  0  0  0  0  0  0  0  0  0
   -7.4651   17.3981  -34.1383 H   0  0  0  0  0  0  0  0  0  0  0  0
   -7.3120   15.6582  -33.6825 H   0  0  0  0  0  0  0  0  0  0  0  0
   -7.3082   17.1823  -31.6942 H   0  0  0  0  0  0  0  0  0  0  0  0
   -5.7767   16.2289  -31.8693 H   0  0  0  0  0  0  0  0  0  0  0  0
   -4.2400   19.8573  -30.7466 H   0  0  0  0  0  0  0  0  0  0  0  0
  1  2  1  0
  2  3  2  0
  2  4  1  0
  4  5  2  0
  5  6  1  0
  5  7  1  0
  7  8  1  0
  7  9  2  0
  9 10  1  0
  9 11  1  0
 11 12  1  0
 12 13  2  0
 12 14  1  0
 14 15  1  0
 15 16  2  0
 16 17  1  0
 16 18  1  0
 18 19  2  0
 19 20  1  0
 20 21  2  0
 21 22  1  0
 22 23  2  0
 22 24  2  0
 22 25  1  0
 25 26  1  0
 26 27  1  0
 27 28  1  0
 28 29  1  0
 29 30  1  0
 21 31  1  0
 31 32  2  0
 32 33  1  0
 33 34  1  0
 34 35  2  0
 11 36  2  0
 36 37  1  0
 36  4  1  0
 34 15  1  0
 32 18  1  0
 30 25  1  0
  1 38  1  0
  1 39  1  0
  1 40  1  0
  8 41  1  0
  8 42  1  0
  8 43  1  0
 19 44  1  0
 20 45  1  0
 26 46  1  0
 26 47  1  0
 27 48  1  0
 27 49  1  0
 29 50  1  0
 29 51  1  0
 30 52  1  0
 30 53  1  0
 31 54  1  0
M  CHG  5   6  -1  10  -1  14  -1  17  -1  37  -1
M  END
>  <UniqueID>  (3) 
3

>  <SMILES>  (3) 
CC(=O)c1c([O-])c(C)c([O-])c(C(=O)[N-]c2c([O-])c3ccc(S(=O)(=O)N4CCOCC4)cc3oc2=O)c1[O-]

>  <Energy>  (3) 
85.93728193120899

>  <Genealogy>  (3) 
CC(=O)c1c([O-])c(C)c([O-])c(C(=O)[N-]c2c([O-])c3ccc(S(=O)(=O)N4CCOCC4)cc3oc2=O)c1[O-] (protonated)
CC(=O)c1c([O-])c(C)c([O-])c(C(=O)[N-]c2c([O-])c3ccc(S(=O)(=O)N4CCOCC4)cc3oc2=O)c1[O-] (3D coordinates assigned)
CC(=O)c1c([O-])c(C)c([O-])c(C(=O)[N-]c2c([O-])c3ccc(S(=O)(=O)N4CCOCC4)cc3oc2=O)c1[O-] (nonaromatic ring conformer: 85.93728193120899 kcal/mol)

>  <smiles>  (3) 
CC(=O)c1c(O)c(C)c(O)c(C(=O)Nc2c(O)c3ccc(S(=O)(=O)N4CCOCC4)cc3oc2=O)c1O

>  <score_type>  (3) 
oracle

>  <origin>  (3) 
adgpu

>  <m_score__min__energy>  (3) 
-13.23

>  <m_primary>  (3) 
energy

$$$$
3:0
     RDKit          3D

 63 66  0  0  0  0  0  0  0  0999 V2000
   -8.4910   18.5120  -31.9830 C   0  0  0  0  0  0  0  0  0  0  0  0
   -7.0300   18.3820  -32.4600 C   0  0  0  0  0  0  0  0  0  0  0  0
   -6.1340   18.1020  -31.2360 C   0  0  0  0  0  0  0  0  0  0  0  0
   -6.9300   17.2010  -33.4470 C   0  0  0  0  0  0  0  0  0  0  0  0
   -6.6140   19.7030  -33.1660 C   0  0  0  0  0  0  0  0  0  0  0  0
   -5.7260   20.5230  -32.3040 N   0  0  0  0  0  0  0  0  0  0  0  0
   -6.4700   21.4180  -31.3760 C   0  0  0  0  0  0  0  0  0  0  0  0
   -6.4350   22.8890  -31.8160 C   0  0  0  0  0  0  0  0  0  0  0  0
   -4.9850   23.4170  -31.9040 C   0  0  0  0  0  0  0  0  0  0  0  0
   -4.4620   24.2960  -30.4140 S   0  0  0  0  0  0  0  0  0  0  0  0
   -4.0200   25.6680  -30.8390 O   0  0  0  0  0  0  0  0  0  0  0  0
   -5.6320   24.4910  -29.4910 O   0  0  0  0  0  0  0  0  0  0  0  0
   -3.1130   23.4950  -29.5570 C   0  0  0  0  0  0  0  0  0  0  0  0
   -2.0310   24.2860  -29.1040 C   0  0  0  0  0  0  0  0  0  0  0  0
   -1.9950   25.6570  -29.3380 O   0  0  0  0  0  0  0  0  0  0  0  0
   -0.9610   23.7060  -28.4250 C   0  0  0  0  0  0  0  0  0  0  0  0
   -0.9480   22.3410  -28.1670 C   0  0  0  0  0  0  0  0  0  0  0  0
   -2.0110   21.5350  -28.5740 C   0  0  0  0  0  0  0  0  0  0  0  0
   -1.9390   20.1290  -28.2930 N   0  0  0  0  0  0  0  0  0  0  0  0
   -0.7370   19.3510  -28.2480 C   0  0  0  0  0  0  0  0  0  0  0  0
   -0.4380   18.7250  -27.1960 O   0  0  0  0  0  0  0  0  0  0  0  0
    0.1800   19.3470  -29.4120 C   0  0  0  0  0  0  0  0  0  0  0  0
    1.5340   18.9660  -29.2460 C   0  0  0  0  0  0  0  0  0  0  0  0
    2.4200   18.9340  -30.3420 C   0  0  0  0  0  0  0  0  0  0  0  0
    1.9780   19.2870  -31.6260 C   0  0  0  0  0  0  0  0  0  0  0  0
    0.6490   19.6670  -31.7720 C   0  0  0  0  0  0  0  0  0  0  0  0
   -0.0280   20.0870  -32.8950 C   0  0  0  0  0  0  0  0  0  0  0  0
   -1.3130   20.3720  -32.4560 C   0  0  0  0  0  0  0  0  0  0  0  0
   -1.4310   20.1420  -31.1290 N   0  0  0  0  0  0  0  0  0  0  0  0
   -0.2270   19.7020  -30.7140 C   0  0  0  0  0  0  0  0  0  0  0  0
   -3.0810   22.0940  -29.3080 C   0  0  0  0  0  0  0  0  0  0  0  0
   -4.0550   21.2220  -29.8000 O   0  0  0  0  0  0  0  0  0  0  0  0
   -3.9840   22.3000  -32.2750 C   0  0  0  0  0  0  0  0  0  0  0  0
   -4.6710   21.2040  -33.0950 C   0  0  0  0  0  0  0  0  0  0  0  0
   -8.5188   18.5145  -30.8834 H   0  0  0  0  0  0  0  0  0  0  0  0
   -8.9185   19.4517  -32.3627 H   0  0  0  0  0  0  0  0  0  0  0  0
   -9.0777   17.6625  -32.3627 H   0  0  0  0  0  0  0  0  0  0  0  0
   -6.7065   18.2809  -30.3139 H   0  0  0  0  0  0  0  0  0  0  0  0
   -5.7962   17.0554  -31.2606 H   0  0  0  0  0  0  0  0  0  0  0  0
   -5.2604   18.7700  -31.2606 H   0  0  0  0  0  0  0  0  0  0  0  0
   -6.8502   16.2590  -32.8847 H   0  0  0  0  0  0  0  0  0  0  0  0
   -7.8292   17.1751  -34.0801 H   0  0  0  0  0  0  0  0  0  0  0  0
   -6.0393   17.3267  -34.0801 H   0  0  0  0  0  0  0  0  0  0  0  0
   -6.0822   19.4586  -34.0974 H   0  0  0  0  0  0  0  0  0  0  0  0
   -7.5241   20.2839  -33.3763 H   0  0  0  0  0  0  0  0  0  0  0  0
   -7.5185   21.0881  -31.3340 H   0  0  0  0  0  0  0  0  0  0  0  0
   -5.9837   21.3540  -30.3914 H   0  0  0  0  0  0  0  0  0  0  0  0
   -6.9090   22.9782  -32.8046 H   0  0  0  0  0  0  0  0  0  0  0  0
   -6.9764   23.4870  -31.0681 H   0  0  0  0  0  0  0  0  0  0  0  0
   -4.9839   24.1536  -32.7210 H   0  0  0  0  0  0  0  0  0  0  0  0
   -0.1212   24.3332  -28.0912 H   0  0  0  0  0  0  0  0  0  0  0  0
   -0.0938   21.8929  -27.6383 H   0  0  0  0  0  0  0  0  0  0  0  0
    1.9001   18.6907  -28.2459 H   0  0  0  0  0  0  0  0  0  0  0  0
    3.4661   18.6299  -30.1894 H   0  0  0  0  0  0  0  0  0  0  0  0
    2.6605   19.2638  -32.4884 H   0  0  0  0  0  0  0  0  0  0  0  0
    0.3648   20.1771  -33.9185 H   0  0  0  0  0  0  0  0  0  0  0  0
   -2.1263   20.7361  -33.1009 H   0  0  0  0  0  0  0  0  0  0  0  0
   -2.2920   20.3080  -30.5640 H   0  0  0  0  0  0  0  0  0  0  0  0
   -4.0200   20.2210  -29.7210 H   0  0  0  0  0  0  0  0  0  0  0  0
   -3.1640   22.7327  -32.8669 H   0  0  0  0  0  0  0  0  0  0  0  0
   -3.5937   21.8544  -31.3481 H   0  0  0  0  0  0  0  0  0  0  0  0
   -5.1277   21.6567  -33.9874 H   0  0  0  0  0  0  0  0  0  0  0  0
   -3.9150   20.4583  -33.3819 H   0  0  0  0  0  0  0  0  0  0  0  0
  1  2  1  0
  2  3  1  0
  2  4  1  0
  2  5  1  0
  5  6  1  0
  6  7  1  0
  7  8  1  0
  8  9  1  0
  9 10  1  0
 10 11  2  0
 10 12  2  0
 10 13  1  0
 13 14  2  0
 14 15  1  0
 14 16  1  0
 16 17  2  0
 17 18  1  0
 18 19  1  0
 19 20  1  0
 20 21  2  0
 20 22  1  0
 22 23  2  0
 23 24  1  0
 24 25  2  0
 25 26  1  0
 26 27  1  0
 27 28  2  0
 28 29  1  0
 29 30  1  0
 18 31  2  0
 31 32  1  0
  9 33  1  0
 33 34  1  0
 34  6  1  0
 31 13  1  0
 30 22  1  0
 30 26  2  0
  1 35  1  0
  1 36  1  0
  1 37  1  0
  3 38  1  0
  3 39  1  0
  3 40  1  0
  4 41  1  0
  4 42  1  0
  4 43  1  0
  5 44  1  0
  5 45  1  0
  7 46  1  0
  7 47  1  0
  8 48  1  0
  8 49  1  0
  9 50  1  0
 16 51  1  0
 17 52  1  0
 23 53  1  0
 24 54  1  0
 25 55  1  0
 27 56  1  0
 28 57  1  0
 29 58  1  0
 32 59  1  0
 33 60  1  0
 33 61  1  0
 34 62  1  0
 34 63  1  0
M  CHG  2  15  -1  19  -1
M  END
>  <UniqueID>  (4) 
4

>  <SMILES>  (4) 
CC(C)(C)CN1CCC(S(=O)(=O)c2c([O-])ccc([N-]C(=O)c3cccc4cc[nH]c34)c2O)CC1

>  <Energy>  (4) 
115.54467899610785

>  <Genealogy>  (4) 
CC(C)(C)CN1CCC(S(=O)(=O)c2c([O-])ccc([N-]C(=O)c3cccc4cc[nH]c34)c2O)CC1 (protonated)
CC(C)(C)CN1CCC(S(=O)(=O)c2c([O-])ccc([N-]C(=O)c3cccc4cc[nH]c34)c2O)CC1 (3D coordinates assigned)
CC(C)(C)CN1CCC(S(=O)(=O)c2c([O-])ccc([N-]C(=O)c3cccc4cc[nH]c34)c2O)CC1 (nonaromatic ring conformer: 115.54467899610785 kcal/mol)

>  <smiles>  (4) 
CC(C)(C)CN1CCC(S(=O)(=O)c2c(O)ccc(NC(=O)c3cccc4cc[nH]c34)c2O)CC1

>  <score_type>  (4) 
oracle

>  <origin>  (4) 
adgpu

>  <m_score__min__energy>  (4) 
-12.81

>  <m_primary>  (4) 
energy

$$$$
4:0
     RDKit          3D

 51 53  0  0  0  0  0  0  0  0999 V2000
   -1.1840   26.1420  -28.9960 N   0  0  0  0  0  0  0  0  0  0  0  0
   -1.5410   24.5560  -28.4050 S   0  0  0  0  0  0  0  0  0  0  0  0
   -0.5300   23.5870  -28.9540 O   0  0  0  0  0  0  0  0  0  0  0  0
   -1.4570   24.5710  -26.9030 O   0  0  0  0  0  0  0  0  0  0  0  0
   -3.1570   24.0640  -28.9060 C   0  0  0  0  0  0  0  0  0  0  0  0
   -3.8680   24.8170  -29.8480 C   0  0  0  0  0  0  0  0  0  0  0  0
   -5.1410   24.4130  -30.2610 C   0  0  0  0  0  0  0  0  0  0  0  0
   -5.7080   23.2230  -29.7630 C   0  0  0  0  0  0  0  0  0  0  0  0
   -6.9920   22.7470  -30.2100 N   0  0  0  0  0  0  0  0  0  0  0  0
   -7.3430   22.3220  -31.8570 S   0  0  0  0  0  0  0  0  0  0  0  0
   -6.1540   22.6620  -32.7120 O   0  0  0  0  0  0  0  0  0  0  0  0
   -8.5300   23.1100  -32.3340 O   0  0  0  0  0  0  0  0  0  0  0  0
   -7.7230   20.6060  -31.9690 C   0  0  0  0  0  0  0  0  0  0  0  0
   -8.8670   20.1080  -31.3320 C   0  0  0  0  0  0  0  0  0  0  0  0
   -9.1080   18.7340  -31.3020 C   0  0  0  0  0  0  0  0  0  0  0  0
   -8.2070   17.8500  -31.9020 C   0  0  0  0  0  0  0  0  0  0  0  0
   -7.0640   18.3420  -32.5560 C   0  0  0  0  0  0  0  0  0  0  0  0
   -6.1010   17.4660  -33.1550 N   0  0  0  0  0  0  0  0  0  0  0  0
   -5.0780   17.9170  -34.4780 S   0  0  0  0  0  0  0  0  0  0  0  0
   -4.7480   16.7070  -35.3060 O   0  0  0  0  0  0  0  0  0  0  0  0
   -5.7990   18.9120  -35.3430 O   0  0  0  0  0  0  0  0  0  0  0  0
   -3.6240   18.6740  -33.8360 C   0  0  0  0  0  0  0  0  0  0  0  0
   -2.3910   18.0100  -33.8750 C   0  0  0  0  0  0  0  0  0  0  0  0
   -1.2570   18.6070  -33.3190 C   0  0  0  0  0  0  0  0  0  0  0  0
   -1.3460   19.8700  -32.7280 C   0  0  0  0  0  0  0  0  0  0  0  0
   -2.5760   20.5510  -32.6850 C   0  0  0  0  0  0  0  0  0  0  0  0
   -2.6800   21.8950  -32.0660 C   0  0  0  0  0  0  0  0  0  0  0  0
   -1.6990   22.3210  -31.1120 N   0  0  0  0  0  0  0  0  0  0  0  0
   -3.6670   22.6890  -32.3650 N   0  0  0  0  0  0  0  0  0  0  0  0
   -3.7130   19.9380  -33.2380 C   0  0  0  0  0  0  0  0  0  0  0  0
   -6.8400   19.7220  -32.6040 C   0  0  0  0  0  0  0  0  0  0  0  0
   -4.9950   22.4810  -28.8060 C   0  0  0  0  0  0  0  0  0  0  0  0
   -3.7280   22.8960  -28.3830 C   0  0  0  0  0  0  0  0  0  0  0  0
   -1.1920   26.0940  -30.0390 H   0  0  0  0  0  0  0  0  0  0  0  0
   -3.4224   25.7319  -30.2656 H   0  0  0  0  0  0  0  0  0  0  0  0
   -5.7035   25.0278  -30.9791 H   0  0  0  0  0  0  0  0  0  0  0  0
   -7.7250   22.5250  -29.4980 H   0  0  0  0  0  0  0  0  0  0  0  0
   -9.5759   20.8008  -30.8550 H   0  0  0  0  0  0  0  0  0  0  0  0
  -10.0092   18.3457  -30.8050 H   0  0  0  0  0  0  0  0  0  0  0  0
   -8.3927   16.7665  -31.8624 H   0  0  0  0  0  0  0  0  0  0  0  0
   -2.3158   17.0178  -34.3438 H   0  0  0  0  0  0  0  0  0  0  0  0
   -0.2912   18.0813  -33.3465 H   0  0  0  0  0  0  0  0  0  0  0  0
   -0.4485   20.3346  -32.2936 H   0  0  0  0  0  0  0  0  0  0  0  0
   -1.8060   23.2280  -30.6020 H   0  0  0  0  0  0  0  0  0  0  0  0
   -0.8440   21.7490  -30.9320 H   0  0  0  0  0  0  0  0  0  0  0  0
   -4.4230   22.3990  -33.0230 H   0  0  0  0  0  0  0  0  0  0  0  0
   -3.7390   23.6370  -31.9320 H   0  0  0  0  0  0  0  0  0  0  0  0
   -4.6829   20.4557  -33.2011 H   0  0  0  0  0  0  0  0  0  0  0  0
   -5.9658   20.1156  -33.1432 H   0  0  0  0  0  0  0  0  0  0  0  0
   -5.4372   21.5657  -28.3858 H   0  0  0  0  0  0  0  0  0  0  0  0
   -3.1779   22.3035  -27.6372 H   0  0  0  0  0  0  0  0  0  0  0  0
  1  2  1  0
  2  3  2  0
  2  4  2  0
  2  5  1  0
  5  6  2  0
  6  7  1  0
  7  8  2  0
  8  9  1  0
  9 10  1  0
 10 11  2  0
 10 12  2  0
 10 13  1  0
 13 14  2  0
 14 15  1  0
 15 16  2  0
 16 17  1  0
 17 18  1  0
 18 19  1  0
 19 20  2  0
 19 21  2  0
 19 22  1  0
 22 23  2  0
 23 24  1  0
 24 25  2  0
 25 26  1  0
 26 27  1  0
 27 28  1  0
 27 29  2  0
 26 30  2  0
 17 31  2  0
  8 32  1  0
 32 33  2  0
 33  5  1  0
 31 13  1  0
 30 22  1  0
  1 34  1  0
  6 35  1  0
  7 36  1  0
  9 37  1  0
 14 38  1  0
 15 39  1  0
 16 40  1  0
 23 41  1  0
 24 42  1  0
 25 43  1  0
 28 44  1  0
 28 45  1  0
 29 46  1  0
 29 47  1  0
 30 48  1  0
 31 49  1  0
 32 50  1  0
 33 51  1  0
M  CHG  3   1  -1  18  -1  29   1
M  END
>  <UniqueID>  (5) 
5

>  <SMILES>  (5) 
[NH-]S(=O)(=O)c1ccc(NS(=O)(=O)c2cccc([N-]S(=O)(=O)c3cccc(C(N)=[NH2+])c3)c2)cc1

>  <Energy>  (5) 
58.898585002680974

>  <Genealogy>  (5) 
[NH-]S(=O)(=O)c1ccc(NS(=O)(=O)c2cccc([N-]S(=O)(=O)c3cccc(C(N)=[NH2+])c3)c2)cc1 (protonated)
[NH-]S(=O)(=O)c1ccc(NS(=O)(=O)c2cccc([N-]S(=O)(=O)c3cccc(C(N)=[NH2+])c3)c2)cc1 (3D coordinates assigned)
[NH-]S(=O)(=O)c1ccc(NS(=O)(=O)c2cccc([N-]S(=O)(=O)c3cccc(C(N)=[NH2+])c3)c2)cc1 (optimized conformer: 58.898585002680974 kcal/mol)

>  <smiles>  (5) 
N=C(N)c1cccc(S(=O)(=O)Nc2cccc(S(=O)(=O)Nc3ccc(S(N)(=O)=O)cc3)c2)c1

>  <score_type>  (5) 
oracle

>  <origin>  (5) 
adgpu

>  <m_score__min__energy>  (5) 
-12.52

>  <m_primary>  (5) 
energy

$$$$
5:0
     RDKit          3D

 26 29  0  0  0  0  0  0  0  0999 V2000
   -4.2160   23.9590  -26.7240 O   0  0  0  0  0  0  0  0  0  0  0  0
   -3.3250   24.5530  -27.3900 C   0  0  0  0  0  0  0  0  0  0  0  0
   -2.2730   25.2700  -26.8790 C   0  0  0  0  0  0  0  0  0  0  0  0
   -1.8580   25.5670  -25.5860 C   0  0  0  0  0  0  0  0  0  0  0  0
   -0.6980   26.3530  -25.4610 C   0  0  0  0  0  0  0  0  0  0  0  0
   -0.0290   26.7900  -26.5770 N   0  0  0  0  0  0  0  0  0  0  0  0
   -0.4510   26.4880  -27.8420 C   0  0  0  0  0  0  0  0  0  0  0  0
   -1.5970   25.7130  -27.9790 C   0  0  0  0  0  0  0  0  0  0  0  0
   -2.1930   25.2950  -29.1140 N   0  0  0  0  0  0  0  0  0  0  0  0
   -3.2540   24.5830  -28.7430 N   0  0  0  0  0  0  0  0  0  0  0  0
   -4.1540   23.9630  -29.6690 C   0  0  0  0  0  0  0  0  0  0  0  0
   -3.8690   22.8120  -30.3280 N   0  0  0  0  0  0  0  0  0  0  0  0
   -4.8970   22.4540  -31.1380 C   0  0  0  0  0  0  0  0  0  0  0  0
   -4.9050   21.3160  -31.9470 C   0  0  0  0  0  0  0  0  0  0  0  0
   -6.0360   21.0610  -32.7420 C   0  0  0  0  0  0  0  0  0  0  0  0
   -7.1370   21.9380  -32.7200 C   0  0  0  0  0  0  0  0  0  0  0  0
   -7.1190   23.0810  -31.9030 C   0  0  0  0  0  0  0  0  0  0  0  0
   -5.9870   23.3120  -31.1260 C   0  0  0  0  0  0  0  0  0  0  0  0
   -5.6840   24.5780  -30.0660 S   0  0  0  0  0  0  0  0  0  0  0  0
   -2.4088   25.2057  -24.7051 H   0  0  0  0  0  0  0  0  0  0  0  0
   -0.3243   26.6194  -24.4613 H   0  0  0  0  0  0  0  0  0  0  0  0
    0.0993   26.8472  -28.7241 H   0  0  0  0  0  0  0  0  0  0  0  0
   -4.0433   20.6325  -31.9620 H   0  0  0  0  0  0  0  0  0  0  0  0
   -6.0609   20.1696  -33.3860 H   0  0  0  0  0  0  0  0  0  0  0  0
   -8.0165   21.7272  -33.3461 H   0  0  0  0  0  0  0  0  0  0  0  0
   -7.9739   23.7728  -31.8780 H   0  0  0  0  0  0  0  0  0  0  0  0
  1  2  2  0
  2  3  1  0
  3  4  2  0
  4  5  1  0
  5  6  2  0
  6  7  1  0
  7  8  2  0
  8  9  1  0
  9 10  1  0
 10 11  1  0
 11 12  2  0
 12 13  1  0
 13 14  2  0
 14 15  1  0
 15 16  2  0
 16 17  1  0
 17 18  2  0
 18 19  1  0
 10  2  1  0
 19 11  1  0
  8  3  1  0
 18 13  1  0
  4 20  1  0
  5 21  1  0
  7 22  1  0
 14 23  1  0
 15 24  1  0
 16 25  1  0
 17 26  1  0
M  CHG  1   9  -1
M  END
>  <UniqueID>  (6) 
6

>  <SMILES>  (6) 
O=c1c2ccncc2[n-]n1-c1nc2ccccc2s1

>  <Energy>  (6) 
108.6444176061189

>  <Genealogy>  (6) 
O=c1c2ccncc2[n-]n1-c1nc2ccccc2s1 (protonated)
O=c1c2ccncc2[n-]n1-c1nc2ccccc2s1 (3D coordinates assigned)
O=c1c2ccncc2[n-]n1-c1nc2ccccc2s1 (optimized conformer: 108.6444176061189 kcal/mol)

>  <smiles>  (6) 
O=c1c2ccncc2[nH]n1-c1nc2ccccc2s1

>  <score_type>  (6) 
oracle

>  <origin>  (6) 
adgpu

>  <m_score__min__energy>  (6) 
-7.9199999999999999

>  <m_primary>  (6) 
energy

$$$$
6:0
     RDKit          3D

 62 65  0  0  0  0  0  0  0  0999 V2000
   -1.4650   20.7520  -34.1940 C   0  0  0  0  0  0  0  0  0  0  0  0
   -1.2150   19.5240  -33.3670 C   0  0  0  0  0  0  0  0  0  0  0  0
   -0.0650   19.4270  -32.5770 C   0  0  0  0  0  0  0  0  0  0  0  0
    0.1720   18.2610  -31.8540 C   0  0  0  0  0  0  0  0  0  0  0  0
   -0.7060   17.2280  -31.9210 N   0  0  0  0  0  0  0  0  0  0  0  0
   -1.8360   17.2720  -32.6780 C   0  0  0  0  0  0  0  0  0  0  0  0
   -2.6110   16.2200  -32.6700 N   0  0  0  0  0  0  0  0  0  0  0  0
   -3.8740   15.9590  -33.3130 C   0  0  0  0  0  0  0  0  0  0  0  0
   -4.1840   14.8030  -33.7050 O   0  0  0  0  0  0  0  0  0  0  0  0
   -4.8060   17.0830  -33.5710 C   0  0  0  0  0  0  0  0  0  0  0  0
   -4.6830   17.8600  -34.7390 C   0  0  0  0  0  0  0  0  0  0  0  0
   -5.5480   18.9320  -34.9740 C   0  0  0  0  0  0  0  0  0  0  0  0
   -6.5400   19.2460  -34.0460 C   0  0  0  0  0  0  0  0  0  0  0  0
   -6.6740   18.4880  -32.8790 C   0  0  0  0  0  0  0  0  0  0  0  0
   -7.9100   18.9370  -31.6610 S   0  0  0  0  0  0  0  0  0  0  0  0
   -7.0880   20.4830  -31.2830 C   0  0  0  0  0  0  0  0  0  0  0  0
   -7.8390   21.6280  -31.0180 C   0  0  0  0  0  0  0  0  0  0  0  0
   -7.2010   22.8210  -30.6770 C   0  0  0  0  0  0  0  0  0  0  0  0
   -5.8020   22.8780  -30.5610 C   0  0  0  0  0  0  0  0  0  0  0  0
   -5.0520   24.4410  -30.2020 S   0  0  0  0  0  0  0  0  0  0  0  0
   -3.4930   24.5240  -30.9450 N   0  0  0  0  0  0  0  0  0  0  0  0
   -5.9180   25.5620  -30.7040 O   0  0  0  0  0  0  0  0  0  0  0  0
   -4.8970   24.5970  -28.7160 O   0  0  0  0  0  0  0  0  0  0  0  0
   -5.0450   21.6990  -30.7720 C   0  0  0  0  0  0  0  0  0  0  0  0
   -3.5880   21.6210  -30.5310 C   0  0  0  0  0  0  0  0  0  0  0  0
   -2.8990   20.9650  -31.3630 O   0  0  0  0  0  0  0  0  0  0  0  0
   -2.9400   22.3140  -29.4220 N   0  0  0  0  0  0  0  0  0  0  0  0
   -3.3230   21.7870  -28.0870 C   0  0  0  0  0  0  0  0  0  0  0  0
   -2.7120   20.4020  -27.8160 C   0  0  0  0  0  0  0  0  0  0  0  0
   -1.2460   20.4650  -27.9300 N   0  0  0  0  0  0  0  0  0  0  0  0
   -0.6600   19.1410  -27.6680 C   0  0  0  0  0  0  0  0  0  0  0  0
   -0.8640   20.9270  -29.2770 C   0  0  0  0  0  0  0  0  0  0  0  0
   -1.4620   22.3190  -29.5450 C   0  0  0  0  0  0  0  0  0  0  0  0
   -5.6960   20.5290  -31.1890 C   0  0  0  0  0  0  0  0  0  0  0  0
   -5.8180   17.4030  -32.6460 C   0  0  0  0  0  0  0  0  0  0  0  0
   -2.0980   18.4360  -33.4360 C   0  0  0  0  0  0  0  0  0  0  0  0
   -1.6400   21.6116  -33.5304 H   0  0  0  0  0  0  0  0  0  0  0  0
   -0.5890   20.9512  -34.8288 H   0  0  0  0  0  0  0  0  0  0  0  0
   -2.3492   20.5928  -34.8288 H   0  0  0  0  0  0  0  0  0  0  0  0
    0.6461   20.2647  -32.5273 H   0  0  0  0  0  0  0  0  0  0  0  0
    1.0722   18.1768  -31.2275 H   0  0  0  0  0  0  0  0  0  0  0  0
   -3.8991   17.6210  -35.4728 H   0  0  0  0  0  0  0  0  0  0  0  0
   -5.4461   19.5289  -35.8923 H   0  0  0  0  0  0  0  0  0  0  0  0
   -7.2184   20.0916  -34.2324 H   0  0  0  0  0  0  0  0  0  0  0  0
   -8.9367   21.5904  -31.0780 H   0  0  0  0  0  0  0  0  0  0  0  0
   -7.7995   23.7263  -30.4971 H   0  0  0  0  0  0  0  0  0  0  0  0
   -2.9530   25.2610  -30.4400 H   0  0  0  0  0  0  0  0  0  0  0  0
   -3.2470   23.3130  -29.4660 H   0  0  0  0  0  0  0  0  0  0  0  0
   -2.9715   22.4872  -27.3149 H   0  0  0  0  0  0  0  0  0  0  0  0
   -4.4180   21.6851  -28.0639 H   0  0  0  0  0  0  0  0  0  0  0  0
   -2.9844   20.0764  -26.8012 H   0  0  0  0  0  0  0  0  0  0  0  0
   -3.1003   19.6862  -28.5555 H   0  0  0  0  0  0  0  0  0  0  0  0
   -0.5887   18.9799  -26.5822 H   0  0  0  0  0  0  0  0  0  0  0  0
   -1.2979   18.3631  -28.1130 H   0  0  0  0  0  0  0  0  0  0  0  0
    0.3447   19.0901  -28.1130 H   0  0  0  0  0  0  0  0  0  0  0  0
    0.2325   20.9821  -29.3459 H   0  0  0  0  0  0  0  0  0  0  0  0
   -1.2496   20.2183  -30.0247 H   0  0  0  0  0  0  0  0  0  0  0  0
   -1.0462   23.0317  -28.8176 H   0  0  0  0  0  0  0  0  0  0  0  0
   -1.2045   22.6105  -30.5739 H   0  0  0  0  0  0  0  0  0  0  0  0
   -5.1035   19.6382  -31.4447 H   0  0  0  0  0  0  0  0  0  0  0  0
   -5.9375   16.7980  -31.7352 H   0  0  0  0  0  0  0  0  0  0  0  0
   -2.9903   18.4885  -34.0771 H   0  0  0  0  0  0  0  0  0  0  0  0
  1  2  1  0
  2  3  1  0
  3  4  2  0
  4  5  1  0
  5  6  1  0
  6  7  2  3
  7  8  1  0
  8  9  2  0
  8 10  1  0
 10 11  2  0
 11 12  1  0
 12 13  2  0
 13 14  1  0
 14 15  1  0
 15 16  1  0
 16 17  2  0
 17 18  1  0
 18 19  2  0
 19 20  1  0
 20 21  1  0
 20 22  2  0
 20 23  2  0
 19 24  1  0
 24 25  1  0
 25 26  2  0
 25 27  1  0
 27 28  1  0
 28 29  1  0
 29 30  1  0
 30 31  1  0
 30 32  1  0
 32 33  1  0
 24 34  2  0
 14 35  2  0
  6 36  1  0
 36  2  2  0
 35 10  1  0
 34 16  1  0
 33 27  1  0
  1 37  1  0
  1 38  1  0
  1 39  1  0
  3 40  1  0
  4 41  1  0
 11 42  1  0
 12 43  1  0
 13 44  1  0
 17 45  1  0
 18 46  1  0
 21 47  1  0
 27 48  1  0
 28 49  1  0
 28 50  1  0
 29 51  1  0
 29 52  1  0
 31 53  1  0
 31 54  1  0
 31 55  1  0
 32 56  1  0
 32 57  1  0
 33 58  1  0
 33 59  1  0
 34 60  1  0
 35 61  1  0
 36 62  1  0
M  CHG  3   5  -1  21  -1  27   1
M  END
>  <UniqueID>  (7) 
7

>  <SMILES>  (7) 
Cc1cc[n-]c(=NC(=O)c2cccc(Sc3ccc(S([NH-])(=O)=O)c(C(=O)[NH+]4CCN(C)CC4)c3)c2)c1

>  <Energy>  (7) 
81.56755459574859

>  <Genealogy>  (7) 
Cc1cc[n-]c(=NC(=O)c2cccc(Sc3ccc(S([NH-])(=O)=O)c(C(=O)[NH+]4CCN(C)CC4)c3)c2)c1 (protonated)
Cc1cc[n-]c(=NC(=O)c2cccc(Sc3ccc(S([NH-])(=O)=O)c(C(=O)[NH+]4CCN(C)CC4)c3)c2)c1 (3D coordinates assigned)
Cc1cc[n-]c(=NC(=O)c2cccc(Sc3ccc(S([NH-])(=O)=O)c(C(=O)[NH+]4CCN(C)CC4)c3)c2)c1 (nonaromatic ring conformer: 81.56755459574859 kcal/mol)

>  <smiles>  (7) 
Cc1cc[nH]c(=NC(=O)c2cccc(Sc3ccc(S(N)(=O)=O)c(C(=O)N4CCN(C)CC4)c3)c2)c1

>  <score_type>  (7) 
oracle

>  <origin>  (7) 
adgpu

>  <m_score__min__energy>  (7) 
-11.890000000000001

>  <m_primary>  (7) 
energy

$$$$
7:0
     RDKit          3D

 46 48  0  0  0  0  0  0  0  0999 V2000
   -1.4730   25.6700  -29.3290 N   0  0  0  0  0  0  0  0  0  0  0  0
   -0.9110   24.8860  -27.8940 S   0  0  0  0  0  0  0  0  0  0  0  0
    0.5840   24.7570  -27.9760 O   0  0  0  0  0  0  0  0  0  0  0  0
   -1.2800   25.7260  -26.7030 O   0  0  0  0  0  0  0  0  0  0  0  0
   -1.6400   23.2830  -27.7310 C   0  0  0  0  0  0  0  0  0  0  0  0
   -0.8520   22.2170  -27.2670 C   0  0  0  0  0  0  0  0  0  0  0  0
   -1.4080   20.9510  -27.0820 C   0  0  0  0  0  0  0  0  0  0  0  0
   -2.7560   20.7310  -27.3630 C   0  0  0  0  0  0  0  0  0  0  0  0
   -3.5500   21.7760  -27.8370 C   0  0  0  0  0  0  0  0  0  0  0  0
   -3.0060   23.0610  -28.0260 C   0  0  0  0  0  0  0  0  0  0  0  0
   -3.8360   24.1200  -28.5290 N   0  0  0  0  0  0  0  0  0  0  0  0
   -4.4250   24.1270  -30.1580 S   0  0  0  0  0  0  0  0  0  0  0  0
   -5.9280   24.1080  -30.1480 O   0  0  0  0  0  0  0  0  0  0  0  0
   -3.9610   25.3740  -30.8570 O   0  0  0  0  0  0  0  0  0  0  0  0
   -3.8490   22.6870  -30.9940 C   0  0  0  0  0  0  0  0  0  0  0  0
   -2.4770   22.5220  -31.2200 C   0  0  0  0  0  0  0  0  0  0  0  0
   -2.0110   21.4080  -31.9210 C   0  0  0  0  0  0  0  0  0  0  0  0
   -2.9110   20.4540  -32.4010 C   0  0  0  0  0  0  0  0  0  0  0  0
   -4.2870   20.6070  -32.1780 C   0  0  0  0  0  0  0  0  0  0  0  0
   -5.4310   19.4150  -32.8050 S   0  0  0  0  0  0  0  0  0  0  0  0
   -4.8090   18.0490  -32.7180 O   0  0  0  0  0  0  0  0  0  0  0  0
   -5.7010   19.7110  -34.2550 O   0  0  0  0  0  0  0  0  0  0  0  0
   -6.9460   19.4050  -31.9340 N   0  0  0  0  0  0  0  0  0  0  0  0
   -7.7990   20.5320  -32.3040 C   0  0  0  0  0  0  0  0  0  0  0  0
   -9.2290   20.0990  -32.0160 C   0  0  0  0  0  0  0  0  0  0  0  0
   -9.1860   18.5800  -31.9540 C   0  0  0  0  0  0  0  0  0  0  0  0
   -7.7340   18.2070  -32.2150 C   0  0  0  0  0  0  0  0  0  0  0  0
   -4.7520   21.7320  -31.4800 C   0  0  0  0  0  0  0  0  0  0  0  0
   -2.5160   25.6670  -29.2910 H   0  0  0  0  0  0  0  0  0  0  0  0
    0.2132   22.3819  -27.0475 H   0  0  0  0  0  0  0  0  0  0  0  0
   -0.7820   20.1249  -26.7138 H   0  0  0  0  0  0  0  0  0  0  0  0
   -3.1936   19.7333  -27.2110 H   0  0  0  0  0  0  0  0  0  0  0  0
   -4.6106   21.5943  -28.0651 H   0  0  0  0  0  0  0  0  0  0  0  0
   -4.2210   24.8390  -27.8780 H   0  0  0  0  0  0  0  0  0  0  0  0
   -1.7648   23.2716  -30.8445 H   0  0  0  0  0  0  0  0  0  0  0  0
   -0.9323   21.2815  -32.0956 H   0  0  0  0  0  0  0  0  0  0  0  0
   -2.5393   19.5798  -32.9557 H   0  0  0  0  0  0  0  0  0  0  0  0
   -7.5413   21.4175  -31.7044 H   0  0  0  0  0  0  0  0  0  0  0  0
   -7.6686   20.8010  -33.3626 H   0  0  0  0  0  0  0  0  0  0  0  0
   -9.5709   20.5139  -31.0563 H   0  0  0  0  0  0  0  0  0  0  0  0
   -9.9280   20.4575  -32.7860 H   0  0  0  0  0  0  0  0  0  0  0  0
   -9.5021   18.2260  -30.9616 H   0  0  0  0  0  0  0  0  0  0  0  0
   -9.8650   18.1208  -32.6875 H   0  0  0  0  0  0  0  0  0  0  0  0
   -7.4268   17.3849  -31.5519 H   0  0  0  0  0  0  0  0  0  0  0  0
   -7.5886   17.8667  -33.2509 H   0  0  0  0  0  0  0  0  0  0  0  0
   -5.8312   21.8649  -31.3134 H   0  0  0  0  0  0  0  0  0  0  0  0
  1  2  1  0
  2  3  2  0
  2  4  2  0
  2  5  1  0
  5  6  2  0
  6  7  1  0
  7  8  2  0
  8  9  1  0
  9 10  2  0
 10 11  1  0
 11 12  1  0
 12 13  2  0
 12 14  2  0
 12 15  1  0
 15 16  2  0
 16 17  1  0
 17 18  2  0
 18 19  1  0
 19 20  1  0
 20 21  2  0
 20 22  2  0
 20 23  1  0
 23 24  1  0
 24 25  1  0
 25 26  1  0
 26 27  1  0
 19 28  2  0
 10  5  1  0
 28 15  1  0
 27 23  1  0
  1 29  1  0
  6 30  1  0
  7 31  1  0
  8 32  1  0
  9 33  1  0
 11 34  1  0
 16 35  1  0
 17 36  1  0
 18 37  1  0
 24 38  1  0
 24 39  1  0
 25 40  1  0
 25 41  1  0
 26 42  1  0
 26 43  1  0
 27 44  1  0
 27 45  1  0
 28 46  1  0
M  CHG  1   1  -1
M  END
>  <UniqueID>  (8) 
8

>  <SMILES>  (8) 
[NH-]S(=O)(=O)c1ccccc1NS(=O)(=O)c1cccc(S(=O)(=O)N2CCCC2)c1

>  <Energy>  (8) 
52.551818067634024

>  <Genealogy>  (8) 
[NH-]S(=O)(=O)c1ccccc1NS(=O)(=O)c1cccc(S(=O)(=O)N2CCCC2)c1 (protonated)
[NH-]S(=O)(=O)c1ccccc1NS(=O)(=O)c1cccc(S(=O)(=O)N2CCCC2)c1 (3D coordinates assigned)
[NH-]S(=O)(=O)c1ccccc1NS(=O)(=O)c1cccc(S(=O)(=O)N2CCCC2)c1 (nonaromatic ring conformer: 52.551818067634024 kcal/mol)

>  <smiles>  (8) 
NS(=O)(=O)c1ccccc1NS(=O)(=O)c1cccc(S(=O)(=O)N2CCCC2)c1

>  <score_type>  (8) 
oracle

>  <origin>  (8) 
adgpu

>  <m_score__min__energy>  (8) 
-12.52

>  <m_primary>  (8) 
energy

$$$$
8:0
     RDKit          3D

 43 46  0  0  0  0  0  0  0  0999 V2000
   -6.6860   18.6710  -33.4720 C   0  0  0  0  0  0  0  0  0  0  0  0
   -7.3440   19.6950  -32.6670 N   0  0  0  0  0  0  0  0  0  0  0  0
   -8.6630   19.8130  -32.3740 C   0  0  0  0  0  0  0  0  0  0  0  0
   -9.5350   18.9750  -32.7250 O   0  0  0  0  0  0  0  0  0  0  0  0
   -8.9450   20.9080  -31.6870 O   0  0  0  0  0  0  0  0  0  0  0  0
   -7.8000   21.5310  -31.5340 C   0  0  0  0  0  0  0  0  0  0  0  0
   -7.5480   22.7410  -30.8960 C   0  0  0  0  0  0  0  0  0  0  0  0
   -6.2190   23.2160  -30.8900 C   0  0  0  0  0  0  0  0  0  0  0  0
   -5.8320   24.7670  -30.1520 S   0  0  0  0  0  0  0  0  0  0  0  0
   -7.1140   25.4970  -29.8650 O   0  0  0  0  0  0  0  0  0  0  0  0
   -4.9890   25.6030  -31.0740 O   0  0  0  0  0  0  0  0  0  0  0  0
   -4.9690   24.5110  -28.6680 N   0  0  0  0  0  0  0  0  0  0  0  0
   -3.8310   23.6350  -28.5580 C   0  0  0  0  0  0  0  0  0  0  0  0
   -3.9470   22.3620  -27.9740 C   0  0  0  0  0  0  0  0  0  0  0  0
   -2.8320   21.5210  -27.8460 C   0  0  0  0  0  0  0  0  0  0  0  0
   -1.5680   21.9680  -28.2960 C   0  0  0  0  0  0  0  0  0  0  0  0
   -1.4620   23.2220  -28.9120 C   0  0  0  0  0  0  0  0  0  0  0  0
   -2.5780   24.0520  -29.0400 C   0  0  0  0  0  0  0  0  0  0  0  0
   -2.4310   25.2980  -29.6390 O   0  0  0  0  0  0  0  0  0  0  0  0
   -0.3460   21.0810  -28.2300 C   0  0  0  0  0  0  0  0  0  0  0  0
   -0.4940   19.9520  -27.2060 C   0  0  0  0  0  0  0  0  0  0  0  0
   -1.8330   19.2380  -27.3920 C   0  0  0  0  0  0  0  0  0  0  0  0
   -2.9930   20.2010  -27.1270 C   0  0  0  0  0  0  0  0  0  0  0  0
   -5.1940   22.4650  -31.5170 C   0  0  0  0  0  0  0  0  0  0  0  0
   -5.4830   21.2430  -32.1510 C   0  0  0  0  0  0  0  0  0  0  0  0
   -6.8080   20.8070  -32.1330 C   0  0  0  0  0  0  0  0  0  0  0  0
   -6.2114   17.9324  -32.8092 H   0  0  0  0  0  0  0  0  0  0  0  0
   -7.4309   18.1688  -34.1068 H   0  0  0  0  0  0  0  0  0  0  0  0
   -5.9197   19.1399  -34.1068 H   0  0  0  0  0  0  0  0  0  0  0  0
   -8.3570   23.3084  -30.4126 H   0  0  0  0  0  0  0  0  0  0  0  0
   -5.3910   24.9190  -27.8040 H   0  0  0  0  0  0  0  0  0  0  0  0
   -4.9276   22.0199  -27.6116 H   0  0  0  0  0  0  0  0  0  0  0  0
   -0.4884   23.5567  -29.2994 H   0  0  0  0  0  0  0  0  0  0  0  0
   -0.1786   20.6371  -29.2224 H   0  0  0  0  0  0  0  0  0  0  0  0
    0.5035   21.7059  -27.9173 H   0  0  0  0  0  0  0  0  0  0  0  0
    0.3243   19.2295  -27.3419 H   0  0  0  0  0  0  0  0  0  0  0  0
   -0.4549   20.3803  -26.1936 H   0  0  0  0  0  0  0  0  0  0  0  0
   -1.9028   18.8617  -28.4233 H   0  0  0  0  0  0  0  0  0  0  0  0
   -1.8935   18.4021  -26.6795 H   0  0  0  0  0  0  0  0  0  0  0  0
   -3.9270   19.7281  -27.4647 H   0  0  0  0  0  0  0  0  0  0  0  0
   -3.0102   20.4109  -26.0474 H   0  0  0  0  0  0  0  0  0  0  0  0
   -4.1606   22.8418  -31.5079 H   0  0  0  0  0  0  0  0  0  0  0  0
   -4.6945   20.6539  -32.6421 H   0  0  0  0  0  0  0  0  0  0  0  0
  1  2  1  0
  2  3  1  0
  3  4  2  0
  3  5  1  0
  5  6  1  0
  6  7  2  0
  7  8  1  0
  8  9  1  0
  9 10  2  0
  9 11  2  0
  9 12  1  0
 12 13  1  0
 13 14  2  0
 14 15  1  0
 15 16  2  0
 16 17  1  0
 17 18  2  0
 18 19  1  0
 16 20  1  0
 20 21  1  0
 21 22  1  0
 22 23  1  0
  8 24  2  0
 24 25  1  0
 25 26  2  0
 26  2  1  0
 26  6  1  0
 18 13  1  0
 23 15  1  0
  1 27  1  0
  1 28  1  0
  1 29  1  0
  7 30  1  0
 12 31  1  0
 14 32  1  0
 17 33  1  0
 20 34  1  0
 20 35  1  0
 21 36  1  0
 21 37  1  0
 22 38  1  0
 22 39  1  0
 23 40  1  0
 23 41  1  0
 24 42  1  0
 25 43  1  0
M  CHG  1  19  -1
M  END
>  <UniqueID>  (9) 
9

>  <SMILES>  (9) 
Cn1c(=O)oc2cc(S(=O)(=O)Nc3cc4c(cc3[O-])CCCC4)ccc21

>  <Energy>  (9) 
89.48977036795121

>  <Genealogy>  (9) 
Cn1c(=O)oc2cc(S(=O)(=O)Nc3cc4c(cc3[O-])CCCC4)ccc21 (protonated)
Cn1c(=O)oc2cc(S(=O)(=O)Nc3cc4c(cc3[O-])CCCC4)ccc21 (3D coordinates assigned)
Cn1c(=O)oc2cc(S(=O)(=O)Nc3cc4c(cc3[O-])CCCC4)ccc21 (nonaromatic ring conformer: 89.48977036795121 kcal/mol)

>  <smiles>  (9) 
Cn1c(=O)oc2cc(S(=O)(=O)Nc3cc4c(cc3O)CCCC4)ccc21

>  <score_type>  (9) 
oracle

>  <origin>  (9) 
adgpu

>  <m_score__min__energy>  (9) 
-13.42

>  <m_primary>  (9) 
energy

$$$$
9:0
     RDKit          3D

 59 62  0  0  0  0  0  0  0  0999 V2000
   -9.6840   21.6210  -31.3090 C   0  0  0  0  0  0  0  0  0  0  0  0
   -8.4070   21.1700  -31.8560 N   0  0  0  0  0  0  0  0  0  0  0  0
   -8.1660   19.8850  -32.4310 C   0  0  0  0  0  0  0  0  0  0  0  0
   -9.0960   19.0850  -32.7290 O   0  0  0  0  0  0  0  0  0  0  0  0
   -6.6980   19.5930  -32.6220 C   0  0  0  0  0  0  0  0  0  0  0  0
   -6.2690   18.3620  -31.8070 C   0  0  0  0  0  0  0  0  0  0  0  0
   -6.3560   19.4420  -34.1120 C   0  0  0  0  0  0  0  0  0  0  0  0
   -6.1130   20.8560  -32.0510 C   0  0  0  0  0  0  0  0  0  0  0  0
   -4.7660   21.2070  -31.9350 C   0  0  0  0  0  0  0  0  0  0  0  0
   -4.4420   22.4410  -31.3540 C   0  0  0  0  0  0  0  0  0  0  0  0
   -5.4550   23.3010  -30.8750 C   0  0  0  0  0  0  0  0  0  0  0  0
   -5.0110   24.8420  -30.1450 S   0  0  0  0  0  0  0  0  0  0  0  0
   -6.2370   25.6390  -29.7960 O   0  0  0  0  0  0  0  0  0  0  0  0
   -4.1820   25.6210  -31.1270 O   0  0  0  0  0  0  0  0  0  0  0  0
   -4.0820   24.5610  -28.7070 N   0  0  0  0  0  0  0  0  0  0  0  0
   -2.8030   23.9070  -28.7460 C   0  0  0  0  0  0  0  0  0  0  0  0
   -2.7110   22.5070  -28.6640 C   0  0  0  0  0  0  0  0  0  0  0  0
   -1.4670   21.8660  -28.7480 C   0  0  0  0  0  0  0  0  0  0  0  0
   -1.3710   20.1100  -28.6540 S   0  0  0  0  0  0  0  0  0  0  0  0
   -1.3970   19.5440  -30.0490 O   0  0  0  0  0  0  0  0  0  0  0  0
   -2.5760   19.5940  -27.9130 O   0  0  0  0  0  0  0  0  0  0  0  0
    0.1030   19.6580  -27.8190 N   0  0  0  0  0  0  0  0  0  0  0  0
    1.3210   20.0960  -28.5500 C   0  0  0  0  0  0  0  0  0  0  0  0
    2.1340   18.9420  -29.1740 C   0  0  0  0  0  0  0  0  0  0  0  0
    1.2270   17.8430  -29.7270 C   0  0  0  0  0  0  0  0  0  0  0  0
    0.2530   17.3010  -28.6640 C   0  0  0  0  0  0  0  0  0  0  0  0
    0.1140   18.2320  -27.4440 C   0  0  0  0  0  0  0  0  0  0  0  0
   -0.3050   22.6320  -28.9090 C   0  0  0  0  0  0  0  0  0  0  0  0
   -0.3830   24.0260  -28.9690 C   0  0  0  0  0  0  0  0  0  0  0  0
   -1.6240   24.6650  -28.8870 C   0  0  0  0  0  0  0  0  0  0  0  0
   -1.6820   26.0530  -28.9660 O   0  0  0  0  0  0  0  0  0  0  0  0
   -6.8090   22.9310  -31.0000 C   0  0  0  0  0  0  0  0  0  0  0  0
   -7.1130   21.7060  -31.6060 C   0  0  0  0  0  0  0  0  0  0  0  0
   -9.6383   21.6049  -30.2101 H   0  0  0  0  0  0  0  0  0  0  0  0
   -9.8886   22.6458  -31.6525 H   0  0  0  0  0  0  0  0  0  0  0  0
  -10.4868   20.9520  -31.6525 H   0  0  0  0  0  0  0  0  0  0  0  0
   -6.3476   18.5876  -30.7332 H   0  0  0  0  0  0  0  0  0  0  0  0
   -6.9243   17.5133  -32.0523 H   0  0  0  0  0  0  0  0  0  0  0  0
   -5.2281   18.1044  -32.0523 H   0  0  0  0  0  0  0  0  0  0  0  0
   -5.3542   18.9997  -34.2152 H   0  0  0  0  0  0  0  0  0  0  0  0
   -7.0972   18.7875  -34.5938 H   0  0  0  0  0  0  0  0  0  0  0  0
   -6.3717   20.4307  -34.5938 H   0  0  0  0  0  0  0  0  0  0  0  0
   -3.9763   20.5296  -32.2919 H   0  0  0  0  0  0  0  0  0  0  0  0
   -3.3875   22.7428  -31.2702 H   0  0  0  0  0  0  0  0  0  0  0  0
   -4.3650   25.0810  -27.8480 H   0  0  0  0  0  0  0  0  0  0  0  0
   -3.6243   21.9081  -28.5326 H   0  0  0  0  0  0  0  0  0  0  0  0
    1.0127   20.7766  -29.3573 H   0  0  0  0  0  0  0  0  0  0  0  0
    1.9760   20.5804  -27.8109 H   0  0  0  0  0  0  0  0  0  0  0  0
    2.7489   19.3422  -29.9936 H   0  0  0  0  0  0  0  0  0  0  0  0
    2.7632   18.5020  -28.3863 H   0  0  0  0  0  0  0  0  0  0  0  0
    0.6441   18.2533  -30.5648 H   0  0  0  0  0  0  0  0  0  0  0  0
    1.8671   17.0102  -30.0536 H   0  0  0  0  0  0  0  0  0  0  0  0
   -0.7377   17.1787  -29.1262 H   0  0  0  0  0  0  0  0  0  0  0  0
    0.6589   16.3444  -28.3032 H   0  0  0  0  0  0  0  0  0  0  0  0
   -0.8274   17.9964  -26.9261 H   0  0  0  0  0  0  0  0  0  0  0  0
    0.9862   18.0642  -26.7950 H   0  0  0  0  0  0  0  0  0  0  0  0
    0.6727   22.1341  -28.9885 H   0  0  0  0  0  0  0  0  0  0  0  0
    0.5345   24.6223  -29.0811 H   0  0  0  0  0  0  0  0  0  0  0  0
   -7.6087   23.5895  -30.6300 H   0  0  0  0  0  0  0  0  0  0  0  0
  1  2  1  0
  2  3  1  0
  3  4  2  0
  3  5  1  0
  5  6  1  0
  5  7  1  0
  5  8  1  0
  8  9  2  0
  9 10  1  0
 10 11  2  0
 11 12  1  0
 12 13  2  0
 12 14  2  0
 12 15  1  0
 15 16  1  0
 16 17  2  0
 17 18  1  0
 18 19  1  0
 19 20  2  0
 19 21  2  0
 19 22  1  0
 22 23  1  0
 23 24  1  0
 24 25  1  0
 25 26  1  0
 26 27  1  0
 18 28  2  0
 28 29  1  0
 29 30  2  0
 30 31  1  0
 11 32  1  0
 32 33  2  0
 33  2  1  0
 33  8  1  0
 30 16  1  0
 27 22  1  0
  1 34  1  0
  1 35  1  0
  1 36  1  0
  6 37  1  0
  6 38  1  0
  6 39  1  0
  7 40  1  0
  7 41  1  0
  7 42  1  0
  9 43  1  0
 10 44  1  0
 15 45  1  0
 17 46  1  0
 23 47  1  0
 23 48  1  0
 24 49  1  0
 24 50  1  0
 25 51  1  0
 25 52  1  0
 26 53  1  0
 26 54  1  0
 27 55  1  0
 27 56  1  0
 28 57  1  0
 29 58  1  0
 32 59  1  0
M  CHG  1  31  -1
M  END
>  <UniqueID>  (10) 
10

>  <SMILES>  (10) 
CN1C(=O)C(C)(C)c2ccc(S(=O)(=O)Nc3cc(S(=O)(=O)N4CCCCC4)ccc3[O-])cc21

>  <Energy>  (10) 
84.79467697878962

>  <Genealogy>  (10) 
CN1C(=O)C(C)(C)c2ccc(S(=O)(=O)Nc3cc(S(=O)(=O)N4CCCCC4)ccc3[O-])cc21 (protonated)
CN1C(=O)C(C)(C)c2ccc(S(=O)(=O)Nc3cc(S(=O)(=O)N4CCCCC4)ccc3[O-])cc21 (3D coordinates assigned)
CN1C(=O)C(C)(C)c2ccc(S(=O)(=O)Nc3cc(S(=O)(=O)N4CCCCC4)ccc3[O-])cc21 (nonaromatic ring conformer: 84.79467697878962 kcal/mol)

>  <smiles>  (10) 
CN1C(=O)C(C)(C)c2ccc(S(=O)(=O)Nc3cc(S(=O)(=O)N4CCCCC4)ccc3O)cc21

>  <score_type>  (10) 
oracle

>  <origin>  (10) 
adgpu

>  <m_score__min__energy>  (10) 
-14.470000000000001

>  <m_primary>  (10) 
energy

$$$$
10:0
     RDKit          3D

 46 49  0  0  0  0  0  0  0  0999 V2000
    0.2040   19.8810  -27.8940 C   0  0  0  0  0  0  0  0  0  0  0  0
   -0.4770   20.5200  -26.7540 N   0  0  0  0  0  0  0  0  0  0  0  0
   -1.9120   20.1840  -26.6860 C   0  0  0  0  0  0  0  0  0  0  0  0
   -2.7030   20.7370  -27.8820 C   0  0  0  0  0  0  0  0  0  0  0  0
   -2.3140   22.1540  -28.2230 C   0  0  0  0  0  0  0  0  0  0  0  0
   -3.1180   22.8810  -29.1160 C   0  0  0  0  0  0  0  0  0  0  0  0
   -2.7660   24.1910  -29.4900 C   0  0  0  0  0  0  0  0  0  0  0  0
   -3.5730   24.9660  -30.3890 N   0  0  0  0  0  0  0  0  0  0  0  0
   -5.3070   24.9740  -30.4260 S   0  0  0  0  0  0  0  0  0  0  0  0
   -5.8500   25.0910  -29.0260 O   0  0  0  0  0  0  0  0  0  0  0  0
   -5.7790   26.1580  -31.2220 O   0  0  0  0  0  0  0  0  0  0  0  0
   -5.8700   23.4990  -31.2080 C   0  0  0  0  0  0  0  0  0  0  0  0
   -4.9210   22.6080  -31.7640 C   0  0  0  0  0  0  0  0  0  0  0  0
   -5.3260   21.3900  -32.3320 C   0  0  0  0  0  0  0  0  0  0  0  0
   -6.6910   21.0810  -32.3210 C   0  0  0  0  0  0  0  0  0  0  0  0
   -7.6140   21.9510  -31.7870 C   0  0  0  0  0  0  0  0  0  0  0  0
   -7.2400   23.1710  -31.2260 C   0  0  0  0  0  0  0  0  0  0  0  0
   -8.8630   21.3790  -31.9190 C   0  0  0  0  0  0  0  0  0  0  0  0
   -8.6310   20.1620  -32.5450 C   0  0  0  0  0  0  0  0  0  0  0  0
   -9.6340   19.2600  -32.8850 O   0  0  0  0  0  0  0  0  0  0  0  0
   -7.3060   19.9670  -32.7810 N   0  0  0  0  0  0  0  0  0  0  0  0
   -6.7050   18.8240  -33.4710 C   0  0  0  0  0  0  0  0  0  0  0  0
   -1.5980   24.7620  -28.9670 C   0  0  0  0  0  0  0  0  0  0  0  0
   -1.2370   26.0580  -29.3180 O   0  0  0  0  0  0  0  0  0  0  0  0
   -0.7850   24.0330  -28.0930 C   0  0  0  0  0  0  0  0  0  0  0  0
   -1.1240   22.7190  -27.7340 C   0  0  0  0  0  0  0  0  0  0  0  0
   -0.2650   21.9800  -26.7320 C   0  0  0  0  0  0  0  0  0  0  0  0
    0.9585   19.1730  -27.5204 H   0  0  0  0  0  0  0  0  0  0  0  0
   -0.5336   19.3415  -28.5062 H   0  0  0  0  0  0  0  0  0  0  0  0
    0.6955   20.6515  -28.5062 H   0  0  0  0  0  0  0  0  0  0  0  0
   -2.0176   19.0892  -26.6690 H   0  0  0  0  0  0  0  0  0  0  0  0
   -2.3202   20.6438  -25.7738 H   0  0  0  0  0  0  0  0  0  0  0  0
   -2.5129   20.0982  -28.7571 H   0  0  0  0  0  0  0  0  0  0  0  0
   -3.7683   20.7384  -27.6078 H   0  0  0  0  0  0  0  0  0  0  0  0
   -4.0300   22.4228  -29.5262 H   0  0  0  0  0  0  0  0  0  0  0  0
   -3.8535   22.8732  -31.7508 H   0  0  0  0  0  0  0  0  0  0  0  0
   -4.5924   20.6989  -32.7727 H   0  0  0  0  0  0  0  0  0  0  0  0
   -7.9922   23.8573  -30.8097 H   0  0  0  0  0  0  0  0  0  0  0  0
   -9.8293   21.7957  -31.5987 H   0  0  0  0  0  0  0  0  0  0  0  0
   -9.8560   19.0520  -33.8520 H   0  0  0  0  0  0  0  0  0  0  0  0
   -6.3270   18.1052  -32.7291 H   0  0  0  0  0  0  0  0  0  0  0  0
   -7.4632   18.3361  -34.1012 H   0  0  0  0  0  0  0  0  0  0  0  0
   -5.8733   19.1720  -34.1012 H   0  0  0  0  0  0  0  0  0  0  0  0
    0.1268   24.4928  -27.6840 H   0  0  0  0  0  0  0  0  0  0  0  0
    0.7918   22.1838  -26.9590 H   0  0  0  0  0  0  0  0  0  0  0  0
   -0.5473   22.3376  -25.7308 H   0  0  0  0  0  0  0  0  0  0  0  0
  1  2  1  0
  2  3  1  0
  3  4  1  0
  4  5  1  0
  5  6  2  0
  6  7  1  0
  7  8  1  0
  8  9  1  0
  9 10  2  0
  9 11  2  0
  9 12  1  0
 12 13  2  0
 13 14  1  0
 14 15  2  0
 15 16  1  0
 16 17  2  0
 16 18  1  0
 18 19  2  0
 19 20  1  0
 19 21  1  0
 21 22  1  0
  7 23  2  0
 23 24  1  0
 23 25  1  0
 25 26  2  0
 26 27  1  0
 27  2  1  0
 26  5  1  0
 17 12  1  0
 21 15  1  0
  1 28  1  0
  1 29  1  0
  1 30  1  0
  3 31  1  0
  3 32  1  0
  4 33  1  0
  4 34  1  0
  6 35  1  0
 13 36  1  0
 14 37  1  0
 17 38  1  0
 18 39  1  0
 20 40  1  0
 22 41  1  0
 22 42  1  0
 22 43  1  0
 25 44  1  0
 27 45  1  0
 27 46  1  0
M  CHG  2   8  -1  24  -1
M  END
>  <UniqueID>  (11) 
11

>  <SMILES>  (11) 
CN1CCc2cc([N-]S(=O)(=O)c3ccc4c(c3)cc(O)n4C)c([O-])cc2C1

>  <Energy>  (11) 
92.20753706835316

>  <Genealogy>  (11) 
CN1CCc2cc([N-]S(=O)(=O)c3ccc4c(c3)cc(O)n4C)c([O-])cc2C1 (protonated)
CN1CCc2cc([N-]S(=O)(=O)c3ccc4c(c3)cc(O)n4C)c([O-])cc2C1 (3D coordinates assigned)
CN1CCc2cc([N-]S(=O)(=O)c3ccc4c(c3)cc(O)n4C)c([O-])cc2C1 (nonaromatic ring conformer: 92.20753706835316 kcal/mol)

>  <smiles>  (11) 
CN1CCc2cc(NS(=O)(=O)c3ccc4c(c3)cc(O)n4C)c(O)cc2C1

>  <score_type>  (11) 
oracle

>  <origin>  (11) 
adgpu

>  <m_score__min__energy>  (11) 
-14.58

>  <m_primary>  (11) 
energy

$$$$
11:0
     RDKit          3D

 60 64  0  0  0  0  0  0  0  0999 V2000
    1.4410   16.0170  -26.4030 O   0  0  0  0  0  0  0  0  0  0  0  0
    2.0100   16.9830  -27.4040 S   0  0  0  0  0  0  0  0  0  0  0  0
    3.2120   17.6430  -26.7910 O   0  0  0  0  0  0  0  0  0  0  0  0
    2.5010   16.1290  -28.8300 N   0  0  0  0  0  0  0  0  0  0  0  0
    1.6250   15.6750  -29.8700 C   0  0  0  0  0  0  0  0  0  0  0  0
    1.0220   16.5580  -30.7870 C   0  0  0  0  0  0  0  0  0  0  0  0
    0.1680   16.0700  -31.7800 C   0  0  0  0  0  0  0  0  0  0  0  0
   -0.0910   14.7000  -31.8670 C   0  0  0  0  0  0  0  0  0  0  0  0
    0.4990   13.8190  -30.9570 C   0  0  0  0  0  0  0  0  0  0  0  0
    1.3530   14.3070  -29.9630 C   0  0  0  0  0  0  0  0  0  0  0  0
    0.8350   18.2230  -27.8270 C   0  0  0  0  0  0  0  0  0  0  0  0
   -0.4640   18.1870  -27.3030 C   0  0  0  0  0  0  0  0  0  0  0  0
   -1.3980   19.1610  -27.6680 C   0  0  0  0  0  0  0  0  0  0  0  0
   -1.0430   20.2020  -28.5460 C   0  0  0  0  0  0  0  0  0  0  0  0
   -2.0330   21.2430  -28.9370 C   0  0  0  0  0  0  0  0  0  0  0  0
   -3.2820   21.3260  -28.2920 C   0  0  0  0  0  0  0  0  0  0  0  0
   -4.2000   22.3180  -28.6460 C   0  0  0  0  0  0  0  0  0  0  0  0
   -3.8820   23.2530  -29.6370 C   0  0  0  0  0  0  0  0  0  0  0  0
   -4.9880   24.5760  -30.0000 S   0  0  0  0  0  0  0  0  0  0  0  0
   -4.2730   25.5940  -30.8430 O   0  0  0  0  0  0  0  0  0  0  0  0
   -5.4180   25.2340  -28.7200 O   0  0  0  0  0  0  0  0  0  0  0  0
   -6.3920   24.0220  -30.8540 N   0  0  0  0  0  0  0  0  0  0  0  0
   -6.5120   22.7060  -31.4030 C   0  0  0  0  0  0  0  0  0  0  0  0
   -7.6340   21.9160  -31.1200 C   0  0  0  0  0  0  0  0  0  0  0  0
   -7.7740   20.6430  -31.6840 C   0  0  0  0  0  0  0  0  0  0  0  0
   -6.7350   20.1170  -32.4770 C   0  0  0  0  0  0  0  0  0  0  0  0
   -5.5970   20.8950  -32.7320 C   0  0  0  0  0  0  0  0  0  0  0  0
   -5.4770   22.1810  -32.1950 C   0  0  0  0  0  0  0  0  0  0  0  0
   -4.3270   22.9210  -32.4710 O   0  0  0  0  0  0  0  0  0  0  0  0
   -6.8760   18.7650  -33.1370 C   0  0  0  0  0  0  0  0  0  0  0  0
   -7.8770   17.9160  -32.4710 N   0  0  0  0  0  0  0  0  0  0  0  0
   -9.1490   18.6350  -32.3170 C   0  0  0  0  0  0  0  0  0  0  0  0
   -8.9920   19.8220  -31.3570 C   0  0  0  0  0  0  0  0  0  0  0  0
   -2.6470   23.1730  -30.2910 C   0  0  0  0  0  0  0  0  0  0  0  0
   -1.7320   22.1730  -29.9500 C   0  0  0  0  0  0  0  0  0  0  0  0
    0.2680   20.2420  -29.0470 C   0  0  0  0  0  0  0  0  0  0  0  0
    1.1960   19.2530  -28.7000 C   0  0  0  0  0  0  0  0  0  0  0  0
    1.2243   17.6372  -30.7212 H   0  0  0  0  0  0  0  0  0  0  0  0
   -0.3001   16.7646  -32.4930 H   0  0  0  0  0  0  0  0  0  0  0  0
   -0.7591   14.3150  -32.6515 H   0  0  0  0  0  0  0  0  0  0  0  0
    0.2915   12.7407  -31.0226 H   0  0  0  0  0  0  0  0  0  0  0  0
    1.8143   13.6090  -29.2488 H   0  0  0  0  0  0  0  0  0  0  0  0
   -0.7500   17.3892  -26.6017 H   0  0  0  0  0  0  0  0  0  0  0  0
   -2.4204   19.1133  -27.2650 H   0  0  0  0  0  0  0  0  0  0  0  0
   -3.5371   20.6036  -27.5027 H   0  0  0  0  0  0  0  0  0  0  0  0
   -5.1773   22.3641  -28.1432 H   0  0  0  0  0  0  0  0  0  0  0  0
   -8.4140   22.3009  -30.4466 H   0  0  0  0  0  0  0  0  0  0  0  0
   -4.7903   20.4901  -33.3607 H   0  0  0  0  0  0  0  0  0  0  0  0
   -4.1210   23.7930  -32.0050 H   0  0  0  0  0  0  0  0  0  0  0  0
   -7.1791   18.9131  -34.1840 H   0  0  0  0  0  0  0  0  0  0  0  0
   -5.9040   18.2549  -33.0665 H   0  0  0  0  0  0  0  0  0  0  0  0
   -7.5170   17.6460  -31.5250 H   0  0  0  0  0  0  0  0  0  0  0  0
   -9.4743   19.0068  -33.2998 H   0  0  0  0  0  0  0  0  0  0  0  0
   -9.8969   17.9431  -31.9024 H   0  0  0  0  0  0  0  0  0  0  0  0
   -9.8839   20.4615  -31.4316 H   0  0  0  0  0  0  0  0  0  0  0  0
   -8.8759   19.4261  -30.3373 H   0  0  0  0  0  0  0  0  0  0  0  0
   -2.3955   23.9004  -31.0769 H   0  0  0  0  0  0  0  0  0  0  0  0
   -0.7687   22.1122  -30.4776 H   0  0  0  0  0  0  0  0  0  0  0  0
    0.5691   21.0590  -29.7192 H   0  0  0  0  0  0  0  0  0  0  0  0
    2.2137   19.2867  -29.1162 H   0  0  0  0  0  0  0  0  0  0  0  0
  1  2  2  0
  2  3  2  0
  2  4  1  0
  4  5  1  0
  5  6  2  0
  6  7  1  0
  7  8  2  0
  8  9  1  0
  9 10  2  0
  2 11  1  0
 11 12  2  0
 12 13  1  0
 13 14  2  0
 14 15  1  0
 15 16  2  0
 16 17  1  0
 17 18  2  0
 18 19  1  0
 19 20  2  0
 19 21  2  0
 19 22  1  0
 22 23  1  0
 23 24  2  0
 24 25  1  0
 25 26  2  0
 26 27  1  0
 27 28  2  0
 28 29  1  0
 26 30  1  0
 30 31  1  0
 31 32  1  0
 32 33  1  0
 18 34  1  0
 34 35  2  0
 14 36  1  0
 36 37  2  0
 10  5  1  0
 37 11  1  0
 35 15  1  0
 28 23  1  0
 33 25  1  0
  6 38  1  0
  7 39  1  0
  8 40  1  0
  9 41  1  0
 10 42  1  0
 12 43  1  0
 13 44  1  0
 16 45  1  0
 17 46  1  0
 24 47  1  0
 27 48  1  0
 29 49  1  0
 30 50  1  0
 30 51  1  0
 31 52  1  0
 32 53  1  0
 32 54  1  0
 33 55  1  0
 33 56  1  0
 34 57  1  0
 35 58  1  0
 36 59  1  0
 37 60  1  0
M  CHG  2   4  -1  22  -1
M  END
>  <UniqueID>  (12) 
12

>  <SMILES>  (12) 
O=S(=O)([N-]c1ccccc1)c1ccc(-c2ccc(S(=O)(=O)[N-]c3cc4c(cc3O)CNCC4)cc2)cc1

>  <Energy>  (12) 
84.50407471004141

>  <Genealogy>  (12) 
O=S(=O)([N-]c1ccccc1)c1ccc(-c2ccc(S(=O)(=O)[N-]c3cc4c(cc3O)CNCC4)cc2)cc1 (protonated)
O=S(=O)([N-]c1ccccc1)c1ccc(-c2ccc(S(=O)(=O)[N-]c3cc4c(cc3O)CNCC4)cc2)cc1 (3D coordinates assigned)
O=S(=O)([N-]c1ccccc1)c1ccc(-c2ccc(S(=O)(=O)[N-]c3cc4c(cc3O)CNCC4)cc2)cc1 (nonaromatic ring conformer: 84.50407471004141 kcal/mol)

>  <smiles>  (12) 
O=S(=O)(Nc1ccccc1)c1ccc(-c2ccc(S(=O)(=O)Nc3cc4c(cc3O)CNCC4)cc2)cc1

>  <score_type>  (12) 
oracle

>  <origin>  (12) 
adgpu

>  <m_score__min__energy>  (12) 
-10.859999999999999

>  <m_primary>  (12) 
energy

$$$$
12:0
     RDKit          3D

 55 57  0  0  0  0  0  0  0  0999 V2000
   -7.4060   19.4780  -33.0740 C   0  0  0  0  0  0  0  0  0  0  0  0
   -5.9450   19.7400  -33.4270 C   0  0  0  0  0  0  0  0  0  0  0  0
   -5.1810   20.3180  -32.2260 C   0  0  0  0  0  0  0  0  0  0  0  0
   -3.7900   20.8590  -32.6090 C   0  0  0  0  0  0  0  0  0  0  0  0
   -3.4860   22.2560  -32.0440 C   0  0  0  0  0  0  0  0  0  0  0  0
   -3.7920   22.3730  -30.6110 N   0  0  0  0  0  0  0  0  0  0  0  0
   -4.8370   23.0000  -30.0160 C   0  0  0  0  0  0  0  0  0  0  0  0
   -5.8770   23.8410  -30.7020 C   0  0  0  0  0  0  0  0  0  0  0  0
   -7.0810   23.0340  -31.0700 C   0  0  0  0  0  0  0  0  0  0  0  0
   -7.6260   22.0040  -30.3130 C   0  0  0  0  0  0  0  0  0  0  0  0
   -8.8440   21.5330  -30.8160 C   0  0  0  0  0  0  0  0  0  0  0  0
   -9.2740   22.2020  -31.9560 C   0  0  0  0  0  0  0  0  0  0  0  0
   -8.1350   23.3780  -32.3370 S   0  0  0  0  0  0  0  0  0  0  0  0
   -4.9010   22.7120  -28.7010 N   0  0  0  0  0  0  0  0  0  0  0  0
   -3.9160   21.8710  -28.4400 N   0  0  0  0  0  0  0  0  0  0  0  0
   -3.2520   21.6680  -29.5920 C   0  0  0  0  0  0  0  0  0  0  0  0
   -1.9470   20.4360  -29.7520 S   0  0  0  0  0  0  0  0  0  0  0  0
   -2.1280   19.7600  -28.0670 C   0  0  0  0  0  0  0  0  0  0  0  0
   -1.5950   20.7190  -27.0480 C   0  0  0  0  0  0  0  0  0  0  0  0
   -1.4830   20.3460  -25.8480 O   0  0  0  0  0  0  0  0  0  0  0  0
   -1.1690   22.0310  -27.4480 N   0  0  0  0  0  0  0  0  0  0  0  0
   -0.9240   23.1140  -26.5300 C   0  0  0  0  0  0  0  0  0  0  0  0
   -0.5020   22.8430  -25.2140 C   0  0  0  0  0  0  0  0  0  0  0  0
   -0.2600   23.8830  -24.3140 C   0  0  0  0  0  0  0  0  0  0  0  0
   -0.4560   25.2060  -24.7070 C   0  0  0  0  0  0  0  0  0  0  0  0
   -0.9060   25.4930  -25.9970 C   0  0  0  0  0  0  0  0  0  0  0  0
   -1.1480   24.4570  -26.9170 C   0  0  0  0  0  0  0  0  0  0  0  0
   -1.7270   24.8660  -28.5390 S   0  0  0  0  0  0  0  0  0  0  0  0
   -1.1790   26.4520  -28.9570 N   0  0  0  0  0  0  0  0  0  0  0  0
   -3.2320   24.8210  -28.5700 O   0  0  0  0  0  0  0  0  0  0  0  0
   -1.1970   23.8820  -29.5460 O   0  0  0  0  0  0  0  0  0  0  0  0
   -7.5209   19.4574  -31.9802 H   0  0  0  0  0  0  0  0  0  0  0  0
   -8.0337   20.2779  -33.4936 H   0  0  0  0  0  0  0  0  0  0  0  0
   -7.7167   18.5098  -33.4936 H   0  0  0  0  0  0  0  0  0  0  0  0
   -5.4736   18.7938  -33.7311 H   0  0  0  0  0  0  0  0  0  0  0  0
   -5.9096   20.4709  -34.2483 H   0  0  0  0  0  0  0  0  0  0  0  0
   -5.7719   21.1401  -31.7959 H   0  0  0  0  0  0  0  0  0  0  0  0
   -5.0322   19.5019  -31.5036 H   0  0  0  0  0  0  0  0  0  0  0  0
   -3.0303   20.1596  -32.2300 H   0  0  0  0  0  0  0  0  0  0  0  0
   -3.7736   20.9482  -33.7053 H   0  0  0  0  0  0  0  0  0  0  0  0
   -2.4174   22.4699  -32.1932 H   0  0  0  0  0  0  0  0  0  0  0  0
   -4.1259   22.9741  -32.5777 H   0  0  0  0  0  0  0  0  0  0  0  0
   -6.1838   24.6520  -30.0252 H   0  0  0  0  0  0  0  0  0  0  0  0
   -5.4381   24.2459  -31.6258 H   0  0  0  0  0  0  0  0  0  0  0  0
   -7.1478   21.5993  -29.4088 H   0  0  0  0  0  0  0  0  0  0  0  0
   -9.4083   20.7103  -30.3526 H   0  0  0  0  0  0  0  0  0  0  0  0
  -10.2002   21.9971  -32.5129 H   0  0  0  0  0  0  0  0  0  0  0  0
   -3.1934   19.5751  -27.8653 H   0  0  0  0  0  0  0  0  0  0  0  0
   -1.5568   18.8223  -28.0006 H   0  0  0  0  0  0  0  0  0  0  0  0
   -1.0040   22.1840  -28.4660 H   0  0  0  0  0  0  0  0  0  0  0  0
   -0.3615   21.8008  -24.8915 H   0  0  0  0  0  0  0  0  0  0  0  0
    0.0855   23.6580  -23.2942 H   0  0  0  0  0  0  0  0  0  0  0  0
   -0.2559   26.0246  -24.0000 H   0  0  0  0  0  0  0  0  0  0  0  0
   -1.0727   26.5382  -26.2965 H   0  0  0  0  0  0  0  0  0  0  0  0
   -0.8750   26.4170  -29.9570 H   0  0  0  0  0  0  0  0  0  0  0  0
  1  2  1  0
  2  3  1  0
  3  4  1  0
  4  5  1  0
  5  6  1  0
  6  7  1  0
  7  8  1  0
  8  9  1  0
  9 10  2  0
 10 11  1  0
 11 12  2  0
 12 13  1  0
  7 14  2  0
 14 15  1  0
 15 16  2  0
 16 17  1  0
 17 18  1  0
 18 19  1  0
 19 20  2  0
 19 21  1  0
 21 22  1  0
 22 23  2  0
 23 24  1  0
 24 25  2  0
 25 26  1  0
 26 27  2  0
 27 28  1  0
 28 29  1  0
 28 30  2  0
 28 31  2  0
 16  6  1  0
 27 22  1  0
 13  9  1  0
  1 32  1  0
  1 33  1  0
  1 34  1  0
  2 35  1  0
  2 36  1  0
  3 37  1  0
  3 38  1  0
  4 39  1  0
  4 40  1  0
  5 41  1  0
  5 42  1  0
  8 43  1  0
  8 44  1  0
 10 45  1  0
 11 46  1  0
 12 47  1  0
 18 48  1  0
 18 49  1  0
 21 50  1  0
 23 51  1  0
 24 52  1  0
 25 53  1  0
 26 54  1  0
 29 55  1  0
M  CHG  1  29  -1
M  END
>  <UniqueID>  (13) 
13

>  <SMILES>  (13) 
CCCCCn1c(Cc2cccs2)nnc1SCC(=O)Nc1ccccc1S([NH-])(=O)=O

>  <Energy>  (13) 
104.89782630574497

>  <Genealogy>  (13) 
CCCCCn1c(Cc2cccs2)nnc1SCC(=O)Nc1ccccc1S([NH-])(=O)=O (protonated)
CCCCCn1c(Cc2cccs2)nnc1SCC(=O)Nc1ccccc1S([NH-])(=O)=O (3D coordinates assigned)
CCCCCn1c(Cc2cccs2)nnc1SCC(=O)Nc1ccccc1S([NH-])(=O)=O (optimized conformer: 104.89782630574497 kcal/mol)

>  <smiles>  (13) 
CCCCCn1c(Cc2cccs2)nnc1SCC(=O)Nc1ccccc1S(N)(=O)=O

>  <score_type>  (13) 
oracle

>  <origin>  (13) 
adgpu

>  <m_score__min__energy>  (13) 
-11.279999999999999

>  <m_primary>  (13) 
energy

$$$$
13:0
     RDKit          3D

 69 72  0  0  0  0  0  0  0  0999 V2000
   -2.8480   25.2450  -26.7520 C   0  0  0  0  0  0  0  0  0  0  0  0
   -1.8430   24.1460  -26.9430 C   0  0  0  0  0  0  0  0  0  0  0  0
   -0.4690   24.4280  -26.9080 C   0  0  0  0  0  0  0  0  0  0  0  0
    0.4720   23.3990  -27.0740 C   0  0  0  0  0  0  0  0  0  0  0  0
    1.9400   23.6990  -27.0150 C   0  0  0  0  0  0  0  0  0  0  0  0
    0.0310   22.0780  -27.2340 C   0  0  0  0  0  0  0  0  0  0  0  0
   -1.3390   21.7860  -27.2510 C   0  0  0  0  0  0  0  0  0  0  0  0
   -1.8670   20.1220  -27.4730 S   0  0  0  0  0  0  0  0  0  0  0  0
   -3.1110   20.0690  -28.3160 O   0  0  0  0  0  0  0  0  0  0  0  0
   -2.1960   19.5320  -26.1290 O   0  0  0  0  0  0  0  0  0  0  0  0
   -0.5790   19.1860  -28.2500 C   0  0  0  0  0  0  0  0  0  0  0  0
   -0.0350   18.0900  -27.5580 C   0  0  0  0  0  0  0  0  0  0  0  0
    0.9410   17.2890  -28.1530 C   0  0  0  0  0  0  0  0  0  0  0  0
    1.3970   17.5760  -29.4400 C   0  0  0  0  0  0  0  0  0  0  0  0
    0.8810   18.6720  -30.1340 C   0  0  0  0  0  0  0  0  0  0  0  0
   -0.0930   19.4950  -29.5450 C   0  0  0  0  0  0  0  0  0  0  0  0
   -0.5620   20.6660  -30.2980 C   0  0  0  0  0  0  0  0  0  0  0  0
   -0.0720   21.8020  -30.0640 O   0  0  0  0  0  0  0  0  0  0  0  0
   -1.5710   20.5050  -31.2990 N   0  0  0  0  0  0  0  0  0  0  0  0
   -2.5580   21.5300  -31.6130 C   0  0  0  0  0  0  0  0  0  0  0  0
   -2.8160   22.4130  -30.3910 C   0  0  0  0  0  0  0  0  0  0  0  0
   -4.1400   23.1280  -30.5220 C   0  0  0  0  0  0  0  0  0  0  0  0
   -5.3000   22.3780  -30.7760 C   0  0  0  0  0  0  0  0  0  0  0  0
   -6.5490   23.0050  -30.8770 C   0  0  0  0  0  0  0  0  0  0  0  0
   -7.9940   22.0390  -31.1930 S   0  0  0  0  0  0  0  0  0  0  0  0
   -8.8280   21.9890  -29.9430 O   0  0  0  0  0  0  0  0  0  0  0  0
   -8.8090   22.6950  -32.2720 O   0  0  0  0  0  0  0  0  0  0  0  0
   -7.5850   20.4110  -31.6770 N   0  0  0  0  0  0  0  0  0  0  0  0
   -8.7640   19.5310  -31.5440 C   0  0  0  0  0  0  0  0  0  0  0  0
   -8.5280   18.1380  -32.1740 C   0  0  0  0  0  0  0  0  0  0  0  0
   -7.0450   17.8990  -32.4980 C   0  0  0  0  0  0  0  0  0  0  0  0
   -6.8810   16.6580  -33.1330 O   0  0  0  0  0  0  0  0  0  0  0  0
   -6.5010   19.0150  -33.4100 C   0  0  0  0  0  0  0  0  0  0  0  0
   -7.0800   20.3990  -33.0590 C   0  0  0  0  0  0  0  0  0  0  0  0
   -6.6410   24.3930  -30.7230 C   0  0  0  0  0  0  0  0  0  0  0  0
   -5.4930   25.1480  -30.4610 C   0  0  0  0  0  0  0  0  0  0  0  0
   -4.2460   24.5240  -30.3530 C   0  0  0  0  0  0  0  0  0  0  0  0
   -3.1220   25.2950  -30.0770 O   0  0  0  0  0  0  0  0  0  0  0  0
   -2.2730   22.8190  -27.0950 C   0  0  0  0  0  0  0  0  0  0  0  0
   -3.0044   25.4160  -25.6767 H   0  0  0  0  0  0  0  0  0  0  0  0
   -2.4752   26.1682  -27.2197 H   0  0  0  0  0  0  0  0  0  0  0  0
   -3.8007   24.9560  -27.2197 H   0  0  0  0  0  0  0  0  0  0  0  0
   -0.1269   25.4614  -26.7496 H   0  0  0  0  0  0  0  0  0  0  0  0
    2.2590   23.7642  -25.9643 H   0  0  0  0  0  0  0  0  0  0  0  0
    2.4988   22.8965  -27.5187 H   0  0  0  0  0  0  0  0  0  0  0  0
    2.1391   24.6564  -27.5187 H   0  0  0  0  0  0  0  0  0  0  0  0
    0.7647   21.2663  -27.3468 H   0  0  0  0  0  0  0  0  0  0  0  0
   -0.3813   17.8617  -26.5392 H   0  0  0  0  0  0  0  0  0  0  0  0
    1.3522   16.4283  -27.6052 H   0  0  0  0  0  0  0  0  0  0  0  0
    2.1625   16.9392  -29.9075 H   0  0  0  0  0  0  0  0  0  0  0  0
    1.2400   18.8928  -31.1501 H   0  0  0  0  0  0  0  0  0  0  0  0
   -2.1833   22.1534  -32.4382 H   0  0  0  0  0  0  0  0  0  0  0  0
   -3.4992   21.0417  -31.9058 H   0  0  0  0  0  0  0  0  0  0  0  0
   -2.8320   21.7850  -29.4880 H   0  0  0  0  0  0  0  0  0  0  0  0
   -2.0139   23.1623  -30.3191 H   0  0  0  0  0  0  0  0  0  0  0  0
   -5.2272   21.2871  -30.8969 H   0  0  0  0  0  0  0  0  0  0  0  0
   -8.9913   19.4025  -30.4754 H   0  0  0  0  0  0  0  0  0  0  0  0
   -9.6010   20.0052  -32.0774 H   0  0  0  0  0  0  0  0  0  0  0  0
   -8.8664   17.3661  -31.4671 H   0  0  0  0  0  0  0  0  0  0  0  0
   -9.0946   18.0895  -33.1156 H   0  0  0  0  0  0  0  0  0  0  0  0
   -6.4833   17.9037  -31.5523 H   0  0  0  0  0  0  0  0  0  0  0  0
   -7.0670   16.8020  -34.0960 H   0  0  0  0  0  0  0  0  0  0  0  0
   -5.4066   19.0537  -33.3056 H   0  0  0  0  0  0  0  0  0  0  0  0
   -6.8010   18.7792  -34.4417 H   0  0  0  0  0  0  0  0  0  0  0  0
   -6.2909   21.1584  -33.1627 H   0  0  0  0  0  0  0  0  0  0  0  0
   -7.9119   20.6206  -33.7437 H   0  0  0  0  0  0  0  0  0  0  0  0
   -7.6180   24.8912  -30.8082 H   0  0  0  0  0  0  0  0  0  0  0  0
   -5.5714   26.2384  -30.3392 H   0  0  0  0  0  0  0  0  0  0  0  0
   -3.3486   22.5884  -27.0917 H   0  0  0  0  0  0  0  0  0  0  0  0
  1  2  1  0
  2  3  2  0
  3  4  1  0
  4  5  1  0
  4  6  2  0
  6  7  1  0
  7  8  1  0
  8  9  2  0
  8 10  2  0
  8 11  1  0
 11 12  2  0
 12 13  1  0
 13 14  2  0
 14 15  1  0
 15 16  2  0
 16 17  1  0
 17 18  2  0
 17 19  1  0
 19 20  1  0
 20 21  1  0
 21 22  1  0
 22 23  2  0
 23 24  1  0
 24 25  1  0
 25 26  2  0
 25 27  2  0
 25 28  1  0
 28 29  1  0
 29 30  1  0
 30 31  1  0
 31 32  1  0
 31 33  1  0
 33 34  1  0
 24 35  2  0
 35 36  1  0
 36 37  2  0
 37 38  1  0
  7 39  2  0
 39  2  1  0
 16 11  1  0
 37 22  1  0
 34 28  1  0
  1 40  1  0
  1 41  1  0
  1 42  1  0
  3 43  1  0
  5 44  1  0
  5 45  1  0
  5 46  1  0
  6 47  1  0
 12 48  1  0
 13 49  1  0
 14 50  1  0
 15 51  1  0
 20 52  1  0
 20 53  1  0
 21 54  1  0
 21 55  1  0
 23 56  1  0
 29 57  1  0
 29 58  1  0
 30 59  1  0
 30 60  1  0
 31 61  1  0
 32 62  1  0
 33 63  1  0
 33 64  1  0
 34 65  1  0
 34 66  1  0
 35 67  1  0
 36 68  1  0
 39 69  1  0
M  CHG  2  19  -1  38  -1
M  END
>  <UniqueID>  (14) 
14

>  <SMILES>  (14) 
Cc1cc(C)cc(S(=O)(=O)c2ccccc2C(=O)[N-]CCc2cc(S(=O)(=O)N3CCC(O)CC3)ccc2[O-])c1

>  <Energy>  (14) 
78.79577175767876

>  <Genealogy>  (14) 
Cc1cc(C)cc(S(=O)(=O)c2ccccc2C(=O)[N-]CCc2cc(S(=O)(=O)N3CCC(O)CC3)ccc2[O-])c1 (protonated)
Cc1cc(C)cc(S(=O)(=O)c2ccccc2C(=O)[N-]CCc2cc(S(=O)(=O)N3CCC(O)CC3)ccc2[O-])c1 (3D coordinates assigned)
Cc1cc(C)cc(S(=O)(=O)c2ccccc2C(=O)[N-]CCc2cc(S(=O)(=O)N3CCC(O)CC3)ccc2[O-])c1 (nonaromatic ring conformer: 78.79577175767876 kcal/mol)

>  <smiles>  (14) 
Cc1cc(C)cc(S(=O)(=O)c2ccccc2C(=O)NCCc2cc(S(=O)(=O)N3CCC(O)CC3)ccc2O)c1

>  <score_type>  (14) 
oracle

>  <origin>  (14) 
adgpu

>  <m_score__min__energy>  (14) 
-15.08

>  <m_primary>  (14) 
energy

$$$$
14:0
     RDKit          3D

 71 75  0  0  0  0  0  0  0  0999 V2000
   -9.0810   21.1370  -32.3050 C   0  0  0  0  0  0  0  0  0  0  0  0
   -8.0600   22.0490  -31.6920 C   0  0  0  0  0  0  0  0  0  0  0  0
   -7.3170   22.9220  -32.5010 C   0  0  0  0  0  0  0  0  0  0  0  0
   -6.4070   23.8150  -31.9280 C   0  0  0  0  0  0  0  0  0  0  0  0
   -6.2290   23.8430  -30.5380 C   0  0  0  0  0  0  0  0  0  0  0  0
   -5.1690   25.0410  -29.8060 S   0  0  0  0  0  0  0  0  0  0  0  0
   -5.7250   26.4170  -30.0360 O   0  0  0  0  0  0  0  0  0  0  0  0
   -5.0530   24.8100  -28.3270 O   0  0  0  0  0  0  0  0  0  0  0  0
   -3.6170   24.9080  -30.5550 N   0  0  0  0  0  0  0  0  0  0  0  0
   -2.6050   24.0680  -29.9970 C   0  0  0  0  0  0  0  0  0  0  0  0
   -2.6070   22.6880  -30.2530 C   0  0  0  0  0  0  0  0  0  0  0  0
   -1.5960   21.8630  -29.7300 C   0  0  0  0  0  0  0  0  0  0  0  0
   -1.6270   20.3980  -29.9840 C   0  0  0  0  0  0  0  0  0  0  0  0
   -1.2740   19.6060  -29.0710 O   0  0  0  0  0  0  0  0  0  0  0  0
   -2.0940   19.8470  -31.2240 N   0  0  0  0  0  0  0  0  0  0  0  0
   -1.3720   19.8550  -32.4630 C   0  0  0  0  0  0  0  0  0  0  0  0
   -1.4790   20.9260  -33.3650 C   0  0  0  0  0  0  0  0  0  0  0  0
   -0.8350   20.8650  -34.6020 C   0  0  0  0  0  0  0  0  0  0  0  0
   -0.0770   19.7440  -34.9440 C   0  0  0  0  0  0  0  0  0  0  0  0
    0.0830   18.6840  -34.0320 C   0  0  0  0  0  0  0  0  0  0  0  0
    0.8480   17.4660  -34.3980 C   0  0  0  0  0  0  0  0  0  0  0  0
    2.0540   17.5790  -34.7370 O   0  0  0  0  0  0  0  0  0  0  0  0
    0.2900   16.1500  -34.3020 N   0  0  0  0  0  0  0  0  0  0  0  0
   -1.0030   15.7340  -34.7720 C   0  0  0  0  0  0  0  0  0  0  0  0
   -1.0910   14.6150  -35.6080 C   0  0  0  0  0  0  0  0  0  0  0  0
   -2.3320   14.1870  -36.0880 C   0  0  0  0  0  0  0  0  0  0  0  0
   -3.4960   14.8760  -35.7390 C   0  0  0  0  0  0  0  0  0  0  0  0
   -3.4190   16.0190  -34.9260 C   0  0  0  0  0  0  0  0  0  0  0  0
   -4.8730   16.9360  -34.5280 S   0  0  0  0  0  0  0  0  0  0  0  0
   -5.2650   17.7950  -35.7000 O   0  0  0  0  0  0  0  0  0  0  0  0
   -5.9910   15.9690  -34.2510 O   0  0  0  0  0  0  0  0  0  0  0  0
   -4.5950   17.9260  -33.1120 N   0  0  0  0  0  0  0  0  0  0  0  0
   -4.5620   19.3490  -33.4700 C   0  0  0  0  0  0  0  0  0  0  0  0
   -5.9750   19.9000  -33.3400 C   0  0  0  0  0  0  0  0  0  0  0  0
   -6.7210   18.8950  -32.4810 C   0  0  0  0  0  0  0  0  0  0  0  0
   -5.7120   17.7950  -32.1710 C   0  0  0  0  0  0  0  0  0  0  0  0
   -2.1710   16.4530  -34.4550 C   0  0  0  0  0  0  0  0  0  0  0  0
   -0.5630   18.7580  -32.7840 C   0  0  0  0  0  0  0  0  0  0  0  0
   -0.5560   22.4490  -28.9870 C   0  0  0  0  0  0  0  0  0  0  0  0
   -0.5690   23.8170  -28.7090 C   0  0  0  0  0  0  0  0  0  0  0  0
   -1.5970   24.6280  -29.2030 C   0  0  0  0  0  0  0  0  0  0  0  0
   -1.6090   25.9950  -28.9300 O   0  0  0  0  0  0  0  0  0  0  0  0
   -6.9850   22.9870  -29.7250 C   0  0  0  0  0  0  0  0  0  0  0  0
   -7.8950   22.0950  -30.2990 C   0  0  0  0  0  0  0  0  0  0  0  0
   -9.6467   20.6317  -31.5083 H   0  0  0  0  0  0  0  0  0  0  0  0
   -9.7709   21.7251  -32.9281 H   0  0  0  0  0  0  0  0  0  0  0  0
   -8.5742   20.3854  -32.9281 H   0  0  0  0  0  0  0  0  0  0  0  0
   -7.4514   22.9036  -33.5926 H   0  0  0  0  0  0  0  0  0  0  0  0
   -5.8294   24.4971  -32.5692 H   0  0  0  0  0  0  0  0  0  0  0  0
   -3.4062   22.2484  -30.8679 H   0  0  0  0  0  0  0  0  0  0  0  0
   -2.0707   21.8136  -33.0966 H   0  0  0  0  0  0  0  0  0  0  0  0
   -0.9252   21.7027  -35.3092 H   0  0  0  0  0  0  0  0  0  0  0  0
    0.3991   19.6885  -35.9341 H   0  0  0  0  0  0  0  0  0  0  0  0
   -0.1782   14.0692  -35.8889 H   0  0  0  0  0  0  0  0  0  0  0  0
   -2.3923   13.3050  -36.7425 H   0  0  0  0  0  0  0  0  0  0  0  0
   -4.4731   14.5234  -36.1009 H   0  0  0  0  0  0  0  0  0  0  0  0
   -3.8867   19.8893  -32.7903 H   0  0  0  0  0  0  0  0  0  0  0  0
   -4.1959   19.4755  -34.4996 H   0  0  0  0  0  0  0  0  0  0  0  0
   -5.9604   20.8865  -32.8536 H   0  0  0  0  0  0  0  0  0  0  0  0
   -6.4537   20.0353  -34.3211 H   0  0  0  0  0  0  0  0  0  0  0  0
   -7.0710   19.3685  -31.5518 H   0  0  0  0  0  0  0  0  0  0  0  0
   -7.6101   18.5001  -32.9944 H   0  0  0  0  0  0  0  0  0  0  0  0
   -5.3458   17.9043  -31.1395 H   0  0  0  0  0  0  0  0  0  0  0  0
   -6.1823   16.8057  -32.2717 H   0  0  0  0  0  0  0  0  0  0  0  0
   -2.1047   17.3593  -33.8351 H   0  0  0  0  0  0  0  0  0  0  0  0
   -0.4312   17.9462  -32.0535 H   0  0  0  0  0  0  0  0  0  0  0  0
    0.2735   21.8253  -28.6223 H   0  0  0  0  0  0  0  0  0  0  0  0
    0.2323   24.2594  -28.0990 H   0  0  0  0  0  0  0  0  0  0  0  0
   -2.4670   26.5350  -28.9710 H   0  0  0  0  0  0  0  0  0  0  0  0
   -6.8616   23.0175  -28.6324 H   0  0  0  0  0  0  0  0  0  0  0  0
   -8.4849   21.4256  -29.6557 H   0  0  0  0  0  0  0  0  0  0  0  0
  1  2  1  0
  2  3  2  0
  3  4  1  0
  4  5  2  0
  5  6  1  0
  6  7  2  0
  6  8  2  0
  6  9  1  0
  9 10  1  0
 10 11  2  0
 11 12  1  0
 12 13  1  0
 13 14  2  0
 13 15  1  0
 15 16  1  0
 16 17  2  0
 17 18  1  0
 18 19  2  0
 19 20  1  0
 20 21  1  0
 21 22  2  0
 21 23  1  0
 23 24  1  0
 24 25  2  0
 25 26  1  0
 26 27  2  0
 27 28  1  0
 28 29  1  0
 29 30  2  0
 29 31  2  0
 29 32  1  0
 32 33  1  0
 33 34  1  0
 34 35  1  0
 35 36  1  0
 28 37  2  0
 20 38  2  0
 12 39  2  0
 39 40  1  0
 40 41  2  0
 41 42  1  0
  5 43  1  0
 43 44  2  0
 44  2  1  0
 41 10  1  0
 38 16  1  0
 37 24  1  0
 36 32  1  0
  1 45  1  0
  1 46  1  0
  1 47  1  0
  3 48  1  0
  4 49  1  0
 11 50  1  0
 17 51  1  0
 18 52  1  0
 19 53  1  0
 25 54  1  0
 26 55  1  0
 27 56  1  0
 33 57  1  0
 33 58  1  0
 34 59  1  0
 34 60  1  0
 35 61  1  0
 35 62  1  0
 36 63  1  0
 36 64  1  0
 37 65  1  0
 38 66  1  0
 39 67  1  0
 40 68  1  0
 42 69  1  0
 43 70  1  0
 44 71  1  0
M  CHG  3   9  -1  15  -1  23  -1
M  END
>  <UniqueID>  (15) 
15

>  <SMILES>  (15) 
Cc1ccc(S(=O)(=O)[N-]c2cc(C(=O)[N-]c3cccc(C(=O)[N-]c4cccc(S(=O)(=O)N5CCCC5)c4)c3)ccc2O)cc1

>  <Energy>  (15) 
98.82823981085428

>  <Genealogy>  (15) 
Cc1ccc(S(=O)(=O)[N-]c2cc(C(=O)[N-]c3cccc(C(=O)[N-]c4cccc(S(=O)(=O)N5CCCC5)c4)c3)ccc2O)cc1 (protonated)
Cc1ccc(S(=O)(=O)[N-]c2cc(C(=O)[N-]c3cccc(C(=O)[N-]c4cccc(S(=O)(=O)N5CCCC5)c4)c3)ccc2O)cc1 (3D coordinates assigned)
Cc1ccc(S(=O)(=O)[N-]c2cc(C(=O)[N-]c3cccc(C(=O)[N-]c4cccc(S(=O)(=O)N5CCCC5)c4)c3)ccc2O)cc1 (nonaromatic ring conformer: 98.82823981085428 kcal/mol)

>  <smiles>  (15) 
Cc1ccc(S(=O)(=O)Nc2cc(C(=O)Nc3cccc(C(=O)Nc4cccc(S(=O)(=O)N5CCCC5)c4)c3)ccc2O)cc1

>  <score_type>  (15) 
oracle

>  <origin>  (15) 
adgpu

>  <m_score__min__energy>  (15) 
-13.59

>  <m_primary>  (15) 
energy

$$$$
15:0
     RDKit          3D

 69 73  0  0  0  0  0  0  0  0999 V2000
   -3.7140   18.5500  -33.1550 O   0  0  0  0  0  0  0  0  0  0  0  0
   -4.3310   19.6330  -32.9510 C   0  0  0  0  0  0  0  0  0  0  0  0
   -3.6120   20.8740  -32.9110 N   0  0  0  0  0  0  0  0  0  0  0  0
   -2.1830   20.9220  -32.8200 C   0  0  0  0  0  0  0  0  0  0  0  0
   -1.5660   21.0880  -31.5710 C   0  0  0  0  0  0  0  0  0  0  0  0
   -0.1730   21.1790  -31.4840 C   0  0  0  0  0  0  0  0  0  0  0  0
    0.6090   21.0820  -32.6390 C   0  0  0  0  0  0  0  0  0  0  0  0
    0.0020   20.8800  -33.8890 C   0  0  0  0  0  0  0  0  0  0  0  0
    0.9810   20.7260  -35.3520 S   0  0  0  0  0  0  0  0  0  0  0  0
    2.3080   20.1090  -35.0040 O   0  0  0  0  0  0  0  0  0  0  0  0
    0.2800   19.8080  -36.3120 O   0  0  0  0  0  0  0  0  0  0  0  0
    1.2570   22.2700  -36.1210 N   0  0  0  0  0  0  0  0  0  0  0  0
    0.2340   23.2480  -35.7270 C   0  0  0  0  0  0  0  0  0  0  0  0
    0.4640   24.5720  -36.4920 C   0  0  0  0  0  0  0  0  0  0  0  0
    1.7030   24.5870  -37.1810 O   0  0  0  0  0  0  0  0  0  0  0  0
    2.7520   24.2400  -36.2940 C   0  0  0  0  0  0  0  0  0  0  0  0
    2.5970   22.7880  -35.7900 C   0  0  0  0  0  0  0  0  0  0  0  0
   -1.3950   20.7950  -33.9730 C   0  0  0  0  0  0  0  0  0  0  0  0
   -5.7950   19.6160  -32.7690 C   0  0  0  0  0  0  0  0  0  0  0  0
   -6.4330   20.7760  -32.2980 C   0  0  0  0  0  0  0  0  0  0  0  0
   -7.8000   20.7700  -32.0000 C   0  0  0  0  0  0  0  0  0  0  0  0
   -8.5740   22.2150  -31.3410 S   0  0  0  0  0  0  0  0  0  0  0  0
   -9.4780   21.8140  -30.2080 O   0  0  0  0  0  0  0  0  0  0  0  0
   -9.4220   22.8510  -32.4120 O   0  0  0  0  0  0  0  0  0  0  0  0
   -7.4200   23.3950  -30.7600 N   0  0  0  0  0  0  0  0  0  0  0  0
   -6.4990   23.8320  -31.8110 C   0  0  0  0  0  0  0  0  0  0  0  0
   -5.1700   24.1660  -31.1360 C   0  0  0  0  0  0  0  0  0  0  0  0
   -5.3090   23.6860  -29.7000 C   0  0  0  0  0  0  0  0  0  0  0  0
   -6.5800   22.8600  -29.6910 C   0  0  0  0  0  0  0  0  0  0  0  0
   -8.5450   19.6060  -32.2160 C   0  0  0  0  0  0  0  0  0  0  0  0
   -7.9290   18.4530  -32.7080 C   0  0  0  0  0  0  0  0  0  0  0  0
   -6.5550   18.4440  -32.9870 C   0  0  0  0  0  0  0  0  0  0  0  0
   -5.9550   17.2630  -33.5440 N   0  0  0  0  0  0  0  0  0  0  0  0
   -5.4380   17.1930  -34.9000 C   0  0  0  0  0  0  0  0  0  0  0  0
   -4.6040   15.9200  -34.9510 C   0  0  0  0  0  0  0  0  0  0  0  0
   -5.0030   15.1030  -33.7220 C   0  0  0  0  0  0  0  0  0  0  0  0
   -5.6230   16.0940  -32.7460 C   0  0  0  0  0  0  0  0  0  0  0  0
   -4.1340   21.7660  -33.0680 H   0  0  0  0  0  0  0  0  0  0  0  0
   -2.1784   21.1466  -30.6591 H   0  0  0  0  0  0  0  0  0  0  0  0
    0.3079   21.3270  -30.5058 H   0  0  0  0  0  0  0  0  0  0  0  0
    1.7036   21.1642  -32.5682 H   0  0  0  0  0  0  0  0  0  0  0  0
   -0.7635   22.8530  -35.9697 H   0  0  0  0  0  0  0  0  0  0  0  0
    0.3019   23.4335  -34.6449 H   0  0  0  0  0  0  0  0  0  0  0  0
   -0.3483   24.7046  -37.2218 H   0  0  0  0  0  0  0  0  0  0  0  0
    0.4789   25.3884  -35.7549 H   0  0  0  0  0  0  0  0  0  0  0  0
    3.7135   24.3372  -36.8193 H   0  0  0  0  0  0  0  0  0  0  0  0
    2.7147   24.9164  -35.4273 H   0  0  0  0  0  0  0  0  0  0  0  0
    3.3588   22.1549  -36.2684 H   0  0  0  0  0  0  0  0  0  0  0  0
    2.7256   22.7736  -34.6976 H   0  0  0  0  0  0  0  0  0  0  0  0
   -1.8753   20.6278  -34.9484 H   0  0  0  0  0  0  0  0  0  0  0  0
   -5.8510   21.6994  -32.1620 H   0  0  0  0  0  0  0  0  0  0  0  0
   -6.3564   23.0263  -32.5462 H   0  0  0  0  0  0  0  0  0  0  0  0
   -6.8991   24.7088  -32.3413 H   0  0  0  0  0  0  0  0  0  0  0  0
   -4.3425   23.6428  -31.6374 H   0  0  0  0  0  0  0  0  0  0  0  0
   -4.9472   25.2420  -31.1858 H   0  0  0  0  0  0  0  0  0  0  0  0
   -4.4443   23.0703  -29.4115 H   0  0  0  0  0  0  0  0  0  0  0  0
   -5.3503   24.5206  -28.9846 H   0  0  0  0  0  0  0  0  0  0  0  0
   -6.3485   21.8016  -29.8812 H   0  0  0  0  0  0  0  0  0  0  0  0
   -7.0873   22.9147  -28.7165 H   0  0  0  0  0  0  0  0  0  0  0  0
   -9.6229   19.5986  -31.9970 H   0  0  0  0  0  0  0  0  0  0  0  0
   -8.5264   17.5451  -32.8779 H   0  0  0  0  0  0  0  0  0  0  0  0
   -6.2641   17.1409  -35.6244 H   0  0  0  0  0  0  0  0  0  0  0  0
   -4.8429   18.0818  -35.1567 H   0  0  0  0  0  0  0  0  0  0  0  0
   -4.8218   15.3574  -35.8708 H   0  0  0  0  0  0  0  0  0  0  0  0
   -3.5272   16.1445  -34.9523 H   0  0  0  0  0  0  0  0  0  0  0  0
   -5.7344   14.3290  -33.9979 H   0  0  0  0  0  0  0  0  0  0  0  0
   -4.1369   14.5887  -33.2801 H   0  0  0  0  0  0  0  0  0  0  0  0
   -6.5292   15.6693  -32.2895 H   0  0  0  0  0  0  0  0  0  0  0  0
   -4.9372   16.3415  -31.9223 H   0  0  0  0  0  0  0  0  0  0  0  0
  1  2  2  0
  2  3  1  0
  3  4  1  0
  4  5  2  0
  5  6  1  0
  6  7  2  0
  7  8  1  0
  8  9  1  0
  9 10  2  0
  9 11  2  0
  9 12  1  0
 12 13  1  0
 13 14  1  0
 14 15  1  0
 15 16  1  0
 16 17  1  0
  8 18  2  0
  2 19  1  0
 19 20  2  0
 20 21  1  0
 21 22  1  0
 22 23  2  0
 22 24  2  0
 22 25  1  0
 25 26  1  0
 26 27  1  0
 27 28  1  0
 28 29  1  0
 21 30  2  0
 30 31  1  0
 31 32  2  0
 32 33  1  0
 33 34  1  0
 34 35  1  0
 35 36  1  0
 36 37  1  0
 18  4  1  0
 32 19  1  0
 37 33  1  0
 17 12  1  0
 29 25  1  0
  3 38  1  0
  5 39  1  0
  6 40  1  0
  7 41  1  0
 13 42  1  0
 13 43  1  0
 14 44  1  0
 14 45  1  0
 16 46  1  0
 16 47  1  0
 17 48  1  0
 17 49  1  0
 18 50  1  0
 20 51  1  0
 26 52  1  0
 26 53  1  0
 27 54  1  0
 27 55  1  0
 28 56  1  0
 28 57  1  0
 29 58  1  0
 29 59  1  0
 30 60  1  0
 31 61  1  0
 34 62  1  0
 34 63  1  0
 35 64  1  0
 35 65  1  0
 36 66  1  0
 36 67  1  0
 37 68  1  0
 37 69  1  0
M  END
>  <UniqueID>  (16) 
16

>  <SMILES>  (16) 
O=C(Nc1cccc(S(=O)(=O)N2CCOCC2)c1)c1cc(S(=O)(=O)N2CCCC2)ccc1N1CCCC1

>  <Energy>  (16) 
92.94944442630613

>  <Genealogy>  (16) 
O=C(Nc1cccc(S(=O)(=O)N2CCOCC2)c1)c1cc(S(=O)(=O)N2CCCC2)ccc1N1CCCC1 (3D coordinates assigned)
O=C(Nc1cccc(S(=O)(=O)N2CCOCC2)c1)c1cc(S(=O)(=O)N2CCCC2)ccc1N1CCCC1 (nonaromatic ring conformer: 92.94944442630613 kcal/mol)

>  <smiles>  (16) 
O=C(Nc1cccc(S(=O)(=O)N2CCOCC2)c1)c1cc(S(=O)(=O)N2CCCC2)ccc1N1CCCC1

>  <score_type>  (16) 
oracle

>  <origin>  (16) 
adgpu

>  <m_score__min__energy>  (16) 
-10.99

>  <m_primary>  (16) 
energy

$$$$
16:0
     RDKit          3D

 74 78  0  0  0  0  0  0  0  0999 V2000
   -2.7570   20.0200  -34.4060 O   0  0  0  0  0  0  0  0  0  0  0  0
   -2.9310   19.8410  -33.1690 C   0  0  0  0  0  0  0  0  0  0  0  0
   -1.8060   19.3190  -32.3610 C   0  0  0  0  0  0  0  0  0  0  0  0
   -1.1830   18.1150  -32.7220 C   0  0  0  0  0  0  0  0  0  0  0  0
   -0.1650   17.5820  -31.9280 C   0  0  0  0  0  0  0  0  0  0  0  0
    0.2580   18.2570  -30.7780 C   0  0  0  0  0  0  0  0  0  0  0  0
    1.2690   17.7110  -29.9930 O   0  0  0  0  0  0  0  0  0  0  0  0
   -0.3220   19.4840  -30.4320 C   0  0  0  0  0  0  0  0  0  0  0  0
    0.1110   20.1530  -29.2440 N   0  0  0  0  0  0  0  0  0  0  0  0
   -0.9450   20.5410  -27.9240 S   0  0  0  0  0  0  0  0  0  0  0  0
   -0.1390   21.1550  -26.8160 O   0  0  0  0  0  0  0  0  0  0  0  0
   -1.6110   19.2990  -27.4030 O   0  0  0  0  0  0  0  0  0  0  0  0
   -2.1390   21.7080  -28.4810 C   0  0  0  0  0  0  0  0  0  0  0  0
   -1.8650   22.5680  -29.5550 C   0  0  0  0  0  0  0  0  0  0  0  0
   -2.8280   23.4930  -29.9770 C   0  0  0  0  0  0  0  0  0  0  0  0
   -4.0710   23.5620  -29.3300 C   0  0  0  0  0  0  0  0  0  0  0  0
   -5.2840   24.7380  -29.8470 S   0  0  0  0  0  0  0  0  0  0  0  0
   -5.7380   25.5420  -28.6610 O   0  0  0  0  0  0  0  0  0  0  0  0
   -4.6610   25.6830  -30.8360 O   0  0  0  0  0  0  0  0  0  0  0  0
   -6.6630   23.9570  -30.5810 N   0  0  0  0  0  0  0  0  0  0  0  0
   -6.4140   23.7310  -32.0160 C   0  0  0  0  0  0  0  0  0  0  0  0
   -7.6970   23.2420  -32.7190 C   0  0  0  0  0  0  0  0  0  0  0  0
   -8.7260   22.6690  -31.7330 C   0  0  0  0  0  0  0  0  0  0  0  0
   -8.0390   21.8600  -30.6280 C   0  0  0  0  0  0  0  0  0  0  0  0
   -6.9510   22.6830  -29.8960 C   0  0  0  0  0  0  0  0  0  0  0  0
   -4.3440   22.6970  -28.2600 C   0  0  0  0  0  0  0  0  0  0  0  0
   -3.3820   21.7760  -27.8370 C   0  0  0  0  0  0  0  0  0  0  0  0
   -1.3550   20.0110  -31.2250 C   0  0  0  0  0  0  0  0  0  0  0  0
   -4.2240   20.1100  -32.5830 N   0  0  0  0  0  0  0  0  0  0  0  0
   -5.1720   20.9970  -33.2590 C   0  0  0  0  0  0  0  0  0  0  0  0
   -6.3080   20.1670  -33.8580 C   0  0  0  0  0  0  0  0  0  0  0  0
   -6.8840   19.1110  -32.8690 C   0  0  0  0  0  0  0  0  0  0  0  0
   -6.9550   17.6810  -33.4700 C   0  0  0  0  0  0  0  0  0  0  0  0
   -5.6180   17.0570  -33.8050 C   0  0  0  0  0  0  0  0  0  0  0  0
   -4.9540   17.4070  -34.9950 C   0  0  0  0  0  0  0  0  0  0  0  0
   -3.7220   16.8270  -35.3130 C   0  0  0  0  0  0  0  0  0  0  0  0
   -3.1310   15.9100  -34.4380 C   0  0  0  0  0  0  0  0  0  0  0  0
   -3.7670   15.5820  -33.2380 C   0  0  0  0  0  0  0  0  0  0  0  0
   -5.0010   16.1580  -32.9160 C   0  0  0  0  0  0  0  0  0  0  0  0
   -6.2470   19.1660  -31.4530 C   0  0  0  0  0  0  0  0  0  0  0  0
   -4.7100   19.3020  -31.4550 C   0  0  0  0  0  0  0  0  0  0  0  0
   -1.4978   17.5881  -33.6349 H   0  0  0  0  0  0  0  0  0  0  0  0
    0.3058   16.6281  -32.2079 H   0  0  0  0  0  0  0  0  0  0  0  0
   -0.8925   22.5157  -30.0663 H   0  0  0  0  0  0  0  0  0  0  0  0
   -2.6093   24.1674  -30.8181 H   0  0  0  0  0  0  0  0  0  0  0  0
   -6.0849   24.6732  -32.4786 H   0  0  0  0  0  0  0  0  0  0  0  0
   -5.6351   22.9618  -32.1240 H   0  0  0  0  0  0  0  0  0  0  0  0
   -8.1527   24.0900  -33.2513 H   0  0  0  0  0  0  0  0  0  0  0  0
   -7.4124   22.4358  -33.4112 H   0  0  0  0  0  0  0  0  0  0  0  0
   -9.2862   23.4980  -31.2760 H   0  0  0  0  0  0  0  0  0  0  0  0
   -9.4048   22.0017  -32.2844 H   0  0  0  0  0  0  0  0  0  0  0  0
   -8.7970   21.5436  -29.8963 H   0  0  0  0  0  0  0  0  0  0  0  0
   -7.5506   20.9927  -31.0963 H   0  0  0  0  0  0  0  0  0  0  0  0
   -7.2977   22.9000  -28.8749 H   0  0  0  0  0  0  0  0  0  0  0  0
   -6.0261   22.0877  -29.8859 H   0  0  0  0  0  0  0  0  0  0  0  0
   -5.3186   22.7438  -27.7522 H   0  0  0  0  0  0  0  0  0  0  0  0
   -3.6010   21.1020  -26.9957 H   0  0  0  0  0  0  0  0  0  0  0  0
   -1.8142   20.9731  -30.9541 H   0  0  0  0  0  0  0  0  0  0  0  0
   -5.5845   21.7139  -32.5338 H   0  0  0  0  0  0  0  0  0  0  0  0
   -4.6547   21.5437  -34.0612 H   0  0  0  0  0  0  0  0  0  0  0  0
   -7.1197   20.8477  -34.1543 H   0  0  0  0  0  0  0  0  0  0  0  0
   -5.8942   19.6186  -34.7171 H   0  0  0  0  0  0  0  0  0  0  0  0
   -7.9316   19.4070  -32.7110 H   0  0  0  0  0  0  0  0  0  0  0  0
   -7.4615   17.0304  -32.7419 H   0  0  0  0  0  0  0  0  0  0  0  0
   -7.4952   17.7766  -34.4234 H   0  0  0  0  0  0  0  0  0  0  0  0
   -5.4063   18.1406  -35.6786 H   0  0  0  0  0  0  0  0  0  0  0  0
   -3.2167   17.0926  -36.2533 H   0  0  0  0  0  0  0  0  0  0  0  0
   -2.1664   15.4475  -34.6943 H   0  0  0  0  0  0  0  0  0  0  0  0
   -3.2966   14.8693  -32.5447 H   0  0  0  0  0  0  0  0  0  0  0  0
   -5.4907   15.9068  -31.9636 H   0  0  0  0  0  0  0  0  0  0  0  0
   -6.6689   20.0298  -30.9184 H   0  0  0  0  0  0  0  0  0  0  0  0
   -6.4786   18.2077  -30.9651 H   0  0  0  0  0  0  0  0  0  0  0  0
   -4.3958   19.7803  -30.5156 H   0  0  0  0  0  0  0  0  0  0  0  0
   -4.2825   18.2933  -31.5541 H   0  0  0  0  0  0  0  0  0  0  0  0
  1  2  2  0
  2  3  1  0
  3  4  2  0
  4  5  1  0
  5  6  2  0
  6  7  1  0
  6  8  1  0
  8  9  1  0
  9 10  1  0
 10 11  2  0
 10 12  2  0
 10 13  1  0
 13 14  2  0
 14 15  1  0
 15 16  2  0
 16 17  1  0
 17 18  2  0
 17 19  2  0
 17 20  1  0
 20 21  1  0
 21 22  1  0
 22 23  1  0
 23 24  1  0
 24 25  1  0
 16 26  1  0
 26 27  2  0
  8 28  2  0
  2 29  1  0
 29 30  1  0
 30 31  1  0
 31 32  1  0
 32 33  1  0
 33 34  1  0
 34 35  2  0
 35 36  1  0
 36 37  2  0
 37 38  1  0
 38 39  2  0
 32 40  1  0
 40 41  1  0
 28  3  1  0
 41 29  1  0
 27 13  1  0
 39 34  1  0
 25 20  1  0
  4 42  1  0
  5 43  1  0
 14 44  1  0
 15 45  1  0
 21 46  1  0
 21 47  1  0
 22 48  1  0
 22 49  1  0
 23 50  1  0
 23 51  1  0
 24 52  1  0
 24 53  1  0
 25 54  1  0
 25 55  1  0
 26 56  1  0
 27 57  1  0
 28 58  1  0
 30 59  1  0
 30 60  1  0
 31 61  1  0
 31 62  1  0
 32 63  1  0
 33 64  1  0
 33 65  1  0
 35 66  1  0
 36 67  1  0
 37 68  1  0
 38 69  1  0
 39 70  1  0
 40 71  1  0
 40 72  1  0
 41 73  1  0
 41 74  1  0
M  CHG  2   7  -1   9  -1
M  END
>  <UniqueID>  (17) 
17

>  <SMILES>  (17) 
O=C(c1ccc([O-])c([N-]S(=O)(=O)c2ccc(S(=O)(=O)N3CCCCC3)cc2)c1)N1CCC(Cc2ccccc2)CC1

>  <Energy>  (17) 
96.43475409554873

>  <Genealogy>  (17) 
O=C(c1ccc([O-])c([N-]S(=O)(=O)c2ccc(S(=O)(=O)N3CCCCC3)cc2)c1)N1CCC(Cc2ccccc2)CC1 (protonated)
O=C(c1ccc([O-])c([N-]S(=O)(=O)c2ccc(S(=O)(=O)N3CCCCC3)cc2)c1)N1CCC(Cc2ccccc2)CC1 (3D coordinates assigned)
O=C(c1ccc([O-])c([N-]S(=O)(=O)c2ccc(S(=O)(=O)N3CCCCC3)cc2)c1)N1CCC(Cc2ccccc2)CC1 (nonaromatic ring conformer: 96.43475409554873 kcal/mol)

>  <smiles>  (17) 
O=C(c1ccc(O)c(NS(=O)(=O)c2ccc(S(=O)(=O)N3CCCCC3)cc2)c1)N1CCC(Cc2ccccc2)CC1

>  <score_type>  (17) 
oracle

>  <origin>  (17) 
adgpu

>  <m_score__min__energy>  (17) 
-16.760000000000002

>  <m_primary>  (17) 
energy

$$$$
17:0
     RDKit          3D

 51 54  0  0  0  0  0  0  0  0999 V2000
   -5.6169   23.4630  -28.5573 H   0  0  0  0  0  0  0  0  0  0  0  0
   -5.8100   23.2550  -29.6200 C   0  0  0  0  0  0  0  0  0  0  0  0
   -4.7500   22.9310  -30.4690 C   0  0  0  0  0  0  0  0  0  0  0  0
   -3.7274   22.8732  -30.0679 H   0  0  0  0  0  0  0  0  0  0  0  0
   -4.9790   22.6790  -31.8280 C   0  0  0  0  0  0  0  0  0  0  0  0
   -3.8620   22.3160  -32.6590 N   0  0  0  0  0  0  0  0  0  0  0  0
   -3.3920   21.1180  -32.8450 C   0  0  0  0  0  0  0  0  0  0  0  0
   -3.9500   19.9910  -32.3490 N   0  0  0  0  0  0  0  0  0  0  0  0
   -3.3130   18.8850  -32.7300 N   0  0  0  0  0  0  0  0  0  0  0  0
   -2.2560   19.1340  -33.5330 C   0  0  0  0  0  0  0  0  0  0  0  0
   -1.2360   17.8490  -34.2530 S   0  0  0  0  0  0  0  0  0  0  0  0
   -2.6430   16.9020  -34.9520 C   0  0  0  0  0  0  0  0  0  0  0  0
   -3.4363   17.6017  -35.2537 H   0  0  0  0  0  0  0  0  0  0  0  0
   -2.2902   16.3310  -35.8235 H   0  0  0  0  0  0  0  0  0  0  0  0
   -3.1940   15.9370  -33.9240 C   0  0  0  0  0  0  0  0  0  0  0  0
   -2.2830   15.0640  -33.2980 C   0  0  0  0  0  0  0  0  0  0  0  0
   -1.2136   15.1250  -33.5481 H   0  0  0  0  0  0  0  0  0  0  0  0
   -2.7190   14.1230  -32.3650 C   0  0  0  0  0  0  0  0  0  0  0  0
   -1.9952   13.4462  -31.8874 H   0  0  0  0  0  0  0  0  0  0  0  0
   -4.0700   14.0400  -32.0380 C   0  0  0  0  0  0  0  0  0  0  0  0
   -4.4160   13.2812  -31.3207 H   0  0  0  0  0  0  0  0  0  0  0  0
   -4.9850   14.9180  -32.6190 C   0  0  0  0  0  0  0  0  0  0  0  0
   -6.0506   14.8419  -32.3567 H   0  0  0  0  0  0  0  0  0  0  0  0
   -4.5650   15.9000  -33.5360 C   0  0  0  0  0  0  0  0  0  0  0  0
   -5.7590   17.0590  -34.1680 S   0  0  0  0  0  0  0  0  0  0  0  0
   -7.0150   16.3060  -34.5150 O   0  0  0  0  0  0  0  0  0  0  0  0
   -5.2070   17.7030  -35.4110 O   0  0  0  0  0  0  0  0  0  0  0  0
   -6.1560   18.3210  -33.0180 N   0  0  0  0  0  0  0  0  0  0  0  0
   -5.2820   18.6320  -32.5300 H   0  0  0  0  0  0  0  0  0  0  0  0
   -6.8120   19.4770  -33.6590 C   0  0  0  0  0  0  0  0  0  0  0  0
   -6.0815   20.2853  -33.8107 H   0  0  0  0  0  0  0  0  0  0  0  0
   -7.2217   19.1919  -34.6392 H   0  0  0  0  0  0  0  0  0  0  0  0
   -7.9290   19.9530  -32.7310 C   0  0  0  0  0  0  0  0  0  0  0  0
   -7.7586   20.9969  -32.4289 H   0  0  0  0  0  0  0  0  0  0  0  0
   -8.9113   19.9174  -33.2247 H   0  0  0  0  0  0  0  0  0  0  0  0
   -7.8740   19.0370  -31.5240 C   0  0  0  0  0  0  0  0  0  0  0  0
   -7.3547   19.5263  -30.6868 H   0  0  0  0  0  0  0  0  0  0  0  0
   -8.8745   18.7715  -31.1519 H   0  0  0  0  0  0  0  0  0  0  0  0
   -7.0960   17.8290  -32.0060 C   0  0  0  0  0  0  0  0  0  0  0  0
   -6.5489   17.3699  -31.1694 H   0  0  0  0  0  0  0  0  0  0  0  0
   -7.7660   17.0624  -32.4223 H   0  0  0  0  0  0  0  0  0  0  0  0
   -2.0600   20.7840  -33.8180 S   0  0  0  0  0  0  0  0  0  0  0  0
   -6.2990   22.7120  -32.3190 C   0  0  0  0  0  0  0  0  0  0  0  0
   -6.4958   22.4684  -33.3735 H   0  0  0  0  0  0  0  0  0  0  0  0
   -7.3660   23.0540  -31.4710 C   0  0  0  0  0  0  0  0  0  0  0  0
   -8.7740   23.0520  -31.9880 C   0  0  0  0  0  0  0  0  0  0  0  0
   -9.4757   23.0510  -31.1408 H   0  0  0  0  0  0  0  0  0  0  0  0
   -8.9407   23.9499  -32.6012 H   0  0  0  0  0  0  0  0  0  0  0  0
   -8.9382   22.1536  -32.6012 H   0  0  0  0  0  0  0  0  0  0  0  0
   -7.1150   23.3160  -30.1150 C   0  0  0  0  0  0  0  0  0  0  0  0
   -7.9468   23.5696  -29.4413 H   0  0  0  0  0  0  0  0  0  0  0  0
  1  2  1  0
  2  3  2  0
  3  4  1  0
  3  5  1  0
  5  6  1  0
  6  7  2  0
  7  8  1  0
  8  9  1  0
  9 10  2  0
 10 11  1  0
 11 12  1  0
 12 13  1  0
 12 14  1  0
 12 15  1  0
 15 16  2  0
 16 17  1  0
 16 18  1  0
 18 19  1  0
 18 20  2  0
 20 21  1  0
 20 22  1  0
 22 23  1  0
 22 24  2  0
 24 25  1  0
 25 26  2  0
 25 27  2  0
 25 28  1  0
 28 29  1  0
 28 30  1  0
 30 31  1  0
 30 32  1  0
 30 33  1  0
 33 34  1  0
 33 35  1  0
 33 36  1  0
 36 37  1  0
 36 38  1  0
 36 39  1  0
 39 40  1  0
 39 41  1  0
 10 42  1  0
  5 43  2  0
 43 44  1  0
 43 45  1  0
 45 46  1  0
 46 47  1  0
 46 48  1  0
 46 49  1  0
 45 50  2  0
 50 51  1  0
 50  2  1  0
 42  7  1  0
 24 15  1  0
 39 28  1  0
M  CHG  2   8  -1  28   1
M  END
>  <UniqueID>  (18) 
18

>  <SMILES>  (18) 
Cc1cccc(/N=c2\[n-]nc(SCc3ccccc3S(=O)(=O)[NH+]3CCCC3)s2)c1

>  <Energy>  (18) 
98.11160045767681

>  <Genealogy>  (18) 
Cc1cccc(N=c2[n-]nc(SCc3ccccc3S(=O)(=O)[NH+]3CCCC3)s2)c1 (protonated)
Cc1cccc(/N=c2\[n-]nc(SCc3ccccc3S(=O)(=O)[NH+]3CCCC3)s2)c1 (cis-trans isomerization)
Cc1cccc(/N=c2\[n-]nc(SCc3ccccc3S(=O)(=O)[NH+]3CCCC3)s2)c1 (3D coordinates assigned)
Cc1cccc(/N=c2\[n-]nc(SCc3ccccc3S(=O)(=O)[NH+]3CCCC3)s2)c1 (nonaromatic ring conformer: 98.11160045767681 kcal/mol)

>  <smiles>  (18) 
Cc1cccc(N=c2[nH]nc(SCc3ccccc3S(=O)(=O)N3CCCC3)s2)c1

>  <score_type>  (18) 
oracle

>  <origin>  (18) 
adgpu

>  <m_score__min__energy>  (18) 
-11.09

>  <m_primary>  (18) 
energy

$$$$
18:0
     RDKit          3D

 56 59  0  0  0  0  0  0  0  0999 V2000
   -0.5710   22.8310  -25.7420 C   0  0  0  0  0  0  0  0  0  0  0  0
   -0.2890   22.1460  -27.0150 N   0  0  0  0  0  0  0  0  0  0  0  0
   -1.0770   20.9080  -27.1820 C   0  0  0  0  0  0  0  0  0  0  0  0
   -2.5830   21.1840  -27.2930 C   0  0  0  0  0  0  0  0  0  0  0  0
   -2.8890   22.3430  -28.1990 C   0  0  0  0  0  0  0  0  0  0  0  0
   -4.2120   22.5510  -28.6130 C   0  0  0  0  0  0  0  0  0  0  0  0
   -4.5410   23.6420  -29.4260 C   0  0  0  0  0  0  0  0  0  0  0  0
   -5.8850   23.8400  -29.8720 N   0  0  0  0  0  0  0  0  0  0  0  0
   -6.4960   23.1320  -31.3310 S   0  0  0  0  0  0  0  0  0  0  0  0
   -6.6110   24.1970  -32.3870 O   0  0  0  0  0  0  0  0  0  0  0  0
   -7.8690   22.5810  -31.0640 O   0  0  0  0  0  0  0  0  0  0  0  0
   -5.4600   21.8300  -31.9120 C   0  0  0  0  0  0  0  0  0  0  0  0
   -5.9470   20.5180  -31.9910 C   0  0  0  0  0  0  0  0  0  0  0  0
   -5.1230   19.4890  -32.4540 C   0  0  0  0  0  0  0  0  0  0  0  0
   -3.8000   19.7580  -32.8330 C   0  0  0  0  0  0  0  0  0  0  0  0
   -2.7720   18.4650  -33.4600 S   0  0  0  0  0  0  0  0  0  0  0  0
   -1.9430   19.0000  -34.5960 O   0  0  0  0  0  0  0  0  0  0  0  0
   -1.8330   18.0110  -32.3760 O   0  0  0  0  0  0  0  0  0  0  0  0
   -3.7120   17.1020  -34.0190 N   0  0  0  0  0  0  0  0  0  0  0  0
   -4.2950   16.3790  -32.8690 C   0  0  0  0  0  0  0  0  0  0  0  0
   -5.3320   15.3490  -33.3300 C   0  0  0  0  0  0  0  0  0  0  0  0
   -6.4830   16.0010  -34.1190 C   0  0  0  0  0  0  0  0  0  0  0  0
   -6.1480   17.4210  -34.5990 C   0  0  0  0  0  0  0  0  0  0  0  0
   -4.6870   17.4990  -35.0670 C   0  0  0  0  0  0  0  0  0  0  0  0
   -3.3080   21.0680  -32.7380 C   0  0  0  0  0  0  0  0  0  0  0  0
   -4.1340   22.0990  -32.2820 C   0  0  0  0  0  0  0  0  0  0  0  0
   -3.5500   24.5680  -29.7750 C   0  0  0  0  0  0  0  0  0  0  0  0
   -3.8680   25.6710  -30.5610 O   0  0  0  0  0  0  0  0  0  0  0  0
   -2.2320   24.3800  -29.3500 C   0  0  0  0  0  0  0  0  0  0  0  0
   -1.8920   23.2740  -28.5560 C   0  0  0  0  0  0  0  0  0  0  0  0
   -0.4470   23.0470  -28.1740 C   0  0  0  0  0  0  0  0  0  0  0  0
   -0.3000   22.1726  -24.9035 H   0  0  0  0  0  0  0  0  0  0  0  0
    0.0187   23.7579  -25.6859 H   0  0  0  0  0  0  0  0  0  0  0  0
   -1.6423   23.0741  -25.6859 H   0  0  0  0  0  0  0  0  0  0  0  0
   -0.7430   20.3973  -28.0972 H   0  0  0  0  0  0  0  0  0  0  0  0
   -0.9149   20.2842  -26.2906 H   0  0  0  0  0  0  0  0  0  0  0  0
   -3.0783   20.2855  -27.6897 H   0  0  0  0  0  0  0  0  0  0  0  0
   -2.9518   21.4380  -26.2883 H   0  0  0  0  0  0  0  0  0  0  0  0
   -4.9988   21.8506  -28.2961 H   0  0  0  0  0  0  0  0  0  0  0  0
   -6.9811   20.2978  -31.6875 H   0  0  0  0  0  0  0  0  0  0  0  0
   -5.5139   18.4630  -32.5215 H   0  0  0  0  0  0  0  0  0  0  0  0
   -3.4910   15.8605  -32.3262 H   0  0  0  0  0  0  0  0  0  0  0  0
   -4.7956   17.1091  -32.2160 H   0  0  0  0  0  0  0  0  0  0  0  0
   -4.8349   14.6086  -33.9740 H   0  0  0  0  0  0  0  0  0  0  0  0
   -5.7603   14.8746  -32.4347 H   0  0  0  0  0  0  0  0  0  0  0  0
   -6.7047   15.3766  -34.9971 H   0  0  0  0  0  0  0  0  0  0  0  0
   -7.3468   16.0761  -33.4421 H   0  0  0  0  0  0  0  0  0  0  0  0
   -6.8110   17.6863  -35.4357 H   0  0  0  0  0  0  0  0  0  0  0  0
   -6.2925   18.1225  -33.7641 H   0  0  0  0  0  0  0  0  0  0  0  0
   -4.5613   16.8309  -35.9318 H   0  0  0  0  0  0  0  0  0  0  0  0
   -4.4821   18.5494  -35.3213 H   0  0  0  0  0  0  0  0  0  0  0  0
   -2.2680   21.2847  -33.0235 H   0  0  0  0  0  0  0  0  0  0  0  0
   -3.7430   23.1248  -32.2130 H   0  0  0  0  0  0  0  0  0  0  0  0
   -1.4560   25.1038  -29.6398 H   0  0  0  0  0  0  0  0  0  0  0  0
    0.0774   22.6058  -29.0344 H   0  0  0  0  0  0  0  0  0  0  0  0
   -0.0254   24.0227  -27.8908 H   0  0  0  0  0  0  0  0  0  0  0  0
  1  2  1  0
  2  3  1  0
  3  4  1  0
  4  5  1  0
  5  6  2  0
  6  7  1  0
  7  8  1  0
  8  9  1  0
  9 10  2  0
  9 11  2  0
  9 12  1  0
 12 13  2  0
 13 14  1  0
 14 15  2  0
 15 16  1  0
 16 17  2  0
 16 18  2  0
 16 19  1  0
 19 20  1  0
 20 21  1  0
 21 22  1  0
 22 23  1  0
 23 24  1  0
 15 25  1  0
 25 26  2  0
  7 27  2  0
 27 28  1  0
 27 29  1  0
 29 30  2  0
 30 31  1  0
 31  2  1  0
 30  5  1  0
 26 12  1  0
 24 19  1  0
  1 32  1  0
  1 33  1  0
  1 34  1  0
  3 35  1  0
  3 36  1  0
  4 37  1  0
  4 38  1  0
  6 39  1  0
 13 40  1  0
 14 41  1  0
 20 42  1  0
 20 43  1  0
 21 44  1  0
 21 45  1  0
 22 46  1  0
 22 47  1  0
 23 48  1  0
 23 49  1  0
 24 50  1  0
 24 51  1  0
 25 52  1  0
 26 53  1  0
 29 54  1  0
 31 55  1  0
 31 56  1  0
M  CHG  2   8  -1  28  -1
M  END
>  <UniqueID>  (19) 
19

>  <SMILES>  (19) 
CN1CCc2cc([N-]S(=O)(=O)c3ccc(S(=O)(=O)N4CCCCC4)cc3)c([O-])cc2C1

>  <Energy>  (19) 
73.46541284996266

>  <Genealogy>  (19) 
CN1CCc2cc([N-]S(=O)(=O)c3ccc(S(=O)(=O)N4CCCCC4)cc3)c([O-])cc2C1 (protonated)
CN1CCc2cc([N-]S(=O)(=O)c3ccc(S(=O)(=O)N4CCCCC4)cc3)c([O-])cc2C1 (3D coordinates assigned)
CN1CCc2cc([N-]S(=O)(=O)c3ccc(S(=O)(=O)N4CCCCC4)cc3)c([O-])cc2C1 (nonaromatic ring conformer: 73.46541284996266 kcal/mol)

>  <smiles>  (19) 
CN1CCc2cc(NS(=O)(=O)c3ccc(S(=O)(=O)N4CCCCC4)cc3)c(O)cc2C1

>  <score_type>  (19) 
oracle

>  <origin>  (19) 
adgpu

>  <m_score__min__energy>  (19) 
-15.75

>  <m_primary>  (19) 
energy

$$$$
19:0
     RDKit          3D

 57 60  0  0  0  0  0  0  0  0999 V2000
   -1.2540   25.7820  -29.2980 N   0  0  0  0  0  0  0  0  0  0  0  0
   -0.6470   24.6260  -28.1660 S   0  0  0  0  0  0  0  0  0  0  0  0
    0.6950   24.1260  -28.6220 O   0  0  0  0  0  0  0  0  0  0  0  0
   -0.4840   25.3030  -26.8340 O   0  0  0  0  0  0  0  0  0  0  0  0
   -1.7720   23.2660  -28.0380 C   0  0  0  0  0  0  0  0  0  0  0  0
   -1.2670   21.9960  -27.7110 C   0  0  0  0  0  0  0  0  0  0  0  0
   -2.1180   20.8950  -27.6120 C   0  0  0  0  0  0  0  0  0  0  0  0
   -3.4880   21.0530  -27.8060 C   0  0  0  0  0  0  0  0  0  0  0  0
   -4.0100   22.3090  -28.1200 C   0  0  0  0  0  0  0  0  0  0  0  0
   -3.1620   23.4240  -28.2720 C   0  0  0  0  0  0  0  0  0  0  0  0
   -3.7090   24.7010  -28.6610 N   0  0  0  0  0  0  0  0  0  0  0  0
   -4.9940   24.8750  -29.8140 S   0  0  0  0  0  0  0  0  0  0  0  0
   -6.1310   25.6170  -29.1680 O   0  0  0  0  0  0  0  0  0  0  0  0
   -4.5030   25.6630  -30.9960 O   0  0  0  0  0  0  0  0  0  0  0  0
   -5.5270   23.2920  -30.3730 C   0  0  0  0  0  0  0  0  0  0  0  0
   -6.8840   22.9540  -30.3040 C   0  0  0  0  0  0  0  0  0  0  0  0
   -7.3410   21.7650  -30.8760 C   0  0  0  0  0  0  0  0  0  0  0  0
   -6.4410   20.8990  -31.5140 C   0  0  0  0  0  0  0  0  0  0  0  0
   -7.0540   19.5040  -32.3900 S   0  0  0  0  0  0  0  0  0  0  0  0
   -8.1390   18.8180  -31.6070 O   0  0  0  0  0  0  0  0  0  0  0  0
   -7.6210   19.9370  -33.7130 O   0  0  0  0  0  0  0  0  0  0  0  0
   -5.7010   18.4060  -32.6270 C   0  0  0  0  0  0  0  0  0  0  0  0
   -5.8230   17.0520  -32.2860 C   0  0  0  0  0  0  0  0  0  0  0  0
   -4.7130   16.2070  -32.3650 C   0  0  0  0  0  0  0  0  0  0  0  0
   -3.4730   16.7110  -32.7690 C   0  0  0  0  0  0  0  0  0  0  0  0
   -3.3440   18.0650  -33.1110 C   0  0  0  0  0  0  0  0  0  0  0  0
   -1.7780   18.7290  -33.5590 S   0  0  0  0  0  0  0  0  0  0  0  0
   -1.8500   19.3190  -34.9400 O   0  0  0  0  0  0  0  0  0  0  0  0
   -0.7460   17.6340  -33.5690 O   0  0  0  0  0  0  0  0  0  0  0  0
   -1.3260   19.9800  -32.4050 C   0  0  0  0  0  0  0  0  0  0  0  0
   -1.9470   21.2370  -32.4600 C   0  0  0  0  0  0  0  0  0  0  0  0
   -1.5860   22.2420  -31.5580 C   0  0  0  0  0  0  0  0  0  0  0  0
   -0.5960   22.0000  -30.6030 C   0  0  0  0  0  0  0  0  0  0  0  0
    0.0160   20.7460  -30.5330 C   0  0  0  0  0  0  0  0  0  0  0  0
   -0.3480   19.7360  -31.4290 C   0  0  0  0  0  0  0  0  0  0  0  0
   -4.4620   18.9070  -33.0430 C   0  0  0  0  0  0  0  0  0  0  0  0
   -5.0780   21.2190  -31.5480 C   0  0  0  0  0  0  0  0  0  0  0  0
   -4.6210   22.4080  -30.9750 C   0  0  0  0  0  0  0  0  0  0  0  0
   -2.2020   26.0680  -28.9650 H   0  0  0  0  0  0  0  0  0  0  0  0
   -0.1893   21.8687  -27.5312 H   0  0  0  0  0  0  0  0  0  0  0  0
   -1.7066   19.9014  -27.3806 H   0  0  0  0  0  0  0  0  0  0  0  0
   -4.1596   20.1870  -27.7117 H   0  0  0  0  0  0  0  0  0  0  0  0
   -5.0956   22.4297  -28.2502 H   0  0  0  0  0  0  0  0  0  0  0  0
   -3.2700   25.5860  -28.3290 H   0  0  0  0  0  0  0  0  0  0  0  0
   -7.5919   23.6269  -29.7979 H   0  0  0  0  0  0  0  0  0  0  0  0
   -8.4092   21.5070  -30.8261 H   0  0  0  0  0  0  0  0  0  0  0  0
   -6.7939   16.6541  -31.9557 H   0  0  0  0  0  0  0  0  0  0  0  0
   -4.8150   15.1422  -32.1086 H   0  0  0  0  0  0  0  0  0  0  0  0
   -2.5986   16.0455  -32.8186 H   0  0  0  0  0  0  0  0  0  0  0  0
   -2.7214   21.4325  -33.2163 H   0  0  0  0  0  0  0  0  0  0  0  0
   -2.0815   23.2232  -31.6003 H   0  0  0  0  0  0  0  0  0  0  0  0
   -0.2981   22.7969  -29.9058 H   0  0  0  0  0  0  0  0  0  0  0  0
    0.7858   20.5528  -29.7714 H   0  0  0  0  0  0  0  0  0  0  0  0
    0.1332   18.7487  -31.3686 H   0  0  0  0  0  0  0  0  0  0  0  0
   -4.3654   19.9677  -33.3181 H   0  0  0  0  0  0  0  0  0  0  0  0
   -4.3652   20.5319  -32.0274 H   0  0  0  0  0  0  0  0  0  0  0  0
   -3.5484   22.6510  -30.9962 H   0  0  0  0  0  0  0  0  0  0  0  0
  1  2  1  0
  2  3  2  0
  2  4  2  0
  2  5  1  0
  5  6  2  0
  6  7  1  0
  7  8  2  0
  8  9  1  0
  9 10  2  0
 10 11  1  0
 11 12  1  0
 12 13  2  0
 12 14  2  0
 12 15  1  0
 15 16  2  0
 16 17  1  0
 17 18  2  0
 18 19  1  0
 19 20  2  0
 19 21  2  0
 19 22  1  0
 22 23  2  0
 23 24  1  0
 24 25  2  0
 25 26  1  0
 26 27  1  0
 27 28  2  0
 27 29  2  0
 27 30  1  0
 30 31  2  0
 31 32  1  0
 32 33  2  0
 33 34  1  0
 34 35  2  0
 26 36  2  0
 18 37  1  0
 37 38  2  0
 10  5  1  0
 38 15  1  0
 36 22  1  0
 35 30  1  0
  1 39  1  0
  6 40  1  0
  7 41  1  0
  8 42  1  0
  9 43  1  0
 11 44  1  0
 16 45  1  0
 17 46  1  0
 23 47  1  0
 24 48  1  0
 25 49  1  0
 31 50  1  0
 32 51  1  0
 33 52  1  0
 34 53  1  0
 35 54  1  0
 36 55  1  0
 37 56  1  0
 38 57  1  0
M  CHG  1   1  -1
M  END
>  <UniqueID>  (20) 
20

>  <SMILES>  (20) 
[NH-]S(=O)(=O)c1ccccc1NS(=O)(=O)c1ccc(S(=O)(=O)c2cccc(S(=O)(=O)c3ccccc3)c2)cc1

>  <Energy>  (20) 
66.0626654448246

>  <Genealogy>  (20) 
[NH-]S(=O)(=O)c1ccccc1NS(=O)(=O)c1ccc(S(=O)(=O)c2cccc(S(=O)(=O)c3ccccc3)c2)cc1 (protonated)
[NH-]S(=O)(=O)c1ccccc1NS(=O)(=O)c1ccc(S(=O)(=O)c2cccc(S(=O)(=O)c3ccccc3)c2)cc1 (3D coordinates assigned)
[NH-]S(=O)(=O)c1ccccc1NS(=O)(=O)c1ccc(S(=O)(=O)c2cccc(S(=O)(=O)c3ccccc3)c2)cc1 (optimized conformer: 66.0626654448246 kcal/mol)

>  <smiles>  (20) 
NS(=O)(=O)c1ccccc1NS(=O)(=O)c1ccc(S(=O)(=O)c2cccc(S(=O)(=O)c3ccccc3)c2)cc1

>  <score_type>  (20) 
oracle

>  <origin>  (20) 
adgpu

>  <m_score__min__energy>  (20) 
-14.34

>  <m_primary>  (20) 
energy

$$$$
20:0
     RDKit          3D

 63 67  0  0  0  0  0  0  0  0999 V2000
   -6.6040   22.9780  -32.3560 C   0  0  0  0  0  0  0  0  0  0  0  0
   -5.5020   22.4230  -31.4800 C   0  0  0  0  0  0  0  0  0  0  0  0
   -5.2840   21.0200  -31.4230 C   0  0  0  0  0  0  0  0  0  0  0  0
   -6.2040   20.1040  -32.0550 N   0  0  0  0  0  0  0  0  0  0  0  0
   -5.8120   18.7990  -32.5860 C   0  0  0  0  0  0  0  0  0  0  0  0
   -4.4290   18.8630  -33.1720 C   0  0  0  0  0  0  0  0  0  0  0  0
   -3.8570   20.0330  -33.5600 N   0  0  0  0  0  0  0  0  0  0  0  0
   -2.6480   19.6490  -34.0040 C   0  0  0  0  0  0  0  0  0  0  0  0
   -1.6500   20.4580  -34.5430 C   0  0  0  0  0  0  0  0  0  0  0  0
   -0.4460   19.8450  -34.9660 C   0  0  0  0  0  0  0  0  0  0  0  0
    0.6570   20.6520  -35.5430 C   0  0  0  0  0  0  0  0  0  0  0  0
    1.3250   20.1850  -36.5050 O   0  0  0  0  0  0  0  0  0  0  0  0
    1.0000   21.9330  -34.9860 N   0  0  0  0  0  0  0  0  0  0  0  0
    1.7850   22.9230  -35.6670 C   0  0  0  0  0  0  0  0  0  0  0  0
    3.1610   23.0300  -35.5930 C   0  0  0  0  0  0  0  0  0  0  0  0
    3.4970   24.1350  -36.3480 C   0  0  0  0  0  0  0  0  0  0  0  0
    2.3830   24.6960  -36.8560 N   0  0  0  0  0  0  0  0  0  0  0  0
    2.3260   26.1170  -37.8420 S   0  0  0  0  0  0  0  0  0  0  0  0
    2.8180   25.8010  -39.2270 O   0  0  0  0  0  0  0  0  0  0  0  0
    3.2120   27.1750  -37.2450 O   0  0  0  0  0  0  0  0  0  0  0  0
    0.6660   26.6900  -37.9460 C   0  0  0  0  0  0  0  0  0  0  0  0
   -0.0030   26.7200  -39.1790 C   0  0  0  0  0  0  0  0  0  0  0  0
   -1.3140   27.1990  -39.2550 C   0  0  0  0  0  0  0  0  0  0  0  0
   -1.9620   27.6530  -38.1020 C   0  0  0  0  0  0  0  0  0  0  0  0
   -1.2970   27.6310  -36.8720 C   0  0  0  0  0  0  0  0  0  0  0  0
    0.0150   27.1530  -36.7930 C   0  0  0  0  0  0  0  0  0  0  0  0
    1.3260   23.9720  -36.4460 C   0  0  0  0  0  0  0  0  0  0  0  0
   -0.3080   18.4350  -34.8540 C   0  0  0  0  0  0  0  0  0  0  0  0
   -1.3390   17.6490  -34.3060 C   0  0  0  0  0  0  0  0  0  0  0  0
   -2.4970   18.3000  -33.8820 C   0  0  0  0  0  0  0  0  0  0  0  0
   -3.6110   17.7870  -33.3310 N   0  0  0  0  0  0  0  0  0  0  0  0
   -3.9170   16.3810  -33.0660 C   0  0  0  0  0  0  0  0  0  0  0  0
   -4.1730   20.5250  -30.7160 C   0  0  0  0  0  0  0  0  0  0  0  0
   -3.3090   21.3910  -30.0530 C   0  0  0  0  0  0  0  0  0  0  0  0
   -3.5520   22.7600  -30.0540 C   0  0  0  0  0  0  0  0  0  0  0  0
   -4.6560   23.2930  -30.7370 C   0  0  0  0  0  0  0  0  0  0  0  0
   -4.9020   24.7540  -30.6300 C   0  0  0  0  0  0  0  0  0  0  0  0
   -6.0710   25.1880  -30.4490 O   0  0  0  0  0  0  0  0  0  0  0  0
   -3.8620   25.6650  -30.7830 O   0  0  0  0  0  0  0  0  0  0  0  0
   -7.4072   23.3825  -31.7226 H   0  0  0  0  0  0  0  0  0  0  0  0
   -6.1989   23.7796  -32.9911 H   0  0  0  0  0  0  0  0  0  0  0  0
   -7.0069   22.1753  -32.9911 H   0  0  0  0  0  0  0  0  0  0  0  0
   -7.2190   20.3470  -32.1030 H   0  0  0  0  0  0  0  0  0  0  0  0
   -5.8268   18.0581  -31.7731 H   0  0  0  0  0  0  0  0  0  0  0  0
   -6.5202   18.5090  -33.3762 H   0  0  0  0  0  0  0  0  0  0  0  0
   -1.7937   21.5445  -34.6374 H   0  0  0  0  0  0  0  0  0  0  0  0
    0.7250   22.1400  -33.9990 H   0  0  0  0  0  0  0  0  0  0  0  0
    3.8481   22.3691  -35.0442 H   0  0  0  0  0  0  0  0  0  0  0  0
    4.5210   24.5025  -36.5106 H   0  0  0  0  0  0  0  0  0  0  0  0
    0.5054   26.3658  -40.0879 H   0  0  0  0  0  0  0  0  0  0  0  0
   -1.8365   27.2188  -40.2228 H   0  0  0  0  0  0  0  0  0  0  0  0
   -2.9946   28.0273  -38.1625 H   0  0  0  0  0  0  0  0  0  0  0  0
   -1.8064   27.9901  -35.9656 H   0  0  0  0  0  0  0  0  0  0  0  0
    0.5373   27.1401  -35.8250 H   0  0  0  0  0  0  0  0  0  0  0  0
    0.2732   24.1786  -36.6888 H   0  0  0  0  0  0  0  0  0  0  0  0
    0.6172   17.9513  -35.2003 H   0  0  0  0  0  0  0  0  0  0  0  0
   -1.2348   16.5577  -34.2152 H   0  0  0  0  0  0  0  0  0  0  0  0
   -3.9537   16.2122  -31.9797 H   0  0  0  0  0  0  0  0  0  0  0  0
   -4.8913   16.1279  -33.5096 H   0  0  0  0  0  0  0  0  0  0  0  0
   -3.1361   15.7459  -33.5096 H   0  0  0  0  0  0  0  0  0  0  0  0
   -3.9853   19.4415  -30.6870 H   0  0  0  0  0  0  0  0  0  0  0  0
   -2.4302   20.9910  -29.5260 H   0  0  0  0  0  0  0  0  0  0  0  0
   -2.8708   23.4333  -29.5130 H   0  0  0  0  0  0  0  0  0  0  0  0
  1  2  1  0
  2  3  2  0
  3  4  1  0
  4  5  1  0
  5  6  1  0
  6  7  2  0
  7  8  1  0
  8  9  2  0
  9 10  1  0
 10 11  1  0
 11 12  2  0
 11 13  1  0
 13 14  1  0
 14 15  1  0
 15 16  2  0
 16 17  1  0
 17 18  1  0
 18 19  2  0
 18 20  2  0
 18 21  1  0
 21 22  2  0
 22 23  1  0
 23 24  2  0
 24 25  1  0
 25 26  2  0
 17 27  1  0
 10 28  2  0
 28 29  1  0
 29 30  2  0
 30 31  1  0
 31 32  1  0
  3 33  1  0
 33 34  2  0
 34 35  1  0
 35 36  2  0
 36 37  1  0
 37 38  2  0
 37 39  1  0
 36  2  1  0
 31  6  1  0
 30  8  1  0
 27 14  2  0
 26 21  1  0
  1 40  1  0
  1 41  1  0
  1 42  1  0
  4 43  1  0
  5 44  1  0
  5 45  1  0
  9 46  1  0
 13 47  1  0
 15 48  1  0
 16 49  1  0
 22 50  1  0
 23 51  1  0
 24 52  1  0
 25 53  1  0
 26 54  1  0
 27 55  1  0
 28 56  1  0
 29 57  1  0
 32 58  1  0
 32 59  1  0
 32 60  1  0
 33 61  1  0
 34 62  1  0
 35 63  1  0
M  CHG  1  39  -1
M  END
>  <UniqueID>  (21) 
21

>  <SMILES>  (21) 
Cc1c(NCc2nc3cc(C(=O)Nc4ccn(S(=O)(=O)c5ccccc5)c4)ccc3n2C)cccc1C(=O)[O-]

>  <Energy>  (21) 
147.08100195978662

>  <Genealogy>  (21) 
Cc1c(NCc2nc3cc(C(=O)Nc4ccn(S(=O)(=O)c5ccccc5)c4)ccc3n2C)cccc1C(=O)[O-] (protonated)
Cc1c(NCc2nc3cc(C(=O)Nc4ccn(S(=O)(=O)c5ccccc5)c4)ccc3n2C)cccc1C(=O)[O-] (3D coordinates assigned)
Cc1c(NCc2nc3cc(C(=O)Nc4ccn(S(=O)(=O)c5ccccc5)c4)ccc3n2C)cccc1C(=O)[O-] (optimized conformer: 147.08100195978662 kcal/mol)

>  <smiles>  (21) 
Cc1c(NCc2nc3cc(C(=O)Nc4ccn(S(=O)(=O)c5ccccc5)c4)ccc3n2C)cccc1C(=O)O

>  <score_type>  (21) 
oracle

>  <origin>  (21) 
adgpu

>  <m_score__min__energy>  (21) 
-11.6

>  <m_primary>  (21) 
energy

$$$$
21:0
     RDKit          3D

 56 59  0  0  0  0  0  0  0  0999 V2000
   -0.8510   19.0570  -29.1770 C   0  0  0  0  0  0  0  0  0  0  0  0
   -0.7720   19.4970  -27.7760 N   0  0  0  0  0  0  0  0  0  0  0  0
    0.4920   20.1970  -27.4720 C   0  0  0  0  0  0  0  0  0  0  0  0
    0.6320   21.5260  -28.2360 C   0  0  0  0  0  0  0  0  0  0  0  0
   -0.6510   22.3160  -28.2620 C   0  0  0  0  0  0  0  0  0  0  0  0
   -0.6310   23.6310  -28.7450 C   0  0  0  0  0  0  0  0  0  0  0  0
   -1.8140   24.3690  -28.8510 C   0  0  0  0  0  0  0  0  0  0  0  0
   -1.7720   25.6710  -29.3410 O   0  0  0  0  0  0  0  0  0  0  0  0
   -3.0310   23.8080  -28.4510 C   0  0  0  0  0  0  0  0  0  0  0  0
   -4.2250   24.5950  -28.5360 N   0  0  0  0  0  0  0  0  0  0  0  0
   -5.0820   24.9100  -30.0110 S   0  0  0  0  0  0  0  0  0  0  0  0
   -4.1850   25.5440  -31.0380 O   0  0  0  0  0  0  0  0  0  0  0  0
   -6.2030   25.8650  -29.7100 O   0  0  0  0  0  0  0  0  0  0  0  0
   -5.7420   23.3960  -30.6320 C   0  0  0  0  0  0  0  0  0  0  0  0
   -7.0810   23.3380  -31.0490 C   0  0  0  0  0  0  0  0  0  0  0  0
   -7.6050   22.1510  -31.5730 C   0  0  0  0  0  0  0  0  0  0  0  0
   -6.7970   21.0040  -31.6730 C   0  0  0  0  0  0  0  0  0  0  0  0
   -7.4430   19.4950  -32.3170 S   0  0  0  0  0  0  0  0  0  0  0  0
   -8.1770   18.7380  -31.2410 O   0  0  0  0  0  0  0  0  0  0  0  0
   -8.4070   19.8180  -33.4290 O   0  0  0  0  0  0  0  0  0  0  0  0
   -6.1330   18.5200  -32.9350 N   0  0  0  0  0  0  0  0  0  0  0  0
   -6.2890   17.1190  -32.4790 C   0  0  0  0  0  0  0  0  0  0  0  0
   -5.3730   16.1400  -33.2450 C   0  0  0  0  0  0  0  0  0  0  0  0
   -4.2540   16.8760  -33.9900 C   0  0  0  0  0  0  0  0  0  0  0  0
   -4.8270   17.9300  -34.9530 C   0  0  0  0  0  0  0  0  0  0  0  0
   -6.1040   18.5960  -34.4060 C   0  0  0  0  0  0  0  0  0  0  0  0
   -5.4640   21.0590  -31.2470 C   0  0  0  0  0  0  0  0  0  0  0  0
   -4.9390   22.2490  -30.7310 C   0  0  0  0  0  0  0  0  0  0  0  0
   -3.0600   22.4800  -27.9880 C   0  0  0  0  0  0  0  0  0  0  0  0
   -1.8810   21.7230  -27.9160 C   0  0  0  0  0  0  0  0  0  0  0  0
   -1.9420   20.3080  -27.3850 C   0  0  0  0  0  0  0  0  0  0  0  0
   -1.0453   17.9748  -29.2111 H   0  0  0  0  0  0  0  0  0  0  0  0
   -1.6674   19.5922  -29.6839 H   0  0  0  0  0  0  0  0  0  0  0  0
    0.1006   19.2748  -29.6839 H   0  0  0  0  0  0  0  0  0  0  0  0
    0.5282   20.4058  -26.3926 H   0  0  0  0  0  0  0  0  0  0  0  0
    1.3187   19.5433  -27.7870 H   0  0  0  0  0  0  0  0  0  0  0  0
    1.4096   22.1325  -27.7488 H   0  0  0  0  0  0  0  0  0  0  0  0
    0.8976   21.2865  -29.2763 H   0  0  0  0  0  0  0  0  0  0  0  0
    0.3243   24.0872  -29.0437 H   0  0  0  0  0  0  0  0  0  0  0  0
   -7.7207   24.2288  -30.9636 H   0  0  0  0  0  0  0  0  0  0  0  0
   -8.6522   22.1148  -31.9078 H   0  0  0  0  0  0  0  0  0  0  0  0
   -6.0426   17.0675  -31.4082 H   0  0  0  0  0  0  0  0  0  0  0  0
   -7.3302   16.8202  -32.6704 H   0  0  0  0  0  0  0  0  0  0  0  0
   -4.9222   15.4383  -32.5278 H   0  0  0  0  0  0  0  0  0  0  0  0
   -5.9855   15.6063  -33.9867 H   0  0  0  0  0  0  0  0  0  0  0  0
   -3.6032   17.3755  -33.2573 H   0  0  0  0  0  0  0  0  0  0  0  0
   -3.6840   16.1408  -34.5771 H   0  0  0  0  0  0  0  0  0  0  0  0
   -4.0666   18.7075  -35.1182 H   0  0  0  0  0  0  0  0  0  0  0  0
   -5.0918   17.4181  -35.8899 H   0  0  0  0  0  0  0  0  0  0  0  0
   -6.1231   19.6516  -34.7149 H   0  0  0  0  0  0  0  0  0  0  0  0
   -6.9817   18.0687  -34.8080 H   0  0  0  0  0  0  0  0  0  0  0  0
   -4.8280   20.1643  -31.3182 H   0  0  0  0  0  0  0  0  0  0  0  0
   -3.8904   22.2858  -30.4009 H   0  0  0  0  0  0  0  0  0  0  0  0
   -4.0157   22.0310  -27.6796 H   0  0  0  0  0  0  0  0  0  0  0  0
   -1.9909   20.3470  -26.2868 H   0  0  0  0  0  0  0  0  0  0  0  0
   -2.8338   19.8311  -27.8177 H   0  0  0  0  0  0  0  0  0  0  0  0
  1  2  1  0
  2  3  1  0
  3  4  1  0
  4  5  1  0
  5  6  2  0
  6  7  1  0
  7  8  1  0
  7  9  2  0
  9 10  1  0
 10 11  1  0
 11 12  2  0
 11 13  2  0
 11 14  1  0
 14 15  2  0
 15 16  1  0
 16 17  2  0
 17 18  1  0
 18 19  2  0
 18 20  2  0
 18 21  1  0
 21 22  1  0
 22 23  1  0
 23 24  1  0
 24 25  1  0
 25 26  1  0
 17 27  1  0
 27 28  2  0
  9 29  1  0
 29 30  2  0
 30 31  1  0
 31  2  1  0
 30  5  1  0
 28 14  1  0
 26 21  1  0
  1 32  1  0
  1 33  1  0
  1 34  1  0
  3 35  1  0
  3 36  1  0
  4 37  1  0
  4 38  1  0
  6 39  1  0
 15 40  1  0
 16 41  1  0
 22 42  1  0
 22 43  1  0
 23 44  1  0
 23 45  1  0
 24 46  1  0
 24 47  1  0
 25 48  1  0
 25 49  1  0
 26 50  1  0
 26 51  1  0
 27 52  1  0
 28 53  1  0
 29 54  1  0
 31 55  1  0
 31 56  1  0
M  CHG  2   8  -1  10  -1
M  END
>  <UniqueID>  (22) 
22

>  <SMILES>  (22) 
CN1CCc2cc([O-])c([N-]S(=O)(=O)c3ccc(S(=O)(=O)N4CCCCC4)cc3)cc2C1

>  <Energy>  (22) 
73.51276253760109

>  <Genealogy>  (22) 
CN1CCc2cc([O-])c([N-]S(=O)(=O)c3ccc(S(=O)(=O)N4CCCCC4)cc3)cc2C1 (protonated)
CN1CCc2cc([O-])c([N-]S(=O)(=O)c3ccc(S(=O)(=O)N4CCCCC4)cc3)cc2C1 (3D coordinates assigned)
CN1CCc2cc([O-])c([N-]S(=O)(=O)c3ccc(S(=O)(=O)N4CCCCC4)cc3)cc2C1 (nonaromatic ring conformer: 73.51276253760109 kcal/mol)

>  <smiles>  (22) 
CN1CCc2cc(O)c(NS(=O)(=O)c3ccc(S(=O)(=O)N4CCCCC4)cc3)cc2C1

>  <score_type>  (22) 
oracle

>  <origin>  (22) 
adgpu

>  <m_score__min__energy>  (22) 
-16.030000000000001

>  <m_primary>  (22) 
energy

$$$$
22:0
     RDKit          3D

 58 62  0  0  0  0  0  0  0  0999 V2000
   -6.1920   18.9860  -31.2490 O   0  0  0  0  0  0  0  0  0  0  0  0
   -5.7350   20.0160  -31.8130 C   0  0  0  0  0  0  0  0  0  0  0  0
   -6.4290   21.3150  -31.6440 C   0  0  0  0  0  0  0  0  0  0  0  0
   -7.7770   21.4580  -32.0160 C   0  0  0  0  0  0  0  0  0  0  0  0
   -8.4350   22.6760  -31.8310 C   0  0  0  0  0  0  0  0  0  0  0  0
   -7.7590   23.7610  -31.2700 C   0  0  0  0  0  0  0  0  0  0  0  0
   -6.4110   23.6400  -30.9120 C   0  0  0  0  0  0  0  0  0  0  0  0
   -5.6040   24.9720  -30.0880 S   0  0  0  0  0  0  0  0  0  0  0  0
   -6.6200   26.0190  -29.7270 O   0  0  0  0  0  0  0  0  0  0  0  0
   -4.5640   25.5970  -30.9750 O   0  0  0  0  0  0  0  0  0  0  0  0
   -4.8610   24.3630  -28.6430 N   0  0  0  0  0  0  0  0  0  0  0  0
   -3.7330   23.4810  -28.7190 C   0  0  0  0  0  0  0  0  0  0  0  0
   -3.8560   22.1380  -28.3320 C   0  0  0  0  0  0  0  0  0  0  0  0
   -2.7330   21.3030  -28.3000 C   0  0  0  0  0  0  0  0  0  0  0  0
   -1.4810   21.8010  -28.6890 C   0  0  0  0  0  0  0  0  0  0  0  0
   -1.3630   23.1260  -29.1320 C   0  0  0  0  0  0  0  0  0  0  0  0
   -2.4820   23.9660  -29.1410 C   0  0  0  0  0  0  0  0  0  0  0  0
   -2.3400   25.2880  -29.5480 O   0  0  0  0  0  0  0  0  0  0  0  0
   -0.2990   20.8720  -28.6530 C   0  0  0  0  0  0  0  0  0  0  0  0
   -0.2960   20.0470  -27.3520 C   0  0  0  0  0  0  0  0  0  0  0  0
   -1.6840   19.4890  -26.9340 C   0  0  0  0  0  0  0  0  0  0  0  0
   -2.8370   19.8630  -27.8820 C   0  0  0  0  0  0  0  0  0  0  0  0
   -5.7460   22.4220  -31.1120 C   0  0  0  0  0  0  0  0  0  0  0  0
   -4.5300   19.9150  -32.5900 N   0  0  0  0  0  0  0  0  0  0  0  0
   -4.2030   18.6220  -33.2150 C   0  0  0  0  0  0  0  0  0  0  0  0
   -2.9110   18.6750  -34.0510 C   0  0  0  0  0  0  0  0  0  0  0  0
   -1.8600   19.5110  -33.3710 C   0  0  0  0  0  0  0  0  0  0  0  0
   -0.5070   19.1380  -33.3870 C   0  0  0  0  0  0  0  0  0  0  0  0
    0.4520   19.9610  -32.7880 C   0  0  0  0  0  0  0  0  0  0  0  0
    0.0680   21.1620  -32.1860 C   0  0  0  0  0  0  0  0  0  0  0  0
   -1.2770   21.5450  -32.1800 C   0  0  0  0  0  0  0  0  0  0  0  0
   -2.2440   20.7180  -32.7680 C   0  0  0  0  0  0  0  0  0  0  0  0
   -3.6930   21.1070  -32.8030 C   0  0  0  0  0  0  0  0  0  0  0  0
   -8.3166   20.6060  -32.4552 H   0  0  0  0  0  0  0  0  0  0  0  0
   -9.4889   22.7807  -32.1282 H   0  0  0  0  0  0  0  0  0  0  0  0
   -8.2865   24.7127  -31.1090 H   0  0  0  0  0  0  0  0  0  0  0  0
   -5.4210   24.4080  -27.7620 H   0  0  0  0  0  0  0  0  0  0  0  0
   -4.8418   21.7385  -28.0518 H   0  0  0  0  0  0  0  0  0  0  0  0
   -0.3887   23.5060  -29.4732 H   0  0  0  0  0  0  0  0  0  0  0  0
   -0.3498   20.1891  -29.5138 H   0  0  0  0  0  0  0  0  0  0  0  0
    0.6231   21.4702  -28.6952 H   0  0  0  0  0  0  0  0  0  0  0  0
    0.3886   19.1967  -27.4871 H   0  0  0  0  0  0  0  0  0  0  0  0
    0.0176   20.7320  -26.5505 H   0  0  0  0  0  0  0  0  0  0  0  0
   -1.6148   18.3919  -26.8941 H   0  0  0  0  0  0  0  0  0  0  0  0
   -1.9217   19.9422  -25.9603 H   0  0  0  0  0  0  0  0  0  0  0  0
   -2.7922   19.2231  -28.7756 H   0  0  0  0  0  0  0  0  0  0  0  0
   -3.7912   19.7149  -27.3551 H   0  0  0  0  0  0  0  0  0  0  0  0
   -4.6813   22.3322  -30.8505 H   0  0  0  0  0  0  0  0  0  0  0  0
   -4.0784   17.8696  -32.4223 H   0  0  0  0  0  0  0  0  0  0  0  0
   -5.0281   18.3641  -33.8952 H   0  0  0  0  0  0  0  0  0  0  0  0
   -2.5267   17.6529  -34.1838 H   0  0  0  0  0  0  0  0  0  0  0  0
   -3.1434   19.1300  -35.0251 H   0  0  0  0  0  0  0  0  0  0  0  0
   -0.2010   18.1986  -33.8706 H   0  0  0  0  0  0  0  0  0  0  0  0
    1.5107   19.6622  -32.7908 H   0  0  0  0  0  0  0  0  0  0  0  0
    0.8248   21.8073  -31.7160 H   0  0  0  0  0  0  0  0  0  0  0  0
   -1.5761   22.4954  -31.7138 H   0  0  0  0  0  0  0  0  0  0  0  0
   -3.8939   21.8419  -32.0095 H   0  0  0  0  0  0  0  0  0  0  0  0
   -3.9290   21.5485  -33.7825 H   0  0  0  0  0  0  0  0  0  0  0  0
  1  2  2  0
  2  3  1  0
  3  4  2  0
  4  5  1  0
  5  6  2  0
  6  7  1  0
  7  8  1  0
  8  9  2  0
  8 10  2  0
  8 11  1  0
 11 12  1  0
 12 13  2  0
 13 14  1  0
 14 15  2  0
 15 16  1  0
 16 17  2  0
 17 18  1  0
 15 19  1  0
 19 20  1  0
 20 21  1  0
 21 22  1  0
  7 23  2  0
  2 24  1  0
 24 25  1  0
 25 26  1  0
 26 27  1  0
 27 28  2  0
 28 29  1  0
 29 30  2  0
 30 31  1  0
 31 32  2  0
 32 33  1  0
 23  3  1  0
 33 24  1  0
 17 12  1  0
 32 27  1  0
 22 14  1  0
  4 34  1  0
  5 35  1  0
  6 36  1  0
 11 37  1  0
 13 38  1  0
 16 39  1  0
 19 40  1  0
 19 41  1  0
 20 42  1  0
 20 43  1  0
 21 44  1  0
 21 45  1  0
 22 46  1  0
 22 47  1  0
 23 48  1  0
 25 49  1  0
 25 50  1  0
 26 51  1  0
 26 52  1  0
 28 53  1  0
 29 54  1  0
 30 55  1  0
 31 56  1  0
 33 57  1  0
 33 58  1  0
M  CHG  1  18  -1
M  END
>  <UniqueID>  (23) 
23

>  <SMILES>  (23) 
O=C(c1cccc(S(=O)(=O)Nc2cc3c(cc2[O-])CCCC3)c1)N1CCc2ccccc2C1

>  <Energy>  (23) 
76.37897766454273

>  <Genealogy>  (23) 
O=C(c1cccc(S(=O)(=O)Nc2cc3c(cc2[O-])CCCC3)c1)N1CCc2ccccc2C1 (protonated)
O=C(c1cccc(S(=O)(=O)Nc2cc3c(cc2[O-])CCCC3)c1)N1CCc2ccccc2C1 (3D coordinates assigned)
O=C(c1cccc(S(=O)(=O)Nc2cc3c(cc2[O-])CCCC3)c1)N1CCc2ccccc2C1 (nonaromatic ring conformer: 76.37897766454273 kcal/mol)

>  <smiles>  (23) 
O=C(c1cccc(S(=O)(=O)Nc2cc3c(cc2O)CCCC3)c1)N1CCc2ccccc2C1

>  <score_type>  (23) 
oracle

>  <origin>  (23) 
adgpu

>  <m_score__min__energy>  (23) 
-14.25

>  <m_primary>  (23) 
energy

$$$$
23:0
     RDKit          3D

 28 29  0  0  0  0  0  0  0  0999 V2000
   -5.7120   25.0870  -30.1980 C   0  0  0  0  0  0  0  0  0  0  0  0
   -4.8200   23.9240  -30.3170 N   0  0  0  0  0  0  0  0  0  0  0  0
   -3.4760   24.0630  -30.0750 C   0  0  0  0  0  0  0  0  0  0  0  0
   -2.9360   25.2950  -29.7130 O   0  0  0  0  0  0  0  0  0  0  0  0
   -2.6210   22.9670  -30.1870 C   0  0  0  0  0  0  0  0  0  0  0  0
   -3.1580   21.7330  -30.5330 C   0  0  0  0  0  0  0  0  0  0  0  0
   -2.4130   20.7260  -30.6490 O   0  0  0  0  0  0  0  0  0  0  0  0
   -4.4910   21.6160  -30.7370 N   0  0  0  0  0  0  0  0  0  0  0  0
   -5.3260   22.6820  -30.6170 C   0  0  0  0  0  0  0  0  0  0  0  0
   -7.0900   22.3940  -30.8540 S   0  0  0  0  0  0  0  0  0  0  0  0
   -6.9650   22.0610  -32.6490 C   0  0  0  0  0  0  0  0  0  0  0  0
   -6.6150   20.6180  -32.9140 C   0  0  0  0  0  0  0  0  0  0  0  0
   -5.3510   20.3010  -33.4450 C   0  0  0  0  0  0  0  0  0  0  0  0
   -5.0150   18.9770  -33.7350 C   0  0  0  0  0  0  0  0  0  0  0  0
   -5.9340   17.9520  -33.4960 C   0  0  0  0  0  0  0  0  0  0  0  0
   -5.5100   16.2910  -33.8630 Cl  0  0  0  0  0  0  0  0  0  0  0  0
   -7.1920   18.2530  -32.9660 C   0  0  0  0  0  0  0  0  0  0  0  0
   -7.5400   19.5780  -32.6750 C   0  0  0  0  0  0  0  0  0  0  0  0
   -9.1410   19.8940  -32.0130 Cl  0  0  0  0  0  0  0  0  0  0  0  0
   -5.8833   25.3104  -29.1346 H   0  0  0  0  0  0  0  0  0  0  0  0
   -5.2473   25.9569  -30.6852 H   0  0  0  0  0  0  0  0  0  0  0  0
   -6.6726   24.8637  -30.6852 H   0  0  0  0  0  0  0  0  0  0  0  0
   -1.5418   23.0773  -30.0049 H   0  0  0  0  0  0  0  0  0  0  0  0
   -7.9306   22.2889  -33.1241 H   0  0  0  0  0  0  0  0  0  0  0  0
   -6.1680   22.6944  -33.0657 H   0  0  0  0  0  0  0  0  0  0  0  0
   -4.6217   21.1027  -33.6332 H   0  0  0  0  0  0  0  0  0  0  0  0
   -4.0251   18.7406  -34.1523 H   0  0  0  0  0  0  0  0  0  0  0  0
   -7.9130   17.4442  -32.7763 H   0  0  0  0  0  0  0  0  0  0  0  0
  1  2  1  0
  2  3  1  0
  3  4  1  0
  3  5  2  0
  5  6  1  0
  6  7  2  0
  6  8  1  0
  8  9  2  0
  9 10  1  0
 10 11  1  0
 11 12  1  0
 12 13  2  0
 13 14  1  0
 14 15  2  0
 15 16  1  0
 15 17  1  0
 17 18  2  0
 18 19  1  0
  9  2  1  0
 18 12  1  0
  1 20  1  0
  1 21  1  0
  1 22  1  0
  5 23  1  0
 11 24  1  0
 11 25  1  0
 13 26  1  0
 14 27  1  0
 17 28  1  0
M  CHG  1   4  -1
M  END
>  <UniqueID>  (24) 
24

>  <SMILES>  (24) 
Cn1c([O-])cc(=O)nc1SCc1ccc(Cl)cc1Cl

>  <Energy>  (24) 
28.776733220460876

>  <Genealogy>  (24) 
Cn1c([O-])cc(=O)nc1SCc1ccc(Cl)cc1Cl (protonated)
Cn1c([O-])cc(=O)nc1SCc1ccc(Cl)cc1Cl (3D coordinates assigned)
Cn1c([O-])cc(=O)nc1SCc1ccc(Cl)cc1Cl (optimized conformer: 28.776733220460876 kcal/mol)

>  <smiles>  (24) 
Cn1c(O)cc(=O)nc1SCc1ccc(Cl)cc1Cl

>  <score_type>  (24) 
oracle

>  <origin>  (24) 
adgpu

>  <m_score__min__energy>  (24) 
-10.289999999999999

>  <m_primary>  (24) 
energy

$$$$
24:0
     RDKit          3D

 45 48  0  0  0  0  0  0  0  0999 V2000
   -1.6160   19.9540  -25.9470 C   0  0  0  0  0  0  0  0  0  0  0  0
   -1.7730   19.5400  -27.3530 N   0  0  0  0  0  0  0  0  0  0  0  0
   -0.5430   19.7310  -28.1460 C   0  0  0  0  0  0  0  0  0  0  0  0
   -0.1540   21.2120  -28.2910 C   0  0  0  0  0  0  0  0  0  0  0  0
   -1.3420   22.1010  -28.5530 C   0  0  0  0  0  0  0  0  0  0  0  0
   -1.1270   23.4420  -28.9010 C   0  0  0  0  0  0  0  0  0  0  0  0
   -2.2030   24.3280  -29.0190 C   0  0  0  0  0  0  0  0  0  0  0  0
   -1.9590   25.6630  -29.3220 O   0  0  0  0  0  0  0  0  0  0  0  0
   -3.5140   23.8760  -28.8000 C   0  0  0  0  0  0  0  0  0  0  0  0
   -4.6080   24.8060  -28.7900 N   0  0  0  0  0  0  0  0  0  0  0  0
   -5.6660   24.9620  -30.1590 S   0  0  0  0  0  0  0  0  0  0  0  0
   -4.9960   25.8010  -31.2110 O   0  0  0  0  0  0  0  0  0  0  0  0
   -6.9430   25.6310  -29.7370 O   0  0  0  0  0  0  0  0  0  0  0  0
   -6.0430   23.3560  -30.7850 C   0  0  0  0  0  0  0  0  0  0  0  0
   -5.0670   22.6530  -31.4980 C   0  0  0  0  0  0  0  0  0  0  0  0
   -5.3850   21.4540  -32.1410 C   0  0  0  0  0  0  0  0  0  0  0  0
   -6.6930   20.9410  -32.0880 C   0  0  0  0  0  0  0  0  0  0  0  0
   -7.0530   19.7500  -32.7590 C   0  0  0  0  0  0  0  0  0  0  0  0
   -5.8990   18.8190  -33.7110 Cl  0  0  0  0  0  0  0  0  0  0  0  0
   -8.3700   19.2810  -32.6890 C   0  0  0  0  0  0  0  0  0  0  0  0
   -9.3330   19.9820  -31.9610 C   0  0  0  0  0  0  0  0  0  0  0  0
   -8.9930   21.1590  -31.2960 C   0  0  0  0  0  0  0  0  0  0  0  0
   -7.6790   21.6480  -31.3510 C   0  0  0  0  0  0  0  0  0  0  0  0
   -7.3440   22.8440  -30.7000 C   0  0  0  0  0  0  0  0  0  0  0  0
   -3.7330   22.5190  -28.5170 C   0  0  0  0  0  0  0  0  0  0  0  0
   -2.6570   21.6410  -28.3460 C   0  0  0  0  0  0  0  0  0  0  0  0
   -2.9280   20.1970  -27.9940 C   0  0  0  0  0  0  0  0  0  0  0  0
   -1.9277   19.1321  -25.2858 H   0  0  0  0  0  0  0  0  0  0  0  0
   -0.5618   20.2010  -25.7530 H   0  0  0  0  0  0  0  0  0  0  0  0
   -2.2414   20.8379  -25.7530 H   0  0  0  0  0  0  0  0  0  0  0  0
    0.2815   19.1975  -27.6505 H   0  0  0  0  0  0  0  0  0  0  0  0
   -0.7340   19.3374  -29.1553 H   0  0  0  0  0  0  0  0  0  0  0  0
    0.3336   21.5407  -27.3613 H   0  0  0  0  0  0  0  0  0  0  0  0
    0.5213   21.2956  -29.1553 H   0  0  0  0  0  0  0  0  0  0  0  0
   -0.1031   23.8006  -29.0829 H   0  0  0  0  0  0  0  0  0  0  0  0
   -4.9410   25.1980  -27.8820 H   0  0  0  0  0  0  0  0  0  0  0  0
   -4.0414   23.0468  -31.5531 H   0  0  0  0  0  0  0  0  0  0  0  0
   -4.6062   20.9073  -32.6928 H   0  0  0  0  0  0  0  0  0  0  0  0
   -8.6481   18.3537  -33.2112 H   0  0  0  0  0  0  0  0  0  0  0  0
  -10.3648   19.6039  -31.9119 H   0  0  0  0  0  0  0  0  0  0  0  0
   -9.7579   21.7066  -30.7258 H   0  0  0  0  0  0  0  0  0  0  0  0
   -8.1071   23.3830  -30.1194 H   0  0  0  0  0  0  0  0  0  0  0  0
   -4.7623   22.1413  -28.4286 H   0  0  0  0  0  0  0  0  0  0  0  0
   -3.7830   20.1579  -27.3031 H   0  0  0  0  0  0  0  0  0  0  0  0
   -3.1370   19.6605  -28.9313 H   0  0  0  0  0  0  0  0  0  0  0  0
  1  2  1  0
  2  3  1  0
  3  4  1  0
  4  5  1  0
  5  6  2  0
  6  7  1  0
  7  8  1  0
  7  9  2  0
  9 10  1  0
 10 11  1  0
 11 12  2  0
 11 13  2  0
 11 14  1  0
 14 15  2  0
 15 16  1  0
 16 17  2  0
 17 18  1  0
 18 19  1  0
 18 20  2  0
 20 21  1  0
 21 22  2  0
 22 23  1  0
 23 24  2  0
  9 25  1  0
 25 26  2  0
 26 27  1  0
 27  2  1  0
 26  5  1  0
 24 14  1  0
 23 17  1  0
  1 28  1  0
  1 29  1  0
  1 30  1  0
  3 31  1  0
  3 32  1  0
  4 33  1  0
  4 34  1  0
  6 35  1  0
 10 36  1  0
 15 37  1  0
 16 38  1  0
 20 39  1  0
 21 40  1  0
 22 41  1  0
 24 42  1  0
 25 43  1  0
 27 44  1  0
 27 45  1  0
M  CHG  1   8  -1
M  END
>  <UniqueID>  (25) 
25

>  <SMILES>  (25) 
CN1CCc2cc([O-])c(NS(=O)(=O)c3ccc4c(Cl)cccc4c3)cc2C1

>  <Energy>  (25) 
60.28976320121641

>  <Genealogy>  (25) 
CN1CCc2cc([O-])c(NS(=O)(=O)c3ccc4c(Cl)cccc4c3)cc2C1 (protonated)
CN1CCc2cc([O-])c(NS(=O)(=O)c3ccc4c(Cl)cccc4c3)cc2C1 (3D coordinates assigned)
CN1CCc2cc([O-])c(NS(=O)(=O)c3ccc4c(Cl)cccc4c3)cc2C1 (nonaromatic ring conformer: 60.28976320121641 kcal/mol)

>  <smiles>  (25) 
CN1CCc2cc(O)c(NS(=O)(=O)c3ccc4c(Cl)cccc4c3)cc2C1

>  <score_type>  (25) 
oracle

>  <origin>  (25) 
adgpu

>  <m_score__min__energy>  (25) 
-14.380000000000001

>  <m_primary>  (25) 
energy

$$$$
25:0
     RDKit          3D

 48 49  0  0  0  0  0  0  0  0999 V2000
   -3.4690   20.0600  -29.2960 H   0  0  0  0  0  0  0  0  0  0  0  0
   -3.8430   20.8710  -29.7740 O   0  0  0  0  0  0  0  0  0  0  0  0
   -3.3250   22.1550  -29.5880 C   0  0  0  0  0  0  0  0  0  0  0  0
   -2.3060   22.3760  -28.6450 C   0  0  0  0  0  0  0  0  0  0  0  0
   -1.8100   21.3050  -27.9070 O   0  0  0  0  0  0  0  0  0  0  0  0
   -1.7790   23.6640  -28.4530 C   0  0  0  0  0  0  0  0  0  0  0  0
   -0.7040   23.8600  -27.4510 C   0  0  0  0  0  0  0  0  0  0  0  0
    0.3100   24.0982  -27.8048 H   0  0  0  0  0  0  0  0  0  0  0  0
   -0.9170   23.7590  -26.1340 C   0  0  0  0  0  0  0  0  0  0  0  0
   -1.9192   23.4983  -25.7630 H   0  0  0  0  0  0  0  0  0  0  0  0
    0.1800   23.9940  -25.1730 C   0  0  0  0  0  0  0  0  0  0  0  0
    0.9699   23.2323  -25.0957 H   0  0  0  0  0  0  0  0  0  0  0  0
    0.2730   25.0780  -24.3890 C   0  0  0  0  0  0  0  0  0  0  0  0
    1.1283   25.1367  -23.6998 H   0  0  0  0  0  0  0  0  0  0  0  0
   -0.7070   26.2200  -24.3830 C   0  0  0  0  0  0  0  0  0  0  0  0
   -0.5132   26.8534  -23.5048 H   0  0  0  0  0  0  0  0  0  0  0  0
   -1.7244   25.8033  -24.3465 H   0  0  0  0  0  0  0  0  0  0  0  0
   -0.5800   27.0690  -25.6460 C   0  0  0  0  0  0  0  0  0  0  0  0
   -0.4226   28.1211  -25.3663 H   0  0  0  0  0  0  0  0  0  0  0  0
    0.2753   26.7158  -26.2407 H   0  0  0  0  0  0  0  0  0  0  0  0
   -1.5012   26.9816  -26.2407 H   0  0  0  0  0  0  0  0  0  0  0  0
   -2.3170   24.7430  -29.1830 C   0  0  0  0  0  0  0  0  0  0  0  0
   -1.8790   26.0440  -28.9570 O   0  0  0  0  0  0  0  0  0  0  0  0
   -3.3260   24.5250  -30.1290 C   0  0  0  0  0  0  0  0  0  0  0  0
   -3.8310   25.6120  -30.8350 O   0  0  0  0  0  0  0  0  0  0  0  0
   -3.8280   23.2270  -30.3530 C   0  0  0  0  0  0  0  0  0  0  0  0
   -4.9050   22.9810  -31.3910 C   0  0  0  0  0  0  0  0  0  0  0  0
   -5.8838   22.9489  -30.8901 H   0  0  0  0  0  0  0  0  0  0  0  0
   -4.8689   23.7979  -32.1268 H   0  0  0  0  0  0  0  0  0  0  0  0
   -4.6820   21.6710  -32.1220 C   0  0  0  0  0  0  0  0  0  0  0  0
   -5.7270   20.7330  -32.2230 C   0  0  0  0  0  0  0  0  0  0  0  0
   -6.9630   21.0170  -31.6450 O   0  0  0  0  0  0  0  0  0  0  0  0
   -5.5410   19.5170  -32.9090 C   0  0  0  0  0  0  0  0  0  0  0  0
   -6.6590   18.5430  -32.9990 C   0  0  0  0  0  0  0  0  0  0  0  0
   -6.8420   17.9010  -34.0700 O   0  0  0  0  0  0  0  0  0  0  0  0
   -7.5940   18.3060  -31.8530 C   0  0  0  0  0  0  0  0  0  0  0  0
   -7.0537   18.4429  -30.9046 H   0  0  0  0  0  0  0  0  0  0  0  0
   -8.4281   19.0211  -31.9064 H   0  0  0  0  0  0  0  0  0  0  0  0
   -7.9868   17.2799  -31.9064 H   0  0  0  0  0  0  0  0  0  0  0  0
   -4.2870   19.2380  -33.4880 C   0  0  0  0  0  0  0  0  0  0  0  0
   -4.0640   18.0140  -34.1150 O   0  0  0  0  0  0  0  0  0  0  0  0
   -3.2420   20.1760  -33.4140 C   0  0  0  0  0  0  0  0  0  0  0  0
   -1.8950   19.8570  -34.0110 C   0  0  0  0  0  0  0  0  0  0  0  0
   -1.1677   19.6848  -33.2039 H   0  0  0  0  0  0  0  0  0  0  0  0
   -1.9742   18.9528  -34.6324 H   0  0  0  0  0  0  0  0  0  0  0  0
   -1.5602   20.7007  -34.6324 H   0  0  0  0  0  0  0  0  0  0  0  0
   -3.4330   21.3770  -32.7070 C   0  0  0  0  0  0  0  0  0  0  0  0
   -2.3750   22.2740  -32.5800 O   0  0  0  0  0  0  0  0  0  0  0  0
  1  2  1  0
  2  3  1  0
  3  4  2  0
  4  5  1  0
  4  6  1  0
  6  7  1  0
  7  8  1  0
  7  9  2  0
  9 10  1  0
  9 11  1  0
 11 12  1  0
 11 13  2  0
 13 14  1  0
 13 15  1  0
 15 16  1  0
 15 17  1  0
 15 18  1  0
 18 19  1  0
 18 20  1  0
 18 21  1  0
  6 22  2  0
 22 23  1  0
 22 24  1  0
 24 25  1  0
 24 26  2  0
 26 27  1  0
 27 28  1  0
 27 29  1  0
 27 30  1  0
 30 31  2  0
 31 32  1  0
 31 33  1  0
 33 34  1  0
 34 35  2  0
 34 36  1  0
 36 37  1  0
 36 38  1  0
 36 39  1  0
 33 40  2  0
 40 41  1  0
 40 42  1  0
 42 43  1  0
 43 44  1  0
 43 45  1  0
 43 46  1  0
 42 47  2  0
 47 48  1  0
 26  3  1  0
 47 30  1  0
M  CHG  6   5  -1  23  -1  25  -1  32  -1  41  -1  48  -1
M  END
>  <UniqueID>  (26) 
26

>  <SMILES>  (26) 
CC/C=C\C=Cc1c([O-])c([O-])c(Cc2c([O-])c(C)c([O-])c(C(C)=O)c2[O-])c(O)c1[O-]

>  <Energy>  (26) 
58.52695092808219

>  <Genealogy>  (26) 
CCC=CC=Cc1c([O-])c([O-])c(Cc2c([O-])c(C)c([O-])c(C(C)=O)c2[O-])c(O)c1[O-] (protonated)
CC/C=C\C=Cc1c([O-])c([O-])c(Cc2c([O-])c(C)c([O-])c(C(C)=O)c2[O-])c(O)c1[O-] (cis-trans isomerization)
CC/C=C\C=Cc1c([O-])c([O-])c(Cc2c([O-])c(C)c([O-])c(C(C)=O)c2[O-])c(O)c1[O-] (3D coordinates assigned)
CC/C=C\C=Cc1c([O-])c([O-])c(Cc2c([O-])c(C)c([O-])c(C(C)=O)c2[O-])c(O)c1[O-] (optimized conformer: 58.52695092808219 kcal/mol)

>  <smiles>  (26) 
CCC=CC=Cc1c(O)c(O)c(Cc2c(O)c(C)c(O)c(C(C)=O)c2O)c(O)c1O

>  <score_type>  (26) 
oracle

>  <origin>  (26) 
adgpu

>  <m_score__min__energy>  (26) 
-13.51

>  <m_primary>  (26) 
energy

$$$$
26:0
     RDKit          3D

 51 54  0  0  0  0  0  0  0  0999 V2000
   -5.5350   24.1430  -29.5810 O   0  0  0  0  0  0  0  0  0  0  0  0
   -4.1990   24.1030  -30.2660 S   0  0  0  0  0  0  0  0  0  0  0  0
   -3.8650   25.4880  -30.7420 O   0  0  0  0  0  0  0  0  0  0  0  0
   -4.2970   23.0420  -31.6330 N   0  0  0  0  0  0  0  0  0  0  0  0
   -5.2680   21.9990  -31.8060 C   0  0  0  0  0  0  0  0  0  0  0  0
   -6.6060   22.1530  -31.4040 C   0  0  0  0  0  0  0  0  0  0  0  0
   -7.5300   21.1180  -31.6030 C   0  0  0  0  0  0  0  0  0  0  0  0
   -7.1210   19.9180  -32.2010 C   0  0  0  0  0  0  0  0  0  0  0  0
   -5.7850   19.7570  -32.5900 C   0  0  0  0  0  0  0  0  0  0  0  0
   -4.8650   20.7940  -32.3980 C   0  0  0  0  0  0  0  0  0  0  0  0
   -3.5460   20.6230  -32.8010 O   0  0  0  0  0  0  0  0  0  0  0  0
   -8.1200   18.8010  -32.3540 C   0  0  0  0  0  0  0  0  0  0  0  0
   -9.5060   19.3130  -32.8070 C   0  0  0  0  0  0  0  0  0  0  0  0
   -9.8750   20.7390  -32.3230 C   0  0  0  0  0  0  0  0  0  0  0  0
   -8.9710   21.2630  -31.2000 C   0  0  0  0  0  0  0  0  0  0  0  0
   -2.9160   23.5560  -29.1830 C   0  0  0  0  0  0  0  0  0  0  0  0
   -2.9860   22.2560  -28.6670 C   0  0  0  0  0  0  0  0  0  0  0  0
   -1.9700   21.7590  -27.8360 C   0  0  0  0  0  0  0  0  0  0  0  0
   -2.0560   20.1050  -27.2170 S   0  0  0  0  0  0  0  0  0  0  0  0
   -3.4980   19.6950  -27.1100 O   0  0  0  0  0  0  0  0  0  0  0  0
   -1.4620   20.0710  -25.8360 O   0  0  0  0  0  0  0  0  0  0  0  0
   -1.2070   18.9590  -28.2280 N   0  0  0  0  0  0  0  0  0  0  0  0
   -0.1740   18.2400  -27.4850 C   0  0  0  0  0  0  0  0  0  0  0  0
    0.8620   17.7980  -28.5070 C   0  0  0  0  0  0  0  0  0  0  0  0
    0.6540   18.7070  -29.7100 C   0  0  0  0  0  0  0  0  0  0  0  0
   -0.5120   19.6090  -29.3390 C   0  0  0  0  0  0  0  0  0  0  0  0
   -0.8930   22.5870  -27.4950 C   0  0  0  0  0  0  0  0  0  0  0  0
   -0.8220   23.8900  -27.9940 C   0  0  0  0  0  0  0  0  0  0  0  0
   -1.8220   24.3780  -28.8400 C   0  0  0  0  0  0  0  0  0  0  0  0
   -1.7160   25.6760  -29.3270 O   0  0  0  0  0  0  0  0  0  0  0  0
   -6.9299   23.0915  -30.9303 H   0  0  0  0  0  0  0  0  0  0  0  0
   -5.4577   18.8120  -33.0481 H   0  0  0  0  0  0  0  0  0  0  0  0
   -7.7433   18.0894  -33.1035 H   0  0  0  0  0  0  0  0  0  0  0  0
   -8.2425   18.3216  -31.3716 H   0  0  0  0  0  0  0  0  0  0  0  0
   -9.5263   19.3113  -33.9068 H   0  0  0  0  0  0  0  0  0  0  0  0
  -10.2443   18.6363  -32.3521 H   0  0  0  0  0  0  0  0  0  0  0  0
   -9.7996   21.4263  -33.1785 H   0  0  0  0  0  0  0  0  0  0  0  0
  -10.8953   20.6858  -31.9155 H   0  0  0  0  0  0  0  0  0  0  0  0
   -9.1944   22.3241  -31.0153 H   0  0  0  0  0  0  0  0  0  0  0  0
   -9.1539   20.6831  -30.2834 H   0  0  0  0  0  0  0  0  0  0  0  0
   -3.8465   21.6175  -28.9157 H   0  0  0  0  0  0  0  0  0  0  0  0
    0.2875   18.9022  -26.7377 H   0  0  0  0  0  0  0  0  0  0  0  0
   -0.5966   17.3782  -26.9476 H   0  0  0  0  0  0  0  0  0  0  0  0
    1.8779   17.9200  -28.1031 H   0  0  0  0  0  0  0  0  0  0  0  0
    0.7496   16.7362  -28.7715 H   0  0  0  0  0  0  0  0  0  0  0  0
    1.5573   19.3050  -29.9010 H   0  0  0  0  0  0  0  0  0  0  0  0
    0.4510   18.1326  -30.6259 H   0  0  0  0  0  0  0  0  0  0  0  0
   -0.1431   20.5979  -29.0292 H   0  0  0  0  0  0  0  0  0  0  0  0
   -1.1860   19.7580  -30.1954 H   0  0  0  0  0  0  0  0  0  0  0  0
   -0.1003   22.2100  -26.8320 H   0  0  0  0  0  0  0  0  0  0  0  0
    0.0255   24.5354  -27.7196 H   0  0  0  0  0  0  0  0  0  0  0  0
  1  2  2  0
  2  3  2  0
  2  4  1  0
  4  5  1  0
  5  6  2  0
  6  7  1  0
  7  8  2  0
  8  9  1  0
  9 10  2  0
 10 11  1  0
  8 12  1  0
 12 13  1  0
 13 14  1  0
 14 15  1  0
  2 16  1  0
 16 17  2  0
 17 18  1  0
 18 19  1  0
 19 20  2  0
 19 21  2  0
 19 22  1  0
 22 23  1  0
 23 24  1  0
 24 25  1  0
 25 26  1  0
 18 27  2  0
 27 28  1  0
 28 29  2  0
 29 30  1  0
 10  5  1  0
 29 16  1  0
 15  7  1  0
 26 22  1  0
  6 31  1  0
  9 32  1  0
 12 33  1  0
 12 34  1  0
 13 35  1  0
 13 36  1  0
 14 37  1  0
 14 38  1  0
 15 39  1  0
 15 40  1  0
 17 41  1  0
 23 42  1  0
 23 43  1  0
 24 44  1  0
 24 45  1  0
 25 46  1  0
 25 47  1  0
 26 48  1  0
 26 49  1  0
 27 50  1  0
 28 51  1  0
M  CHG  3   4  -1  11  -1  30  -1
M  END
>  <UniqueID>  (27) 
27

>  <SMILES>  (27) 
O=S(=O)([N-]c1cc2c(cc1[O-])CCCC2)c1cc(S(=O)(=O)N2CCCC2)ccc1[O-]

>  <Energy>  (27) 
63.21535887699143

>  <Genealogy>  (27) 
O=S(=O)([N-]c1cc2c(cc1[O-])CCCC2)c1cc(S(=O)(=O)N2CCCC2)ccc1[O-] (protonated)
O=S(=O)([N-]c1cc2c(cc1[O-])CCCC2)c1cc(S(=O)(=O)N2CCCC2)ccc1[O-] (3D coordinates assigned)
O=S(=O)([N-]c1cc2c(cc1[O-])CCCC2)c1cc(S(=O)(=O)N2CCCC2)ccc1[O-] (nonaromatic ring conformer: 63.21535887699143 kcal/mol)

>  <smiles>  (27) 
O=S(=O)(Nc1cc2c(cc1O)CCCC2)c1cc(S(=O)(=O)N2CCCC2)ccc1O

>  <score_type>  (27) 
oracle

>  <origin>  (27) 
adgpu

>  <m_score__min__energy>  (27) 
-14.369999999999999

>  <m_primary>  (27) 
energy

$$$$
27:0
     RDKit          3D

 54 57  0  0  0  0  0  0  0  0999 V2000
   -0.8590   18.0770  -27.0740 C   0  0  0  0  0  0  0  0  0  0  0  0
   -0.8130   19.5390  -27.2350 N   0  0  0  0  0  0  0  0  0  0  0  0
    0.1790   19.9050  -28.2630 C   0  0  0  0  0  0  0  0  0  0  0  0
    0.4010   21.4170  -28.2370 C   0  0  0  0  0  0  0  0  0  0  0  0
   -0.9100   22.1610  -28.2770 C   0  0  0  0  0  0  0  0  0  0  0  0
   -0.9180   23.5390  -28.5800 C   0  0  0  0  0  0  0  0  0  0  0  0
   -2.1280   24.2350  -28.6760 C   0  0  0  0  0  0  0  0  0  0  0  0
   -2.1330   25.5740  -29.0330 O   0  0  0  0  0  0  0  0  0  0  0  0
   -3.3390   23.5690  -28.4550 C   0  0  0  0  0  0  0  0  0  0  0  0
   -4.5760   24.2540  -28.6840 N   0  0  0  0  0  0  0  0  0  0  0  0
   -5.1940   24.4750  -30.2910 S   0  0  0  0  0  0  0  0  0  0  0  0
   -6.6170   24.9590  -30.2410 O   0  0  0  0  0  0  0  0  0  0  0  0
   -4.3570   25.4970  -31.0090 O   0  0  0  0  0  0  0  0  0  0  0  0
   -5.0850   22.9300  -31.1400 C   0  0  0  0  0  0  0  0  0  0  0  0
   -3.9330   22.6050  -31.8700 C   0  0  0  0  0  0  0  0  0  0  0  0
   -3.9070   21.4530  -32.6600 C   0  0  0  0  0  0  0  0  0  0  0  0
   -5.0320   20.6270  -32.7350 C   0  0  0  0  0  0  0  0  0  0  0  0
   -6.1920   20.9460  -32.0120 C   0  0  0  0  0  0  0  0  0  0  0  0
   -7.6270   19.9190  -32.1370 S   0  0  0  0  0  0  0  0  0  0  0  0
   -8.4180   20.0300  -30.8640 O   0  0  0  0  0  0  0  0  0  0  0  0
   -8.4870   20.4220  -33.2650 O   0  0  0  0  0  0  0  0  0  0  0  0
   -7.2440   18.2340  -32.4080 N   0  0  0  0  0  0  0  0  0  0  0  0
   -6.4110   17.6650  -31.3400 C   0  0  0  0  0  0  0  0  0  0  0  0
   -5.5040   16.6230  -31.9880 C   0  0  0  0  0  0  0  0  0  0  0  0
   -5.7630   16.7210  -33.4820 C   0  0  0  0  0  0  0  0  0  0  0  0
   -6.5030   18.0300  -33.6500 C   0  0  0  0  0  0  0  0  0  0  0  0
   -6.2060   22.0890  -31.2020 C   0  0  0  0  0  0  0  0  0  0  0  0
   -3.3300   22.2270  -28.0750 C   0  0  0  0  0  0  0  0  0  0  0  0
   -2.1220   21.5110  -27.9660 C   0  0  0  0  0  0  0  0  0  0  0  0
   -2.1490   20.0370  -27.6380 C   0  0  0  0  0  0  0  0  0  0  0  0
   -0.8669   17.8261  -26.0030 H   0  0  0  0  0  0  0  0  0  0  0  0
   -1.7699   17.6843  -27.5493 H   0  0  0  0  0  0  0  0  0  0  0  0
    0.0255   17.6278  -27.5493 H   0  0  0  0  0  0  0  0  0  0  0  0
    1.1291   19.3907  -28.0560 H   0  0  0  0  0  0  0  0  0  0  0  0
   -0.1906   19.6044  -29.2545 H   0  0  0  0  0  0  0  0  0  0  0  0
    0.9378   21.6851  -27.3151 H   0  0  0  0  0  0  0  0  0  0  0  0
    0.9885   21.6983  -29.1234 H   0  0  0  0  0  0  0  0  0  0  0  0
    0.0322   24.0690  -28.7416 H   0  0  0  0  0  0  0  0  0  0  0  0
   -2.9780   26.0280  -29.3550 H   0  0  0  0  0  0  0  0  0  0  0  0
   -3.0489   23.2576  -31.8207 H   0  0  0  0  0  0  0  0  0  0  0  0
   -2.9987   21.1954  -33.2245 H   0  0  0  0  0  0  0  0  0  0  0  0
   -5.0082   19.7240  -33.3627 H   0  0  0  0  0  0  0  0  0  0  0  0
   -5.8048   18.4549  -30.8725 H   0  0  0  0  0  0  0  0  0  0  0  0
   -7.0346   17.2095  -30.5567 H   0  0  0  0  0  0  0  0  0  0  0  0
   -4.4491   16.8427  -31.7668 H   0  0  0  0  0  0  0  0  0  0  0  0
   -5.7112   15.6123  -31.6065 H   0  0  0  0  0  0  0  0  0  0  0  0
   -4.8159   16.7346  -34.0413 H   0  0  0  0  0  0  0  0  0  0  0  0
   -6.3351   15.8634  -33.8657 H   0  0  0  0  0  0  0  0  0  0  0  0
   -5.7917   18.8536  -33.8107 H   0  0  0  0  0  0  0  0  0  0  0  0
   -7.1743   18.0052  -34.5210 H   0  0  0  0  0  0  0  0  0  0  0  0
   -7.1021   22.3286  -30.6107 H   0  0  0  0  0  0  0  0  0  0  0  0
   -4.2814   21.7198  -27.8570 H   0  0  0  0  0  0  0  0  0  0  0  0
   -2.8558   19.8688  -26.8121 H   0  0  0  0  0  0  0  0  0  0  0  0
   -2.4595   19.4911  -28.5411 H   0  0  0  0  0  0  0  0  0  0  0  0
  1  2  1  0
  2  3  1  0
  3  4  1  0
  4  5  1  0
  5  6  2  0
  6  7  1  0
  7  8  1  0
  7  9  2  0
  9 10  1  0
 10 11  1  0
 11 12  2  0
 11 13  2  0
 11 14  1  0
 14 15  2  0
 15 16  1  0
 16 17  2  0
 17 18  1  0
 18 19  1  0
 19 20  2  0
 19 21  2  0
 19 22  1  0
 22 23  1  0
 23 24  1  0
 24 25  1  0
 25 26  1  0
 18 27  2  0
  9 28  1  0
 28 29  2  0
 29 30  1  0
 30  2  1  0
 29  5  1  0
 27 14  1  0
 26 22  1  0
  1 31  1  0
  1 32  1  0
  1 33  1  0
  3 34  1  0
  3 35  1  0
  4 36  1  0
  4 37  1  0
  6 38  1  0
  8 39  1  0
 15 40  1  0
 16 41  1  0
 17 42  1  0
 23 43  1  0
 23 44  1  0
 24 45  1  0
 24 46  1  0
 25 47  1  0
 25 48  1  0
 26 49  1  0
 26 50  1  0
 27 51  1  0
 28 52  1  0
 30 53  1  0
 30 54  1  0
M  CHG  1  10  -1
M  END
>  <UniqueID>  (28) 
28

>  <SMILES>  (28) 
CN1CCc2cc(O)c([N-]S(=O)(=O)c3cccc(S(=O)(=O)N4CCCC4)c3)cc2C1

>  <Energy>  (28) 
64.52598939891546

>  <Genealogy>  (28) 
CN1CCc2cc(O)c([N-]S(=O)(=O)c3cccc(S(=O)(=O)N4CCCC4)c3)cc2C1 (protonated)
CN1CCc2cc(O)c([N-]S(=O)(=O)c3cccc(S(=O)(=O)N4CCCC4)c3)cc2C1 (3D coordinates assigned)
CN1CCc2cc(O)c([N-]S(=O)(=O)c3cccc(S(=O)(=O)N4CCCC4)c3)cc2C1 (nonaromatic ring conformer: 64.52598939891546 kcal/mol)

>  <smiles>  (28) 
CN1CCc2cc(O)c(NS(=O)(=O)c3cccc(S(=O)(=O)N4CCCC4)c3)cc2C1

>  <score_type>  (28) 
oracle

>  <origin>  (28) 
adgpu

>  <m_score__min__energy>  (28) 
-12.17

>  <m_primary>  (28) 
energy

$$$$
28:0
     RDKit          3D

 92 97  0  0  0  0  0  0  0  0999 V2000
   -7.4920   19.1920  -32.7520 C   0  0  0  0  0  0  0  0  0  0  0  0
   -7.4940   20.5840  -32.2190 C   0  0  0  0  0  0  0  0  0  0  0  0
   -6.4940   21.4670  -32.4430 N   0  0  0  0  0  0  0  0  0  0  0  0
   -6.7620   22.6800  -31.8960 C   0  0  0  0  0  0  0  0  0  0  0  0
   -5.8080   23.8250  -32.0250 C   0  0  0  0  0  0  0  0  0  0  0  0
   -4.6840   23.8720  -30.6340 S   0  0  0  0  0  0  0  0  0  0  0  0
   -3.8750   25.1300  -30.7570 O   0  0  0  0  0  0  0  0  0  0  0  0
   -5.5000   23.9180  -29.3750 O   0  0  0  0  0  0  0  0  0  0  0  0
   -3.6150   22.4630  -30.5550 C   0  0  0  0  0  0  0  0  0  0  0  0
   -3.1620   21.8970  -31.7570 C   0  0  0  0  0  0  0  0  0  0  0  0
   -2.3200   20.7810  -31.7510 C   0  0  0  0  0  0  0  0  0  0  0  0
   -1.7560   20.0960  -33.2720 S   0  0  0  0  0  0  0  0  0  0  0  0
   -0.4780   19.3400  -33.0470 O   0  0  0  0  0  0  0  0  0  0  0  0
   -1.4820   21.2130  -34.2380 O   0  0  0  0  0  0  0  0  0  0  0  0
   -2.9780   19.0390  -33.9410 N   0  0  0  0  0  0  0  0  0  0  0  0
   -2.3560   17.8140  -34.4710 C   0  0  0  0  0  0  0  0  0  0  0  0
   -3.4020   16.9420  -35.1980 C   0  0  0  0  0  0  0  0  0  0  0  0
   -4.7410   16.9720  -34.5610 N   0  0  0  0  0  0  0  0  0  0  0  0
   -5.7240   17.7510  -35.3370 C   0  0  0  0  0  0  0  0  0  0  0  0
   -4.7030   17.3720  -33.1400 C   0  0  0  0  0  0  0  0  0  0  0  0
   -4.0130   18.7360  -32.9250 C   0  0  0  0  0  0  0  0  0  0  0  0
   -1.9710   20.1840  -30.5350 C   0  0  0  0  0  0  0  0  0  0  0  0
   -2.4580   20.7020  -29.3370 C   0  0  0  0  0  0  0  0  0  0  0  0
   -3.2730   21.8380  -29.3280 C   0  0  0  0  0  0  0  0  0  0  0  0
   -3.7760   22.4460  -27.7030 S   0  0  0  0  0  0  0  0  0  0  0  0
   -2.2400   23.2980  -27.2560 C   0  0  0  0  0  0  0  0  0  0  0  0
   -2.1850   24.7010  -27.2620 C   0  0  0  0  0  0  0  0  0  0  0  0
   -0.9960   25.3650  -26.9460 C   0  0  0  0  0  0  0  0  0  0  0  0
    0.1360   24.6400  -26.5630 C   0  0  0  0  0  0  0  0  0  0  0  0
    1.6470   25.4710  -26.1780 S   0  0  0  0  0  0  0  0  0  0  0  0
    2.5810   24.5010  -25.5090 O   0  0  0  0  0  0  0  0  0  0  0  0
    2.2920   25.9500  -27.4500 O   0  0  0  0  0  0  0  0  0  0  0  0
    1.3350   26.8250  -25.1110 N   0  0  0  0  0  0  0  0  0  0  0  0
    0.6840   26.3940  -23.8520 C   0  0  0  0  0  0  0  0  0  0  0  0
   -0.8360   26.6450  -23.8680 C   0  0  0  0  0  0  0  0  0  0  0  0
   -1.1950   28.0060  -24.0840 O   0  0  0  0  0  0  0  0  0  0  0  0
   -0.2380   28.7360  -24.8400 C   0  0  0  0  0  0  0  0  0  0  0  0
    0.5660   27.8690  -25.8220 C   0  0  0  0  0  0  0  0  0  0  0  0
    0.0650   23.2460  -26.4750 C   0  0  0  0  0  0  0  0  0  0  0  0
   -1.0940   22.5600  -26.8670 C   0  0  0  0  0  0  0  0  0  0  0  0
   -1.1520   21.0880  -26.7030 C   0  0  0  0  0  0  0  0  0  0  0  0
   -1.9820   20.6250  -25.8680 O   0  0  0  0  0  0  0  0  0  0  0  0
   -0.2870   20.1820  -27.4400 N   0  0  0  0  0  0  0  0  0  0  0  0
    0.8550   20.6710  -28.2360 C   0  0  0  0  0  0  0  0  0  0  0  0
    1.0470   19.8280  -29.5020 C   0  0  0  0  0  0  0  0  0  0  0  0
    1.1040   18.3370  -29.1740 C   0  0  0  0  0  0  0  0  0  0  0  0
   -0.1610   17.9170  -28.4260 C   0  0  0  0  0  0  0  0  0  0  0  0
   -0.3350   18.7360  -27.1450 C   0  0  0  0  0  0  0  0  0  0  0  0
   -7.9940   22.7810  -31.2460 C   0  0  0  0  0  0  0  0  0  0  0  0
   -8.7600   21.2870  -31.3650 S   0  0  0  0  0  0  0  0  0  0  0  0
   -7.4910   18.4787  -31.9146 H   0  0  0  0  0  0  0  0  0  0  0  0
   -8.3899   19.0337  -33.3674 H   0  0  0  0  0  0  0  0  0  0  0  0
   -6.5936   19.0363  -33.3674 H   0  0  0  0  0  0  0  0  0  0  0  0
   -5.2291   23.7097  -32.9532 H   0  0  0  0  0  0  0  0  0  0  0  0
   -6.3824   24.7629  -32.0472 H   0  0  0  0  0  0  0  0  0  0  0  0
   -3.4735   22.3371  -32.7158 H   0  0  0  0  0  0  0  0  0  0  0  0
   -3.4130   19.5610  -34.7370 H   0  0  0  0  0  0  0  0  0  0  0  0
   -1.5609   18.0900  -35.1792 H   0  0  0  0  0  0  0  0  0  0  0  0
   -1.9370   17.2386  -33.6323 H   0  0  0  0  0  0  0  0  0  0  0  0
   -3.4998   17.3045  -36.2319 H   0  0  0  0  0  0  0  0  0  0  0  0
   -3.0450   15.9025  -35.1531 H   0  0  0  0  0  0  0  0  0  0  0  0
   -6.3960   18.2836  -34.6480 H   0  0  0  0  0  0  0  0  0  0  0  0
   -5.1967   18.4791  -35.9709 H   0  0  0  0  0  0  0  0  0  0  0  0
   -6.3124   17.0713  -35.9709 H   0  0  0  0  0  0  0  0  0  0  0  0
   -5.7349   17.4362  -32.7645 H   0  0  0  0  0  0  0  0  0  0  0  0
   -4.1195   16.6144  -32.5963 H   0  0  0  0  0  0  0  0  0  0  0  0
   -4.7795   19.5241  -32.9624 H   0  0  0  0  0  0  0  0  0  0  0  0
   -3.5072   18.6936  -31.9491 H   0  0  0  0  0  0  0  0  0  0  0  0
   -1.3109   19.3041  -30.5247 H   0  0  0  0  0  0  0  0  0  0  0  0
   -2.1983   20.2116  -28.3872 H   0  0  0  0  0  0  0  0  0  0  0  0
   -3.0837   25.2817  -27.5171 H   0  0  0  0  0  0  0  0  0  0  0  0
   -0.9511   26.4628  -26.9990 H   0  0  0  0  0  0  0  0  0  0  0  0
    0.8640   25.3181  -23.7102 H   0  0  0  0  0  0  0  0  0  0  0  0
    1.1153   26.9835  -23.0295 H   0  0  0  0  0  0  0  0  0  0  0  0
   -1.2785   26.0385  -24.6720 H   0  0  0  0  0  0  0  0  0  0  0  0
   -1.2151   26.3695  -22.8728 H   0  0  0  0  0  0  0  0  0  0  0  0
   -0.7670   29.5111  -25.4140 H   0  0  0  0  0  0  0  0  0  0  0  0
    0.4808   29.1609  -24.1239 H   0  0  0  0  0  0  0  0  0  0  0  0
   -0.1285   27.3862  -26.5253 H   0  0  0  0  0  0  0  0  0  0  0  0
    1.2743   28.5175  -26.3583 H   0  0  0  0  0  0  0  0  0  0  0  0
    0.9283   22.6808  -26.0938 H   0  0  0  0  0  0  0  0  0  0  0  0
    0.6701   21.7161  -28.5250 H   0  0  0  0  0  0  0  0  0  0  0  0
    1.7657   20.5943  -27.6239 H   0  0  0  0  0  0  0  0  0  0  0  0
    0.2055   20.0123  -30.1860 H   0  0  0  0  0  0  0  0  0  0  0  0
    1.9998   20.1168  -29.9697 H   0  0  0  0  0  0  0  0  0  0  0  0
    1.1828   17.7614  -30.1081 H   0  0  0  0  0  0  0  0  0  0  0  0
    1.9806   18.1404  -28.5392 H   0  0  0  0  0  0  0  0  0  0  0  0
   -1.0337   18.0760  -29.0765 H   0  0  0  0  0  0  0  0  0  0  0  0
   -0.0727   16.8546  -28.1548 H   0  0  0  0  0  0  0  0  0  0  0  0
   -1.3062   18.4923  -26.6897 H   0  0  0  0  0  0  0  0  0  0  0  0
    0.4835   18.4887  -26.4530 H   0  0  0  0  0  0  0  0  0  0  0  0
   -8.3922   23.6762  -30.7460 H   0  0  0  0  0  0  0  0  0  0  0  0
  1  2  1  0
  2  3  2  0
  3  4  1  0
  4  5  1  0
  5  6  1  0
  6  7  2  0
  6  8  2  0
  6  9  1  0
  9 10  2  0
 10 11  1  0
 11 12  1  0
 12 13  2  0
 12 14  2  0
 12 15  1  0
 15 16  1  0
 16 17  1  0
 17 18  1  0
 18 19  1  0
 18 20  1  0
 20 21  1  0
 11 22  2  0
 22 23  1  0
 23 24  2  0
 24 25  1  0
 25 26  1  0
 26 27  2  0
 27 28  1  0
 28 29  2  0
 29 30  1  0
 30 31  2  0
 30 32  2  0
 30 33  1  0
 33 34  1  0
 34 35  1  0
 35 36  1  0
 36 37  1  0
 37 38  1  0
 29 39  1  0
 39 40  2  0
 40 41  1  0
 41 42  2  0
 41 43  1  0
 43 44  1  0
 44 45  1  0
 45 46  1  0
 46 47  1  0
 47 48  1  0
  4 49  2  0
 49 50  1  0
 50  2  1  0
 24  9  1  0
 40 26  1  0
 48 43  1  0
 21 15  1  0
 38 33  1  0
  1 51  1  0
  1 52  1  0
  1 53  1  0
  5 54  1  0
  5 55  1  0
 10 56  1  0
 15 57  1  0
 16 58  1  0
 16 59  1  0
 17 60  1  0
 17 61  1  0
 19 62  1  0
 19 63  1  0
 19 64  1  0
 20 65  1  0
 20 66  1  0
 21 67  1  0
 21 68  1  0
 22 69  1  0
 23 70  1  0
 27 71  1  0
 28 72  1  0
 34 73  1  0
 34 74  1  0
 35 75  1  0
 35 76  1  0
 37 77  1  0
 37 78  1  0
 38 79  1  0
 38 80  1  0
 39 81  1  0
 44 82  1  0
 44 83  1  0
 45 84  1  0
 45 85  1  0
 46 86  1  0
 46 87  1  0
 47 88  1  0
 47 89  1  0
 48 90  1  0
 48 91  1  0
 49 92  1  0
M  CHG  1  15   1
M  END
>  <UniqueID>  (29) 
29

>  <SMILES>  (29) 
Cc1nc(CS(=O)(=O)c2cc(S(=O)(=O)[NH+]3CCN(C)CC3)ccc2Sc2ccc(S(=O)(=O)N3CCOCC3)cc2C(=O)N2CCCCC2)cs1

>  <Energy>  (29) 
147.39307273354942

>  <Genealogy>  (29) 
Cc1nc(CS(=O)(=O)c2cc(S(=O)(=O)[NH+]3CCN(C)CC3)ccc2Sc2ccc(S(=O)(=O)N3CCOCC3)cc2C(=O)N2CCCCC2)cs1 (protonated)
Cc1nc(CS(=O)(=O)c2cc(S(=O)(=O)[NH+]3CCN(C)CC3)ccc2Sc2ccc(S(=O)(=O)N3CCOCC3)cc2C(=O)N2CCCCC2)cs1 (3D coordinates assigned)
Cc1nc(CS(=O)(=O)c2cc(S(=O)(=O)[NH+]3CCN(C)CC3)ccc2Sc2ccc(S(=O)(=O)N3CCOCC3)cc2C(=O)N2CCCCC2)cs1 (nonaromatic ring conformer: 147.39307273354942 kcal/mol)

>  <smiles>  (29) 
Cc1nc(CS(=O)(=O)c2cc(S(=O)(=O)N3CCN(C)CC3)ccc2Sc2ccc(S(=O)(=O)N3CCOCC3)cc2C(=O)N2CCCCC2)cs1

>  <score_type>  (29) 
oracle

>  <origin>  (29) 
adgpu

>  <m_score__min__energy>  (29) 
-12.800000000000001

>  <m_primary>  (29) 
energy

$$$$
29:0
     RDKit          3D

 54 57  0  0  0  0  0  0  0  0999 V2000
    1.2180   20.4380  -28.1890 C   0  0  0  0  0  0  0  0  0  0  0  0
   -0.0590   19.7010  -28.2410 N   0  0  0  0  0  0  0  0  0  0  0  0
   -0.5000   19.4230  -29.6210 C   0  0  0  0  0  0  0  0  0  0  0  0
   -0.8400   20.7010  -30.4010 C   0  0  0  0  0  0  0  0  0  0  0  0
   -1.6410   21.6760  -29.5800 C   0  0  0  0  0  0  0  0  0  0  0  0
   -2.2430   22.7690  -30.2200 C   0  0  0  0  0  0  0  0  0  0  0  0
   -2.9630   23.7230  -29.4870 C   0  0  0  0  0  0  0  0  0  0  0  0
   -3.6000   24.8210  -30.1470 N   0  0  0  0  0  0  0  0  0  0  0  0
   -5.3230   24.9940  -30.2480 S   0  0  0  0  0  0  0  0  0  0  0  0
   -5.6460   26.0840  -31.2320 O   0  0  0  0  0  0  0  0  0  0  0  0
   -5.8550   25.4040  -28.9020 O   0  0  0  0  0  0  0  0  0  0  0  0
   -6.0990   23.5060  -30.7800 C   0  0  0  0  0  0  0  0  0  0  0  0
   -5.6810   22.8750  -31.9610 C   0  0  0  0  0  0  0  0  0  0  0  0
   -6.3120   21.7080  -32.3960 C   0  0  0  0  0  0  0  0  0  0  0  0
   -7.3630   21.1520  -31.6510 C   0  0  0  0  0  0  0  0  0  0  0  0
   -8.1590   19.6760  -32.2060 S   0  0  0  0  0  0  0  0  0  0  0  0
   -9.1120   19.2020  -31.1430 O   0  0  0  0  0  0  0  0  0  0  0  0
   -8.9600   19.9810  -33.4420 O   0  0  0  0  0  0  0  0  0  0  0  0
   -7.0090   18.3970  -32.5450 N   0  0  0  0  0  0  0  0  0  0  0  0
   -5.8680   18.4540  -31.6210 C   0  0  0  0  0  0  0  0  0  0  0  0
   -4.7200   19.1660  -32.3230 C   0  0  0  0  0  0  0  0  0  0  0  0
   -5.0560   19.1230  -33.8020 C   0  0  0  0  0  0  0  0  0  0  0  0
   -6.4510   18.5190  -33.9010 C   0  0  0  0  0  0  0  0  0  0  0  0
   -7.7740   21.7760  -30.4650 C   0  0  0  0  0  0  0  0  0  0  0  0
   -7.1500   22.9530  -30.0360 C   0  0  0  0  0  0  0  0  0  0  0  0
   -3.0340   23.6090  -28.0850 C   0  0  0  0  0  0  0  0  0  0  0  0
   -3.7260   24.5450  -27.3140 O   0  0  0  0  0  0  0  0  0  0  0  0
   -2.4160   22.5310  -27.4410 C   0  0  0  0  0  0  0  0  0  0  0  0
   -1.7090   21.5680  -28.1770 C   0  0  0  0  0  0  0  0  0  0  0  0
   -1.1150   20.3770  -27.4600 C   0  0  0  0  0  0  0  0  0  0  0  0
    1.5037   20.6029  -27.1396 H   0  0  0  0  0  0  0  0  0  0  0  0
    2.0002   19.8524  -28.6943 H   0  0  0  0  0  0  0  0  0  0  0  0
    1.1023   21.4082  -28.6943 H   0  0  0  0  0  0  0  0  0  0  0  0
    0.3064   18.8924  -30.1484 H   0  0  0  0  0  0  0  0  0  0  0  0
   -1.4149   18.8152  -29.5623 H   0  0  0  0  0  0  0  0  0  0  0  0
    0.0974   21.1861  -30.7109 H   0  0  0  0  0  0  0  0  0  0  0  0
   -1.4498   20.4125  -31.2699 H   0  0  0  0  0  0  0  0  0  0  0  0
   -2.1492   22.8792  -31.3104 H   0  0  0  0  0  0  0  0  0  0  0  0
   -4.8530   23.3012  -32.5465 H   0  0  0  0  0  0  0  0  0  0  0  0
   -5.9838   21.2223  -33.3268 H   0  0  0  0  0  0  0  0  0  0  0  0
   -6.1509   19.0088  -30.7143 H   0  0  0  0  0  0  0  0  0  0  0  0
   -5.5633   17.4374  -31.3316 H   0  0  0  0  0  0  0  0  0  0  0  0
   -4.6449   20.2073  -31.9765 H   0  0  0  0  0  0  0  0  0  0  0  0
   -3.7532   18.6858  -32.1113 H   0  0  0  0  0  0  0  0  0  0  0  0
   -5.0488   20.1385  -34.2248 H   0  0  0  0  0  0  0  0  0  0  0  0
   -4.3202   18.5292  -34.3641 H   0  0  0  0  0  0  0  0  0  0  0  0
   -7.0948   19.1717  -34.5089 H   0  0  0  0  0  0  0  0  0  0  0  0
   -6.3977   17.5279  -34.3752 H   0  0  0  0  0  0  0  0  0  0  0  0
   -8.5894   21.3393  -29.8697 H   0  0  0  0  0  0  0  0  0  0  0  0
   -7.4857   23.4457  -29.1116 H   0  0  0  0  0  0  0  0  0  0  0  0
   -4.3030   25.2680  -27.7280 H   0  0  0  0  0  0  0  0  0  0  0  0
   -2.4852   22.4377  -26.3471 H   0  0  0  0  0  0  0  0  0  0  0  0
   -0.6821   20.7205  -26.5089 H   0  0  0  0  0  0  0  0  0  0  0  0
   -1.9251   19.6496  -27.3033 H   0  0  0  0  0  0  0  0  0  0  0  0
  1  2  1  0
  2  3  1  0
  3  4  1  0
  4  5  1  0
  5  6  2  0
  6  7  1  0
  7  8  1  0
  8  9  1  0
  9 10  2  0
  9 11  2  0
  9 12  1  0
 12 13  2  0
 13 14  1  0
 14 15  2  0
 15 16  1  0
 16 17  2  0
 16 18  2  0
 16 19  1  0
 19 20  1  0
 20 21  1  0
 21 22  1  0
 22 23  1  0
 15 24  1  0
 24 25  2  0
  7 26  2  0
 26 27  1  0
 26 28  1  0
 28 29  2  0
 29 30  1  0
 30  2  1  0
 29  5  1  0
 25 12  1  0
 23 19  1  0
  1 31  1  0
  1 32  1  0
  1 33  1  0
  3 34  1  0
  3 35  1  0
  4 36  1  0
  4 37  1  0
  6 38  1  0
 13 39  1  0
 14 40  1  0
 20 41  1  0
 20 42  1  0
 21 43  1  0
 21 44  1  0
 22 45  1  0
 22 46  1  0
 23 47  1  0
 23 48  1  0
 24 49  1  0
 25 50  1  0
 27 51  1  0
 28 52  1  0
 30 53  1  0
 30 54  1  0
M  CHG  1   8  -1
M  END
>  <UniqueID>  (30) 
30

>  <SMILES>  (30) 
CN1CCc2cc([N-]S(=O)(=O)c3ccc(S(=O)(=O)N4CCCC4)cc3)c(O)cc2C1

>  <Energy>  (30) 
67.52755745893464

>  <Genealogy>  (30) 
CN1CCc2cc([N-]S(=O)(=O)c3ccc(S(=O)(=O)N4CCCC4)cc3)c(O)cc2C1 (protonated)
CN1CCc2cc([N-]S(=O)(=O)c3ccc(S(=O)(=O)N4CCCC4)cc3)c(O)cc2C1 (3D coordinates assigned)
CN1CCc2cc([N-]S(=O)(=O)c3ccc(S(=O)(=O)N4CCCC4)cc3)c(O)cc2C1 (nonaromatic ring conformer: 67.52755745893464 kcal/mol)

>  <smiles>  (30) 
CN1CCc2cc(NS(=O)(=O)c3ccc(S(=O)(=O)N4CCCC4)cc3)c(O)cc2C1

>  <score_type>  (30) 
oracle

>  <origin>  (30) 
adgpu

>  <m_score__min__energy>  (30) 
-13.380000000000001

>  <m_primary>  (30) 
energy

$$$$
30:0
     RDKit          3D

 51 53  0  0  0  0  0  0  0  0999 V2000
   -2.8480   21.4250  -33.4650 C   0  0  0  0  0  0  0  0  0  0  0  0
   -1.9620   20.7460  -32.5150 N   0  0  0  0  0  0  0  0  0  0  0  0
   -1.3860   19.4370  -32.8380 C   0  0  0  0  0  0  0  0  0  0  0  0
   -1.6600   21.3680  -31.2500 C   0  0  0  0  0  0  0  0  0  0  0  0
   -0.7320   20.8200  -30.4180 N   0  0  0  0  0  0  0  0  0  0  0  0
   -0.4360   21.3900  -29.2210 C   0  0  0  0  0  0  0  0  0  0  0  0
   -1.0880   22.5570  -28.8260 C   0  0  0  0  0  0  0  0  0  0  0  0
   -2.0390   23.1140  -29.6860 C   0  0  0  0  0  0  0  0  0  0  0  0
   -2.7730   24.3710  -29.3170 C   0  0  0  0  0  0  0  0  0  0  0  0
   -3.4810   24.9270  -30.4730 N   0  0  0  0  0  0  0  0  0  0  0  0
   -5.2060   24.9110  -30.2310 S   0  0  0  0  0  0  0  0  0  0  0  0
   -5.5100   25.0580  -28.7650 O   0  0  0  0  0  0  0  0  0  0  0  0
   -5.8120   26.0760  -30.9590 O   0  0  0  0  0  0  0  0  0  0  0  0
   -5.9170   23.4230  -30.8550 C   0  0  0  0  0  0  0  0  0  0  0  0
   -7.1630   23.4660  -31.4930 C   0  0  0  0  0  0  0  0  0  0  0  0
   -7.7290   22.2980  -32.0100 C   0  0  0  0  0  0  0  0  0  0  0  0
   -7.0500   21.0740  -31.9010 C   0  0  0  0  0  0  0  0  0  0  0  0
   -7.7680   19.5950  -32.5470 S   0  0  0  0  0  0  0  0  0  0  0  0
   -7.9700   18.6180  -31.4220 O   0  0  0  0  0  0  0  0  0  0  0  0
   -9.1160   19.9210  -33.1300 O   0  0  0  0  0  0  0  0  0  0  0  0
   -6.7790   18.8500  -33.7790 N   0  0  0  0  0  0  0  0  0  0  0  0
   -5.4080   19.3670  -33.7870 C   0  0  0  0  0  0  0  0  0  0  0  0
   -4.5300   18.2660  -34.3700 C   0  0  0  0  0  0  0  0  0  0  0  0
   -5.3570   16.9920  -34.2760 C   0  0  0  0  0  0  0  0  0  0  0  0
   -6.6570   17.4020  -33.5980 C   0  0  0  0  0  0  0  0  0  0  0  0
   -5.8060   21.0330  -31.2560 C   0  0  0  0  0  0  0  0  0  0  0  0
   -5.2390   22.2010  -30.7400 C   0  0  0  0  0  0  0  0  0  0  0  0
   -2.3050   22.5080  -30.8740 N   0  0  0  0  0  0  0  0  0  0  0  0
   -3.6031   22.0037  -32.9129 H   0  0  0  0  0  0  0  0  0  0  0  0
   -2.2566   22.1033  -34.0975 H   0  0  0  0  0  0  0  0  0  0  0  0
   -3.3492   20.6775  -34.0975 H   0  0  0  0  0  0  0  0  0  0  0  0
   -1.1499   18.9005  -31.9072 H   0  0  0  0  0  0  0  0  0  0  0  0
   -2.1100   18.8525  -33.4246 H   0  0  0  0  0  0  0  0  0  0  0  0
   -0.4659   19.5759  -33.4246 H   0  0  0  0  0  0  0  0  0  0  0  0
    0.3175   20.9311  -28.5640 H   0  0  0  0  0  0  0  0  0  0  0  0
   -0.8593   23.0291  -27.8591 H   0  0  0  0  0  0  0  0  0  0  0  0
   -3.5017   24.1423  -28.5254 H   0  0  0  0  0  0  0  0  0  0  0  0
   -2.0407   25.1129  -28.9658 H   0  0  0  0  0  0  0  0  0  0  0  0
   -7.6978   24.4226  -31.5874 H   0  0  0  0  0  0  0  0  0  0  0  0
   -8.7108   22.3375  -32.5045 H   0  0  0  0  0  0  0  0  0  0  0  0
   -7.2190   19.0410  -34.7110 H   0  0  0  0  0  0  0  0  0  0  0  0
   -5.3471   20.2711  -34.4107 H   0  0  0  0  0  0  0  0  0  0  0  0
   -5.0811   19.6392  -32.7726 H   0  0  0  0  0  0  0  0  0  0  0  0
   -4.2825   18.4869  -35.4188 H   0  0  0  0  0  0  0  0  0  0  0  0
   -3.5773   18.1744  -33.8277 H   0  0  0  0  0  0  0  0  0  0  0  0
   -5.5571   16.5883  -35.2795 H   0  0  0  0  0  0  0  0  0  0  0  0
   -4.8331   16.2052  -33.7135 H   0  0  0  0  0  0  0  0  0  0  0  0
   -7.5090   16.8870  -34.0659 H   0  0  0  0  0  0  0  0  0  0  0  0
   -6.6528   17.1324  -32.5316 H   0  0  0  0  0  0  0  0  0  0  0  0
   -5.2733   20.0758  -31.1556 H   0  0  0  0  0  0  0  0  0  0  0  0
   -4.2587   22.1619  -30.2425 H   0  0  0  0  0  0  0  0  0  0  0  0
  1  2  1  0
  2  3  1  0
  2  4  1  0
  4  5  2  0
  5  6  1  0
  6  7  2  0
  7  8  1  0
  8  9  1  0
  9 10  1  0
 10 11  1  0
 11 12  2  0
 11 13  2  0
 11 14  1  0
 14 15  2  0
 15 16  1  0
 16 17  2  0
 17 18  1  0
 18 19  2  0
 18 20  2  0
 18 21  1  0
 21 22  1  0
 22 23  1  0
 23 24  1  0
 24 25  1  0
 17 26  1  0
 26 27  2  0
  8 28  2  0
 28  4  1  0
 27 14  1  0
 25 21  1  0
  1 29  1  0
  1 30  1  0
  1 31  1  0
  3 32  1  0
  3 33  1  0
  3 34  1  0
  6 35  1  0
  7 36  1  0
  9 37  1  0
  9 38  1  0
 15 39  1  0
 16 40  1  0
 21 41  1  0
 22 42  1  0
 22 43  1  0
 23 44  1  0
 23 45  1  0
 24 46  1  0
 24 47  1  0
 25 48  1  0
 25 49  1  0
 26 50  1  0
 27 51  1  0
M  CHG  2  10  -1  21   1
M  END
>  <UniqueID>  (31) 
31

>  <SMILES>  (31) 
CN(C)c1nccc(C[N-]S(=O)(=O)c2ccc(S(=O)(=O)[NH+]3CCCC3)cc2)n1

>  <Energy>  (31) 
48.714199585781074

>  <Genealogy>  (31) 
CN(C)c1nccc(C[N-]S(=O)(=O)c2ccc(S(=O)(=O)[NH+]3CCCC3)cc2)n1 (protonated)
CN(C)c1nccc(C[N-]S(=O)(=O)c2ccc(S(=O)(=O)[NH+]3CCCC3)cc2)n1 (3D coordinates assigned)
CN(C)c1nccc(C[N-]S(=O)(=O)c2ccc(S(=O)(=O)[NH+]3CCCC3)cc2)n1 (nonaromatic ring conformer: 48.714199585781074 kcal/mol)

>  <smiles>  (31) 
CN(C)c1nccc(CNS(=O)(=O)c2ccc(S(=O)(=O)N3CCCC3)cc2)n1

>  <score_type>  (31) 
oracle

>  <origin>  (31) 
adgpu

>  <m_score__min__energy>  (31) 
-10.67

>  <m_primary>  (31) 
energy

$$$$
31:0
     RDKit          3D

 56 59  0  0  0  0  0  0  0  0999 V2000
   -9.4590   21.7690  -31.3620 C   0  0  0  0  0  0  0  0  0  0  0  0
   -8.2170   21.2650  -31.9320 N   0  0  0  0  0  0  0  0  0  0  0  0
   -8.0630   19.9940  -32.5550 C   0  0  0  0  0  0  0  0  0  0  0  0
   -9.0360   19.3200  -32.9880 O   0  0  0  0  0  0  0  0  0  0  0  0
   -6.6230   19.5480  -32.6390 C   0  0  0  0  0  0  0  0  0  0  0  0
   -6.4080   18.2190  -31.9070 C   0  0  0  0  0  0  0  0  0  0  0  0
   -6.1580   19.4790  -34.1010 C   0  0  0  0  0  0  0  0  0  0  0  0
   -5.9650   20.6900  -31.9130 C   0  0  0  0  0  0  0  0  0  0  0  0
   -4.6060   20.8900  -31.6590 C   0  0  0  0  0  0  0  0  0  0  0  0
   -4.2030   22.0840  -31.0400 C   0  0  0  0  0  0  0  0  0  0  0  0
   -5.1560   23.0630  -30.6880 C   0  0  0  0  0  0  0  0  0  0  0  0
   -4.6440   24.6640  -30.1550 S   0  0  0  0  0  0  0  0  0  0  0  0
   -5.0070   25.6660  -31.2140 O   0  0  0  0  0  0  0  0  0  0  0  0
   -5.3160   25.0350  -28.8630 O   0  0  0  0  0  0  0  0  0  0  0  0
   -2.9220   24.6680  -29.9230 N   0  0  0  0  0  0  0  0  0  0  0  0
   -2.2990   24.3420  -28.6730 C   0  0  0  0  0  0  0  0  0  0  0  0
   -1.1560   23.5270  -28.6140 C   0  0  0  0  0  0  0  0  0  0  0  0
   -0.4760   23.3590  -27.4060 C   0  0  0  0  0  0  0  0  0  0  0  0
   -0.9400   23.9780  -26.2410 C   0  0  0  0  0  0  0  0  0  0  0  0
   -0.0180   23.8250  -24.7490 S   0  0  0  0  0  0  0  0  0  0  0  0
    1.2560   23.0660  -25.0030 O   0  0  0  0  0  0  0  0  0  0  0  0
   -0.8410   23.0640  -23.7490 O   0  0  0  0  0  0  0  0  0  0  0  0
    0.3460   25.4120  -24.1220 N   0  0  0  0  0  0  0  0  0  0  0  0
    1.1640   26.1920  -25.0560 C   0  0  0  0  0  0  0  0  0  0  0  0
    0.8210   27.6590  -24.8250 C   0  0  0  0  0  0  0  0  0  0  0  0
   -0.4520   27.6570  -23.9920 C   0  0  0  0  0  0  0  0  0  0  0  0
   -0.8670   26.1990  -23.8980 C   0  0  0  0  0  0  0  0  0  0  0  0
   -2.1160   24.7380  -26.2850 C   0  0  0  0  0  0  0  0  0  0  0  0
   -2.7950   24.9120  -27.4960 C   0  0  0  0  0  0  0  0  0  0  0  0
   -6.5240   22.8210  -30.9110 C   0  0  0  0  0  0  0  0  0  0  0  0
   -6.9030   21.6300  -31.5330 C   0  0  0  0  0  0  0  0  0  0  0  0
   -9.3956   21.7433  -30.2641 H   0  0  0  0  0  0  0  0  0  0  0  0
   -9.6220   22.8044  -31.6957 H   0  0  0  0  0  0  0  0  0  0  0  0
  -10.2974   21.1399  -31.6957 H   0  0  0  0  0  0  0  0  0  0  0  0
   -6.4357   18.3900  -30.8207 H   0  0  0  0  0  0  0  0  0  0  0  0
   -7.2036   17.5131  -32.1874 H   0  0  0  0  0  0  0  0  0  0  0  0
   -5.4304   17.7999  -32.1874 H   0  0  0  0  0  0  0  0  0  0  0  0
   -5.0704   19.3176  -34.1326 H   0  0  0  0  0  0  0  0  0  0  0  0
   -6.6671   18.6466  -34.6088 H   0  0  0  0  0  0  0  0  0  0  0  0
   -6.4035   20.4234  -34.6088 H   0  0  0  0  0  0  0  0  0  0  0  0
   -3.8654   20.1263  -31.9387 H   0  0  0  0  0  0  0  0  0  0  0  0
   -3.1376   22.2573  -30.8281 H   0  0  0  0  0  0  0  0  0  0  0  0
   -0.7960   23.0201  -29.5215 H   0  0  0  0  0  0  0  0  0  0  0  0
    0.4300   22.7361  -27.3706 H   0  0  0  0  0  0  0  0  0  0  0  0
    0.8610   25.3080  -23.2150 H   0  0  0  0  0  0  0  0  0  0  0  0
    2.2323   26.0177  -24.8600 H   0  0  0  0  0  0  0  0  0  0  0  0
    0.9614   25.8991  -26.0967 H   0  0  0  0  0  0  0  0  0  0  0  0
    1.6343   28.1622  -24.2816 H   0  0  0  0  0  0  0  0  0  0  0  0
    0.6849   28.1988  -25.7738 H   0  0  0  0  0  0  0  0  0  0  0  0
   -0.2576   28.0676  -22.9902 H   0  0  0  0  0  0  0  0  0  0  0  0
   -1.2387   28.2791  -24.4437 H   0  0  0  0  0  0  0  0  0  0  0  0
   -1.2818   25.9844  -22.9021 H   0  0  0  0  0  0  0  0  0  0  0  0
   -1.6439   25.9558  -24.6377 H   0  0  0  0  0  0  0  0  0  0  0  0
   -2.5064   25.1989  -25.3657 H   0  0  0  0  0  0  0  0  0  0  0  0
   -3.7241   25.5004  -27.5225 H   0  0  0  0  0  0  0  0  0  0  0  0
   -7.2808   23.5566  -30.6010 H   0  0  0  0  0  0  0  0  0  0  0  0
  1  2  1  0
  2  3  1  0
  3  4  2  0
  3  5  1  0
  5  6  1  0
  5  7  1  0
  5  8  1  0
  8  9  2  0
  9 10  1  0
 10 11  2  0
 11 12  1  0
 12 13  2  0
 12 14  2  0
 12 15  1  0
 15 16  1  0
 16 17  2  0
 17 18  1  0
 18 19  2  0
 19 20  1  0
 20 21  2  0
 20 22  2  0
 20 23  1  0
 23 24  1  0
 24 25  1  0
 25 26  1  0
 26 27  1  0
 19 28  1  0
 28 29  2  0
 11 30  1  0
 30 31  2  0
 31  2  1  0
 31  8  1  0
 29 16  1  0
 27 23  1  0
  1 32  1  0
  1 33  1  0
  1 34  1  0
  6 35  1  0
  6 36  1  0
  6 37  1  0
  7 38  1  0
  7 39  1  0
  7 40  1  0
  9 41  1  0
 10 42  1  0
 17 43  1  0
 18 44  1  0
 23 45  1  0
 24 46  1  0
 24 47  1  0
 25 48  1  0
 25 49  1  0
 26 50  1  0
 26 51  1  0
 27 52  1  0
 27 53  1  0
 28 54  1  0
 29 55  1  0
 30 56  1  0
M  CHG  2  15  -1  23   1
M  END
>  <UniqueID>  (32) 
32

>  <SMILES>  (32) 
CN1C(=O)C(C)(C)c2ccc(S(=O)(=O)[N-]c3ccc(S(=O)(=O)[NH+]4CCCC4)cc3)cc21

>  <Energy>  (32) 
79.56795474129711

>  <Genealogy>  (32) 
CN1C(=O)C(C)(C)c2ccc(S(=O)(=O)[N-]c3ccc(S(=O)(=O)[NH+]4CCCC4)cc3)cc21 (protonated)
CN1C(=O)C(C)(C)c2ccc(S(=O)(=O)[N-]c3ccc(S(=O)(=O)[NH+]4CCCC4)cc3)cc21 (3D coordinates assigned)
CN1C(=O)C(C)(C)c2ccc(S(=O)(=O)[N-]c3ccc(S(=O)(=O)[NH+]4CCCC4)cc3)cc21 (nonaromatic ring conformer: 79.56795474129711 kcal/mol)

>  <smiles>  (32) 
CN1C(=O)C(C)(C)c2ccc(S(=O)(=O)Nc3ccc(S(=O)(=O)N4CCCC4)cc3)cc21

>  <score_type>  (32) 
oracle

>  <origin>  (32) 
adgpu

>  <m_score__min__energy>  (32) 
-13.1

>  <m_primary>  (32) 
energy

$$$$
32:0
     RDKit          3D

 39 42  0  0  0  0  0  0  0  0999 V2000
    2.5620   24.6740  -26.9550 O   0  0  0  0  0  0  0  0  0  0  0  0
    1.4700   24.3200  -27.4700 C   0  0  0  0  0  0  0  0  0  0  0  0
    1.1270   23.0190  -27.6230 N   0  0  0  0  0  0  0  0  0  0  0  0
   -0.0790   23.1120  -28.2040 C   0  0  0  0  0  0  0  0  0  0  0  0
   -0.9080   22.0740  -28.6170 C   0  0  0  0  0  0  0  0  0  0  0  0
   -2.1280   22.4120  -29.2320 C   0  0  0  0  0  0  0  0  0  0  0  0
   -2.4880   23.7670  -29.4100 C   0  0  0  0  0  0  0  0  0  0  0  0
   -3.9840   24.1890  -30.2400 S   0  0  0  0  0  0  0  0  0  0  0  0
   -5.1270   24.1890  -29.2670 O   0  0  0  0  0  0  0  0  0  0  0  0
   -3.8630   25.5610  -30.8400 O   0  0  0  0  0  0  0  0  0  0  0  0
   -4.3050   23.0340  -31.4850 N   0  0  0  0  0  0  0  0  0  0  0  0
   -5.5890   22.4210  -31.5820 C   0  0  0  0  0  0  0  0  0  0  0  0
   -5.6850   21.0310  -31.7000 C   0  0  0  0  0  0  0  0  0  0  0  0
   -6.9300   20.4180  -31.8960 C   0  0  0  0  0  0  0  0  0  0  0  0
   -8.0940   21.2200  -31.9800 C   0  0  0  0  0  0  0  0  0  0  0  0
   -7.9900   22.6090  -31.8240 C   0  0  0  0  0  0  0  0  0  0  0  0
   -6.7420   23.2130  -31.6350 C   0  0  0  0  0  0  0  0  0  0  0  0
   -6.6380   24.5980  -31.5070 O   0  0  0  0  0  0  0  0  0  0  0  0
   -9.4650   20.6020  -32.1230 C   0  0  0  0  0  0  0  0  0  0  0  0
   -9.4110   19.1970  -32.7210 C   0  0  0  0  0  0  0  0  0  0  0  0
   -8.3790   18.3430  -31.9830 C   0  0  0  0  0  0  0  0  0  0  0  0
   -6.9750   18.9300  -32.1510 C   0  0  0  0  0  0  0  0  0  0  0  0
   -1.6220   24.7910  -28.9660 C   0  0  0  0  0  0  0  0  0  0  0  0
   -0.4190   24.4160  -28.3760 C   0  0  0  0  0  0  0  0  0  0  0  0
    0.5560   25.2140  -27.9180 N   0  0  0  0  0  0  0  0  0  0  0  0
   -0.6193   21.0231  -28.4677 H   0  0  0  0  0  0  0  0  0  0  0  0
   -2.8054   21.6167  -29.5762 H   0  0  0  0  0  0  0  0  0  0  0  0
   -4.7764   20.4140  -31.6385 H   0  0  0  0  0  0  0  0  0  0  0  0
   -8.8976   23.2299  -31.8504 H   0  0  0  0  0  0  0  0  0  0  0  0
   -5.8070   25.0350  -31.1310 H   0  0  0  0  0  0  0  0  0  0  0  0
   -9.9323   20.5451  -31.1288 H   0  0  0  0  0  0  0  0  0  0  0  0
  -10.0488   21.2355  -32.8070 H   0  0  0  0  0  0  0  0  0  0  0  0
  -10.4013   18.7267  -32.6316 H   0  0  0  0  0  0  0  0  0  0  0  0
   -9.1219   19.2706  -33.7798 H   0  0  0  0  0  0  0  0  0  0  0  0
   -8.6328   18.3133  -30.9131 H   0  0  0  0  0  0  0  0  0  0  0  0
   -8.3918   17.3274  -32.4053 H   0  0  0  0  0  0  0  0  0  0  0  0
   -6.2980   18.4310  -31.4420 H   0  0  0  0  0  0  0  0  0  0  0  0
   -6.6679   18.7626  -33.1939 H   0  0  0  0  0  0  0  0  0  0  0  0
   -1.8903   25.8513  -29.0830 H   0  0  0  0  0  0  0  0  0  0  0  0
  1  2  2  0
  2  3  1  0
  3  4  1  0
  4  5  2  0
  5  6  1  0
  6  7  2  0
  7  8  1  0
  8  9  2  0
  8 10  2  0
  8 11  1  0
 11 12  1  0
 12 13  2  0
 13 14  1  0
 14 15  2  0
 15 16  1  0
 16 17  2  0
 17 18  1  0
 15 19  1  0
 19 20  1  0
 20 21  1  0
 21 22  1  0
  7 23  1  0
 23 24  2  0
 24 25  1  0
 25  2  1  0
 24  4  1  0
 17 12  1  0
 22 14  1  0
  5 26  1  0
  6 27  1  0
 13 28  1  0
 16 29  1  0
 18 30  1  0
 19 31  1  0
 19 32  1  0
 20 33  1  0
 20 34  1  0
 21 35  1  0
 21 36  1  0
 22 37  1  0
 22 38  1  0
 23 39  1  0
M  CHG  3   3  -1  11  -1  25  -1
M  END
>  <UniqueID>  (33) 
33

>  <SMILES>  (33) 
O=c1[n-]c2ccc(S(=O)(=O)[N-]c3cc4c(cc3O)CCCC4)cc2[n-]1

>  <Energy>  (33) 
85.59700756225084

>  <Genealogy>  (33) 
O=c1[n-]c2ccc(S(=O)(=O)[N-]c3cc4c(cc3O)CCCC4)cc2[n-]1 (protonated)
O=c1[n-]c2ccc(S(=O)(=O)[N-]c3cc4c(cc3O)CCCC4)cc2[n-]1 (3D coordinates assigned)
O=c1[n-]c2ccc(S(=O)(=O)[N-]c3cc4c(cc3O)CCCC4)cc2[n-]1 (nonaromatic ring conformer: 85.59700756225084 kcal/mol)

>  <smiles>  (33) 
O=c1[nH]c2ccc(S(=O)(=O)Nc3cc4c(cc3O)CCCC4)cc2[nH]1

>  <score_type>  (33) 
oracle

>  <origin>  (33) 
adgpu

>  <m_score__min__energy>  (33) 
-11.029999999999999

>  <m_primary>  (33) 
energy

$$$$
33:0
     RDKit          3D

 50 53  0  0  0  0  0  0  0  0999 V2000
   -4.0350   25.4910  -30.7370 N   0  0  0  0  0  0  0  0  0  0  0  0
   -4.0920   23.8980  -30.0710 S   0  0  0  0  0  0  0  0  0  0  0  0
   -5.0620   23.8820  -28.9220 O   0  0  0  0  0  0  0  0  0  0  0  0
   -4.5670   22.9310  -31.1190 O   0  0  0  0  0  0  0  0  0  0  0  0
   -2.4790   23.4270  -29.5270 C   0  0  0  0  0  0  0  0  0  0  0  0
   -2.0820   22.0820  -29.5810 C   0  0  0  0  0  0  0  0  0  0  0  0
   -0.7930   21.7060  -29.1740 C   0  0  0  0  0  0  0  0  0  0  0  0
   -0.2640   20.0300  -29.2850 S   0  0  0  0  0  0  0  0  0  0  0  0
   -1.2280   19.1090  -28.5930 O   0  0  0  0  0  0  0  0  0  0  0  0
    1.0790   19.9000  -28.6250 O   0  0  0  0  0  0  0  0  0  0  0  0
   -0.1240   19.5720  -30.9530 N   0  0  0  0  0  0  0  0  0  0  0  0
   -1.2250   19.3130  -31.8360 C   0  0  0  0  0  0  0  0  0  0  0  0
   -2.1850   20.2970  -32.1390 C   0  0  0  0  0  0  0  0  0  0  0  0
   -3.2470   20.0010  -33.0030 C   0  0  0  0  0  0  0  0  0  0  0  0
   -3.3650   18.7270  -33.5620 C   0  0  0  0  0  0  0  0  0  0  0  0
   -2.4070   17.7460  -33.2750 C   0  0  0  0  0  0  0  0  0  0  0  0
   -1.3440   18.0380  -32.4120 C   0  0  0  0  0  0  0  0  0  0  0  0
   -0.4010   17.0540  -32.1340 O   0  0  0  0  0  0  0  0  0  0  0  0
   -4.5000   18.4820  -34.5170 C   0  0  0  0  0  0  0  0  0  0  0  0
   -5.7790   19.0470  -34.0170 N   0  0  0  0  0  0  0  0  0  0  0  0
   -6.5900   18.0120  -33.3390 C   0  0  0  0  0  0  0  0  0  0  0  0
   -7.8690   18.6160  -32.7610 C   0  0  0  0  0  0  0  0  0  0  0  0
   -7.5610   19.6730  -31.6880 C   0  0  0  0  0  0  0  0  0  0  0  0
   -6.1440   20.2520  -31.8090 C   0  0  0  0  0  0  0  0  0  0  0  0
   -5.6930   20.3610  -33.2870 C   0  0  1  0  0  0  0  0  0  0  0  0
   -4.2930   21.0140  -33.3600 C   0  0  0  0  0  0  0  0  0  0  0  0
    0.0970   22.6780  -28.7020 C   0  0  0  0  0  0  0  0  0  0  0  0
   -0.2980   24.0160  -28.6300 C   0  0  0  0  0  0  0  0  0  0  0  0
   -1.5830   24.3970  -29.0410 C   0  0  0  0  0  0  0  0  0  0  0  0
   -1.9710   25.7350  -28.9690 O   0  0  0  0  0  0  0  0  0  0  0  0
   -3.1070   25.5940  -31.2090 H   0  0  0  0  0  0  0  0  0  0  0  0
   -2.7853   21.3183  -29.9444 H   0  0  0  0  0  0  0  0  0  0  0  0
   -2.1010   21.3005  -31.6963 H   0  0  0  0  0  0  0  0  0  0  0  0
   -2.4899   16.7468  -33.7275 H   0  0  0  0  0  0  0  0  0  0  0  0
   -4.2587   18.9496  -35.4830 H   0  0  0  0  0  0  0  0  0  0  0  0
   -4.6269   17.3944  -34.6223 H   0  0  0  0  0  0  0  0  0  0  0  0
   -6.8568   17.2301  -34.0652 H   0  0  0  0  0  0  0  0  0  0  0  0
   -5.9989   17.5848  -32.5156 H   0  0  0  0  0  0  0  0  0  0  0  0
   -8.4398   19.0884  -33.5740 H   0  0  0  0  0  0  0  0  0  0  0  0
   -8.4494   17.8081  -32.2915 H   0  0  0  0  0  0  0  0  0  0  0  0
   -8.2855   20.4948  -31.7867 H   0  0  0  0  0  0  0  0  0  0  0  0
   -7.6332   19.1791  -30.7078 H   0  0  0  0  0  0  0  0  0  0  0  0
   -6.1290   21.2547  -31.3570 H   0  0  0  0  0  0  0  0  0  0  0  0
   -5.4514   19.5742  -31.2886 H   0  0  0  0  0  0  0  0  0  0  0  0
   -6.3960   21.0184  -33.8196 H   0  0  0  0  0  0  0  0  0  0  0  0
   -4.1132   21.3818  -34.3810 H   0  0  0  0  0  0  0  0  0  0  0  0
   -4.2444   21.8547  -32.6522 H   0  0  0  0  0  0  0  0  0  0  0  0
    1.1101   22.3874  -28.3870 H   0  0  0  0  0  0  0  0  0  0  0  0
    0.4023   24.7740  -28.2491 H   0  0  0  0  0  0  0  0  0  0  0  0
   -2.8520   26.0540  -29.3540 H   0  0  0  0  0  0  0  0  0  0  0  0
  1  2  1  0
  2  3  2  0
  2  4  2  0
  2  5  1  0
  5  6  2  0
  6  7  1  0
  7  8  1  0
  8  9  2  0
  8 10  2  0
  8 11  1  0
 11 12  1  0
 12 13  2  0
 13 14  1  0
 14 15  2  0
 15 16  1  0
 16 17  2  0
 17 18  1  0
 15 19  1  0
 19 20  1  0
 20 21  1  0
 21 22  1  0
 22 23  1  0
 23 24  1  0
 24 25  1  0
 25 26  1  0
  7 27  2  0
 27 28  1  0
 28 29  2  0
 29 30  1  0
 29  5  1  0
 17 12  1  0
 25 20  1  0
 26 14  1  0
  1 31  1  0
  6 32  1  0
 13 33  1  0
 16 34  1  0
 19 35  1  0
 19 36  1  0
 21 37  1  0
 21 38  1  0
 22 39  1  0
 22 40  1  0
 23 41  1  0
 23 42  1  0
 24 43  1  0
 24 44  1  0
 25 45  1  6
 26 46  1  0
 26 47  1  0
 27 48  1  0
 28 49  1  0
 30 50  1  0
M  CHG  3   1  -1  11  -1  18  -1
M  END
>  <UniqueID>  (34) 
34

>  <SMILES>  (34) 
[NH-]S(=O)(=O)c1cc(S(=O)(=O)[N-]c2cc3c(cc2[O-])CN2CCCC[C@H]2C3)ccc1O

>  <Energy>  (34) 
71.58721153749381

>  <Genealogy>  (34) 
[NH-]S(=O)(=O)c1cc(S(=O)(=O)[N-]c2cc3c(cc2[O-])CN2CCCCC2C3)ccc1O (protonated)
[NH-]S(=O)(=O)c1cc(S(=O)(=O)[N-]c2cc3c(cc2[O-])CN2CCCC[C@H]2C3)ccc1O (chirality)
[NH-]S(=O)(=O)c1cc(S(=O)(=O)[N-]c2cc3c(cc2[O-])CN2CCCC[C@H]2C3)ccc1O (3D coordinates assigned)
[NH-]S(=O)(=O)c1cc(S(=O)(=O)[N-]c2cc3c(cc2[O-])CN2CCCC[C@H]2C3)ccc1O (nonaromatic ring conformer: 71.58721153749381 kcal/mol)

>  <smiles>  (34) 
NS(=O)(=O)c1cc(S(=O)(=O)Nc2cc3c(cc2O)CN2CCCCC2C3)ccc1O

>  <score_type>  (34) 
oracle

>  <origin>  (34) 
adgpu

>  <m_score__min__energy>  (34) 
-12.02

>  <m_primary>  (34) 
energy

$$$$
34:0
     RDKit          3D

 40 43  0  0  0  0  0  0  0  0999 V2000
    1.0730   24.4540  -27.3580 H   0  0  0  0  0  0  0  0  0  0  0  0
    0.3410   25.0150  -27.8520 N   0  0  0  0  0  0  0  0  0  0  0  0
   -0.7150   24.4660  -28.3620 C   0  0  0  0  0  0  0  0  0  0  0  0
   -1.6450   25.2560  -28.9840 N   0  0  0  0  0  0  0  0  0  0  0  0
   -2.7370   24.6680  -29.5300 C   0  0  0  0  0  0  0  0  0  0  0  0
   -2.9200   23.3170  -29.5040 C   0  0  0  0  0  0  0  0  0  0  0  0
   -4.1120   23.0680  -30.1550 C   0  0  0  0  0  0  0  0  0  0  0  0
   -4.8640   21.4790  -30.5360 S   0  0  0  0  0  0  0  0  0  0  0  0
   -3.6990   21.1020  -31.8660 C   0  0  0  0  0  0  0  0  0  0  0  0
   -2.4980   21.8280  -31.9050 C   0  0  0  0  0  0  0  0  0  0  0  0
   -2.3268   22.6341  -31.1764 H   0  0  0  0  0  0  0  0  0  0  0  0
   -1.5190   21.5400  -32.8560 C   0  0  0  0  0  0  0  0  0  0  0  0
   -0.5747   22.1041  -32.8618 H   0  0  0  0  0  0  0  0  0  0  0  0
   -1.7380   20.5370  -33.7990 C   0  0  0  0  0  0  0  0  0  0  0  0
   -0.5040   20.1680  -34.9900 Cl  0  0  0  0  0  0  0  0  0  0  0  0
   -2.9490   19.8430  -33.8100 C   0  0  0  0  0  0  0  0  0  0  0  0
   -3.1223   19.0659  -34.5690 H   0  0  0  0  0  0  0  0  0  0  0  0
   -3.9500   20.1240  -32.8640 C   0  0  0  0  0  0  0  0  0  0  0  0
   -5.5150   19.3120  -33.0750 S   0  0  0  0  0  0  0  0  0  0  0  0
   -5.6880   18.8650  -34.5010 O   0  0  0  0  0  0  0  0  0  0  0  0
   -5.5290   18.0860  -32.2030 O   0  0  0  0  0  0  0  0  0  0  0  0
   -6.8760   20.3300  -32.6080 C   0  0  0  0  0  0  0  0  0  0  0  0
   -6.8050   21.7350  -32.7040 C   0  0  0  0  0  0  0  0  0  0  0  0
   -5.9129   22.2097  -33.1386 H   0  0  0  0  0  0  0  0  0  0  0  0
   -7.8640   22.5280  -32.2490 C   0  0  0  0  0  0  0  0  0  0  0  0
   -7.8110   23.6230  -32.3391 H   0  0  0  0  0  0  0  0  0  0  0  0
   -8.9890   21.9260  -31.6800 C   0  0  0  0  0  0  0  0  0  0  0  0
   -9.8143   22.5494  -31.3055 H   0  0  0  0  0  0  0  0  0  0  0  0
   -9.0690   20.5300  -31.5850 C   0  0  0  0  0  0  0  0  0  0  0  0
   -9.9611   20.0601  -31.1453 H   0  0  0  0  0  0  0  0  0  0  0  0
   -8.0170   19.7330  -32.0480 C   0  0  0  0  0  0  0  0  0  0  0  0
   -8.0835   18.6375  -31.9734 H   0  0  0  0  0  0  0  0  0  0  0  0
   -4.6210   24.3200  -30.5030 C   0  0  0  0  0  0  0  0  0  0  0  0
   -5.5798   24.4870  -31.0157 H   0  0  0  0  0  0  0  0  0  0  0  0
   -3.7690   25.3000  -30.1210 N   0  0  0  0  0  0  0  0  0  0  0  0
   -3.9070   26.3330  -30.2220 H   0  0  0  0  0  0  0  0  0  0  0  0
   -2.0200   22.5140  -28.8090 C   0  0  0  0  0  0  0  0  0  0  0  0
   -2.2320   21.2810  -28.6510 O   0  0  0  0  0  0  0  0  0  0  0  0
   -0.9210   23.1090  -28.2520 N   0  0  0  0  0  0  0  0  0  0  0  0
   -0.2410   22.5140  -27.7190 H   0  0  0  0  0  0  0  0  0  0  0  0
  1  2  1  0
  2  3  2  0
  3  4  1  0
  4  5  1  0
  5  6  2  0
  6  7  1  0
  7  8  1  0
  8  9  1  0
  9 10  2  0
 10 11  1  0
 10 12  1  0
 12 13  1  0
 12 14  2  0
 14 15  1  0
 14 16  1  0
 16 17  1  0
 16 18  2  0
 18 19  1  0
 19 20  2  0
 19 21  2  0
 19 22  1  0
 22 23  2  0
 23 24  1  0
 23 25  1  0
 25 26  1  0
 25 27  2  0
 27 28  1  0
 27 29  1  0
 29 30  1  0
 29 31  2  0
 31 32  1  0
  7 33  2  0
 33 34  1  0
 33 35  1  0
 35 36  1  0
  6 37  1  0
 37 38  2  0
 37 39  1  0
 39 40  1  0
 39  3  1  0
 35  5  1  0
 18  9  1  0
 31 22  1  0
M  CHG  1   4  -1
M  END
>  <UniqueID>  (35) 
35

>  <SMILES>  (35) 
[H]/N=c1/[n-]c2[nH]cc(Sc3ccc(Cl)cc3S(=O)(=O)c3ccccc3)c2c(=O)[nH]1

>  <Energy>  (35) 
84.07545357909976

>  <Genealogy>  (35) 
N=c1[n-]c2[nH]cc(Sc3ccc(Cl)cc3S(=O)(=O)c3ccccc3)c2c(=O)[nH]1 (protonated)
[H]/N=c1/[n-]c2[nH]cc(Sc3ccc(Cl)cc3S(=O)(=O)c3ccccc3)c2c(=O)[nH]1 (cis-trans isomerization)
[H]/N=c1/[n-]c2[nH]cc(Sc3ccc(Cl)cc3S(=O)(=O)c3ccccc3)c2c(=O)[nH]1 (3D coordinates assigned)
[H]/N=c1/[n-]c2[nH]cc(Sc3ccc(Cl)cc3S(=O)(=O)c3ccccc3)c2c(=O)[nH]1 (optimized conformer: 84.07545357909976 kcal/mol)

>  <smiles>  (35) 
N=c1[nH]c(=O)c2c(Sc3ccc(Cl)cc3S(=O)(=O)c3ccccc3)c[nH]c2[nH]1

>  <score_type>  (35) 
oracle

>  <origin>  (35) 
adgpu

>  <m_score__min__energy>  (35) 
-10.529999999999999

>  <m_primary>  (35) 
energy

$$$$
35:0
     RDKit          3D

 54 57  0  0  0  0  0  0  0  0999 V2000
   -2.7810   18.5340  -26.3300 C   0  0  0  0  0  0  0  0  0  0  0  0
   -2.4740   19.9500  -26.5830 N   0  0  0  0  0  0  0  0  0  0  0  0
   -1.0140   20.1490  -26.6410 C   0  0  0  0  0  0  0  0  0  0  0  0
   -0.6960   21.6460  -26.6780 C   0  0  0  0  0  0  0  0  0  0  0  0
   -1.5390   22.3760  -27.6930 C   0  0  0  0  0  0  0  0  0  0  0  0
   -1.1910   23.6800  -28.0680 C   0  0  0  0  0  0  0  0  0  0  0  0
   -1.9790   24.3930  -28.9760 C   0  0  0  0  0  0  0  0  0  0  0  0
   -1.5960   25.6790  -29.3410 O   0  0  0  0  0  0  0  0  0  0  0  0
   -3.1360   23.8110  -29.5220 C   0  0  0  0  0  0  0  0  0  0  0  0
   -3.9230   24.5410  -30.4820 N   0  0  0  0  0  0  0  0  0  0  0  0
   -5.6520   24.6530  -30.3940 S   0  0  0  0  0  0  0  0  0  0  0  0
   -6.0540   25.0460  -29.0010 O   0  0  0  0  0  0  0  0  0  0  0  0
   -6.1340   25.7030  -31.3550 O   0  0  0  0  0  0  0  0  0  0  0  0
   -6.3650   23.1060  -30.8440 C   0  0  0  0  0  0  0  0  0  0  0  0
   -7.6080   22.7370  -30.3130 C   0  0  0  0  0  0  0  0  0  0  0  0
   -8.2100   21.5390  -30.7000 C   0  0  0  0  0  0  0  0  0  0  0  0
   -7.5770   20.6950  -31.6240 C   0  0  0  0  0  0  0  0  0  0  0  0
   -8.3450   19.1830  -32.1210 S   0  0  0  0  0  0  0  0  0  0  0  0
   -8.9790   18.5390  -30.9200 O   0  0  0  0  0  0  0  0  0  0  0  0
   -9.4330   19.4890  -33.1120 O   0  0  0  0  0  0  0  0  0  0  0  0
   -7.2210   18.0540  -32.8390 N   0  0  0  0  0  0  0  0  0  0  0  0
   -6.2050   17.6060  -31.8880 C   0  0  0  0  0  0  0  0  0  0  0  0
   -4.9960   17.1950  -32.7130 C   0  0  0  0  0  0  0  0  0  0  0  0
   -5.1740   17.8810  -34.0590 C   0  0  0  0  0  0  0  0  0  0  0  0
   -6.4810   18.6510  -33.9490 C   0  0  0  0  0  0  0  0  0  0  0  0
   -6.3380   21.0700  -32.1650 C   0  0  0  0  0  0  0  0  0  0  0  0
   -5.7330   22.2670  -31.7730 C   0  0  0  0  0  0  0  0  0  0  0  0
   -3.5050   22.5170  -29.1150 C   0  0  0  0  0  0  0  0  0  0  0  0
   -2.7210   21.8000  -28.1990 C   0  0  0  0  0  0  0  0  0  0  0  0
   -3.0950   20.3790  -27.8510 C   0  0  0  0  0  0  0  0  0  0  0  0
   -2.8197   18.3553  -25.2453 H   0  0  0  0  0  0  0  0  0  0  0  0
   -3.7542   18.2841  -26.7777 H   0  0  0  0  0  0  0  0  0  0  0  0
   -1.9987   17.9035  -26.7777 H   0  0  0  0  0  0  0  0  0  0  0  0
   -0.5484   19.6986  -25.7520 H   0  0  0  0  0  0  0  0  0  0  0  0
   -0.6180   19.6709  -27.5491 H   0  0  0  0  0  0  0  0  0  0  0  0
   -0.8869   22.0746  -25.6831 H   0  0  0  0  0  0  0  0  0  0  0  0
    0.3595   21.7629  -26.9648 H   0  0  0  0  0  0  0  0  0  0  0  0
   -0.2897   24.1470  -27.6442 H   0  0  0  0  0  0  0  0  0  0  0  0
   -3.4720   24.8930  -31.3570 H   0  0  0  0  0  0  0  0  0  0  0  0
   -8.1112   23.3941  -29.5884 H   0  0  0  0  0  0  0  0  0  0  0  0
   -9.1856   21.2553  -30.2783 H   0  0  0  0  0  0  0  0  0  0  0  0
   -5.9378   18.4243  -31.2032 H   0  0  0  0  0  0  0  0  0  0  0  0
   -6.5731   16.7694  -31.2760 H   0  0  0  0  0  0  0  0  0  0  0  0
   -4.0673   17.5317  -32.2291 H   0  0  0  0  0  0  0  0  0  0  0  0
   -4.9237   16.1023  -32.8169 H   0  0  0  0  0  0  0  0  0  0  0  0
   -4.3376   18.5681  -34.2545 H   0  0  0  0  0  0  0  0  0  0  0  0
   -5.1932   17.1580  -34.8878 H   0  0  0  0  0  0  0  0  0  0  0  0
   -6.2805   19.7131  -33.7447 H   0  0  0  0  0  0  0  0  0  0  0  0
   -7.0553   18.5965  -34.8856 H   0  0  0  0  0  0  0  0  0  0  0  0
   -5.8413   20.4197  -32.9001 H   0  0  0  0  0  0  0  0  0  0  0  0
   -4.7578   22.5521  -32.1945 H   0  0  0  0  0  0  0  0  0  0  0  0
   -4.4203   22.0608  -29.5200 H   0  0  0  0  0  0  0  0  0  0  0  0
   -4.1886   20.3110  -27.7541 H   0  0  0  0  0  0  0  0  0  0  0  0
   -2.7306   19.7205  -28.6532 H   0  0  0  0  0  0  0  0  0  0  0  0
  1  2  1  0
  2  3  1  0
  3  4  1  0
  4  5  1  0
  5  6  2  0
  6  7  1  0
  7  8  1  0
  7  9  2  0
  9 10  1  0
 10 11  1  0
 11 12  2  0
 11 13  2  0
 11 14  1  0
 14 15  2  0
 15 16  1  0
 16 17  2  0
 17 18  1  0
 18 19  2  0
 18 20  2  0
 18 21  1  0
 21 22  1  0
 22 23  1  0
 23 24  1  0
 24 25  1  0
 17 26  1  0
 26 27  2  0
  9 28  1  0
 28 29  2  0
 29 30  1  0
 30  2  1  0
 29  5  1  0
 27 14  1  0
 25 21  1  0
  1 31  1  0
  1 32  1  0
  1 33  1  0
  3 34  1  0
  3 35  1  0
  4 36  1  0
  4 37  1  0
  6 38  1  0
 10 39  1  0
 15 40  1  0
 16 41  1  0
 22 42  1  0
 22 43  1  0
 23 44  1  0
 23 45  1  0
 24 46  1  0
 24 47  1  0
 25 48  1  0
 25 49  1  0
 26 50  1  0
 27 51  1  0
 28 52  1  0
 30 53  1  0
 30 54  1  0
M  CHG  1   8  -1
M  END
>  <UniqueID>  (36) 
36

>  <SMILES>  (36) 
CN1CCc2cc([O-])c(NS(=O)(=O)c3ccc(S(=O)(=O)N4CCCC4)cc3)cc2C1

>  <Energy>  (36) 
62.32027464064293

>  <Genealogy>  (36) 
CN1CCc2cc([O-])c(NS(=O)(=O)c3ccc(S(=O)(=O)N4CCCC4)cc3)cc2C1 (protonated)
CN1CCc2cc([O-])c(NS(=O)(=O)c3ccc(S(=O)(=O)N4CCCC4)cc3)cc2C1 (3D coordinates assigned)
CN1CCc2cc([O-])c(NS(=O)(=O)c3ccc(S(=O)(=O)N4CCCC4)cc3)cc2C1 (nonaromatic ring conformer: 62.32027464064293 kcal/mol)

>  <smiles>  (36) 
CN1CCc2cc(O)c(NS(=O)(=O)c3ccc(S(=O)(=O)N4CCCC4)cc3)cc2C1

>  <score_type>  (36) 
oracle

>  <origin>  (36) 
adgpu

>  <m_score__min__energy>  (36) 
-15.119999999999999

>  <m_primary>  (36) 
energy

$$$$
36:0
     RDKit          3D

 69 73  0  0  0  0  0  0  0  0999 V2000
   -5.1900   23.8840  -31.9440 O   0  0  0  0  0  0  0  0  0  0  0  0
   -4.7610   22.8170  -31.4240 C   0  0  0  0  0  0  0  0  0  0  0  0
   -4.7430   22.6610  -29.9990 N   0  0  0  0  0  0  0  0  0  0  0  0
   -3.5730   22.6710  -29.1690 C   0  0  0  0  0  0  0  0  0  0  0  0
   -3.0590   21.4940  -28.5940 C   0  0  0  0  0  0  0  0  0  0  0  0
   -1.9120   21.5460  -27.7960 C   0  0  0  0  0  0  0  0  0  0  0  0
   -1.2740   22.7660  -27.5630 C   0  0  0  0  0  0  0  0  0  0  0  0
   -1.7730   23.9430  -28.1370 C   0  0  0  0  0  0  0  0  0  0  0  0
   -1.0240   25.5020  -27.8000 S   0  0  0  0  0  0  0  0  0  0  0  0
    0.4510   25.2830  -27.6060 O   0  0  0  0  0  0  0  0  0  0  0  0
   -1.2190   26.4280  -28.9700 O   0  0  0  0  0  0  0  0  0  0  0  0
   -1.7170   26.2090  -26.3560 N   0  0  0  0  0  0  0  0  0  0  0  0
   -1.6240   25.2800  -25.2210 C   0  0  0  0  0  0  0  0  0  0  0  0
   -0.3220   25.5800  -24.4900 C   0  0  0  0  0  0  0  0  0  0  0  0
    0.0790   26.9780  -24.9340 C   0  0  0  0  0  0  0  0  0  0  0  0
   -0.9760   27.4090  -25.9470 C   0  0  0  0  0  0  0  0  0  0  0  0
   -2.9110   23.8860  -28.9540 C   0  0  0  0  0  0  0  0  0  0  0  0
   -4.2280   21.7360  -32.2810 C   0  0  0  0  0  0  0  0  0  0  0  0
   -2.9070   21.8300  -32.7550 C   0  0  0  0  0  0  0  0  0  0  0  0
   -2.3490   20.8060  -33.5310 C   0  0  0  0  0  0  0  0  0  0  0  0
   -0.6730   20.9280  -34.0630 S   0  0  0  0  0  0  0  0  0  0  0  0
   -0.3830   19.8660  -35.0870 O   0  0  0  0  0  0  0  0  0  0  0  0
   -0.4740   22.2760  -34.6990 O   0  0  0  0  0  0  0  0  0  0  0  0
    0.3860   20.7530  -32.6780 N   0  0  0  0  0  0  0  0  0  0  0  0
   -0.2810   21.1550  -31.4180 C   0  0  0  0  0  0  0  0  0  0  0  0
   -0.7610   19.9520  -30.5880 C   0  0  0  0  0  0  0  0  0  0  0  0
   -1.1790   18.9100  -31.4430 O   0  0  0  0  0  0  0  0  0  0  0  0
   -0.0620   18.3470  -32.1110 C   0  0  0  0  0  0  0  0  0  0  0  0
    0.9650   19.3990  -32.6030 C   0  0  0  0  0  0  0  0  0  0  0  0
   -3.1170   19.6770  -33.8430 C   0  0  0  0  0  0  0  0  0  0  0  0
   -4.4330   19.5750  -33.3890 C   0  0  0  0  0  0  0  0  0  0  0  0
   -5.0000   20.5950  -32.6120 C   0  0  0  0  0  0  0  0  0  0  0  0
   -6.3740   20.4840  -32.2130 N   0  0  0  0  0  0  0  0  0  0  0  0
   -7.3410   21.5500  -32.4010 C   0  0  0  0  0  0  0  0  0  0  0  0
   -8.6480   21.0080  -31.8400 C   0  0  0  0  0  0  0  0  0  0  0  0
   -8.4830   19.4890  -31.8030 C   0  0  0  0  0  0  0  0  0  0  0  0
   -6.9810   19.2340  -31.7870 C   0  0  0  0  0  0  0  0  0  0  0  0
   -3.5604   20.5314  -28.7726 H   0  0  0  0  0  0  0  0  0  0  0  0
   -1.5112   20.6235  -27.3506 H   0  0  0  0  0  0  0  0  0  0  0  0
   -0.3772   22.8033  -26.9271 H   0  0  0  0  0  0  0  0  0  0  0  0
   -2.7180   26.4480  -26.5490 H   0  0  0  0  0  0  0  0  0  0  0  0
   -2.4779   25.4280  -24.5435 H   0  0  0  0  0  0  0  0  0  0  0  0
   -1.6406   24.2373  -25.5711 H   0  0  0  0  0  0  0  0  0  0  0  0
   -0.4768   25.5518  -23.4013 H   0  0  0  0  0  0  0  0  0  0  0  0
    0.4569   24.8386  -24.7217 H   0  0  0  0  0  0  0  0  0  0  0  0
    0.0888   27.6650  -24.0749 H   0  0  0  0  0  0  0  0  0  0  0  0
    1.0889   26.9910  -25.3699 H   0  0  0  0  0  0  0  0  0  0  0  0
   -1.6627   28.1350  -25.4872 H   0  0  0  0  0  0  0  0  0  0  0  0
   -0.5025   27.8856  -26.8180 H   0  0  0  0  0  0  0  0  0  0  0  0
   -3.2870   24.8036  -29.4301 H   0  0  0  0  0  0  0  0  0  0  0  0
   -2.3049   22.7183  -32.5134 H   0  0  0  0  0  0  0  0  0  0  0  0
    0.4303   21.7374  -30.8140 H   0  0  0  0  0  0  0  0  0  0  0  0
   -1.1681   21.7471  -31.6870 H   0  0  0  0  0  0  0  0  0  0  0  0
    0.0641   19.5943  -29.9546 H   0  0  0  0  0  0  0  0  0  0  0  0
   -1.6076   20.2632  -29.9584 H   0  0  0  0  0  0  0  0  0  0  0  0
    0.4478   17.6616  -31.4180 H   0  0  0  0  0  0  0  0  0  0  0  0
   -0.4471   17.8318  -33.0033 H   0  0  0  0  0  0  0  0  0  0  0  0
    1.8157   19.4160  -31.9058 H   0  0  0  0  0  0  0  0  0  0  0  0
    1.2822   19.1117  -33.6164 H   0  0  0  0  0  0  0  0  0  0  0  0
   -2.6816   18.8680  -34.4479 H   0  0  0  0  0  0  0  0  0  0  0  0
   -5.0302   18.6869  -33.6430 H   0  0  0  0  0  0  0  0  0  0  0  0
   -7.0313   22.4525  -31.8536 H   0  0  0  0  0  0  0  0  0  0  0  0
   -7.4356   21.8369  -33.4587 H   0  0  0  0  0  0  0  0  0  0  0  0
   -8.8225   21.3998  -30.8270 H   0  0  0  0  0  0  0  0  0  0  0  0
   -9.5095   21.3082  -32.4546 H   0  0  0  0  0  0  0  0  0  0  0  0
   -8.9513   19.0749  -30.8979 H   0  0  0  0  0  0  0  0  0  0  0  0
   -8.9657   19.0085  -32.6668 H   0  0  0  0  0  0  0  0  0  0  0  0
   -6.6462   18.9691  -30.7732 H   0  0  0  0  0  0  0  0  0  0  0  0
   -6.7005   18.3976  -32.4441 H   0  0  0  0  0  0  0  0  0  0  0  0
  1  2  2  0
  2  3  1  0
  3  4  1  0
  4  5  2  0
  5  6  1  0
  6  7  2  0
  7  8  1  0
  8  9  1  0
  9 10  2  0
  9 11  2  0
  9 12  1  0
 12 13  1  0
 13 14  1  0
 14 15  1  0
 15 16  1  0
  8 17  2  0
  2 18  1  0
 18 19  2  0
 19 20  1  0
 20 21  1  0
 21 22  2  0
 21 23  2  0
 21 24  1  0
 24 25  1  0
 25 26  1  0
 26 27  1  0
 27 28  1  0
 28 29  1  0
 20 30  2  0
 30 31  1  0
 31 32  2  0
 32 33  1  0
 33 34  1  0
 34 35  1  0
 35 36  1  0
 36 37  1  0
 17  4  1  0
 32 18  1  0
 37 33  1  0
 16 12  1  0
 29 24  1  0
  5 38  1  0
  6 39  1  0
  7 40  1  0
 12 41  1  0
 13 42  1  0
 13 43  1  0
 14 44  1  0
 14 45  1  0
 15 46  1  0
 15 47  1  0
 16 48  1  0
 16 49  1  0
 17 50  1  0
 19 51  1  0
 25 52  1  0
 25 53  1  0
 26 54  1  0
 26 55  1  0
 28 56  1  0
 28 57  1  0
 29 58  1  0
 29 59  1  0
 30 60  1  0
 31 61  1  0
 34 62  1  0
 34 63  1  0
 35 64  1  0
 35 65  1  0
 36 66  1  0
 36 67  1  0
 37 68  1  0
 37 69  1  0
M  CHG  2   3  -1  12   1
M  END
>  <UniqueID>  (37) 
37

>  <SMILES>  (37) 
O=C([N-]c1cccc(S(=O)(=O)[NH+]2CCCC2)c1)c1cc(S(=O)(=O)N2CCOCC2)ccc1N1CCCC1

>  <Energy>  (37) 
96.32765841086766

>  <Genealogy>  (37) 
O=C([N-]c1cccc(S(=O)(=O)[NH+]2CCCC2)c1)c1cc(S(=O)(=O)N2CCOCC2)ccc1N1CCCC1 (protonated)
O=C([N-]c1cccc(S(=O)(=O)[NH+]2CCCC2)c1)c1cc(S(=O)(=O)N2CCOCC2)ccc1N1CCCC1 (3D coordinates assigned)
O=C([N-]c1cccc(S(=O)(=O)[NH+]2CCCC2)c1)c1cc(S(=O)(=O)N2CCOCC2)ccc1N1CCCC1 (nonaromatic ring conformer: 96.32765841086766 kcal/mol)

>  <smiles>  (37) 
O=C(Nc1cccc(S(=O)(=O)N2CCCC2)c1)c1cc(S(=O)(=O)N2CCOCC2)ccc1N1CCCC1

>  <score_type>  (37) 
oracle

>  <origin>  (37) 
adgpu

>  <m_score__min__energy>  (37) 
-11.19

>  <m_primary>  (37) 
energy

$$$$
37:0
     RDKit          3D

 51 54  0  0  0  0  0  0  0  0999 V2000
    0.4810   29.7950  -24.4680 C   0  0  0  0  0  0  0  0  0  0  0  0
   -0.1050   28.6120  -25.1950 C   0  0  0  0  0  0  0  0  0  0  0  0
   -0.6050   27.5310  -24.4520 C   0  0  0  0  0  0  0  0  0  0  0  0
   -1.1460   26.4160  -25.0930 C   0  0  0  0  0  0  0  0  0  0  0  0
   -1.2120   26.3640  -26.4960 C   0  0  0  0  0  0  0  0  0  0  0  0
   -1.7490   25.2180  -27.1850 N   0  0  0  0  0  0  0  0  0  0  0  0
   -1.0820   24.5410  -28.2640 C   0  0  0  0  0  0  0  0  0  0  0  0
    0.1780   24.5550  -28.3220 O   0  0  0  0  0  0  0  0  0  0  0  0
   -1.8530   23.7830  -29.2850 C   0  0  0  0  0  0  0  0  0  0  0  0
   -1.2690   22.6790  -29.9360 C   0  0  0  0  0  0  0  0  0  0  0  0
   -1.9800   21.9650  -30.9050 C   0  0  0  0  0  0  0  0  0  0  0  0
   -3.2880   22.3390  -31.2360 C   0  0  0  0  0  0  0  0  0  0  0  0
   -4.1960   21.4510  -32.4580 S   0  0  0  0  0  0  0  0  0  0  0  0
   -3.8010   21.9230  -33.8290 O   0  0  0  0  0  0  0  0  0  0  0  0
   -3.8780   19.9880  -32.3310 O   0  0  0  0  0  0  0  0  0  0  0  0
   -5.8990   21.6980  -32.2380 N   0  0  0  0  0  0  0  0  0  0  0  0
   -6.5380   22.9940  -32.0160 C   0  0  0  0  0  0  0  0  0  0  0  0
   -8.0520   22.6980  -31.8700 C   0  0  0  0  0  0  0  0  0  0  0  0
   -8.1310   21.2170  -32.0250 C   0  0  0  0  0  0  0  0  0  0  0  0
   -9.2660   20.4040  -31.9760 C   0  0  0  0  0  0  0  0  0  0  0  0
   -9.1050   19.0200  -32.1530 C   0  0  0  0  0  0  0  0  0  0  0  0
   -7.8250   18.4780  -32.3770 C   0  0  0  0  0  0  0  0  0  0  0  0
   -6.6990   19.3150  -32.4170 C   0  0  0  0  0  0  0  0  0  0  0  0
   -6.8880   20.6880  -32.2330 C   0  0  0  0  0  0  0  0  0  0  0  0
   -3.8730   23.4400  -30.6010 C   0  0  0  0  0  0  0  0  0  0  0  0
   -3.1610   24.1610  -29.6380 C   0  0  0  0  0  0  0  0  0  0  0  0
   -0.6850   27.4280  -27.2430 C   0  0  0  0  0  0  0  0  0  0  0  0
   -0.1180   28.5480  -26.6090 C   0  0  0  0  0  0  0  0  0  0  0  0
    0.4300   29.6700  -27.4520 C   0  0  0  0  0  0  0  0  0  0  0  0
    0.4015   29.6345  -23.3827 H   0  0  0  0  0  0  0  0  0  0  0  0
    1.5394   29.9083  -24.7454 H   0  0  0  0  0  0  0  0  0  0  0  0
   -0.0702   30.7056  -24.7454 H   0  0  0  0  0  0  0  0  0  0  0  0
   -0.5699   27.5633  -23.3530 H   0  0  0  0  0  0  0  0  0  0  0  0
   -1.5233   25.5723  -24.4965 H   0  0  0  0  0  0  0  0  0  0  0  0
   -2.6290   24.7940  -26.8140 H   0  0  0  0  0  0  0  0  0  0  0  0
   -0.2433   22.3756  -29.6794 H   0  0  0  0  0  0  0  0  0  0  0  0
   -1.5106   21.1071  -31.4087 H   0  0  0  0  0  0  0  0  0  0  0  0
   -6.1488   23.4611  -31.0993 H   0  0  0  0  0  0  0  0  0  0  0  0
   -6.3394   23.6907  -32.8438 H   0  0  0  0  0  0  0  0  0  0  0  0
   -8.4207   23.0106  -30.8819 H   0  0  0  0  0  0  0  0  0  0  0  0
   -8.6682   23.2400  -32.6025 H   0  0  0  0  0  0  0  0  0  0  0  0
  -10.2621   20.8374  -31.8029 H   0  0  0  0  0  0  0  0  0  0  0  0
   -9.9821   18.3571  -32.1165 H   0  0  0  0  0  0  0  0  0  0  0  0
   -7.7069   17.3939  -32.5213 H   0  0  0  0  0  0  0  0  0  0  0  0
   -5.6942   18.9016  -32.5886 H   0  0  0  0  0  0  0  0  0  0  0  0
   -4.8989   23.7399  -30.8610 H   0  0  0  0  0  0  0  0  0  0  0  0
   -3.6274   25.0309  -29.1524 H   0  0  0  0  0  0  0  0  0  0  0  0
   -0.7157   27.3857  -28.3418 H   0  0  0  0  0  0  0  0  0  0  0  0
    0.8180   30.4645  -26.7976 H   0  0  0  0  0  0  0  0  0  0  0  0
    1.2431   29.2882  -28.0869 H   0  0  0  0  0  0  0  0  0  0  0  0
   -0.3710   30.0765  -28.0869 H   0  0  0  0  0  0  0  0  0  0  0  0
  1  2  1  0
  2  3  2  0
  3  4  1  0
  4  5  2  0
  5  6  1  0
  6  7  1  0
  7  8  2  0
  7  9  1  0
  9 10  2  0
 10 11  1  0
 11 12  2  0
 12 13  1  0
 13 14  2  0
 13 15  2  0
 13 16  1  0
 16 17  1  0
 17 18  1  0
 18 19  1  0
 19 20  2  0
 20 21  1  0
 21 22  2  0
 22 23  1  0
 23 24  2  0
 12 25  1  0
 25 26  2  0
  5 27  1  0
 27 28  2  0
 28 29  1  0
 28  2  1  0
 26  9  1  0
 24 16  1  0
 24 19  1  0
  1 30  1  0
  1 31  1  0
  1 32  1  0
  3 33  1  0
  4 34  1  0
  6 35  1  0
 10 36  1  0
 11 37  1  0
 17 38  1  0
 17 39  1  0
 18 40  1  0
 18 41  1  0
 20 42  1  0
 21 43  1  0
 22 44  1  0
 23 45  1  0
 25 46  1  0
 26 47  1  0
 27 48  1  0
 29 49  1  0
 29 50  1  0
 29 51  1  0
M  END
>  <UniqueID>  (38) 
38

>  <SMILES>  (38) 
Cc1ccc(NC(=O)c2ccc(S(=O)(=O)N3CCc4ccccc43)cc2)cc1C

>  <Energy>  (38) 
77.06619537744676

>  <Genealogy>  (38) 
Cc1ccc(NC(=O)c2ccc(S(=O)(=O)N3CCc4ccccc43)cc2)cc1C (3D coordinates assigned)
Cc1ccc(NC(=O)c2ccc(S(=O)(=O)N3CCc4ccccc43)cc2)cc1C (nonaromatic ring conformer: 77.06619537744676 kcal/mol)

>  <smiles>  (38) 
Cc1ccc(NC(=O)c2ccc(S(=O)(=O)N3CCc4ccccc43)cc2)cc1C

>  <score_type>  (38) 
oracle

>  <origin>  (38) 
adgpu

>  <m_score__min__energy>  (38) 
-9.8900000000000006

>  <m_primary>  (38) 
energy

$$$$
38:0
     RDKit          3D

 49 52  0  0  0  0  0  0  0  0999 V2000
   -2.2070   18.8530  -26.3330 C   0  0  0  0  0  0  0  0  0  0  0  0
   -2.2100   20.1140  -27.1330 C   0  0  0  0  0  0  0  0  0  0  0  0
   -3.3540   20.7510  -27.5140 N   0  0  0  0  0  0  0  0  0  0  0  0
   -2.8660   21.8170  -28.1730 C   0  0  0  0  0  0  0  0  0  0  0  0
   -3.5820   22.8350  -28.8040 C   0  0  0  0  0  0  0  0  0  0  0  0
   -2.8480   23.8520  -29.4500 C   0  0  0  0  0  0  0  0  0  0  0  0
   -3.5580   24.8890  -30.1310 N   0  0  0  0  0  0  0  0  0  0  0  0
   -5.2940   25.0190  -30.1890 S   0  0  0  0  0  0  0  0  0  0  0  0
   -5.7960   25.4570  -28.8340 O   0  0  0  0  0  0  0  0  0  0  0  0
   -5.6860   26.0540  -31.2130 O   0  0  0  0  0  0  0  0  0  0  0  0
   -6.0370   23.4710  -30.5900 C   0  0  0  0  0  0  0  0  0  0  0  0
   -7.2130   23.0570  -29.9490 C   0  0  0  0  0  0  0  0  0  0  0  0
   -7.8840   21.9120  -30.3860 C   0  0  0  0  0  0  0  0  0  0  0  0
   -7.3770   21.1590  -31.4540 C   0  0  0  0  0  0  0  0  0  0  0  0
   -8.2750   19.7680  -32.0700 S   0  0  0  0  0  0  0  0  0  0  0  0
   -9.2700   20.2300  -33.0990 O   0  0  0  0  0  0  0  0  0  0  0  0
   -9.0350   19.1290  -30.9410 O   0  0  0  0  0  0  0  0  0  0  0  0
   -7.2040   18.5890  -32.7880 N   0  0  0  0  0  0  0  0  0  0  0  0
   -6.2470   18.0760  -31.7930 C   0  0  0  0  0  0  0  0  0  0  0  0
   -5.4580   16.8800  -32.3670 C   0  0  0  0  0  0  0  0  0  0  0  0
   -5.5270   16.8100  -33.9010 C   0  0  0  0  0  0  0  0  0  0  0  0
   -5.4310   18.2100  -34.5210 C   0  0  0  0  0  0  0  0  0  0  0  0
   -6.4860   19.1800  -33.9350 C   0  0  0  0  0  0  0  0  0  0  0  0
   -6.1720   21.5420  -32.0580 C   0  0  0  0  0  0  0  0  0  0  0  0
   -5.5080   22.6960  -31.6310 C   0  0  0  0  0  0  0  0  0  0  0  0
   -1.4260   23.8500  -29.3850 C   0  0  0  0  0  0  0  0  0  0  0  0
   -0.7350   22.7970  -28.7530 C   0  0  0  0  0  0  0  0  0  0  0  0
   -1.5000   21.7960  -28.1610 C   0  0  0  0  0  0  0  0  0  0  0  0
   -1.1000   20.7350  -27.5120 O   0  0  0  0  0  0  0  0  0  0  0  0
   -2.2076   19.0990  -25.2609 H   0  0  0  0  0  0  0  0  0  0  0  0
   -3.1037   18.2635  -26.5744 H   0  0  0  0  0  0  0  0  0  0  0  0
   -1.3075   18.2677  -26.5744 H   0  0  0  0  0  0  0  0  0  0  0  0
   -4.6819   22.8442  -28.7979 H   0  0  0  0  0  0  0  0  0  0  0  0
   -7.6082   23.6347  -29.1004 H   0  0  0  0  0  0  0  0  0  0  0  0
   -8.8147   21.6000  -29.8895 H   0  0  0  0  0  0  0  0  0  0  0  0
   -5.5434   18.8767  -31.5213 H   0  0  0  0  0  0  0  0  0  0  0  0
   -6.8029   17.7415  -30.9047 H   0  0  0  0  0  0  0  0  0  0  0  0
   -4.4044   16.9752  -32.0654 H   0  0  0  0  0  0  0  0  0  0  0  0
   -5.9112   15.9596  -31.9700 H   0  0  0  0  0  0  0  0  0  0  0  0
   -4.6932   16.1951  -34.2707 H   0  0  0  0  0  0  0  0  0  0  0  0
   -6.4913   16.3653  -34.1881 H   0  0  0  0  0  0  0  0  0  0  0  0
   -4.4278   18.6166  -34.3252 H   0  0  0  0  0  0  0  0  0  0  0  0
   -5.6198   18.1161  -35.6006 H   0  0  0  0  0  0  0  0  0  0  0  0
   -5.9787   20.0974  -33.6019 H   0  0  0  0  0  0  0  0  0  0  0  0
   -7.2231   19.3964  -34.7223 H   0  0  0  0  0  0  0  0  0  0  0  0
   -5.7475   20.9333  -32.8700 H   0  0  0  0  0  0  0  0  0  0  0  0
   -4.5666   22.9968  -32.1141 H   0  0  0  0  0  0  0  0  0  0  0  0
   -0.8601   24.6799  -29.8332 H   0  0  0  0  0  0  0  0  0  0  0  0
    0.3643   22.7672  -28.7285 H   0  0  0  0  0  0  0  0  0  0  0  0
  1  2  1  0
  2  3  2  0
  3  4  1  0
  4  5  2  0
  5  6  1  0
  6  7  1  0
  7  8  1  0
  8  9  2  0
  8 10  2  0
  8 11  1  0
 11 12  2  0
 12 13  1  0
 13 14  2  0
 14 15  1  0
 15 16  2  0
 15 17  2  0
 15 18  1  0
 18 19  1  0
 19 20  1  0
 20 21  1  0
 21 22  1  0
 22 23  1  0
 14 24  1  0
 24 25  2  0
  6 26  2  0
 26 27  1  0
 27 28  2  0
 28 29  1  0
 29  2  1  0
 28  4  1  0
 25 11  1  0
 23 18  1  0
  1 30  1  0
  1 31  1  0
  1 32  1  0
  5 33  1  0
 12 34  1  0
 13 35  1  0
 19 36  1  0
 19 37  1  0
 20 38  1  0
 20 39  1  0
 21 40  1  0
 21 41  1  0
 22 42  1  0
 22 43  1  0
 23 44  1  0
 23 45  1  0
 24 46  1  0
 25 47  1  0
 26 48  1  0
 27 49  1  0
M  CHG  1   7  -1
M  END
>  <UniqueID>  (39) 
39

>  <SMILES>  (39) 
Cc1nc2cc([N-]S(=O)(=O)c3ccc(S(=O)(=O)N4CCCCC4)cc3)ccc2o1

>  <Energy>  (39) 
96.14197983089379

>  <Genealogy>  (39) 
Cc1nc2cc([N-]S(=O)(=O)c3ccc(S(=O)(=O)N4CCCCC4)cc3)ccc2o1 (protonated)
Cc1nc2cc([N-]S(=O)(=O)c3ccc(S(=O)(=O)N4CCCCC4)cc3)ccc2o1 (3D coordinates assigned)
Cc1nc2cc([N-]S(=O)(=O)c3ccc(S(=O)(=O)N4CCCCC4)cc3)ccc2o1 (nonaromatic ring conformer: 96.14197983089379 kcal/mol)

>  <smiles>  (39) 
Cc1nc2cc(NS(=O)(=O)c3ccc(S(=O)(=O)N4CCCCC4)cc3)ccc2o1

>  <score_type>  (39) 
oracle

>  <origin>  (39) 
adgpu

>  <m_score__min__energy>  (39) 
-11.779999999999999

>  <m_primary>  (39) 
energy

$$$$
39:0
     RDKit          3D

 73 78  0  0  0  0  0  0  0  0999 V2000
   -1.6630   19.5930  -28.6230 O   0  0  0  0  0  0  0  0  0  0  0  0
   -1.0800   20.3600  -29.4440 C   0  0  0  0  0  0  0  0  0  0  0  0
   -1.2500   21.8230  -29.2920 C   0  0  0  0  0  0  0  0  0  0  0  0
   -0.1370   22.6780  -29.2400 C   0  0  0  0  0  0  0  0  0  0  0  0
   -0.3100   24.0540  -29.0710 C   0  0  0  0  0  0  0  0  0  0  0  0
   -1.5990   24.5940  -28.9460 C   0  0  0  0  0  0  0  0  0  0  0  0
   -1.7750   25.9680  -28.7790 O   0  0  0  0  0  0  0  0  0  0  0  0
   -2.7140   23.7440  -28.9840 C   0  0  0  0  0  0  0  0  0  0  0  0
   -4.0310   24.2680  -28.8290 N   0  0  0  0  0  0  0  0  0  0  0  0
   -4.9950   24.6290  -30.2190 S   0  0  0  0  0  0  0  0  0  0  0  0
   -6.2560   25.3180  -29.7790 O   0  0  0  0  0  0  0  0  0  0  0  0
   -4.2410   25.5560  -31.1340 O   0  0  0  0  0  0  0  0  0  0  0  0
   -5.3920   23.1350  -31.0570 C   0  0  0  0  0  0  0  0  0  0  0  0
   -4.4340   22.5080  -31.8630 C   0  0  0  0  0  0  0  0  0  0  0  0
   -4.7270   21.2910  -32.4860 C   0  0  0  0  0  0  0  0  0  0  0  0
   -5.9820   20.6870  -32.3070 C   0  0  0  0  0  0  0  0  0  0  0  0
   -6.2890   19.4350  -32.9480 N   0  0  0  0  0  0  0  0  0  0  0  0
   -7.1410   18.4520  -32.2690 C   0  0  0  0  0  0  0  0  0  0  0  0
   -6.7510   17.0390  -32.7150 C   0  0  0  0  0  0  0  0  0  0  0  0
   -6.7380   16.9400  -34.1250 O   0  0  0  0  0  0  0  0  0  0  0  0
   -5.7270   17.7780  -34.6540 C   0  0  0  0  0  0  0  0  0  0  0  0
   -6.0470   19.2520  -34.3810 C   0  0  0  0  0  0  0  0  0  0  0  0
   -6.9330   21.3120  -31.4840 C   0  0  0  0  0  0  0  0  0  0  0  0
   -6.6380   22.5280  -30.8600 C   0  0  0  0  0  0  0  0  0  0  0  0
   -2.5370   22.3660  -29.1530 C   0  0  0  0  0  0  0  0  0  0  0  0
   -0.2640   19.7970  -30.4900 N   0  0  0  0  0  0  0  0  0  0  0  0
   -0.3890   20.3000  -31.8670 C   0  0  0  0  0  0  0  0  0  0  0  0
   -1.2890   19.3620  -32.6900 C   0  0  0  0  0  0  0  0  0  0  0  0
   -1.1930   17.8930  -32.2100 C   0  0  0  0  0  0  0  0  0  0  0  0
   -1.5420   16.9460  -33.2900 N   0  0  0  0  0  0  0  0  0  0  0  0
   -1.5620   17.4120  -34.6530 C   0  0  0  0  0  0  0  0  0  0  0  0
   -0.8390   18.3770  -35.0160 O   0  0  0  0  0  0  0  0  0  0  0  0
   -2.3550   16.7520  -35.5910 O   0  0  0  0  0  0  0  0  0  0  0  0
   -3.3440   15.8120  -35.1770 C   0  0  0  0  0  0  0  0  0  0  0  0
   -2.8410   14.9870  -34.0220 C   0  0  0  0  0  0  0  0  0  0  0  0
   -3.2830   13.6680  -33.8480 C   0  0  0  0  0  0  0  0  0  0  0  0
   -2.8170   12.9120  -32.7710 C   0  0  0  0  0  0  0  0  0  0  0  0
   -1.9020   13.4630  -31.8710 C   0  0  0  0  0  0  0  0  0  0  0  0
   -1.4710   14.7840  -32.0270 C   0  0  0  0  0  0  0  0  0  0  0  0
   -1.9670   15.5750  -33.0820 C   0  0  0  0  0  0  0  0  0  0  0  0
    0.1620   17.5740  -31.5340 C   0  0  0  0  0  0  0  0  0  0  0  0
    0.3710   18.4770  -30.2990 C   0  0  0  0  0  0  0  0  0  0  0  0
    0.8770   22.2618  -29.3329 H   0  0  0  0  0  0  0  0  0  0  0  0
    0.5675   24.7164  -29.0358 H   0  0  0  0  0  0  0  0  0  0  0  0
   -2.6600   26.4160  -28.9720 H   0  0  0  0  0  0  0  0  0  0  0  0
   -3.4481   22.9742  -32.0065 H   0  0  0  0  0  0  0  0  0  0  0  0
   -3.9707   20.8044  -33.1194 H   0  0  0  0  0  0  0  0  0  0  0  0
   -7.0083   18.5421  -31.1808 H   0  0  0  0  0  0  0  0  0  0  0  0
   -8.1934   18.6396  -32.5283 H   0  0  0  0  0  0  0  0  0  0  0  0
   -5.7486   16.8032  -32.3283 H   0  0  0  0  0  0  0  0  0  0  0  0
   -7.4924   16.3289  -32.3199 H   0  0  0  0  0  0  0  0  0  0  0  0
   -4.7653   17.5243  -34.1842 H   0  0  0  0  0  0  0  0  0  0  0  0
   -5.6730   17.6235  -35.7418 H   0  0  0  0  0  0  0  0  0  0  0  0
   -5.1973   19.8769  -34.6934 H   0  0  0  0  0  0  0  0  0  0  0  0
   -6.9426   19.5468  -34.9476 H   0  0  0  0  0  0  0  0  0  0  0  0
   -7.9156   20.8422  -31.3294 H   0  0  0  0  0  0  0  0  0  0  0  0
   -7.3865   23.0087  -30.2130 H   0  0  0  0  0  0  0  0  0  0  0  0
   -3.4141   21.7026  -29.1771 H   0  0  0  0  0  0  0  0  0  0  0  0
   -0.8323   21.3065  -31.8483 H   0  0  0  0  0  0  0  0  0  0  0  0
    0.6086   20.3403  -32.3287 H   0  0  0  0  0  0  0  0  0  0  0  0
   -2.3320   19.6984  -32.5958 H   0  0  0  0  0  0  0  0  0  0  0  0
   -0.9504   19.3993  -33.7359 H   0  0  0  0  0  0  0  0  0  0  0  0
   -1.9477   17.7598  -31.4209 H   0  0  0  0  0  0  0  0  0  0  0  0
   -4.2499   16.3534  -34.8670 H   0  0  0  0  0  0  0  0  0  0  0  0
   -3.5706   15.1417  -36.0193 H   0  0  0  0  0  0  0  0  0  0  0  0
   -3.9971   13.2288  -34.5602 H   0  0  0  0  0  0  0  0  0  0  0  0
   -3.1712   11.8801  -32.6308 H   0  0  0  0  0  0  0  0  0  0  0  0
   -1.5194   12.8561  -31.0372 H   0  0  0  0  0  0  0  0  0  0  0  0
   -0.7407   15.2079  -31.3221 H   0  0  0  0  0  0  0  0  0  0  0  0
    0.1709   16.5202  -31.2186 H   0  0  0  0  0  0  0  0  0  0  0  0
    0.9730   17.7590  -32.2537 H   0  0  0  0  0  0  0  0  0  0  0  0
   -0.0726   17.9893  -29.4185 H   0  0  0  0  0  0  0  0  0  0  0  0
    1.4512   18.6271  -30.1555 H   0  0  0  0  0  0  0  0  0  0  0  0
  1  2  2  0
  2  3  1  0
  3  4  2  0
  4  5  1  0
  5  6  2  0
  6  7  1  0
  6  8  1  0
  8  9  1  0
  9 10  1  0
 10 11  2  0
 10 12  2  0
 10 13  1  0
 13 14  2  0
 14 15  1  0
 15 16  2  0
 16 17  1  0
 17 18  1  0
 18 19  1  0
 19 20  1  0
 20 21  1  0
 21 22  1  0
 16 23  1  0
 23 24  2  0
  8 25  2  0
  2 26  1  0
 26 27  1  0
 27 28  1  0
 28 29  1  0
 29 30  1  0
 30 31  1  0
 31 32  2  0
 31 33  1  0
 33 34  1  0
 34 35  1  0
 35 36  2  0
 36 37  1  0
 37 38  2  0
 38 39  1  0
 39 40  2  0
 29 41  1  0
 41 42  1  0
 25  3  1  0
 42 26  1  0
 24 13  1  0
 40 30  1  0
 22 17  1  0
 40 35  1  0
  4 43  1  0
  5 44  1  0
  7 45  1  0
 14 46  1  0
 15 47  1  0
 18 48  1  0
 18 49  1  0
 19 50  1  0
 19 51  1  0
 21 52  1  0
 21 53  1  0
 22 54  1  0
 22 55  1  0
 23 56  1  0
 24 57  1  0
 25 58  1  0
 27 59  1  0
 27 60  1  0
 28 61  1  0
 28 62  1  0
 29 63  1  0
 34 64  1  0
 34 65  1  0
 36 66  1  0
 37 67  1  0
 38 68  1  0
 39 69  1  0
 41 70  1  0
 41 71  1  0
 42 72  1  0
 42 73  1  0
M  CHG  1   9  -1
M  END
>  <UniqueID>  (40) 
40

>  <SMILES>  (40) 
O=C(c1ccc(O)c([N-]S(=O)(=O)c2ccc(N3CCOCC3)cc2)c1)N1CCC(N2C(=O)OCc3ccccc32)CC1

>  <Energy>  (40) 
112.78420574394184

>  <Genealogy>  (40) 
O=C(c1ccc(O)c([N-]S(=O)(=O)c2ccc(N3CCOCC3)cc2)c1)N1CCC(N2C(=O)OCc3ccccc32)CC1 (protonated)
O=C(c1ccc(O)c([N-]S(=O)(=O)c2ccc(N3CCOCC3)cc2)c1)N1CCC(N2C(=O)OCc3ccccc32)CC1 (3D coordinates assigned)
O=C(c1ccc(O)c([N-]S(=O)(=O)c2ccc(N3CCOCC3)cc2)c1)N1CCC(N2C(=O)OCc3ccccc32)CC1 (nonaromatic ring conformer: 112.78420574394184 kcal/mol)

>  <smiles>  (40) 
O=C(c1ccc(O)c(NS(=O)(=O)c2ccc(N3CCOCC3)cc2)c1)N1CCC(N2C(=O)OCc3ccccc32)CC1

>  <score_type>  (40) 
oracle

>  <origin>  (40) 
adgpu

>  <m_score__min__energy>  (40) 
-12.51

>  <m_primary>  (40) 
energy

$$$$
40:0
     RDKit          3D

 63 66  0  0  0  0  0  0  0  0999 V2000
   -0.8780   26.2940  -28.1910 C   0  0  0  0  0  0  0  0  0  0  0  0
   -1.3330   25.5290  -29.3460 N   0  0  0  0  0  0  0  0  0  0  0  0
   -2.0200   24.0230  -28.8180 S   0  0  0  0  0  0  0  0  0  0  0  0
   -1.0150   23.3150  -27.9540 O   0  0  0  0  0  0  0  0  0  0  0  0
   -3.2300   24.3110  -27.9790 O   0  0  0  0  0  0  0  0  0  0  0  0
   -2.3480   23.0000  -30.2340 C   0  0  0  0  0  0  0  0  0  0  0  0
   -1.3400   22.0780  -30.5600 C   0  0  0  0  0  0  0  0  0  0  0  0
   -1.4590   21.2330  -31.6660 C   0  0  0  0  0  0  0  0  0  0  0  0
   -0.1480   20.1290  -32.0610 S   0  0  0  0  0  0  0  0  0  0  0  0
    0.6160   19.7480  -30.8210 O   0  0  0  0  0  0  0  0  0  0  0  0
    0.8050   20.8000  -33.0140 O   0  0  0  0  0  0  0  0  0  0  0  0
   -0.8320   18.6900  -32.8060 C   0  0  0  0  0  0  0  0  0  0  0  0
   -0.9230   17.4960  -32.0760 C   0  0  0  0  0  0  0  0  0  0  0  0
   -1.4570   16.3480  -32.6700 C   0  0  0  0  0  0  0  0  0  0  0  0
   -1.8840   16.3770  -34.0060 C   0  0  0  0  0  0  0  0  0  0  0  0
   -2.6280   14.9460  -34.7110 S   0  0  0  0  0  0  0  0  0  0  0  0
   -2.1430   13.7330  -33.9680 O   0  0  0  0  0  0  0  0  0  0  0  0
   -2.2550   14.7930  -36.1570 O   0  0  0  0  0  0  0  0  0  0  0  0
   -4.3500   15.0570  -34.5340 N   0  0  0  0  0  0  0  0  0  0  0  0
   -5.0660   16.2710  -34.2630 C   0  0  0  0  0  0  0  0  0  0  0  0
   -5.8400   16.4240  -33.1010 C   0  0  0  0  0  0  0  0  0  0  0  0
   -6.5370   17.6160  -32.8580 C   0  0  0  0  0  0  0  0  0  0  0  0
   -6.4920   18.6580  -33.8060 C   0  0  0  0  0  0  0  0  0  0  0  0
   -5.7000   18.5120  -34.9540 C   0  0  0  0  0  0  0  0  0  0  0  0
   -4.9880   17.3270  -35.1830 C   0  0  0  0  0  0  0  0  0  0  0  0
   -4.2150   17.1830  -36.3380 O   0  0  0  0  0  0  0  0  0  0  0  0
   -7.2010   19.9670  -33.5530 C   0  0  0  0  0  0  0  0  0  0  0  0
   -8.2820   19.8180  -32.5530 N   0  0  0  0  0  0  0  0  0  0  0  0
   -8.8600   21.1310  -32.2380 C   0  0  0  0  0  0  0  0  0  0  0  0
   -7.7600   19.1890  -31.3250 C   0  0  0  0  0  0  0  0  0  0  0  0
   -7.3900   17.7340  -31.6200 C   0  0  0  0  0  0  0  0  0  0  0  0
   -1.7710   17.5670  -34.7440 C   0  0  0  0  0  0  0  0  0  0  0  0
   -1.2490   18.7200  -34.1450 C   0  0  0  0  0  0  0  0  0  0  0  0
   -2.5930   21.3100  -32.4720 C   0  0  0  0  0  0  0  0  0  0  0  0
   -3.6100   22.2120  -32.1660 C   0  0  0  0  0  0  0  0  0  0  0  0
   -3.5110   23.0680  -31.0530 C   0  0  0  0  0  0  0  0  0  0  0  0
   -4.8530   24.1900  -30.7640 S   0  0  0  0  0  0  0  0  0  0  0  0
   -4.2360   25.7740  -30.4510 N   0  0  0  0  0  0  0  0  0  0  0  0
   -5.6830   23.7110  -29.6060 O   0  0  0  0  0  0  0  0  0  0  0  0
   -5.7380   24.2610  -31.9780 O   0  0  0  0  0  0  0  0  0  0  0  0
   -1.1835   25.7803  -27.2675 H   0  0  0  0  0  0  0  0  0  0  0  0
    0.2183   26.3803  -28.2171 H   0  0  0  0  0  0  0  0  0  0  0  0
   -1.3256   27.2985  -28.2171 H   0  0  0  0  0  0  0  0  0  0  0  0
   -0.4388   22.0201  -29.9319 H   0  0  0  0  0  0  0  0  0  0  0  0
   -0.5735   17.4623  -31.0336 H   0  0  0  0  0  0  0  0  0  0  0  0
   -1.5425   15.4188  -32.0875 H   0  0  0  0  0  0  0  0  0  0  0  0
   -5.8999   15.6004  -32.3743 H   0  0  0  0  0  0  0  0  0  0  0  0
   -5.6371   19.3350  -35.6812 H   0  0  0  0  0  0  0  0  0  0  0  0
   -3.6980   16.3320  -36.5290 H   0  0  0  0  0  0  0  0  0  0  0  0
   -6.4713   20.7022  -33.1828 H   0  0  0  0  0  0  0  0  0  0  0  0
   -7.6517   20.3020  -34.4988 H   0  0  0  0  0  0  0  0  0  0  0  0
   -8.9147   21.2552  -31.1464 H   0  0  0  0  0  0  0  0  0  0  0  0
   -8.2271   21.9224  -32.6658 H   0  0  0  0  0  0  0  0  0  0  0  0
   -9.8711   21.1987  -32.6658 H   0  0  0  0  0  0  0  0  0  0  0  0
   -6.8669   19.7334  -30.9844 H   0  0  0  0  0  0  0  0  0  0  0  0
   -8.5288   19.2216  -30.5389 H   0  0  0  0  0  0  0  0  0  0  0  0
   -6.8331   17.3269  -30.7632 H   0  0  0  0  0  0  0  0  0  0  0  0
   -8.3198   17.1710  -31.7889 H   0  0  0  0  0  0  0  0  0  0  0  0
   -2.0935   17.5931  -35.7953 H   0  0  0  0  0  0  0  0  0  0  0  0
   -1.1658   19.6507  -34.7254 H   0  0  0  0  0  0  0  0  0  0  0  0
   -2.6856   20.6569  -33.3523 H   0  0  0  0  0  0  0  0  0  0  0  0
   -4.5046   22.2558  -32.8045 H   0  0  0  0  0  0  0  0  0  0  0  0
   -3.5000   25.6720  -29.7150 H   0  0  0  0  0  0  0  0  0  0  0  0
  1  2  1  0
  2  3  1  0
  3  4  2  0
  3  5  2  0
  3  6  1  0
  6  7  2  0
  7  8  1  0
  8  9  1  0
  9 10  2  0
  9 11  2  0
  9 12  1  0
 12 13  2  0
 13 14  1  0
 14 15  2  0
 15 16  1  0
 16 17  2  0
 16 18  2  0
 16 19  1  0
 19 20  1  0
 20 21  2  0
 21 22  1  0
 22 23  2  0
 23 24  1  0
 24 25  2  0
 25 26  1  0
 23 27  1  0
 27 28  1  0
 28 29  1  0
 28 30  1  0
 30 31  1  0
 15 32  1  0
 32 33  2  0
  8 34  2  0
 34 35  1  0
 35 36  2  0
 36 37  1  0
 37 38  1  0
 37 39  2  0
 37 40  2  0
 36  6  1  0
 33 12  1  0
 25 20  1  0
 31 22  1  0
  1 41  1  0
  1 42  1  0
  1 43  1  0
  7 44  1  0
 13 45  1  0
 14 46  1  0
 21 47  1  0
 24 48  1  0
 26 49  1  0
 27 50  1  0
 27 51  1  0
 29 52  1  0
 29 53  1  0
 29 54  1  0
 30 55  1  0
 30 56  1  0
 31 57  1  0
 31 58  1  0
 32 59  1  0
 33 60  1  0
 34 61  1  0
 35 62  1  0
 38 63  1  0
M  CHG  3   2  -1  19  -1  38  -1
M  END
>  <UniqueID>  (41) 
41

>  <SMILES>  (41) 
C[N-]S(=O)(=O)c1cc(S(=O)(=O)c2ccc(S(=O)(=O)[N-]c3cc4c(cc3O)CN(C)CC4)cc2)ccc1S([NH-])(=O)=O

>  <Energy>  (41) 
78.71326781860755

>  <Genealogy>  (41) 
C[N-]S(=O)(=O)c1cc(S(=O)(=O)c2ccc(S(=O)(=O)[N-]c3cc4c(cc3O)CN(C)CC4)cc2)ccc1S([NH-])(=O)=O (protonated)
C[N-]S(=O)(=O)c1cc(S(=O)(=O)c2ccc(S(=O)(=O)[N-]c3cc4c(cc3O)CN(C)CC4)cc2)ccc1S([NH-])(=O)=O (3D coordinates assigned)
C[N-]S(=O)(=O)c1cc(S(=O)(=O)c2ccc(S(=O)(=O)[N-]c3cc4c(cc3O)CN(C)CC4)cc2)ccc1S([NH-])(=O)=O (nonaromatic ring conformer: 78.71326781860755 kcal/mol)

>  <smiles>  (41) 
CNS(=O)(=O)c1cc(S(=O)(=O)c2ccc(S(=O)(=O)Nc3cc4c(cc3O)CN(C)CC4)cc2)ccc1S(N)(=O)=O

>  <score_type>  (41) 
oracle

>  <origin>  (41) 
adgpu

>  <m_score__min__energy>  (41) 
-13.140000000000001

>  <m_primary>  (41) 
energy

$$$$
41:0
     RDKit          3D

 32 34  0  0  1  0  0  0  0  0999 V2000
   -3.9840   25.2550  -30.5850 N   0  0  0  0  0  0  0  0  0  0  0  0
   -4.2970   23.8960  -30.1900 C   0  0  0  0  0  0  0  0  0  0  0  0
   -5.5260   23.4980  -30.9570 C   0  0  0  0  0  0  0  0  0  0  0  0
   -6.2630   22.4250  -30.4760 C   0  0  0  0  0  0  0  0  0  0  0  0
   -7.3890   22.0800  -31.2000 C   0  0  0  0  0  0  0  0  0  0  0  0
   -8.2400   20.9870  -30.8110 N   0  0  0  0  0  0  0  0  0  0  0  0
   -8.0200   19.8800  -31.4580 C   0  0  0  0  0  0  0  0  0  0  0  0
   -7.0880   19.6540  -32.4450 C   0  0  0  0  0  0  0  0  0  0  0  0
   -7.2560   18.3240  -32.8070 C   0  0  0  0  0  0  0  0  0  0  0  0
   -6.4550   17.6340  -33.8500 C   0  0  0  0  0  0  0  0  0  0  0  0
   -5.0070   17.7650  -33.9300 C   0  0  0  0  0  0  0  0  0  0  0  0
   -5.8150   18.5980  -34.8520 C   0  0  0  0  0  0  0  0  0  0  0  0
   -8.2550   17.8090  -32.0480 N   0  0  0  0  0  0  0  0  0  0  0  0
   -8.7050   18.7620  -31.2390 N   0  0  0  0  0  0  0  0  0  0  0  0
   -7.7760   22.7550  -32.3450 C   0  0  0  0  0  0  0  0  0  0  0  0
   -6.9590   23.8120  -32.7280 C   0  0  0  0  0  0  0  0  0  0  0  0
   -5.8750   24.1670  -32.0550 N   0  0  0  0  0  0  0  0  0  0  0  0
   -4.3470   25.9730  -29.9180 H   0  0  0  0  0  0  0  0  0  0  0  0
   -4.2140   25.4650  -31.5640 H   0  0  0  0  0  0  0  0  0  0  0  0
   -3.4607   23.2262  -30.4391 H   0  0  0  0  0  0  0  0  0  0  0  0
   -4.4669   23.8274  -29.1054 H   0  0  0  0  0  0  0  0  0  0  0  0
   -5.9673   21.8788  -29.5681 H   0  0  0  0  0  0  0  0  0  0  0  0
   -6.3651   20.3727  -32.8584 H   0  0  0  0  0  0  0  0  0  0  0  0
   -7.1078   16.7486  -33.8446 H   0  0  0  0  0  0  0  0  0  0  0  0
   -4.4596   18.2444  -33.1050 H   0  0  0  0  0  0  0  0  0  0  0  0
   -4.1848   17.0486  -34.0743 H   0  0  0  0  0  0  0  0  0  0  0  0
   -5.8864   19.6852  -34.7010 H   0  0  0  0  0  0  0  0  0  0  0  0
   -5.8628   18.7545  -35.9398 H   0  0  0  0  0  0  0  0  0  0  0  0
   -8.6120   16.8200  -32.0930 H   0  0  0  0  0  0  0  0  0  0  0  0
   -9.4800   18.5920  -30.5610 H   0  0  0  0  0  0  0  0  0  0  0  0
   -8.6732   22.4727  -32.9154 H   0  0  0  0  0  0  0  0  0  0  0  0
   -7.2249   24.3799  -33.6317 H   0  0  0  0  0  0  0  0  0  0  0  0
  1  2  1  0
  2  3  1  0
  3  4  2  0
  4  5  1  0
  5  6  1  0
  6  7  2  0
  7  8  1  0
  8  9  2  0
  9 10  1  0
 10 11  1  0
 11 12  1  0
  9 13  1  0
 13 14  1  0
  5 15  2  0
 15 16  1  0
 16 17  2  0
 17  3  1  0
 14  7  1  0
 12 10  1  0
  1 18  1  0
  1 19  1  0
  2 20  1  0
  2 21  1  0
  4 22  1  0
  8 23  1  0
 10 24  1  0
 11 25  1  0
 11 26  1  0
 12 27  1  0
 12 28  1  0
 13 29  1  0
 14 30  1  0
 15 31  1  0
 16 32  1  0
M  END
>  <smiles>  (42) 
NCc1cc(N=c2cc(C3CC3)[nH][nH]2)ccn1

>  <score_type>  (42) 
oracle

>  <origin>  (42) 
adgpu

>  <m_score__min__energy>  (42) 
-7.2199999999999998

>  <m_primary>  (42) 
energy

$$$$
42:0
     RDKit          3D

 47 49  0  0  0  0  0  0  0  0999 V2000
   -6.6540   18.2330  -32.1070 C   0  0  0  0  0  0  0  0  0  0  0  0
   -7.0680   19.7120  -33.0030 S   0  0  0  0  0  0  0  0  0  0  0  0
   -8.5620   19.8310  -33.1220 O   0  0  0  0  0  0  0  0  0  0  0  0
   -6.4780   19.6440  -34.3840 O   0  0  0  0  0  0  0  0  0  0  0  0
   -6.4270   21.1080  -32.1430 C   0  0  0  0  0  0  0  0  0  0  0  0
   -7.2330   21.8150  -31.2430 C   0  0  0  0  0  0  0  0  0  0  0  0
   -6.7370   22.9500  -30.5960 C   0  0  0  0  0  0  0  0  0  0  0  0
   -5.4340   23.3970  -30.8550 C   0  0  0  0  0  0  0  0  0  0  0  0
   -4.8410   24.8770  -30.1050 S   0  0  0  0  0  0  0  0  0  0  0  0
   -5.3400   26.0850  -30.8470 O   0  0  0  0  0  0  0  0  0  0  0  0
   -5.3510   24.9580  -28.6930 O   0  0  0  0  0  0  0  0  0  0  0  0
   -3.1060   24.8440  -30.0590 N   0  0  0  0  0  0  0  0  0  0  0  0
   -2.2950   24.6670  -28.8880 C   0  0  0  0  0  0  0  0  0  0  0  0
   -1.4260   25.6720  -28.4330 C   0  0  0  0  0  0  0  0  0  0  0  0
   -0.6710   25.4860  -27.2730 C   0  0  0  0  0  0  0  0  0  0  0  0
   -0.7640   24.2890  -26.5460 C   0  0  0  0  0  0  0  0  0  0  0  0
    0.0090   24.1090  -25.2640 C   0  0  0  0  0  0  0  0  0  0  0  0
    1.3620   24.0990  -25.5450 F   0  0  0  0  0  0  0  0  0  0  0  0
   -0.3340   22.9180  -24.6480 F   0  0  0  0  0  0  0  0  0  0  0  0
   -0.2620   25.1430  -24.3840 F   0  0  0  0  0  0  0  0  0  0  0  0
   -1.6610   23.3000  -26.9800 C   0  0  0  0  0  0  0  0  0  0  0  0
   -2.4050   23.4730  -28.1520 C   0  0  0  0  0  0  0  0  0  0  0  0
   -3.4830   22.1430  -28.7080 S   0  0  0  0  0  0  0  0  0  0  0  0
   -2.1250   21.1940  -29.4190 C   0  0  0  0  0  0  0  0  0  0  0  0
   -1.6710   21.5200  -30.7060 C   0  0  0  0  0  0  0  0  0  0  0  0
   -0.6150   20.8100  -31.2820 C   0  0  0  0  0  0  0  0  0  0  0  0
   -0.0060   19.7680  -30.5800 C   0  0  0  0  0  0  0  0  0  0  0  0
   -0.4610   19.4240  -29.3050 C   0  0  0  0  0  0  0  0  0  0  0  0
   -1.5240   20.1270  -28.7210 C   0  0  0  0  0  0  0  0  0  0  0  0
   -1.9920   19.7240  -27.4180 C   0  0  0  0  0  0  0  0  0  0  0  0
   -2.3690   19.3980  -26.3720 N   0  0  0  0  0  0  0  0  0  0  0  0
   -4.6270   22.6870  -31.7550 C   0  0  0  0  0  0  0  0  0  0  0  0
   -5.1200   21.5450  -32.3930 C   0  0  0  0  0  0  0  0  0  0  0  0
   -6.7095   18.4313  -31.0264 H   0  0  0  0  0  0  0  0  0  0  0  0
   -7.3631   17.4343  -32.3701 H   0  0  0  0  0  0  0  0  0  0  0  0
   -5.6333   17.9185  -32.3701 H   0  0  0  0  0  0  0  0  0  0  0  0
   -8.2604   21.4760  -31.0443 H   0  0  0  0  0  0  0  0  0  0  0  0
   -7.3713   23.4945  -29.8810 H   0  0  0  0  0  0  0  0  0  0  0  0
   -1.3393   26.6136  -28.9950 H   0  0  0  0  0  0  0  0  0  0  0  0
    0.0020   26.2840  -26.9263 H   0  0  0  0  0  0  0  0  0  0  0  0
   -1.7802   22.3783  -26.3916 H   0  0  0  0  0  0  0  0  0  0  0  0
   -2.1490   22.3386  -31.2640 H   0  0  0  0  0  0  0  0  0  0  0  0
   -0.2625   21.0723  -32.2905 H   0  0  0  0  0  0  0  0  0  0  0  0
    0.8327   19.2176  -31.0313 H   0  0  0  0  0  0  0  0  0  0  0  0
    0.0166   18.5983  -28.7571 H   0  0  0  0  0  0  0  0  0  0  0  0
   -3.6021   23.0298  -31.9599 H   0  0  0  0  0  0  0  0  0  0  0  0
   -4.4798   20.9882  -33.0931 H   0  0  0  0  0  0  0  0  0  0  0  0
  1  2  1  0
  2  3  2  0
  2  4  2  0
  2  5  1  0
  5  6  2  0
  6  7  1  0
  7  8  2  0
  8  9  1  0
  9 10  2  0
  9 11  2  0
  9 12  1  0
 12 13  1  0
 13 14  2  0
 14 15  1  0
 15 16  2  0
 16 17  1  0
 17 18  1  0
 17 19  1  0
 17 20  1  0
 16 21  1  0
 21 22  2  0
 22 23  1  0
 23 24  1  0
 24 25  2  0
 25 26  1  0
 26 27  2  0
 27 28  1  0
 28 29  2  0
 29 30  1  0
 30 31  3  0
  8 32  1  0
 32 33  2  0
 33  5  1  0
 22 13  1  0
 29 24  1  0
  1 34  1  0
  1 35  1  0
  1 36  1  0
  6 37  1  0
  7 38  1  0
 14 39  1  0
 15 40  1  0
 21 41  1  0
 25 42  1  0
 26 43  1  0
 27 44  1  0
 28 45  1  0
 32 46  1  0
 33 47  1  0
M  CHG  1  12  -1
M  END
>  <UniqueID>  (43) 
42

>  <SMILES>  (43) 
CS(=O)(=O)c1ccc(S(=O)(=O)[N-]c2ccc(C(F)(F)F)cc2Sc2ccccc2C#N)cc1

>  <Energy>  (43) 
44.750199875469

>  <Genealogy>  (43) 
CS(=O)(=O)c1ccc(S(=O)(=O)[N-]c2ccc(C(F)(F)F)cc2Sc2ccccc2C#N)cc1 (protonated)
CS(=O)(=O)c1ccc(S(=O)(=O)[N-]c2ccc(C(F)(F)F)cc2Sc2ccccc2C#N)cc1 (3D coordinates assigned)
CS(=O)(=O)c1ccc(S(=O)(=O)[N-]c2ccc(C(F)(F)F)cc2Sc2ccccc2C#N)cc1 (optimized conformer: 44.750199875469 kcal/mol)

>  <smiles>  (43) 
CS(=O)(=O)c1ccc(S(=O)(=O)Nc2ccc(C(F)(F)F)cc2Sc2ccccc2C#N)cc1

>  <score_type>  (43) 
oracle

>  <origin>  (43) 
adgpu

>  <m_score__min__energy>  (43) 
-11.449999999999999

>  <m_primary>  (43) 
energy

$$$$
43:0
     RDKit          3D

 41 43  0  0  0  0  0  0  0  0999 V2000
   -2.5380   18.8110  -34.2780 C   0  0  0  0  0  0  0  0  0  0  0  0
   -3.7290   18.0290  -33.8220 C   0  0  0  0  0  0  0  0  0  0  0  0
   -3.7670   16.7060  -33.6590 C   0  0  0  0  0  0  0  0  0  0  0  0
   -5.1190   16.2430  -33.1620 C   0  0  0  0  0  0  0  0  0  0  0  0
   -5.7820   15.3090  -34.1850 C   0  0  0  0  0  0  0  0  0  0  0  0
   -4.9900   15.5760  -31.7870 C   0  0  0  0  0  0  0  0  0  0  0  0
   -5.8440   17.5560  -33.0670 C   0  0  0  0  0  0  0  0  0  0  0  0
   -7.1600   17.8050  -32.6690 C   0  0  0  0  0  0  0  0  0  0  0  0
   -7.6280   19.1340  -32.6700 C   0  0  0  0  0  0  0  0  0  0  0  0
   -8.9380   19.4130  -32.2840 O   0  0  0  0  0  0  0  0  0  0  0  0
   -6.7740   20.1920  -33.0640 C   0  0  0  0  0  0  0  0  0  0  0  0
   -7.2890   21.5310  -33.0610 N   0  0  0  0  0  0  0  0  0  0  0  0
   -7.6670   22.4480  -31.6370 S   0  0  0  0  0  0  0  0  0  0  0  0
   -8.7400   23.4480  -31.9620 O   0  0  0  0  0  0  0  0  0  0  0  0
   -8.1750   21.5170  -30.5710 O   0  0  0  0  0  0  0  0  0  0  0  0
   -6.2330   23.3090  -31.0890 C   0  0  0  0  0  0  0  0  0  0  0  0
   -6.3280   24.6150  -30.5820 C   0  0  0  0  0  0  0  0  0  0  0  0
   -5.1830   25.2750  -30.1250 C   0  0  0  0  0  0  0  0  0  0  0  0
   -3.9390   24.6370  -30.1720 C   0  0  0  0  0  0  0  0  0  0  0  0
   -2.8010   25.2940  -29.7190 O   0  0  0  0  0  0  0  0  0  0  0  0
   -3.8390   23.3360  -30.6780 C   0  0  0  0  0  0  0  0  0  0  0  0
   -4.9830   22.6730  -31.1340 C   0  0  0  0  0  0  0  0  0  0  0  0
   -5.4440   19.9090  -33.4510 C   0  0  0  0  0  0  0  0  0  0  0  0
   -5.0160   18.5830  -33.4490 C   0  0  0  0  0  0  0  0  0  0  0  0
   -1.9818   19.1762  -33.4020 H   0  0  0  0  0  0  0  0  0  0  0  0
   -1.8853   18.1651  -34.8836 H   0  0  0  0  0  0  0  0  0  0  0  0
   -2.8712   19.6667  -34.8836 H   0  0  0  0  0  0  0  0  0  0  0  0
   -2.9198   16.0341  -33.8610 H   0  0  0  0  0  0  0  0  0  0  0  0
   -6.3402   14.5227  -33.6558 H   0  0  0  0  0  0  0  0  0  0  0  0
   -6.4727   15.8876  -34.8160 H   0  0  0  0  0  0  0  0  0  0  0  0
   -5.0080   14.8478  -34.8160 H   0  0  0  0  0  0  0  0  0  0  0  0
   -5.1357   16.3294  -30.9989 H   0  0  0  0  0  0  0  0  0  0  0  0
   -5.7527   14.7896  -31.6880 H   0  0  0  0  0  0  0  0  0  0  0  0
   -3.9891   15.1306  -31.6880 H   0  0  0  0  0  0  0  0  0  0  0  0
   -7.8181   16.9792  -32.3608 H   0  0  0  0  0  0  0  0  0  0  0  0
   -9.2360   20.3550  -32.0630 H   0  0  0  0  0  0  0  0  0  0  0  0
   -7.3046   25.1197  -30.5443 H   0  0  0  0  0  0  0  0  0  0  0  0
   -5.2607   26.2978  -29.7278 H   0  0  0  0  0  0  0  0  0  0  0  0
   -2.8606   22.8348  -30.7171 H   0  0  0  0  0  0  0  0  0  0  0  0
   -4.9026   21.6496  -31.5292 H   0  0  0  0  0  0  0  0  0  0  0  0
   -4.7612   20.7189  -33.7475 H   0  0  0  0  0  0  0  0  0  0  0  0
  1  2  1  0
  2  3  2  0
  3  4  1  0
  4  5  1  0
  4  6  1  0
  4  7  1  0
  7  8  2  0
  8  9  1  0
  9 10  1  0
  9 11  2  0
 11 12  1  0
 12 13  1  0
 13 14  2  0
 13 15  2  0
 13 16  1  0
 16 17  2  0
 17 18  1  0
 18 19  2  0
 19 20  1  0
 19 21  1  0
 21 22  2  0
 11 23  1  0
 23 24  2  0
 24  2  1  0
 24  7  1  0
 22 16  1  0
  1 25  1  0
  1 26  1  0
  1 27  1  0
  3 28  1  0
  5 29  1  0
  5 30  1  0
  5 31  1  0
  6 32  1  0
  6 33  1  0
  6 34  1  0
  8 35  1  0
 10 36  1  0
 17 37  1  0
 18 38  1  0
 21 39  1  0
 22 40  1  0
 23 41  1  0
M  CHG  2  12  -1  20  -1
M  END
>  <UniqueID>  (44) 
43

>  <SMILES>  (44) 
CC1=CC(C)(C)c2cc(O)c([N-]S(=O)(=O)c3ccc([O-])cc3)cc21

>  <Energy>  (44) 
57.93755808863946

>  <Genealogy>  (44) 
CC1=CC(C)(C)c2cc(O)c([N-]S(=O)(=O)c3ccc([O-])cc3)cc21 (protonated)
CC1=CC(C)(C)c2cc(O)c([N-]S(=O)(=O)c3ccc([O-])cc3)cc21 (3D coordinates assigned)
CC1=CC(C)(C)c2cc(O)c([N-]S(=O)(=O)c3ccc([O-])cc3)cc21 (nonaromatic ring conformer: 57.93755808863946 kcal/mol)

>  <smiles>  (44) 
CC1=CC(C)(C)c2cc(O)c(NS(=O)(=O)c3ccc(O)cc3)cc21

>  <score_type>  (44) 
oracle

>  <origin>  (44) 
adgpu

>  <m_score__min__energy>  (44) 
-11.210000000000001

>  <m_primary>  (44) 
energy

$$$$
44:0
     RDKit          3D

 67 71  0  0  1  0  0  0  0  0999 V2000
   -3.0240   18.6870  -26.2880 C   0  0  0  0  0  0  0  0  0  0  0  0
   -2.0510   20.0990  -26.6830 S   0  0  0  0  0  0  0  0  0  0  0  0
   -2.8940   21.0880  -27.4290 O   0  0  0  0  0  0  0  0  0  0  0  0
   -1.6020   20.7900  -25.4050 O   0  0  0  0  0  0  0  0  0  0  0  0
   -0.6170   19.6790  -27.6280 C   0  0  0  0  0  0  0  0  0  0  0  0
    0.4460   20.5650  -27.5240 C   0  0  0  0  0  0  0  0  0  0  0  0
    1.6240   20.3260  -28.2290 C   0  0  0  0  0  0  0  0  0  0  0  0
    1.6580   19.1890  -29.0070 C   0  0  0  0  0  0  0  0  0  0  0  0
    0.6140   18.3030  -29.1180 C   0  0  0  0  0  0  0  0  0  0  0  0
    0.6510   17.1020  -29.9410 C   0  0  0  0  0  0  0  0  0  0  0  0
    0.2600   15.9670  -29.5090 O   0  0  0  0  0  0  0  0  0  0  0  0
    1.1270   17.1150  -31.2810 N   0  0  0  0  0  0  0  0  0  0  0  0
    1.1370   15.8950  -32.0360 C   0  0  0  0  0  0  0  0  0  0  0  0
    1.5170   14.7140  -31.3880 C   0  0  0  0  0  0  0  0  0  0  0  0
    1.5460   13.5090  -32.0630 C   0  0  0  0  0  0  0  0  0  0  0  0
    1.1920   13.4990  -33.3980 C   0  0  0  0  0  0  0  0  0  0  0  0
    0.8200   14.6700  -34.0240 C   0  0  0  0  0  0  0  0  0  0  0  0
    0.7820   15.8830  -33.3720 C   0  0  0  0  0  0  0  0  0  0  0  0
    0.4130   17.0720  -33.9770 O   0  0  0  0  0  0  0  0  0  0  0  0
   -0.7650   17.7120  -33.6240 C   0  0  0  0  0  0  0  0  0  0  0  0
   -2.0170   17.1680  -33.8320 C   0  0  0  0  0  0  0  0  0  0  0  0
   -3.0960   17.9270  -33.4270 C   0  0  0  0  0  0  0  0  0  0  0  0
   -4.2830   17.4580  -33.6010 N   0  0  0  0  0  0  0  0  0  0  0  0
   -5.4260   18.2230  -33.1910 C   0  0  0  0  0  0  0  0  0  0  0  0
   -6.1490   17.8800  -32.0670 C   0  0  0  0  0  0  0  0  0  0  0  0
   -7.2560   18.6070  -31.6560 C   0  0  0  0  0  0  0  0  0  0  0  0
   -7.6250   19.7150  -32.4260 C   0  0  0  0  0  0  0  0  0  0  0  0
   -8.7690   20.4800  -32.0150 C   0  0  0  0  0  0  0  0  0  0  0  0
   -9.7080   21.0910  -31.6780 N   0  0  0  0  0  0  0  0  0  0  0  0
   -6.8880   20.0550  -33.5600 C   0  0  0  0  0  0  0  0  0  0  0  0
   -5.7860   19.3270  -33.9640 C   0  0  0  0  0  0  0  0  0  0  0  0
   -2.9880   19.1330  -32.8570 N   0  0  0  0  0  0  0  0  0  0  0  0
   -1.7480   19.6190  -32.6760 C   0  0  0  0  0  0  0  0  0  0  0  0
   -1.5770   20.7910  -32.1260 N   0  0  0  0  0  0  0  0  0  0  0  0
   -2.6780   21.5930  -31.6990 C   0  0  0  0  0  0  0  0  0  0  0  0
   -3.7160   21.9430  -32.5480 C   0  0  0  0  0  0  0  0  0  0  0  0
   -4.7810   22.7180  -32.1350 C   0  0  0  0  0  0  0  0  0  0  0  0
   -4.8240   23.1700  -30.8210 C   0  0  0  0  0  0  0  0  0  0  0  0
   -5.9410   23.9750  -30.4150 C   0  0  0  0  0  0  0  0  0  0  0  0
   -6.8580   24.6280  -30.0890 N   0  0  0  0  0  0  0  0  0  0  0  0
   -3.7950   22.8340  -29.9490 C   0  0  0  0  0  0  0  0  0  0  0  0
   -2.7290   22.0510  -30.3800 C   0  0  0  0  0  0  0  0  0  0  0  0
   -0.6400   18.9380  -33.0460 N   0  0  0  0  0  0  0  0  0  0  0  0
   -0.5660   18.5480  -28.4100 C   0  0  0  0  0  0  0  0  0  0  0  0
   -3.0946   18.5845  -25.1951 H   0  0  0  0  0  0  0  0  0  0  0  0
   -4.0324   18.8066  -26.7110 H   0  0  0  0  0  0  0  0  0  0  0  0
   -2.5532   17.7873  -26.7110 H   0  0  0  0  0  0  0  0  0  0  0  0
    0.3587   21.4561  -26.8850 H   0  0  0  0  0  0  0  0  0  0  0  0
    2.4832   21.0102  -28.1676 H   0  0  0  0  0  0  0  0  0  0  0  0
    2.5770   18.9781  -29.5736 H   0  0  0  0  0  0  0  0  0  0  0  0
    1.4690   17.9920  -31.7270 H   0  0  0  0  0  0  0  0  0  0  0  0
    1.7969   14.7458  -30.3247 H   0  0  0  0  0  0  0  0  0  0  0  0
    1.8432   12.5820  -31.5508 H   0  0  0  0  0  0  0  0  0  0  0  0
    1.2068   12.5552  -33.9629 H   0  0  0  0  0  0  0  0  0  0  0  0
    0.5422   14.6341  -35.0877 H   0  0  0  0  0  0  0  0  0  0  0  0
   -2.1477   16.1797  -34.2970 H   0  0  0  0  0  0  0  0  0  0  0  0
   -5.8380   17.0037  -31.4794 H   0  0  0  0  0  0  0  0  0  0  0  0
   -7.8232   18.3228  -30.7574 H   0  0  0  0  0  0  0  0  0  0  0  0
   -7.1940   20.9306  -34.1514 H   0  0  0  0  0  0  0  0  0  0  0  0
   -5.2141   19.6070  -34.8610 H   0  0  0  0  0  0  0  0  0  0  0  0
   -3.8410   19.6900  -32.5570 H   0  0  0  0  0  0  0  0  0  0  0  0
   -3.6902   21.5901  -33.5895 H   0  0  0  0  0  0  0  0  0  0  0  0
   -5.5870   22.9752  -32.8380 H   0  0  0  0  0  0  0  0  0  0  0  0
   -3.8239   23.1905  -28.9088 H   0  0  0  0  0  0  0  0  0  0  0  0
   -1.9222   21.7911  -29.6789 H   0  0  0  0  0  0  0  0  0  0  0  0
    0.2940   19.3800  -32.8740 H   0  0  0  0  0  0  0  0  0  0  0  0
   -1.4229   17.8614  -28.4756 H   0  0  0  0  0  0  0  0  0  0  0  0
  1  2  1  0
  2  3  2  0
  2  4  2  0
  2  5  1  0
  5  6  2  0
  6  7  1  0
  7  8  2  0
  8  9  1  0
  9 10  1  0
 10 11  2  0
 10 12  1  0
 12 13  1  0
 13 14  2  0
 14 15  1  0
 15 16  2  0
 16 17  1  0
 17 18  2  0
 18 19  1  0
 19 20  1  0
 20 21  2  0
 21 22  1  0
 22 23  2  0
 23 24  1  0
 24 25  2  0
 25 26  1  0
 26 27  2  0
 27 28  1  0
 28 29  3  0
 27 30  1  0
 30 31  2  0
 22 32  1  0
 32 33  1  0
 33 34  2  0
 34 35  1  0
 35 36  2  0
 36 37  1  0
 37 38  2  0
 38 39  1  0
 39 40  3  0
 38 41  1  0
 41 42  2  0
 33 43  1  0
  9 44  2  0
 44  5  1  0
 18 13  1  0
 43 20  1  0
 31 24  1  0
 42 35  1  0
  1 45  1  0
  1 46  1  0
  1 47  1  0
  6 48  1  0
  7 49  1  0
  8 50  1  0
 12 51  1  0
 14 52  1  0
 15 53  1  0
 16 54  1  0
 17 55  1  0
 21 56  1  0
 25 57  1  0
 26 58  1  0
 30 59  1  0
 31 60  1  0
 32 61  1  0
 36 62  1  0
 37 63  1  0
 41 64  1  0
 42 65  1  0
 43 66  1  0
 44 67  1  0
M  END
>  <smiles>  (45) 
CS(=O)(=O)c1cccc(C(=O)Nc2ccccc2Oc2cc(=Nc3ccc(C#N)cc3)[nH]c(=Nc3ccc(C#N)cc3)[nH]2)c1

>  <score_type>  (45) 
oracle

>  <origin>  (45) 
adgpu

>  <m_score__min__energy>  (45) 
-11.380000000000001

>  <m_primary>  (45) 
energy

$$$$
45:0
     RDKit          3D

 46 49  0  0  0  0  0  0  0  0999 V2000
   -6.0320   25.4790  -31.1280 O   0  0  0  0  0  0  0  0  0  0  0  0
   -5.0600   24.6860  -30.9900 C   0  0  0  0  0  0  0  0  0  0  0  0
   -3.8320   25.1420  -30.4070 N   0  0  0  0  0  0  0  0  0  0  0  0
   -3.0520   24.4520  -29.4200 C   0  0  0  0  0  0  0  0  0  0  0  0
   -1.6820   24.7230  -29.3350 C   0  0  0  0  0  0  0  0  0  0  0  0
   -0.8820   24.0550  -28.4050 C   0  0  0  0  0  0  0  0  0  0  0  0
   -1.4440   23.0950  -27.5530 C   0  0  0  0  0  0  0  0  0  0  0  0
   -0.4220   22.2350  -26.4050 S   0  0  0  0  0  0  0  0  0  0  0  0
    1.0020   22.6740  -26.6020 O   0  0  0  0  0  0  0  0  0  0  0  0
   -0.8370   22.5740  -24.9990 O   0  0  0  0  0  0  0  0  0  0  0  0
   -0.5500   20.5150  -26.6750 N   0  0  0  0  0  0  0  0  0  0  0  0
   -1.9340   20.0750  -26.4440 C   0  0  0  0  0  0  0  0  0  0  0  0
   -2.0550   18.5560  -26.6920 C   0  0  0  0  0  0  0  0  0  0  0  0
   -0.8770   18.0070  -27.2600 O   0  0  0  0  0  0  0  0  0  0  0  0
   -0.5170   18.7410  -28.4140 C   0  0  0  0  0  0  0  0  0  0  0  0
   -0.1330   20.1890  -28.0510 C   0  0  0  0  0  0  0  0  0  0  0  0
   -2.8100   22.7960  -27.6550 C   0  0  0  0  0  0  0  0  0  0  0  0
   -3.6100   23.4660  -28.5850 C   0  0  0  0  0  0  0  0  0  0  0  0
   -5.1510   23.3180  -31.5460 C   0  0  0  0  0  0  0  0  0  0  0  0
   -3.9580   22.6750  -31.9160 C   0  0  0  0  0  0  0  0  0  0  0  0
   -3.9870   21.3590  -32.3800 C   0  0  0  0  0  0  0  0  0  0  0  0
   -2.9160   20.7770  -32.6960 O   0  0  0  0  0  0  0  0  0  0  0  0
   -5.1670   20.7000  -32.4870 N   0  0  0  0  0  0  0  0  0  0  0  0
   -6.3510   21.2860  -32.1640 C   0  0  0  0  0  0  0  0  0  0  0  0
   -7.5400   20.5640  -32.3140 C   0  0  0  0  0  0  0  0  0  0  0  0
   -8.7670   21.1630  -32.0250 C   0  0  0  0  0  0  0  0  0  0  0  0
   -8.8140   22.4890  -31.5950 C   0  0  0  0  0  0  0  0  0  0  0  0
   -7.6340   23.2230  -31.4380 C   0  0  0  0  0  0  0  0  0  0  0  0
   -6.3800   22.6250  -31.6960 C   0  0  0  0  0  0  0  0  0  0  0  0
   -1.2310   25.4686  -30.0064 H   0  0  0  0  0  0  0  0  0  0  0  0
    0.1922   24.2832  -28.3413 H   0  0  0  0  0  0  0  0  0  0  0  0
   -2.2183   20.2980  -25.4050 H   0  0  0  0  0  0  0  0  0  0  0  0
   -2.6020   20.6077  -27.1368 H   0  0  0  0  0  0  0  0  0  0  0  0
   -2.2512   18.0556  -25.7323 H   0  0  0  0  0  0  0  0  0  0  0  0
   -2.8777   18.3962  -27.4045 H   0  0  0  0  0  0  0  0  0  0  0  0
    0.3412   18.2519  -28.8980 H   0  0  0  0  0  0  0  0  0  0  0  0
   -1.3802   18.7680  -29.0953 H   0  0  0  0  0  0  0  0  0  0  0  0
    0.9579   20.3037  -28.1334 H   0  0  0  0  0  0  0  0  0  0  0  0
   -0.6448   20.8725  -28.7444 H   0  0  0  0  0  0  0  0  0  0  0  0
   -3.2538   22.0312  -27.0007 H   0  0  0  0  0  0  0  0  0  0  0  0
   -4.6796   23.2217  -28.6645 H   0  0  0  0  0  0  0  0  0  0  0  0
   -2.9996   23.2095  -31.8399 H   0  0  0  0  0  0  0  0  0  0  0  0
   -7.5076   19.5206  -32.6609 H   0  0  0  0  0  0  0  0  0  0  0  0
   -9.6984   20.5885  -32.1365 H   0  0  0  0  0  0  0  0  0  0  0  0
   -9.7842   22.9599  -31.3782 H   0  0  0  0  0  0  0  0  0  0  0  0
   -7.6824   24.2724  -31.1116 H   0  0  0  0  0  0  0  0  0  0  0  0
  1  2  2  0
  2  3  1  0
  3  4  1  0
  4  5  2  0
  5  6  1  0
  6  7  2  0
  7  8  1  0
  8  9  2  0
  8 10  2  0
  8 11  1  0
 11 12  1  0
 12 13  1  0
 13 14  1  0
 14 15  1  0
 15 16  1  0
  7 17  1  0
 17 18  2  0
  2 19  1  0
 19 20  2  0
 20 21  1  0
 21 22  2  0
 21 23  1  0
 23 24  1  0
 24 25  2  0
 25 26  1  0
 26 27  2  0
 27 28  1  0
 28 29  2  0
 18  4  1  0
 29 19  1  0
 16 11  1  0
 29 24  1  0
  5 30  1  0
  6 31  1  0
 12 32  1  0
 12 33  1  0
 13 34  1  0
 13 35  1  0
 15 36  1  0
 15 37  1  0
 16 38  1  0
 16 39  1  0
 17 40  1  0
 18 41  1  0
 20 42  1  0
 25 43  1  0
 26 44  1  0
 27 45  1  0
 28 46  1  0
M  CHG  2   3  -1  23  -1
M  END
>  <UniqueID>  (46) 
44

>  <SMILES>  (46) 
O=C([N-]c1ccc(S(=O)(=O)N2CCOCC2)cc1)c1cc(=O)[n-]c2ccccc12

>  <Energy>  (46) 
70.6101244847061

>  <Genealogy>  (46) 
O=C([N-]c1ccc(S(=O)(=O)N2CCOCC2)cc1)c1cc(=O)[n-]c2ccccc12 (protonated)
O=C([N-]c1ccc(S(=O)(=O)N2CCOCC2)cc1)c1cc(=O)[n-]c2ccccc12 (3D coordinates assigned)
O=C([N-]c1ccc(S(=O)(=O)N2CCOCC2)cc1)c1cc(=O)[n-]c2ccccc12 (nonaromatic ring conformer: 70.6101244847061 kcal/mol)

>  <smiles>  (46) 
O=C(Nc1ccc(S(=O)(=O)N2CCOCC2)cc1)c1cc(=O)[nH]c2ccccc12

>  <score_type>  (46) 
oracle

>  <origin>  (46) 
adgpu

>  <m_score__min__energy>  (46) 
-11.029999999999999

>  <m_primary>  (46) 
energy

$$$$
46:0
     RDKit          3D

 47 50  0  0  0  0  0  0  0  0999 V2000
   -5.7930   25.4020  -29.9730 O   0  0  0  0  0  0  0  0  0  0  0  0
   -4.7950   24.7430  -30.3660 C   0  0  0  0  0  0  0  0  0  0  0  0
   -3.4820   25.2570  -30.1030 N   0  0  0  0  0  0  0  0  0  0  0  0
   -2.6500   24.9160  -28.9860 C   0  0  0  0  0  0  0  0  0  0  0  0
   -1.2480   24.9780  -29.0650 C   0  0  0  0  0  0  0  0  0  0  0  0
   -0.4640   24.6130  -27.9670 C   0  0  0  0  0  0  0  0  0  0  0  0
   -1.0720   24.1700  -26.7830 C   0  0  0  0  0  0  0  0  0  0  0  0
   -0.0960   23.6900  -25.3970 S   0  0  0  0  0  0  0  0  0  0  0  0
    1.2500   23.2400  -25.8940 O   0  0  0  0  0  0  0  0  0  0  0  0
   -0.7510   22.5400  -24.6800 O   0  0  0  0  0  0  0  0  0  0  0  0
    0.0980   25.0470  -24.3090 N   0  0  0  0  0  0  0  0  0  0  0  0
    1.1830   25.9320  -24.7510 C   0  0  0  0  0  0  0  0  0  0  0  0
    0.5660   27.0270  -25.6090 C   0  0  0  0  0  0  0  0  0  0  0  0
   -0.9220   26.9960  -25.3040 C   0  0  0  0  0  0  0  0  0  0  0  0
   -1.1110   25.8810  -24.2850 C   0  0  0  0  0  0  0  0  0  0  0  0
   -2.4680   24.0790  -26.7150 C   0  0  0  0  0  0  0  0  0  0  0  0
   -3.2510   24.4440  -27.8130 C   0  0  0  0  0  0  0  0  0  0  0  0
   -4.9990   23.5080  -31.1510 C   0  0  0  0  0  0  0  0  0  0  0  0
   -4.0570   22.9460  -31.9400 N   0  0  0  0  0  0  0  0  0  0  0  0
   -4.6010   21.9130  -32.5210 O   0  0  0  0  0  0  0  0  0  0  0  0
   -5.8520   21.7810  -32.1550 C   0  0  0  0  0  0  0  0  0  0  0  0
   -6.1630   22.7700  -31.2600 C   0  0  0  0  0  0  0  0  0  0  0  0
   -7.5320   22.9970  -30.6920 C   0  0  0  0  0  0  0  0  0  0  0  0
   -8.4010   21.7360  -30.8730 C   0  0  0  0  0  0  0  0  0  0  0  0
   -8.2590   21.1380  -32.2910 C   0  0  0  0  0  0  0  0  0  0  0  0
   -6.8060   20.7120  -32.5890 C   0  0  0  0  0  0  0  0  0  0  0  0
   -0.7660   25.3151  -29.9945 H   0  0  0  0  0  0  0  0  0  0  0  0
    0.6325   24.6733  -28.0315 H   0  0  0  0  0  0  0  0  0  0  0  0
    0.3010   24.6770  -23.3510 H   0  0  0  0  0  0  0  0  0  0  0  0
    1.6828   26.3770  -23.8779 H   0  0  0  0  0  0  0  0  0  0  0  0
    1.9310   25.3669  -25.3265 H   0  0  0  0  0  0  0  0  0  0  0  0
    0.9915   28.0066  -25.3457 H   0  0  0  0  0  0  0  0  0  0  0  0
    0.7654   26.8665  -26.6788 H   0  0  0  0  0  0  0  0  0  0  0  0
   -1.2474   27.9590  -24.8835 H   0  0  0  0  0  0  0  0  0  0  0  0
   -1.5187   26.8218  -26.2115 H   0  0  0  0  0  0  0  0  0  0  0  0
   -1.2510   26.3097  -23.2817 H   0  0  0  0  0  0  0  0  0  0  0  0
   -1.9993   25.2804  -24.5302 H   0  0  0  0  0  0  0  0  0  0  0  0
   -2.9496   23.7189  -25.7939 H   0  0  0  0  0  0  0  0  0  0  0  0
   -4.3463   24.3600  -27.7555 H   0  0  0  0  0  0  0  0  0  0  0  0
   -7.4466   23.2283  -29.6200 H   0  0  0  0  0  0  0  0  0  0  0  0
   -8.0049   23.8371  -31.2216 H   0  0  0  0  0  0  0  0  0  0  0  0
   -8.0904   20.9810  -30.1357 H   0  0  0  0  0  0  0  0  0  0  0  0
   -9.4529   22.0227  -30.7273 H   0  0  0  0  0  0  0  0  0  0  0  0
   -8.9126   20.2571  -32.3733 H   0  0  0  0  0  0  0  0  0  0  0  0
   -8.5453   21.9113  -33.0190 H   0  0  0  0  0  0  0  0  0  0  0  0
   -6.5815   19.7826  -32.0451 H   0  0  0  0  0  0  0  0  0  0  0  0
   -6.6950   20.5512  -33.6715 H   0  0  0  0  0  0  0  0  0  0  0  0
  1  2  2  0
  2  3  1  0
  3  4  1  0
  4  5  2  0
  5  6  1  0
  6  7  2  0
  7  8  1  0
  8  9  2  0
  8 10  2  0
  8 11  1  0
 11 12  1  0
 12 13  1  0
 13 14  1  0
 14 15  1  0
  7 16  1  0
 16 17  2  0
  2 18  1  0
 18 19  2  0
 19 20  1  0
 20 21  1  0
 21 22  2  0
 22 23  1  0
 23 24  1  0
 24 25  1  0
 25 26  1  0
 17  4  1  0
 22 18  1  0
 15 11  1  0
 26 21  1  0
  5 27  1  0
  6 28  1  0
 11 29  1  0
 12 30  1  0
 12 31  1  0
 13 32  1  0
 13 33  1  0
 14 34  1  0
 14 35  1  0
 15 36  1  0
 15 37  1  0
 16 38  1  0
 17 39  1  0
 23 40  1  0
 23 41  1  0
 24 42  1  0
 24 43  1  0
 25 44  1  0
 25 45  1  0
 26 46  1  0
 26 47  1  0
M  CHG  2   3  -1  11   1
M  END
>  <UniqueID>  (47) 
45

>  <SMILES>  (47) 
O=C([N-]c1ccc(S(=O)(=O)[NH+]2CCCC2)cc1)c1noc2c1CCCC2

>  <Energy>  (47) 
86.65297244016102

>  <Genealogy>  (47) 
O=C([N-]c1ccc(S(=O)(=O)[NH+]2CCCC2)cc1)c1noc2c1CCCC2 (protonated)
O=C([N-]c1ccc(S(=O)(=O)[NH+]2CCCC2)cc1)c1noc2c1CCCC2 (3D coordinates assigned)
O=C([N-]c1ccc(S(=O)(=O)[NH+]2CCCC2)cc1)c1noc2c1CCCC2 (nonaromatic ring conformer: 86.65297244016102 kcal/mol)

>  <smiles>  (47) 
O=C(Nc1ccc(S(=O)(=O)N2CCCC2)cc1)c1noc2c1CCCC2

>  <score_type>  (47) 
oracle

>  <origin>  (47) 
adgpu

>  <m_score__min__energy>  (47) 
-10.869999999999999

>  <m_primary>  (47) 
energy

$$$$
47:0
     RDKit          3D

 44 47  0  0  0  0  0  0  0  0999 V2000
   -3.4230   18.5180  -34.2250 C   0  0  0  0  0  0  0  0  0  0  0  0
   -4.8190   18.1770  -33.9680 N   0  0  0  0  0  0  0  0  0  0  0  0
   -5.6320   18.9160  -33.2760 C   0  0  0  0  0  0  0  0  0  0  0  0
   -5.2160   20.0950  -32.7320 N   0  0  0  0  0  0  0  0  0  0  0  0
   -6.0630   20.8720  -32.0090 C   0  0  0  0  0  0  0  0  0  0  0  0
   -5.6180   22.0800  -31.4620 C   0  0  0  0  0  0  0  0  0  0  0  0
   -6.5010   22.8850  -30.7250 C   0  0  0  0  0  0  0  0  0  0  0  0
   -5.9770   24.4380  -30.0810 S   0  0  0  0  0  0  0  0  0  0  0  0
   -5.1370   25.1310  -31.1150 O   0  0  0  0  0  0  0  0  0  0  0  0
   -7.1580   25.3070  -29.7470 O   0  0  0  0  0  0  0  0  0  0  0  0
   -5.0320   24.1840  -28.6460 N   0  0  0  0  0  0  0  0  0  0  0  0
   -3.8010   23.4380  -28.6370 C   0  0  0  0  0  0  0  0  0  0  0  0
   -3.7420   22.1400  -28.0990 C   0  0  0  0  0  0  0  0  0  0  0  0
   -2.5490   21.4040  -28.1280 C   0  0  0  0  0  0  0  0  0  0  0  0
   -1.3790   21.9920  -28.6480 C   0  0  0  0  0  0  0  0  0  0  0  0
   -1.4350   23.2880  -29.1780 C   0  0  0  0  0  0  0  0  0  0  0  0
   -2.6310   24.0090  -29.1690 C   0  0  0  0  0  0  0  0  0  0  0  0
   -2.6530   25.2920  -29.7060 O   0  0  0  0  0  0  0  0  0  0  0  0
   -0.0930   21.2030  -28.7380 C   0  0  0  0  0  0  0  0  0  0  0  0
   -0.0610   20.0750  -27.7970 N   0  0  0  0  0  0  0  0  0  0  0  0
   -1.2660   19.2470  -27.9360 C   0  0  0  0  0  0  0  0  0  0  0  0
   -2.5170   20.0270  -27.5160 C   0  0  0  0  0  0  0  0  0  0  0  0
   -7.8270   22.4700  -30.5330 C   0  0  0  0  0  0  0  0  0  0  0  0
   -8.2750   21.2620  -31.0750 C   0  0  0  0  0  0  0  0  0  0  0  0
   -7.3960   20.4600  -31.8160 C   0  0  0  0  0  0  0  0  0  0  0  0
   -7.8020   19.2490  -32.3820 C   0  0  0  0  0  0  0  0  0  0  0  0
   -6.9170   18.5060  -33.0970 N   0  0  0  0  0  0  0  0  0  0  0  0
   -2.8950   18.6470  -33.2687 H   0  0  0  0  0  0  0  0  0  0  0  0
   -2.9479   17.7095  -34.8000 H   0  0  0  0  0  0  0  0  0  0  0  0
   -3.3742   19.4545  -34.8000 H   0  0  0  0  0  0  0  0  0  0  0  0
   -4.5757   22.3994  -31.6094 H   0  0  0  0  0  0  0  0  0  0  0  0
   -5.3180   24.7170  -27.7950 H   0  0  0  0  0  0  0  0  0  0  0  0
   -4.6430   21.6967  -27.6499 H   0  0  0  0  0  0  0  0  0  0  0  0
   -0.5285   23.7417  -29.6051 H   0  0  0  0  0  0  0  0  0  0  0  0
    0.0111   20.8126  -29.7611 H   0  0  0  0  0  0  0  0  0  0  0  0
    0.7345   21.8797  -28.4787 H   0  0  0  0  0  0  0  0  0  0  0  0
   -0.0120   20.4490  -26.8200 H   0  0  0  0  0  0  0  0  0  0  0  0
   -1.3707   18.9368  -28.9861 H   0  0  0  0  0  0  0  0  0  0  0  0
   -1.1650   18.3670  -27.2837 H   0  0  0  0  0  0  0  0  0  0  0  0
   -3.4090   19.4717  -27.8416 H   0  0  0  0  0  0  0  0  0  0  0  0
   -2.4990   20.1392  -26.4219 H   0  0  0  0  0  0  0  0  0  0  0  0
   -8.5182   23.0988  -29.9526 H   0  0  0  0  0  0  0  0  0  0  0  0
   -9.3157   20.9412  -30.9203 H   0  0  0  0  0  0  0  0  0  0  0  0
   -8.8359   18.8977  -32.2491 H   0  0  0  0  0  0  0  0  0  0  0  0
  1  2  1  0
  2  3  2  3
  3  4  1  0
  4  5  2  0
  5  6  1  0
  6  7  2  0
  7  8  1  0
  8  9  2  0
  8 10  2  0
  8 11  1  0
 11 12  1  0
 12 13  2  0
 13 14  1  0
 14 15  2  0
 15 16  1  0
 16 17  2  0
 17 18  1  0
 15 19  1  0
 19 20  1  0
 20 21  1  0
 21 22  1  0
  7 23  1  0
 23 24  2  0
 24 25  1  0
 25 26  2  0
 26 27  1  0
 27  3  1  0
 25  5  1  0
 17 12  1  0
 22 14  1  0
  1 28  1  0
  1 29  1  0
  1 30  1  0
  6 31  1  0
 11 32  1  0
 13 33  1  0
 16 34  1  0
 19 35  1  0
 19 36  1  0
 20 37  1  0
 21 38  1  0
 21 39  1  0
 22 40  1  0
 22 41  1  0
 23 42  1  0
 24 43  1  0
 26 44  1  0
M  CHG  2  18  -1  27  -1
M  END
>  <UniqueID>  (48) 
46

>  <SMILES>  (48) 
CN=c1nc2cc(S(=O)(=O)Nc3cc4c(cc3[O-])CNCC4)ccc2c[n-]1

>  <Energy>  (48) 
54.719578304551554

>  <Genealogy>  (48) 
CN=c1nc2cc(S(=O)(=O)Nc3cc4c(cc3[O-])CNCC4)ccc2c[n-]1 (protonated)
CN=c1nc2cc(S(=O)(=O)Nc3cc4c(cc3[O-])CNCC4)ccc2c[n-]1 (3D coordinates assigned)
CN=c1nc2cc(S(=O)(=O)Nc3cc4c(cc3[O-])CNCC4)ccc2c[n-]1 (nonaromatic ring conformer: 54.719578304551554 kcal/mol)

>  <smiles>  (48) 
CN=c1nc2cc(S(=O)(=O)Nc3cc4c(cc3O)CNCC4)ccc2c[nH]1

>  <score_type>  (48) 
oracle

>  <origin>  (48) 
adgpu

>  <m_score__min__energy>  (48) 
-13.460000000000001

>  <m_primary>  (48) 
energy

$$$$
48:0
     RDKit          3D

 58 61  0  0  0  0  0  0  0  0999 V2000
   -1.7230   21.8570  -32.3280 O   0  0  0  0  0  0  0  0  0  0  0  0
   -2.2680   20.7230  -32.2420 C   0  0  0  0  0  0  0  0  0  0  0  0
   -2.0870   19.7280  -33.3460 C   0  0  0  0  0  0  0  0  0  0  0  0
   -2.9540   18.5580  -33.1460 N   0  0  0  0  0  0  0  0  0  0  0  0
   -4.1180   18.5420  -34.0490 C   0  0  0  0  0  0  0  0  0  0  0  0
   -5.4200   18.5650  -33.3000 C   0  0  0  0  0  0  0  0  0  0  0  0
   -6.4920   19.4100  -33.5570 C   0  0  0  0  0  0  0  0  0  0  0  0
   -7.5860   19.1830  -32.7140 C   0  0  0  0  0  0  0  0  0  0  0  0
   -7.3800   18.1580  -31.7980 C   0  0  0  0  0  0  0  0  0  0  0  0
   -5.8350   17.5360  -32.0370 S   0  0  0  0  0  0  0  0  0  0  0  0
   -3.0610   20.3870  -31.0960 N   0  0  0  0  0  0  0  0  0  0  0  0
   -3.4210   21.3680  -30.1210 C   0  0  0  0  0  0  0  0  0  0  0  0
   -4.3000   22.3890  -30.5080 C   0  0  0  0  0  0  0  0  0  0  0  0
   -4.6680   23.3960  -29.6130 C   0  0  0  0  0  0  0  0  0  0  0  0
   -5.7470   24.6830  -30.1410 S   0  0  0  0  0  0  0  0  0  0  0  0
   -6.0600   25.5720  -28.9710 O   0  0  0  0  0  0  0  0  0  0  0  0
   -5.0770   25.5080  -31.2070 O   0  0  0  0  0  0  0  0  0  0  0  0
   -7.2230   23.9770  -30.7500 N   0  0  0  0  0  0  0  0  0  0  0  0
   -7.6010   22.7920  -29.9810 C   0  0  0  0  0  0  0  0  0  0  0  0
   -8.4080   21.9080  -30.9180 C   0  0  0  0  0  0  0  0  0  0  0  0
   -8.0530   22.3760  -32.3210 C   0  0  0  0  0  0  0  0  0  0  0  0
   -7.0640   23.5160  -32.1280 C   0  0  0  0  0  0  0  0  0  0  0  0
   -4.1390   23.3950  -28.3220 C   0  0  0  0  0  0  0  0  0  0  0  0
   -3.2610   22.3860  -27.9210 C   0  0  0  0  0  0  0  0  0  0  0  0
   -2.8870   21.3490  -28.8030 C   0  0  0  0  0  0  0  0  0  0  0  0
   -1.9460   20.3360  -28.3580 N   0  0  0  0  0  0  0  0  0  0  0  0
   -2.2400   19.3860  -27.2910 C   0  0  0  0  0  0  0  0  0  0  0  0
   -0.9680   18.5750  -27.0940 C   0  0  0  0  0  0  0  0  0  0  0  0
   -0.1950   18.7300  -28.3940 C   0  0  0  0  0  0  0  0  0  0  0  0
   -0.6580   20.0560  -28.9790 C   0  0  0  0  0  0  0  0  0  0  0  0
   -2.3402   20.2040  -34.3048 H   0  0  0  0  0  0  0  0  0  0  0  0
   -1.0394   19.3925  -33.3480 H   0  0  0  0  0  0  0  0  0  0  0  0
   -2.3880   17.6930  -33.3070 H   0  0  0  0  0  0  0  0  0  0  0  0
   -4.0705   19.4250  -34.7033 H   0  0  0  0  0  0  0  0  0  0  0  0
   -4.0804   17.6091  -34.6306 H   0  0  0  0  0  0  0  0  0  0  0  0
   -6.4822   20.1794  -34.3431 H   0  0  0  0  0  0  0  0  0  0  0  0
   -8.5202   19.7609  -32.7710 H   0  0  0  0  0  0  0  0  0  0  0  0
   -8.1037   17.8124  -31.0452 H   0  0  0  0  0  0  0  0  0  0  0  0
   -3.4970   19.4400  -31.0370 H   0  0  0  0  0  0  0  0  0  0  0  0
   -4.7055   22.3972  -31.5305 H   0  0  0  0  0  0  0  0  0  0  0  0
   -6.7020   22.2597  -29.6368 H   0  0  0  0  0  0  0  0  0  0  0  0
   -8.1860   23.0658  -29.0906 H   0  0  0  0  0  0  0  0  0  0  0  0
   -8.1321   20.8517  -30.7834 H   0  0  0  0  0  0  0  0  0  0  0  0
   -9.4879   21.9836  -30.7227 H   0  0  0  0  0  0  0  0  0  0  0  0
   -7.5911   21.5586  -32.8941 H   0  0  0  0  0  0  0  0  0  0  0  0
   -8.9427   22.6967  -32.8828 H   0  0  0  0  0  0  0  0  0  0  0  0
   -6.0366   23.1593  -32.2929 H   0  0  0  0  0  0  0  0  0  0  0  0
   -7.2522   24.3302  -32.8433 H   0  0  0  0  0  0  0  0  0  0  0  0
   -4.4149   24.1928  -27.6167 H   0  0  0  0  0  0  0  0  0  0  0  0
   -2.8534   22.3994  -26.8994 H   0  0  0  0  0  0  0  0  0  0  0  0
   -2.5013   19.9192  -26.3650 H   0  0  0  0  0  0  0  0  0  0  0  0
   -3.0944   18.7422  -27.5470 H   0  0  0  0  0  0  0  0  0  0  0  0
   -0.3853   18.9697  -26.2486 H   0  0  0  0  0  0  0  0  0  0  0  0
   -1.1824   17.5207  -26.8648 H   0  0  0  0  0  0  0  0  0  0  0  0
    0.8873   18.7517  -28.1988 H   0  0  0  0  0  0  0  0  0  0  0  0
   -0.3769   17.8915  -29.0824 H   0  0  0  0  0  0  0  0  0  0  0  0
    0.0629   20.8521  -28.7413 H   0  0  0  0  0  0  0  0  0  0  0  0
   -0.7388   20.0087  -30.0750 H   0  0  0  0  0  0  0  0  0  0  0  0
  1  2  2  0
  2  3  1  0
  3  4  1  0
  4  5  1  0
  5  6  1  0
  6  7  2  0
  7  8  1  0
  8  9  2  0
  9 10  1  0
  2 11  1  0
 11 12  1  0
 12 13  2  0
 13 14  1  0
 14 15  1  0
 15 16  2  0
 15 17  2  0
 15 18  1  0
 18 19  1  0
 19 20  1  0
 20 21  1  0
 21 22  1  0
 14 23  2  0
 23 24  1  0
 24 25  2  0
 25 26  1  0
 26 27  1  0
 27 28  1  0
 28 29  1  0
 29 30  1  0
 10  6  1  0
 25 12  1  0
 30 26  1  0
 22 18  1  0
  3 31  1  0
  3 32  1  0
  4 33  1  0
  5 34  1  0
  5 35  1  0
  7 36  1  0
  8 37  1  0
  9 38  1  0
 11 39  1  0
 13 40  1  0
 19 41  1  0
 19 42  1  0
 20 43  1  0
 20 44  1  0
 21 45  1  0
 21 46  1  0
 22 47  1  0
 22 48  1  0
 23 49  1  0
 24 50  1  0
 27 51  1  0
 27 52  1  0
 28 53  1  0
 28 54  1  0
 29 55  1  0
 29 56  1  0
 30 57  1  0
 30 58  1  0
M  END
>  <UniqueID>  (49) 
47

>  <SMILES>  (49) 
O=C(CNCc1cccs1)Nc1cc(S(=O)(=O)N2CCCC2)ccc1N1CCCC1

>  <Energy>  (49) 
94.8808908023487

>  <Genealogy>  (49) 
O=C(CNCc1cccs1)Nc1cc(S(=O)(=O)N2CCCC2)ccc1N1CCCC1 (3D coordinates assigned)
O=C(CNCc1cccs1)Nc1cc(S(=O)(=O)N2CCCC2)ccc1N1CCCC1 (nonaromatic ring conformer: 94.8808908023487 kcal/mol)

>  <smiles>  (49) 
O=C(CNCc1cccs1)Nc1cc(S(=O)(=O)N2CCCC2)ccc1N1CCCC1

>  <score_type>  (49) 
oracle

>  <origin>  (49) 
adgpu

>  <m_score__min__energy>  (49) 
-10.07

>  <m_primary>  (49) 
energy

$$$$
