0:0
     RDKit          3D

 65 69  0  0  0  0  0  0  0  0999 V2000
   -8.8080   21.3570  -31.1140 C   0  0  0  0  0  0  0  0  0  0  0  0
   -7.9060   20.5220  -31.9070 N   0  0  0  0  0  0  0  0  0  0  0  0
   -8.0760   19.2180  -32.2410 C   0  0  0  0  0  0  0  0  0  0  0  0
   -9.1130   18.5580  -31.9580 O   0  0  0  0  0  0  0  0  0  0  0  0
   -7.0060   18.6900  -32.8850 N   0  0  0  0  0  0  0  0  0  0  0  0
   -6.7740   17.2920  -33.2320 C   0  0  0  0  0  0  0  0  0  0  0  0
   -6.1110   19.6990  -32.9150 C   0  0  0  0  0  0  0  0  0  0  0  0
   -4.7990   19.6860  -33.3900 C   0  0  0  0  0  0  0  0  0  0  0  0
   -4.0330   20.8600  -33.2510 C   0  0  0  0  0  0  0  0  0  0  0  0
   -2.3280   20.8940  -33.8240 S   0  0  0  0  0  0  0  0  0  0  0  0
   -2.0730   19.1210  -33.6070 C   0  0  0  0  0  0  0  0  0  0  0  0
   -2.6190   18.2710  -34.5810 C   0  0  0  0  0  0  0  0  0  0  0  0
   -2.4730   16.8870  -34.4840 C   0  0  0  0  0  0  0  0  0  0  0  0
   -1.7770   16.3350  -33.4110 C   0  0  0  0  0  0  0  0  0  0  0  0
   -1.2500   17.1640  -32.4170 C   0  0  0  0  0  0  0  0  0  0  0  0
   -1.4180   18.5620  -32.4780 C   0  0  0  0  0  0  0  0  0  0  0  0
   -0.9380   19.3870  -31.3390 C   0  0  0  0  0  0  0  0  0  0  0  0
    0.2930   19.4740  -31.0960 O   0  0  0  0  0  0  0  0  0  0  0  0
   -1.8460   20.0410  -30.4430 N   0  0  0  0  0  0  0  0  0  0  0  0
   -1.6230   21.2780  -29.7500 C   0  0  0  0  0  0  0  0  0  0  0  0
   -0.7120   21.2970  -28.6870 C   0  0  0  0  0  0  0  0  0  0  0  0
   -0.4490   22.4880  -28.0050 C   0  0  0  0  0  0  0  0  0  0  0  0
   -1.0850   23.6750  -28.3870 C   0  0  0  0  0  0  0  0  0  0  0  0
   -0.6930   25.1780  -27.5540 S   0  0  0  0  0  0  0  0  0  0  0  0
   -1.2660   26.3200  -28.3470 O   0  0  0  0  0  0  0  0  0  0  0  0
    0.7990   25.3480  -27.4950 O   0  0  0  0  0  0  0  0  0  0  0  0
   -1.4000   25.1560  -25.9500 N   0  0  0  0  0  0  0  0  0  0  0  0
   -0.4800   24.6110  -24.9250 C   0  0  0  0  0  0  0  0  0  0  0  0
    0.6040   25.6090  -24.4840 C   0  0  0  0  0  0  0  0  0  0  0  0
   -0.0200   26.9350  -24.0500 C   0  0  0  0  0  0  0  0  0  0  0  0
   -0.9170   27.4950  -25.1510 C   0  0  0  0  0  0  0  0  0  0  0  0
   -1.9760   26.4650  -25.5680 C   0  0  0  0  0  0  0  0  0  0  0  0
   -1.9800   23.6660  -29.4650 C   0  0  0  0  0  0  0  0  0  0  0  0
   -2.2450   22.4760  -30.1470 C   0  0  0  0  0  0  0  0  0  0  0  0
   -4.6100   22.0160  -32.6660 C   0  0  0  0  0  0  0  0  0  0  0  0
   -5.9300   21.9930  -32.1790 C   0  0  0  0  0  0  0  0  0  0  0  0
   -6.6550   20.8090  -32.3220 C   0  0  0  0  0  0  0  0  0  0  0  0
   -8.6215   21.1844  -30.0438 H   0  0  0  0  0  0  0  0  0  0  0  0
   -8.6303   22.4164  -31.3510 H   0  0  0  0  0  0  0  0  0  0  0  0
   -9.8505   21.0982  -31.3510 H   0  0  0  0  0  0  0  0  0  0  0  0
   -6.6753   16.6973  -32.3119 H   0  0  0  0  0  0  0  0  0  0  0  0
   -7.6219   16.9153  -33.8229 H   0  0  0  0  0  0  0  0  0  0  0  0
   -5.8499   17.2094  -33.8229 H   0  0  0  0  0  0  0  0  0  0  0  0
   -4.3754   18.7857  -33.8591 H   0  0  0  0  0  0  0  0  0  0  0  0
   -3.1687   18.7012  -35.4312 H   0  0  0  0  0  0  0  0  0  0  0  0
   -2.9070   16.2323  -35.2540 H   0  0  0  0  0  0  0  0  0  0  0  0
   -1.6420   15.2452  -33.3460 H   0  0  0  0  0  0  0  0  0  0  0  0
   -0.6970   16.7197  -31.5763 H   0  0  0  0  0  0  0  0  0  0  0  0
   -0.2009   20.3702  -28.3873 H   0  0  0  0  0  0  0  0  0  0  0  0
    0.2607   22.4927  -27.1646 H   0  0  0  0  0  0  0  0  0  0  0  0
   -2.2030   24.4870  -26.0150 H   0  0  0  0  0  0  0  0  0  0  0  0
   -1.0712   24.3258  -24.0423 H   0  0  0  0  0  0  0  0  0  0  0  0
    0.0355   23.7504  -25.3763 H   0  0  0  0  0  0  0  0  0  0  0  0
    1.1652   25.1816  -23.6399 H   0  0  0  0  0  0  0  0  0  0  0  0
    1.2750   25.7980  -25.3349 H   0  0  0  0  0  0  0  0  0  0  0  0
   -0.6206   26.7717  -23.1430 H   0  0  0  0  0  0  0  0  0  0  0  0
    0.7859   27.6563  -23.8493 H   0  0  0  0  0  0  0  0  0  0  0  0
   -1.4205   28.4001  -24.7804 H   0  0  0  0  0  0  0  0  0  0  0  0
   -0.2942   27.7341  -26.0256 H   0  0  0  0  0  0  0  0  0  0  0  0
   -2.6646   26.3107  -24.7241 H   0  0  0  0  0  0  0  0  0  0  0  0
   -2.4901   26.8661  -26.4539 H   0  0  0  0  0  0  0  0  0  0  0  0
   -2.4751   24.5981  -29.7750 H   0  0  0  0  0  0  0  0  0  0  0  0
   -2.9425   22.4755  -30.9976 H   0  0  0  0  0  0  0  0  0  0  0  0
   -4.0191   22.9409  -32.5922 H   0  0  0  0  0  0  0  0  0  0  0  0
   -6.3754   22.8783  -31.7017 H   0  0  0  0  0  0  0  0  0  0  0  0
  1  2  1  0
  2  3  1  0
  3  4  2  0
  3  5  1  0
  5  6  1  0
  5  7  1  0
  7  8  2  0
  8  9  1  0
  9 10  1  0
 10 11  1  0
 11 12  2  0
 12 13  1  0
 13 14  2  0
 14 15  1  0
 15 16  2  0
 16 17  1  0
 17 18  2  0
 17 19  1  0
 19 20  1  0
 20 21  2  0
 21 22  1  0
 22 23  2  0
 23 24  1  0
 24 25  2  0
 24 26  2  0
 24 27  1  0
 27 28  1  0
 28 29  1  0
 29 30  1  0
 30 31  1  0
 31 32  1  0
 23 33  1  0
 33 34  2  0
  9 35  2  0
 35 36  1  0
 36 37  2  0
 37  2  1  0
 37  7  1  0
 16 11  1  0
 34 20  1  0
 32 27  1  0
  1 38  1  0
  1 39  1  0
  1 40  1  0
  6 41  1  0
  6 42  1  0
  6 43  1  0
  8 44  1  0
 12 45  1  0
 13 46  1  0
 14 47  1  0
 15 48  1  0
 21 49  1  0
 22 50  1  0
 27 51  1  0
 28 52  1  0
 28 53  1  0
 29 54  1  0
 29 55  1  0
 30 56  1  0
 30 57  1  0
 31 58  1  0
 31 59  1  0
 32 60  1  0
 32 61  1  0
 33 62  1  0
 34 63  1  0
 35 64  1  0
 36 65  1  0
M  CHG  2  19  -1  27   1
M  END
>  <UniqueID>  (1) 
1

>  <SMILES>  (1) 
Cn1c(=O)n(C)c2cc(Sc3ccccc3C(=O)[N-]c3ccc(S(=O)(=O)[NH+]4CCCCC4)cc3)ccc21

>  <Energy>  (1) 
116.24473999552116

>  <Genealogy>  (1) 
Cn1c(=O)n(C)c2cc(Sc3ccccc3C(=O)[N-]c3ccc(S(=O)(=O)[NH+]4CCCCC4)cc3)ccc21 (protonated)
Cn1c(=O)n(C)c2cc(Sc3ccccc3C(=O)[N-]c3ccc(S(=O)(=O)[NH+]4CCCCC4)cc3)ccc21 (3D coordinates assigned)
Cn1c(=O)n(C)c2cc(Sc3ccccc3C(=O)[N-]c3ccc(S(=O)(=O)[NH+]4CCCCC4)cc3)ccc21 (nonaromatic ring conformer: 116.24473999552116 kcal/mol)

>  <smiles>  (1) 
Cn1c(=O)n(C)c2cc(Sc3ccccc3C(=O)Nc3ccc(S(=O)(=O)N4CCCCC4)cc3)ccc21

>  <score_type>  (1) 
oracle

>  <origin>  (1) 
adgpu

>  <m_score__min__energy>  (1) 
-12.85

>  <m_primary>  (1) 
energy

$$$$
1:0
     RDKit          3D

 44 47  0  0  0  0  0  0  0  0999 V2000
   -1.6740   22.6240  -30.4410 C   0  0  0  0  0  0  0  0  0  0  0  0
   -2.9580   23.2950  -30.2520 N   0  0  0  0  0  0  0  0  0  0  0  0
   -3.1620   24.5490  -29.7780 C   0  0  0  0  0  0  0  0  0  0  0  0
   -2.1440   25.3870  -29.3410 O   0  0  0  0  0  0  0  0  0  0  0  0
   -4.5090   24.8870  -29.7930 C   0  0  0  0  0  0  0  0  0  0  0  0
   -5.1400   23.7770  -30.3170 C   0  0  0  0  0  0  0  0  0  0  0  0
   -6.4870   23.5510  -30.5830 C   0  0  0  0  0  0  0  0  0  0  0  0
   -6.8540   22.3140  -31.1450 C   0  0  0  0  0  0  0  0  0  0  0  0
   -8.5460   22.0030  -31.5180 S   0  0  0  0  0  0  0  0  0  0  0  0
   -9.2900   21.5320  -30.3000 O   0  0  0  0  0  0  0  0  0  0  0  0
   -9.1760   23.2760  -32.0070 O   0  0  0  0  0  0  0  0  0  0  0  0
   -8.6570   20.7980  -32.7600 N   0  0  0  0  0  0  0  0  0  0  0  0
   -7.8400   19.6210  -32.8490 C   0  0  0  0  0  0  0  0  0  0  0  0
   -6.8550   19.4750  -33.8440 C   0  0  0  0  0  0  0  0  0  0  0  0
   -6.0700   18.3150  -33.8980 C   0  0  0  0  0  0  0  0  0  0  0  0
   -6.2630   17.2920  -32.9580 C   0  0  0  0  0  0  0  0  0  0  0  0
   -7.2520   17.4300  -31.9750 C   0  0  0  0  0  0  0  0  0  0  0  0
   -8.0330   18.5920  -31.9140 C   0  0  0  0  0  0  0  0  0  0  0  0
   -9.0070   18.7300  -30.9270 O   0  0  0  0  0  0  0  0  0  0  0  0
   -5.4660   16.0190  -33.0830 C   0  0  0  0  0  0  0  0  0  0  0  0
   -4.0000   16.2620  -33.5130 C   0  0  0  0  0  0  0  0  0  0  0  0
   -3.7510   17.5550  -34.3270 C   0  0  0  0  0  0  0  0  0  0  0  0
   -5.0220   18.1310  -34.9600 C   0  0  0  0  0  0  0  0  0  0  0  0
   -5.8630   21.3410  -31.4260 C   0  0  0  0  0  0  0  0  0  0  0  0
   -4.5080   21.6000  -31.1520 C   0  0  0  0  0  0  0  0  0  0  0  0
   -4.1790   22.8350  -30.5890 C   0  0  0  0  0  0  0  0  0  0  0  0
   -1.2329   22.3935  -29.4601 H   0  0  0  0  0  0  0  0  0  0  0  0
   -1.8272   21.6907  -31.0026 H   0  0  0  0  0  0  0  0  0  0  0  0
   -0.9952   23.2827  -31.0026 H   0  0  0  0  0  0  0  0  0  0  0  0
   -4.9700   25.8290  -29.4613 H   0  0  0  0  0  0  0  0  0  0  0  0
   -7.2437   24.3176  -30.3603 H   0  0  0  0  0  0  0  0  0  0  0  0
   -6.7006   20.2752  -34.5828 H   0  0  0  0  0  0  0  0  0  0  0  0
   -7.4163   16.6218  -31.2472 H   0  0  0  0  0  0  0  0  0  0  0  0
   -9.4890   19.6070  -30.7760 H   0  0  0  0  0  0  0  0  0  0  0  0
   -5.4652   15.5091  -32.1083 H   0  0  0  0  0  0  0  0  0  0  0  0
   -5.9412   15.4094  -33.8657 H   0  0  0  0  0  0  0  0  0  0  0  0
   -3.3833   16.3099  -32.6034 H   0  0  0  0  0  0  0  0  0  0  0  0
   -3.7388   15.4286  -34.1817 H   0  0  0  0  0  0  0  0  0  0  0  0
   -3.3222   18.3128  -33.6548 H   0  0  0  0  0  0  0  0  0  0  0  0
   -3.0687   17.2941  -35.1494 H   0  0  0  0  0  0  0  0  0  0  0  0
   -4.7937   19.1026  -35.4225 H   0  0  0  0  0  0  0  0  0  0  0  0
   -5.3957   17.4386  -35.7287 H   0  0  0  0  0  0  0  0  0  0  0  0
   -6.1560   20.3746  -31.8623 H   0  0  0  0  0  0  0  0  0  0  0  0
   -3.7316   20.8531  -31.3742 H   0  0  0  0  0  0  0  0  0  0  0  0
  1  2  1  0
  2  3  1  0
  3  4  1  0
  3  5  2  0
  5  6  1  0
  6  7  2  0
  7  8  1  0
  8  9  1  0
  9 10  2  0
  9 11  2  0
  9 12  1  0
 12 13  1  0
 13 14  2  0
 14 15  1  0
 15 16  2  0
 16 17  1  0
 17 18  2  0
 18 19  1  0
 16 20  1  0
 20 21  1  0
 21 22  1  0
 22 23  1  0
  8 24  2  0
 24 25  1  0
 25 26  2  0
 26  2  1  0
 26  6  1  0
 18 13  1  0
 23 15  1  0
  1 27  1  0
  1 28  1  0
  1 29  1  0
  5 30  1  0
  7 31  1  0
 14 32  1  0
 17 33  1  0
 19 34  1  0
 20 35  1  0
 20 36  1  0
 21 37  1  0
 21 38  1  0
 22 39  1  0
 22 40  1  0
 23 41  1  0
 23 42  1  0
 24 43  1  0
 25 44  1  0
M  CHG  2   4  -1  12  -1
M  END
>  <UniqueID>  (2) 
2

>  <SMILES>  (2) 
Cn1c([O-])cc2cc(S(=O)(=O)[N-]c3cc4c(cc3O)CCCC4)ccc21

>  <Energy>  (2) 
88.44196495375353

>  <Genealogy>  (2) 
Cn1c([O-])cc2cc(S(=O)(=O)[N-]c3cc4c(cc3O)CCCC4)ccc21 (protonated)
Cn1c([O-])cc2cc(S(=O)(=O)[N-]c3cc4c(cc3O)CCCC4)ccc21 (3D coordinates assigned)
Cn1c([O-])cc2cc(S(=O)(=O)[N-]c3cc4c(cc3O)CCCC4)ccc21 (nonaromatic ring conformer: 88.44196495375353 kcal/mol)

>  <smiles>  (2) 
Cn1c(O)cc2cc(S(=O)(=O)Nc3cc4c(cc3O)CCCC4)ccc21

>  <score_type>  (2) 
oracle

>  <origin>  (2) 
adgpu

>  <m_score__min__energy>  (2) 
-11.550000000000001

>  <m_primary>  (2) 
energy

$$$$
2:0
     RDKit          3D

 46 49  0  0  0  0  0  0  0  0999 V2000
   -5.6850   26.5420  -30.4260 O   0  0  0  0  0  0  0  0  0  0  0  0
   -5.2810   25.1510  -30.0230 S   0  0  0  0  0  0  0  0  0  0  0  0
   -5.3600   25.0380  -28.5270 O   0  0  0  0  0  0  0  0  0  0  0  0
   -3.6490   24.8640  -30.5320 N   0  0  0  0  0  0  0  0  0  0  0  0
   -2.8150   23.7810  -30.0940 C   0  0  0  0  0  0  0  0  0  0  0  0
   -2.5860   22.6550  -30.9080 C   0  0  0  0  0  0  0  0  0  0  0  0
   -1.7240   21.6200  -30.4940 C   0  0  0  0  0  0  0  0  0  0  0  0
   -1.4490   20.4880  -31.3120 C   0  0  0  0  0  0  0  0  0  0  0  0
   -2.1710   20.2670  -32.9250 S   0  0  0  0  0  0  0  0  0  0  0  0
   -2.1420   21.5670  -33.6840 O   0  0  0  0  0  0  0  0  0  0  0  0
   -1.3490   19.2520  -33.6740 O   0  0  0  0  0  0  0  0  0  0  0  0
   -3.8530   19.7350  -32.8510 C   0  0  0  0  0  0  0  0  0  0  0  0
   -4.6050   19.9990  -31.6980 C   0  0  0  0  0  0  0  0  0  0  0  0
   -5.9360   19.5810  -31.6150 C   0  0  0  0  0  0  0  0  0  0  0  0
   -6.5190   18.8930  -32.6810 C   0  0  0  0  0  0  0  0  0  0  0  0
   -5.7720   18.6190  -33.8300 C   0  0  0  0  0  0  0  0  0  0  0  0
   -4.4380   19.0290  -33.9120 C   0  0  0  0  0  0  0  0  0  0  0  0
   -0.5810   19.4910  -30.8340 C   0  0  0  0  0  0  0  0  0  0  0  0
    0.0070   19.5960  -29.5750 C   0  0  0  0  0  0  0  0  0  0  0  0
   -0.2550   20.7020  -28.7670 C   0  0  0  0  0  0  0  0  0  0  0  0
   -1.1120   21.7170  -29.2170 C   0  0  0  0  0  0  0  0  0  0  0  0
   -1.3650   22.8280  -28.3990 C   0  0  0  0  0  0  0  0  0  0  0  0
   -2.2040   23.8560  -28.8310 C   0  0  0  0  0  0  0  0  0  0  0  0
   -2.4130   24.9490  -27.9860 O   0  0  0  0  0  0  0  0  0  0  0  0
   -6.3610   23.9610  -30.7460 C   0  0  0  0  0  0  0  0  0  0  0  0
   -6.3950   23.7840  -32.1370 C   0  0  0  0  0  0  0  0  0  0  0  0
   -7.2230   22.8080  -32.7000 C   0  0  0  0  0  0  0  0  0  0  0  0
   -8.0360   22.0210  -31.8770 C   0  0  0  0  0  0  0  0  0  0  0  0
   -8.0100   22.1990  -30.4910 C   0  0  0  0  0  0  0  0  0  0  0  0
   -7.1710   23.1640  -29.9260 C   0  0  0  0  0  0  0  0  0  0  0  0
   -3.0886   22.5821  -31.8837 H   0  0  0  0  0  0  0  0  0  0  0  0
   -4.1460   20.5371  -30.8555 H   0  0  0  0  0  0  0  0  0  0  0  0
   -6.5241   19.7939  -30.7101 H   0  0  0  0  0  0  0  0  0  0  0  0
   -7.5674   18.5663  -32.6164 H   0  0  0  0  0  0  0  0  0  0  0  0
   -6.2341   18.0803  -34.6704 H   0  0  0  0  0  0  0  0  0  0  0  0
   -3.8464   18.7975  -34.8100 H   0  0  0  0  0  0  0  0  0  0  0  0
   -0.3628   18.6153  -31.4629 H   0  0  0  0  0  0  0  0  0  0  0  0
    0.6805   18.8033  -29.2171 H   0  0  0  0  0  0  0  0  0  0  0  0
    0.2118   20.7786  -27.7739 H   0  0  0  0  0  0  0  0  0  0  0  0
   -0.8967   22.8896  -27.4056 H   0  0  0  0  0  0  0  0  0  0  0  0
   -3.2940   25.4440  -27.9510 H   0  0  0  0  0  0  0  0  0  0  0  0
   -5.7692   24.4141  -32.7861 H   0  0  0  0  0  0  0  0  0  0  0  0
   -7.2352   22.6589  -33.7898 H   0  0  0  0  0  0  0  0  0  0  0  0
   -8.6962   21.2615  -32.3212 H   0  0  0  0  0  0  0  0  0  0  0  0
   -8.6496   21.5799  -29.8448 H   0  0  0  0  0  0  0  0  0  0  0  0
   -7.1466   23.2981  -28.8345 H   0  0  0  0  0  0  0  0  0  0  0  0
  1  2  2  0
  2  3  2  0
  2  4  1  0
  4  5  1  0
  5  6  2  0
  6  7  1  0
  7  8  2  0
  8  9  1  0
  9 10  2  0
  9 11  2  0
  9 12  1  0
 12 13  2  0
 13 14  1  0
 14 15  2  0
 15 16  1  0
 16 17  2  0
  8 18  1  0
 18 19  2  0
 19 20  1  0
 20 21  2  0
 21 22  1  0
 22 23  2  0
 23 24  1  0
  2 25  1  0
 25 26  2  0
 26 27  1  0
 27 28  2  0
 28 29  1  0
 29 30  2  0
 23  5  1  0
 30 25  1  0
 21  7  1  0
 17 12  1  0
  6 31  1  0
 13 32  1  0
 14 33  1  0
 15 34  1  0
 16 35  1  0
 17 36  1  0
 18 37  1  0
 19 38  1  0
 20 39  1  0
 22 40  1  0
 24 41  1  0
 26 42  1  0
 27 43  1  0
 28 44  1  0
 29 45  1  0
 30 46  1  0
M  CHG  1   4  -1
M  END
>  <UniqueID>  (3) 
3

>  <SMILES>  (3) 
O=S(=O)([N-]c1cc2c(S(=O)(=O)c3ccccc3)cccc2cc1O)c1ccccc1

>  <Energy>  (3) 
58.98135078219616

>  <Genealogy>  (3) 
O=S(=O)([N-]c1cc2c(S(=O)(=O)c3ccccc3)cccc2cc1O)c1ccccc1 (protonated)
O=S(=O)([N-]c1cc2c(S(=O)(=O)c3ccccc3)cccc2cc1O)c1ccccc1 (3D coordinates assigned)
O=S(=O)([N-]c1cc2c(S(=O)(=O)c3ccccc3)cccc2cc1O)c1ccccc1 (optimized conformer: 58.98135078219616 kcal/mol)

>  <smiles>  (3) 
O=S(=O)(Nc1cc2c(S(=O)(=O)c3ccccc3)cccc2cc1O)c1ccccc1

>  <score_type>  (3) 
oracle

>  <origin>  (3) 
adgpu

>  <m_score__min__energy>  (3) 
-12.17

>  <m_primary>  (3) 
energy

$$$$
3:0
     RDKit          3D

 59 62  0  0  0  0  0  0  0  0999 V2000
   -6.4720   18.8500  -34.8590 N   0  0  0  0  0  0  0  0  0  0  0  0
   -6.2710   18.5760  -33.4270 C   0  0  2  0  0  0  0  0  0  0  0  0
   -7.6070   18.6630  -32.6690 C   0  0  0  0  0  0  0  0  0  0  0  0
   -8.1910   20.0740  -32.7600 C   0  0  0  0  0  0  0  0  0  0  0  0
   -7.1920   21.1310  -32.3570 C   0  0  0  0  0  0  0  0  0  0  0  0
   -7.6800   22.3920  -31.9840 C   0  0  0  0  0  0  0  0  0  0  0  0
   -6.8130   23.3880  -31.5390 C   0  0  0  0  0  0  0  0  0  0  0  0
   -5.4380   23.1290  -31.4330 C   0  0  0  0  0  0  0  0  0  0  0  0
   -4.5240   24.0910  -30.9790 O   0  0  0  0  0  0  0  0  0  0  0  0
   -3.2930   23.7860  -30.3290 C   0  0  0  0  0  0  0  0  0  0  0  0
   -3.1280   24.6820  -29.1050 C   0  0  0  0  0  0  0  0  0  0  0  0
   -1.8020   25.3050  -29.1100 N   0  0  0  0  0  0  0  0  0  0  0  0
   -0.7550   24.5570  -27.9360 S   0  0  0  0  0  0  0  0  0  0  0  0
    0.6430   24.4990  -28.4890 O   0  0  0  0  0  0  0  0  0  0  0  0
   -1.2170   23.1510  -27.6820 O   0  0  0  0  0  0  0  0  0  0  0  0
   -0.7680   25.4690  -26.4170 C   0  0  0  0  0  0  0  0  0  0  0  0
   -1.1710   26.8150  -26.4270 C   0  0  0  0  0  0  0  0  0  0  0  0
   -1.2310   27.5480  -25.2370 C   0  0  0  0  0  0  0  0  0  0  0  0
   -0.8910   26.9440  -24.0260 C   0  0  0  0  0  0  0  0  0  0  0  0
   -0.4930   25.6030  -24.0010 C   0  0  0  0  0  0  0  0  0  0  0  0
   -0.4330   24.8590  -25.1880 C   0  0  0  0  0  0  0  0  0  0  0  0
    0.0170   23.1590  -25.0810 Cl  0  0  0  0  0  0  0  0  0  0  0  0
   -4.9480   21.8740  -31.8030 C   0  0  0  0  0  0  0  0  0  0  0  0
   -5.7930   20.8890  -32.3580 C   0  0  0  0  0  0  0  0  0  0  0  0
   -5.2250   19.5210  -32.7490 C   0  0  2  0  0  0  0  0  0  0  0  0
   -3.8380   19.5390  -33.4670 C   0  0  0  0  0  0  0  0  0  0  0  0
   -3.2150   18.2010  -33.8290 C   0  0  0  0  0  0  0  0  0  0  0  0
   -2.1850   17.6250  -33.0600 C   0  0  0  0  0  0  0  0  0  0  0  0
   -1.6500   16.3800  -33.4080 C   0  0  0  0  0  0  0  0  0  0  0  0
   -2.1550   15.6800  -34.5070 C   0  0  0  0  0  0  0  0  0  0  0  0
   -3.2020   16.2210  -35.2540 C   0  0  0  0  0  0  0  0  0  0  0  0
   -3.7370   17.4670  -34.9140 C   0  0  0  0  0  0  0  0  0  0  0  0
   -6.8590   18.0170  -35.3570 H   0  0  0  0  0  0  0  0  0  0  0  0
   -5.5690   19.1200  -35.3130 H   0  0  0  0  0  0  0  0  0  0  0  0
   -7.1110   19.6670  -34.9770 H   0  0  0  0  0  0  0  0  0  0  0  0
   -5.8656   17.5550  -33.3705 H   0  0  0  0  0  0  0  0  0  0  0  0
   -8.3187   17.9489  -33.1089 H   0  0  0  0  0  0  0  0  0  0  0  0
   -7.4288   18.4222  -31.6106 H   0  0  0  0  0  0  0  0  0  0  0  0
   -8.5057   20.2610  -33.7973 H   0  0  0  0  0  0  0  0  0  0  0  0
   -9.0430   20.1324  -32.0667 H   0  0  0  0  0  0  0  0  0  0  0  0
   -8.7591   22.5970  -32.0434 H   0  0  0  0  0  0  0  0  0  0  0  0
   -7.2072   24.3792  -31.2703 H   0  0  0  0  0  0  0  0  0  0  0  0
   -3.2960   22.7321  -30.0141 H   0  0  0  0  0  0  0  0  0  0  0  0
   -2.4586   23.9586  -31.0247 H   0  0  0  0  0  0  0  0  0  0  0  0
   -3.8985   25.4669  -29.1226 H   0  0  0  0  0  0  0  0  0  0  0  0
   -3.2348   24.0718  -28.1960 H   0  0  0  0  0  0  0  0  0  0  0  0
   -1.4415   27.2963  -27.3784 H   0  0  0  0  0  0  0  0  0  0  0  0
   -1.5465   28.6016  -25.2560 H   0  0  0  0  0  0  0  0  0  0  0  0
   -0.9359   27.5221  -23.0912 H   0  0  0  0  0  0  0  0  0  0  0  0
   -0.2256   25.1296  -23.0447 H   0  0  0  0  0  0  0  0  0  0  0  0
   -3.8810   21.6488  -31.6587 H   0  0  0  0  0  0  0  0  0  0  0  0
   -4.9940   19.0629  -31.7760 H   0  0  0  0  0  0  0  0  0  0  0  0
   -3.9579   20.1092  -34.4000 H   0  0  0  0  0  0  0  0  0  0  0  0
   -3.1484   19.9778  -32.7309 H   0  0  0  0  0  0  0  0  0  0  0  0
   -1.7983   18.1582  -32.1790 H   0  0  0  0  0  0  0  0  0  0  0  0
   -0.8292   15.9508  -32.8146 H   0  0  0  0  0  0  0  0  0  0  0  0
   -1.7280   14.7045  -34.7826 H   0  0  0  0  0  0  0  0  0  0  0  0
   -3.6075   15.6657  -36.1126 H   0  0  0  0  0  0  0  0  0  0  0  0
   -4.5731   17.8787  -35.4984 H   0  0  0  0  0  0  0  0  0  0  0  0
  1  2  1  0
  2  3  1  0
  3  4  1  0
  4  5  1  0
  5  6  2  0
  6  7  1  0
  7  8  2  0
  8  9  1  0
  9 10  1  0
 10 11  1  0
 11 12  1  0
 12 13  1  0
 13 14  2  0
 13 15  2  0
 13 16  1  0
 16 17  2  0
 17 18  1  0
 18 19  2  0
 19 20  1  0
 20 21  2  0
 21 22  1  0
  8 23  1  0
 23 24  2  0
 24 25  1  0
 25 26  1  0
 26 27  1  0
 27 28  2  0
 28 29  1  0
 29 30  2  0
 30 31  1  0
 31 32  2  0
 25  2  1  0
 32 27  1  0
 24  5  1  0
 21 16  1  0
  1 33  1  0
  1 34  1  0
  1 35  1  0
  2 36  1  6
  3 37  1  0
  3 38  1  0
  4 39  1  0
  4 40  1  0
  6 41  1  0
  7 42  1  0
 10 43  1  0
 10 44  1  0
 11 45  1  0
 11 46  1  0
 17 47  1  0
 18 48  1  0
 19 49  1  0
 20 50  1  0
 23 51  1  0
 25 52  1  1
 26 53  1  0
 26 54  1  0
 28 55  1  0
 29 56  1  0
 30 57  1  0
 31 58  1  0
 32 59  1  0
M  CHG  2   1   1  12  -1
M  END
>  <UniqueID>  (4) 
4

>  <SMILES>  (4) 
[NH3+][C@@H]1CCc2ccc(OCC[N-]S(=O)(=O)c3ccccc3Cl)cc2[C@@H]1Cc1ccccc1

>  <Energy>  (4) 
70.01360935027722

>  <Genealogy>  (4) 
[NH3+]C1CCc2ccc(OCC[N-]S(=O)(=O)c3ccccc3Cl)cc2C1Cc1ccccc1 (protonated)
[NH3+][C@@H]1CCc2ccc(OCC[N-]S(=O)(=O)c3ccccc3Cl)cc2[C@@H]1Cc1ccccc1 (chirality)
[NH3+][C@@H]1CCc2ccc(OCC[N-]S(=O)(=O)c3ccccc3Cl)cc2[C@@H]1Cc1ccccc1 (3D coordinates assigned)
[NH3+][C@@H]1CCc2ccc(OCC[N-]S(=O)(=O)c3ccccc3Cl)cc2[C@@H]1Cc1ccccc1 (nonaromatic ring conformer: 70.01360935027722 kcal/mol)

>  <smiles>  (4) 
NC1CCc2ccc(OCCNS(=O)(=O)c3ccccc3Cl)cc2C1Cc1ccccc1

>  <score_type>  (4) 
oracle

>  <origin>  (4) 
adgpu

>  <m_score__min__energy>  (4) 
-11.69

>  <m_primary>  (4) 
energy

$$$$
4:0
     RDKit          3D

 48 51  0  0  0  0  0  0  0  0999 V2000
    0.8810   24.4950  -25.7470 C   0  0  0  0  0  0  0  0  0  0  0  0
   -0.4210   23.9660  -25.3070 N   0  0  0  0  0  0  0  0  0  0  0  0
   -0.5090   22.4990  -25.4370 C   0  0  0  0  0  0  0  0  0  0  0  0
   -0.4560   22.0290  -26.8990 C   0  0  0  0  0  0  0  0  0  0  0  0
   -1.2850   22.8920  -27.8150 C   0  0  0  0  0  0  0  0  0  0  0  0
   -1.5170   22.4630  -29.1300 C   0  0  0  0  0  0  0  0  0  0  0  0
   -2.2550   23.2600  -30.0250 C   0  0  0  0  0  0  0  0  0  0  0  0
   -2.5090   22.8490  -31.3760 N   0  0  0  0  0  0  0  0  0  0  0  0
   -2.9580   21.2510  -31.8750 S   0  0  0  0  0  0  0  0  0  0  0  0
   -2.3850   20.2480  -30.9140 O   0  0  0  0  0  0  0  0  0  0  0  0
   -2.3820   20.9840  -33.2370 O   0  0  0  0  0  0  0  0  0  0  0  0
   -4.7110   21.1120  -31.9630 C   0  0  0  0  0  0  0  0  0  0  0  0
   -5.4940   22.2700  -32.0240 C   0  0  0  0  0  0  0  0  0  0  0  0
   -6.8820   22.1760  -32.1310 C   0  0  0  0  0  0  0  0  0  0  0  0
   -7.5100   20.9220  -32.1820 C   0  0  0  0  0  0  0  0  0  0  0  0
   -6.7280   19.7470  -32.0730 C   0  0  0  0  0  0  0  0  0  0  0  0
   -5.3300   19.8550  -31.9890 C   0  0  0  0  0  0  0  0  0  0  0  0
   -7.3450   18.3710  -32.1730 C   0  0  0  0  0  0  0  0  0  0  0  0
   -8.8570   18.3770  -31.9260 C   0  0  0  0  0  0  0  0  0  0  0  0
   -9.5260   19.4960  -32.7220 C   0  0  0  0  0  0  0  0  0  0  0  0
   -9.0180   20.8600  -32.2490 C   0  0  0  0  0  0  0  0  0  0  0  0
   -2.7510   24.4950  -29.5910 C   0  0  0  0  0  0  0  0  0  0  0  0
   -3.4870   25.2960  -30.4590 O   0  0  0  0  0  0  0  0  0  0  0  0
   -2.5040   24.9390  -28.2900 C   0  0  0  0  0  0  0  0  0  0  0  0
   -1.7540   24.1540  -27.4000 C   0  0  0  0  0  0  0  0  0  0  0  0
   -1.5480   24.6350  -25.9830 C   0  0  0  0  0  0  0  0  0  0  0  0
    1.4923   24.7434  -24.8668 H   0  0  0  0  0  0  0  0  0  0  0  0
    1.3997   23.7363  -26.3514 H   0  0  0  0  0  0  0  0  0  0  0  0
    0.7236   25.4005  -26.3514 H   0  0  0  0  0  0  0  0  0  0  0  0
    0.3318   22.0463  -24.8911 H   0  0  0  0  0  0  0  0  0  0  0  0
   -1.4787   22.1863  -25.0224 H   0  0  0  0  0  0  0  0  0  0  0  0
    0.5894   22.0558  -27.2401 H   0  0  0  0  0  0  0  0  0  0  0  0
   -0.8688   21.0101  -26.9368 H   0  0  0  0  0  0  0  0  0  0  0  0
   -1.1183   21.4941  -29.4651 H   0  0  0  0  0  0  0  0  0  0  0  0
   -5.0133   23.2587  -31.9874 H   0  0  0  0  0  0  0  0  0  0  0  0
   -7.4890   23.0923  -32.1757 H   0  0  0  0  0  0  0  0  0  0  0  0
   -4.7151   18.9440  -31.9432 H   0  0  0  0  0  0  0  0  0  0  0  0
   -7.1555   17.9736  -33.1811 H   0  0  0  0  0  0  0  0  0  0  0  0
   -6.8854   17.7454  -31.3937 H   0  0  0  0  0  0  0  0  0  0  0  0
   -9.2783   17.4098  -32.2375 H   0  0  0  0  0  0  0  0  0  0  0  0
   -9.0412   18.5442  -30.8545 H   0  0  0  0  0  0  0  0  0  0  0  0
   -9.2922   19.3718  -33.7897 H   0  0  0  0  0  0  0  0  0  0  0  0
  -10.6138   19.4453  -32.5665 H   0  0  0  0  0  0  0  0  0  0  0  0
   -9.3724   21.6310  -32.9490 H   0  0  0  0  0  0  0  0  0  0  0  0
   -9.4058   21.0283  -31.2335 H   0  0  0  0  0  0  0  0  0  0  0  0
   -2.9000   25.9108  -27.9603 H   0  0  0  0  0  0  0  0  0  0  0  0
   -1.3515   25.7171  -26.0049 H   0  0  0  0  0  0  0  0  0  0  0  0
   -2.4607   24.3955  -25.4176 H   0  0  0  0  0  0  0  0  0  0  0  0
  1  2  1  0
  2  3  1  0
  3  4  1  0
  4  5  1  0
  5  6  2  0
  6  7  1  0
  7  8  1  0
  8  9  1  0
  9 10  2  0
  9 11  2  0
  9 12  1  0
 12 13  2  0
 13 14  1  0
 14 15  2  0
 15 16  1  0
 16 17  2  0
 16 18  1  0
 18 19  1  0
 19 20  1  0
 20 21  1  0
  7 22  2  0
 22 23  1  0
 22 24  1  0
 24 25  2  0
 25 26  1  0
 26  2  1  0
 25  5  1  0
 17 12  1  0
 21 15  1  0
  1 27  1  0
  1 28  1  0
  1 29  1  0
  3 30  1  0
  3 31  1  0
  4 32  1  0
  4 33  1  0
  6 34  1  0
 13 35  1  0
 14 36  1  0
 17 37  1  0
 18 38  1  0
 18 39  1  0
 19 40  1  0
 19 41  1  0
 20 42  1  0
 20 43  1  0
 21 44  1  0
 21 45  1  0
 24 46  1  0
 26 47  1  0
 26 48  1  0
M  CHG  2   8  -1  23  -1
M  END
>  <UniqueID>  (5) 
5

>  <SMILES>  (5) 
CN1CCc2cc([N-]S(=O)(=O)c3ccc4c(c3)CCCC4)c([O-])cc2C1

>  <Energy>  (5) 
58.13937880842085

>  <Genealogy>  (5) 
CN1CCc2cc([N-]S(=O)(=O)c3ccc4c(c3)CCCC4)c([O-])cc2C1 (protonated)
CN1CCc2cc([N-]S(=O)(=O)c3ccc4c(c3)CCCC4)c([O-])cc2C1 (3D coordinates assigned)
CN1CCc2cc([N-]S(=O)(=O)c3ccc4c(c3)CCCC4)c([O-])cc2C1 (nonaromatic ring conformer: 58.13937880842085 kcal/mol)

>  <smiles>  (5) 
CN1CCc2cc(NS(=O)(=O)c3ccc4c(c3)CCCC4)c(O)cc2C1

>  <score_type>  (5) 
oracle

>  <origin>  (5) 
adgpu

>  <m_score__min__energy>  (5) 
-15.369999999999999

>  <m_primary>  (5) 
energy

$$$$
5:0
     RDKit          3D

 41 43  0  0  1  0  0  0  0  0999 V2000
   -1.4170   25.9620  -25.0190 C   0  0  0  0  0  0  0  0  0  0  0  0
   -0.1810   25.2210  -24.7420 N   0  0  0  0  0  0  0  0  0  0  0  0
    0.7630   24.9230  -25.7630 C   0  0  0  0  0  0  0  0  0  0  0  0
    0.7960   24.9340  -27.1470 C   0  0  0  0  0  0  0  0  0  0  0  0
   -0.1950   25.2850  -28.1020 N   0  0  0  0  0  0  0  0  0  0  0  0
   -1.0630   24.3980  -28.4340 C   0  0  0  0  0  0  0  0  0  0  0  0
   -1.9900   24.7410  -29.3340 N   0  0  0  0  0  0  0  0  0  0  0  0
   -2.9510   23.8820  -29.7520 C   0  0  0  0  0  0  0  0  0  0  0  0
   -3.8090   24.3000  -30.6270 N   0  0  0  0  0  0  0  0  0  0  0  0
   -4.7980   23.3610  -31.0360 C   0  0  0  0  0  0  0  0  0  0  0  0
   -6.0300   23.4360  -30.4080 C   0  0  0  0  0  0  0  0  0  0  0  0
   -7.0650   22.5670  -30.7320 C   0  0  0  0  0  0  0  0  0  0  0  0
   -6.8060   21.6310  -31.7050 C   0  0  0  0  0  0  0  0  0  0  0  0
   -8.1170   20.5240  -32.1230 S   0  0  0  0  0  0  0  0  0  0  0  0
   -9.7000   21.2760  -31.9600 C   0  0  0  0  0  0  0  0  0  0  0  0
   -8.0830   19.3190  -31.2070 O   0  0  0  0  0  0  0  0  0  0  0  0
   -7.8940   20.0400  -33.5320 O   0  0  0  0  0  0  0  0  0  0  0  0
   -5.5800   21.5340  -32.3530 C   0  0  0  0  0  0  0  0  0  0  0  0
   -4.5870   22.4090  -32.0030 C   0  0  0  0  0  0  0  0  0  0  0  0
   -2.9680   22.6360  -29.2410 N   0  0  0  0  0  0  0  0  0  0  0  0
   -2.0660   22.2100  -28.3280 C   0  0  0  0  0  0  0  0  0  0  0  0
   -1.1060   23.1190  -27.9300 C   0  0  0  0  0  0  0  0  0  0  0  0
   -0.1870   22.7390  -27.0220 F   0  0  0  0  0  0  0  0  0  0  0  0
    2.1040   24.4960  -27.1000 C   0  0  0  0  0  0  0  0  0  0  0  0
    2.9480   24.2300  -27.9940 O   0  0  0  0  0  0  0  0  0  0  0  0
    2.0880   24.4800  -25.7020 C   0  0  0  0  0  0  0  0  0  0  0  0
    2.9230   24.1880  -24.8060 O   0  0  0  0  0  0  0  0  0  0  0  0
   -1.8937   26.2478  -24.0698 H   0  0  0  0  0  0  0  0  0  0  0  0
   -1.1801   26.8671  -25.5974 H   0  0  0  0  0  0  0  0  0  0  0  0
   -2.1037   25.3265  -25.5974 H   0  0  0  0  0  0  0  0  0  0  0  0
    0.0370   24.8890  -23.7690 H   0  0  0  0  0  0  0  0  0  0  0  0
   -1.9910   25.7020  -29.7400 H   0  0  0  0  0  0  0  0  0  0  0  0
   -6.1932   24.2012  -29.6348 H   0  0  0  0  0  0  0  0  0  0  0  0
   -8.0441   22.6253  -30.2340 H   0  0  0  0  0  0  0  0  0  0  0  0
   -9.9430   21.3914  -30.8934 H   0  0  0  0  0  0  0  0  0  0  0  0
   -9.6878   22.2645  -32.4424 H   0  0  0  0  0  0  0  0  0  0  0  0
  -10.4585   20.6420  -32.4424 H   0  0  0  0  0  0  0  0  0  0  0  0
   -5.4117   20.7723  -33.1286 H   0  0  0  0  0  0  0  0  0  0  0  0
   -3.6086   22.3488  -32.5022 H   0  0  0  0  0  0  0  0  0  0  0  0
   -3.7110   21.9760  -29.5680 H   0  0  0  0  0  0  0  0  0  0  0  0
   -2.0957   21.1882  -27.9218 H   0  0  0  0  0  0  0  0  0  0  0  0
  1  2  1  0
  2  3  1  0
  3  4  2  0
  4  5  1  0
  5  6  2  0
  6  7  1  0
  7  8  1  0
  8  9  2  0
  9 10  1  0
 10 11  2  0
 11 12  1  0
 12 13  2  0
 13 14  1  0
 14 15  1  0
 14 16  2  0
 14 17  2  0
 13 18  1  0
 18 19  2  0
  8 20  1  0
 20 21  1  0
 21 22  2  0
 22 23  1  0
  4 24  1  0
 24 25  2  0
 24 26  1  0
 26 27  2  0
 26  3  1  0
 22  6  1  0
 19 10  1  0
  1 28  1  0
  1 29  1  0
  1 30  1  0
  2 31  1  0
  7 32  1  0
 11 33  1  0
 12 34  1  0
 15 35  1  0
 15 36  1  0
 15 37  1  0
 18 38  1  0
 19 39  1  0
 20 40  1  0
 21 41  1  0
M  END
>  <smiles>  (6) 
CNc1c(N=c2[nH]c(=Nc3ccc(S(C)(=O)=O)cc3)[nH]cc2F)c(=O)c1=O

>  <score_type>  (6) 
oracle

>  <origin>  (6) 
adgpu

>  <m_score__min__energy>  (6) 
-8.9199999999999999

>  <m_primary>  (6) 
energy

$$$$
6:0
     RDKit          3D

 38 40  0  0  0  0  0  0  0  0999 V2000
  -10.3803   22.0318  -31.3579 H   0  0  0  0  0  0  0  0  0  0  0  0
   -9.3170   21.9240  -31.6180 C   0  0  0  0  0  0  0  0  0  0  0  0
   -8.4820   23.0410  -31.6150 C   0  0  0  0  0  0  0  0  0  0  0  0
   -8.8852   24.0271  -31.3411 H   0  0  0  0  0  0  0  0  0  0  0  0
   -7.1350   22.9100  -31.9590 C   0  0  0  0  0  0  0  0  0  0  0  0
   -6.4783   23.7922  -31.9358 H   0  0  0  0  0  0  0  0  0  0  0  0
   -6.6100   21.6600  -32.3350 C   0  0  0  0  0  0  0  0  0  0  0  0
   -5.1470   21.5510  -32.7050 C   0  0  0  0  0  0  0  0  0  0  0  0
   -5.0155   21.9024  -33.7390 H   0  0  0  0  0  0  0  0  0  0  0  0
   -4.8488   20.4974  -32.6006 H   0  0  0  0  0  0  0  0  0  0  0  0
   -4.2940   22.3510  -31.8220 N   0  0  0  0  0  0  0  0  0  0  0  0
   -3.0170   22.3300  -31.5190 C   0  0  0  0  0  0  0  0  0  0  0  0
   -2.6190   23.0950  -30.3930 C   0  0  0  0  0  0  0  0  0  0  0  0
   -3.5120   24.1100  -29.7650 C   0  0  0  0  0  0  0  0  0  0  0  0
   -3.9340   23.9350  -28.5890 O   0  0  0  0  0  0  0  0  0  0  0  0
   -3.8730   25.3000  -30.4740 N   0  0  0  0  0  0  0  0  0  0  0  0
   -5.2550   25.6820  -30.7220 C   0  0  0  0  0  0  0  0  0  0  0  0
   -5.7736   25.8253  -29.7626 H   0  0  0  0  0  0  0  0  0  0  0  0
   -5.2788   26.6204  -31.2955 H   0  0  0  0  0  0  0  0  0  0  0  0
   -5.7573   24.8890  -31.2955 H   0  0  0  0  0  0  0  0  0  0  0  0
   -1.3750   22.8420  -29.7990 C   0  0  0  0  0  0  0  0  0  0  0  0
   -1.0719   23.4151  -28.9104 H   0  0  0  0  0  0  0  0  0  0  0  0
   -0.5400   21.9010  -30.3040 N   0  0  0  0  0  0  0  0  0  0  0  0
    0.3650   21.7320  -29.8090 H   0  0  0  0  0  0  0  0  0  0  0  0
   -0.8240   21.2390  -31.4560 C   0  0  0  0  0  0  0  0  0  0  0  0
    0.1200   20.3440  -31.9870 C   0  0  0  0  0  0  0  0  0  0  0  0
    1.0368   20.1180  -31.4227 H   0  0  0  0  0  0  0  0  0  0  0  0
   -0.0980   19.7410  -33.2240 C   0  0  0  0  0  0  0  0  0  0  0  0
    0.6266   19.0134  -33.6183 H   0  0  0  0  0  0  0  0  0  0  0  0
   -1.2350   20.0620  -33.9590 C   0  0  0  0  0  0  0  0  0  0  0  0
   -1.3858   19.6201  -34.9550 H   0  0  0  0  0  0  0  0  0  0  0  0
   -2.1860   20.9430  -33.4380 C   0  0  0  0  0  0  0  0  0  0  0  0
   -3.0572   21.2220  -34.0489 H   0  0  0  0  0  0  0  0  0  0  0  0
   -2.0470   21.4810  -32.1400 C   0  0  0  0  0  0  0  0  0  0  0  0
   -7.4550   20.5250  -32.2980 C   0  0  0  0  0  0  0  0  0  0  0  0
   -6.8600   18.9030  -32.6450 Cl  0  0  0  0  0  0  0  0  0  0  0  0
   -8.8040   20.6690  -31.9510 C   0  0  0  0  0  0  0  0  0  0  0  0
   -9.4631   19.7884  -31.9407 H   0  0  0  0  0  0  0  0  0  0  0  0
  1  2  1  0
  2  3  2  0
  3  4  1  0
  3  5  1  0
  5  6  1  0
  5  7  2  0
  7  8  1  0
  8  9  1  0
  8 10  1  0
  8 11  1  0
 11 12  2  0
 12 13  1  0
 13 14  1  0
 14 15  2  0
 14 16  1  0
 16 17  1  0
 17 18  1  0
 17 19  1  0
 17 20  1  0
 13 21  2  0
 21 22  1  0
 21 23  1  0
 23 24  1  0
 23 25  1  0
 25 26  2  0
 26 27  1  0
 26 28  1  0
 28 29  1  0
 28 30  2  0
 30 31  1  0
 30 32  1  0
 32 33  1  0
 32 34  2  0
  7 35  1  0
 35 36  1  0
 35 37  2  0
 37 38  1  0
 37  2  1  0
 34 12  1  0
 34 25  1  0
M  CHG  1  16  -1
M  END
>  <UniqueID>  (7) 
6

>  <SMILES>  (7) 
C[N-]C(=O)c1c[nH]c2ccccc2/c1=N\Cc1ccccc1Cl

>  <Energy>  (7) 
63.91537176818098

>  <Genealogy>  (7) 
C[N-]C(=O)c1c[nH]c2ccccc2c1=NCc1ccccc1Cl (protonated)
C[N-]C(=O)c1c[nH]c2ccccc2/c1=N\Cc1ccccc1Cl (cis-trans isomerization)
C[N-]C(=O)c1c[nH]c2ccccc2/c1=N\Cc1ccccc1Cl (3D coordinates assigned)
C[N-]C(=O)c1c[nH]c2ccccc2/c1=N\Cc1ccccc1Cl (optimized conformer: 63.91537176818098 kcal/mol)

>  <smiles>  (7) 
CNC(=O)c1c[nH]c2ccccc2c1=NCc1ccccc1Cl

>  <score_type>  (7) 
oracle

>  <origin>  (7) 
adgpu

>  <m_score__min__energy>  (7) 
-9.8599999999999994

>  <m_primary>  (7) 
energy

$$$$
7:0
     RDKit          3D

 63 66  0  0  0  0  0  0  0  0999 V2000
   -8.3682   17.6196  -31.5846 H   0  0  0  0  0  0  0  0  0  0  0  0
   -8.1650   18.5920  -32.0570 C   0  0  0  0  0  0  0  0  0  0  0  0
   -9.1540   19.4170  -32.2160 N   0  0  0  0  0  0  0  0  0  0  0  0
   -9.0030   20.6650  -32.7760 O   0  0  0  0  0  0  0  0  0  0  0  0
   -9.1120   22.0560  -31.8050 S   0  0  0  0  0  0  0  0  0  0  0  0
   -9.8280   23.1420  -32.5600 O   0  0  0  0  0  0  0  0  0  0  0  0
   -9.8940   21.7380  -30.5600 O   0  0  0  0  0  0  0  0  0  0  0  0
   -7.4930   22.6000  -31.3740 C   0  0  0  0  0  0  0  0  0  0  0  0
   -6.4730   22.6220  -32.3350 C   0  0  0  0  0  0  0  0  0  0  0  0
   -6.6845   22.3041  -33.3666 H   0  0  0  0  0  0  0  0  0  0  0  0
   -5.1870   23.0470  -31.9860 C   0  0  0  0  0  0  0  0  0  0  0  0
   -4.3877   23.0499  -32.7418 H   0  0  0  0  0  0  0  0  0  0  0  0
   -4.9110   23.4700  -30.6760 C   0  0  0  0  0  0  0  0  0  0  0  0
   -3.5150   23.8690  -30.2830 C   0  0  0  0  0  0  0  0  0  0  0  0
   -3.5373   24.8702  -29.8279 H   0  0  0  0  0  0  0  0  0  0  0  0
   -2.8777   23.8795  -31.1795 H   0  0  0  0  0  0  0  0  0  0  0  0
   -2.9550   22.8840  -29.2920 C   0  0  0  0  0  0  0  0  0  0  0  0
   -2.0500   23.3100  -28.3040 C   0  0  0  0  0  0  0  0  0  0  0  0
   -1.7165   24.3580  -28.2827 H   0  0  0  0  0  0  0  0  0  0  0  0
   -1.5720   22.4090  -27.3490 C   0  0  0  0  0  0  0  0  0  0  0  0
   -0.8698   22.7525  -26.5751 H   0  0  0  0  0  0  0  0  0  0  0  0
   -1.9840   21.0680  -27.3730 C   0  0  0  0  0  0  0  0  0  0  0  0
   -1.5020   20.1040  -26.3290 C   0  0  0  0  0  0  0  0  0  0  0  0
   -1.7069   20.5138  -25.3290 H   0  0  0  0  0  0  0  0  0  0  0  0
   -2.0262   19.1441  -26.4463 H   0  0  0  0  0  0  0  0  0  0  0  0
   -0.4195   19.9474  -26.4463 H   0  0  0  0  0  0  0  0  0  0  0  0
   -2.9030   20.6460  -28.3470 C   0  0  0  0  0  0  0  0  0  0  0  0
   -3.2445   19.6004  -28.3612 H   0  0  0  0  0  0  0  0  0  0  0  0
   -3.3860   21.5490  -29.2990 C   0  0  0  0  0  0  0  0  0  0  0  0
   -4.1076   21.2109  -30.0573 H   0  0  0  0  0  0  0  0  0  0  0  0
   -5.9370   23.4510  -29.7170 C   0  0  0  0  0  0  0  0  0  0  0  0
   -5.7294   23.7742  -28.6863 H   0  0  0  0  0  0  0  0  0  0  0  0
   -7.2210   23.0230  -30.0670 C   0  0  0  0  0  0  0  0  0  0  0  0
   -8.0213   23.0185  -29.3123 H   0  0  0  0  0  0  0  0  0  0  0  0
   -6.7780   18.8910  -32.4780 C   0  0  0  0  0  0  0  0  0  0  0  0
   -6.3940   18.6210  -33.7960 C   0  0  0  0  0  0  0  0  0  0  0  0
   -7.1111   18.1707  -34.4981 H   0  0  0  0  0  0  0  0  0  0  0  0
   -5.0970   18.9250  -34.2180 C   0  0  0  0  0  0  0  0  0  0  0  0
   -4.7945   18.7061  -35.2527 H   0  0  0  0  0  0  0  0  0  0  0  0
   -4.2000   19.4930  -33.3540 N   0  0  0  0  0  0  0  0  0  0  0  0
   -2.8510   19.8340  -33.8260 C   0  0  0  0  0  0  0  0  0  0  0  0
   -2.5471   19.1194  -34.6051 H   0  0  0  0  0  0  0  0  0  0  0  0
   -2.8614   20.8546  -34.2362 H   0  0  0  0  0  0  0  0  0  0  0  0
   -1.8720   19.7730  -32.6870 C   0  0  0  0  0  0  0  0  0  0  0  0
   -1.3520   18.5390  -32.2640 C   0  0  0  0  0  0  0  0  0  0  0  0
   -1.6351   17.6165  -32.7920 H   0  0  0  0  0  0  0  0  0  0  0  0
   -0.4760   18.4760  -31.1750 C   0  0  0  0  0  0  0  0  0  0  0  0
   -0.0677   17.5058  -30.8555 H   0  0  0  0  0  0  0  0  0  0  0  0
   -0.1170   19.6440  -30.4900 C   0  0  0  0  0  0  0  0  0  0  0  0
    0.9870   19.5760  -29.1200 S   0  0  0  0  0  0  0  0  0  0  0  0
    0.5900   18.4630  -28.1910 O   0  0  0  0  0  0  0  0  0  0  0  0
    0.9320   20.8740  -28.3650 O   0  0  0  0  0  0  0  0  0  0  0  0
    2.5990   19.3010  -29.6840 N   0  0  0  0  0  0  0  0  0  0  0  0
    2.6190   19.5710  -30.6920 H   0  0  0  0  0  0  0  0  0  0  0  0
    3.2190   19.9730  -29.1790 H   0  0  0  0  0  0  0  0  0  0  0  0
   -0.6360   20.8760  -30.9080 C   0  0  0  0  0  0  0  0  0  0  0  0
   -0.3530   21.7972  -30.3776 H   0  0  0  0  0  0  0  0  0  0  0  0
   -1.5120   20.9410  -31.9960 C   0  0  0  0  0  0  0  0  0  0  0  0
   -1.9211   21.9120  -32.3121 H   0  0  0  0  0  0  0  0  0  0  0  0
   -4.5690   19.7970  -32.0730 C   0  0  0  0  0  0  0  0  0  0  0  0
   -3.8450   20.2734  -31.3956 H   0  0  0  0  0  0  0  0  0  0  0  0
   -5.8570   19.5080  -31.6170 C   0  0  0  0  0  0  0  0  0  0  0  0
   -6.1485   19.7628  -30.5874 H   0  0  0  0  0  0  0  0  0  0  0  0
  1  2  1  0
  2  3  2  0
  3  4  1  0
  4  5  1  0
  5  6  2  0
  5  7  2  0
  5  8  1  0
  8  9  2  0
  9 10  1  0
  9 11  1  0
 11 12  1  0
 11 13  2  0
 13 14  1  0
 14 15  1  0
 14 16  1  0
 14 17  1  0
 17 18  2  0
 18 19  1  0
 18 20  1  0
 20 21  1  0
 20 22  2  0
 22 23  1  0
 23 24  1  0
 23 25  1  0
 23 26  1  0
 22 27  1  0
 27 28  1  0
 27 29  2  0
 29 30  1  0
 13 31  1  0
 31 32  1  0
 31 33  2  0
 33 34  1  0
  2 35  1  0
 35 36  2  0
 36 37  1  0
 36 38  1  0
 38 39  1  0
 38 40  2  0
 40 41  1  0
 41 42  1  0
 41 43  1  0
 41 44  1  0
 44 45  2  0
 45 46  1  0
 45 47  1  0
 47 48  1  0
 47 49  2  0
 49 50  1  0
 50 51  2  0
 50 52  2  0
 50 53  1  0
 53 54  1  0
 53 55  1  0
 49 56  1  0
 56 57  1  0
 56 58  2  0
 58 59  1  0
 40 60  1  0
 60 61  1  0
 60 62  2  0
 62 63  1  0
 33  8  1  0
 62 35  1  0
 29 17  1  0
 58 44  1  0
M  CHG  1  40   1
M  END
>  <UniqueID>  (8) 
7

>  <SMILES>  (8) 
Cc1ccc(Cc2ccc(S(=O)(=O)O/N=C\c3cc[n+](Cc4ccc(S(N)(=O)=O)cc4)cc3)cc2)cc1

>  <Energy>  (8) 
64.83664545455308

>  <Genealogy>  (8) 
Cc1ccc(Cc2ccc(S(=O)(=O)O/N=C\c3cc[n+](Cc4ccc(S(N)(=O)=O)cc4)cc3)cc2)cc1 (cis-trans isomerization)
Cc1ccc(Cc2ccc(S(=O)(=O)O/N=C\c3cc[n+](Cc4ccc(S(N)(=O)=O)cc4)cc3)cc2)cc1 (3D coordinates assigned)
Cc1ccc(Cc2ccc(S(=O)(=O)O/N=C\c3cc[n+](Cc4ccc(S(N)(=O)=O)cc4)cc3)cc2)cc1 (optimized conformer: 64.83664545455308 kcal/mol)

>  <smiles>  (8) 
Cc1ccc(Cc2ccc(S(=O)(=O)ON=Cc3cc[n+](Cc4ccc(S(N)(=O)=O)cc4)cc3)cc2)cc1

>  <score_type>  (8) 
oracle

>  <origin>  (8) 
adgpu

>  <m_score__min__energy>  (8) 
-11.31

>  <m_primary>  (8) 
energy

$$$$
8:0
     RDKit          3D

 41 43  0  0  0  0  0  0  0  0999 V2000
   -1.4560   25.8420  -28.9750 N   0  0  0  0  0  0  0  0  0  0  0  0
   -1.5390   24.2850  -28.2270 S   0  0  0  0  0  0  0  0  0  0  0  0
   -2.5660   24.3270  -27.1300 O   0  0  0  0  0  0  0  0  0  0  0  0
   -0.2040   23.9350  -27.6350 O   0  0  0  0  0  0  0  0  0  0  0  0
   -1.9800   23.0780  -29.4390 C   0  0  0  0  0  0  0  0  0  0  0  0
   -1.3850   21.8070  -29.4060 C   0  0  0  0  0  0  0  0  0  0  0  0
   -1.7350   20.8400  -30.3510 C   0  0  0  0  0  0  0  0  0  0  0  0
   -2.6740   21.1350  -31.3400 C   0  0  0  0  0  0  0  0  0  0  0  0
   -3.2720   22.3970  -31.3830 C   0  0  0  0  0  0  0  0  0  0  0  0
   -2.9430   23.3720  -30.4250 C   0  0  0  0  0  0  0  0  0  0  0  0
   -3.5350   24.6800  -30.4760 N   0  0  0  0  0  0  0  0  0  0  0  0
   -4.9170   24.9660  -30.7230 C   0  0  0  0  0  0  0  0  0  0  0  0
   -5.2790   26.1680  -30.8170 O   0  0  0  0  0  0  0  0  0  0  0  0
   -5.9310   23.8980  -30.8040 C   0  0  0  0  0  0  0  0  0  0  0  0
   -6.8560   23.5520  -29.8320 C   0  0  0  0  0  0  0  0  0  0  0  0
   -7.6210   22.5480  -30.3850 C   0  0  0  0  0  0  0  0  0  0  0  0
   -8.6810   21.9240  -29.7340 O   0  0  0  0  0  0  0  0  0  0  0  0
   -7.2080   22.2650  -31.6400 N   0  0  0  0  0  0  0  0  0  0  0  0
   -7.8040   21.3200  -32.5860 C   0  0  0  0  0  0  0  0  0  0  0  0
   -6.9810   20.0610  -32.6520 C   0  0  0  0  0  0  0  0  0  0  0  0
   -7.3900   18.9010  -31.9730 C   0  0  0  0  0  0  0  0  0  0  0  0
   -6.6310   17.7290  -32.0610 C   0  0  0  0  0  0  0  0  0  0  0  0
   -5.4610   17.7080  -32.8250 C   0  0  0  0  0  0  0  0  0  0  0  0
   -5.0470   18.8580  -33.5010 C   0  0  0  0  0  0  0  0  0  0  0  0
   -5.8030   20.0310  -33.4160 C   0  0  0  0  0  0  0  0  0  0  0  0
   -6.1830   23.0990  -31.9060 C   0  0  0  0  0  0  0  0  0  0  0  0
   -1.6110   25.6980  -29.9980 H   0  0  0  0  0  0  0  0  0  0  0  0
   -0.6395   21.5715  -28.6322 H   0  0  0  0  0  0  0  0  0  0  0  0
   -1.2695   19.8440  -30.3155 H   0  0  0  0  0  0  0  0  0  0  0  0
   -2.9437   20.3734  -32.0864 H   0  0  0  0  0  0  0  0  0  0  0  0
   -4.0041   22.6290  -32.1706 H   0  0  0  0  0  0  0  0  0  0  0  0
   -6.9584   23.9882  -28.8274 H   0  0  0  0  0  0  0  0  0  0  0  0
   -9.1980   22.3810  -28.9940 H   0  0  0  0  0  0  0  0  0  0  0  0
   -8.8236   21.0707  -32.2568 H   0  0  0  0  0  0  0  0  0  0  0  0
   -7.8338   21.7819  -33.5839 H   0  0  0  0  0  0  0  0  0  0  0  0
   -8.3100   18.9143  -31.3702 H   0  0  0  0  0  0  0  0  0  0  0  0
   -6.9555   16.8230  -31.5282 H   0  0  0  0  0  0  0  0  0  0  0  0
   -4.8659   16.7854  -32.8940 H   0  0  0  0  0  0  0  0  0  0  0  0
   -4.1251   18.8408  -34.1009 H   0  0  0  0  0  0  0  0  0  0  0  0
   -5.4736   20.9345  -33.9500 H   0  0  0  0  0  0  0  0  0  0  0  0
   -5.6299   23.1387  -32.8560 H   0  0  0  0  0  0  0  0  0  0  0  0
  1  2  1  0
  2  3  2  0
  2  4  2  0
  2  5  1  0
  5  6  2  0
  6  7  1  0
  7  8  2  0
  8  9  1  0
  9 10  2  0
 10 11  1  0
 11 12  1  0
 12 13  2  0
 12 14  1  0
 14 15  1  0
 15 16  2  0
 16 17  1  0
 16 18  1  0
 18 19  1  0
 19 20  1  0
 20 21  2  0
 21 22  1  0
 22 23  2  0
 23 24  1  0
 24 25  2  0
 18 26  1  0
 10  5  1  0
 26 14  2  0
 25 20  1  0
  1 27  1  0
  6 28  1  0
  7 29  1  0
  8 30  1  0
  9 31  1  0
 15 32  1  0
 17 33  1  0
 19 34  1  0
 19 35  1  0
 21 36  1  0
 22 37  1  0
 23 38  1  0
 24 39  1  0
 25 40  1  0
 26 41  1  0
M  CHG  2   1  -1  11  -1
M  END
>  <UniqueID>  (9) 
8

>  <SMILES>  (9) 
[NH-]S(=O)(=O)c1ccccc1[N-]C(=O)c1cc(O)n(Cc2ccccc2)c1

>  <Energy>  (9) 
74.44633378397351

>  <Genealogy>  (9) 
[NH-]S(=O)(=O)c1ccccc1[N-]C(=O)c1cc(O)n(Cc2ccccc2)c1 (protonated)
[NH-]S(=O)(=O)c1ccccc1[N-]C(=O)c1cc(O)n(Cc2ccccc2)c1 (3D coordinates assigned)
[NH-]S(=O)(=O)c1ccccc1[N-]C(=O)c1cc(O)n(Cc2ccccc2)c1 (optimized conformer: 74.44633378397351 kcal/mol)

>  <smiles>  (9) 
NS(=O)(=O)c1ccccc1NC(=O)c1cc(O)n(Cc2ccccc2)c1

>  <score_type>  (9) 
oracle

>  <origin>  (9) 
adgpu

>  <m_score__min__energy>  (9) 
-11.880000000000001

>  <m_primary>  (9) 
energy

$$$$
9:0
     RDKit          3D

 50 53  0  0  0  0  0  0  0  0999 V2000
   -1.5710   24.9070  -26.8740 O   0  0  0  0  0  0  0  0  0  0  0  0
   -1.6860   25.1290  -28.1090 C   0  0  0  0  0  0  0  0  0  0  0  0
   -1.6410   26.4440  -28.5570 O   0  0  0  0  0  0  0  0  0  0  0  0
   -1.8790   24.0150  -29.0720 C   0  0  0  0  0  0  0  0  0  0  0  0
   -1.1810   22.8090  -28.8760 C   0  0  0  0  0  0  0  0  0  0  0  0
   -1.3320   21.7430  -29.7650 C   0  0  0  0  0  0  0  0  0  0  0  0
   -2.1730   21.8620  -30.8770 C   0  0  0  0  0  0  0  0  0  0  0  0
   -2.3390   20.7170  -31.7930 C   0  0  0  0  0  0  0  0  0  0  0  0
   -1.5580   19.6570  -31.7670 O   0  0  0  0  0  0  0  0  0  0  0  0
   -1.9840   18.7810  -32.6510 C   0  0  0  0  0  0  0  0  0  0  0  0
   -3.0970   19.2920  -33.2940 C   0  0  0  0  0  0  0  0  0  0  0  0
   -3.8520   18.7020  -34.3140 O   0  0  0  0  0  0  0  0  0  0  0  0
   -4.7230   17.5910  -34.1090 C   0  0  0  0  0  0  0  0  0  0  0  0
   -5.8950   17.9870  -33.2510 C   0  0  0  0  0  0  0  0  0  0  0  0
   -6.0470   17.4340  -31.9690 C   0  0  0  0  0  0  0  0  0  0  0  0
   -7.1300   17.8010  -31.1670 C   0  0  0  0  0  0  0  0  0  0  0  0
   -8.0680   18.7260  -31.6360 C   0  0  0  0  0  0  0  0  0  0  0  0
   -7.9200   19.2880  -32.9070 C   0  0  0  0  0  0  0  0  0  0  0  0
   -6.8370   18.9230  -33.7120 C   0  0  0  0  0  0  0  0  0  0  0  0
   -3.3150   20.5370  -32.7630 C   0  0  0  0  0  0  0  0  0  0  0  0
   -4.2970   21.4330  -33.1960 O   0  0  0  0  0  0  0  0  0  0  0  0
   -5.6290   21.4290  -32.6850 C   0  0  0  0  0  0  0  0  0  0  0  0
   -5.8070   22.5570  -31.7060 C   0  0  0  0  0  0  0  0  0  0  0  0
   -6.0110   23.8690  -32.1640 C   0  0  0  0  0  0  0  0  0  0  0  0
   -6.2430   24.9040  -31.2510 C   0  0  0  0  0  0  0  0  0  0  0  0
   -6.2780   24.6350  -29.8800 C   0  0  0  0  0  0  0  0  0  0  0  0
   -6.0880   23.3290  -29.4180 C   0  0  0  0  0  0  0  0  0  0  0  0
   -5.8600   22.2900  -30.3280 C   0  0  0  0  0  0  0  0  0  0  0  0
   -2.8970   23.0480  -31.0670 C   0  0  0  0  0  0  0  0  0  0  0  0
   -2.7510   24.1260  -30.1810 C   0  0  0  0  0  0  0  0  0  0  0  0
   -3.4770   25.2960  -30.4050 O   0  0  0  0  0  0  0  0  0  0  0  0
   -0.5083   22.7048  -28.0120 H   0  0  0  0  0  0  0  0  0  0  0  0
   -0.7865   20.8039  -29.5902 H   0  0  0  0  0  0  0  0  0  0  0  0
   -1.5282   17.7994  -32.8474 H   0  0  0  0  0  0  0  0  0  0  0  0
   -5.0915   17.2362  -35.0828 H   0  0  0  0  0  0  0  0  0  0  0  0
   -4.1645   16.7922  -33.5992 H   0  0  0  0  0  0  0  0  0  0  0  0
   -5.3097   16.7085  -31.5948 H   0  0  0  0  0  0  0  0  0  0  0  0
   -7.2452   17.3618  -30.1651 H   0  0  0  0  0  0  0  0  0  0  0  0
   -8.9223   19.0113  -31.0046 H   0  0  0  0  0  0  0  0  0  0  0  0
   -8.6563   20.0181  -33.2742 H   0  0  0  0  0  0  0  0  0  0  0  0
   -6.7215   19.3701  -34.7104 H   0  0  0  0  0  0  0  0  0  0  0  0
   -6.3386   21.5526  -33.5164 H   0  0  0  0  0  0  0  0  0  0  0  0
   -5.8170   20.4735  -32.1735 H   0  0  0  0  0  0  0  0  0  0  0  0
   -5.9884   24.0835  -33.2426 H   0  0  0  0  0  0  0  0  0  0  0  0
   -6.3981   25.9310  -31.6131 H   0  0  0  0  0  0  0  0  0  0  0  0
   -6.4551   25.4511  -29.1640 H   0  0  0  0  0  0  0  0  0  0  0  0
   -6.1177   23.1179  -28.3389 H   0  0  0  0  0  0  0  0  0  0  0  0
   -5.7220   21.2616  -29.9629 H   0  0  0  0  0  0  0  0  0  0  0  0
   -3.5866   23.1339  -31.9197 H   0  0  0  0  0  0  0  0  0  0  0  0
   -3.4980   26.0490  -29.7270 H   0  0  0  0  0  0  0  0  0  0  0  0
  1  2  2  0
  2  3  1  0
  2  4  1  0
  4  5  2  0
  5  6  1  0
  6  7  2  0
  7  8  1  0
  8  9  1  0
  9 10  1  0
 10 11  2  0
 11 12  1  0
 12 13  1  0
 13 14  1  0
 14 15  2  0
 15 16  1  0
 16 17  2  0
 17 18  1  0
 18 19  2  0
 11 20  1  0
 20 21  1  0
 21 22  1  0
 22 23  1  0
 23 24  2  0
 24 25  1  0
 25 26  2  0
 26 27  1  0
 27 28  2  0
  7 29  1  0
 29 30  2  0
 30 31  1  0
 30  4  1  0
 20  8  2  0
 28 23  1  0
 19 14  1  0
  5 32  1  0
  6 33  1  0
 10 34  1  0
 13 35  1  0
 13 36  1  0
 15 37  1  0
 16 38  1  0
 17 39  1  0
 18 40  1  0
 19 41  1  0
 22 42  1  0
 22 43  1  0
 24 44  1  0
 25 45  1  0
 26 46  1  0
 27 47  1  0
 28 48  1  0
 29 49  1  0
 31 50  1  0
M  CHG  1   3  -1
M  END
>  <UniqueID>  (10) 
9

>  <SMILES>  (10) 
O=C([O-])c1ccc(-c2occ(OCc3ccccc3)c2OCc2ccccc2)cc1O

>  <Energy>  (10) 
89.94740381626191

>  <Genealogy>  (10) 
O=C([O-])c1ccc(-c2occ(OCc3ccccc3)c2OCc2ccccc2)cc1O (protonated)
O=C([O-])c1ccc(-c2occ(OCc3ccccc3)c2OCc2ccccc2)cc1O (3D coordinates assigned)
O=C([O-])c1ccc(-c2occ(OCc3ccccc3)c2OCc2ccccc2)cc1O (optimized conformer: 89.94740381626191 kcal/mol)

>  <smiles>  (10) 
O=C(O)c1ccc(-c2occ(OCc3ccccc3)c2OCc2ccccc2)cc1O

>  <score_type>  (10) 
oracle

>  <origin>  (10) 
adgpu

>  <m_score__min__energy>  (10) 
-10.25

>  <m_primary>  (10) 
energy

$$$$
10:0
     RDKit          3D

 34 35  0  0  0  0  0  0  0  0999 V2000
   -6.0620   17.0230  -31.4270 C   0  0  0  0  0  0  0  0  0  0  0  0
   -6.2260   17.9500  -32.5460 N   0  0  0  0  0  0  0  0  0  0  0  0
   -6.6420   19.3040  -32.2990 C   0  0  0  0  0  0  0  0  0  0  0  0
   -7.9960   19.6610  -32.3970 C   0  0  0  0  0  0  0  0  0  0  0  0
   -8.3990   20.9750  -32.1420 C   0  0  0  0  0  0  0  0  0  0  0  0
   -7.4560   21.9410  -31.7860 C   0  0  0  0  0  0  0  0  0  0  0  0
   -6.0990   21.6070  -31.6980 C   0  0  0  0  0  0  0  0  0  0  0  0
   -5.1630   22.6150  -31.2860 N   0  0  0  0  0  0  0  0  0  0  0  0
   -5.0170   23.1380  -29.9580 C   0  0  0  0  0  0  0  0  0  0  0  0
   -6.0420   23.2490  -29.2350 O   0  0  0  0  0  0  0  0  0  0  0  0
   -3.7070   23.5980  -29.4370 C   0  0  0  0  0  0  0  0  0  0  0  0
   -3.1630   24.8340  -29.8270 C   0  0  0  0  0  0  0  0  0  0  0  0
   -3.8440   25.6700  -30.7050 O   0  0  0  0  0  0  0  0  0  0  0  0
   -1.9640   25.2350  -29.3290 N   0  0  0  0  0  0  0  0  0  0  0  0
   -1.2740   24.4620  -28.4540 C   0  0  0  0  0  0  0  0  0  0  0  0
   -0.1620   24.8530  -28.0130 O   0  0  0  0  0  0  0  0  0  0  0  0
   -1.7800   23.2690  -28.0540 N   0  0  0  0  0  0  0  0  0  0  0  0
   -2.9760   22.8230  -28.5180 C   0  0  0  0  0  0  0  0  0  0  0  0
   -3.4100   21.7060  -28.1280 O   0  0  0  0  0  0  0  0  0  0  0  0
   -5.6990   20.2820  -31.9390 C   0  0  0  0  0  0  0  0  0  0  0  0
   -5.8890   17.4250  -34.1720 S   0  0  0  0  0  0  0  0  0  0  0  0
   -4.2100   16.8480  -34.2800 C   0  0  0  0  0  0  0  0  0  0  0  0
   -6.0470   18.5750  -35.1270 O   0  0  0  0  0  0  0  0  0  0  0  0
   -6.8350   16.3260  -34.5620 O   0  0  0  0  0  0  0  0  0  0  0  0
   -6.1591   17.5720  -30.4788 H   0  0  0  0  0  0  0  0  0  0  0  0
   -6.8362   16.2434  -31.4802 H   0  0  0  0  0  0  0  0  0  0  0  0
   -5.0673   16.5563  -31.4802 H   0  0  0  0  0  0  0  0  0  0  0  0
   -8.7432   18.9034  -32.6757 H   0  0  0  0  0  0  0  0  0  0  0  0
   -9.4615   21.2485  -32.2220 H   0  0  0  0  0  0  0  0  0  0  0  0
   -7.7808   22.9702  -31.5735 H   0  0  0  0  0  0  0  0  0  0  0  0
   -4.6380   20.0075  -31.8451 H   0  0  0  0  0  0  0  0  0  0  0  0
   -3.8043   16.7086  -33.2671 H   0  0  0  0  0  0  0  0  0  0  0  0
   -4.1856   15.8899  -34.8199 H   0  0  0  0  0  0  0  0  0  0  0  0
   -3.6018   17.5887  -34.8199 H   0  0  0  0  0  0  0  0  0  0  0  0
  1  2  1  0
  2  3  1  0
  3  4  2  0
  4  5  1  0
  5  6  2  0
  6  7  1  0
  7  8  1  0
  8  9  1  0
  9 10  2  0
  9 11  1  0
 11 12  2  0
 12 13  1  0
 12 14  1  0
 14 15  1  0
 15 16  2  0
 15 17  1  0
 17 18  1  0
 18 19  2  0
  7 20  2  0
  2 21  1  0
 21 22  1  0
 21 23  2  0
 21 24  2  0
 20  3  1  0
 18 11  1  0
  1 25  1  0
  1 26  1  0
  1 27  1  0
  4 28  1  0
  5 29  1  0
  6 30  1  0
 20 31  1  0
 22 32  1  0
 22 33  1  0
 22 34  1  0
M  CHG  4   8  -1  13  -1  14  -1  17  -1
M  END
>  <UniqueID>  (11) 
10

>  <SMILES>  (11) 
CN(c1cccc([N-]C(=O)c2c([O-])[n-]c(=O)[n-]c2=O)c1)S(C)(=O)=O

>  <Energy>  (11) 
43.713505444714

>  <Genealogy>  (11) 
CN(c1cccc([N-]C(=O)c2c([O-])[n-]c(=O)[n-]c2=O)c1)S(C)(=O)=O (protonated)
CN(c1cccc([N-]C(=O)c2c([O-])[n-]c(=O)[n-]c2=O)c1)S(C)(=O)=O (3D coordinates assigned)
CN(c1cccc([N-]C(=O)c2c([O-])[n-]c(=O)[n-]c2=O)c1)S(C)(=O)=O (optimized conformer: 43.713505444714 kcal/mol)

>  <smiles>  (11) 
CN(c1cccc(NC(=O)c2c(O)[nH]c(=O)[nH]c2=O)c1)S(C)(=O)=O

>  <score_type>  (11) 
oracle

>  <origin>  (11) 
adgpu

>  <m_score__min__energy>  (11) 
-13.27

>  <m_primary>  (11) 
energy

$$$$
11:0
     RDKit          3D

 64 67  0  0  0  0  0  0  0  0999 V2000
   -7.5480   22.9330  -30.0080 C   0  0  0  0  0  0  0  0  0  0  0  0
   -7.3700   22.1940  -31.2590 N   0  0  0  0  0  0  0  0  0  0  0  0
   -6.5470   22.7490  -32.3390 C   0  0  0  0  0  0  0  0  0  0  0  0
   -8.1530   21.0070  -31.4870 C   0  0  0  0  0  0  0  0  0  0  0  0
   -9.3290   20.9420  -31.0310 O   0  0  0  0  0  0  0  0  0  0  0  0
   -7.6130   19.8590  -32.2480 C   0  0  0  0  0  0  0  0  0  0  0  0
   -7.6840   18.5620  -31.7130 C   0  0  0  0  0  0  0  0  0  0  0  0
   -7.1630   17.4750  -32.4230 C   0  0  0  0  0  0  0  0  0  0  0  0
   -6.5590   17.6720  -33.6780 C   0  0  0  0  0  0  0  0  0  0  0  0
   -6.0200   16.6100  -34.4180 O   0  0  0  0  0  0  0  0  0  0  0  0
   -5.3870   15.4870  -33.8680 C   0  0  0  0  0  0  0  0  0  0  0  0
   -6.0130   14.2750  -33.8570 N   0  0  0  0  0  0  0  0  0  0  0  0
   -5.4410   13.1710  -33.3100 C   0  0  0  0  0  0  0  0  0  0  0  0
   -4.1760   13.2570  -32.7280 C   0  0  0  0  0  0  0  0  0  0  0  0
   -3.5040   14.4780  -32.7340 C   0  0  0  0  0  0  0  0  0  0  0  0
   -4.0900   15.6020  -33.3310 C   0  0  0  0  0  0  0  0  0  0  0  0
   -3.3830   16.8510  -33.3290 N   0  0  0  0  0  0  0  0  0  0  0  0
   -2.2090   17.0880  -34.1160 C   0  0  0  0  0  0  0  0  0  0  0  0
   -1.6700   16.1420  -34.7550 O   0  0  0  0  0  0  0  0  0  0  0  0
   -1.6010   18.3870  -34.0860 N   0  0  0  0  0  0  0  0  0  0  0  0
   -2.1280   19.5620  -33.4490 C   0  0  0  0  0  0  0  0  0  0  0  0
   -3.4900   19.9090  -33.5250 C   0  0  0  0  0  0  0  0  0  0  0  0
   -3.9560   21.0670  -32.8920 C   0  0  0  0  0  0  0  0  0  0  0  0
   -3.0720   21.8830  -32.1650 C   0  0  0  0  0  0  0  0  0  0  0  0
   -3.5080   23.0470  -31.5170 O   0  0  0  0  0  0  0  0  0  0  0  0
   -3.4110   23.2910  -30.1380 C   0  0  0  0  0  0  0  0  0  0  0  0
   -4.3370   22.7710  -29.2180 C   0  0  0  0  0  0  0  0  0  0  0  0
   -4.2330   23.0830  -27.8590 C   0  0  0  0  0  0  0  0  0  0  0  0
   -3.2090   23.9230  -27.4080 C   0  0  0  0  0  0  0  0  0  0  0  0
   -2.2830   24.4490  -28.3160 C   0  0  0  0  0  0  0  0  0  0  0  0
   -1.0320   25.5640  -27.7710 S   0  0  0  0  0  0  0  0  0  0  0  0
   -1.2990   25.9470  -26.0550 C   0  0  0  0  0  0  0  0  0  0  0  0
   -1.0930   26.8260  -28.5850 O   0  0  0  0  0  0  0  0  0  0  0  0
    0.3260   24.9420  -27.9420 O   0  0  0  0  0  0  0  0  0  0  0  0
   -2.3900   24.1340  -29.6790 C   0  0  0  0  0  0  0  0  0  0  0  0
   -1.7290   21.5060  -32.0460 C   0  0  0  0  0  0  0  0  0  0  0  0
   -0.8710   22.2730  -31.3280 F   0  0  0  0  0  0  0  0  0  0  0  0
   -1.2610   20.3540  -32.6860 C   0  0  0  0  0  0  0  0  0  0  0  0
   -6.4510   18.9700  -34.1890 C   0  0  0  0  0  0  0  0  0  0  0  0
   -6.9740   20.0570  -33.4830 C   0  0  0  0  0  0  0  0  0  0  0  0
   -7.3850   22.2564  -29.1561 H   0  0  0  0  0  0  0  0  0  0  0  0
   -6.8232   23.7593  -29.9639 H   0  0  0  0  0  0  0  0  0  0  0  0
   -8.5695   23.3386  -29.9639 H   0  0  0  0  0  0  0  0  0  0  0  0
   -5.7082   23.3146  -31.9072 H   0  0  0  0  0  0  0  0  0  0  0  0
   -6.1557   21.9296  -32.9599 H   0  0  0  0  0  0  0  0  0  0  0  0
   -7.1600   23.4189  -32.9599 H   0  0  0  0  0  0  0  0  0  0  0  0
   -8.1517   18.4003  -30.7306 H   0  0  0  0  0  0  0  0  0  0  0  0
   -7.2259   16.4623  -31.9982 H   0  0  0  0  0  0  0  0  0  0  0  0
   -5.9751   12.2095  -33.3259 H   0  0  0  0  0  0  0  0  0  0  0  0
   -3.7138   12.3705  -32.2692 H   0  0  0  0  0  0  0  0  0  0  0  0
   -2.5106   14.5595  -32.2687 H   0  0  0  0  0  0  0  0  0  0  0  0
   -3.6180   17.5520  -32.5920 H   0  0  0  0  0  0  0  0  0  0  0  0
   -4.1894   19.2689  -34.0829 H   0  0  0  0  0  0  0  0  0  0  0  0
   -5.0192   21.3399  -32.9638 H   0  0  0  0  0  0  0  0  0  0  0  0
   -5.1476   22.1153  -29.5686 H   0  0  0  0  0  0  0  0  0  0  0  0
   -4.9575   22.6673  -27.1432 H   0  0  0  0  0  0  0  0  0  0  0  0
   -3.1317   24.1702  -26.3389 H   0  0  0  0  0  0  0  0  0  0  0  0
   -0.7818   25.2050  -25.4289 H   0  0  0  0  0  0  0  0  0  0  0  0
   -0.9034   26.9501  -25.8373 H   0  0  0  0  0  0  0  0  0  0  0  0
   -2.3770   25.9228  -25.8373 H   0  0  0  0  0  0  0  0  0  0  0  0
   -1.6660   24.5525  -30.3937 H   0  0  0  0  0  0  0  0  0  0  0  0
   -0.2033   20.0677  -32.5893 H   0  0  0  0  0  0  0  0  0  0  0  0
   -5.9504   19.1364  -35.1543 H   0  0  0  0  0  0  0  0  0  0  0  0
   -6.8847   21.0724  -33.8966 H   0  0  0  0  0  0  0  0  0  0  0  0
  1  2  1  0
  2  3  1  0
  2  4  1  0
  4  5  2  0
  4  6  1  0
  6  7  2  0
  7  8  1  0
  8  9  2  0
  9 10  1  0
 10 11  1  0
 11 12  2  0
 12 13  1  0
 13 14  2  0
 14 15  1  0
 15 16  2  0
 16 17  1  0
 17 18  1  0
 18 19  2  0
 18 20  1  0
 20 21  1  0
 21 22  2  0
 22 23  1  0
 23 24  2  0
 24 25  1  0
 25 26  1  0
 26 27  2  0
 27 28  1  0
 28 29  2  0
 29 30  1  0
 30 31  1  0
 31 32  1  0
 31 33  2  0
 31 34  2  0
 30 35  2  0
 24 36  1  0
 36 37  1  0
 36 38  2  0
  9 39  1  0
 39 40  2  0
 40  6  1  0
 16 11  1  0
 38 21  1  0
 35 26  1  0
  1 41  1  0
  1 42  1  0
  1 43  1  0
  3 44  1  0
  3 45  1  0
  3 46  1  0
  7 47  1  0
  8 48  1  0
 13 49  1  0
 14 50  1  0
 15 51  1  0
 17 52  1  0
 22 53  1  0
 23 54  1  0
 27 55  1  0
 28 56  1  0
 29 57  1  0
 32 58  1  0
 32 59  1  0
 32 60  1  0
 35 61  1  0
 38 62  1  0
 39 63  1  0
 40 64  1  0
M  CHG  1  20  -1
M  END
>  <UniqueID>  (12) 
11

>  <SMILES>  (12) 
CN(C)C(=O)c1ccc(Oc2ncccc2NC(=O)[N-]c2ccc(Oc3cccc(S(C)(=O)=O)c3)c(F)c2)cc1

>  <Energy>  (12) 
89.01651196942467

>  <Genealogy>  (12) 
CN(C)C(=O)c1ccc(Oc2ncccc2NC(=O)[N-]c2ccc(Oc3cccc(S(C)(=O)=O)c3)c(F)c2)cc1 (protonated)
CN(C)C(=O)c1ccc(Oc2ncccc2NC(=O)[N-]c2ccc(Oc3cccc(S(C)(=O)=O)c3)c(F)c2)cc1 (3D coordinates assigned)
CN(C)C(=O)c1ccc(Oc2ncccc2NC(=O)[N-]c2ccc(Oc3cccc(S(C)(=O)=O)c3)c(F)c2)cc1 (optimized conformer: 89.01651196942467 kcal/mol)

>  <smiles>  (12) 
CN(C)C(=O)c1ccc(Oc2ncccc2NC(=O)Nc2ccc(Oc3cccc(S(C)(=O)=O)c3)c(F)c2)cc1

>  <score_type>  (12) 
oracle

>  <origin>  (12) 
adgpu

>  <m_score__min__energy>  (12) 
-11.57

>  <m_primary>  (12) 
energy

$$$$
12:0
     RDKit          3D

 56 59  0  0  0  0  0  0  0  0999 V2000
   -4.9080   24.9070  -28.9680 O   0  0  0  0  0  0  0  0  0  0  0  0
   -3.9240   24.3360  -29.5080 C   0  0  0  0  0  0  0  0  0  0  0  0
   -3.9230   24.1460  -30.9290 N   0  0  0  0  0  0  0  0  0  0  0  0
   -4.2040   22.9080  -31.6010 C   0  0  0  0  0  0  0  0  0  0  0  0
   -3.2050   21.9420  -31.8140 C   0  0  0  0  0  0  0  0  0  0  0  0
   -3.5090   20.7500  -32.4780 C   0  0  0  0  0  0  0  0  0  0  0  0
   -4.8120   20.5030  -32.9210 C   0  0  0  0  0  0  0  0  0  0  0  0
   -5.1740   18.9990  -33.7660 S   0  0  0  0  0  0  0  0  0  0  0  0
   -6.1160   19.2630  -34.9080 O   0  0  0  0  0  0  0  0  0  0  0  0
   -3.8890   18.4480  -34.3190 O   0  0  0  0  0  0  0  0  0  0  0  0
   -5.8800   17.8500  -32.6490 N   0  0  0  0  0  0  0  0  0  0  0  0
   -6.1760   18.4950  -31.3640 C   0  0  0  0  0  0  0  0  0  0  0  0
   -7.6270   18.9590  -31.3880 C   0  0  0  0  0  0  0  0  0  0  0  0
   -8.2610   18.2650  -32.5780 C   0  0  0  0  0  0  0  0  0  0  0  0
   -7.1720   17.3730  -33.1550 C   0  0  0  0  0  0  0  0  0  0  0  0
   -5.8190   21.4480  -32.6750 C   0  0  0  0  0  0  0  0  0  0  0  0
   -5.5150   22.6410  -32.0120 C   0  0  0  0  0  0  0  0  0  0  0  0
   -2.7900   23.8970  -28.6690 C   0  0  0  0  0  0  0  0  0  0  0  0
   -2.8000   22.6070  -28.1180 C   0  0  0  0  0  0  0  0  0  0  0  0
   -1.6890   22.1270  -27.4110 C   0  0  0  0  0  0  0  0  0  0  0  0
   -1.6400   20.4480  -26.8700 S   0  0  0  0  0  0  0  0  0  0  0  0
   -2.8830   19.7410  -27.3340 O   0  0  0  0  0  0  0  0  0  0  0  0
   -1.6170   20.4110  -25.3660 O   0  0  0  0  0  0  0  0  0  0  0  0
   -0.2300   19.6200  -27.4900 N   0  0  0  0  0  0  0  0  0  0  0  0
   -0.4490   18.1600  -27.5020 C   0  0  0  0  0  0  0  0  0  0  0  0
    0.4940   17.4740  -28.5050 C   0  0  0  0  0  0  0  0  0  0  0  0
    0.3250   17.9120  -29.8480 O   0  0  0  0  0  0  0  0  0  0  0  0
   -0.2250   19.2170  -29.9620 C   0  0  0  0  0  0  0  0  0  0  0  0
    0.1800   20.1540  -28.8080 C   0  0  0  0  0  0  0  0  0  0  0  0
   -0.5900   22.9700  -27.1970 C   0  0  0  0  0  0  0  0  0  0  0  0
   -0.5880   24.2670  -27.7100 C   0  0  0  0  0  0  0  0  0  0  0  0
   -1.6780   24.7330  -28.4530 C   0  0  0  0  0  0  0  0  0  0  0  0
   -1.6510   26.0270  -28.9610 O   0  0  0  0  0  0  0  0  0  0  0  0
   -2.1807   22.1248  -31.4570 H   0  0  0  0  0  0  0  0  0  0  0  0
   -2.7202   20.0035  -32.6526 H   0  0  0  0  0  0  0  0  0  0  0  0
   -6.0281   17.7769  -30.5440 H   0  0  0  0  0  0  0  0  0  0  0  0
   -5.5053   19.3523  -31.2055 H   0  0  0  0  0  0  0  0  0  0  0  0
   -8.1378   18.6687  -30.4580 H   0  0  0  0  0  0  0  0  0  0  0  0
   -7.7016   20.0534  -31.4696 H   0  0  0  0  0  0  0  0  0  0  0  0
   -9.1226   17.6613  -32.2569 H   0  0  0  0  0  0  0  0  0  0  0  0
   -8.6341   18.9861  -33.3202 H   0  0  0  0  0  0  0  0  0  0  0  0
   -7.3355   16.3322  -32.8389 H   0  0  0  0  0  0  0  0  0  0  0  0
   -7.1895   17.4108  -34.2542 H   0  0  0  0  0  0  0  0  0  0  0  0
   -6.8498   21.2502  -33.0043 H   0  0  0  0  0  0  0  0  0  0  0  0
   -6.3107   23.3738  -31.8123 H   0  0  0  0  0  0  0  0  0  0  0  0
   -3.6863   21.9674  -28.2417 H   0  0  0  0  0  0  0  0  0  0  0  0
   -0.2587   17.7586  -26.4957 H   0  0  0  0  0  0  0  0  0  0  0  0
   -1.4882   17.9620  -27.8033 H   0  0  0  0  0  0  0  0  0  0  0  0
    1.5311   17.6797  -28.2016 H   0  0  0  0  0  0  0  0  0  0  0  0
    0.2533   16.4008  -28.4867 H   0  0  0  0  0  0  0  0  0  0  0  0
    0.1201   19.6595  -30.9081 H   0  0  0  0  0  0  0  0  0  0  0  0
   -1.3195   19.1126  -29.9270 H   0  0  0  0  0  0  0  0  0  0  0  0
    1.2731   20.2765  -28.8170 H   0  0  0  0  0  0  0  0  0  0  0  0
   -0.3297   21.1172  -28.9577 H   0  0  0  0  0  0  0  0  0  0  0  0
    0.2747   22.6072  -26.6220 H   0  0  0  0  0  0  0  0  0  0  0  0
    0.2740   24.9261  -27.5297 H   0  0  0  0  0  0  0  0  0  0  0  0
  1  2  2  0
  2  3  1  0
  3  4  1  0
  4  5  2  0
  5  6  1  0
  6  7  2  0
  7  8  1  0
  8  9  2  0
  8 10  2  0
  8 11  1  0
 11 12  1  0
 12 13  1  0
 13 14  1  0
 14 15  1  0
  7 16  1  0
 16 17  2  0
  2 18  1  0
 18 19  2  0
 19 20  1  0
 20 21  1  0
 21 22  2  0
 21 23  2  0
 21 24  1  0
 24 25  1  0
 25 26  1  0
 26 27  1  0
 27 28  1  0
 28 29  1  0
 20 30  2  0
 30 31  1  0
 31 32  2  0
 32 33  1  0
 17  4  1  0
 32 18  1  0
 15 11  1  0
 29 24  1  0
  5 34  1  0
  6 35  1  0
 12 36  1  0
 12 37  1  0
 13 38  1  0
 13 39  1  0
 14 40  1  0
 14 41  1  0
 15 42  1  0
 15 43  1  0
 16 44  1  0
 17 45  1  0
 19 46  1  0
 25 47  1  0
 25 48  1  0
 26 49  1  0
 26 50  1  0
 28 51  1  0
 28 52  1  0
 29 53  1  0
 29 54  1  0
 30 55  1  0
 31 56  1  0
M  CHG  2   3  -1  33  -1
M  END
>  <UniqueID>  (13) 
12

>  <SMILES>  (13) 
O=C([N-]c1ccc(S(=O)(=O)N2CCCC2)cc1)c1cc(S(=O)(=O)N2CCOCC2)ccc1[O-]

>  <Energy>  (13) 
77.76670784953477

>  <Genealogy>  (13) 
O=C([N-]c1ccc(S(=O)(=O)N2CCCC2)cc1)c1cc(S(=O)(=O)N2CCOCC2)ccc1[O-] (protonated)
O=C([N-]c1ccc(S(=O)(=O)N2CCCC2)cc1)c1cc(S(=O)(=O)N2CCOCC2)ccc1[O-] (3D coordinates assigned)
O=C([N-]c1ccc(S(=O)(=O)N2CCCC2)cc1)c1cc(S(=O)(=O)N2CCOCC2)ccc1[O-] (nonaromatic ring conformer: 77.76670784953477 kcal/mol)

>  <smiles>  (13) 
O=C(Nc1ccc(S(=O)(=O)N2CCCC2)cc1)c1cc(S(=O)(=O)N2CCOCC2)ccc1O

>  <score_type>  (13) 
oracle

>  <origin>  (13) 
adgpu

>  <m_score__min__energy>  (13) 
-13.970000000000001

>  <m_primary>  (13) 
energy

$$$$
13:0
     RDKit          3D

 54 56  0  0  0  0  0  0  0  0999 V2000
   -1.1220   19.6490  -29.4070 C   0  0  0  0  0  0  0  0  0  0  0  0
   -0.7370   20.4240  -28.1260 C   0  0  0  0  0  0  0  0  0  0  0  0
   -1.5720   19.8470  -26.9560 C   0  0  0  0  0  0  0  0  0  0  0  0
    0.7510   20.1800  -27.8070 C   0  0  0  0  0  0  0  0  0  0  0  0
   -0.9670   21.9350  -28.3460 C   0  0  0  0  0  0  0  0  0  0  0  0
    0.0830   22.8840  -28.2900 C   0  0  0  0  0  0  0  0  0  0  0  0
   -0.1670   24.2430  -28.4960 C   0  0  0  0  0  0  0  0  0  0  0  0
   -1.4640   24.6970  -28.7580 C   0  0  0  0  0  0  0  0  0  0  0  0
   -1.7090   26.0620  -28.9110 O   0  0  0  0  0  0  0  0  0  0  0  0
   -2.5230   23.7720  -28.8260 C   0  0  0  0  0  0  0  0  0  0  0  0
   -3.8760   24.2070  -29.0060 N   0  0  0  0  0  0  0  0  0  0  0  0
   -4.4060   24.6720  -30.2470 C   0  0  0  0  0  0  0  0  0  0  0  0
   -3.8660   25.6550  -30.8210 O   0  0  0  0  0  0  0  0  0  0  0  0
   -5.5910   24.0830  -30.7830 N   0  0  0  0  0  0  0  0  0  0  0  0
   -5.6150   22.8600  -31.5270 C   0  0  0  0  0  0  0  0  0  0  0  0
   -4.5460   22.5510  -32.3770 C   0  0  0  0  0  0  0  0  0  0  0  0
   -4.5380   21.3450  -33.0830 C   0  0  0  0  0  0  0  0  0  0  0  0
   -5.6200   20.4660  -32.9830 C   0  0  0  0  0  0  0  0  0  0  0  0
   -6.7240   20.7940  -32.1790 C   0  0  0  0  0  0  0  0  0  0  0  0
   -8.1240   19.7260  -32.1160 S   0  0  0  0  0  0  0  0  0  0  0  0
   -9.0210   20.0050  -33.2920 O   0  0  0  0  0  0  0  0  0  0  0  0
   -8.8830   19.9890  -30.8430 O   0  0  0  0  0  0  0  0  0  0  0  0
   -7.6060   18.0590  -32.1520 N   0  0  0  0  0  0  0  0  0  0  0  0
   -6.4980   17.8250  -31.2270 C   0  0  0  0  0  0  0  0  0  0  0  0
   -5.7160   16.6450  -31.7790 C   0  0  0  0  0  0  0  0  0  0  0  0
   -6.0910   16.5700  -33.2520 C   0  0  0  0  0  0  0  0  0  0  0  0
   -7.0930   17.6930  -33.4720 C   0  0  0  0  0  0  0  0  0  0  0  0
   -6.7080   21.9810  -31.4330 C   0  0  0  0  0  0  0  0  0  0  0  0
   -2.2730   22.4120  -28.6080 C   0  0  0  0  0  0  0  0  0  0  0  0
   -1.5957   18.6955  -29.1303 H   0  0  0  0  0  0  0  0  0  0  0  0
   -1.8265   20.2496  -30.0011 H   0  0  0  0  0  0  0  0  0  0  0  0
   -0.2178   19.4504  -30.0011 H   0  0  0  0  0  0  0  0  0  0  0  0
   -1.1252   20.1558  -25.9994 H   0  0  0  0  0  0  0  0  0  0  0  0
   -2.6025   20.2266  -27.0188 H   0  0  0  0  0  0  0  0  0  0  0  0
   -1.5813   18.7488  -27.0188 H   0  0  0  0  0  0  0  0  0  0  0  0
    0.8932   20.1567  -26.7165 H   0  0  0  0  0  0  0  0  0  0  0  0
    1.0656   19.2183  -28.2384 H   0  0  0  0  0  0  0  0  0  0  0  0
    1.3562   20.9909  -28.2384 H   0  0  0  0  0  0  0  0  0  0  0  0
    1.1090   22.5465  -28.0815 H   0  0  0  0  0  0  0  0  0  0  0  0
    0.6637   24.9627  -28.4518 H   0  0  0  0  0  0  0  0  0  0  0  0
   -2.6520   26.4300  -28.9910 H   0  0  0  0  0  0  0  0  0  0  0  0
   -3.7113   23.2586  -32.4892 H   0  0  0  0  0  0  0  0  0  0  0  0
   -3.6782   21.0870  -33.7188 H   0  0  0  0  0  0  0  0  0  0  0  0
   -5.6069   19.5148  -33.5354 H   0  0  0  0  0  0  0  0  0  0  0  0
   -5.8542   18.7153  -31.1724 H   0  0  0  0  0  0  0  0  0  0  0  0
   -6.8654   17.6181  -30.2110 H   0  0  0  0  0  0  0  0  0  0  0  0
   -4.6347   16.8116  -31.6645 H   0  0  0  0  0  0  0  0  0  0  0  0
   -5.9517   15.7114  -31.2473 H   0  0  0  0  0  0  0  0  0  0  0  0
   -5.2024   16.7180  -33.8833 H   0  0  0  0  0  0  0  0  0  0  0  0
   -6.5117   15.5889  -33.5173 H   0  0  0  0  0  0  0  0  0  0  0  0
   -6.5984   18.5569  -33.9400 H   0  0  0  0  0  0  0  0  0  0  0  0
   -7.9068   17.3737  -34.1396 H   0  0  0  0  0  0  0  0  0  0  0  0
   -7.5530   22.2251  -30.7724 H   0  0  0  0  0  0  0  0  0  0  0  0
   -3.1099   21.6989  -28.6411 H   0  0  0  0  0  0  0  0  0  0  0  0
  1  2  1  0
  2  3  1  0
  2  4  1  0
  2  5  1  0
  5  6  2  0
  6  7  1  0
  7  8  2  0
  8  9  1  0
  8 10  1  0
 10 11  1  0
 11 12  1  0
 12 13  2  0
 12 14  1  0
 14 15  1  0
 15 16  2  0
 16 17  1  0
 17 18  2  0
 18 19  1  0
 19 20  1  0
 20 21  2  0
 20 22  2  0
 20 23  1  0
 23 24  1  0
 24 25  1  0
 25 26  1  0
 26 27  1  0
 19 28  2  0
 10 29  2  0
 29  5  1  0
 28 15  1  0
 27 23  1  0
  1 30  1  0
  1 31  1  0
  1 32  1  0
  3 33  1  0
  3 34  1  0
  3 35  1  0
  4 36  1  0
  4 37  1  0
  4 38  1  0
  6 39  1  0
  7 40  1  0
  9 41  1  0
 16 42  1  0
 17 43  1  0
 18 44  1  0
 24 45  1  0
 24 46  1  0
 25 47  1  0
 25 48  1  0
 26 49  1  0
 26 50  1  0
 27 51  1  0
 27 52  1  0
 28 53  1  0
 29 54  1  0
M  CHG  2  11  -1  14  -1
M  END
>  <UniqueID>  (14) 
13

>  <SMILES>  (14) 
CC(C)(C)c1ccc(O)c([N-]C(=O)[N-]c2cccc(S(=O)(=O)N3CCCC3)c2)c1

>  <Energy>  (14) 
66.73514145359825

>  <Genealogy>  (14) 
CC(C)(C)c1ccc(O)c([N-]C(=O)[N-]c2cccc(S(=O)(=O)N3CCCC3)c2)c1 (protonated)
CC(C)(C)c1ccc(O)c([N-]C(=O)[N-]c2cccc(S(=O)(=O)N3CCCC3)c2)c1 (3D coordinates assigned)
CC(C)(C)c1ccc(O)c([N-]C(=O)[N-]c2cccc(S(=O)(=O)N3CCCC3)c2)c1 (nonaromatic ring conformer: 66.73514145359825 kcal/mol)

>  <smiles>  (14) 
CC(C)(C)c1ccc(O)c(NC(=O)Nc2cccc(S(=O)(=O)N3CCCC3)c2)c1

>  <score_type>  (14) 
oracle

>  <origin>  (14) 
adgpu

>  <m_score__min__energy>  (14) 
-12.970000000000001

>  <m_primary>  (14) 
energy

$$$$
14:0
     RDKit          3D

 33 35  0  0  0  0  0  0  0  0999 V2000
   -5.6670   24.6710  -28.9070 O   0  0  0  0  0  0  0  0  0  0  0  0
   -5.2930   24.7930  -30.3570 S   0  0  0  0  0  0  0  0  0  0  0  0
   -5.9240   26.0400  -30.9140 O   0  0  0  0  0  0  0  0  0  0  0  0
   -3.5960   24.8860  -30.4990 O   0  0  0  0  0  0  0  0  0  0  0  0
   -2.7890   24.3440  -29.5250 N   0  0  0  0  0  0  0  0  0  0  0  0
   -1.7250   24.9450  -28.9590 C   0  0  0  0  0  0  0  0  0  0  0  0
   -1.2300   26.1840  -29.3480 O   0  0  0  0  0  0  0  0  0  0  0  0
   -1.2390   24.1690  -27.9270 C   0  0  0  0  0  0  0  0  0  0  0  0
   -2.0470   23.0580  -27.8570 C   0  0  0  0  0  0  0  0  0  0  0  0
   -2.9980   23.1940  -28.8510 C   0  0  0  0  0  0  0  0  0  0  0  0
   -4.0230   22.2930  -29.1200 O   0  0  0  0  0  0  0  0  0  0  0  0
   -1.9010   21.9790  -26.8340 C   0  0  0  0  0  0  0  0  0  0  0  0
   -0.6910   22.2070  -25.9500 C   0  0  0  0  0  0  0  0  0  0  0  0
    0.1000   23.3020  -26.0160 C   0  0  0  0  0  0  0  0  0  0  0  0
   -0.1180   24.4500  -26.9800 C   0  0  0  0  0  0  0  0  0  0  0  0
   -5.8680   23.3920  -31.2530 C   0  0  0  0  0  0  0  0  0  0  0  0
   -7.2380   23.0910  -31.2740 C   0  0  0  0  0  0  0  0  0  0  0  0
   -7.7070   22.0040  -32.0180 C   0  0  0  0  0  0  0  0  0  0  0  0
   -6.8110   21.2160  -32.7460 C   0  0  0  0  0  0  0  0  0  0  0  0
   -5.4450   21.5150  -32.7340 C   0  0  0  0  0  0  0  0  0  0  0  0
   -4.9740   22.6040  -31.9920 C   0  0  0  0  0  0  0  0  0  0  0  0
   -4.9920   22.5830  -29.0950 H   0  0  0  0  0  0  0  0  0  0  0  0
   -2.8034   21.9589  -26.2054 H   0  0  0  0  0  0  0  0  0  0  0  0
   -1.7668   21.0224  -27.3602 H   0  0  0  0  0  0  0  0  0  0  0  0
   -0.4407   21.4338  -25.2087 H   0  0  0  0  0  0  0  0  0  0  0  0
    0.9550   23.3628  -25.3266 H   0  0  0  0  0  0  0  0  0  0  0  0
   -0.3550   25.3579  -26.4059 H   0  0  0  0  0  0  0  0  0  0  0  0
    0.8023   24.5850  -27.5673 H   0  0  0  0  0  0  0  0  0  0  0  0
   -7.9449   23.7116  -30.7038 H   0  0  0  0  0  0  0  0  0  0  0  0
   -8.7815   21.7689  -32.0304 H   0  0  0  0  0  0  0  0  0  0  0  0
   -7.1808   20.3597  -33.3290 H   0  0  0  0  0  0  0  0  0  0  0  0
   -4.7409   20.8944  -33.3076 H   0  0  0  0  0  0  0  0  0  0  0  0
   -3.9001   22.8424  -31.9885 H   0  0  0  0  0  0  0  0  0  0  0  0
  1  2  2  0
  2  3  2  0
  2  4  1  0
  4  5  1  0
  5  6  1  0
  6  7  1  0
  6  8  2  0
  8  9  1  0
  9 10  2  0
 10 11  1  0
  9 12  1  0
 12 13  1  0
 13 14  2  0
 14 15  1  0
  2 16  1  0
 16 17  2  0
 17 18  1  0
 18 19  2  0
 19 20  1  0
 20 21  2  0
 10  5  1  0
 21 16  1  0
 15  8  1  0
 11 22  1  0
 12 23  1  0
 12 24  1  0
 13 25  1  0
 14 26  1  0
 15 27  1  0
 15 28  1  0
 17 29  1  0
 18 30  1  0
 19 31  1  0
 20 32  1  0
 21 33  1  0
M  CHG  1   7  -1
M  END
>  <UniqueID>  (15) 
14

>  <SMILES>  (15) 
O=S(=O)(On1c([O-])c2c(c1O)CC=CC2)c1ccccc1

>  <Energy>  (15) 
72.81492624916254

>  <Genealogy>  (15) 
O=S(=O)(On1c([O-])c2c(c1O)CC=CC2)c1ccccc1 (protonated)
O=S(=O)(On1c([O-])c2c(c1O)CC=CC2)c1ccccc1 (3D coordinates assigned)
O=S(=O)(On1c([O-])c2c(c1O)CC=CC2)c1ccccc1 (nonaromatic ring conformer: 72.81492624916254 kcal/mol)

>  <smiles>  (15) 
O=S(=O)(On1c(O)c2c(c1O)CC=CC2)c1ccccc1

>  <score_type>  (15) 
oracle

>  <origin>  (15) 
adgpu

>  <m_score__min__energy>  (15) 
-10.630000000000001

>  <m_primary>  (15) 
energy

$$$$
15:0
     RDKit          3D

 48 51  0  0  0  0  0  0  0  0999 V2000
   -5.7250   26.1720  -31.2230 O   0  0  0  0  0  0  0  0  0  0  0  0
   -5.2620   25.0030  -30.4000 S   0  0  0  0  0  0  0  0  0  0  0  0
   -5.7030   25.2080  -28.9790 O   0  0  0  0  0  0  0  0  0  0  0  0
   -3.5300   24.9220  -30.4530 N   0  0  0  0  0  0  0  0  0  0  0  0
   -2.7100   24.1460  -29.5680 C   0  0  0  0  0  0  0  0  0  0  0  0
   -3.0290   22.8210  -29.2290 C   0  0  0  0  0  0  0  0  0  0  0  0
   -2.2000   22.0780  -28.3760 C   0  0  0  0  0  0  0  0  0  0  0  0
   -1.0280   22.6660  -27.8640 C   0  0  0  0  0  0  0  0  0  0  0  0
   -0.7290   23.9990  -28.1740 C   0  0  0  0  0  0  0  0  0  0  0  0
   -1.5590   24.7330  -29.0260 C   0  0  0  0  0  0  0  0  0  0  0  0
   -1.2320   26.0480  -29.3380 O   0  0  0  0  0  0  0  0  0  0  0  0
   -0.1170   21.8940  -26.9480 C   0  0  0  0  0  0  0  0  0  0  0  0
   -0.2220   20.4400  -27.1540 N   0  0  0  0  0  0  0  0  0  0  0  0
    0.6560   19.8620  -28.1980 C   0  0  0  0  0  0  0  0  0  0  0  0
    0.0670   19.8850  -29.5910 C   0  0  0  0  0  0  0  0  0  0  0  0
   -0.0700   21.0980  -30.2880 C   0  0  0  0  0  0  0  0  0  0  0  0
   -0.6170   21.1160  -31.5740 C   0  0  0  0  0  0  0  0  0  0  0  0
   -1.0100   19.9230  -32.1840 C   0  0  0  0  0  0  0  0  0  0  0  0
   -0.8590   18.7090  -31.5080 C   0  0  0  0  0  0  0  0  0  0  0  0
   -0.3100   18.6880  -30.2230 C   0  0  0  0  0  0  0  0  0  0  0  0
   -1.6050   19.9330  -27.1060 C   0  0  0  0  0  0  0  0  0  0  0  0
   -2.5620   20.6460  -28.0810 C   0  0  0  0  0  0  0  0  0  0  0  0
   -5.9520   23.5290  -31.0720 C   0  0  0  0  0  0  0  0  0  0  0  0
   -5.1810   22.6760  -31.8720 C   0  0  0  0  0  0  0  0  0  0  0  0
   -5.7420   21.5080  -32.3960 C   0  0  0  0  0  0  0  0  0  0  0  0
   -7.0740   21.1840  -32.1170 C   0  0  0  0  0  0  0  0  0  0  0  0
   -7.7780   19.7180  -32.7740 Cl  0  0  0  0  0  0  0  0  0  0  0  0
   -7.8460   22.0320  -31.3180 C   0  0  0  0  0  0  0  0  0  0  0  0
   -7.2890   23.2060  -30.8020 C   0  0  0  0  0  0  0  0  0  0  0  0
   -3.9404   22.3602  -29.6376 H   0  0  0  0  0  0  0  0  0  0  0  0
    0.1661   24.4718  -27.7435 H   0  0  0  0  0  0  0  0  0  0  0  0
    0.9212   22.2044  -27.1372 H   0  0  0  0  0  0  0  0  0  0  0  0
   -0.4176   22.1105  -25.9123 H   0  0  0  0  0  0  0  0  0  0  0  0
    1.5960   20.4331  -28.2122 H   0  0  0  0  0  0  0  0  0  0  0  0
    0.8019   18.8037  -27.9357 H   0  0  0  0  0  0  0  0  0  0  0  0
    0.2551   22.0382  -29.8187 H   0  0  0  0  0  0  0  0  0  0  0  0
   -0.7381   22.0710  -32.1062 H   0  0  0  0  0  0  0  0  0  0  0  0
   -1.4386   19.9386  -33.1969 H   0  0  0  0  0  0  0  0  0  0  0  0
   -1.1723   17.7699  -31.9875 H   0  0  0  0  0  0  0  0  0  0  0  0
   -0.1722   17.7285  -29.7031 H   0  0  0  0  0  0  0  0  0  0  0  0
   -1.5907   18.8617  -27.3551 H   0  0  0  0  0  0  0  0  0  0  0  0
   -1.9814   20.1235  -26.0901 H   0  0  0  0  0  0  0  0  0  0  0  0
   -2.5633   20.0894  -29.0298 H   0  0  0  0  0  0  0  0  0  0  0  0
   -3.5477   20.6665  -27.5931 H   0  0  0  0  0  0  0  0  0  0  0  0
   -4.1318   22.9259  -32.0883 H   0  0  0  0  0  0  0  0  0  0  0  0
   -5.1356   20.8429  -33.0284 H   0  0  0  0  0  0  0  0  0  0  0  0
   -8.8922   21.7756  -31.0951 H   0  0  0  0  0  0  0  0  0  0  0  0
   -7.9015   23.8778  -30.1827 H   0  0  0  0  0  0  0  0  0  0  0  0
  1  2  2  0
  2  3  2  0
  2  4  1  0
  4  5  1  0
  5  6  2  0
  6  7  1  0
  7  8  2  0
  8  9  1  0
  9 10  2  0
 10 11  1  0
  8 12  1  0
 12 13  1  0
 13 14  1  0
 14 15  1  0
 15 16  2  0
 16 17  1  0
 17 18  2  0
 18 19  1  0
 19 20  2  0
 13 21  1  0
 21 22  1  0
  2 23  1  0
 23 24  2  0
 24 25  1  0
 25 26  2  0
 26 27  1  0
 26 28  1  0
 28 29  2  0
 10  5  1  0
 20 15  1  0
 29 23  1  0
 22  7  1  0
  6 30  1  0
  9 31  1  0
 12 32  1  0
 12 33  1  0
 14 34  1  0
 14 35  1  0
 16 36  1  0
 17 37  1  0
 18 38  1  0
 19 39  1  0
 20 40  1  0
 21 41  1  0
 21 42  1  0
 22 43  1  0
 22 44  1  0
 24 45  1  0
 25 46  1  0
 28 47  1  0
 29 48  1  0
M  CHG  2   4  -1  11  -1
M  END
>  <UniqueID>  (16) 
15

>  <SMILES>  (16) 
O=S(=O)([N-]c1cc2c(cc1[O-])CN(Cc1ccccc1)CC2)c1ccc(Cl)cc1

>  <Energy>  (16) 
61.72346413448498

>  <Genealogy>  (16) 
O=S(=O)([N-]c1cc2c(cc1[O-])CN(Cc1ccccc1)CC2)c1ccc(Cl)cc1 (protonated)
O=S(=O)([N-]c1cc2c(cc1[O-])CN(Cc1ccccc1)CC2)c1ccc(Cl)cc1 (3D coordinates assigned)
O=S(=O)([N-]c1cc2c(cc1[O-])CN(Cc1ccccc1)CC2)c1ccc(Cl)cc1 (nonaromatic ring conformer: 61.72346413448498 kcal/mol)

>  <smiles>  (16) 
O=S(=O)(Nc1cc2c(cc1O)CN(Cc1ccccc1)CC2)c1ccc(Cl)cc1

>  <score_type>  (16) 
oracle

>  <origin>  (16) 
adgpu

>  <m_score__min__energy>  (16) 
-14.109999999999999

>  <m_primary>  (16) 
energy

$$$$
16:0
     RDKit          3D

 40 43  0  0  0  0  0  0  0  0999 V2000
   -1.5660   19.8000  -31.6390 C   0  0  0  0  0  0  0  0  0  0  0  0
   -1.9530   20.8300  -30.6190 C   0  0  0  0  0  0  0  0  0  0  0  0
   -1.9150   20.5200  -29.2550 C   0  0  0  0  0  0  0  0  0  0  0  0
   -2.2770   21.4750  -28.3080 C   0  0  0  0  0  0  0  0  0  0  0  0
   -2.7030   22.7520  -28.7060 C   0  0  0  0  0  0  0  0  0  0  0  0
   -3.0130   23.7300  -27.6990 N   0  0  0  0  0  0  0  0  0  0  0  0
   -4.2320   24.1030  -27.2680 C   0  0  0  0  0  0  0  0  0  0  0  0
   -4.1460   25.1000  -26.3660 N   0  0  0  0  0  0  0  0  0  0  0  0
   -2.8140   25.3110  -26.2900 C   0  0  0  0  0  0  0  0  0  0  0  0
   -2.1160   24.4940  -27.1020 N   0  0  0  0  0  0  0  0  0  0  0  0
   -2.8290   23.0470  -30.0820 C   0  0  0  0  0  0  0  0  0  0  0  0
   -3.3690   24.3210  -30.4780 N   0  0  0  0  0  0  0  0  0  0  0  0
   -4.7410   24.6840  -30.6870 C   0  0  0  0  0  0  0  0  0  0  0  0
   -5.0690   25.8790  -30.9120 O   0  0  0  0  0  0  0  0  0  0  0  0
   -5.7870   23.6530  -30.6330 C   0  0  0  0  0  0  0  0  0  0  0  0
   -6.8670   23.6390  -29.7630 C   0  0  0  0  0  0  0  0  0  0  0  0
   -7.5730   22.5400  -29.9430 O   0  0  0  0  0  0  0  0  0  0  0  0
   -7.0090   21.8420  -30.9010 C   0  0  0  0  0  0  0  0  0  0  0  0
   -5.8910   22.4840  -31.3670 C   0  0  0  0  0  0  0  0  0  0  0  0
   -5.1450   21.9810  -32.5270 C   0  0  0  0  0  0  0  0  0  0  0  0
   -4.2750   22.6820  -33.1060 O   0  0  0  0  0  0  0  0  0  0  0  0
   -5.4720   20.5990  -33.0300 C   0  0  0  0  0  0  0  0  0  0  0  0
   -6.9790   20.2920  -32.8650 C   0  0  0  0  0  0  0  0  0  0  0  0
   -7.4760   20.5140  -31.4190 C   0  0  0  0  0  0  0  0  0  0  0  0
   -2.4190   22.0870  -31.0290 C   0  0  0  0  0  0  0  0  0  0  0  0
   -1.2234   18.8883  -31.1277 H   0  0  0  0  0  0  0  0  0  0  0  0
   -2.4362   19.5624  -32.2686 H   0  0  0  0  0  0  0  0  0  0  0  0
   -0.7547   20.1942  -32.2686 H   0  0  0  0  0  0  0  0  0  0  0  0
   -1.5980   19.5182  -28.9294 H   0  0  0  0  0  0  0  0  0  0  0  0
   -2.2286   21.2261  -27.2376 H   0  0  0  0  0  0  0  0  0  0  0  0
   -5.1761   23.6524  -27.6080 H   0  0  0  0  0  0  0  0  0  0  0  0
   -2.3509   26.0660  -25.6376 H   0  0  0  0  0  0  0  0  0  0  0  0
   -7.0999   24.4272  -29.0319 H   0  0  0  0  0  0  0  0  0  0  0  0
   -5.2055   20.5313  -34.0951 H   0  0  0  0  0  0  0  0  0  0  0  0
   -4.8985   19.8670  -32.4423 H   0  0  0  0  0  0  0  0  0  0  0  0
   -7.5483   20.9500  -33.5381 H   0  0  0  0  0  0  0  0  0  0  0  0
   -7.1315   19.2306  -33.1103 H   0  0  0  0  0  0  0  0  0  0  0  0
   -8.5756   20.4867  -31.4060 H   0  0  0  0  0  0  0  0  0  0  0  0
   -7.0693   19.7187  -30.7770 H   0  0  0  0  0  0  0  0  0  0  0  0
   -2.4652   22.3267  -32.1016 H   0  0  0  0  0  0  0  0  0  0  0  0
  1  2  1  0
  2  3  2  0
  3  4  1  0
  4  5  2  0
  5  6  1  0
  6  7  1  0
  7  8  2  0
  8  9  1  0
  9 10  2  0
  5 11  1  0
 11 12  1  0
 12 13  1  0
 13 14  2  0
 13 15  1  0
 15 16  2  0
 16 17  1  0
 17 18  1  0
 18 19  2  0
 19 20  1  0
 20 21  2  0
 20 22  1  0
 22 23  1  0
 23 24  1  0
 11 25  2  0
 25  2  1  0
 10  6  1  0
 19 15  1  0
 24 18  1  0
  1 26  1  0
  1 27  1  0
  1 28  1  0
  3 29  1  0
  4 30  1  0
  7 31  1  0
  9 32  1  0
 16 33  1  0
 22 34  1  0
 22 35  1  0
 23 36  1  0
 23 37  1  0
 24 38  1  0
 24 39  1  0
 25 40  1  0
M  CHG  1  12  -1
M  END
>  <UniqueID>  (17) 
16

>  <SMILES>  (17) 
Cc1ccc(-n2cncn2)c([N-]C(=O)c2coc3c2C(=O)CCC3)c1

>  <Energy>  (17) 
115.36908856620917

>  <Genealogy>  (17) 
Cc1ccc(-n2cncn2)c([N-]C(=O)c2coc3c2C(=O)CCC3)c1 (protonated)
Cc1ccc(-n2cncn2)c([N-]C(=O)c2coc3c2C(=O)CCC3)c1 (3D coordinates assigned)
Cc1ccc(-n2cncn2)c([N-]C(=O)c2coc3c2C(=O)CCC3)c1 (nonaromatic ring conformer: 115.36908856620917 kcal/mol)

>  <smiles>  (17) 
Cc1ccc(-n2cncn2)c(NC(=O)c2coc3c2C(=O)CCC3)c1

>  <score_type>  (17) 
oracle

>  <origin>  (17) 
adgpu

>  <m_score__min__energy>  (17) 
-9.0299999999999994

>  <m_primary>  (17) 
energy

$$$$
17:0
     RDKit          3D

 44 46  0  0  0  0  0  0  0  0999 V2000
   -0.2520   24.1510  -27.2500 C   0  0  0  0  0  0  0  0  0  0  0  0
   -1.2280   24.0330  -28.3270 N   0  0  0  0  0  0  0  0  0  0  0  0
   -1.7760   22.8860  -28.7840 C   0  0  0  0  0  0  0  0  0  0  0  0
   -2.7320   23.1690  -29.7520 C   0  0  0  0  0  0  0  0  0  0  0  0
   -3.6440   22.1670  -30.4190 C   0  0  1  0  0  0  0  0  0  0  0  0
   -4.9050   22.7270  -30.6800 O   0  0  0  0  0  0  0  0  0  0  0  0
   -3.0540   21.6590  -31.6670 N   0  0  0  0  0  0  0  0  0  0  0  0
   -3.5570   20.5120  -32.3840 C   0  0  0  0  0  0  0  0  0  0  0  0
   -4.7790   19.9020  -32.0320 C   0  0  0  0  0  0  0  0  0  0  0  0
   -5.2560   18.7930  -32.7460 C   0  0  0  0  0  0  0  0  0  0  0  0
   -6.7960   18.0470  -32.3230 S   0  0  0  0  0  0  0  0  0  0  0  0
   -6.8750   16.7050  -32.9970 O   0  0  0  0  0  0  0  0  0  0  0  0
   -6.8770   17.8410  -30.8350 O   0  0  0  0  0  0  0  0  0  0  0  0
   -8.1140   19.0620  -32.8690 N   0  0  0  0  0  0  0  0  0  0  0  0
   -7.6350   20.4150  -33.1650 C   0  0  0  0  0  0  0  0  0  0  0  0
   -7.8150   21.2660  -31.9170 C   0  0  0  0  0  0  0  0  0  0  0  0
   -8.7770   20.4930  -31.0340 C   0  0  0  0  0  0  0  0  0  0  0  0
   -9.1100   19.2240  -31.8050 C   0  0  0  0  0  0  0  0  0  0  0  0
   -4.5160   18.2890  -33.8200 C   0  0  0  0  0  0  0  0  0  0  0  0
   -3.3040   18.8820  -34.1760 C   0  0  0  0  0  0  0  0  0  0  0  0
   -2.8230   19.9860  -33.4660 C   0  0  0  0  0  0  0  0  0  0  0  0
   -1.6120   20.5540  -33.8430 O   0  0  0  0  0  0  0  0  0  0  0  0
   -2.7890   24.5510  -29.8320 C   0  0  0  0  0  0  0  0  0  0  0  0
   -3.6450   25.3060  -30.6250 O   0  0  0  0  0  0  0  0  0  0  0  0
   -1.8570   25.0460  -28.9540 C   0  0  0  0  0  0  0  0  0  0  0  0
   -1.6070   26.3920  -28.7160 O   0  0  0  0  0  0  0  0  0  0  0  0
   -0.7670   24.0887  -26.2800 H   0  0  0  0  0  0  0  0  0  0  0  0
    0.4814   23.3350  -27.3288 H   0  0  0  0  0  0  0  0  0  0  0  0
    0.2658   25.1183  -27.3288 H   0  0  0  0  0  0  0  0  0  0  0  0
   -1.5054   21.8767  -28.4405 H   0  0  0  0  0  0  0  0  0  0  0  0
   -3.7697   21.3247  -29.7228 H   0  0  0  0  0  0  0  0  0  0  0  0
   -4.7870   23.7120  -30.7130 H   0  0  0  0  0  0  0  0  0  0  0  0
   -2.2500   22.1860  -32.0790 H   0  0  0  0  0  0  0  0  0  0  0  0
   -5.3636   20.2998  -31.1894 H   0  0  0  0  0  0  0  0  0  0  0  0
   -6.5711   20.3811  -33.4424 H   0  0  0  0  0  0  0  0  0  0  0  0
   -8.2032   20.8445  -34.0033 H   0  0  0  0  0  0  0  0  0  0  0  0
   -6.8515   21.4062  -31.4051 H   0  0  0  0  0  0  0  0  0  0  0  0
   -8.1986   22.2683  -32.1585 H   0  0  0  0  0  0  0  0  0  0  0  0
   -8.3019   20.2452  -30.0734 H   0  0  0  0  0  0  0  0  0  0  0  0
   -9.6794   21.0787  -30.8047 H   0  0  0  0  0  0  0  0  0  0  0  0
   -9.0770   18.3573  -31.1284 H   0  0  0  0  0  0  0  0  0  0  0  0
  -10.1196   19.2941  -32.2360 H   0  0  0  0  0  0  0  0  0  0  0  0
   -4.8901   17.4230  -34.3857 H   0  0  0  0  0  0  0  0  0  0  0  0
   -2.7243   18.4788  -35.0194 H   0  0  0  0  0  0  0  0  0  0  0  0
  1  2  1  0
  2  3  1  0
  3  4  2  0
  4  5  1  0
  5  6  1  0
  5  7  1  0
  7  8  1  0
  8  9  2  0
  9 10  1  0
 10 11  1  0
 11 12  2  0
 11 13  2  0
 11 14  1  0
 14 15  1  0
 15 16  1  0
 16 17  1  0
 17 18  1  0
 10 19  2  0
 19 20  1  0
 20 21  2  0
 21 22  1  0
  4 23  1  0
 23 24  1  0
 23 25  2  0
 25 26  1  0
 25  2  1  0
 21  8  1  0
 18 14  1  0
  1 27  1  0
  1 28  1  0
  1 29  1  0
  3 30  1  0
  5 31  1  1
  6 32  1  0
  7 33  1  0
  9 34  1  0
 15 35  1  0
 15 36  1  0
 16 37  1  0
 16 38  1  0
 17 39  1  0
 17 40  1  0
 18 41  1  0
 18 42  1  0
 19 43  1  0
 20 44  1  0
M  CHG  3  22  -1  24  -1  26  -1
M  END
>  <UniqueID>  (18) 
17

>  <SMILES>  (18) 
Cn1cc([C@@H](O)Nc2cc(S(=O)(=O)N3CCCC3)ccc2[O-])c([O-])c1[O-]

>  <Energy>  (18) 
76.6998747118695

>  <Genealogy>  (18) 
Cn1cc(C(O)Nc2cc(S(=O)(=O)N3CCCC3)ccc2[O-])c([O-])c1[O-] (protonated)
Cn1cc([C@@H](O)Nc2cc(S(=O)(=O)N3CCCC3)ccc2[O-])c([O-])c1[O-] (chirality)
Cn1cc([C@@H](O)Nc2cc(S(=O)(=O)N3CCCC3)ccc2[O-])c([O-])c1[O-] (3D coordinates assigned)
Cn1cc([C@@H](O)Nc2cc(S(=O)(=O)N3CCCC3)ccc2[O-])c([O-])c1[O-] (nonaromatic ring conformer: 76.6998747118695 kcal/mol)

>  <smiles>  (18) 
Cn1cc(C(O)Nc2cc(S(=O)(=O)N3CCCC3)ccc2O)c(O)c1O

>  <score_type>  (18) 
oracle

>  <origin>  (18) 
adgpu

>  <m_score__min__energy>  (18) 
-13.94

>  <m_primary>  (18) 
energy

$$$$
18:0
     RDKit          3D

 46 49  0  0  0  0  0  0  0  0999 V2000
   -9.2560   21.2860  -30.8970 C   0  0  0  0  0  0  0  0  0  0  0  0
   -7.8870   21.9000  -31.0290 C   0  0  0  0  0  0  0  0  0  0  0  0
   -7.5710   22.9970  -30.2130 C   0  0  0  0  0  0  0  0  0  0  0  0
   -6.3220   23.6050  -30.2880 C   0  0  0  0  0  0  0  0  0  0  0  0
   -5.3570   23.1320  -31.1770 C   0  0  0  0  0  0  0  0  0  0  0  0
   -4.0770   23.7750  -31.1910 N   0  0  0  0  0  0  0  0  0  0  0  0
   -3.7440   24.9290  -30.4090 C   0  0  0  0  0  0  0  0  0  0  0  0
   -4.4420   25.9730  -30.4940 O   0  0  0  0  0  0  0  0  0  0  0  0
   -2.6420   24.9010  -29.4970 N   0  0  0  0  0  0  0  0  0  0  0  0
   -2.0540   23.7280  -28.9170 C   0  0  0  0  0  0  0  0  0  0  0  0
   -0.6720   23.6370  -28.6590 C   0  0  0  0  0  0  0  0  0  0  0  0
   -0.1380   22.4830  -28.0750 C   0  0  0  0  0  0  0  0  0  0  0  0
   -0.9780   21.4220  -27.7330 C   0  0  0  0  0  0  0  0  0  0  0  0
   -2.3600   21.5280  -27.9370 C   0  0  0  0  0  0  0  0  0  0  0  0
   -2.8960   22.6730  -28.5330 C   0  0  0  0  0  0  0  0  0  0  0  0
   -3.1890   20.4750  -27.5370 O   0  0  0  0  0  0  0  0  0  0  0  0
   -2.7010   19.4320  -26.6890 C   0  0  0  0  0  0  0  0  0  0  0  0
   -1.2600   19.0670  -27.0710 C   0  0  0  0  0  0  0  0  0  0  0  0
   -0.4610   20.2480  -27.1770 O   0  0  0  0  0  0  0  0  0  0  0  0
   -5.6660   22.0610  -32.0430 C   0  0  0  0  0  0  0  0  0  0  0  0
   -4.7700   21.6730  -33.0420 O   0  0  0  0  0  0  0  0  0  0  0  0
   -6.9120   21.4000  -31.9340 C   0  0  0  0  0  0  0  0  0  0  0  0
   -7.2540   20.0060  -32.9890 S   0  0  0  0  0  0  0  0  0  0  0  0
   -6.3760   20.0420  -34.2080 O   0  0  0  0  0  0  0  0  0  0  0  0
   -8.6830   20.0510  -33.4600 O   0  0  0  0  0  0  0  0  0  0  0  0
   -6.9280   18.5020  -32.0720 C   0  0  0  0  0  0  0  0  0  0  0  0
   -5.5880   17.8490  -32.3660 C   0  0  0  0  0  0  0  0  0  0  0  0
   -6.8700   17.2400  -32.9150 C   0  0  0  0  0  0  0  0  0  0  0  0
   -9.5063   21.1737  -29.8318 H   0  0  0  0  0  0  0  0  0  0  0  0
   -9.9983   21.9374  -31.3814 H   0  0  0  0  0  0  0  0  0  0  0  0
   -9.2632   20.2984  -31.3814 H   0  0  0  0  0  0  0  0  0  0  0  0
   -8.3203   23.3810  -29.5051 H   0  0  0  0  0  0  0  0  0  0  0  0
   -6.0938   24.4651  -29.6414 H   0  0  0  0  0  0  0  0  0  0  0  0
   -0.0100   24.4766  -28.9177 H   0  0  0  0  0  0  0  0  0  0  0  0
    0.9432   22.4120  -27.8855 H   0  0  0  0  0  0  0  0  0  0  0  0
   -3.9805   22.7474  -28.7015 H   0  0  0  0  0  0  0  0  0  0  0  0
   -2.7241   19.7733  -25.6435 H   0  0  0  0  0  0  0  0  0  0  0  0
   -3.3394   18.5443  -26.8092 H   0  0  0  0  0  0  0  0  0  0  0  0
   -0.8351   18.4094  -26.2983 H   0  0  0  0  0  0  0  0  0  0  0  0
   -1.2669   18.5510  -28.0424 H   0  0  0  0  0  0  0  0  0  0  0  0
   -4.9960   21.6980  -34.0270 H   0  0  0  0  0  0  0  0  0  0  0  0
   -7.4621   18.8068  -31.1599 H   0  0  0  0  0  0  0  0  0  0  0  0
   -4.8754   18.3376  -33.0468 H   0  0  0  0  0  0  0  0  0  0  0  0
   -4.7509   17.4806  -31.7547 H   0  0  0  0  0  0  0  0  0  0  0  0
   -7.0843   17.2881  -33.9929 H   0  0  0  0  0  0  0  0  0  0  0  0
   -7.3439   16.2486  -32.8652 H   0  0  0  0  0  0  0  0  0  0  0  0
  1  2  1  0
  2  3  2  0
  3  4  1  0
  4  5  2  0
  5  6  1  0
  6  7  1  0
  7  8  2  0
  7  9  1  0
  9 10  1  0
 10 11  2  0
 11 12  1  0
 12 13  2  0
 13 14  1  0
 14 15  2  0
 14 16  1  0
 16 17  1  0
 17 18  1  0
 18 19  1  0
  5 20  1  0
 20 21  1  0
 20 22  2  0
 22 23  1  0
 23 24  2  0
 23 25  2  0
 23 26  1  0
 26 27  1  0
 27 28  1  0
 22  2  1  0
 28 26  1  0
 15 10  1  0
 19 13  1  0
  1 29  1  0
  1 30  1  0
  1 31  1  0
  3 32  1  0
  4 33  1  0
 11 34  1  0
 12 35  1  0
 15 36  1  0
 17 37  1  0
 17 38  1  0
 18 39  1  0
 18 40  1  0
 21 41  1  0
 26 42  1  0
 27 43  1  0
 27 44  1  0
 28 45  1  0
 28 46  1  0
M  CHG  2   6  -1   9  -1
M  END
>  <UniqueID>  (19) 
18

>  <SMILES>  (19) 
Cc1ccc([N-]C(=O)[N-]c2ccc3c(c2)OCCO3)c(O)c1S(=O)(=O)C1CC1

>  <Energy>  (19) 
325.9937557206543

>  <Genealogy>  (19) 
Cc1ccc([N-]C(=O)[N-]c2ccc3c(c2)OCCO3)c(O)c1S(=O)(=O)C1CC1 (protonated)
Cc1ccc([N-]C(=O)[N-]c2ccc3c(c2)OCCO3)c(O)c1S(=O)(=O)C1CC1 (3D coordinates assigned)
Cc1ccc([N-]C(=O)[N-]c2ccc3c(c2)OCCO3)c(O)c1S(=O)(=O)C1CC1 (nonaromatic ring conformer: 325.9937557206543 kcal/mol)

>  <smiles>  (19) 
Cc1ccc(NC(=O)Nc2ccc3c(c2)OCCO3)c(O)c1S(=O)(=O)C1CC1

>  <score_type>  (19) 
oracle

>  <origin>  (19) 
adgpu

>  <m_score__min__energy>  (19) 
-12.35

>  <m_primary>  (19) 
energy

$$$$
19:0
     RDKit          3D

 42 44  0  0  0  0  0  0  0  0999 V2000
   -3.8620   25.3600  -30.5000 N   0  0  0  0  0  0  0  0  0  0  0  0
   -4.9260   24.6360  -30.6430 C   0  0  0  0  0  0  0  0  0  0  0  0
   -5.7480   24.3380  -29.5460 C   0  0  0  0  0  0  0  0  0  0  0  0
   -6.8880   23.5540  -29.7380 C   0  0  0  0  0  0  0  0  0  0  0  0
   -7.2020   23.0810  -31.0160 C   0  0  0  0  0  0  0  0  0  0  0  0
   -8.6200   22.0700  -31.2690 S   0  0  0  0  0  0  0  0  0  0  0  0
   -9.3790   21.9160  -29.9800 O   0  0  0  0  0  0  0  0  0  0  0  0
   -9.5330   22.7140  -32.2740 O   0  0  0  0  0  0  0  0  0  0  0  0
   -8.1020   20.4910  -31.8440 C   0  0  0  0  0  0  0  0  0  0  0  0
   -8.9760   19.3950  -31.7960 C   0  0  0  0  0  0  0  0  0  0  0  0
   -8.5620   18.1480  -32.2700 C   0  0  0  0  0  0  0  0  0  0  0  0
   -7.2790   17.9880  -32.8000 C   0  0  0  0  0  0  0  0  0  0  0  0
   -6.4040   19.0810  -32.8660 C   0  0  0  0  0  0  0  0  0  0  0  0
   -4.7790   18.8970  -33.5230 S   0  0  0  0  0  0  0  0  0  0  0  0
   -4.0320   17.8530  -32.7400 O   0  0  0  0  0  0  0  0  0  0  0  0
   -4.8950   18.4340  -34.9490 O   0  0  0  0  0  0  0  0  0  0  0  0
   -3.9470   20.4380  -33.4540 N   0  0  0  0  0  0  0  0  0  0  0  0
   -2.6060   20.3550  -34.0660 C   0  0  0  0  0  0  0  0  0  0  0  0
   -1.6000   19.5910  -33.1730 C   0  0  0  0  0  0  0  0  0  0  0  0
   -2.0130   19.4750  -31.8220 O   0  0  0  0  0  0  0  0  0  0  0  0
   -2.5560   20.6940  -31.3720 C   0  0  0  0  0  0  0  0  0  0  0  0
   -3.8990   20.9750  -32.0720 C   0  0  0  0  0  0  0  0  0  0  0  0
   -6.8190   20.3310  -32.3850 C   0  0  0  0  0  0  0  0  0  0  0  0
   -6.3520   23.3930  -32.0830 C   0  0  0  0  0  0  0  0  0  0  0  0
   -5.2480   24.1570  -31.8750 N   0  0  0  0  0  0  0  0  0  0  0  0
   -3.5710   25.7510  -29.5750 H   0  0  0  0  0  0  0  0  0  0  0  0
   -5.4973   24.7179  -28.5446 H   0  0  0  0  0  0  0  0  0  0  0  0
   -7.5379   23.3090  -28.8850 H   0  0  0  0  0  0  0  0  0  0  0  0
   -9.9888   19.5177  -31.3845 H   0  0  0  0  0  0  0  0  0  0  0  0
   -9.2481   17.2893  -32.2259 H   0  0  0  0  0  0  0  0  0  0  0  0
   -6.9551   17.0025  -33.1661 H   0  0  0  0  0  0  0  0  0  0  0  0
   -4.5150   21.0980  -34.0360 H   0  0  0  0  0  0  0  0  0  0  0  0
   -2.6892   19.8339  -35.0312 H   0  0  0  0  0  0  0  0  0  0  0  0
   -2.2305   21.3809  -34.1947 H   0  0  0  0  0  0  0  0  0  0  0  0
   -1.4688   18.5793  -33.5844 H   0  0  0  0  0  0  0  0  0  0  0  0
   -0.6640   20.1689  -33.1751 H   0  0  0  0  0  0  0  0  0  0  0  0
   -2.7182   20.6393  -30.2854 H   0  0  0  0  0  0  0  0  0  0  0  0
   -1.8534   21.5065  -31.6091 H   0  0  0  0  0  0  0  0  0  0  0  0
   -4.7055   20.5105  -31.4857 H   0  0  0  0  0  0  0  0  0  0  0  0
   -4.0191   22.0666  -32.1351 H   0  0  0  0  0  0  0  0  0  0  0  0
   -6.1341   21.1905  -32.4325 H   0  0  0  0  0  0  0  0  0  0  0  0
   -6.5782   23.0188  -33.0924 H   0  0  0  0  0  0  0  0  0  0  0  0
  1  2  2  3
  2  3  1  0
  3  4  2  0
  4  5  1  0
  5  6  1  0
  6  7  2  0
  6  8  2  0
  6  9  1  0
  9 10  2  0
 10 11  1  0
 11 12  2  0
 12 13  1  0
 13 14  1  0
 14 15  2  0
 14 16  2  0
 14 17  1  0
 17 18  1  0
 18 19  1  0
 19 20  1  0
 20 21  1  0
 21 22  1  0
 13 23  2  0
  5 24  2  0
 24 25  1  0
 25  2  1  0
 23  9  1  0
 22 17  1  0
  1 26  1  0
  3 27  1  0
  4 28  1  0
 10 29  1  0
 11 30  1  0
 12 31  1  0
 17 32  1  0
 18 33  1  0
 18 34  1  0
 19 35  1  0
 19 36  1  0
 21 37  1  0
 21 38  1  0
 22 39  1  0
 22 40  1  0
 23 41  1  0
 24 42  1  0
M  CHG  2  17   1  25  -1
M  END
>  <UniqueID>  (20) 
19

>  <SMILES>  (20) 
N=c1ccc(S(=O)(=O)c2cccc(S(=O)(=O)[NH+]3CCOCC3)c2)c[n-]1

>  <Energy>  (20) 
56.77000103961425

>  <Genealogy>  (20) 
N=c1ccc(S(=O)(=O)c2cccc(S(=O)(=O)[NH+]3CCOCC3)c2)c[n-]1 (protonated)
N=c1ccc(S(=O)(=O)c2cccc(S(=O)(=O)[NH+]3CCOCC3)c2)c[n-]1 (3D coordinates assigned)
N=c1ccc(S(=O)(=O)c2cccc(S(=O)(=O)[NH+]3CCOCC3)c2)c[n-]1 (nonaromatic ring conformer: 56.77000103961425 kcal/mol)

>  <smiles>  (20) 
N=c1ccc(S(=O)(=O)c2cccc(S(=O)(=O)N3CCOCC3)c2)c[nH]1

>  <score_type>  (20) 
oracle

>  <origin>  (20) 
adgpu

>  <m_score__min__energy>  (20) 
-10.83

>  <m_primary>  (20) 
energy

$$$$
20:0
     RDKit          3D

 59 62  0  0  0  0  0  0  0  0999 V2000
   -9.4610   20.8830  -31.9780 C   0  0  0  0  0  0  0  0  0  0  0  0
   -8.1820   21.6740  -31.9440 C   0  0  0  0  0  0  0  0  0  0  0  0
   -8.2510   23.0360  -31.6000 C   0  0  0  0  0  0  0  0  0  0  0  0
   -7.0980   23.8130  -31.5070 C   0  0  0  0  0  0  0  0  0  0  0  0
   -5.8460   23.2510  -31.7820 C   0  0  0  0  0  0  0  0  0  0  0  0
   -4.6250   23.9730  -31.5800 N   0  0  0  0  0  0  0  0  0  0  0  0
   -4.3510   25.0010  -30.6210 C   0  0  0  0  0  0  0  0  0  0  0  0
   -5.1290   25.9810  -30.4860 O   0  0  0  0  0  0  0  0  0  0  0  0
   -3.1360   24.9470  -29.8680 N   0  0  0  0  0  0  0  0  0  0  0  0
   -2.8620   23.8720  -28.9590 C   0  0  0  0  0  0  0  0  0  0  0  0
   -1.9460   24.0570  -27.9160 C   0  0  0  0  0  0  0  0  0  0  0  0
   -1.5730   22.9750  -27.1100 C   0  0  0  0  0  0  0  0  0  0  0  0
   -2.1290   21.7060  -27.3310 C   0  0  0  0  0  0  0  0  0  0  0  0
   -1.5970   20.3090  -26.4000 S   0  0  0  0  0  0  0  0  0  0  0  0
   -2.7210   19.3100  -26.3500 O   0  0  0  0  0  0  0  0  0  0  0  0
   -1.2480   20.7280  -24.9970 O   0  0  0  0  0  0  0  0  0  0  0  0
   -0.1950   19.5840  -27.1570 N   0  0  0  0  0  0  0  0  0  0  0  0
   -0.5080   18.2050  -27.5940 C   0  0  0  0  0  0  0  0  0  0  0  0
    0.5200   17.7060  -28.6190 C   0  0  0  0  0  0  0  0  0  0  0  0
    0.5650   18.5530  -29.8370 N   0  0  0  0  0  0  0  0  0  0  0  0
   -0.0910   17.8900  -30.9750 C   0  0  0  0  0  0  0  0  0  0  0  0
    0.0020   19.9080  -29.6400 C   0  0  0  0  0  0  0  0  0  0  0  0
    0.3300   20.4490  -28.2400 C   0  0  0  0  0  0  0  0  0  0  0  0
   -3.1050   21.5420  -28.3210 C   0  0  0  0  0  0  0  0  0  0  0  0
   -3.4640   22.6150  -29.1370 C   0  0  0  0  0  0  0  0  0  0  0  0
   -5.7600   21.9020  -32.1450 C   0  0  0  0  0  0  0  0  0  0  0  0
   -4.5050   21.3600  -32.4140 O   0  0  0  0  0  0  0  0  0  0  0  0
   -6.9130   21.0930  -32.2180 C   0  0  0  0  0  0  0  0  0  0  0  0
   -6.6770   19.3650  -32.5910 S   0  0  0  0  0  0  0  0  0  0  0  0
   -8.0270   18.7130  -32.7160 O   0  0  0  0  0  0  0  0  0  0  0  0
   -5.9030   18.6380  -31.5290 O   0  0  0  0  0  0  0  0  0  0  0  0
   -5.8300   19.2470  -34.1710 C   0  0  0  0  0  0  0  0  0  0  0  0
   -5.7180   17.8580  -34.7780 C   0  0  0  0  0  0  0  0  0  0  0  0
   -4.5130   18.4940  -34.1030 C   0  0  0  0  0  0  0  0  0  0  0  0
   -9.7927   20.6779  -30.9495 H   0  0  0  0  0  0  0  0  0  0  0  0
  -10.2352   21.4602  -32.5047 H   0  0  0  0  0  0  0  0  0  0  0  0
   -9.2904   19.9325  -32.5047 H   0  0  0  0  0  0  0  0  0  0  0  0
   -9.2306   23.4951  -31.4012 H   0  0  0  0  0  0  0  0  0  0  0  0
   -7.1720   24.8714  -31.2165 H   0  0  0  0  0  0  0  0  0  0  0  0
   -1.5192   25.0536  -27.7299 H   0  0  0  0  0  0  0  0  0  0  0  0
   -0.8419   23.1201  -26.3011 H   0  0  0  0  0  0  0  0  0  0  0  0
   -0.4958   17.5388  -26.7188 H   0  0  0  0  0  0  0  0  0  0  0  0
   -1.5019   18.2039  -28.0654 H   0  0  0  0  0  0  0  0  0  0  0  0
    1.5152   17.7086  -28.1505 H   0  0  0  0  0  0  0  0  0  0  0  0
    0.2207   16.6933  -28.9269 H   0  0  0  0  0  0  0  0  0  0  0  0
   -0.8186   17.1546  -30.6012 H   0  0  0  0  0  0  0  0  0  0  0  0
   -0.6108   18.6416  -31.5873 H   0  0  0  0  0  0  0  0  0  0  0  0
    0.6661   17.3782  -31.5873 H   0  0  0  0  0  0  0  0  0  0  0  0
    0.4266   20.5860  -30.3950 H   0  0  0  0  0  0  0  0  0  0  0  0
   -1.0916   19.8486  -29.7425 H   0  0  0  0  0  0  0  0  0  0  0  0
    1.4229   20.5188  -28.1365 H   0  0  0  0  0  0  0  0  0  0  0  0
   -0.1507   21.4336  -28.1424 H   0  0  0  0  0  0  0  0  0  0  0  0
   -3.5903   20.5641  -28.4559 H   0  0  0  0  0  0  0  0  0  0  0  0
   -4.2212   22.4765  -29.9227 H   0  0  0  0  0  0  0  0  0  0  0  0
   -6.1704   20.2214  -34.5515 H   0  0  0  0  0  0  0  0  0  0  0  0
   -6.2291   17.0073  -34.3035 H   0  0  0  0  0  0  0  0  0  0  0  0
   -5.9156   17.4235  -35.7691 H   0  0  0  0  0  0  0  0  0  0  0  0
   -4.1520   18.1031  -33.1402 H   0  0  0  0  0  0  0  0  0  0  0  0
   -3.4772   18.7100  -34.4037 H   0  0  0  0  0  0  0  0  0  0  0  0
  1  2  1  0
  2  3  2  0
  3  4  1  0
  4  5  2  0
  5  6  1  0
  6  7  1  0
  7  8  2  0
  7  9  1  0
  9 10  1  0
 10 11  2  0
 11 12  1  0
 12 13  2  0
 13 14  1  0
 14 15  2  0
 14 16  2  0
 14 17  1  0
 17 18  1  0
 18 19  1  0
 19 20  1  0
 20 21  1  0
 20 22  1  0
 22 23  1  0
 13 24  1  0
 24 25  2  0
  5 26  1  0
 26 27  1  0
 26 28  2  0
 28 29  1  0
 29 30  2  0
 29 31  2  0
 29 32  1  0
 32 33  1  0
 33 34  1  0
 28  2  1  0
 34 32  1  0
 25 10  1  0
 23 17  1  0
  1 35  1  0
  1 36  1  0
  1 37  1  0
  3 38  1  0
  4 39  1  0
 11 40  1  0
 12 41  1  0
 18 42  1  0
 18 43  1  0
 19 44  1  0
 19 45  1  0
 21 46  1  0
 21 47  1  0
 21 48  1  0
 22 49  1  0
 22 50  1  0
 23 51  1  0
 23 52  1  0
 24 53  1  0
 25 54  1  0
 32 55  1  0
 33 56  1  0
 33 57  1  0
 34 58  1  0
 34 59  1  0
M  CHG  3   6  -1   9  -1  27  -1
M  END
>  <UniqueID>  (21) 
20

>  <SMILES>  (21) 
Cc1ccc([N-]C(=O)[N-]c2ccc(S(=O)(=O)N3CCN(C)CC3)cc2)c([O-])c1S(=O)(=O)C1CC1

>  <Energy>  (21) 
346.7826481651055

>  <Genealogy>  (21) 
Cc1ccc([N-]C(=O)[N-]c2ccc(S(=O)(=O)N3CCN(C)CC3)cc2)c([O-])c1S(=O)(=O)C1CC1 (protonated)
Cc1ccc([N-]C(=O)[N-]c2ccc(S(=O)(=O)N3CCN(C)CC3)cc2)c([O-])c1S(=O)(=O)C1CC1 (3D coordinates assigned)
Cc1ccc([N-]C(=O)[N-]c2ccc(S(=O)(=O)N3CCN(C)CC3)cc2)c([O-])c1S(=O)(=O)C1CC1 (nonaromatic ring conformer: 346.7826481651055 kcal/mol)

>  <smiles>  (21) 
Cc1ccc(NC(=O)Nc2ccc(S(=O)(=O)N3CCN(C)CC3)cc2)c(O)c1S(=O)(=O)C1CC1

>  <score_type>  (21) 
oracle

>  <origin>  (21) 
adgpu

>  <m_score__min__energy>  (21) 
-17.18

>  <m_primary>  (21) 
energy

$$$$
21:0
     RDKit          3D

 54 56  0  0  0  0  0  0  0  0999 V2000
    3.1960   22.3280  -34.7298 H   0  0  0  0  0  0  0  0  0  0  0  0
    2.2520   21.8810  -35.0750 C   0  0  0  0  0  0  0  0  0  0  0  0
    1.8660   20.6730  -34.5930 N   0  0  0  0  0  0  0  0  0  0  0  0
    0.7040   20.0780  -34.9830 C   0  0  0  0  0  0  0  0  0  0  0  0
    0.3470   18.7590  -34.4170 C   0  0  0  0  0  0  0  0  0  0  0  0
    1.2580   17.9060  -34.2560 O   0  0  0  0  0  0  0  0  0  0  0  0
   -1.0000   18.3990  -34.0620 N   0  0  0  0  0  0  0  0  0  0  0  0
   -1.9390   19.2010  -33.6480 C   0  0  0  0  0  0  0  0  0  0  0  0
   -1.7000   20.5310  -33.4580 N   0  0  0  0  0  0  0  0  0  0  0  0
   -2.6530   21.3730  -32.9820 C   0  0  0  0  0  0  0  0  0  0  0  0
   -2.4397   22.4487  -32.8962 H   0  0  0  0  0  0  0  0  0  0  0  0
   -3.9120   20.8760  -32.5980 C   0  0  0  0  0  0  0  0  0  0  0  0
   -4.9150   21.6890  -32.0480 O   0  0  0  0  0  0  0  0  0  0  0  0
   -4.7340   22.9530  -31.4670 C   0  0  0  0  0  0  0  0  0  0  0  0
   -5.7130   23.9300  -31.6820 C   0  0  0  0  0  0  0  0  0  0  0  0
   -6.6025   23.6967  -32.2856 H   0  0  0  0  0  0  0  0  0  0  0  0
   -5.5570   25.1960  -31.1300 C   0  0  0  0  0  0  0  0  0  0  0  0
   -6.3203   25.9682  -31.3063 H   0  0  0  0  0  0  0  0  0  0  0  0
   -4.4650   25.4840  -30.3730 N   0  0  0  0  0  0  0  0  0  0  0  0
   -3.5000   24.5590  -30.1060 C   0  0  0  0  0  0  0  0  0  0  0  0
   -2.4850   24.9250  -29.3750 N   0  0  0  0  0  0  0  0  0  0  0  0
   -1.3910   24.1270  -28.8930 C   0  0  0  0  0  0  0  0  0  0  0  0
   -0.2210   24.5880  -28.9560 O   0  0  0  0  0  0  0  0  0  0  0  0
   -1.6150   22.8250  -28.1860 C   0  0  0  0  0  0  0  0  0  0  0  0
   -1.5868   22.9886  -27.0986 H   0  0  0  0  0  0  0  0  0  0  0  0
   -2.5964   22.4176  -28.4702 H   0  0  0  0  0  0  0  0  0  0  0  0
   -0.8262   22.1130  -28.4702 H   0  0  0  0  0  0  0  0  0  0  0  0
   -3.6360   23.2620  -30.6410 C   0  0  0  0  0  0  0  0  0  0  0  0
   -2.8847   22.4914  -30.4134 H   0  0  0  0  0  0  0  0  0  0  0  0
   -4.1840   19.5200  -32.8170 C   0  0  0  0  0  0  0  0  0  0  0  0
   -5.1785   19.1157  -32.5771 H   0  0  0  0  0  0  0  0  0  0  0  0
   -3.2000   18.6790  -33.3380 C   0  0  0  0  0  0  0  0  0  0  0  0
   -3.4140   17.6129  -33.5040 H   0  0  0  0  0  0  0  0  0  0  0  0
   -0.0980   20.7030  -35.9470 C   0  0  0  0  0  0  0  0  0  0  0  0
   -1.0223   20.2193  -36.2958 H   0  0  0  0  0  0  0  0  0  0  0  0
    0.2830   21.9430  -36.4620 C   0  0  0  0  0  0  0  0  0  0  0  0
   -0.3385   22.4353  -37.2245 H   0  0  0  0  0  0  0  0  0  0  0  0
    1.4620   22.5650  -36.0070 C   0  0  0  0  0  0  0  0  0  0  0  0
    1.9120   23.8150  -36.4630 O   0  0  0  0  0  0  0  0  0  0  0  0
    2.0240   25.0240  -35.7100 C   0  0  0  0  0  0  0  0  0  0  0  0
    1.5662   24.8779  -34.7205 H   0  0  0  0  0  0  0  0  0  0  0  0
    3.0887   25.2782  -35.6014 H   0  0  0  0  0  0  0  0  0  0  0  0
    1.3030   26.1860  -36.4390 C   0  0  0  0  0  0  0  0  0  0  0  0
    1.8346   27.1192  -36.2012 H   0  0  0  0  0  0  0  0  0  0  0  0
    1.3191   25.9324  -37.5093 H   0  0  0  0  0  0  0  0  0  0  0  0
   -0.1220   26.3660  -36.0800 N   0  0  0  0  0  0  0  0  0  0  0  0
   -1.0150   26.4300  -37.2470 C   0  0  0  0  0  0  0  0  0  0  0  0
   -2.0583   26.5048  -36.9067 H   0  0  0  0  0  0  0  0  0  0  0  0
   -0.7630   27.3124  -37.8536 H   0  0  0  0  0  0  0  0  0  0  0  0
   -0.8915   25.5207  -37.8536 H   0  0  0  0  0  0  0  0  0  0  0  0
   -0.3560   27.4830  -35.1480 C   0  0  0  0  0  0  0  0  0  0  0  0
   -0.2797   27.1189  -34.1128 H   0  0  0  0  0  0  0  0  0  0  0  0
    0.3976   28.2661  -35.3177 H   0  0  0  0  0  0  0  0  0  0  0  0
   -1.3605   27.8978  -35.3177 H   0  0  0  0  0  0  0  0  0  0  0  0
  1  2  1  0
  2  3  2  0
  3  4  1  0
  4  5  1  0
  5  6  2  0
  5  7  1  0
  7  8  2  3
  8  9  1  0
  9 10  1  0
 10 11  1  0
 10 12  2  0
 12 13  1  0
 13 14  1  0
 14 15  1  0
 15 16  1  0
 15 17  2  0
 17 18  1  0
 17 19  1  0
 19 20  1  0
 20 21  2  0
 21 22  1  0
 22 23  2  0
 22 24  1  0
 24 25  1  0
 24 26  1  0
 24 27  1  0
 20 28  1  0
 28 29  1  0
 12 30  1  0
 30 31  1  0
 30 32  2  0
 32 33  1  0
  4 34  2  0
 34 35  1  0
 34 36  1  0
 36 37  1  0
 36 38  2  0
 38 39  1  0
 39 40  1  0
 40 41  1  0
 40 42  1  0
 40 43  1  0
 43 44  1  0
 43 45  1  0
 43 46  1  0
 46 47  1  0
 47 48  1  0
 47 49  1  0
 47 50  1  0
 46 51  1  0
 51 52  1  0
 51 53  1  0
 51 54  1  0
 38  2  1  0
 32  8  1  0
 28 14  2  0
M  CHG  2   9  -1  19  -1
M  END
>  <UniqueID>  (22) 
21

>  <SMILES>  (22) 
CC(=O)/N=c1\cc(Oc2ccc(=NC(=O)c3ccc(OCCN(C)C)cn3)[n-]c2)cc[n-]1

>  <Energy>  (22) 
88.23100846527966

>  <Genealogy>  (22) 
CC(=O)N=c1cc(Oc2ccc(=NC(=O)c3ccc(OCCN(C)C)cn3)[n-]c2)cc[n-]1 (protonated)
CC(=O)/N=c1\cc(Oc2ccc(=NC(=O)c3ccc(OCCN(C)C)cn3)[n-]c2)cc[n-]1 (cis-trans isomerization)
CC(=O)/N=c1\cc(Oc2ccc(=NC(=O)c3ccc(OCCN(C)C)cn3)[n-]c2)cc[n-]1 (3D coordinates assigned)
CC(=O)/N=c1\cc(Oc2ccc(=NC(=O)c3ccc(OCCN(C)C)cn3)[n-]c2)cc[n-]1 (optimized conformer: 88.23100846527966 kcal/mol)

>  <smiles>  (22) 
CC(=O)N=c1cc(Oc2ccc(=NC(=O)c3ccc(OCCN(C)C)cn3)[nH]c2)cc[nH]1

>  <score_type>  (22) 
oracle

>  <origin>  (22) 
adgpu

>  <m_score__min__energy>  (22) 
-9.6099999999999994

>  <m_primary>  (22) 
energy

$$$$
22:0
     RDKit          3D

 37 39  0  0  0  0  0  0  0  0999 V2000
   -8.9410   21.7850  -30.5150 C   0  0  0  0  0  0  0  0  0  0  0  0
   -7.9920   21.6010  -31.6150 N   0  0  0  0  0  0  0  0  0  0  0  0
   -7.3340   22.7500  -32.2410 C   0  0  0  0  0  0  0  0  0  0  0  0
   -5.9010   22.9020  -31.7730 C   0  0  0  0  0  0  0  0  0  0  0  0
   -5.5080   24.1810  -31.3340 C   0  0  0  0  0  0  0  0  0  0  0  0
   -4.2320   24.4130  -30.8250 C   0  0  0  0  0  0  0  0  0  0  0  0
   -3.8830   25.6920  -30.4080 O   0  0  0  0  0  0  0  0  0  0  0  0
   -3.3110   23.3710  -30.7330 C   0  0  0  0  0  0  0  0  0  0  0  0
   -2.0010   23.6500  -30.2160 N   0  0  0  0  0  0  0  0  0  0  0  0
   -1.5520   23.6180  -28.5410 S   0  0  0  0  0  0  0  0  0  0  0  0
   -2.5850   24.3520  -27.7330 O   0  0  0  0  0  0  0  0  0  0  0  0
   -0.2260   24.3010  -28.3720 O   0  0  0  0  0  0  0  0  0  0  0  0
   -1.4070   21.9560  -27.9950 C   0  0  0  0  0  0  0  0  0  0  0  0
   -0.2480   21.2070  -28.1700 C   0  0  0  0  0  0  0  0  0  0  0  0
   -0.5210   19.6680  -27.5480 S   0  0  0  0  0  0  0  0  0  0  0  0
   -2.1040   19.9490  -27.0600 C   0  0  0  0  0  0  0  0  0  0  0  0
   -3.1460   18.7710  -26.2920 Cl  0  0  0  0  0  0  0  0  0  0  0  0
   -2.4500   21.2530  -27.3750 C   0  0  0  0  0  0  0  0  0  0  0  0
   -3.6870   22.0850  -31.1510 C   0  0  0  0  0  0  0  0  0  0  0  0
   -4.9730   21.8190  -31.6610 C   0  0  0  0  0  0  0  0  0  0  0  0
   -5.1930   20.3920  -32.1570 C   0  0  0  0  0  0  0  0  0  0  0  0
   -6.3980   19.6280  -31.6090 C   0  0  0  0  0  0  0  0  0  0  0  0
   -7.6660   20.2800  -32.0650 C   0  0  0  0  0  0  0  0  0  0  0  0
   -8.4160   19.6820  -32.8840 O   0  0  0  0  0  0  0  0  0  0  0  0
   -8.4138   21.6828  -29.5550 H   0  0  0  0  0  0  0  0  0  0  0  0
   -9.3901   22.7869  -30.5819 H   0  0  0  0  0  0  0  0  0  0  0  0
   -9.7320   21.0235  -30.5819 H   0  0  0  0  0  0  0  0  0  0  0  0
   -7.3394   22.6123  -33.3323 H   0  0  0  0  0  0  0  0  0  0  0  0
   -7.8853   23.6576  -31.9542 H   0  0  0  0  0  0  0  0  0  0  0  0
   -6.2234   25.0144  -31.3942 H   0  0  0  0  0  0  0  0  0  0  0  0
    0.6848   21.5597  -28.6343 H   0  0  0  0  0  0  0  0  0  0  0  0
   -3.4367   21.6899  -27.1617 H   0  0  0  0  0  0  0  0  0  0  0  0
   -2.9588   21.2637  -31.0785 H   0  0  0  0  0  0  0  0  0  0  0  0
   -5.3022   20.4373  -33.2506 H   0  0  0  0  0  0  0  0  0  0  0  0
   -4.3191   19.8325  -31.7918 H   0  0  0  0  0  0  0  0  0  0  0  0
   -6.3693   18.5910  -31.9748 H   0  0  0  0  0  0  0  0  0  0  0  0
   -6.3621   19.6361  -30.5096 H   0  0  0  0  0  0  0  0  0  0  0  0
  1  2  1  0
  2  3  1  0
  3  4  1  0
  4  5  2  0
  5  6  1  0
  6  7  1  0
  6  8  2  0
  8  9  1  0
  9 10  1  0
 10 11  2  0
 10 12  2  0
 10 13  1  0
 13 14  2  0
 14 15  1  0
 15 16  1  0
 16 17  1  0
 16 18  2  0
  8 19  1  0
 19 20  2  0
 20 21  1  0
 21 22  1  0
 22 23  1  0
 23 24  2  0
 23  2  1  0
 20  4  1  0
 18 13  1  0
  1 25  1  0
  1 26  1  0
  1 27  1  0
  3 28  1  0
  3 29  1  0
  5 30  1  0
 14 31  1  0
 18 32  1  0
 19 33  1  0
 21 34  1  0
 21 35  1  0
 22 36  1  0
 22 37  1  0
M  CHG  2   7  -1   9  -1
M  END
>  <UniqueID>  (23) 
22

>  <SMILES>  (23) 
CN1Cc2cc([O-])c([N-]S(=O)(=O)c3csc(Cl)c3)cc2CCC1=O

>  <Energy>  (23) 
74.38793907199138

>  <Genealogy>  (23) 
CN1Cc2cc([O-])c([N-]S(=O)(=O)c3csc(Cl)c3)cc2CCC1=O (protonated)
CN1Cc2cc([O-])c([N-]S(=O)(=O)c3csc(Cl)c3)cc2CCC1=O (3D coordinates assigned)
CN1Cc2cc([O-])c([N-]S(=O)(=O)c3csc(Cl)c3)cc2CCC1=O (nonaromatic ring conformer: 74.38793907199138 kcal/mol)

>  <smiles>  (23) 
CN1Cc2cc(O)c(NS(=O)(=O)c3csc(Cl)c3)cc2CCC1=O

>  <score_type>  (23) 
oracle

>  <origin>  (23) 
adgpu

>  <m_score__min__energy>  (23) 
-10.74

>  <m_primary>  (23) 
energy

$$$$
23:0
     RDKit          3D

 51 53  0  0  0  0  0  0  0  0999 V2000
   -0.5040   19.9670  -29.4770 C   0  0  0  0  0  0  0  0  0  0  0  0
   -1.4270   21.1050  -29.1660 C   0  0  0  0  0  0  0  0  0  0  0  0
   -1.3450   22.3580  -29.7440 C   0  0  0  0  0  0  0  0  0  0  0  0
   -2.3560   23.1140  -29.1810 C   0  0  0  0  0  0  0  0  0  0  0  0
   -2.6110   24.5360  -29.4750 C   0  0  0  0  0  0  0  0  0  0  0  0
   -2.0700   25.4280  -28.7710 O   0  0  0  0  0  0  0  0  0  0  0  0
   -3.5040   24.9190  -30.5180 N   0  0  0  0  0  0  0  0  0  0  0  0
   -5.2170   24.8240  -30.2950 S   0  0  0  0  0  0  0  0  0  0  0  0
   -5.5580   25.1480  -28.8680 O   0  0  0  0  0  0  0  0  0  0  0  0
   -5.8810   25.8310  -31.1910 O   0  0  0  0  0  0  0  0  0  0  0  0
   -5.7990   23.2070  -30.6910 C   0  0  0  0  0  0  0  0  0  0  0  0
   -7.1620   22.8940  -30.5990 C   0  0  0  0  0  0  0  0  0  0  0  0
   -7.6150   21.6160  -30.9370 C   0  0  0  0  0  0  0  0  0  0  0  0
   -6.7090   20.6380  -31.3700 C   0  0  0  0  0  0  0  0  0  0  0  0
   -7.2680   19.0200  -31.7880 S   0  0  0  0  0  0  0  0  0  0  0  0
   -6.4760   18.0220  -30.9900 O   0  0  0  0  0  0  0  0  0  0  0  0
   -8.7210   18.8740  -31.4250 O   0  0  0  0  0  0  0  0  0  0  0  0
   -7.0360   18.7260  -33.4970 N   0  0  0  0  0  0  0  0  0  0  0  0
   -5.8540   19.4380  -33.9980 C   0  0  0  0  0  0  0  0  0  0  0  0
   -4.6720   18.4800  -33.9260 C   0  0  0  0  0  0  0  0  0  0  0  0
   -5.2730   17.0970  -33.7420 C   0  0  0  0  0  0  0  0  0  0  0  0
   -6.7800   17.3050  -33.7630 C   0  0  0  0  0  0  0  0  0  0  0  0
   -5.3480   20.9530  -31.4700 C   0  0  0  0  0  0  0  0  0  0  0  0
   -4.8950   22.2280  -31.1260 C   0  0  0  0  0  0  0  0  0  0  0  0
   -3.0290   22.2840  -28.2910 C   0  0  0  0  0  0  0  0  0  0  0  0
   -4.2300   22.6620  -27.4710 C   0  0  0  0  0  0  0  0  0  0  0  0
   -2.4400   21.0650  -28.2710 N   0  0  0  0  0  0  0  0  0  0  0  0
   -2.8680   19.9120  -27.4770 C   0  0  0  0  0  0  0  0  0  0  0  0
   -0.1424   19.5212  -28.5386 H   0  0  0  0  0  0  0  0  0  0  0  0
   -1.0434   19.2063  -30.0604 H   0  0  0  0  0  0  0  0  0  0  0  0
    0.3517   20.3378  -30.0604 H   0  0  0  0  0  0  0  0  0  0  0  0
   -0.6191   22.6880  -30.5017 H   0  0  0  0  0  0  0  0  0  0  0  0
   -7.8778   23.6571  -30.2595 H   0  0  0  0  0  0  0  0  0  0  0  0
   -8.6861   21.3767  -30.8630 H   0  0  0  0  0  0  0  0  0  0  0  0
   -7.8950   19.0410  -34.0070 H   0  0  0  0  0  0  0  0  0  0  0  0
   -6.0190   19.7519  -35.0393 H   0  0  0  0  0  0  0  0  0  0  0  0
   -5.6598   20.3360  -33.3932 H   0  0  0  0  0  0  0  0  0  0  0  0
   -4.0866   18.5229  -34.8563 H   0  0  0  0  0  0  0  0  0  0  0  0
   -3.9899   18.7386  -33.1027 H   0  0  0  0  0  0  0  0  0  0  0  0
   -4.9650   16.4314  -34.5618 H   0  0  0  0  0  0  0  0  0  0  0  0
   -4.9381   16.6268  -32.8057 H   0  0  0  0  0  0  0  0  0  0  0  0
   -7.1829   17.0294  -34.7488 H   0  0  0  0  0  0  0  0  0  0  0  0
   -7.2673   16.6760  -33.0035 H   0  0  0  0  0  0  0  0  0  0  0  0
   -4.6338   20.1935  -31.8207 H   0  0  0  0  0  0  0  0  0  0  0  0
   -3.8233   22.4655  -31.1967 H   0  0  0  0  0  0  0  0  0  0  0  0
   -3.9832   22.5843  -26.4019 H   0  0  0  0  0  0  0  0  0  0  0  0
   -4.5234   23.6959  -27.7054 H   0  0  0  0  0  0  0  0  0  0  0  0
   -5.0627   21.9825  -27.7054 H   0  0  0  0  0  0  0  0  0  0  0  0
   -2.7794   20.1506  -26.4068 H   0  0  0  0  0  0  0  0  0  0  0  0
   -3.9151   19.6721  -27.7138 H   0  0  0  0  0  0  0  0  0  0  0  0
   -2.2311   19.0470  -27.7138 H   0  0  0  0  0  0  0  0  0  0  0  0
  1  2  1  0
  2  3  2  0
  3  4  1  0
  4  5  1  0
  5  6  2  0
  5  7  1  0
  7  8  1  0
  8  9  2  0
  8 10  2  0
  8 11  1  0
 11 12  2  0
 12 13  1  0
 13 14  2  0
 14 15  1  0
 15 16  2  0
 15 17  2  0
 15 18  1  0
 18 19  1  0
 19 20  1  0
 20 21  1  0
 21 22  1  0
 14 23  1  0
 23 24  2  0
  4 25  2  0
 25 26  1  0
 25 27  1  0
 27 28  1  0
 27  2  1  0
 24 11  1  0
 22 18  1  0
  1 29  1  0
  1 30  1  0
  1 31  1  0
  3 32  1  0
 12 33  1  0
 13 34  1  0
 18 35  1  0
 19 36  1  0
 19 37  1  0
 20 38  1  0
 20 39  1  0
 21 40  1  0
 21 41  1  0
 22 42  1  0
 22 43  1  0
 23 44  1  0
 24 45  1  0
 26 46  1  0
 26 47  1  0
 26 48  1  0
 28 49  1  0
 28 50  1  0
 28 51  1  0
M  CHG  2   7  -1  18   1
M  END
>  <UniqueID>  (24) 
23

>  <SMILES>  (24) 
Cc1cc(C(=O)[N-]S(=O)(=O)c2ccc(S(=O)(=O)[NH+]3CCCC3)cc2)c(C)n1C

>  <Energy>  (24) 
83.36346791353931

>  <Genealogy>  (24) 
Cc1cc(C(=O)[N-]S(=O)(=O)c2ccc(S(=O)(=O)[NH+]3CCCC3)cc2)c(C)n1C (protonated)
Cc1cc(C(=O)[N-]S(=O)(=O)c2ccc(S(=O)(=O)[NH+]3CCCC3)cc2)c(C)n1C (3D coordinates assigned)
Cc1cc(C(=O)[N-]S(=O)(=O)c2ccc(S(=O)(=O)[NH+]3CCCC3)cc2)c(C)n1C (nonaromatic ring conformer: 83.36346791353931 kcal/mol)

>  <smiles>  (24) 
Cc1cc(C(=O)NS(=O)(=O)c2ccc(S(=O)(=O)N3CCCC3)cc2)c(C)n1C

>  <score_type>  (24) 
oracle

>  <origin>  (24) 
adgpu

>  <m_score__min__energy>  (24) 
-11.1

>  <m_primary>  (24) 
energy

$$$$
24:0
     RDKit          3D

 55 58  0  0  0  0  0  0  0  0999 V2000
   -7.2390   14.7290  -34.5860 C   0  0  0  0  0  0  0  0  0  0  0  0
   -6.0400   15.4180  -34.2560 O   0  0  0  0  0  0  0  0  0  0  0  0
   -5.9900   16.7030  -33.6920 C   0  0  0  0  0  0  0  0  0  0  0  0
   -6.9530   17.1440  -32.7630 C   0  0  0  0  0  0  0  0  0  0  0  0
   -6.8860   18.4300  -32.2270 C   0  0  0  0  0  0  0  0  0  0  0  0
   -5.8600   19.3090  -32.6110 C   0  0  0  0  0  0  0  0  0  0  0  0
   -5.7870   20.6810  -32.0430 C   0  0  0  0  0  0  0  0  0  0  0  0
   -4.6050   21.4370  -32.1540 C   0  0  0  0  0  0  0  0  0  0  0  0
   -4.5190   22.7090  -31.5810 C   0  0  0  0  0  0  0  0  0  0  0  0
   -5.6180   23.2540  -30.9060 C   0  0  0  0  0  0  0  0  0  0  0  0
   -5.4680   24.7930  -30.0660 S   0  0  0  0  0  0  0  0  0  0  0  0
   -6.8240   25.4020  -29.8490 O   0  0  0  0  0  0  0  0  0  0  0  0
   -4.6400   25.7480  -30.8820 O   0  0  0  0  0  0  0  0  0  0  0  0
   -4.6810   24.5060  -28.5540 N   0  0  0  0  0  0  0  0  0  0  0  0
   -3.5740   23.6060  -28.4610 C   0  0  0  0  0  0  0  0  0  0  0  0
   -3.7510   22.3100  -27.9660 C   0  0  0  0  0  0  0  0  0  0  0  0
   -2.6750   21.4130  -27.9180 C   0  0  0  0  0  0  0  0  0  0  0  0
   -1.4160   21.8050  -28.4140 C   0  0  0  0  0  0  0  0  0  0  0  0
   -1.2380   23.1120  -28.8820 C   0  0  0  0  0  0  0  0  0  0  0  0
   -2.3100   24.0100  -28.9060 C   0  0  0  0  0  0  0  0  0  0  0  0
   -2.1210   25.2960  -29.3950 O   0  0  0  0  0  0  0  0  0  0  0  0
   -0.2360   20.8690  -28.3490 C   0  0  0  0  0  0  0  0  0  0  0  0
   -0.6670   19.4630  -28.2720 N   0  0  0  0  0  0  0  0  0  0  0  0
    0.5000   18.5810  -28.1240 C   0  0  0  0  0  0  0  0  0  0  0  0
   -1.5990   19.2730  -27.1480 C   0  0  0  0  0  0  0  0  0  0  0  0
   -2.9110   20.0080  -27.4360 C   0  0  0  0  0  0  0  0  0  0  0  0
   -6.8050   22.5200  -30.8130 C   0  0  0  0  0  0  0  0  0  0  0  0
   -6.8910   21.2420  -31.3730 C   0  0  0  0  0  0  0  0  0  0  0  0
   -4.8970   18.8700  -33.5380 C   0  0  0  0  0  0  0  0  0  0  0  0
   -4.9510   17.5730  -34.0710 C   0  0  0  0  0  0  0  0  0  0  0  0
   -3.9160   17.1280  -35.0660 C   0  0  0  0  0  0  0  0  0  0  0  0
   -7.7569   14.4314  -33.6623 H   0  0  0  0  0  0  0  0  0  0  0  0
   -7.8914   15.3900  -35.1755 H   0  0  0  0  0  0  0  0  0  0  0  0
   -6.9964   13.8325  -35.1755 H   0  0  0  0  0  0  0  0  0  0  0  0
   -7.7652   16.4679  -32.4576 H   0  0  0  0  0  0  0  0  0  0  0  0
   -7.6420   18.7581  -31.4984 H   0  0  0  0  0  0  0  0  0  0  0  0
   -3.7418   21.0234  -32.6961 H   0  0  0  0  0  0  0  0  0  0  0  0
   -3.5846   23.2839  -31.6606 H   0  0  0  0  0  0  0  0  0  0  0  0
   -4.7426   21.9921  -27.6115 H   0  0  0  0  0  0  0  0  0  0  0  0
   -0.2472   23.4355  -29.2337 H   0  0  0  0  0  0  0  0  0  0  0  0
    0.3789   21.0056  -29.2508 H   0  0  0  0  0  0  0  0  0  0  0  0
    0.3414   21.1035  -27.4426 H   0  0  0  0  0  0  0  0  0  0  0  0
    0.7077   18.4240  -27.0553 H   0  0  0  0  0  0  0  0  0  0  0  0
    0.2911   17.6130  -28.6030 H   0  0  0  0  0  0  0  0  0  0  0  0
    1.3742   19.0461  -28.6030 H   0  0  0  0  0  0  0  0  0  0  0  0
   -1.8019   18.1996  -27.0186 H   0  0  0  0  0  0  0  0  0  0  0  0
   -1.1490   19.6771  -26.2292 H   0  0  0  0  0  0  0  0  0  0  0  0
   -3.4653   19.4556  -28.2091 H   0  0  0  0  0  0  0  0  0  0  0  0
   -3.4835   20.0619  -26.4982 H   0  0  0  0  0  0  0  0  0  0  0  0
   -7.6755   22.9507  -30.2965 H   0  0  0  0  0  0  0  0  0  0  0  0
   -7.8274   20.6709  -31.2896 H   0  0  0  0  0  0  0  0  0  0  0  0
   -4.0918   19.5519  -33.8488 H   0  0  0  0  0  0  0  0  0  0  0  0
   -3.0328   16.7483  -34.5314 H   0  0  0  0  0  0  0  0  0  0  0  0
   -4.3336   16.3299  -35.6974 H   0  0  0  0  0  0  0  0  0  0  0  0
   -3.6241   17.9801  -35.6974 H   0  0  0  0  0  0  0  0  0  0  0  0
  1  2  1  0
  2  3  1  0
  3  4  2  0
  4  5  1  0
  5  6  2  0
  6  7  1  0
  7  8  2  0
  8  9  1  0
  9 10  2  0
 10 11  1  0
 11 12  2  0
 11 13  2  0
 11 14  1  0
 14 15  1  0
 15 16  2  0
 16 17  1  0
 17 18  2  0
 18 19  1  0
 19 20  2  0
 20 21  1  0
 18 22  1  0
 22 23  1  0
 23 24  1  0
 23 25  1  0
 25 26  1  0
 10 27  1  0
 27 28  2  0
  6 29  1  0
 29 30  2  0
 30 31  1  0
 30  3  1  0
 28  7  1  0
 20 15  1  0
 26 17  1  0
  1 32  1  0
  1 33  1  0
  1 34  1  0
  4 35  1  0
  5 36  1  0
  8 37  1  0
  9 38  1  0
 16 39  1  0
 19 40  1  0
 22 41  1  0
 22 42  1  0
 24 43  1  0
 24 44  1  0
 24 45  1  0
 25 46  1  0
 25 47  1  0
 26 48  1  0
 26 49  1  0
 27 50  1  0
 28 51  1  0
 29 52  1  0
 31 53  1  0
 31 54  1  0
 31 55  1  0
M  CHG  2  14  -1  21  -1
M  END
>  <UniqueID>  (25) 
24

>  <SMILES>  (25) 
COc1ccc(-c2ccc(S(=O)(=O)[N-]c3cc4c(cc3[O-])CN(C)CC4)cc2)cc1C

>  <Energy>  (25) 
73.49286047061328

>  <Genealogy>  (25) 
COc1ccc(-c2ccc(S(=O)(=O)[N-]c3cc4c(cc3[O-])CN(C)CC4)cc2)cc1C (protonated)
COc1ccc(-c2ccc(S(=O)(=O)[N-]c3cc4c(cc3[O-])CN(C)CC4)cc2)cc1C (3D coordinates assigned)
COc1ccc(-c2ccc(S(=O)(=O)[N-]c3cc4c(cc3[O-])CN(C)CC4)cc2)cc1C (nonaromatic ring conformer: 73.49286047061328 kcal/mol)

>  <smiles>  (25) 
COc1ccc(-c2ccc(S(=O)(=O)Nc3cc4c(cc3O)CN(C)CC4)cc2)cc1C

>  <score_type>  (25) 
oracle

>  <origin>  (25) 
adgpu

>  <m_score__min__energy>  (25) 
-14.5

>  <m_primary>  (25) 
energy

$$$$
25:0
     RDKit          3D

 49 51  0  0  0  0  0  0  0  0999 V2000
    3.1360   27.0280  -25.1200 C   0  0  0  0  0  0  0  0  0  0  0  0
    3.1480   26.8180  -26.5670 N   0  0  0  0  0  0  0  0  0  0  0  0
    2.4700   25.2620  -26.9390 S   0  0  0  0  0  0  0  0  0  0  0  0
    2.7820   24.9180  -28.3680 O   0  0  0  0  0  0  0  0  0  0  0  0
    3.0880   24.2150  -26.0540 O   0  0  0  0  0  0  0  0  0  0  0  0
    0.7210   25.2840  -26.7220 C   0  0  0  0  0  0  0  0  0  0  0  0
    0.1620   25.3350  -25.4370 C   0  0  0  0  0  0  0  0  0  0  0  0
   -1.2250   25.3840  -25.2770 C   0  0  0  0  0  0  0  0  0  0  0  0
   -2.0600   25.3760  -26.3970 C   0  0  0  0  0  0  0  0  0  0  0  0
   -1.5100   25.2970  -27.6860 C   0  0  0  0  0  0  0  0  0  0  0  0
   -2.3500   25.3570  -28.8470 N   0  0  0  0  0  0  0  0  0  0  0  0
   -2.9560   24.3810  -29.4710 C   0  0  0  0  0  0  0  0  0  0  0  0
   -3.8090   24.7090  -30.4710 N   0  0  0  0  0  0  0  0  0  0  0  0
   -4.4830   23.7740  -31.1790 C   0  0  0  0  0  0  0  0  0  0  0  0
   -4.3090   22.4180  -30.8870 C   0  0  0  0  0  0  0  0  0  0  0  0
   -5.0290   21.4280  -31.7210 C   0  0  0  0  0  0  0  0  0  0  0  0
   -4.3570   20.7350  -32.7390 C   0  0  0  0  0  0  0  0  0  0  0  0
   -5.0410   19.8070  -33.5280 C   0  0  0  0  0  0  0  0  0  0  0  0
   -6.4010   19.5710  -33.3140 C   0  0  0  0  0  0  0  0  0  0  0  0
   -7.0890   20.2720  -32.3130 C   0  0  0  0  0  0  0  0  0  0  0  0
   -8.7990   19.9680  -32.0330 S   0  0  0  0  0  0  0  0  0  0  0  0
   -9.5380   21.4020  -31.2860 C   0  0  0  0  0  0  0  0  0  0  0  0
   -8.9660   18.7850  -31.1220 O   0  0  0  0  0  0  0  0  0  0  0  0
   -9.4830   19.6720  -33.3380 O   0  0  0  0  0  0  0  0  0  0  0  0
   -6.4000   21.1980  -31.5160 C   0  0  0  0  0  0  0  0  0  0  0  0
   -3.4660   22.0500  -29.8620 N   0  0  0  0  0  0  0  0  0  0  0  0
   -3.2930   20.6280  -29.5050 C   0  0  0  0  0  0  0  0  0  0  0  0
   -2.7470   23.0070  -29.1850 C   0  0  0  0  0  0  0  0  0  0  0  0
   -1.8790   22.6530  -28.3390 O   0  0  0  0  0  0  0  0  0  0  0  0
   -0.1190   25.2830  -27.8440 C   0  0  0  0  0  0  0  0  0  0  0  0
    3.1915   26.0560  -24.6080 H   0  0  0  0  0  0  0  0  0  0  0  0
    4.0004   27.6442  -24.8317 H   0  0  0  0  0  0  0  0  0  0  0  0
    2.2070   27.5417  -24.8317 H   0  0  0  0  0  0  0  0  0  0  0  0
    2.5240   27.5370  -26.9990 H   0  0  0  0  0  0  0  0  0  0  0  0
    0.8169   25.3364  -24.5532 H   0  0  0  0  0  0  0  0  0  0  0  0
   -1.6602   25.4289  -24.2678 H   0  0  0  0  0  0  0  0  0  0  0  0
   -3.1510   25.4317  -26.2684 H   0  0  0  0  0  0  0  0  0  0  0  0
   -5.1674   24.0804  -31.9838 H   0  0  0  0  0  0  0  0  0  0  0  0
   -3.2878   20.9230  -32.9165 H   0  0  0  0  0  0  0  0  0  0  0  0
   -4.5073   19.2608  -34.3197 H   0  0  0  0  0  0  0  0  0  0  0  0
   -6.9337   18.8334  -33.9322 H   0  0  0  0  0  0  0  0  0  0  0  0
   -9.4908   21.3104  -30.1908 H   0  0  0  0  0  0  0  0  0  0  0  0
   -8.9919   22.3029  -31.6025 H   0  0  0  0  0  0  0  0  0  0  0  0
  -10.5886   21.4800  -31.6025 H   0  0  0  0  0  0  0  0  0  0  0  0
   -6.9353   21.7466  -30.7270 H   0  0  0  0  0  0  0  0  0  0  0  0
   -3.2803   20.5238  -28.4100 H   0  0  0  0  0  0  0  0  0  0  0  0
   -4.1265   20.0419  -29.9195 H   0  0  0  0  0  0  0  0  0  0  0  0
   -2.3433   20.2588  -29.9195 H   0  0  0  0  0  0  0  0  0  0  0  0
    0.3169   25.2712  -28.8539 H   0  0  0  0  0  0  0  0  0  0  0  0
  1  2  1  0
  2  3  1  0
  3  4  2  0
  3  5  2  0
  3  6  1  0
  6  7  2  0
  7  8  1  0
  8  9  2  0
  9 10  1  0
 10 11  1  0
 11 12  2  3
 12 13  1  0
 13 14  1  0
 14 15  2  0
 15 16  1  0
 16 17  2  0
 17 18  1  0
 18 19  2  0
 19 20  1  0
 20 21  1  0
 21 22  1  0
 21 23  2  0
 21 24  2  0
 20 25  2  0
 15 26  1  0
 26 27  1  0
 26 28  1  0
 28 29  2  0
 10 30  2  0
 30  6  1  0
 28 12  1  0
 25 16  1  0
  1 31  1  0
  1 32  1  0
  1 33  1  0
  2 34  1  0
  7 35  1  0
  8 36  1  0
  9 37  1  0
 14 38  1  0
 17 39  1  0
 18 40  1  0
 19 41  1  0
 22 42  1  0
 22 43  1  0
 22 44  1  0
 25 45  1  0
 27 46  1  0
 27 47  1  0
 27 48  1  0
 30 49  1  0
M  CHG  1  13  -1
M  END
>  <UniqueID>  (26) 
25

>  <SMILES>  (26) 
CNS(=O)(=O)c1cccc(N=c2[n-]cc(-c3cccc(S(C)(=O)=O)c3)n(C)c2=O)c1

>  <Energy>  (26) 
71.43662166319325

>  <Genealogy>  (26) 
CNS(=O)(=O)c1cccc(N=c2[n-]cc(-c3cccc(S(C)(=O)=O)c3)n(C)c2=O)c1 (protonated)
CNS(=O)(=O)c1cccc(N=c2[n-]cc(-c3cccc(S(C)(=O)=O)c3)n(C)c2=O)c1 (3D coordinates assigned)
CNS(=O)(=O)c1cccc(N=c2[n-]cc(-c3cccc(S(C)(=O)=O)c3)n(C)c2=O)c1 (optimized conformer: 71.43662166319325 kcal/mol)

>  <smiles>  (26) 
CNS(=O)(=O)c1cccc(N=c2[nH]cc(-c3cccc(S(C)(=O)=O)c3)n(C)c2=O)c1

>  <score_type>  (26) 
oracle

>  <origin>  (26) 
adgpu

>  <m_score__min__energy>  (26) 
-10.76

>  <m_primary>  (26) 
energy

$$$$
26:0
     RDKit          3D

 48 49  0  0  0  0  0  0  0  0999 V2000
   -3.8749   23.3608  -31.9950 H   0  0  0  0  0  0  0  0  0  0  0  0
   -4.9240   23.0350  -31.9390 C   0  0  0  0  0  0  0  0  0  0  0  0
   -5.3190   21.8530  -32.5730 C   0  0  0  0  0  0  0  0  0  0  0  0
   -4.5767   21.2465  -33.1125 H   0  0  0  0  0  0  0  0  0  0  0  0
   -6.6590   21.4370  -32.5240 C   0  0  0  0  0  0  0  0  0  0  0  0
   -7.0790   20.1320  -33.1530 C   0  0  0  0  0  0  0  0  0  0  0  0
   -6.3149   19.3714  -32.9346 H   0  0  0  0  0  0  0  0  0  0  0  0
   -7.1820   20.2968  -34.2357 H   0  0  0  0  0  0  0  0  0  0  0  0
   -8.4360   19.6390  -32.6190 C   0  0  0  0  0  0  0  0  0  0  0  0
   -9.0854   19.4179  -33.4789 H   0  0  0  0  0  0  0  0  0  0  0  0
   -8.8341   20.4404  -31.9793 H   0  0  0  0  0  0  0  0  0  0  0  0
   -8.3480   18.3760  -31.7430 C   0  0  0  0  0  0  0  0  0  0  0  0
   -8.9590   17.5857  -32.2035 H   0  0  0  0  0  0  0  0  0  0  0  0
   -8.7134   18.6426  -30.7403 H   0  0  0  0  0  0  0  0  0  0  0  0
   -6.9180   17.8600  -31.5890 C   0  0  0  0  0  0  0  0  0  0  0  0
   -6.6732   17.7717  -30.5202 H   0  0  0  0  0  0  0  0  0  0  0  0
   -6.8305   16.8736  -32.0680 H   0  0  0  0  0  0  0  0  0  0  0  0
   -6.2209   18.5633  -32.0680 H   0  0  0  0  0  0  0  0  0  0  0  0
   -7.6000   22.2240  -31.8440 C   0  0  0  0  0  0  0  0  0  0  0  0
   -8.6545   21.9124  -31.8125 H   0  0  0  0  0  0  0  0  0  0  0  0
   -7.2030   23.4030  -31.2060 C   0  0  0  0  0  0  0  0  0  0  0  0
   -7.9486   24.0176  -30.6803 H   0  0  0  0  0  0  0  0  0  0  0  0
   -5.8570   23.8080  -31.2320 C   0  0  0  0  0  0  0  0  0  0  0  0
   -5.4260   25.0330  -30.5200 C   0  0  0  0  0  0  0  0  0  0  0  0
   -6.2960   25.8360  -30.0900 O   0  0  0  0  0  0  0  0  0  0  0  0
   -4.0430   25.3080  -30.2530 N   0  0  0  0  0  0  0  0  0  0  0  0
   -3.2260   24.5400  -29.5930 C   0  0  0  0  0  0  0  0  0  0  0  0
   -1.9530   24.8930  -29.3370 N   0  0  0  0  0  0  0  0  0  0  0  0
   -1.2730   23.9320  -28.6480 C   0  0  0  0  0  0  0  0  0  0  0  0
    0.1560   24.1730  -28.2730 C   0  0  0  0  0  0  0  0  0  0  0  0
    0.2498   24.1888  -27.1771 H   0  0  0  0  0  0  0  0  0  0  0  0
    0.7835   23.3680  -28.6832 H   0  0  0  0  0  0  0  0  0  0  0  0
    0.4848   25.1393  -28.6832 H   0  0  0  0  0  0  0  0  0  0  0  0
   -2.0090   22.7530  -28.3740 C   0  0  0  0  0  0  0  0  0  0  0  0
   -1.6080   21.5250  -27.5460 C   0  0  0  0  0  0  0  0  0  0  0  0
   -2.7810   20.5310  -27.3970 C   0  0  0  0  0  0  0  0  0  0  0  0
   -2.9831   20.3597  -26.3294 H   0  0  0  0  0  0  0  0  0  0  0  0
   -3.6782   20.9479  -27.8778 H   0  0  0  0  0  0  0  0  0  0  0  0
   -2.5169   19.5775  -27.8778 H   0  0  0  0  0  0  0  0  0  0  0  0
   -1.1790   21.9550  -26.1230 C   0  0  0  0  0  0  0  0  0  0  0  0
   -1.7510   21.3817  -25.3786 H   0  0  0  0  0  0  0  0  0  0  0  0
   -0.1047   21.7602  -25.9893 H   0  0  0  0  0  0  0  0  0  0  0  0
   -1.3763   23.0289  -25.9893 H   0  0  0  0  0  0  0  0  0  0  0  0
   -0.4120   20.8290  -28.2210 C   0  0  0  0  0  0  0  0  0  0  0  0
    0.2658   20.4346  -27.4496 H   0  0  0  0  0  0  0  0  0  0  0  0
   -0.7754   20.0013  -28.8478 H   0  0  0  0  0  0  0  0  0  0  0  0
    0.1281   21.5539  -28.8478 H   0  0  0  0  0  0  0  0  0  0  0  0
   -3.5620   23.0050  -29.0000 S   0  0  0  0  0  0  0  0  0  0  0  0
  1  2  1  0
  2  3  2  0
  3  4  1  0
  3  5  1  0
  5  6  1  0
  6  7  1  0
  6  8  1  0
  6  9  1  0
  9 10  1  0
  9 11  1  0
  9 12  1  0
 12 13  1  0
 12 14  1  0
 12 15  1  0
 15 16  1  0
 15 17  1  0
 15 18  1  0
  5 19  2  0
 19 20  1  0
 19 21  1  0
 21 22  1  0
 21 23  2  0
 23 24  1  0
 24 25  2  0
 24 26  1  0
 26 27  2  0
 27 28  1  0
 28 29  1  0
 29 30  1  0
 30 31  1  0
 30 32  1  0
 30 33  1  0
 29 34  2  0
 34 35  1  0
 35 36  1  0
 36 37  1  0
 36 38  1  0
 36 39  1  0
 35 40  1  0
 40 41  1  0
 40 42  1  0
 40 43  1  0
 35 44  1  0
 44 45  1  0
 44 46  1  0
 44 47  1  0
 34 48  1  0
 23  2  1  0
 48 27  1  0
M  CHG  1  28  -1
M  END
>  <UniqueID>  (27) 
26

>  <SMILES>  (27) 
CCCCc1ccc(C(=O)/N=c2/[n-]c(C)c(C(C)(C)C)s2)cc1

>  <Energy>  (27) 
78.6070295530304

>  <Genealogy>  (27) 
CCCCc1ccc(C(=O)N=c2[n-]c(C)c(C(C)(C)C)s2)cc1 (protonated)
CCCCc1ccc(C(=O)/N=c2/[n-]c(C)c(C(C)(C)C)s2)cc1 (cis-trans isomerization)
CCCCc1ccc(C(=O)/N=c2/[n-]c(C)c(C(C)(C)C)s2)cc1 (3D coordinates assigned)
CCCCc1ccc(C(=O)/N=c2/[n-]c(C)c(C(C)(C)C)s2)cc1 (optimized conformer: 78.6070295530304 kcal/mol)

>  <smiles>  (27) 
CCCCc1ccc(C(=O)N=c2[nH]c(C)c(C(C)(C)C)s2)cc1

>  <score_type>  (27) 
oracle

>  <origin>  (27) 
adgpu

>  <m_score__min__energy>  (27) 
-10.49

>  <m_primary>  (27) 
energy

$$$$
27:0
     RDKit          3D

 52 54  0  0  1  0  0  0  0  0999 V2000
    0.2590   27.7830  -23.6970 C   0  0  0  0  0  0  0  0  0  0  0  0
   -0.2440   26.6440  -24.5230 C   0  0  0  0  0  0  0  0  0  0  0  0
   -1.0710   26.8060  -25.4620 O   0  0  0  0  0  0  0  0  0  0  0  0
    0.2380   25.3600  -24.2220 N   0  0  0  0  0  0  0  0  0  0  0  0
   -0.1440   24.1800  -24.9160 C   0  0  0  0  0  0  0  0  0  0  0  0
   -0.4420   23.0690  -24.1500 C   0  0  0  0  0  0  0  0  0  0  0  0
   -0.8260   21.8640  -24.7200 C   0  0  0  0  0  0  0  0  0  0  0  0
   -0.8930   21.8350  -26.0970 C   0  0  0  0  0  0  0  0  0  0  0  0
   -0.5990   22.9300  -26.8810 C   0  0  0  0  0  0  0  0  0  0  0  0
   -0.7040   22.7860  -28.3590 C   0  0  0  0  0  0  0  0  0  0  0  0
   -1.5330   23.9020  -28.8240 N   0  0  0  0  0  0  0  0  0  0  0  0
   -2.5660   23.6950  -29.5780 C   0  0  0  0  0  0  0  0  0  0  0  0
   -2.8180   22.4100  -29.8960 N   0  0  0  0  0  0  0  0  0  0  0  0
   -3.8720   22.1000  -30.6760 C   0  0  0  0  0  0  0  0  0  0  0  0
   -4.6600   23.1350  -31.1190 C   0  0  0  0  0  0  0  0  0  0  0  0
   -5.7610   22.8080  -31.9340 O   0  0  0  0  0  0  0  0  0  0  0  0
   -6.0400   21.4820  -32.2260 C   0  0  0  0  0  0  0  0  0  0  0  0
   -7.1540   20.8240  -31.7460 C   0  0  0  0  0  0  0  0  0  0  0  0
   -8.1000   21.5680  -30.8760 C   0  0  0  0  0  0  0  0  0  0  0  0
   -7.4300   19.5050  -32.0360 C   0  0  0  0  0  0  0  0  0  0  0  0
   -6.5230   18.8360  -32.8540 C   0  0  0  0  0  0  0  0  0  0  0  0
   -6.7190   17.4540  -33.2180 C   0  0  0  0  0  0  0  0  0  0  0  0
   -6.8780   16.3630  -33.5270 N   0  0  0  0  0  0  0  0  0  0  0  0
   -5.4150   19.5020  -33.3280 C   0  0  0  0  0  0  0  0  0  0  0  0
   -5.1360   20.8210  -33.0380 C   0  0  0  0  0  0  0  0  0  0  0  0
   -3.9330   21.5190  -33.5610 C   0  0  0  0  0  0  0  0  0  0  0  0
   -4.4360   24.4590  -30.8160 C   0  0  0  0  0  0  0  0  0  0  0  0
   -5.1820   25.4190  -31.2380 N   0  0  0  0  0  0  0  0  0  0  0  0
   -3.3520   24.7050  -30.0220 N   0  0  0  0  0  0  0  0  0  0  0  0
   -0.2200   24.1170  -26.2720 C   0  0  0  0  0  0  0  0  0  0  0  0
    0.1508   27.5381  -22.6301 H   0  0  0  0  0  0  0  0  0  0  0  0
    1.3198   27.9619  -23.9264 H   0  0  0  0  0  0  0  0  0  0  0  0
   -0.3234   28.6876  -23.9264 H   0  0  0  0  0  0  0  0  0  0  0  0
    0.9300   25.2250  -23.4370 H   0  0  0  0  0  0  0  0  0  0  0  0
   -0.3726   23.1425  -23.0547 H   0  0  0  0  0  0  0  0  0  0  0  0
   -1.0636   20.9814  -24.1080 H   0  0  0  0  0  0  0  0  0  0  0  0
   -1.1936   20.8990  -26.5904 H   0  0  0  0  0  0  0  0  0  0  0  0
    0.2943   22.8360  -28.8183 H   0  0  0  0  0  0  0  0  0  0  0  0
   -1.1462   21.8175  -28.6356 H   0  0  0  0  0  0  0  0  0  0  0  0
   -2.2360   21.6070  -29.5720 H   0  0  0  0  0  0  0  0  0  0  0  0
   -4.0934   21.0574  -30.9480 H   0  0  0  0  0  0  0  0  0  0  0  0
   -7.8560   21.3761  -29.8207 H   0  0  0  0  0  0  0  0  0  0  0  0
   -8.0171   22.6455  -31.0814 H   0  0  0  0  0  0  0  0  0  0  0  0
   -9.1276   21.2335  -31.0814 H   0  0  0  0  0  0  0  0  0  0  0  0
   -8.3254   19.0039  -31.6396 H   0  0  0  0  0  0  0  0  0  0  0  0
   -4.7142   18.9519  -33.9732 H   0  0  0  0  0  0  0  0  0  0  0  0
   -3.3204   21.8744  -32.7193 H   0  0  0  0  0  0  0  0  0  0  0  0
   -3.3433   20.8228  -34.1754 H   0  0  0  0  0  0  0  0  0  0  0  0
   -4.2448   22.3765  -34.1754 H   0  0  0  0  0  0  0  0  0  0  0  0
   -5.0380   26.4240  -31.0270 H   0  0  0  0  0  0  0  0  0  0  0  0
   -3.0980   25.6760  -29.7370 H   0  0  0  0  0  0  0  0  0  0  0  0
    0.0174   25.0012  -26.8818 H   0  0  0  0  0  0  0  0  0  0  0  0
  1  2  1  0
  2  3  2  0
  2  4  1  0
  4  5  1  0
  5  6  2  0
  6  7  1  0
  7  8  2  0
  8  9  1  0
  9 10  1  0
 10 11  1  0
 11 12  2  0
 12 13  1  0
 13 14  1  0
 14 15  2  0
 15 16  1  0
 16 17  1  0
 17 18  2  0
 18 19  1  0
 18 20  1  0
 20 21  2  0
 21 22  1  0
 22 23  3  0
 21 24  1  0
 24 25  2  0
 25 26  1  0
 15 27  1  0
 27 28  2  3
 27 29  1  0
  9 30  2  0
 30  5  1  0
 29 12  1  0
 25 17  1  0
  1 31  1  0
  1 32  1  0
  1 33  1  0
  4 34  1  0
  6 35  1  0
  7 36  1  0
  8 37  1  0
 10 38  1  0
 10 39  1  0
 13 40  1  0
 14 41  1  0
 19 42  1  0
 19 43  1  0
 19 44  1  0
 20 45  1  0
 24 46  1  0
 26 47  1  0
 26 48  1  0
 26 49  1  0
 28 50  1  0
 29 51  1  0
 30 52  1  0
M  END
>  <smiles>  (28) 
CC(=O)Nc1cccc(CN=c2[nH]cc(Oc3c(C)cc(C#N)cc3C)c(=N)[nH]2)c1

>  <score_type>  (28) 
oracle

>  <origin>  (28) 
adgpu

>  <m_score__min__energy>  (28) 
-9.9000000000000004

>  <m_primary>  (28) 
energy

$$$$
28:0
     RDKit          3D

 56 59  0  0  0  0  0  0  0  0999 V2000
   -0.9490   26.3230  -28.8750 N   0  0  0  0  0  0  0  0  0  0  0  0
   -0.0890   25.7670  -27.8330 C   0  0  0  0  0  0  0  0  0  0  0  0
   -0.5010   24.3520  -27.4770 C   0  0  0  0  0  0  0  0  0  0  0  0
   -0.5170   24.0010  -26.1240 C   0  0  0  0  0  0  0  0  0  0  0  0
   -0.8820   22.7250  -25.7270 C   0  0  0  0  0  0  0  0  0  0  0  0
   -1.2660   21.7670  -26.6700 C   0  0  0  0  0  0  0  0  0  0  0  0
   -1.6130   20.4880  -26.2200 C   0  0  0  0  0  0  0  0  0  0  0  0
   -2.0060   19.5090  -27.1200 C   0  0  0  0  0  0  0  0  0  0  0  0
   -2.0780   19.7960  -28.4770 C   0  0  0  0  0  0  0  0  0  0  0  0
   -1.7550   21.0720  -28.9740 C   0  0  0  0  0  0  0  0  0  0  0  0
   -1.9690   21.3070  -30.7250 S   0  0  0  0  0  0  0  0  0  0  0  0
   -0.6350   21.2010  -31.4100 O   0  0  0  0  0  0  0  0  0  0  0  0
   -2.9220   20.2730  -31.2570 O   0  0  0  0  0  0  0  0  0  0  0  0
   -2.6200   22.8830  -31.0520 N   0  0  0  0  0  0  0  0  0  0  0  0
   -3.9630   23.3000  -30.7730 C   0  0  0  0  0  0  0  0  0  0  0  0
   -5.0760   22.5240  -31.1470 C   0  0  0  0  0  0  0  0  0  0  0  0
   -6.3760   22.9660  -30.8650 C   0  0  0  0  0  0  0  0  0  0  0  0
   -7.7580   21.9610  -31.2960 S   0  0  0  0  0  0  0  0  0  0  0  0
   -8.6840   21.8360  -30.1170 O   0  0  0  0  0  0  0  0  0  0  0  0
   -8.5040   22.6200  -32.4230 O   0  0  0  0  0  0  0  0  0  0  0  0
   -7.2070   20.3820  -31.7990 N   0  0  0  0  0  0  0  0  0  0  0  0
   -8.2940   19.3940  -31.6260 C   0  0  0  0  0  0  0  0  0  0  0  0
   -8.0110   18.0630  -32.3600 C   0  0  0  0  0  0  0  0  0  0  0  0
   -6.5310   17.9280  -32.7270 C   0  0  0  0  0  0  0  0  0  0  0  0
   -6.0690   19.1120  -33.5930 C   0  0  0  0  0  0  0  0  0  0  0  0
   -6.7580   20.4330  -33.1990 C   0  0  0  0  0  0  0  0  0  0  0  0
   -6.5660   24.1840  -30.1990 C   0  0  0  0  0  0  0  0  0  0  0  0
   -5.4660   24.9550  -29.8220 C   0  0  0  0  0  0  0  0  0  0  0  0
   -4.1690   24.5160  -30.1060 C   0  0  0  0  0  0  0  0  0  0  0  0
   -3.0820   25.2950  -29.7210 O   0  0  0  0  0  0  0  0  0  0  0  0
   -1.3080   22.0900  -28.0610 C   0  0  0  0  0  0  0  0  0  0  0  0
   -0.9000   23.4030  -28.4570 C   0  0  0  0  0  0  0  0  0  0  0  0
   -0.8780   23.7540  -29.8070 O   0  0  0  0  0  0  0  0  0  0  0  0
   -0.9430   25.6860  -29.7050 H   0  0  0  0  0  0  0  0  0  0  0  0
   -1.9310   26.3580  -28.5150 H   0  0  0  0  0  0  0  0  0  0  0  0
    0.9504   25.7579  -28.1930 H   0  0  0  0  0  0  0  0  0  0  0  0
   -0.1833   26.3932  -26.9336 H   0  0  0  0  0  0  0  0  0  0  0  0
   -0.2365   24.7468  -25.3656 H   0  0  0  0  0  0  0  0  0  0  0  0
   -0.8696   22.4629  -24.6588 H   0  0  0  0  0  0  0  0  0  0  0  0
   -1.5737   20.2578  -25.1451 H   0  0  0  0  0  0  0  0  0  0  0  0
   -2.2615   18.5021  -26.7581 H   0  0  0  0  0  0  0  0  0  0  0  0
   -2.3942   19.0093  -29.1778 H   0  0  0  0  0  0  0  0  0  0  0  0
   -4.9248   21.5648  -31.6638 H   0  0  0  0  0  0  0  0  0  0  0  0
   -8.4131   19.1858  -30.5525 H   0  0  0  0  0  0  0  0  0  0  0  0
   -9.2081   19.8255  -32.0598 H   0  0  0  0  0  0  0  0  0  0  0  0
   -8.2945   17.2262  -31.7047 H   0  0  0  0  0  0  0  0  0  0  0  0
   -8.5995   18.0496  -33.2893 H   0  0  0  0  0  0  0  0  0  0  0  0
   -5.9324   17.9016  -31.8045 H   0  0  0  0  0  0  0  0  0  0  0  0
   -6.3949   16.9994  -33.3007 H   0  0  0  0  0  0  0  0  0  0  0  0
   -4.9819   19.2321  -33.4759 H   0  0  0  0  0  0  0  0  0  0  0  0
   -6.3404   18.8905  -34.6357 H   0  0  0  0  0  0  0  0  0  0  0  0
   -6.0464   21.2629  -33.3210 H   0  0  0  0  0  0  0  0  0  0  0  0
   -7.6330   20.5854  -33.8480 H   0  0  0  0  0  0  0  0  0  0  0  0
   -7.5844   24.5330  -29.9729 H   0  0  0  0  0  0  0  0  0  0  0  0
   -5.6194   25.9110  -29.2999 H   0  0  0  0  0  0  0  0  0  0  0  0
   -1.6860   24.0310  -30.3460 H   0  0  0  0  0  0  0  0  0  0  0  0
  1  2  1  0
  2  3  1  0
  3  4  2  0
  4  5  1  0
  5  6  2  0
  6  7  1  0
  7  8  2  0
  8  9  1  0
  9 10  2  0
 10 11  1  0
 11 12  2  0
 11 13  2  0
 11 14  1  0
 14 15  1  0
 15 16  2  0
 16 17  1  0
 17 18  1  0
 18 19  2  0
 18 20  2  0
 18 21  1  0
 21 22  1  0
 22 23  1  0
 23 24  1  0
 24 25  1  0
 25 26  1  0
 17 27  2  0
 27 28  1  0
 28 29  2  0
 29 30  1  0
 10 31  1  0
 31 32  2  0
 32 33  1  0
 32  3  1  0
 31  6  1  0
 29 15  1  0
 26 21  1  0
  1 34  1  0
  1 35  1  0
  2 36  1  0
  2 37  1  0
  4 38  1  0
  5 39  1  0
  7 40  1  0
  8 41  1  0
  9 42  1  0
 16 43  1  0
 22 44  1  0
 22 45  1  0
 23 46  1  0
 23 47  1  0
 24 48  1  0
 24 49  1  0
 25 50  1  0
 25 51  1  0
 26 52  1  0
 26 53  1  0
 27 54  1  0
 28 55  1  0
 33 56  1  0
M  CHG  2  14  -1  30  -1
M  END
>  <UniqueID>  (29) 
27

>  <SMILES>  (29) 
NCc1ccc2cccc(S(=O)(=O)[N-]c3cc(S(=O)(=O)N4CCCCC4)ccc3[O-])c2c1O

>  <Energy>  (29) 
79.70305552945837

>  <Genealogy>  (29) 
NCc1ccc2cccc(S(=O)(=O)[N-]c3cc(S(=O)(=O)N4CCCCC4)ccc3[O-])c2c1O (protonated)
NCc1ccc2cccc(S(=O)(=O)[N-]c3cc(S(=O)(=O)N4CCCCC4)ccc3[O-])c2c1O (3D coordinates assigned)
NCc1ccc2cccc(S(=O)(=O)[N-]c3cc(S(=O)(=O)N4CCCCC4)ccc3[O-])c2c1O (nonaromatic ring conformer: 79.70305552945837 kcal/mol)

>  <smiles>  (29) 
NCc1ccc2cccc(S(=O)(=O)Nc3cc(S(=O)(=O)N4CCCCC4)ccc3O)c2c1O

>  <score_type>  (29) 
oracle

>  <origin>  (29) 
adgpu

>  <m_score__min__energy>  (29) 
-14.050000000000001

>  <m_primary>  (29) 
energy

$$$$
29:0
     RDKit          3D

 77 81  0  0  0  0  0  0  0  0999 V2000
   -4.1335   23.2552  -28.9992 H   0  0  0  0  0  0  0  0  0  0  0  0
   -3.5060   22.8040  -29.7820 C   0  0  0  0  0  0  0  0  0  0  0  0
   -1.8450   22.6110  -29.7230 S   0  0  0  0  0  0  0  0  0  0  0  0
   -1.7430   21.8820  -31.2310 C   0  0  0  0  0  0  0  0  0  0  0  0
   -0.5950   21.4700  -31.6980 N   0  0  0  0  0  0  0  0  0  0  0  0
   -0.2970   20.7810  -32.9130 C   0  0  0  0  0  0  0  0  0  0  0  0
   -0.2070   21.4900  -34.1130 C   0  0  0  0  0  0  0  0  0  0  0  0
   -0.3245   22.5837  -34.1128 H   0  0  0  0  0  0  0  0  0  0  0  0
    0.0310   20.8180  -35.3110 C   0  0  0  0  0  0  0  0  0  0  0  0
    0.1280   21.3873  -36.2472 H   0  0  0  0  0  0  0  0  0  0  0  0
    0.1480   19.4140  -35.3300 C   0  0  0  0  0  0  0  0  0  0  0  0
    0.3900   18.7110  -36.5220 O   0  0  0  0  0  0  0  0  0  0  0  0
    1.5420   18.8780  -37.3420 C   0  0  0  0  0  0  0  0  0  0  0  0
    2.4297   19.0067  -36.7053 H   0  0  0  0  0  0  0  0  0  0  0  0
    1.6720   17.9893  -37.9771 H   0  0  0  0  0  0  0  0  0  0  0  0
    1.4143   19.7670  -37.9771 H   0  0  0  0  0  0  0  0  0  0  0  0
    0.0110   18.6960  -34.1270 C   0  0  0  0  0  0  0  0  0  0  0  0
    0.1010   16.9300  -34.1300 S   0  0  0  0  0  0  0  0  0  0  0  0
    1.5340   16.5150  -34.3230 O   0  0  0  0  0  0  0  0  0  0  0  0
   -0.3760   16.3890  -32.8110 O   0  0  0  0  0  0  0  0  0  0  0  0
   -0.8790   16.2890  -35.4260 N   0  0  0  0  0  0  0  0  0  0  0  0
   -0.7680   16.9240  -36.2510 H   0  0  0  0  0  0  0  0  0  0  0  0
   -0.4130   14.9410  -35.7950 C   0  0  0  0  0  0  0  0  0  0  0  0
    0.6202   15.0054  -36.1668 H   0  0  0  0  0  0  0  0  0  0  0  0
   -0.4592   14.2953  -34.9057 H   0  0  0  0  0  0  0  0  0  0  0  0
   -1.3120   14.3340  -36.8970 C   0  0  0  0  0  0  0  0  0  0  0  0
   -0.7119   14.2007  -37.8092 H   0  0  0  0  0  0  0  0  0  0  0  0
   -1.6973   13.3733  -36.5248 H   0  0  0  0  0  0  0  0  0  0  0  0
   -2.4240   15.1580  -37.2000 O   0  0  0  0  0  0  0  0  0  0  0  0
   -3.1470   15.4360  -36.0170 C   0  0  0  0  0  0  0  0  0  0  0  0
   -4.0530   16.0038  -36.2753 H   0  0  0  0  0  0  0  0  0  0  0  0
   -3.4107   14.4817  -35.5377 H   0  0  0  0  0  0  0  0  0  0  0  0
   -2.3000   16.2630  -35.0260 C   0  0  0  0  0  0  0  0  0  0  0  0
   -2.6838   17.2936  -34.9999 H   0  0  0  0  0  0  0  0  0  0  0  0
   -2.3725   15.7953  -34.0330 H   0  0  0  0  0  0  0  0  0  0  0  0
   -0.2310   19.3820  -32.9270 C   0  0  0  0  0  0  0  0  0  0  0  0
   -0.3696   18.8182  -31.9927 H   0  0  0  0  0  0  0  0  0  0  0  0
   -2.9790   21.7890  -31.8260 N   0  0  0  0  0  0  0  0  0  0  0  0
   -3.3010   21.2200  -33.1480 C   0  0  0  0  0  0  0  0  0  0  0  0
   -2.5318   21.5310  -33.8702 H   0  0  0  0  0  0  0  0  0  0  0  0
   -4.2909   21.5882  -33.4555 H   0  0  0  0  0  0  0  0  0  0  0  0
   -3.3460   19.6950  -33.0930 C   0  0  0  0  0  0  0  0  0  0  0  0
   -3.3557   19.3661  -32.0434 H   0  0  0  0  0  0  0  0  0  0  0  0
   -4.2551   19.3365  -33.5980 H   0  0  0  0  0  0  0  0  0  0  0  0
   -2.4596   19.2836  -33.5980 H   0  0  0  0  0  0  0  0  0  0  0  0
   -3.9530   22.2930  -30.9960 C   0  0  0  0  0  0  0  0  0  0  0  0
   -5.3910   22.2920  -31.3250 C   0  0  0  0  0  0  0  0  0  0  0  0
   -6.0470   21.0730  -31.5400 C   0  0  0  0  0  0  0  0  0  0  0  0
   -5.4900   20.1287  -31.4499 H   0  0  0  0  0  0  0  0  0  0  0  0
   -7.4080   21.0500  -31.8690 C   0  0  0  0  0  0  0  0  0  0  0  0
   -8.2140   19.5120  -32.1900 S   0  0  0  0  0  0  0  0  0  0  0  0
   -9.4710   19.7660  -32.9730 O   0  0  0  0  0  0  0  0  0  0  0  0
   -8.5990   18.8730  -30.8840 O   0  0  0  0  0  0  0  0  0  0  0  0
   -7.1820   18.4190  -33.0800 N   0  0  0  0  0  0  0  0  0  0  0  0
   -6.2110   17.7780  -32.1810 C   0  0  0  0  0  0  0  0  0  0  0  0
   -5.5804   18.5503  -31.7163 H   0  0  0  0  0  0  0  0  0  0  0  0
   -6.7536   17.2204  -31.4034 H   0  0  0  0  0  0  0  0  0  0  0  0
   -5.3190   16.8000  -32.9750 C   0  0  0  0  0  0  0  0  0  0  0  0
   -4.2652   17.0187  -32.7478 H   0  0  0  0  0  0  0  0  0  0  0  0
   -5.5914   15.7774  -32.6747 H   0  0  0  0  0  0  0  0  0  0  0  0
   -5.5150   16.9070  -34.3750 O   0  0  0  0  0  0  0  0  0  0  0  0
   -5.3740   18.2570  -34.7750 C   0  0  0  0  0  0  0  0  0  0  0  0
   -4.3938   18.6297  -34.4430 H   0  0  0  0  0  0  0  0  0  0  0  0
   -5.4554   18.3074  -35.8708 H   0  0  0  0  0  0  0  0  0  0  0  0
   -6.4820   19.1360  -34.1600 C   0  0  0  0  0  0  0  0  0  0  0  0
   -6.0300   20.0515  -33.7507 H   0  0  0  0  0  0  0  0  0  0  0  0
   -7.2099   19.3856  -34.9460 H   0  0  0  0  0  0  0  0  0  0  0  0
   -8.1160   22.2540  -31.9660 C   0  0  0  0  0  0  0  0  0  0  0  0
   -9.1893   22.2394  -32.2065 H   0  0  0  0  0  0  0  0  0  0  0  0
   -7.4670   23.4740  -31.7590 C   0  0  0  0  0  0  0  0  0  0  0  0
   -8.0309   24.4148  -31.8416 H   0  0  0  0  0  0  0  0  0  0  0  0
   -6.0940   23.5050  -31.4450 C   0  0  0  0  0  0  0  0  0  0  0  0
   -5.4030   24.7110  -31.2420 O   0  0  0  0  0  0  0  0  0  0  0  0
   -5.7340   25.6730  -30.2460 C   0  0  0  0  0  0  0  0  0  0  0  0
   -5.5832   25.2347  -29.2484 H   0  0  0  0  0  0  0  0  0  0  0  0
   -5.0880   26.5560  -30.3600 H   0  0  0  0  0  0  0  0  0  0  0  0
   -6.7865   25.9716  -30.3600 H   0  0  0  0  0  0  0  0  0  0  0  0
  1  2  1  0
  2  3  1  0
  3  4  1  0
  4  5  2  0
  5  6  1  0
  6  7  2  0
  7  8  1  0
  7  9  1  0
  9 10  1  0
  9 11  2  0
 11 12  1  0
 12 13  1  0
 13 14  1  0
 13 15  1  0
 13 16  1  0
 11 17  1  0
 17 18  1  0
 18 19  2  0
 18 20  2  0
 18 21  1  0
 21 22  1  0
 21 23  1  0
 23 24  1  0
 23 25  1  0
 23 26  1  0
 26 27  1  0
 26 28  1  0
 26 29  1  0
 29 30  1  0
 30 31  1  0
 30 32  1  0
 30 33  1  0
 33 34  1  0
 33 35  1  0
 17 36  2  0
 36 37  1  0
  4 38  1  0
 38 39  1  0
 39 40  1  0
 39 41  1  0
 39 42  1  0
 42 43  1  0
 42 44  1  0
 42 45  1  0
 38 46  1  0
 46 47  1  0
 47 48  2  0
 48 49  1  0
 48 50  1  0
 50 51  1  0
 51 52  2  0
 51 53  2  0
 51 54  1  0
 54 55  1  0
 55 56  1  0
 55 57  1  0
 55 58  1  0
 58 59  1  0
 58 60  1  0
 58 61  1  0
 61 62  1  0
 62 63  1  0
 62 64  1  0
 62 65  1  0
 65 66  1  0
 65 67  1  0
 50 68  2  0
 68 69  1  0
 68 70  1  0
 70 71  1  0
 70 72  2  0
 72 73  1  0
 73 74  1  0
 74 75  1  0
 74 76  1  0
 74 77  1  0
 46  2  2  0
 72 47  1  0
 36  6  1  0
 65 54  1  0
 33 21  1  0
M  CHG  1  21   1
M  END
>  <UniqueID>  (30) 
28

>  <SMILES>  (30) 
CCn1c(-c2cc(S(=O)(=O)N3CCOCC3)ccc2OC)cs/c1=N/c1ccc(OC)c(S(=O)(=O)[NH+]2CCOCC2)c1

>  <Energy>  (30) 
145.60844820698688

>  <Genealogy>  (30) 
CCn1c(-c2cc(S(=O)(=O)N3CCOCC3)ccc2OC)csc1=Nc1ccc(OC)c(S(=O)(=O)[NH+]2CCOCC2)c1 (protonated)
CCn1c(-c2cc(S(=O)(=O)N3CCOCC3)ccc2OC)cs/c1=N/c1ccc(OC)c(S(=O)(=O)[NH+]2CCOCC2)c1 (cis-trans isomerization)
CCn1c(-c2cc(S(=O)(=O)N3CCOCC3)ccc2OC)cs/c1=N/c1ccc(OC)c(S(=O)(=O)[NH+]2CCOCC2)c1 (3D coordinates assigned)
CCn1c(-c2cc(S(=O)(=O)N3CCOCC3)ccc2OC)cs/c1=N/c1ccc(OC)c(S(=O)(=O)[NH+]2CCOCC2)c1 (nonaromatic ring conformer: 145.60844820698688 kcal/mol)

>  <smiles>  (30) 
CCn1c(-c2cc(S(=O)(=O)N3CCOCC3)ccc2OC)csc1=Nc1ccc(OC)c(S(=O)(=O)N2CCOCC2)c1

>  <score_type>  (30) 
oracle

>  <origin>  (30) 
adgpu

>  <m_score__min__energy>  (30) 
-11.01

>  <m_primary>  (30) 
energy

$$$$
30:0
     RDKit          3D

 59 62  0  0  0  0  0  0  0  0999 V2000
   -4.2220   24.6600  -26.6870 C   0  0  0  0  0  0  0  0  0  0  0  0
   -2.7830   24.6780  -27.1140 C   0  0  0  0  0  0  0  0  0  0  0  0
   -1.8520   25.4350  -26.3900 C   0  0  0  0  0  0  0  0  0  0  0  0
   -0.4980   25.3950  -26.7290 C   0  0  0  0  0  0  0  0  0  0  0  0
   -0.0630   24.5920  -27.7850 C   0  0  0  0  0  0  0  0  0  0  0  0
   -0.9850   23.8380  -28.5300 C   0  0  0  0  0  0  0  0  0  0  0  0
   -0.5200   22.9870  -29.6810 C   0  0  0  0  0  0  0  0  0  0  0  0
   -1.0460   21.2480  -29.4740 S   0  0  0  0  0  0  0  0  0  0  0  0
   -1.1960   20.9300  -31.2320 C   0  0  0  0  0  0  0  0  0  0  0  0
   -2.3120   20.3210  -31.7090 N   0  0  0  0  0  0  0  0  0  0  0  0
   -2.5180   20.1560  -33.0420 C   0  0  0  0  0  0  0  0  0  0  0  0
   -3.7240   19.5470  -33.5450 N   0  0  0  0  0  0  0  0  0  0  0  0
   -5.0600   19.7700  -33.0480 C   0  0  0  0  0  0  0  0  0  0  0  0
   -5.8860   18.6620  -32.8260 C   0  0  0  0  0  0  0  0  0  0  0  0
   -7.1910   18.8260  -32.3640 C   0  0  0  0  0  0  0  0  0  0  0  0
   -7.7030   20.1050  -32.1000 C   0  0  0  0  0  0  0  0  0  0  0  0
   -9.1230   20.2240  -31.6170 C   0  0  0  0  0  0  0  0  0  0  0  0
   -6.8660   21.2350  -32.2840 C   0  0  0  0  0  0  0  0  0  0  0  0
   -7.3660   22.8870  -31.8680 S   0  0  0  0  0  0  0  0  0  0  0  0
   -8.8620   22.9890  -31.7710 O   0  0  0  0  0  0  0  0  0  0  0  0
   -6.8830   23.8080  -32.9520 O   0  0  0  0  0  0  0  0  0  0  0  0
   -6.6490   23.3550  -30.3370 N   0  0  0  0  0  0  0  0  0  0  0  0
   -6.6340   24.8180  -30.1400 C   0  0  0  0  0  0  0  0  0  0  0  0
   -5.4350   25.4910  -30.8240 C   0  0  0  0  0  0  0  0  0  0  0  0
   -4.2240   24.9000  -30.4070 O   0  0  0  0  0  0  0  0  0  0  0  0
   -4.1980   23.5490  -30.8130 C   0  0  0  0  0  0  0  0  0  0  0  0
   -5.3190   22.7500  -30.1340 C   0  0  0  0  0  0  0  0  0  0  0  0
   -5.5790   21.0570  -32.8190 C   0  0  0  0  0  0  0  0  0  0  0  0
   -1.5430   20.6060  -33.9400 C   0  0  0  0  0  0  0  0  0  0  0  0
   -0.3860   21.2020  -33.4350 C   0  0  0  0  0  0  0  0  0  0  0  0
    0.5090   21.6070  -34.2240 O   0  0  0  0  0  0  0  0  0  0  0  0
   -0.2310   21.3550  -32.0920 N   0  0  0  0  0  0  0  0  0  0  0  0
   -2.3470   23.8870  -28.1890 C   0  0  0  0  0  0  0  0  0  0  0  0
   -4.2785   24.6593  -25.5885 H   0  0  0  0  0  0  0  0  0  0  0  0
   -4.7322   25.5518  -27.0798 H   0  0  0  0  0  0  0  0  0  0  0  0
   -4.7098   23.7557  -27.0798 H   0  0  0  0  0  0  0  0  0  0  0  0
   -2.1890   26.0627  -25.5519 H   0  0  0  0  0  0  0  0  0  0  0  0
    0.2275   25.9975  -26.1628 H   0  0  0  0  0  0  0  0  0  0  0  0
    1.0074   24.5495  -28.0350 H   0  0  0  0  0  0  0  0  0  0  0  0
   -0.9470   23.3821  -30.6146 H   0  0  0  0  0  0  0  0  0  0  0  0
    0.5791   23.0165  -29.7136 H   0  0  0  0  0  0  0  0  0  0  0  0
   -3.6030   18.7570  -34.2190 H   0  0  0  0  0  0  0  0  0  0  0  0
   -5.5008   17.6498  -33.0184 H   0  0  0  0  0  0  0  0  0  0  0  0
   -7.8265   17.9424  -32.2047 H   0  0  0  0  0  0  0  0  0  0  0  0
   -9.1373   20.2252  -30.5171 H   0  0  0  0  0  0  0  0  0  0  0  0
   -9.5599   21.1619  -31.9904 H   0  0  0  0  0  0  0  0  0  0  0  0
   -9.7099   19.3719  -31.9904 H   0  0  0  0  0  0  0  0  0  0  0  0
   -7.5604   25.2397  -30.5570 H   0  0  0  0  0  0  0  0  0  0  0  0
   -6.5532   25.0091  -29.0597 H   0  0  0  0  0  0  0  0  0  0  0  0
   -5.5333   25.3812  -31.9141 H   0  0  0  0  0  0  0  0  0  0  0  0
   -5.4221   26.5552  -30.5460 H   0  0  0  0  0  0  0  0  0  0  0  0
   -4.3299   23.4984  -31.9039 H   0  0  0  0  0  0  0  0  0  0  0  0
   -3.2307   23.1136  -30.5217 H   0  0  0  0  0  0  0  0  0  0  0  0
   -5.3278   21.7317  -30.5500 H   0  0  0  0  0  0  0  0  0  0  0  0
   -5.1167   22.7444  -29.0528 H   0  0  0  0  0  0  0  0  0  0  0  0
   -4.9676   21.9383  -33.0626 H   0  0  0  0  0  0  0  0  0  0  0  0
   -1.6860   20.4920  -35.0247 H   0  0  0  0  0  0  0  0  0  0  0  0
    0.6260   21.8220  -31.7180 H   0  0  0  0  0  0  0  0  0  0  0  0
   -3.0766   23.3018  -28.7680 H   0  0  0  0  0  0  0  0  0  0  0  0
  1  2  1  0
  2  3  2  0
  3  4  1  0
  4  5  2  0
  5  6  1  0
  6  7  1  0
  7  8  1  0
  8  9  1  0
  9 10  2  0
 10 11  1  0
 11 12  1  0
 12 13  1  0
 13 14  2  0
 14 15  1  0
 15 16  2  0
 16 17  1  0
 16 18  1  0
 18 19  1  0
 19 20  2  0
 19 21  2  0
 19 22  1  0
 22 23  1  0
 23 24  1  0
 24 25  1  0
 25 26  1  0
 26 27  1  0
 18 28  2  0
 11 29  2  0
 29 30  1  0
 30 31  2  0
 30 32  1  0
  6 33  2  0
 33  2  1  0
 32  9  1  0
 28 13  1  0
 27 22  1  0
  1 34  1  0
  1 35  1  0
  1 36  1  0
  3 37  1  0
  4 38  1  0
  5 39  1  0
  7 40  1  0
  7 41  1  0
 12 42  1  0
 14 43  1  0
 15 44  1  0
 17 45  1  0
 17 46  1  0
 17 47  1  0
 23 48  1  0
 23 49  1  0
 24 50  1  0
 24 51  1  0
 26 52  1  0
 26 53  1  0
 27 54  1  0
 27 55  1  0
 28 56  1  0
 29 57  1  0
 32 58  1  0
 33 59  1  0
M  END
>  <UniqueID>  (31) 
29

>  <SMILES>  (31) 
Cc1cccc(CSc2nc(Nc3ccc(C)c(S(=O)(=O)N4CCOCC4)c3)cc(=O)[nH]2)c1

>  <Energy>  (31) 
63.203998741532494

>  <Genealogy>  (31) 
Cc1cccc(CSc2nc(Nc3ccc(C)c(S(=O)(=O)N4CCOCC4)c3)cc(=O)[nH]2)c1 (3D coordinates assigned)
Cc1cccc(CSc2nc(Nc3ccc(C)c(S(=O)(=O)N4CCOCC4)c3)cc(=O)[nH]2)c1 (nonaromatic ring conformer: 63.203998741532494 kcal/mol)

>  <smiles>  (31) 
Cc1cccc(CSc2nc(Nc3ccc(C)c(S(=O)(=O)N4CCOCC4)c3)cc(=O)[nH]2)c1

>  <score_type>  (31) 
oracle

>  <origin>  (31) 
adgpu

>  <m_score__min__energy>  (31) 
-10.91

>  <m_primary>  (31) 
energy

$$$$
31:0
     RDKit          3D

 61 64  0  0  0  0  0  0  0  0999 V2000
   -9.8630   21.6460  -31.5260 C   0  0  0  0  0  0  0  0  0  0  0  0
   -8.3630   21.6400  -31.4840 C   0  0  0  0  0  0  0  0  0  0  0  0
   -7.6820   22.3880  -30.5120 C   0  0  0  0  0  0  0  0  0  0  0  0
   -6.2780   22.3580  -30.4430 C   0  0  0  0  0  0  0  0  0  0  0  0
   -5.5620   23.0970  -29.4390 N   0  0  0  0  0  0  0  0  0  0  0  0
   -4.2310   22.7720  -29.0030 C   0  0  0  0  0  0  0  0  0  0  0  0
   -3.7960   21.5960  -29.1480 O   0  0  0  0  0  0  0  0  0  0  0  0
   -3.3790   23.7880  -28.3400 C   0  0  0  0  0  0  0  0  0  0  0  0
   -3.6520   24.1920  -27.0220 C   0  0  0  0  0  0  0  0  0  0  0  0
   -2.8510   25.1480  -26.3910 C   0  0  0  0  0  0  0  0  0  0  0  0
   -1.7630   25.7150  -27.0670 C   0  0  0  0  0  0  0  0  0  0  0  0
   -0.7690   26.9410  -26.2790 S   0  0  0  0  0  0  0  0  0  0  0  0
   -0.4720   28.0330  -27.2710 O   0  0  0  0  0  0  0  0  0  0  0  0
   -1.5460   27.5520  -25.1460 O   0  0  0  0  0  0  0  0  0  0  0  0
    0.7390   26.2950  -25.6650 N   0  0  0  0  0  0  0  0  0  0  0  0
    0.6880   24.8340  -25.4660 C   0  0  0  0  0  0  0  0  0  0  0  0
    0.9450   24.0340  -26.7650 C   0  0  0  0  0  0  0  0  0  0  0  0
    1.3900   24.8390  -27.8400 O   0  0  0  0  0  0  0  0  0  0  0  0
    2.4420   25.6700  -27.4060 C   0  0  0  0  0  0  0  0  0  0  0  0
    1.9150   26.7440  -26.4420 C   0  0  0  0  0  0  0  0  0  0  0  0
   -1.4730   25.3030  -28.3740 C   0  0  0  0  0  0  0  0  0  0  0  0
   -2.2730   24.3480  -29.0060 C   0  0  0  0  0  0  0  0  0  0  0  0
   -5.5660   21.5360  -31.3290 C   0  0  0  0  0  0  0  0  0  0  0  0
   -6.2400   20.7740  -32.2930 C   0  0  0  0  0  0  0  0  0  0  0  0
   -5.3480   19.7220  -33.3890 S   0  0  0  0  0  0  0  0  0  0  0  0
   -6.1720   19.5180  -34.6300 O   0  0  0  0  0  0  0  0  0  0  0  0
   -4.0500   20.3740  -33.7780 O   0  0  0  0  0  0  0  0  0  0  0  0
   -5.0580   18.1870  -32.5960 N   0  0  0  0  0  0  0  0  0  0  0  0
   -4.8390   17.0940  -33.5690 C   0  0  0  0  0  0  0  0  0  0  0  0
   -6.0990   16.2370  -33.7970 C   0  0  0  0  0  0  0  0  0  0  0  0
   -7.2590   17.0290  -33.6670 O   0  0  0  0  0  0  0  0  0  0  0  0
   -7.4330   17.4240  -32.3180 C   0  0  0  0  0  0  0  0  0  0  0  0
   -6.1200   17.8660  -31.6260 C   0  0  0  0  0  0  0  0  0  0  0  0
   -7.6370   20.8230  -32.3630 C   0  0  0  0  0  0  0  0  0  0  0  0
  -10.2585   21.6476  -30.4996 H   0  0  0  0  0  0  0  0  0  0  0  0
  -10.2114   22.5455  -32.0546 H   0  0  0  0  0  0  0  0  0  0  0  0
  -10.2186   20.7493  -32.0546 H   0  0  0  0  0  0  0  0  0  0  0  0
   -8.2506   23.0025  -29.7986 H   0  0  0  0  0  0  0  0  0  0  0  0
   -6.0760   23.8490  -28.9260 H   0  0  0  0  0  0  0  0  0  0  0  0
   -4.5035   23.7520  -26.4822 H   0  0  0  0  0  0  0  0  0  0  0  0
   -3.0759   25.4564  -25.3593 H   0  0  0  0  0  0  0  0  0  0  0  0
    1.4526   24.5548  -24.7261 H   0  0  0  0  0  0  0  0  0  0  0  0
   -0.3274   24.5854  -25.1238 H   0  0  0  0  0  0  0  0  0  0  0  0
    1.7108   23.2716  -26.5596 H   0  0  0  0  0  0  0  0  0  0  0  0
   -0.0139   23.5879  -27.0676 H   0  0  0  0  0  0  0  0  0  0  0  0
    3.1969   25.0589  -26.8897 H   0  0  0  0  0  0  0  0  0  0  0  0
    2.8892   26.1649  -28.2807 H   0  0  0  0  0  0  0  0  0  0  0  0
    2.7188   27.0097  -25.7396 H   0  0  0  0  0  0  0  0  0  0  0  0
    1.5995   27.6054  -27.0490 H   0  0  0  0  0  0  0  0  0  0  0  0
   -0.6113   25.7335  -28.9052 H   0  0  0  0  0  0  0  0  0  0  0  0
   -2.0365   24.0312  -30.0325 H   0  0  0  0  0  0  0  0  0  0  0  0
   -4.4688   21.4890  -31.2666 H   0  0  0  0  0  0  0  0  0  0  0  0
   -4.5348   17.5345  -34.5300 H   0  0  0  0  0  0  0  0  0  0  0  0
   -4.0601   16.4352  -33.1576 H   0  0  0  0  0  0  0  0  0  0  0  0
   -6.0660   15.8048  -34.8080 H   0  0  0  0  0  0  0  0  0  0  0  0
   -6.1272   15.4345  -33.0452 H   0  0  0  0  0  0  0  0  0  0  0  0
   -8.1406   18.2658  -32.2908 H   0  0  0  0  0  0  0  0  0  0  0  0
   -7.8057   16.5456  -31.7707 H   0  0  0  0  0  0  0  0  0  0  0  0
   -6.3243   18.7587  -31.0166 H   0  0  0  0  0  0  0  0  0  0  0  0
   -5.7678   17.0286  -31.0057 H   0  0  0  0  0  0  0  0  0  0  0  0
   -8.1686   20.2173  -33.1117 H   0  0  0  0  0  0  0  0  0  0  0  0
  1  2  1  0
  2  3  2  0
  3  4  1  0
  4  5  1  0
  5  6  1  0
  6  7  2  0
  6  8  1  0
  8  9  2  0
  9 10  1  0
 10 11  2  0
 11 12  1  0
 12 13  2  0
 12 14  2  0
 12 15  1  0
 15 16  1  0
 16 17  1  0
 17 18  1  0
 18 19  1  0
 19 20  1  0
 11 21  1  0
 21 22  2  0
  4 23  2  0
 23 24  1  0
 24 25  1  0
 25 26  2  0
 25 27  2  0
 25 28  1  0
 28 29  1  0
 29 30  1  0
 30 31  1  0
 31 32  1  0
 32 33  1  0
 24 34  2  0
 34  2  1  0
 22  8  1  0
 33 28  1  0
 20 15  1  0
  1 35  1  0
  1 36  1  0
  1 37  1  0
  3 38  1  0
  5 39  1  0
  9 40  1  0
 10 41  1  0
 16 42  1  0
 16 43  1  0
 17 44  1  0
 17 45  1  0
 19 46  1  0
 19 47  1  0
 20 48  1  0
 20 49  1  0
 21 50  1  0
 22 51  1  0
 23 52  1  0
 29 53  1  0
 29 54  1  0
 30 55  1  0
 30 56  1  0
 32 57  1  0
 32 58  1  0
 33 59  1  0
 33 60  1  0
 34 61  1  0
M  END
>  <UniqueID>  (32) 
30

>  <SMILES>  (32) 
Cc1cc(NC(=O)c2ccc(S(=O)(=O)N3CCOCC3)cc2)cc(S(=O)(=O)N2CCOCC2)c1

>  <Energy>  (32) 
89.14669518315414

>  <Genealogy>  (32) 
Cc1cc(NC(=O)c2ccc(S(=O)(=O)N3CCOCC3)cc2)cc(S(=O)(=O)N2CCOCC2)c1 (3D coordinates assigned)
Cc1cc(NC(=O)c2ccc(S(=O)(=O)N3CCOCC3)cc2)cc(S(=O)(=O)N2CCOCC2)c1 (nonaromatic ring conformer: 89.14669518315414 kcal/mol)

>  <smiles>  (32) 
Cc1cc(NC(=O)c2ccc(S(=O)(=O)N3CCOCC3)cc2)cc(S(=O)(=O)N2CCOCC2)c1

>  <score_type>  (32) 
oracle

>  <origin>  (32) 
adgpu

>  <m_score__min__energy>  (32) 
-10.359999999999999

>  <m_primary>  (32) 
energy

$$$$
32:0
     RDKit          3D

 57 60  0  0  0  0  0  0  0  0999 V2000
   -7.4150   19.4840  -31.2370 C   0  0  0  0  0  0  0  0  0  0  0  0
   -7.8480   20.3590  -32.3420 N   0  0  0  0  0  0  0  0  0  0  0  0
   -6.8690   20.4060  -33.4450 C   0  0  0  0  0  0  0  0  0  0  0  0
   -5.5390   21.0460  -33.0220 C   0  0  0  0  0  0  0  0  0  0  0  0
   -5.7320   22.2740  -32.1770 C   0  0  0  0  0  0  0  0  0  0  0  0
   -4.6170   23.0630  -31.8590 C   0  0  0  0  0  0  0  0  0  0  0  0
   -4.7230   24.1160  -30.9370 C   0  0  0  0  0  0  0  0  0  0  0  0
   -3.5540   24.7970  -30.4600 N   0  0  0  0  0  0  0  0  0  0  0  0
   -2.9070   24.5830  -28.8580 S   0  0  0  0  0  0  0  0  0  0  0  0
   -4.0370   24.5680  -27.8650 O   0  0  0  0  0  0  0  0  0  0  0  0
   -1.9880   25.7340  -28.5420 O   0  0  0  0  0  0  0  0  0  0  0  0
   -2.0320   23.0540  -28.7290 C   0  0  0  0  0  0  0  0  0  0  0  0
   -2.6560   21.9440  -28.1440 C   0  0  0  0  0  0  0  0  0  0  0  0
   -2.0330   20.6940  -28.1690 C   0  0  0  0  0  0  0  0  0  0  0  0
   -0.7740   20.5440  -28.7650 C   0  0  0  0  0  0  0  0  0  0  0  0
    0.0050   18.9660  -28.7830 S   0  0  0  0  0  0  0  0  0  0  0  0
   -0.7860   17.9980  -27.9460 O   0  0  0  0  0  0  0  0  0  0  0  0
    1.3930   19.0630  -28.2140 O   0  0  0  0  0  0  0  0  0  0  0  0
    0.0510   18.3870  -30.4140 N   0  0  0  0  0  0  0  0  0  0  0  0
   -0.3440   19.1910  -31.5310 C   0  0  0  0  0  0  0  0  0  0  0  0
   -1.6840   19.6180  -31.6670 C   0  0  0  0  0  0  0  0  0  0  0  0
   -2.0620   20.4050  -32.7550 C   0  0  0  0  0  0  0  0  0  0  0  0
   -1.1150   20.7680  -33.7180 C   0  0  0  0  0  0  0  0  0  0  0  0
    0.2160   20.3500  -33.5920 C   0  0  0  0  0  0  0  0  0  0  0  0
    0.6110   19.5660  -32.4970 C   0  0  0  0  0  0  0  0  0  0  0  0
    2.2850   18.9990  -32.3700 S   0  0  0  0  0  0  0  0  0  0  0  0
    2.8750   19.2980  -30.7680 N   0  0  0  0  0  0  0  0  0  0  0  0
    3.1640   19.7230  -33.3560 O   0  0  0  0  0  0  0  0  0  0  0  0
    2.3290   17.5220  -32.6680 O   0  0  0  0  0  0  0  0  0  0  0  0
   -0.1310   21.6630  -29.3070 C   0  0  0  0  0  0  0  0  0  0  0  0
   -0.7580   22.9110  -29.2940 C   0  0  0  0  0  0  0  0  0  0  0  0
   -5.9860   24.4580  -30.4200 C   0  0  0  0  0  0  0  0  0  0  0  0
   -6.1470   25.5390  -29.5500 O   0  0  0  0  0  0  0  0  0  0  0  0
   -7.1040   23.6860  -30.7500 C   0  0  0  0  0  0  0  0  0  0  0  0
   -6.9770   22.5620  -31.5820 C   0  0  0  0  0  0  0  0  0  0  0  0
   -8.1940   21.7140  -31.8690 C   0  0  0  0  0  0  0  0  0  0  0  0
   -7.6520   19.9630  -30.2756 H   0  0  0  0  0  0  0  0  0  0  0  0
   -7.9399   18.5198  -31.3055 H   0  0  0  0  0  0  0  0  0  0  0  0
   -6.3300   19.3165  -31.3055 H   0  0  0  0  0  0  0  0  0  0  0  0
   -6.6735   19.3791  -33.7875 H   0  0  0  0  0  0  0  0  0  0  0  0
   -7.2979   21.0244  -34.2473 H   0  0  0  0  0  0  0  0  0  0  0  0
   -4.9608   20.3089  -32.4455 H   0  0  0  0  0  0  0  0  0  0  0  0
   -5.0097   21.3507  -33.9369 H   0  0  0  0  0  0  0  0  0  0  0  0
   -3.6487   22.8543  -32.3374 H   0  0  0  0  0  0  0  0  0  0  0  0
   -3.6391   22.0573  -27.6638 H   0  0  0  0  0  0  0  0  0  0  0  0
   -2.5330   19.8238  -27.7188 H   0  0  0  0  0  0  0  0  0  0  0  0
   -2.4310   19.3291  -30.9130 H   0  0  0  0  0  0  0  0  0  0  0  0
   -3.1049   20.7401  -32.8555 H   0  0  0  0  0  0  0  0  0  0  0  0
   -1.4166   21.3842  -34.5778 H   0  0  0  0  0  0  0  0  0  0  0  0
    0.9548   20.6375  -34.3546 H   0  0  0  0  0  0  0  0  0  0  0  0
    2.1150   19.0130  -30.1060 H   0  0  0  0  0  0  0  0  0  0  0  0
    0.8726   21.5590  -29.7451 H   0  0  0  0  0  0  0  0  0  0  0  0
   -0.2499   23.7844  -29.7288 H   0  0  0  0  0  0  0  0  0  0  0  0
   -5.4050   25.8590  -28.9400 H   0  0  0  0  0  0  0  0  0  0  0  0
   -8.0925   23.9618  -30.3541 H   0  0  0  0  0  0  0  0  0  0  0  0
   -8.7852   21.6238  -30.9458 H   0  0  0  0  0  0  0  0  0  0  0  0
   -8.7618   22.2097  -32.6702 H   0  0  0  0  0  0  0  0  0  0  0  0
  1  2  1  0
  2  3  1  0
  3  4  1  0
  4  5  1  0
  5  6  2  0
  6  7  1  0
  7  8  1  0
  8  9  1  0
  9 10  2  0
  9 11  2  0
  9 12  1  0
 12 13  2  0
 13 14  1  0
 14 15  2  0
 15 16  1  0
 16 17  2  0
 16 18  2  0
 16 19  1  0
 19 20  1  0
 20 21  2  0
 21 22  1  0
 22 23  2  0
 23 24  1  0
 24 25  2  0
 25 26  1  0
 26 27  1  0
 26 28  2  0
 26 29  2  0
 15 30  1  0
 30 31  2  0
  7 32  2  0
 32 33  1  0
 32 34  1  0
 34 35  2  0
 35 36  1  0
 36  2  1  0
 35  5  1  0
 31 12  1  0
 25 20  1  0
  1 37  1  0
  1 38  1  0
  1 39  1  0
  3 40  1  0
  3 41  1  0
  4 42  1  0
  4 43  1  0
  6 44  1  0
 13 45  1  0
 14 46  1  0
 21 47  1  0
 22 48  1  0
 23 49  1  0
 24 50  1  0
 27 51  1  0
 30 52  1  0
 31 53  1  0
 33 54  1  0
 34 55  1  0
 36 56  1  0
 36 57  1  0
M  CHG  3   8  -1  19  -1  27  -1
M  END
>  <UniqueID>  (33) 
31

>  <SMILES>  (33) 
CN1CCc2cc([N-]S(=O)(=O)c3ccc(S(=O)(=O)[N-]c4ccccc4S([NH-])(=O)=O)cc3)c(O)cc2C1

>  <Energy>  (33) 
78.2228909102172

>  <Genealogy>  (33) 
CN1CCc2cc([N-]S(=O)(=O)c3ccc(S(=O)(=O)[N-]c4ccccc4S([NH-])(=O)=O)cc3)c(O)cc2C1 (protonated)
CN1CCc2cc([N-]S(=O)(=O)c3ccc(S(=O)(=O)[N-]c4ccccc4S([NH-])(=O)=O)cc3)c(O)cc2C1 (3D coordinates assigned)
CN1CCc2cc([N-]S(=O)(=O)c3ccc(S(=O)(=O)[N-]c4ccccc4S([NH-])(=O)=O)cc3)c(O)cc2C1 (nonaromatic ring conformer: 78.2228909102172 kcal/mol)

>  <smiles>  (33) 
CN1CCc2cc(NS(=O)(=O)c3ccc(S(=O)(=O)Nc4ccccc4S(N)(=O)=O)cc3)c(O)cc2C1

>  <score_type>  (33) 
oracle

>  <origin>  (33) 
adgpu

>  <m_score__min__energy>  (33) 
-13.1

>  <m_primary>  (33) 
energy

$$$$
33:0
     RDKit          3D

 76 80  0  0  0  0  0  0  0  0999 V2000
    3.7850   27.7270  -23.0620 C   0  0  0  0  0  0  0  0  0  0  0  0
    2.6870   27.5020  -24.0140 N   0  0  0  0  0  0  0  0  0  0  0  0
    1.4320   28.1590  -23.5620 C   0  0  0  0  0  0  0  0  0  0  0  0
    0.4180   27.1620  -22.9660 C   0  0  0  0  0  0  0  0  0  0  0  0
    0.0530   26.0770  -23.9250 N   0  0  0  0  0  0  0  0  0  0  0  0
   -1.2010   26.3860  -24.6600 C   0  0  0  0  0  0  0  0  0  0  0  0
   -1.3900   25.4830  -25.8570 C   0  0  0  0  0  0  0  0  0  0  0  0
   -1.6010   26.0390  -27.1290 C   0  0  0  0  0  0  0  0  0  0  0  0
   -1.7030   25.2140  -28.2500 C   0  0  0  0  0  0  0  0  0  0  0  0
   -1.6160   23.8230  -28.1170 C   0  0  0  0  0  0  0  0  0  0  0  0
   -1.5730   22.9730  -29.3230 C   0  0  0  0  0  0  0  0  0  0  0  0
   -0.3760   22.2770  -29.5710 C   0  0  0  0  0  0  0  0  0  0  0  0
   -0.2580   21.4230  -30.6670 C   0  0  0  0  0  0  0  0  0  0  0  0
   -1.3360   21.2560  -31.5340 C   0  0  0  0  0  0  0  0  0  0  0  0
   -2.5280   21.9460  -31.3100 C   0  0  0  0  0  0  0  0  0  0  0  0
   -2.6670   22.8210  -30.2180 C   0  0  0  0  0  0  0  0  0  0  0  0
   -4.2250   23.6680  -30.0520 S   0  0  0  0  0  0  0  0  0  0  0  0
   -4.3730   24.0710  -28.6120 O   0  0  0  0  0  0  0  0  0  0  0  0
   -4.2540   24.9250  -30.8690 O   0  0  0  0  0  0  0  0  0  0  0  0
   -5.6040   22.6770  -30.4660 N   0  0  0  0  0  0  0  0  0  0  0  0
   -6.6600   22.7200  -29.4600 C   0  0  0  0  0  0  0  0  0  0  0  0
   -7.9620   22.3700  -30.1750 C   0  0  0  0  0  0  0  0  0  0  0  0
   -7.6460   22.4560  -31.6900 C   0  0  2  0  0  0  0  0  0  0  0  0
   -8.6670   23.4220  -32.3500 C   0  0  0  0  0  0  0  0  0  0  0  0
   -7.6930   21.0850  -32.3200 N   0  0  0  0  0  0  0  0  0  0  0  0
   -8.4980   20.0990  -31.5460 C   0  0  0  0  0  0  0  0  0  0  0  0
   -8.7050   18.8110  -32.3470 C   0  0  0  0  0  0  0  0  0  0  0  0
   -7.3530   18.1920  -32.6970 C   0  0  0  0  0  0  0  0  0  0  0  0
   -6.4860   19.2090  -33.4330 C   0  0  0  0  0  0  0  0  0  0  0  0
   -6.3550   20.5070  -32.6230 C   0  0  0  0  0  0  0  0  0  0  0  0
   -6.2360   23.0800  -31.7160 C   0  0  0  0  0  0  0  0  0  0  0  0
   -1.3900   23.2640  -26.8490 C   0  0  0  0  0  0  0  0  0  0  0  0
   -1.3020   24.0870  -25.7250 C   0  0  0  0  0  0  0  0  0  0  0  0
    1.1450   25.7700  -24.8870 C   0  0  0  0  0  0  0  0  0  0  0  0
    2.5260   26.0570  -24.2830 C   0  0  0  0  0  0  0  0  0  0  0  0
    3.4011   27.6483  -22.0342 H   0  0  0  0  0  0  0  0  0  0  0  0
    4.5679   26.9706  -23.2198 H   0  0  0  0  0  0  0  0  0  0  0  0
    4.2073   28.7304  -23.2198 H   0  0  0  0  0  0  0  0  0  0  0  0
    1.6829   28.9063  -22.7948 H   0  0  0  0  0  0  0  0  0  0  0  0
    0.9636   28.6213  -24.4434 H   0  0  0  0  0  0  0  0  0  0  0  0
    0.8585   26.7054  -22.0674 H   0  0  0  0  0  0  0  0  0  0  0  0
   -0.4993   27.7201  -22.7272 H   0  0  0  0  0  0  0  0  0  0  0  0
   -0.1060   25.2060  -23.3630 H   0  0  0  0  0  0  0  0  0  0  0  0
   -2.0542   26.2557  -23.9780 H   0  0  0  0  0  0  0  0  0  0  0  0
   -1.1372   27.4228  -25.0219 H   0  0  0  0  0  0  0  0  0  0  0  0
   -1.6863   27.1298  -27.2424 H   0  0  0  0  0  0  0  0  0  0  0  0
   -1.8527   25.6595  -29.2445 H   0  0  0  0  0  0  0  0  0  0  0  0
    0.4787   22.4082  -28.8910 H   0  0  0  0  0  0  0  0  0  0  0  0
    0.6832   20.8828  -30.8466 H   0  0  0  0  0  0  0  0  0  0  0  0
   -1.2472   20.5791  -32.3965 H   0  0  0  0  0  0  0  0  0  0  0  0
   -3.3732   21.8030  -31.9993 H   0  0  0  0  0  0  0  0  0  0  0  0
   -6.4558   21.9881  -28.6646 H   0  0  0  0  0  0  0  0  0  0  0  0
   -6.7204   23.7138  -28.9923 H   0  0  0  0  0  0  0  0  0  0  0  0
   -8.2846   21.3529  -29.9078 H   0  0  0  0  0  0  0  0  0  0  0  0
   -8.7767   23.0525  -29.8912 H   0  0  0  0  0  0  0  0  0  0  0  0
   -9.2283   23.9531  -31.5671 H   0  0  0  0  0  0  0  0  0  0  0  0
   -8.1307   24.1510  -32.9752 H   0  0  0  0  0  0  0  0  0  0  0  0
   -9.3653   22.8462  -32.9752 H   0  0  0  0  0  0  0  0  0  0  0  0
   -7.9714   19.8601  -30.6102 H   0  0  0  0  0  0  0  0  0  0  0  0
   -9.4824   20.5409  -31.3320 H   0  0  0  0  0  0  0  0  0  0  0  0
   -9.2879   18.0976  -31.7459 H   0  0  0  0  0  0  0  0  0  0  0  0
   -9.2465   19.0455  -33.2753 H   0  0  0  0  0  0  0  0  0  0  0  0
   -6.8445   17.8818  -31.7722 H   0  0  0  0  0  0  0  0  0  0  0  0
   -7.5139   17.3188  -33.3464 H   0  0  0  0  0  0  0  0  0  0  0  0
   -5.4851   18.7810  -33.5915 H   0  0  0  0  0  0  0  0  0  0  0  0
   -6.9613   19.4432  -34.3970 H   0  0  0  0  0  0  0  0  0  0  0  0
   -5.8346   20.2904  -31.6784 H   0  0  0  0  0  0  0  0  0  0  0  0
   -5.7857   21.2356  -33.2188 H   0  0  0  0  0  0  0  0  0  0  0  0
   -5.6640   22.6997  -32.5752 H   0  0  0  0  0  0  0  0  0  0  0  0
   -6.2779   24.1747  -31.8156 H   0  0  0  0  0  0  0  0  0  0  0  0
   -1.2820   22.1746  -26.7411 H   0  0  0  0  0  0  0  0  0  0  0  0
   -1.1629   23.6398  -24.7297 H   0  0  0  0  0  0  0  0  0  0  0  0
    1.0897   24.7065  -25.1625 H   0  0  0  0  0  0  0  0  0  0  0  0
    1.0157   26.4116  -25.7711 H   0  0  0  0  0  0  0  0  0  0  0  0
    2.6310   25.5000  -23.3403 H   0  0  0  0  0  0  0  0  0  0  0  0
    3.2987   25.7417  -24.9997 H   0  0  0  0  0  0  0  0  0  0  0  0
  1  2  1  0
  2  3  1  0
  3  4  1  0
  4  5  1  0
  5  6  1  0
  6  7  1  0
  7  8  2  0
  8  9  1  0
  9 10  2  0
 10 11  1  0
 11 12  2  0
 12 13  1  0
 13 14  2  0
 14 15  1  0
 15 16  2  0
 16 17  1  0
 17 18  2  0
 17 19  2  0
 17 20  1  0
 20 21  1  0
 21 22  1  0
 22 23  1  0
 23 24  1  6
 23 25  1  0
 25 26  1  0
 26 27  1  0
 27 28  1  0
 28 29  1  0
 29 30  1  0
 23 31  1  0
 10 32  1  0
 32 33  2  0
  5 34  1  0
 34 35  1  0
 35  2  1  0
 33  7  1  0
 16 11  1  0
 31 20  1  0
 30 25  1  0
  1 36  1  0
  1 37  1  0
  1 38  1  0
  3 39  1  0
  3 40  1  0
  4 41  1  0
  4 42  1  0
  5 43  1  0
  6 44  1  0
  6 45  1  0
  8 46  1  0
  9 47  1  0
 12 48  1  0
 13 49  1  0
 14 50  1  0
 15 51  1  0
 21 52  1  0
 21 53  1  0
 22 54  1  0
 22 55  1  0
 24 56  1  0
 24 57  1  0
 24 58  1  0
 26 59  1  0
 26 60  1  0
 27 61  1  0
 27 62  1  0
 28 63  1  0
 28 64  1  0
 29 65  1  0
 29 66  1  0
 30 67  1  0
 30 68  1  0
 31 69  1  0
 31 70  1  0
 32 71  1  0
 33 72  1  0
 34 73  1  0
 34 74  1  0
 35 75  1  0
 35 76  1  0
M  CHG  1   5   1
M  END
>  <UniqueID>  (34) 
32

>  <SMILES>  (34) 
CN1CC[NH+](Cc2ccc(-c3ccccc3S(=O)(=O)N3CC[C@](C)(N4CCCCC4)C3)cc2)CC1

>  <Energy>  (34) 
113.29912895650757

>  <Genealogy>  (34) 
CN1CC[NH+](Cc2ccc(-c3ccccc3S(=O)(=O)N3CCC(C)(N4CCCCC4)C3)cc2)CC1 (protonated)
CN1CC[NH+](Cc2ccc(-c3ccccc3S(=O)(=O)N3CC[C@](C)(N4CCCCC4)C3)cc2)CC1 (chirality)
CN1CC[NH+](Cc2ccc(-c3ccccc3S(=O)(=O)N3CC[C@](C)(N4CCCCC4)C3)cc2)CC1 (3D coordinates assigned)
CN1CC[NH+](Cc2ccc(-c3ccccc3S(=O)(=O)N3CC[C@](C)(N4CCCCC4)C3)cc2)CC1 (nonaromatic ring conformer: 113.29912895650757 kcal/mol)

>  <smiles>  (34) 
CN1CCN(Cc2ccc(-c3ccccc3S(=O)(=O)N3CCC(C)(N4CCCCC4)C3)cc2)CC1

>  <score_type>  (34) 
oracle

>  <origin>  (34) 
adgpu

>  <m_score__min__energy>  (34) 
-11.539999999999999

>  <m_primary>  (34) 
energy

$$$$
34:0
     RDKit          3D

 46 48  0  0  0  0  0  0  0  0999 V2000
   -0.4970   27.6900  -27.1880 C   0  0  0  0  0  0  0  0  0  0  0  0
   -0.4230   26.2860  -27.5890 N   0  0  0  0  0  0  0  0  0  0  0  0
   -1.4050   25.7810  -28.3420 N   0  0  0  0  0  0  0  0  0  0  0  0
   -1.4130   24.4860  -28.7600 C   0  0  0  0  0  0  0  0  0  0  0  0
   -2.5310   23.9850  -29.5880 C   0  0  0  0  0  0  0  0  0  0  0  0
   -2.3200   23.0830  -30.4440 O   0  0  0  0  0  0  0  0  0  0  0  0
   -3.8470   24.5480  -29.4460 N   0  0  0  0  0  0  0  0  0  0  0  0
   -5.0380   23.9500  -29.9870 C   0  0  0  0  0  0  0  0  0  0  0  0
   -5.7310   22.9400  -29.2960 C   0  0  0  0  0  0  0  0  0  0  0  0
   -6.9010   22.3940  -29.8320 C   0  0  0  0  0  0  0  0  0  0  0  0
   -7.4050   22.8600  -31.0540 C   0  0  0  0  0  0  0  0  0  0  0  0
   -8.8970   22.1880  -31.7170 S   0  0  0  0  0  0  0  0  0  0  0  0
   -9.8610   21.9230  -30.5940 O   0  0  0  0  0  0  0  0  0  0  0  0
   -9.5250   23.1940  -32.6410 O   0  0  0  0  0  0  0  0  0  0  0  0
   -8.6000   20.7050  -32.5940 N   0  0  0  0  0  0  0  0  0  0  0  0
   -7.2040   20.6340  -33.0940 C   0  0  0  0  0  0  0  0  0  0  0  0
   -6.3150   19.6990  -32.2620 C   0  0  0  0  0  0  0  0  0  0  0  0
   -6.8840   18.2700  -32.2360 C   0  0  0  0  0  0  0  0  0  0  0  0
   -8.4200   18.2380  -32.3260 C   0  0  0  0  0  0  0  0  0  0  0  0
   -9.0300   19.5380  -31.7920 C   0  0  0  0  0  0  0  0  0  0  0  0
   -6.7230   23.8750  -31.7380 C   0  0  0  0  0  0  0  0  0  0  0  0
   -5.5540   24.4230  -31.2030 C   0  0  0  0  0  0  0  0  0  0  0  0
   -0.3550   23.6500  -28.3830 C   0  0  0  0  0  0  0  0  0  0  0  0
    0.6730   24.1650  -27.5990 C   0  0  0  0  0  0  0  0  0  0  0  0
    0.6280   25.5020  -27.2030 C   0  0  0  0  0  0  0  0  0  0  0  0
    1.5580   25.9710  -26.4910 O   0  0  0  0  0  0  0  0  0  0  0  0
   -0.5006   27.7581  -26.0901 H   0  0  0  0  0  0  0  0  0  0  0  0
    0.3739   28.2314  -27.5861 H   0  0  0  0  0  0  0  0  0  0  0  0
   -1.4199   28.1369  -27.5861 H   0  0  0  0  0  0  0  0  0  0  0  0
   -3.9360   25.4890  -29.0010 H   0  0  0  0  0  0  0  0  0  0  0  0
   -5.3507   22.5780  -28.3294 H   0  0  0  0  0  0  0  0  0  0  0  0
   -7.4289   21.5943  -29.2918 H   0  0  0  0  0  0  0  0  0  0  0  0
   -7.2216   20.2693  -34.1316 H   0  0  0  0  0  0  0  0  0  0  0  0
   -6.7768   21.6450  -33.0209 H   0  0  0  0  0  0  0  0  0  0  0  0
   -5.3071   19.6762  -32.7020 H   0  0  0  0  0  0  0  0  0  0  0  0
   -6.2785   20.0788  -31.2303 H   0  0  0  0  0  0  0  0  0  0  0  0
   -6.4703   17.7114  -33.0885 H   0  0  0  0  0  0  0  0  0  0  0  0
   -6.5991   17.8175  -31.2747 H   0  0  0  0  0  0  0  0  0  0  0  0
   -8.7158   18.1075  -33.3774 H   0  0  0  0  0  0  0  0  0  0  0  0
   -8.7889   17.4014  -31.7144 H   0  0  0  0  0  0  0  0  0  0  0  0
  -10.1266   19.4613  -31.8310 H   0  0  0  0  0  0  0  0  0  0  0  0
   -8.6856   19.6829  -30.7574 H   0  0  0  0  0  0  0  0  0  0  0  0
   -7.1094   24.2421  -32.7003 H   0  0  0  0  0  0  0  0  0  0  0  0
   -5.0347   25.2310  -31.7391 H   0  0  0  0  0  0  0  0  0  0  0  0
   -0.3366   22.5977  -28.7030 H   0  0  0  0  0  0  0  0  0  0  0  0
    1.5133   23.5238  -27.2943 H   0  0  0  0  0  0  0  0  0  0  0  0
  1  2  1  0
  2  3  1  0
  3  4  2  0
  4  5  1  0
  5  6  2  0
  5  7  1  0
  7  8  1  0
  8  9  2  0
  9 10  1  0
 10 11  2  0
 11 12  1  0
 12 13  2  0
 12 14  2  0
 12 15  1  0
 15 16  1  0
 16 17  1  0
 17 18  1  0
 18 19  1  0
 19 20  1  0
 11 21  1  0
 21 22  2  0
  4 23  1  0
 23 24  2  0
 24 25  1  0
 25 26  2  0
 25  2  1  0
 22  8  1  0
 20 15  1  0
  1 27  1  0
  1 28  1  0
  1 29  1  0
  7 30  1  0
  9 31  1  0
 10 32  1  0
 16 33  1  0
 16 34  1  0
 17 35  1  0
 17 36  1  0
 18 37  1  0
 18 38  1  0
 19 39  1  0
 19 40  1  0
 20 41  1  0
 20 42  1  0
 21 43  1  0
 22 44  1  0
 23 45  1  0
 24 46  1  0
M  END
>  <UniqueID>  (35) 
33

>  <SMILES>  (35) 
Cn1nc(C(=O)Nc2ccc(S(=O)(=O)N3CCCCC3)cc2)ccc1=O

>  <Energy>  (35) 
56.30237060700316

>  <Genealogy>  (35) 
Cn1nc(C(=O)Nc2ccc(S(=O)(=O)N3CCCCC3)cc2)ccc1=O (3D coordinates assigned)
Cn1nc(C(=O)Nc2ccc(S(=O)(=O)N3CCCCC3)cc2)ccc1=O (nonaromatic ring conformer: 56.30237060700316 kcal/mol)

>  <smiles>  (35) 
Cn1nc(C(=O)Nc2ccc(S(=O)(=O)N3CCCCC3)cc2)ccc1=O

>  <score_type>  (35) 
oracle

>  <origin>  (35) 
adgpu

>  <m_score__min__energy>  (35) 
-8.8300000000000001

>  <m_primary>  (35) 
energy

$$$$
35:0
     RDKit          3D

 50 52  0  0  0  0  0  0  0  0999 V2000
   -0.7810   17.5500  -34.8480 C   0  0  0  0  0  0  0  0  0  0  0  0
   -2.0960   17.0360  -35.0290 O   0  0  0  0  0  0  0  0  0  0  0  0
   -3.2420   17.5220  -34.3760 C   0  0  0  0  0  0  0  0  0  0  0  0
   -3.2400   18.7500  -33.6890 C   0  0  0  0  0  0  0  0  0  0  0  0
   -4.4010   19.2200  -33.0510 C   0  0  0  0  0  0  0  0  0  0  0  0
   -4.3930   20.5250  -32.3410 C   0  0  0  0  0  0  0  0  0  0  0  0
   -3.2700   21.3680  -32.4060 C   0  0  0  0  0  0  0  0  0  0  0  0
   -3.2690   22.6010  -31.7480 C   0  0  0  0  0  0  0  0  0  0  0  0
   -4.3890   23.0110  -31.0100 C   0  0  0  0  0  0  0  0  0  0  0  0
   -4.3960   24.5740  -30.1950 S   0  0  0  0  0  0  0  0  0  0  0  0
   -5.3790   24.5330  -29.0600 O   0  0  0  0  0  0  0  0  0  0  0  0
   -4.7910   25.6250  -31.1940 O   0  0  0  0  0  0  0  0  0  0  0  0
   -2.8130   24.9160  -29.5800 N   0  0  0  0  0  0  0  0  0  0  0  0
   -2.1500   24.2240  -28.5130 C   0  0  0  0  0  0  0  0  0  0  0  0
   -2.2750   24.3750  -27.1350 C   0  0  0  0  0  0  0  0  0  0  0  0
   -3.2100   25.2610  -26.3790 C   0  0  0  0  0  0  0  0  0  0  0  0
   -1.4630   23.4870  -26.5240 N   0  0  0  0  0  0  0  0  0  0  0  0
   -0.8340   22.7950  -27.4610 N   0  0  0  0  0  0  0  0  0  0  0  0
    0.1130   21.7250  -27.1710 C   0  0  0  0  0  0  0  0  0  0  0  0
   -1.2510   23.1930  -28.6810 C   0  0  0  0  0  0  0  0  0  0  0  0
   -0.7370   22.6640  -29.9860 C   0  0  0  0  0  0  0  0  0  0  0  0
   -5.5150   22.1760  -30.9450 C   0  0  0  0  0  0  0  0  0  0  0  0
   -6.6200   22.5610  -30.2580 F   0  0  0  0  0  0  0  0  0  0  0  0
   -5.5160   20.9430  -31.6030 C   0  0  0  0  0  0  0  0  0  0  0  0
   -5.5700   18.4450  -33.1040 C   0  0  0  0  0  0  0  0  0  0  0  0
   -5.5870   17.2190  -33.7830 C   0  0  0  0  0  0  0  0  0  0  0  0
   -6.8460   16.3970  -33.8240 C   0  0  0  0  0  0  0  0  0  0  0  0
   -4.4220   16.7560  -34.4190 C   0  0  0  0  0  0  0  0  0  0  0  0
   -4.4480   15.5320  -35.0910 O   0  0  0  0  0  0  0  0  0  0  0  0
   -0.5651   17.6344  -33.7727 H   0  0  0  0  0  0  0  0  0  0  0  0
   -0.0539   16.8699  -35.3157 H   0  0  0  0  0  0  0  0  0  0  0  0
   -0.7078   18.5429  -35.3157 H   0  0  0  0  0  0  0  0  0  0  0  0
   -2.3186   19.3496  -33.6507 H   0  0  0  0  0  0  0  0  0  0  0  0
   -2.3850   21.0547  -32.9793 H   0  0  0  0  0  0  0  0  0  0  0  0
   -2.3853   23.2532  -31.8092 H   0  0  0  0  0  0  0  0  0  0  0  0
   -3.0585   25.1174  -25.2990 H   0  0  0  0  0  0  0  0  0  0  0  0
   -3.0123   26.3110  -26.6406 H   0  0  0  0  0  0  0  0  0  0  0  0
   -4.2478   25.0071  -26.6406 H   0  0  0  0  0  0  0  0  0  0  0  0
    0.2144   21.6104  -26.0817 H   0  0  0  0  0  0  0  0  0  0  0  0
   -0.2531   20.7834  -27.6063 H   0  0  0  0  0  0  0  0  0  0  0  0
    1.0921   21.9739  -27.6063 H   0  0  0  0  0  0  0  0  0  0  0  0
    0.0179   21.8871  -29.7949 H   0  0  0  0  0  0  0  0  0  0  0  0
   -1.5700   22.2325  -30.5604 H   0  0  0  0  0  0  0  0  0  0  0  0
   -0.2817   23.4843  -30.5604 H   0  0  0  0  0  0  0  0  0  0  0  0
   -6.4020   20.2938  -31.5435 H   0  0  0  0  0  0  0  0  0  0  0  0
   -6.4833   18.8039  -32.6069 H   0  0  0  0  0  0  0  0  0  0  0  0
   -7.1766   16.1812  -32.7973 H   0  0  0  0  0  0  0  0  0  0  0  0
   -7.6321   16.9564  -34.3523 H   0  0  0  0  0  0  0  0  0  0  0  0
   -6.6501   15.4523  -34.3523 H   0  0  0  0  0  0  0  0  0  0  0  0
   -3.6430   15.1680  -35.5880 H   0  0  0  0  0  0  0  0  0  0  0  0
  1  2  1  0
  2  3  1  0
  3  4  2  0
  4  5  1  0
  5  6  1  0
  6  7  2  0
  7  8  1  0
  8  9  2  0
  9 10  1  0
 10 11  2  0
 10 12  2  0
 10 13  1  0
 13 14  1  0
 14 15  1  0
 15 16  1  0
 15 17  2  0
 17 18  1  0
 18 19  1  0
 18 20  1  0
 20 21  1  0
  9 22  1  0
 22 23  1  0
 22 24  2  0
  5 25  2  0
 25 26  1  0
 26 27  1  0
 26 28  2  0
 28 29  1  0
 28  3  1  0
 24  6  1  0
 20 14  2  0
  1 30  1  0
  1 31  1  0
  1 32  1  0
  4 33  1  0
  7 34  1  0
  8 35  1  0
 16 36  1  0
 16 37  1  0
 16 38  1  0
 19 39  1  0
 19 40  1  0
 19 41  1  0
 21 42  1  0
 21 43  1  0
 21 44  1  0
 24 45  1  0
 25 46  1  0
 27 47  1  0
 27 48  1  0
 27 49  1  0
 29 50  1  0
M  CHG  1  13  -1
M  END
>  <UniqueID>  (36) 
34

>  <SMILES>  (36) 
COc1cc(-c2ccc(S(=O)(=O)[N-]c3c(C)nn(C)c3C)c(F)c2)cc(C)c1O

>  <Energy>  (36) 
92.86119516588359

>  <Genealogy>  (36) 
COc1cc(-c2ccc(S(=O)(=O)[N-]c3c(C)nn(C)c3C)c(F)c2)cc(C)c1O (protonated)
COc1cc(-c2ccc(S(=O)(=O)[N-]c3c(C)nn(C)c3C)c(F)c2)cc(C)c1O (3D coordinates assigned)
COc1cc(-c2ccc(S(=O)(=O)[N-]c3c(C)nn(C)c3C)c(F)c2)cc(C)c1O (optimized conformer: 92.86119516588359 kcal/mol)

>  <smiles>  (36) 
COc1cc(-c2ccc(S(=O)(=O)Nc3c(C)nn(C)c3C)c(F)c2)cc(C)c1O

>  <score_type>  (36) 
oracle

>  <origin>  (36) 
adgpu

>  <m_score__min__energy>  (36) 
-8.9000000000000004

>  <m_primary>  (36) 
energy

$$$$
36:0
     RDKit          3D

 71 74  0  0  0  0  0  0  0  0999 V2000
   -7.8870   21.9220  -31.7330 C   0  0  0  0  0  0  0  0  0  0  0  0
   -7.0980   20.8070  -31.3300 O   0  0  0  0  0  0  0  0  0  0  0  0
   -5.9850   20.3180  -32.0340 C   0  0  0  0  0  0  0  0  0  0  0  0
   -6.1320   19.4600  -33.1410 C   0  0  0  0  0  0  0  0  0  0  0  0
   -5.0150   18.9770  -33.8300 C   0  0  0  0  0  0  0  0  0  0  0  0
   -5.2940   17.9390  -35.2260 Cl  0  0  0  0  0  0  0  0  0  0  0  0
   -3.7190   19.3200  -33.3970 C   0  0  0  0  0  0  0  0  0  0  0  0
   -2.4760   18.8840  -34.1390 C   0  0  0  0  0  0  0  0  0  0  0  0
   -1.5710   18.1150  -33.2120 C   0  0  0  0  0  0  0  0  0  0  0  0
   -1.0200   16.8920  -33.6130 C   0  0  0  0  0  0  0  0  0  0  0  0
   -0.1150   16.2220  -32.7880 C   0  0  0  0  0  0  0  0  0  0  0  0
    0.2660   16.7710  -31.5480 C   0  0  0  0  0  0  0  0  0  0  0  0
    1.1780   16.1180  -30.7030 O   0  0  0  0  0  0  0  0  0  0  0  0
    1.1920   14.7160  -30.4540 C   0  0  0  0  0  0  0  0  0  0  0  0
   -0.2830   18.0050  -31.1440 C   0  0  0  0  0  0  0  0  0  0  0  0
    0.1630   18.7520  -29.6010 S   0  0  0  0  0  0  0  0  0  0  0  0
   -0.8730   18.3990  -28.5700 O   0  0  0  0  0  0  0  0  0  0  0  0
    0.1720   20.2490  -29.7460 O   0  0  0  0  0  0  0  0  0  0  0  0
    1.7300   18.2100  -29.0520 N   0  0  0  0  0  0  0  0  0  0  0  0
    1.6150   17.5210  -27.7540 C   0  0  0  0  0  0  0  0  0  0  0  0
    3.0080   17.1200  -27.2480 C   0  0  0  0  0  0  0  0  0  0  0  0
    3.8410   18.2570  -27.1250 O   0  0  0  0  0  0  0  0  0  0  0  0
    4.0110   18.8690  -28.3910 C   0  0  0  0  0  0  0  0  0  0  0  0
    2.6630   19.3450  -28.9510 C   0  0  0  0  0  0  0  0  0  0  0  0
   -1.1990   18.6640  -31.9770 C   0  0  0  0  0  0  0  0  0  0  0  0
   -3.5730   20.1650  -32.2860 C   0  0  0  0  0  0  0  0  0  0  0  0
   -4.6900   20.6960  -31.6210 C   0  0  0  0  0  0  0  0  0  0  0  0
   -4.4840   21.6290  -30.4440 C   0  0  2  0  0  0  0  0  0  0  0  0
   -4.8290   22.9530  -30.8220 O   0  0  0  0  0  0  0  0  0  0  0  0
   -4.9670   23.7990  -29.6860 C   0  0  2  0  0  0  0  0  0  0  0  0
   -5.0960   25.2420  -30.2010 C   0  0  0  0  0  0  0  0  0  0  0  0
   -3.8830   25.6750  -30.7530 O   0  0  0  0  0  0  0  0  0  0  0  0
   -3.8040   23.5990  -28.6530 C   0  0  2  0  0  0  0  0  0  0  0  0
   -3.4510   24.7780  -27.9670 O   0  0  0  0  0  0  0  0  0  0  0  0
   -2.5840   22.9200  -29.3120 C   0  0  2  0  0  0  0  0  0  0  0  0
   -2.0420   23.7710  -30.2910 O   0  0  0  0  0  0  0  0  0  0  0  0
   -3.0110   21.5760  -29.9610 C   0  0  1  0  0  0  0  0  0  0  0  0
   -2.8740   20.5260  -29.0370 O   0  0  0  0  0  0  0  0  0  0  0  0
   -8.2597   22.4486  -30.8421 H   0  0  0  0  0  0  0  0  0  0  0  0
   -7.2722   22.6081  -32.3341 H   0  0  0  0  0  0  0  0  0  0  0  0
   -8.7385   21.5705  -32.3341 H   0  0  0  0  0  0  0  0  0  0  0  0
   -7.1400   19.1655  -33.4685 H   0  0  0  0  0  0  0  0  0  0  0  0
   -2.7622   18.2422  -34.9853 H   0  0  0  0  0  0  0  0  0  0  0  0
   -1.9446   19.7726  -34.5105 H   0  0  0  0  0  0  0  0  0  0  0  0
   -1.3017   16.4568  -34.5832 H   0  0  0  0  0  0  0  0  0  0  0  0
    0.3042   15.2570  -33.1090 H   0  0  0  0  0  0  0  0  0  0  0  0
    1.1938   14.5363  -29.3688 H   0  0  0  0  0  0  0  0  0  0  0  0
    0.2984   14.2554  -30.9004 H   0  0  0  0  0  0  0  0  0  0  0  0
    2.0946   14.2733  -30.9004 H   0  0  0  0  0  0  0  0  0  0  0  0
    2.0910   17.5340  -29.7670 H   0  0  0  0  0  0  0  0  0  0  0  0
    1.1423   18.1949  -27.0243 H   0  0  0  0  0  0  0  0  0  0  0  0
    1.0014   16.6165  -27.8781 H   0  0  0  0  0  0  0  0  0  0  0  0
    2.9098   16.6361  -26.2650 H   0  0  0  0  0  0  0  0  0  0  0  0
    3.4610   16.4258  -27.9711 H   0  0  0  0  0  0  0  0  0  0  0  0
    4.6837   19.7331  -28.2866 H   0  0  0  0  0  0  0  0  0  0  0  0
    4.4407   18.1314  -29.0847 H   0  0  0  0  0  0  0  0  0  0  0  0
    2.2386   20.1067  -28.2805 H   0  0  0  0  0  0  0  0  0  0  0  0
    2.8192   19.7740  -29.9518 H   0  0  0  0  0  0  0  0  0  0  0  0
   -1.6309   19.6238  -31.6571 H   0  0  0  0  0  0  0  0  0  0  0  0
   -2.5634   20.4164  -31.9290 H   0  0  0  0  0  0  0  0  0  0  0  0
   -5.1313   21.3079  -29.6146 H   0  0  0  0  0  0  0  0  0  0  0  0
   -5.8719   23.5394  -29.1170 H   0  0  0  0  0  0  0  0  0  0  0  0
   -5.8798   25.2829  -30.9717 H   0  0  0  0  0  0  0  0  0  0  0  0
   -5.3588   25.8988  -29.3587 H   0  0  0  0  0  0  0  0  0  0  0  0
   -3.5050   24.8950  -31.2350 H   0  0  0  0  0  0  0  0  0  0  0  0
   -4.1910   22.9204  -27.8786 H   0  0  0  0  0  0  0  0  0  0  0  0
   -3.5640   25.5460  -28.5840 H   0  0  0  0  0  0  0  0  0  0  0  0
   -1.8237   22.7194  -28.5428 H   0  0  0  0  0  0  0  0  0  0  0  0
   -2.1370   24.6990  -29.9540 H   0  0  0  0  0  0  0  0  0  0  0  0
   -2.3563   21.4027  -30.8278 H   0  0  0  0  0  0  0  0  0  0  0  0
   -1.9300   20.2200  -29.0860 H   0  0  0  0  0  0  0  0  0  0  0  0
  1  2  1  0
  2  3  1  0
  3  4  2  0
  4  5  1  0
  5  6  1  0
  5  7  2  0
  7  8  1  0
  8  9  1  0
  9 10  2  0
 10 11  1  0
 11 12  2  0
 12 13  1  0
 13 14  1  0
 12 15  1  0
 15 16  1  0
 16 17  2  0
 16 18  2  0
 16 19  1  0
 19 20  1  0
 20 21  1  0
 21 22  1  0
 22 23  1  0
 23 24  1  0
 15 25  2  0
  7 26  1  0
 26 27  2  0
 27 28  1  0
 28 29  1  0
 29 30  1  0
 30 31  1  0
 31 32  1  0
 30 33  1  0
 33 34  1  0
 33 35  1  0
 35 36  1  0
 35 37  1  0
 37 38  1  0
 27  3  1  0
 37 28  1  0
 25  9  1  0
 24 19  1  0
  1 39  1  0
  1 40  1  0
  1 41  1  0
  4 42  1  0
  8 43  1  0
  8 44  1  0
 10 45  1  0
 11 46  1  0
 14 47  1  0
 14 48  1  0
 14 49  1  0
 19 50  1  0
 20 51  1  0
 20 52  1  0
 21 53  1  0
 21 54  1  0
 23 55  1  0
 23 56  1  0
 24 57  1  0
 24 58  1  0
 25 59  1  0
 26 60  1  0
 28 61  1  1
 30 62  1  1
 31 63  1  0
 31 64  1  0
 32 65  1  0
 33 66  1  1
 34 67  1  0
 35 68  1  1
 36 69  1  0
 37 70  1  6
 38 71  1  0
M  CHG  1  19   1
M  END
>  <UniqueID>  (37) 
35

>  <SMILES>  (37) 
COc1cc(Cl)c(Cc2ccc(OC)c(S(=O)(=O)[NH+]3CCOCC3)c2)cc1[C@@H]1O[C@H](CO)C(O)C(O)C1O

>  <Energy>  (37) 
84.28358937388722

>  <Genealogy>  (37) 
COc1cc(Cl)c(Cc2ccc(OC)c(S(=O)(=O)[NH+]3CCOCC3)c2)cc1C1OC(CO)C(O)C(O)C1O (protonated)
COc1cc(Cl)c(Cc2ccc(OC)c(S(=O)(=O)[NH+]3CCOCC3)c2)cc1[C@@H]1O[C@H](CO)C(O)C(O)C1O (chirality)
COc1cc(Cl)c(Cc2ccc(OC)c(S(=O)(=O)[NH+]3CCOCC3)c2)cc1[C@@H]1O[C@H](CO)C(O)C(O)C1O (3D coordinates assigned)
COc1cc(Cl)c(Cc2ccc(OC)c(S(=O)(=O)[NH+]3CCOCC3)c2)cc1[C@@H]1O[C@H](CO)C(O)C(O)C1O (nonaromatic ring conformer: 84.28358937388722 kcal/mol)

>  <smiles>  (37) 
COc1cc(Cl)c(Cc2ccc(OC)c(S(=O)(=O)N3CCOCC3)c2)cc1C1OC(CO)C(O)C(O)C1O

>  <score_type>  (37) 
oracle

>  <origin>  (37) 
adgpu

>  <m_score__min__energy>  (37) 
-8.1099999999999994

>  <m_primary>  (37) 
energy

$$$$
37:0
     RDKit          3D

 55 58  0  0  0  0  0  0  0  0999 V2000
   -1.5490   22.4300  -30.7040 O   0  0  0  0  0  0  0  0  0  0  0  0
   -2.4810   22.4000  -29.8540 C   0  0  0  0  0  0  0  0  0  0  0  0
   -2.2820   21.7300  -28.5980 N   0  0  0  0  0  0  0  0  0  0  0  0
   -1.2980   20.7050  -28.3860 C   0  0  0  0  0  0  0  0  0  0  0  0
    0.0150   20.9060  -28.8410 C   0  0  0  0  0  0  0  0  0  0  0  0
    0.9960   19.9320  -28.6300 C   0  0  0  0  0  0  0  0  0  0  0  0
    0.6780   18.7480  -27.9510 C   0  0  0  0  0  0  0  0  0  0  0  0
    1.9050   17.5120  -27.6930 S   0  0  0  0  0  0  0  0  0  0  0  0
    2.9880   18.0180  -26.7800 O   0  0  0  0  0  0  0  0  0  0  0  0
    1.2580   16.3120  -27.0620 O   0  0  0  0  0  0  0  0  0  0  0  0
    2.6120   17.0420  -29.2100 N   0  0  0  0  0  0  0  0  0  0  0  0
    1.9750   16.7720  -30.3120 C   0  0  0  0  0  0  0  0  0  0  0  0
    0.5690   16.8370  -30.4130 C   0  0  0  0  0  0  0  0  0  0  0  0
   -0.0470   16.5270  -31.6270 C   0  0  0  0  0  0  0  0  0  0  0  0
    0.7280   16.1590  -32.7270 C   0  0  0  0  0  0  0  0  0  0  0  0
    2.1150   16.1050  -32.5960 C   0  0  0  0  0  0  0  0  0  0  0  0
    2.6990   16.4100  -31.4060 N   0  0  0  0  0  0  0  0  0  0  0  0
   -0.6220   18.5540  -27.4710 C   0  0  0  0  0  0  0  0  0  0  0  0
   -1.6050   19.5260  -27.6820 C   0  0  0  0  0  0  0  0  0  0  0  0
   -3.7450   23.1210  -30.1370 C   0  0  0  0  0  0  0  0  0  0  0  0
   -4.9040   22.3870  -30.4480 C   0  0  0  0  0  0  0  0  0  0  0  0
   -6.1170   23.0400  -30.7140 C   0  0  0  0  0  0  0  0  0  0  0  0
   -7.5680   22.1040  -31.0850 S   0  0  0  0  0  0  0  0  0  0  0  0
   -8.5700   22.2840  -29.9780 O   0  0  0  0  0  0  0  0  0  0  0  0
   -8.1800   22.6240  -32.3560 O   0  0  0  0  0  0  0  0  0  0  0  0
   -7.2080   20.4030  -31.2700 N   0  0  0  0  0  0  0  0  0  0  0  0
   -8.4320   19.5750  -31.2240 C   0  0  0  0  0  0  0  0  0  0  0  0
   -8.8420   19.0710  -32.6190 C   0  0  0  0  0  0  0  0  0  0  0  0
   -7.8330   18.3010  -33.2590 O   0  0  0  0  0  0  0  0  0  0  0  0
   -6.5080   18.7110  -32.9400 C   0  0  0  0  0  0  0  0  0  0  0  0
   -6.4000   20.1760  -32.4830 C   0  0  0  0  0  0  0  0  0  0  0  0
   -6.1690   24.4380  -30.6800 C   0  0  0  0  0  0  0  0  0  0  0  0
   -5.0290   25.1760  -30.3630 C   0  0  0  0  0  0  0  0  0  0  0  0
   -3.8220   24.5290  -30.0810 C   0  0  0  0  0  0  0  0  0  0  0  0
   -2.7180   25.2940  -29.7220 O   0  0  0  0  0  0  0  0  0  0  0  0
   -2.8120   22.0840  -27.7700 H   0  0  0  0  0  0  0  0  0  0  0  0
    0.2739   21.8365  -29.3674 H   0  0  0  0  0  0  0  0  0  0  0  0
    2.0197   20.0956  -28.9978 H   0  0  0  0  0  0  0  0  0  0  0  0
   -0.0366   17.1295  -29.5425 H   0  0  0  0  0  0  0  0  0  0  0  0
   -1.1424   16.5729  -31.7160 H   0  0  0  0  0  0  0  0  0  0  0  0
    0.2501   15.9142  -33.6870 H   0  0  0  0  0  0  0  0  0  0  0  0
    2.7374   15.8156  -33.4555 H   0  0  0  0  0  0  0  0  0  0  0  0
   -0.8719   17.6324  -26.9250 H   0  0  0  0  0  0  0  0  0  0  0  0
   -2.6228   19.3682  -27.2959 H   0  0  0  0  0  0  0  0  0  0  0  0
   -4.8588   21.2885  -30.4831 H   0  0  0  0  0  0  0  0  0  0  0  0
   -8.2492   18.7075  -30.5729 H   0  0  0  0  0  0  0  0  0  0  0  0
   -9.2496   20.2000  -30.8355 H   0  0  0  0  0  0  0  0  0  0  0  0
   -9.7424   18.4479  -32.5141 H   0  0  0  0  0  0  0  0  0  0  0  0
   -9.0210   19.9574  -33.2454 H   0  0  0  0  0  0  0  0  0  0  0  0
   -6.1320   18.0675  -32.1309 H   0  0  0  0  0  0  0  0  0  0  0  0
   -5.9158   18.6206  -33.8625 H   0  0  0  0  0  0  0  0  0  0  0  0
   -5.3475   20.4100  -32.2651 H   0  0  0  0  0  0  0  0  0  0  0  0
   -6.7763   20.8264  -33.2863 H   0  0  0  0  0  0  0  0  0  0  0  0
   -7.1127   24.9568  -30.9042 H   0  0  0  0  0  0  0  0  0  0  0  0
   -5.0797   26.2745  -30.3346 H   0  0  0  0  0  0  0  0  0  0  0  0
  1  2  2  0
  2  3  1  0
  3  4  1  0
  4  5  2  0
  5  6  1  0
  6  7  2  0
  7  8  1  0
  8  9  2  0
  8 10  2  0
  8 11  1  0
 11 12  2  3
 12 13  1  0
 13 14  2  0
 14 15  1  0
 15 16  2  0
 16 17  1  0
  7 18  1  0
 18 19  2  0
  2 20  1  0
 20 21  2  0
 21 22  1  0
 22 23  1  0
 23 24  2  0
 23 25  2  0
 23 26  1  0
 26 27  1  0
 27 28  1  0
 28 29  1  0
 29 30  1  0
 30 31  1  0
 22 32  2  0
 32 33  1  0
 33 34  2  0
 34 35  1  0
 19  4  1  0
 34 20  1  0
 17 12  1  0
 31 26  1  0
  3 36  1  0
  5 37  1  0
  6 38  1  0
 13 39  1  0
 14 40  1  0
 15 41  1  0
 16 42  1  0
 18 43  1  0
 19 44  1  0
 21 45  1  0
 27 46  1  0
 27 47  1  0
 28 48  1  0
 28 49  1  0
 30 50  1  0
 30 51  1  0
 31 52  1  0
 31 53  1  0
 32 54  1  0
 33 55  1  0
M  CHG  2  17  -1  35  -1
M  END
>  <UniqueID>  (38) 
36

>  <SMILES>  (38) 
O=C(Nc1ccc(S(=O)(=O)N=c2cccc[n-]2)cc1)c1cc(S(=O)(=O)N2CCOCC2)ccc1[O-]

>  <Energy>  (38) 
83.768429961991

>  <Genealogy>  (38) 
O=C(Nc1ccc(S(=O)(=O)N=c2cccc[n-]2)cc1)c1cc(S(=O)(=O)N2CCOCC2)ccc1[O-] (protonated)
O=C(Nc1ccc(S(=O)(=O)N=c2cccc[n-]2)cc1)c1cc(S(=O)(=O)N2CCOCC2)ccc1[O-] (3D coordinates assigned)
O=C(Nc1ccc(S(=O)(=O)N=c2cccc[n-]2)cc1)c1cc(S(=O)(=O)N2CCOCC2)ccc1[O-] (nonaromatic ring conformer: 83.768429961991 kcal/mol)

>  <smiles>  (38) 
O=C(Nc1ccc(S(=O)(=O)N=c2cccc[nH]2)cc1)c1cc(S(=O)(=O)N2CCOCC2)ccc1O

>  <score_type>  (38) 
oracle

>  <origin>  (38) 
adgpu

>  <m_score__min__energy>  (38) 
-12.640000000000001

>  <m_primary>  (38) 
energy

$$$$
38:0
     RDKit          3D

 51 53  0  0  0  0  0  0  0  0999 V2000
   -0.4890   22.3900  -25.4840 C   0  0  0  0  0  0  0  0  0  0  0  0
   -1.3090   21.6960  -26.4840 N   0  0  0  0  0  0  0  0  0  0  0  0
   -1.3100   20.2270  -26.5060 C   0  0  0  0  0  0  0  0  0  0  0  0
   -2.1080   22.4480  -27.4340 C   0  0  0  0  0  0  0  0  0  0  0  0
   -3.3580   21.9650  -27.8680 C   0  0  0  0  0  0  0  0  0  0  0  0
   -4.1250   22.6880  -28.7850 C   0  0  0  0  0  0  0  0  0  0  0  0
   -3.6540   23.9020  -29.3080 C   0  0  0  0  0  0  0  0  0  0  0  0
   -4.4720   24.6870  -30.2630 C   0  0  0  0  0  0  0  0  0  0  0  0
   -5.1040   24.1730  -31.2810 N   0  0  0  0  0  0  0  0  0  0  0  0
   -5.0090   22.8290  -31.7780 C   0  0  0  0  0  0  0  0  0  0  0  0
   -3.8210   22.3370  -32.3470 C   0  0  0  0  0  0  0  0  0  0  0  0
   -3.7680   21.0350  -32.8490 C   0  0  0  0  0  0  0  0  0  0  0  0
   -4.9030   20.2230  -32.8100 C   0  0  0  0  0  0  0  0  0  0  0  0
   -6.1050   20.7150  -32.2830 C   0  0  0  0  0  0  0  0  0  0  0  0
   -7.5520   19.7020  -32.2710 S   0  0  0  0  0  0  0  0  0  0  0  0
   -8.3200   19.9520  -31.0020 O   0  0  0  0  0  0  0  0  0  0  0  0
   -8.4320   20.0830  -33.4290 O   0  0  0  0  0  0  0  0  0  0  0  0
   -7.1480   18.0050  -32.3850 N   0  0  0  0  0  0  0  0  0  0  0  0
   -6.1090   17.6560  -31.3910 C   0  0  0  0  0  0  0  0  0  0  0  0
   -5.4400   16.3200  -31.7290 C   0  0  0  0  0  0  0  0  0  0  0  0
   -4.7200   16.3900  -33.0870 C   0  0  0  0  0  0  0  0  0  0  0  0
   -5.3260   17.4450  -34.0290 C   0  0  0  0  0  0  0  0  0  0  0  0
   -6.8320   17.6110  -33.7800 C   0  0  0  0  0  0  0  0  0  0  0  0
   -6.1530   22.0200  -31.7720 C   0  0  0  0  0  0  0  0  0  0  0  0
   -2.4220   24.4070  -28.8630 C   0  0  0  0  0  0  0  0  0  0  0  0
   -1.9430   25.6220  -29.3420 O   0  0  0  0  0  0  0  0  0  0  0  0
   -1.6560   23.6840  -27.9410 C   0  0  0  0  0  0  0  0  0  0  0  0
   -0.8235   22.1069  -24.4751 H   0  0  0  0  0  0  0  0  0  0  0  0
    0.5658   22.1061  -25.6137 H   0  0  0  0  0  0  0  0  0  0  0  0
   -0.5947   23.4772  -25.6137 H   0  0  0  0  0  0  0  0  0  0  0  0
   -1.3103   19.8448  -25.4745 H   0  0  0  0  0  0  0  0  0  0  0  0
   -2.2084   19.8687  -27.0300 H   0  0  0  0  0  0  0  0  0  0  0  0
   -0.4121   19.8675  -27.0300 H   0  0  0  0  0  0  0  0  0  0  0  0
   -3.7348   21.0070  -27.4803 H   0  0  0  0  0  0  0  0  0  0  0  0
   -5.1060   22.3025  -29.0996 H   0  0  0  0  0  0  0  0  0  0  0  0
   -4.5508   25.7724  -30.1026 H   0  0  0  0  0  0  0  0  0  0  0  0
   -2.9300   22.9802  -32.3969 H   0  0  0  0  0  0  0  0  0  0  0  0
   -2.8307   20.6486  -33.2758 H   0  0  0  0  0  0  0  0  0  0  0  0
   -4.8538   19.1935  -33.1942 H   0  0  0  0  0  0  0  0  0  0  0  0
   -5.3443   18.4466  -31.3797 H   0  0  0  0  0  0  0  0  0  0  0  0
   -6.5890   17.5638  -30.4056 H   0  0  0  0  0  0  0  0  0  0  0  0
   -4.7070   16.0767  -30.9457 H   0  0  0  0  0  0  0  0  0  0  0  0
   -6.2174   15.5438  -31.7849 H   0  0  0  0  0  0  0  0  0  0  0  0
   -3.6633   16.6404  -32.9121 H   0  0  0  0  0  0  0  0  0  0  0  0
   -4.8318   15.4092  -33.5723 H   0  0  0  0  0  0  0  0  0  0  0  0
   -4.8254   18.4093  -33.8574 H   0  0  0  0  0  0  0  0  0  0  0  0
   -5.1789   17.1113  -35.0668 H   0  0  0  0  0  0  0  0  0  0  0  0
   -7.2164   18.3863  -34.4590 H   0  0  0  0  0  0  0  0  0  0  0  0
   -7.3056   16.6350  -33.9620 H   0  0  0  0  0  0  0  0  0  0  0  0
   -7.0962   22.4116  -31.3632 H   0  0  0  0  0  0  0  0  0  0  0  0
   -0.6878   24.0856  -27.6072 H   0  0  0  0  0  0  0  0  0  0  0  0
  1  2  1  0
  2  3  1  0
  2  4  1  0
  4  5  2  0
  5  6  1  0
  6  7  2  0
  7  8  1  0
  8  9  2  3
  9 10  1  0
 10 11  2  0
 11 12  1  0
 12 13  2  0
 13 14  1  0
 14 15  1  0
 15 16  2  0
 15 17  2  0
 15 18  1  0
 18 19  1  0
 19 20  1  0
 20 21  1  0
 21 22  1  0
 22 23  1  0
 14 24  2  0
  7 25  1  0
 25 26  1  0
 25 27  2  0
 27  4  1  0
 24 10  1  0
 23 18  1  0
  1 28  1  0
  1 29  1  0
  1 30  1  0
  3 31  1  0
  3 32  1  0
  3 33  1  0
  5 34  1  0
  6 35  1  0
  8 36  1  0
 11 37  1  0
 12 38  1  0
 13 39  1  0
 19 40  1  0
 19 41  1  0
 20 42  1  0
 20 43  1  0
 21 44  1  0
 21 45  1  0
 22 46  1  0
 22 47  1  0
 23 48  1  0
 23 49  1  0
 24 50  1  0
 27 51  1  0
M  CHG  1  26  -1
M  END
>  <UniqueID>  (39) 
37

>  <SMILES>  (39) 
CN(C)c1ccc(C=Nc2cccc(S(=O)(=O)N3CCCCC3)c2)c([O-])c1

>  <Energy>  (39) 
69.4459841246747

>  <Genealogy>  (39) 
CN(C)c1ccc(C=Nc2cccc(S(=O)(=O)N3CCCCC3)c2)c([O-])c1 (protonated)
CN(C)c1ccc(C=Nc2cccc(S(=O)(=O)N3CCCCC3)c2)c([O-])c1 (3D coordinates assigned)
CN(C)c1ccc(C=Nc2cccc(S(=O)(=O)N3CCCCC3)c2)c([O-])c1 (nonaromatic ring conformer: 69.4459841246747 kcal/mol)

>  <smiles>  (39) 
CN(C)c1ccc(C=Nc2cccc(S(=O)(=O)N3CCCCC3)c2)c(O)c1

>  <score_type>  (39) 
oracle

>  <origin>  (39) 
adgpu

>  <m_score__min__energy>  (39) 
-12.24

>  <m_primary>  (39) 
energy

$$$$
39:0
     RDKit          3D

 45 48  0  0  0  0  0  0  0  0999 V2000
   -1.9290   22.1720  -31.4200 O   0  0  0  0  0  0  0  0  0  0  0  0
   -2.7650   22.3010  -30.1770 S   0  0  0  0  0  0  0  0  0  0  0  0
   -3.3300   20.9480  -29.8410 O   0  0  0  0  0  0  0  0  0  0  0  0
   -4.0850   23.4300  -30.5010 C   0  0  0  0  0  0  0  0  0  0  0  0
   -5.3070   22.9530  -31.0030 C   0  0  0  0  0  0  0  0  0  0  0  0
   -6.3790   23.8310  -31.2200 C   0  0  0  0  0  0  0  0  0  0  0  0
   -7.7030   23.2990  -31.7010 C   0  0  0  0  0  0  0  0  0  0  0  0
   -8.3020   21.9440  -30.6300 S   0  0  0  0  0  0  0  0  0  0  0  0
   -7.6210   20.6370  -31.6480 C   0  0  0  0  0  0  0  0  0  0  0  0
   -6.7570   20.8760  -32.6670 N   0  0  0  0  0  0  0  0  0  0  0  0
   -6.5450   19.6460  -33.1550 C   0  0  0  0  0  0  0  0  0  0  0  0
   -5.7370   19.2830  -34.2300 C   0  0  0  0  0  0  0  0  0  0  0  0
   -5.6790   17.9170  -34.5710 C   0  0  0  0  0  0  0  0  0  0  0  0
   -6.4200   16.9650  -33.8350 C   0  0  0  0  0  0  0  0  0  0  0  0
   -7.2270   17.3700  -32.7550 C   0  0  0  0  0  0  0  0  0  0  0  0
   -7.2600   18.7280  -32.4470 C   0  0  0  0  0  0  0  0  0  0  0  0
   -7.9570   19.3310  -31.4760 N   0  0  0  0  0  0  0  0  0  0  0  0
   -6.2220   25.1960  -30.9360 C   0  0  0  0  0  0  0  0  0  0  0  0
   -5.0080   25.6750  -30.4390 C   0  0  0  0  0  0  0  0  0  0  0  0
   -3.9420   24.7990  -30.2170 C   0  0  0  0  0  0  0  0  0  0  0  0
   -2.7470   25.2960  -29.7080 O   0  0  0  0  0  0  0  0  0  0  0  0
   -1.7900   22.9090  -28.8540 N   0  0  0  0  0  0  0  0  0  0  0  0
   -0.3690   22.5420  -29.0200 C   0  0  0  0  0  0  0  0  0  0  0  0
   -0.1100   21.0450  -28.7210 C   0  0  0  0  0  0  0  0  0  0  0  0
   -1.1500   20.4240  -27.9880 O   0  0  0  0  0  0  0  0  0  0  0  0
   -1.5900   21.2720  -26.9520 C   0  0  0  0  0  0  0  0  0  0  0  0
   -2.3270   22.4910  -27.5350 C   0  0  0  0  0  0  0  0  0  0  0  0
   -5.4242   21.8826  -31.2277 H   0  0  0  0  0  0  0  0  0  0  0  0
   -8.4410   24.1146  -31.6937 H   0  0  0  0  0  0  0  0  0  0  0  0
   -7.5698   22.9043  -32.7191 H   0  0  0  0  0  0  0  0  0  0  0  0
   -5.1648   20.0355  -34.7924 H   0  0  0  0  0  0  0  0  0  0  0  0
   -5.0535   17.5899  -35.4147 H   0  0  0  0  0  0  0  0  0  0  0  0
   -6.3658   15.9007  -34.1078 H   0  0  0  0  0  0  0  0  0  0  0  0
   -7.8107   16.6400  -32.1750 H   0  0  0  0  0  0  0  0  0  0  0  0
   -7.0577   25.8910  -31.1053 H   0  0  0  0  0  0  0  0  0  0  0  0
   -4.8903   26.7468  -30.2213 H   0  0  0  0  0  0  0  0  0  0  0  0
   -1.8490   23.9530  -28.9080 H   0  0  0  0  0  0  0  0  0  0  0  0
   -0.0680   22.7529  -30.0568 H   0  0  0  0  0  0  0  0  0  0  0  0
    0.2177   23.1348  -28.3028 H   0  0  0  0  0  0  0  0  0  0  0  0
    0.0056   20.5145  -29.6777 H   0  0  0  0  0  0  0  0  0  0  0  0
    0.7968   20.9927  -28.1006 H   0  0  0  0  0  0  0  0  0  0  0  0
   -2.2734   20.7158  -26.2935 H   0  0  0  0  0  0  0  0  0  0  0  0
   -0.7171   21.6215  -26.3811 H   0  0  0  0  0  0  0  0  0  0  0  0
   -3.3904   22.2358  -27.6530 H   0  0  0  0  0  0  0  0  0  0  0  0
   -2.1845   23.3297  -26.8377 H   0  0  0  0  0  0  0  0  0  0  0  0
  1  2  2  0
  2  3  2  0
  2  4  1  0
  4  5  2  0
  5  6  1  0
  6  7  1  0
  7  8  1  0
  8  9  1  0
  9 10  2  0
 10 11  1  0
 11 12  2  0
 12 13  1  0
 13 14  2  0
 14 15  1  0
 15 16  2  0
 16 17  1  0
  6 18  2  0
 18 19  1  0
 19 20  2  0
 20 21  1  0
  2 22  1  0
 22 23  1  0
 23 24  1  0
 24 25  1  0
 25 26  1  0
 26 27  1  0
 20  4  1  0
 27 22  1  0
 17  9  1  0
 16 11  1  0
  5 28  1  0
  7 29  1  0
  7 30  1  0
 12 31  1  0
 13 32  1  0
 14 33  1  0
 15 34  1  0
 18 35  1  0
 19 36  1  0
 22 37  1  0
 23 38  1  0
 23 39  1  0
 24 40  1  0
 24 41  1  0
 26 42  1  0
 26 43  1  0
 27 44  1  0
 27 45  1  0
M  CHG  3  17  -1  21  -1  22   1
M  END
>  <UniqueID>  (40) 
38

>  <SMILES>  (40) 
O=S(=O)(c1cc(CSc2nc3ccccc3[n-]2)ccc1[O-])[NH+]1CCOCC1

>  <Energy>  (40) 
89.06118689611242

>  <Genealogy>  (40) 
O=S(=O)(c1cc(CSc2nc3ccccc3[n-]2)ccc1[O-])[NH+]1CCOCC1 (protonated)
O=S(=O)(c1cc(CSc2nc3ccccc3[n-]2)ccc1[O-])[NH+]1CCOCC1 (3D coordinates assigned)
O=S(=O)(c1cc(CSc2nc3ccccc3[n-]2)ccc1[O-])[NH+]1CCOCC1 (nonaromatic ring conformer: 89.06118689611242 kcal/mol)

>  <smiles>  (40) 
O=S(=O)(c1cc(CSc2nc3ccccc3[nH]2)ccc1O)N1CCOCC1

>  <score_type>  (40) 
oracle

>  <origin>  (40) 
adgpu

>  <m_score__min__energy>  (40) 
-11.16

>  <m_primary>  (40) 
energy

$$$$
40:0
     RDKit          3D

 48 50  0  0  0  0  0  0  0  0999 V2000
   -4.9360   25.6680  -31.2160 O   0  0  0  0  0  0  0  0  0  0  0  0
   -5.4730   24.8850  -30.0490 S   0  0  0  0  0  0  0  0  0  0  0  0
   -6.4750   25.7280  -29.3140 O   0  0  0  0  0  0  0  0  0  0  0  0
   -4.1680   24.4750  -28.9780 N   0  0  0  0  0  0  0  0  0  0  0  0
   -3.1690   23.6810  -29.6940 C   0  0  0  0  0  0  0  0  0  0  0  0
   -1.8960   23.6260  -28.8930 C   0  0  0  0  0  0  0  0  0  0  0  0
   -1.4130   22.3880  -28.4340 C   0  0  0  0  0  0  0  0  0  0  0  0
   -0.2410   22.3240  -27.6720 C   0  0  0  0  0  0  0  0  0  0  0  0
    0.4500   23.4950  -27.3520 C   0  0  0  0  0  0  0  0  0  0  0  0
   -0.0330   24.7320  -27.7840 C   0  0  0  0  0  0  0  0  0  0  0  0
   -1.2050   24.8050  -28.5480 C   0  0  0  0  0  0  0  0  0  0  0  0
   -1.6730   26.0490  -28.9600 O   0  0  0  0  0  0  0  0  0  0  0  0
   -6.2660   23.4180  -30.6140 C   0  0  0  0  0  0  0  0  0  0  0  0
   -7.5650   23.1000  -30.1930 C   0  0  0  0  0  0  0  0  0  0  0  0
   -8.1860   21.9350  -30.6510 C   0  0  0  0  0  0  0  0  0  0  0  0
   -7.5130   21.0730  -31.5290 C   0  0  0  0  0  0  0  0  0  0  0  0
   -8.2930   19.5920  -32.0890 S   0  0  0  0  0  0  0  0  0  0  0  0
   -9.3710   19.9410  -33.0790 O   0  0  0  0  0  0  0  0  0  0  0  0
   -8.9410   18.9050  -30.9200 O   0  0  0  0  0  0  0  0  0  0  0  0
   -7.1480   18.5050  -32.8350 N   0  0  0  0  0  0  0  0  0  0  0  0
   -6.4480   19.1840  -33.9460 C   0  0  0  0  0  0  0  0  0  0  0  0
   -5.2220   18.3870  -34.4460 C   0  0  0  0  0  0  0  0  0  0  0  0
   -5.2540   16.9340  -33.9630 C   0  0  0  0  0  0  0  0  0  0  0  0
   -5.3420   16.8640  -32.4290 C   0  0  0  0  0  0  0  0  0  0  0  0
   -6.1900   18.0050  -31.8350 C   0  0  0  0  0  0  0  0  0  0  0  0
   -6.2130   21.3910  -31.9480 C   0  0  0  0  0  0  0  0  0  0  0  0
   -5.5930   22.5570  -31.4900 C   0  0  0  0  0  0  0  0  0  0  0  0
   -3.7220   25.3740  -28.6850 H   0  0  0  0  0  0  0  0  0  0  0  0
   -3.5515   22.6605  -29.8433 H   0  0  0  0  0  0  0  0  0  0  0  0
   -2.9656   24.1456  -30.6701 H   0  0  0  0  0  0  0  0  0  0  0  0
   -1.9595   21.4644  -28.6752 H   0  0  0  0  0  0  0  0  0  0  0  0
    0.1364   21.3508  -27.3248 H   0  0  0  0  0  0  0  0  0  0  0  0
    1.3752   23.4427  -26.7593 H   0  0  0  0  0  0  0  0  0  0  0  0
    0.5091   25.6530  -27.5233 H   0  0  0  0  0  0  0  0  0  0  0  0
   -8.0966   23.7692  -29.5005 H   0  0  0  0  0  0  0  0  0  0  0  0
   -9.2072   21.6930  -30.3214 H   0  0  0  0  0  0  0  0  0  0  0  0
   -7.1518   19.3104  -34.7819 H   0  0  0  0  0  0  0  0  0  0  0  0
   -6.0873   20.1535  -33.5719 H   0  0  0  0  0  0  0  0  0  0  0  0
   -5.2152   18.3967  -35.5459 H   0  0  0  0  0  0  0  0  0  0  0  0
   -4.3163   18.8624  -34.0414 H   0  0  0  0  0  0  0  0  0  0  0  0
   -6.1303   16.4301  -34.3968 H   0  0  0  0  0  0  0  0  0  0  0  0
   -4.3259   16.4380  -34.2834 H   0  0  0  0  0  0  0  0  0  0  0  0
   -5.7951   15.9028  -32.1450 H   0  0  0  0  0  0  0  0  0  0  0  0
   -4.3216   16.9630  -32.0304 H   0  0  0  0  0  0  0  0  0  0  0  0
   -6.7415   17.6296  -30.9604 H   0  0  0  0  0  0  0  0  0  0  0  0
   -5.5234   18.8274  -31.5362 H   0  0  0  0  0  0  0  0  0  0  0  0
   -5.6799   20.7212  -32.6388 H   0  0  0  0  0  0  0  0  0  0  0  0
   -4.5718   22.7995  -31.8191 H   0  0  0  0  0  0  0  0  0  0  0  0
  1  2  2  0
  2  3  2  0
  2  4  1  0
  4  5  1  0
  5  6  1  0
  6  7  2  0
  7  8  1  0
  8  9  2  0
  9 10  1  0
 10 11  2  0
 11 12  1  0
  2 13  1  0
 13 14  2  0
 14 15  1  0
 15 16  2  0
 16 17  1  0
 17 18  2  0
 17 19  2  0
 17 20  1  0
 20 21  1  0
 21 22  1  0
 22 23  1  0
 23 24  1  0
 24 25  1  0
 16 26  1  0
 26 27  2  0
 11  6  1  0
 27 13  1  0
 25 20  1  0
  4 28  1  0
  5 29  1  0
  5 30  1  0
  7 31  1  0
  8 32  1  0
  9 33  1  0
 10 34  1  0
 14 35  1  0
 15 36  1  0
 21 37  1  0
 21 38  1  0
 22 39  1  0
 22 40  1  0
 23 41  1  0
 23 42  1  0
 24 43  1  0
 24 44  1  0
 25 45  1  0
 25 46  1  0
 26 47  1  0
 27 48  1  0
M  CHG  1  12  -1
M  END
>  <UniqueID>  (41) 
39

>  <SMILES>  (41) 
O=S(=O)(NCc1ccccc1[O-])c1ccc(S(=O)(=O)N2CCCCC2)cc1

>  <Energy>  (41) 
49.17818489996864

>  <Genealogy>  (41) 
O=S(=O)(NCc1ccccc1[O-])c1ccc(S(=O)(=O)N2CCCCC2)cc1 (protonated)
O=S(=O)(NCc1ccccc1[O-])c1ccc(S(=O)(=O)N2CCCCC2)cc1 (3D coordinates assigned)
O=S(=O)(NCc1ccccc1[O-])c1ccc(S(=O)(=O)N2CCCCC2)cc1 (nonaromatic ring conformer: 49.17818489996864 kcal/mol)

>  <smiles>  (41) 
O=S(=O)(NCc1ccccc1O)c1ccc(S(=O)(=O)N2CCCCC2)cc1

>  <score_type>  (41) 
oracle

>  <origin>  (41) 
adgpu

>  <m_score__min__energy>  (41) 
-14.59

>  <m_primary>  (41) 
energy

$$$$
41:0
     RDKit          3D

 42 43  0  0  0  0  0  0  0  0999 V2000
   -4.7130   24.2200  -32.3480 H   0  0  0  0  0  0  0  0  0  0  0  0
   -4.3500   23.3460  -31.9870 O   0  0  0  0  0  0  0  0  0  0  0  0
   -3.6560   23.2680  -30.7780 C   0  0  0  0  0  0  0  0  0  0  0  0
   -3.4300   24.4260  -30.0150 C   0  0  0  0  0  0  0  0  0  0  0  0
   -3.8600   25.6680  -30.4710 O   0  0  0  0  0  0  0  0  0  0  0  0
   -2.7770   24.3380  -28.7840 C   0  0  0  0  0  0  0  0  0  0  0  0
   -2.6019   25.2475  -28.1905 H   0  0  0  0  0  0  0  0  0  0  0  0
   -2.3460   23.1020  -28.3040 C   0  0  0  0  0  0  0  0  0  0  0  0
   -1.8435   23.0399  -27.3275 H   0  0  0  0  0  0  0  0  0  0  0  0
   -2.5490   21.9380  -29.0580 C   0  0  0  0  0  0  0  0  0  0  0  0
   -2.0730   20.6790  -28.5510 N   0  0  0  0  0  0  0  0  0  0  0  0
   -2.7120   20.0840  -27.3780 C   0  0  0  0  0  0  0  0  0  0  0  0
   -2.2634   20.5017  -26.4646 H   0  0  0  0  0  0  0  0  0  0  0  0
   -3.7887   20.3087  -27.3935 H   0  0  0  0  0  0  0  0  0  0  0  0
   -2.5646   18.9940  -27.3935 H   0  0  0  0  0  0  0  0  0  0  0  0
   -0.7800   20.1700  -29.0100 C   0  0  0  0  0  0  0  0  0  0  0  0
   -0.1534   19.9233  -28.1402 H   0  0  0  0  0  0  0  0  0  0  0  0
   -0.9364   19.2663  -29.6174 H   0  0  0  0  0  0  0  0  0  0  0  0
   -0.2784   20.9378  -29.6174 H   0  0  0  0  0  0  0  0  0  0  0  0
   -3.1960   22.0180  -30.3100 C   0  0  0  0  0  0  0  0  0  0  0  0
   -3.4680   20.7850  -31.0790 C   0  0  0  0  0  0  0  0  0  0  0  0
   -2.6308   20.1012  -31.2826 H   0  0  0  0  0  0  0  0  0  0  0  0
   -4.6840   20.4580  -31.5410 C   0  0  0  0  0  0  0  0  0  0  0  0
   -4.9690   19.3050  -32.2510 C   0  0  0  0  0  0  0  0  0  0  0  0
   -4.2632   18.5059  -32.5218 H   0  0  0  0  0  0  0  0  0  0  0  0
   -6.3160   19.3570  -32.5520 C   0  0  0  0  0  0  0  0  0  0  0  0
   -6.8965   18.6047  -33.1061 H   0  0  0  0  0  0  0  0  0  0  0  0
   -6.7910   20.5420  -32.0190 C   0  0  0  0  0  0  0  0  0  0  0  0
   -8.0640   20.9570  -32.1040 C   0  0  0  0  0  0  0  0  0  0  0  0
   -8.7833   20.3234  -32.6436 H   0  0  0  0  0  0  0  0  0  0  0  0
   -8.5600   22.2420  -31.5010 C   0  0  0  0  0  0  0  0  0  0  0  0
   -8.5037   22.1697  -30.4048 H   0  0  0  0  0  0  0  0  0  0  0  0
   -9.5989   22.4019  -31.8251 H   0  0  0  0  0  0  0  0  0  0  0  0
   -7.7140   23.4350  -31.9690 C   0  0  0  0  0  0  0  0  0  0  0  0
   -8.3611   24.1469  -32.5023 H   0  0  0  0  0  0  0  0  0  0  0  0
   -6.9204   23.0611  -32.6327 H   0  0  0  0  0  0  0  0  0  0  0  0
   -7.0620   24.1440  -30.7870 C   0  0  0  0  0  0  0  0  0  0  0  0
   -7.4494   23.7227  -29.8476 H   0  0  0  0  0  0  0  0  0  0  0  0
   -5.9720   24.0024  -30.8303 H   0  0  0  0  0  0  0  0  0  0  0  0
   -7.2942   25.2183  -30.8303 H   0  0  0  0  0  0  0  0  0  0  0  0
   -5.7930   21.2160  -31.4100 N   0  0  0  0  0  0  0  0  0  0  0  0
   -5.8570   22.1550  -30.9570 H   0  0  0  0  0  0  0  0  0  0  0  0
  1  2  1  0
  2  3  1  0
  3  4  2  0
  4  5  1  0
  4  6  1  0
  6  7  1  0
  6  8  2  0
  8  9  1  0
  8 10  1  0
 10 11  1  0
 11 12  1  0
 12 13  1  0
 12 14  1  0
 12 15  1  0
 11 16  1  0
 16 17  1  0
 16 18  1  0
 16 19  1  0
 10 20  2  0
 20 21  1  0
 21 22  1  0
 21 23  2  0
 23 24  1  0
 24 25  1  0
 24 26  2  0
 26 27  1  0
 26 28  1  0
 28 29  2  0
 29 30  1  0
 29 31  1  0
 31 32  1  0
 31 33  1  0
 31 34  1  0
 34 35  1  0
 34 36  1  0
 34 37  1  0
 37 38  1  0
 37 39  1  0
 37 40  1  0
 28 41  1  0
 41 42  1  0
 20  3  1  0
 41 23  1  0
M  CHG  1   5  -1
M  END
>  <UniqueID>  (42) 
40

>  <SMILES>  (42) 
CCC/C=c1/cc/c(=C/c2c(N(C)C)ccc([O-])c2O)[nH]1

>  <Energy>  (42) 
71.85075578208514

>  <Genealogy>  (42) 
CCCC=c1ccc(=Cc2c(N(C)C)ccc([O-])c2O)[nH]1 (protonated)
CCC/C=c1/cc/c(=C/c2c(N(C)C)ccc([O-])c2O)[nH]1 (cis-trans isomerization)
CCC/C=c1/cc/c(=C/c2c(N(C)C)ccc([O-])c2O)[nH]1 (3D coordinates assigned)
CCC/C=c1/cc/c(=C/c2c(N(C)C)ccc([O-])c2O)[nH]1 (optimized conformer: 71.85075578208514 kcal/mol)

>  <smiles>  (42) 
CCCC=c1ccc(=Cc2c(N(C)C)ccc(O)c2O)[nH]1

>  <score_type>  (42) 
oracle

>  <origin>  (42) 
adgpu

>  <m_score__min__energy>  (42) 
-9.3000000000000007

>  <m_primary>  (42) 
energy

$$$$
42:0
     RDKit          3D

 45 48  0  0  0  0  0  0  0  0999 V2000
   -6.2060   25.4310  -29.3400 O   0  0  0  0  0  0  0  0  0  0  0  0
   -5.2520   24.5130  -30.0510 S   0  0  0  0  0  0  0  0  0  0  0  0
   -4.5870   25.2640  -31.1710 O   0  0  0  0  0  0  0  0  0  0  0  0
   -6.1100   23.1300  -30.7190 C   0  0  0  0  0  0  0  0  0  0  0  0
   -7.1370   22.5230  -29.9860 C   0  0  0  0  0  0  0  0  0  0  0  0
   -7.8300   21.4310  -30.5170 C   0  0  0  0  0  0  0  0  0  0  0  0
   -7.4940   20.9280  -31.7820 C   0  0  0  0  0  0  0  0  0  0  0  0
   -8.3730   19.5510  -32.4550 S   0  0  0  0  0  0  0  0  0  0  0  0
   -9.1350   18.8700  -31.3520 O   0  0  0  0  0  0  0  0  0  0  0  0
   -9.3660   20.0530  -33.4660 O   0  0  0  0  0  0  0  0  0  0  0  0
   -7.3170   18.3870  -33.2200 N   0  0  0  0  0  0  0  0  0  0  0  0
   -6.5940   17.5640  -32.2490 C   0  0  0  0  0  0  0  0  0  0  0  0
   -5.3240   17.0920  -32.9440 C   0  0  0  0  0  0  0  0  0  0  0  0
   -5.1240   18.0450  -34.1160 C   0  0  0  0  0  0  0  0  0  0  0  0
   -6.2880   19.0230  -34.0460 C   0  0  0  0  0  0  0  0  0  0  0  0
   -6.4670   21.5390  -32.5160 C   0  0  0  0  0  0  0  0  0  0  0  0
   -5.7750   22.6320  -31.9850 C   0  0  0  0  0  0  0  0  0  0  0  0
   -4.0580   23.9630  -28.9200 N   0  0  0  0  0  0  0  0  0  0  0  0
   -3.7580   24.5370  -27.7320 C   0  0  0  0  0  0  0  0  0  0  0  0
   -2.7300   23.8430  -27.1030 C   0  0  0  0  0  0  0  0  0  0  0  0
   -2.4080   22.8120  -27.9610 C   0  0  0  0  0  0  0  0  0  0  0  0
   -1.4470   21.8100  -27.8510 C   0  0  0  0  0  0  0  0  0  0  0  0
   -1.3390   20.8850  -28.9050 C   0  0  0  0  0  0  0  0  0  0  0  0
   -2.1830   20.9840  -30.0330 C   0  0  0  0  0  0  0  0  0  0  0  0
   -3.1440   22.0060  -30.1170 C   0  0  0  0  0  0  0  0  0  0  0  0
   -3.2310   22.9100  -29.0550 C   0  0  0  0  0  0  0  0  0  0  0  0
   -7.3995   22.9066  -28.9890 H   0  0  0  0  0  0  0  0  0  0  0  0
   -8.6421   20.9645  -29.9401 H   0  0  0  0  0  0  0  0  0  0  0  0
   -7.9020   17.7640  -33.8260 H   0  0  0  0  0  0  0  0  0  0  0  0
   -6.3416   18.1594  -31.3592 H   0  0  0  0  0  0  0  0  0  0  0  0
   -7.2053   16.7125  -31.9155 H   0  0  0  0  0  0  0  0  0  0  0  0
   -4.4673   17.1434  -32.2560 H   0  0  0  0  0  0  0  0  0  0  0  0
   -5.4050   16.0467  -33.2768 H   0  0  0  0  0  0  0  0  0  0  0  0
   -4.1669   18.5785  -34.0190 H   0  0  0  0  0  0  0  0  0  0  0  0
   -5.0963   17.5107  -35.0771 H   0  0  0  0  0  0  0  0  0  0  0  0
   -5.9629   19.9683  -33.5869 H   0  0  0  0  0  0  0  0  0  0  0  0
   -6.6722   19.2564  -35.0500 H   0  0  0  0  0  0  0  0  0  0  0  0
   -6.2047   21.1569  -33.5136 H   0  0  0  0  0  0  0  0  0  0  0  0
   -4.9655   23.1020  -32.5628 H   0  0  0  0  0  0  0  0  0  0  0  0
   -4.2570   25.4272  -27.3215 H   0  0  0  0  0  0  0  0  0  0  0  0
   -2.2714   24.0682  -26.1289 H   0  0  0  0  0  0  0  0  0  0  0  0
   -0.7937   21.7442  -26.9685 H   0  0  0  0  0  0  0  0  0  0  0  0
   -0.5922   20.0792  -28.8504 H   0  0  0  0  0  0  0  0  0  0  0  0
   -2.0875   20.2558  -30.8519 H   0  0  0  0  0  0  0  0  0  0  0  0
   -3.8066   22.0916  -30.9909 H   0  0  0  0  0  0  0  0  0  0  0  0
  1  2  2  0
  2  3  2  0
  2  4  1  0
  4  5  2  0
  5  6  1  0
  6  7  2  0
  7  8  1  0
  8  9  2  0
  8 10  2  0
  8 11  1  0
 11 12  1  0
 12 13  1  0
 13 14  1  0
 14 15  1  0
  7 16  1  0
 16 17  2  0
  2 18  1  0
 18 19  1  0
 19 20  2  0
 20 21  1  0
 21 22  2  0
 22 23  1  0
 23 24  2  0
 24 25  1  0
 25 26  2  0
 17  4  1  0
 26 18  1  0
 15 11  1  0
 26 21  1  0
  5 27  1  0
  6 28  1  0
 11 29  1  0
 12 30  1  0
 12 31  1  0
 13 32  1  0
 13 33  1  0
 14 34  1  0
 14 35  1  0
 15 36  1  0
 15 37  1  0
 16 38  1  0
 17 39  1  0
 19 40  1  0
 20 41  1  0
 22 42  1  0
 23 43  1  0
 24 44  1  0
 25 45  1  0
M  CHG  1  11   1
M  END
>  <UniqueID>  (43) 
41

>  <SMILES>  (43) 
O=S(=O)(c1ccc(S(=O)(=O)[NH+]2CCCC2)cc1)n1ccc2ccccc21

>  <Energy>  (43) 
84.15784831477107

>  <Genealogy>  (43) 
O=S(=O)(c1ccc(S(=O)(=O)[NH+]2CCCC2)cc1)n1ccc2ccccc21 (protonated)
O=S(=O)(c1ccc(S(=O)(=O)[NH+]2CCCC2)cc1)n1ccc2ccccc21 (3D coordinates assigned)
O=S(=O)(c1ccc(S(=O)(=O)[NH+]2CCCC2)cc1)n1ccc2ccccc21 (nonaromatic ring conformer: 84.15784831477107 kcal/mol)

>  <smiles>  (43) 
O=S(=O)(c1ccc(S(=O)(=O)n2ccc3ccccc32)cc1)N1CCCC1

>  <score_type>  (43) 
oracle

>  <origin>  (43) 
adgpu

>  <m_score__min__energy>  (43) 
-9.6899999999999995

>  <m_primary>  (43) 
energy

$$$$
43:0
     RDKit          3D

 39 41  0  0  0  0  0  0  0  0999 V2000
   -5.2410   24.0840  -29.2530 O   0  0  0  0  0  0  0  0  0  0  0  0
   -5.0840   24.2930  -30.4640 C   0  0  0  0  0  0  0  0  0  0  0  0
   -4.3590   25.4150  -30.8440 O   0  0  0  0  0  0  0  0  0  0  0  0
   -5.6420   23.3940  -31.4570 C   0  0  0  0  0  0  0  0  0  0  0  0
   -5.7640   23.7940  -32.6370 O   0  0  0  0  0  0  0  0  0  0  0  0
   -6.0380   22.0640  -31.0520 N   0  0  0  0  0  0  0  0  0  0  0  0
   -6.5740   21.2470  -32.0840 C   0  0  0  0  0  0  0  0  0  0  0  0
   -5.8940   20.5720  -33.0650 C   0  0  0  0  0  0  0  0  0  0  0  0
   -4.4870   20.4850  -33.3210 C   0  0  0  0  0  0  0  0  0  0  0  0
   -3.9770   19.2880  -33.8240 C   0  0  0  0  0  0  0  0  0  0  0  0
   -2.6070   19.1510  -34.0840 C   0  0  0  0  0  0  0  0  0  0  0  0
   -1.7110   20.1640  -33.8630 C   0  0  0  0  0  0  0  0  0  0  0  0
   -0.3250   20.1040  -34.0990 N   0  0  0  0  0  0  0  0  0  0  0  0
    0.4750   21.1330  -34.6440 C   0  0  0  0  0  0  0  0  0  0  0  0
    0.0310   22.2490  -34.9890 O   0  0  0  0  0  0  0  0  0  0  0  0
    1.9230   20.9290  -34.8370 C   0  0  0  0  0  0  0  0  0  0  0  0
    2.6100   19.7820  -34.5010 C   0  0  0  0  0  0  0  0  0  0  0  0
    3.9380   19.9630  -34.8290 C   0  0  0  0  0  0  0  0  0  0  0  0
    4.0330   21.2350  -35.3630 C   0  0  0  0  0  0  0  0  0  0  0  0
    2.8130   21.8050  -35.3620 N   0  0  0  0  0  0  0  0  0  0  0  0
   -2.2240   21.3470  -33.3650 C   0  0  0  0  0  0  0  0  0  0  0  0
   -3.5660   21.4830  -33.1090 C   0  0  0  0  0  0  0  0  0  0  0  0
   -6.8390   19.9600  -33.8020 N   0  0  0  0  0  0  0  0  0  0  0  0
   -8.0510   20.2400  -33.3030 N   0  0  0  0  0  0  0  0  0  0  0  0
   -7.9340   21.0390  -32.2300 C   0  0  0  0  0  0  0  0  0  0  0  0
   -8.8760   21.4800  -31.5400 O   0  0  0  0  0  0  0  0  0  0  0  0
   -4.2400   25.6800  -31.8240 H   0  0  0  0  0  0  0  0  0  0  0  0
   -5.9300   21.7420  -30.0600 H   0  0  0  0  0  0  0  0  0  0  0  0
   -4.6560   18.4446  -34.0181 H   0  0  0  0  0  0  0  0  0  0  0  0
   -2.2367   18.1941  -34.4805 H   0  0  0  0  0  0  0  0  0  0  0  0
    0.2000   19.2100  -33.8560 H   0  0  0  0  0  0  0  0  0  0  0  0
    2.1746   18.8784  -34.0494 H   0  0  0  0  0  0  0  0  0  0  0  0
    4.7565   19.2407  -34.6930 H   0  0  0  0  0  0  0  0  0  0  0  0
    4.9570   21.7058  -35.7298 H   0  0  0  0  0  0  0  0  0  0  0  0
    2.5830   22.7600  -35.7070 H   0  0  0  0  0  0  0  0  0  0  0  0
   -1.5470   22.1920  -33.1709 H   0  0  0  0  0  0  0  0  0  0  0  0
   -3.9241   22.4443  -32.7121 H   0  0  0  0  0  0  0  0  0  0  0  0
   -6.7500   19.3470  -34.6430 H   0  0  0  0  0  0  0  0  0  0  0  0
   -8.9680   19.9070  -33.6620 H   0  0  0  0  0  0  0  0  0  0  0  0
  1  2  2  0
  2  3  1  0
  2  4  1  0
  4  5  2  0
  4  6  1  0
  6  7  1  0
  7  8  2  0
  8  9  1  0
  9 10  2  0
 10 11  1  0
 11 12  2  0
 12 13  1  0
 13 14  1  0
 14 15  2  0
 14 16  1  0
 16 17  2  0
 17 18  1  0
 18 19  2  0
 19 20  1  0
 12 21  1  0
 21 22  2  0
  8 23  1  0
 23 24  1  0
 24 25  1  0
 25 26  2  0
 25  7  1  0
 22  9  1  0
 20 16  1  0
  3 27  1  0
  6 28  1  0
 10 29  1  0
 11 30  1  0
 13 31  1  0
 17 32  1  0
 18 33  1  0
 19 34  1  0
 20 35  1  0
 21 36  1  0
 22 37  1  0
 23 38  1  0
 24 39  1  0
M  END
>  <smiles>  (44) 
O=C(O)C(=O)Nc1c(-c2ccc(NC(=O)c3ccc[nH]3)cc2)[nH][nH]c1=O

>  <score_type>  (44) 
oracle

>  <origin>  (44) 
adgpu

>  <m_score__min__energy>  (44) 
-8.0700000000000003

>  <m_primary>  (44) 
energy

$$$$
44:0
     RDKit          3D

 55 58  0  0  0  0  0  0  0  0999 V2000
   -3.8790   25.3440  -30.8010 N   0  0  0  0  0  0  0  0  0  0  0  0
   -5.3290   25.1620  -29.8790 S   0  0  0  0  0  0  0  0  0  0  0  0
   -4.9800   24.8620  -28.4480 O   0  0  0  0  0  0  0  0  0  0  0  0
   -6.1180   26.4410  -29.9240 O   0  0  0  0  0  0  0  0  0  0  0  0
   -6.2860   23.8470  -30.5490 C   0  0  0  0  0  0  0  0  0  0  0  0
   -6.2100   23.5460  -31.9160 C   0  0  0  0  0  0  0  0  0  0  0  0
   -6.9640   22.4970  -32.4490 C   0  0  0  0  0  0  0  0  0  0  0  0
   -7.8030   21.7350  -31.6190 C   0  0  0  0  0  0  0  0  0  0  0  0
   -8.6330   20.6170  -32.1920 C   0  0  0  0  0  0  0  0  0  0  0  0
   -7.9580   19.9770  -33.3240 N   0  0  0  0  0  0  0  0  0  0  0  0
   -7.0070   18.6090  -32.8140 S   0  0  0  0  0  0  0  0  0  0  0  0
   -7.1240   18.4610  -31.3240 O   0  0  0  0  0  0  0  0  0  0  0  0
   -7.5430   17.3600  -33.4590 O   0  0  0  0  0  0  0  0  0  0  0  0
   -5.3050   18.8270  -33.2260 C   0  0  0  0  0  0  0  0  0  0  0  0
   -4.7080   18.0460  -34.2220 C   0  0  0  0  0  0  0  0  0  0  0  0
   -3.3720   18.2530  -34.5690 C   0  0  0  0  0  0  0  0  0  0  0  0
   -2.6180   19.2320  -33.9170 C   0  0  0  0  0  0  0  0  0  0  0  0
   -1.3280   19.4380  -34.2880 N   0  0  0  0  0  0  0  0  0  0  0  0
   -0.5540   20.3840  -33.7010 C   0  0  0  0  0  0  0  0  0  0  0  0
    1.1030   20.5990  -34.2280 Cl  0  0  0  0  0  0  0  0  0  0  0  0
   -1.0710   21.1740  -32.6740 C   0  0  0  0  0  0  0  0  0  0  0  0
   -2.3950   20.9910  -32.2430 C   0  0  0  0  0  0  0  0  0  0  0  0
   -2.8770   21.8070  -31.1070 C   0  0  0  0  0  0  0  0  0  0  0  0
   -3.5300   22.8640  -31.3250 O   0  0  0  0  0  0  0  0  0  0  0  0
   -2.6430   21.3740  -29.7580 N   0  0  0  0  0  0  0  0  0  0  0  0
   -3.2430   22.0440  -28.6060 C   0  0  0  0  0  0  0  0  0  0  0  0
   -2.5040   23.3180  -28.3030 C   0  0  0  0  0  0  0  0  0  0  0  0
   -2.7080   23.9940  -27.0870 C   0  0  0  0  0  0  0  0  0  0  0  0
   -1.9980   25.1660  -26.8050 C   0  0  0  0  0  0  0  0  0  0  0  0
   -1.0770   25.6670  -27.7310 C   0  0  0  0  0  0  0  0  0  0  0  0
   -0.3880   26.8020  -27.4540 F   0  0  0  0  0  0  0  0  0  0  0  0
   -0.8640   24.9970  -28.9380 C   0  0  0  0  0  0  0  0  0  0  0  0
   -1.5730   23.8260  -29.2250 C   0  0  0  0  0  0  0  0  0  0  0  0
   -3.1980   20.0120  -32.8850 C   0  0  0  0  0  0  0  0  0  0  0  0
   -4.5560   19.8080  -32.5640 C   0  0  0  0  0  0  0  0  0  0  0  0
   -7.8670   22.0300  -30.2480 C   0  0  0  0  0  0  0  0  0  0  0  0
   -7.1120   23.0790  -29.7170 C   0  0  0  0  0  0  0  0  0  0  0  0
   -3.9000   26.3020  -31.2180 H   0  0  0  0  0  0  0  0  0  0  0  0
   -5.5543   24.1378  -32.5717 H   0  0  0  0  0  0  0  0  0  0  0  0
   -6.9003   22.2670  -33.5228 H   0  0  0  0  0  0  0  0  0  0  0  0
   -8.8100   19.8650  -31.4090 H   0  0  0  0  0  0  0  0  0  0  0  0
   -9.5838   21.0393  -32.5493 H   0  0  0  0  0  0  0  0  0  0  0  0
   -5.2931   17.2670  -34.7327 H   0  0  0  0  0  0  0  0  0  0  0  0
   -2.9107   17.6426  -35.3593 H   0  0  0  0  0  0  0  0  0  0  0  0
   -0.4406   21.9414  -32.2011 H   0  0  0  0  0  0  0  0  0  0  0  0
   -2.0180   20.5560  -29.5850 H   0  0  0  0  0  0  0  0  0  0  0  0
   -4.2944   22.2781  -28.8289 H   0  0  0  0  0  0  0  0  0  0  0  0
   -3.1834   21.3781  -27.7325 H   0  0  0  0  0  0  0  0  0  0  0  0
   -3.4283   23.6000  -26.3550 H   0  0  0  0  0  0  0  0  0  0  0  0
   -2.1641   25.6939  -25.8544 H   0  0  0  0  0  0  0  0  0  0  0  0
   -0.1375   25.3909  -29.6640 H   0  0  0  0  0  0  0  0  0  0  0  0
   -1.4012   23.3007  -30.1761 H   0  0  0  0  0  0  0  0  0  0  0  0
   -5.0311   20.4247  -31.7869 H   0  0  0  0  0  0  0  0  0  0  0  0
   -8.5143   21.4328  -29.5889 H   0  0  0  0  0  0  0  0  0  0  0  0
   -7.1661   23.3030  -28.6414 H   0  0  0  0  0  0  0  0  0  0  0  0
  1  2  1  0
  2  3  2  0
  2  4  2  0
  2  5  1  0
  5  6  2  0
  6  7  1  0
  7  8  2  0
  8  9  1  0
  9 10  1  0
 10 11  1  0
 11 12  2  0
 11 13  2  0
 11 14  1  0
 14 15  2  0
 15 16  1  0
 16 17  2  0
 17 18  1  0
 18 19  2  0
 19 20  1  0
 19 21  1  0
 21 22  2  0
 22 23  1  0
 23 24  2  0
 23 25  1  0
 25 26  1  0
 26 27  1  0
 27 28  2  0
 28 29  1  0
 29 30  2  0
 30 31  1  0
 30 32  1  0
 32 33  2  0
 22 34  1  0
 34 35  2  0
  8 36  1  0
 36 37  2  0
 37  5  1  0
 35 14  1  0
 34 17  1  0
 33 27  1  0
  1 38  1  0
  6 39  1  0
  7 40  1  0
  9 41  1  0
  9 42  1  0
 15 43  1  0
 16 44  1  0
 21 45  1  0
 25 46  1  0
 26 47  1  0
 26 48  1  0
 28 49  1  0
 29 50  1  0
 32 51  1  0
 33 52  1  0
 35 53  1  0
 36 54  1  0
 37 55  1  0
M  CHG  2   1  -1  10  -1
M  END
>  <UniqueID>  (45) 
42

>  <SMILES>  (45) 
[NH-]S(=O)(=O)c1ccc(C[N-]S(=O)(=O)c2ccc3nc(Cl)cc(C(=O)NCc4ccc(F)cc4)c3c2)cc1

>  <Energy>  (45) 
64.89534161925397

>  <Genealogy>  (45) 
[NH-]S(=O)(=O)c1ccc(C[N-]S(=O)(=O)c2ccc3nc(Cl)cc(C(=O)NCc4ccc(F)cc4)c3c2)cc1 (protonated)
[NH-]S(=O)(=O)c1ccc(C[N-]S(=O)(=O)c2ccc3nc(Cl)cc(C(=O)NCc4ccc(F)cc4)c3c2)cc1 (3D coordinates assigned)
[NH-]S(=O)(=O)c1ccc(C[N-]S(=O)(=O)c2ccc3nc(Cl)cc(C(=O)NCc4ccc(F)cc4)c3c2)cc1 (optimized conformer: 64.89534161925397 kcal/mol)

>  <smiles>  (45) 
NS(=O)(=O)c1ccc(CNS(=O)(=O)c2ccc3nc(Cl)cc(C(=O)NCc4ccc(F)cc4)c3c2)cc1

>  <score_type>  (45) 
oracle

>  <origin>  (45) 
adgpu

>  <m_score__min__energy>  (45) 
-12.970000000000001

>  <m_primary>  (45) 
energy

$$$$
45:0
     RDKit          3D

 52 56  0  0  0  0  0  0  0  0999 V2000
    3.6830   25.2580  -23.1120 C   0  0  0  0  0  0  0  0  0  0  0  0
    2.5660   25.7570  -23.9030 N   0  0  0  0  0  0  0  0  0  0  0  0
    2.0370   25.1570  -24.9830 C   0  0  0  0  0  0  0  0  0  0  0  0
    0.9530   25.9060  -25.4060 C   0  0  0  0  0  0  0  0  0  0  0  0
    0.0550   25.6340  -26.5580 C   0  0  0  0  0  0  0  0  0  0  0  0
   -0.4630   26.6780  -27.3420 C   0  0  0  0  0  0  0  0  0  0  0  0
   -1.2800   26.4050  -28.3910 N   0  0  0  0  0  0  0  0  0  0  0  0
   -1.6120   25.1300  -28.7150 C   0  0  0  0  0  0  0  0  0  0  0  0
   -2.4180   24.9180  -29.7140 N   0  0  0  0  0  0  0  0  0  0  0  0
   -2.8410   23.6420  -30.2290 C   0  0  0  0  0  0  0  0  0  0  0  0
   -1.9870   22.5260  -30.2130 C   0  0  0  0  0  0  0  0  0  0  0  0
   -2.4040   21.3070  -30.7470 C   0  0  0  0  0  0  0  0  0  0  0  0
   -3.6690   21.1740  -31.3350 C   0  0  0  0  0  0  0  0  0  0  0  0
   -4.0330   19.8650  -31.9220 C   0  0  0  0  0  0  0  0  0  0  0  0
   -5.2640   19.2630  -31.6130 C   0  0  0  0  0  0  0  0  0  0  0  0
   -5.6120   18.0360  -32.1840 C   0  0  0  0  0  0  0  0  0  0  0  0
   -4.7410   17.4040  -33.0820 C   0  0  0  0  0  0  0  0  0  0  0  0
   -5.1690   15.8480  -33.7860 S   0  0  0  0  0  0  0  0  0  0  0  0
   -6.8890   15.8580  -34.2370 C   0  0  0  0  0  0  0  0  0  0  0  0
   -4.3320   15.5920  -35.0080 O   0  0  0  0  0  0  0  0  0  0  0  0
   -4.9160   14.7520  -32.7880 O   0  0  0  0  0  0  0  0  0  0  0  0
   -3.5170   18.0050  -33.3980 C   0  0  0  0  0  0  0  0  0  0  0  0
   -3.1670   19.2330  -32.8280 C   0  0  0  0  0  0  0  0  0  0  0  0
   -4.5370   22.2930  -31.3710 C   0  0  0  0  0  0  0  0  0  0  0  0
   -5.8390   22.2230  -31.9090 C   0  0  0  0  0  0  0  0  0  0  0  0
   -6.6530   23.3560  -31.9300 C   0  0  0  0  0  0  0  0  0  0  0  0
   -6.1750   24.5550  -31.4050 C   0  0  0  0  0  0  0  0  0  0  0  0
   -4.9310   24.6130  -30.8650 N   0  0  0  0  0  0  0  0  0  0  0  0
   -4.1050   23.5300  -30.8280 C   0  0  0  0  0  0  0  0  0  0  0  0
   -1.1340   24.1020  -27.9630 N   0  0  0  0  0  0  0  0  0  0  0  0
   -0.3130   24.3250  -26.9040 C   0  0  0  0  0  0  0  0  0  0  0  0
    0.8830   26.9600  -24.5050 C   0  0  0  0  0  0  0  0  0  0  0  0
    1.8710   26.8410  -23.5970 N   0  0  0  0  0  0  0  0  0  0  0  0
    3.4500   25.3621  -22.0420 H   0  0  0  0  0  0  0  0  0  0  0  0
    3.8549   24.1975  -23.3484 H   0  0  0  0  0  0  0  0  0  0  0  0
    4.5875   25.8376  -23.3484 H   0  0  0  0  0  0  0  0  0  0  0  0
    2.4025   24.2306  -25.4500 H   0  0  0  0  0  0  0  0  0  0  0  0
   -0.2056   27.7209  -27.1050 H   0  0  0  0  0  0  0  0  0  0  0  0
   -0.9815   22.6147  -29.7758 H   0  0  0  0  0  0  0  0  0  0  0  0
   -1.7307   20.4381  -30.7061 H   0  0  0  0  0  0  0  0  0  0  0  0
   -5.9573   19.7598  -30.9183 H   0  0  0  0  0  0  0  0  0  0  0  0
   -6.5724   17.5647  -31.9279 H   0  0  0  0  0  0  0  0  0  0  0  0
   -7.5067   15.8616  -33.3268 H   0  0  0  0  0  0  0  0  0  0  0  0
   -7.1069   16.7574  -34.8316 H   0  0  0  0  0  0  0  0  0  0  0  0
   -7.1174   14.9612  -34.8316 H   0  0  0  0  0  0  0  0  0  0  0  0
   -2.8277   17.5094  -34.0975 H   0  0  0  0  0  0  0  0  0  0  0  0
   -2.2091   19.7056  -33.0907 H   0  0  0  0  0  0  0  0  0  0  0  0
   -6.2141   21.2714  -32.3136 H   0  0  0  0  0  0  0  0  0  0  0  0
   -7.6649   23.3031  -32.3580 H   0  0  0  0  0  0  0  0  0  0  0  0
   -6.8064   25.4554  -31.4282 H   0  0  0  0  0  0  0  0  0  0  0  0
    0.0648   23.4760  -26.3154 H   0  0  0  0  0  0  0  0  0  0  0  0
    0.1363   27.7674  -24.5289 H   0  0  0  0  0  0  0  0  0  0  0  0
  1  2  1  0
  2  3  1  0
  3  4  2  0
  4  5  1  0
  5  6  1  0
  6  7  2  0
  7  8  1  0
  8  9  2  3
  9 10  1  0
 10 11  2  0
 11 12  1  0
 12 13  2  0
 13 14  1  0
 14 15  2  0
 15 16  1  0
 16 17  2  0
 17 18  1  0
 18 19  1  0
 18 20  2  0
 18 21  2  0
 17 22  1  0
 22 23  2  0
 13 24  1  0
 24 25  2  0
 25 26  1  0
 26 27  2  0
 27 28  1  0
 28 29  2  0
  8 30  1  0
 30 31  1  0
  4 32  1  0
 32 33  2  0
 33  2  1  0
 31  5  2  0
 29 10  1  0
 23 14  1  0
 29 24  1  0
  1 34  1  0
  1 35  1  0
  1 36  1  0
  3 37  1  0
  6 38  1  0
 11 39  1  0
 12 40  1  0
 15 41  1  0
 16 42  1  0
 19 43  1  0
 19 44  1  0
 19 45  1  0
 22 46  1  0
 23 47  1  0
 25 48  1  0
 26 49  1  0
 27 50  1  0
 31 51  1  0
 32 52  1  0
M  CHG  1  30  -1
M  END
>  <UniqueID>  (46) 
43

>  <SMILES>  (46) 
Cn1cc(-c2cnc(=Nc3ccc(-c4ccc(S(C)(=O)=O)cc4)c4cccnc34)[n-]c2)cn1

>  <Energy>  (46) 
106.64667963357338

>  <Genealogy>  (46) 
Cn1cc(-c2cnc(=Nc3ccc(-c4ccc(S(C)(=O)=O)cc4)c4cccnc34)[n-]c2)cn1 (protonated)
Cn1cc(-c2cnc(=Nc3ccc(-c4ccc(S(C)(=O)=O)cc4)c4cccnc34)[n-]c2)cn1 (3D coordinates assigned)
Cn1cc(-c2cnc(=Nc3ccc(-c4ccc(S(C)(=O)=O)cc4)c4cccnc34)[n-]c2)cn1 (optimized conformer: 106.64667963357338 kcal/mol)

>  <smiles>  (46) 
Cn1cc(-c2cnc(=Nc3ccc(-c4ccc(S(C)(=O)=O)cc4)c4cccnc34)[nH]c2)cn1

>  <score_type>  (46) 
oracle

>  <origin>  (46) 
adgpu

>  <m_score__min__energy>  (46) 
-10.07

>  <m_primary>  (46) 
energy

$$$$
46:0
     RDKit          3D

 36 38  0  0  0  0  0  0  0  0999 V2000
   -3.3360   19.6120  -32.6570 O   0  0  0  0  0  0  0  0  0  0  0  0
   -4.4890   19.7490  -33.1440 C   0  0  0  0  0  0  0  0  0  0  0  0
   -4.9570   21.0680  -33.4520 N   0  0  0  0  0  0  0  0  0  0  0  0
   -5.7810   21.8680  -32.5960 C   0  0  0  0  0  0  0  0  0  0  0  0
   -5.2200   22.9870  -31.9730 C   0  0  0  0  0  0  0  0  0  0  0  0
   -5.9790   23.7660  -31.0920 C   0  0  0  0  0  0  0  0  0  0  0  0
   -5.1980   25.0610  -30.1920 S   0  0  0  0  0  0  0  0  0  0  0  0
   -5.6530   26.3820  -30.7400 O   0  0  0  0  0  0  0  0  0  0  0  0
   -5.5420   24.9880  -28.7300 O   0  0  0  0  0  0  0  0  0  0  0  0
   -3.4790   24.9180  -30.3820 N   0  0  0  0  0  0  0  0  0  0  0  0
   -2.6120   24.2450  -29.4580 C   0  0  0  0  0  0  0  0  0  0  0  0
   -2.8530   22.9210  -29.0460 C   0  0  0  0  0  0  0  0  0  0  0  0
   -1.9710   22.2830  -28.1680 C   0  0  0  0  0  0  0  0  0  0  0  0
   -2.2820   20.6320  -27.6620 Cl  0  0  0  0  0  0  0  0  0  0  0  0
   -0.8460   22.9620  -27.6910 C   0  0  0  0  0  0  0  0  0  0  0  0
   -0.6100   24.2810  -28.0820 C   0  0  0  0  0  0  0  0  0  0  0  0
   -1.4890   24.9240  -28.9600 C   0  0  0  0  0  0  0  0  0  0  0  0
   -1.2380   26.2360  -29.3440 O   0  0  0  0  0  0  0  0  0  0  0  0
   -7.3270   23.4500  -30.8710 C   0  0  0  0  0  0  0  0  0  0  0  0
   -7.9030   22.3540  -31.5160 C   0  0  0  0  0  0  0  0  0  0  0  0
   -7.1380   21.5590  -32.3760 C   0  0  0  0  0  0  0  0  0  0  0  0
   -7.7360   20.4810  -33.0190 O   0  0  0  0  0  0  0  0  0  0  0  0
   -5.3370   18.5580  -33.3360 C   0  0  0  0  0  0  0  0  0  0  0  0
   -5.6000   17.9050  -34.5380 C   0  0  0  0  0  0  0  0  0  0  0  0
   -6.4930   16.8350  -34.4030 C   0  0  0  0  0  0  0  0  0  0  0  0
   -6.9440   16.6440  -33.1050 C   0  0  0  0  0  0  0  0  0  0  0  0
   -6.2350   17.8110  -32.1250 S   0  0  0  0  0  0  0  0  0  0  0  0
   -4.1734   23.2574  -32.1770 H   0  0  0  0  0  0  0  0  0  0  0  0
   -3.7395   22.3853  -29.4164 H   0  0  0  0  0  0  0  0  0  0  0  0
   -0.1471   22.4571  -27.0079 H   0  0  0  0  0  0  0  0  0  0  0  0
    0.2706   24.8170  -27.6982 H   0  0  0  0  0  0  0  0  0  0  0  0
   -7.9312   24.0661  -30.1889 H   0  0  0  0  0  0  0  0  0  0  0  0
   -8.9633   22.1145  -31.3472 H   0  0  0  0  0  0  0  0  0  0  0  0
   -5.1509   18.2005  -35.4977 H   0  0  0  0  0  0  0  0  0  0  0  0
   -6.8077   16.2045  -35.2476 H   0  0  0  0  0  0  0  0  0  0  0  0
   -7.6448   15.8633  -32.7742 H   0  0  0  0  0  0  0  0  0  0  0  0
  1  2  2  0
  2  3  1  0
  3  4  1  0
  4  5  2  0
  5  6  1  0
  6  7  1  0
  7  8  2  0
  7  9  2  0
  7 10  1  0
 10 11  1  0
 11 12  2  0
 12 13  1  0
 13 14  1  0
 13 15  2  0
 15 16  1  0
 16 17  2  0
 17 18  1  0
  6 19  2  0
 19 20  1  0
 20 21  2  0
 21 22  1  0
  2 23  1  0
 23 24  2  0
 24 25  1  0
 25 26  2  0
 26 27  1  0
 21  4  1  0
 27 23  1  0
 17 11  1  0
  5 28  1  0
 12 29  1  0
 15 30  1  0
 16 31  1  0
 19 32  1  0
 20 33  1  0
 24 34  1  0
 25 35  1  0
 26 36  1  0
M  CHG  4   3  -1  10  -1  18  -1  22  -1
M  END
>  <UniqueID>  (47) 
44

>  <SMILES>  (47) 
O=C([N-]c1cc(S(=O)(=O)[N-]c2cc(Cl)ccc2[O-])ccc1[O-])c1cccs1

>  <Energy>  (47) 
73.17646111333991

>  <Genealogy>  (47) 
O=C([N-]c1cc(S(=O)(=O)[N-]c2cc(Cl)ccc2[O-])ccc1[O-])c1cccs1 (protonated)
O=C([N-]c1cc(S(=O)(=O)[N-]c2cc(Cl)ccc2[O-])ccc1[O-])c1cccs1 (3D coordinates assigned)
O=C([N-]c1cc(S(=O)(=O)[N-]c2cc(Cl)ccc2[O-])ccc1[O-])c1cccs1 (optimized conformer: 73.17646111333991 kcal/mol)

>  <smiles>  (47) 
O=C(Nc1cc(S(=O)(=O)Nc2cc(Cl)ccc2O)ccc1O)c1cccs1

>  <score_type>  (47) 
oracle

>  <origin>  (47) 
adgpu

>  <m_score__min__energy>  (47) 
-13.43

>  <m_primary>  (47) 
energy

$$$$
47:0
     RDKit          3D

 52 54  0  0  0  0  0  0  0  0999 V2000
   -6.1280   19.6640  -33.9180 C   0  0  0  0  0  0  0  0  0  0  0  0
   -5.8870   20.8380  -33.0070 C   0  0  0  0  0  0  0  0  0  0  0  0
   -6.9490   21.3460  -32.2410 C   0  0  0  0  0  0  0  0  0  0  0  0
   -6.7520   22.4320  -31.3870 C   0  0  0  0  0  0  0  0  0  0  0  0
   -5.4950   23.0410  -31.3020 C   0  0  0  0  0  0  0  0  0  0  0  0
   -5.2240   24.3980  -30.2120 S   0  0  0  0  0  0  0  0  0  0  0  0
   -4.1730   25.2980  -30.8040 O   0  0  0  0  0  0  0  0  0  0  0  0
   -6.4940   25.1860  -30.0410 O   0  0  0  0  0  0  0  0  0  0  0  0
   -4.6760   23.7910  -28.6700 N   0  0  0  0  0  0  0  0  0  0  0  0
   -3.5230   24.5420  -28.1680 C   0  0  0  0  0  0  0  0  0  0  0  0
   -2.7370   23.5910  -27.2750 C   0  0  0  0  0  0  0  0  0  0  0  0
   -3.2110   22.1940  -27.6500 C   0  0  0  0  0  0  0  0  0  0  0  0
   -4.2370   22.3970  -28.7570 C   0  0  0  0  0  0  0  0  0  0  0  0
   -4.4350   22.5480  -32.0670 C   0  0  0  0  0  0  0  0  0  0  0  0
   -4.6120   21.4430  -32.9180 C   0  0  0  0  0  0  0  0  0  0  0  0
   -3.5130   20.9640  -33.7150 N   0  0  0  0  0  0  0  0  0  0  0  0
   -2.7530   19.7860  -33.3980 C   0  0  0  0  0  0  0  0  0  0  0  0
   -3.5060   18.4740  -32.7600 S   0  0  0  0  0  0  0  0  0  0  0  0
   -1.4030   19.6450  -33.8660 N   0  0  0  0  0  0  0  0  0  0  0  0
   -0.5210   20.7600  -34.0880 C   0  0  0  0  0  0  0  0  0  0  0  0
   -0.8770   21.9250  -33.7630 O   0  0  0  0  0  0  0  0  0  0  0  0
    0.8290   20.5450  -34.6610 C   0  0  0  0  0  0  0  0  0  0  0  0
    1.0990   21.0120  -35.9600 C   0  0  0  0  0  0  0  0  0  0  0  0
    2.3480   20.8020  -36.5480 C   0  0  0  0  0  0  0  0  0  0  0  0
    3.3430   20.1190  -35.8490 C   0  0  0  0  0  0  0  0  0  0  0  0
    3.0950   19.6500  -34.5580 C   0  0  0  0  0  0  0  0  0  0  0  0
    1.8480   19.8640  -33.9450 C   0  0  0  0  0  0  0  0  0  0  0  0
    1.6300   19.3580  -32.5430 C   0  0  0  0  0  0  0  0  0  0  0  0
   -6.3129   18.7633  -33.3142 H   0  0  0  0  0  0  0  0  0  0  0  0
   -7.0034   19.8660  -34.5527 H   0  0  0  0  0  0  0  0  0  0  0  0
   -5.2438   19.5048  -34.5527 H   0  0  0  0  0  0  0  0  0  0  0  0
   -7.9445   20.8839  -32.3149 H   0  0  0  0  0  0  0  0  0  0  0  0
   -7.5870   22.8103  -30.7791 H   0  0  0  0  0  0  0  0  0  0  0  0
   -5.4630   23.8630  -27.9830 H   0  0  0  0  0  0  0  0  0  0  0  0
   -2.8963   24.8799  -29.0065 H   0  0  0  0  0  0  0  0  0  0  0  0
   -3.8440   25.4342  -27.6104 H   0  0  0  0  0  0  0  0  0  0  0  0
   -1.6576   23.6933  -27.4608 H   0  0  0  0  0  0  0  0  0  0  0  0
   -2.9007   23.8044  -26.2084 H   0  0  0  0  0  0  0  0  0  0  0  0
   -2.3688   21.5866  -28.0129 H   0  0  0  0  0  0  0  0  0  0  0  0
   -3.6403   21.6631  -26.7875 H   0  0  0  0  0  0  0  0  0  0  0  0
   -3.7796   22.2037  -29.7385 H   0  0  0  0  0  0  0  0  0  0  0  0
   -5.0854   21.7061  -28.6431 H   0  0  0  0  0  0  0  0  0  0  0  0
   -3.4487   23.0309  -32.0026 H   0  0  0  0  0  0  0  0  0  0  0  0
   -3.2640   21.4810  -34.5880 H   0  0  0  0  0  0  0  0  0  0  0  0
   -1.0380   18.6790  -34.0180 H   0  0  0  0  0  0  0  0  0  0  0  0
    0.3179   21.5484  -36.5187 H   0  0  0  0  0  0  0  0  0  0  0  0
    2.5473   21.1755  -37.5633 H   0  0  0  0  0  0  0  0  0  0  0  0
    4.3246   19.9497  -36.3158 H   0  0  0  0  0  0  0  0  0  0  0  0
    3.8829   19.1076  -34.0149 H   0  0  0  0  0  0  0  0  0  0  0  0
    1.9589   20.1213  -31.8224 H   0  0  0  0  0  0  0  0  0  0  0  0
    0.5611   19.1470  -32.3914 H   0  0  0  0  0  0  0  0  0  0  0  0
    2.2108   18.4362  -32.3914 H   0  0  0  0  0  0  0  0  0  0  0  0
  1  2  1  0
  2  3  2  0
  3  4  1  0
  4  5  2  0
  5  6  1  0
  6  7  2  0
  6  8  2  0
  6  9  1  0
  9 10  1  0
 10 11  1  0
 11 12  1  0
 12 13  1  0
  5 14  1  0
 14 15  2  0
 15 16  1  0
 16 17  1  0
 17 18  2  0
 17 19  1  0
 19 20  1  0
 20 21  2  0
 20 22  1  0
 22 23  2  0
 23 24  1  0
 24 25  2  0
 25 26  1  0
 26 27  2  0
 27 28  1  0
 15  2  1  0
 27 22  1  0
 13  9  1  0
  1 29  1  0
  1 30  1  0
  1 31  1  0
  3 32  1  0
  4 33  1  0
  9 34  1  0
 10 35  1  0
 10 36  1  0
 11 37  1  0
 11 38  1  0
 12 39  1  0
 12 40  1  0
 13 41  1  0
 13 42  1  0
 14 43  1  0
 16 44  1  0
 19 45  1  0
 23 46  1  0
 24 47  1  0
 25 48  1  0
 26 49  1  0
 28 50  1  0
 28 51  1  0
 28 52  1  0
M  CHG  1   9   1
M  END
>  <UniqueID>  (48) 
45

>  <SMILES>  (48) 
Cc1ccc(S(=O)(=O)[NH+]2CCCC2)cc1NC(=S)NC(=O)c1ccccc1C

>  <Energy>  (48) 
64.71568334072452

>  <Genealogy>  (48) 
Cc1ccc(S(=O)(=O)[NH+]2CCCC2)cc1NC(=S)NC(=O)c1ccccc1C (protonated)
Cc1ccc(S(=O)(=O)[NH+]2CCCC2)cc1NC(=S)NC(=O)c1ccccc1C (3D coordinates assigned)
Cc1ccc(S(=O)(=O)[NH+]2CCCC2)cc1NC(=S)NC(=O)c1ccccc1C (nonaromatic ring conformer: 64.71568334072452 kcal/mol)

>  <smiles>  (48) 
Cc1ccc(S(=O)(=O)N2CCCC2)cc1NC(=S)NC(=O)c1ccccc1C

>  <score_type>  (48) 
oracle

>  <origin>  (48) 
adgpu

>  <m_score__min__energy>  (48) 
-9.1600000000000001

>  <m_primary>  (48) 
energy

$$$$
48:0
     RDKit          3D

 52 55  0  0  0  0  0  0  0  0999 V2000
   -5.7000   18.9270  -31.5740 O   0  0  0  0  0  0  0  0  0  0  0  0
   -6.6390   19.1980  -32.3710 C   0  0  0  0  0  0  0  0  0  0  0  0
   -6.9300   18.3110  -33.4640 N   0  0  0  0  0  0  0  0  0  0  0  0
   -6.0460   17.2480  -33.8480 C   0  0  0  0  0  0  0  0  0  0  0  0
   -6.5080   15.9250  -33.8110 C   0  0  0  0  0  0  0  0  0  0  0  0
   -5.6600   14.8710  -34.1600 C   0  0  0  0  0  0  0  0  0  0  0  0
   -4.3500   15.1320  -34.5660 C   0  0  0  0  0  0  0  0  0  0  0  0
   -3.8870   16.4490  -34.6350 C   0  0  0  0  0  0  0  0  0  0  0  0
   -4.7320   17.5170  -34.2810 C   0  0  0  0  0  0  0  0  0  0  0  0
   -4.3150   18.8490  -34.4250 O   0  0  0  0  0  0  0  0  0  0  0  0
   -3.3500   19.4890  -33.6340 C   0  0  0  0  0  0  0  0  0  0  0  0
   -3.0810   20.8660  -33.7540 C   0  0  0  0  0  0  0  0  0  0  0  0
   -2.0810   21.4560  -32.9760 C   0  0  0  0  0  0  0  0  0  0  0  0
   -1.3380   20.6800  -32.0820 C   0  0  0  0  0  0  0  0  0  0  0  0
   -1.5940   19.3100  -31.9670 C   0  0  0  0  0  0  0  0  0  0  0  0
   -2.5950   18.7190  -32.7420 C   0  0  0  0  0  0  0  0  0  0  0  0
   -7.4520   20.4130  -32.1450 C   0  0  0  0  0  0  0  0  0  0  0  0
   -8.8520   20.3260  -32.2490 C   0  0  0  0  0  0  0  0  0  0  0  0
   -9.6560   21.4340  -31.9780 C   0  0  0  0  0  0  0  0  0  0  0  0
   -9.0750   22.6400  -31.5950 C   0  0  0  0  0  0  0  0  0  0  0  0
   -7.6870   22.7490  -31.4890 C   0  0  0  0  0  0  0  0  0  0  0  0
   -6.8560   21.6450  -31.7670 C   0  0  0  0  0  0  0  0  0  0  0  0
   -5.4200   21.7850  -31.7260 N   0  0  0  0  0  0  0  0  0  0  0  0
   -4.7200   23.0690  -31.7440 C   0  0  0  0  0  0  0  0  0  0  0  0
   -3.8940   23.2500  -30.4930 C   0  0  0  0  0  0  0  0  0  0  0  0
   -3.5370   22.1240  -29.7290 C   0  0  0  0  0  0  0  0  0  0  0  0
   -2.7920   22.2710  -28.5570 C   0  0  0  0  0  0  0  0  0  0  0  0
   -2.4050   23.5410  -28.1270 C   0  0  0  0  0  0  0  0  0  0  0  0
   -2.7700   24.6680  -28.8650 C   0  0  0  0  0  0  0  0  0  0  0  0
   -3.5180   24.5320  -30.0390 C   0  0  0  0  0  0  0  0  0  0  0  0
   -3.8790   25.6750  -30.7460 O   0  0  0  0  0  0  0  0  0  0  0  0
   -7.8500   18.3830  -33.9530 H   0  0  0  0  0  0  0  0  0  0  0  0
   -7.5438   15.7156  -33.5055 H   0  0  0  0  0  0  0  0  0  0  0  0
   -6.0249   13.8343  -34.1148 H   0  0  0  0  0  0  0  0  0  0  0  0
   -3.6813   14.3001  -34.8320 H   0  0  0  0  0  0  0  0  0  0  0  0
   -2.8581   16.6513  -34.9673 H   0  0  0  0  0  0  0  0  0  0  0  0
   -3.6591   21.4786  -34.4615 H   0  0  0  0  0  0  0  0  0  0  0  0
   -1.8783   22.5333  -33.0675 H   0  0  0  0  0  0  0  0  0  0  0  0
   -0.5525   21.1465  -31.4693 H   0  0  0  0  0  0  0  0  0  0  0  0
   -1.0073   18.6977  -31.2664 H   0  0  0  0  0  0  0  0  0  0  0  0
   -2.7911   17.6405  -32.6504 H   0  0  0  0  0  0  0  0  0  0  0  0
   -9.3178   19.3751  -32.5469 H   0  0  0  0  0  0  0  0  0  0  0  0
  -10.7495   21.3545  -32.0670 H   0  0  0  0  0  0  0  0  0  0  0  0
   -9.7116   23.5098  -31.3752 H   0  0  0  0  0  0  0  0  0  0  0  0
   -7.2376   23.7060  -31.1855 H   0  0  0  0  0  0  0  0  0  0  0  0
   -4.8260   20.9290  -31.6830 H   0  0  0  0  0  0  0  0  0  0  0  0
   -4.0576   23.1058  -32.6214 H   0  0  0  0  0  0  0  0  0  0  0  0
   -5.4664   23.8756  -31.7920 H   0  0  0  0  0  0  0  0  0  0  0  0
   -3.8468   21.1208  -30.0570 H   0  0  0  0  0  0  0  0  0  0  0  0
   -2.5096   21.3837  -27.9714 H   0  0  0  0  0  0  0  0  0  0  0  0
   -1.8127   23.6537  -27.2070 H   0  0  0  0  0  0  0  0  0  0  0  0
   -2.4678   25.6684  -28.5216 H   0  0  0  0  0  0  0  0  0  0  0  0
  1  2  2  0
  2  3  1  0
  3  4  1  0
  4  5  2  0
  5  6  1  0
  6  7  2  0
  7  8  1  0
  8  9  2  0
  9 10  1  0
 10 11  1  0
 11 12  2  0
 12 13  1  0
 13 14  2  0
 14 15  1  0
 15 16  2  0
  2 17  1  0
 17 18  2  0
 18 19  1  0
 19 20  2  0
 20 21  1  0
 21 22  2  0
 22 23  1  0
 23 24  1  0
 24 25  1  0
 25 26  2  0
 26 27  1  0
 27 28  2  0
 28 29  1  0
 29 30  2  0
 30 31  1  0
  9  4  1  0
 16 11  1  0
 22 17  1  0
 30 25  1  0
  3 32  1  0
  5 33  1  0
  6 34  1  0
  7 35  1  0
  8 36  1  0
 12 37  1  0
 13 38  1  0
 14 39  1  0
 15 40  1  0
 16 41  1  0
 18 42  1  0
 19 43  1  0
 20 44  1  0
 21 45  1  0
 23 46  1  0
 24 47  1  0
 24 48  1  0
 26 49  1  0
 27 50  1  0
 28 51  1  0
 29 52  1  0
M  CHG  1  31  -1
M  END
>  <UniqueID>  (49) 
46

>  <SMILES>  (49) 
O=C(Nc1ccccc1Oc1ccccc1)c1ccccc1NCc1ccccc1[O-]

>  <Energy>  (49) 
73.29120491769946

>  <Genealogy>  (49) 
O=C(Nc1ccccc1Oc1ccccc1)c1ccccc1NCc1ccccc1[O-] (protonated)
O=C(Nc1ccccc1Oc1ccccc1)c1ccccc1NCc1ccccc1[O-] (3D coordinates assigned)
O=C(Nc1ccccc1Oc1ccccc1)c1ccccc1NCc1ccccc1[O-] (optimized conformer: 73.29120491769946 kcal/mol)

>  <smiles>  (49) 
O=C(Nc1ccccc1Oc1ccccc1)c1ccccc1NCc1ccccc1O

>  <score_type>  (49) 
oracle

>  <origin>  (49) 
adgpu

>  <m_score__min__energy>  (49) 
-13.07

>  <m_primary>  (49) 
energy

$$$$
