0:0
     RDKit          3D

 42 44  0  0  0  0  0  0  0  0999 V2000
   -7.9120   20.4240  -33.2330 O   0  0  0  0  0  0  0  0  0  0  0  0
   -7.3780   21.2300  -32.4230 C   0  0  0  0  0  0  0  0  0  0  0  0
   -8.1910   21.9250  -31.5330 C   0  0  0  0  0  0  0  0  0  0  0  0
   -9.5360   21.7450  -31.5330 F   0  0  0  0  0  0  0  0  0  0  0  0
   -7.6080   22.8230  -30.6510 C   0  0  0  0  0  0  0  0  0  0  0  0
   -6.2580   23.0140  -30.6490 N   0  0  0  0  0  0  0  0  0  0  0  0
   -5.6920   24.0260  -29.7400 C   0  0  0  0  0  0  0  0  0  0  0  0
   -5.0280   25.1730  -30.5150 C   0  0  0  0  0  0  0  0  0  0  0  0
   -3.6260   25.2420  -30.2460 O   0  0  0  0  0  0  0  0  0  0  0  0
   -2.9020   24.3880  -29.3970 C   0  0  0  0  0  0  0  0  0  0  0  0
   -3.0800   24.5280  -28.0150 C   0  0  0  0  0  0  0  0  0  0  0  0
   -2.4230   23.6750  -27.1230 C   0  0  0  0  0  0  0  0  0  0  0  0
   -1.5700   22.6800  -27.6060 C   0  0  0  0  0  0  0  0  0  0  0  0
   -1.3650   22.5440  -28.9810 C   0  0  0  0  0  0  0  0  0  0  0  0
   -2.0190   23.3970  -29.8760 C   0  0  0  0  0  0  0  0  0  0  0  0
   -5.4630   22.3040  -31.5160 C   0  0  0  0  0  0  0  0  0  0  0  0
   -4.2110   22.4740  -31.4970 O   0  0  0  0  0  0  0  0  0  0  0  0
   -6.0200   21.4270  -32.4170 N   0  0  0  0  0  0  0  0  0  0  0  0
   -5.1540   20.6900  -33.3600 C   0  0  0  0  0  0  0  0  0  0  0  0
   -5.5290   19.2310  -33.3920 C   0  0  0  0  0  0  0  0  0  0  0  0
   -5.7410   18.5750  -34.6150 C   0  0  0  0  0  0  0  0  0  0  0  0
   -6.0620   17.2150  -34.6410 C   0  0  0  0  0  0  0  0  0  0  0  0
   -6.1710   16.4980  -33.4460 C   0  0  0  0  0  0  0  0  0  0  0  0
   -6.4810   15.1780  -33.4720 F   0  0  0  0  0  0  0  0  0  0  0  0
   -5.9600   17.1410  -32.2240 C   0  0  0  0  0  0  0  0  0  0  0  0
   -5.6380   18.5020  -32.1950 C   0  0  0  0  0  0  0  0  0  0  0  0
   -8.2398   23.3854  -29.9477 H   0  0  0  0  0  0  0  0  0  0  0  0
   -6.4994   24.4370  -29.1161 H   0  0  0  0  0  0  0  0  0  0  0  0
   -4.9246   23.5404  -29.1193 H   0  0  0  0  0  0  0  0  0  0  0  0
   -5.1780   25.0106  -31.5926 H   0  0  0  0  0  0  0  0  0  0  0  0
   -5.4887   26.1191  -30.1946 H   0  0  0  0  0  0  0  0  0  0  0  0
   -3.7426   25.3161  -27.6278 H   0  0  0  0  0  0  0  0  0  0  0  0
   -2.5780   23.7876  -26.0398 H   0  0  0  0  0  0  0  0  0  0  0  0
   -1.0600   22.0039  -26.9040 H   0  0  0  0  0  0  0  0  0  0  0  0
   -0.6880   21.7646  -29.3607 H   0  0  0  0  0  0  0  0  0  0  0  0
   -1.8444   23.2949  -30.9572 H   0  0  0  0  0  0  0  0  0  0  0  0
   -5.2712   21.1159  -34.3674 H   0  0  0  0  0  0  0  0  0  0  0  0
   -4.1091   20.7812  -33.0285 H   0  0  0  0  0  0  0  0  0  0  0  0
   -5.6540   19.1345  -35.5581 H   0  0  0  0  0  0  0  0  0  0  0  0
   -6.2291   16.7082  -35.6029 H   0  0  0  0  0  0  0  0  0  0  0  0
   -6.0471   16.5767  -31.2838 H   0  0  0  0  0  0  0  0  0  0  0  0
   -5.4693   19.0042  -31.2310 H   0  0  0  0  0  0  0  0  0  0  0  0
  1  2  2  0
  2  3  1  0
  3  4  1  0
  3  5  2  0
  5  6  1  0
  6  7  1  0
  7  8  1  0
  8  9  1  0
  9 10  1  0
 10 11  2  0
 11 12  1  0
 12 13  2  0
 13 14  1  0
 14 15  2  0
  6 16  1  0
 16 17  2  0
 16 18  1  0
 18 19  1  0
 19 20  1  0
 20 21  2  0
 21 22  1  0
 22 23  2  0
 23 24  1  0
 23 25  1  0
 25 26  2  0
 18  2  1  0
 26 20  1  0
 15 10  1  0
  5 27  1  0
  7 28  1  0
  7 29  1  0
  8 30  1  0
  8 31  1  0
 11 32  1  0
 12 33  1  0
 13 34  1  0
 14 35  1  0
 15 36  1  0
 19 37  1  0
 19 38  1  0
 21 39  1  0
 22 40  1  0
 25 41  1  0
 26 42  1  0
M  END
>  <UniqueID>  (1) 
1

>  <SMILES>  (1) 
O=c1c(F)cn(CCOc2ccccc2)c(=O)n1Cc1ccc(F)cc1

>  <Energy>  (1) 
47.61818691215697

>  <Genealogy>  (1) 
O=c1c(F)cn(CCOc2ccccc2)c(=O)n1Cc1ccc(F)cc1 (3D coordinates assigned)
O=c1c(F)cn(CCOc2ccccc2)c(=O)n1Cc1ccc(F)cc1 (optimized conformer: 47.61818691215697 kcal/mol)

>  <smiles>  (1) 
O=c1c(F)cn(CCOc2ccccc2)c(=O)n1Cc1ccc(F)cc1

>  <score_type>  (1) 
oracle

>  <origin>  (1) 
adgpu

>  <m_score__min__energy>  (1) 
-8.1699999999999999

>  <m_primary>  (1) 
energy

$$$$
1:0
     RDKit          3D

 40 42  0  0  0  0  0  0  0  0999 V2000
   -6.0294   18.5504  -32.9248 H   0  0  0  0  0  0  0  0  0  0  0  0
   -6.2390   19.6150  -32.7440 C   0  0  0  0  0  0  0  0  0  0  0  0
   -5.2230   20.5610  -32.8920 C   0  0  0  0  0  0  0  0  0  0  0  0
   -4.2123   20.2406  -33.1850 H   0  0  0  0  0  0  0  0  0  0  0  0
   -5.4890   21.9160  -32.6680 C   0  0  0  0  0  0  0  0  0  0  0  0
   -4.6844   22.6579  -32.7788 H   0  0  0  0  0  0  0  0  0  0  0  0
   -6.7800   22.3330  -32.3020 C   0  0  0  0  0  0  0  0  0  0  0  0
   -7.0570   23.7820  -32.0260 C   0  0  0  0  0  0  0  0  0  0  0  0
   -7.6206   23.8754  -31.0860 H   0  0  0  0  0  0  0  0  0  0  0  0
   -7.6483   24.2067  -32.8506 H   0  0  0  0  0  0  0  0  0  0  0  0
   -5.7940   24.5030  -31.9100 N   0  0  0  0  0  0  0  0  0  0  0  0
   -5.0170   24.4480  -30.8730 C   0  0  0  0  0  0  0  0  0  0  0  0
   -3.8520   25.1290  -30.8070 N   0  0  0  0  0  0  0  0  0  0  0  0
   -3.2140   24.9050  -29.6280 C   0  0  0  0  0  0  0  0  0  0  0  0
   -1.9850   25.4860  -29.3440 O   0  0  0  0  0  0  0  0  0  0  0  0
   -3.8750   24.0550  -28.7440 C   0  0  0  0  0  0  0  0  0  0  0  0
   -3.3630   23.5750  -27.4230 C   0  0  0  0  0  0  0  0  0  0  0  0
   -2.5189   22.8887  -27.5855 H   0  0  0  0  0  0  0  0  0  0  0  0
   -4.1687   23.0498  -26.8891 H   0  0  0  0  0  0  0  0  0  0  0  0
   -2.9050   24.7420  -26.6050 C   0  0  0  0  0  0  0  0  0  0  0  0
   -3.7160   25.3050  -25.8210 O   0  0  0  0  0  0  0  0  0  0  0  0
   -1.5480   25.2000  -26.7030 N   0  0  0  0  0  0  0  0  0  0  0  0
   -0.9840   24.8850  -27.5240 H   0  0  0  0  0  0  0  0  0  0  0  0
   -0.9470   26.1120  -25.7650 C   0  0  0  0  0  0  0  0  0  0  0  0
   -0.9210   27.4940  -26.0340 C   0  0  0  0  0  0  0  0  0  0  0  0
   -1.3445   27.8754  -26.9748 H   0  0  0  0  0  0  0  0  0  0  0  0
   -0.3610   28.3840  -25.1140 C   0  0  0  0  0  0  0  0  0  0  0  0
   -0.3370   29.4610  -25.3367 H   0  0  0  0  0  0  0  0  0  0  0  0
    0.1680   27.9090  -23.9130 C   0  0  0  0  0  0  0  0  0  0  0  0
    0.6122   28.6114  -23.1924 H   0  0  0  0  0  0  0  0  0  0  0  0
    0.1340   26.5420  -23.6250 C   0  0  0  0  0  0  0  0  0  0  0  0
    0.5474   26.1719  -22.6752 H   0  0  0  0  0  0  0  0  0  0  0  0
   -0.4250   25.6400  -24.5420 C   0  0  0  0  0  0  0  0  0  0  0  0
   -0.4320   24.2350  -24.2190 C   0  0  0  0  0  0  0  0  0  0  0  0
   -0.4370   23.1060  -23.9620 N   0  0  0  0  0  0  0  0  0  0  0  0
   -5.3010   23.5390  -29.4760 S   0  0  0  0  0  0  0  0  0  0  0  0
   -7.7930   21.3730  -32.1400 C   0  0  0  0  0  0  0  0  0  0  0  0
   -8.8019   21.6870  -31.8343 H   0  0  0  0  0  0  0  0  0  0  0  0
   -7.5230   20.0200  -32.3660 C   0  0  0  0  0  0  0  0  0  0  0  0
   -8.3216   19.2731  -32.2463 H   0  0  0  0  0  0  0  0  0  0  0  0
  1  2  1  0
  2  3  2  0
  3  4  1  0
  3  5  1  0
  5  6  1  0
  5  7  2  0
  7  8  1  0
  8  9  1  0
  8 10  1  0
  8 11  1  0
 11 12  2  0
 12 13  1  0
 13 14  1  0
 14 15  1  0
 14 16  2  0
 16 17  1  0
 17 18  1  0
 17 19  1  0
 17 20  1  0
 20 21  2  0
 20 22  1  0
 22 23  1  0
 22 24  1  0
 24 25  2  0
 25 26  1  0
 25 27  1  0
 27 28  1  0
 27 29  2  0
 29 30  1  0
 29 31  1  0
 31 32  1  0
 31 33  2  0
 33 34  1  0
 34 35  3  0
 16 36  1  0
  7 37  1  0
 37 38  1  0
 37 39  2  0
 39 40  1  0
 39  2  1  0
 36 12  1  0
 33 24  1  0
M  CHG  2  13  -1  15  -1
M  END
>  <UniqueID>  (2) 
2

>  <SMILES>  (2) 
N#Cc1ccccc1NC(=O)Cc1s/c(=N\Cc2ccccc2)[n-]c1[O-]

>  <Energy>  (2) 
73.10400468459177

>  <Genealogy>  (2) 
N#Cc1ccccc1NC(=O)Cc1sc(=NCc2ccccc2)[n-]c1[O-] (protonated)
N#Cc1ccccc1NC(=O)Cc1s/c(=N\Cc2ccccc2)[n-]c1[O-] (cis-trans isomerization)
N#Cc1ccccc1NC(=O)Cc1s/c(=N\Cc2ccccc2)[n-]c1[O-] (3D coordinates assigned)
N#Cc1ccccc1NC(=O)Cc1s/c(=N\Cc2ccccc2)[n-]c1[O-] (optimized conformer: 73.10400468459177 kcal/mol)

>  <smiles>  (2) 
N#Cc1ccccc1NC(=O)Cc1sc(=NCc2ccccc2)[nH]c1O

>  <score_type>  (2) 
oracle

>  <origin>  (2) 
adgpu

>  <m_score__min__energy>  (2) 
-13.1

>  <m_primary>  (2) 
energy

$$$$
2:0
     RDKit          3D

 61 64  0  0  0  0  0  0  0  0999 V2000
   -2.1158   19.6347  -30.9034 H   0  0  0  0  0  0  0  0  0  0  0  0
   -1.6430   19.7570  -31.8890 C   0  0  0  0  0  0  0  0  0  0  0  0
   -1.8170   20.9400  -32.6020 C   0  0  0  0  0  0  0  0  0  0  0  0
   -2.4171   21.7562  -32.1735 H   0  0  0  0  0  0  0  0  0  0  0  0
   -1.2310   21.0920  -33.8600 C   0  0  0  0  0  0  0  0  0  0  0  0
   -1.3764   22.0278  -34.4196 H   0  0  0  0  0  0  0  0  0  0  0  0
   -0.4540   20.0560  -34.4200 C   0  0  0  0  0  0  0  0  0  0  0  0
    0.0930   20.1740  -35.7060 O   0  0  0  0  0  0  0  0  0  0  0  0
    1.4850   20.1430  -36.0040 C   0  0  0  0  0  0  0  0  0  0  0  0
    2.0605   20.1302  -35.0666 H   0  0  0  0  0  0  0  0  0  0  0  0
    1.7150   19.2395  -36.5878 H   0  0  0  0  0  0  0  0  0  0  0  0
    1.7550   21.0354  -36.5878 H   0  0  0  0  0  0  0  0  0  0  0  0
   -0.2520   18.8680  -33.6750 C   0  0  0  0  0  0  0  0  0  0  0  0
    0.5370   17.7670  -34.1500 N   0  0  0  0  0  0  0  0  0  0  0  0
    0.1370   16.6690  -35.4320 S   0  0  0  0  0  0  0  0  0  0  0  0
    0.1550   17.4070  -36.7400 O   0  0  0  0  0  0  0  0  0  0  0  0
    1.1280   15.5390  -35.4580 O   0  0  0  0  0  0  0  0  0  0  0  0
   -1.4720   15.9940  -35.1620 C   0  0  0  0  0  0  0  0  0  0  0  0
   -2.4840   16.8010  -34.6180 C   0  0  0  0  0  0  0  0  0  0  0  0
   -2.2661   17.8489  -34.3643 H   0  0  0  0  0  0  0  0  0  0  0  0
   -3.7710   16.2860  -34.3940 C   0  0  0  0  0  0  0  0  0  0  0  0
   -4.8350   17.1390  -33.8100 C   0  0  0  0  0  0  0  0  0  0  0  0
   -5.5480   16.6900  -32.8690 O   0  0  0  0  0  0  0  0  0  0  0  0
   -5.0910   18.4540  -34.3300 N   0  0  0  0  0  0  0  0  0  0  0  0
   -4.9260   18.6150  -35.3490 H   0  0  0  0  0  0  0  0  0  0  0  0
   -5.6370   19.5350  -33.5550 C   0  0  0  0  0  0  0  0  0  0  0  0
   -6.9550   19.4460  -33.0840 C   0  0  0  0  0  0  0  0  0  0  0  0
   -7.5440   18.5376  -33.2786 H   0  0  0  0  0  0  0  0  0  0  0  0
   -7.5260   20.5030  -32.3690 C   0  0  0  0  0  0  0  0  0  0  0  0
   -8.5576   20.4182  -31.9967 H   0  0  0  0  0  0  0  0  0  0  0  0
   -6.7910   21.6680  -32.1250 C   0  0  0  0  0  0  0  0  0  0  0  0
   -7.5390   23.0060  -31.2590 S   0  0  0  0  0  0  0  0  0  0  0  0
   -8.8560   23.3290  -31.9050 O   0  0  0  0  0  0  0  0  0  0  0  0
   -7.7790   22.6430  -29.8190 O   0  0  0  0  0  0  0  0  0  0  0  0
   -6.5100   24.4010  -31.3300 N   0  0  0  0  0  0  0  0  0  0  0  0
   -5.3390   24.4760  -30.7740 C   0  0  0  0  0  0  0  0  0  0  0  0
   -4.5620   25.5720  -30.8580 N   0  0  0  0  0  0  0  0  0  0  0  0
   -3.4720   25.3000  -30.2000 O   0  0  0  0  0  0  0  0  0  0  0  0
   -3.5080   24.0850  -29.7020 C   0  0  0  0  0  0  0  0  0  0  0  0
   -2.4260   23.4730  -28.8790 C   0  0  0  0  0  0  0  0  0  0  0  0
   -2.6582   23.6043  -27.8118 H   0  0  0  0  0  0  0  0  0  0  0  0
   -2.3529   22.3998  -29.1090 H   0  0  0  0  0  0  0  0  0  0  0  0
   -1.4685   23.9633  -29.1090 H   0  0  0  0  0  0  0  0  0  0  0  0
   -4.7070   23.4920  -30.0350 C   0  0  0  0  0  0  0  0  0  0  0  0
   -5.0708   22.4864  -29.7772 H   0  0  0  0  0  0  0  0  0  0  0  0
   -5.4770   21.7690  -32.5990 C   0  0  0  0  0  0  0  0  0  0  0  0
   -4.8932   22.6813  -32.4069 H   0  0  0  0  0  0  0  0  0  0  0  0
   -4.9050   20.7130  -33.3160 C   0  0  0  0  0  0  0  0  0  0  0  0
   -3.8765   20.8038  -33.6955 H   0  0  0  0  0  0  0  0  0  0  0  0
   -4.0300   14.9420  -34.7040 C   0  0  0  0  0  0  0  0  0  0  0  0
   -5.0315   14.5238  -34.5246 H   0  0  0  0  0  0  0  0  0  0  0  0
   -3.0270   14.1320  -35.2380 C   0  0  0  0  0  0  0  0  0  0  0  0
   -3.2455   13.0814  -35.4797 H   0  0  0  0  0  0  0  0  0  0  0  0
   -1.7380   14.6480  -35.4700 C   0  0  0  0  0  0  0  0  0  0  0  0
   -0.7060   13.8540  -35.9960 O   0  0  0  0  0  0  0  0  0  0  0  0
   -0.1160   12.7450  -35.3250 C   0  0  0  0  0  0  0  0  0  0  0  0
   -0.1936   12.8909  -34.2375 H   0  0  0  0  0  0  0  0  0  0  0  0
   -0.6423   11.8219  -35.6096 H   0  0  0  0  0  0  0  0  0  0  0  0
    0.9436   12.6656  -35.6096 H   0  0  0  0  0  0  0  0  0  0  0  0
   -0.8690   18.7260  -32.4240 C   0  0  0  0  0  0  0  0  0  0  0  0
   -0.7417   17.7916  -31.8578 H   0  0  0  0  0  0  0  0  0  0  0  0
  1  2  1  0
  2  3  2  0
  3  4  1  0
  3  5  1  0
  5  6  1  0
  5  7  2  0
  7  8  1  0
  8  9  1  0
  9 10  1  0
  9 11  1  0
  9 12  1  0
  7 13  1  0
 13 14  1  0
 14 15  1  0
 15 16  2  0
 15 17  2  0
 15 18  1  0
 18 19  2  0
 19 20  1  0
 19 21  1  0
 21 22  1  0
 22 23  2  0
 22 24  1  0
 24 25  1  0
 24 26  1  0
 26 27  2  0
 27 28  1  0
 27 29  1  0
 29 30  1  0
 29 31  2  0
 31 32  1  0
 32 33  2  0
 32 34  2  0
 32 35  1  0
 35 36  2  0
 36 37  1  0
 37 38  1  0
 38 39  1  0
 39 40  1  0
 40 41  1  0
 40 42  1  0
 40 43  1  0
 39 44  2  0
 44 45  1  0
 31 46  1  0
 46 47  1  0
 46 48  2  0
 48 49  1  0
 21 50  2  0
 50 51  1  0
 50 52  1  0
 52 53  1  0
 52 54  2  0
 54 55  1  0
 55 56  1  0
 56 57  1  0
 56 58  1  0
 56 59  1  0
 13 60  2  0
 60 61  1  0
 60  2  1  0
 54 18  1  0
 48 26  1  0
 44 36  1  0
M  CHG  2  14  -1  37  -1
M  END
>  <UniqueID>  (3) 
3

>  <SMILES>  (3) 
COc1ccccc1[N-]S(=O)(=O)c1cc(C(=O)Nc2ccc(S(=O)(=O)/N=c3\cc(C)o[n-]3)cc2)ccc1OC

>  <Energy>  (3) 
110.69866344225142

>  <Genealogy>  (3) 
COc1ccccc1[N-]S(=O)(=O)c1cc(C(=O)Nc2ccc(S(=O)(=O)N=c3cc(C)o[n-]3)cc2)ccc1OC (protonated)
COc1ccccc1[N-]S(=O)(=O)c1cc(C(=O)Nc2ccc(S(=O)(=O)/N=c3\cc(C)o[n-]3)cc2)ccc1OC (cis-trans isomerization)
COc1ccccc1[N-]S(=O)(=O)c1cc(C(=O)Nc2ccc(S(=O)(=O)/N=c3\cc(C)o[n-]3)cc2)ccc1OC (3D coordinates assigned)
COc1ccccc1[N-]S(=O)(=O)c1cc(C(=O)Nc2ccc(S(=O)(=O)/N=c3\cc(C)o[n-]3)cc2)ccc1OC (optimized conformer: 110.69866344225142 kcal/mol)

>  <smiles>  (3) 
COc1ccccc1NS(=O)(=O)c1cc(C(=O)Nc2ccc(S(=O)(=O)N=c3cc(C)o[nH]3)cc2)ccc1OC

>  <score_type>  (3) 
oracle

>  <origin>  (3) 
adgpu

>  <m_score__min__energy>  (3) 
-10.49

>  <m_primary>  (3) 
energy

$$$$
3:0
     RDKit          3D

 46 48  0  0  0  0  0  0  0  0999 V2000
   -9.0550   18.6180  -31.9570 C   0  0  0  0  0  0  0  0  0  0  0  0
   -8.6900   20.0680  -31.8470 C   0  0  0  0  0  0  0  0  0  0  0  0
   -9.6660   21.0600  -32.0310 C   0  0  0  0  0  0  0  0  0  0  0  0
   -9.3170   22.4110  -31.9640 C   0  0  0  0  0  0  0  0  0  0  0  0
   -7.9920   22.7830  -31.7220 C   0  0  0  0  0  0  0  0  0  0  0  0
   -7.0030   21.8030  -31.5510 C   0  0  0  0  0  0  0  0  0  0  0  0
   -5.6360   22.1820  -31.3210 N   0  0  0  0  0  0  0  0  0  0  0  0
   -5.3020   23.1120  -30.2370 C   0  0  0  0  0  0  0  0  0  0  0  0
   -4.8030   24.4100  -30.7910 C   0  0  0  0  0  0  0  0  0  0  0  0
   -5.5570   25.1040  -31.5250 O   0  0  0  0  0  0  0  0  0  0  0  0
   -3.4870   24.8700  -30.4650 N   0  0  0  0  0  0  0  0  0  0  0  0
   -2.5350   24.0980  -29.6780 C   0  0  0  0  0  0  0  0  0  0  0  0
   -1.8790   24.9740  -28.6580 C   0  0  0  0  0  0  0  0  0  0  0  0
   -1.8180   24.7290  -27.3010 C   0  0  0  0  0  0  0  0  0  0  0  0
   -1.1090   25.7840  -26.7680 C   0  0  0  0  0  0  0  0  0  0  0  0
   -0.7820   26.6030  -27.8310 C   0  0  0  0  0  0  0  0  0  0  0  0
   -1.2550   26.0920  -28.9450 O   0  0  0  0  0  0  0  0  0  0  0  0
   -4.3560   21.4450  -32.2410 S   0  0  0  0  0  0  0  0  0  0  0  0
   -4.0230   22.3180  -33.4190 O   0  0  0  0  0  0  0  0  0  0  0  0
   -4.8040   20.1090  -32.7640 O   0  0  0  0  0  0  0  0  0  0  0  0
   -2.9280   21.2330  -31.2320 C   0  0  0  0  0  0  0  0  0  0  0  0
   -1.6540   21.5150  -31.7480 C   0  0  0  0  0  0  0  0  0  0  0  0
   -0.5220   21.3920  -30.9370 C   0  0  0  0  0  0  0  0  0  0  0  0
   -0.6560   20.9820  -29.6070 C   0  0  0  0  0  0  0  0  0  0  0  0
   -1.9220   20.6930  -29.0890 C   0  0  0  0  0  0  0  0  0  0  0  0
   -3.0550   20.8170  -29.8980 C   0  0  0  0  0  0  0  0  0  0  0  0
   -7.3560   20.4460  -31.6230 C   0  0  0  0  0  0  0  0  0  0  0  0
   -9.1628   18.1896  -30.9496 H   0  0  0  0  0  0  0  0  0  0  0  0
  -10.0060   18.5195  -32.5011 H   0  0  0  0  0  0  0  0  0  0  0  0
   -8.2640   18.0810  -32.5011 H   0  0  0  0  0  0  0  0  0  0  0  0
  -10.7092   20.7725  -32.2286 H   0  0  0  0  0  0  0  0  0  0  0  0
  -10.0873   23.1840  -32.1021 H   0  0  0  0  0  0  0  0  0  0  0  0
   -7.7235   23.8482  -31.6654 H   0  0  0  0  0  0  0  0  0  0  0  0
   -6.2011   23.2992  -29.6315 H   0  0  0  0  0  0  0  0  0  0  0  0
   -4.5117   22.6642  -29.6166 H   0  0  0  0  0  0  0  0  0  0  0  0
   -3.0641   23.2795  -29.1680 H   0  0  0  0  0  0  0  0  0  0  0  0
   -1.7649   23.6871  -30.3474 H   0  0  0  0  0  0  0  0  0  0  0  0
   -2.2452   23.8723  -26.7591 H   0  0  0  0  0  0  0  0  0  0  0  0
   -0.8548   25.9419  -25.7095 H   0  0  0  0  0  0  0  0  0  0  0  0
   -0.2120   27.5408  -27.7562 H   0  0  0  0  0  0  0  0  0  0  0  0
   -1.5455   21.8342  -32.7951 H   0  0  0  0  0  0  0  0  0  0  0  0
    0.4742   21.6178  -31.3452 H   0  0  0  0  0  0  0  0  0  0  0  0
    0.2345   20.8868  -28.9683 H   0  0  0  0  0  0  0  0  0  0  0  0
   -2.0265   20.3676  -28.0434 H   0  0  0  0  0  0  0  0  0  0  0  0
   -4.0495   20.5877  -29.4876 H   0  0  0  0  0  0  0  0  0  0  0  0
   -6.5823   19.6734  -31.5031 H   0  0  0  0  0  0  0  0  0  0  0  0
  1  2  1  0
  2  3  2  0
  3  4  1  0
  4  5  2  0
  5  6  1  0
  6  7  1  0
  7  8  1  0
  8  9  1  0
  9 10  2  0
  9 11  1  0
 11 12  1  0
 12 13  1  0
 13 14  2  0
 14 15  1  0
 15 16  2  0
 16 17  1  0
  7 18  1  0
 18 19  2  0
 18 20  2  0
 18 21  1  0
 21 22  2  0
 22 23  1  0
 23 24  2  0
 24 25  1  0
 25 26  2  0
  6 27  2  0
 27  2  1  0
 17 13  1  0
 26 21  1  0
  1 28  1  0
  1 29  1  0
  1 30  1  0
  3 31  1  0
  4 32  1  0
  5 33  1  0
  8 34  1  0
  8 35  1  0
 12 36  1  0
 12 37  1  0
 14 38  1  0
 15 39  1  0
 16 40  1  0
 22 41  1  0
 23 42  1  0
 24 43  1  0
 25 44  1  0
 26 45  1  0
 27 46  1  0
M  CHG  1  11  -1
M  END
>  <UniqueID>  (4) 
4

>  <SMILES>  (4) 
Cc1cccc(N(CC(=O)[N-]Cc2ccco2)S(=O)(=O)c2ccccc2)c1

>  <Energy>  (4) 
72.46585101639405

>  <Genealogy>  (4) 
Cc1cccc(N(CC(=O)[N-]Cc2ccco2)S(=O)(=O)c2ccccc2)c1 (protonated)
Cc1cccc(N(CC(=O)[N-]Cc2ccco2)S(=O)(=O)c2ccccc2)c1 (3D coordinates assigned)
Cc1cccc(N(CC(=O)[N-]Cc2ccco2)S(=O)(=O)c2ccccc2)c1 (optimized conformer: 72.46585101639405 kcal/mol)

>  <smiles>  (4) 
Cc1cccc(N(CC(=O)NCc2ccco2)S(=O)(=O)c2ccccc2)c1

>  <score_type>  (4) 
oracle

>  <origin>  (4) 
adgpu

>  <m_score__min__energy>  (4) 
-11.4

>  <m_primary>  (4) 
energy

$$$$
4:0
     RDKit          3D

 41 43  0  0  0  0  0  0  0  0999 V2000
   -4.0810   23.7260  -27.4730 O   0  0  0  0  0  0  0  0  0  0  0  0
   -3.3350   24.5540  -28.0650 C   0  0  0  0  0  0  0  0  0  0  0  0
   -3.5770   24.8830  -29.4450 N   0  0  0  0  0  0  0  0  0  0  0  0
   -4.4870   24.1520  -30.2860 C   0  0  0  0  0  0  0  0  0  0  0  0
   -5.6650   24.7540  -30.7660 C   0  0  0  0  0  0  0  0  0  0  0  0
   -6.5640   24.0260  -31.5500 C   0  0  0  0  0  0  0  0  0  0  0  0
   -6.3030   22.6890  -31.8560 C   0  0  0  0  0  0  0  0  0  0  0  0
   -5.1470   22.0750  -31.3720 C   0  0  0  0  0  0  0  0  0  0  0  0
   -4.2410   22.7960  -30.5820 C   0  0  0  0  0  0  0  0  0  0  0  0
   -3.0480   22.1530  -30.1140 N   0  0  0  0  0  0  0  0  0  0  0  0
   -3.1440   21.2360  -28.9720 C   0  0  0  0  0  0  0  0  0  0  0  0
   -1.7920   20.5850  -28.6610 C   0  0  0  0  0  0  0  0  0  0  0  0
   -0.6810   21.6360  -28.7060 C   0  0  0  0  0  0  0  0  0  0  0  0
   -0.5680   22.3090  -30.0900 C   0  0  0  0  0  0  0  0  0  0  0  0
   -1.8420   22.1980  -30.9470 C   0  0  0  0  0  0  0  0  0  0  0  0
   -2.2030   25.1510  -27.3240 C   0  0  0  0  0  0  0  0  0  0  0  0
   -2.1500   25.0050  -25.9270 C   0  0  0  0  0  0  0  0  0  0  0  0
   -1.0900   25.5460  -25.1960 C   0  0  0  0  0  0  0  0  0  0  0  0
   -0.0750   26.2470  -25.8490 C   0  0  0  0  0  0  0  0  0  0  0  0
   -0.1250   26.4180  -27.2340 C   0  0  0  0  0  0  0  0  0  0  0  0
   -1.1870   25.8850  -27.9730 C   0  0  0  0  0  0  0  0  0  0  0  0
   -1.2350   26.1190  -29.3420 O   0  0  0  0  0  0  0  0  0  0  0  0
   -3.0520   25.6750  -29.8760 H   0  0  0  0  0  0  0  0  0  0  0  0
   -5.8796   25.8050  -30.5223 H   0  0  0  0  0  0  0  0  0  0  0  0
   -7.4787   24.5071  -31.9266 H   0  0  0  0  0  0  0  0  0  0  0  0
   -7.0087   22.1195  -32.4787 H   0  0  0  0  0  0  0  0  0  0  0  0
   -4.9459   21.0204  -31.6116 H   0  0  0  0  0  0  0  0  0  0  0  0
   -3.4817   21.7984  -28.0890 H   0  0  0  0  0  0  0  0  0  0  0  0
   -3.8602   20.4408  -29.2264 H   0  0  0  0  0  0  0  0  0  0  0  0
   -1.8269   20.1348  -27.6579 H   0  0  0  0  0  0  0  0  0  0  0  0
   -1.5844   19.8086  -29.4120 H   0  0  0  0  0  0  0  0  0  0  0  0
   -0.8944   22.4090  -27.9530 H   0  0  0  0  0  0  0  0  0  0  0  0
    0.2723   21.1273  -28.5000 H   0  0  0  0  0  0  0  0  0  0  0  0
   -0.3449   23.3755  -29.9387 H   0  0  0  0  0  0  0  0  0  0  0  0
    0.2289   21.7824  -30.6355 H   0  0  0  0  0  0  0  0  0  0  0  0
   -1.9009   23.0704  -31.6144 H   0  0  0  0  0  0  0  0  0  0  0  0
   -1.7878   21.2646  -31.5264 H   0  0  0  0  0  0  0  0  0  0  0  0
   -2.9503   24.4600  -25.4050 H   0  0  0  0  0  0  0  0  0  0  0  0
   -1.0550   25.4194  -24.1039 H   0  0  0  0  0  0  0  0  0  0  0  0
    0.7639   26.6646  -25.2729 H   0  0  0  0  0  0  0  0  0  0  0  0
    0.6739   26.9741  -27.7463 H   0  0  0  0  0  0  0  0  0  0  0  0
  1  2  2  0
  2  3  1  0
  3  4  1  0
  4  5  2  0
  5  6  1  0
  6  7  2  0
  7  8  1  0
  8  9  2  0
  9 10  1  0
 10 11  1  0
 11 12  1  0
 12 13  1  0
 13 14  1  0
 14 15  1  0
  2 16  1  0
 16 17  2  0
 17 18  1  0
 18 19  2  0
 19 20  1  0
 20 21  2  0
 21 22  1  0
  9  4  1  0
 15 10  1  0
 21 16  1  0
  3 23  1  0
  5 24  1  0
  6 25  1  0
  7 26  1  0
  8 27  1  0
 11 28  1  0
 11 29  1  0
 12 30  1  0
 12 31  1  0
 13 32  1  0
 13 33  1  0
 14 34  1  0
 14 35  1  0
 15 36  1  0
 15 37  1  0
 17 38  1  0
 18 39  1  0
 19 40  1  0
 20 41  1  0
M  CHG  1  22  -1
M  END
>  <UniqueID>  (5) 
5

>  <SMILES>  (5) 
O=C(Nc1ccccc1N1CCCCC1)c1ccccc1[O-]

>  <Energy>  (5) 
57.11952656832095

>  <Genealogy>  (5) 
O=C(Nc1ccccc1N1CCCCC1)c1ccccc1[O-] (protonated)
O=C(Nc1ccccc1N1CCCCC1)c1ccccc1[O-] (3D coordinates assigned)
O=C(Nc1ccccc1N1CCCCC1)c1ccccc1[O-] (nonaromatic ring conformer: 57.11952656832095 kcal/mol)

>  <smiles>  (5) 
O=C(Nc1ccccc1N1CCCCC1)c1ccccc1O

>  <score_type>  (5) 
oracle

>  <origin>  (5) 
adgpu

>  <m_score__min__energy>  (5) 
-11.27

>  <m_primary>  (5) 
energy

$$$$
5:0
     RDKit          3D

 40 42  0  0  0  0  0  0  0  0999 V2000
   -3.4940   25.2950  -30.5550 O   0  0  0  0  0  0  0  0  0  0  0  0
   -4.0890   24.4680  -29.8110 C   0  0  0  0  0  0  0  0  0  0  0  0
   -3.6230   24.2590  -28.4670 N   0  0  0  0  0  0  0  0  0  0  0  0
   -2.3090   24.6360  -28.0220 C   0  0  0  0  0  0  0  0  0  0  0  0
   -1.2180   24.5060  -28.8880 C   0  0  0  0  0  0  0  0  0  0  0  0
    0.0250   24.8700  -28.4810 N   0  0  0  0  0  0  0  0  0  0  0  0
    0.2320   25.3780  -27.2390 C   0  0  0  0  0  0  0  0  0  0  0  0
   -0.8130   25.5420  -26.3880 N   0  0  0  0  0  0  0  0  0  0  0  0
   -2.0750   25.1930  -26.7500 C   0  0  0  0  0  0  0  0  0  0  0  0
   -3.0240   25.3970  -25.9490 O   0  0  0  0  0  0  0  0  0  0  0  0
   -5.2870   23.7560  -30.3200 C   0  0  0  0  0  0  0  0  0  0  0  0
   -5.3400   22.3510  -30.3380 C   0  0  0  0  0  0  0  0  0  0  0  0
   -6.4690   21.6900  -30.8290 C   0  0  0  0  0  0  0  0  0  0  0  0
   -7.5590   22.4210  -31.3210 C   0  0  0  0  0  0  0  0  0  0  0  0
   -8.9750   21.5870  -31.9620 S   0  0  0  0  0  0  0  0  0  0  0  0
   -9.8430   22.5870  -32.6730 O   0  0  0  0  0  0  0  0  0  0  0  0
   -9.7720   21.0210  -30.8190 O   0  0  0  0  0  0  0  0  0  0  0  0
   -8.5550   20.2970  -33.0710 N   0  0  0  0  0  0  0  0  0  0  0  0
   -7.1040   20.2340  -33.3510 C   0  0  0  0  0  0  0  0  0  0  0  0
   -6.3940   19.1100  -32.5780 C   0  0  0  0  0  0  0  0  0  0  0  0
   -7.0480   18.8640  -31.3560 O   0  0  0  0  0  0  0  0  0  0  0  0
   -8.3050   18.2640  -31.6000 C   0  0  0  0  0  0  0  0  0  0  0  0
   -9.1360   19.0010  -32.6780 C   0  0  0  0  0  0  0  0  0  0  0  0
   -7.5120   23.8200  -31.3050 C   0  0  0  0  0  0  0  0  0  0  0  0
   -6.3840   24.4830  -30.8150 C   0  0  0  0  0  0  0  0  0  0  0  0
   -4.3210   23.9860  -27.7400 H   0  0  0  0  0  0  0  0  0  0  0  0
   -1.3678   24.1075  -29.9023 H   0  0  0  0  0  0  0  0  0  0  0  0
    1.2477   25.6570  -26.9219 H   0  0  0  0  0  0  0  0  0  0  0  0
   -4.4862   21.7678  -29.9627 H   0  0  0  0  0  0  0  0  0  0  0  0
   -6.5025   20.5905  -30.8294 H   0  0  0  0  0  0  0  0  0  0  0  0
   -6.9614   20.0635  -34.4283 H   0  0  0  0  0  0  0  0  0  0  0  0
   -6.6632   21.1879  -33.0259 H   0  0  0  0  0  0  0  0  0  0  0  0
   -6.4022   18.1923  -33.1844 H   0  0  0  0  0  0  0  0  0  0  0  0
   -5.3584   19.4185  -32.3720 H   0  0  0  0  0  0  0  0  0  0  0  0
   -8.1390   17.2292  -31.9340 H   0  0  0  0  0  0  0  0  0  0  0  0
   -8.8758   18.3097  -30.6608 H   0  0  0  0  0  0  0  0  0  0  0  0
   -9.1984   18.3606  -33.5702 H   0  0  0  0  0  0  0  0  0  0  0  0
  -10.1270   19.2038  -32.2459 H   0  0  0  0  0  0  0  0  0  0  0  0
   -8.3677   24.4004  -31.6802 H   0  0  0  0  0  0  0  0  0  0  0  0
   -6.3539   25.5826  -30.8165 H   0  0  0  0  0  0  0  0  0  0  0  0
  1  2  2  0
  2  3  1  0
  3  4  1  0
  4  5  2  0
  5  6  1  0
  6  7  1  0
  7  8  2  0
  8  9  1  0
  9 10  2  0
  2 11  1  0
 11 12  2  0
 12 13  1  0
 13 14  2  0
 14 15  1  0
 15 16  2  0
 15 17  2  0
 15 18  1  0
 18 19  1  0
 19 20  1  0
 20 21  1  0
 21 22  1  0
 22 23  1  0
 14 24  1  0
 24 25  2  0
  9  4  1  0
 25 11  1  0
 23 18  1  0
  3 26  1  0
  5 27  1  0
  7 28  1  0
 12 29  1  0
 13 30  1  0
 19 31  1  0
 19 32  1  0
 20 33  1  0
 20 34  1  0
 22 35  1  0
 22 36  1  0
 23 37  1  0
 23 38  1  0
 24 39  1  0
 25 40  1  0
M  CHG  1   6  -1
M  END
>  <UniqueID>  (6) 
6

>  <SMILES>  (6) 
O=C(Nc1c[n-]cnc1=O)c1ccc(S(=O)(=O)N2CCOCC2)cc1

>  <Energy>  (6) 
60.882456879092715

>  <Genealogy>  (6) 
O=C(Nc1c[n-]cnc1=O)c1ccc(S(=O)(=O)N2CCOCC2)cc1 (protonated)
O=C(Nc1c[n-]cnc1=O)c1ccc(S(=O)(=O)N2CCOCC2)cc1 (3D coordinates assigned)
O=C(Nc1c[n-]cnc1=O)c1ccc(S(=O)(=O)N2CCOCC2)cc1 (nonaromatic ring conformer: 60.882456879092715 kcal/mol)

>  <smiles>  (6) 
O=C(Nc1c[nH]cnc1=O)c1ccc(S(=O)(=O)N2CCOCC2)cc1

>  <score_type>  (6) 
oracle

>  <origin>  (6) 
adgpu

>  <m_score__min__energy>  (6) 
-9.4199999999999999

>  <m_primary>  (6) 
energy

$$$$
6:0
     RDKit          3D

 42 44  0  0  0  0  0  0  0  0999 V2000
   -0.8420   24.7800  -27.2720 C   0  0  0  0  0  0  0  0  0  0  0  0
   -1.3280   25.1220  -28.6750 C   0  0  0  0  0  0  0  0  0  0  0  0
   -2.6960   24.5580  -28.9130 C   0  0  0  0  0  0  0  0  0  0  0  0
   -3.2460   23.8700  -28.0100 O   0  0  0  0  0  0  0  0  0  0  0  0
   -3.4030   24.8780  -30.1220 N   0  0  0  0  0  0  0  0  0  0  0  0
   -4.6370   24.2580  -30.5220 C   0  0  0  0  0  0  0  0  0  0  0  0
   -5.8940   24.8550  -30.2290 C   0  0  0  0  0  0  0  0  0  0  0  0
   -7.0940   24.2250  -30.6070 C   0  0  0  0  0  0  0  0  0  0  0  0
   -7.0050   22.9980  -31.2670 C   0  0  0  0  0  0  0  0  0  0  0  0
   -5.8030   22.4090  -31.5250 C   0  0  0  0  0  0  0  0  0  0  0  0
   -4.5970   23.0020  -31.1650 C   0  0  0  0  0  0  0  0  0  0  0  0
   -5.9780   21.2210  -32.1330 N   0  0  0  0  0  0  0  0  0  0  0  0
   -7.3310   21.1210  -32.2280 C   0  0  0  0  0  0  0  0  0  0  0  0
   -7.9920   19.9360  -32.8710 C   0  0  0  0  0  0  0  0  0  0  0  0
   -7.4730   18.3890  -32.0510 S   0  0  0  0  0  0  0  0  0  0  0  0
   -5.9860   18.1760  -33.0350 C   0  0  0  0  0  0  0  0  0  0  0  0
   -6.0750   17.6840  -34.3450 C   0  0  0  0  0  0  0  0  0  0  0  0
   -4.9150   17.4990  -35.1020 C   0  0  0  0  0  0  0  0  0  0  0  0
   -3.6660   17.8150  -34.5580 C   0  0  0  0  0  0  0  0  0  0  0  0
   -3.5770   18.3200  -33.2570 C   0  0  0  0  0  0  0  0  0  0  0  0
   -4.7350   18.5020  -32.4960 C   0  0  0  0  0  0  0  0  0  0  0  0
   -7.9880   22.2020  -31.7220 N   0  0  0  0  0  0  0  0  0  0  0  0
   -9.4320   22.4010  -31.5870 C   0  0  0  0  0  0  0  0  0  0  0  0
   -1.5060   25.2473  -26.5299 H   0  0  0  0  0  0  0  0  0  0  0  0
   -0.8514   23.6884  -27.1366 H   0  0  0  0  0  0  0  0  0  0  0  0
    0.1823   25.1574  -27.1366 H   0  0  0  0  0  0  0  0  0  0  0  0
   -1.3633   26.2156  -28.7885 H   0  0  0  0  0  0  0  0  0  0  0  0
   -0.6327   24.6850  -29.4068 H   0  0  0  0  0  0  0  0  0  0  0  0
   -3.0410   25.6700  -30.7000 H   0  0  0  0  0  0  0  0  0  0  0  0
   -5.9285   25.8195  -29.7013 H   0  0  0  0  0  0  0  0  0  0  0  0
   -8.0698   24.6840  -30.3897 H   0  0  0  0  0  0  0  0  0  0  0  0
   -3.6383   22.5055  -31.3757 H   0  0  0  0  0  0  0  0  0  0  0  0
   -9.0838   20.0412  -32.7872 H   0  0  0  0  0  0  0  0  0  0  0  0
   -7.6945   19.8942  -33.9292 H   0  0  0  0  0  0  0  0  0  0  0  0
   -7.0578   17.4437  -34.7768 H   0  0  0  0  0  0  0  0  0  0  0  0
   -4.9844   17.1045  -36.1265 H   0  0  0  0  0  0  0  0  0  0  0  0
   -2.7533   17.6663  -35.1537 H   0  0  0  0  0  0  0  0  0  0  0  0
   -2.5947   18.5742  -32.8322 H   0  0  0  0  0  0  0  0  0  0  0  0
   -4.6639   18.9014  -31.4735 H   0  0  0  0  0  0  0  0  0  0  0  0
   -9.6989   22.4378  -30.5205 H   0  0  0  0  0  0  0  0  0  0  0  0
   -9.7184   23.3471  -32.0695 H   0  0  0  0  0  0  0  0  0  0  0  0
   -9.9637   21.5676  -32.0695 H   0  0  0  0  0  0  0  0  0  0  0  0
  1  2  1  0
  2  3  1  0
  3  4  2  0
  3  5  1  0
  5  6  1  0
  6  7  2  0
  7  8  1  0
  8  9  2  0
  9 10  1  0
 10 11  2  0
 10 12  1  0
 12 13  2  0
 13 14  1  0
 14 15  1  0
 15 16  1  0
 16 17  2  0
 17 18  1  0
 18 19  2  0
 19 20  1  0
 20 21  2  0
 13 22  1  0
 22 23  1  0
 11  6  1  0
 21 16  1  0
 22  9  1  0
  1 24  1  0
  1 25  1  0
  1 26  1  0
  2 27  1  0
  2 28  1  0
  5 29  1  0
  7 30  1  0
  8 31  1  0
 11 32  1  0
 14 33  1  0
 14 34  1  0
 17 35  1  0
 18 36  1  0
 19 37  1  0
 20 38  1  0
 21 39  1  0
 23 40  1  0
 23 41  1  0
 23 42  1  0
M  END
>  <UniqueID>  (7) 
7

>  <SMILES>  (7) 
CCC(=O)Nc1ccc2c(c1)nc(CSc1ccccc1)n2C

>  <Energy>  (7) 
74.16906030335156

>  <Genealogy>  (7) 
CCC(=O)Nc1ccc2c(c1)nc(CSc1ccccc1)n2C (3D coordinates assigned)
CCC(=O)Nc1ccc2c(c1)nc(CSc1ccccc1)n2C (optimized conformer: 74.16906030335156 kcal/mol)

>  <smiles>  (7) 
CCC(=O)Nc1ccc2c(c1)nc(CSc1ccccc1)n2C

>  <score_type>  (7) 
oracle

>  <origin>  (7) 
adgpu

>  <m_score__min__energy>  (7) 
-8.3300000000000001

>  <m_primary>  (7) 
energy

$$$$
7:0
     RDKit          3D

 33 34  0  0  0  0  0  0  0  0999 V2000
   -4.7940   17.4870  -34.8530 C   0  0  0  0  0  0  0  0  0  0  0  0
   -4.8430   18.1450  -33.5900 O   0  0  0  0  0  0  0  0  0  0  0  0
   -5.9140   18.9310  -33.1410 C   0  0  0  0  0  0  0  0  0  0  0  0
   -7.2250   18.4160  -33.0670 C   0  0  0  0  0  0  0  0  0  0  0  0
   -8.2740   19.2100  -32.6020 C   0  0  0  0  0  0  0  0  0  0  0  0
   -8.0360   20.5300  -32.2150 C   0  0  0  0  0  0  0  0  0  0  0  0
   -9.4690   21.6080  -31.5610 Br  0  0  0  0  0  0  0  0  0  0  0  0
   -6.7450   21.0560  -32.2920 C   0  0  0  0  0  0  0  0  0  0  0  0
   -5.6770   20.2650  -32.7430 C   0  0  0  0  0  0  0  0  0  0  0  0
   -4.0570   20.9760  -32.7330 S   0  0  0  0  0  0  0  0  0  0  0  0
   -3.0790   20.1460  -33.5160 O   0  0  0  0  0  0  0  0  0  0  0  0
   -4.1330   22.3400  -33.3580 O   0  0  0  0  0  0  0  0  0  0  0  0
   -3.5060   21.1380  -31.0880 N   0  0  0  0  0  0  0  0  0  0  0  0
   -3.9220   22.4150  -30.5020 C   0  0  0  0  0  0  0  0  0  0  0  0
   -2.7940   23.0610  -29.7340 C   0  0  0  0  0  0  0  0  0  0  0  0
   -1.9040   22.2650  -28.9920 C   0  0  0  0  0  0  0  0  0  0  0  0
   -0.8920   22.8580  -28.2330 C   0  0  0  0  0  0  0  0  0  0  0  0
   -0.7540   24.2480  -28.2130 C   0  0  0  0  0  0  0  0  0  0  0  0
   -1.6240   25.0490  -28.9570 C   0  0  0  0  0  0  0  0  0  0  0  0
   -1.4800   26.4320  -28.9310 O   0  0  0  0  0  0  0  0  0  0  0  0
   -2.6420   24.4620  -29.7190 C   0  0  0  0  0  0  0  0  0  0  0  0
   -3.5060   25.2710  -30.4510 O   0  0  0  0  0  0  0  0  0  0  0  0
   -4.7131   16.4010  -34.6978 H   0  0  0  0  0  0  0  0  0  0  0  0
   -5.7112   17.7093  -35.4181 H   0  0  0  0  0  0  0  0  0  0  0  0
   -3.9199   17.8427  -35.4181 H   0  0  0  0  0  0  0  0  0  0  0  0
   -7.4222   17.3796  -33.3785 H   0  0  0  0  0  0  0  0  0  0  0  0
   -9.2908   18.7949  -32.5402 H   0  0  0  0  0  0  0  0  0  0  0  0
   -6.5633   22.0999  -31.9965 H   0  0  0  0  0  0  0  0  0  0  0  0
   -4.2402   23.0922  -31.3083 H   0  0  0  0  0  0  0  0  0  0  0  0
   -4.7507   22.2228  -29.8046 H   0  0  0  0  0  0  0  0  0  0  0  0
   -2.0049   21.1698  -29.0091 H   0  0  0  0  0  0  0  0  0  0  0  0
   -0.2027   22.2293  -27.6502 H   0  0  0  0  0  0  0  0  0  0  0  0
    0.0407   24.7125  -27.6107 H   0  0  0  0  0  0  0  0  0  0  0  0
  1  2  1  0
  2  3  1  0
  3  4  2  0
  4  5  1  0
  5  6  2  0
  6  7  1  0
  6  8  1  0
  8  9  2  0
  9 10  1  0
 10 11  2  0
 10 12  2  0
 10 13  1  0
 13 14  1  0
 14 15  1  0
 15 16  2  0
 16 17  1  0
 17 18  2  0
 18 19  1  0
 19 20  1  0
 19 21  2  0
 21 22  1  0
  9  3  1  0
 21 15  1  0
  1 23  1  0
  1 24  1  0
  1 25  1  0
  4 26  1  0
  5 27  1  0
  8 28  1  0
 14 29  1  0
 14 30  1  0
 16 31  1  0
 17 32  1  0
 18 33  1  0
M  CHG  3  13  -1  20  -1  22  -1
M  END
>  <UniqueID>  (8) 
8

>  <SMILES>  (8) 
COc1ccc(Br)cc1S(=O)(=O)[N-]Cc1cccc([O-])c1[O-]

>  <Energy>  (8) 
30.137624153095853

>  <Genealogy>  (8) 
COc1ccc(Br)cc1S(=O)(=O)[N-]Cc1cccc([O-])c1[O-] (protonated)
COc1ccc(Br)cc1S(=O)(=O)[N-]Cc1cccc([O-])c1[O-] (3D coordinates assigned)
COc1ccc(Br)cc1S(=O)(=O)[N-]Cc1cccc([O-])c1[O-] (optimized conformer: 30.137624153095853 kcal/mol)

>  <smiles>  (8) 
COc1ccc(Br)cc1S(=O)(=O)NCc1cccc(O)c1O

>  <score_type>  (8) 
oracle

>  <origin>  (8) 
adgpu

>  <m_score__min__energy>  (8) 
-14.35

>  <m_primary>  (8) 
energy

$$$$
8:0
     RDKit          3D

 52 56  0  0  0  0  0  0  0  0999 V2000
   -2.9730   16.7980  -34.8460 C   0  0  0  0  0  0  0  0  0  0  0  0
   -2.5610   18.1730  -34.4030 C   0  0  0  0  0  0  0  0  0  0  0  0
   -3.3670   19.1220  -33.7660 C   0  0  0  0  0  0  0  0  0  0  0  0
   -4.7750   18.9810  -33.3370 C   0  0  0  0  0  0  0  0  0  0  0  0
   -5.6630   20.0610  -33.4770 C   0  0  0  0  0  0  0  0  0  0  0  0
   -6.9930   19.9430  -33.0600 C   0  0  0  0  0  0  0  0  0  0  0  0
   -7.4450   18.7500  -32.4870 C   0  0  0  0  0  0  0  0  0  0  0  0
   -9.1120   18.6030  -31.9620 Cl  0  0  0  0  0  0  0  0  0  0  0  0
   -6.5640   17.6750  -32.3280 C   0  0  0  0  0  0  0  0  0  0  0  0
   -5.2350   17.7910  -32.7450 C   0  0  0  0  0  0  0  0  0  0  0  0
   -2.5900   20.2630  -33.5900 C   0  0  0  0  0  0  0  0  0  0  0  0
   -1.3450   19.9490  -34.0970 C   0  0  0  0  0  0  0  0  0  0  0  0
   -0.1980   20.7430  -34.1520 C   0  0  0  0  0  0  0  0  0  0  0  0
   -0.2220   21.9250  -33.7090 O   0  0  0  0  0  0  0  0  0  0  0  0
    0.9480   20.2090  -34.6970 N   0  0  0  0  0  0  0  0  0  0  0  0
    2.1730   21.0140  -34.8110 C   0  0  0  0  0  0  0  0  0  0  0  0
    1.8660   22.3170  -35.4740 C   0  0  0  0  0  0  0  0  0  0  0  0
    2.3110   23.5090  -35.0330 N   0  0  0  0  0  0  0  0  0  0  0  0
    1.7440   24.3450  -35.9280 C   0  0  0  0  0  0  0  0  0  0  0  0
    1.9110   25.7740  -35.8960 N   0  0  0  0  0  0  0  0  0  0  0  0
    3.2530   26.3270  -35.6800 C   0  0  0  0  0  0  0  0  0  0  0  0
    3.2150   27.8570  -35.6260 C   0  0  0  0  0  0  0  0  0  0  0  0
    2.0820   28.2970  -34.8040 N   0  0  0  0  0  0  0  0  0  0  0  0
    0.7770   27.9430  -35.3990 C   0  0  0  0  0  0  0  0  0  0  0  0
    0.8050   26.6660  -36.2700 C   0  0  0  0  0  0  0  0  0  0  0  0
    1.0000   23.6980  -36.8490 N   0  0  0  0  0  0  0  0  0  0  0  0
    1.1010   22.4440  -36.5300 O   0  0  0  0  0  0  0  0  0  0  0  0
    0.9450   18.9270  -35.1950 C   0  0  0  0  0  0  0  0  0  0  0  0
   -0.2170   18.1450  -35.1310 C   0  0  0  0  0  0  0  0  0  0  0  0
   -1.3290   18.6950  -34.5780 N   0  0  0  0  0  0  0  0  0  0  0  0
   -3.1613   16.1694  -33.9632 H   0  0  0  0  0  0  0  0  0  0  0  0
   -3.8900   16.8667  -35.4496 H   0  0  0  0  0  0  0  0  0  0  0  0
   -2.1693   16.3511  -35.4496 H   0  0  0  0  0  0  0  0  0  0  0  0
   -5.3100   21.0052  -33.9173 H   0  0  0  0  0  0  0  0  0  0  0  0
   -7.6843   20.7897  -33.1829 H   0  0  0  0  0  0  0  0  0  0  0  0
   -6.9176   16.7374  -31.8743 H   0  0  0  0  0  0  0  0  0  0  0  0
   -4.5441   16.9458  -32.6093 H   0  0  0  0  0  0  0  0  0  0  0  0
   -2.9029   21.2169  -33.1403 H   0  0  0  0  0  0  0  0  0  0  0  0
    2.5800   21.2029  -33.8067 H   0  0  0  0  0  0  0  0  0  0  0  0
    2.9113   20.4659  -35.4147 H   0  0  0  0  0  0  0  0  0  0  0  0
    3.6511   25.9434  -34.7290 H   0  0  0  0  0  0  0  0  0  0  0  0
    3.8963   26.0222  -36.5186 H   0  0  0  0  0  0  0  0  0  0  0  0
    4.1518   28.2303  -35.1866 H   0  0  0  0  0  0  0  0  0  0  0  0
    3.1000   28.2538  -36.6455 H   0  0  0  0  0  0  0  0  0  0  0  0
    2.1610   27.8690  -33.8510 H   0  0  0  0  0  0  0  0  0  0  0  0
    2.1340   29.3370  -34.6900 H   0  0  0  0  0  0  0  0  0  0  0  0
    0.0559   27.7885  -34.5828 H   0  0  0  0  0  0  0  0  0  0  0  0
    0.4960   28.7735  -36.0633 H   0  0  0  0  0  0  0  0  0  0  0  0
   -0.1455   26.1272  -36.1425 H   0  0  0  0  0  0  0  0  0  0  0  0
    0.9502   26.9698  -37.3172 H   0  0  0  0  0  0  0  0  0  0  0  0
    1.8590   18.5130  -35.6459 H   0  0  0  0  0  0  0  0  0  0  0  0
   -0.2278   17.1153  -35.5177 H   0  0  0  0  0  0  0  0  0  0  0  0
  1  2  1  0
  2  3  2  0
  3  4  1  0
  4  5  2  0
  5  6  1  0
  6  7  2  0
  7  8  1  0
  7  9  1  0
  9 10  2  0
  3 11  1  0
 11 12  2  0
 12 13  1  0
 13 14  2  0
 13 15  1  0
 15 16  1  0
 16 17  1  0
 17 18  2  0
 18 19  1  0
 19 20  1  0
 20 21  1  0
 21 22  1  0
 22 23  1  0
 23 24  1  0
 24 25  1  0
 19 26  2  0
 26 27  1  0
 15 28  1  0
 28 29  2  0
 29 30  1  0
 30  2  1  0
 10  4  1  0
 30 12  1  0
 27 17  1  0
 25 20  1  0
  1 31  1  0
  1 32  1  0
  1 33  1  0
  5 34  1  0
  6 35  1  0
  9 36  1  0
 10 37  1  0
 11 38  1  0
 16 39  1  0
 16 40  1  0
 21 41  1  0
 21 42  1  0
 22 43  1  0
 22 44  1  0
 23 45  1  0
 23 46  1  0
 24 47  1  0
 24 48  1  0
 25 49  1  0
 25 50  1  0
 28 51  1  0
 29 52  1  0
M  CHG  1  23   1
M  END
>  <UniqueID>  (9) 
9

>  <SMILES>  (9) 
Cc1c(-c2ccc(Cl)cc2)cc2c(=O)n(Cc3nc(N4CC[NH2+]CC4)no3)ccn12

>  <Energy>  (9) 
131.46571211355322

>  <Genealogy>  (9) 
Cc1c(-c2ccc(Cl)cc2)cc2c(=O)n(Cc3nc(N4CC[NH2+]CC4)no3)ccn12 (protonated)
Cc1c(-c2ccc(Cl)cc2)cc2c(=O)n(Cc3nc(N4CC[NH2+]CC4)no3)ccn12 (3D coordinates assigned)
Cc1c(-c2ccc(Cl)cc2)cc2c(=O)n(Cc3nc(N4CC[NH2+]CC4)no3)ccn12 (nonaromatic ring conformer: 131.46571211355322 kcal/mol)

>  <smiles>  (9) 
Cc1c(-c2ccc(Cl)cc2)cc2c(=O)n(Cc3nc(N4CCNCC4)no3)ccn12

>  <score_type>  (9) 
oracle

>  <origin>  (9) 
adgpu

>  <m_score__min__energy>  (9) 
-8.8200000000000003

>  <m_primary>  (9) 
energy

$$$$
9:0
     RDKit          3D

 49 51  0  0  0  0  0  0  0  0999 V2000
   -9.4110   19.4512  -30.5839 H   0  0  0  0  0  0  0  0  0  0  0  0
   -8.6240   19.4050  -31.3510 C   0  0  0  0  0  0  0  0  0  0  0  0
   -8.3290   20.5350  -32.1190 C   0  0  0  0  0  0  0  0  0  0  0  0
   -8.8913   21.4675  -31.9631 H   0  0  0  0  0  0  0  0  0  0  0  0
   -7.3200   20.4810  -33.0850 C   0  0  0  0  0  0  0  0  0  0  0  0
   -7.1024   21.3662  -33.7008 H   0  0  0  0  0  0  0  0  0  0  0  0
   -6.5820   19.2980  -33.2720 C   0  0  0  0  0  0  0  0  0  0  0  0
   -5.5550   19.2050  -34.2730 N   0  0  0  0  0  0  0  0  0  0  0  0
   -4.4010   19.7550  -34.2160 N   0  0  0  0  0  0  0  0  0  0  0  0
   -3.8510   20.4410  -33.0790 C   0  0  0  0  0  0  0  0  0  0  0  0
   -4.4630   21.6040  -32.5790 C   0  0  0  0  0  0  0  0  0  0  0  0
   -5.3488   22.0145  -33.0859 H   0  0  0  0  0  0  0  0  0  0  0  0
   -3.9560   22.2440  -31.4430 C   0  0  0  0  0  0  0  0  0  0  0  0
   -4.7300   23.7150  -30.8610 S   0  0  0  0  0  0  0  0  0  0  0  0
   -5.6670   24.2630  -31.9010 O   0  0  0  0  0  0  0  0  0  0  0  0
   -5.5190   23.3900  -29.6240 O   0  0  0  0  0  0  0  0  0  0  0  0
   -3.5200   24.9030  -30.4720 N   0  0  0  0  0  0  0  0  0  0  0  0
   -2.6500   24.4380  -29.3890 C   0  0  0  0  0  0  0  0  0  0  0  0
   -1.7541   25.0747  -29.3449 H   0  0  0  0  0  0  0  0  0  0  0  0
   -2.3624   23.3945  -29.5850 H   0  0  0  0  0  0  0  0  0  0  0  0
   -3.3810   24.5070  -28.0550 C   0  0  0  0  0  0  0  0  0  0  0  0
   -2.6525   24.4382  -27.2337 H   0  0  0  0  0  0  0  0  0  0  0  0
   -3.9249   25.4605  -27.9838 H   0  0  0  0  0  0  0  0  0  0  0  0
   -4.0937   23.6721  -27.9838 H   0  0  0  0  0  0  0  0  0  0  0  0
   -2.8540   21.6980  -30.7740 C   0  0  0  0  0  0  0  0  0  0  0  0
   -2.4507   22.1986  -29.8814 H   0  0  0  0  0  0  0  0  0  0  0  0
   -2.2660   20.5200  -31.2370 C   0  0  0  0  0  0  0  0  0  0  0  0
   -1.4092   20.0895  -30.6979 H   0  0  0  0  0  0  0  0  0  0  0  0
   -2.7590   19.8800  -32.3850 C   0  0  0  0  0  0  0  0  0  0  0  0
   -2.1330   18.6710  -32.8450 N   0  0  0  0  0  0  0  0  0  0  0  0
   -0.7160   18.6640  -33.2200 C   0  0  0  0  0  0  0  0  0  0  0  0
   -0.6354   18.7339  -34.3148 H   0  0  0  0  0  0  0  0  0  0  0  0
   -0.2261   19.5220  -32.7364 H   0  0  0  0  0  0  0  0  0  0  0  0
   -0.0130   17.3730  -32.7460 C   0  0  0  0  0  0  0  0  0  0  0  0
    0.7597   17.1093  -33.4832 H   0  0  0  0  0  0  0  0  0  0  0  0
    0.4055   17.5855  -31.7511 H   0  0  0  0  0  0  0  0  0  0  0  0
   -0.9210   16.2160  -32.5900 N   0  0  0  0  0  0  0  0  0  0  0  0
   -1.2450   16.1570  -31.5950 H   0  0  0  0  0  0  0  0  0  0  0  0
   -0.3930   15.3380  -32.8030 H   0  0  0  0  0  0  0  0  0  0  0  0
   -2.0920   16.2860  -33.4740 C   0  0  0  0  0  0  0  0  0  0  0  0
   -1.7564   16.3968  -34.5157 H   0  0  0  0  0  0  0  0  0  0  0  0
   -2.6806   15.3627  -33.3689 H   0  0  0  0  0  0  0  0  0  0  0  0
   -2.9640   17.4860  -33.0910 C   0  0  0  0  0  0  0  0  0  0  0  0
   -3.6650   17.7000  -33.9113 H   0  0  0  0  0  0  0  0  0  0  0  0
   -3.5169   17.2435  -32.1715 H   0  0  0  0  0  0  0  0  0  0  0  0
   -6.9080   18.1600  -32.5230 C   0  0  0  0  0  0  0  0  0  0  0  0
   -6.3668   17.2178  -32.6944 H   0  0  0  0  0  0  0  0  0  0  0  0
   -7.9190   18.2170  -31.5580 C   0  0  0  0  0  0  0  0  0  0  0  0
   -8.1593   17.3248  -30.9611 H   0  0  0  0  0  0  0  0  0  0  0  0
  1  2  1  0
  2  3  2  0
  3  4  1  0
  3  5  1  0
  5  6  1  0
  5  7  2  0
  7  8  1  0
  8  9  2  0
  9 10  1  0
 10 11  2  0
 11 12  1  0
 11 13  1  0
 13 14  1  0
 14 15  2  0
 14 16  2  0
 14 17  1  0
 17 18  1  0
 18 19  1  0
 18 20  1  0
 18 21  1  0
 21 22  1  0
 21 23  1  0
 21 24  1  0
 13 25  2  0
 25 26  1  0
 25 27  1  0
 27 28  1  0
 27 29  2  0
 29 30  1  0
 30 31  1  0
 31 32  1  0
 31 33  1  0
 31 34  1  0
 34 35  1  0
 34 36  1  0
 34 37  1  0
 37 38  1  0
 37 39  1  0
 37 40  1  0
 40 41  1  0
 40 42  1  0
 40 43  1  0
 43 44  1  0
 43 45  1  0
  7 46  1  0
 46 47  1  0
 46 48  2  0
 48 49  1  0
 48  2  1  0
 29 10  1  0
 43 30  1  0
M  CHG  2  17  -1  37   1
M  END
>  <UniqueID>  (10) 
10

>  <SMILES>  (10) 
CC[N-]S(=O)(=O)c1ccc(N2CC[NH2+]CC2)c(/N=N\c2ccccc2)c1

>  <Energy>  (10) 
68.19620816962377

>  <Genealogy>  (10) 
CC[N-]S(=O)(=O)c1ccc(N2CC[NH2+]CC2)c(N=Nc2ccccc2)c1 (protonated)
CC[N-]S(=O)(=O)c1ccc(N2CC[NH2+]CC2)c(/N=N\c2ccccc2)c1 (cis-trans isomerization)
CC[N-]S(=O)(=O)c1ccc(N2CC[NH2+]CC2)c(/N=N\c2ccccc2)c1 (3D coordinates assigned)
CC[N-]S(=O)(=O)c1ccc(N2CC[NH2+]CC2)c(/N=N\c2ccccc2)c1 (nonaromatic ring conformer: 68.19620816962377 kcal/mol)

>  <smiles>  (10) 
CCNS(=O)(=O)c1ccc(N2CCNCC2)c(N=Nc2ccccc2)c1

>  <score_type>  (10) 
oracle

>  <origin>  (10) 
adgpu

>  <m_score__min__energy>  (10) 
-9.0399999999999991

>  <m_primary>  (10) 
energy

$$$$
10:0
     RDKit          3D

 47 50  0  0  0  0  0  0  0  0999 V2000
   -1.0650   26.4750  -26.5520 C   0  0  0  0  0  0  0  0  0  0  0  0
   -0.5600   25.8170  -27.8000 C   0  0  0  0  0  0  0  0  0  0  0  0
    0.6070   25.3450  -27.8120 O   0  0  0  0  0  0  0  0  0  0  0  0
   -1.3780   25.6770  -28.9680 N   0  0  0  0  0  0  0  0  0  0  0  0
   -2.0210   24.4700  -29.4000 C   0  0  0  0  0  0  0  0  0  0  0  0
   -1.3740   23.2470  -29.1850 C   0  0  0  0  0  0  0  0  0  0  0  0
   -1.9580   22.0410  -29.6030 C   0  0  0  0  0  0  0  0  0  0  0  0
   -1.2710   20.8000  -29.3520 N   0  0  0  0  0  0  0  0  0  0  0  0
   -0.4290   20.1530  -30.3170 C   0  0  0  0  0  0  0  0  0  0  0  0
   -0.3420   20.7180  -31.5880 C   0  0  0  0  0  0  0  0  0  0  0  0
    0.4860   20.1690  -32.5690 C   0  0  0  0  0  0  0  0  0  0  0  0
    0.4810   20.8920  -34.1850 S   0  0  0  0  0  0  0  0  0  0  0  0
    1.5510   21.9440  -34.2690 O   0  0  0  0  0  0  0  0  0  0  0  0
   -0.8510   21.5280  -34.4730 O   0  0  0  0  0  0  0  0  0  0  0  0
    0.7610   19.7010  -35.3370 O   0  0  0  0  0  0  0  0  0  0  0  0
    1.2900   19.0510  -32.2600 C   0  0  0  0  0  0  0  0  0  0  0  0
    2.0920   18.4500  -33.2880 N   0  0  0  0  0  0  0  0  0  0  0  0
    1.2510   18.4930  -30.9510 C   0  0  0  0  0  0  0  0  0  0  0  0
    0.3200   18.9920  -30.0040 C   0  0  0  0  0  0  0  0  0  0  0  0
    0.1220   18.2610  -28.7180 C   0  0  0  0  0  0  0  0  0  0  0  0
   -0.8400   18.5540  -27.9580 O   0  0  0  0  0  0  0  0  0  0  0  0
    1.0090   17.1370  -28.3490 C   0  0  0  0  0  0  0  0  0  0  0  0
    0.8460   16.4670  -27.1220 C   0  0  0  0  0  0  0  0  0  0  0  0
    1.6860   15.4070  -26.7780 C   0  0  0  0  0  0  0  0  0  0  0  0
    2.6960   15.0040  -27.6520 C   0  0  0  0  0  0  0  0  0  0  0  0
    2.8690   15.6600  -28.8720 C   0  0  0  0  0  0  0  0  0  0  0  0
    2.0270   16.7300  -29.2310 C   0  0  0  0  0  0  0  0  0  0  0  0
    2.2130   17.4350  -30.5180 C   0  0  0  0  0  0  0  0  0  0  0  0
    3.2400   17.1840  -31.2050 O   0  0  0  0  0  0  0  0  0  0  0  0
   -3.2080   22.0750  -30.2500 C   0  0  0  0  0  0  0  0  0  0  0  0
   -3.8400   23.2960  -30.4990 C   0  0  0  0  0  0  0  0  0  0  0  0
   -3.2460   24.4940  -30.0920 C   0  0  0  0  0  0  0  0  0  0  0  0
   -3.8630   25.6990  -30.4050 O   0  0  0  0  0  0  0  0  0  0  0  0
   -0.6627   25.9508  -25.6726 H   0  0  0  0  0  0  0  0  0  0  0  0
   -0.7390   27.5254  -26.5337 H   0  0  0  0  0  0  0  0  0  0  0  0
   -2.1640   26.4318  -26.5337 H   0  0  0  0  0  0  0  0  0  0  0  0
   -0.3958   23.2311  -28.6822 H   0  0  0  0  0  0  0  0  0  0  0  0
   -1.5140   20.2620  -28.4900 H   0  0  0  0  0  0  0  0  0  0  0  0
   -0.9367   21.6131  -31.8227 H   0  0  0  0  0  0  0  0  0  0  0  0
    2.8520   17.7720  -33.0640 H   0  0  0  0  0  0  0  0  0  0  0  0
    2.0150   18.7660  -34.2800 H   0  0  0  0  0  0  0  0  0  0  0  0
    0.0511   16.7810  -26.4295 H   0  0  0  0  0  0  0  0  0  0  0  0
    1.5517   14.8888  -25.8170 H   0  0  0  0  0  0  0  0  0  0  0  0
    3.3570   14.1681  -27.3794 H   0  0  0  0  0  0  0  0  0  0  0  0
    3.6677   15.3392  -29.5569 H   0  0  0  0  0  0  0  0  0  0  0  0
   -3.6893   21.1360  -30.5609 H   0  0  0  0  0  0  0  0  0  0  0  0
   -4.8098   23.3145  -31.0179 H   0  0  0  0  0  0  0  0  0  0  0  0
  1  2  1  0
  2  3  2  0
  2  4  1  0
  4  5  1  0
  5  6  2  0
  6  7  1  0
  7  8  1  0
  8  9  1  0
  9 10  2  0
 10 11  1  0
 11 12  1  0
 12 13  2  0
 12 14  2  0
 12 15  1  0
 11 16  2  0
 16 17  1  0
 16 18  1  0
 18 19  2  0
 19 20  1  0
 20 21  2  0
 20 22  1  0
 22 23  2  0
 23 24  1  0
 24 25  2  0
 25 26  1  0
 26 27  2  0
 27 28  1  0
 28 29  2  0
  7 30  2  0
 30 31  1  0
 31 32  2  0
 32 33  1  0
 32  5  1  0
 19  9  1  0
 27 22  1  0
 28 18  1  0
  1 34  1  0
  1 35  1  0
  1 36  1  0
  6 37  1  0
  8 38  1  0
 10 39  1  0
 17 40  1  0
 17 41  1  0
 23 42  1  0
 24 43  1  0
 25 44  1  0
 26 45  1  0
 30 46  1  0
 31 47  1  0
M  CHG  3   4  -1  15  -1  33  -1
M  END
>  <UniqueID>  (11) 
11

>  <SMILES>  (11) 
CC(=O)[N-]c1cc(Nc2cc(S(=O)(=O)[O-])c(N)c3c2C(=O)c2ccccc2C3=O)ccc1[O-]

>  <Energy>  (11) 
81.18646592273613

>  <Genealogy>  (11) 
CC(=O)[N-]c1cc(Nc2cc(S(=O)(=O)[O-])c(N)c3c2C(=O)c2ccccc2C3=O)ccc1[O-] (protonated)
CC(=O)[N-]c1cc(Nc2cc(S(=O)(=O)[O-])c(N)c3c2C(=O)c2ccccc2C3=O)ccc1[O-] (3D coordinates assigned)
CC(=O)[N-]c1cc(Nc2cc(S(=O)(=O)[O-])c(N)c3c2C(=O)c2ccccc2C3=O)ccc1[O-] (nonaromatic ring conformer: 81.18646592273613 kcal/mol)

>  <smiles>  (11) 
CC(=O)Nc1cc(Nc2cc(S(=O)(=O)O)c(N)c3c2C(=O)c2ccccc2C3=O)ccc1O

>  <score_type>  (11) 
oracle

>  <origin>  (11) 
adgpu

>  <m_score__min__energy>  (11) 
-13.92

>  <m_primary>  (11) 
energy

$$$$
11:0
     RDKit          3D

 25 26  0  0  0  0  0  0  0  0999 V2000
   -6.8030   25.3160  -29.7180 C   0  0  0  0  0  0  0  0  0  0  0  0
   -5.6180   24.4670  -30.0740 C   0  0  0  0  0  0  0  0  0  0  0  0
   -5.6250   23.7000  -31.2490 C   0  0  0  0  0  0  0  0  0  0  0  0
   -4.5370   22.8810  -31.5620 C   0  0  0  0  0  0  0  0  0  0  0  0
   -3.4400   22.8130  -30.7010 C   0  0  0  0  0  0  0  0  0  0  0  0
   -3.4270   23.5640  -29.5170 C   0  0  0  0  0  0  0  0  0  0  0  0
   -2.3020   23.4830  -28.6220 N   0  0  0  0  0  0  0  0  0  0  0  0
   -1.4350   24.5410  -28.5560 C   0  0  0  0  0  0  0  0  0  0  0  0
   -1.6360   25.6750  -29.3400 O   0  0  0  0  0  0  0  0  0  0  0  0
   -0.3340   24.4970  -27.7050 C   0  0  0  0  0  0  0  0  0  0  0  0
   -0.1310   23.3610  -26.9300 C   0  0  0  0  0  0  0  0  0  0  0  0
    0.8600   23.2960  -26.1540 O   0  0  0  0  0  0  0  0  0  0  0  0
   -1.0030   22.3230  -27.0100 N   0  0  0  0  0  0  0  0  0  0  0  0
   -2.0830   22.3700  -27.8420 C   0  0  0  0  0  0  0  0  0  0  0  0
   -3.1170   21.0870  -27.8650 S   0  0  0  0  0  0  0  0  0  0  0  0
   -4.5220   24.3830  -29.2020 C   0  0  0  0  0  0  0  0  0  0  0  0
   -6.8925   25.3802  -28.6235 H   0  0  0  0  0  0  0  0  0  0  0  0
   -6.6695   26.3252  -30.1348 H   0  0  0  0  0  0  0  0  0  0  0  0
   -7.7156   24.8650  -30.1348 H   0  0  0  0  0  0  0  0  0  0  0  0
   -6.4905   23.7436  -31.9265 H   0  0  0  0  0  0  0  0  0  0  0  0
   -4.5448   22.2885  -32.4888 H   0  0  0  0  0  0  0  0  0  0  0  0
   -2.5843   22.1690  -30.9520 H   0  0  0  0  0  0  0  0  0  0  0  0
    0.3629   25.3461  -27.6469 H   0  0  0  0  0  0  0  0  0  0  0  0
   -0.8400   21.4770  -26.4160 H   0  0  0  0  0  0  0  0  0  0  0  0
   -4.5211   24.9621  -28.2668 H   0  0  0  0  0  0  0  0  0  0  0  0
  1  2  1  0
  2  3  2  0
  3  4  1  0
  4  5  2  0
  5  6  1  0
  6  7  1  0
  7  8  1  0
  8  9  1  0
  8 10  2  0
 10 11  1  0
 11 12  2  0
 11 13  1  0
 13 14  1  0
 14 15  2  0
  6 16  2  0
 16  2  1  0
 14  7  1  0
  1 17  1  0
  1 18  1  0
  1 19  1  0
  3 20  1  0
  4 21  1  0
  5 22  1  0
 10 23  1  0
 13 24  1  0
 16 25  1  0
M  CHG  1   9  -1
M  END
>  <UniqueID>  (12) 
12

>  <SMILES>  (12) 
Cc1cccc(-n2c([O-])cc(=O)[nH]c2=S)c1

>  <Energy>  (12) 
36.93094775333681

>  <Genealogy>  (12) 
Cc1cccc(-n2c([O-])cc(=O)[nH]c2=S)c1 (protonated)
Cc1cccc(-n2c([O-])cc(=O)[nH]c2=S)c1 (3D coordinates assigned)
Cc1cccc(-n2c([O-])cc(=O)[nH]c2=S)c1 (optimized conformer: 36.93094775333681 kcal/mol)

>  <smiles>  (12) 
Cc1cccc(-n2c(O)cc(=O)[nH]c2=S)c1

>  <score_type>  (12) 
oracle

>  <origin>  (12) 
adgpu

>  <m_score__min__energy>  (12) 
-8.3699999999999992

>  <m_primary>  (12) 
energy

$$$$
12:0
     RDKit          3D

 54 57  0  0  0  0  0  0  0  0999 V2000
    0.4720   21.4050  -28.2140 O   0  0  0  0  0  0  0  0  0  0  0  0
   -0.1550   22.2180  -28.9440 C   0  0  0  0  0  0  0  0  0  0  0  0
    0.2140   23.6030  -28.8970 N   0  0  0  0  0  0  0  0  0  0  0  0
   -0.0900   24.5350  -27.8470 C   0  0  0  0  0  0  0  0  0  0  0  0
    0.9060   24.9450  -26.9410 C   0  0  0  0  0  0  0  0  0  0  0  0
    0.6310   25.9210  -25.9810 C   0  0  0  0  0  0  0  0  0  0  0  0
   -0.6280   26.5180  -25.9320 C   0  0  0  0  0  0  0  0  0  0  0  0
   -1.6180   26.1380  -26.8400 C   0  0  0  0  0  0  0  0  0  0  0  0
   -1.3680   25.1350  -27.7860 C   0  0  0  0  0  0  0  0  0  0  0  0
   -2.4150   24.7930  -28.7070 N   0  0  0  0  0  0  0  0  0  0  0  0
   -3.6260   24.1030  -28.3710 C   0  0  0  0  0  0  0  0  0  0  0  0
   -3.8130   23.7190  -27.1830 O   0  0  0  0  0  0  0  0  0  0  0  0
   -4.6820   23.8740  -29.3940 C   0  0  0  0  0  0  0  0  0  0  0  0
   -5.6300   22.8490  -29.1920 C   0  0  0  0  0  0  0  0  0  0  0  0
   -6.6320   22.6070  -30.1350 C   0  0  0  0  0  0  0  0  0  0  0  0
   -6.7040   23.3780  -31.2940 C   0  0  0  0  0  0  0  0  0  0  0  0
   -5.7740   24.3940  -31.5150 C   0  0  0  0  0  0  0  0  0  0  0  0
   -4.7650   24.6470  -30.5770 C   0  0  0  0  0  0  0  0  0  0  0  0
   -3.8530   25.6620  -30.8450 O   0  0  0  0  0  0  0  0  0  0  0  0
   -1.2050   21.7080  -29.8590 C   0  0  0  0  0  0  0  0  0  0  0  0
   -2.3440   21.0700  -29.3370 C   0  0  0  0  0  0  0  0  0  0  0  0
   -3.3380   20.5820  -30.1900 C   0  0  0  0  0  0  0  0  0  0  0  0
   -3.2020   20.7140  -31.5790 C   0  0  0  0  0  0  0  0  0  0  0  0
   -4.4560   20.1260  -32.6660 S   0  0  0  0  0  0  0  0  0  0  0  0
   -4.0040   18.8600  -33.3410 O   0  0  0  0  0  0  0  0  0  0  0  0
   -4.7080   21.1690  -33.7200 O   0  0  0  0  0  0  0  0  0  0  0  0
   -5.9210   19.8290  -31.7600 N   0  0  0  0  0  0  0  0  0  0  0  0
   -6.0600   18.3950  -31.4210 C   0  0  0  0  0  0  0  0  0  0  0  0
   -7.1050   17.6890  -32.3040 C   0  0  0  0  0  0  0  0  0  0  0  0
   -8.3970   18.2720  -32.2200 O   0  0  0  0  0  0  0  0  0  0  0  0
   -8.3800   19.6820  -32.0320 C   0  0  0  0  0  0  0  0  0  0  0  0
   -7.0830   20.3610  -32.4990 C   0  0  0  0  0  0  0  0  0  0  0  0
   -2.0660   21.3380  -32.1050 C   0  0  0  0  0  0  0  0  0  0  0  0
   -1.0700   21.8230  -31.2540 C   0  0  0  0  0  0  0  0  0  0  0  0
    1.9079   24.4935  -26.9895 H   0  0  0  0  0  0  0  0  0  0  0  0
    1.4087   26.2192  -25.2625 H   0  0  0  0  0  0  0  0  0  0  0  0
   -0.8415   27.2892  -25.1772 H   0  0  0  0  0  0  0  0  0  0  0  0
   -2.6016   26.6296  -26.8126 H   0  0  0  0  0  0  0  0  0  0  0  0
   -5.5797   22.2334  -28.2818 H   0  0  0  0  0  0  0  0  0  0  0  0
   -7.3659   21.8060  -29.9624 H   0  0  0  0  0  0  0  0  0  0  0  0
   -7.4943   23.1853  -32.0345 H   0  0  0  0  0  0  0  0  0  0  0  0
   -5.8334   24.9999  -32.4311 H   0  0  0  0  0  0  0  0  0  0  0  0
   -2.4537   20.9540  -28.2487 H   0  0  0  0  0  0  0  0  0  0  0  0
   -4.2294   20.0930  -29.7702 H   0  0  0  0  0  0  0  0  0  0  0  0
   -5.0867   17.9018  -31.5604 H   0  0  0  0  0  0  0  0  0  0  0  0
   -6.3972   18.3254  -30.3763 H   0  0  0  0  0  0  0  0  0  0  0  0
   -6.7678   17.7366  -33.3500 H   0  0  0  0  0  0  0  0  0  0  0  0
   -7.1906   16.6535  -31.9429 H   0  0  0  0  0  0  0  0  0  0  0  0
   -9.2194   20.1159  -32.5953 H   0  0  0  0  0  0  0  0  0  0  0  0
   -8.4588   19.8589  -30.9492 H   0  0  0  0  0  0  0  0  0  0  0  0
   -6.9440   20.1737  -33.5740 H   0  0  0  0  0  0  0  0  0  0  0  0
   -7.1601   21.4414  -32.3071 H   0  0  0  0  0  0  0  0  0  0  0  0
   -1.9564   21.4473  -33.1940 H   0  0  0  0  0  0  0  0  0  0  0  0
   -0.1734   22.2984  -31.6783 H   0  0  0  0  0  0  0  0  0  0  0  0
  1  2  2  0
  2  3  1  0
  3  4  1  0
  4  5  2  0
  5  6  1  0
  6  7  2  0
  7  8  1  0
  8  9  2  0
  9 10  1  0
 10 11  1  0
 11 12  2  0
 11 13  1  0
 13 14  2  0
 14 15  1  0
 15 16  2  0
 16 17  1  0
 17 18  2  0
 18 19  1  0
  2 20  1  0
 20 21  2  0
 21 22  1  0
 22 23  2  0
 23 24  1  0
 24 25  2  0
 24 26  2  0
 24 27  1  0
 27 28  1  0
 28 29  1  0
 29 30  1  0
 30 31  1  0
 31 32  1  0
 23 33  1  0
 33 34  2  0
  9  4  1  0
 18 13  1  0
 34 20  1  0
 32 27  1  0
  5 35  1  0
  6 36  1  0
  7 37  1  0
  8 38  1  0
 14 39  1  0
 15 40  1  0
 16 41  1  0
 17 42  1  0
 21 43  1  0
 22 44  1  0
 28 45  1  0
 28 46  1  0
 29 47  1  0
 29 48  1  0
 31 49  1  0
 31 50  1  0
 32 51  1  0
 32 52  1  0
 33 53  1  0
 34 54  1  0
M  CHG  3   3  -1  10  -1  19  -1
M  END
>  <UniqueID>  (13) 
13

>  <SMILES>  (13) 
O=C([N-]c1ccccc1[N-]C(=O)c1ccccc1[O-])c1ccc(S(=O)(=O)N2CCOCC2)cc1

>  <Energy>  (13) 
85.3038027824573

>  <Genealogy>  (13) 
O=C([N-]c1ccccc1[N-]C(=O)c1ccccc1[O-])c1ccc(S(=O)(=O)N2CCOCC2)cc1 (protonated)
O=C([N-]c1ccccc1[N-]C(=O)c1ccccc1[O-])c1ccc(S(=O)(=O)N2CCOCC2)cc1 (3D coordinates assigned)
O=C([N-]c1ccccc1[N-]C(=O)c1ccccc1[O-])c1ccc(S(=O)(=O)N2CCOCC2)cc1 (nonaromatic ring conformer: 85.3038027824573 kcal/mol)

>  <smiles>  (13) 
O=C(Nc1ccccc1NC(=O)c1ccccc1O)c1ccc(S(=O)(=O)N2CCOCC2)cc1

>  <score_type>  (13) 
oracle

>  <origin>  (13) 
adgpu

>  <m_score__min__energy>  (13) 
-14.93

>  <m_primary>  (13) 
energy

$$$$
13:0
     RDKit          3D

 52 55  0  0  0  0  0  0  0  0999 V2000
   -2.6482   20.1836  -28.8827 H   0  0  0  0  0  0  0  0  0  0  0  0
   -2.9760   21.1810  -29.2110 C   0  0  0  0  0  0  0  0  0  0  0  0
   -3.7220   21.3060  -30.3380 N   0  0  0  0  0  0  0  0  0  0  0  0
   -4.1420   22.5160  -30.7840 C   0  0  0  0  0  0  0  0  0  0  0  0
   -5.1130   22.6190  -32.2410 S   0  0  0  0  0  0  0  0  0  0  0  0
   -4.2510   22.3320  -33.4390 O   0  0  0  0  0  0  0  0  0  0  0  0
   -5.6750   24.0060  -32.3810 O   0  0  0  0  0  0  0  0  0  0  0  0
   -6.4360   21.4630  -32.1430 C   0  0  0  0  0  0  0  0  0  0  0  0
   -7.6850   21.8660  -31.6520 C   0  0  0  0  0  0  0  0  0  0  0  0
   -7.8415   22.9101  -31.3433 H   0  0  0  0  0  0  0  0  0  0  0  0
   -8.7330   20.9460  -31.5530 C   0  0  0  0  0  0  0  0  0  0  0  0
   -9.7132   21.2678  -31.1714 H   0  0  0  0  0  0  0  0  0  0  0  0
   -8.5350   19.6170  -31.9390 C   0  0  0  0  0  0  0  0  0  0  0  0
   -9.3601   18.8936  -31.8626 H   0  0  0  0  0  0  0  0  0  0  0  0
   -7.2890   19.2070  -32.4220 C   0  0  0  0  0  0  0  0  0  0  0  0
   -7.1336   18.1604  -32.7229 H   0  0  0  0  0  0  0  0  0  0  0  0
   -6.2400   20.1260  -32.5230 C   0  0  0  0  0  0  0  0  0  0  0  0
   -5.2595   19.8007  -32.9009 H   0  0  0  0  0  0  0  0  0  0  0  0
   -3.7650   23.6780  -30.1060 C   0  0  0  0  0  0  0  0  0  0  0  0
   -4.1204   24.6578  -30.4577 H   0  0  0  0  0  0  0  0  0  0  0  0
   -2.9360   23.5990  -28.9800 C   0  0  0  0  0  0  0  0  0  0  0  0
   -2.4770   24.7260  -28.5030 N   0  0  0  0  0  0  0  0  0  0  0  0
   -1.3930   24.9580  -27.5910 C   0  0  0  0  0  0  0  0  0  0  0  0
   -0.1150   24.5020  -27.9180 C   0  0  0  0  0  0  0  0  0  0  0  0
    0.0613   24.0214  -28.8916 H   0  0  0  0  0  0  0  0  0  0  0  0
    0.9410   24.6520  -27.0170 C   0  0  0  0  0  0  0  0  0  0  0  0
    1.9488   24.3115  -27.2969 H   0  0  0  0  0  0  0  0  0  0  0  0
    0.7280   25.2340  -25.7560 C   0  0  0  0  0  0  0  0  0  0  0  0
    1.8860   25.3800  -24.8060 C   0  0  0  0  0  0  0  0  0  0  0  0
    1.5186   25.3337  -23.7702 H   0  0  0  0  0  0  0  0  0  0  0  0
    2.6053   24.5654  -24.9767 H   0  0  0  0  0  0  0  0  0  0  0  0
    2.3806   26.3476  -24.9767 H   0  0  0  0  0  0  0  0  0  0  0  0
   -0.5800   25.6290  -25.3880 C   0  0  0  0  0  0  0  0  0  0  0  0
   -0.8650   26.2280  -24.0350 C   0  0  0  0  0  0  0  0  0  0  0  0
   -0.5343   25.5329  -23.2492 H   0  0  0  0  0  0  0  0  0  0  0  0
   -0.3234   27.1801  -23.9340 H   0  0  0  0  0  0  0  0  0  0  0  0
   -1.9454   26.4083  -23.9340 H   0  0  0  0  0  0  0  0  0  0  0  0
   -1.6320   25.4760  -26.3080 C   0  0  0  0  0  0  0  0  0  0  0  0
   -2.6534   25.7652  -26.0196 H   0  0  0  0  0  0  0  0  0  0  0  0
   -2.6190   22.3110  -28.4610 C   0  0  0  0  0  0  0  0  0  0  0  0
   -1.9750   22.0280  -26.7970 S   0  0  0  0  0  0  0  0  0  0  0  0
   -0.9840   20.5990  -27.2740 C   0  0  0  0  0  0  0  0  0  0  0  0
    0.2720   20.8190  -27.8550 C   0  0  0  0  0  0  0  0  0  0  0  0
    0.6329   21.8476  -28.0027 H   0  0  0  0  0  0  0  0  0  0  0  0
    1.0690   19.7410  -28.2480 C   0  0  0  0  0  0  0  0  0  0  0  0
    2.0505   19.9231  -28.7100 H   0  0  0  0  0  0  0  0  0  0  0  0
    0.6210   18.4330  -28.0550 C   0  0  0  0  0  0  0  0  0  0  0  0
    1.6220   17.0790  -28.5480 Cl  0  0  0  0  0  0  0  0  0  0  0  0
   -0.6240   18.2030  -27.4600 C   0  0  0  0  0  0  0  0  0  0  0  0
   -0.9729   17.1718  -27.3025 H   0  0  0  0  0  0  0  0  0  0  0  0
   -1.4280   19.2780  -27.0640 C   0  0  0  0  0  0  0  0  0  0  0  0
   -2.9700   18.9310  -26.3020 Cl  0  0  0  0  0  0  0  0  0  0  0  0
  1  2  1  0
  2  3  1  0
  3  4  1  0
  4  5  1  0
  5  6  2  0
  5  7  2  0
  5  8  1  0
  8  9  2  0
  9 10  1  0
  9 11  1  0
 11 12  1  0
 11 13  2  0
 13 14  1  0
 13 15  1  0
 15 16  1  0
 15 17  2  0
 17 18  1  0
  4 19  2  0
 19 20  1  0
 19 21  1  0
 21 22  2  0
 22 23  1  0
 23 24  2  0
 24 25  1  0
 24 26  1  0
 26 27  1  0
 26 28  2  0
 28 29  1  0
 29 30  1  0
 29 31  1  0
 29 32  1  0
 28 33  1  0
 33 34  1  0
 34 35  1  0
 34 36  1  0
 34 37  1  0
 33 38  2  0
 38 39  1  0
 21 40  1  0
 40 41  1  0
 41 42  1  0
 42 43  2  0
 43 44  1  0
 43 45  1  0
 45 46  1  0
 45 47  2  0
 47 48  1  0
 47 49  1  0
 49 50  1  0
 49 51  2  0
 51 52  1  0
 40  2  2  0
 51 42  1  0
 17  8  1  0
 38 23  1  0
M  CHG  1   3  -1
M  END
>  <UniqueID>  (14) 
14

>  <SMILES>  (14) 
Cc1ccc(/N=c2/cc(S(=O)(=O)c3ccccc3)[n-]cc2Sc2ccc(Cl)cc2Cl)cc1C

>  <Energy>  (14) 
73.5028612750374

>  <Genealogy>  (14) 
Cc1ccc(N=c2cc(S(=O)(=O)c3ccccc3)[n-]cc2Sc2ccc(Cl)cc2Cl)cc1C (protonated)
Cc1ccc(/N=c2/cc(S(=O)(=O)c3ccccc3)[n-]cc2Sc2ccc(Cl)cc2Cl)cc1C (cis-trans isomerization)
Cc1ccc(/N=c2/cc(S(=O)(=O)c3ccccc3)[n-]cc2Sc2ccc(Cl)cc2Cl)cc1C (3D coordinates assigned)
Cc1ccc(/N=c2/cc(S(=O)(=O)c3ccccc3)[n-]cc2Sc2ccc(Cl)cc2Cl)cc1C (optimized conformer: 73.5028612750374 kcal/mol)

>  <smiles>  (14) 
Cc1ccc(N=c2cc(S(=O)(=O)c3ccccc3)[nH]cc2Sc2ccc(Cl)cc2Cl)cc1C

>  <score_type>  (14) 
oracle

>  <origin>  (14) 
adgpu

>  <m_score__min__energy>  (14) 
-10.65

>  <m_primary>  (14) 
energy

$$$$
14:0
     RDKit          3D

 58 60  0  0  0  0  0  0  0  0999 V2000
   -0.8060   26.9960  -27.8340 C   0  0  0  0  0  0  0  0  0  0  0  0
   -0.7650   26.2910  -26.5160 C   0  0  0  0  0  0  0  0  0  0  0  0
   -0.9310   26.9980  -25.3170 C   0  0  0  0  0  0  0  0  0  0  0  0
   -0.8750   26.3110  -24.1000 C   0  0  0  0  0  0  0  0  0  0  0  0
   -0.6410   24.9370  -24.0880 C   0  0  0  0  0  0  0  0  0  0  0  0
   -0.4570   24.2590  -25.3030 C   0  0  0  0  0  0  0  0  0  0  0  0
   -0.1200   22.7950  -25.3170 C   0  0  0  0  0  0  0  0  0  0  0  0
   -1.2050   21.9420  -25.9920 C   0  0  0  0  0  0  0  0  0  0  0  0
   -0.6390   20.7250  -26.7510 C   0  0  0  0  0  0  0  0  0  0  0  0
   -1.3760   20.4670  -28.0010 N   0  0  0  0  0  0  0  0  0  0  0  0
   -2.8220   20.7250  -28.0660 C   0  0  0  0  0  0  0  0  0  0  0  0
   -3.0890   22.0280  -28.7680 C   0  0  0  0  0  0  0  0  0  0  0  0
   -2.8960   23.2480  -28.0960 C   0  0  0  0  0  0  0  0  0  0  0  0
   -3.1530   24.4600  -28.7460 C   0  0  0  0  0  0  0  0  0  0  0  0
   -3.6160   24.4620  -30.0670 C   0  0  0  0  0  0  0  0  0  0  0  0
   -3.8600   25.6670  -30.7170 O   0  0  0  0  0  0  0  0  0  0  0  0
   -3.8330   23.2520  -30.7340 C   0  0  0  0  0  0  0  0  0  0  0  0
   -3.5740   22.0380  -30.0880 C   0  0  0  0  0  0  0  0  0  0  0  0
   -0.6920   19.9310  -29.1510 C   0  0  0  0  0  0  0  0  0  0  0  0
   -0.4140   18.5570  -29.1980 C   0  0  0  0  0  0  0  0  0  0  0  0
    0.1920   17.9960  -30.3190 C   0  0  0  0  0  0  0  0  0  0  0  0
    0.5110   18.7920  -31.4180 C   0  0  0  0  0  0  0  0  0  0  0  0
    0.2740   20.1780  -31.3870 C   0  0  0  0  0  0  0  0  0  0  0  0
    0.5890   21.0210  -32.5110 N   0  0  0  0  0  0  0  0  0  0  0  0
   -0.3520   21.2050  -33.9580 S   0  0  0  0  0  0  0  0  0  0  0  0
   -0.3360   19.6920  -34.9000 C   0  0  0  0  0  0  0  0  0  0  0  0
    0.2610   22.2920  -34.7940 O   0  0  0  0  0  0  0  0  0  0  0  0
   -1.7630   21.5940  -33.6110 O   0  0  0  0  0  0  0  0  0  0  0  0
   -0.2860   20.7640  -30.2280 C   0  0  0  0  0  0  0  0  0  0  0  0
   -0.4490   22.2680  -30.1610 C   0  0  0  0  0  0  0  0  0  0  0  0
   -0.5190   24.9520  -26.4780 N   0  0  0  0  0  0  0  0  0  0  0  0
   -0.8691   28.0815  -27.6674 H   0  0  0  0  0  0  0  0  0  0  0  0
    0.1071   26.7647  -28.4021 H   0  0  0  0  0  0  0  0  0  0  0  0
   -1.6861   26.6604  -28.4021 H   0  0  0  0  0  0  0  0  0  0  0  0
   -1.1039   28.0842  -25.3331 H   0  0  0  0  0  0  0  0  0  0  0  0
   -1.0154   26.8542  -23.1538 H   0  0  0  0  0  0  0  0  0  0  0  0
   -0.6009   24.3891  -23.1350 H   0  0  0  0  0  0  0  0  0  0  0  0
    0.8255   22.6570  -25.8619 H   0  0  0  0  0  0  0  0  0  0  0  0
   -0.0398   22.4630  -24.2714 H   0  0  0  0  0  0  0  0  0  0  0  0
   -1.8966   21.5796  -25.2172 H   0  0  0  0  0  0  0  0  0  0  0  0
   -1.7095   22.5815  -26.7313 H   0  0  0  0  0  0  0  0  0  0  0  0
    0.4168   20.9163  -26.9934 H   0  0  0  0  0  0  0  0  0  0  0  0
   -0.7429   19.8410  -26.1047 H   0  0  0  0  0  0  0  0  0  0  0  0
   -3.3117   19.9088  -28.6174 H   0  0  0  0  0  0  0  0  0  0  0  0
   -3.2216   20.7816  -27.0427 H   0  0  0  0  0  0  0  0  0  0  0  0
   -2.5414   23.2495  -27.0547 H   0  0  0  0  0  0  0  0  0  0  0  0
   -2.9911   25.4117  -28.2187 H   0  0  0  0  0  0  0  0  0  0  0  0
   -4.2079   23.2546  -31.7681 H   0  0  0  0  0  0  0  0  0  0  0  0
   -3.7504   21.0884  -30.6144 H   0  0  0  0  0  0  0  0  0  0  0  0
   -0.6768   17.9176  -28.3424 H   0  0  0  0  0  0  0  0  0  0  0  0
    0.4200   16.9201  -30.3375 H   0  0  0  0  0  0  0  0  0  0  0  0
    0.9511   18.3330  -32.3156 H   0  0  0  0  0  0  0  0  0  0  0  0
   -0.3269   18.8327  -34.2134 H   0  0  0  0  0  0  0  0  0  0  0  0
   -1.2337   19.6453  -35.5340 H   0  0  0  0  0  0  0  0  0  0  0  0
    0.5625   19.6643  -35.5340 H   0  0  0  0  0  0  0  0  0  0  0  0
   -0.4835   22.5866  -29.1087 H   0  0  0  0  0  0  0  0  0  0  0  0
    0.4020   22.7518  -30.6628 H   0  0  0  0  0  0  0  0  0  0  0  0
   -1.3839   22.5582  -30.6628 H   0  0  0  0  0  0  0  0  0  0  0  0
  1  2  1  0
  2  3  2  0
  3  4  1  0
  4  5  2  0
  5  6  1  0
  6  7  1  0
  7  8  1  0
  8  9  1  0
  9 10  1  0
 10 11  1  0
 11 12  1  0
 12 13  2  0
 13 14  1  0
 14 15  2  0
 15 16  1  0
 15 17  1  0
 17 18  2  0
 10 19  1  0
 19 20  2  0
 20 21  1  0
 21 22  2  0
 22 23  1  0
 23 24  1  0
 24 25  1  0
 25 26  1  0
 25 27  2  0
 25 28  2  0
 23 29  2  0
 29 30  1  0
  6 31  2  0
 31  2  1  0
 18 12  1  0
 29 19  1  0
  1 32  1  0
  1 33  1  0
  1 34  1  0
  3 35  1  0
  4 36  1  0
  5 37  1  0
  7 38  1  0
  7 39  1  0
  8 40  1  0
  8 41  1  0
  9 42  1  0
  9 43  1  0
 11 44  1  0
 11 45  1  0
 13 46  1  0
 14 47  1  0
 17 48  1  0
 18 49  1  0
 20 50  1  0
 21 51  1  0
 22 52  1  0
 26 53  1  0
 26 54  1  0
 26 55  1  0
 30 56  1  0
 30 57  1  0
 30 58  1  0
M  CHG  2  16  -1  24  -1
M  END
>  <UniqueID>  (15) 
15

>  <SMILES>  (15) 
Cc1cccc(CCCN(Cc2ccc([O-])cc2)c2cccc([N-]S(C)(=O)=O)c2C)n1

>  <Energy>  (15) 
55.71011980109673

>  <Genealogy>  (15) 
Cc1cccc(CCCN(Cc2ccc([O-])cc2)c2cccc([N-]S(C)(=O)=O)c2C)n1 (protonated)
Cc1cccc(CCCN(Cc2ccc([O-])cc2)c2cccc([N-]S(C)(=O)=O)c2C)n1 (3D coordinates assigned)
Cc1cccc(CCCN(Cc2ccc([O-])cc2)c2cccc([N-]S(C)(=O)=O)c2C)n1 (optimized conformer: 55.71011980109673 kcal/mol)

>  <smiles>  (15) 
Cc1cccc(CCCN(Cc2ccc(O)cc2)c2cccc(NS(C)(=O)=O)c2C)n1

>  <score_type>  (15) 
oracle

>  <origin>  (15) 
adgpu

>  <m_score__min__energy>  (15) 
-11.640000000000001

>  <m_primary>  (15) 
energy

$$$$
15:0
     RDKit          3D

 40 42  0  0  0  0  0  0  0  0999 V2000
    0.7330   25.8010  -26.7880 C   0  0  0  0  0  0  0  0  0  0  0  0
   -0.6850   25.7220  -26.3250 C   0  0  0  0  0  0  0  0  0  0  0  0
   -1.1440   26.3210  -25.2070 N   0  0  0  0  0  0  0  0  0  0  0  0
   -2.4220   26.0750  -25.1400 O   0  0  0  0  0  0  0  0  0  0  0  0
   -2.8230   25.3510  -26.1600 C   0  0  0  0  0  0  0  0  0  0  0  0
   -4.2360   24.9200  -26.3760 C   0  0  0  0  0  0  0  0  0  0  0  0
   -1.7340   25.0990  -26.9700 C   0  0  0  0  0  0  0  0  0  0  0  0
   -1.6860   24.2110  -28.4920 S   0  0  0  0  0  0  0  0  0  0  0  0
   -0.2770   24.2180  -29.0130 O   0  0  0  0  0  0  0  0  0  0  0  0
   -2.1270   22.7880  -28.2970 O   0  0  0  0  0  0  0  0  0  0  0  0
   -2.7250   24.9660  -29.6550 N   0  0  0  0  0  0  0  0  0  0  0  0
   -3.7180   24.2890  -30.4380 C   0  0  0  0  0  0  0  0  0  0  0  0
   -4.9440   24.9260  -30.6620 C   0  0  0  0  0  0  0  0  0  0  0  0
   -5.9460   24.2960  -31.4050 C   0  0  0  0  0  0  0  0  0  0  0  0
   -5.7410   23.0050  -31.9200 C   0  0  0  0  0  0  0  0  0  0  0  0
   -6.7520   22.3410  -32.6980 N   0  0  0  0  0  0  0  0  0  0  0  0
   -7.1800   20.9840  -32.4920 C   0  0  0  0  0  0  0  0  0  0  0  0
   -6.4650   19.9000  -33.0360 C   0  0  0  0  0  0  0  0  0  0  0  0
   -6.9220   18.5910  -32.8520 C   0  0  0  0  0  0  0  0  0  0  0  0
   -8.1000   18.3540  -32.1390 C   0  0  0  0  0  0  0  0  0  0  0  0
   -8.8260   19.4270  -31.6140 C   0  0  0  0  0  0  0  0  0  0  0  0
   -8.3730   20.7360  -31.7960 C   0  0  0  0  0  0  0  0  0  0  0  0
   -4.5040   22.3780  -31.7210 C   0  0  0  0  0  0  0  0  0  0  0  0
   -3.5000   23.0100  -30.9820 C   0  0  0  0  0  0  0  0  0  0  0  0
    1.4020   25.8383  -25.9156 H   0  0  0  0  0  0  0  0  0  0  0  0
    0.9706   24.9147  -27.3947 H   0  0  0  0  0  0  0  0  0  0  0  0
    0.8706   26.7082  -27.3947 H   0  0  0  0  0  0  0  0  0  0  0  0
   -4.7265   24.7704  -25.4029 H   0  0  0  0  0  0  0  0  0  0  0  0
   -4.7733   25.6951  -26.9421 H   0  0  0  0  0  0  0  0  0  0  0  0
   -4.2492   23.9770  -26.9421 H   0  0  0  0  0  0  0  0  0  0  0  0
   -5.1202   25.9306  -30.2499 H   0  0  0  0  0  0  0  0  0  0  0  0
   -6.8995   24.8132  -31.5875 H   0  0  0  0  0  0  0  0  0  0  0  0
   -7.1970   22.8770  -33.4790 H   0  0  0  0  0  0  0  0  0  0  0  0
   -5.5434   20.0833  -33.6079 H   0  0  0  0  0  0  0  0  0  0  0  0
   -6.3532   17.7469  -33.2692 H   0  0  0  0  0  0  0  0  0  0  0  0
   -8.4559   17.3237  -31.9909 H   0  0  0  0  0  0  0  0  0  0  0  0
   -9.7557   19.2404  -31.0565 H   0  0  0  0  0  0  0  0  0  0  0  0
   -8.9549   21.5772  -31.3913 H   0  0  0  0  0  0  0  0  0  0  0  0
   -4.3217   21.3814  -32.1494 H   0  0  0  0  0  0  0  0  0  0  0  0
   -2.5353   22.5052  -30.8251 H   0  0  0  0  0  0  0  0  0  0  0  0
  1  2  1  0
  2  3  2  0
  3  4  1  0
  4  5  1  0
  5  6  1  0
  5  7  2  0
  7  8  1  0
  8  9  2  0
  8 10  2  0
  8 11  1  0
 11 12  1  0
 12 13  2  0
 13 14  1  0
 14 15  2  0
 15 16  1  0
 16 17  1  0
 17 18  2  0
 18 19  1  0
 19 20  2  0
 20 21  1  0
 21 22  2  0
 15 23  1  0
 23 24  2  0
  7  2  1  0
 24 12  1  0
 22 17  1  0
  1 25  1  0
  1 26  1  0
  1 27  1  0
  6 28  1  0
  6 29  1  0
  6 30  1  0
 13 31  1  0
 14 32  1  0
 16 33  1  0
 18 34  1  0
 19 35  1  0
 20 36  1  0
 21 37  1  0
 22 38  1  0
 23 39  1  0
 24 40  1  0
M  CHG  1  11  -1
M  END
>  <UniqueID>  (16) 
16

>  <SMILES>  (16) 
Cc1noc(C)c1S(=O)(=O)[N-]c1ccc(Nc2ccccc2)cc1

>  <Energy>  (16) 
79.05814176347356

>  <Genealogy>  (16) 
Cc1noc(C)c1S(=O)(=O)[N-]c1ccc(Nc2ccccc2)cc1 (protonated)
Cc1noc(C)c1S(=O)(=O)[N-]c1ccc(Nc2ccccc2)cc1 (3D coordinates assigned)
Cc1noc(C)c1S(=O)(=O)[N-]c1ccc(Nc2ccccc2)cc1 (optimized conformer: 79.05814176347356 kcal/mol)

>  <smiles>  (16) 
Cc1noc(C)c1S(=O)(=O)Nc1ccc(Nc2ccccc2)cc1

>  <score_type>  (16) 
oracle

>  <origin>  (16) 
adgpu

>  <m_score__min__energy>  (16) 
-10.24

>  <m_primary>  (16) 
energy

$$$$
16:0
     RDKit          3D

 46 48  0  0  0  0  0  0  0  0999 V2000
   -9.7250   21.4740  -31.7110 C   0  0  0  0  0  0  0  0  0  0  0  0
   -8.5320   20.8380  -32.2540 N   0  0  0  0  0  0  0  0  0  0  0  0
   -8.3790   19.4090  -32.2590 C   0  0  0  0  0  0  0  0  0  0  0  0
   -9.3280   18.6830  -31.8550 O   0  0  0  0  0  0  0  0  0  0  0  0
   -7.1360   18.7700  -32.7560 C   0  0  0  0  0  0  0  0  0  0  0  0
   -7.1330   17.4020  -33.0810 C   0  0  0  0  0  0  0  0  0  0  0  0
   -5.9760   16.7920  -33.5710 C   0  0  0  0  0  0  0  0  0  0  0  0
   -4.8080   17.5360  -33.7440 C   0  0  0  0  0  0  0  0  0  0  0  0
   -4.7830   18.8970  -33.4060 C   0  0  0  0  0  0  0  0  0  0  0  0
   -3.5150   19.6930  -33.5420 C   0  0  0  0  0  0  0  0  0  0  0  0
   -3.8290   21.4820  -33.3450 S   0  0  0  0  0  0  0  0  0  0  0  0
   -2.7670   21.6900  -31.9020 C   0  0  0  0  0  0  0  0  0  0  0  0
   -1.5190   21.0640  -31.9100 C   0  0  0  0  0  0  0  0  0  0  0  0
   -0.6570   21.2070  -30.8220 C   0  0  0  0  0  0  0  0  0  0  0  0
    0.4670   20.6340  -30.8510 O   0  0  0  0  0  0  0  0  0  0  0  0
   -1.0280   21.9580  -29.7380 N   0  0  0  0  0  0  0  0  0  0  0  0
   -0.1260   22.0850  -28.5860 C   0  0  0  0  0  0  0  0  0  0  0  0
   -2.2590   22.5530  -29.6970 C   0  0  0  0  0  0  0  0  0  0  0  0
   -3.1560   22.4430  -30.7730 C   0  0  0  0  0  0  0  0  0  0  0  0
   -4.4910   23.0900  -30.6700 C   0  0  0  0  0  0  0  0  0  0  0  0
   -5.6590   22.3070  -30.6890 C   0  0  0  0  0  0  0  0  0  0  0  0
   -6.9170   22.9080  -30.5810 C   0  0  0  0  0  0  0  0  0  0  0  0
   -7.0220   24.2920  -30.4330 C   0  0  0  0  0  0  0  0  0  0  0  0
   -5.8690   25.0790  -30.3880 C   0  0  0  0  0  0  0  0  0  0  0  0
   -4.6070   24.4860  -30.4990 C   0  0  0  0  0  0  0  0  0  0  0  0
   -3.4750   25.2940  -30.4490 O   0  0  0  0  0  0  0  0  0  0  0  0
   -5.9460   19.5060  -32.9030 C   0  0  0  0  0  0  0  0  0  0  0  0
   -9.6842   21.4522  -30.6120 H   0  0  0  0  0  0  0  0  0  0  0  0
   -9.7733   22.5175  -32.0555 H   0  0  0  0  0  0  0  0  0  0  0  0
  -10.6183   20.9324  -32.0555 H   0  0  0  0  0  0  0  0  0  0  0  0
   -7.8130   21.4490  -32.7010 H   0  0  0  0  0  0  0  0  0  0  0  0
   -8.0490   16.8076  -32.9483 H   0  0  0  0  0  0  0  0  0  0  0  0
   -5.9854   15.7210  -33.8215 H   0  0  0  0  0  0  0  0  0  0  0  0
   -3.9049   17.0539  -34.1464 H   0  0  0  0  0  0  0  0  0  0  0  0
   -2.8029   19.3671  -32.7695 H   0  0  0  0  0  0  0  0  0  0  0  0
   -3.1040   19.5216  -34.5478 H   0  0  0  0  0  0  0  0  0  0  0  0
   -1.2148   20.4570  -32.7755 H   0  0  0  0  0  0  0  0  0  0  0  0
   -0.7064   22.0033  -27.6551 H   0  0  0  0  0  0  0  0  0  0  0  0
    0.6272   21.2840  -28.6200 H   0  0  0  0  0  0  0  0  0  0  0  0
    0.3768   23.0628  -28.6200 H   0  0  0  0  0  0  0  0  0  0  0  0
   -2.5519   23.1277  -28.8060 H   0  0  0  0  0  0  0  0  0  0  0  0
   -5.5825   21.2143  -30.7895 H   0  0  0  0  0  0  0  0  0  0  0  0
   -7.8257   22.2889  -30.6127 H   0  0  0  0  0  0  0  0  0  0  0  0
   -8.0128   24.7629  -30.3518 H   0  0  0  0  0  0  0  0  0  0  0  0
   -5.9537   26.1688  -30.2649 H   0  0  0  0  0  0  0  0  0  0  0  0
   -5.9254   20.5691  -32.6214 H   0  0  0  0  0  0  0  0  0  0  0  0
  1  2  1  0
  2  3  1  0
  3  4  2  0
  3  5  1  0
  5  6  2  0
  6  7  1  0
  7  8  2  0
  8  9  1  0
  9 10  1  0
 10 11  1  0
 11 12  1  0
 12 13  2  0
 13 14  1  0
 14 15  2  0
 14 16  1  0
 16 17  1  0
 16 18  1  0
 18 19  2  0
 19 20  1  0
 20 21  2  0
 21 22  1  0
 22 23  2  0
 23 24  1  0
 24 25  2  0
 25 26  1  0
  9 27  2  0
 27  5  1  0
 19 12  1  0
 25 20  1  0
  1 28  1  0
  1 29  1  0
  1 30  1  0
  2 31  1  0
  6 32  1  0
  7 33  1  0
  8 34  1  0
 10 35  1  0
 10 36  1  0
 13 37  1  0
 17 38  1  0
 17 39  1  0
 17 40  1  0
 18 41  1  0
 21 42  1  0
 22 43  1  0
 23 44  1  0
 24 45  1  0
 27 46  1  0
M  CHG  1  26  -1
M  END
>  <UniqueID>  (17) 
17

>  <SMILES>  (17) 
CNC(=O)c1cccc(CSc2cc(=O)n(C)cc2-c2ccccc2[O-])c1

>  <Energy>  (17) 
48.72174159459675

>  <Genealogy>  (17) 
CNC(=O)c1cccc(CSc2cc(=O)n(C)cc2-c2ccccc2[O-])c1 (protonated)
CNC(=O)c1cccc(CSc2cc(=O)n(C)cc2-c2ccccc2[O-])c1 (3D coordinates assigned)
CNC(=O)c1cccc(CSc2cc(=O)n(C)cc2-c2ccccc2[O-])c1 (optimized conformer: 48.72174159459675 kcal/mol)

>  <smiles>  (17) 
CNC(=O)c1cccc(CSc2cc(=O)n(C)cc2-c2ccccc2O)c1

>  <score_type>  (17) 
oracle

>  <origin>  (17) 
adgpu

>  <m_score__min__energy>  (17) 
-12.210000000000001

>  <m_primary>  (17) 
energy

$$$$
17:0
     RDKit          3D

 42 45  0  0  0  0  0  0  0  0999 V2000
   -3.7710   18.8780  -34.2350 O   0  0  0  0  0  0  0  0  0  0  0  0
   -4.7280   19.6360  -33.5720 C   0  0  0  0  0  0  0  0  0  0  0  0
   -4.3350   20.7500  -32.8250 C   0  0  0  0  0  0  0  0  0  0  0  0
   -5.2920   21.5260  -32.1510 C   0  0  0  0  0  0  0  0  0  0  0  0
   -4.8700   22.7020  -31.3640 C   0  0  0  0  0  0  0  0  0  0  0  0
   -4.2930   22.6340  -30.1470 N   0  0  0  0  0  0  0  0  0  0  0  0
   -4.1090   23.9410  -29.8620 C   0  0  0  0  0  0  0  0  0  0  0  0
   -3.4950   24.4320  -28.6090 C   0  0  0  0  0  0  0  0  0  0  0  0
   -4.2490   24.4980  -27.4250 C   0  0  0  0  0  0  0  0  0  0  0  0
   -3.6690   24.9660  -26.2420 C   0  0  0  0  0  0  0  0  0  0  0  0
   -2.3360   25.3850  -26.2230 C   0  0  0  0  0  0  0  0  0  0  0  0
   -1.7890   25.8370  -25.0130 O   0  0  0  0  0  0  0  0  0  0  0  0
   -0.4410   25.7320  -24.6400 C   0  0  0  0  0  0  0  0  0  0  0  0
    0.1920   26.8510  -24.0870 C   0  0  0  0  0  0  0  0  0  0  0  0
    1.5400   26.7960  -23.7240 C   0  0  0  0  0  0  0  0  0  0  0  0
    2.2880   25.6240  -23.9350 C   0  0  0  0  0  0  0  0  0  0  0  0
    3.7300   25.5590  -23.5010 C   0  0  0  0  0  0  0  0  0  0  0  0
    3.9850   26.5090  -22.5290 F   0  0  0  0  0  0  0  0  0  0  0  0
    4.5800   25.7940  -24.5680 F   0  0  0  0  0  0  0  0  0  0  0  0
    3.9940   24.3050  -22.9850 F   0  0  0  0  0  0  0  0  0  0  0  0
    1.6490   24.4960  -24.4790 C   0  0  0  0  0  0  0  0  0  0  0  0
    0.3000   24.5540  -24.8430 C   0  0  0  0  0  0  0  0  0  0  0  0
   -1.5700   25.3000  -27.3990 C   0  0  0  0  0  0  0  0  0  0  0  0
   -2.1490   24.8340  -28.5830 C   0  0  0  0  0  0  0  0  0  0  0  0
   -4.5490   24.7480  -30.8490 N   0  0  0  0  0  0  0  0  0  0  0  0
   -5.0120   23.9440  -31.7570 O   0  0  0  0  0  0  0  0  0  0  0  0
   -6.6490   21.1710  -32.2370 C   0  0  0  0  0  0  0  0  0  0  0  0
   -7.0450   20.0540  -32.9890 C   0  0  0  0  0  0  0  0  0  0  0  0
   -8.3900   19.7040  -33.0770 O   0  0  0  0  0  0  0  0  0  0  0  0
   -6.0810   19.2880  -33.6550 C   0  0  0  0  0  0  0  0  0  0  0  0
   -6.4710   18.1810  -34.4020 O   0  0  0  0  0  0  0  0  0  0  0  0
   -3.2705   21.0204  -32.7647 H   0  0  0  0  0  0  0  0  0  0  0  0
   -5.3019   24.1795  -27.4289 H   0  0  0  0  0  0  0  0  0  0  0  0
   -4.2665   25.0047  -25.3192 H   0  0  0  0  0  0  0  0  0  0  0  0
   -0.3761   27.7809  -23.9370 H   0  0  0  0  0  0  0  0  0  0  0  0
    2.0196   27.6757  -23.2699 H   0  0  0  0  0  0  0  0  0  0  0  0
    2.2135   23.5623  -24.6191 H   0  0  0  0  0  0  0  0  0  0  0  0
   -0.1842   23.6735  -25.2905 H   0  0  0  0  0  0  0  0  0  0  0  0
   -0.5121   25.6011  -27.3873 H   0  0  0  0  0  0  0  0  0  0  0  0
   -1.5460   24.7816  -29.5015 H   0  0  0  0  0  0  0  0  0  0  0  0
   -7.4056   21.7723  -31.7117 H   0  0  0  0  0  0  0  0  0  0  0  0
   -8.7160   19.0100  -33.7390 H   0  0  0  0  0  0  0  0  0  0  0  0
  1  2  1  0
  2  3  2  0
  3  4  1  0
  4  5  1  0
  5  6  2  0
  6  7  1  0
  7  8  1  0
  8  9  2  0
  9 10  1  0
 10 11  2  0
 11 12  1  0
 12 13  1  0
 13 14  2  0
 14 15  1  0
 15 16  2  0
 16 17  1  0
 17 18  1  0
 17 19  1  0
 17 20  1  0
 16 21  1  0
 21 22  2  0
 11 23  1  0
 23 24  2  0
  7 25  2  0
 25 26  1  0
  4 27  2  0
 27 28  1  0
 28 29  1  0
 28 30  2  0
 30 31  1  0
 30  2  1  0
 26  5  1  0
 24  8  1  0
 22 13  1  0
  3 32  1  0
  9 33  1  0
 10 34  1  0
 14 35  1  0
 15 36  1  0
 21 37  1  0
 22 38  1  0
 23 39  1  0
 24 40  1  0
 27 41  1  0
 29 42  1  0
M  CHG  2   1  -1  31  -1
M  END
>  <UniqueID>  (18) 
18

>  <SMILES>  (18) 
[O-]c1cc(-c2nc(-c3ccc(Oc4ccc(C(F)(F)F)cc4)cc3)no2)cc(O)c1[O-]

>  <Energy>  (18) 
88.01239692021609

>  <Genealogy>  (18) 
[O-]c1cc(-c2nc(-c3ccc(Oc4ccc(C(F)(F)F)cc4)cc3)no2)cc(O)c1[O-] (protonated)
[O-]c1cc(-c2nc(-c3ccc(Oc4ccc(C(F)(F)F)cc4)cc3)no2)cc(O)c1[O-] (3D coordinates assigned)
[O-]c1cc(-c2nc(-c3ccc(Oc4ccc(C(F)(F)F)cc4)cc3)no2)cc(O)c1[O-] (optimized conformer: 88.01239692021609 kcal/mol)

>  <smiles>  (18) 
Oc1cc(-c2nc(-c3ccc(Oc4ccc(C(F)(F)F)cc4)cc3)no2)cc(O)c1O

>  <score_type>  (18) 
oracle

>  <origin>  (18) 
adgpu

>  <m_score__min__energy>  (18) 
-8.3499999999999996

>  <m_primary>  (18) 
energy

$$$$
18:0
     RDKit          3D

 56 59  0  0  0  0  0  0  0  0999 V2000
   -0.7260   27.1720  -27.8510 C   0  0  0  0  0  0  0  0  0  0  0  0
   -1.2460   26.3920  -28.9210 O   0  0  0  0  0  0  0  0  0  0  0  0
   -1.4420   25.0030  -28.8760 C   0  0  0  0  0  0  0  0  0  0  0  0
   -0.5450   24.1440  -28.2140 C   0  0  0  0  0  0  0  0  0  0  0  0
   -0.7900   22.7710  -28.1560 C   0  0  0  0  0  0  0  0  0  0  0  0
   -1.9330   22.2340  -28.7560 C   0  0  0  0  0  0  0  0  0  0  0  0
   -2.2420   20.5010  -28.6540 S   0  0  0  0  0  0  0  0  0  0  0  0
   -2.9300   20.0590  -29.9180 O   0  0  0  0  0  0  0  0  0  0  0  0
   -3.1490   20.2100  -27.4870 O   0  0  0  0  0  0  0  0  0  0  0  0
   -0.7330   19.6410  -28.4720 N   0  0  0  0  0  0  0  0  0  0  0  0
   -0.8840   18.5680  -27.4730 C   0  0  0  0  0  0  0  0  0  0  0  0
    0.2950   17.5790  -27.5390 C   0  0  0  0  0  0  0  0  0  0  0  0
    1.3800   18.1350  -28.2550 O   0  0  0  0  0  0  0  0  0  0  0  0
    1.0140   18.3190  -29.6120 C   0  0  0  0  0  0  0  0  0  0  0  0
   -0.3200   19.0830  -29.7670 C   0  0  0  0  0  0  0  0  0  0  0  0
   -2.8340   23.0820  -29.4090 C   0  0  0  0  0  0  0  0  0  0  0  0
   -2.5810   24.4550  -29.4960 C   0  0  0  0  0  0  0  0  0  0  0  0
   -3.5280   25.2870  -30.1760 N   0  0  0  0  0  0  0  0  0  0  0  0
   -4.9480   25.0980  -30.1910 C   0  0  0  0  0  0  0  0  0  0  0  0
   -5.5770   25.1820  -29.1040 O   0  0  0  0  0  0  0  0  0  0  0  0
   -5.6830   24.6680  -31.4300 C   0  0  0  0  0  0  0  0  0  0  0  0
   -7.1510   23.6580  -31.0100 S   0  0  0  0  0  0  0  0  0  0  0  0
   -6.4800   22.1290  -31.6670 C   0  0  0  0  0  0  0  0  0  0  0  0
   -5.1740   21.9110  -32.0910 C   0  0  0  0  0  0  0  0  0  0  0  0
   -5.0430   20.6430  -32.5470 N   0  0  0  0  0  0  0  0  0  0  0  0
   -3.8370   20.0520  -33.1180 C   0  0  0  0  0  0  0  0  0  0  0  0
   -6.2550   20.0650  -32.4220 C   0  0  0  0  0  0  0  0  0  0  0  0
   -6.6280   18.7650  -32.7740 C   0  0  0  0  0  0  0  0  0  0  0  0
   -7.9670   18.3850  -32.5660 C   0  0  0  0  0  0  0  0  0  0  0  0
   -8.8920   19.3010  -32.0180 C   0  0  0  0  0  0  0  0  0  0  0  0
   -8.4880   20.6020  -31.6660 C   0  0  0  0  0  0  0  0  0  0  0  0
   -7.1550   20.9460  -31.8800 C   0  0  0  0  0  0  0  0  0  0  0  0
   -1.0247   26.7240  -26.8918 H   0  0  0  0  0  0  0  0  0  0  0  0
    0.3717   27.1994  -27.9169 H   0  0  0  0  0  0  0  0  0  0  0  0
   -1.1229   28.1958  -27.9169 H   0  0  0  0  0  0  0  0  0  0  0  0
    0.3564   24.5579  -27.7385 H   0  0  0  0  0  0  0  0  0  0  0  0
   -0.0814   22.1093  -27.6365 H   0  0  0  0  0  0  0  0  0  0  0  0
   -0.9222   19.0150  -26.4686 H   0  0  0  0  0  0  0  0  0  0  0  0
   -1.8129   18.0192  -27.6875 H   0  0  0  0  0  0  0  0  0  0  0  0
    0.6227   17.3404  -26.5164 H   0  0  0  0  0  0  0  0  0  0  0  0
   -0.0387   16.6682  -28.0577 H   0  0  0  0  0  0  0  0  0  0  0  0
    1.8077   18.8890  -30.1172 H   0  0  0  0  0  0  0  0  0  0  0  0
    0.8828   17.3232  -30.0606 H   0  0  0  0  0  0  0  0  0  0  0  0
   -0.1894   19.9008  -30.4910 H   0  0  0  0  0  0  0  0  0  0  0  0
   -1.0945   18.3884  -30.1244 H   0  0  0  0  0  0  0  0  0  0  0  0
   -3.7482   22.6659  -29.8574 H   0  0  0  0  0  0  0  0  0  0  0  0
   -6.0082   25.5616  -31.9829 H   0  0  0  0  0  0  0  0  0  0  0  0
   -5.0042   24.0583  -32.0444 H   0  0  0  0  0  0  0  0  0  0  0  0
   -4.3670   22.6579  -32.0605 H   0  0  0  0  0  0  0  0  0  0  0  0
   -3.1696   19.7250  -32.3070 H   0  0  0  0  0  0  0  0  0  0  0  0
   -4.1114   19.1863  -33.7387 H   0  0  0  0  0  0  0  0  0  0  0  0
   -3.3209   20.7993  -33.7387 H   0  0  0  0  0  0  0  0  0  0  0  0
   -5.8981   18.0610  -33.2002 H   0  0  0  0  0  0  0  0  0  0  0  0
   -8.2950   17.3692  -32.8316 H   0  0  0  0  0  0  0  0  0  0  0  0
   -9.9373   18.9946  -31.8651 H   0  0  0  0  0  0  0  0  0  0  0  0
   -9.1999   21.3224  -31.2368 H   0  0  0  0  0  0  0  0  0  0  0  0
  1  2  1  0
  2  3  1  0
  3  4  2  0
  4  5  1  0
  5  6  2  0
  6  7  1  0
  7  8  2  0
  7  9  2  0
  7 10  1  0
 10 11  1  0
 11 12  1  0
 12 13  1  0
 13 14  1  0
 14 15  1  0
  6 16  1  0
 16 17  2  0
 17 18  1  0
 18 19  1  0
 19 20  2  0
 19 21  1  0
 21 22  1  0
 22 23  1  0
 23 24  2  0
 24 25  1  0
 25 26  1  0
 25 27  1  0
 27 28  2  0
 28 29  1  0
 29 30  2  0
 30 31  1  0
 31 32  2  0
 17  3  1  0
 32 23  1  0
 15 10  1  0
 32 27  1  0
  1 33  1  0
  1 34  1  0
  1 35  1  0
  4 36  1  0
  5 37  1  0
 11 38  1  0
 11 39  1  0
 12 40  1  0
 12 41  1  0
 14 42  1  0
 14 43  1  0
 15 44  1  0
 15 45  1  0
 16 46  1  0
 21 47  1  0
 21 48  1  0
 24 49  1  0
 26 50  1  0
 26 51  1  0
 26 52  1  0
 28 53  1  0
 29 54  1  0
 30 55  1  0
 31 56  1  0
M  CHG  1  18  -1
M  END
>  <UniqueID>  (19) 
19

>  <SMILES>  (19) 
COc1ccc(S(=O)(=O)N2CCOCC2)cc1[N-]C(=O)CSc1cn(C)c2ccccc12

>  <Energy>  (19) 
102.06831692941816

>  <Genealogy>  (19) 
COc1ccc(S(=O)(=O)N2CCOCC2)cc1[N-]C(=O)CSc1cn(C)c2ccccc12 (protonated)
COc1ccc(S(=O)(=O)N2CCOCC2)cc1[N-]C(=O)CSc1cn(C)c2ccccc12 (3D coordinates assigned)
COc1ccc(S(=O)(=O)N2CCOCC2)cc1[N-]C(=O)CSc1cn(C)c2ccccc12 (nonaromatic ring conformer: 102.06831692941816 kcal/mol)

>  <smiles>  (19) 
COc1ccc(S(=O)(=O)N2CCOCC2)cc1NC(=O)CSc1cn(C)c2ccccc12

>  <score_type>  (19) 
oracle

>  <origin>  (19) 
adgpu

>  <m_score__min__energy>  (19) 
-11.81

>  <m_primary>  (19) 
energy

$$$$
19:0
     RDKit          3D

 58 62  0  0  0  0  0  0  0  0999 V2000
   -0.2830   18.9860  -29.1490 C   0  0  0  0  0  0  0  0  0  0  0  0
   -0.8170   20.3890  -29.0650 C   0  0  0  0  0  0  0  0  0  0  0  0
   -0.5250   21.3040  -30.0900 C   0  0  0  0  0  0  0  0  0  0  0  0
   -1.0300   22.6010  -30.0400 C   0  0  0  0  0  0  0  0  0  0  0  0
   -1.8450   23.0020  -28.9730 C   0  0  0  0  0  0  0  0  0  0  0  0
   -2.4570   24.6530  -28.9250 S   0  0  0  0  0  0  0  0  0  0  0  0
   -3.2150   24.9110  -27.6510 O   0  0  0  0  0  0  0  0  0  0  0  0
   -1.2980   25.6060  -28.9870 O   0  0  0  0  0  0  0  0  0  0  0  0
   -3.4960   24.9290  -30.2890 N   0  0  0  0  0  0  0  0  0  0  0  0
   -4.7180   24.2290  -30.5580 C   0  0  0  0  0  0  0  0  0  0  0  0
   -5.9270   24.9030  -30.8180 C   0  0  0  0  0  0  0  0  0  0  0  0
   -7.0870   24.1760  -31.1000 C   0  0  0  0  0  0  0  0  0  0  0  0
   -7.0650   22.7710  -31.1140 C   0  0  0  0  0  0  0  0  0  0  0  0
   -8.2900   22.0090  -31.4330 C   0  0  0  0  0  0  0  0  0  0  0  0
   -9.3560   22.2780  -30.8110 O   0  0  0  0  0  0  0  0  0  0  0  0
   -8.2920   20.9800  -32.4350 N   0  0  0  0  0  0  0  0  0  0  0  0
   -9.3960   20.0100  -32.5140 C   0  0  0  0  0  0  0  0  0  0  0  0
   -8.9370   18.6460  -31.9660 C   0  0  0  0  0  0  0  0  0  0  0  0
   -7.5670   18.2920  -32.4760 C   0  0  0  0  0  0  0  0  0  0  0  0
   -6.9850   17.0250  -32.3590 C   0  0  0  0  0  0  0  0  0  0  0  0
   -5.6680   16.9860  -32.8130 C   0  0  0  0  0  0  0  0  0  0  0  0
   -4.7860   15.8080  -32.7670 C   0  0  0  0  0  0  0  0  0  0  0  0
   -4.0120   15.5770  -33.7370 O   0  0  0  0  0  0  0  0  0  0  0  0
   -4.8100   14.9120  -31.6480 N   0  0  0  0  0  0  0  0  0  0  0  0
   -4.0950   13.6410  -31.6740 C   0  0  0  0  0  0  0  0  0  0  0  0
   -4.9440   12.4480  -31.2580 C   0  0  0  0  0  0  0  0  0  0  0  0
   -4.6360   12.6870  -32.7300 C   0  0  0  0  0  0  0  0  0  0  0  0
   -5.2260   18.5300  -33.3400 S   0  0  0  0  0  0  0  0  0  0  0  0
   -6.7030   19.2490  -32.9910 C   0  0  0  0  0  0  0  0  0  0  0  0
   -7.0710   20.6810  -33.2010 C   0  0  0  0  0  0  0  0  0  0  0  0
   -5.8650   22.1010  -30.8420 C   0  0  0  0  0  0  0  0  0  0  0  0
   -4.7020   22.8270  -30.5650 C   0  0  0  0  0  0  0  0  0  0  0  0
   -2.1530   22.0920  -27.9550 C   0  0  0  0  0  0  0  0  0  0  0  0
   -1.6540   20.7890  -28.0010 C   0  0  0  0  0  0  0  0  0  0  0  0
   -2.0950   19.6780  -26.7070 Cl  0  0  0  0  0  0  0  0  0  0  0  0
   -0.1322   18.5897  -28.1340 H   0  0  0  0  0  0  0  0  0  0  0  0
   -1.0025   18.3514  -29.6872 H   0  0  0  0  0  0  0  0  0  0  0  0
    0.6763   18.9904  -29.6872 H   0  0  0  0  0  0  0  0  0  0  0  0
    0.1057   20.9946  -30.9364 H   0  0  0  0  0  0  0  0  0  0  0  0
   -0.7879   23.3140  -30.8419 H   0  0  0  0  0  0  0  0  0  0  0  0
   -5.9584   26.0024  -30.7991 H   0  0  0  0  0  0  0  0  0  0  0  0
   -8.0257   24.7085  -31.3129 H   0  0  0  0  0  0  0  0  0  0  0  0
  -10.2454   20.3751  -31.9180 H   0  0  0  0  0  0  0  0  0  0  0  0
   -9.7008   19.8937  -33.5645 H   0  0  0  0  0  0  0  0  0  0  0  0
   -8.9111   18.6903  -30.8672 H   0  0  0  0  0  0  0  0  0  0  0  0
   -9.6461   17.8763  -32.3048 H   0  0  0  0  0  0  0  0  0  0  0  0
   -7.5124   16.1502  -31.9509 H   0  0  0  0  0  0  0  0  0  0  0  0
   -5.3670   15.1700  -30.7900 H   0  0  0  0  0  0  0  0  0  0  0  0
   -3.1031   14.0219  -31.3895 H   0  0  0  0  0  0  0  0  0  0  0  0
   -4.4814   11.6013  -30.7297 H   0  0  0  0  0  0  0  0  0  0  0  0
   -5.8622   12.3151  -30.6671 H   0  0  0  0  0  0  0  0  0  0  0  0
   -3.9509   12.0130  -33.2651 H   0  0  0  0  0  0  0  0  0  0  0  0
   -5.2395   12.7983  -33.6429 H   0  0  0  0  0  0  0  0  0  0  0  0
   -6.2509   21.3270  -32.8545 H   0  0  0  0  0  0  0  0  0  0  0  0
   -7.2491   20.8656  -34.2707 H   0  0  0  0  0  0  0  0  0  0  0  0
   -5.8374   21.0014  -30.8463 H   0  0  0  0  0  0  0  0  0  0  0  0
   -3.7649   22.2924  -30.3504 H   0  0  0  0  0  0  0  0  0  0  0  0
   -2.7909   22.4049  -27.1152 H   0  0  0  0  0  0  0  0  0  0  0  0
  1  2  1  0
  2  3  2  0
  3  4  1  0
  4  5  2  0
  5  6  1  0
  6  7  2  0
  6  8  2  0
  6  9  1  0
  9 10  1  0
 10 11  2  0
 11 12  1  0
 12 13  2  0
 13 14  1  0
 14 15  2  0
 14 16  1  0
 16 17  1  0
 17 18  1  0
 18 19  1  0
 19 20  1  0
 20 21  2  0
 21 22  1  0
 22 23  2  0
 22 24  1  0
 24 25  1  0
 25 26  1  0
 26 27  1  0
 21 28  1  0
 28 29  1  0
 29 30  1  0
 13 31  1  0
 31 32  2  0
  5 33  1  0
 33 34  2  0
 34 35  1  0
 34  2  1  0
 32 10  1  0
 30 16  1  0
 29 19  2  0
 27 25  1  0
  1 36  1  0
  1 37  1  0
  1 38  1  0
  3 39  1  0
  4 40  1  0
 11 41  1  0
 12 42  1  0
 17 43  1  0
 17 44  1  0
 18 45  1  0
 18 46  1  0
 20 47  1  0
 24 48  1  0
 25 49  1  0
 26 50  1  0
 26 51  1  0
 27 52  1  0
 27 53  1  0
 30 54  1  0
 30 55  1  0
 31 56  1  0
 32 57  1  0
 33 58  1  0
M  CHG  1   9  -1
M  END
>  <UniqueID>  (20) 
20

>  <SMILES>  (20) 
Cc1ccc(S(=O)(=O)[N-]c2ccc(C(=O)N3CCc4cc(C(=O)NC5CC5)sc4C3)cc2)cc1Cl

>  <Energy>  (20) 
362.0492570312015

>  <Genealogy>  (20) 
Cc1ccc(S(=O)(=O)[N-]c2ccc(C(=O)N3CCc4cc(C(=O)NC5CC5)sc4C3)cc2)cc1Cl (protonated)
Cc1ccc(S(=O)(=O)[N-]c2ccc(C(=O)N3CCc4cc(C(=O)NC5CC5)sc4C3)cc2)cc1Cl (3D coordinates assigned)
Cc1ccc(S(=O)(=O)[N-]c2ccc(C(=O)N3CCc4cc(C(=O)NC5CC5)sc4C3)cc2)cc1Cl (nonaromatic ring conformer: 362.0492570312015 kcal/mol)

>  <smiles>  (20) 
Cc1ccc(S(=O)(=O)Nc2ccc(C(=O)N3CCc4cc(C(=O)NC5CC5)sc4C3)cc2)cc1Cl

>  <score_type>  (20) 
oracle

>  <origin>  (20) 
adgpu

>  <m_score__min__energy>  (20) 
-13.300000000000001

>  <m_primary>  (20) 
energy

$$$$
20:0
     RDKit          3D

 47 50  0  0  0  0  0  0  0  0999 V2000
   -3.5400   19.6810  -34.1200 O   0  0  0  0  0  0  0  0  0  0  0  0
   -4.5680   19.9880  -33.4530 C   0  0  0  0  0  0  0  0  0  0  0  0
   -4.5580   21.1930  -32.7570 C   0  0  0  0  0  0  0  0  0  0  0  0
   -5.6710   21.5980  -32.0280 C   0  0  0  0  0  0  0  0  0  0  0  0
   -5.6200   22.9180  -31.3570 C   0  0  0  0  0  0  0  0  0  0  0  0
   -6.8030   23.6330  -31.1080 C   0  0  0  0  0  0  0  0  0  0  0  0
   -6.7500   24.8880  -30.4950 C   0  0  0  0  0  0  0  0  0  0  0  0
   -5.5170   25.4420  -30.1370 C   0  0  0  0  0  0  0  0  0  0  0  0
   -4.3350   24.7420  -30.3950 C   0  0  0  0  0  0  0  0  0  0  0  0
   -3.1100   25.2950  -30.0430 O   0  0  0  0  0  0  0  0  0  0  0  0
   -4.3850   23.4850  -31.0080 C   0  0  0  0  0  0  0  0  0  0  0  0
   -6.8050   20.7590  -31.9800 C   0  0  0  0  0  0  0  0  0  0  0  0
   -7.9370   21.1040  -31.2110 C   0  0  0  0  0  0  0  0  0  0  0  0
   -9.0590   20.2820  -31.1870 C   0  0  0  0  0  0  0  0  0  0  0  0
   -9.0750   19.1030  -31.9210 C   0  0  0  0  0  0  0  0  0  0  0  0
   -7.9610   18.7250  -32.6710 C   0  0  0  0  0  0  0  0  0  0  0  0
   -6.7940   19.5320  -32.7090 C   0  0  0  0  0  0  0  0  0  0  0  0
   -5.6680   19.1620  -33.4300 N   0  0  0  0  0  0  0  0  0  0  0  0
   -5.6260   17.9080  -34.2200 C   0  0  0  0  0  0  0  0  0  0  0  0
   -5.8080   16.6730  -33.3270 C   0  0  0  0  0  0  0  0  0  0  0  0
   -4.4890   16.0910  -32.9910 N   0  0  0  0  0  0  0  0  0  0  0  0
   -3.5570   16.1430  -34.1340 C   0  0  0  0  0  0  0  0  0  0  0  0
   -2.1670   15.6360  -33.6950 C   0  0  0  0  0  0  0  0  0  0  0  0
   -2.1920   15.0190  -32.4190 O   0  0  0  0  0  0  0  0  0  0  0  0
   -3.2160   14.0460  -32.3740 C   0  0  0  0  0  0  0  0  0  0  0  0
   -4.6050   14.7030  -32.5020 C   0  0  0  0  0  0  0  0  0  0  0  0
   -3.6621   21.8307  -32.7837 H   0  0  0  0  0  0  0  0  0  0  0  0
   -7.7740   23.2040  -31.3963 H   0  0  0  0  0  0  0  0  0  0  0  0
   -7.6796   25.4407  -30.2939 H   0  0  0  0  0  0  0  0  0  0  0  0
   -5.4773   26.4287  -29.6523 H   0  0  0  0  0  0  0  0  0  0  0  0
   -3.4529   22.9396  -31.2169 H   0  0  0  0  0  0  0  0  0  0  0  0
   -7.9320   22.0340  -30.6236 H   0  0  0  0  0  0  0  0  0  0  0  0
   -9.9351   20.5663  -30.5856 H   0  0  0  0  0  0  0  0  0  0  0  0
   -9.9704   18.4641  -31.9109 H   0  0  0  0  0  0  0  0  0  0  0  0
   -7.9875   17.7856  -33.2426 H   0  0  0  0  0  0  0  0  0  0  0  0
   -6.4322   17.9299  -34.9681 H   0  0  0  0  0  0  0  0  0  0  0  0
   -4.6417   17.8397  -34.7062 H   0  0  0  0  0  0  0  0  0  0  0  0
   -6.3232   16.9664  -32.4004 H   0  0  0  0  0  0  0  0  0  0  0  0
   -6.4062   15.9234  -33.8658 H   0  0  0  0  0  0  0  0  0  0  0  0
   -3.9386   15.5068  -34.9462 H   0  0  0  0  0  0  0  0  0  0  0  0
   -3.4713   17.1812  -34.4873 H   0  0  0  0  0  0  0  0  0  0  0  0
   -1.8091   14.9039  -34.4338 H   0  0  0  0  0  0  0  0  0  0  0  0
   -1.4983   16.5071  -33.6319 H   0  0  0  0  0  0  0  0  0  0  0  0
   -3.0754   13.3365  -33.2028 H   0  0  0  0  0  0  0  0  0  0  0  0
   -3.1621   13.5233  -31.4076 H   0  0  0  0  0  0  0  0  0  0  0  0
   -5.2143   14.1217  -33.2097 H   0  0  0  0  0  0  0  0  0  0  0  0
   -5.0787   14.7189  -31.5094 H   0  0  0  0  0  0  0  0  0  0  0  0
  1  2  2  0
  2  3  1  0
  3  4  2  0
  4  5  1  0
  5  6  2  0
  6  7  1  0
  7  8  2  0
  8  9  1  0
  9 10  1  0
  9 11  2  0
  4 12  1  0
 12 13  2  0
 13 14  1  0
 14 15  2  0
 15 16  1  0
 16 17  2  0
 17 18  1  0
 18 19  1  0
 19 20  1  0
 20 21  1  0
 21 22  1  0
 22 23  1  0
 23 24  1  0
 24 25  1  0
 25 26  1  0
 18  2  1  0
 26 21  1  0
 11  5  1  0
 17 12  1  0
  3 27  1  0
  6 28  1  0
  7 29  1  0
  8 30  1  0
 11 31  1  0
 13 32  1  0
 14 33  1  0
 15 34  1  0
 16 35  1  0
 19 36  1  0
 19 37  1  0
 20 38  1  0
 20 39  1  0
 22 40  1  0
 22 41  1  0
 23 42  1  0
 23 43  1  0
 25 44  1  0
 25 45  1  0
 26 46  1  0
 26 47  1  0
M  CHG  1  10  -1
M  END
>  <UniqueID>  (21) 
21

>  <SMILES>  (21) 
O=c1cc(-c2cccc([O-])c2)c2ccccc2n1CCN1CCOCC1

>  <Energy>  (21) 
78.34108645772562

>  <Genealogy>  (21) 
O=c1cc(-c2cccc([O-])c2)c2ccccc2n1CCN1CCOCC1 (protonated)
O=c1cc(-c2cccc([O-])c2)c2ccccc2n1CCN1CCOCC1 (3D coordinates assigned)
O=c1cc(-c2cccc([O-])c2)c2ccccc2n1CCN1CCOCC1 (nonaromatic ring conformer: 78.34108645772562 kcal/mol)

>  <smiles>  (21) 
O=c1cc(-c2cccc(O)c2)c2ccccc2n1CCN1CCOCC1

>  <score_type>  (21) 
oracle

>  <origin>  (21) 
adgpu

>  <m_score__min__energy>  (21) 
-12.289999999999999

>  <m_primary>  (21) 
energy

$$$$
21:0
     RDKit          3D

 39 41  0  0  0  0  0  0  0  0999 V2000
   -5.7500   18.4400  -34.2860 C   0  0  0  0  0  0  0  0  0  0  0  0
   -6.7570   19.0620  -33.4340 N   0  0  0  0  0  0  0  0  0  0  0  0
   -7.6800   18.4170  -32.6950 C   0  0  0  0  0  0  0  0  0  0  0  0
   -8.4060   19.3270  -31.9520 C   0  0  0  0  0  0  0  0  0  0  0  0
   -7.8780   20.5670  -32.2510 C   0  0  0  0  0  0  0  0  0  0  0  0
   -8.4000   22.1030  -31.5890 S   0  0  0  0  0  0  0  0  0  0  0  0
   -8.4220   22.0140  -30.0890 O   0  0  0  0  0  0  0  0  0  0  0  0
   -9.7740   22.4250  -32.1060 O   0  0  0  0  0  0  0  0  0  0  0  0
   -7.2840   23.3360  -32.0710 N   0  0  0  0  0  0  0  0  0  0  0  0
   -6.2570   23.8360  -31.2120 C   0  0  0  0  0  0  0  0  0  0  0  0
   -6.4460   24.7640  -30.2120 C   0  0  0  0  0  0  0  0  0  0  0  0
   -5.2700   25.0040  -29.6020 N   0  0  0  0  0  0  0  0  0  0  0  0
   -4.3420   24.2360  -30.2110 C   0  0  0  0  0  0  0  0  0  0  0  0
   -2.9220   24.2070  -29.8340 C   0  0  0  0  0  0  0  0  0  0  0  0
   -2.2150   23.2080  -30.1350 O   0  0  0  0  0  0  0  0  0  0  0  0
   -2.3620   25.2910  -29.0820 N   0  0  0  0  0  0  0  0  0  0  0  0
   -1.6370   25.1640  -27.8520 C   0  0  0  0  0  0  0  0  0  0  0  0
   -2.2120   25.6760  -26.6810 C   0  0  0  0  0  0  0  0  0  0  0  0
   -1.5390   25.5800  -25.4600 C   0  0  0  0  0  0  0  0  0  0  0  0
   -0.2770   24.9860  -25.4030 C   0  0  0  0  0  0  0  0  0  0  0  0
    0.3220   24.5020  -26.5690 C   0  0  0  0  0  0  0  0  0  0  0  0
   -0.3440   24.6020  -27.8010 C   0  0  0  0  0  0  0  0  0  0  0  0
    0.2900   24.1750  -28.9660 O   0  0  0  0  0  0  0  0  0  0  0  0
   -4.9200   23.4880  -31.2230 C   0  0  0  0  0  0  0  0  0  0  0  0
   -6.8590   20.3760  -33.1600 C   0  0  0  0  0  0  0  0  0  0  0  0
   -4.9813   17.9652  -33.6585 H   0  0  0  0  0  0  0  0  0  0  0  0
   -6.2265   17.6787  -34.9211 H   0  0  0  0  0  0  0  0  0  0  0  0
   -5.2826   19.2069  -34.9211 H   0  0  0  0  0  0  0  0  0  0  0  0
   -7.8328   17.3277  -32.6848 H   0  0  0  0  0  0  0  0  0  0  0  0
   -9.2352   19.1085  -31.2630 H   0  0  0  0  0  0  0  0  0  0  0  0
   -7.4059   25.2346  -29.9527 H   0  0  0  0  0  0  0  0  0  0  0  0
   -5.1140   25.6640  -28.8070 H   0  0  0  0  0  0  0  0  0  0  0  0
   -3.2004   26.1570  -26.7233 H   0  0  0  0  0  0  0  0  0  0  0  0
   -2.0038   25.9726  -24.5436 H   0  0  0  0  0  0  0  0  0  0  0  0
    0.2463   24.8989  -24.4394 H   0  0  0  0  0  0  0  0  0  0  0  0
    1.3195   24.0407  -26.5215 H   0  0  0  0  0  0  0  0  0  0  0  0
   -0.2260   24.0180  -29.8240 H   0  0  0  0  0  0  0  0  0  0  0  0
   -4.4217   22.7709  -31.8919 H   0  0  0  0  0  0  0  0  0  0  0  0
   -6.2309   21.1692  -33.5916 H   0  0  0  0  0  0  0  0  0  0  0  0
  1  2  1  0
  2  3  1  0
  3  4  2  0
  4  5  1  0
  5  6  1  0
  6  7  2  0
  6  8  2  0
  6  9  1  0
  9 10  1  0
 10 11  2  0
 11 12  1  0
 12 13  1  0
 13 14  1  0
 14 15  2  0
 14 16  1  0
 16 17  1  0
 17 18  2  0
 18 19  1  0
 19 20  2  0
 20 21  1  0
 21 22  2  0
 22 23  1  0
 13 24  2  0
  5 25  2  0
 25  2  1  0
 24 10  1  0
 22 17  1  0
  1 26  1  0
  1 27  1  0
  1 28  1  0
  3 29  1  0
  4 30  1  0
 11 31  1  0
 12 32  1  0
 18 33  1  0
 19 34  1  0
 20 35  1  0
 21 36  1  0
 23 37  1  0
 24 38  1  0
 25 39  1  0
M  CHG  2   9  -1  16  -1
M  END
>  <UniqueID>  (22) 
22

>  <SMILES>  (22) 
Cn1ccc(S(=O)(=O)[N-]c2c[nH]c(C(=O)[N-]c3ccccc3O)c2)c1

>  <Energy>  (22) 
99.36669363210227

>  <Genealogy>  (22) 
Cn1ccc(S(=O)(=O)[N-]c2c[nH]c(C(=O)[N-]c3ccccc3O)c2)c1 (protonated)
Cn1ccc(S(=O)(=O)[N-]c2c[nH]c(C(=O)[N-]c3ccccc3O)c2)c1 (3D coordinates assigned)
Cn1ccc(S(=O)(=O)[N-]c2c[nH]c(C(=O)[N-]c3ccccc3O)c2)c1 (optimized conformer: 99.36669363210227 kcal/mol)

>  <smiles>  (22) 
Cn1ccc(S(=O)(=O)Nc2c[nH]c(C(=O)Nc3ccccc3O)c2)c1

>  <score_type>  (22) 
oracle

>  <origin>  (22) 
adgpu

>  <m_score__min__energy>  (22) 
-11.19

>  <m_primary>  (22) 
energy

$$$$
22:0
     RDKit          3D

 45 48  0  0  0  0  0  0  0  0999 V2000
   -7.5700   25.6670  -29.6260 O   0  0  0  0  0  0  0  0  0  0  0  0
   -6.9050   24.8660  -30.3330 C   0  0  0  0  0  0  0  0  0  0  0  0
   -7.5970   24.0410  -31.2800 N   0  0  0  0  0  0  0  0  0  0  0  0
   -7.4590   22.6210  -31.4170 C   0  0  0  0  0  0  0  0  0  0  0  0
   -8.4790   21.7400  -31.0150 C   0  0  0  0  0  0  0  0  0  0  0  0
   -8.3070   20.3590  -31.1440 C   0  0  0  0  0  0  0  0  0  0  0  0
   -7.1100   19.8420  -31.6560 C   0  0  0  0  0  0  0  0  0  0  0  0
   -6.9160   18.1050  -31.8510 S   0  0  0  0  0  0  0  0  0  0  0  0
   -8.2290   17.4860  -32.2440 O   0  0  0  0  0  0  0  0  0  0  0  0
   -6.4760   17.4830  -30.5540 O   0  0  0  0  0  0  0  0  0  0  0  0
   -5.7110   17.8020  -33.0970 C   0  0  0  0  0  0  0  0  0  0  0  0
   -5.9990   18.0850  -34.4400 C   0  0  0  0  0  0  0  0  0  0  0  0
   -5.0320   17.8660  -35.4270 C   0  0  0  0  0  0  0  0  0  0  0  0
   -3.7730   17.3710  -35.0740 C   0  0  0  0  0  0  0  0  0  0  0  0
   -3.4770   17.0990  -33.7350 C   0  0  0  0  0  0  0  0  0  0  0  0
   -4.4430   17.3170  -32.7470 C   0  0  0  0  0  0  0  0  0  0  0  0
   -6.0840   20.7180  -32.0370 C   0  0  0  0  0  0  0  0  0  0  0  0
   -6.2550   22.1000  -31.9060 C   0  0  0  0  0  0  0  0  0  0  0  0
   -5.4510   24.7470  -30.1180 C   0  0  0  0  0  0  0  0  0  0  0  0
   -4.8410   24.1180  -29.0520 C   0  0  0  0  0  0  0  0  0  0  0  0
   -3.4880   24.2570  -29.3110 C   0  0  0  0  0  0  0  0  0  0  0  0
   -2.3610   23.8020  -28.4620 C   0  0  0  0  0  0  0  0  0  0  0  0
   -2.4930   22.5990  -27.7420 C   0  0  0  0  0  0  0  0  0  0  0  0
   -1.4500   22.1290  -26.9420 C   0  0  0  0  0  0  0  0  0  0  0  0
   -0.2640   22.8540  -26.8430 C   0  0  0  0  0  0  0  0  0  0  0  0
   -0.1200   24.0580  -27.5340 C   0  0  0  0  0  0  0  0  0  0  0  0
   -1.1630   24.5440  -28.3370 C   0  0  0  0  0  0  0  0  0  0  0  0
   -1.0140   25.7720  -28.9810 O   0  0  0  0  0  0  0  0  0  0  0  0
   -3.3220   24.9340  -30.4650 N   0  0  0  0  0  0  0  0  0  0  0  0
   -4.5160   25.2240  -30.9610 N   0  0  0  0  0  0  0  0  0  0  0  0
   -9.4152   22.1392  -30.5977 H   0  0  0  0  0  0  0  0  0  0  0  0
   -9.1145   19.6756  -30.8424 H   0  0  0  0  0  0  0  0  0  0  0  0
   -6.9873   18.4800  -34.7179 H   0  0  0  0  0  0  0  0  0  0  0  0
   -5.2622   18.0832  -36.4805 H   0  0  0  0  0  0  0  0  0  0  0  0
   -3.0143   17.1953  -35.8509 H   0  0  0  0  0  0  0  0  0  0  0  0
   -2.4846   16.7136  -33.4584 H   0  0  0  0  0  0  0  0  0  0  0  0
   -4.2072   17.1074  -31.6932 H   0  0  0  0  0  0  0  0  0  0  0  0
   -5.1421   20.3175  -32.4400 H   0  0  0  0  0  0  0  0  0  0  0  0
   -5.4390   22.7813  -32.1887 H   0  0  0  0  0  0  0  0  0  0  0  0
   -5.3190   23.6212  -28.1949 H   0  0  0  0  0  0  0  0  0  0  0  0
   -3.4279   22.0235  -27.8107 H   0  0  0  0  0  0  0  0  0  0  0  0
   -1.5645   21.1850  -26.3890 H   0  0  0  0  0  0  0  0  0  0  0  0
    0.5599   22.4768  -26.2193 H   0  0  0  0  0  0  0  0  0  0  0  0
    0.8163   24.6291  -27.4486 H   0  0  0  0  0  0  0  0  0  0  0  0
   -1.6210   26.0510  -29.7440 H   0  0  0  0  0  0  0  0  0  0  0  0
  1  2  2  0
  2  3  1  0
  3  4  1  0
  4  5  2  0
  5  6  1  0
  6  7  2  0
  7  8  1  0
  8  9  2  0
  8 10  2  0
  8 11  1  0
 11 12  2  0
 12 13  1  0
 13 14  2  0
 14 15  1  0
 15 16  2  0
  7 17  1  0
 17 18  2  0
  2 19  1  0
 19 20  1  0
 20 21  2  0
 21 22  1  0
 22 23  2  0
 23 24  1  0
 24 25  2  0
 25 26  1  0
 26 27  2  0
 27 28  1  0
 21 29  1  0
 29 30  1  0
 18  4  1  0
 30 19  2  0
 16 11  1  0
 27 22  1  0
  5 31  1  0
  6 32  1  0
 12 33  1  0
 13 34  1  0
 14 35  1  0
 15 36  1  0
 16 37  1  0
 17 38  1  0
 18 39  1  0
 20 40  1  0
 23 41  1  0
 24 42  1  0
 25 43  1  0
 26 44  1  0
 28 45  1  0
M  CHG  2   3  -1  29  -1
M  END
>  <UniqueID>  (23) 
23

>  <SMILES>  (23) 
O=C([N-]c1ccc(S(=O)(=O)c2ccccc2)cc1)c1cc(-c2ccccc2O)[n-]n1

>  <Energy>  (23) 
89.65174156846318

>  <Genealogy>  (23) 
O=C([N-]c1ccc(S(=O)(=O)c2ccccc2)cc1)c1cc(-c2ccccc2O)[n-]n1 (protonated)
O=C([N-]c1ccc(S(=O)(=O)c2ccccc2)cc1)c1cc(-c2ccccc2O)[n-]n1 (3D coordinates assigned)
O=C([N-]c1ccc(S(=O)(=O)c2ccccc2)cc1)c1cc(-c2ccccc2O)[n-]n1 (optimized conformer: 89.65174156846318 kcal/mol)

>  <smiles>  (23) 
O=C(Nc1ccc(S(=O)(=O)c2ccccc2)cc1)c1cc(-c2ccccc2O)[nH]n1

>  <score_type>  (23) 
oracle

>  <origin>  (23) 
adgpu

>  <m_score__min__energy>  (23) 
-12.65

>  <m_primary>  (23) 
energy

$$$$
23:0
     RDKit          3D

 53 56  0  0  0  0  0  0  0  0999 V2000
   -0.1290   24.1140  -28.9590 C   0  0  0  0  0  0  0  0  0  0  0  0
   -1.4510   24.2480  -28.2750 C   0  0  0  0  0  0  0  0  0  0  0  0
   -1.5150   24.4960  -26.8970 C   0  0  0  0  0  0  0  0  0  0  0  0
   -2.7620   24.6410  -26.2880 C   0  0  0  0  0  0  0  0  0  0  0  0
   -3.9270   24.5420  -27.0520 C   0  0  0  0  0  0  0  0  0  0  0  0
   -3.8280   24.3160  -28.4290 C   0  0  0  0  0  0  0  0  0  0  0  0
   -4.9090   24.2420  -29.1440 N   0  0  0  0  0  0  0  0  0  0  0  0
   -4.9270   23.9820  -30.8590 S   0  0  0  0  0  0  0  0  0  0  0  0
   -3.6090   23.4220  -31.3140 O   0  0  0  0  0  0  0  0  0  0  0  0
   -5.1850   25.2830  -31.5660 O   0  0  0  0  0  0  0  0  0  0  0  0
   -6.1970   22.8230  -31.2310 C   0  0  0  0  0  0  0  0  0  0  0  0
   -7.4100   22.8360  -30.5310 C   0  0  0  0  0  0  0  0  0  0  0  0
   -8.3850   21.8750  -30.8070 C   0  0  0  0  0  0  0  0  0  0  0  0
   -8.1510   20.8930  -31.7740 C   0  0  0  0  0  0  0  0  0  0  0  0
   -6.9420   20.8680  -32.4850 C   0  0  0  0  0  0  0  0  0  0  0  0
   -6.7190   19.8340  -33.4610 N   0  0  0  0  0  0  0  0  0  0  0  0
   -5.2990   18.8380  -33.5200 S   0  0  0  0  0  0  0  0  0  0  0  0
   -5.1130   18.3210  -34.9200 O   0  0  0  0  0  0  0  0  0  0  0  0
   -5.4820   17.6610  -32.6040 O   0  0  0  0  0  0  0  0  0  0  0  0
   -3.8880   19.7530  -32.9940 C   0  0  0  0  0  0  0  0  0  0  0  0
   -3.0510   20.3430  -33.9470 C   0  0  0  0  0  0  0  0  0  0  0  0
   -1.9220   21.0570  -33.5440 C   0  0  0  0  0  0  0  0  0  0  0  0
   -1.6160   21.1790  -32.1870 C   0  0  0  0  0  0  0  0  0  0  0  0
   -2.4390   20.5870  -31.2110 C   0  0  0  0  0  0  0  0  0  0  0  0
   -2.1020   20.6920  -29.7660 C   0  0  0  0  0  0  0  0  0  0  0  0
   -0.7770   20.5060  -29.3210 C   0  0  0  0  0  0  0  0  0  0  0  0
   -0.4650   20.6020  -27.9620 C   0  0  0  0  0  0  0  0  0  0  0  0
   -1.4680   20.8650  -27.0290 C   0  0  0  0  0  0  0  0  0  0  0  0
   -2.7850   21.0510  -27.4540 C   0  0  0  0  0  0  0  0  0  0  0  0
   -3.1020   20.9720  -28.8130 C   0  0  0  0  0  0  0  0  0  0  0  0
   -3.5840   19.8830  -31.6290 C   0  0  0  0  0  0  0  0  0  0  0  0
   -5.9710   21.8460  -32.2050 C   0  0  0  0  0  0  0  0  0  0  0  0
   -2.5980   24.1810  -29.0020 N   0  0  0  0  0  0  0  0  0  0  0  0
    0.6676   24.0333  -28.2047 H   0  0  0  0  0  0  0  0  0  0  0  0
   -0.1313   23.2115  -29.5879 H   0  0  0  0  0  0  0  0  0  0  0  0
    0.0498   24.9986  -29.5879 H   0  0  0  0  0  0  0  0  0  0  0  0
   -0.5929   24.5754  -26.3025 H   0  0  0  0  0  0  0  0  0  0  0  0
   -2.8275   24.8332  -25.2069 H   0  0  0  0  0  0  0  0  0  0  0  0
   -4.9134   24.6408  -26.5753 H   0  0  0  0  0  0  0  0  0  0  0  0
   -7.5946   23.6028  -29.7642 H   0  0  0  0  0  0  0  0  0  0  0  0
   -9.3402   21.8908  -30.2617 H   0  0  0  0  0  0  0  0  0  0  0  0
   -8.9206   20.1343  -31.9789 H   0  0  0  0  0  0  0  0  0  0  0  0
   -7.4250   19.6940  -34.2180 H   0  0  0  0  0  0  0  0  0  0  0  0
   -3.2836   20.2437  -35.0175 H   0  0  0  0  0  0  0  0  0  0  0  0
   -1.2712   21.5250  -34.2973 H   0  0  0  0  0  0  0  0  0  0  0  0
   -0.7235   21.7430  -31.8781 H   0  0  0  0  0  0  0  0  0  0  0  0
    0.0171   20.2837  -30.0490 H   0  0  0  0  0  0  0  0  0  0  0  0
    0.5745   20.4698  -27.6272 H   0  0  0  0  0  0  0  0  0  0  0  0
   -1.2215   20.9259  -25.9587 H   0  0  0  0  0  0  0  0  0  0  0  0
   -3.5749   21.2602  -26.7176 H   0  0  0  0  0  0  0  0  0  0  0  0
   -4.1400   21.1296  -29.1413 H   0  0  0  0  0  0  0  0  0  0  0  0
   -4.2480   19.4297  -30.8783 H   0  0  0  0  0  0  0  0  0  0  0  0
   -5.0211   21.8422  -32.7597 H   0  0  0  0  0  0  0  0  0  0  0  0
  1  2  1  0
  2  3  2  0
  3  4  1  0
  4  5  2  0
  5  6  1  0
  6  7  2  3
  7  8  1  0
  8  9  2  0
  8 10  2  0
  8 11  1  0
 11 12  2  0
 12 13  1  0
 13 14  2  0
 14 15  1  0
 15 16  1  0
 16 17  1  0
 17 18  2  0
 17 19  2  0
 17 20  1  0
 20 21  2  0
 21 22  1  0
 22 23  2  0
 23 24  1  0
 24 25  1  0
 25 26  2  0
 26 27  1  0
 27 28  2  0
 28 29  1  0
 29 30  2  0
 24 31  2  0
 15 32  2  0
  6 33  1  0
 33  2  1  0
 32 11  1  0
 31 20  1  0
 30 25  1  0
  1 34  1  0
  1 35  1  0
  1 36  1  0
  3 37  1  0
  4 38  1  0
  5 39  1  0
 12 40  1  0
 13 41  1  0
 14 42  1  0
 16 43  1  0
 21 44  1  0
 22 45  1  0
 23 46  1  0
 26 47  1  0
 27 48  1  0
 28 49  1  0
 29 50  1  0
 30 51  1  0
 31 52  1  0
 32 53  1  0
M  CHG  1  33  -1
M  END
>  <UniqueID>  (24) 
24

>  <SMILES>  (24) 
Cc1cccc(=NS(=O)(=O)c2cccc(NS(=O)(=O)c3cccc(-c4ccccc4)c3)c2)[n-]1

>  <Energy>  (24) 
64.21767003802688

>  <Genealogy>  (24) 
Cc1cccc(=NS(=O)(=O)c2cccc(NS(=O)(=O)c3cccc(-c4ccccc4)c3)c2)[n-]1 (protonated)
Cc1cccc(=NS(=O)(=O)c2cccc(NS(=O)(=O)c3cccc(-c4ccccc4)c3)c2)[n-]1 (3D coordinates assigned)
Cc1cccc(=NS(=O)(=O)c2cccc(NS(=O)(=O)c3cccc(-c4ccccc4)c3)c2)[n-]1 (optimized conformer: 64.21767003802688 kcal/mol)

>  <smiles>  (24) 
Cc1cccc(=NS(=O)(=O)c2cccc(NS(=O)(=O)c3cccc(-c4ccccc4)c3)c2)[nH]1

>  <score_type>  (24) 
oracle

>  <origin>  (24) 
adgpu

>  <m_score__min__energy>  (24) 
-12.41

>  <m_primary>  (24) 
energy

$$$$
24:0
     RDKit          3D

 40 42  0  0  0  0  0  0  0  0999 V2000
   -2.5890   22.0830  -31.3290 C   0  0  0  0  0  0  0  0  0  0  0  0
   -3.6170   23.0270  -31.6070 O   0  0  0  0  0  0  0  0  0  0  0  0
   -4.9880   22.7280  -31.6400 C   0  0  0  0  0  0  0  0  0  0  0  0
   -5.4890   21.6160  -32.3460 C   0  0  0  0  0  0  0  0  0  0  0  0
   -6.8580   21.3440  -32.3570 C   0  0  0  0  0  0  0  0  0  0  0  0
   -7.7430   22.1740  -31.6680 C   0  0  0  0  0  0  0  0  0  0  0  0
   -7.2610   23.2790  -30.9640 C   0  0  0  0  0  0  0  0  0  0  0  0
   -5.8860   23.5630  -30.9460 C   0  0  0  0  0  0  0  0  0  0  0  0
   -5.2840   24.9630  -30.0540 S   0  0  0  0  0  0  0  0  0  0  0  0
   -6.4410   25.8670  -29.7310 O   0  0  0  0  0  0  0  0  0  0  0  0
   -4.2810   25.6830  -30.9120 O   0  0  0  0  0  0  0  0  0  0  0  0
   -4.5230   24.4490  -28.5830 N   0  0  0  0  0  0  0  0  0  0  0  0
   -3.2530   23.7950  -28.4220 C   0  0  0  0  0  0  0  0  0  0  0  0
   -3.2580   22.5140  -27.8520 C   0  0  0  0  0  0  0  0  0  0  0  0
   -2.0640   21.8040  -27.6710 C   0  0  0  0  0  0  0  0  0  0  0  0
   -0.8450   22.3800  -28.0480 C   0  0  0  0  0  0  0  0  0  0  0  0
   -0.8250   23.6680  -28.5950 C   0  0  0  0  0  0  0  0  0  0  0  0
   -2.0160   24.3770  -28.7890 C   0  0  0  0  0  0  0  0  0  0  0  0
   -1.9380   25.6540  -29.3280 O   0  0  0  0  0  0  0  0  0  0  0  0
    0.4270   21.6230  -27.7770 C   0  0  0  0  0  0  0  0  0  0  0  0
    0.2840   20.1300  -28.1360 C   0  0  0  0  0  0  0  0  0  0  0  0
   -1.1030   19.5090  -27.8200 C   0  0  0  0  0  0  0  0  0  0  0  0
   -2.0500   20.4380  -27.0440 C   0  0  0  0  0  0  0  0  0  0  0  0
   -2.4734   21.9768  -30.2403 H   0  0  0  0  0  0  0  0  0  0  0  0
   -2.8570   21.1097  -31.7659 H   0  0  0  0  0  0  0  0  0  0  0  0
   -1.6420   22.4328  -31.7659 H   0  0  0  0  0  0  0  0  0  0  0  0
   -4.7967   20.9582  -32.8919 H   0  0  0  0  0  0  0  0  0  0  0  0
   -7.2400   20.4733  -32.9101 H   0  0  0  0  0  0  0  0  0  0  0  0
   -8.8214   21.9575  -31.6795 H   0  0  0  0  0  0  0  0  0  0  0  0
   -7.9617   23.9302  -30.4209 H   0  0  0  0  0  0  0  0  0  0  0  0
   -4.2115   22.0608  -27.5430 H   0  0  0  0  0  0  0  0  0  0  0  0
    0.1347   24.1269  -28.8748 H   0  0  0  0  0  0  0  0  0  0  0  0
    1.2377   22.0593  -28.3790 H   0  0  0  0  0  0  0  0  0  0  0  0
    0.6519   21.6996  -26.7030 H   0  0  0  0  0  0  0  0  0  0  0  0
    0.4697   20.0191  -29.2145 H   0  0  0  0  0  0  0  0  0  0  0  0
    1.0113   19.5924  -27.5099 H   0  0  0  0  0  0  0  0  0  0  0  0
   -1.5857   19.2419  -28.7716 H   0  0  0  0  0  0  0  0  0  0  0  0
   -0.9183   18.6374  -27.1749 H   0  0  0  0  0  0  0  0  0  0  0  0
   -3.0668   20.0188  -27.0629 H   0  0  0  0  0  0  0  0  0  0  0  0
   -1.6988   20.5229  -26.0050 H   0  0  0  0  0  0  0  0  0  0  0  0
  1  2  1  0
  2  3  1  0
  3  4  2  0
  4  5  1  0
  5  6  2  0
  6  7  1  0
  7  8  2  0
  8  9  1  0
  9 10  2  0
  9 11  2  0
  9 12  1  0
 12 13  1  0
 13 14  2  0
 14 15  1  0
 15 16  2  0
 16 17  1  0
 17 18  2  0
 18 19  1  0
 16 20  1  0
 20 21  1  0
 21 22  1  0
 22 23  1  0
  8  3  1  0
 18 13  1  0
 23 15  1  0
  1 24  1  0
  1 25  1  0
  1 26  1  0
  4 27  1  0
  5 28  1  0
  6 29  1  0
  7 30  1  0
 14 31  1  0
 17 32  1  0
 20 33  1  0
 20 34  1  0
 21 35  1  0
 21 36  1  0
 22 37  1  0
 22 38  1  0
 23 39  1  0
 23 40  1  0
M  CHG  2  12  -1  19  -1
M  END
>  <UniqueID>  (25) 
25

>  <SMILES>  (25) 
COc1ccccc1S(=O)(=O)[N-]c1cc2c(cc1[O-])CCCC2

>  <Energy>  (25) 
53.66686106270866

>  <Genealogy>  (25) 
COc1ccccc1S(=O)(=O)[N-]c1cc2c(cc1[O-])CCCC2 (protonated)
COc1ccccc1S(=O)(=O)[N-]c1cc2c(cc1[O-])CCCC2 (3D coordinates assigned)
COc1ccccc1S(=O)(=O)[N-]c1cc2c(cc1[O-])CCCC2 (nonaromatic ring conformer: 53.66686106270866 kcal/mol)

>  <smiles>  (25) 
COc1ccccc1S(=O)(=O)Nc1cc2c(cc1O)CCCC2

>  <score_type>  (25) 
oracle

>  <origin>  (25) 
adgpu

>  <m_score__min__energy>  (25) 
-12.699999999999999

>  <m_primary>  (25) 
energy

$$$$
25:0
     RDKit          3D

 54 57  0  0  0  0  0  0  0  0999 V2000
   -0.8290   24.1850  -25.1970 C   0  0  0  0  0  0  0  0  0  0  0  0
   -0.5990   25.6720  -25.2870 C   0  0  0  0  0  0  0  0  0  0  0  0
   -0.5000   26.4070  -24.0910 C   0  0  0  0  0  0  0  0  0  0  0  0
   -0.3280   27.7910  -24.1180 C   0  0  0  0  0  0  0  0  0  0  0  0
   -0.2510   28.4620  -25.3370 C   0  0  0  0  0  0  0  0  0  0  0  0
   -0.3310   27.7480  -26.5340 C   0  0  0  0  0  0  0  0  0  0  0  0
   -0.4850   26.3490  -26.5310 C   0  0  0  0  0  0  0  0  0  0  0  0
   -0.5240   25.6430  -27.8360 C   0  0  0  0  0  0  0  0  0  0  0  0
    0.4820   24.9780  -28.2060 O   0  0  0  0  0  0  0  0  0  0  0  0
   -1.7190   25.6730  -28.6350 N   0  0  0  0  0  0  0  0  0  0  0  0
   -2.3010   24.6750  -29.2340 C   0  0  0  0  0  0  0  0  0  0  0  0
   -3.4270   24.8390  -29.9580 N   0  0  0  0  0  0  0  0  0  0  0  0
   -3.8620   23.6710  -30.5070 C   0  0  0  0  0  0  0  0  0  0  0  0
   -5.1000   23.6360  -31.3480 C   0  0  0  0  0  0  0  0  0  0  0  0
   -3.0660   22.5510  -30.2200 C   0  0  0  0  0  0  0  0  0  0  0  0
   -3.2610   21.1610  -30.7030 C   0  0  0  0  0  0  0  0  0  0  0  0
   -3.8480   20.3340  -29.9530 O   0  0  0  0  0  0  0  0  0  0  0  0
   -2.8730   20.7730  -32.0490 N   0  0  0  0  0  0  0  0  0  0  0  0
   -3.5830   21.5960  -33.0700 C   0  0  0  0  0  0  0  0  0  0  0  0
   -4.6780   20.8340  -33.8350 C   0  0  0  0  0  0  0  0  0  0  0  0
   -5.3120   19.8540  -32.9530 N   0  0  0  0  0  0  0  0  0  0  0  0
   -6.7190   19.9140  -32.6450 C   0  0  0  0  0  0  0  0  0  0  0  0
   -7.3270   21.1400  -32.3140 C   0  0  0  0  0  0  0  0  0  0  0  0
   -8.6880   21.1910  -31.9950 C   0  0  0  0  0  0  0  0  0  0  0  0
   -9.4520   20.0220  -31.9970 C   0  0  0  0  0  0  0  0  0  0  0  0
   -8.8570   18.7980  -32.3160 C   0  0  0  0  0  0  0  0  0  0  0  0
   -7.4970   18.7420  -32.6360 C   0  0  0  0  0  0  0  0  0  0  0  0
   -4.4610   18.8270  -32.3440 C   0  0  0  0  0  0  0  0  0  0  0  0
   -2.9980   19.3060  -32.2590 C   0  0  0  0  0  0  0  0  0  0  0  0
   -1.7890   23.0700  -29.2480 S   0  0  0  0  0  0  0  0  0  0  0  0
   -0.8755   23.8845  -24.1399 H   0  0  0  0  0  0  0  0  0  0  0  0
   -1.7773   23.9300  -25.6927 H   0  0  0  0  0  0  0  0  0  0  0  0
   -0.0021   23.6554  -25.6927 H   0  0  0  0  0  0  0  0  0  0  0  0
   -0.5589   25.8846  -23.1247 H   0  0  0  0  0  0  0  0  0  0  0  0
   -0.2530   28.3536  -23.1757 H   0  0  0  0  0  0  0  0  0  0  0  0
   -0.1271   29.5548  -25.3560 H   0  0  0  0  0  0  0  0  0  0  0  0
   -0.2729   28.2857  -27.4918 H   0  0  0  0  0  0  0  0  0  0  0  0
   -5.9856   23.6110  -30.6960 H   0  0  0  0  0  0  0  0  0  0  0  0
   -5.1374   24.5334  -31.9830 H   0  0  0  0  0  0  0  0  0  0  0  0
   -5.0867   22.7379  -31.9830 H   0  0  0  0  0  0  0  0  0  0  0  0
   -1.8510   20.9700  -32.1550 H   0  0  0  0  0  0  0  0  0  0  0  0
   -4.0488   22.4527  -32.5610 H   0  0  0  0  0  0  0  0  0  0  0  0
   -2.8306   21.9024  -33.8116 H   0  0  0  0  0  0  0  0  0  0  0  0
   -5.4358   21.5464  -34.1930 H   0  0  0  0  0  0  0  0  0  0  0  0
   -4.2251   20.3115  -34.6905 H   0  0  0  0  0  0  0  0  0  0  0  0
   -6.7284   22.0629  -32.3062 H   0  0  0  0  0  0  0  0  0  0  0  0
   -9.1572   22.1533  -31.7422 H   0  0  0  0  0  0  0  0  0  0  0  0
  -10.5225   20.0644  -31.7474 H   0  0  0  0  0  0  0  0  0  0  0  0
   -9.4595   17.8777  -32.3153 H   0  0  0  0  0  0  0  0  0  0  0  0
   -7.0327   17.7757  -32.8822 H   0  0  0  0  0  0  0  0  0  0  0  0
   -4.8284   18.6092  -31.3303 H   0  0  0  0  0  0  0  0  0  0  0  0
   -4.4994   17.9223  -32.9685 H   0  0  0  0  0  0  0  0  0  0  0  0
   -2.5094   18.7898  -31.4195 H   0  0  0  0  0  0  0  0  0  0  0  0
   -2.5210   19.0719  -33.2221 H   0  0  0  0  0  0  0  0  0  0  0  0
  1  2  1  0
  2  3  2  0
  3  4  1  0
  4  5  2  0
  5  6  1  0
  6  7  2  0
  7  8  1  0
  8  9  2  0
  8 10  1  0
 10 11  2  3
 11 12  1  0
 12 13  1  0
 13 14  1  0
 13 15  2  0
 15 16  1  0
 16 17  2  0
 16 18  1  0
 18 19  1  0
 19 20  1  0
 20 21  1  0
 21 22  1  0
 22 23  2  0
 23 24  1  0
 24 25  2  0
 25 26  1  0
 26 27  2  0
 21 28  1  0
 28 29  1  0
 15 30  1  0
  7  2  1  0
 30 11  1  0
 29 18  1  0
 27 22  1  0
  1 31  1  0
  1 32  1  0
  1 33  1  0
  3 34  1  0
  4 35  1  0
  5 36  1  0
  6 37  1  0
 14 38  1  0
 14 39  1  0
 14 40  1  0
 18 41  1  0
 19 42  1  0
 19 43  1  0
 20 44  1  0
 20 45  1  0
 23 46  1  0
 24 47  1  0
 25 48  1  0
 26 49  1  0
 27 50  1  0
 28 51  1  0
 28 52  1  0
 29 53  1  0
 29 54  1  0
M  CHG  2  12  -1  18   1
M  END
>  <UniqueID>  (26) 
26

>  <SMILES>  (26) 
Cc1ccccc1C(=O)N=c1[n-]c(C)c(C(=O)[NH+]2CCN(c3ccccc3)CC2)s1

>  <Energy>  (26) 
111.13970431094684

>  <Genealogy>  (26) 
Cc1ccccc1C(=O)N=c1[n-]c(C)c(C(=O)[NH+]2CCN(c3ccccc3)CC2)s1 (protonated)
Cc1ccccc1C(=O)N=c1[n-]c(C)c(C(=O)[NH+]2CCN(c3ccccc3)CC2)s1 (3D coordinates assigned)
Cc1ccccc1C(=O)N=c1[n-]c(C)c(C(=O)[NH+]2CCN(c3ccccc3)CC2)s1 (nonaromatic ring conformer: 111.13970431094684 kcal/mol)

>  <smiles>  (26) 
Cc1ccccc1C(=O)N=c1[nH]c(C)c(C(=O)N2CCN(c3ccccc3)CC2)s1

>  <score_type>  (26) 
oracle

>  <origin>  (26) 
adgpu

>  <m_score__min__energy>  (26) 
-10.01

>  <m_primary>  (26) 
energy

$$$$
26:0
     RDKit          3D

 43 45  0  0  0  0  0  0  0  0999 V2000
   -9.6050   23.3860  -32.1120 O   0  0  0  0  0  0  0  0  0  0  0  0
   -8.5920   22.4330  -31.5430 S   0  0  0  0  0  0  0  0  0  0  0  0
   -9.1400   21.8400  -30.2750 O   0  0  0  0  0  0  0  0  0  0  0  0
   -8.2950   21.1640  -32.6880 N   0  0  0  0  0  0  0  0  0  0  0  0
   -7.4890   20.0050  -32.4340 C   0  0  0  0  0  0  0  0  0  0  0  0
   -8.0030   18.9890  -31.6170 C   0  0  0  0  0  0  0  0  0  0  0  0
   -7.2460   17.8460  -31.3470 C   0  0  0  0  0  0  0  0  0  0  0  0
   -5.9650   17.7110  -31.8830 C   0  0  0  0  0  0  0  0  0  0  0  0
   -5.4360   18.7190  -32.7020 C   0  0  0  0  0  0  0  0  0  0  0  0
   -3.8430   18.5250  -33.4290 S   0  0  0  0  0  0  0  0  0  0  0  0
   -3.9990   18.3620  -34.9170 O   0  0  0  0  0  0  0  0  0  0  0  0
   -3.1850   17.2870  -32.8820 O   0  0  0  0  0  0  0  0  0  0  0  0
   -2.8680   19.9320  -33.0890 N   0  0  0  0  0  0  0  0  0  0  0  0
   -2.2740   19.8220  -31.7440 C   0  0  0  0  0  0  0  0  0  0  0  0
   -1.2060   20.9150  -31.5250 C   0  0  0  0  0  0  0  0  0  0  0  0
   -1.2610   21.8890  -32.5460 O   0  0  0  0  0  0  0  0  0  0  0  0
   -0.9340   21.2970  -33.7920 C   0  0  0  0  0  0  0  0  0  0  0  0
   -1.8120   20.0650  -34.1020 C   0  0  0  0  0  0  0  0  0  0  0  0
   -6.2010   19.8600  -32.9800 C   0  0  0  0  0  0  0  0  0  0  0  0
   -7.0810   23.2590  -31.1780 C   0  0  0  0  0  0  0  0  0  0  0  0
   -7.0760   24.4570  -30.4470 C   0  0  0  0  0  0  0  0  0  0  0  0
   -5.8730   25.1250  -30.2060 C   0  0  0  0  0  0  0  0  0  0  0  0
   -4.6680   24.6030  -30.6880 C   0  0  0  0  0  0  0  0  0  0  0  0
   -3.4800   25.2810  -30.4410 O   0  0  0  0  0  0  0  0  0  0  0  0
   -4.6670   23.4030  -31.4190 C   0  0  0  0  0  0  0  0  0  0  0  0
   -3.4810   22.8580  -31.9120 O   0  0  0  0  0  0  0  0  0  0  0  0
   -5.8740   22.7360  -31.6600 C   0  0  0  0  0  0  0  0  0  0  0  0
   -9.0095   19.0921  -31.1852 H   0  0  0  0  0  0  0  0  0  0  0  0
   -7.6610   17.0508  -30.7103 H   0  0  0  0  0  0  0  0  0  0  0  0
   -5.3693   16.8129  -31.6629 H   0  0  0  0  0  0  0  0  0  0  0  0
   -3.0663   19.9357  -30.9895 H   0  0  0  0  0  0  0  0  0  0  0  0
   -1.7943   18.8366  -31.6501 H   0  0  0  0  0  0  0  0  0  0  0  0
   -1.3829   21.4012  -30.5543 H   0  0  0  0  0  0  0  0  0  0  0  0
   -0.2127   20.4429  -31.5446 H   0  0  0  0  0  0  0  0  0  0  0  0
   -1.0778   22.0433  -34.5872 H   0  0  0  0  0  0  0  0  0  0  0  0
    0.1123   20.9614  -33.7416 H   0  0  0  0  0  0  0  0  0  0  0  0
   -2.2720   20.1859  -35.0939 H   0  0  0  0  0  0  0  0  0  0  0  0
   -1.1840   19.1620  -34.0893 H   0  0  0  0  0  0  0  0  0  0  0  0
   -5.7912   20.6474  -33.6296 H   0  0  0  0  0  0  0  0  0  0  0  0
   -8.0204   24.8705  -30.0634 H   0  0  0  0  0  0  0  0  0  0  0  0
   -5.8733   26.0652  -29.6350 H   0  0  0  0  0  0  0  0  0  0  0  0
   -3.4310   21.9090  -32.2620 H   0  0  0  0  0  0  0  0  0  0  0  0
   -5.8747   21.7959  -32.2311 H   0  0  0  0  0  0  0  0  0  0  0  0
  1  2  2  0
  2  3  2  0
  2  4  1  0
  4  5  1  0
  5  6  2  0
  6  7  1  0
  7  8  2  0
  8  9  1  0
  9 10  1  0
 10 11  2  0
 10 12  2  0
 10 13  1  0
 13 14  1  0
 14 15  1  0
 15 16  1  0
 16 17  1  0
 17 18  1  0
  9 19  2  0
  2 20  1  0
 20 21  2  0
 21 22  1  0
 22 23  2  0
 23 24  1  0
 23 25  1  0
 25 26  1  0
 25 27  2  0
 19  5  1  0
 27 20  1  0
 18 13  1  0
  6 28  1  0
  7 29  1  0
  8 30  1  0
 14 31  1  0
 14 32  1  0
 15 33  1  0
 15 34  1  0
 17 35  1  0
 17 36  1  0
 18 37  1  0
 18 38  1  0
 19 39  1  0
 21 40  1  0
 22 41  1  0
 26 42  1  0
 27 43  1  0
M  CHG  2   4  -1  24  -1
M  END
>  <UniqueID>  (27) 
27

>  <SMILES>  (27) 
O=S(=O)([N-]c1cccc(S(=O)(=O)N2CCOCC2)c1)c1ccc([O-])c(O)c1

>  <Energy>  (27) 
54.15867493875924

>  <Genealogy>  (27) 
O=S(=O)([N-]c1cccc(S(=O)(=O)N2CCOCC2)c1)c1ccc([O-])c(O)c1 (protonated)
O=S(=O)([N-]c1cccc(S(=O)(=O)N2CCOCC2)c1)c1ccc([O-])c(O)c1 (3D coordinates assigned)
O=S(=O)([N-]c1cccc(S(=O)(=O)N2CCOCC2)c1)c1ccc([O-])c(O)c1 (nonaromatic ring conformer: 54.15867493875924 kcal/mol)

>  <smiles>  (27) 
O=S(=O)(Nc1cccc(S(=O)(=O)N2CCOCC2)c1)c1ccc(O)c(O)c1

>  <score_type>  (27) 
oracle

>  <origin>  (27) 
adgpu

>  <m_score__min__energy>  (27) 
-11.92

>  <m_primary>  (27) 
energy

$$$$
27:0
     RDKit          3D

 34 36  0  0  0  0  0  0  0  0999 V2000
   -0.6360   27.0380  -26.9150 C   0  0  0  0  0  0  0  0  0  0  0  0
   -0.1390   25.9580  -27.5170 C   0  0  0  0  0  0  0  0  0  0  0  0
   -0.9920   24.8400  -27.9800 C   0  0  0  0  0  0  0  0  0  0  0  0
   -1.9560   25.0610  -28.9140 N   0  0  0  0  0  0  0  0  0  0  0  0
   -2.7680   24.0750  -29.3770 C   0  0  0  0  0  0  0  0  0  0  0  0
   -3.7420   24.3710  -30.3420 C   0  0  0  0  0  0  0  0  0  0  0  0
   -3.8620   25.6740  -30.8180 O   0  0  0  0  0  0  0  0  0  0  0  0
   -4.5910   23.3570  -30.8230 C   0  0  0  0  0  0  0  0  0  0  0  0
   -5.6190   23.6440  -31.8900 C   0  0  0  0  0  0  0  0  0  0  0  0
   -6.6700   22.5660  -31.9080 C   0  0  0  0  0  0  0  0  0  0  0  0
   -7.8760   22.7360  -31.2080 C   0  0  0  0  0  0  0  0  0  0  0  0
   -8.8640   21.7470  -31.2540 C   0  0  0  0  0  0  0  0  0  0  0  0
   -8.6570   20.5860  -32.0040 C   0  0  0  0  0  0  0  0  0  0  0  0
   -7.4640   20.4130  -32.7110 C   0  0  0  0  0  0  0  0  0  0  0  0
   -6.4740   21.3990  -32.6670 C   0  0  0  0  0  0  0  0  0  0  0  0
   -4.4420   22.0480  -30.3400 C   0  0  0  0  0  0  0  0  0  0  0  0
   -3.4740   21.7500  -29.3790 C   0  0  0  0  0  0  0  0  0  0  0  0
   -2.6260   22.7570  -28.8850 C   0  0  0  0  0  0  0  0  0  0  0  0
   -1.6350   22.4990  -27.9150 C   0  0  0  0  0  0  0  0  0  0  0  0
   -1.3880   20.8840  -27.2460 Cl  0  0  0  0  0  0  0  0  0  0  0  0
   -0.8180   23.5450  -27.4640 C   0  0  0  0  0  0  0  0  0  0  0  0
    0.1620   23.2930  -26.5070 O   0  0  0  0  0  0  0  0  0  0  0  0
    0.0372   27.8441  -26.5880 H   0  0  0  0  0  0  0  0  0  0  0  0
   -1.7194   27.1234  -26.7451 H   0  0  0  0  0  0  0  0  0  0  0  0
    0.9476   25.8947  -27.6762 H   0  0  0  0  0  0  0  0  0  0  0  0
   -6.0967   24.6128  -31.6821 H   0  0  0  0  0  0  0  0  0  0  0  0
   -5.1191   23.6721  -32.8695 H   0  0  0  0  0  0  0  0  0  0  0  0
   -8.0441   23.6510  -30.6211 H   0  0  0  0  0  0  0  0  0  0  0  0
   -9.8043   21.8830  -30.6996 H   0  0  0  0  0  0  0  0  0  0  0  0
   -9.4337   19.8078  -32.0378 H   0  0  0  0  0  0  0  0  0  0  0  0
   -7.3038   19.4998  -33.3029 H   0  0  0  0  0  0  0  0  0  0  0  0
   -5.5381   21.2612  -33.2284 H   0  0  0  0  0  0  0  0  0  0  0  0
   -5.0942   21.2489  -30.7222 H   0  0  0  0  0  0  0  0  0  0  0  0
   -3.3740   20.7201  -29.0057 H   0  0  0  0  0  0  0  0  0  0  0  0
  1  2  2  0
  2  3  1  0
  3  4  2  0
  4  5  1  0
  5  6  2  0
  6  7  1  0
  6  8  1  0
  8  9  1  0
  9 10  1  0
 10 11  2  0
 11 12  1  0
 12 13  2  0
 13 14  1  0
 14 15  2  0
  8 16  2  0
 16 17  1  0
 17 18  2  0
 18 19  1  0
 19 20  1  0
 19 21  2  0
 21 22  1  0
 21  3  1  0
 18  5  1  0
 15 10  1  0
  1 23  1  0
  1 24  1  0
  2 25  1  0
  9 26  1  0
  9 27  1  0
 11 28  1  0
 12 29  1  0
 13 30  1  0
 14 31  1  0
 15 32  1  0
 16 33  1  0
 17 34  1  0
M  CHG  2   7  -1  22  -1
M  END
>  <UniqueID>  (28) 
28

>  <SMILES>  (28) 
C=Cc1nc2c([O-])c(Cc3ccccc3)ccc2c(Cl)c1[O-]

>  <Energy>  (28) 
41.42516713384425

>  <Genealogy>  (28) 
C=Cc1nc2c([O-])c(Cc3ccccc3)ccc2c(Cl)c1[O-] (protonated)
C=Cc1nc2c([O-])c(Cc3ccccc3)ccc2c(Cl)c1[O-] (3D coordinates assigned)
C=Cc1nc2c([O-])c(Cc3ccccc3)ccc2c(Cl)c1[O-] (optimized conformer: 41.42516713384425 kcal/mol)

>  <smiles>  (28) 
C=Cc1nc2c(O)c(Cc3ccccc3)ccc2c(Cl)c1O

>  <score_type>  (28) 
oracle

>  <origin>  (28) 
adgpu

>  <m_score__min__energy>  (28) 
-11.470000000000001

>  <m_primary>  (28) 
energy

$$$$
28:0
     RDKit          3D

 51 53  0  0  0  0  0  0  0  0999 V2000
   -0.0200   19.2340  -30.7530 C   0  0  0  0  0  0  0  0  0  0  0  0
   -0.6000   20.5660  -30.3530 C   0  0  0  0  0  0  0  0  0  0  0  0
   -0.4610   20.9970  -29.0230 C   0  0  0  0  0  0  0  0  0  0  0  0
   -0.9800   22.2240  -28.6130 C   0  0  0  0  0  0  0  0  0  0  0  0
   -1.6600   23.0400  -29.5220 C   0  0  0  0  0  0  0  0  0  0  0  0
   -2.2700   24.6180  -29.0210 S   0  0  0  0  0  0  0  0  0  0  0  0
   -1.1570   25.6240  -29.0800 O   0  0  0  0  0  0  0  0  0  0  0  0
   -2.7710   24.5670  -27.6070 O   0  0  0  0  0  0  0  0  0  0  0  0
   -3.5180   25.1320  -30.1120 N   0  0  0  0  0  0  0  0  0  0  0  0
   -4.7090   24.4070  -30.4520 C   0  0  0  0  0  0  0  0  0  0  0  0
   -5.7360   24.9650  -31.2320 C   0  0  0  0  0  0  0  0  0  0  0  0
   -6.8720   24.2110  -31.5480 C   0  0  0  0  0  0  0  0  0  0  0  0
   -6.9980   22.8950  -31.0840 C   0  0  0  0  0  0  0  0  0  0  0  0
   -8.4340   21.9460  -31.4770 S   0  0  0  0  0  0  0  0  0  0  0  0
   -9.3930   22.8010  -32.2570 O   0  0  0  0  0  0  0  0  0  0  0  0
   -9.1150   21.5300  -30.2010 O   0  0  0  0  0  0  0  0  0  0  0  0
   -8.0360   20.5340  -32.4270 N   0  0  0  0  0  0  0  0  0  0  0  0
   -6.6830   20.6440  -33.0310 C   0  0  0  0  0  0  0  0  0  0  0  0
   -5.6490   19.7250  -32.3640 C   0  0  0  0  0  0  0  0  0  0  0  0
   -6.0950   18.2550  -32.4350 C   0  0  0  0  0  0  0  0  0  0  0  0
   -7.6210   18.0880  -32.3190 C   0  0  0  0  0  0  0  0  0  0  0  0
   -8.2680   19.3000  -31.6440 C   0  0  0  0  0  0  0  0  0  0  0  0
   -5.9690   22.3350  -30.3160 C   0  0  0  0  0  0  0  0  0  0  0  0
   -4.8290   23.0830  -30.0110 C   0  0  0  0  0  0  0  0  0  0  0  0
   -1.8160   22.6180  -30.8470 C   0  0  0  0  0  0  0  0  0  0  0  0
   -1.2900   21.3880  -31.2760 C   0  0  0  0  0  0  0  0  0  0  0  0
   -1.4780   20.9280  -32.9770 S   0  0  0  0  0  0  0  0  0  0  0  0
   -0.1340   21.5210  -33.8860 N   0  0  0  0  0  0  0  0  0  0  0  0
   -1.5470   19.4300  -33.0950 O   0  0  0  0  0  0  0  0  0  0  0  0
   -2.7430   21.5120  -33.5430 O   0  0  0  0  0  0  0  0  0  0  0  0
    0.2310   18.6575  -29.8504 H   0  0  0  0  0  0  0  0  0  0  0  0
   -0.7573   18.6775  -31.3503 H   0  0  0  0  0  0  0  0  0  0  0  0
    0.8896   19.3946  -31.3503 H   0  0  0  0  0  0  0  0  0  0  0  0
    0.0635   20.3587  -28.2968 H   0  0  0  0  0  0  0  0  0  0  0  0
   -0.8541   22.5514  -27.5704 H   0  0  0  0  0  0  0  0  0  0  0  0
   -5.6467   25.9992  -31.5959 H   0  0  0  0  0  0  0  0  0  0  0  0
   -7.6693   24.6535  -32.1633 H   0  0  0  0  0  0  0  0  0  0  0  0
   -6.7524   20.3779  -34.0961 H   0  0  0  0  0  0  0  0  0  0  0  0
   -6.3426   21.6800  -32.8866 H   0  0  0  0  0  0  0  0  0  0  0  0
   -4.6840   19.8340  -32.8806 H   0  0  0  0  0  0  0  0  0  0  0  0
   -5.5533   20.0127  -31.3066 H   0  0  0  0  0  0  0  0  0  0  0  0
   -5.7676   17.8345  -33.3973 H   0  0  0  0  0  0  0  0  0  0  0  0
   -5.6387   17.7291  -31.5834 H   0  0  0  0  0  0  0  0  0  0  0  0
   -8.0455   17.9713  -33.3271 H   0  0  0  0  0  0  0  0  0  0  0  0
   -7.8253   17.1998  -31.7030 H   0  0  0  0  0  0  0  0  0  0  0  0
   -9.3510   19.1275  -31.5581 H   0  0  0  0  0  0  0  0  0  0  0  0
   -7.8162   19.4278  -30.6492 H   0  0  0  0  0  0  0  0  0  0  0  0
   -6.0589   21.3012  -29.9512 H   0  0  0  0  0  0  0  0  0  0  0  0
   -4.0198   22.6288  -29.4202 H   0  0  0  0  0  0  0  0  0  0  0  0
   -2.3567   23.2567  -31.5609 H   0  0  0  0  0  0  0  0  0  0  0  0
    0.6540   21.6610  -33.2130 H   0  0  0  0  0  0  0  0  0  0  0  0
  1  2  1  0
  2  3  2  0
  3  4  1  0
  4  5  2  0
  5  6  1  0
  6  7  2  0
  6  8  2  0
  6  9  1  0
  9 10  1  0
 10 11  2  0
 11 12  1  0
 12 13  2  0
 13 14  1  0
 14 15  2  0
 14 16  2  0
 14 17  1  0
 17 18  1  0
 18 19  1  0
 19 20  1  0
 20 21  1  0
 21 22  1  0
 13 23  1  0
 23 24  2  0
  5 25  1  0
 25 26  2  0
 26 27  1  0
 27 28  1  0
 27 29  2  0
 27 30  2  0
 26  2  1  0
 24 10  1  0
 22 17  1  0
  1 31  1  0
  1 32  1  0
  1 33  1  0
  3 34  1  0
  4 35  1  0
 11 36  1  0
 12 37  1  0
 18 38  1  0
 18 39  1  0
 19 40  1  0
 19 41  1  0
 20 42  1  0
 20 43  1  0
 21 44  1  0
 21 45  1  0
 22 46  1  0
 22 47  1  0
 23 48  1  0
 24 49  1  0
 25 50  1  0
 28 51  1  0
M  CHG  2   9  -1  28  -1
M  END
>  <UniqueID>  (29) 
29

>  <SMILES>  (29) 
Cc1ccc(S(=O)(=O)[N-]c2ccc(S(=O)(=O)N3CCCCC3)cc2)cc1S([NH-])(=O)=O

>  <Energy>  (29) 
61.262785458069274

>  <Genealogy>  (29) 
Cc1ccc(S(=O)(=O)[N-]c2ccc(S(=O)(=O)N3CCCCC3)cc2)cc1S([NH-])(=O)=O (protonated)
Cc1ccc(S(=O)(=O)[N-]c2ccc(S(=O)(=O)N3CCCCC3)cc2)cc1S([NH-])(=O)=O (3D coordinates assigned)
Cc1ccc(S(=O)(=O)[N-]c2ccc(S(=O)(=O)N3CCCCC3)cc2)cc1S([NH-])(=O)=O (nonaromatic ring conformer: 61.262785458069274 kcal/mol)

>  <smiles>  (29) 
Cc1ccc(S(=O)(=O)Nc2ccc(S(=O)(=O)N3CCCCC3)cc2)cc1S(N)(=O)=O

>  <score_type>  (29) 
oracle

>  <origin>  (29) 
adgpu

>  <m_score__min__energy>  (29) 
-12.130000000000001

>  <m_primary>  (29) 
energy

$$$$
29:0
     RDKit          3D

 40 42  0  0  0  0  0  0  0  0999 V2000
   -2.6140   21.7980  -32.1880 O   0  0  0  0  0  0  0  0  0  0  0  0
   -2.9030   22.3400  -30.8160 S   0  0  0  0  0  0  0  0  0  0  0  0
   -1.8680   23.3570  -30.4270 O   0  0  0  0  0  0  0  0  0  0  0  0
   -2.9020   21.0380  -29.6690 N   0  0  0  0  0  0  0  0  0  0  0  0
   -1.7620   20.3900  -29.0830 C   0  0  0  0  0  0  0  0  0  0  0  0
   -1.9400   19.7720  -27.8370 C   0  0  0  0  0  0  0  0  0  0  0  0
   -0.8820   19.1160  -27.2070 C   0  0  0  0  0  0  0  0  0  0  0  0
    0.3750   19.0770  -27.8120 C   0  0  0  0  0  0  0  0  0  0  0  0
    0.5760   19.7030  -29.0440 C   0  0  0  0  0  0  0  0  0  0  0  0
   -0.4810   20.3700  -29.6840 C   0  0  0  0  0  0  0  0  0  0  0  0
   -0.2400   21.0210  -30.8920 O   0  0  0  0  0  0  0  0  0  0  0  0
   -4.4900   23.1100  -30.8390 C   0  0  0  0  0  0  0  0  0  0  0  0
   -5.6430   22.3390  -31.0490 C   0  0  0  0  0  0  0  0  0  0  0  0
   -6.9070   22.9440  -31.0880 C   0  0  0  0  0  0  0  0  0  0  0  0
   -8.3420   21.9600  -31.3650 S   0  0  0  0  0  0  0  0  0  0  0  0
   -9.0660   21.7550  -30.0640 O   0  0  0  0  0  0  0  0  0  0  0  0
   -9.2670   22.6490  -32.3300 O   0  0  0  0  0  0  0  0  0  0  0  0
   -7.8680   20.4060  -32.0510 C   0  0  0  0  0  0  0  0  0  0  0  0
   -6.9020   20.3560  -33.0650 C   0  0  0  0  0  0  0  0  0  0  0  0
   -6.4960   19.1240  -33.5880 C   0  0  0  0  0  0  0  0  0  0  0  0
   -7.0470   17.9380  -33.0950 C   0  0  0  0  0  0  0  0  0  0  0  0
   -8.0060   17.9830  -32.0770 C   0  0  0  0  0  0  0  0  0  0  0  0
   -8.4150   19.2140  -31.5540 C   0  0  0  0  0  0  0  0  0  0  0  0
   -7.0190   24.3260  -30.8960 C   0  0  0  0  0  0  0  0  0  0  0  0
   -5.8750   25.0990  -30.6780 C   0  0  0  0  0  0  0  0  0  0  0  0
   -4.6130   24.4970  -30.6510 C   0  0  0  0  0  0  0  0  0  0  0  0
   -3.4870   25.2840  -30.4340 O   0  0  0  0  0  0  0  0  0  0  0  0
   -2.9259   19.8048  -27.3502 H   0  0  0  0  0  0  0  0  0  0  0  0
   -1.0387   18.6293  -26.2330 H   0  0  0  0  0  0  0  0  0  0  0  0
    1.2071   18.5534  -27.3186 H   0  0  0  0  0  0  0  0  0  0  0  0
    1.5690   19.6734  -29.5163 H   0  0  0  0  0  0  0  0  0  0  0  0
   -0.9300   21.6280  -31.3170 H   0  0  0  0  0  0  0  0  0  0  0  0
   -5.5546   21.2509  -31.1842 H   0  0  0  0  0  0  0  0  0  0  0  0
   -6.4621   21.2877  -33.4504 H   0  0  0  0  0  0  0  0  0  0  0  0
   -5.7421   19.0885  -34.3883 H   0  0  0  0  0  0  0  0  0  0  0  0
   -6.7269   16.9696  -33.5070 H   0  0  0  0  0  0  0  0  0  0  0  0
   -8.4385   17.0495  -31.6878 H   0  0  0  0  0  0  0  0  0  0  0  0
   -9.1668   19.2473  -30.7517 H   0  0  0  0  0  0  0  0  0  0  0  0
   -8.0092   24.8046  -30.9167 H   0  0  0  0  0  0  0  0  0  0  0  0
   -5.9677   26.1847  -30.5271 H   0  0  0  0  0  0  0  0  0  0  0  0
  1  2  2  0
  2  3  2  0
  2  4  1  0
  4  5  1  0
  5  6  2  0
  6  7  1  0
  7  8  2  0
  8  9  1  0
  9 10  2  0
 10 11  1  0
  2 12  1  0
 12 13  2  0
 13 14  1  0
 14 15  1  0
 15 16  2  0
 15 17  2  0
 15 18  1  0
 18 19  2  0
 19 20  1  0
 20 21  2  0
 21 22  1  0
 22 23  2  0
 14 24  2  0
 24 25  1  0
 25 26  2  0
 26 27  1  0
 10  5  1  0
 26 12  1  0
 23 18  1  0
  6 28  1  0
  7 29  1  0
  8 30  1  0
  9 31  1  0
 11 32  1  0
 13 33  1  0
 19 34  1  0
 20 35  1  0
 21 36  1  0
 22 37  1  0
 23 38  1  0
 24 39  1  0
 25 40  1  0
M  CHG  2   4  -1  27  -1
M  END
>  <UniqueID>  (30) 
30

>  <SMILES>  (30) 
O=S(=O)([N-]c1ccccc1O)c1cc(S(=O)(=O)c2ccccc2)ccc1[O-]

>  <Energy>  (30) 
52.47033235169347

>  <Genealogy>  (30) 
O=S(=O)([N-]c1ccccc1O)c1cc(S(=O)(=O)c2ccccc2)ccc1[O-] (protonated)
O=S(=O)([N-]c1ccccc1O)c1cc(S(=O)(=O)c2ccccc2)ccc1[O-] (3D coordinates assigned)
O=S(=O)([N-]c1ccccc1O)c1cc(S(=O)(=O)c2ccccc2)ccc1[O-] (optimized conformer: 52.47033235169347 kcal/mol)

>  <smiles>  (30) 
O=S(=O)(Nc1ccccc1O)c1cc(S(=O)(=O)c2ccccc2)ccc1O

>  <score_type>  (30) 
oracle

>  <origin>  (30) 
adgpu

>  <m_score__min__energy>  (30) 
-14.1

>  <m_primary>  (30) 
energy

$$$$
30:0
     RDKit          3D

 65 69  0  0  0  0  0  0  0  0999 V2000
   -3.8820   25.3740  -30.8240 O   0  0  0  0  0  0  0  0  0  0  0  0
   -4.1350   24.1980  -30.4460 C   0  0  0  0  0  0  0  0  0  0  0  0
   -3.2190   23.5550  -29.5480 N   0  0  0  0  0  0  0  0  0  0  0  0
   -2.4020   22.4100  -29.8440 C   0  0  0  0  0  0  0  0  0  0  0  0
   -1.9820   21.5210  -28.8370 C   0  0  0  0  0  0  0  0  0  0  0  0
   -1.1980   20.4110  -29.1610 C   0  0  0  0  0  0  0  0  0  0  0  0
   -0.8080   20.1920  -30.4840 C   0  0  0  0  0  0  0  0  0  0  0  0
   -1.2050   21.0810  -31.4920 C   0  0  0  0  0  0  0  0  0  0  0  0
   -0.6910   20.8380  -33.1590 S   0  0  0  0  0  0  0  0  0  0  0  0
   -1.7270   21.4400  -34.0660 O   0  0  0  0  0  0  0  0  0  0  0  0
    0.6280   21.5210  -33.3960 O   0  0  0  0  0  0  0  0  0  0  0  0
   -0.5380   19.1300  -33.4860 N   0  0  0  0  0  0  0  0  0  0  0  0
    0.6910   18.6060  -32.8490 C   0  0  0  0  0  0  0  0  0  0  0  0
    1.0560   17.1880  -33.3470 C   0  0  0  0  0  0  0  0  0  0  0  0
   -0.1140   16.5230  -34.0730 C   0  0  0  0  0  0  0  0  0  0  0  0
   -0.6060   17.3890  -35.2450 C   0  0  0  0  0  0  0  0  0  0  0  0
   -0.5170   18.8970  -34.9410 C   0  0  0  0  0  0  0  0  0  0  0  0
   -1.9940   22.1920  -31.1650 C   0  0  0  0  0  0  0  0  0  0  0  0
   -5.3280   23.5010  -30.9850 C   0  0  0  0  0  0  0  0  0  0  0  0
   -6.5400   24.1950  -31.1430 C   0  0  0  0  0  0  0  0  0  0  0  0
   -7.6740   23.5350  -31.6240 C   0  0  0  0  0  0  0  0  0  0  0  0
   -7.6080   22.1800  -31.9590 C   0  0  0  0  0  0  0  0  0  0  0  0
   -6.4010   21.4800  -31.8220 C   0  0  0  0  0  0  0  0  0  0  0  0
   -6.3260   19.7740  -32.2540 S   0  0  0  0  0  0  0  0  0  0  0  0
   -5.5460   19.0150  -31.2170 O   0  0  0  0  0  0  0  0  0  0  0  0
   -7.7260   19.2300  -32.2800 O   0  0  0  0  0  0  0  0  0  0  0  0
   -5.6020   19.5870  -33.8390 N   0  0  0  0  0  0  0  0  0  0  0  0
   -4.1290   19.6750  -33.8180 C   0  0  0  0  0  0  0  0  0  0  0  0
   -3.4670   18.4960  -33.0870 C   0  0  0  0  0  0  0  0  0  0  0  0
   -4.1180   17.1740  -33.4050 C   0  0  0  0  0  0  0  0  0  0  0  0
   -3.4830   15.9860  -33.0060 C   0  0  0  0  0  0  0  0  0  0  0  0
   -4.0970   14.7490  -33.2230 C   0  0  0  0  0  0  0  0  0  0  0  0
   -5.3500   14.6880  -33.8380 C   0  0  0  0  0  0  0  0  0  0  0  0
   -5.9930   15.8640  -34.2360 C   0  0  0  0  0  0  0  0  0  0  0  0
   -5.3930   17.1130  -34.0080 C   0  0  0  0  0  0  0  0  0  0  0  0
   -6.0740   18.3650  -34.5130 C   0  0  0  0  0  0  0  0  0  0  0  0
   -5.2610   22.1460  -31.3530 C   0  0  0  0  0  0  0  0  0  0  0  0
   -2.2720   21.7008  -27.7913 H   0  0  0  0  0  0  0  0  0  0  0  0
   -0.8876   19.7088  -28.3733 H   0  0  0  0  0  0  0  0  0  0  0  0
   -0.1875   19.3193  -30.7356 H   0  0  0  0  0  0  0  0  0  0  0  0
    1.5248   19.2861  -33.0779 H   0  0  0  0  0  0  0  0  0  0  0  0
    0.5066   18.5436  -31.7664 H   0  0  0  0  0  0  0  0  0  0  0  0
    1.9085   17.2618  -34.0383 H   0  0  0  0  0  0  0  0  0  0  0  0
    1.3095   16.5725  -32.4713 H   0  0  0  0  0  0  0  0  0  0  0  0
    0.2125   15.5467  -34.4606 H   0  0  0  0  0  0  0  0  0  0  0  0
   -0.9420   16.3998  -33.3594 H   0  0  0  0  0  0  0  0  0  0  0  0
    0.0110   17.1701  -36.1290 H   0  0  0  0  0  0  0  0  0  0  0  0
   -1.6641   17.1448  -35.4205 H   0  0  0  0  0  0  0  0  0  0  0  0
    0.4191   19.2962  -35.3585 H   0  0  0  0  0  0  0  0  0  0  0  0
   -1.3805   19.4042  -35.3960 H   0  0  0  0  0  0  0  0  0  0  0  0
   -2.2951   22.8983  -31.9527 H   0  0  0  0  0  0  0  0  0  0  0  0
   -6.5962   25.2632  -30.8867 H   0  0  0  0  0  0  0  0  0  0  0  0
   -8.6206   24.0833  -31.7392 H   0  0  0  0  0  0  0  0  0  0  0  0
   -8.5043   21.6618  -32.3307 H   0  0  0  0  0  0  0  0  0  0  0  0
   -3.7642   19.6935  -34.8556 H   0  0  0  0  0  0  0  0  0  0  0  0
   -3.8620   20.5920  -33.2723 H   0  0  0  0  0  0  0  0  0  0  0  0
   -2.4089   18.4475  -33.3838 H   0  0  0  0  0  0  0  0  0  0  0  0
   -3.5793   18.6700  -32.0067 H   0  0  0  0  0  0  0  0  0  0  0  0
   -2.4971   16.0294  -32.5201 H   0  0  0  0  0  0  0  0  0  0  0  0
   -3.5932   13.8229  -32.9093 H   0  0  0  0  0  0  0  0  0  0  0  0
   -5.8311   13.7137  -34.0093 H   0  0  0  0  0  0  0  0  0  0  0  0
   -6.9742   15.8106  -34.7304 H   0  0  0  0  0  0  0  0  0  0  0  0
   -5.8775   18.4608  -35.5911 H   0  0  0  0  0  0  0  0  0  0  0  0
   -7.1484   18.2648  -34.2996 H   0  0  0  0  0  0  0  0  0  0  0  0
   -4.3068   21.6047  -31.2722 H   0  0  0  0  0  0  0  0  0  0  0  0
  1  2  2  0
  2  3  1  0
  3  4  1  0
  4  5  2  0
  5  6  1  0
  6  7  2  0
  7  8  1  0
  8  9  1  0
  9 10  2  0
  9 11  2  0
  9 12  1  0
 12 13  1  0
 13 14  1  0
 14 15  1  0
 15 16  1  0
 16 17  1  0
  8 18  2  0
  2 19  1  0
 19 20  2  0
 20 21  1  0
 21 22  2  0
 22 23  1  0
 23 24  1  0
 24 25  2  0
 24 26  2  0
 24 27  1  0
 27 28  1  0
 28 29  1  0
 29 30  1  0
 30 31  2  0
 31 32  1  0
 32 33  2  0
 33 34  1  0
 34 35  2  0
 35 36  1  0
 23 37  2  0
 18  4  1  0
 37 19  1  0
 17 12  1  0
 36 27  1  0
 35 30  1  0
  5 38  1  0
  6 39  1  0
  7 40  1  0
 13 41  1  0
 13 42  1  0
 14 43  1  0
 14 44  1  0
 15 45  1  0
 15 46  1  0
 16 47  1  0
 16 48  1  0
 17 49  1  0
 17 50  1  0
 18 51  1  0
 20 52  1  0
 21 53  1  0
 22 54  1  0
 28 55  1  0
 28 56  1  0
 29 57  1  0
 29 58  1  0
 31 59  1  0
 32 60  1  0
 33 61  1  0
 34 62  1  0
 36 63  1  0
 36 64  1  0
 37 65  1  0
M  CHG  1   3  -1
M  END
>  <UniqueID>  (31) 
31

>  <SMILES>  (31) 
O=C([N-]c1cccc(S(=O)(=O)N2CCCCC2)c1)c1cccc(S(=O)(=O)N2CCc3ccccc3C2)c1

>  <Energy>  (31) 
80.56869969163789

>  <Genealogy>  (31) 
O=C([N-]c1cccc(S(=O)(=O)N2CCCCC2)c1)c1cccc(S(=O)(=O)N2CCc3ccccc3C2)c1 (protonated)
O=C([N-]c1cccc(S(=O)(=O)N2CCCCC2)c1)c1cccc(S(=O)(=O)N2CCc3ccccc3C2)c1 (3D coordinates assigned)
O=C([N-]c1cccc(S(=O)(=O)N2CCCCC2)c1)c1cccc(S(=O)(=O)N2CCc3ccccc3C2)c1 (nonaromatic ring conformer: 80.56869969163789 kcal/mol)

>  <smiles>  (31) 
O=C(Nc1cccc(S(=O)(=O)N2CCCCC2)c1)c1cccc(S(=O)(=O)N2CCc3ccccc3C2)c1

>  <score_type>  (31) 
oracle

>  <origin>  (31) 
adgpu

>  <m_score__min__energy>  (31) 
-13.76

>  <m_primary>  (31) 
energy

$$$$
31:0
     RDKit          3D

 44 47  0  0  0  0  0  0  0  0999 V2000
   -0.8430   21.2740  -33.8610 C   0  0  0  0  0  0  0  0  0  0  0  0
   -2.0230   20.8940  -33.0580 C   0  0  0  0  0  0  0  0  0  0  0  0
   -2.1750   21.4000  -31.7880 C   0  0  0  0  0  0  0  0  0  0  0  0
   -3.2590   21.0830  -30.9840 C   0  0  0  0  0  0  0  0  0  0  0  0
   -4.2400   20.2170  -31.4710 C   0  0  0  0  0  0  0  0  0  0  0  0
   -4.0960   19.7070  -32.7360 C   0  0  0  0  0  0  0  0  0  0  0  0
   -5.3470   18.6190  -33.3210 S   0  0  0  0  0  0  0  0  0  0  0  0
   -4.8150   17.8760  -34.5090 O   0  0  0  0  0  0  0  0  0  0  0  0
   -5.6020   17.6390  -32.2250 O   0  0  0  0  0  0  0  0  0  0  0  0
   -6.7630   19.4720  -33.8100 N   0  0  0  0  0  0  0  0  0  0  0  0
   -7.3900   20.4490  -32.9750 C   0  0  0  0  0  0  0  0  0  0  0  0
   -8.6080   20.1090  -32.4380 C   0  0  0  0  0  0  0  0  0  0  0  0
   -9.2180   21.0420  -31.6350 C   0  0  0  0  0  0  0  0  0  0  0  0
   -8.6000   22.2640  -31.3970 C   0  0  0  0  0  0  0  0  0  0  0  0
   -7.3900   22.6280  -31.9170 C   0  0  0  0  0  0  0  0  0  0  0  0
   -6.5010   24.0960  -31.7180 S   0  0  0  0  0  0  0  0  0  0  0  0
   -5.2940   24.2210  -30.4680 C   0  0  0  0  0  0  0  0  0  0  0  0
   -3.9520   24.1860  -30.8040 N   0  0  0  0  0  0  0  0  0  0  0  0
   -3.2160   24.2950  -29.7200 C   0  0  0  0  0  0  0  0  0  0  0  0
   -1.8860   24.3110  -29.5600 N   0  0  0  0  0  0  0  0  0  0  0  0
   -1.3790   24.4370  -28.3020 C   0  0  0  0  0  0  0  0  0  0  0  0
   -2.1900   24.5440  -27.2360 N   0  0  0  0  0  0  0  0  0  0  0  0
   -3.5390   24.5310  -27.3620 C   0  0  0  0  0  0  0  0  0  0  0  0
   -4.3260   24.6330  -26.3470 N   0  0  0  0  0  0  0  0  0  0  0  0
   -4.0380   24.4040  -28.6420 C   0  0  0  0  0  0  0  0  0  0  0  0
   -5.3000   24.3520  -29.1540 N   0  0  0  0  0  0  0  0  0  0  0  0
   -6.7890   21.6410  -32.7430 C   0  0  0  0  0  0  0  0  0  0  0  0
   -3.0100   20.0290  -33.5340 C   0  0  0  0  0  0  0  0  0  0  0  0
   -0.0134   21.5412  -33.1899 H   0  0  0  0  0  0  0  0  0  0  0  0
   -0.5431   20.4270  -34.4956 H   0  0  0  0  0  0  0  0  0  0  0  0
   -1.0937   22.1368  -34.4956 H   0  0  0  0  0  0  0  0  0  0  0  0
   -1.4069   22.0824  -31.3952 H   0  0  0  0  0  0  0  0  0  0  0  0
   -3.3453   21.5090  -29.9735 H   0  0  0  0  0  0  0  0  0  0  0  0
   -5.1099   19.9494  -30.8532 H   0  0  0  0  0  0  0  0  0  0  0  0
   -7.2210   19.3110  -34.7360 H   0  0  0  0  0  0  0  0  0  0  0  0
   -9.0738   19.1336  -32.6418 H   0  0  0  0  0  0  0  0  0  0  0  0
  -10.1953   20.8220  -31.1805 H   0  0  0  0  0  0  0  0  0  0  0  0
   -9.1187   22.9849  -30.7479 H   0  0  0  0  0  0  0  0  0  0  0  0
   -1.2150   24.2290  -30.3760 H   0  0  0  0  0  0  0  0  0  0  0  0
   -0.2888   24.4514  -28.1565 H   0  0  0  0  0  0  0  0  0  0  0  0
   -5.3480   24.6320  -26.3550 H   0  0  0  0  0  0  0  0  0  0  0  0
   -6.1100   24.4150  -28.5320 H   0  0  0  0  0  0  0  0  0  0  0  0
   -5.8128   21.8493  -33.2052 H   0  0  0  0  0  0  0  0  0  0  0  0
   -2.9254   19.6023  -34.5443 H   0  0  0  0  0  0  0  0  0  0  0  0
  1  2  1  0
  2  3  2  0
  3  4  1  0
  4  5  2  0
  5  6  1  0
  6  7  1  0
  7  8  2  0
  7  9  2  0
  7 10  1  0
 10 11  1  0
 11 12  2  0
 12 13  1  0
 13 14  2  0
 14 15  1  0
 15 16  1  0
 16 17  1  0
 17 18  2  0
 18 19  1  0
 19 20  1  0
 20 21  1  0
 21 22  2  0
 22 23  1  0
 23 24  2  3
 23 25  1  0
 25 26  1  0
 15 27  2  0
  6 28  2  0
 28  2  1  0
 27 11  1  0
 26 17  1  0
 25 19  2  0
  1 29  1  0
  1 30  1  0
  1 31  1  0
  3 32  1  0
  4 33  1  0
  5 34  1  0
 10 35  1  0
 12 36  1  0
 13 37  1  0
 14 38  1  0
 20 39  1  0
 21 40  1  0
 24 41  1  0
 26 42  1  0
 27 43  1  0
 28 44  1  0
M  END
>  <smiles>  (32) 
Cc1cccc(S(=O)(=O)Nc2cccc(Sc3nc4[nH]cnc(=N)c4[nH]3)c2)c1

>  <score_type>  (32) 
oracle

>  <origin>  (32) 
adgpu

>  <m_score__min__energy>  (32) 
-10.199999999999999

>  <m_primary>  (32) 
energy

$$$$
32:0
     RDKit          3D

 46 48  0  0  0  0  0  0  0  0999 V2000
   -0.0290   26.9610  -22.9740 C   0  0  0  0  0  0  0  0  0  0  0  0
   -0.2520   27.5720  -24.2410 O   0  0  0  0  0  0  0  0  0  0  0  0
   -0.7230   26.8940  -25.3750 C   0  0  0  0  0  0  0  0  0  0  0  0
   -1.8090   26.0000  -25.3240 C   0  0  0  0  0  0  0  0  0  0  0  0
   -2.2370   25.3410  -26.4790 C   0  0  0  0  0  0  0  0  0  0  0  0
   -1.5740   25.5480  -27.7020 C   0  0  0  0  0  0  0  0  0  0  0  0
   -2.0010   24.8900  -28.9070 N   0  0  0  0  0  0  0  0  0  0  0  0
   -2.4500   23.5300  -28.9620 C   0  0  0  0  0  0  0  0  0  0  0  0
   -2.2460   22.7520  -27.9910 O   0  0  0  0  0  0  0  0  0  0  0  0
   -3.0510   23.0410  -30.1670 N   0  0  0  0  0  0  0  0  0  0  0  0
   -4.3900   23.3030  -30.6190 C   0  0  0  0  0  0  0  0  0  0  0  0
   -5.3300   22.2690  -30.7890 C   0  0  0  0  0  0  0  0  0  0  0  0
   -6.6350   22.5580  -31.2130 C   0  0  0  0  0  0  0  0  0  0  0  0
   -7.8100   21.2630  -31.4150 S   0  0  0  0  0  0  0  0  0  0  0  0
   -8.6550   21.1640  -30.1750 O   0  0  0  0  0  0  0  0  0  0  0  0
   -8.7080   21.5710  -32.5820 O   0  0  0  0  0  0  0  0  0  0  0  0
   -6.9700   19.7530  -31.6680 N   0  0  0  0  0  0  0  0  0  0  0  0
   -6.2790   19.7320  -32.9600 C   0  0  0  0  0  0  0  0  0  0  0  0
   -6.2850   18.2870  -33.4490 C   0  0  0  0  0  0  0  0  0  0  0  0
   -7.2310   17.5440  -32.5230 C   0  0  0  0  0  0  0  0  0  0  0  0
   -7.9050   18.6300  -31.7050 C   0  0  0  0  0  0  0  0  0  0  0  0
   -7.0110   23.8870  -31.4390 C   0  0  0  0  0  0  0  0  0  0  0  0
   -6.0900   24.9200  -31.2480 C   0  0  0  0  0  0  0  0  0  0  0  0
   -4.7860   24.6310  -30.8350 C   0  0  0  0  0  0  0  0  0  0  0  0
   -3.8810   25.6700  -30.6450 O   0  0  0  0  0  0  0  0  0  0  0  0
   -0.5100   26.4600  -27.7550 C   0  0  0  0  0  0  0  0  0  0  0  0
   -0.0860   27.1210  -26.5990 C   0  0  0  0  0  0  0  0  0  0  0  0
   -0.2879   27.6704  -22.1742 H   0  0  0  0  0  0  0  0  0  0  0  0
   -0.6571   26.0624  -22.8846 H   0  0  0  0  0  0  0  0  0  0  0  0
    1.0303   26.6783  -22.8846 H   0  0  0  0  0  0  0  0  0  0  0  0
   -2.3238   25.8192  -24.3689 H   0  0  0  0  0  0  0  0  0  0  0  0
   -3.0969   24.6567  -26.4317 H   0  0  0  0  0  0  0  0  0  0  0  0
   -1.9040   25.4020  -29.8140 H   0  0  0  0  0  0  0  0  0  0  0  0
   -5.0389   21.2275  -30.5879 H   0  0  0  0  0  0  0  0  0  0  0  0
   -6.8054   20.3760  -33.6798 H   0  0  0  0  0  0  0  0  0  0  0  0
   -5.2497   20.1068  -32.8594 H   0  0  0  0  0  0  0  0  0  0  0  0
   -6.6448   18.2349  -34.4872 H   0  0  0  0  0  0  0  0  0  0  0  0
   -5.2759   17.8494  -33.4349 H   0  0  0  0  0  0  0  0  0  0  0  0
   -7.9748   16.9772  -33.1023 H   0  0  0  0  0  0  0  0  0  0  0  0
   -6.7048   16.8139  -31.8905 H   0  0  0  0  0  0  0  0  0  0  0  0
   -8.8487   18.9352  -32.1806 H   0  0  0  0  0  0  0  0  0  0  0  0
   -8.1469   18.2765  -30.6918 H   0  0  0  0  0  0  0  0  0  0  0  0
   -8.0347   24.1189  -31.7680 H   0  0  0  0  0  0  0  0  0  0  0  0
   -6.3916   25.9633  -31.4230 H   0  0  0  0  0  0  0  0  0  0  0  0
   -0.0059   26.6564  -28.7127 H   0  0  0  0  0  0  0  0  0  0  0  0
    0.7565   27.8263  -26.6524 H   0  0  0  0  0  0  0  0  0  0  0  0
  1  2  1  0
  2  3  1  0
  3  4  2  0
  4  5  1  0
  5  6  2  0
  6  7  1  0
  7  8  1  0
  8  9  2  0
  8 10  1  0
 10 11  1  0
 11 12  2  0
 12 13  1  0
 13 14  1  0
 14 15  2  0
 14 16  2  0
 14 17  1  0
 17 18  1  0
 18 19  1  0
 19 20  1  0
 20 21  1  0
 13 22  2  0
 22 23  1  0
 23 24  2  0
 24 25  1  0
  6 26  1  0
 26 27  2  0
 27  3  1  0
 24 11  1  0
 21 17  1  0
  1 28  1  0
  1 29  1  0
  1 30  1  0
  4 31  1  0
  5 32  1  0
  7 33  1  0
 12 34  1  0
 18 35  1  0
 18 36  1  0
 19 37  1  0
 19 38  1  0
 20 39  1  0
 20 40  1  0
 21 41  1  0
 21 42  1  0
 22 43  1  0
 23 44  1  0
 26 45  1  0
 27 46  1  0
M  CHG  2  10  -1  25  -1
M  END
>  <UniqueID>  (33) 
32

>  <SMILES>  (33) 
COc1ccc(NC(=O)[N-]c2cc(S(=O)(=O)N3CCCC3)ccc2[O-])cc1

>  <Energy>  (33) 
53.82153852777429

>  <Genealogy>  (33) 
COc1ccc(NC(=O)[N-]c2cc(S(=O)(=O)N3CCCC3)ccc2[O-])cc1 (protonated)
COc1ccc(NC(=O)[N-]c2cc(S(=O)(=O)N3CCCC3)ccc2[O-])cc1 (3D coordinates assigned)
COc1ccc(NC(=O)[N-]c2cc(S(=O)(=O)N3CCCC3)ccc2[O-])cc1 (nonaromatic ring conformer: 53.82153852777429 kcal/mol)

>  <smiles>  (33) 
COc1ccc(NC(=O)Nc2cc(S(=O)(=O)N3CCCC3)ccc2O)cc1

>  <score_type>  (33) 
oracle

>  <origin>  (33) 
adgpu

>  <m_score__min__energy>  (33) 
-12.83

>  <m_primary>  (33) 
energy

$$$$
33:0
     RDKit          3D

 36 37  0  0  0  0  0  0  0  0999 V2000
   -0.0890   26.4090  -27.4790 C   0  0  0  0  0  0  0  0  0  0  0  0
   -0.9090   25.3370  -28.1230 C   0  0  0  0  0  0  0  0  0  0  0  0
   -0.5590   23.9920  -27.9730 C   0  0  0  0  0  0  0  0  0  0  0  0
   -1.3430   23.0270  -28.6060 C   0  0  0  0  0  0  0  0  0  0  0  0
   -1.0560   21.8060  -28.4960 O   0  0  0  0  0  0  0  0  0  0  0  0
   -2.4170   23.4060  -29.3450 N   0  0  0  0  0  0  0  0  0  0  0  0
   -2.7540   24.7200  -29.4770 C   0  0  0  0  0  0  0  0  0  0  0  0
   -3.7690   25.0870  -30.2040 N   0  0  0  0  0  0  0  0  0  0  0  0
   -4.7100   24.2280  -30.8710 C   0  0  0  0  0  0  0  0  0  0  0  0
   -6.0660   24.5800  -30.8600 C   0  0  0  0  0  0  0  0  0  0  0  0
   -7.0150   23.7540  -31.4650 C   0  0  0  0  0  0  0  0  0  0  0  0
   -6.6210   22.5590  -32.0710 C   0  0  0  0  0  0  0  0  0  0  0  0
   -5.2730   22.1810  -32.0680 C   0  0  0  0  0  0  0  0  0  0  0  0
   -4.7920   20.6470  -32.7920 S   0  0  0  0  0  0  0  0  0  0  0  0
   -5.7870   20.2490  -33.8480 O   0  0  0  0  0  0  0  0  0  0  0  0
   -4.7850   19.5910  -31.7220 O   0  0  0  0  0  0  0  0  0  0  0  0
   -3.2000   20.7910  -33.4910 N   0  0  0  0  0  0  0  0  0  0  0  0
   -2.2230   21.1270  -32.4440 C   0  0  0  0  0  0  0  0  0  0  0  0
   -2.8260   19.5360  -34.1600 C   0  0  0  0  0  0  0  0  0  0  0  0
   -4.3220   23.0070  -31.4550 C   0  0  0  0  0  0  0  0  0  0  0  0
   -1.9920   25.6710  -28.8750 N   0  0  0  0  0  0  0  0  0  0  0  0
   -0.1593   26.3171  -26.3851 H   0  0  0  0  0  0  0  0  0  0  0  0
    0.9611   26.3035  -27.7891 H   0  0  0  0  0  0  0  0  0  0  0  0
   -0.4656   27.3949  -27.7891 H   0  0  0  0  0  0  0  0  0  0  0  0
    0.3139   23.7013  -27.3701 H   0  0  0  0  0  0  0  0  0  0  0  0
   -6.3848   25.5127  -30.3718 H   0  0  0  0  0  0  0  0  0  0  0  0
   -8.0758   24.0451  -31.4644 H   0  0  0  0  0  0  0  0  0  0  0  0
   -7.3711   21.9137  -32.5515 H   0  0  0  0  0  0  0  0  0  0  0  0
   -3.2160   21.5610  -34.1980 H   0  0  0  0  0  0  0  0  0  0  0  0
   -2.6775   20.9707  -31.4546 H   0  0  0  0  0  0  0  0  0  0  0  0
   -1.3383   20.4815  -32.5472 H   0  0  0  0  0  0  0  0  0  0  0  0
   -1.9225   22.1801  -32.5472 H   0  0  0  0  0  0  0  0  0  0  0  0
   -2.5980   18.7709  -33.4033 H   0  0  0  0  0  0  0  0  0  0  0  0
   -3.6609   19.1926  -34.7886 H   0  0  0  0  0  0  0  0  0  0  0  0
   -1.9394   19.7057  -34.7886 H   0  0  0  0  0  0  0  0  0  0  0  0
   -3.2660   22.6999  -31.4298 H   0  0  0  0  0  0  0  0  0  0  0  0
  1  2  1  0
  2  3  2  0
  3  4  1  0
  4  5  2  0
  4  6  1  0
  6  7  1  0
  7  8  2  3
  8  9  1  0
  9 10  2  0
 10 11  1  0
 11 12  2  0
 12 13  1  0
 13 14  1  0
 14 15  2  0
 14 16  2  0
 14 17  1  0
 17 18  1  0
 17 19  1  0
 13 20  2  0
  7 21  1  0
 21  2  1  0
 20  9  1  0
  1 22  1  0
  1 23  1  0
  1 24  1  0
  3 25  1  0
 10 26  1  0
 11 27  1  0
 12 28  1  0
 17 29  1  0
 18 30  1  0
 18 31  1  0
 18 32  1  0
 19 33  1  0
 19 34  1  0
 19 35  1  0
 20 36  1  0
M  CHG  3   6  -1  17   1  21  -1
M  END
>  <UniqueID>  (34) 
33

>  <SMILES>  (34) 
Cc1cc(=O)[n-]c(=Nc2cccc(S(=O)(=O)[NH+](C)C)c2)[n-]1

>  <Energy>  (34) 
39.313189483840965

>  <Genealogy>  (34) 
Cc1cc(=O)[n-]c(=Nc2cccc(S(=O)(=O)[NH+](C)C)c2)[n-]1 (protonated)
Cc1cc(=O)[n-]c(=Nc2cccc(S(=O)(=O)[NH+](C)C)c2)[n-]1 (3D coordinates assigned)
Cc1cc(=O)[n-]c(=Nc2cccc(S(=O)(=O)[NH+](C)C)c2)[n-]1 (optimized conformer: 39.313189483840965 kcal/mol)

>  <smiles>  (34) 
Cc1cc(=O)[nH]c(=Nc2cccc(S(=O)(=O)N(C)C)c2)[nH]1

>  <score_type>  (34) 
oracle

>  <origin>  (34) 
adgpu

>  <m_score__min__energy>  (34) 
-9.5500000000000007

>  <m_primary>  (34) 
energy

$$$$
34:0
     RDKit          3D

 56 59  0  0  0  0  0  0  0  0999 V2000
   -2.6650   22.0320  -32.3380 O   0  0  0  0  0  0  0  0  0  0  0  0
   -2.8310   22.6260  -31.2380 C   0  0  0  0  0  0  0  0  0  0  0  0
   -1.7400   22.7080  -30.3150 N   0  0  0  0  0  0  0  0  0  0  0  0
   -1.5780   21.8350  -29.1900 C   0  0  0  0  0  0  0  0  0  0  0  0
   -1.1470   20.5220  -29.4190 C   0  0  0  0  0  0  0  0  0  0  0  0
   -0.9370   19.6500  -28.3490 C   0  0  0  0  0  0  0  0  0  0  0  0
   -1.1700   20.0790  -27.0410 C   0  0  0  0  0  0  0  0  0  0  0  0
   -1.6320   21.3750  -26.8020 C   0  0  0  0  0  0  0  0  0  0  0  0
   -1.8540   22.2610  -27.8680 C   0  0  0  0  0  0  0  0  0  0  0  0
   -2.4450   23.5460  -27.6000 N   0  0  0  0  0  0  0  0  0  0  0  0
   -1.6080   24.7510  -27.5630 C   0  0  0  0  0  0  0  0  0  0  0  0
   -1.9700   25.6570  -26.3610 C   0  0  0  0  0  0  0  0  0  0  0  0
   -3.1590   25.2790  -25.6840 O   0  0  0  0  0  0  0  0  0  0  0  0
   -4.1780   24.9750  -26.6110 C   0  0  0  0  0  0  0  0  0  0  0  0
   -3.8710   23.6310  -27.2670 C   0  0  0  0  0  0  0  0  0  0  0  0
   -4.1540   23.2220  -30.9120 C   0  0  0  0  0  0  0  0  0  0  0  0
   -5.3250   22.4830  -31.1720 C   0  0  0  0  0  0  0  0  0  0  0  0
   -6.5900   23.0160  -30.8910 C   0  0  0  0  0  0  0  0  0  0  0  0
   -8.0470   22.0720  -31.2150 S   0  0  0  0  0  0  0  0  0  0  0  0
   -8.8960   22.0350  -29.9750 O   0  0  0  0  0  0  0  0  0  0  0  0
   -8.8420   22.7400  -32.3020 O   0  0  0  0  0  0  0  0  0  0  0  0
   -7.6610   20.4380  -31.6960 N   0  0  0  0  0  0  0  0  0  0  0  0
   -7.1500   20.4190  -33.0770 C   0  0  0  0  0  0  0  0  0  0  0  0
   -6.5790   19.0300  -33.4170 C   0  0  0  0  0  0  0  0  0  0  0  0
   -7.1780   17.9170  -32.5420 C   0  0  0  0  0  0  0  0  0  0  0  0
   -8.6520   18.1930  -32.2330 C   0  0  0  0  0  0  0  0  0  0  0  0
   -8.8500   19.5710  -31.5620 C   0  0  0  0  0  0  0  0  0  0  0  0
   -6.6940   24.3010  -30.3490 C   0  0  0  0  0  0  0  0  0  0  0  0
   -5.5450   25.0460  -30.0880 C   0  0  0  0  0  0  0  0  0  0  0  0
   -4.2800   24.5190  -30.3630 C   0  0  0  0  0  0  0  0  0  0  0  0
   -3.1620   25.2970  -30.0790 O   0  0  0  0  0  0  0  0  0  0  0  0
   -0.9729   20.1757  -30.4484 H   0  0  0  0  0  0  0  0  0  0  0  0
   -0.5876   18.6240  -28.5367 H   0  0  0  0  0  0  0  0  0  0  0  0
   -0.9895   19.3957  -26.1981 H   0  0  0  0  0  0  0  0  0  0  0  0
   -1.8235   21.7043  -25.7701 H   0  0  0  0  0  0  0  0  0  0  0  0
   -0.5530   24.4509  -27.4794 H   0  0  0  0  0  0  0  0  0  0  0  0
   -1.7813   25.3199  -28.4883 H   0  0  0  0  0  0  0  0  0  0  0  0
   -1.1384   25.6243  -25.6417 H   0  0  0  0  0  0  0  0  0  0  0  0
   -2.1441   26.6647  -26.7662 H   0  0  0  0  0  0  0  0  0  0  0  0
   -5.1451   24.9184  -26.0900 H   0  0  0  0  0  0  0  0  0  0  0  0
   -4.2265   25.7604  -27.3797 H   0  0  0  0  0  0  0  0  0  0  0  0
   -4.1312   22.8191  -26.5719 H   0  0  0  0  0  0  0  0  0  0  0  0
   -4.4622   23.5378  -28.1900 H   0  0  0  0  0  0  0  0  0  0  0  0
   -5.2451   21.4735  -31.6016 H   0  0  0  0  0  0  0  0  0  0  0  0
   -7.9708   20.6536  -33.7708 H   0  0  0  0  0  0  0  0  0  0  0  0
   -6.3498   21.1677  -33.1726 H   0  0  0  0  0  0  0  0  0  0  0  0
   -6.7989   18.8066  -34.4714 H   0  0  0  0  0  0  0  0  0  0  0  0
   -5.4959   19.0582  -33.2269 H   0  0  0  0  0  0  0  0  0  0  0  0
   -7.0958   16.9579  -33.0743 H   0  0  0  0  0  0  0  0  0  0  0  0
   -6.6226   17.8809  -31.5932 H   0  0  0  0  0  0  0  0  0  0  0  0
   -9.2232   18.1693  -33.1728 H   0  0  0  0  0  0  0  0  0  0  0  0
   -9.0056   17.4194  -31.5355 H   0  0  0  0  0  0  0  0  0  0  0  0
   -9.7083   20.0731  -32.0324 H   0  0  0  0  0  0  0  0  0  0  0  0
   -9.0218   19.4003  -30.4890 H   0  0  0  0  0  0  0  0  0  0  0  0
   -7.6847   24.7248  -30.1281 H   0  0  0  0  0  0  0  0  0  0  0  0
   -5.6346   26.0563  -29.6624 H   0  0  0  0  0  0  0  0  0  0  0  0
  1  2  2  0
  2  3  1  0
  3  4  1  0
  4  5  2  0
  5  6  1  0
  6  7  2  0
  7  8  1  0
  8  9  2  0
  9 10  1  0
 10 11  1  0
 11 12  1  0
 12 13  1  0
 13 14  1  0
 14 15  1  0
  2 16  1  0
 16 17  2  0
 17 18  1  0
 18 19  1  0
 19 20  2  0
 19 21  2  0
 19 22  1  0
 22 23  1  0
 23 24  1  0
 24 25  1  0
 25 26  1  0
 26 27  1  0
 18 28  2  0
 28 29  1  0
 29 30  2  0
 30 31  1  0
  9  4  1  0
 15 10  1  0
 30 16  1  0
 27 22  1  0
  5 32  1  0
  6 33  1  0
  7 34  1  0
  8 35  1  0
 11 36  1  0
 11 37  1  0
 12 38  1  0
 12 39  1  0
 14 40  1  0
 14 41  1  0
 15 42  1  0
 15 43  1  0
 17 44  1  0
 23 45  1  0
 23 46  1  0
 24 47  1  0
 24 48  1  0
 25 49  1  0
 25 50  1  0
 26 51  1  0
 26 52  1  0
 27 53  1  0
 27 54  1  0
 28 55  1  0
 29 56  1  0
M  CHG  2   3  -1  31  -1
M  END
>  <UniqueID>  (35) 
34

>  <SMILES>  (35) 
O=C([N-]c1ccccc1N1CCOCC1)c1cc(S(=O)(=O)N2CCCCC2)ccc1[O-]

>  <Energy>  (35) 
80.21352998953822

>  <Genealogy>  (35) 
O=C([N-]c1ccccc1N1CCOCC1)c1cc(S(=O)(=O)N2CCCCC2)ccc1[O-] (protonated)
O=C([N-]c1ccccc1N1CCOCC1)c1cc(S(=O)(=O)N2CCCCC2)ccc1[O-] (3D coordinates assigned)
O=C([N-]c1ccccc1N1CCOCC1)c1cc(S(=O)(=O)N2CCCCC2)ccc1[O-] (nonaromatic ring conformer: 80.21352998953822 kcal/mol)

>  <smiles>  (35) 
O=C(Nc1ccccc1N1CCOCC1)c1cc(S(=O)(=O)N2CCCCC2)ccc1O

>  <score_type>  (35) 
oracle

>  <origin>  (35) 
adgpu

>  <m_score__min__energy>  (35) 
-13.609999999999999

>  <m_primary>  (35) 
energy

$$$$
35:0
     RDKit          3D

 44 45  0  0  0  0  0  0  0  0999 V2000
   -5.5660   17.4480  -34.0980 C   0  0  0  0  0  0  0  0  0  0  0  0
   -5.8740   18.7370  -33.3830 C   0  0  0  0  0  0  0  0  0  0  0  0
   -4.9990   19.8270  -33.5210 C   0  0  0  0  0  0  0  0  0  0  0  0
   -5.2550   21.0320  -32.8650 C   0  0  0  0  0  0  0  0  0  0  0  0
   -6.3930   21.1750  -32.0620 C   0  0  0  0  0  0  0  0  0  0  0  0
   -6.6460   22.4100  -31.3600 N   0  0  0  0  0  0  0  0  0  0  0  0
   -7.9900   22.6950  -30.8480 C   0  0  0  0  0  0  0  0  0  0  0  0
   -5.6080   23.4030  -31.2190 C   0  0  0  0  0  0  0  0  0  0  0  0
   -5.6840   24.4820  -31.8690 O   0  0  0  0  0  0  0  0  0  0  0  0
   -4.4830   23.1640  -30.3540 N   0  0  0  0  0  0  0  0  0  0  0  0
   -3.5910   24.1950  -29.9020 C   0  0  0  0  0  0  0  0  0  0  0  0
   -3.5160   25.2860  -30.5310 O   0  0  0  0  0  0  0  0  0  0  0  0
   -2.7430   23.9870  -28.7040 C   0  0  0  0  0  0  0  0  0  0  0  0
   -1.5900   23.1810  -28.7650 C   0  0  0  0  0  0  0  0  0  0  0  0
   -0.8030   22.9840  -27.6270 C   0  0  0  0  0  0  0  0  0  0  0  0
   -1.1580   23.5780  -26.4100 C   0  0  0  0  0  0  0  0  0  0  0  0
   -0.1520   23.3350  -24.9860 S   0  0  0  0  0  0  0  0  0  0  0  0
   -0.4330   24.6160  -23.8590 N   0  0  0  0  0  0  0  0  0  0  0  0
    1.2970   23.3200  -25.3860 O   0  0  0  0  0  0  0  0  0  0  0  0
   -0.4880   22.0200  -24.3400 O   0  0  0  0  0  0  0  0  0  0  0  0
   -2.3040   24.3790  -26.3410 C   0  0  0  0  0  0  0  0  0  0  0  0
   -3.0950   24.5770  -27.4770 C   0  0  0  0  0  0  0  0  0  0  0  0
   -7.2840   20.0970  -31.9370 C   0  0  0  0  0  0  0  0  0  0  0  0
   -7.0360   18.8760  -32.5870 C   0  0  0  0  0  0  0  0  0  0  0  0
   -7.9970   17.7320  -32.3980 C   0  0  0  0  0  0  0  0  0  0  0  0
   -5.3766   16.6552  -33.3594 H   0  0  0  0  0  0  0  0  0  0  0  0
   -6.4218   17.1649  -34.7285 H   0  0  0  0  0  0  0  0  0  0  0  0
   -4.6747   17.5823  -34.7285 H   0  0  0  0  0  0  0  0  0  0  0  0
   -4.1033   19.7300  -34.1522 H   0  0  0  0  0  0  0  0  0  0  0  0
   -4.5579   21.8752  -32.9796 H   0  0  0  0  0  0  0  0  0  0  0  0
   -7.9718   22.6911  -29.7482 H   0  0  0  0  0  0  0  0  0  0  0  0
   -8.3169   23.6824  -31.2059 H   0  0  0  0  0  0  0  0  0  0  0  0
   -8.6896   21.9252  -31.2059 H   0  0  0  0  0  0  0  0  0  0  0  0
   -4.3100   22.1860  -30.0310 H   0  0  0  0  0  0  0  0  0  0  0  0
   -1.3069   22.7033  -29.7145 H   0  0  0  0  0  0  0  0  0  0  0  0
    0.1001   22.3589  -27.6879 H   0  0  0  0  0  0  0  0  0  0  0  0
    0.5010   25.0180  -23.6160 H   0  0  0  0  0  0  0  0  0  0  0  0
   -0.8090   24.1800  -22.9880 H   0  0  0  0  0  0  0  0  0  0  0  0
   -2.5834   24.8546  -25.3893 H   0  0  0  0  0  0  0  0  0  0  0  0
   -3.9997   25.1992  -27.4103 H   0  0  0  0  0  0  0  0  0  0  0  0
   -8.1888   20.2098  -31.3217 H   0  0  0  0  0  0  0  0  0  0  0  0
   -8.1473   17.5531  -31.3231 H   0  0  0  0  0  0  0  0  0  0  0  0
   -8.9605   17.9813  -32.8664 H   0  0  0  0  0  0  0  0  0  0  0  0
   -7.5851   16.8259  -32.8664 H   0  0  0  0  0  0  0  0  0  0  0  0
  1  2  1  0
  2  3  2  0
  3  4  1  0
  4  5  2  0
  5  6  1  0
  6  7  1  0
  6  8  1  0
  8  9  2  0
  8 10  1  0
 10 11  1  0
 11 12  2  0
 11 13  1  0
 13 14  2  0
 14 15  1  0
 15 16  2  0
 16 17  1  0
 17 18  1  0
 17 19  2  0
 17 20  2  0
 16 21  1  0
 21 22  2  0
  5 23  1  0
 23 24  2  0
 24 25  1  0
 24  2  1  0
 22 13  1  0
  1 26  1  0
  1 27  1  0
  1 28  1  0
  3 29  1  0
  4 30  1  0
  7 31  1  0
  7 32  1  0
  7 33  1  0
 10 34  1  0
 14 35  1  0
 15 36  1  0
 18 37  1  0
 18 38  1  0
 21 39  1  0
 22 40  1  0
 23 41  1  0
 25 42  1  0
 25 43  1  0
 25 44  1  0
M  END
>  <UniqueID>  (36) 
35

>  <SMILES>  (36) 
Cc1ccc(N(C)C(=O)NC(=O)c2ccc(S(N)(=O)=O)cc2)cc1C

>  <Energy>  (36) 
50.56644149066917

>  <Genealogy>  (36) 
Cc1ccc(N(C)C(=O)NC(=O)c2ccc(S(N)(=O)=O)cc2)cc1C (3D coordinates assigned)
Cc1ccc(N(C)C(=O)NC(=O)c2ccc(S(N)(=O)=O)cc2)cc1C (optimized conformer: 50.56644149066917 kcal/mol)

>  <smiles>  (36) 
Cc1ccc(N(C)C(=O)NC(=O)c2ccc(S(N)(=O)=O)cc2)cc1C

>  <score_type>  (36) 
oracle

>  <origin>  (36) 
adgpu

>  <m_score__min__energy>  (36) 
-9.8300000000000001

>  <m_primary>  (36) 
energy

$$$$
36:0
     RDKit          3D

 45 47  0  0  0  0  0  0  0  0999 V2000
   -1.2370   26.1730  -28.9550 N   0  0  0  0  0  0  0  0  0  0  0  0
   -1.4600   25.2030  -27.5410 S   0  0  0  0  0  0  0  0  0  0  0  0
   -2.9300   25.0140  -27.2870 O   0  0  0  0  0  0  0  0  0  0  0  0
   -0.8540   25.9050  -26.3570 O   0  0  0  0  0  0  0  0  0  0  0  0
   -0.6900   23.6300  -27.7820 C   0  0  0  0  0  0  0  0  0  0  0  0
    0.2490   23.1660  -26.8480 C   0  0  0  0  0  0  0  0  0  0  0  0
    0.8740   21.9310  -27.0250 C   0  0  0  0  0  0  0  0  0  0  0  0
    0.5650   21.1460  -28.1350 C   0  0  0  0  0  0  0  0  0  0  0  0
   -0.3630   21.5970  -29.0770 C   0  0  0  0  0  0  0  0  0  0  0  0
   -0.9920   22.8460  -28.9150 C   0  0  0  0  0  0  0  0  0  0  0  0
   -1.9290   23.3430  -29.8820 N   0  0  0  0  0  0  0  0  0  0  0  0
   -2.9460   22.3730  -30.8960 S   0  0  0  0  0  0  0  0  0  0  0  0
   -2.3520   22.3010  -32.2750 O   0  0  0  0  0  0  0  0  0  0  0  0
   -3.0730   20.9850  -30.3290 O   0  0  0  0  0  0  0  0  0  0  0  0
   -4.5430   23.1170  -30.9620 C   0  0  0  0  0  0  0  0  0  0  0  0
   -5.6770   22.3360  -31.2320 C   0  0  0  0  0  0  0  0  0  0  0  0
   -6.9440   22.9280  -31.3020 C   0  0  0  0  0  0  0  0  0  0  0  0
   -8.3560   21.9290  -31.6350 S   0  0  0  0  0  0  0  0  0  0  0  0
   -9.4870   22.8180  -32.0690 O   0  0  0  0  0  0  0  0  0  0  0  0
   -8.7760   21.1680  -30.4090 O   0  0  0  0  0  0  0  0  0  0  0  0
   -7.9970   20.8060  -32.9060 N   0  0  0  0  0  0  0  0  0  0  0  0
   -7.0940   19.6950  -32.8020 C   0  0  0  0  0  0  0  0  0  0  0  0
   -5.8550   19.6860  -33.4700 C   0  0  0  0  0  0  0  0  0  0  0  0
   -4.9980   18.5900  -33.3560 C   0  0  0  0  0  0  0  0  0  0  0  0
   -5.3630   17.4930  -32.5740 C   0  0  0  0  0  0  0  0  0  0  0  0
   -6.5860   17.4930  -31.9010 C   0  0  0  0  0  0  0  0  0  0  0  0
   -7.4540   18.5850  -32.0090 C   0  0  0  0  0  0  0  0  0  0  0  0
   -8.6680   18.5460  -31.3230 O   0  0  0  0  0  0  0  0  0  0  0  0
   -7.0780   24.3070  -31.1030 C   0  0  0  0  0  0  0  0  0  0  0  0
   -5.9530   25.0890  -30.8310 C   0  0  0  0  0  0  0  0  0  0  0  0
   -4.6870   24.5010  -30.7610 C   0  0  0  0  0  0  0  0  0  0  0  0
   -3.5800   25.2970  -30.4920 O   0  0  0  0  0  0  0  0  0  0  0  0
   -1.6090   25.6210  -29.7610 H   0  0  0  0  0  0  0  0  0  0  0  0
    0.4943   23.7807  -25.9694 H   0  0  0  0  0  0  0  0  0  0  0  0
    1.6105   21.5768  -26.2887 H   0  0  0  0  0  0  0  0  0  0  0  0
    1.0530   20.1694  -28.2694 H   0  0  0  0  0  0  0  0  0  0  0  0
   -0.6035   20.9727  -29.9501 H   0  0  0  0  0  0  0  0  0  0  0  0
   -5.5701   21.2526  -31.3896 H   0  0  0  0  0  0  0  0  0  0  0  0
   -5.5601   20.5484  -34.0860 H   0  0  0  0  0  0  0  0  0  0  0  0
   -4.0328   18.5909  -33.8837 H   0  0  0  0  0  0  0  0  0  0  0  0
   -4.6875   16.6291  -32.4881 H   0  0  0  0  0  0  0  0  0  0  0  0
   -6.8691   16.6290  -31.2818 H   0  0  0  0  0  0  0  0  0  0  0  0
   -9.2690   19.3570  -31.2400 H   0  0  0  0  0  0  0  0  0  0  0  0
   -8.0714   24.7759  -31.1609 H   0  0  0  0  0  0  0  0  0  0  0  0
   -6.0639   26.1717  -30.6713 H   0  0  0  0  0  0  0  0  0  0  0  0
  1  2  1  0
  2  3  2  0
  2  4  2  0
  2  5  1  0
  5  6  2  0
  6  7  1  0
  7  8  2  0
  8  9  1  0
  9 10  2  0
 10 11  1  0
 11 12  1  0
 12 13  2  0
 12 14  2  0
 12 15  1  0
 15 16  2  0
 16 17  1  0
 17 18  1  0
 18 19  2  0
 18 20  2  0
 18 21  1  0
 21 22  1  0
 22 23  2  0
 23 24  1  0
 24 25  2  0
 25 26  1  0
 26 27  2  0
 27 28  1  0
 17 29  2  0
 29 30  1  0
 30 31  2  0
 31 32  1  0
 10  5  1  0
 31 15  1  0
 27 22  1  0
  1 33  1  0
  6 34  1  0
  7 35  1  0
  8 36  1  0
  9 37  1  0
 16 38  1  0
 23 39  1  0
 24 40  1  0
 25 41  1  0
 26 42  1  0
 28 43  1  0
 29 44  1  0
 30 45  1  0
M  CHG  4   1  -1  11  -1  21  -1  32  -1
M  END
>  <UniqueID>  (37) 
36

>  <SMILES>  (37) 
[NH-]S(=O)(=O)c1ccccc1[N-]S(=O)(=O)c1cc(S(=O)(=O)[N-]c2ccccc2O)ccc1[O-]

>  <Energy>  (37) 
56.4440900592224

>  <Genealogy>  (37) 
[NH-]S(=O)(=O)c1ccccc1[N-]S(=O)(=O)c1cc(S(=O)(=O)[N-]c2ccccc2O)ccc1[O-] (protonated)
[NH-]S(=O)(=O)c1ccccc1[N-]S(=O)(=O)c1cc(S(=O)(=O)[N-]c2ccccc2O)ccc1[O-] (3D coordinates assigned)
[NH-]S(=O)(=O)c1ccccc1[N-]S(=O)(=O)c1cc(S(=O)(=O)[N-]c2ccccc2O)ccc1[O-] (optimized conformer: 56.4440900592224 kcal/mol)

>  <smiles>  (37) 
NS(=O)(=O)c1ccccc1NS(=O)(=O)c1cc(S(=O)(=O)Nc2ccccc2O)ccc1O

>  <score_type>  (37) 
oracle

>  <origin>  (37) 
adgpu

>  <m_score__min__energy>  (37) 
-14.76

>  <m_primary>  (37) 
energy

$$$$
37:0
     RDKit          3D

 55 58  0  0  0  0  0  0  0  0999 V2000
   -0.9980   21.1650  -33.2330 C   0  0  0  0  0  0  0  0  0  0  0  0
   -0.9470   21.5540  -31.7540 C   0  0  0  0  0  0  0  0  0  0  0  0
   -0.5350   20.3250  -30.9750 C   0  0  0  0  0  0  0  0  0  0  0  0
   -2.2090   22.0560  -31.3010 N   0  0  0  0  0  0  0  0  0  0  0  0
   -3.3930   21.7550  -31.7690 N   0  0  0  0  0  0  0  0  0  0  0  0
   -4.3540   22.4240  -31.0940 C   0  0  0  0  0  0  0  0  0  0  0  0
   -5.7600   22.2670  -31.4140 C   0  0  0  0  0  0  0  0  0  0  0  0
   -6.5240   23.4430  -31.3830 C   0  0  0  0  0  0  0  0  0  0  0  0
   -7.8810   23.4140  -31.6210 C   0  0  0  0  0  0  0  0  0  0  0  0
   -8.4710   22.1760  -31.8930 C   0  0  0  0  0  0  0  0  0  0  0  0
   -9.8270   22.1920  -32.1280 O   0  0  0  0  0  0  0  0  0  0  0  0
   -7.7790   21.0070  -31.9330 C   0  0  0  0  0  0  0  0  0  0  0  0
   -8.4150   19.4240  -32.2220 S   0  0  0  0  0  0  0  0  0  0  0  0
   -8.7400   18.7900  -30.8570 O   0  0  0  0  0  0  0  0  0  0  0  0
   -9.7810   19.5190  -32.9010 O   0  0  0  0  0  0  0  0  0  0  0  0
   -7.4860   18.3680  -33.1660 N   0  0  0  0  0  0  0  0  0  0  0  0
   -7.1220   17.1820  -32.5370 C   0  0  0  0  0  0  0  0  0  0  0  0
   -5.7190   17.1290  -31.9680 C   0  0  0  0  0  0  0  0  0  0  0  0
   -4.8640   17.3130  -33.1580 N   0  0  0  0  0  0  0  0  0  0  0  0
   -5.1060   16.3030  -34.1530 C   0  0  0  0  0  0  0  0  0  0  0  0
   -5.0750   18.6390  -33.6300 C   0  0  0  0  0  0  0  0  0  0  0  0
   -6.4690   19.0610  -33.8880 C   0  0  0  0  0  0  0  0  0  0  0  0
   -6.4010   21.0950  -31.6850 C   0  0  0  0  0  0  0  0  0  0  0  0
   -3.7110   23.1800  -30.1520 C   0  0  0  0  0  0  0  0  0  0  0  0
   -4.1760   24.0360  -29.1940 C   0  0  0  0  0  0  0  0  0  0  0  0
   -5.3630   24.3220  -28.9260 N   0  0  0  0  0  0  0  0  0  0  0  0
   -3.2160   24.6240  -28.4090 N   0  0  0  0  0  0  0  0  0  0  0  0
   -1.9140   24.3880  -28.5560 C   0  0  0  0  0  0  0  0  0  0  0  0
   -1.4880   23.5370  -29.5070 N   0  0  0  0  0  0  0  0  0  0  0  0
   -2.3630   22.9330  -30.3010 C   0  0  0  0  0  0  0  0  0  0  0  0
   -1.1405   20.0779  -33.3215 H   0  0  0  0  0  0  0  0  0  0  0  0
   -1.8356   21.6855  -33.7204 H   0  0  0  0  0  0  0  0  0  0  0  0
   -0.0545   21.4520  -33.7204 H   0  0  0  0  0  0  0  0  0  0  0  0
   -0.2197   22.3650  -31.6011 H   0  0  0  0  0  0  0  0  0  0  0  0
   -0.6049   20.5335  -29.8972 H   0  0  0  0  0  0  0  0  0  0  0  0
   -1.2018   19.4883  -31.2306 H   0  0  0  0  0  0  0  0  0  0  0  0
    0.5014   20.0592  -31.2306 H   0  0  0  0  0  0  0  0  0  0  0  0
   -6.0325   24.4028  -31.1654 H   0  0  0  0  0  0  0  0  0  0  0  0
   -8.4810   24.3357  -31.5977 H   0  0  0  0  0  0  0  0  0  0  0  0
  -10.3390   21.3160  -32.2650 H   0  0  0  0  0  0  0  0  0  0  0  0
   -7.8263   17.0113  -31.7094 H   0  0  0  0  0  0  0  0  0  0  0  0
   -7.1501   16.4121  -33.3222 H   0  0  0  0  0  0  0  0  0  0  0  0
   -5.5586   17.9366  -31.2386 H   0  0  0  0  0  0  0  0  0  0  0  0
   -5.5086   16.1950  -31.4264 H   0  0  0  0  0  0  0  0  0  0  0  0
   -5.3349   15.3478  -33.6578 H   0  0  0  0  0  0  0  0  0  0  0  0
   -5.9575   16.6036  -34.7811 H   0  0  0  0  0  0  0  0  0  0  0  0
   -4.2107   16.1851  -34.7811 H   0  0  0  0  0  0  0  0  0  0  0  0
   -4.6570   19.3258  -32.8793 H   0  0  0  0  0  0  0  0  0  0  0  0
   -4.5886   18.6648  -34.6163 H   0  0  0  0  0  0  0  0  0  0  0  0
   -6.5476   20.1287  -33.6352 H   0  0  0  0  0  0  0  0  0  0  0  0
   -6.6531   18.8287  -34.9473 H   0  0  0  0  0  0  0  0  0  0  0  0
   -5.8067   20.1697  -31.7106 H   0  0  0  0  0  0  0  0  0  0  0  0
   -6.2910   24.1340  -29.1860 H   0  0  0  0  0  0  0  0  0  0  0  0
   -3.4960   25.2970  -27.6530 H   0  0  0  0  0  0  0  0  0  0  0  0
   -1.1867   24.8887  -27.9000 H   0  0  0  0  0  0  0  0  0  0  0  0
  1  2  1  0
  2  3  1  0
  2  4  1  0
  4  5  1  0
  5  6  2  0
  6  7  1  0
  7  8  2  0
  8  9  1  0
  9 10  2  0
 10 11  1  0
 10 12  1  0
 12 13  1  0
 13 14  2  0
 13 15  2  0
 13 16  1  0
 16 17  1  0
 17 18  1  0
 18 19  1  0
 19 20  1  0
 19 21  1  0
 21 22  1  0
 12 23  2  0
  6 24  1  0
 24 25  1  0
 25 26  2  3
 25 27  1  0
 27 28  1  0
 28 29  2  0
 29 30  1  0
 30  4  1  0
 23  7  1  0
 30 24  2  0
 22 16  1  0
  1 31  1  0
  1 32  1  0
  1 33  1  0
  2 34  1  0
  3 35  1  0
  3 36  1  0
  3 37  1  0
  8 38  1  0
  9 39  1  0
 11 40  1  0
 17 41  1  0
 17 42  1  0
 18 43  1  0
 18 44  1  0
 20 45  1  0
 20 46  1  0
 20 47  1  0
 21 48  1  0
 21 49  1  0
 22 50  1  0
 22 51  1  0
 23 52  1  0
 26 53  1  0
 27 54  1  0
 28 55  1  0
M  END
>  <smiles>  (38) 
CC(C)n1nc(-c2ccc(O)c(S(=O)(=O)N3CCN(C)CC3)c2)c2c(=N)[nH]cnc21

>  <score_type>  (38) 
oracle

>  <origin>  (38) 
adgpu

>  <m_score__min__energy>  (38) 
-9.8300000000000001

>  <m_primary>  (38) 
energy

$$$$
38:0
     RDKit          3D

 50 53  0  0  0  0  0  0  0  0999 V2000
   -2.7490   20.6960  -29.3360 C   0  0  0  0  0  0  0  0  0  0  0  0
   -2.4380   22.1610  -29.1990 C   0  0  0  0  0  0  0  0  0  0  0  0
   -1.2710   22.6070  -28.5470 C   0  0  0  0  0  0  0  0  0  0  0  0
   -0.9950   23.9880  -28.4420 C   0  0  0  0  0  0  0  0  0  0  0  0
   -1.8870   24.9190  -28.9970 C   0  0  0  0  0  0  0  0  0  0  0  0
   -2.9920   24.4450  -29.6210 N   0  0  0  0  0  0  0  0  0  0  0  0
   -3.9360   25.1480  -30.2140 N   0  0  0  0  0  0  0  0  0  0  0  0
   -4.7970   24.2170  -30.6980 C   0  0  0  0  0  0  0  0  0  0  0  0
   -6.0350   24.5570  -31.4720 C   0  0  0  0  0  0  0  0  0  0  0  0
   -7.2870   23.9040  -30.8660 C   0  0  0  0  0  0  0  0  0  0  0  0
   -7.5130   22.5140  -31.4000 C   0  0  0  0  0  0  0  0  0  0  0  0
   -8.7810   21.9200  -31.3510 C   0  0  0  0  0  0  0  0  0  0  0  0
   -8.9510   20.6340  -31.8650 C   0  0  0  0  0  0  0  0  0  0  0  0
   -7.8660   19.9480  -32.4140 C   0  0  0  0  0  0  0  0  0  0  0  0
   -6.6010   20.5630  -32.4430 C   0  0  0  0  0  0  0  0  0  0  0  0
   -5.4100   19.8850  -33.0180 C   0  0  0  0  0  0  0  0  0  0  0  0
   -5.4700   18.5160  -33.3280 C   0  0  0  0  0  0  0  0  0  0  0  0
   -4.3660   17.8640  -33.8770 C   0  0  0  0  0  0  0  0  0  0  0  0
   -3.1880   18.5660  -34.1340 C   0  0  0  0  0  0  0  0  0  0  0  0
   -3.1030   19.9410  -33.8470 C   0  0  0  0  0  0  0  0  0  0  0  0
   -1.9070   20.7020  -34.1060 N   0  0  0  0  0  0  0  0  0  0  0  0
   -0.6310   20.9620  -32.9550 S   0  0  0  0  0  0  0  0  0  0  0  0
   -0.1890   19.4280  -32.1650 C   0  0  0  0  0  0  0  0  0  0  0  0
    0.5650   21.5610  -33.6390 O   0  0  0  0  0  0  0  0  0  0  0  0
   -1.1120   21.9240  -31.9060 O   0  0  0  0  0  0  0  0  0  0  0  0
   -4.2200   20.5890  -33.2890 C   0  0  0  0  0  0  0  0  0  0  0  0
   -6.4720   21.8260  -31.9450 N   0  0  0  0  0  0  0  0  0  0  0  0
   -4.4200   22.9390  -30.4250 N   0  0  0  0  0  0  0  0  0  0  0  0
   -3.2770   23.1430  -29.7400 C   0  0  0  0  0  0  0  0  0  0  0  0
   -2.8444   20.2464  -28.3366 H   0  0  0  0  0  0  0  0  0  0  0  0
   -3.6936   20.5715  -29.8858 H   0  0  0  0  0  0  0  0  0  0  0  0
   -1.9364   20.1985  -29.8858 H   0  0  0  0  0  0  0  0  0  0  0  0
   -0.5710   21.8752  -28.1174 H   0  0  0  0  0  0  0  0  0  0  0  0
   -0.0856   24.3324  -27.9279 H   0  0  0  0  0  0  0  0  0  0  0  0
   -1.6947   25.9998  -28.9274 H   0  0  0  0  0  0  0  0  0  0  0  0
   -6.1671   25.6490  -31.4699 H   0  0  0  0  0  0  0  0  0  0  0  0
   -5.9127   24.1744  -32.4960 H   0  0  0  0  0  0  0  0  0  0  0  0
   -7.1659   23.8496  -29.7740 H   0  0  0  0  0  0  0  0  0  0  0  0
   -8.1571   24.5188  -31.1398 H   0  0  0  0  0  0  0  0  0  0  0  0
   -9.6324   22.4611  -30.9125 H   0  0  0  0  0  0  0  0  0  0  0  0
   -9.9429   20.1592  -31.8376 H   0  0  0  0  0  0  0  0  0  0  0  0
   -7.9992   18.9346  -32.8207 H   0  0  0  0  0  0  0  0  0  0  0  0
   -6.3956   17.9535  -33.1361 H   0  0  0  0  0  0  0  0  0  0  0  0
   -4.4244   16.7903  -34.1087 H   0  0  0  0  0  0  0  0  0  0  0  0
   -2.3213   18.0420  -34.5632 H   0  0  0  0  0  0  0  0  0  0  0  0
   -1.7760   21.1190  -35.0530 H   0  0  0  0  0  0  0  0  0  0  0  0
   -0.2254   19.5542  -31.0729 H   0  0  0  0  0  0  0  0  0  0  0  0
   -0.8974   18.6425  -32.4671 H   0  0  0  0  0  0  0  0  0  0  0  0
    0.8287   19.1399  -32.4671 H   0  0  0  0  0  0  0  0  0  0  0  0
   -4.1634   21.6635  -33.0604 H   0  0  0  0  0  0  0  0  0  0  0  0
  1  2  1  0
  2  3  2  0
  3  4  1  0
  4  5  2  0
  5  6  1  0
  6  7  1  0
  7  8  2  0
  8  9  1  0
  9 10  1  0
 10 11  1  0
 11 12  2  0
 12 13  1  0
 13 14  2  0
 14 15  1  0
 15 16  1  0
 16 17  2  0
 17 18  1  0
 18 19  2  0
 19 20  1  0
 20 21  1  0
 21 22  1  0
 22 23  1  0
 22 24  2  0
 22 25  2  0
 20 26  2  0
 15 27  2  0
  8 28  1  0
 28 29  2  0
 29  2  1  0
 29  6  1  0
 27 11  1  0
 26 16  1  0
  1 30  1  0
  1 31  1  0
  1 32  1  0
  3 33  1  0
  4 34  1  0
  5 35  1  0
  9 36  1  0
  9 37  1  0
 10 38  1  0
 10 39  1  0
 12 40  1  0
 13 41  1  0
 14 42  1  0
 17 43  1  0
 18 44  1  0
 19 45  1  0
 21 46  1  0
 23 47  1  0
 23 48  1  0
 23 49  1  0
 26 50  1  0
M  END
>  <UniqueID>  (39) 
37

>  <SMILES>  (39) 
Cc1cccn2nc(CCc3cccc(-c4cccc(NS(C)(=O)=O)c4)n3)nc12

>  <Energy>  (39) 
91.63728533410814

>  <Genealogy>  (39) 
Cc1cccn2nc(CCc3cccc(-c4cccc(NS(C)(=O)=O)c4)n3)nc12 (3D coordinates assigned)
Cc1cccn2nc(CCc3cccc(-c4cccc(NS(C)(=O)=O)c4)n3)nc12 (optimized conformer: 91.63728533410814 kcal/mol)

>  <smiles>  (39) 
Cc1cccn2nc(CCc3cccc(-c4cccc(NS(C)(=O)=O)c4)n3)nc12

>  <score_type>  (39) 
oracle

>  <origin>  (39) 
adgpu

>  <m_score__min__energy>  (39) 
-9.9600000000000009

>  <m_primary>  (39) 
energy

$$$$
39:0
     RDKit          3D

 46 48  0  0  0  0  0  0  0  0999 V2000
   -9.5220   20.0660  -32.9220 O   0  0  0  0  0  0  0  0  0  0  0  0
   -8.5790   19.6910  -31.8140 S   0  0  0  0  0  0  0  0  0  0  0  0
   -9.2360   18.6340  -30.9700 O   0  0  0  0  0  0  0  0  0  0  0  0
   -8.2480   21.0830  -30.8300 N   0  0  0  0  0  0  0  0  0  0  0  0
   -8.1750   22.2790  -31.6710 C   0  0  0  0  0  0  0  0  0  0  0  0
   -6.9380   23.0620  -31.3300 C   0  0  0  0  0  0  0  0  0  0  0  0
   -7.0420   24.3320  -30.7380 C   0  0  0  0  0  0  0  0  0  0  0  0
   -5.8910   25.0740  -30.4550 C   0  0  0  0  0  0  0  0  0  0  0  0
   -4.6300   24.5590  -30.7710 C   0  0  0  0  0  0  0  0  0  0  0  0
   -3.4880   25.2980  -30.4880 O   0  0  0  0  0  0  0  0  0  0  0  0
   -4.5200   23.3020  -31.3740 C   0  0  0  0  0  0  0  0  0  0  0  0
   -5.6690   22.5580  -31.6590 C   0  0  0  0  0  0  0  0  0  0  0  0
   -7.0820   19.0430  -32.4830 C   0  0  0  0  0  0  0  0  0  0  0  0
   -6.4380   17.9600  -31.8700 C   0  0  0  0  0  0  0  0  0  0  0  0
   -5.2620   17.4390  -32.4190 C   0  0  0  0  0  0  0  0  0  0  0  0
   -4.7190   17.9970  -33.5840 C   0  0  0  0  0  0  0  0  0  0  0  0
   -3.2230   17.3530  -34.2670 S   0  0  0  0  0  0  0  0  0  0  0  0
   -2.8730   16.0680  -33.5680 O   0  0  0  0  0  0  0  0  0  0  0  0
   -3.4360   17.0470  -35.7230 O   0  0  0  0  0  0  0  0  0  0  0  0
   -1.8990   18.4830  -34.1020 N   0  0  0  0  0  0  0  0  0  0  0  0
   -1.1440   18.2160  -32.8630 C   0  0  0  0  0  0  0  0  0  0  0  0
   -0.3380   19.4560  -32.4420 C   0  0  0  0  0  0  0  0  0  0  0  0
   -1.1340   20.6060  -32.1860 O   0  0  0  0  0  0  0  0  0  0  0  0
   -2.3950   20.5890  -32.8410 C   0  0  0  0  0  0  0  0  0  0  0  0
   -2.3600   19.8850  -34.2100 C   0  0  0  0  0  0  0  0  0  0  0  0
   -5.3730   19.0710  -34.2040 C   0  0  0  0  0  0  0  0  0  0  0  0
   -6.5490   19.5910  -33.6550 C   0  0  0  0  0  0  0  0  0  0  0  0
   -7.3070   20.9310  -30.3970 H   0  0  0  0  0  0  0  0  0  0  0  0
   -8.1390   21.9806  -32.7291 H   0  0  0  0  0  0  0  0  0  0  0  0
   -9.0627   22.9041  -31.4941 H   0  0  0  0  0  0  0  0  0  0  0  0
   -8.0328   24.7442  -30.4962 H   0  0  0  0  0  0  0  0  0  0  0  0
   -5.9777   26.0639  -29.9833 H   0  0  0  0  0  0  0  0  0  0  0  0
   -3.5280   22.8980  -31.6245 H   0  0  0  0  0  0  0  0  0  0  0  0
   -5.5787   21.5742  -32.1427 H   0  0  0  0  0  0  0  0  0  0  0  0
   -6.8586   17.5184  -30.9545 H   0  0  0  0  0  0  0  0  0  0  0  0
   -4.7613   16.5878  -31.9344 H   0  0  0  0  0  0  0  0  0  0  0  0
   -1.8484   17.9531  -32.0601 H   0  0  0  0  0  0  0  0  0  0  0  0
   -0.4467   17.3850  -33.0450 H   0  0  0  0  0  0  0  0  0  0  0  0
    0.2197   19.2110  -31.5261 H   0  0  0  0  0  0  0  0  0  0  0  0
    0.3210   19.7077  -33.2860 H   0  0  0  0  0  0  0  0  0  0  0  0
   -3.1161   20.0645  -32.1969 H   0  0  0  0  0  0  0  0  0  0  0  0
   -2.6838   21.6353  -33.0196 H   0  0  0  0  0  0  0  0  0  0  0  0
   -3.3727   19.8936  -34.6395 H   0  0  0  0  0  0  0  0  0  0  0  0
   -1.6502   20.4270  -34.8522 H   0  0  0  0  0  0  0  0  0  0  0  0
   -4.9594   19.5061  -35.1257 H   0  0  0  0  0  0  0  0  0  0  0  0
   -7.0571   20.4340  -34.1462 H   0  0  0  0  0  0  0  0  0  0  0  0
  1  2  2  0
  2  3  2  0
  2  4  1  0
  4  5  1  0
  5  6  1  0
  6  7  2  0
  7  8  1  0
  8  9  2  0
  9 10  1  0
  9 11  1  0
 11 12  2  0
  2 13  1  0
 13 14  2  0
 14 15  1  0
 15 16  2  0
 16 17  1  0
 17 18  2  0
 17 19  2  0
 17 20  1  0
 20 21  1  0
 21 22  1  0
 22 23  1  0
 23 24  1  0
 24 25  1  0
 16 26  1  0
 26 27  2  0
 12  6  1  0
 27 13  1  0
 25 20  1  0
  4 28  1  0
  5 29  1  0
  5 30  1  0
  7 31  1  0
  8 32  1  0
 11 33  1  0
 12 34  1  0
 14 35  1  0
 15 36  1  0
 21 37  1  0
 21 38  1  0
 22 39  1  0
 22 40  1  0
 24 41  1  0
 24 42  1  0
 25 43  1  0
 25 44  1  0
 26 45  1  0
 27 46  1  0
M  CHG  1  10  -1
M  END
>  <UniqueID>  (40) 
38

>  <SMILES>  (40) 
O=S(=O)(NCc1ccc([O-])cc1)c1ccc(S(=O)(=O)N2CCOCC2)cc1

>  <Energy>  (40) 
55.98570831490472

>  <Genealogy>  (40) 
O=S(=O)(NCc1ccc([O-])cc1)c1ccc(S(=O)(=O)N2CCOCC2)cc1 (protonated)
O=S(=O)(NCc1ccc([O-])cc1)c1ccc(S(=O)(=O)N2CCOCC2)cc1 (3D coordinates assigned)
O=S(=O)(NCc1ccc([O-])cc1)c1ccc(S(=O)(=O)N2CCOCC2)cc1 (nonaromatic ring conformer: 55.98570831490472 kcal/mol)

>  <smiles>  (40) 
O=S(=O)(NCc1ccc(O)cc1)c1ccc(S(=O)(=O)N2CCOCC2)cc1

>  <score_type>  (40) 
oracle

>  <origin>  (40) 
adgpu

>  <m_score__min__energy>  (40) 
-11.93

>  <m_primary>  (40) 
energy

$$$$
40:0
     RDKit          3D

 48 50  0  0  0  0  0  0  0  0999 V2000
   -2.9760   16.6330  -33.1160 C   0  0  0  0  0  0  0  0  0  0  0  0
   -3.6730   17.9510  -33.1600 C   0  0  0  0  0  0  0  0  0  0  0  0
   -4.9440   18.1330  -32.7540 N   0  0  0  0  0  0  0  0  0  0  0  0
   -5.2280   19.4240  -32.8680 N   0  0  0  0  0  0  0  0  0  0  0  0
   -6.5060   19.9690  -32.5060 C   0  0  0  0  0  0  0  0  0  0  0  0
   -6.5730   21.1050  -31.6810 C   0  0  0  0  0  0  0  0  0  0  0  0
   -7.8110   21.6320  -31.3030 C   0  0  0  0  0  0  0  0  0  0  0  0
   -8.9920   21.0230  -31.7350 C   0  0  0  0  0  0  0  0  0  0  0  0
   -8.9360   19.8780  -32.5360 C   0  0  0  0  0  0  0  0  0  0  0  0
   -7.6990   19.3470  -32.9140 C   0  0  0  0  0  0  0  0  0  0  0  0
   -4.1340   20.0910  -33.3140 C   0  0  0  0  0  0  0  0  0  0  0  0
   -4.0180   21.5810  -33.4670 C   0  0  0  0  0  0  0  0  0  0  0  0
   -3.1220   19.1680  -33.5330 C   0  0  0  0  0  0  0  0  0  0  0  0
   -1.6910   19.4440  -33.9040 C   0  0  0  0  0  0  0  0  0  0  0  0
   -1.1820   20.6520  -33.1780 C   0  0  0  0  0  0  0  0  0  0  0  0
   -1.1140   21.7590  -33.7770 O   0  0  0  0  0  0  0  0  0  0  0  0
   -0.7710   20.5440  -31.8140 N   0  0  0  0  0  0  0  0  0  0  0  0
   -1.5370   19.8290  -30.8010 C   0  0  0  0  0  0  0  0  0  0  0  0
   -2.2980   20.8150  -29.9560 C   0  0  0  0  0  0  0  0  0  0  0  0
   -2.1600   20.8110  -28.5610 C   0  0  0  0  0  0  0  0  0  0  0  0
   -2.8090   21.7740  -27.7870 C   0  0  0  0  0  0  0  0  0  0  0  0
   -3.5990   22.7490  -28.3990 C   0  0  0  0  0  0  0  0  0  0  0  0
   -3.7450   22.7670  -29.7910 C   0  0  0  0  0  0  0  0  0  0  0  0
   -4.7300   24.0140  -30.5470 S   0  0  0  0  0  0  0  0  0  0  0  0
   -3.8720   25.5150  -30.5870 N   0  0  0  0  0  0  0  0  0  0  0  0
   -5.0590   23.6060  -31.9570 O   0  0  0  0  0  0  0  0  0  0  0  0
   -6.0010   24.1890  -29.7670 O   0  0  0  0  0  0  0  0  0  0  0  0
   -3.0860   21.8030  -30.5690 C   0  0  0  0  0  0  0  0  0  0  0  0
   -2.8190   16.3361  -32.0685 H   0  0  0  0  0  0  0  0  0  0  0  0
   -3.5915   15.8756  -33.6235 H   0  0  0  0  0  0  0  0  0  0  0  0
   -2.0036   16.7154  -33.6235 H   0  0  0  0  0  0  0  0  0  0  0  0
   -5.6457   21.5820  -31.3308 H   0  0  0  0  0  0  0  0  0  0  0  0
   -7.8557   22.5269  -30.6649 H   0  0  0  0  0  0  0  0  0  0  0  0
   -9.9659   21.4442  -31.4450 H   0  0  0  0  0  0  0  0  0  0  0  0
   -9.8662   19.3945  -32.8691 H   0  0  0  0  0  0  0  0  0  0  0  0
   -7.6591   18.4387  -33.5332 H   0  0  0  0  0  0  0  0  0  0  0  0
   -3.9815   22.0500  -32.4726 H   0  0  0  0  0  0  0  0  0  0  0  0
   -3.0984   21.8223  -34.0202 H   0  0  0  0  0  0  0  0  0  0  0  0
   -4.8892   21.9617  -34.0202 H   0  0  0  0  0  0  0  0  0  0  0  0
   -1.0736   18.5740  -33.6356 H   0  0  0  0  0  0  0  0  0  0  0  0
   -1.6348   19.6308  -34.9866 H   0  0  0  0  0  0  0  0  0  0  0  0
   -2.2445   19.1446  -31.2920 H   0  0  0  0  0  0  0  0  0  0  0  0
   -0.8511   19.2528  -30.1626 H   0  0  0  0  0  0  0  0  0  0  0  0
   -1.5376   20.0456  -28.0744 H   0  0  0  0  0  0  0  0  0  0  0  0
   -2.6979   21.7648  -26.6927 H   0  0  0  0  0  0  0  0  0  0  0  0
   -4.1087   23.5060  -27.7849 H   0  0  0  0  0  0  0  0  0  0  0  0
   -2.8540   25.2930  -30.5200 H   0  0  0  0  0  0  0  0  0  0  0  0
   -3.1870   21.8211  -31.6642 H   0  0  0  0  0  0  0  0  0  0  0  0
  1  2  1  0
  2  3  2  0
  3  4  1  0
  4  5  1  0
  5  6  2  0
  6  7  1  0
  7  8  2  0
  8  9  1  0
  9 10  2  0
  4 11  1  0
 11 12  1  0
 11 13  2  0
 13 14  1  0
 14 15  1  0
 15 16  2  0
 15 17  1  0
 17 18  1  0
 18 19  1  0
 19 20  2  0
 20 21  1  0
 21 22  2  0
 22 23  1  0
 23 24  1  0
 24 25  1  0
 24 26  2  0
 24 27  2  0
 23 28  2  0
 13  2  1  0
 28 19  1  0
 10  5  1  0
  1 29  1  0
  1 30  1  0
  1 31  1  0
  6 32  1  0
  7 33  1  0
  8 34  1  0
  9 35  1  0
 10 36  1  0
 12 37  1  0
 12 38  1  0
 12 39  1  0
 14 40  1  0
 14 41  1  0
 18 42  1  0
 18 43  1  0
 20 44  1  0
 21 45  1  0
 22 46  1  0
 25 47  1  0
 28 48  1  0
M  CHG  2  17  -1  25  -1
M  END
>  <UniqueID>  (41) 
39

>  <SMILES>  (41) 
Cc1nn(-c2ccccc2)c(C)c1CC(=O)[N-]Cc1cccc(S([NH-])(=O)=O)c1

>  <Energy>  (41) 
74.37560962274719

>  <Genealogy>  (41) 
Cc1nn(-c2ccccc2)c(C)c1CC(=O)[N-]Cc1cccc(S([NH-])(=O)=O)c1 (protonated)
Cc1nn(-c2ccccc2)c(C)c1CC(=O)[N-]Cc1cccc(S([NH-])(=O)=O)c1 (3D coordinates assigned)
Cc1nn(-c2ccccc2)c(C)c1CC(=O)[N-]Cc1cccc(S([NH-])(=O)=O)c1 (optimized conformer: 74.37560962274719 kcal/mol)

>  <smiles>  (41) 
Cc1nn(-c2ccccc2)c(C)c1CC(=O)NCc1cccc(S(N)(=O)=O)c1

>  <score_type>  (41) 
oracle

>  <origin>  (41) 
adgpu

>  <m_score__min__energy>  (41) 
-11.42

>  <m_primary>  (41) 
energy

$$$$
41:0
     RDKit          3D

 64 67  0  0  0  0  0  0  0  0999 V2000
    1.1490   16.6410  -28.8750 C   0  0  0  0  0  0  0  0  0  0  0  0
    1.0000   18.1950  -27.9400 S   0  0  0  0  0  0  0  0  0  0  0  0
    0.3260   19.1040  -29.3320 C   0  0  0  0  0  0  0  0  0  0  0  0
    0.8660   19.0600  -30.5640 N   0  0  0  0  0  0  0  0  0  0  0  0
    0.1620   19.9140  -31.3300 C   0  0  0  0  0  0  0  0  0  0  0  0
    0.4860   20.2000  -32.7620 C   0  0  0  0  0  0  0  0  0  0  0  0
   -0.8450   20.5090  -30.5850 C   0  0  0  0  0  0  0  0  0  0  0  0
   -1.7850   21.5330  -31.0730 C   0  0  0  0  0  0  0  0  0  0  0  0
   -2.1270   21.5170  -32.2830 O   0  0  0  0  0  0  0  0  0  0  0  0
   -2.3180   22.5480  -30.2120 N   0  0  0  0  0  0  0  0  0  0  0  0
   -3.5990   23.1890  -30.3360 C   0  0  0  0  0  0  0  0  0  0  0  0
   -4.7380   22.4810  -30.7590 C   0  0  0  0  0  0  0  0  0  0  0  0
   -5.9730   23.1300  -30.8810 C   0  0  0  0  0  0  0  0  0  0  0  0
   -7.3860   22.2230  -31.4140 S   0  0  0  0  0  0  0  0  0  0  0  0
   -7.9280   22.8390  -32.6760 O   0  0  0  0  0  0  0  0  0  0  0  0
   -8.4520   22.2920  -30.3540 O   0  0  0  0  0  0  0  0  0  0  0  0
   -6.9320   20.5670  -31.7270 N   0  0  0  0  0  0  0  0  0  0  0  0
   -8.1050   19.7020  -31.8300 C   0  0  0  0  0  0  0  0  0  0  0  0
   -7.6950   18.5260  -32.6960 C   0  0  0  0  0  0  0  0  0  0  0  0
   -6.5320   19.0370  -33.5320 C   0  0  0  0  0  0  0  0  0  0  0  0
   -6.2390   20.4380  -33.0100 C   0  0  0  0  0  0  0  0  0  0  0  0
   -6.0660   24.5010  -30.6110 C   0  0  0  0  0  0  0  0  0  0  0  0
   -4.9320   25.2160  -30.2170 C   0  0  0  0  0  0  0  0  0  0  0  0
   -3.7000   24.5650  -30.0850 C   0  0  0  0  0  0  0  0  0  0  0  0
   -2.5790   25.2910  -29.7000 O   0  0  0  0  0  0  0  0  0  0  0  0
   -0.7490   19.9810  -29.3030 C   0  0  0  0  0  0  0  0  0  0  0  0
   -1.6540   20.4800  -27.8700 S   0  0  0  0  0  0  0  0  0  0  0  0
   -3.1310   20.3170  -28.0840 O   0  0  0  0  0  0  0  0  0  0  0  0
   -1.2650   19.6200  -26.7000 O   0  0  0  0  0  0  0  0  0  0  0  0
   -1.3040   22.1690  -27.5240 C   0  0  0  0  0  0  0  0  0  0  0  0
   -2.3210   23.0370  -27.1080 C   0  0  0  0  0  0  0  0  0  0  0  0
   -2.0360   24.3810  -26.8260 C   0  0  0  0  0  0  0  0  0  0  0  0
   -3.1230   25.2940  -26.3410 C   0  0  0  0  0  0  0  0  0  0  0  0
   -0.7170   24.8460  -26.9320 C   0  0  0  0  0  0  0  0  0  0  0  0
    0.3110   23.9790  -27.3340 C   0  0  0  0  0  0  0  0  0  0  0  0
    1.7110   24.4890  -27.4950 C   0  0  0  0  0  0  0  0  0  0  0  0
    0.0080   22.6450  -27.6460 C   0  0  0  0  0  0  0  0  0  0  0  0
    1.2299   15.7974  -28.1737 H   0  0  0  0  0  0  0  0  0  0  0  0
    0.2595   16.5074  -29.5083 H   0  0  0  0  0  0  0  0  0  0  0  0
    2.0476   16.6788  -29.5083 H   0  0  0  0  0  0  0  0  0  0  0  0
    1.6960   18.4980  -30.8570 H   0  0  0  0  0  0  0  0  0  0  0  0
    1.3098   20.9272  -32.8134 H   0  0  0  0  0  0  0  0  0  0  0  0
    0.7876   19.2682  -33.2629 H   0  0  0  0  0  0  0  0  0  0  0  0
   -0.4011   20.6149  -33.2629 H   0  0  0  0  0  0  0  0  0  0  0  0
   -4.6584   21.4097  -30.9958 H   0  0  0  0  0  0  0  0  0  0  0  0
   -8.4086   19.3522  -30.8323 H   0  0  0  0  0  0  0  0  0  0  0  0
   -8.9599   20.2395  -32.2661 H   0  0  0  0  0  0  0  0  0  0  0  0
   -7.3783   17.6780  -32.0711 H   0  0  0  0  0  0  0  0  0  0  0  0
   -8.5250   18.1650  -33.3211 H   0  0  0  0  0  0  0  0  0  0  0  0
   -5.6530   18.3880  -33.4050 H   0  0  0  0  0  0  0  0  0  0  0  0
   -6.7733   19.0439  -34.6052 H   0  0  0  0  0  0  0  0  0  0  0  0
   -5.1560   20.5708  -32.8701 H   0  0  0  0  0  0  0  0  0  0  0  0
   -6.5822   21.2033  -33.7217 H   0  0  0  0  0  0  0  0  0  0  0  0
   -7.0332   25.0157  -30.7092 H   0  0  0  0  0  0  0  0  0  0  0  0
   -5.0077   26.2937  -30.0100 H   0  0  0  0  0  0  0  0  0  0  0  0
   -3.3498   22.6625  -27.0017 H   0  0  0  0  0  0  0  0  0  0  0  0
   -3.1319   25.3015  -25.2411 H   0  0  0  0  0  0  0  0  0  0  0  0
   -2.9394   26.3127  -26.7131 H   0  0  0  0  0  0  0  0  0  0  0  0
   -4.0947   24.9372  -26.7131 H   0  0  0  0  0  0  0  0  0  0  0  0
   -0.4869   25.8961  -26.6988 H   0  0  0  0  0  0  0  0  0  0  0  0
    2.1582   24.6519  -26.5033 H   0  0  0  0  0  0  0  0  0  0  0  0
    2.3086   23.7508  -28.0499 H   0  0  0  0  0  0  0  0  0  0  0  0
    1.6938   25.4386  -28.0499 H   0  0  0  0  0  0  0  0  0  0  0  0
    0.8053   21.9689  -27.9884 H   0  0  0  0  0  0  0  0  0  0  0  0
  1  2  1  0
  2  3  1  0
  3  4  1  0
  4  5  1  0
  5  6  1  0
  5  7  2  0
  7  8  1  0
  8  9  2  0
  8 10  1  0
 10 11  1  0
 11 12  2  0
 12 13  1  0
 13 14  1  0
 14 15  2  0
 14 16  2  0
 14 17  1  0
 17 18  1  0
 18 19  1  0
 19 20  1  0
 20 21  1  0
 13 22  2  0
 22 23  1  0
 23 24  2  0
 24 25  1  0
  7 26  1  0
 26 27  1  0
 27 28  2  0
 27 29  2  0
 27 30  1  0
 30 31  2  0
 31 32  1  0
 32 33  1  0
 32 34  2  0
 34 35  1  0
 35 36  1  0
 35 37  2  0
 26  3  2  0
 37 30  1  0
 24 11  1  0
 21 17  1  0
  1 38  1  0
  1 39  1  0
  1 40  1  0
  4 41  1  0
  6 42  1  0
  6 43  1  0
  6 44  1  0
 12 45  1  0
 18 46  1  0
 18 47  1  0
 19 48  1  0
 19 49  1  0
 20 50  1  0
 20 51  1  0
 21 52  1  0
 21 53  1  0
 22 54  1  0
 23 55  1  0
 31 56  1  0
 33 57  1  0
 33 58  1  0
 33 59  1  0
 34 60  1  0
 36 61  1  0
 36 62  1  0
 36 63  1  0
 37 64  1  0
M  CHG  2  10  -1  25  -1
M  END
>  <UniqueID>  (42) 
40

>  <SMILES>  (42) 
CSc1[nH]c(C)c(C(=O)[N-]c2cc(S(=O)(=O)N3CCCC3)ccc2[O-])c1S(=O)(=O)c1cc(C)cc(C)c1

>  <Energy>  (42) 
95.41750526148381

>  <Genealogy>  (42) 
CSc1[nH]c(C)c(C(=O)[N-]c2cc(S(=O)(=O)N3CCCC3)ccc2[O-])c1S(=O)(=O)c1cc(C)cc(C)c1 (protonated)
CSc1[nH]c(C)c(C(=O)[N-]c2cc(S(=O)(=O)N3CCCC3)ccc2[O-])c1S(=O)(=O)c1cc(C)cc(C)c1 (3D coordinates assigned)
CSc1[nH]c(C)c(C(=O)[N-]c2cc(S(=O)(=O)N3CCCC3)ccc2[O-])c1S(=O)(=O)c1cc(C)cc(C)c1 (nonaromatic ring conformer: 95.41750526148381 kcal/mol)

>  <smiles>  (42) 
CSc1[nH]c(C)c(C(=O)Nc2cc(S(=O)(=O)N3CCCC3)ccc2O)c1S(=O)(=O)c1cc(C)cc(C)c1

>  <score_type>  (42) 
oracle

>  <origin>  (42) 
adgpu

>  <m_score__min__energy>  (42) 
-14.289999999999999

>  <m_primary>  (42) 
energy

$$$$
42:0
     RDKit          3D

 53 56  0  0  0  0  0  0  0  0999 V2000
    0.7730   26.7900  -22.9920 N   0  0  0  0  0  0  0  0  0  0  0  0
    0.1020   27.4690  -24.0610 C   0  0  0  0  0  0  0  0  0  0  0  0
    0.1070   28.7690  -24.0980 N   0  0  0  0  0  0  0  0  0  0  0  0
   -0.5840   26.6840  -25.1210 C   0  0  0  0  0  0  0  0  0  0  0  0
   -1.8760   26.1790  -24.9040 C   0  0  0  0  0  0  0  0  0  0  0  0
   -2.5270   25.4380  -25.8980 C   0  0  0  0  0  0  0  0  0  0  0  0
   -1.9000   25.1910  -27.1330 C   0  0  0  0  0  0  0  0  0  0  0  0
   -2.5870   24.3990  -28.1850 C   0  0  0  0  0  0  0  0  0  0  0  0
   -3.9730   24.1690  -28.1150 C   0  0  0  0  0  0  0  0  0  0  0  0
   -4.6200   23.4190  -29.1000 C   0  0  0  0  0  0  0  0  0  0  0  0
   -3.8980   22.8810  -30.1800 C   0  0  0  0  0  0  0  0  0  0  0  0
   -4.5890   22.0800  -31.2240 C   0  0  0  0  0  0  0  0  0  0  0  0
   -3.9400   21.7690  -32.4330 C   0  0  0  0  0  0  0  0  0  0  0  0
   -4.5910   21.0140  -33.4110 C   0  0  0  0  0  0  0  0  0  0  0  0
   -5.8950   20.5630  -33.1980 C   0  0  0  0  0  0  0  0  0  0  0  0
   -6.5570   20.8690  -32.0020 C   0  0  0  0  0  0  0  0  0  0  0  0
   -8.2130   20.3310  -31.7320 S   0  0  0  0  0  0  0  0  0  0  0  0
   -9.0460   20.7120  -32.9240 O   0  0  0  0  0  0  0  0  0  0  0  0
   -8.7920   20.9760  -30.5020 O   0  0  0  0  0  0  0  0  0  0  0  0
   -8.2410   18.6060  -31.5350 N   0  0  0  0  0  0  0  0  0  0  0  0
   -7.2380   17.7260  -32.0800 C   0  0  0  0  0  0  0  0  0  0  0  0
   -6.2690   17.1700  -31.2240 C   0  0  0  0  0  0  0  0  0  0  0  0
   -5.2970   16.2910  -31.7220 C   0  0  0  0  0  0  0  0  0  0  0  0
   -5.2730   15.9720  -33.0830 C   0  0  0  0  0  0  0  0  0  0  0  0
   -6.2130   16.5400  -33.9480 C   0  0  0  0  0  0  0  0  0  0  0  0
   -7.1940   17.4120  -33.4530 C   0  0  0  0  0  0  0  0  0  0  0  0
   -5.9030   21.6200  -31.0180 C   0  0  0  0  0  0  0  0  0  0  0  0
   -2.5130   23.1140  -30.2530 C   0  0  0  0  0  0  0  0  0  0  0  0
   -1.8660   23.8650  -29.2670 C   0  0  0  0  0  0  0  0  0  0  0  0
   -0.6100   25.7050  -27.3520 C   0  0  0  0  0  0  0  0  0  0  0  0
    0.0410   26.4450  -26.3570 C   0  0  0  0  0  0  0  0  0  0  0  0
    1.2970   27.3250  -22.2640 H   0  0  0  0  0  0  0  0  0  0  0  0
    0.7070   25.7540  -22.8860 H   0  0  0  0  0  0  0  0  0  0  0  0
   -0.3410   29.2990  -24.8790 H   0  0  0  0  0  0  0  0  0  0  0  0
    0.5880   29.3220  -23.3520 H   0  0  0  0  0  0  0  0  0  0  0  0
   -2.3811   26.3670  -23.9451 H   0  0  0  0  0  0  0  0  0  0  0  0
   -3.5376   25.0456  -25.7116 H   0  0  0  0  0  0  0  0  0  0  0  0
   -4.5526   24.5835  -27.2770 H   0  0  0  0  0  0  0  0  0  0  0  0
   -5.7043   23.2477  -29.0301 H   0  0  0  0  0  0  0  0  0  0  0  0
   -2.9134   22.1228  -32.6090 H   0  0  0  0  0  0  0  0  0  0  0  0
   -4.0747   20.7739  -34.3522 H   0  0  0  0  0  0  0  0  0  0  0  0
   -6.4031   19.9667  -33.9702 H   0  0  0  0  0  0  0  0  0  0  0  0
   -9.0920   18.1880  -31.1060 H   0  0  0  0  0  0  0  0  0  0  0  0
   -6.2744   17.4275  -30.1546 H   0  0  0  0  0  0  0  0  0  0  0  0
   -4.5527   15.8520  -31.0414 H   0  0  0  0  0  0  0  0  0  0  0  0
   -4.5160   15.2754  -33.4725 H   0  0  0  0  0  0  0  0  0  0  0  0
   -6.1832   16.3021  -35.0215 H   0  0  0  0  0  0  0  0  0  0  0  0
   -7.9320   17.8525  -34.1395 H   0  0  0  0  0  0  0  0  0  0  0  0
   -6.4207   21.8525  -30.0757 H   0  0  0  0  0  0  0  0  0  0  0  0
   -1.9340   22.7020  -31.0927 H   0  0  0  0  0  0  0  0  0  0  0  0
   -0.7823   24.0396  -29.3387 H   0  0  0  0  0  0  0  0  0  0  0  0
   -0.1073   25.5243  -28.3136 H   0  0  0  0  0  0  0  0  0  0  0  0
    1.0495   26.8423  -26.5443 H   0  0  0  0  0  0  0  0  0  0  0  0
  1  2  1  0
  2  3  2  0
  2  4  1  0
  4  5  2  0
  5  6  1  0
  6  7  2  0
  7  8  1  0
  8  9  2  0
  9 10  1  0
 10 11  2  0
 11 12  1  0
 12 13  2  0
 13 14  1  0
 14 15  2  0
 15 16  1  0
 16 17  1  0
 17 18  2  0
 17 19  2  0
 17 20  1  0
 20 21  1  0
 21 22  2  0
 22 23  1  0
 23 24  2  0
 24 25  1  0
 25 26  2  0
 16 27  2  0
 11 28  1  0
 28 29  2  0
  7 30  1  0
 30 31  2  0
 31  4  1  0
 29  8  1  0
 27 12  1  0
 26 21  1  0
  1 32  1  0
  1 33  1  0
  3 34  1  0
  3 35  1  0
  5 36  1  0
  6 37  1  0
  9 38  1  0
 10 39  1  0
 13 40  1  0
 14 41  1  0
 15 42  1  0
 20 43  1  0
 22 44  1  0
 23 45  1  0
 24 46  1  0
 25 47  1  0
 26 48  1  0
 27 49  1  0
 28 50  1  0
 29 51  1  0
 30 52  1  0
 31 53  1  0
M  CHG  1   3   1
M  END
>  <UniqueID>  (43) 
41

>  <SMILES>  (43) 
NC(=[NH2+])c1ccc(-c2ccc(-c3cccc(S(=O)(=O)Nc4ccccc4)c3)cc2)cc1

>  <Energy>  (43) 
72.67687279532602

>  <Genealogy>  (43) 
NC(=[NH2+])c1ccc(-c2ccc(-c3cccc(S(=O)(=O)Nc4ccccc4)c3)cc2)cc1 (protonated)
NC(=[NH2+])c1ccc(-c2ccc(-c3cccc(S(=O)(=O)Nc4ccccc4)c3)cc2)cc1 (3D coordinates assigned)
NC(=[NH2+])c1ccc(-c2ccc(-c3cccc(S(=O)(=O)Nc4ccccc4)c3)cc2)cc1 (optimized conformer: 72.67687279532602 kcal/mol)

>  <smiles>  (43) 
N=C(N)c1ccc(-c2ccc(-c3cccc(S(=O)(=O)Nc4ccccc4)c3)cc2)cc1

>  <score_type>  (43) 
oracle

>  <origin>  (43) 
adgpu

>  <m_score__min__energy>  (43) 
-11.279999999999999

>  <m_primary>  (43) 
energy

$$$$
43:0
     RDKit          3D

 45 48  0  0  0  0  0  0  0  0999 V2000
   -6.8420   24.9640  -29.9330 C   0  0  0  0  0  0  0  0  0  0  0  0
   -6.7750   23.6660  -30.6930 C   0  0  0  0  0  0  0  0  0  0  0  0
   -7.9750   23.0300  -31.0510 C   0  0  0  0  0  0  0  0  0  0  0  0
   -7.9610   21.8370  -31.7730 C   0  0  0  0  0  0  0  0  0  0  0  0
   -6.7520   21.2640  -32.1720 C   0  0  0  0  0  0  0  0  0  0  0  0
   -6.7840   20.0260  -32.8970 N   0  0  0  0  0  0  0  0  0  0  0  0
   -5.7890   19.5430  -33.8080 C   0  0  0  0  0  0  0  0  0  0  0  0
   -6.1180   18.9280  -34.8570 O   0  0  0  0  0  0  0  0  0  0  0  0
   -4.3700   19.7220  -33.4810 C   0  0  0  0  0  0  0  0  0  0  0  0
   -3.5790   18.8160  -32.7750 C   0  0  0  0  0  0  0  0  0  0  0  0
   -2.3430   19.4170  -32.7210 C   0  0  0  0  0  0  0  0  0  0  0  0
   -1.1470   18.9950  -32.1460 C   0  0  0  0  0  0  0  0  0  0  0  0
   -0.0320   19.8470  -32.2570 C   0  0  0  0  0  0  0  0  0  0  0  0
   -0.1400   21.0840  -32.9320 C   0  0  0  0  0  0  0  0  0  0  0  0
   -1.3650   21.4800  -33.5030 C   0  0  0  0  0  0  0  0  0  0  0  0
   -2.4500   20.6160  -33.3760 C   0  0  0  0  0  0  0  0  0  0  0  0
   -3.6690   20.7860  -33.8270 O   0  0  0  0  0  0  0  0  0  0  0  0
   -5.5440   21.8820  -31.8070 C   0  0  0  0  0  0  0  0  0  0  0  0
   -5.5430   23.0880  -31.0850 C   0  0  0  0  0  0  0  0  0  0  0  0
   -3.9900   23.8330  -30.6700 S   0  0  0  0  0  0  0  0  0  0  0  0
   -2.9110   23.1920  -31.4990 O   0  0  0  0  0  0  0  0  0  0  0  0
   -4.0290   25.3090  -30.9550 O   0  0  0  0  0  0  0  0  0  0  0  0
   -3.6770   23.5920  -28.9820 N   0  0  0  0  0  0  0  0  0  0  0  0
   -2.3960   23.5670  -28.3360 C   0  0  0  0  0  0  0  0  0  0  0  0
   -2.1320   22.5060  -27.4570 C   0  0  0  0  0  0  0  0  0  0  0  0
   -0.9010   22.4140  -26.8010 C   0  0  0  0  0  0  0  0  0  0  0  0
    0.0760   23.3880  -27.0080 C   0  0  0  0  0  0  0  0  0  0  0  0
   -0.1790   24.4610  -27.8630 C   0  0  0  0  0  0  0  0  0  0  0  0
   -1.4110   24.5660  -28.5220 C   0  0  0  0  0  0  0  0  0  0  0  0
   -1.6410   25.6750  -29.3250 O   0  0  0  0  0  0  0  0  0  0  0  0
   -6.8313   24.7573  -28.8526 H   0  0  0  0  0  0  0  0  0  0  0  0
   -5.9749   25.5878  -30.1956 H   0  0  0  0  0  0  0  0  0  0  0  0
   -7.7688   25.4952  -30.1956 H   0  0  0  0  0  0  0  0  0  0  0  0
   -8.9363   23.4778  -30.7587 H   0  0  0  0  0  0  0  0  0  0  0  0
   -8.9099   21.3436  -32.0301 H   0  0  0  0  0  0  0  0  0  0  0  0
   -3.8758   17.8429  -32.3568 H   0  0  0  0  0  0  0  0  0  0  0  0
   -1.0760   18.0297  -31.6234 H   0  0  0  0  0  0  0  0  0  0  0  0
    0.9300   19.5480  -31.8153 H   0  0  0  0  0  0  0  0  0  0  0  0
    0.7382   21.7416  -33.0119 H   0  0  0  0  0  0  0  0  0  0  0  0
   -1.4617   22.4398  -34.0317 H   0  0  0  0  0  0  0  0  0  0  0  0
   -4.5882   21.4167  -32.0895 H   0  0  0  0  0  0  0  0  0  0  0  0
   -2.9010   21.7391  -27.2823 H   0  0  0  0  0  0  0  0  0  0  0  0
   -0.7025   21.5726  -26.1208 H   0  0  0  0  0  0  0  0  0  0  0  0
    1.0472   23.3102  -26.4974 H   0  0  0  0  0  0  0  0  0  0  0  0
    0.5922   25.2294  -28.0206 H   0  0  0  0  0  0  0  0  0  0  0  0
  1  2  1  0
  2  3  2  0
  3  4  1  0
  4  5  2  0
  5  6  1  0
  6  7  1  0
  7  8  2  0
  7  9  1  0
  9 10  2  0
 10 11  1  0
 11 12  2  0
 12 13  1  0
 13 14  2  0
 14 15  1  0
 15 16  2  0
 16 17  1  0
  5 18  1  0
 18 19  2  0
 19 20  1  0
 20 21  2  0
 20 22  2  0
 20 23  1  0
 23 24  1  0
 24 25  2  0
 25 26  1  0
 26 27  2  0
 27 28  1  0
 28 29  2  0
 29 30  1  0
 19  2  1  0
 29 24  1  0
 17  9  1  0
 16 11  1  0
  1 31  1  0
  1 32  1  0
  1 33  1  0
  3 34  1  0
  4 35  1  0
 10 36  1  0
 12 37  1  0
 13 38  1  0
 14 39  1  0
 15 40  1  0
 18 41  1  0
 25 42  1  0
 26 43  1  0
 27 44  1  0
 28 45  1  0
M  CHG  3   6  -1  23  -1  30  -1
M  END
>  <UniqueID>  (44) 
42

>  <SMILES>  (44) 
Cc1ccc([N-]C(=O)c2cc3ccccc3o2)cc1S(=O)(=O)[N-]c1ccccc1[O-]

>  <Energy>  (44) 
94.87675090986374

>  <Genealogy>  (44) 
Cc1ccc([N-]C(=O)c2cc3ccccc3o2)cc1S(=O)(=O)[N-]c1ccccc1[O-] (protonated)
Cc1ccc([N-]C(=O)c2cc3ccccc3o2)cc1S(=O)(=O)[N-]c1ccccc1[O-] (3D coordinates assigned)
Cc1ccc([N-]C(=O)c2cc3ccccc3o2)cc1S(=O)(=O)[N-]c1ccccc1[O-] (optimized conformer: 94.87675090986374 kcal/mol)

>  <smiles>  (44) 
Cc1ccc(NC(=O)c2cc3ccccc3o2)cc1S(=O)(=O)Nc1ccccc1O

>  <score_type>  (44) 
oracle

>  <origin>  (44) 
adgpu

>  <m_score__min__energy>  (44) 
-13.59

>  <m_primary>  (44) 
energy

$$$$
44:0
     RDKit          3D

 55 58  0  0  1  0  0  0  0  0999 V2000
   -0.7820   21.1140  -33.5800 C   0  0  0  0  0  0  0  0  0  0  0  0
   -0.0770   19.9450  -32.9350 C   0  0  0  0  0  0  0  0  0  0  0  0
    0.2140   20.3170  -31.5920 O   0  0  0  0  0  0  0  0  0  0  0  0
   -0.7660   20.3310  -30.6060 C   0  0  0  0  0  0  0  0  0  0  0  0
   -1.8090   19.6790  -30.8540 O   0  0  0  0  0  0  0  0  0  0  0  0
   -0.5880   21.0710  -29.3380 C   0  0  0  0  0  0  0  0  0  0  0  0
   -0.3010   20.4590  -28.2240 C   0  0  0  0  0  0  0  0  0  0  0  0
   -0.1430   18.9790  -28.1830 C   0  0  0  0  0  0  0  0  0  0  0  0
   -0.1230   21.1410  -27.0310 O   0  0  0  0  0  0  0  0  0  0  0  0
   -0.2470   22.4980  -27.0110 C   0  0  0  0  0  0  0  0  0  0  0  0
   -0.0560   23.1230  -25.8210 N   0  0  0  0  0  0  0  0  0  0  0  0
   -0.1460   24.4560  -25.6870 C   0  0  0  0  0  0  0  0  0  0  0  0
    0.0470   24.9750  -24.5370 N   0  0  0  0  0  0  0  0  0  0  0  0
   -0.4310   25.1690  -26.7700 N   0  0  0  0  0  0  0  0  0  0  0  0
   -0.6350   24.5910  -27.9950 C   0  0  0  0  0  0  0  0  0  0  0  0
   -0.8780   25.4090  -28.9460 N   0  0  0  0  0  0  0  0  0  0  0  0
   -0.5530   23.2270  -28.1690 C   0  0  0  0  0  0  0  0  0  0  0  0
   -0.8080   22.5590  -29.4560 C   0  0  2  0  0  0  0  0  0  0  0  0
   -2.2280   22.6480  -29.9100 C   0  0  0  0  0  0  0  0  0  0  0  0
   -3.2380   22.7150  -28.9420 C   0  0  0  0  0  0  0  0  0  0  0  0
   -4.5780   22.7690  -29.3080 C   0  0  0  0  0  0  0  0  0  0  0  0
   -4.9530   22.7600  -30.6370 C   0  0  0  0  0  0  0  0  0  0  0  0
   -6.6100   22.8260  -31.1550 S   0  0  0  0  0  0  0  0  0  0  0  0
   -6.7460   23.8320  -32.2830 O   0  0  0  0  0  0  0  0  0  0  0  0
   -7.4560   23.2860  -30.0290 O   0  0  0  0  0  0  0  0  0  0  0  0
   -7.2010   21.3050  -31.7470 C   0  0  0  0  0  0  0  0  0  0  0  0
   -6.3780   20.3980  -32.3990 C   0  0  0  0  0  0  0  0  0  0  0  0
   -6.9120   19.2100  -32.8430 C   0  0  0  0  0  0  0  0  0  0  0  0
   -8.2410   18.9230  -32.6440 C   0  0  0  0  0  0  0  0  0  0  0  0
   -9.0930   19.8070  -31.9960 C   0  0  0  0  0  0  0  0  0  0  0  0
   -8.5280   20.9950  -31.5600 C   0  0  0  0  0  0  0  0  0  0  0  0
   -3.9620   22.6950  -31.5950 C   0  0  0  0  0  0  0  0  0  0  0  0
   -2.6340   22.6420  -31.2180 C   0  0  0  0  0  0  0  0  0  0  0  0
   -1.1820   21.7773  -32.7989 H   0  0  0  0  0  0  0  0  0  0  0  0
   -0.0697   21.6720  -34.2055 H   0  0  0  0  0  0  0  0  0  0  0  0
   -1.6079   20.7444  -34.2055 H   0  0  0  0  0  0  0  0  0  0  0  0
   -0.7283   19.0586  -32.9477 H   0  0  0  0  0  0  0  0  0  0  0  0
    0.8458   19.6969  -33.4799 H   0  0  0  0  0  0  0  0  0  0  0  0
   -0.1071   18.6429  -27.1362 H   0  0  0  0  0  0  0  0  0  0  0  0
   -0.9956   18.5050  -28.6913 H   0  0  0  0  0  0  0  0  0  0  0  0
    0.7905   18.6957  -28.6913 H   0  0  0  0  0  0  0  0  0  0  0  0
    0.1700   22.5560  -24.9700 H   0  0  0  0  0  0  0  0  0  0  0  0
    0.2680   24.3700  -23.7190 H   0  0  0  0  0  0  0  0  0  0  0  0
   -0.4980   26.2120  -26.6510 H   0  0  0  0  0  0  0  0  0  0  0  0
   -1.0450   25.0920  -29.9050 H   0  0  0  0  0  0  0  0  0  0  0  0
   -0.1276   23.0683  -30.1543 H   0  0  0  0  0  0  0  0  0  0  0  0
   -2.9668   22.7250  -27.8760 H   0  0  0  0  0  0  0  0  0  0  0  0
   -5.3512   22.8197  -28.5273 H   0  0  0  0  0  0  0  0  0  0  0  0
   -5.3137   20.6254  -32.5587 H   0  0  0  0  0  0  0  0  0  0  0  0
   -6.2692   18.4836  -33.3619 H   0  0  0  0  0  0  0  0  0  0  0  0
   -8.6412   17.9654  -33.0086 H   0  0  0  0  0  0  0  0  0  0  0  0
  -10.1570   19.5774  -31.8375 H   0  0  0  0  0  0  0  0  0  0  0  0
   -9.1695   21.7226  -31.0412 H   0  0  0  0  0  0  0  0  0  0  0  0
   -4.2301   22.6854  -32.6618 H   0  0  0  0  0  0  0  0  0  0  0  0
   -1.8670   22.5927  -32.0050 H   0  0  0  0  0  0  0  0  0  0  0  0
  1  2  1  0
  2  3  1  0
  3  4  1  0
  4  5  2  0
  4  6  1  0
  6  7  2  0
  7  8  1  0
  7  9  1  0
  9 10  1  0
 10 11  1  0
 11 12  1  0
 12 13  2  3
 12 14  1  0
 14 15  1  0
 15 16  2  3
 15 17  1  0
 17 18  1  0
 18 19  1  0
 19 20  2  0
 20 21  1  0
 21 22  2  0
 22 23  1  0
 23 24  2  0
 23 25  2  0
 23 26  1  0
 26 27  2  0
 27 28  1  0
 28 29  2  0
 29 30  1  0
 30 31  2  0
 22 32  1  0
 32 33  2  0
 18  6  1  0
 33 19  1  0
 17 10  2  0
 31 26  1  0
  1 34  1  0
  1 35  1  0
  1 36  1  0
  2 37  1  0
  2 38  1  0
  8 39  1  0
  8 40  1  0
  8 41  1  0
 11 42  1  0
 13 43  1  0
 14 44  1  0
 16 45  1  0
 18 46  1  6
 20 47  1  0
 21 48  1  0
 27 49  1  0
 28 50  1  0
 29 51  1  0
 30 52  1  0
 31 53  1  0
 32 54  1  0
 33 55  1  0
M  END
>  <smiles>  (45) 
CCOC(=O)C1=C(C)Oc2[nH]c(=N)[nH]c(=N)c2C1c1ccc(S(=O)(=O)c2ccccc2)cc1

>  <score_type>  (45) 
oracle

>  <origin>  (45) 
adgpu

>  <m_score__min__energy>  (45) 
-9.1500000000000004

>  <m_primary>  (45) 
energy

$$$$
45:0
     RDKit          3D

 57 60  0  0  0  0  0  0  0  0999 V2000
   -3.2350   21.5260  -33.4690 O   0  0  0  0  0  0  0  0  0  0  0  0
   -2.2620   21.5480  -32.6680 C   0  0  0  0  0  0  0  0  0  0  0  0
   -2.3790   22.2120  -31.3970 N   0  0  0  0  0  0  0  0  0  0  0  0
   -3.5900   22.8170  -30.9170 C   0  0  0  0  0  0  0  0  0  0  0  0
   -3.5150   24.0010  -30.1680 C   0  0  0  0  0  0  0  0  0  0  0  0
   -4.6790   24.6200  -29.7060 C   0  0  0  0  0  0  0  0  0  0  0  0
   -5.9290   24.0720  -30.0030 C   0  0  0  0  0  0  0  0  0  0  0  0
   -6.0230   22.9060  -30.7740 C   0  0  0  0  0  0  0  0  0  0  0  0
   -7.6030   22.2310  -31.1810 S   0  0  0  0  0  0  0  0  0  0  0  0
   -8.4950   22.3040  -29.9730 O   0  0  0  0  0  0  0  0  0  0  0  0
   -8.2290   23.0530  -32.2720 O   0  0  0  0  0  0  0  0  0  0  0  0
   -7.4770   20.5680  -31.7040 N   0  0  0  0  0  0  0  0  0  0  0  0
   -6.9410   20.5010  -33.0720 C   0  0  0  0  0  0  0  0  0  0  0  0
   -6.5940   19.0450  -33.4390 C   0  0  0  0  0  0  0  0  0  0  0  0
   -7.4000   18.0250  -32.6190 C   0  0  0  0  0  0  0  0  0  0  0  0
   -8.8150   18.5380  -32.3380 C   0  0  0  0  0  0  0  0  0  0  0  0
   -8.7950   19.9050  -31.6180 C   0  0  0  0  0  0  0  0  0  0  0  0
   -4.8530   22.2840  -31.2340 C   0  0  0  0  0  0  0  0  0  0  0  0
   -0.9990   20.8840  -33.0600 C   0  0  0  0  0  0  0  0  0  0  0  0
   -0.8400   20.4230  -34.3760 C   0  0  0  0  0  0  0  0  0  0  0  0
    0.3470   19.8020  -34.7660 C   0  0  0  0  0  0  0  0  0  0  0  0
    1.3660   19.6310  -33.8300 C   0  0  0  0  0  0  0  0  0  0  0  0
    1.1930   20.0570  -32.5520 N   0  0  0  0  0  0  0  0  0  0  0  0
    0.0500   20.6750  -32.1400 C   0  0  0  0  0  0  0  0  0  0  0  0
   -0.1140   21.0370  -30.7950 O   0  0  0  0  0  0  0  0  0  0  0  0
   -0.2290   20.1420  -29.7220 C   0  0  0  0  0  0  0  0  0  0  0  0
    0.6890   19.0920  -29.6280 C   0  0  0  0  0  0  0  0  0  0  0  0
    0.6160   18.1810  -28.5730 C   0  0  0  0  0  0  0  0  0  0  0  0
   -0.3910   18.3000  -27.6120 C   0  0  0  0  0  0  0  0  0  0  0  0
   -1.3550   19.3180  -27.7150 C   0  0  0  0  0  0  0  0  0  0  0  0
   -2.4300   19.4730  -26.6680 C   0  0  0  0  0  0  0  0  0  0  0  0
   -3.4540   20.2710  -27.1430 F   0  0  0  0  0  0  0  0  0  0  0  0
   -1.8850   20.0580  -25.5410 F   0  0  0  0  0  0  0  0  0  0  0  0
   -2.9650   18.2430  -26.3220 F   0  0  0  0  0  0  0  0  0  0  0  0
   -1.2590   20.2460  -28.7670 C   0  0  0  0  0  0  0  0  0  0  0  0
   -1.5630   22.1990  -30.7450 H   0  0  0  0  0  0  0  0  0  0  0  0
   -2.5338   24.4445  -29.9432 H   0  0  0  0  0  0  0  0  0  0  0  0
   -4.6111   25.5404  -29.1074 H   0  0  0  0  0  0  0  0  0  0  0  0
   -6.8429   24.5577  -29.6302 H   0  0  0  0  0  0  0  0  0  0  0  0
   -7.6946   20.8831  -33.7763 H   0  0  0  0  0  0  0  0  0  0  0  0
   -6.0281   21.1120  -33.1293 H   0  0  0  0  0  0  0  0  0  0  0  0
   -6.8093   18.8890  -34.5064 H   0  0  0  0  0  0  0  0  0  0  0  0
   -5.5286   18.8879  -33.2150 H   0  0  0  0  0  0  0  0  0  0  0  0
   -7.4649   17.0823  -33.1821 H   0  0  0  0  0  0  0  0  0  0  0  0
   -6.8885   17.8670  -31.6580 H   0  0  0  0  0  0  0  0  0  0  0  0
   -9.3512   18.6456  -33.2924 H   0  0  0  0  0  0  0  0  0  0  0  0
   -9.3188   17.8125  -31.6823 H   0  0  0  0  0  0  0  0  0  0  0  0
   -9.5499   20.5585  -32.0797 H   0  0  0  0  0  0  0  0  0  0  0  0
   -9.0120   19.7270  -30.5544 H   0  0  0  0  0  0  0  0  0  0  0  0
   -4.9233   21.3732  -31.8468 H   0  0  0  0  0  0  0  0  0  0  0  0
   -1.6550   20.5519  -35.1034 H   0  0  0  0  0  0  0  0  0  0  0  0
    0.4774   19.4513  -35.8004 H   0  0  0  0  0  0  0  0  0  0  0  0
    2.3103   19.1510  -34.1266 H   0  0  0  0  0  0  0  0  0  0  0  0
    1.4742   18.9829  -30.3906 H   0  0  0  0  0  0  0  0  0  0  0  0
    1.3529   17.3677  -28.4981 H   0  0  0  0  0  0  0  0  0  0  0  0
   -0.4298   17.5932  -26.7700 H   0  0  0  0  0  0  0  0  0  0  0  0
   -1.9946   21.0601  -28.8448 H   0  0  0  0  0  0  0  0  0  0  0  0
  1  2  2  0
  2  3  1  0
  3  4  1  0
  4  5  2  0
  5  6  1  0
  6  7  2  0
  7  8  1  0
  8  9  1  0
  9 10  2  0
  9 11  2  0
  9 12  1  0
 12 13  1  0
 13 14  1  0
 14 15  1  0
 15 16  1  0
 16 17  1  0
  8 18  2  0
  2 19  1  0
 19 20  2  0
 20 21  1  0
 21 22  2  0
 22 23  1  0
 23 24  2  0
 24 25  1  0
 25 26  1  0
 26 27  2  0
 27 28  1  0
 28 29  2  0
 29 30  1  0
 30 31  1  0
 31 32  1  0
 31 33  1  0
 31 34  1  0
 30 35  2  0
 18  4  1  0
 24 19  1  0
 35 26  1  0
 17 12  1  0
  3 36  1  0
  5 37  1  0
  6 38  1  0
  7 39  1  0
 13 40  1  0
 13 41  1  0
 14 42  1  0
 14 43  1  0
 15 44  1  0
 15 45  1  0
 16 46  1  0
 16 47  1  0
 17 48  1  0
 17 49  1  0
 18 50  1  0
 20 51  1  0
 21 52  1  0
 22 53  1  0
 27 54  1  0
 28 55  1  0
 29 56  1  0
 35 57  1  0
M  END
>  <UniqueID>  (46) 
43

>  <SMILES>  (46) 
O=C(Nc1cccc(S(=O)(=O)N2CCCCC2)c1)c1cccnc1Oc1cccc(C(F)(F)F)c1

>  <Energy>  (46) 
76.771069177457

>  <Genealogy>  (46) 
O=C(Nc1cccc(S(=O)(=O)N2CCCCC2)c1)c1cccnc1Oc1cccc(C(F)(F)F)c1 (3D coordinates assigned)
O=C(Nc1cccc(S(=O)(=O)N2CCCCC2)c1)c1cccnc1Oc1cccc(C(F)(F)F)c1 (nonaromatic ring conformer: 76.771069177457 kcal/mol)

>  <smiles>  (46) 
O=C(Nc1cccc(S(=O)(=O)N2CCCCC2)c1)c1cccnc1Oc1cccc(C(F)(F)F)c1

>  <score_type>  (46) 
oracle

>  <origin>  (46) 
adgpu

>  <m_score__min__energy>  (46) 
-10.630000000000001

>  <m_primary>  (46) 
energy

$$$$
46:0
     RDKit          3D

 46 48  0  0  0  0  0  0  0  0999 V2000
   -2.4570   20.0040  -27.1030 C   0  0  0  0  0  0  0  0  0  0  0  0
   -2.4030   21.3640  -27.7320 C   0  0  0  0  0  0  0  0  0  0  0  0
   -1.1780   21.9390  -28.1010 C   0  0  0  0  0  0  0  0  0  0  0  0
   -1.1430   23.2180  -28.6590 C   0  0  0  0  0  0  0  0  0  0  0  0
   -2.3270   23.9490  -28.8300 C   0  0  0  0  0  0  0  0  0  0  0  0
   -2.2860   25.2360  -29.3660 O   0  0  0  0  0  0  0  0  0  0  0  0
   -3.5570   23.3920  -28.4500 C   0  0  0  0  0  0  0  0  0  0  0  0
   -4.7480   24.1820  -28.5850 N   0  0  0  0  0  0  0  0  0  0  0  0
   -5.4560   24.6580  -30.0940 S   0  0  0  0  0  0  0  0  0  0  0  0
   -4.3810   25.2120  -30.9860 O   0  0  0  0  0  0  0  0  0  0  0  0
   -6.4910   25.7190  -29.8490 O   0  0  0  0  0  0  0  0  0  0  0  0
   -6.2320   23.2640  -30.8410 C   0  0  0  0  0  0  0  0  0  0  0  0
   -7.5970   23.3160  -31.1490 C   0  0  0  0  0  0  0  0  0  0  0  0
   -8.2590   22.1740  -31.6050 C   0  0  0  0  0  0  0  0  0  0  0  0
   -7.5610   20.9680  -31.7570 C   0  0  0  0  0  0  0  0  0  0  0  0
   -8.4220   19.5010  -32.2210 S   0  0  0  0  0  0  0  0  0  0  0  0
   -8.9240   18.8120  -30.9830 O   0  0  0  0  0  0  0  0  0  0  0  0
   -9.6130   19.8720  -33.0620 O   0  0  0  0  0  0  0  0  0  0  0  0
   -7.3930   18.4040  -33.1120 N   0  0  0  0  0  0  0  0  0  0  0  0
   -6.4640   19.1530  -33.9750 C   0  0  0  0  0  0  0  0  0  0  0  0
   -5.4840   18.1860  -34.6730 C   0  0  0  0  0  0  0  0  0  0  0  0
   -5.7830   16.8340  -34.3770 O   0  0  0  0  0  0  0  0  0  0  0  0
   -5.6870   16.6170  -32.9790 C   0  0  0  0  0  0  0  0  0  0  0  0
   -6.6380   17.5420  -32.1890 C   0  0  0  0  0  0  0  0  0  0  0  0
   -6.1860   20.9260  -31.4900 C   0  0  0  0  0  0  0  0  0  0  0  0
   -5.5230   22.0690  -31.0330 C   0  0  0  0  0  0  0  0  0  0  0  0
   -3.5880   22.0860  -27.9240 C   0  0  0  0  0  0  0  0  0  0  0  0
   -2.4529   20.1061  -26.0078 H   0  0  0  0  0  0  0  0  0  0  0  0
   -3.3763   19.4897  -27.4199 H   0  0  0  0  0  0  0  0  0  0  0  0
   -1.5814   19.4184  -27.4199 H   0  0  0  0  0  0  0  0  0  0  0  0
   -0.2424   21.3805  -27.9502 H   0  0  0  0  0  0  0  0  0  0  0  0
   -0.1813   23.6547  -28.9662 H   0  0  0  0  0  0  0  0  0  0  0  0
   -3.1120   25.6730  -29.7570 H   0  0  0  0  0  0  0  0  0  0  0  0
   -8.1498   24.2597  -31.0314 H   0  0  0  0  0  0  0  0  0  0  0  0
   -9.3313   22.2211  -31.8456 H   0  0  0  0  0  0  0  0  0  0  0  0
   -7.0380   19.7006  -34.7370 H   0  0  0  0  0  0  0  0  0  0  0  0
   -5.8906   19.8587  -33.3560 H   0  0  0  0  0  0  0  0  0  0  0  0
   -5.5494   18.3357  -35.7608 H   0  0  0  0  0  0  0  0  0  0  0  0
   -4.4697   18.4014  -34.3059 H   0  0  0  0  0  0  0  0  0  0  0  0
   -5.9469   15.5703  -32.7624 H   0  0  0  0  0  0  0  0  0  0  0  0
   -4.6558   16.8406  -32.6681 H   0  0  0  0  0  0  0  0  0  0  0  0
   -7.3418   16.9282  -31.6077 H   0  0  0  0  0  0  0  0  0  0  0  0
   -6.0435   18.1744  -31.5132 H   0  0  0  0  0  0  0  0  0  0  0  0
   -5.6266   19.9909  -31.6404 H   0  0  0  0  0  0  0  0  0  0  0  0
   -4.4438   22.0311  -30.8237 H   0  0  0  0  0  0  0  0  0  0  0  0
   -4.5529   21.6280  -27.6611 H   0  0  0  0  0  0  0  0  0  0  0  0
  1  2  1  0
  2  3  2  0
  3  4  1  0
  4  5  2  0
  5  6  1  0
  5  7  1  0
  7  8  1  0
  8  9  1  0
  9 10  2  0
  9 11  2  0
  9 12  1  0
 12 13  2  0
 13 14  1  0
 14 15  2  0
 15 16  1  0
 16 17  2  0
 16 18  2  0
 16 19  1  0
 19 20  1  0
 20 21  1  0
 21 22  1  0
 22 23  1  0
 23 24  1  0
 15 25  1  0
 25 26  2  0
  7 27  2  0
 27  2  1  0
 26 12  1  0
 24 19  1  0
  1 28  1  0
  1 29  1  0
  1 30  1  0
  3 31  1  0
  4 32  1  0
  6 33  1  0
 13 34  1  0
 14 35  1  0
 20 36  1  0
 20 37  1  0
 21 38  1  0
 21 39  1  0
 23 40  1  0
 23 41  1  0
 24 42  1  0
 24 43  1  0
 25 44  1  0
 26 45  1  0
 27 46  1  0
M  CHG  1   8  -1
M  END
>  <UniqueID>  (47) 
44

>  <SMILES>  (47) 
Cc1ccc(O)c([N-]S(=O)(=O)c2ccc(S(=O)(=O)N3CCOCC3)cc2)c1

>  <Energy>  (47) 
54.816789587239086

>  <Genealogy>  (47) 
Cc1ccc(O)c([N-]S(=O)(=O)c2ccc(S(=O)(=O)N3CCOCC3)cc2)c1 (protonated)
Cc1ccc(O)c([N-]S(=O)(=O)c2ccc(S(=O)(=O)N3CCOCC3)cc2)c1 (3D coordinates assigned)
Cc1ccc(O)c([N-]S(=O)(=O)c2ccc(S(=O)(=O)N3CCOCC3)cc2)c1 (nonaromatic ring conformer: 54.816789587239086 kcal/mol)

>  <smiles>  (47) 
Cc1ccc(O)c(NS(=O)(=O)c2ccc(S(=O)(=O)N3CCOCC3)cc2)c1

>  <score_type>  (47) 
oracle

>  <origin>  (47) 
adgpu

>  <m_score__min__energy>  (47) 
-12.56

>  <m_primary>  (47) 
energy

$$$$
47:0
     RDKit          3D

 42 44  0  0  0  0  0  0  0  0999 V2000
   -1.9270   24.5860  -28.1480 C   0  0  0  0  0  0  0  0  0  0  0  0
   -2.4600   25.1420  -29.3460 O   0  0  0  0  0  0  0  0  0  0  0  0
   -3.6550   24.7220  -29.9500 C   0  0  0  0  0  0  0  0  0  0  0  0
   -4.6140   25.6300  -30.4360 C   0  0  0  0  0  0  0  0  0  0  0  0
   -5.7910   25.1610  -31.0290 C   0  0  0  0  0  0  0  0  0  0  0  0
   -6.0320   23.7820  -31.1430 C   0  0  0  0  0  0  0  0  0  0  0  0
   -7.2400   23.3000  -31.7600 N   0  0  0  0  0  0  0  0  0  0  0  0
   -7.6280   23.7740  -33.0880 C   0  0  0  0  0  0  0  0  0  0  0  0
   -8.2220   22.1020  -30.9680 S   0  0  0  0  0  0  0  0  0  0  0  0
   -9.6780   22.3600  -31.2370 O   0  0  0  0  0  0  0  0  0  0  0  0
   -7.9730   22.1680  -29.4870 O   0  0  0  0  0  0  0  0  0  0  0  0
   -7.8240   20.5050  -31.5940 C   0  0  0  0  0  0  0  0  0  0  0  0
   -8.6740   19.4130  -31.3620 C   0  0  0  0  0  0  0  0  0  0  0  0
   -8.3490   18.1470  -31.8570 C   0  0  0  0  0  0  0  0  0  0  0  0
   -7.1710   17.9620  -32.5900 C   0  0  0  0  0  0  0  0  0  0  0  0
   -6.8520   16.7310  -33.0720 N   0  0  0  0  0  0  0  0  0  0  0  0
   -5.7130   16.5100  -33.7840 C   0  0  0  0  0  0  0  0  0  0  0  0
   -5.4170   15.1420  -34.3080 C   0  0  0  0  0  0  0  0  0  0  0  0
   -4.8400   17.5750  -34.0510 C   0  0  0  0  0  0  0  0  0  0  0  0
   -5.1420   18.8500  -33.5680 C   0  0  0  0  0  0  0  0  0  0  0  0
   -6.3130   19.0580  -32.8300 C   0  0  0  0  0  0  0  0  0  0  0  0
   -6.6460   20.3250  -32.3320 C   0  0  0  0  0  0  0  0  0  0  0  0
   -5.0690   22.8800  -30.6620 C   0  0  0  0  0  0  0  0  0  0  0  0
   -3.8930   23.3490  -30.0700 C   0  0  0  0  0  0  0  0  0  0  0  0
   -2.3935   25.0726  -27.2787 H   0  0  0  0  0  0  0  0  0  0  0  0
   -2.1363   23.5065  -28.1200 H   0  0  0  0  0  0  0  0  0  0  0  0
   -0.8396   24.7495  -28.1200 H   0  0  0  0  0  0  0  0  0  0  0  0
   -4.4375   26.7123  -30.3493 H   0  0  0  0  0  0  0  0  0  0  0  0
   -6.5337   25.8779  -31.4090 H   0  0  0  0  0  0  0  0  0  0  0  0
   -8.3218   24.6216  -32.9866 H   0  0  0  0  0  0  0  0  0  0  0  0
   -6.7320   24.0974  -33.6381 H   0  0  0  0  0  0  0  0  0  0  0  0
   -8.1220   22.9596  -33.6381 H   0  0  0  0  0  0  0  0  0  0  0  0
   -9.6013   19.5541  -30.7874 H   0  0  0  0  0  0  0  0  0  0  0  0
   -9.0196   17.2952  -31.6704 H   0  0  0  0  0  0  0  0  0  0  0  0
   -5.2675   14.4510  -33.4653 H   0  0  0  0  0  0  0  0  0  0  0  0
   -6.2607   14.7941  -34.9222 H   0  0  0  0  0  0  0  0  0  0  0  0
   -4.5050   15.1740  -34.9222 H   0  0  0  0  0  0  0  0  0  0  0  0
   -3.9241   17.4070  -34.6366 H   0  0  0  0  0  0  0  0  0  0  0  0
   -4.4603   19.6900  -33.7673 H   0  0  0  0  0  0  0  0  0  0  0  0
   -5.9810   21.1806  -32.5208 H   0  0  0  0  0  0  0  0  0  0  0  0
   -5.2414   21.7973  -30.7518 H   0  0  0  0  0  0  0  0  0  0  0  0
   -3.1479   22.6318  -29.6951 H   0  0  0  0  0  0  0  0  0  0  0  0
  1  2  1  0
  2  3  1  0
  3  4  2  0
  4  5  1  0
  5  6  2  0
  6  7  1  0
  7  8  1  0
  7  9  1  0
  9 10  2  0
  9 11  2  0
  9 12  1  0
 12 13  2  0
 13 14  1  0
 14 15  2  0
 15 16  1  0
 16 17  2  0
 17 18  1  0
 17 19  1  0
 19 20  2  0
 20 21  1  0
 21 22  2  0
  6 23  1  0
 23 24  2  0
 24  3  1  0
 22 12  1  0
 21 15  1  0
  1 25  1  0
  1 26  1  0
  1 27  1  0
  4 28  1  0
  5 29  1  0
  8 30  1  0
  8 31  1  0
  8 32  1  0
 13 33  1  0
 14 34  1  0
 18 35  1  0
 18 36  1  0
 18 37  1  0
 19 38  1  0
 20 39  1  0
 22 40  1  0
 23 41  1  0
 24 42  1  0
M  END
>  <UniqueID>  (48) 
45

>  <SMILES>  (48) 
COc1ccc(N(C)S(=O)(=O)c2ccc3nc(C)ccc3c2)cc1

>  <Energy>  (48) 
49.92257068817518

>  <Genealogy>  (48) 
COc1ccc(N(C)S(=O)(=O)c2ccc3nc(C)ccc3c2)cc1 (3D coordinates assigned)
COc1ccc(N(C)S(=O)(=O)c2ccc3nc(C)ccc3c2)cc1 (optimized conformer: 49.92257068817518 kcal/mol)

>  <smiles>  (48) 
COc1ccc(N(C)S(=O)(=O)c2ccc3nc(C)ccc3c2)cc1

>  <score_type>  (48) 
oracle

>  <origin>  (48) 
adgpu

>  <m_score__min__energy>  (48) 
-8.9100000000000001

>  <m_primary>  (48) 
energy

$$$$
48:0
     RDKit          3D

 55 58  0  0  0  0  0  0  0  0999 V2000
   -0.3820   23.7340  -29.2310 H   0  0  0  0  0  0  0  0  0  0  0  0
   -1.0470   22.9840  -29.3840 O   0  0  0  0  0  0  0  0  0  0  0  0
   -2.4070   23.2390  -29.5520 C   0  0  0  0  0  0  0  0  0  0  0  0
   -3.3080   22.1860  -29.7580 C   0  0  0  0  0  0  0  0  0  0  0  0
   -2.9416   21.1493  -29.7883 H   0  0  0  0  0  0  0  0  0  0  0  0
   -4.6700   22.4480  -29.9250 C   0  0  0  0  0  0  0  0  0  0  0  0
   -5.3713   21.6169  -30.0908 H   0  0  0  0  0  0  0  0  0  0  0  0
   -5.1480   23.7690  -29.8820 C   0  0  0  0  0  0  0  0  0  0  0  0
   -6.6100   24.0590  -30.0990 C   0  0  0  0  0  0  0  0  0  0  0  0
   -6.8074   25.1114  -29.8471 H   0  0  0  0  0  0  0  0  0  0  0  0
   -7.1958   23.3871  -29.4545 H   0  0  0  0  0  0  0  0  0  0  0  0
   -7.0180   23.8100  -31.5510 C   0  0  0  0  0  0  0  0  0  0  0  0
   -6.1178   23.7901  -32.1828 H   0  0  0  0  0  0  0  0  0  0  0  0
   -7.6894   24.6176  -31.8781 H   0  0  0  0  0  0  0  0  0  0  0  0
   -7.7180   22.5320  -31.6680 N   0  0  0  0  0  0  0  0  0  0  0  0
   -7.1620   21.4350  -32.0870 C   0  0  0  0  0  0  0  0  0  0  0  0
   -7.9010   20.2980  -32.1560 N   0  0  0  0  0  0  0  0  0  0  0  0
   -7.3510   19.1330  -32.5830 C   0  0  0  0  0  0  0  0  0  0  0  0
   -7.9640   18.2209  -32.6303 H   0  0  0  0  0  0  0  0  0  0  0  0
   -6.0090   19.0910  -32.9620 C   0  0  0  0  0  0  0  0  0  0  0  0
   -5.5528   18.1508  -33.3053 H   0  0  0  0  0  0  0  0  0  0  0  0
   -5.2520   20.2710  -32.8970 C   0  0  0  0  0  0  0  0  0  0  0  0
   -3.8160   20.3060  -33.2770 C   0  0  0  0  0  0  0  0  0  0  0  0
   -3.1780   19.1850  -33.8420 C   0  0  0  0  0  0  0  0  0  0  0  0
   -3.7471   18.2580  -34.0053 H   0  0  0  0  0  0  0  0  0  0  0  0
   -1.8270   19.2410  -34.1970 C   0  0  0  0  0  0  0  0  0  0  0  0
   -1.3389   18.3580  -34.6352 H   0  0  0  0  0  0  0  0  0  0  0  0
   -1.0920   20.4170  -33.9970 C   0  0  0  0  0  0  0  0  0  0  0  0
    0.6170   20.4790  -34.4360 S   0  0  0  0  0  0  0  0  0  0  0  0
    1.4400   19.9640  -33.2880 O   0  0  0  0  0  0  0  0  0  0  0  0
    0.8590   19.5830  -35.6200 O   0  0  0  0  0  0  0  0  0  0  0  0
    1.1250   22.1040  -34.8250 N   0  0  0  0  0  0  0  0  0  0  0  0
    2.5550   22.1230  -35.1850 C   0  0  0  0  0  0  0  0  0  0  0  0
    3.1537   21.9586  -34.2770 H   0  0  0  0  0  0  0  0  0  0  0  0
    2.7339   21.3277  -35.9236 H   0  0  0  0  0  0  0  0  0  0  0  0
    2.9650   23.4700  -35.8180 C   0  0  0  0  0  0  0  0  0  0  0  0
    3.9226   23.7919  -35.3828 H   0  0  0  0  0  0  0  0  0  0  0  0
    3.0555   23.3255  -36.9047 H   0  0  0  0  0  0  0  0  0  0  0  0
    1.9580   24.5110  -35.5760 N   0  0  0  0  0  0  0  0  0  0  0  0
    1.8530   24.6400  -34.5420 H   0  0  0  0  0  0  0  0  0  0  0  0
    0.6520   24.1360  -36.1460 C   0  0  0  0  0  0  0  0  0  0  0  0
   -0.1282   24.7507  -35.6733 H   0  0  0  0  0  0  0  0  0  0  0  0
    0.7010   24.3067  -37.2316 H   0  0  0  0  0  0  0  0  0  0  0  0
    0.3120   22.6480  -35.9220 C   0  0  0  0  0  0  0  0  0  0  0  0
   -0.7538   22.5527  -35.6670 H   0  0  0  0  0  0  0  0  0  0  0  0
    0.5280   22.0866  -36.8430 H   0  0  0  0  0  0  0  0  0  0  0  0
   -1.7230   21.5400  -33.4490 C   0  0  0  0  0  0  0  0  0  0  0  0
   -1.1530   22.4684  -33.2965 H   0  0  0  0  0  0  0  0  0  0  0  0
   -3.0730   21.4870  -33.0950 C   0  0  0  0  0  0  0  0  0  0  0  0
   -3.5601   22.3770  -32.6699 H   0  0  0  0  0  0  0  0  0  0  0  0
   -5.8510   21.4110  -32.4550 N   0  0  0  0  0  0  0  0  0  0  0  0
   -4.2400   24.8230  -29.6860 C   0  0  0  0  0  0  0  0  0  0  0  0
   -4.6028   25.8612  -29.6637 H   0  0  0  0  0  0  0  0  0  0  0  0
   -2.8760   24.5580  -29.5190 C   0  0  0  0  0  0  0  0  0  0  0  0
   -1.9900   25.6100  -29.3200 O   0  0  0  0  0  0  0  0  0  0  0  0
  1  2  1  0
  2  3  1  0
  3  4  2  0
  4  5  1  0
  4  6  1  0
  6  7  1  0
  6  8  2  0
  8  9  1  0
  9 10  1  0
  9 11  1  0
  9 12  1  0
 12 13  1  0
 12 14  1  0
 12 15  1  0
 15 16  2  0
 16 17  1  0
 17 18  2  0
 18 19  1  0
 18 20  1  0
 20 21  1  0
 20 22  2  0
 22 23  1  0
 23 24  2  0
 24 25  1  0
 24 26  1  0
 26 27  1  0
 26 28  2  0
 28 29  1  0
 29 30  2  0
 29 31  2  0
 29 32  1  0
 32 33  1  0
 33 34  1  0
 33 35  1  0
 33 36  1  0
 36 37  1  0
 36 38  1  0
 36 39  1  0
 39 40  1  0
 39 41  1  0
 41 42  1  0
 41 43  1  0
 41 44  1  0
 44 45  1  0
 44 46  1  0
 28 47  1  0
 47 48  1  0
 47 49  2  0
 49 50  1  0
 22 51  1  0
  8 52  1  0
 52 53  1  0
 52 54  2  0
 54 55  1  0
 54  3  1  0
 51 16  1  0
 49 23  1  0
 44 32  1  0
M  CHG  2  51  -1  55  -1
M  END
>  <UniqueID>  (49) 
46

>  <SMILES>  (49) 
O=S(=O)(c1ccc(-c2ccn/c(=N/CCc3ccc(O)c([O-])c3)[n-]2)cc1)N1CCNCC1

>  <Energy>  (49) 
64.42495212671149

>  <Genealogy>  (49) 
O=S(=O)(c1ccc(-c2ccnc(=NCCc3ccc(O)c([O-])c3)[n-]2)cc1)N1CCNCC1 (protonated)
O=S(=O)(c1ccc(-c2ccn/c(=N/CCc3ccc(O)c([O-])c3)[n-]2)cc1)N1CCNCC1 (cis-trans isomerization)
O=S(=O)(c1ccc(-c2ccn/c(=N/CCc3ccc(O)c([O-])c3)[n-]2)cc1)N1CCNCC1 (3D coordinates assigned)
O=S(=O)(c1ccc(-c2ccn/c(=N/CCc3ccc(O)c([O-])c3)[n-]2)cc1)N1CCNCC1 (nonaromatic ring conformer: 64.42495212671149 kcal/mol)

>  <smiles>  (49) 
O=S(=O)(c1ccc(-c2ccnc(=NCCc3ccc(O)c(O)c3)[nH]2)cc1)N1CCNCC1

>  <score_type>  (49) 
oracle

>  <origin>  (49) 
adgpu

>  <m_score__min__energy>  (49) 
-12.17

>  <m_primary>  (49) 
energy

$$$$
