0:0
     RDKit          3D

 44 47  0  0  0  0  0  0  0  0999 V2000
   -3.7760   18.6090  -26.7070 C   0  0  0  0  0  0  0  0  0  0  0  0
   -2.7250   19.6640  -26.8840 C   0  0  0  0  0  0  0  0  0  0  0  0
   -1.9180   20.0480  -25.8010 C   0  0  0  0  0  0  0  0  0  0  0  0
   -0.9140   21.0060  -25.9760 C   0  0  0  0  0  0  0  0  0  0  0  0
   -0.7040   21.5830  -27.2330 C   0  0  0  0  0  0  0  0  0  0  0  0
    0.5790   22.8160  -27.4540 S   0  0  0  0  0  0  0  0  0  0  0  0
   -0.3580   24.0910  -26.5950 C   0  0  0  0  0  0  0  0  0  0  0  0
   -0.2190   24.1870  -25.2040 C   0  0  0  0  0  0  0  0  0  0  0  0
   -0.8620   25.2030  -24.4960 C   0  0  0  0  0  0  0  0  0  0  0  0
   -1.6460   26.1380  -25.1730 C   0  0  0  0  0  0  0  0  0  0  0  0
   -1.8010   26.0490  -26.5580 C   0  0  0  0  0  0  0  0  0  0  0  0
   -1.1810   25.0170  -27.2820 C   0  0  0  0  0  0  0  0  0  0  0  0
   -1.4090   24.9400  -28.7420 C   0  0  0  0  0  0  0  0  0  0  0  0
   -0.4730   24.5480  -29.4870 O   0  0  0  0  0  0  0  0  0  0  0  0
   -2.6680   25.2800  -29.3400 N   0  0  0  0  0  0  0  0  0  0  0  0
   -3.5730   24.3780  -29.9940 C   0  0  0  0  0  0  0  0  0  0  0  0
   -3.0650   23.1910  -30.5360 C   0  0  0  0  0  0  0  0  0  0  0  0
   -3.9120   22.2820  -31.1760 C   0  0  0  0  0  0  0  0  0  0  0  0
   -5.2770   22.5600  -31.2940 C   0  0  0  0  0  0  0  0  0  0  0  0
   -6.1050   21.6750  -31.9140 N   0  0  0  0  0  0  0  0  0  0  0  0
   -7.4350   21.9180  -32.0510 C   0  0  0  0  0  0  0  0  0  0  0  0
   -7.9900   23.1010  -31.5530 C   0  0  0  0  0  0  0  0  0  0  0  0
   -7.1660   24.0290  -30.9120 C   0  0  0  0  0  0  0  0  0  0  0  0
   -5.7960   23.7660  -30.7750 C   0  0  0  0  0  0  0  0  0  0  0  0
   -4.9410   24.6760  -30.1370 C   0  0  0  0  0  0  0  0  0  0  0  0
   -1.4890   21.1850  -28.3220 C   0  0  0  0  0  0  0  0  0  0  0  0
   -2.4930   20.2260  -28.1500 C   0  0  0  0  0  0  0  0  0  0  0  0
   -3.9466   18.4378  -25.6339 H   0  0  0  0  0  0  0  0  0  0  0  0
   -4.7125   18.9416  -27.1786 H   0  0  0  0  0  0  0  0  0  0  0  0
   -3.4399   17.6738  -27.1786 H   0  0  0  0  0  0  0  0  0  0  0  0
   -2.0759   19.5939  -24.8116 H   0  0  0  0  0  0  0  0  0  0  0  0
   -0.2879   21.3065  -25.1230 H   0  0  0  0  0  0  0  0  0  0  0  0
    0.4019   23.4556  -24.6659 H   0  0  0  0  0  0  0  0  0  0  0  0
   -0.7508   25.2669  -23.4035 H   0  0  0  0  0  0  0  0  0  0  0  0
   -2.1423   26.9458  -24.6153 H   0  0  0  0  0  0  0  0  0  0  0  0
   -2.4141   26.7936  -27.0868 H   0  0  0  0  0  0  0  0  0  0  0  0
   -1.9899   22.9721  -30.4574 H   0  0  0  0  0  0  0  0  0  0  0  0
   -3.5042   21.3468  -31.5873 H   0  0  0  0  0  0  0  0  0  0  0  0
   -8.0775   21.1813  -32.5555 H   0  0  0  0  0  0  0  0  0  0  0  0
   -9.0662   23.2990  -31.6651 H   0  0  0  0  0  0  0  0  0  0  0  0
   -7.5908   24.9632  -30.5160 H   0  0  0  0  0  0  0  0  0  0  0  0
   -5.3401   25.6242  -29.7477 H   0  0  0  0  0  0  0  0  0  0  0  0
   -1.3160   21.6270  -29.3143 H   0  0  0  0  0  0  0  0  0  0  0  0
   -3.1029   19.9110  -29.0095 H   0  0  0  0  0  0  0  0  0  0  0  0
  1  2  1  0
  2  3  2  0
  3  4  1  0
  4  5  2  0
  5  6  1  0
  6  7  1  0
  7  8  2  0
  8  9  1  0
  9 10  2  0
 10 11  1  0
 11 12  2  0
 12 13  1  0
 13 14  2  0
 13 15  1  0
 15 16  1  0
 16 17  2  0
 17 18  1  0
 18 19  2  0
 19 20  1  0
 20 21  2  0
 21 22  1  0
 22 23  2  0
 23 24  1  0
 24 25  2  0
  5 26  1  0
 26 27  2  0
 27  2  1  0
 12  7  1  0
 25 16  1  0
 24 19  1  0
  1 28  1  0
  1 29  1  0
  1 30  1  0
  3 31  1  0
  4 32  1  0
  8 33  1  0
  9 34  1  0
 10 35  1  0
 11 36  1  0
 17 37  1  0
 18 38  1  0
 21 39  1  0
 22 40  1  0
 23 41  1  0
 25 42  1  0
 26 43  1  0
 27 44  1  0
M  CHG  1  15  -1
M  END
>  <UniqueID>  (1) 
1

>  <SMILES>  (1) 
Cc1ccc(Sc2ccccc2C(=O)[N-]c2ccc3ncccc3c2)cc1

>  <Energy>  (1) 
55.32801851208152

>  <Genealogy>  (1) 
Cc1ccc(Sc2ccccc2C(=O)[N-]c2ccc3ncccc3c2)cc1 (protonated)
Cc1ccc(Sc2ccccc2C(=O)[N-]c2ccc3ncccc3c2)cc1 (3D coordinates assigned)
Cc1ccc(Sc2ccccc2C(=O)[N-]c2ccc3ncccc3c2)cc1 (optimized conformer: 55.32801851208152 kcal/mol)

>  <smiles>  (1) 
Cc1ccc(Sc2ccccc2C(=O)Nc2ccc3ncccc3c2)cc1

>  <score_type>  (1) 
oracle

>  <origin>  (1) 
adgpu

>  <m_score__min__energy>  (1) 
-11.15

>  <m_primary>  (1) 
energy

$$$$
1:0
     RDKit          3D

 50 53  0  0  0  0  0  0  0  0999 V2000
   -4.2230   25.6190  -31.5470 H   0  0  0  0  0  0  0  0  0  0  0  0
   -5.1580   25.6480  -31.2120 O   0  0  0  0  0  0  0  0  0  0  0  0
   -5.5800   24.3170  -31.0940 C   0  0  0  0  0  0  0  0  0  0  0  0
   -6.3824   24.1240  -31.8212 H   0  0  0  0  0  0  0  0  0  0  0  0
   -5.9512   24.1464  -30.0727 H   0  0  0  0  0  0  0  0  0  0  0  0
   -4.4270   23.3810  -31.3630 C   0  0  0  0  0  0  0  0  0  0  0  0
   -4.6010   22.3110  -32.2540 C   0  0  0  0  0  0  0  0  0  0  0  0
   -5.5799   22.1540  -32.7306 H   0  0  0  0  0  0  0  0  0  0  0  0
   -3.5370   21.4360  -32.5450 C   0  0  0  0  0  0  0  0  0  0  0  0
   -3.6720   20.3910  -33.4760 O   0  0  0  0  0  0  0  0  0  0  0  0
   -3.5810   19.0060  -33.1590 C   0  0  0  0  0  0  0  0  0  0  0  0
   -3.5727   18.8797  -32.0663 H   0  0  0  0  0  0  0  0  0  0  0  0
   -4.4462   18.4752  -33.5829 H   0  0  0  0  0  0  0  0  0  0  0  0
   -2.6538   18.5930  -33.5829 H   0  0  0  0  0  0  0  0  0  0  0  0
   -2.2970   21.6230  -31.9040 C   0  0  0  0  0  0  0  0  0  0  0  0
   -1.1830   20.7480  -32.1460 N   0  0  0  0  0  0  0  0  0  0  0  0
   -0.3070   20.8860  -33.0980 C   0  0  0  0  0  0  0  0  0  0  0  0
   -0.4290   21.8720  -34.0300 N   0  0  0  0  0  0  0  0  0  0  0  0
    0.4810   22.0270  -35.0260 C   0  0  0  0  0  0  0  0  0  0  0  0
    0.2790   23.0770  -35.9860 N   0  0  0  0  0  0  0  0  0  0  0  0
    0.8060   24.2650  -35.9570 C   0  0  0  0  0  0  0  0  0  0  0  0
    1.5750   24.7440  -34.9600 N   0  0  0  0  0  0  0  0  0  0  0  0
    1.8790   25.9940  -35.2700 N   0  0  0  0  0  0  0  0  0  0  0  0
    2.4700   26.6070  -34.6670 H   0  0  0  0  0  0  0  0  0  0  0  0
    1.3060   26.3170  -36.4500 C   0  0  0  0  0  0  0  0  0  0  0  0
    1.3940   27.6470  -37.1550 C   0  0  0  0  0  0  0  0  0  0  0  0
    2.4911   27.7045  -37.1006 H   0  0  0  0  0  0  0  0  0  0  0  0
    0.2520   28.6170  -36.8980 C   0  0  0  0  0  0  0  0  0  0  0  0
   -0.5471   28.3508  -36.1905 H   0  0  0  0  0  0  0  0  0  0  0  0
    0.1806   29.6685  -36.5830 H   0  0  0  0  0  0  0  0  0  0  0  0
    0.3540   27.8990  -38.2360 C   0  0  0  0  0  0  0  0  0  0  0  0
   -0.3711   27.1136  -38.4956 H   0  0  0  0  0  0  0  0  0  0  0  0
    0.3870   28.2162  -39.2888 H   0  0  0  0  0  0  0  0  0  0  0  0
    0.6010   25.2280  -36.9220 C   0  0  0  0  0  0  0  0  0  0  0  0
    0.0143   25.1476  -37.8490 H   0  0  0  0  0  0  0  0  0  0  0  0
    1.5440   21.1150  -35.1270 C   0  0  0  0  0  0  0  0  0  0  0  0
    2.2788   21.1967  -35.9415 H   0  0  0  0  0  0  0  0  0  0  0  0
    1.6480   20.1040  -34.1730 C   0  0  0  0  0  0  0  0  0  0  0  0
    2.4780   19.3839  -34.2239 H   0  0  0  0  0  0  0  0  0  0  0  0
    0.7260   20.0070  -33.1810 N   0  0  0  0  0  0  0  0  0  0  0  0
   -2.1110   22.7210  -31.0580 C   0  0  0  0  0  0  0  0  0  0  0  0
   -1.1289   22.8854  -30.5907 H   0  0  0  0  0  0  0  0  0  0  0  0
   -3.1600   23.6160  -30.7970 C   0  0  0  0  0  0  0  0  0  0  0  0
   -2.9740   24.7260  -29.9040 N   0  0  0  0  0  0  0  0  0  0  0  0
   -1.9100   24.8910  -28.9570 C   0  0  0  0  0  0  0  0  0  0  0  0
   -1.2340   25.9530  -28.9800 O   0  0  0  0  0  0  0  0  0  0  0  0
   -1.5520   23.8230  -27.9700 C   0  0  0  0  0  0  0  0  0  0  0  0
   -1.6816   24.2096  -26.9483 H   0  0  0  0  0  0  0  0  0  0  0  0
   -2.2073   22.9521  -28.1184 H   0  0  0  0  0  0  0  0  0  0  0  0
   -0.5042   23.5230  -28.1184 H   0  0  0  0  0  0  0  0  0  0  0  0
  1  2  1  0
  2  3  1  0
  3  4  1  0
  3  5  1  0
  3  6  1  0
  6  7  2  0
  7  8  1  0
  7  9  1  0
  9 10  1  0
 10 11  1  0
 11 12  1  0
 11 13  1  0
 11 14  1  0
  9 15  2  0
 15 16  1  0
 16 17  2  0
 17 18  1  0
 18 19  2  0
 19 20  1  0
 20 21  2  3
 21 22  1  0
 22 23  1  0
 23 24  1  0
 23 25  1  0
 25 26  1  0
 26 27  1  0
 26 28  1  0
 28 29  1  0
 28 30  1  0
 28 31  1  0
 31 32  1  0
 31 33  1  0
 25 34  2  0
 34 35  1  0
 19 36  1  0
 36 37  1  0
 36 38  2  0
 38 39  1  0
 38 40  1  0
 15 41  1  0
 41 42  1  0
 41 43  2  0
 43 44  1  0
 44 45  1  0
 45 46  2  0
 45 47  1  0
 47 48  1  0
 47 49  1  0
 47 50  1  0
 43  6  1  0
 40 17  1  0
 34 21  1  0
 31 26  1  0
M  CHG  3  22  -1  40  -1  44  -1
M  END
>  <UniqueID>  (2) 
2

>  <SMILES>  (2) 
COc1cc(CO)c([N-]C(C)=O)cc1/N=c1\nc(N=c2cc(C3CC3)[nH][n-]2)cc[n-]1

>  <Energy>  (2) 
365.3551933879589

>  <Genealogy>  (2) 
COc1cc(CO)c([N-]C(C)=O)cc1N=c1nc(N=c2cc(C3CC3)[nH][n-]2)cc[n-]1 (protonated)
COc1cc(CO)c([N-]C(C)=O)cc1/N=c1\nc(N=c2cc(C3CC3)[nH][n-]2)cc[n-]1 (cis-trans isomerization)
COc1cc(CO)c([N-]C(C)=O)cc1/N=c1\nc(N=c2cc(C3CC3)[nH][n-]2)cc[n-]1 (3D coordinates assigned)
COc1cc(CO)c([N-]C(C)=O)cc1/N=c1\nc(N=c2cc(C3CC3)[nH][n-]2)cc[n-]1 (nonaromatic ring conformer: 365.3551933879589 kcal/mol)

>  <smiles>  (2) 
COc1cc(CO)c(NC(C)=O)cc1N=c1nc(N=c2cc(C3CC3)[nH][nH]2)cc[nH]1

>  <score_type>  (2) 
oracle

>  <origin>  (2) 
adgpu

>  <m_score__min__energy>  (2) 
-10.73

>  <m_primary>  (2) 
energy

$$$$
2:0
     RDKit          3D

 38 39  0  0  0  0  0  0  0  0999 V2000
    0.1370   26.6440  -25.3170 C   0  0  0  0  0  0  0  0  0  0  0  0
   -0.7070   25.9500  -26.3450 C   0  0  0  0  0  0  0  0  0  0  0  0
   -0.1550   25.5820  -27.5780 C   0  0  0  0  0  0  0  0  0  0  0  0
   -0.9260   24.8960  -28.5180 C   0  0  0  0  0  0  0  0  0  0  0  0
   -2.2560   24.5510  -28.2350 C   0  0  0  0  0  0  0  0  0  0  0  0
   -3.0110   23.8190  -29.2120 N   0  0  0  0  0  0  0  0  0  0  0  0
   -3.7400   24.3160  -30.2300 C   0  0  0  0  0  0  0  0  0  0  0  0
   -3.8650   25.6680  -30.5290 O   0  0  0  0  0  0  0  0  0  0  0  0
   -4.3660   23.2770  -30.8890 C   0  0  0  0  0  0  0  0  0  0  0  0
   -5.3250   23.3900  -32.0390 C   0  0  0  0  0  0  0  0  0  0  0  0
   -6.7790   23.5760  -31.5600 C   0  0  0  0  0  0  0  0  0  0  0  0
   -7.4980   22.2220  -31.5210 C   0  0  0  0  0  0  0  0  0  0  0  0
   -6.8370   24.2420  -30.1760 C   0  0  0  0  0  0  0  0  0  0  0  0
   -4.0510   22.1240  -30.2640 N   0  0  0  0  0  0  0  0  0  0  0  0
   -3.2370   22.4880  -29.2540 C   0  0  0  0  0  0  0  0  0  0  0  0
   -2.7420   21.6680  -28.4340 O   0  0  0  0  0  0  0  0  0  0  0  0
   -2.8260   24.9320  -26.9980 C   0  0  0  0  0  0  0  0  0  0  0  0
   -4.2570   24.6120  -26.6590 C   0  0  0  0  0  0  0  0  0  0  0  0
   -2.0350   25.6060  -26.0530 C   0  0  0  0  0  0  0  0  0  0  0  0
   -0.2056   26.3623  -24.3104 H   0  0  0  0  0  0  0  0  0  0  0  0
    1.1882   26.3456  -25.4434 H   0  0  0  0  0  0  0  0  0  0  0  0
    0.0473   27.7330  -25.4434 H   0  0  0  0  0  0  0  0  0  0  0  0
    0.8908   25.8346  -27.8070 H   0  0  0  0  0  0  0  0  0  0  0  0
   -0.4869   24.6236  -29.4891 H   0  0  0  0  0  0  0  0  0  0  0  0
   -5.0404   24.2554  -32.6555 H   0  0  0  0  0  0  0  0  0  0  0  0
   -5.2740   22.4561  -32.6181 H   0  0  0  0  0  0  0  0  0  0  0  0
   -7.2865   24.2394  -32.2758 H   0  0  0  0  0  0  0  0  0  0  0  0
   -7.6575   21.9216  -30.4749 H   0  0  0  0  0  0  0  0  0  0  0  0
   -8.4693   22.3078  -32.0301 H   0  0  0  0  0  0  0  0  0  0  0  0
   -6.8829   21.4654  -32.0301 H   0  0  0  0  0  0  0  0  0  0  0  0
   -6.7698   23.4705  -29.3948 H   0  0  0  0  0  0  0  0  0  0  0  0
   -5.9966   24.9440  -30.0714 H   0  0  0  0  0  0  0  0  0  0  0  0
   -7.7861   24.7881  -30.0714 H   0  0  0  0  0  0  0  0  0  0  0  0
   -4.3850   21.1620  -30.4970 H   0  0  0  0  0  0  0  0  0  0  0  0
   -4.3777   24.5850  -25.5660 H   0  0  0  0  0  0  0  0  0  0  0  0
   -4.9156   25.3850  -27.0816 H   0  0  0  0  0  0  0  0  0  0  0  0
   -4.5236   23.6321  -27.0816 H   0  0  0  0  0  0  0  0  0  0  0  0
   -2.4617   25.8669  -25.0733 H   0  0  0  0  0  0  0  0  0  0  0  0
  1  2  1  0
  2  3  2  0
  3  4  1  0
  4  5  2  0
  5  6  1  0
  6  7  1  0
  7  8  1  0
  7  9  2  0
  9 10  1  0
 10 11  1  0
 11 12  1  0
 11 13  1  0
  9 14  1  0
 14 15  1  0
 15 16  2  0
  5 17  1  0
 17 18  1  0
 17 19  2  0
 19  2  1  0
 15  6  1  0
  1 20  1  0
  1 21  1  0
  1 22  1  0
  3 23  1  0
  4 24  1  0
 10 25  1  0
 10 26  1  0
 11 27  1  0
 12 28  1  0
 12 29  1  0
 12 30  1  0
 13 31  1  0
 13 32  1  0
 13 33  1  0
 14 34  1  0
 18 35  1  0
 18 36  1  0
 18 37  1  0
 19 38  1  0
M  CHG  1   8  -1
M  END
>  <UniqueID>  (3) 
3

>  <SMILES>  (3) 
Cc1ccc(-n2c([O-])c(CC(C)C)[nH]c2=O)c(C)c1

>  <Energy>  (3) 
70.5935178026617

>  <Genealogy>  (3) 
Cc1ccc(-n2c([O-])c(CC(C)C)[nH]c2=O)c(C)c1 (protonated)
Cc1ccc(-n2c([O-])c(CC(C)C)[nH]c2=O)c(C)c1 (3D coordinates assigned)
Cc1ccc(-n2c([O-])c(CC(C)C)[nH]c2=O)c(C)c1 (optimized conformer: 70.5935178026617 kcal/mol)

>  <smiles>  (3) 
Cc1ccc(-n2c(O)c(CC(C)C)[nH]c2=O)c(C)c1

>  <score_type>  (3) 
oracle

>  <origin>  (3) 
adgpu

>  <m_score__min__energy>  (3) 
-9.4900000000000002

>  <m_primary>  (3) 
energy

$$$$
3:0
     RDKit          3D

 31 33  0  0  0  0  0  0  0  0999 V2000
   -2.8120   18.2780  -34.5810 O   0  0  0  0  0  0  0  0  0  0  0  0
   -3.6370   18.9400  -33.8880 C   0  0  0  0  0  0  0  0  0  0  0  0
   -3.1830   20.2060  -33.5280 C   0  0  0  0  0  0  0  0  0  0  0  0
   -3.7850   21.2040  -32.7870 C   0  0  0  0  0  0  0  0  0  0  0  0
   -5.0310   21.2110  -32.1730 C   0  0  0  0  0  0  0  0  0  0  0  0
   -5.3980   22.4480  -31.4320 C   0  0  0  0  0  0  0  0  0  0  0  0
   -6.6840   22.5950  -30.8830 C   0  0  0  0  0  0  0  0  0  0  0  0
   -7.0280   23.7580  -30.1860 C   0  0  0  0  0  0  0  0  0  0  0  0
   -6.0910   24.7880  -30.0290 C   0  0  0  0  0  0  0  0  0  0  0  0
   -6.4280   25.9500  -29.3370 O   0  0  0  0  0  0  0  0  0  0  0  0
   -4.8080   24.6490  -30.5740 C   0  0  0  0  0  0  0  0  0  0  0  0
   -3.8730   25.6660  -30.4210 O   0  0  0  0  0  0  0  0  0  0  0  0
   -4.4630   23.4870  -31.2710 C   0  0  0  0  0  0  0  0  0  0  0  0
   -5.9680   20.1760  -32.1840 C   0  0  0  0  0  0  0  0  0  0  0  0
   -5.9440   18.9080  -32.7950 C   0  0  0  0  0  0  0  0  0  0  0  0
   -7.1190   18.1400  -32.5840 C   0  0  0  0  0  0  0  0  0  0  0  0
   -7.2740   16.8670  -33.1110 C   0  0  0  0  0  0  0  0  0  0  0  0
   -6.2620   16.3080  -33.8670 C   0  0  0  0  0  0  0  0  0  0  0  0
   -5.0930   17.0230  -34.0960 C   0  0  0  0  0  0  0  0  0  0  0  0
   -4.8860   18.3350  -33.5760 C   0  0  0  0  0  0  0  0  0  0  0  0
   -2.1759   20.4527  -33.8954 H   0  0  0  0  0  0  0  0  0  0  0  0
   -3.1939   22.1238  -32.6659 H   0  0  0  0  0  0  0  0  0  0  0  0
   -7.4244   21.7903  -31.0024 H   0  0  0  0  0  0  0  0  0  0  0  0
   -8.0366   23.8643  -29.7601 H   0  0  0  0  0  0  0  0  0  0  0  0
   -5.7180   26.5970  -29.0140 H   0  0  0  0  0  0  0  0  0  0  0  0
   -3.4538   23.3844  -31.6963 H   0  0  0  0  0  0  0  0  0  0  0  0
   -6.8856   20.3886  -31.6158 H   0  0  0  0  0  0  0  0  0  0  0  0
   -7.9337   18.5692  -31.9823 H   0  0  0  0  0  0  0  0  0  0  0  0
   -8.2007   16.3035  -32.9275 H   0  0  0  0  0  0  0  0  0  0  0  0
   -6.3815   15.2984  -34.2870 H   0  0  0  0  0  0  0  0  0  0  0  0
   -4.2984   16.5607  -34.7001 H   0  0  0  0  0  0  0  0  0  0  0  0
  1  2  2  0
  2  3  1  0
  3  4  2  0
  4  5  1  0
  5  6  1  0
  6  7  2  0
  7  8  1  0
  8  9  2  0
  9 10  1  0
  9 11  1  0
 11 12  1  0
 11 13  2  0
  5 14  2  0
 14 15  1  0
 15 16  2  0
 16 17  1  0
 17 18  2  0
 18 19  1  0
 19 20  2  0
 20  2  1  0
 13  6  1  0
 20 15  1  0
  3 21  1  0
  4 22  1  0
  7 23  1  0
  8 24  1  0
 10 25  1  0
 13 26  1  0
 14 27  1  0
 16 28  1  0
 17 29  1  0
 18 30  1  0
 19 31  1  0
M  CHG  1  12  -1
M  END
>  <UniqueID>  (4) 
4

>  <SMILES>  (4) 
O=c1ccc(-c2ccc(O)c([O-])c2)cc2ccccc12

>  <Energy>  (4) 
72.05431892605978

>  <Genealogy>  (4) 
O=c1ccc(-c2ccc(O)c([O-])c2)cc2ccccc12 (protonated)
O=c1ccc(-c2ccc(O)c([O-])c2)cc2ccccc12 (3D coordinates assigned)
O=c1ccc(-c2ccc(O)c([O-])c2)cc2ccccc12 (optimized conformer: 72.05431892605978 kcal/mol)

>  <smiles>  (4) 
O=c1ccc(-c2ccc(O)c(O)c2)cc2ccccc12

>  <score_type>  (4) 
oracle

>  <origin>  (4) 
adgpu

>  <m_score__min__energy>  (4) 
-10.960000000000001

>  <m_primary>  (4) 
energy

$$$$
4:0
     RDKit          3D

 48 51  0  0  0  0  0  0  0  0999 V2000
   -3.8530   22.4340  -27.4860 C   0  0  0  0  0  0  0  0  0  0  0  0
   -2.7340   23.3670  -27.8460 C   0  0  0  0  0  0  0  0  0  0  0  0
   -2.7640   24.3670  -28.8100 C   0  0  0  0  0  0  0  0  0  0  0  0
   -3.8510   24.7440  -29.6650 N   0  0  0  0  0  0  0  0  0  0  0  0
   -4.6030   23.9270  -30.3450 C   0  0  0  0  0  0  0  0  0  0  0  0
   -4.3530   22.4640  -30.3990 C   0  0  0  0  0  0  0  0  0  0  0  0
   -5.1380   21.6660  -31.1290 C   0  0  0  0  0  0  0  0  0  0  0  0
   -6.2620   22.2320  -31.9220 C   0  0  0  0  0  0  0  0  0  0  0  0
   -7.0640   21.4980  -32.6400 N   0  0  0  0  0  0  0  0  0  0  0  0
   -6.9390   20.0940  -32.9080 C   0  0  0  0  0  0  0  0  0  0  0  0
   -7.7420   19.1900  -32.2000 C   0  0  0  0  0  0  0  0  0  0  0  0
   -7.6800   17.8220  -32.4800 C   0  0  0  0  0  0  0  0  0  0  0  0
   -6.8330   17.3500  -33.4870 C   0  0  0  0  0  0  0  0  0  0  0  0
   -6.0550   18.2500  -34.2220 C   0  0  0  0  0  0  0  0  0  0  0  0
   -6.1150   19.6180  -33.9440 C   0  0  0  0  0  0  0  0  0  0  0  0
   -6.5150   23.6860  -31.8490 C   0  0  0  0  0  0  0  0  0  0  0  0
   -5.7280   24.4820  -31.1210 C   0  0  0  0  0  0  0  0  0  0  0  0
   -1.5770   25.0420  -28.6650 C   0  0  0  0  0  0  0  0  0  0  0  0
   -1.2110   26.0430  -29.3380 O   0  0  0  0  0  0  0  0  0  0  0  0
   -0.8420   24.4570  -27.6970 N   0  0  0  0  0  0  0  0  0  0  0  0
    0.4780   24.8550  -27.2860 C   0  0  0  0  0  0  0  0  0  0  0  0
    1.5710   23.9920  -27.4720 C   0  0  0  0  0  0  0  0  0  0  0  0
    2.8540   24.3860  -27.0800 C   0  0  0  0  0  0  0  0  0  0  0  0
    3.0560   25.6450  -26.5070 C   0  0  0  0  0  0  0  0  0  0  0  0
    1.9750   26.5130  -26.3270 C   0  0  0  0  0  0  0  0  0  0  0  0
    0.6900   26.1220  -26.7180 C   0  0  0  0  0  0  0  0  0  0  0  0
   -1.5500   23.4500  -27.1870 N   0  0  0  0  0  0  0  0  0  0  0  0
   -1.1180   22.5850  -26.0850 C   0  0  0  0  0  0  0  0  0  0  0  0
   -3.9353   22.3654  -26.3912 H   0  0  0  0  0  0  0  0  0  0  0  0
   -4.7971   22.8162  -27.9014 H   0  0  0  0  0  0  0  0  0  0  0  0
   -3.6468   21.4366  -27.9014 H   0  0  0  0  0  0  0  0  0  0  0  0
   -3.5139   22.0333  -29.8329 H   0  0  0  0  0  0  0  0  0  0  0  0
   -4.9515   20.5820  -31.1436 H   0  0  0  0  0  0  0  0  0  0  0  0
   -8.4245   19.5587  -31.4201 H   0  0  0  0  0  0  0  0  0  0  0  0
   -8.2987   17.1157  -31.9070 H   0  0  0  0  0  0  0  0  0  0  0  0
   -6.7786   16.2724  -33.7009 H   0  0  0  0  0  0  0  0  0  0  0  0
   -5.3947   17.8804  -35.0203 H   0  0  0  0  0  0  0  0  0  0  0  0
   -5.5161   20.3249  -34.5370 H   0  0  0  0  0  0  0  0  0  0  0  0
   -7.3624   24.1181  -32.4014 H   0  0  0  0  0  0  0  0  0  0  0  0
   -5.9210   25.5647  -31.0997 H   0  0  0  0  0  0  0  0  0  0  0  0
    1.4168   23.0028  -27.9277 H   0  0  0  0  0  0  0  0  0  0  0  0
    3.7055   23.7044  -27.2227 H   0  0  0  0  0  0  0  0  0  0  0  0
    4.0658   25.9528  -26.1977 H   0  0  0  0  0  0  0  0  0  0  0  0
    2.1350   27.5042  -25.8776 H   0  0  0  0  0  0  0  0  0  0  0  0
   -0.1576   26.8094  -26.5801 H   0  0  0  0  0  0  0  0  0  0  0  0
   -1.3583   23.0661  -25.1254 H   0  0  0  0  0  0  0  0  0  0  0  0
   -1.6393   21.6186  -26.1514 H   0  0  0  0  0  0  0  0  0  0  0  0
   -0.0323   22.4212  -26.1514 H   0  0  0  0  0  0  0  0  0  0  0  0
  1  2  1  0
  2  3  2  0
  3  4  1  0
  4  5  2  3
  5  6  1  0
  6  7  2  0
  7  8  1  0
  8  9  2  3
  9 10  1  0
 10 11  2  0
 11 12  1  0
 12 13  2  0
 13 14  1  0
 14 15  2  0
  8 16  1  0
 16 17  2  0
  3 18  1  0
 18 19  2  0
 18 20  1  0
 20 21  1  0
 21 22  2  0
 22 23  1  0
 23 24  2  0
 24 25  1  0
 25 26  2  0
 20 27  1  0
 27 28  1  0
 27  2  1  0
 17  5  1  0
 26 21  1  0
 15 10  1  0
  1 29  1  0
  1 30  1  0
  1 31  1  0
  6 32  1  0
  7 33  1  0
 11 34  1  0
 12 35  1  0
 13 36  1  0
 14 37  1  0
 15 38  1  0
 16 39  1  0
 17 40  1  0
 22 41  1  0
 23 42  1  0
 24 43  1  0
 25 44  1  0
 26 45  1  0
 28 46  1  0
 28 47  1  0
 28 48  1  0
M  END
>  <UniqueID>  (5) 
5

>  <SMILES>  (5) 
Cc1c(N=C2C=CC(=Nc3ccccc3)C=C2)c(=O)n(-c2ccccc2)n1C

>  <Energy>  (5) 
107.68432444004588

>  <Genealogy>  (5) 
Cc1c(N=C2C=CC(=Nc3ccccc3)C=C2)c(=O)n(-c2ccccc2)n1C (3D coordinates assigned)
Cc1c(N=C2C=CC(=Nc3ccccc3)C=C2)c(=O)n(-c2ccccc2)n1C (nonaromatic ring conformer: 107.68432444004588 kcal/mol)

>  <smiles>  (5) 
Cc1c(N=C2C=CC(=Nc3ccccc3)C=C2)c(=O)n(-c2ccccc2)n1C

>  <score_type>  (5) 
oracle

>  <origin>  (5) 
adgpu

>  <m_score__min__energy>  (5) 
-10.050000000000001

>  <m_primary>  (5) 
energy

$$$$
5:0
     RDKit          3D

 48 50  0  0  0  0  0  0  0  0999 V2000
    5.1280   25.1820  -23.6550 C   0  0  0  0  0  0  0  0  0  0  0  0
    4.7810   24.4570  -24.8300 O   0  0  0  0  0  0  0  0  0  0  0  0
    3.4780   24.3420  -25.3390 C   0  0  0  0  0  0  0  0  0  0  0  0
    2.3420   24.4730  -24.5190 C   0  0  0  0  0  0  0  0  0  0  0  0
    1.0610   24.3500  -25.0590 C   0  0  0  0  0  0  0  0  0  0  0  0
    0.8850   24.0870  -26.4260 C   0  0  0  0  0  0  0  0  0  0  0  0
   -0.4810   23.9630  -26.9900 C   0  0  0  0  0  0  0  0  0  0  0  0
   -1.4090   24.6870  -26.5360 O   0  0  0  0  0  0  0  0  0  0  0  0
   -0.7720   22.9930  -28.0120 N   0  0  0  0  0  0  0  0  0  0  0  0
   -1.9110   23.0700  -28.8850 C   0  0  0  0  0  0  0  0  0  0  0  0
   -2.6370   21.9200  -29.2460 C   0  0  0  0  0  0  0  0  0  0  0  0
   -3.7530   22.0230  -30.0800 C   0  0  0  0  0  0  0  0  0  0  0  0
   -4.1650   23.2720  -30.5570 C   0  0  0  0  0  0  0  0  0  0  0  0
   -5.5960   23.3810  -31.6370 S   0  0  0  0  0  0  0  0  0  0  0  0
   -5.3560   21.7220  -32.2770 C   0  0  0  0  0  0  0  0  0  0  0  0
   -4.1860   21.4000  -32.9700 C   0  0  0  0  0  0  0  0  0  0  0  0
   -4.0040   20.1110  -33.4740 C   0  0  0  0  0  0  0  0  0  0  0  0
   -4.9880   19.1370  -33.2840 C   0  0  0  0  0  0  0  0  0  0  0  0
   -6.1610   19.4410  -32.5690 C   0  0  0  0  0  0  0  0  0  0  0  0
   -7.2460   18.4070  -32.4030 C   0  0  0  0  0  0  0  0  0  0  0  0
   -7.1020   17.3910  -33.3330 F   0  0  0  0  0  0  0  0  0  0  0  0
   -7.1930   17.8450  -31.1380 F   0  0  0  0  0  0  0  0  0  0  0  0
   -8.4780   19.0070  -32.5780 F   0  0  0  0  0  0  0  0  0  0  0  0
   -6.3470   20.7500  -32.0900 C   0  0  0  0  0  0  0  0  0  0  0  0
   -3.4640   24.4260  -30.1790 C   0  0  0  0  0  0  0  0  0  0  0  0
   -3.8700   25.6790  -30.6260 O   0  0  0  0  0  0  0  0  0  0  0  0
   -2.3460   24.3230  -29.3430 C   0  0  0  0  0  0  0  0  0  0  0  0
    2.0190   23.9660  -27.2480 C   0  0  0  0  0  0  0  0  0  0  0  0
    3.3160   24.0900  -26.7090 C   0  0  0  0  0  0  0  0  0  0  0  0
    4.4680   23.9700  -27.5030 O   0  0  0  0  0  0  0  0  0  0  0  0
    4.8200   24.8630  -28.5550 C   0  0  0  0  0  0  0  0  0  0  0  0
    4.8478   24.5966  -22.7668 H   0  0  0  0  0  0  0  0  0  0  0  0
    6.2123   25.3670  -23.6451 H   0  0  0  0  0  0  0  0  0  0  0  0
    4.5920   26.1425  -23.6451 H   0  0  0  0  0  0  0  0  0  0  0  0
    2.4645   24.6738  -23.4445 H   0  0  0  0  0  0  0  0  0  0  0  0
    0.1817   24.4602  -24.4073 H   0  0  0  0  0  0  0  0  0  0  0  0
   -0.1880   22.1270  -28.0460 H   0  0  0  0  0  0  0  0  0  0  0  0
   -2.3242   20.9349  -28.8696 H   0  0  0  0  0  0  0  0  0  0  0  0
   -4.3104   21.1179  -30.3630 H   0  0  0  0  0  0  0  0  0  0  0  0
   -3.4077   22.1630  -33.1185 H   0  0  0  0  0  0  0  0  0  0  0  0
   -3.0836   19.8613  -34.0222 H   0  0  0  0  0  0  0  0  0  0  0  0
   -4.8447   18.1271  -33.6957 H   0  0  0  0  0  0  0  0  0  0  0  0
   -7.2772   21.0124  -31.5648 H   0  0  0  0  0  0  0  0  0  0  0  0
   -1.8040   25.2318  -29.0426 H   0  0  0  0  0  0  0  0  0  0  0  0
    1.8931   23.7725  -28.3235 H   0  0  0  0  0  0  0  0  0  0  0  0
    5.1916   25.8057  -28.1268 H   0  0  0  0  0  0  0  0  0  0  0  0
    5.6057   24.4072  -29.1754 H   0  0  0  0  0  0  0  0  0  0  0  0
    3.9346   25.0659  -29.1754 H   0  0  0  0  0  0  0  0  0  0  0  0
  1  2  1  0
  2  3  1  0
  3  4  2  0
  4  5  1  0
  5  6  2  0
  6  7  1  0
  7  8  2  0
  7  9  1  0
  9 10  1  0
 10 11  2  0
 11 12  1  0
 12 13  2  0
 13 14  1  0
 14 15  1  0
 15 16  2  0
 16 17  1  0
 17 18  2  0
 18 19  1  0
 19 20  1  0
 20 21  1  0
 20 22  1  0
 20 23  1  0
 19 24  2  0
 13 25  1  0
 25 26  1  0
 25 27  2  0
  6 28  1  0
 28 29  2  0
 29 30  1  0
 30 31  1  0
 29  3  1  0
 27 10  1  0
 24 15  1  0
  1 32  1  0
  1 33  1  0
  1 34  1  0
  4 35  1  0
  5 36  1  0
  9 37  1  0
 11 38  1  0
 12 39  1  0
 16 40  1  0
 17 41  1  0
 18 42  1  0
 24 43  1  0
 27 44  1  0
 28 45  1  0
 31 46  1  0
 31 47  1  0
 31 48  1  0
M  CHG  1  26  -1
M  END
>  <UniqueID>  (6) 
6

>  <SMILES>  (6) 
COc1ccc(C(=O)Nc2ccc(Sc3cccc(C(F)(F)F)c3)c([O-])c2)cc1OC

>  <Energy>  (6) 
51.42683873310959

>  <Genealogy>  (6) 
COc1ccc(C(=O)Nc2ccc(Sc3cccc(C(F)(F)F)c3)c([O-])c2)cc1OC (protonated)
COc1ccc(C(=O)Nc2ccc(Sc3cccc(C(F)(F)F)c3)c([O-])c2)cc1OC (3D coordinates assigned)
COc1ccc(C(=O)Nc2ccc(Sc3cccc(C(F)(F)F)c3)c([O-])c2)cc1OC (optimized conformer: 51.42683873310959 kcal/mol)

>  <smiles>  (6) 
COc1ccc(C(=O)Nc2ccc(Sc3cccc(C(F)(F)F)c3)c(O)c2)cc1OC

>  <score_type>  (6) 
oracle

>  <origin>  (6) 
adgpu

>  <m_score__min__energy>  (6) 
-10.369999999999999

>  <m_primary>  (6) 
energy

$$$$
6:0
     RDKit          3D

 50 52  0  0  0  0  0  0  0  0999 V2000
   -7.8070   18.4470  -31.5990 C   0  0  0  0  0  0  0  0  0  0  0  0
   -9.0140   19.3050  -31.9660 C   0  0  0  0  0  0  0  0  0  0  0  0
   -8.6000   20.5260  -32.5780 O   0  0  0  0  0  0  0  0  0  0  0  0
   -7.8370   21.5310  -31.9590 C   0  0  0  0  0  0  0  0  0  0  0  0
   -6.8290   22.1490  -32.7090 C   0  0  0  0  0  0  0  0  0  0  0  0
   -6.0400   23.1580  -32.1460 C   0  0  0  0  0  0  0  0  0  0  0  0
   -6.2520   23.5600  -30.8220 C   0  0  0  0  0  0  0  0  0  0  0  0
   -5.2760   24.8430  -30.1140 S   0  0  0  0  0  0  0  0  0  0  0  0
   -6.1230   25.7500  -29.2660 O   0  0  0  0  0  0  0  0  0  0  0  0
   -4.6510   25.6440  -31.2190 O   0  0  0  0  0  0  0  0  0  0  0  0
   -4.0220   24.1570  -29.1310 N   0  0  0  0  0  0  0  0  0  0  0  0
   -2.9290   23.3700  -29.6210 C   0  0  0  0  0  0  0  0  0  0  0  0
   -1.7310   23.2210  -28.8980 C   0  0  0  0  0  0  0  0  0  0  0  0
   -0.6920   22.4380  -29.4120 C   0  0  0  0  0  0  0  0  0  0  0  0
   -0.8400   21.7980  -30.6440 C   0  0  0  0  0  0  0  0  0  0  0  0
   -2.0260   21.9400  -31.3730 C   0  0  0  0  0  0  0  0  0  0  0  0
   -2.1920   21.1370  -32.9310 S   0  0  0  0  0  0  0  0  0  0  0  0
   -3.2600   21.8350  -33.7250 O   0  0  0  0  0  0  0  0  0  0  0  0
   -0.9020   21.1820  -33.7010 O   0  0  0  0  0  0  0  0  0  0  0  0
   -2.6530   19.4820  -32.6890 N   0  0  0  0  0  0  0  0  0  0  0  0
   -3.8130   18.8580  -33.2560 C   0  0  0  0  0  0  0  0  0  0  0  0
   -4.8850   19.6690  -33.6480 C   0  0  0  0  0  0  0  0  0  0  0  0
   -6.0320   19.1040  -34.2070 C   0  0  0  0  0  0  0  0  0  0  0  0
   -6.1210   17.7200  -34.3790 C   0  0  0  0  0  0  0  0  0  0  0  0
   -5.0630   16.8910  -33.9780 C   0  0  0  0  0  0  0  0  0  0  0  0
   -5.1370   15.4080  -34.1960 C   0  0  0  0  0  0  0  0  0  0  0  0
   -3.9030   17.4640  -33.4340 C   0  0  0  0  0  0  0  0  0  0  0  0
   -3.0670   22.7270  -30.8590 C   0  0  0  0  0  0  0  0  0  0  0  0
   -7.2490   22.9370  -30.0620 C   0  0  0  0  0  0  0  0  0  0  0  0
   -8.0390   21.9300  -30.6240 C   0  0  0  0  0  0  0  0  0  0  0  0
   -7.7203   18.3853  -30.5042 H   0  0  0  0  0  0  0  0  0  0  0  0
   -7.9356   17.4365  -32.0141 H   0  0  0  0  0  0  0  0  0  0  0  0
   -6.8949   18.9006  -32.0141 H   0  0  0  0  0  0  0  0  0  0  0  0
   -9.6524   18.7482  -32.6677 H   0  0  0  0  0  0  0  0  0  0  0  0
   -9.5708   19.5419  -31.0474 H   0  0  0  0  0  0  0  0  0  0  0  0
   -6.6559   21.8385  -33.7500 H   0  0  0  0  0  0  0  0  0  0  0  0
   -5.2513   23.6365  -32.7452 H   0  0  0  0  0  0  0  0  0  0  0  0
   -1.6112   23.7217  -27.9259 H   0  0  0  0  0  0  0  0  0  0  0  0
    0.2436   22.3263  -28.8444 H   0  0  0  0  0  0  0  0  0  0  0  0
   -0.0218   21.1803  -31.0428 H   0  0  0  0  0  0  0  0  0  0  0  0
   -4.8226   20.7591  -33.5144 H   0  0  0  0  0  0  0  0  0  0  0  0
   -6.8683   19.7497  -34.5131 H   0  0  0  0  0  0  0  0  0  0  0  0
   -7.0227   17.2798  -34.8298 H   0  0  0  0  0  0  0  0  0  0  0  0
   -5.1626   14.8952  -33.2232 H   0  0  0  0  0  0  0  0  0  0  0  0
   -6.0484   15.1657  -34.7623 H   0  0  0  0  0  0  0  0  0  0  0  0
   -4.2543   15.0761  -34.7623 H   0  0  0  0  0  0  0  0  0  0  0  0
   -3.0591   16.8203  -33.1450 H   0  0  0  0  0  0  0  0  0  0  0  0
   -3.9991   22.8406  -31.4319 H   0  0  0  0  0  0  0  0  0  0  0  0
   -7.4115   23.2414  -29.0175 H   0  0  0  0  0  0  0  0  0  0  0  0
   -8.8219   21.4472  -30.0206 H   0  0  0  0  0  0  0  0  0  0  0  0
  1  2  1  0
  2  3  1  0
  3  4  1  0
  4  5  2  0
  5  6  1  0
  6  7  2  0
  7  8  1  0
  8  9  2  0
  8 10  2  0
  8 11  1  0
 11 12  1  0
 12 13  2  0
 13 14  1  0
 14 15  2  0
 15 16  1  0
 16 17  1  0
 17 18  2  0
 17 19  2  0
 17 20  1  0
 20 21  1  0
 21 22  2  0
 22 23  1  0
 23 24  2  0
 24 25  1  0
 25 26  1  0
 25 27  2  0
 16 28  2  0
  7 29  1  0
 29 30  2  0
 30  4  1  0
 28 12  1  0
 27 21  1  0
  1 31  1  0
  1 32  1  0
  1 33  1  0
  2 34  1  0
  2 35  1  0
  5 36  1  0
  6 37  1  0
 13 38  1  0
 14 39  1  0
 15 40  1  0
 22 41  1  0
 23 42  1  0
 24 43  1  0
 26 44  1  0
 26 45  1  0
 26 46  1  0
 27 47  1  0
 28 48  1  0
 29 49  1  0
 30 50  1  0
M  CHG  2  11  -1  20  -1
M  END
>  <UniqueID>  (7) 
7

>  <SMILES>  (7) 
CCOc1ccc(S(=O)(=O)[N-]c2cccc(S(=O)(=O)[N-]c3cccc(C)c3)c2)cc1

>  <Energy>  (7) 
55.100918251592226

>  <Genealogy>  (7) 
CCOc1ccc(S(=O)(=O)[N-]c2cccc(S(=O)(=O)[N-]c3cccc(C)c3)c2)cc1 (protonated)
CCOc1ccc(S(=O)(=O)[N-]c2cccc(S(=O)(=O)[N-]c3cccc(C)c3)c2)cc1 (3D coordinates assigned)
CCOc1ccc(S(=O)(=O)[N-]c2cccc(S(=O)(=O)[N-]c3cccc(C)c3)c2)cc1 (optimized conformer: 55.100918251592226 kcal/mol)

>  <smiles>  (7) 
CCOc1ccc(S(=O)(=O)Nc2cccc(S(=O)(=O)Nc3cccc(C)c3)c2)cc1

>  <score_type>  (7) 
oracle

>  <origin>  (7) 
adgpu

>  <m_score__min__energy>  (7) 
-11.140000000000001

>  <m_primary>  (7) 
energy

$$$$
7:0
     RDKit          3D

 37 38  0  0  0  0  0  0  0  0999 V2000
   -9.2160   18.4830  -31.8920 C   0  0  0  0  0  0  0  0  0  0  0  0
   -8.0020   19.2450  -32.3320 C   0  0  0  0  0  0  0  0  0  0  0  0
   -6.9440   18.5830  -32.9670 C   0  0  0  0  0  0  0  0  0  0  0  0
   -5.7960   19.2840  -33.3430 C   0  0  0  0  0  0  0  0  0  0  0  0
   -5.6760   20.6600  -33.0720 C   0  0  0  0  0  0  0  0  0  0  0  0
   -4.4900   21.3810  -33.4580 N   0  0  0  0  0  0  0  0  0  0  0  0
   -2.9030   20.9580  -32.9000 S   0  0  0  0  0  0  0  0  0  0  0  0
   -2.8500   19.4790  -32.6390 O   0  0  0  0  0  0  0  0  0  0  0  0
   -1.8940   21.3060  -33.9570 O   0  0  0  0  0  0  0  0  0  0  0  0
   -2.5230   21.8650  -31.4390 C   0  0  0  0  0  0  0  0  0  0  0  0
   -3.4630   22.7620  -30.9140 C   0  0  0  0  0  0  0  0  0  0  0  0
   -3.1800   23.4700  -29.7430 C   0  0  0  0  0  0  0  0  0  0  0  0
   -1.9580   23.2950  -29.0830 C   0  0  0  0  0  0  0  0  0  0  0  0
   -1.7150   24.0430  -27.8840 N   0  0  0  0  0  0  0  0  0  0  0  0
   -0.8670   25.5530  -27.7830 S   0  0  0  0  0  0  0  0  0  0  0  0
   -1.2420   26.3660  -26.2450 C   0  0  0  0  0  0  0  0  0  0  0  0
    0.6090   25.2820  -27.8370 O   0  0  0  0  0  0  0  0  0  0  0  0
   -1.2390   26.4300  -28.9460 O   0  0  0  0  0  0  0  0  0  0  0  0
   -1.0140   22.3960  -29.6140 C   0  0  0  0  0  0  0  0  0  0  0  0
   -1.2970   21.6870  -30.7850 C   0  0  0  0  0  0  0  0  0  0  0  0
   -6.7370   21.3230  -32.4210 C   0  0  0  0  0  0  0  0  0  0  0  0
   -6.6470   23.1840  -31.9690 Br  0  0  0  0  0  0  0  0  0  0  0  0
   -7.8850   20.6140  -32.0490 C   0  0  0  0  0  0  0  0  0  0  0  0
   -9.2551   18.4585  -30.7930 H   0  0  0  0  0  0  0  0  0  0  0  0
  -10.1193   18.9765  -32.2801 H   0  0  0  0  0  0  0  0  0  0  0  0
   -9.1643   17.4550  -32.2801 H   0  0  0  0  0  0  0  0  0  0  0  0
   -7.0175   17.5046  -33.1709 H   0  0  0  0  0  0  0  0  0  0  0  0
   -4.9783   18.7560  -33.8555 H   0  0  0  0  0  0  0  0  0  0  0  0
   -4.5720   22.2600  -34.0130 H   0  0  0  0  0  0  0  0  0  0  0  0
   -4.4260   22.9091  -31.4250 H   0  0  0  0  0  0  0  0  0  0  0  0
   -3.9239   24.1709  -29.3363 H   0  0  0  0  0  0  0  0  0  0  0  0
   -0.9439   25.7196  -25.4064 H   0  0  0  0  0  0  0  0  0  0  0  0
   -0.6914   27.3166  -26.1890 H   0  0  0  0  0  0  0  0  0  0  0  0
   -2.3225   26.5643  -26.1890 H   0  0  0  0  0  0  0  0  0  0  0  0
   -0.0495   22.2508  -29.1054 H   0  0  0  0  0  0  0  0  0  0  0  0
   -0.5542   20.9866  -31.1945 H   0  0  0  0  0  0  0  0  0  0  0  0
   -8.7030   21.1350  -31.5300 H   0  0  0  0  0  0  0  0  0  0  0  0
  1  2  1  0
  2  3  2  0
  3  4  1  0
  4  5  2  0
  5  6  1  0
  6  7  1  0
  7  8  2  0
  7  9  2  0
  7 10  1  0
 10 11  2  0
 11 12  1  0
 12 13  2  0
 13 14  1  0
 14 15  1  0
 15 16  1  0
 15 17  2  0
 15 18  2  0
 13 19  1  0
 19 20  2  0
  5 21  1  0
 21 22  1  0
 21 23  2  0
 23  2  1  0
 20 10  1  0
  1 24  1  0
  1 25  1  0
  1 26  1  0
  3 27  1  0
  4 28  1  0
  6 29  1  0
 11 30  1  0
 12 31  1  0
 16 32  1  0
 16 33  1  0
 16 34  1  0
 19 35  1  0
 20 36  1  0
 23 37  1  0
M  CHG  1  14  -1
M  END
>  <UniqueID>  (8) 
8

>  <SMILES>  (8) 
Cc1ccc(NS(=O)(=O)c2ccc([N-]S(C)(=O)=O)cc2)c(Br)c1

>  <Energy>  (8) 
39.60601348560585

>  <Genealogy>  (8) 
Cc1ccc(NS(=O)(=O)c2ccc([N-]S(C)(=O)=O)cc2)c(Br)c1 (protonated)
Cc1ccc(NS(=O)(=O)c2ccc([N-]S(C)(=O)=O)cc2)c(Br)c1 (3D coordinates assigned)
Cc1ccc(NS(=O)(=O)c2ccc([N-]S(C)(=O)=O)cc2)c(Br)c1 (optimized conformer: 39.60601348560585 kcal/mol)

>  <smiles>  (8) 
Cc1ccc(NS(=O)(=O)c2ccc(NS(C)(=O)=O)cc2)c(Br)c1

>  <score_type>  (8) 
oracle

>  <origin>  (8) 
adgpu

>  <m_score__min__energy>  (8) 
-10.710000000000001

>  <m_primary>  (8) 
energy

$$$$
8:0
     RDKit          3D

 76 80  0  0  1  0  0  0  0  0999 V2000
    1.5320   27.3890  -25.7240 C   0  0  0  0  0  0  0  0  0  0  0  0
    1.3550   27.0030  -24.2910 C   0  0  0  0  0  0  0  0  0  0  0  0
    0.9380   25.5570  -24.1280 C   0  0  0  0  0  0  0  0  0  0  0  0
   -0.2330   25.2290  -24.9870 C   0  0  0  0  0  0  0  0  0  0  0  0
   -0.1660   24.1460  -25.8660 C   0  0  0  0  0  0  0  0  0  0  0  0
   -1.2560   23.8480  -26.6610 C   0  0  0  0  0  0  0  0  0  0  0  0
   -2.4090   24.6110  -26.5940 C   0  0  0  0  0  0  0  0  0  0  0  0
   -3.4830   24.2320  -27.4480 N   0  0  0  0  0  0  0  0  0  0  0  0
   -3.4630   24.4400  -28.8550 C   0  0  0  0  0  0  0  0  0  0  0  0
   -2.4570   24.9820  -29.3790 O   0  0  0  0  0  0  0  0  0  0  0  0
   -4.5590   24.0540  -29.7310 C   0  0  0  0  0  0  0  0  0  0  0  0
   -5.1150   25.0330  -30.5280 C   0  0  0  0  0  0  0  0  0  0  0  0
   -6.1700   24.7670  -31.4030 C   0  0  0  0  0  0  0  0  0  0  0  0
   -6.6370   23.4620  -31.4370 C   0  0  0  0  0  0  0  0  0  0  0  0
   -7.7700   23.0600  -32.3420 C   0  0  0  0  0  0  0  0  0  0  0  0
   -8.5160   22.0580  -31.5640 N   0  0  0  0  0  0  0  0  0  0  0  0
   -8.3190   20.7920  -31.7300 C   0  0  0  0  0  0  0  0  0  0  0  0
   -9.0470   19.9000  -30.9730 C   0  0  0  0  0  0  0  0  0  0  0  0
   -8.8060   18.5600  -31.1830 C   0  0  0  0  0  0  0  0  0  0  0  0
   -7.8810   18.1800  -32.1080 N   0  0  0  0  0  0  0  0  0  0  0  0
   -7.1950   19.0850  -32.8220 C   0  0  0  0  0  0  0  0  0  0  0  0
   -6.2060   18.6250  -33.8220 N   0  0  0  0  0  0  0  0  0  0  0  0
   -5.2930   19.6200  -34.2240 C   0  0  0  0  0  0  0  0  0  0  0  0
   -4.1800   20.0040  -33.3650 C   0  0  0  0  0  0  0  0  0  0  0  0
   -4.0710   21.3670  -33.0390 C   0  0  0  0  0  0  0  0  0  0  0  0
   -3.0580   21.8550  -32.2630 C   0  0  0  0  0  0  0  0  0  0  0  0
   -2.0720   21.0090  -31.7540 C   0  0  0  0  0  0  0  0  0  0  0  0
   -2.1670   19.6610  -32.0680 C   0  0  0  0  0  0  0  0  0  0  0  0
   -3.2070   19.1810  -32.8610 C   0  0  0  0  0  0  0  0  0  0  0  0
   -6.3700   17.2590  -34.1890 C   0  0  0  0  0  0  0  0  0  0  0  0
   -5.4570   16.2520  -33.6910 C   0  0  0  0  0  0  0  0  0  0  0  0
   -4.6190   15.6160  -34.6040 C   0  0  0  0  0  0  0  0  0  0  0  0
   -3.7370   14.6250  -34.2330 C   0  0  0  0  0  0  0  0  0  0  0  0
   -3.6430   14.2110  -32.9230 C   0  0  0  0  0  0  0  0  0  0  0  0
   -4.4600   14.8270  -32.0030 C   0  0  0  0  0  0  0  0  0  0  0  0
   -5.3440   15.8210  -32.3840 C   0  0  0  0  0  0  0  0  0  0  0  0
   -7.4110   20.3930  -32.6370 N   0  0  0  0  0  0  0  0  0  0  0  0
   -6.1020   22.4600  -30.6510 C   0  0  0  0  0  0  0  0  0  0  0  0
   -5.0570   22.7700  -29.7980 C   0  0  0  0  0  0  0  0  0  0  0  0
   -2.4960   25.6900  -25.7300 C   0  0  0  0  0  0  0  0  0  0  0  0
   -1.3970   25.9780  -24.9380 C   0  0  0  0  0  0  0  0  0  0  0  0
    1.9899   28.3876  -25.7809 H   0  0  0  0  0  0  0  0  0  0  0  0
    2.1846   26.6574  -26.2229 H   0  0  0  0  0  0  0  0  0  0  0  0
    0.5518   27.4061  -26.2229 H   0  0  0  0  0  0  0  0  0  0  0  0
    2.3081   27.1570  -23.7638 H   0  0  0  0  0  0  0  0  0  0  0  0
    0.5551   27.6311  -23.8718 H   0  0  0  0  0  0  0  0  0  0  0  0
    1.7806   24.9078  -24.4084 H   0  0  0  0  0  0  0  0  0  0  0  0
    0.6531   25.3952  -23.0779 H   0  0  0  0  0  0  0  0  0  0  0  0
    0.7470   23.5352  -25.9250 H   0  0  0  0  0  0  0  0  0  0  0  0
   -1.2070   22.9955  -27.3544 H   0  0  0  0  0  0  0  0  0  0  0  0
   -4.3050   23.7870  -26.9980 H   0  0  0  0  0  0  0  0  0  0  0  0
   -4.7144   26.0560  -30.4724 H   0  0  0  0  0  0  0  0  0  0  0  0
   -6.6089   25.5538  -32.0341 H   0  0  0  0  0  0  0  0  0  0  0  0
   -8.4075   23.9252  -32.5768 H   0  0  0  0  0  0  0  0  0  0  0  0
   -7.4187   22.6673  -33.3076 H   0  0  0  0  0  0  0  0  0  0  0  0
   -9.7870   20.2423  -30.2346 H   0  0  0  0  0  0  0  0  0  0  0  0
   -9.3570   17.8017  -30.6074 H   0  0  0  0  0  0  0  0  0  0  0  0
   -7.7550   17.1490  -32.2010 H   0  0  0  0  0  0  0  0  0  0  0  0
   -4.8534   19.2773  -35.1723 H   0  0  0  0  0  0  0  0  0  0  0  0
   -5.9135   20.5281  -34.2392 H   0  0  0  0  0  0  0  0  0  0  0  0
   -4.8288   22.0660  -33.4226 H   0  0  0  0  0  0  0  0  0  0  0  0
   -3.0191   22.9306  -32.0361 H   0  0  0  0  0  0  0  0  0  0  0  0
   -1.2530   21.3950  -31.1294 H   0  0  0  0  0  0  0  0  0  0  0  0
   -1.4099   18.9608  -31.6851 H   0  0  0  0  0  0  0  0  0  0  0  0
   -3.2485   18.1059  -33.0902 H   0  0  0  0  0  0  0  0  0  0  0  0
   -7.3769   16.9625  -33.8600 H   0  0  0  0  0  0  0  0  0  0  0  0
   -6.1666   17.2660  -35.2700 H   0  0  0  0  0  0  0  0  0  0  0  0
   -4.6632   15.9165  -35.6612 H   0  0  0  0  0  0  0  0  0  0  0  0
   -3.0974   14.1567  -34.9956 H   0  0  0  0  0  0  0  0  0  0  0  0
   -2.9417   13.4182  -32.6235 H   0  0  0  0  0  0  0  0  0  0  0  0
   -4.4095   14.5241  -30.9467 H   0  0  0  0  0  0  0  0  0  0  0  0
   -5.9808   16.2854  -31.6167 H   0  0  0  0  0  0  0  0  0  0  0  0
   -6.4988   21.4353  -30.7020 H   0  0  0  0  0  0  0  0  0  0  0  0
   -4.6189   21.9831  -29.1664 H   0  0  0  0  0  0  0  0  0  0  0  0
   -3.4100   26.2995  -25.6746 H   0  0  0  0  0  0  0  0  0  0  0  0
   -1.4504   26.8313  -24.2459 H   0  0  0  0  0  0  0  0  0  0  0  0
  1  2  1  0
  2  3  1  0
  3  4  1  0
  4  5  2  0
  5  6  1  0
  6  7  2  0
  7  8  1  0
  8  9  1  0
  9 10  2  0
  9 11  1  0
 11 12  2  0
 12 13  1  0
 13 14  2  0
 14 15  1  0
 15 16  1  0
 16 17  2  0
 17 18  1  0
 18 19  2  0
 19 20  1  0
 20 21  1  0
 21 22  1  0
 22 23  1  0
 23 24  1  0
 24 25  2  0
 25 26  1  0
 26 27  2  0
 27 28  1  0
 28 29  2  0
 22 30  1  0
 30 31  1  0
 31 32  2  0
 32 33  1  0
 33 34  2  0
 34 35  1  0
 35 36  2  0
 21 37  2  0
 14 38  1  0
 38 39  2  0
  7 40  1  0
 40 41  2  0
 41  4  1  0
 39 11  1  0
 37 17  1  0
 29 24  1  0
 36 31  1  0
  1 42  1  0
  1 43  1  0
  1 44  1  0
  2 45  1  0
  2 46  1  0
  3 47  1  0
  3 48  1  0
  5 49  1  0
  6 50  1  0
  8 51  1  0
 12 52  1  0
 13 53  1  0
 15 54  1  0
 15 55  1  0
 18 56  1  0
 19 57  1  0
 20 58  1  0
 23 59  1  0
 23 60  1  0
 25 61  1  0
 26 62  1  0
 27 63  1  0
 28 64  1  0
 29 65  1  0
 30 66  1  0
 30 67  1  0
 32 68  1  0
 33 69  1  0
 34 70  1  0
 35 71  1  0
 36 72  1  0
 38 73  1  0
 39 74  1  0
 40 75  1  0
 41 76  1  0
M  END
>  <smiles>  (9) 
CCCc1ccc(NC(=O)c2ccc(CN=c3cc[nH]c(N(Cc4ccccc4)Cc4ccccc4)n3)cc2)cc1

>  <score_type>  (9) 
oracle

>  <origin>  (9) 
adgpu

>  <m_score__min__energy>  (9) 
-11.58

>  <m_primary>  (9) 
energy

$$$$
9:0
     RDKit          3D

 52 55  0  0  0  0  0  0  0  0999 V2000
   -1.6558   17.8945  -34.5616 H   0  0  0  0  0  0  0  0  0  0  0  0
   -0.8940   18.6670  -34.3800 C   0  0  0  0  0  0  0  0  0  0  0  0
    0.4070   18.4210  -34.6910 N   0  0  0  0  0  0  0  0  0  0  0  0
    1.3810   19.3470  -34.4870 C   0  0  0  0  0  0  0  0  0  0  0  0
    2.5730   19.0790  -34.7900 O   0  0  0  0  0  0  0  0  0  0  0  0
    1.0580   20.5910  -33.9430 C   0  0  0  0  0  0  0  0  0  0  0  0
    1.8418   21.3446  -33.7765 H   0  0  0  0  0  0  0  0  0  0  0  0
   -0.2700   20.8700  -33.6120 C   0  0  0  0  0  0  0  0  0  0  0  0
   -0.5343   21.8473  -33.1819 H   0  0  0  0  0  0  0  0  0  0  0  0
   -1.2700   19.9050  -33.8270 C   0  0  0  0  0  0  0  0  0  0  0  0
   -2.6840   20.1890  -33.4850 C   0  0  0  0  0  0  0  0  0  0  0  0
   -3.5670   19.1400  -33.1710 C   0  0  0  0  0  0  0  0  0  0  0  0
   -3.2146   18.0988  -33.2134 H   0  0  0  0  0  0  0  0  0  0  0  0
   -4.8870   19.4100  -32.8060 C   0  0  0  0  0  0  0  0  0  0  0  0
   -5.5717   18.5804  -32.5760 H   0  0  0  0  0  0  0  0  0  0  0  0
   -5.3450   20.7340  -32.7310 C   0  0  0  0  0  0  0  0  0  0  0  0
   -6.7240   21.0100  -32.2780 C   0  0  0  0  0  0  0  0  0  0  0  0
   -7.7570   20.1910  -32.7640 C   0  0  0  0  0  0  0  0  0  0  0  0
   -7.5219   19.3754  -33.4636 H   0  0  0  0  0  0  0  0  0  0  0  0
   -9.0780   20.4020  -32.3680 C   0  0  0  0  0  0  0  0  0  0  0  0
   -9.8785   19.7562  -32.7580 H   0  0  0  0  0  0  0  0  0  0  0  0
   -9.3840   21.4300  -31.4790 C   0  0  0  0  0  0  0  0  0  0  0  0
  -10.4269   21.5985  -31.1724 H   0  0  0  0  0  0  0  0  0  0  0  0
   -8.3700   22.2460  -30.9770 C   0  0  0  0  0  0  0  0  0  0  0  0
   -8.6211   23.0564  -30.2769 H   0  0  0  0  0  0  0  0  0  0  0  0
   -7.0320   22.0450  -31.3550 C   0  0  0  0  0  0  0  0  0  0  0  0
   -5.7950   23.0830  -30.6140 S   0  0  0  0  0  0  0  0  0  0  0  0
   -6.3390   23.7250  -29.3680 O   0  0  0  0  0  0  0  0  0  0  0  0
   -5.4330   24.1650  -31.5910 O   0  0  0  0  0  0  0  0  0  0  0  0
   -4.3550   22.2040  -30.1910 N   0  0  0  0  0  0  0  0  0  0  0  0
   -3.2210   22.7070  -29.7920 C   0  0  0  0  0  0  0  0  0  0  0  0
   -2.1870   21.8290  -29.4560 C   0  0  0  0  0  0  0  0  0  0  0  0
   -2.3243   20.7441  -29.5746 H   0  0  0  0  0  0  0  0  0  0  0  0
   -0.9810   22.3320  -28.9700 C   0  0  0  0  0  0  0  0  0  0  0  0
   -0.1666   21.6419  -28.7045 H   0  0  0  0  0  0  0  0  0  0  0  0
   -0.8080   23.6730  -28.8230 N   0  0  0  0  0  0  0  0  0  0  0  0
    0.1020   24.0250  -28.4490 H   0  0  0  0  0  0  0  0  0  0  0  0
   -1.7870   24.5630  -29.1420 C   0  0  0  0  0  0  0  0  0  0  0  0
   -1.5400   25.9310  -28.9480 O   0  0  0  0  0  0  0  0  0  0  0  0
   -0.8630   26.4780  -27.8180 C   0  0  0  0  0  0  0  0  0  0  0  0
   -0.8908   27.5764  -27.8706 H   0  0  0  0  0  0  0  0  0  0  0  0
    0.1827   26.1365  -27.8172 H   0  0  0  0  0  0  0  0  0  0  0  0
   -1.5470   26.0150  -26.5430 C   0  0  0  0  0  0  0  0  0  0  0  0
   -0.9913   26.3912  -25.6714 H   0  0  0  0  0  0  0  0  0  0  0  0
   -2.5760   26.4031  -26.5172 H   0  0  0  0  0  0  0  0  0  0  0  0
   -1.5690   24.9155  -26.5172 H   0  0  0  0  0  0  0  0  0  0  0  0
   -3.0120   24.0920  -29.6480 C   0  0  0  0  0  0  0  0  0  0  0  0
   -3.8031   24.8024  -29.9299 H   0  0  0  0  0  0  0  0  0  0  0  0
   -4.4820   21.7810  -33.0860 C   0  0  0  0  0  0  0  0  0  0  0  0
   -4.8467   22.8187  -33.0752 H   0  0  0  0  0  0  0  0  0  0  0  0
   -3.1620   21.5120  -33.4530 C   0  0  0  0  0  0  0  0  0  0  0  0
   -2.4901   22.3413  -33.7193 H   0  0  0  0  0  0  0  0  0  0  0  0
  1  2  1  0
  2  3  1  0
  3  4  1  0
  4  5  2  0
  4  6  1  0
  6  7  1  0
  6  8  2  0
  8  9  1  0
  8 10  1  0
 10 11  1  0
 11 12  2  0
 12 13  1  0
 12 14  1  0
 14 15  1  0
 14 16  2  0
 16 17  1  0
 17 18  2  0
 18 19  1  0
 18 20  1  0
 20 21  1  0
 20 22  2  0
 22 23  1  0
 22 24  1  0
 24 25  1  0
 24 26  2  0
 26 27  1  0
 27 28  2  0
 27 29  2  0
 27 30  1  0
 30 31  2  0
 31 32  1  0
 32 33  1  0
 32 34  2  0
 34 35  1  0
 34 36  1  0
 36 37  1  0
 36 38  1  0
 38 39  1  0
 39 40  1  0
 40 41  1  0
 40 42  1  0
 40 43  1  0
 43 44  1  0
 43 45  1  0
 43 46  1  0
 38 47  2  0
 47 48  1  0
 16 49  1  0
 49 50  1  0
 49 51  2  0
 51 52  1  0
 10  2  2  0
 51 11  1  0
 26 17  1  0
 47 31  1  0
M  CHG  1   3  -1
M  END
>  <UniqueID>  (10) 
9

>  <SMILES>  (10) 
CCOc1c/c(=N\S(=O)(=O)c2ccccc2-c2ccc(-c3ccc(=O)[n-]c3)cc2)cc[nH]1

>  <Energy>  (10) 
69.52208079503498

>  <Genealogy>  (10) 
CCOc1cc(=NS(=O)(=O)c2ccccc2-c2ccc(-c3ccc(=O)[n-]c3)cc2)cc[nH]1 (protonated)
CCOc1c/c(=N\S(=O)(=O)c2ccccc2-c2ccc(-c3ccc(=O)[n-]c3)cc2)cc[nH]1 (cis-trans isomerization)
CCOc1c/c(=N\S(=O)(=O)c2ccccc2-c2ccc(-c3ccc(=O)[n-]c3)cc2)cc[nH]1 (3D coordinates assigned)
CCOc1c/c(=N\S(=O)(=O)c2ccccc2-c2ccc(-c3ccc(=O)[n-]c3)cc2)cc[nH]1 (optimized conformer: 69.52208079503498 kcal/mol)

>  <smiles>  (10) 
CCOc1cc(=NS(=O)(=O)c2ccccc2-c2ccc(-c3ccc(=O)[nH]c3)cc2)cc[nH]1

>  <score_type>  (10) 
oracle

>  <origin>  (10) 
adgpu

>  <m_score__min__energy>  (10) 
-10.380000000000001

>  <m_primary>  (10) 
energy

$$$$
10:0
     RDKit          3D

 42 44  0  0  0  0  0  0  0  0999 V2000
   -2.8691   20.3053  -30.7479 H   0  0  0  0  0  0  0  0  0  0  0  0
   -2.3630   21.0540  -31.3750 C   0  0  0  0  0  0  0  0  0  0  0  0
   -2.3870   22.3060  -31.0310 N   0  0  0  0  0  0  0  0  0  0  0  0
   -3.0280   22.8680  -29.8720 C   0  0  0  0  0  0  0  0  0  0  0  0
   -2.5230   22.6660  -28.5720 C   0  0  0  0  0  0  0  0  0  0  0  0
   -1.6619   21.9992  -28.4173 H   0  0  0  0  0  0  0  0  0  0  0  0
   -3.1100   23.3080  -27.4780 C   0  0  0  0  0  0  0  0  0  0  0  0
   -2.7200   23.1322  -26.4646 H   0  0  0  0  0  0  0  0  0  0  0  0
   -4.1890   24.1710  -27.6680 C   0  0  0  0  0  0  0  0  0  0  0  0
   -4.6440   24.6802  -26.8056 H   0  0  0  0  0  0  0  0  0  0  0  0
   -4.6920   24.3890  -28.9520 C   0  0  0  0  0  0  0  0  0  0  0  0
   -5.5303   25.0858  -29.0994 H   0  0  0  0  0  0  0  0  0  0  0  0
   -4.1360   23.7260  -30.0540 C   0  0  0  0  0  0  0  0  0  0  0  0
   -4.6860   23.9800  -31.3550 N   0  0  0  0  0  0  0  0  0  0  0  0
   -5.0930   22.9620  -32.2790 C   0  0  0  0  0  0  0  0  0  0  0  0
   -4.2820   22.5680  -33.1580 O   0  0  0  0  0  0  0  0  0  0  0  0
   -6.4410   22.3460  -32.1580 C   0  0  0  0  0  0  0  0  0  0  0  0
   -7.5220   23.1570  -31.7600 C   0  0  0  0  0  0  0  0  0  0  0  0
   -7.3511   24.2226  -31.5472 H   0  0  0  0  0  0  0  0  0  0  0  0
   -8.8070   22.6270  -31.6320 C   0  0  0  0  0  0  0  0  0  0  0  0
   -9.6388   23.2740  -31.3166 H   0  0  0  0  0  0  0  0  0  0  0  0
   -9.0380   21.2800  -31.9030 C   0  0  0  0  0  0  0  0  0  0  0  0
  -10.0511   20.8640  -31.8000 H   0  0  0  0  0  0  0  0  0  0  0  0
   -7.9840   20.4590  -32.3050 C   0  0  0  0  0  0  0  0  0  0  0  0
   -8.1718   19.3966  -32.5195 H   0  0  0  0  0  0  0  0  0  0  0  0
   -6.6880   20.9760  -32.4380 C   0  0  0  0  0  0  0  0  0  0  0  0
   -5.3390   19.7510  -33.0520 Br  0  0  0  0  0  0  0  0  0  0  0  0
   -1.6610   20.6290  -32.6020 C   0  0  0  0  0  0  0  0  0  0  0  0
   -0.8610   21.5480  -33.2950 C   0  0  0  0  0  0  0  0  0  0  0  0
   -0.7694   22.5798  -32.9249 H   0  0  0  0  0  0  0  0  0  0  0  0
   -0.1780   21.1630  -34.4540 C   0  0  0  0  0  0  0  0  0  0  0  0
    0.4469   21.8930  -34.9892 H   0  0  0  0  0  0  0  0  0  0  0  0
   -0.2870   19.8460  -34.9380 C   0  0  0  0  0  0  0  0  0  0  0  0
    0.3800   19.4110  -36.0920 O   0  0  0  0  0  0  0  0  0  0  0  0
    0.6540   18.0470  -36.3970 C   0  0  0  0  0  0  0  0  0  0  0  0
    0.7683   17.4781  -35.4625 H   0  0  0  0  0  0  0  0  0  0  0  0
   -0.1779   17.6278  -36.9820 H   0  0  0  0  0  0  0  0  0  0  0  0
    1.5832   17.9816  -36.9820 H   0  0  0  0  0  0  0  0  0  0  0  0
   -1.0900   18.9310  -34.2480 C   0  0  0  0  0  0  0  0  0  0  0  0
   -1.1841   17.8999  -34.6195 H   0  0  0  0  0  0  0  0  0  0  0  0
   -1.7730   19.3150  -33.0920 C   0  0  0  0  0  0  0  0  0  0  0  0
   -2.4025   18.5855  -32.5613 H   0  0  0  0  0  0  0  0  0  0  0  0
  1  2  1  0
  2  3  2  0
  3  4  1  0
  4  5  2  0
  5  6  1  0
  5  7  1  0
  7  8  1  0
  7  9  2  0
  9 10  1  0
  9 11  1  0
 11 12  1  0
 11 13  2  0
 13 14  1  0
 14 15  1  0
 15 16  2  0
 15 17  1  0
 17 18  2  0
 18 19  1  0
 18 20  1  0
 20 21  1  0
 20 22  2  0
 22 23  1  0
 22 24  1  0
 24 25  1  0
 24 26  2  0
 26 27  1  0
  2 28  1  0
 28 29  2  0
 29 30  1  0
 29 31  1  0
 31 32  1  0
 31 33  2  0
 33 34  1  0
 34 35  1  0
 35 36  1  0
 35 37  1  0
 35 38  1  0
 33 39  1  0
 39 40  1  0
 39 41  2  0
 41 42  1  0
 13  4  1  0
 26 17  1  0
 41 28  1  0
M  CHG  1  14  -1
M  END
>  <UniqueID>  (11) 
10

>  <SMILES>  (11) 
COc1ccc(/C=N/c2ccccc2[N-]C(=O)c2ccccc2Br)cc1

>  <Energy>  (11) 
55.67734191142536

>  <Genealogy>  (11) 
COc1ccc(C=Nc2ccccc2[N-]C(=O)c2ccccc2Br)cc1 (protonated)
COc1ccc(/C=N/c2ccccc2[N-]C(=O)c2ccccc2Br)cc1 (cis-trans isomerization)
COc1ccc(/C=N/c2ccccc2[N-]C(=O)c2ccccc2Br)cc1 (3D coordinates assigned)
COc1ccc(/C=N/c2ccccc2[N-]C(=O)c2ccccc2Br)cc1 (optimized conformer: 55.67734191142536 kcal/mol)

>  <smiles>  (11) 
COc1ccc(C=Nc2ccccc2NC(=O)c2ccccc2Br)cc1

>  <score_type>  (11) 
oracle

>  <origin>  (11) 
adgpu

>  <m_score__min__energy>  (11) 
-9.3200000000000003

>  <m_primary>  (11) 
energy

$$$$
11:0
     RDKit          3D

 51 54  0  0  0  0  0  0  0  0999 V2000
   -0.2990   16.6620  -34.3320 H   0  0  0  0  0  0  0  0  0  0  0  0
   -0.8900   17.1240  -33.6060 N   0  0  0  0  0  0  0  0  0  0  0  0
   -1.6070   18.3210  -33.8970 C   0  0  0  0  0  0  0  0  0  0  0  0
   -2.6200   18.2740  -34.6450 O   0  0  0  0  0  0  0  0  0  0  0  0
   -1.2280   19.5970  -33.2650 C   0  0  0  0  0  0  0  0  0  0  0  0
   -2.0160   20.2750  -32.3550 C   0  0  0  0  0  0  0  0  0  0  0  0
   -3.0694   20.0539  -32.1281 H   0  0  0  0  0  0  0  0  0  0  0  0
   -1.2790   21.2520  -31.7920 N   0  0  0  0  0  0  0  0  0  0  0  0
   -1.7630   22.2190  -30.7970 C   0  0  1  0  0  0  0  0  0  0  0  0
   -1.4680   23.2214  -31.1407 H   0  0  0  0  0  0  0  0  0  0  0  0
   -3.3000   22.1840  -30.7100 C   0  0  0  0  0  0  0  0  0  0  0  0
   -3.6221   21.1970  -30.3466 H   0  0  0  0  0  0  0  0  0  0  0  0
   -3.7230   22.3696  -31.7083 H   0  0  0  0  0  0  0  0  0  0  0  0
   -3.7940   23.2670  -29.7440 C   0  0  0  0  0  0  0  0  0  0  0  0
   -4.8620   23.1020  -29.5387 H   0  0  0  0  0  0  0  0  0  0  0  0
   -3.6313   24.2479  -30.2146 H   0  0  0  0  0  0  0  0  0  0  0  0
   -3.0540   23.2380  -28.4740 N   0  0  0  0  0  0  0  0  0  0  0  0
   -3.3210   24.2550  -27.4880 C   0  0  0  0  0  0  0  0  0  0  0  0
   -4.4790   24.3540  -26.9980 O   0  0  0  0  0  0  0  0  0  0  0  0
   -2.2750   25.1990  -27.0380 C   0  0  0  0  0  0  0  0  0  0  0  0
   -2.0560   25.3840  -25.6620 C   0  0  0  0  0  0  0  0  0  0  0  0
   -2.6600   24.8237  -24.9332 H   0  0  0  0  0  0  0  0  0  0  0  0
   -1.0760   26.2750  -25.2120 C   0  0  0  0  0  0  0  0  0  0  0  0
   -0.8370   26.4960  -23.4860 Cl  0  0  0  0  0  0  0  0  0  0  0  0
   -0.2950   26.9830  -26.1350 C   0  0  0  0  0  0  0  0  0  0  0  0
    0.6790   27.8730  -25.6860 O   0  0  0  0  0  0  0  0  0  0  0  0
    1.1230   27.7620  -24.7820 H   0  0  0  0  0  0  0  0  0  0  0  0
   -0.4950   26.7880  -27.5080 C   0  0  0  0  0  0  0  0  0  0  0  0
    0.1189   27.3417  -28.2336 H   0  0  0  0  0  0  0  0  0  0  0  0
   -1.4700   25.8940  -27.9620 C   0  0  0  0  0  0  0  0  0  0  0  0
   -1.6160   25.6880  -29.3300 O   0  0  0  0  0  0  0  0  0  0  0  0
   -2.0710   22.1730  -28.2190 C   0  0  0  0  0  0  0  0  0  0  0  0
   -2.6011   21.2186  -28.0845 H   0  0  0  0  0  0  0  0  0  0  0  0
   -1.5035   22.4291  -27.3122 H   0  0  0  0  0  0  0  0  0  0  0  0
   -1.0820   22.0400  -29.3980 C   0  0  1  0  0  0  0  0  0  0  0  0
   -0.3593   22.8679  -29.3499 H   0  0  0  0  0  0  0  0  0  0  0  0
   -0.3490   20.7660  -29.2630 C   0  0  0  0  0  0  0  0  0  0  0  0
    0.2280   19.7690  -29.1580 N   0  0  0  0  0  0  0  0  0  0  0  0
   -0.0600   21.2590  -32.3120 N   0  0  0  0  0  0  0  0  0  0  0  0
   -0.0020   20.2680  -33.2200 C   0  0  0  0  0  0  0  0  0  0  0  0
    1.0650   20.0660  -33.9400 N   0  0  0  0  0  0  0  0  0  0  0  0
    1.2000   19.2260  -35.0940 C   0  0  0  0  0  0  0  0  0  0  0  0
    1.7480   17.9370  -34.9900 C   0  0  0  0  0  0  0  0  0  0  0  0
    2.1271   17.5710  -34.0244 H   0  0  0  0  0  0  0  0  0  0  0  0
    1.8070   17.1240  -36.1250 C   0  0  0  0  0  0  0  0  0  0  0  0
    2.2522   16.1203  -36.0592 H   0  0  0  0  0  0  0  0  0  0  0  0
    1.3150   17.5720  -37.3100 N   0  0  0  0  0  0  0  0  0  0  0  0
    0.7480   18.8030  -37.4280 C   0  0  0  0  0  0  0  0  0  0  0  0
    0.2530   19.2060  -38.6240 F   0  0  0  0  0  0  0  0  0  0  0  0
    0.6680   19.6470  -36.3170 C   0  0  0  0  0  0  0  0  0  0  0  0
    0.1906   20.6342  -36.4037 H   0  0  0  0  0  0  0  0  0  0  0  0
  1  2  1  0
  2  3  1  0
  3  4  2  0
  3  5  1  0
  5  6  2  0
  6  7  1  0
  6  8  1  0
  8  9  1  0
  9 10  1  6
  9 11  1  0
 11 12  1  0
 11 13  1  0
 11 14  1  0
 14 15  1  0
 14 16  1  0
 14 17  1  0
 17 18  1  0
 18 19  2  0
 18 20  1  0
 20 21  2  0
 21 22  1  0
 21 23  1  0
 23 24  1  0
 23 25  2  0
 25 26  1  0
 26 27  1  0
 25 28  1  0
 28 29  1  0
 28 30  2  0
 30 31  1  0
 17 32  1  0
 32 33  1  0
 32 34  1  0
 32 35  1  0
 35 36  1  1
 35 37  1  0
 37 38  3  0
  8 39  1  0
 39 40  1  0
 40 41  2  0
 41 42  1  0
 42 43  2  0
 43 44  1  0
 43 45  1  0
 45 46  1  0
 45 47  2  0
 47 48  1  0
 48 49  1  0
 48 50  2  0
 50 51  1  0
 40  5  1  0
 50 42  1  0
 35  9  1  0
 30 20  1  0
M  CHG  3   2  -1  31  -1  39  -1
M  END
>  <UniqueID>  (12) 
11

>  <SMILES>  (12) 
N#C[C@@H]1CN(C(=O)c2cc(Cl)c(O)cc2[O-])CC[C@@H]1n1cc(C([NH-])=O)/c(=N\c2ccnc(F)c2)[n-]1

>  <Energy>  (12) 
110.87169890833438

>  <Genealogy>  (12) 
N#CC1CN(C(=O)c2cc(Cl)c(O)cc2[O-])CCC1n1cc(C([NH-])=O)c(=Nc2ccnc(F)c2)[n-]1 (protonated)
N#C[C@@H]1CN(C(=O)c2cc(Cl)c(O)cc2[O-])CC[C@@H]1n1cc(C([NH-])=O)c(=Nc2ccnc(F)c2)[n-]1 (chirality)
N#C[C@@H]1CN(C(=O)c2cc(Cl)c(O)cc2[O-])CC[C@@H]1n1cc(C([NH-])=O)/c(=N\c2ccnc(F)c2)[n-]1 (cis-trans isomerization)
N#C[C@@H]1CN(C(=O)c2cc(Cl)c(O)cc2[O-])CC[C@@H]1n1cc(C([NH-])=O)/c(=N\c2ccnc(F)c2)[n-]1 (3D coordinates assigned)
N#C[C@@H]1CN(C(=O)c2cc(Cl)c(O)cc2[O-])CC[C@@H]1n1cc(C([NH-])=O)/c(=N\c2ccnc(F)c2)[n-]1 (nonaromatic ring conformer: 110.87169890833438 kcal/mol)

>  <smiles>  (12) 
N#CC1CN(C(=O)c2cc(Cl)c(O)cc2O)CCC1n1cc(C(N)=O)c(=Nc2ccnc(F)c2)[nH]1

>  <score_type>  (12) 
oracle

>  <origin>  (12) 
adgpu

>  <m_score__min__energy>  (12) 
-10.09

>  <m_primary>  (12) 
energy

$$$$
12:0
     RDKit          3D

 29 31  0  0  0  0  0  0  0  0999 V2000
   -5.0214   19.3011  -35.1788 H   0  0  0  0  0  0  0  0  0  0  0  0
   -5.7400   18.9110  -34.4430 C   0  0  0  0  0  0  0  0  0  0  0  0
   -6.6820   19.6160  -33.8590 O   0  0  0  0  0  0  0  0  0  0  0  0
   -7.3480   18.8310  -33.0450 C   0  0  0  0  0  0  0  0  0  0  0  0
   -8.4780   19.2750  -32.2190 C   0  0  0  0  0  0  0  0  0  0  0  0
   -9.3180   18.4230  -31.8210 O   0  0  0  0  0  0  0  0  0  0  0  0
   -8.6040   20.6660  -31.8800 N   0  0  0  0  0  0  0  0  0  0  0  0
   -7.6620   21.4800  -31.4990 C   0  0  0  0  0  0  0  0  0  0  0  0
   -6.0150   21.1000  -31.3050 S   0  0  0  0  0  0  0  0  0  0  0  0
   -5.6340   22.6660  -30.8290 C   0  0  0  0  0  0  0  0  0  0  0  0
   -4.3930   23.1870  -30.4720 C   0  0  0  0  0  0  0  0  0  0  0  0
   -3.4929   22.5547  -30.4767 H   0  0  0  0  0  0  0  0  0  0  0  0
   -4.3200   24.5510  -30.1030 C   0  0  0  0  0  0  0  0  0  0  0  0
   -3.1130   25.1590  -29.7290 O   0  0  0  0  0  0  0  0  0  0  0  0
   -2.1470   24.5650  -28.8680 C   0  0  0  0  0  0  0  0  0  0  0  0
   -2.4325   24.7405  -27.8203 H   0  0  0  0  0  0  0  0  0  0  0  0
   -2.1016   23.4827  -29.0593 H   0  0  0  0  0  0  0  0  0  0  0  0
   -1.1607   25.0129  -29.0593 H   0  0  0  0  0  0  0  0  0  0  0  0
   -5.4920   25.3360  -30.1080 C   0  0  0  0  0  0  0  0  0  0  0  0
   -5.4343   26.3967  -29.8222 H   0  0  0  0  0  0  0  0  0  0  0  0
   -6.7310   24.7850  -30.4720 C   0  0  0  0  0  0  0  0  0  0  0  0
   -7.6411   25.4028  -30.4728 H   0  0  0  0  0  0  0  0  0  0  0  0
   -6.7850   23.4370  -30.8330 C   0  0  0  0  0  0  0  0  0  0  0  0
   -7.9130   22.7780  -31.2060 N   0  0  0  0  0  0  0  0  0  0  0  0
   -8.8600   23.2190  -31.2600 H   0  0  0  0  0  0  0  0  0  0  0  0
   -6.8280   17.5520  -33.0900 C   0  0  0  0  0  0  0  0  0  0  0  0
   -7.1714   16.6738  -32.5236 H   0  0  0  0  0  0  0  0  0  0  0  0
   -5.7880   17.6070  -33.9940 C   0  0  0  0  0  0  0  0  0  0  0  0
   -5.1299   16.7790  -34.2960 H   0  0  0  0  0  0  0  0  0  0  0  0
  1  2  1  0
  2  3  1  0
  3  4  1  0
  4  5  1  0
  5  6  2  0
  5  7  1  0
  7  8  2  0
  8  9  1  0
  9 10  1  0
 10 11  2  0
 11 12  1  0
 11 13  1  0
 13 14  1  0
 14 15  1  0
 15 16  1  0
 15 17  1  0
 15 18  1  0
 13 19  2  0
 19 20  1  0
 19 21  1  0
 21 22  1  0
 21 23  2  0
 23 24  1  0
 24 25  1  0
  4 26  2  0
 26 27  1  0
 26 28  1  0
 28 29  1  0
 28  2  2  0
 24  8  1  0
 23 10  1  0
M  END
>  <UniqueID>  (13) 
12

>  <SMILES>  (13) 
COc1ccc2[nH]/c(=N/C(=O)c3ccco3)sc2c1

>  <Energy>  (13) 
93.61588629300716

>  <Genealogy>  (13) 
COc1ccc2[nH]/c(=N/C(=O)c3ccco3)sc2c1 (cis-trans isomerization)
COc1ccc2[nH]/c(=N/C(=O)c3ccco3)sc2c1 (3D coordinates assigned)
COc1ccc2[nH]/c(=N/C(=O)c3ccco3)sc2c1 (optimized conformer: 93.61588629300716 kcal/mol)

>  <smiles>  (13) 
COc1ccc2[nH]c(=NC(=O)c3ccco3)sc2c1

>  <score_type>  (13) 
oracle

>  <origin>  (13) 
adgpu

>  <m_score__min__energy>  (13) 
-7.5199999999999996

>  <m_primary>  (13) 
energy

$$$$
13:0
     RDKit          3D

 43 45  0  0  0  0  0  0  0  0999 V2000
   -0.9746   19.1670  -28.8946 H   0  0  0  0  0  0  0  0  0  0  0  0
   -1.3310   20.2060  -28.9530 C   0  0  0  0  0  0  0  0  0  0  0  0
   -0.6590   21.1310  -29.7560 C   0  0  0  0  0  0  0  0  0  0  0  0
    0.2239   20.8190  -30.3333 H   0  0  0  0  0  0  0  0  0  0  0  0
   -1.1080   22.4520  -29.8260 C   0  0  0  0  0  0  0  0  0  0  0  0
   -0.5831   23.1748  -30.4679 H   0  0  0  0  0  0  0  0  0  0  0  0
   -2.2250   22.8620  -29.0820 C   0  0  0  0  0  0  0  0  0  0  0  0
   -2.7330   24.5530  -29.1370 S   0  0  0  0  0  0  0  0  0  0  0  0
   -3.4350   24.8910  -27.8530 O   0  0  0  0  0  0  0  0  0  0  0  0
   -1.5520   25.4650  -29.3140 O   0  0  0  0  0  0  0  0  0  0  0  0
   -3.8250   24.7850  -30.4640 N   0  0  0  0  0  0  0  0  0  0  0  0
   -4.8340   23.8410  -30.8470 C   0  0  0  0  0  0  0  0  0  0  0  0
   -6.1770   24.2300  -30.7980 C   0  0  0  0  0  0  0  0  0  0  0  0
   -6.4367   25.2699  -30.5505 H   0  0  0  0  0  0  0  0  0  0  0  0
   -7.1910   23.3040  -31.0620 C   0  0  0  0  0  0  0  0  0  0  0  0
   -8.2450   23.6141  -31.0089 H   0  0  0  0  0  0  0  0  0  0  0  0
   -6.8670   21.9820  -31.3940 C   0  0  0  0  0  0  0  0  0  0  0  0
   -8.1380   20.7880  -31.6230 S   0  0  0  0  0  0  0  0  0  0  0  0
   -8.5270   20.8050  -33.0730 O   0  0  0  0  0  0  0  0  0  0  0  0
   -9.3530   21.1130  -30.8000 O   0  0  0  0  0  0  0  0  0  0  0  0
   -7.5790   19.1930  -31.2260 N   0  0  0  0  0  0  0  0  0  0  0  0
   -6.7970   18.3880  -31.8870 C   0  0  0  0  0  0  0  0  0  0  0  0
   -6.4930   17.1990  -31.4180 O   0  0  0  0  0  0  0  0  0  0  0  0
   -5.7210   16.5600  -32.2420 N   0  0  0  0  0  0  0  0  0  0  0  0
   -5.3500   15.5960  -32.0850 H   0  0  0  0  0  0  0  0  0  0  0  0
   -5.4990   17.3480  -33.3080 C   0  0  0  0  0  0  0  0  0  0  0  0
   -4.6510   16.9520  -34.4760 C   0  0  0  0  0  0  0  0  0  0  0  0
   -3.7100   16.5125  -34.1136 H   0  0  0  0  0  0  0  0  0  0  0  0
   -5.1899   16.2124  -35.0864 H   0  0  0  0  0  0  0  0  0  0  0  0
   -4.4299   17.8400  -35.0864 H   0  0  0  0  0  0  0  0  0  0  0  0
   -6.1580   18.5570  -33.1260 C   0  0  0  0  0  0  0  0  0  0  0  0
   -6.1970   19.6760  -34.1250 C   0  0  0  0  0  0  0  0  0  0  0  0
   -6.2306   20.6395  -33.5953 H   0  0  0  0  0  0  0  0  0  0  0  0
   -5.2969   19.6357  -34.7560 H   0  0  0  0  0  0  0  0  0  0  0  0
   -7.0921   19.5731  -34.7560 H   0  0  0  0  0  0  0  0  0  0  0  0
   -5.5220   21.6060  -31.5090 C   0  0  0  0  0  0  0  0  0  0  0  0
   -5.2626   20.5830  -31.8190 H   0  0  0  0  0  0  0  0  0  0  0  0
   -4.5110   22.5270  -31.2310 C   0  0  0  0  0  0  0  0  0  0  0  0
   -3.4567   22.2239  -31.3126 H   0  0  0  0  0  0  0  0  0  0  0  0
   -2.9060   21.9240  -28.2860 C   0  0  0  0  0  0  0  0  0  0  0  0
   -4.0020   22.2840  -27.5730 F   0  0  0  0  0  0  0  0  0  0  0  0
   -2.4560   20.6010  -28.2240 C   0  0  0  0  0  0  0  0  0  0  0  0
   -2.9893   19.8692  -27.5995 H   0  0  0  0  0  0  0  0  0  0  0  0
  1  2  1  0
  2  3  2  0
  3  4  1  0
  3  5  1  0
  5  6  1  0
  5  7  2  0
  7  8  1  0
  8  9  2  0
  8 10  2  0
  8 11  1  0
 11 12  1  0
 12 13  2  0
 13 14  1  0
 13 15  1  0
 15 16  1  0
 15 17  2  0
 17 18  1  0
 18 19  2  0
 18 20  2  0
 18 21  1  0
 21 22  2  0
 22 23  1  0
 23 24  1  0
 24 25  1  0
 24 26  1  0
 26 27  1  0
 27 28  1  0
 27 29  1  0
 27 30  1  0
 26 31  2  0
 31 32  1  0
 32 33  1  0
 32 34  1  0
 32 35  1  0
 17 36  1  0
 36 37  1  0
 36 38  2  0
 38 39  1  0
  7 40  1  0
 40 41  1  0
 40 42  2  0
 42 43  1  0
 42  2  1  0
 38 12  1  0
 31 22  1  0
M  CHG  1  11  -1
M  END
>  <UniqueID>  (14) 
13

>  <SMILES>  (14) 
Cc1[nH]o/c(=N/S(=O)(=O)c2ccc([N-]S(=O)(=O)c3ccccc3F)cc2)c1C

>  <Energy>  (14) 
87.64884354722524

>  <Genealogy>  (14) 
Cc1[nH]oc(=NS(=O)(=O)c2ccc([N-]S(=O)(=O)c3ccccc3F)cc2)c1C (protonated)
Cc1[nH]o/c(=N/S(=O)(=O)c2ccc([N-]S(=O)(=O)c3ccccc3F)cc2)c1C (cis-trans isomerization)
Cc1[nH]o/c(=N/S(=O)(=O)c2ccc([N-]S(=O)(=O)c3ccccc3F)cc2)c1C (3D coordinates assigned)
Cc1[nH]o/c(=N/S(=O)(=O)c2ccc([N-]S(=O)(=O)c3ccccc3F)cc2)c1C (optimized conformer: 87.64884354722524 kcal/mol)

>  <smiles>  (14) 
Cc1[nH]oc(=NS(=O)(=O)c2ccc(NS(=O)(=O)c3ccccc3F)cc2)c1C

>  <score_type>  (14) 
oracle

>  <origin>  (14) 
adgpu

>  <m_score__min__energy>  (14) 
-10.49

>  <m_primary>  (14) 
energy

$$$$
14:0
     RDKit          3D

 53 55  0  0  0  0  0  0  0  0999 V2000
   -0.9500   30.2890  -25.2110 C   0  0  0  0  0  0  0  0  0  0  0  0
   -0.6040   29.0710  -24.5610 O   0  0  0  0  0  0  0  0  0  0  0  0
   -0.3010   27.8700  -25.2230 C   0  0  0  0  0  0  0  0  0  0  0  0
   -1.2450   27.2000  -26.0220 C   0  0  0  0  0  0  0  0  0  0  0  0
   -0.9240   25.9930  -26.6640 C   0  0  0  0  0  0  0  0  0  0  0  0
   -1.9870   25.2810  -27.4060 C   0  0  0  0  0  0  0  0  0  0  0  0
   -2.8040   24.5500  -26.7810 O   0  0  0  0  0  0  0  0  0  0  0  0
   -2.0230   25.3420  -28.8380 N   0  0  0  0  0  0  0  0  0  0  0  0
   -2.4780   24.3070  -29.7200 C   0  0  0  0  0  0  0  0  0  0  0  0
   -3.7950   24.3540  -30.1920 C   0  0  0  0  0  0  0  0  0  0  0  0
   -4.2870   23.3460  -31.0270 C   0  0  0  0  0  0  0  0  0  0  0  0
   -3.4670   22.2680  -31.3840 C   0  0  0  0  0  0  0  0  0  0  0  0
   -4.0860   20.9810  -32.4140 S   0  0  0  0  0  0  0  0  0  0  0  0
   -3.2070   20.7960  -33.6200 O   0  0  0  0  0  0  0  0  0  0  0  0
   -4.1130   19.6980  -31.6310 O   0  0  0  0  0  0  0  0  0  0  0  0
   -5.6960   21.3640  -32.9390 N   0  0  0  0  0  0  0  0  0  0  0  0
   -6.8510   20.5420  -32.6650 C   0  0  0  0  0  0  0  0  0  0  0  0
   -6.8250   19.1570  -32.9260 C   0  0  0  0  0  0  0  0  0  0  0  0
   -7.9460   18.3630  -32.6820 C   0  0  0  0  0  0  0  0  0  0  0  0
   -9.1120   18.9350  -32.1770 C   0  0  0  0  0  0  0  0  0  0  0  0
   -9.1620   20.3040  -31.9140 C   0  0  0  0  0  0  0  0  0  0  0  0
   -8.0400   21.1180  -32.1480 C   0  0  0  0  0  0  0  0  0  0  0  0
   -8.1350   22.5900  -31.8470 C   0  0  0  0  0  0  0  0  0  0  0  0
   -2.1540   22.2070  -30.9010 C   0  0  0  0  0  0  0  0  0  0  0  0
   -1.6620   23.2150  -30.0690 C   0  0  0  0  0  0  0  0  0  0  0  0
    0.3830   25.4670  -26.5340 C   0  0  0  0  0  0  0  0  0  0  0  0
    0.7980   24.3000  -27.2630 N   0  0  0  0  0  0  0  0  0  0  0  0
    0.9790   24.3620  -28.4970 O   0  0  0  0  0  0  0  0  0  0  0  0
    0.7760   23.0650  -26.6570 O   0  0  0  0  0  0  0  0  0  0  0  0
    1.3160   26.1330  -25.7220 C   0  0  0  0  0  0  0  0  0  0  0  0
    0.9820   27.3310  -25.0680 C   0  0  0  0  0  0  0  0  0  0  0  0
    1.9010   28.0220  -24.2620 O   0  0  0  0  0  0  0  0  0  0  0  0
    1.7400   28.2490  -22.8650 C   0  0  0  0  0  0  0  0  0  0  0  0
   -1.1686   31.0584  -24.4558 H   0  0  0  0  0  0  0  0  0  0  0  0
   -0.1105   30.6204  -25.8398 H   0  0  0  0  0  0  0  0  0  0  0  0
   -1.8384   30.1296  -25.8398 H   0  0  0  0  0  0  0  0  0  0  0  0
   -2.2506   27.6283  -26.1459 H   0  0  0  0  0  0  0  0  0  0  0  0
   -4.4483   25.1907  -29.9037 H   0  0  0  0  0  0  0  0  0  0  0  0
   -5.3190   23.3997  -31.4039 H   0  0  0  0  0  0  0  0  0  0  0  0
   -5.8020   22.2580  -33.4660 H   0  0  0  0  0  0  0  0  0  0  0  0
   -5.9099   18.6967  -33.3269 H   0  0  0  0  0  0  0  0  0  0  0  0
   -7.9093   17.2832  -32.8887 H   0  0  0  0  0  0  0  0  0  0  0  0
   -9.9940   18.3062  -31.9855 H   0  0  0  0  0  0  0  0  0  0  0  0
  -10.0871   20.7503  -31.5202 H   0  0  0  0  0  0  0  0  0  0  0  0
   -8.1448   22.7416  -30.7575 H   0  0  0  0  0  0  0  0  0  0  0  0
   -7.2685   23.1098  -32.2818 H   0  0  0  0  0  0  0  0  0  0  0  0
   -9.0611   22.9941  -32.2818 H   0  0  0  0  0  0  0  0  0  0  0  0
   -1.5073   21.3614  -31.1781 H   0  0  0  0  0  0  0  0  0  0  0  0
   -0.6329   23.1551  -29.6851 H   0  0  0  0  0  0  0  0  0  0  0  0
    2.3236   25.7101  -25.5962 H   0  0  0  0  0  0  0  0  0  0  0  0
    2.2870   27.4778  -22.3028 H   0  0  0  0  0  0  0  0  0  0  0  0
    2.1369   29.2418  -22.6067 H   0  0  0  0  0  0  0  0  0  0  0  0
    0.6718   28.2027  -22.6067 H   0  0  0  0  0  0  0  0  0  0  0  0
  1  2  1  0
  2  3  1  0
  3  4  2  0
  4  5  1  0
  5  6  1  0
  6  7  2  0
  6  8  1  0
  8  9  1  0
  9 10  2  0
 10 11  1  0
 11 12  2  0
 12 13  1  0
 13 14  2  0
 13 15  2  0
 13 16  1  0
 16 17  1  0
 17 18  2  0
 18 19  1  0
 19 20  2  0
 20 21  1  0
 21 22  2  0
 22 23  1  0
 12 24  1  0
 24 25  2  0
  5 26  2  0
 26 27  1  0
 27 28  2  0
 27 29  1  0
 26 30  1  0
 30 31  2  0
 31 32  1  0
 32 33  1  0
 31  3  1  0
 25  9  1  0
 22 17  1  0
  1 34  1  0
  1 35  1  0
  1 36  1  0
  4 37  1  0
 10 38  1  0
 11 39  1  0
 16 40  1  0
 18 41  1  0
 19 42  1  0
 20 43  1  0
 21 44  1  0
 23 45  1  0
 23 46  1  0
 23 47  1  0
 24 48  1  0
 25 49  1  0
 30 50  1  0
 33 51  1  0
 33 52  1  0
 33 53  1  0
M  CHG  3   8  -1  27   1  29  -1
M  END
>  <UniqueID>  (15) 
14

>  <SMILES>  (15) 
COc1cc(C(=O)[N-]c2ccc(S(=O)(=O)Nc3ccccc3C)cc2)c([N+](=O)[O-])cc1OC

>  <Energy>  (15) 
71.07858576553029

>  <Genealogy>  (15) 
COc1cc(C(=O)[N-]c2ccc(S(=O)(=O)Nc3ccccc3C)cc2)c([N+](=O)[O-])cc1OC (protonated)
COc1cc(C(=O)[N-]c2ccc(S(=O)(=O)Nc3ccccc3C)cc2)c([N+](=O)[O-])cc1OC (3D coordinates assigned)
COc1cc(C(=O)[N-]c2ccc(S(=O)(=O)Nc3ccccc3C)cc2)c([N+](=O)[O-])cc1OC (optimized conformer: 71.07858576553029 kcal/mol)

>  <smiles>  (15) 
COc1cc(C(=O)Nc2ccc(S(=O)(=O)Nc3ccccc3C)cc2)c([N+](=O)[O-])cc1OC

>  <score_type>  (15) 
oracle

>  <origin>  (15) 
adgpu

>  <m_score__min__energy>  (15) 
-11.27

>  <m_primary>  (15) 
energy

$$$$
15:0
     RDKit          3D

 42 44  0  0  0  0  0  0  0  0999 V2000
   -3.8630   25.6880  -30.7680 O   0  0  0  0  0  0  0  0  0  0  0  0
   -4.8550   24.7260  -30.6180 C   0  0  0  0  0  0  0  0  0  0  0  0
   -5.7510   24.3580  -31.5980 C   0  0  0  0  0  0  0  0  0  0  0  0
   -6.5610   23.3970  -31.0190 C   0  0  0  0  0  0  0  0  0  0  0  0
   -7.6830   22.6610  -31.7070 C   0  0  2  0  0  0  0  0  0  0  0  0
   -8.7590   23.5170  -31.9950 O   0  0  0  0  0  0  0  0  0  0  0  0
   -8.1330   21.5050  -30.9100 N   0  0  0  0  0  0  0  0  0  0  0  0
   -8.7930   20.4320  -31.6820 C   0  0  0  0  0  0  0  0  0  0  0  0
   -7.8090   19.5280  -32.3850 C   0  0  0  0  0  0  0  0  0  0  0  0
   -6.9430   20.0430  -33.3640 C   0  0  0  0  0  0  0  0  0  0  0  0
   -6.0280   19.2020  -34.0070 C   0  0  0  0  0  0  0  0  0  0  0  0
   -5.9750   17.8450  -33.6830 C   0  0  0  0  0  0  0  0  0  0  0  0
   -6.8390   17.3230  -32.7160 C   0  0  0  0  0  0  0  0  0  0  0  0
   -7.7550   18.1590  -32.0690 C   0  0  0  0  0  0  0  0  0  0  0  0
   -6.1170   23.2160  -29.7180 C   0  0  0  0  0  0  0  0  0  0  0  0
   -5.0680   24.0280  -29.4850 N   0  0  0  0  0  0  0  0  0  0  0  0
   -4.3640   24.1820  -28.2140 C   0  0  0  0  0  0  0  0  0  0  0  0
   -3.0440   23.4640  -28.2700 C   0  0  0  0  0  0  0  0  0  0  0  0
   -1.9080   24.1090  -28.7850 C   0  0  0  0  0  0  0  0  0  0  0  0
   -0.6900   23.4280  -28.8750 C   0  0  0  0  0  0  0  0  0  0  0  0
   -0.6010   22.0960  -28.4620 C   0  0  0  0  0  0  0  0  0  0  0  0
   -1.7300   21.4430  -27.9600 C   0  0  0  0  0  0  0  0  0  0  0  0
   -2.9500   22.1210  -27.8690 C   0  0  0  0  0  0  0  0  0  0  0  0
   -5.8100   24.7467  -32.6253 H   0  0  0  0  0  0  0  0  0  0  0  0
   -7.2886   22.2831  -32.6618 H   0  0  0  0  0  0  0  0  0  0  0  0
   -8.4370   24.1680  -32.6720 H   0  0  0  0  0  0  0  0  0  0  0  0
   -7.3150   21.1120  -30.3900 H   0  0  0  0  0  0  0  0  0  0  0  0
   -9.3984   19.8246  -30.9931 H   0  0  0  0  0  0  0  0  0  0  0  0
   -9.4124   20.9119  -32.4540 H   0  0  0  0  0  0  0  0  0  0  0  0
   -6.9844   21.1106  -33.6259 H   0  0  0  0  0  0  0  0  0  0  0  0
   -5.3489   19.6110  -34.7696 H   0  0  0  0  0  0  0  0  0  0  0  0
   -5.2533   17.1866  -34.1887 H   0  0  0  0  0  0  0  0  0  0  0  0
   -6.7985   16.2531  -32.4635 H   0  0  0  0  0  0  0  0  0  0  0  0
   -8.4352   17.7441  -31.3106 H   0  0  0  0  0  0  0  0  0  0  0  0
   -6.5538   22.5175  -28.9891 H   0  0  0  0  0  0  0  0  0  0  0  0
   -4.1900   25.2508  -28.0206 H   0  0  0  0  0  0  0  0  0  0  0  0
   -4.9758   23.7529  -27.4068 H   0  0  0  0  0  0  0  0  0  0  0  0
   -1.9765   25.1548  -29.1192 H   0  0  0  0  0  0  0  0  0  0  0  0
    0.1987   23.9412  -29.2712 H   0  0  0  0  0  0  0  0  0  0  0  0
    0.3578   21.5614  -28.5320 H   0  0  0  0  0  0  0  0  0  0  0  0
   -1.6591   20.3942  -27.6359 H   0  0  0  0  0  0  0  0  0  0  0  0
   -3.8387   21.6009  -27.4822 H   0  0  0  0  0  0  0  0  0  0  0  0
  1  2  1  0
  2  3  2  0
  3  4  1  0
  4  5  1  0
  5  6  1  0
  5  7  1  0
  7  8  1  0
  8  9  1  0
  9 10  2  0
 10 11  1  0
 11 12  2  0
 12 13  1  0
 13 14  2  0
  4 15  2  0
 15 16  1  0
 16 17  1  0
 17 18  1  0
 18 19  2  0
 19 20  1  0
 20 21  2  0
 21 22  1  0
 22 23  2  0
 16  2  1  0
 23 18  1  0
 14  9  1  0
  3 24  1  0
  5 25  1  6
  6 26  1  0
  7 27  1  0
  8 28  1  0
  8 29  1  0
 10 30  1  0
 11 31  1  0
 12 32  1  0
 13 33  1  0
 14 34  1  0
 15 35  1  0
 17 36  1  0
 17 37  1  0
 19 38  1  0
 20 39  1  0
 21 40  1  0
 22 41  1  0
 23 42  1  0
M  CHG  1   1  -1
M  END
>  <UniqueID>  (16) 
15

>  <SMILES>  (16) 
[O-]c1cc([C@H](O)NCc2ccccc2)cn1Cc1ccccc1

>  <Energy>  (16) 
71.82062993180179

>  <Genealogy>  (16) 
[O-]c1cc(C(O)NCc2ccccc2)cn1Cc1ccccc1 (protonated)
[O-]c1cc([C@H](O)NCc2ccccc2)cn1Cc1ccccc1 (chirality)
[O-]c1cc([C@H](O)NCc2ccccc2)cn1Cc1ccccc1 (3D coordinates assigned)
[O-]c1cc([C@H](O)NCc2ccccc2)cn1Cc1ccccc1 (optimized conformer: 71.82062993180179 kcal/mol)

>  <smiles>  (16) 
Oc1cc(C(O)NCc2ccccc2)cn1Cc1ccccc1

>  <score_type>  (16) 
oracle

>  <origin>  (16) 
adgpu

>  <m_score__min__energy>  (16) 
-10.970000000000001

>  <m_primary>  (16) 
energy

$$$$
16:0
     RDKit          3D

 32 34  0  0  0  0  0  0  0  0999 V2000
   -9.7700   18.7150  -32.0790 O   0  0  0  0  0  0  0  0  0  0  0  0
   -8.6510   18.2120  -32.3600 C   0  0  0  0  0  0  0  0  0  0  0  0
   -7.4270   19.0190  -32.2590 C   0  0  0  0  0  0  0  0  0  0  0  0
   -7.3520   20.3400  -31.8670 C   0  0  0  0  0  0  0  0  0  0  0  0
   -6.0480   20.6850  -31.7770 N   0  0  0  0  0  0  0  0  0  0  0  0
   -5.5110   21.9630  -31.3770 C   0  0  0  0  0  0  0  0  0  0  0  0
   -6.3340   23.1020  -31.2720 C   0  0  0  0  0  0  0  0  0  0  0  0
   -5.7940   24.3330  -30.8860 C   0  0  0  0  0  0  0  0  0  0  0  0
   -4.4280   24.4470  -30.6030 C   0  0  0  0  0  0  0  0  0  0  0  0
   -3.8800   25.6680  -30.2170 O   0  0  0  0  0  0  0  0  0  0  0  0
   -3.6030   23.3240  -30.7100 C   0  0  0  0  0  0  0  0  0  0  0  0
   -4.1380   22.0920  -31.0960 C   0  0  0  0  0  0  0  0  0  0  0  0
   -5.2930   19.6410  -32.0900 N   0  0  0  0  0  0  0  0  0  0  0  0
   -6.1070   18.6110  -32.3990 C   0  0  0  0  0  0  0  0  0  0  0  0
   -5.6030   17.2830  -32.8040 C   0  0  0  0  0  0  0  0  0  0  0  0
   -5.4150   16.9940  -34.1660 C   0  0  0  0  0  0  0  0  0  0  0  0
   -4.9570   15.7340  -34.5640 C   0  0  0  0  0  0  0  0  0  0  0  0
   -4.6980   14.7490  -33.6090 C   0  0  0  0  0  0  0  0  0  0  0  0
   -4.9040   15.0190  -32.2540 C   0  0  0  0  0  0  0  0  0  0  0  0
   -5.3600   16.2770  -31.8500 C   0  0  0  0  0  0  0  0  0  0  0  0
   -8.5889   17.1623  -32.6830 H   0  0  0  0  0  0  0  0  0  0  0  0
   -8.2078   21.0001  -31.6625 H   0  0  0  0  0  0  0  0  0  0  0  0
   -7.4082   23.0224  -31.4951 H   0  0  0  0  0  0  0  0  0  0  0  0
   -6.4456   25.2154  -30.8045 H   0  0  0  0  0  0  0  0  0  0  0  0
   -3.8700   26.4650  -30.8430 H   0  0  0  0  0  0  0  0  0  0  0  0
   -2.5288   23.4101  -30.4896 H   0  0  0  0  0  0  0  0  0  0  0  0
   -3.4797   21.2148  -31.1810 H   0  0  0  0  0  0  0  0  0  0  0  0
   -5.6291   17.7627  -34.9231 H   0  0  0  0  0  0  0  0  0  0  0  0
   -4.8005   15.5186  -35.6313 H   0  0  0  0  0  0  0  0  0  0  0  0
   -4.3318   13.7606  -33.9235 H   0  0  0  0  0  0  0  0  0  0  0  0
   -4.7069   14.2397  -31.5031 H   0  0  0  0  0  0  0  0  0  0  0  0
   -5.5296   16.4816  -30.7826 H   0  0  0  0  0  0  0  0  0  0  0  0
  1  2  2  0
  2  3  1  0
  3  4  2  0
  4  5  1  0
  5  6  1  0
  6  7  2  0
  7  8  1  0
  8  9  2  0
  9 10  1  0
  9 11  1  0
 11 12  2  0
  5 13  1  0
 13 14  2  0
 14 15  1  0
 15 16  2  0
 16 17  1  0
 17 18  2  0
 18 19  1  0
 19 20  2  0
 14  3  1  0
 20 15  1  0
 12  6  1  0
  2 21  1  0
  4 22  1  0
  7 23  1  0
  8 24  1  0
 10 25  1  0
 11 26  1  0
 12 27  1  0
 16 28  1  0
 17 29  1  0
 18 30  1  0
 19 31  1  0
 20 32  1  0
M  END
>  <UniqueID>  (17) 
16

>  <SMILES>  (17) 
O=Cc1cn(-c2ccc(O)cc2)nc1-c1ccccc1

>  <Energy>  (17) 
71.24459121000068

>  <Genealogy>  (17) 
O=Cc1cn(-c2ccc(O)cc2)nc1-c1ccccc1 (3D coordinates assigned)
O=Cc1cn(-c2ccc(O)cc2)nc1-c1ccccc1 (optimized conformer: 71.24459121000068 kcal/mol)

>  <smiles>  (17) 
O=Cc1cn(-c2ccc(O)cc2)nc1-c1ccccc1

>  <score_type>  (17) 
oracle

>  <origin>  (17) 
adgpu

>  <m_score__min__energy>  (17) 
-7.8300000000000001

>  <m_primary>  (17) 
energy

$$$$
17:0
     RDKit          3D

 26 27  0  0  0  0  0  0  0  0999 V2000
   -1.9420   24.2520  -30.1540 H   0  0  0  0  0  0  0  0  0  0  0  0
   -2.4370   23.3690  -30.1190 O   0  0  0  0  0  0  0  0  0  0  0  0
   -3.7770   23.2690  -30.4890 C   0  0  0  0  0  0  0  0  0  0  0  0
   -4.4200   22.0240  -30.5010 C   0  0  0  0  0  0  0  0  0  0  0  0
   -3.8657   21.1179  -30.2151 H   0  0  0  0  0  0  0  0  0  0  0  0
   -5.7630   21.9300  -30.8750 C   0  0  0  0  0  0  0  0  0  0  0  0
   -6.2665   20.9520  -30.8667 H   0  0  0  0  0  0  0  0  0  0  0  0
   -6.4740   23.0800  -31.2620 C   0  0  0  0  0  0  0  0  0  0  0  0
   -7.9040   23.0150  -31.6340 C   0  0  0  0  0  0  0  0  0  0  0  0
   -8.4873   23.9468  -31.5954 H   0  0  0  0  0  0  0  0  0  0  0  0
   -8.5200   21.9260  -32.0050 N   0  0  0  0  0  0  0  0  0  0  0  0
   -7.9340   20.6470  -32.2920 C   0  0  0  0  0  0  0  0  0  0  0  0
   -6.9720   20.4880  -33.3080 C   0  0  0  0  0  0  0  0  0  0  0  0
   -6.6314   21.3619  -33.8827 H   0  0  0  0  0  0  0  0  0  0  0  0
   -6.4490   19.2230  -33.5880 C   0  0  0  0  0  0  0  0  0  0  0  0
   -5.6832   19.1059  -34.3689 H   0  0  0  0  0  0  0  0  0  0  0  0
   -6.8970   18.1070  -32.8780 C   0  0  0  0  0  0  0  0  0  0  0  0
   -6.4780   17.1132  -33.0945 H   0  0  0  0  0  0  0  0  0  0  0  0
   -7.8770   18.2520  -31.8930 C   0  0  0  0  0  0  0  0  0  0  0  0
   -8.2353   17.3710  -31.3403 H   0  0  0  0  0  0  0  0  0  0  0  0
   -8.4030   19.5170  -31.6090 C   0  0  0  0  0  0  0  0  0  0  0  0
   -9.1882   19.6249  -30.8462 H   0  0  0  0  0  0  0  0  0  0  0  0
   -5.8340   24.3280  -31.2180 C   0  0  0  0  0  0  0  0  0  0  0  0
   -6.3931   25.2386  -31.4791 H   0  0  0  0  0  0  0  0  0  0  0  0
   -4.4890   24.4210  -30.8440 C   0  0  0  0  0  0  0  0  0  0  0  0
   -3.8630   25.6620  -30.8250 O   0  0  0  0  0  0  0  0  0  0  0  0
  1  2  1  0
  2  3  1  0
  3  4  2  0
  4  5  1  0
  4  6  1  0
  6  7  1  0
  6  8  2  0
  8  9  1  0
  9 10  1  0
  9 11  2  0
 11 12  1  0
 12 13  2  0
 13 14  1  0
 13 15  1  0
 15 16  1  0
 15 17  2  0
 17 18  1  0
 17 19  1  0
 19 20  1  0
 19 21  2  0
 21 22  1  0
  8 23  1  0
 23 24  1  0
 23 25  2  0
 25 26  1  0
 25  3  1  0
 21 12  1  0
M  CHG  1  26  -1
M  END
>  <UniqueID>  (18) 
17

>  <SMILES>  (18) 
[O-]c1cc(/C=N\c2ccccc2)ccc1O

>  <Energy>  (18) 
37.84446913153368

>  <Genealogy>  (18) 
[O-]c1cc(C=Nc2ccccc2)ccc1O (protonated)
[O-]c1cc(/C=N\c2ccccc2)ccc1O (cis-trans isomerization)
[O-]c1cc(/C=N\c2ccccc2)ccc1O (3D coordinates assigned)
[O-]c1cc(/C=N\c2ccccc2)ccc1O (optimized conformer: 37.84446913153368 kcal/mol)

>  <smiles>  (18) 
Oc1ccc(C=Nc2ccccc2)cc1O

>  <score_type>  (18) 
oracle

>  <origin>  (18) 
adgpu

>  <m_score__min__energy>  (18) 
-9.5299999999999994

>  <m_primary>  (18) 
energy

$$$$
18:0
     RDKit          3D

 43 45  0  0  0  0  0  0  0  0999 V2000
   -3.5463   17.2277  -35.5991 H   0  0  0  0  0  0  0  0  0  0  0  0
   -4.2390   17.6940  -34.8830 C   0  0  0  0  0  0  0  0  0  0  0  0
   -5.6010   17.4110  -34.9480 C   0  0  0  0  0  0  0  0  0  0  0  0
   -5.9824   16.7175  -35.7119 H   0  0  0  0  0  0  0  0  0  0  0  0
   -6.4830   18.0070  -34.0440 C   0  0  0  0  0  0  0  0  0  0  0  0
   -7.5579   17.7817  -34.1065 H   0  0  0  0  0  0  0  0  0  0  0  0
   -6.0160   18.8920  -33.0540 C   0  0  0  0  0  0  0  0  0  0  0  0
   -7.0270   19.5030  -32.0900 C   0  0  0  0  0  0  0  0  0  0  0  0
   -6.4751   19.7477  -31.1705 H   0  0  0  0  0  0  0  0  0  0  0  0
   -8.1290   18.5070  -31.7030 C   0  0  0  0  0  0  0  0  0  0  0  0
   -8.1983   18.4444  -30.6070 H   0  0  0  0  0  0  0  0  0  0  0  0
   -9.0915   18.8477  -32.1123 H   0  0  0  0  0  0  0  0  0  0  0  0
   -7.8870   17.5151  -32.1123 H   0  0  0  0  0  0  0  0  0  0  0  0
   -7.6140   20.8160  -32.6250 C   0  0  0  0  0  0  0  0  0  0  0  0
   -7.9018   21.4598  -31.7808 H   0  0  0  0  0  0  0  0  0  0  0  0
   -6.8605   21.3313  -33.2388 H   0  0  0  0  0  0  0  0  0  0  0  0
   -8.5004   20.5981  -33.2388 H   0  0  0  0  0  0  0  0  0  0  0  0
   -4.6230   19.1600  -32.9780 C   0  0  0  0  0  0  0  0  0  0  0  0
   -4.1140   20.0750  -31.9990 N   0  0  0  0  0  0  0  0  0  0  0  0
   -3.0340   20.9950  -32.1930 C   0  0  0  0  0  0  0  0  0  0  0  0
   -2.6090   21.2030  -33.3600 O   0  0  0  0  0  0  0  0  0  0  0  0
   -2.4190   21.6460  -31.0740 N   0  0  0  0  0  0  0  0  0  0  0  0
   -2.7440   22.7560  -30.4640 C   0  0  0  0  0  0  0  0  0  0  0  0
   -1.7570   23.3290  -29.6530 C   0  0  0  0  0  0  0  0  0  0  0  0
   -0.8382   22.7662  -29.4314 H   0  0  0  0  0  0  0  0  0  0  0  0
   -1.9300   24.6100  -29.1230 C   0  0  0  0  0  0  0  0  0  0  0  0
   -0.8340   25.2590  -28.3370 C   0  0  0  0  0  0  0  0  0  0  0  0
   -1.0341   25.1405  -27.2619 H   0  0  0  0  0  0  0  0  0  0  0  0
    0.1264   24.7839  -28.5857 H   0  0  0  0  0  0  0  0  0  0  0  0
   -0.7888   26.3296  -28.5857 H   0  0  0  0  0  0  0  0  0  0  0  0
   -3.0720   25.2960  -29.3750 N   0  0  0  0  0  0  0  0  0  0  0  0
   -4.0990   24.7540  -30.0790 C   0  0  0  0  0  0  0  0  0  0  0  0
   -5.2790   25.4910  -30.2340 C   0  0  0  0  0  0  0  0  0  0  0  0
   -5.3268   26.5308  -29.8783 H   0  0  0  0  0  0  0  0  0  0  0  0
   -6.3940   24.9110  -30.8380 C   0  0  0  0  0  0  0  0  0  0  0  0
   -7.3103   25.5016  -30.9852 H   0  0  0  0  0  0  0  0  0  0  0  0
   -6.3460   23.5820  -31.2550 C   0  0  0  0  0  0  0  0  0  0  0  0
   -7.2396   23.1141  -31.6938 H   0  0  0  0  0  0  0  0  0  0  0  0
   -5.1690   22.8400  -31.1190 C   0  0  0  0  0  0  0  0  0  0  0  0
   -5.1557   21.7813  -31.4173 H   0  0  0  0  0  0  0  0  0  0  0  0
   -3.9950   23.4360  -30.6020 C   0  0  0  0  0  0  0  0  0  0  0  0
   -3.7520   18.5680  -33.9110 C   0  0  0  0  0  0  0  0  0  0  0  0
   -2.6767   18.7966  -33.8736 H   0  0  0  0  0  0  0  0  0  0  0  0
  1  2  1  0
  2  3  2  0
  3  4  1  0
  3  5  1  0
  5  6  1  0
  5  7  2  0
  7  8  1  0
  8  9  1  0
  8 10  1  0
 10 11  1  0
 10 12  1  0
 10 13  1  0
  8 14  1  0
 14 15  1  0
 14 16  1  0
 14 17  1  0
  7 18  1  0
 18 19  1  0
 19 20  1  0
 20 21  2  0
 20 22  1  0
 22 23  2  0
 23 24  1  0
 24 25  1  0
 24 26  2  0
 26 27  1  0
 27 28  1  0
 27 29  1  0
 27 30  1  0
 26 31  1  0
 31 32  1  0
 32 33  2  0
 33 34  1  0
 33 35  1  0
 35 36  1  0
 35 37  2  0
 37 38  1  0
 37 39  1  0
 39 40  1  0
 39 41  2  0
 18 42  2  0
 42 43  1  0
 42  2  1  0
 41 23  1  0
 41 32  1  0
M  CHG  2  19  -1  31  -1
M  END
>  <UniqueID>  (19) 
18

>  <SMILES>  (19) 
Cc1c/c(=N/C(=O)[N-]c2ccccc2C(C)C)c2ccccc2[n-]1

>  <Energy>  (19) 
68.73538858168588

>  <Genealogy>  (19) 
Cc1cc(=NC(=O)[N-]c2ccccc2C(C)C)c2ccccc2[n-]1 (protonated)
Cc1c/c(=N/C(=O)[N-]c2ccccc2C(C)C)c2ccccc2[n-]1 (cis-trans isomerization)
Cc1c/c(=N/C(=O)[N-]c2ccccc2C(C)C)c2ccccc2[n-]1 (3D coordinates assigned)
Cc1c/c(=N/C(=O)[N-]c2ccccc2C(C)C)c2ccccc2[n-]1 (optimized conformer: 68.73538858168588 kcal/mol)

>  <smiles>  (19) 
Cc1cc(=NC(=O)Nc2ccccc2C(C)C)c2ccccc2[nH]1

>  <score_type>  (19) 
oracle

>  <origin>  (19) 
adgpu

>  <m_score__min__energy>  (19) 
-10.51

>  <m_primary>  (19) 
energy

$$$$
19:0
     RDKit          3D

 54 56  0  0  0  0  0  0  0  0999 V2000
   -9.0610   18.3780  -31.6730 C   0  0  0  0  0  0  0  0  0  0  0  0
   -9.3060   19.6340  -32.3040 O   0  0  0  0  0  0  0  0  0  0  0  0
   -8.4390   20.7350  -32.2330 C   0  0  0  0  0  0  0  0  0  0  0  0
   -8.8780   22.0200  -31.8540 C   0  0  0  0  0  0  0  0  0  0  0  0
   -7.9700   23.0820  -31.7810 C   0  0  0  0  0  0  0  0  0  0  0  0
   -6.6100   22.8770  -32.0800 C   0  0  0  0  0  0  0  0  0  0  0  0
   -5.6360   23.9270  -31.9900 N   0  0  0  0  0  0  0  0  0  0  0  0
   -4.9510   24.5810  -30.5340 S   0  0  0  0  0  0  0  0  0  0  0  0
   -6.0560   25.1910  -29.7160 O   0  0  0  0  0  0  0  0  0  0  0  0
   -3.9670   25.6700  -30.8610 O   0  0  0  0  0  0  0  0  0  0  0  0
   -4.1830   23.3060  -29.5910 C   0  0  0  0  0  0  0  0  0  0  0  0
   -4.0380   23.4290  -28.2010 C   0  0  0  0  0  0  0  0  0  0  0  0
   -3.4410   22.4020  -27.4620 C   0  0  0  0  0  0  0  0  0  0  0  0
   -3.0180   21.2280  -28.0980 C   0  0  0  0  0  0  0  0  0  0  0  0
   -2.3900   20.1990  -27.3160 N   0  0  0  0  0  0  0  0  0  0  0  0
   -1.2130   19.6770  -27.5190 C   0  0  0  0  0  0  0  0  0  0  0  0
   -0.4060   19.9480  -28.7350 C   0  0  0  0  0  0  0  0  0  0  0  0
    0.1130   21.1110  -29.0050 N   0  0  0  0  0  0  0  0  0  0  0  0
   -0.1300   22.3520  -28.3220 C   0  0  0  0  0  0  0  0  0  0  0  0
   -0.0050   22.4610  -26.9280 C   0  0  0  0  0  0  0  0  0  0  0  0
   -0.2940   23.6680  -26.2840 C   0  0  0  0  0  0  0  0  0  0  0  0
   -0.7450   24.7840  -27.0170 C   0  0  0  0  0  0  0  0  0  0  0  0
   -1.0440   26.0370  -26.3510 N   0  0  0  0  0  0  0  0  0  0  0  0
   -1.9670   26.0680  -25.2070 C   0  0  0  0  0  0  0  0  0  0  0  0
   -0.4510   27.2950  -26.8270 C   0  0  0  0  0  0  0  0  0  0  0  0
   -0.9020   24.6510  -28.4120 C   0  0  0  0  0  0  0  0  0  0  0  0
   -0.6070   23.4450  -29.0530 C   0  0  0  0  0  0  0  0  0  0  0  0
   -3.1360   21.1180  -29.4960 C   0  0  0  0  0  0  0  0  0  0  0  0
   -3.7190   22.1490  -30.2360 C   0  0  0  0  0  0  0  0  0  0  0  0
   -6.1820   21.6020  -32.4690 C   0  0  0  0  0  0  0  0  0  0  0  0
   -7.0890   20.5420  -32.5480 C   0  0  0  0  0  0  0  0  0  0  0  0
   -9.0859   18.5054  -30.5807 H   0  0  0  0  0  0  0  0  0  0  0  0
   -9.8357   17.6582  -31.9759 H   0  0  0  0  0  0  0  0  0  0  0  0
   -8.0726   18.0021  -31.9759 H   0  0  0  0  0  0  0  0  0  0  0  0
   -9.9384   22.1883  -31.6148 H   0  0  0  0  0  0  0  0  0  0  0  0
   -8.3209   24.0826  -31.4883 H   0  0  0  0  0  0  0  0  0  0  0  0
   -4.3948   24.3357  -27.6906 H   0  0  0  0  0  0  0  0  0  0  0  0
   -3.3032   22.5170  -26.3767 H   0  0  0  0  0  0  0  0  0  0  0  0
   -0.7985   19.0044  -26.7536 H   0  0  0  0  0  0  0  0  0  0  0  0
   -0.2379   19.1241  -29.4442 H   0  0  0  0  0  0  0  0  0  0  0  0
    0.3223   21.5917  -26.3388 H   0  0  0  0  0  0  0  0  0  0  0  0
   -0.1681   23.7473  -25.1941 H   0  0  0  0  0  0  0  0  0  0  0  0
   -1.3907   26.0486  -24.2703 H   0  0  0  0  0  0  0  0  0  0  0  0
   -2.5703   26.9869  -25.2474 H   0  0  0  0  0  0  0  0  0  0  0  0
   -2.6306   25.1916  -25.2474 H   0  0  0  0  0  0  0  0  0  0  0  0
   -0.1599   27.9126  -25.9645 H   0  0  0  0  0  0  0  0  0  0  0  0
    0.4377   27.0740  -27.4363 H   0  0  0  0  0  0  0  0  0  0  0  0
   -1.1871   27.8399  -27.4363 H   0  0  0  0  0  0  0  0  0  0  0  0
   -1.2610   25.5068  -29.0026 H   0  0  0  0  0  0  0  0  0  0  0  0
   -0.7508   23.3545  -30.1398 H   0  0  0  0  0  0  0  0  0  0  0  0
   -2.7677   20.2167  -30.0078 H   0  0  0  0  0  0  0  0  0  0  0  0
   -3.8148   22.0540  -31.3277 H   0  0  0  0  0  0  0  0  0  0  0  0
   -5.1231   21.4333  -32.7144 H   0  0  0  0  0  0  0  0  0  0  0  0
   -6.7389   19.5471  -32.8605 H   0  0  0  0  0  0  0  0  0  0  0  0
  1  2  1  0
  2  3  1  0
  3  4  2  0
  4  5  1  0
  5  6  2  0
  6  7  1  0
  7  8  1  0
  8  9  2  0
  8 10  2  0
  8 11  1  0
 11 12  2  0
 12 13  1  0
 13 14  2  0
 14 15  1  0
 15 16  2  3
 16 17  1  0
 17 18  2  3
 18 19  1  0
 19 20  2  0
 20 21  1  0
 21 22  2  0
 22 23  1  0
 23 24  1  0
 23 25  1  0
 22 26  1  0
 26 27  2  0
 14 28  1  0
 28 29  2  0
  6 30  1  0
 30 31  2  0
 31  3  1  0
 29 11  1  0
 27 19  1  0
  1 32  1  0
  1 33  1  0
  1 34  1  0
  4 35  1  0
  5 36  1  0
 12 37  1  0
 13 38  1  0
 16 39  1  0
 17 40  1  0
 20 41  1  0
 21 42  1  0
 24 43  1  0
 24 44  1  0
 24 45  1  0
 25 46  1  0
 25 47  1  0
 25 48  1  0
 26 49  1  0
 27 50  1  0
 28 51  1  0
 29 52  1  0
 30 53  1  0
 31 54  1  0
M  CHG  1   7  -1
M  END
>  <UniqueID>  (20) 
19

>  <SMILES>  (20) 
COc1ccc([N-]S(=O)(=O)c2ccc(N=CC=Nc3ccc(N(C)C)cc3)cc2)cc1

>  <Energy>  (20) 
76.33236160283892

>  <Genealogy>  (20) 
COc1ccc([N-]S(=O)(=O)c2ccc(N=CC=Nc3ccc(N(C)C)cc3)cc2)cc1 (protonated)
COc1ccc([N-]S(=O)(=O)c2ccc(N=CC=Nc3ccc(N(C)C)cc3)cc2)cc1 (3D coordinates assigned)
COc1ccc([N-]S(=O)(=O)c2ccc(N=CC=Nc3ccc(N(C)C)cc3)cc2)cc1 (optimized conformer: 76.33236160283892 kcal/mol)

>  <smiles>  (20) 
COc1ccc(NS(=O)(=O)c2ccc(N=CC=Nc3ccc(N(C)C)cc3)cc2)cc1

>  <score_type>  (20) 
oracle

>  <origin>  (20) 
adgpu

>  <m_score__min__energy>  (20) 
-9.9499999999999993

>  <m_primary>  (20) 
energy

$$$$
20:0
     RDKit          3D

 58 61  0  0  0  0  0  0  0  0999 V2000
   -8.6110   23.8480  -31.8940 O   0  0  0  0  0  0  0  0  0  0  0  0
   -7.7090   22.7550  -31.3930 S   0  0  0  0  0  0  0  0  0  0  0  0
   -8.3780   22.0550  -30.2450 O   0  0  0  0  0  0  0  0  0  0  0  0
   -7.4160   21.6170  -32.6670 N   0  0  0  0  0  0  0  0  0  0  0  0
   -7.5870   20.1990  -32.5360 C   0  0  0  0  0  0  0  0  0  0  0  0
   -8.7180   19.6400  -31.9160 C   0  0  0  0  0  0  0  0  0  0  0  0
   -8.8570   18.2530  -31.8270 C   0  0  0  0  0  0  0  0  0  0  0  0
   -7.8790   17.4140  -32.3650 C   0  0  0  0  0  0  0  0  0  0  0  0
   -6.7540   17.9610  -32.9950 C   0  0  0  0  0  0  0  0  0  0  0  0
   -5.5650   16.9190  -33.7740 S   0  0  0  0  0  0  0  0  0  0  0  0
   -4.7650   16.2230  -32.7090 O   0  0  0  0  0  0  0  0  0  0  0  0
   -6.2580   15.8740  -34.6040 O   0  0  0  0  0  0  0  0  0  0  0  0
   -4.4870   17.8370  -34.7910 N   0  0  0  0  0  0  0  0  0  0  0  0
   -3.1050   17.7980  -34.2940 C   0  0  0  0  0  0  0  0  0  0  0  0
   -2.7080   19.1120  -33.6720 C   0  0  0  0  0  0  0  0  0  0  0  0
   -3.6560   20.1340  -33.5010 C   0  0  0  0  0  0  0  0  0  0  0  0
   -3.2810   21.3530  -32.9290 C   0  0  0  0  0  0  0  0  0  0  0  0
   -1.9630   21.5560  -32.5140 C   0  0  0  0  0  0  0  0  0  0  0  0
   -1.0160   20.5410  -32.6740 C   0  0  0  0  0  0  0  0  0  0  0  0
   -1.3860   19.3210  -33.2490 C   0  0  0  0  0  0  0  0  0  0  0  0
   -6.6030   19.3530  -33.0620 C   0  0  0  0  0  0  0  0  0  0  0  0
   -6.1660   23.4030  -30.8460 C   0  0  0  0  0  0  0  0  0  0  0  0
   -5.9090   24.7800  -30.8800 C   0  0  0  0  0  0  0  0  0  0  0  0
   -4.6680   25.2720  -30.4680 C   0  0  0  0  0  0  0  0  0  0  0  0
   -3.6710   24.3980  -30.0140 C   0  0  0  0  0  0  0  0  0  0  0  0
   -2.4150   24.9470  -29.5940 N   0  0  0  0  0  0  0  0  0  0  0  0
   -1.5270   24.4410  -28.1930 S   0  0  0  0  0  0  0  0  0  0  0  0
   -0.1460   25.0290  -28.2480 O   0  0  0  0  0  0  0  0  0  0  0  0
   -2.2240   24.9550  -26.9640 O   0  0  0  0  0  0  0  0  0  0  0  0
   -1.3930   22.6820  -28.1660 C   0  0  0  0  0  0  0  0  0  0  0  0
   -1.8960   21.9740  -27.0650 C   0  0  0  0  0  0  0  0  0  0  0  0
   -1.8290   20.5780  -27.0330 C   0  0  0  0  0  0  0  0  0  0  0  0
   -1.2530   19.8800  -28.0980 C   0  0  0  0  0  0  0  0  0  0  0  0
   -1.2030   18.5250  -28.0740 F   0  0  0  0  0  0  0  0  0  0  0  0
   -0.7440   20.5780  -29.1950 C   0  0  0  0  0  0  0  0  0  0  0  0
   -0.8150   21.9750  -29.2370 C   0  0  0  0  0  0  0  0  0  0  0  0
   -0.3360   22.6270  -30.3260 F   0  0  0  0  0  0  0  0  0  0  0  0
   -3.9320   23.0170  -29.9820 C   0  0  0  0  0  0  0  0  0  0  0  0
   -5.1720   22.5250  -30.3970 C   0  0  0  0  0  0  0  0  0  0  0  0
   -9.4959   20.2969  -31.4997 H   0  0  0  0  0  0  0  0  0  0  0  0
   -9.7390   17.8206  -31.3319 H   0  0  0  0  0  0  0  0  0  0  0  0
   -7.9922   16.3222  -32.2940 H   0  0  0  0  0  0  0  0  0  0  0  0
   -4.4960   17.3790  -35.7310 H   0  0  0  0  0  0  0  0  0  0  0  0
   -3.0186   17.0035  -33.5382 H   0  0  0  0  0  0  0  0  0  0  0  0
   -2.4361   17.6012  -35.1448 H   0  0  0  0  0  0  0  0  0  0  0  0
   -4.6971   19.9746  -33.8183 H   0  0  0  0  0  0  0  0  0  0  0  0
   -4.0251   22.1537  -32.8055 H   0  0  0  0  0  0  0  0  0  0  0  0
   -1.6704   22.5148  -32.0612 H   0  0  0  0  0  0  0  0  0  0  0  0
    0.0220   20.7018  -32.3472 H   0  0  0  0  0  0  0  0  0  0  0  0
   -0.6388   18.5229  -33.3701 H   0  0  0  0  0  0  0  0  0  0  0  0
   -5.7058   19.7835  -33.5308 H   0  0  0  0  0  0  0  0  0  0  0  0
   -6.6858   25.4749  -31.2317 H   0  0  0  0  0  0  0  0  0  0  0  0
   -4.4719   26.3539  -30.5002 H   0  0  0  0  0  0  0  0  0  0  0  0
   -2.3455   22.5198  -26.2224 H   0  0  0  0  0  0  0  0  0  0  0  0
   -2.2301   20.0284  -26.1687 H   0  0  0  0  0  0  0  0  0  0  0  0
   -0.2853   20.0275  -30.0296 H   0  0  0  0  0  0  0  0  0  0  0  0
   -3.1568   22.3210  -29.6288 H   0  0  0  0  0  0  0  0  0  0  0  0
   -5.3683   21.4430  -30.3709 H   0  0  0  0  0  0  0  0  0  0  0  0
  1  2  2  0
  2  3  2  0
  2  4  1  0
  4  5  1  0
  5  6  2  0
  6  7  1  0
  7  8  2  0
  8  9  1  0
  9 10  1  0
 10 11  2  0
 10 12  2  0
 10 13  1  0
 13 14  1  0
 14 15  1  0
 15 16  2  0
 16 17  1  0
 17 18  2  0
 18 19  1  0
 19 20  2  0
  9 21  2  0
  2 22  1  0
 22 23  2  0
 23 24  1  0
 24 25  2  0
 25 26  1  0
 26 27  1  0
 27 28  2  0
 27 29  2  0
 27 30  1  0
 30 31  2  0
 31 32  1  0
 32 33  2  0
 33 34  1  0
 33 35  1  0
 35 36  2  0
 36 37  1  0
 25 38  1  0
 38 39  2  0
 21  5  1  0
 39 22  1  0
 20 15  1  0
 36 30  1  0
  6 40  1  0
  7 41  1  0
  8 42  1  0
 13 43  1  0
 14 44  1  0
 14 45  1  0
 16 46  1  0
 17 47  1  0
 18 48  1  0
 19 49  1  0
 20 50  1  0
 21 51  1  0
 23 52  1  0
 24 53  1  0
 31 54  1  0
 32 55  1  0
 35 56  1  0
 38 57  1  0
 39 58  1  0
M  CHG  2   4  -1  26  -1
M  END
>  <UniqueID>  (21) 
20

>  <SMILES>  (21) 
O=S(=O)([N-]c1cccc(S(=O)(=O)NCc2ccccc2)c1)c1ccc([N-]S(=O)(=O)c2ccc(F)cc2F)cc1

>  <Energy>  (21) 
63.736052210205045

>  <Genealogy>  (21) 
O=S(=O)([N-]c1cccc(S(=O)(=O)NCc2ccccc2)c1)c1ccc([N-]S(=O)(=O)c2ccc(F)cc2F)cc1 (protonated)
O=S(=O)([N-]c1cccc(S(=O)(=O)NCc2ccccc2)c1)c1ccc([N-]S(=O)(=O)c2ccc(F)cc2F)cc1 (3D coordinates assigned)
O=S(=O)([N-]c1cccc(S(=O)(=O)NCc2ccccc2)c1)c1ccc([N-]S(=O)(=O)c2ccc(F)cc2F)cc1 (optimized conformer: 63.736052210205045 kcal/mol)

>  <smiles>  (21) 
O=S(=O)(NCc1ccccc1)c1cccc(NS(=O)(=O)c2ccc(NS(=O)(=O)c3ccc(F)cc3F)cc2)c1

>  <score_type>  (21) 
oracle

>  <origin>  (21) 
adgpu

>  <m_score__min__energy>  (21) 
-12.31

>  <m_primary>  (21) 
energy

$$$$
21:0
     RDKit          3D

 48 51  0  0  0  0  0  0  0  0999 V2000
   -6.6310   25.2220  -29.8130 C   0  0  0  0  0  0  0  0  0  0  0  0
   -6.4650   23.9470  -30.6010 C   0  0  0  0  0  0  0  0  0  0  0  0
   -7.6150   23.2250  -30.9550 C   0  0  0  0  0  0  0  0  0  0  0  0
   -7.5170   22.0210  -31.6510 C   0  0  0  0  0  0  0  0  0  0  0  0
   -6.2670   21.5030  -32.0130 C   0  0  0  0  0  0  0  0  0  0  0  0
   -6.1870   20.2530  -32.7320 N   0  0  0  0  0  0  0  0  0  0  0  0
   -6.8640   19.1130  -32.4730 C   0  0  0  0  0  0  0  0  0  0  0  0
   -6.5030   18.1650  -33.4060 C   0  0  0  0  0  0  0  0  0  0  0  0
   -5.5890   18.8020  -34.2180 C   0  0  0  0  0  0  0  0  0  0  0  0
   -5.4130   20.0670  -33.7920 N   0  0  0  0  0  0  0  0  0  0  0  0
   -5.1100   22.2320  -31.6800 C   0  0  0  0  0  0  0  0  0  0  0  0
   -5.1900   23.4550  -30.9860 C   0  0  0  0  0  0  0  0  0  0  0  0
   -3.9260   24.1780  -30.6920 C   0  0  0  0  0  0  0  0  0  0  0  0
   -3.8620   25.4300  -30.8170 O   0  0  0  0  0  0  0  0  0  0  0  0
   -2.7800   23.4430  -30.2410 N   0  0  0  0  0  0  0  0  0  0  0  0
   -2.1350   23.5650  -28.9640 C   0  0  0  0  0  0  0  0  0  0  0  0
   -1.6320   24.7920  -28.4970 C   0  0  0  0  0  0  0  0  0  0  0  0
   -0.9880   24.8630  -27.2580 C   0  0  0  0  0  0  0  0  0  0  0  0
   -0.8300   23.7100  -26.4770 C   0  0  0  0  0  0  0  0  0  0  0  0
   -0.0140   23.8080  -24.9190 S   0  0  0  0  0  0  0  0  0  0  0  0
    1.3090   23.1010  -25.0090 O   0  0  0  0  0  0  0  0  0  0  0  0
   -0.8430   23.1490  -23.8530 O   0  0  0  0  0  0  0  0  0  0  0  0
    0.2210   25.4990  -24.4810 C   0  0  0  0  0  0  0  0  0  0  0  0
    1.5030   25.9950  -24.2080 C   0  0  0  0  0  0  0  0  0  0  0  0
    1.6800   27.3440  -23.8810 C   0  0  0  0  0  0  0  0  0  0  0  0
    0.5770   28.2010  -23.8270 C   0  0  0  0  0  0  0  0  0  0  0  0
   -0.7030   27.7110  -24.1050 C   0  0  0  0  0  0  0  0  0  0  0  0
   -0.8820   26.3640  -24.4320 C   0  0  0  0  0  0  0  0  0  0  0  0
   -1.3040   22.4810  -26.9550 C   0  0  0  0  0  0  0  0  0  0  0  0
   -1.9460   22.4100  -28.1950 C   0  0  0  0  0  0  0  0  0  0  0  0
   -6.6014   24.9946  -28.7372 H   0  0  0  0  0  0  0  0  0  0  0  0
   -5.8157   25.9167  -30.0635 H   0  0  0  0  0  0  0  0  0  0  0  0
   -7.5970   25.6847  -30.0635 H   0  0  0  0  0  0  0  0  0  0  0  0
   -8.6065   23.6140  -30.6798 H   0  0  0  0  0  0  0  0  0  0  0  0
   -8.4316   21.4717  -31.9189 H   0  0  0  0  0  0  0  0  0  0  0  0
   -7.5834   18.9659  -31.6540 H   0  0  0  0  0  0  0  0  0  0  0  0
   -6.8643   17.1291  -33.4852 H   0  0  0  0  0  0  0  0  0  0  0  0
   -5.0815   18.3467  -35.0812 H   0  0  0  0  0  0  0  0  0  0  0  0
   -4.1237   21.8388  -31.9675 H   0  0  0  0  0  0  0  0  0  0  0  0
   -1.7455   25.6993  -29.1085 H   0  0  0  0  0  0  0  0  0  0  0  0
   -0.6038   25.8276  -26.8948 H   0  0  0  0  0  0  0  0  0  0  0  0
    2.3722   25.3222  -24.2509 H   0  0  0  0  0  0  0  0  0  0  0  0
    2.6874   27.7302  -23.6664 H   0  0  0  0  0  0  0  0  0  0  0  0
    0.7158   29.2605  -23.5659 H   0  0  0  0  0  0  0  0  0  0  0  0
   -1.5701   28.3867  -24.0662 H   0  0  0  0  0  0  0  0  0  0  0  0
   -1.8898   25.9815  -24.6513 H   0  0  0  0  0  0  0  0  0  0  0  0
   -1.1707   21.5699  -26.3532 H   0  0  0  0  0  0  0  0  0  0  0  0
   -2.3052   21.4400  -28.5692 H   0  0  0  0  0  0  0  0  0  0  0  0
  1  2  1  0
  2  3  2  0
  3  4  1  0
  4  5  2  0
  5  6  1  0
  6  7  1  0
  7  8  2  0
  8  9  1  0
  9 10  2  0
  5 11  1  0
 11 12  2  0
 12 13  1  0
 13 14  2  0
 13 15  1  0
 15 16  1  0
 16 17  2  0
 17 18  1  0
 18 19  2  0
 19 20  1  0
 20 21  2  0
 20 22  2  0
 20 23  1  0
 23 24  2  0
 24 25  1  0
 25 26  2  0
 26 27  1  0
 27 28  2  0
 19 29  1  0
 29 30  2  0
 12  2  1  0
 30 16  1  0
 10  6  1  0
 28 23  1  0
  1 31  1  0
  1 32  1  0
  1 33  1  0
  3 34  1  0
  4 35  1  0
  7 36  1  0
  8 37  1  0
  9 38  1  0
 11 39  1  0
 17 40  1  0
 18 41  1  0
 24 42  1  0
 25 43  1  0
 26 44  1  0
 27 45  1  0
 28 46  1  0
 29 47  1  0
 30 48  1  0
M  CHG  1  15  -1
M  END
>  <UniqueID>  (22) 
21

>  <SMILES>  (22) 
Cc1ccc(-n2cccn2)cc1C(=O)[N-]c1ccc(S(=O)(=O)c2ccccc2)cc1

>  <Energy>  (22) 
95.03620042365066

>  <Genealogy>  (22) 
Cc1ccc(-n2cccn2)cc1C(=O)[N-]c1ccc(S(=O)(=O)c2ccccc2)cc1 (protonated)
Cc1ccc(-n2cccn2)cc1C(=O)[N-]c1ccc(S(=O)(=O)c2ccccc2)cc1 (3D coordinates assigned)
Cc1ccc(-n2cccn2)cc1C(=O)[N-]c1ccc(S(=O)(=O)c2ccccc2)cc1 (optimized conformer: 95.03620042365066 kcal/mol)

>  <smiles>  (22) 
Cc1ccc(-n2cccn2)cc1C(=O)Nc1ccc(S(=O)(=O)c2ccccc2)cc1

>  <score_type>  (22) 
oracle

>  <origin>  (22) 
adgpu

>  <m_score__min__energy>  (22) 
-12.19

>  <m_primary>  (22) 
energy

$$$$
22:0
     RDKit          3D

 46 48  0  0  0  0  0  0  0  0999 V2000
   -4.9360   14.7650  -33.2620 C   0  0  0  0  0  0  0  0  0  0  0  0
   -6.0680   14.4320  -34.2290 C   0  0  0  0  0  0  0  0  0  0  0  0
   -6.8670   15.5870  -34.4920 O   0  0  0  0  0  0  0  0  0  0  0  0
   -6.6890   16.8530  -33.9090 C   0  0  0  0  0  0  0  0  0  0  0  0
   -5.9260   17.7980  -34.6040 C   0  0  0  0  0  0  0  0  0  0  0  0
   -5.7150   19.0740  -34.0750 C   0  0  0  0  0  0  0  0  0  0  0  0
   -6.2670   19.4300  -32.8320 C   0  0  0  0  0  0  0  0  0  0  0  0
   -6.0470   20.7860  -32.2690 C   0  0  0  0  0  0  0  0  0  0  0  0
   -6.8690   21.2750  -31.2380 C   0  0  0  0  0  0  0  0  0  0  0  0
   -6.6440   22.5400  -30.6900 C   0  0  0  0  0  0  0  0  0  0  0  0
   -5.5940   23.3360  -31.1630 C   0  0  0  0  0  0  0  0  0  0  0  0
   -5.2290   24.8870  -30.4110 S   0  0  0  0  0  0  0  0  0  0  0  0
   -5.8950   25.9760  -31.2040 O   0  0  0  0  0  0  0  0  0  0  0  0
   -5.7580   24.9260  -29.0050 O   0  0  0  0  0  0  0  0  0  0  0  0
   -3.5110   25.1670  -30.3960 N   0  0  0  0  0  0  0  0  0  0  0  0
   -2.8930   24.6320  -29.1780 C   0  0  0  0  0  0  0  0  0  0  0  0
   -2.6060   23.1600  -29.3210 C   0  0  0  0  0  0  0  0  0  0  0  0
   -1.8740   22.6780  -30.4210 C   0  0  0  0  0  0  0  0  0  0  0  0
   -1.5760   21.3160  -30.5280 C   0  0  0  0  0  0  0  0  0  0  0  0
   -2.0220   20.4230  -29.5510 C   0  0  0  0  0  0  0  0  0  0  0  0
   -2.7720   20.8880  -28.4670 C   0  0  0  0  0  0  0  0  0  0  0  0
   -3.0700   22.2500  -28.3550 C   0  0  0  0  0  0  0  0  0  0  0  0
   -4.7870   22.8680  -32.2060 C   0  0  0  0  0  0  0  0  0  0  0  0
   -5.0070   21.6010  -32.7530 C   0  0  0  0  0  0  0  0  0  0  0  0
   -7.0260   18.4800  -32.1290 C   0  0  0  0  0  0  0  0  0  0  0  0
   -7.2360   17.2030  -32.6590 C   0  0  0  0  0  0  0  0  0  0  0  0
   -5.2946   14.6595  -32.2275 H   0  0  0  0  0  0  0  0  0  0  0  0
   -4.0951   14.0762  -33.4307 H   0  0  0  0  0  0  0  0  0  0  0  0
   -4.6021   15.7994  -33.4307 H   0  0  0  0  0  0  0  0  0  0  0  0
   -5.6394   14.0672  -35.1741 H   0  0  0  0  0  0  0  0  0  0  0  0
   -6.7047   13.6591  -33.7737 H   0  0  0  0  0  0  0  0  0  0  0  0
   -5.4875   17.5334  -35.5775 H   0  0  0  0  0  0  0  0  0  0  0  0
   -5.1130   19.8048  -34.6349 H   0  0  0  0  0  0  0  0  0  0  0  0
   -7.6961   20.6561  -30.8599 H   0  0  0  0  0  0  0  0  0  0  0  0
   -7.2939   22.9119  -29.8842 H   0  0  0  0  0  0  0  0  0  0  0  0
   -1.9500   25.1658  -28.9886 H   0  0  0  0  0  0  0  0  0  0  0  0
   -3.5906   24.7736  -28.3394 H   0  0  0  0  0  0  0  0  0  0  0  0
   -1.5344   23.3756  -31.2007 H   0  0  0  0  0  0  0  0  0  0  0  0
   -0.9896   20.9474  -31.3826 H   0  0  0  0  0  0  0  0  0  0  0  0
   -1.7828   19.3526  -29.6347 H   0  0  0  0  0  0  0  0  0  0  0  0
   -3.1280   20.1826  -27.7017 H   0  0  0  0  0  0  0  0  0  0  0  0
   -3.6704   22.6109  -27.5069 H   0  0  0  0  0  0  0  0  0  0  0  0
   -3.9761   23.5001  -32.5970 H   0  0  0  0  0  0  0  0  0  0  0  0
   -4.3628   21.2383  -33.5675 H   0  0  0  0  0  0  0  0  0  0  0  0
   -7.4592   18.7428  -31.1527 H   0  0  0  0  0  0  0  0  0  0  0  0
   -7.8312   16.4683  -32.0970 H   0  0  0  0  0  0  0  0  0  0  0  0
  1  2  1  0
  2  3  1  0
  3  4  1  0
  4  5  2  0
  5  6  1  0
  6  7  2  0
  7  8  1  0
  8  9  2  0
  9 10  1  0
 10 11  2  0
 11 12  1  0
 12 13  2  0
 12 14  2  0
 12 15  1  0
 15 16  1  0
 16 17  1  0
 17 18  2  0
 18 19  1  0
 19 20  2  0
 20 21  1  0
 21 22  2  0
 11 23  1  0
 23 24  2  0
  7 25  1  0
 25 26  2  0
 26  4  1  0
 24  8  1  0
 22 17  1  0
  1 27  1  0
  1 28  1  0
  1 29  1  0
  2 30  1  0
  2 31  1  0
  5 32  1  0
  6 33  1  0
  9 34  1  0
 10 35  1  0
 16 36  1  0
 16 37  1  0
 18 38  1  0
 19 39  1  0
 20 40  1  0
 21 41  1  0
 22 42  1  0
 23 43  1  0
 24 44  1  0
 25 45  1  0
 26 46  1  0
M  CHG  1  15  -1
M  END
>  <UniqueID>  (23) 
22

>  <SMILES>  (23) 
CCOc1ccc(-c2ccc(S(=O)(=O)[N-]Cc3ccccc3)cc2)cc1

>  <Energy>  (23) 
46.61630498418644

>  <Genealogy>  (23) 
CCOc1ccc(-c2ccc(S(=O)(=O)[N-]Cc3ccccc3)cc2)cc1 (protonated)
CCOc1ccc(-c2ccc(S(=O)(=O)[N-]Cc3ccccc3)cc2)cc1 (3D coordinates assigned)
CCOc1ccc(-c2ccc(S(=O)(=O)[N-]Cc3ccccc3)cc2)cc1 (optimized conformer: 46.61630498418644 kcal/mol)

>  <smiles>  (23) 
CCOc1ccc(-c2ccc(S(=O)(=O)NCc3ccccc3)cc2)cc1

>  <score_type>  (23) 
oracle

>  <origin>  (23) 
adgpu

>  <m_score__min__energy>  (23) 
-10.279999999999999

>  <m_primary>  (23) 
energy

$$$$
23:0
     RDKit          3D

 60 63  0  0  0  0  0  0  0  0999 V2000
   -2.3580   25.9970  -25.4980 C   0  0  0  0  0  0  0  0  0  0  0  0
   -3.0680   24.9180  -26.3310 C   0  0  0  0  0  0  0  0  0  0  0  0
   -2.2050   24.2340  -27.3270 N   0  0  2  0  0  0  0  0  0  0  0  0
   -0.7590   24.3930  -27.0210 C   0  0  0  0  0  0  0  0  0  0  0  0
    0.1370   23.6050  -27.9570 C   0  0  0  0  0  0  0  0  0  0  0  0
    1.0940   24.1710  -28.5490 O   0  0  0  0  0  0  0  0  0  0  0  0
   -0.1590   22.2430  -28.2870 N   0  0  0  0  0  0  0  0  0  0  0  0
   -1.0280   21.8360  -29.3500 C   0  0  0  0  0  0  0  0  0  0  0  0
   -0.5760   21.9270  -30.6720 C   0  0  0  0  0  0  0  0  0  0  0  0
   -1.4010   21.5310  -31.7280 C   0  0  0  0  0  0  0  0  0  0  0  0
   -2.6750   21.0240  -31.4660 C   0  0  0  0  0  0  0  0  0  0  0  0
   -3.1250   20.8990  -30.1480 C   0  0  0  0  0  0  0  0  0  0  0  0
   -2.2990   21.2920  -29.0760 C   0  0  0  0  0  0  0  0  0  0  0  0
   -2.6960   21.1400  -27.7370 O   0  0  0  0  0  0  0  0  0  0  0  0
   -2.6670   19.9110  -27.0200 C   0  0  0  0  0  0  0  0  0  0  0  0
   -2.5280   24.6570  -28.6800 C   0  0  0  0  0  0  0  0  0  0  0  0
   -1.6890   25.3340  -29.3380 O   0  0  0  0  0  0  0  0  0  0  0  0
   -3.8370   24.3340  -29.3190 C   0  0  0  0  0  0  0  0  0  0  0  0
   -4.2430   25.0460  -30.4640 C   0  0  0  0  0  0  0  0  0  0  0  0
   -5.4660   24.7680  -31.0810 C   0  0  0  0  0  0  0  0  0  0  0  0
   -6.3120   23.7770  -30.5640 C   0  0  0  0  0  0  0  0  0  0  0  0
   -7.6040   23.4440  -31.2600 C   0  0  0  0  0  0  0  0  0  0  0  0
   -7.4920   22.1550  -31.9370 N   0  0  0  0  0  0  0  0  0  0  0  0
   -8.3720   21.0390  -31.7770 C   0  0  0  0  0  0  0  0  0  0  0  0
   -9.5230   21.1090  -31.2690 O   0  0  0  0  0  0  0  0  0  0  0  0
   -7.7300   19.8200  -32.2560 C   0  0  0  0  0  0  0  0  0  0  0  0
   -8.1890   18.5060  -32.3010 C   0  0  0  0  0  0  0  0  0  0  0  0
   -7.3210   17.5210  -32.8050 C   0  0  0  0  0  0  0  0  0  0  0  0
   -6.0240   17.8650  -33.2450 C   0  0  0  0  0  0  0  0  0  0  0  0
   -5.5830   19.1990  -33.1860 C   0  0  0  0  0  0  0  0  0  0  0  0
   -6.4640   20.1580  -32.6870 C   0  0  0  0  0  0  0  0  0  0  0  0
   -6.2960   21.5920  -32.4840 C   0  0  0  0  0  0  0  0  0  0  0  0
   -5.2490   22.2470  -32.7280 O   0  0  0  0  0  0  0  0  0  0  0  0
   -5.9130   23.0610  -29.4290 C   0  0  0  0  0  0  0  0  0  0  0  0
   -4.6930   23.3390  -28.8060 C   0  0  0  0  0  0  0  0  0  0  0  0
   -2.4976   25.7849  -24.4277 H   0  0  0  0  0  0  0  0  0  0  0  0
   -1.2838   25.9955  -25.7351 H   0  0  0  0  0  0  0  0  0  0  0  0
   -2.7844   26.9829  -25.7351 H   0  0  0  0  0  0  0  0  0  0  0  0
   -3.4635   24.1579  -25.6412 H   0  0  0  0  0  0  0  0  0  0  0  0
   -3.8529   25.4343  -26.9031 H   0  0  0  0  0  0  0  0  0  0  0  0
   -2.4100   23.2130  -27.2320 H   0  0  0  0  0  0  0  0  0  0  0  0
   -0.4991   25.4588  -27.1021 H   0  0  0  0  0  0  0  0  0  0  0  0
   -0.5940   24.0052  -26.0049 H   0  0  0  0  0  0  0  0  0  0  0  0
    0.4332   22.3120  -30.8803 H   0  0  0  0  0  0  0  0  0  0  0  0
   -1.0466   21.6188  -32.7656 H   0  0  0  0  0  0  0  0  0  0  0  0
   -3.3269   20.7219  -32.2989 H   0  0  0  0  0  0  0  0  0  0  0  0
   -4.1272   20.4925  -29.9473 H   0  0  0  0  0  0  0  0  0  0  0  0
   -2.6719   20.1167  -25.9394 H   0  0  0  0  0  0  0  0  0  0  0  0
   -3.5513   19.3120  -27.2832 H   0  0  0  0  0  0  0  0  0  0  0  0
   -1.7555   19.3544  -27.2832 H   0  0  0  0  0  0  0  0  0  0  0  0
   -3.5907   25.8294  -30.8773 H   0  0  0  0  0  0  0  0  0  0  0  0
   -5.7664   25.3302  -31.9775 H   0  0  0  0  0  0  0  0  0  0  0  0
   -8.4149   23.3961  -30.5183 H   0  0  0  0  0  0  0  0  0  0  0  0
   -7.8231   24.2236  -32.0044 H   0  0  0  0  0  0  0  0  0  0  0  0
   -9.1997   18.2465  -31.9529 H   0  0  0  0  0  0  0  0  0  0  0  0
   -7.6550   16.4742  -32.8569 H   0  0  0  0  0  0  0  0  0  0  0  0
   -5.3546   17.0847  -33.6363 H   0  0  0  0  0  0  0  0  0  0  0  0
   -4.5737   19.4776  -33.5232 H   0  0  0  0  0  0  0  0  0  0  0  0
   -6.5651   22.2730  -29.0241 H   0  0  0  0  0  0  0  0  0  0  0  0
   -4.3986   22.7764  -27.9078 H   0  0  0  0  0  0  0  0  0  0  0  0
  1  2  1  0
  2  3  1  0
  3  4  1  0
  4  5  1  0
  5  6  2  0
  5  7  1  0
  7  8  1  0
  8  9  2  0
  9 10  1  0
 10 11  2  0
 11 12  1  0
 12 13  2  0
 13 14  1  0
 14 15  1  0
  3 16  1  0
 16 17  2  0
 16 18  1  0
 18 19  2  0
 19 20  1  0
 20 21  2  0
 21 22  1  0
 22 23  1  0
 23 24  1  0
 24 25  2  0
 24 26  1  0
 26 27  2  0
 27 28  1  0
 28 29  2  0
 29 30  1  0
 30 31  2  0
 31 32  1  0
 32 33  2  0
 21 34  1  0
 34 35  2  0
 13  8  1  0
 35 18  1  0
 32 23  1  0
 31 26  1  0
  1 36  1  0
  1 37  1  0
  1 38  1  0
  2 39  1  0
  2 40  1  0
  3 41  1  6
  4 42  1  0
  4 43  1  0
  9 44  1  0
 10 45  1  0
 11 46  1  0
 12 47  1  0
 15 48  1  0
 15 49  1  0
 15 50  1  0
 19 51  1  0
 20 52  1  0
 22 53  1  0
 22 54  1  0
 27 55  1  0
 28 56  1  0
 29 57  1  0
 30 58  1  0
 34 59  1  0
 35 60  1  0
M  CHG  2   3   1   7  -1
M  END
>  <UniqueID>  (24) 
23

>  <SMILES>  (24) 
CC[N@H+](CC(=O)[N-]c1ccccc1OC)C(=O)c1ccc(CN2C(=O)c3ccccc3C2=O)cc1

>  <Energy>  (24) 
107.60808959568865

>  <Genealogy>  (24) 
CC[NH+](CC(=O)[N-]c1ccccc1OC)C(=O)c1ccc(CN2C(=O)c3ccccc3C2=O)cc1 (protonated)
CC[N@H+](CC(=O)[N-]c1ccccc1OC)C(=O)c1ccc(CN2C(=O)c3ccccc3C2=O)cc1 (chirality)
CC[N@H+](CC(=O)[N-]c1ccccc1OC)C(=O)c1ccc(CN2C(=O)c3ccccc3C2=O)cc1 (3D coordinates assigned)
CC[N@H+](CC(=O)[N-]c1ccccc1OC)C(=O)c1ccc(CN2C(=O)c3ccccc3C2=O)cc1 (nonaromatic ring conformer: 107.60808959568865 kcal/mol)

>  <smiles>  (24) 
CCN(CC(=O)Nc1ccccc1OC)C(=O)c1ccc(CN2C(=O)c3ccccc3C2=O)cc1

>  <score_type>  (24) 
oracle

>  <origin>  (24) 
adgpu

>  <m_score__min__energy>  (24) 
-10.050000000000001

>  <m_primary>  (24) 
energy

$$$$
24:0
     RDKit          3D

 46 48  0  0  0  0  0  0  0  0999 V2000
   -8.2250   22.3200  -30.8590 C   0  0  0  0  0  0  0  0  0  0  0  0
   -7.8750   21.0680  -31.6080 C   0  0  0  0  0  0  0  0  0  0  0  0
   -8.5150   19.8570  -31.3000 C   0  0  0  0  0  0  0  0  0  0  0  0
   -8.2160   18.7000  -32.0240 C   0  0  0  0  0  0  0  0  0  0  0  0
   -7.2800   18.7340  -33.0630 C   0  0  0  0  0  0  0  0  0  0  0  0
   -7.0220   17.5550  -33.7770 O   0  0  0  0  0  0  0  0  0  0  0  0
   -5.7670   16.9440  -33.9140 C   0  0  0  0  0  0  0  0  0  0  0  0
   -5.6080   15.5490  -33.8420 C   0  0  0  0  0  0  0  0  0  0  0  0
   -4.3460   14.9760  -34.0140 C   0  0  0  0  0  0  0  0  0  0  0  0
   -3.2350   15.7860  -34.2600 C   0  0  0  0  0  0  0  0  0  0  0  0
   -3.3760   17.1790  -34.3310 C   0  0  0  0  0  0  0  0  0  0  0  0
   -2.2230   17.9930  -34.6090 N   0  0  0  0  0  0  0  0  0  0  0  0
   -1.9160   19.2020  -33.9010 C   0  0  0  0  0  0  0  0  0  0  0  0
   -0.8150   20.2350  -34.5450 S   0  0  0  0  0  0  0  0  0  0  0  0
   -2.3230   19.3550  -32.5320 N   0  0  0  0  0  0  0  0  0  0  0  0
   -2.6230   20.6190  -31.9150 C   0  0  0  0  0  0  0  0  0  0  0  0
   -3.6740   21.4290  -32.3780 C   0  0  0  0  0  0  0  0  0  0  0  0
   -3.9660   22.6400  -31.7430 C   0  0  0  0  0  0  0  0  0  0  0  0
   -3.2230   23.0480  -30.6280 C   0  0  0  0  0  0  0  0  0  0  0  0
   -3.5970   24.5790  -29.8440 S   0  0  0  0  0  0  0  0  0  0  0  0
   -2.1420   25.2890  -29.2420 N   0  0  0  0  0  0  0  0  0  0  0  0
   -4.2350   25.5080  -30.8380 O   0  0  0  0  0  0  0  0  0  0  0  0
   -4.5510   24.3620  -28.7030 O   0  0  0  0  0  0  0  0  0  0  0  0
   -2.1840   22.2370  -30.1540 C   0  0  0  0  0  0  0  0  0  0  0  0
   -1.8920   21.0260  -30.7880 C   0  0  0  0  0  0  0  0  0  0  0  0
   -4.6530   17.7490  -34.1820 C   0  0  0  0  0  0  0  0  0  0  0  0
   -6.6650   19.9560  -33.3960 C   0  0  0  0  0  0  0  0  0  0  0  0
   -6.9630   21.1140  -32.6730 C   0  0  0  0  0  0  0  0  0  0  0  0
   -8.1711   22.1274  -29.7773 H   0  0  0  0  0  0  0  0  0  0  0  0
   -7.5153   23.1171  -31.1253 H   0  0  0  0  0  0  0  0  0  0  0  0
   -9.2452   22.6335  -31.1253 H   0  0  0  0  0  0  0  0  0  0  0  0
   -9.2541   19.8189  -30.4862 H   0  0  0  0  0  0  0  0  0  0  0  0
   -8.7207   17.7549  -31.7750 H   0  0  0  0  0  0  0  0  0  0  0  0
   -6.4802   14.9069  -33.6496 H   0  0  0  0  0  0  0  0  0  0  0  0
   -4.2267   13.8841  -33.9556 H   0  0  0  0  0  0  0  0  0  0  0  0
   -2.2443   15.3285  -34.3987 H   0  0  0  0  0  0  0  0  0  0  0  0
   -1.5620   17.6730  -35.3540 H   0  0  0  0  0  0  0  0  0  0  0  0
   -2.4110   18.4900  -31.9540 H   0  0  0  0  0  0  0  0  0  0  0  0
   -4.2703   21.1084  -33.2450 H   0  0  0  0  0  0  0  0  0  0  0  0
   -4.7817   23.2742  -32.1203 H   0  0  0  0  0  0  0  0  0  0  0  0
   -1.6180   25.6580  -30.0690 H   0  0  0  0  0  0  0  0  0  0  0  0
   -1.5960   22.5541  -29.2801 H   0  0  0  0  0  0  0  0  0  0  0  0
   -1.0840   20.3877  -30.4012 H   0  0  0  0  0  0  0  0  0  0  0  0
   -4.7779   18.8378  -34.2769 H   0  0  0  0  0  0  0  0  0  0  0  0
   -5.9472   19.9993  -34.2284 H   0  0  0  0  0  0  0  0  0  0  0  0
   -6.4804   22.0657  -32.9400 H   0  0  0  0  0  0  0  0  0  0  0  0
  1  2  1  0
  2  3  2  0
  3  4  1  0
  4  5  2  0
  5  6  1  0
  6  7  1  0
  7  8  2  0
  8  9  1  0
  9 10  2  0
 10 11  1  0
 11 12  1  0
 12 13  1  0
 13 14  2  0
 13 15  1  0
 15 16  1  0
 16 17  2  0
 17 18  1  0
 18 19  2  0
 19 20  1  0
 20 21  1  0
 20 22  2  0
 20 23  2  0
 19 24  1  0
 24 25  2  0
 11 26  2  0
  5 27  1  0
 27 28  2  0
 28  2  1  0
 26  7  1  0
 25 16  1  0
  1 29  1  0
  1 30  1  0
  1 31  1  0
  3 32  1  0
  4 33  1  0
  8 34  1  0
  9 35  1  0
 10 36  1  0
 12 37  1  0
 15 38  1  0
 17 39  1  0
 18 40  1  0
 21 41  1  0
 24 42  1  0
 25 43  1  0
 26 44  1  0
 27 45  1  0
 28 46  1  0
M  CHG  1  21  -1
M  END
>  <UniqueID>  (25) 
24

>  <SMILES>  (25) 
Cc1ccc(Oc2cccc(NC(=S)Nc3ccc(S([NH-])(=O)=O)cc3)c2)cc1

>  <Energy>  (25) 
61.486343230868286

>  <Genealogy>  (25) 
Cc1ccc(Oc2cccc(NC(=S)Nc3ccc(S([NH-])(=O)=O)cc3)c2)cc1 (protonated)
Cc1ccc(Oc2cccc(NC(=S)Nc3ccc(S([NH-])(=O)=O)cc3)c2)cc1 (3D coordinates assigned)
Cc1ccc(Oc2cccc(NC(=S)Nc3ccc(S([NH-])(=O)=O)cc3)c2)cc1 (optimized conformer: 61.486343230868286 kcal/mol)

>  <smiles>  (25) 
Cc1ccc(Oc2cccc(NC(=S)Nc3ccc(S(N)(=O)=O)cc3)c2)cc1

>  <score_type>  (25) 
oracle

>  <origin>  (25) 
adgpu

>  <m_score__min__energy>  (25) 
-11.94

>  <m_primary>  (25) 
energy

$$$$
25:0
     RDKit          3D

 23 24  0  0  0  0  0  0  0  0999 V2000
   -2.3860   25.2990  -29.3690 O   0  0  0  0  0  0  0  0  0  0  0  0
   -3.3510   24.4450  -29.8900 C   0  0  0  0  0  0  0  0  0  0  0  0
   -4.5460   24.9660  -30.3920 C   0  0  0  0  0  0  0  0  0  0  0  0
   -5.5180   24.1080  -30.9160 C   0  0  0  0  0  0  0  0  0  0  0  0
   -5.3010   22.7220  -30.9450 C   0  0  0  0  0  0  0  0  0  0  0  0
   -6.3510   21.8360  -31.4900 C   0  0  0  0  0  0  0  0  0  0  0  0
   -7.6010   21.7780  -30.8540 C   0  0  0  0  0  0  0  0  0  0  0  0
   -8.6150   20.9600  -31.3590 C   0  0  0  0  0  0  0  0  0  0  0  0
   -8.3910   20.1910  -32.5070 C   0  0  0  0  0  0  0  0  0  0  0  0
   -9.3950   19.3710  -33.0190 O   0  0  0  0  0  0  0  0  0  0  0  0
   -7.1490   20.2420  -33.1460 C   0  0  0  0  0  0  0  0  0  0  0  0
   -6.1270   21.0590  -32.6470 C   0  0  0  0  0  0  0  0  0  0  0  0
   -4.5710   21.0600  -33.4720 Cl  0  0  0  0  0  0  0  0  0  0  0  0
   -4.0920   22.2000  -30.4380 C   0  0  0  0  0  0  0  0  0  0  0  0
   -3.7440   20.4740  -30.4770 Cl  0  0  0  0  0  0  0  0  0  0  0  0
   -3.1250   23.0660  -29.9140 C   0  0  0  0  0  0  0  0  0  0  0  0
   -4.7225   26.0516  -30.3751 H   0  0  0  0  0  0  0  0  0  0  0  0
   -6.4586   24.5222  -31.3079 H   0  0  0  0  0  0  0  0  0  0  0  0
   -7.7835   22.3806  -29.9520 H   0  0  0  0  0  0  0  0  0  0  0  0
   -9.5911   20.9202  -30.8535 H   0  0  0  0  0  0  0  0  0  0  0  0
   -9.5690   19.3050  -34.0150 H   0  0  0  0  0  0  0  0  0  0  0  0
   -6.9731   19.6362  -34.0471 H   0  0  0  0  0  0  0  0  0  0  0  0
   -2.1824   22.6590  -29.5191 H   0  0  0  0  0  0  0  0  0  0  0  0
  1  2  1  0
  2  3  2  0
  3  4  1  0
  4  5  2  0
  5  6  1  0
  6  7  2  0
  7  8  1  0
  8  9  2  0
  9 10  1  0
  9 11  1  0
 11 12  2  0
 12 13  1  0
  5 14  1  0
 14 15  1  0
 14 16  2  0
 16  2  1  0
 12  6  1  0
  3 17  1  0
  4 18  1  0
  7 19  1  0
  8 20  1  0
 10 21  1  0
 11 22  1  0
 16 23  1  0
M  CHG  1   1  -1
M  END
>  <UniqueID>  (26) 
25

>  <SMILES>  (26) 
[O-]c1ccc(-c2ccc(O)cc2Cl)c(Cl)c1

>  <Energy>  (26) 
32.392198171293785

>  <Genealogy>  (26) 
[O-]c1ccc(-c2ccc(O)cc2Cl)c(Cl)c1 (protonated)
[O-]c1ccc(-c2ccc(O)cc2Cl)c(Cl)c1 (3D coordinates assigned)
[O-]c1ccc(-c2ccc(O)cc2Cl)c(Cl)c1 (optimized conformer: 32.392198171293785 kcal/mol)

>  <smiles>  (26) 
Oc1ccc(-c2ccc(O)cc2Cl)c(Cl)c1

>  <score_type>  (26) 
oracle

>  <origin>  (26) 
adgpu

>  <m_score__min__energy>  (26) 
-9.5099999999999998

>  <m_primary>  (26) 
energy

$$$$
26:0
     RDKit          3D

 47 49  0  0  0  0  0  0  0  0999 V2000
   -4.8000   19.2900  -33.8380 C   0  0  0  0  0  0  0  0  0  0  0  0
   -5.1650   20.7070  -33.4690 C   0  0  0  0  0  0  0  0  0  0  0  0
   -6.4960   20.7840  -32.7660 C   0  0  0  0  0  0  0  0  0  0  0  0
   -7.5470   20.0640  -33.2160 N   0  0  0  0  0  0  0  0  0  0  0  0
   -8.7470   20.0980  -32.6120 C   0  0  0  0  0  0  0  0  0  0  0  0
   -9.7620   19.4150  -33.0290 N   0  0  0  0  0  0  0  0  0  0  0  0
   -8.9120   20.8710  -31.5220 N   0  0  0  0  0  0  0  0  0  0  0  0
   -7.8860   21.6010  -31.0480 C   0  0  0  0  0  0  0  0  0  0  0  0
   -8.0730   22.3390  -29.9950 N   0  0  0  0  0  0  0  0  0  0  0  0
   -6.6250   21.5900  -31.6510 C   0  0  0  0  0  0  0  0  0  0  0  0
   -5.6070   22.4000  -31.0860 C   0  0  0  0  0  0  0  0  0  0  0  0
   -4.4340   21.9710  -30.5060 C   0  0  0  0  0  0  0  0  0  0  0  0
   -3.4850   22.8000  -29.9730 C   0  0  0  0  0  0  0  0  0  0  0  0
   -3.6890   24.1680  -30.0020 C   0  0  0  0  0  0  0  0  0  0  0  0
   -2.7110   24.9820  -29.4530 O   0  0  0  0  0  0  0  0  0  0  0  0
   -1.8640   24.6850  -28.4270 C   0  0  0  0  0  0  0  0  0  0  0  0
   -2.1150   24.9000  -27.0900 C   0  0  0  0  0  0  0  0  0  0  0  0
   -1.1700   24.5550  -26.1220 C   0  0  0  0  0  0  0  0  0  0  0  0
    0.0370   23.9930  -26.4770 C   0  0  0  0  0  0  0  0  0  0  0  0
    1.0140   23.6290  -25.5700 O   0  0  0  0  0  0  0  0  0  0  0  0
    1.5210   24.4420  -24.5500 C   0  0  0  0  0  0  0  0  0  0  0  0
    0.2980   23.7730  -27.8120 C   0  0  0  0  0  0  0  0  0  0  0  0
   -0.6330   24.1130  -28.7700 C   0  0  0  0  0  0  0  0  0  0  0  0
   -4.8500   24.6510  -30.5730 C   0  0  0  0  0  0  0  0  0  0  0  0
   -5.0890   26.0530  -30.6120 N   0  0  0  0  0  0  0  0  0  0  0  0
   -5.7930   23.7910  -31.1060 C   0  0  0  0  0  0  0  0  0  0  0  0
   -4.6481   18.7001  -32.9220 H   0  0  0  0  0  0  0  0  0  0  0  0
   -5.6127   18.8445  -34.4305 H   0  0  0  0  0  0  0  0  0  0  0  0
   -3.8732   19.2925  -34.4305 H   0  0  0  0  0  0  0  0  0  0  0  0
   -4.3883   21.1117  -32.8035 H   0  0  0  0  0  0  0  0  0  0  0  0
   -5.2379   21.2913  -34.3981 H   0  0  0  0  0  0  0  0  0  0  0  0
   -7.4120   19.4680  -34.0620 H   0  0  0  0  0  0  0  0  0  0  0  0
   -9.7820   18.7880  -33.8390 H   0  0  0  0  0  0  0  0  0  0  0  0
   -9.8550   20.8870  -31.0610 H   0  0  0  0  0  0  0  0  0  0  0  0
   -9.0460   22.3080  -29.5810 H   0  0  0  0  0  0  0  0  0  0  0  0
   -4.2472   20.8876  -30.4687 H   0  0  0  0  0  0  0  0  0  0  0  0
   -2.5701   22.3834  -29.5264 H   0  0  0  0  0  0  0  0  0  0  0  0
   -3.0708   25.3486  -26.7814 H   0  0  0  0  0  0  0  0  0  0  0  0
   -1.3923   24.7345  -25.0598 H   0  0  0  0  0  0  0  0  0  0  0  0
    1.2538   24.0136  -23.5727 H   0  0  0  0  0  0  0  0  0  0  0  0
    2.6159   24.5005  -24.6378 H   0  0  0  0  0  0  0  0  0  0  0  0
    1.0917   25.4510  -24.6378 H   0  0  0  0  0  0  0  0  0  0  0  0
    1.2551   23.3233  -28.1151 H   0  0  0  0  0  0  0  0  0  0  0  0
   -0.4031   23.9304  -29.8301 H   0  0  0  0  0  0  0  0  0  0  0  0
   -5.3420   26.5750  -31.4700 H   0  0  0  0  0  0  0  0  0  0  0  0
   -5.0100   26.6160  -29.7190 H   0  0  0  0  0  0  0  0  0  0  0  0
   -6.7076   24.2058  -31.5548 H   0  0  0  0  0  0  0  0  0  0  0  0
  1  2  1  0
  2  3  1  0
  3  4  1  0
  4  5  1  0
  5  6  2  3
  5  7  1  0
  7  8  1  0
  8  9  2  3
  8 10  1  0
 10 11  1  0
 11 12  2  0
 12 13  1  0
 13 14  2  0
 14 15  1  0
 15 16  1  0
 16 17  2  0
 17 18  1  0
 18 19  2  0
 19 20  1  0
 20 21  1  0
 19 22  1  0
 22 23  2  0
 14 24  1  0
 24 25  1  0
 24 26  2  0
 10  3  2  0
 26 11  1  0
 23 16  1  0
  1 27  1  0
  1 28  1  0
  1 29  1  0
  2 30  1  0
  2 31  1  0
  4 32  1  0
  6 33  1  0
  7 34  1  0
  9 35  1  0
 12 36  1  0
 13 37  1  0
 17 38  1  0
 18 39  1  0
 21 40  1  0
 21 41  1  0
 21 42  1  0
 22 43  1  0
 23 44  1  0
 25 45  1  0
 25 46  1  0
 26 47  1  0
M  END
>  <smiles>  (27) 
CCc1[nH]c(=N)[nH]c(=N)c1-c1ccc(Oc2ccc(OC)cc2)c(N)c1

>  <score_type>  (27) 
oracle

>  <origin>  (27) 
adgpu

>  <m_score__min__energy>  (27) 
-8.7200000000000006

>  <m_primary>  (27) 
energy

$$$$
27:0
     RDKit          3D

 55 58  0  0  0  0  0  0  0  0999 V2000
    0.2310   19.1680  -28.5780 C   0  0  0  0  0  0  0  0  0  0  0  0
    0.8270   20.3830  -27.8670 C   0  0  0  0  0  0  0  0  0  0  0  0
   -0.1860   21.0960  -27.0700 N   0  0  0  0  0  0  0  0  0  0  0  0
   -1.5770   20.7850  -27.2710 C   0  0  0  0  0  0  0  0  0  0  0  0
   -2.0620   19.7540  -26.7310 O   0  0  0  0  0  0  0  0  0  0  0  0
   -2.4450   21.6450  -28.1070 C   0  0  0  0  0  0  0  0  0  0  0  0
   -3.7600   21.9360  -27.7090 C   0  0  0  0  0  0  0  0  0  0  0  0
   -4.5680   22.7650  -28.4910 C   0  0  0  0  0  0  0  0  0  0  0  0
   -4.0780   23.3120  -29.6830 C   0  0  0  0  0  0  0  0  0  0  0  0
   -5.1130   24.3320  -30.6850 S   0  0  0  0  0  0  0  0  0  0  0  0
   -4.4610   25.6750  -30.8690 O   0  0  0  0  0  0  0  0  0  0  0  0
   -6.4270   24.5470  -29.9860 O   0  0  0  0  0  0  0  0  0  0  0  0
   -5.3980   23.6000  -32.2490 N   0  0  0  0  0  0  0  0  0  0  0  0
   -4.6870   22.2950  -32.3660 C   0  0  0  0  0  0  0  0  0  0  0  0
   -5.5160   21.1750  -33.0150 C   0  0  0  0  0  0  0  0  0  0  0  0
   -6.8680   21.1230  -32.3750 C   0  0  0  0  0  0  0  0  0  0  0  0
   -7.4890   19.9120  -32.0350 C   0  0  0  0  0  0  0  0  0  0  0  0
   -8.7710   19.9200  -31.4780 C   0  0  0  0  0  0  0  0  0  0  0  0
   -9.4410   21.1310  -31.2760 C   0  0  0  0  0  0  0  0  0  0  0  0
   -8.8260   22.3380  -31.6200 C   0  0  0  0  0  0  0  0  0  0  0  0
   -7.5300   22.3350  -32.1560 C   0  0  0  0  0  0  0  0  0  0  0  0
   -6.8420   23.6020  -32.5850 C   0  0  0  0  0  0  0  0  0  0  0  0
   -2.7610   23.0370  -30.0750 C   0  0  0  0  0  0  0  0  0  0  0  0
   -1.9490   22.2130  -29.2920 C   0  0  0  0  0  0  0  0  0  0  0  0
    0.1530   22.2670  -26.2960 C   0  0  0  0  0  0  0  0  0  0  0  0
   -0.4850   22.5440  -25.0730 C   0  0  0  0  0  0  0  0  0  0  0  0
   -0.1450   23.6860  -24.3400 C   0  0  0  0  0  0  0  0  0  0  0  0
    0.8340   24.5630  -24.8170 C   0  0  0  0  0  0  0  0  0  0  0  0
    1.1590   25.6980  -24.0770 O   0  0  0  0  0  0  0  0  0  0  0  0
    1.4780   24.2930  -26.0300 C   0  0  0  0  0  0  0  0  0  0  0  0
    1.1400   23.1520  -26.7650 C   0  0  0  0  0  0  0  0  0  0  0  0
   -0.1244   18.4435  -27.8304 H   0  0  0  0  0  0  0  0  0  0  0  0
   -0.6121   19.4886  -29.2076 H   0  0  0  0  0  0  0  0  0  0  0  0
    1.0006   18.6976  -29.2076 H   0  0  0  0  0  0  0  0  0  0  0  0
    1.6338   20.0458  -27.1996 H   0  0  0  0  0  0  0  0  0  0  0  0
    1.2123   21.0740  -28.6312 H   0  0  0  0  0  0  0  0  0  0  0  0
   -4.1561   21.5087  -26.7760 H   0  0  0  0  0  0  0  0  0  0  0  0
   -5.5954   22.9893  -28.1683 H   0  0  0  0  0  0  0  0  0  0  0  0
   -3.7827   22.4493  -32.9730 H   0  0  0  0  0  0  0  0  0  0  0  0
   -4.4646   21.9661  -31.3402 H   0  0  0  0  0  0  0  0  0  0  0  0
   -5.6266   21.3765  -34.0907 H   0  0  0  0  0  0  0  0  0  0  0  0
   -5.0053   20.2109  -32.8742 H   0  0  0  0  0  0  0  0  0  0  0  0
   -6.9683   18.9583  -32.2063 H   0  0  0  0  0  0  0  0  0  0  0  0
   -9.2538   18.9721  -31.1980 H   0  0  0  0  0  0  0  0  0  0  0  0
  -10.4534   21.1335  -30.8458 H   0  0  0  0  0  0  0  0  0  0  0  0
   -9.3578   23.2892  -31.4705 H   0  0  0  0  0  0  0  0  0  0  0  0
   -6.9516   23.7127  -33.6739 H   0  0  0  0  0  0  0  0  0  0  0  0
   -7.3115   24.4386  -32.0467 H   0  0  0  0  0  0  0  0  0  0  0  0
   -2.3645   23.4723  -31.0042 H   0  0  0  0  0  0  0  0  0  0  0  0
   -0.9148   22.0077  -29.6054 H   0  0  0  0  0  0  0  0  0  0  0  0
   -1.2558   21.8585  -24.6909 H   0  0  0  0  0  0  0  0  0  0  0  0
   -0.6496   23.8947  -23.3851 H   0  0  0  0  0  0  0  0  0  0  0  0
    1.2340   25.6690  -23.0680 H   0  0  0  0  0  0  0  0  0  0  0  0
    2.2512   24.9792  -26.4059 H   0  0  0  0  0  0  0  0  0  0  0  0
    1.6502   22.9454  -27.7173 H   0  0  0  0  0  0  0  0  0  0  0  0
  1  2  1  0
  2  3  1  0
  3  4  1  0
  4  5  2  0
  4  6  1  0
  6  7  2  0
  7  8  1  0
  8  9  2  0
  9 10  1  0
 10 11  2  0
 10 12  2  0
 10 13  1  0
 13 14  1  0
 14 15  1  0
 15 16  1  0
 16 17  2  0
 17 18  1  0
 18 19  2  0
 19 20  1  0
 20 21  2  0
 21 22  1  0
  9 23  1  0
 23 24  2  0
  3 25  1  0
 25 26  2  0
 26 27  1  0
 27 28  2  0
 28 29  1  0
 28 30  1  0
 30 31  2  0
 24  6  1  0
 31 25  1  0
 22 13  1  0
 21 16  1  0
  1 32  1  0
  1 33  1  0
  1 34  1  0
  2 35  1  0
  2 36  1  0
  7 37  1  0
  8 38  1  0
 14 39  1  0
 14 40  1  0
 15 41  1  0
 15 42  1  0
 17 43  1  0
 18 44  1  0
 19 45  1  0
 20 46  1  0
 22 47  1  0
 22 48  1  0
 23 49  1  0
 24 50  1  0
 26 51  1  0
 27 52  1  0
 29 53  1  0
 30 54  1  0
 31 55  1  0
M  END
>  <UniqueID>  (28) 
26

>  <SMILES>  (28) 
CCN(C(=O)c1ccc(S(=O)(=O)N2CCc3ccccc3C2)cc1)c1ccc(O)cc1

>  <Energy>  (28) 
72.19019140400027

>  <Genealogy>  (28) 
CCN(C(=O)c1ccc(S(=O)(=O)N2CCc3ccccc3C2)cc1)c1ccc(O)cc1 (3D coordinates assigned)
CCN(C(=O)c1ccc(S(=O)(=O)N2CCc3ccccc3C2)cc1)c1ccc(O)cc1 (nonaromatic ring conformer: 72.19019140400027 kcal/mol)

>  <smiles>  (28) 
CCN(C(=O)c1ccc(S(=O)(=O)N2CCc3ccccc3C2)cc1)c1ccc(O)cc1

>  <score_type>  (28) 
oracle

>  <origin>  (28) 
adgpu

>  <m_score__min__energy>  (28) 
-10.029999999999999

>  <m_primary>  (28) 
energy

$$$$
28:0
     RDKit          3D

 32 33  0  0  0  0  0  0  0  0999 V2000
   -8.1500   18.2250  -31.5370 C   0  0  0  0  0  0  0  0  0  0  0  0
   -7.1100   17.9920  -32.6000 C   0  0  0  0  0  0  0  0  0  0  0  0
   -6.5050   16.7280  -32.6970 C   0  0  0  0  0  0  0  0  0  0  0  0
   -5.5140   16.4870  -33.6510 C   0  0  0  0  0  0  0  0  0  0  0  0
   -5.1180   17.5050  -34.5200 C   0  0  0  0  0  0  0  0  0  0  0  0
   -5.7240   18.7610  -34.4490 C   0  0  0  0  0  0  0  0  0  0  0  0
   -6.7390   19.0080  -33.5140 C   0  0  0  0  0  0  0  0  0  0  0  0
   -7.3500   20.3060  -33.4850 N   0  0  0  0  0  0  0  0  0  0  0  0
   -6.8520   21.4030  -32.6980 C   0  0  0  0  0  0  0  0  0  0  0  0
   -7.7220   22.3110  -32.0670 C   0  0  0  0  0  0  0  0  0  0  0  0
   -7.2120   23.3720  -31.3150 C   0  0  0  0  0  0  0  0  0  0  0  0
   -5.8280   23.5530  -31.1960 C   0  0  0  0  0  0  0  0  0  0  0  0
   -5.1840   24.8810  -30.2370 S   0  0  0  0  0  0  0  0  0  0  0  0
   -4.9970   24.3660  -28.5970 N   0  0  0  0  0  0  0  0  0  0  0  0
   -6.1250   26.0510  -30.2900 O   0  0  0  0  0  0  0  0  0  0  0  0
   -3.8520   25.3080  -30.7880 O   0  0  0  0  0  0  0  0  0  0  0  0
   -4.9570   22.6560  -31.8300 C   0  0  0  0  0  0  0  0  0  0  0  0
   -5.4670   21.5940  -32.5820 C   0  0  0  0  0  0  0  0  0  0  0  0
   -7.6887   18.1216  -30.5438 H   0  0  0  0  0  0  0  0  0  0  0  0
   -8.5643   19.2382  -31.6452 H   0  0  0  0  0  0  0  0  0  0  0  0
   -8.9570   17.4854  -31.6452 H   0  0  0  0  0  0  0  0  0  0  0  0
   -6.8143   15.9214  -32.0160 H   0  0  0  0  0  0  0  0  0  0  0  0
   -5.0451   15.4942  -33.7177 H   0  0  0  0  0  0  0  0  0  0  0  0
   -4.3276   17.3176  -35.2617 H   0  0  0  0  0  0  0  0  0  0  0  0
   -5.4029   19.5619  -35.1312 H   0  0  0  0  0  0  0  0  0  0  0  0
   -8.2630   20.4220  -33.9790 H   0  0  0  0  0  0  0  0  0  0  0  0
   -8.8102   22.1847  -32.1664 H   0  0  0  0  0  0  0  0  0  0  0  0
   -7.9003   24.0686  -30.8140 H   0  0  0  0  0  0  0  0  0  0  0  0
   -5.9310   24.0290  -28.2740 H   0  0  0  0  0  0  0  0  0  0  0  0
   -4.7720   25.2170  -28.0340 H   0  0  0  0  0  0  0  0  0  0  0  0
   -3.8691   22.7883  -31.7354 H   0  0  0  0  0  0  0  0  0  0  0  0
   -4.7768   20.9023  -33.0870 H   0  0  0  0  0  0  0  0  0  0  0  0
  1  2  1  0
  2  3  2  0
  3  4  1  0
  4  5  2  0
  5  6  1  0
  6  7  2  0
  7  8  1  0
  8  9  1  0
  9 10  2  0
 10 11  1  0
 11 12  2  0
 12 13  1  0
 13 14  1  0
 13 15  2  0
 13 16  2  0
 12 17  1  0
 17 18  2  0
  7  2  1  0
 18  9  1  0
  1 19  1  0
  1 20  1  0
  1 21  1  0
  3 22  1  0
  4 23  1  0
  5 24  1  0
  6 25  1  0
  8 26  1  0
 10 27  1  0
 11 28  1  0
 14 29  1  0
 14 30  1  0
 17 31  1  0
 18 32  1  0
M  END
>  <UniqueID>  (29) 
27

>  <SMILES>  (29) 
Cc1ccccc1Nc1ccc(S(N)(=O)=O)cc1

>  <Energy>  (29) 
37.97966014394206

>  <Genealogy>  (29) 
Cc1ccccc1Nc1ccc(S(N)(=O)=O)cc1 (3D coordinates assigned)
Cc1ccccc1Nc1ccc(S(N)(=O)=O)cc1 (optimized conformer: 37.97966014394206 kcal/mol)

>  <smiles>  (29) 
Cc1ccccc1Nc1ccc(S(N)(=O)=O)cc1

>  <score_type>  (29) 
oracle

>  <origin>  (29) 
adgpu

>  <m_score__min__energy>  (29) 
-9.1400000000000006

>  <m_primary>  (29) 
energy

$$$$
29:0
     RDKit          3D

 36 37  0  0  0  0  0  0  0  0999 V2000
   -9.6860   21.5490  -30.3200 C   0  0  0  0  0  0  0  0  0  0  0  0
   -8.5480   21.7830  -31.2580 C   0  0  0  0  0  0  0  0  0  0  0  0
   -8.5940   21.2880  -32.4160 O   0  0  0  0  0  0  0  0  0  0  0  0
   -7.3580   22.4370  -30.7830 N   0  0  0  0  0  0  0  0  0  0  0  0
   -6.5130   23.1010  -31.5290 C   0  0  0  0  0  0  0  0  0  0  0  0
   -6.7920   23.4120  -32.9020 N   0  0  0  0  0  0  0  0  0  0  0  0
   -5.2420   23.5820  -30.9410 C   0  0  0  0  0  0  0  0  0  0  0  0
   -4.2110   22.7480  -30.5030 C   0  0  0  0  0  0  0  0  0  0  0  0
   -4.1820   21.3140  -30.4530 N   0  0  0  0  0  0  0  0  0  0  0  0
   -4.2890   20.4700  -31.6100 C   0  0  0  0  0  0  0  0  0  0  0  0
   -3.2100   19.6790  -32.0330 C   0  0  0  0  0  0  0  0  0  0  0  0
   -3.3360   18.8540  -33.1510 C   0  0  0  0  0  0  0  0  0  0  0  0
   -4.5350   18.8160  -33.8810 C   0  0  0  0  0  0  0  0  0  0  0  0
   -4.6420   17.9100  -35.0770 C   0  0  0  0  0  0  0  0  0  0  0  0
   -5.6170   19.6350  -33.4770 C   0  0  0  0  0  0  0  0  0  0  0  0
   -6.8600   19.6440  -34.1940 N   0  0  0  0  0  0  0  0  0  0  0  0
   -5.4770   20.4600  -32.3500 C   0  0  0  0  0  0  0  0  0  0  0  0
   -2.9580   23.7500  -30.0630 S   0  0  0  0  0  0  0  0  0  0  0  0
   -3.6480   25.2310  -30.3690 N   0  0  0  0  0  0  0  0  0  0  0  0
   -4.8900   24.9530  -30.8430 C   0  0  0  0  0  0  0  0  0  0  0  0
   -5.6670   25.8770  -31.2000 O   0  0  0  0  0  0  0  0  0  0  0  0
   -9.3273   21.6228  -29.2827 H   0  0  0  0  0  0  0  0  0  0  0  0
  -10.4654   22.3057  -30.4931 H   0  0  0  0  0  0  0  0  0  0  0  0
  -10.1036   20.5462  -30.4931 H   0  0  0  0  0  0  0  0  0  0  0  0
   -7.1470   22.3180  -29.7660 H   0  0  0  0  0  0  0  0  0  0  0  0
   -7.7550   23.3590  -33.2990 H   0  0  0  0  0  0  0  0  0  0  0  0
   -6.0660   23.8740  -33.4930 H   0  0  0  0  0  0  0  0  0  0  0  0
   -4.1130   20.8630  -29.5130 H   0  0  0  0  0  0  0  0  0  0  0  0
   -2.2596   19.7095  -31.4801 H   0  0  0  0  0  0  0  0  0  0  0  0
   -2.4879   18.2272  -33.4637 H   0  0  0  0  0  0  0  0  0  0  0  0
   -4.7648   16.8703  -34.7395 H   0  0  0  0  0  0  0  0  0  0  0  0
   -5.5117   18.2039  -35.6830 H   0  0  0  0  0  0  0  0  0  0  0  0
   -3.7278   17.9933  -35.6830 H   0  0  0  0  0  0  0  0  0  0  0  0
   -7.7790   19.7600  -33.7130 H   0  0  0  0  0  0  0  0  0  0  0  0
   -6.8730   19.5310  -35.2320 H   0  0  0  0  0  0  0  0  0  0  0  0
   -6.3122   21.1073  -32.0443 H   0  0  0  0  0  0  0  0  0  0  0  0
  1  2  1  0
  2  3  2  0
  2  4  1  0
  4  5  2  3
  5  6  1  0
  5  7  1  0
  7  8  2  0
  8  9  1  0
  9 10  1  0
 10 11  2  0
 11 12  1  0
 12 13  2  0
 13 14  1  0
 13 15  1  0
 15 16  1  0
 15 17  2  0
  8 18  1  0
 18 19  1  0
 19 20  1  0
 20 21  2  0
 20  7  1  0
 17 10  1  0
  1 22  1  0
  1 23  1  0
  1 24  1  0
  4 25  1  0
  6 26  1  0
  6 27  1  0
  9 28  1  0
 11 29  1  0
 12 30  1  0
 14 31  1  0
 14 32  1  0
 14 33  1  0
 16 34  1  0
 16 35  1  0
 17 36  1  0
M  CHG  2   4   1  19  -1
M  END
>  <UniqueID>  (30) 
28

>  <SMILES>  (30) 
CC(=O)[NH+]=C(N)c1c(Nc2ccc(C)c(N)c2)s[n-]c1=O

>  <Energy>  (30) 
81.5629669477953

>  <Genealogy>  (30) 
CC(=O)[NH+]=C(N)c1c(Nc2ccc(C)c(N)c2)s[n-]c1=O (protonated)
CC(=O)[NH+]=C(N)c1c(Nc2ccc(C)c(N)c2)s[n-]c1=O (3D coordinates assigned)
CC(=O)[NH+]=C(N)c1c(Nc2ccc(C)c(N)c2)s[n-]c1=O (optimized conformer: 81.5629669477953 kcal/mol)

>  <smiles>  (30) 
CC(=O)N=C(N)c1c(Nc2ccc(C)c(N)c2)s[nH]c1=O

>  <score_type>  (30) 
oracle

>  <origin>  (30) 
adgpu

>  <m_score__min__energy>  (30) 
-7.8799999999999999

>  <m_primary>  (30) 
energy

$$$$
30:0
     RDKit          3D

 61 63  0  0  0  0  0  0  0  0999 V2000
   -1.2777   17.7879  -35.0538 H   0  0  0  0  0  0  0  0  0  0  0  0
   -1.7420   18.3740  -34.2470 C   0  0  0  0  0  0  0  0  0  0  0  0
   -3.0940   18.4590  -34.1600 N   0  0  0  0  0  0  0  0  0  0  0  0
   -3.7280   19.1390  -33.1630 C   0  0  0  0  0  0  0  0  0  0  0  0
   -5.1660   19.2700  -33.2440 N   0  0  0  0  0  0  0  0  0  0  0  0
   -5.7540   20.6090  -33.4610 C   0  0  0  0  0  0  0  0  0  0  0  0
   -5.0321   21.3723  -33.1351 H   0  0  0  0  0  0  0  0  0  0  0  0
   -5.9822   20.7135  -34.5320 H   0  0  0  0  0  0  0  0  0  0  0  0
   -7.0380   20.7880  -32.6870 C   0  0  0  0  0  0  0  0  0  0  0  0
   -7.0670   21.6300  -31.5620 C   0  0  0  0  0  0  0  0  0  0  0  0
   -6.1631   22.1844  -31.2695 H   0  0  0  0  0  0  0  0  0  0  0  0
   -8.2400   21.7660  -30.8130 C   0  0  0  0  0  0  0  0  0  0  0  0
   -8.2584   22.4311  -29.9370 H   0  0  0  0  0  0  0  0  0  0  0  0
   -9.3890   21.0580  -31.1760 C   0  0  0  0  0  0  0  0  0  0  0  0
  -10.3105   21.1644  -30.5848 H   0  0  0  0  0  0  0  0  0  0  0  0
   -9.3670   20.2150  -32.2900 C   0  0  0  0  0  0  0  0  0  0  0  0
  -10.2718   19.6576  -32.5742 H   0  0  0  0  0  0  0  0  0  0  0  0
   -8.1970   20.0780  -33.0450 C   0  0  0  0  0  0  0  0  0  0  0  0
   -8.1842   19.4129  -33.9210 H   0  0  0  0  0  0  0  0  0  0  0  0
   -5.9120   18.0830  -33.7050 C   0  0  0  0  0  0  0  0  0  0  0  0
   -6.6667   18.4092  -34.4358 H   0  0  0  0  0  0  0  0  0  0  0  0
   -5.1770   17.3908  -34.1416 H   0  0  0  0  0  0  0  0  0  0  0  0
   -6.6270   17.3250  -32.5740 C   0  0  0  0  0  0  0  0  0  0  0  0
   -7.7098   17.4981  -32.6613 H   0  0  0  0  0  0  0  0  0  0  0  0
   -6.3817   16.2576  -32.6762 H   0  0  0  0  0  0  0  0  0  0  0  0
   -6.1680   17.7790  -31.1950 C   0  0  0  0  0  0  0  0  0  0  0  0
   -6.7253   17.2278  -30.4232 H   0  0  0  0  0  0  0  0  0  0  0  0
   -5.0920   17.5800  -31.0828 H   0  0  0  0  0  0  0  0  0  0  0  0
   -6.3552   18.8571  -31.0828 H   0  0  0  0  0  0  0  0  0  0  0  0
   -2.9510   19.7660  -32.1520 C   0  0  0  0  0  0  0  0  0  0  0  0
   -3.5520   20.4740  -30.9550 C   0  0  0  0  0  0  0  0  0  0  0  0
   -3.9017   19.7197  -30.2348 H   0  0  0  0  0  0  0  0  0  0  0  0
   -4.3840   21.0988  -31.3120 H   0  0  0  0  0  0  0  0  0  0  0  0
   -2.5820   21.3480  -30.2910 N   0  0  0  0  0  0  0  0  0  0  0  0
   -2.6580   22.6210  -29.9940 C   0  0  0  0  0  0  0  0  0  0  0  0
   -1.5740   23.1940  -29.3240 C   0  0  0  0  0  0  0  0  0  0  0  0
   -0.7076   22.5727  -29.0532 H   0  0  0  0  0  0  0  0  0  0  0  0
   -1.5850   24.5450  -28.9980 C   0  0  0  0  0  0  0  0  0  0  0  0
   -0.4910   25.1040  -28.3300 O   0  0  0  0  0  0  0  0  0  0  0  0
   -0.5530   25.6020  -26.9920 C   0  0  0  0  0  0  0  0  0  0  0  0
   -0.9430   26.6304  -27.0096 H   0  0  0  0  0  0  0  0  0  0  0  0
    0.4602   25.5789  -26.5643 H   0  0  0  0  0  0  0  0  0  0  0  0
   -1.4680   24.7350  -26.1200 C   0  0  0  0  0  0  0  0  0  0  0  0
   -1.0417   24.6740  -25.1078 H   0  0  0  0  0  0  0  0  0  0  0  0
   -1.5361   23.7388  -26.5816 H   0  0  0  0  0  0  0  0  0  0  0  0
   -2.8780   25.3120  -26.0280 C   0  0  0  0  0  0  0  0  0  0  0  0
   -3.1589   25.4269  -24.9707 H   0  0  0  0  0  0  0  0  0  0  0  0
   -2.9055   26.2937  -26.5235 H   0  0  0  0  0  0  0  0  0  0  0  0
   -3.5858   24.6312  -26.5235 H   0  0  0  0  0  0  0  0  0  0  0  0
   -2.6610   25.3000  -29.3370 N   0  0  0  0  0  0  0  0  0  0  0  0
   -3.7200   24.7850  -29.9640 N   0  0  0  0  0  0  0  0  0  0  0  0
   -4.8470   25.6710  -30.2620 C   0  0  0  0  0  0  0  0  0  0  0  0
   -5.2952   26.0233  -29.3212 H   0  0  0  0  0  0  0  0  0  0  0  0
   -4.4912   26.5337  -30.8443 H   0  0  0  0  0  0  0  0  0  0  0  0
   -5.6013   25.1216  -30.8443 H   0  0  0  0  0  0  0  0  0  0  0  0
   -3.7680   23.4530  -30.2870 C   0  0  0  0  0  0  0  0  0  0  0  0
   -4.8050   22.9880  -30.8300 O   0  0  0  0  0  0  0  0  0  0  0  0
   -1.5500   19.7290  -32.2770 C   0  0  0  0  0  0  0  0  0  0  0  0
   -0.9248   20.2606  -31.5445 H   0  0  0  0  0  0  0  0  0  0  0  0
   -0.9460   19.0280  -33.3160 C   0  0  0  0  0  0  0  0  0  0  0  0
    0.1503   18.9923  -33.3990 H   0  0  0  0  0  0  0  0  0  0  0  0
  1  2  1  0
  2  3  2  0
  3  4  1  0
  4  5  1  0
  5  6  1  0
  6  7  1  0
  6  8  1  0
  6  9  1  0
  9 10  2  0
 10 11  1  0
 10 12  1  0
 12 13  1  0
 12 14  2  0
 14 15  1  0
 14 16  1  0
 16 17  1  0
 16 18  2  0
 18 19  1  0
  5 20  1  0
 20 21  1  0
 20 22  1  0
 20 23  1  0
 23 24  1  0
 23 25  1  0
 23 26  1  0
 26 27  1  0
 26 28  1  0
 26 29  1  0
  4 30  2  0
 30 31  1  0
 31 32  1  0
 31 33  1  0
 31 34  1  0
 34 35  2  0
 35 36  1  0
 36 37  1  0
 36 38  2  0
 38 39  1  0
 39 40  1  0
 40 41  1  0
 40 42  1  0
 40 43  1  0
 43 44  1  0
 43 45  1  0
 43 46  1  0
 46 47  1  0
 46 48  1  0
 46 49  1  0
 38 50  1  0
 50 51  1  0
 51 52  1  0
 52 53  1  0
 52 54  1  0
 52 55  1  0
 51 56  1  0
 56 57  2  0
 30 58  1  0
 58 59  1  0
 58 60  2  0
 60 61  1  0
 60  2  1  0
 18  9  1  0
 56 35  1  0
M  CHG  1  50  -1
M  END
>  <UniqueID>  (31) 
29

>  <SMILES>  (31) 
CCCOc1c/c(=N/Cc2cccnc2N(CCC)Cc2ccccc2)c(=O)n(C)[n-]1

>  <Energy>  (31) 
67.157998916662

>  <Genealogy>  (31) 
CCCOc1cc(=NCc2cccnc2N(CCC)Cc2ccccc2)c(=O)n(C)[n-]1 (protonated)
CCCOc1c/c(=N/Cc2cccnc2N(CCC)Cc2ccccc2)c(=O)n(C)[n-]1 (cis-trans isomerization)
CCCOc1c/c(=N/Cc2cccnc2N(CCC)Cc2ccccc2)c(=O)n(C)[n-]1 (3D coordinates assigned)
CCCOc1c/c(=N/Cc2cccnc2N(CCC)Cc2ccccc2)c(=O)n(C)[n-]1 (optimized conformer: 67.157998916662 kcal/mol)

>  <smiles>  (31) 
CCCOc1cc(=NCc2cccnc2N(CCC)Cc2ccccc2)c(=O)n(C)[nH]1

>  <score_type>  (31) 
oracle

>  <origin>  (31) 
adgpu

>  <m_score__min__energy>  (31) 
-10.24

>  <m_primary>  (31) 
energy

$$$$
31:0
     RDKit          3D

 46 48  0  0  0  0  0  0  0  0999 V2000
   -0.8843   21.2577  -34.2429 H   0  0  0  0  0  0  0  0  0  0  0  0
   -1.7210   20.9730  -33.5880 C   0  0  0  0  0  0  0  0  0  0  0  0
   -1.8500   21.5600  -32.3260 C   0  0  0  0  0  0  0  0  0  0  0  0
   -1.1120   22.3042  -31.9920 H   0  0  0  0  0  0  0  0  0  0  0  0
   -2.9140   21.2070  -31.4820 C   0  0  0  0  0  0  0  0  0  0  0  0
   -3.0210   21.8330  -30.1900 N   0  0  0  0  0  0  0  0  0  0  0  0
   -2.5320   21.4010  -29.3740 H   0  0  0  0  0  0  0  0  0  0  0  0
   -3.9250   23.2830  -29.8850 S   0  0  0  0  0  0  0  0  0  0  0  0
   -4.0640   23.4790  -28.4010 O   0  0  0  0  0  0  0  0  0  0  0  0
   -3.1830   24.4540  -30.4640 O   0  0  0  0  0  0  0  0  0  0  0  0
   -5.5320   23.1500  -30.5930 C   0  0  0  0  0  0  0  0  0  0  0  0
   -5.7400   23.5280  -31.9260 C   0  0  0  0  0  0  0  0  0  0  0  0
   -4.8952   23.8846  -32.5336 H   0  0  0  0  0  0  0  0  0  0  0  0
   -7.0180   23.4530  -32.4850 C   0  0  0  0  0  0  0  0  0  0  0  0
   -7.1741   23.7442  -33.5342 H   0  0  0  0  0  0  0  0  0  0  0  0
   -8.1040   23.0080  -31.7150 C   0  0  0  0  0  0  0  0  0  0  0  0
   -9.4680   22.8920  -32.3260 C   0  0  0  0  0  0  0  0  0  0  0  0
  -10.2228   22.8278  -31.5284 H   0  0  0  0  0  0  0  0  0  0  0  0
   -9.6671   23.7765  -32.9490 H   0  0  0  0  0  0  0  0  0  0  0  0
   -9.5149   21.9866  -32.9490 H   0  0  0  0  0  0  0  0  0  0  0  0
   -7.8880   22.6090  -30.3870 C   0  0  0  0  0  0  0  0  0  0  0  0
   -8.7288   22.2364  -29.7834 H   0  0  0  0  0  0  0  0  0  0  0  0
   -6.6090   22.6830  -29.8280 C   0  0  0  0  0  0  0  0  0  0  0  0
   -6.4476   22.3738  -28.7848 H   0  0  0  0  0  0  0  0  0  0  0  0
   -3.8470   20.2490  -31.9240 C   0  0  0  0  0  0  0  0  0  0  0  0
   -4.6856   19.9625  -31.2723 H   0  0  0  0  0  0  0  0  0  0  0  0
   -3.7150   19.6580  -33.1880 C   0  0  0  0  0  0  0  0  0  0  0  0
   -4.8860   18.4650  -33.7450 S   0  0  0  0  0  0  0  0  0  0  0  0
   -5.0170   17.3420  -32.7550 O   0  0  0  0  0  0  0  0  0  0  0  0
   -4.4030   17.8900  -35.0460 O   0  0  0  0  0  0  0  0  0  0  0  0
   -6.4350   19.2100  -33.9940 N   0  0  0  0  0  0  0  0  0  0  0  0
   -6.6110   19.6420  -34.9280 H   0  0  0  0  0  0  0  0  0  0  0  0
   -7.3750   19.2460  -33.0940 C   0  0  0  0  0  0  0  0  0  0  0  0
   -8.6250   19.8550  -33.3380 N   0  0  0  0  0  0  0  0  0  0  0  0
   -8.8860   20.3610  -34.2140 H   0  0  0  0  0  0  0  0  0  0  0  0
   -9.4660   19.7660  -32.1610 C   0  0  0  0  0  0  0  0  0  0  0  0
  -10.4248   19.2887  -32.4119 H   0  0  0  0  0  0  0  0  0  0  0  0
   -9.6934   20.7619  -31.7530 H   0  0  0  0  0  0  0  0  0  0  0  0
   -8.6910   18.9070  -31.1480 C   0  0  0  0  0  0  0  0  0  0  0  0
   -9.1920   17.9367  -31.0155 H   0  0  0  0  0  0  0  0  0  0  0  0
   -8.6474   19.4039  -30.1676 H   0  0  0  0  0  0  0  0  0  0  0  0
   -7.2790   18.6970  -31.7160 C   0  0  0  0  0  0  0  0  0  0  0  0
   -7.0178   17.6286  -31.7356 H   0  0  0  0  0  0  0  0  0  0  0  0
   -6.4978   19.1840  -31.1139 H   0  0  0  0  0  0  0  0  0  0  0  0
   -2.6520   20.0260  -34.0190 C   0  0  0  0  0  0  0  0  0  0  0  0
   -2.5492   19.5685  -35.0140 H   0  0  0  0  0  0  0  0  0  0  0  0
  1  2  1  0
  2  3  2  0
  3  4  1  0
  3  5  1  0
  5  6  1  0
  6  7  1  0
  6  8  1  0
  8  9  2  0
  8 10  2  0
  8 11  1  0
 11 12  2  0
 12 13  1  0
 12 14  1  0
 14 15  1  0
 14 16  2  0
 16 17  1  0
 17 18  1  0
 17 19  1  0
 17 20  1  0
 16 21  1  0
 21 22  1  0
 21 23  2  0
 23 24  1  0
  5 25  2  0
 25 26  1  0
 25 27  1  0
 27 28  1  0
 28 29  2  0
 28 30  2  0
 28 31  1  0
 31 32  1  0
 31 33  2  0
 33 34  1  0
 34 35  1  0
 34 36  1  0
 36 37  1  0
 36 38  1  0
 36 39  1  0
 39 40  1  0
 39 41  1  0
 39 42  1  0
 42 43  1  0
 42 44  1  0
 27 45  2  0
 45 46  1  0
 45  2  1  0
 23 11  1  0
 42 33  1  0
M  CHG  1  31   1
M  END
>  <UniqueID>  (32) 
30

>  <SMILES>  (32) 
Cc1ccc(S(=O)(=O)Nc2cccc(S(=O)(=O)/[NH+]=C3\CCCN3)c2)cc1

>  <Energy>  (32) 
55.552601050970225

>  <Genealogy>  (32) 
Cc1ccc(S(=O)(=O)Nc2cccc(S(=O)(=O)[NH+]=C3CCCN3)c2)cc1 (protonated)
Cc1ccc(S(=O)(=O)Nc2cccc(S(=O)(=O)/[NH+]=C3\CCCN3)c2)cc1 (cis-trans isomerization)
Cc1ccc(S(=O)(=O)Nc2cccc(S(=O)(=O)/[NH+]=C3\CCCN3)c2)cc1 (3D coordinates assigned)
Cc1ccc(S(=O)(=O)Nc2cccc(S(=O)(=O)/[NH+]=C3\CCCN3)c2)cc1 (nonaromatic ring conformer: 55.552601050970225 kcal/mol)

>  <smiles>  (32) 
Cc1ccc(S(=O)(=O)Nc2cccc(S(=O)(=O)N=C3CCCN3)c2)cc1

>  <score_type>  (32) 
oracle

>  <origin>  (32) 
adgpu

>  <m_score__min__energy>  (32) 
-10.65

>  <m_primary>  (32) 
energy

$$$$
32:0
     RDKit          3D

 39 41  0  0  0  0  0  0  0  0999 V2000
   -2.4750   23.1800  -30.2700 C   0  0  0  0  0  0  0  0  0  0  0  0
   -3.9070   23.2670  -30.7150 C   0  0  0  0  0  0  0  0  0  0  0  0
   -4.6100   22.1040  -31.0720 C   0  0  0  0  0  0  0  0  0  0  0  0
   -5.9450   22.1750  -31.5110 C   0  0  0  0  0  0  0  0  0  0  0  0
   -6.6730   20.9310  -31.8720 C   0  0  0  0  0  0  0  0  0  0  0  0
   -6.0010   19.8000  -32.3650 C   0  0  0  0  0  0  0  0  0  0  0  0
   -6.7430   18.6520  -32.6880 C   0  0  0  0  0  0  0  0  0  0  0  0
   -6.0930   17.4240  -33.2120 C   0  0  0  0  0  0  0  0  0  0  0  0
   -4.6940   17.3210  -33.3060 C   0  0  0  0  0  0  0  0  0  0  0  0
   -4.1020   16.1680  -33.8180 C   0  0  0  0  0  0  0  0  0  0  0  0
   -4.8840   15.0920  -34.2500 C   0  0  0  0  0  0  0  0  0  0  0  0
   -4.2270   13.9760  -34.7720 O   0  0  0  0  0  0  0  0  0  0  0  0
   -6.2940   15.1700  -34.1540 C   0  0  0  0  0  0  0  0  0  0  0  0
   -7.1950   14.0510  -34.6180 C   0  0  0  0  0  0  0  0  0  0  0  0
   -6.4570   12.7910  -34.6480 N   0  0  0  0  0  0  0  0  0  0  0  0
   -6.8820   16.3470  -33.6540 C   0  0  0  0  0  0  0  0  0  0  0  0
   -8.0900   18.6620  -32.4930 N   0  0  0  0  0  0  0  0  0  0  0  0
   -8.7270   19.7570  -32.0070 C   0  0  0  0  0  0  0  0  0  0  0  0
   -8.0220   20.8740  -31.7010 N   0  0  0  0  0  0  0  0  0  0  0  0
   -6.5730   23.4340  -31.5760 C   0  0  0  0  0  0  0  0  0  0  0  0
   -5.8740   24.5920  -31.2290 C   0  0  0  0  0  0  0  0  0  0  0  0
   -4.5460   24.5150  -30.8040 C   0  0  0  0  0  0  0  0  0  0  0  0
   -3.8670   25.6830  -30.4700 O   0  0  0  0  0  0  0  0  0  0  0  0
   -2.4321   23.1774  -29.1708 H   0  0  0  0  0  0  0  0  0  0  0  0
   -2.0266   22.2530  -30.6566 H   0  0  0  0  0  0  0  0  0  0  0  0
   -1.9176   24.0459  -30.6566 H   0  0  0  0  0  0  0  0  0  0  0  0
   -4.1106   21.1260  -31.0075 H   0  0  0  0  0  0  0  0  0  0  0  0
   -4.9089   19.8134  -32.4962 H   0  0  0  0  0  0  0  0  0  0  0  0
   -4.0617   18.1572  -32.9728 H   0  0  0  0  0  0  0  0  0  0  0  0
   -3.0058   16.1034  -33.8832 H   0  0  0  0  0  0  0  0  0  0  0  0
   -4.5930   13.4120  -35.5280 H   0  0  0  0  0  0  0  0  0  0  0  0
   -8.0452   13.9581  -33.9263 H   0  0  0  0  0  0  0  0  0  0  0  0
   -7.5591   14.2788  -35.6307 H   0  0  0  0  0  0  0  0  0  0  0  0
   -5.7810   12.8000  -33.8510 H   0  0  0  0  0  0  0  0  0  0  0  0
   -5.8840   12.7620  -35.5230 H   0  0  0  0  0  0  0  0  0  0  0  0
   -7.9782   16.4259  -33.6081 H   0  0  0  0  0  0  0  0  0  0  0  0
   -9.8171   19.7385  -31.8610 H   0  0  0  0  0  0  0  0  0  0  0  0
   -7.6211   23.5056  -31.9023 H   0  0  0  0  0  0  0  0  0  0  0  0
   -6.3724   25.5707  -31.2908 H   0  0  0  0  0  0  0  0  0  0  0  0
  1  2  1  0
  2  3  2  0
  3  4  1  0
  4  5  1  0
  5  6  2  0
  6  7  1  0
  7  8  1  0
  8  9  2  0
  9 10  1  0
 10 11  2  0
 11 12  1  0
 11 13  1  0
 13 14  1  0
 14 15  1  0
 13 16  2  0
  7 17  2  0
 17 18  1  0
 18 19  2  0
  4 20  2  0
 20 21  1  0
 21 22  2  0
 22 23  1  0
 22  2  1  0
 19  5  1  0
 16  8  1  0
  1 24  1  0
  1 25  1  0
  1 26  1  0
  3 27  1  0
  6 28  1  0
  9 29  1  0
 10 30  1  0
 12 31  1  0
 14 32  1  0
 14 33  1  0
 15 34  1  0
 15 35  1  0
 16 36  1  0
 18 37  1  0
 20 38  1  0
 21 39  1  0
M  CHG  1  23  -1
M  END
>  <UniqueID>  (33) 
31

>  <SMILES>  (33) 
Cc1cc(-c2cc(-c3ccc(O)c(CN)c3)ncn2)ccc1[O-]

>  <Energy>  (33) 
50.74158238542638

>  <Genealogy>  (33) 
Cc1cc(-c2cc(-c3ccc(O)c(CN)c3)ncn2)ccc1[O-] (protonated)
Cc1cc(-c2cc(-c3ccc(O)c(CN)c3)ncn2)ccc1[O-] (3D coordinates assigned)
Cc1cc(-c2cc(-c3ccc(O)c(CN)c3)ncn2)ccc1[O-] (optimized conformer: 50.74158238542638 kcal/mol)

>  <smiles>  (33) 
Cc1cc(-c2cc(-c3ccc(O)c(CN)c3)ncn2)ccc1O

>  <score_type>  (33) 
oracle

>  <origin>  (33) 
adgpu

>  <m_score__min__energy>  (33) 
-9.9700000000000006

>  <m_primary>  (33) 
energy

$$$$
33:0
     RDKit          3D

 40 43  0  0  0  0  0  0  0  0999 V2000
   -4.6360   24.3140  -31.2130 O   0  0  0  0  0  0  0  0  0  0  0  0
   -5.4580   23.6780  -30.4990 C   0  0  0  0  0  0  0  0  0  0  0  0
   -5.3500   23.7210  -29.0650 N   0  0  0  0  0  0  0  0  0  0  0  0
   -4.1820   24.1810  -28.3630 C   0  0  0  0  0  0  0  0  0  0  0  0
   -2.9730   24.3210  -29.0570 C   0  0  0  0  0  0  0  0  0  0  0  0
   -1.8280   24.7860  -28.4040 C   0  0  0  0  0  0  0  0  0  0  0  0
   -1.8770   25.1470  -27.0480 C   0  0  0  0  0  0  0  0  0  0  0  0
   -0.6910   25.6180  -26.3790 N   0  0  0  0  0  0  0  0  0  0  0  0
   -0.6780   26.3460  -25.1000 C   0  0  0  0  0  0  0  0  0  0  0  0
    0.7660   26.7150  -24.9190 C   0  0  0  0  0  0  0  0  0  0  0  0
    1.3500   27.4320  -23.8710 C   0  0  0  0  0  0  0  0  0  0  0  0
    0.5960   27.9030  -22.8480 F   0  0  0  0  0  0  0  0  0  0  0  0
    2.7380   27.6510  -23.8990 C   0  0  0  0  0  0  0  0  0  0  0  0
    3.5170   27.1520  -24.9640 C   0  0  0  0  0  0  0  0  0  0  0  0
    2.9140   26.4330  -26.0080 C   0  0  0  0  0  0  0  0  0  0  0  0
    1.5350   26.2340  -25.9540 C   0  0  0  0  0  0  0  0  0  0  0  0
    0.6530   25.5430  -26.8600 C   0  0  0  0  0  0  0  0  0  0  0  0
    1.0150   24.9100  -27.8870 O   0  0  0  0  0  0  0  0  0  0  0  0
   -3.0940   25.0180  -26.3540 C   0  0  0  0  0  0  0  0  0  0  0  0
   -4.2380   24.5500  -27.0080 C   0  0  0  0  0  0  0  0  0  0  0  0
   -6.5550   22.9220  -31.1410 C   0  0  0  0  0  0  0  0  0  0  0  0
   -6.3900   21.5760  -31.5130 C   0  0  0  0  0  0  0  0  0  0  0  0
   -7.4500   20.8920  -32.1130 C   0  0  0  0  0  0  0  0  0  0  0  0
   -7.2610   19.2140  -32.5840 Cl  0  0  0  0  0  0  0  0  0  0  0  0
   -8.6620   21.5490  -32.3370 C   0  0  0  0  0  0  0  0  0  0  0  0
   -8.7940   22.8860  -31.9560 C   0  0  0  0  0  0  0  0  0  0  0  0
   -7.7520   23.5330  -31.3730 N   0  0  0  0  0  0  0  0  0  0  0  0
   -6.1970   23.4910  -28.4980 H   0  0  0  0  0  0  0  0  0  0  0  0
   -2.9245   24.0627  -30.1251 H   0  0  0  0  0  0  0  0  0  0  0  0
   -0.8808   24.8698  -28.9569 H   0  0  0  0  0  0  0  0  0  0  0  0
   -1.3095   27.2451  -25.1533 H   0  0  0  0  0  0  0  0  0  0  0  0
   -1.0750   25.7503  -24.2648 H   0  0  0  0  0  0  0  0  0  0  0  0
    3.2195   28.2145  -23.0862 H   0  0  0  0  0  0  0  0  0  0  0  0
    4.6029   27.3273  -24.9764 H   0  0  0  0  0  0  0  0  0  0  0  0
    3.5112   26.0386  -26.8433 H   0  0  0  0  0  0  0  0  0  0  0  0
   -3.1460   25.2873  -25.2888 H   0  0  0  0  0  0  0  0  0  0  0  0
   -5.1876   24.4702  -26.4585 H   0  0  0  0  0  0  0  0  0  0  0  0
   -5.4327   21.0651  -31.3328 H   0  0  0  0  0  0  0  0  0  0  0  0
   -9.5030   21.0193  -32.8082 H   0  0  0  0  0  0  0  0  0  0  0  0
   -9.7427   23.4155  -32.1282 H   0  0  0  0  0  0  0  0  0  0  0  0
  1  2  2  0
  2  3  1  0
  3  4  1  0
  4  5  2  0
  5  6  1  0
  6  7  2  0
  7  8  1  0
  8  9  1  0
  9 10  1  0
 10 11  2  0
 11 12  1  0
 11 13  1  0
 13 14  2  0
 14 15  1  0
 15 16  2  0
 16 17  1  0
 17 18  2  0
  7 19  1  0
 19 20  2  0
  2 21  1  0
 21 22  2  0
 22 23  1  0
 23 24  1  0
 23 25  2  0
 25 26  1  0
 26 27  2  0
 20  4  1  0
 27 21  1  0
 17  8  1  0
 16 10  1  0
  3 28  1  0
  5 29  1  0
  6 30  1  0
  9 31  1  0
  9 32  1  0
 13 33  1  0
 14 34  1  0
 15 35  1  0
 19 36  1  0
 20 37  1  0
 22 38  1  0
 25 39  1  0
 26 40  1  0
M  END
>  <UniqueID>  (34) 
32

>  <SMILES>  (34) 
O=C(Nc1ccc(N2Cc3c(F)cccc3C2=O)cc1)c1cc(Cl)ccn1

>  <Energy>  (34) 
75.03536670099099

>  <Genealogy>  (34) 
O=C(Nc1ccc(N2Cc3c(F)cccc3C2=O)cc1)c1cc(Cl)ccn1 (3D coordinates assigned)
O=C(Nc1ccc(N2Cc3c(F)cccc3C2=O)cc1)c1cc(Cl)ccn1 (nonaromatic ring conformer: 75.03536670099099 kcal/mol)

>  <smiles>  (34) 
O=C(Nc1ccc(N2Cc3c(F)cccc3C2=O)cc1)c1cc(Cl)ccn1

>  <score_type>  (34) 
oracle

>  <origin>  (34) 
adgpu

>  <m_score__min__energy>  (34) 
-8.5399999999999991

>  <m_primary>  (34) 
energy

$$$$
34:0
     RDKit          3D

 48 51  0  0  0  0  0  0  0  0999 V2000
   -2.7220   15.1510  -35.2530 C   0  0  0  0  0  0  0  0  0  0  0  0
   -3.5440   16.2220  -35.7050 O   0  0  0  0  0  0  0  0  0  0  0  0
   -4.1450   17.1730  -34.8650 C   0  0  0  0  0  0  0  0  0  0  0  0
   -5.5280   17.1730  -34.6070 C   0  0  0  0  0  0  0  0  0  0  0  0
   -6.0900   18.1320  -33.7640 C   0  0  0  0  0  0  0  0  0  0  0  0
   -5.2860   19.1170  -33.1680 C   0  0  0  0  0  0  0  0  0  0  0  0
   -5.8800   20.1680  -32.3070 C   0  0  0  0  0  0  0  0  0  0  0  0
   -7.2380   20.1530  -31.9510 C   0  0  0  0  0  0  0  0  0  0  0  0
   -7.7490   21.1810  -31.1570 C   0  0  0  0  0  0  0  0  0  0  0  0
   -6.9150   22.2170  -30.7330 C   0  0  0  0  0  0  0  0  0  0  0  0
   -5.5640   22.2110  -31.1080 C   0  0  0  0  0  0  0  0  0  0  0  0
   -4.6560   23.3050  -30.6920 C   0  0  0  0  0  0  0  0  0  0  0  0
   -4.8120   24.5850  -31.0880 N   0  0  0  0  0  0  0  0  0  0  0  0
   -3.8610   25.3000  -30.5040 N   0  0  0  0  0  0  0  0  0  0  0  0
   -3.1400   24.4470  -29.7550 C   0  0  0  0  0  0  0  0  0  0  0  0
   -1.8150   24.9030  -28.9070 S   0  0  0  0  0  0  0  0  0  0  0  0
   -3.6030   23.1830  -29.8490 N   0  0  0  0  0  0  0  0  0  0  0  0
   -3.0610   21.9970  -29.2430 C   0  0  0  0  0  0  0  0  0  0  0  0
   -2.1440   21.2030  -29.9460 C   0  0  0  0  0  0  0  0  0  0  0  0
   -1.5800   20.0750  -29.3430 C   0  0  0  0  0  0  0  0  0  0  0  0
   -1.9070   19.7440  -28.0180 C   0  0  0  0  0  0  0  0  0  0  0  0
   -1.2930   18.5430  -27.3630 C   0  0  0  0  0  0  0  0  0  0  0  0
   -2.8540   20.5160  -27.3290 C   0  0  0  0  0  0  0  0  0  0  0  0
   -3.4320   21.6310  -27.9400 C   0  0  0  0  0  0  0  0  0  0  0  0
   -5.0910   21.1830  -31.8640 N   0  0  0  0  0  0  0  0  0  0  0  0
   -3.9070   19.1250  -33.4360 C   0  0  0  0  0  0  0  0  0  0  0  0
   -3.3300   18.1470  -34.2700 C   0  0  0  0  0  0  0  0  0  0  0  0
   -1.9500   18.1050  -34.5280 O   0  0  0  0  0  0  0  0  0  0  0  0
   -0.9960   19.0030  -33.9710 C   0  0  0  0  0  0  0  0  0  0  0  0
   -2.7108   15.1364  -34.1532 H   0  0  0  0  0  0  0  0  0  0  0  0
   -3.1226   14.1977  -35.6283 H   0  0  0  0  0  0  0  0  0  0  0  0
   -1.6976   15.2914  -35.6283 H   0  0  0  0  0  0  0  0  0  0  0  0
   -6.1706   16.4116  -35.0732 H   0  0  0  0  0  0  0  0  0  0  0  0
   -7.1717   18.1164  -33.5646 H   0  0  0  0  0  0  0  0  0  0  0  0
   -7.8931   19.3388  -32.2945 H   0  0  0  0  0  0  0  0  0  0  0  0
   -8.8096   21.1748  -30.8652 H   0  0  0  0  0  0  0  0  0  0  0  0
   -7.3142   23.0310  -30.1101 H   0  0  0  0  0  0  0  0  0  0  0  0
   -1.8671   21.4689  -30.9768 H   0  0  0  0  0  0  0  0  0  0  0  0
   -0.8778   19.4446  -29.9082 H   0  0  0  0  0  0  0  0  0  0  0  0
   -1.3491   18.6527  -26.2699 H   0  0  0  0  0  0  0  0  0  0  0  0
   -1.8394   17.6388  -27.6693 H   0  0  0  0  0  0  0  0  0  0  0  0
   -0.2401   18.4565  -27.6693 H   0  0  0  0  0  0  0  0  0  0  0  0
   -3.1425   20.2422  -26.3034 H   0  0  0  0  0  0  0  0  0  0  0  0
   -4.1818   22.2253  -27.3972 H   0  0  0  0  0  0  0  0  0  0  0  0
   -3.2707   19.9034  -32.9898 H   0  0  0  0  0  0  0  0  0  0  0  0
   -1.0458   18.9562  -32.8731 H   0  0  0  0  0  0  0  0  0  0  0  0
    0.0130   18.7194  -34.3048 H   0  0  0  0  0  0  0  0  0  0  0  0
   -1.2182   20.0273  -34.3048 H   0  0  0  0  0  0  0  0  0  0  0  0
  1  2  1  0
  2  3  1  0
  3  4  2  0
  4  5  1  0
  5  6  2  0
  6  7  1  0
  7  8  2  0
  8  9  1  0
  9 10  2  0
 10 11  1  0
 11 12  1  0
 12 13  2  0
 13 14  1  0
 14 15  1  0
 15 16  2  0
 15 17  1  0
 17 18  1  0
 18 19  2  0
 19 20  1  0
 20 21  2  0
 21 22  1  0
 21 23  1  0
 23 24  2  0
 11 25  2  0
  6 26  1  0
 26 27  2  0
 27 28  1  0
 28 29  1  0
 27  3  1  0
 25  7  1  0
 17 12  1  0
 24 18  1  0
  1 30  1  0
  1 31  1  0
  1 32  1  0
  4 33  1  0
  5 34  1  0
  8 35  1  0
  9 36  1  0
 10 37  1  0
 19 38  1  0
 20 39  1  0
 22 40  1  0
 22 41  1  0
 22 42  1  0
 23 43  1  0
 24 44  1  0
 26 45  1  0
 29 46  1  0
 29 47  1  0
 29 48  1  0
M  CHG  1  14  -1
M  END
>  <UniqueID>  (35) 
33

>  <SMILES>  (35) 
COc1ccc(-c2cccc(-c3n[n-]c(=S)n3-c3ccc(C)cc3)n2)cc1OC

>  <Energy>  (35) 
95.32662945925868

>  <Genealogy>  (35) 
COc1ccc(-c2cccc(-c3n[n-]c(=S)n3-c3ccc(C)cc3)n2)cc1OC (protonated)
COc1ccc(-c2cccc(-c3n[n-]c(=S)n3-c3ccc(C)cc3)n2)cc1OC (3D coordinates assigned)
COc1ccc(-c2cccc(-c3n[n-]c(=S)n3-c3ccc(C)cc3)n2)cc1OC (optimized conformer: 95.32662945925868 kcal/mol)

>  <smiles>  (35) 
COc1ccc(-c2cccc(-c3n[nH]c(=S)n3-c3ccc(C)cc3)n2)cc1OC

>  <score_type>  (35) 
oracle

>  <origin>  (35) 
adgpu

>  <m_score__min__energy>  (35) 
-9.8300000000000001

>  <m_primary>  (35) 
energy

$$$$
35:0
     RDKit          3D

 36 38  0  0  0  0  0  0  0  0999 V2000
    1.8190   18.6520  -36.0780 C   0  0  0  0  0  0  0  0  0  0  0  0
    1.3020   19.9860  -35.7080 N   0  0  0  0  0  0  0  0  0  0  0  0
    1.8130   21.1110  -36.3140 C   0  0  0  0  0  0  0  0  0  0  0  0
    2.7220   21.0230  -37.1860 O   0  0  0  0  0  0  0  0  0  0  0  0
    1.3280   22.3780  -35.9660 C   0  0  0  0  0  0  0  0  0  0  0  0
    1.7880   23.4150  -36.5150 O   0  0  0  0  0  0  0  0  0  0  0  0
    0.3550   22.4920  -35.0330 N   0  0  0  0  0  0  0  0  0  0  0  0
   -0.1670   21.4030  -34.4190 C   0  0  0  0  0  0  0  0  0  0  0  0
   -1.1720   21.5690  -33.4610 C   0  0  0  0  0  0  0  0  0  0  0  0
   -1.7250   20.4540  -32.8070 C   0  0  0  0  0  0  0  0  0  0  0  0
   -2.7540   20.5910  -31.8070 N   0  0  0  0  0  0  0  0  0  0  0  0
   -4.1850   20.6920  -32.0990 C   0  0  0  0  0  0  0  0  0  0  0  0
   -4.7240   22.0310  -31.6640 C   0  0  0  0  0  0  0  0  0  0  0  0
   -3.8530   23.0500  -31.2460 C   0  0  0  0  0  0  0  0  0  0  0  0
   -4.3600   24.2910  -30.8460 C   0  0  0  0  0  0  0  0  0  0  0  0
   -3.4930   25.2930  -30.4270 O   0  0  0  0  0  0  0  0  0  0  0  0
   -5.7380   24.5240  -30.8670 C   0  0  0  0  0  0  0  0  0  0  0  0
   -6.6150   23.5170  -31.2940 C   0  0  0  0  0  0  0  0  0  0  0  0
   -7.9890   23.7390  -31.3240 O   0  0  0  0  0  0  0  0  0  0  0  0
   -6.1060   22.2760  -31.6940 C   0  0  0  0  0  0  0  0  0  0  0  0
   -1.2650   19.1740  -33.1410 C   0  0  0  0  0  0  0  0  0  0  0  0
   -0.2630   19.0000  -34.0990 C   0  0  0  0  0  0  0  0  0  0  0  0
    0.3080   20.1130  -34.7570 C   0  0  0  0  0  0  0  0  0  0  0  0
    2.0411   18.0789  -35.1657 H   0  0  0  0  0  0  0  0  0  0  0  0
    1.0629   18.1175  -36.6718 H   0  0  0  0  0  0  0  0  0  0  0  0
    2.7378   18.7666  -36.6718 H   0  0  0  0  0  0  0  0  0  0  0  0
   -1.5325   22.5793  -33.2173 H   0  0  0  0  0  0  0  0  0  0  0  0
   -2.4680   20.6730  -30.8050 H   0  0  0  0  0  0  0  0  0  0  0  0
   -4.3420   20.5738  -33.1813 H   0  0  0  0  0  0  0  0  0  0  0  0
   -4.7152   19.9012  -31.5480 H   0  0  0  0  0  0  0  0  0  0  0  0
   -2.7676   22.8717  -31.2330 H   0  0  0  0  0  0  0  0  0  0  0  0
   -6.1350   25.4990  -30.5480 H   0  0  0  0  0  0  0  0  0  0  0  0
   -8.3800   24.6620  -31.1750 H   0  0  0  0  0  0  0  0  0  0  0  0
   -6.7934   21.4875  -32.0341 H   0  0  0  0  0  0  0  0  0  0  0  0
   -1.6982   18.2943  -32.6426 H   0  0  0  0  0  0  0  0  0  0  0  0
    0.0853   17.9857  -34.3438 H   0  0  0  0  0  0  0  0  0  0  0  0
  1  2  1  0
  2  3  1  0
  3  4  2  0
  3  5  1  0
  5  6  2  0
  5  7  1  0
  7  8  1  0
  8  9  2  0
  9 10  1  0
 10 11  1  0
 11 12  1  0
 12 13  1  0
 13 14  2  0
 14 15  1  0
 15 16  1  0
 15 17  2  0
 17 18  1  0
 18 19  1  0
 18 20  2  0
 10 21  2  0
 21 22  1  0
 22 23  2  0
 23  2  1  0
 23  8  1  0
 20 13  1  0
  1 24  1  0
  1 25  1  0
  1 26  1  0
  9 27  1  0
 11 28  1  0
 12 29  1  0
 12 30  1  0
 14 31  1  0
 17 32  1  0
 19 33  1  0
 20 34  1  0
 21 35  1  0
 22 36  1  0
M  CHG  2   7  -1  16  -1
M  END
>  <UniqueID>  (36) 
34

>  <SMILES>  (36) 
Cn1c(=O)c(=O)[n-]c2cc(NCc3cc([O-])cc(O)c3)ccc21

>  <Energy>  (36) 
48.005865839292966

>  <Genealogy>  (36) 
Cn1c(=O)c(=O)[n-]c2cc(NCc3cc([O-])cc(O)c3)ccc21 (protonated)
Cn1c(=O)c(=O)[n-]c2cc(NCc3cc([O-])cc(O)c3)ccc21 (3D coordinates assigned)
Cn1c(=O)c(=O)[n-]c2cc(NCc3cc([O-])cc(O)c3)ccc21 (optimized conformer: 48.005865839292966 kcal/mol)

>  <smiles>  (36) 
Cn1c(=O)c(=O)[nH]c2cc(NCc3cc(O)cc(O)c3)ccc21

>  <score_type>  (36) 
oracle

>  <origin>  (36) 
adgpu

>  <m_score__min__energy>  (36) 
-9.6799999999999997

>  <m_primary>  (36) 
energy

$$$$
36:0
     RDKit          3D

 46 49  0  0  0  0  0  0  0  0999 V2000
   -3.7910   25.2990  -30.4720 O   0  0  0  0  0  0  0  0  0  0  0  0
   -4.8290   24.5810  -30.4640 C   0  0  0  0  0  0  0  0  0  0  0  0
   -6.1050   25.1480  -29.9210 C   0  0  0  0  0  0  0  0  0  0  0  0
   -7.2360   24.5730  -30.5730 O   0  0  0  0  0  0  0  0  0  0  0  0
   -7.2530   23.2460  -31.0150 C   0  0  0  0  0  0  0  0  0  0  0  0
   -8.4770   22.6450  -31.3270 C   0  0  0  0  0  0  0  0  0  0  0  0
   -8.5180   21.3240  -31.7710 C   0  0  0  0  0  0  0  0  0  0  0  0
   -7.3340   20.5910  -31.9070 C   0  0  0  0  0  0  0  0  0  0  0  0
   -7.3880   18.9330  -32.5010 S   0  0  0  0  0  0  0  0  0  0  0  0
   -6.8270   17.9890  -31.4730 O   0  0  0  0  0  0  0  0  0  0  0  0
   -8.8230   18.5700  -32.7690 O   0  0  0  0  0  0  0  0  0  0  0  0
   -6.4810   18.7770  -33.9750 N   0  0  0  0  0  0  0  0  0  0  0  0
   -5.0600   18.5460  -34.0260 C   0  0  0  0  0  0  0  0  0  0  0  0
   -4.5190   17.3730  -34.5890 C   0  0  0  0  0  0  0  0  0  0  0  0
   -3.1330   17.1780  -34.6130 C   0  0  0  0  0  0  0  0  0  0  0  0
   -2.2770   18.1480  -34.0870 C   0  0  0  0  0  0  0  0  0  0  0  0
   -2.8030   19.3160  -33.5310 C   0  0  0  0  0  0  0  0  0  0  0  0
   -4.1880   19.5140  -33.5000 C   0  0  0  0  0  0  0  0  0  0  0  0
   -6.1040   21.1970  -31.6080 C   0  0  0  0  0  0  0  0  0  0  0  0
   -6.0460   22.5330  -31.1640 C   0  0  0  0  0  0  0  0  0  0  0  0
   -4.7860   23.2110  -30.9140 N   0  0  0  0  0  0  0  0  0  0  0  0
   -3.4840   22.5600  -31.1630 C   0  0  0  0  0  0  0  0  0  0  0  0
   -2.7520   22.2960  -29.8700 C   0  0  0  0  0  0  0  0  0  0  0  0
   -1.7990   23.2110  -29.3910 C   0  0  0  0  0  0  0  0  0  0  0  0
   -1.1220   22.9620  -28.1920 C   0  0  0  0  0  0  0  0  0  0  0  0
   -1.4000   21.8070  -27.4560 C   0  0  0  0  0  0  0  0  0  0  0  0
   -2.3570   20.8980  -27.9160 C   0  0  0  0  0  0  0  0  0  0  0  0
   -2.7180   19.4550  -26.9870 Cl  0  0  0  0  0  0  0  0  0  0  0  0
   -3.0380   21.1450  -29.1130 C   0  0  0  0  0  0  0  0  0  0  0  0
   -6.1638   24.9351  -28.8434 H   0  0  0  0  0  0  0  0  0  0  0  0
   -6.1110   26.2334  -30.0992 H   0  0  0  0  0  0  0  0  0  0  0  0
   -9.4108   23.2168  -31.2216 H   0  0  0  0  0  0  0  0  0  0  0  0
   -9.4836   20.8569  -32.0150 H   0  0  0  0  0  0  0  0  0  0  0  0
   -6.9960   18.9570  -34.8670 H   0  0  0  0  0  0  0  0  0  0  0  0
   -5.1878   16.6083  -35.0109 H   0  0  0  0  0  0  0  0  0  0  0  0
   -2.7166   16.2574  -35.0478 H   0  0  0  0  0  0  0  0  0  0  0  0
   -1.1884   17.9920  -34.1107 H   0  0  0  0  0  0  0  0  0  0  0  0
   -2.1287   20.0804  -33.1174 H   0  0  0  0  0  0  0  0  0  0  0  0
   -4.5974   20.4353  -33.0601 H   0  0  0  0  0  0  0  0  0  0  0  0
   -5.1734   20.6217  -31.7217 H   0  0  0  0  0  0  0  0  0  0  0  0
   -3.6534   21.6047  -31.6814 H   0  0  0  0  0  0  0  0  0  0  0  0
   -2.8702   23.2319  -31.7809 H   0  0  0  0  0  0  0  0  0  0  0  0
   -1.5843   24.1269  -29.9611 H   0  0  0  0  0  0  0  0  0  0  0  0
   -0.3694   23.6769  -27.8280 H   0  0  0  0  0  0  0  0  0  0  0  0
   -0.8655   21.6132  -26.5143 H   0  0  0  0  0  0  0  0  0  0  0  0
   -3.8014   20.4352  -29.4643 H   0  0  0  0  0  0  0  0  0  0  0  0
  1  2  2  0
  2  3  1  0
  3  4  1  0
  4  5  1  0
  5  6  2  0
  6  7  1  0
  7  8  2  0
  8  9  1  0
  9 10  2  0
  9 11  2  0
  9 12  1  0
 12 13  1  0
 13 14  2  0
 14 15  1  0
 15 16  2  0
 16 17  1  0
 17 18  2  0
  8 19  1  0
 19 20  2  0
 20 21  1  0
 21 22  1  0
 22 23  1  0
 23 24  2  0
 24 25  1  0
 25 26  2  0
 26 27  1  0
 27 28  1  0
 27 29  2  0
 21  2  1  0
 29 23  1  0
 20  5  1  0
 18 13  1  0
  3 30  1  0
  3 31  1  0
  6 32  1  0
  7 33  1  0
 12 34  1  0
 14 35  1  0
 15 36  1  0
 16 37  1  0
 17 38  1  0
 18 39  1  0
 19 40  1  0
 22 41  1  0
 22 42  1  0
 24 43  1  0
 25 44  1  0
 26 45  1  0
 29 46  1  0
M  END
>  <UniqueID>  (37) 
35

>  <SMILES>  (37) 
O=C1COc2ccc(S(=O)(=O)Nc3ccccc3)cc2N1Cc1cccc(Cl)c1

>  <Energy>  (37) 
55.7775287702632

>  <Genealogy>  (37) 
O=C1COc2ccc(S(=O)(=O)Nc3ccccc3)cc2N1Cc1cccc(Cl)c1 (3D coordinates assigned)
O=C1COc2ccc(S(=O)(=O)Nc3ccccc3)cc2N1Cc1cccc(Cl)c1 (nonaromatic ring conformer: 55.7775287702632 kcal/mol)

>  <smiles>  (37) 
O=C1COc2ccc(S(=O)(=O)Nc3ccccc3)cc2N1Cc1cccc(Cl)c1

>  <score_type>  (37) 
oracle

>  <origin>  (37) 
adgpu

>  <m_score__min__energy>  (37) 
-10.390000000000001

>  <m_primary>  (37) 
energy

$$$$
37:0
     RDKit          3D

 58 61  0  0  0  0  0  0  0  0999 V2000
   -2.3630   25.3200  -30.3770 H   0  0  0  0  0  0  0  0  0  0  0  0
   -2.3540   25.2650  -29.3340 N   0  0  0  0  0  0  0  0  0  0  0  0
   -3.4300   23.9870  -28.8850 S   0  0  0  0  0  0  0  0  0  0  0  0
   -4.3880   24.5030  -27.8500 O   0  0  0  0  0  0  0  0  0  0  0  0
   -2.6160   22.8650  -28.3030 O   0  0  0  0  0  0  0  0  0  0  0  0
   -4.3390   23.4080  -30.2910 C   0  0  0  0  0  0  0  0  0  0  0  0
   -3.9440   22.2090  -30.9060 C   0  0  0  0  0  0  0  0  0  0  0  0
   -3.0819   21.6535  -30.5083 H   0  0  0  0  0  0  0  0  0  0  0  0
   -4.6330   21.7110  -32.0190 C   0  0  0  0  0  0  0  0  0  0  0  0
   -4.2200   20.4360  -32.6450 C   0  0  0  0  0  0  0  0  0  0  0  0
   -2.9510   20.1050  -33.0980 C   0  0  0  0  0  0  0  0  0  0  0  0
   -1.7080   20.9590  -33.0470 C   0  0  0  0  0  0  0  0  0  0  0  0
   -2.0014   22.0187  -33.0780 H   0  0  0  0  0  0  0  0  0  0  0  0
   -0.8170   20.6750  -34.2600 C   0  0  0  0  0  0  0  0  0  0  0  0
    0.1788   20.3576  -33.9172 H   0  0  0  0  0  0  0  0  0  0  0  0
   -1.2677   19.8760  -34.8670 H   0  0  0  0  0  0  0  0  0  0  0  0
   -0.7222   21.5875  -34.8670 H   0  0  0  0  0  0  0  0  0  0  0  0
   -0.9490   20.7060  -31.7420 C   0  0  0  0  0  0  0  0  0  0  0  0
   -1.6060   20.9250  -30.8874 H   0  0  0  0  0  0  0  0  0  0  0  0
   -0.6318   19.6535  -31.7004 H   0  0  0  0  0  0  0  0  0  0  0  0
   -0.0638   21.3577  -31.7004 H   0  0  0  0  0  0  0  0  0  0  0  0
   -2.9790   18.8730  -33.6490 N   0  0  0  0  0  0  0  0  0  0  0  0
   -4.2670   18.4880  -33.5380 C   0  0  0  0  0  0  0  0  0  0  0  0
   -4.7070   17.3180  -33.9060 N   0  0  0  0  0  0  0  0  0  0  0  0
   -3.9550   16.2950  -34.5790 C   0  0  0  0  0  0  0  0  0  0  0  0
   -4.4650   14.9910  -34.5970 C   0  0  0  0  0  0  0  0  0  0  0  0
   -5.4127   14.7678  -34.0851 H   0  0  0  0  0  0  0  0  0  0  0  0
   -3.7790   13.9730  -35.2600 C   0  0  0  0  0  0  0  0  0  0  0  0
   -4.1800   12.9487  -35.2557 H   0  0  0  0  0  0  0  0  0  0  0  0
   -2.5850   14.2500  -35.9290 C   0  0  0  0  0  0  0  0  0  0  0  0
   -2.0447   13.4398  -36.4406 H   0  0  0  0  0  0  0  0  0  0  0  0
   -2.0690   15.5570  -35.9530 C   0  0  0  0  0  0  0  0  0  0  0  0
   -0.8490   15.8450  -36.6620 N   0  0  0  0  0  0  0  0  0  0  0  0
   -0.5550   15.2220  -37.7030 O   0  0  0  0  0  0  0  0  0  0  0  0
    0.0100   16.8180  -36.2060 O   0  0  0  0  0  0  0  0  0  0  0  0
   -2.7690   16.5790  -35.2830 C   0  0  0  0  0  0  0  0  0  0  0  0
   -2.3854   17.6096  -35.3099 H   0  0  0  0  0  0  0  0  0  0  0  0
   -5.0490   19.4090  -32.9310 N   0  0  0  0  0  0  0  0  0  0  0  0
   -6.4470   19.2840  -32.6070 C   0  0  0  0  0  0  0  0  0  0  0  0
   -7.4020   20.0690  -33.2750 C   0  0  0  0  0  0  0  0  0  0  0  0
   -7.0815   20.7769  -34.0536 H   0  0  0  0  0  0  0  0  0  0  0  0
   -8.7580   19.9540  -32.9540 C   0  0  0  0  0  0  0  0  0  0  0  0
   -9.5009   20.5733  -33.4780 H   0  0  0  0  0  0  0  0  0  0  0  0
   -9.1710   19.0530  -31.9680 C   0  0  0  0  0  0  0  0  0  0  0  0
  -10.2380   18.9645  -31.7158 H   0  0  0  0  0  0  0  0  0  0  0  0
   -8.2280   18.2650  -31.3030 C   0  0  0  0  0  0  0  0  0  0  0  0
   -8.5536   17.5555  -30.5280 H   0  0  0  0  0  0  0  0  0  0  0  0
   -6.8720   18.3770  -31.6210 C   0  0  0  0  0  0  0  0  0  0  0  0
   -6.1335   17.7523  -31.0971 H   0  0  0  0  0  0  0  0  0  0  0  0
   -5.7360   22.4120  -32.5180 C   0  0  0  0  0  0  0  0  0  0  0  0
   -6.2902   22.0187  -33.3830 H   0  0  0  0  0  0  0  0  0  0  0  0
   -6.1350   23.6080  -31.9220 C   0  0  0  0  0  0  0  0  0  0  0  0
   -7.0048   24.1505  -32.3210 H   0  0  0  0  0  0  0  0  0  0  0  0
   -5.4390   24.1280  -30.8180 C   0  0  0  0  0  0  0  0  0  0  0  0
   -5.9110   25.4200  -30.2050 C   0  0  0  0  0  0  0  0  0  0  0  0
   -5.8811   25.3381  -29.1085 H   0  0  0  0  0  0  0  0  0  0  0  0
   -5.2547   26.2410  -30.5294 H   0  0  0  0  0  0  0  0  0  0  0  0
   -6.9420   25.6247  -30.5294 H   0  0  0  0  0  0  0  0  0  0  0  0
  1  2  1  0
  2  3  1  0
  3  4  2  0
  3  5  2  0
  3  6  1  0
  6  7  2  0
  7  8  1  0
  7  9  1  0
  9 10  1  0
 10 11  2  0
 11 12  1  0
 12 13  1  0
 12 14  1  0
 14 15  1  0
 14 16  1  0
 14 17  1  0
 12 18  1  0
 18 19  1  0
 18 20  1  0
 18 21  1  0
 11 22  1  0
 22 23  1  0
 23 24  2  0
 24 25  1  0
 25 26  2  0
 26 27  1  0
 26 28  1  0
 28 29  1  0
 28 30  2  0
 30 31  1  0
 30 32  1  0
 32 33  1  0
 33 34  2  0
 33 35  1  0
 32 36  2  0
 36 37  1  0
 23 38  1  0
 38 39  1  0
 39 40  2  0
 40 41  1  0
 40 42  1  0
 42 43  1  0
 42 44  2  0
 44 45  1  0
 44 46  1  0
 46 47  1  0
 46 48  2  0
 48 49  1  0
  9 50  2  0
 50 51  1  0
 50 52  1  0
 52 53  1  0
 52 54  2  0
 54 55  1  0
 55 56  1  0
 55 57  1  0
 55 58  1  0
 54  6  1  0
 38 10  1  0
 48 39  1  0
 36 25  1  0
M  CHG  4   2  -1  22  -1  33   1  35  -1
M  END
>  <UniqueID>  (38) 
36

>  <SMILES>  (38) 
Cc1ccc(-c2c(C(C)C)[n-]/c(=N\c3cccc([N+](=O)[O-])c3)n2-c2ccccc2)cc1S([NH-])(=O)=O

>  <Energy>  (38) 
105.44427863304377

>  <Genealogy>  (38) 
Cc1ccc(-c2c(C(C)C)[n-]c(=Nc3cccc([N+](=O)[O-])c3)n2-c2ccccc2)cc1S([NH-])(=O)=O (protonated)
Cc1ccc(-c2c(C(C)C)[n-]/c(=N\c3cccc([N+](=O)[O-])c3)n2-c2ccccc2)cc1S([NH-])(=O)=O (cis-trans isomerization)
Cc1ccc(-c2c(C(C)C)[n-]/c(=N\c3cccc([N+](=O)[O-])c3)n2-c2ccccc2)cc1S([NH-])(=O)=O (3D coordinates assigned)
Cc1ccc(-c2c(C(C)C)[n-]/c(=N\c3cccc([N+](=O)[O-])c3)n2-c2ccccc2)cc1S([NH-])(=O)=O (optimized conformer: 105.44427863304377 kcal/mol)

>  <smiles>  (38) 
Cc1ccc(-c2c(C(C)C)[nH]c(=Nc3cccc([N+](=O)[O-])c3)n2-c2ccccc2)cc1S(N)(=O)=O

>  <score_type>  (38) 
oracle

>  <origin>  (38) 
adgpu

>  <m_score__min__energy>  (38) 
-12.16

>  <m_primary>  (38) 
energy

$$$$
38:0
     RDKit          3D

 52 55  0  0  0  0  0  0  0  0999 V2000
   -5.9910   17.1020  -34.5870 C   0  0  0  0  0  0  0  0  0  0  0  0
   -5.2750   18.3420  -34.1370 C   0  0  0  0  0  0  0  0  0  0  0  0
   -3.8770   18.4210  -34.2230 C   0  0  0  0  0  0  0  0  0  0  0  0
   -3.2070   19.5560  -33.7620 C   0  0  0  0  0  0  0  0  0  0  0  0
   -3.9250   20.6170  -33.2030 C   0  0  0  0  0  0  0  0  0  0  0  0
   -5.3230   20.5510  -33.1070 C   0  0  0  0  0  0  0  0  0  0  0  0
   -6.0790   21.6530  -32.4740 C   0  0  0  0  0  0  0  0  0  0  0  0
   -5.3750   22.7730  -32.0030 C   0  0  0  0  0  0  0  0  0  0  0  0
   -6.0390   23.8100  -31.3260 C   0  0  0  0  0  0  0  0  0  0  0  0
   -5.2870   24.9730  -30.7980 C   0  0  0  0  0  0  0  0  0  0  0  0
   -5.8950   26.0550  -30.5800 O   0  0  0  0  0  0  0  0  0  0  0  0
   -3.8720   24.9240  -30.5710 N   0  0  0  0  0  0  0  0  0  0  0  0
   -3.1650   23.9470  -29.7910 C   0  0  0  0  0  0  0  0  0  0  0  0
   -3.6130   22.6130  -29.7290 C   0  0  0  0  0  0  0  0  0  0  0  0
   -2.8810   21.6520  -29.0290 C   0  0  0  0  0  0  0  0  0  0  0  0
   -1.7000   22.0110  -28.3780 C   0  0  0  0  0  0  0  0  0  0  0  0
   -1.2620   23.3360  -28.4040 C   0  0  0  0  0  0  0  0  0  0  0  0
   -2.0020   24.3180  -29.0770 C   0  0  0  0  0  0  0  0  0  0  0  0
   -1.5090   25.6660  -29.0650 N   0  0  0  0  0  0  0  0  0  0  0  0
   -0.8910   26.3380  -27.9580 C   0  0  0  0  0  0  0  0  0  0  0  0
   -0.7100   27.5820  -28.0340 O   0  0  0  0  0  0  0  0  0  0  0  0
   -0.4270   25.6090  -26.7530 C   0  0  0  0  0  0  0  0  0  0  0  0
   -1.2800   25.4200  -25.6500 C   0  0  0  0  0  0  0  0  0  0  0  0
   -0.8250   24.7400  -24.5150 C   0  0  0  0  0  0  0  0  0  0  0  0
    0.4760   24.2350  -24.4740 C   0  0  0  0  0  0  0  0  0  0  0  0
    1.3250   24.4030  -25.5710 C   0  0  0  0  0  0  0  0  0  0  0  0
    0.8750   25.0820  -26.7080 C   0  0  0  0  0  0  0  0  0  0  0  0
   -7.4300   23.7370  -31.1630 C   0  0  0  0  0  0  0  0  0  0  0  0
   -8.1420   22.6380  -31.6470 C   0  0  0  0  0  0  0  0  0  0  0  0
   -7.4820   21.5960  -32.3070 C   0  0  0  0  0  0  0  0  0  0  0  0
   -8.2460   20.5380  -32.8020 O   0  0  0  0  0  0  0  0  0  0  0  0
   -5.9920   19.4010  -33.5600 C   0  0  0  0  0  0  0  0  0  0  0  0
   -6.3214   16.5298  -33.7076 H   0  0  0  0  0  0  0  0  0  0  0  0
   -6.8660   17.3828  -35.1916 H   0  0  0  0  0  0  0  0  0  0  0  0
   -5.3104   16.4846  -35.1916 H   0  0  0  0  0  0  0  0  0  0  0  0
   -3.3065   17.5857  -34.6552 H   0  0  0  0  0  0  0  0  0  0  0  0
   -2.1113   19.6153  -33.8389 H   0  0  0  0  0  0  0  0  0  0  0  0
   -3.3919   21.5069  -32.8370 H   0  0  0  0  0  0  0  0  0  0  0  0
   -4.2892   22.8395  -32.1662 H   0  0  0  0  0  0  0  0  0  0  0  0
   -4.5463   22.3263  -30.2357 H   0  0  0  0  0  0  0  0  0  0  0  0
   -3.2354   20.6114  -28.9906 H   0  0  0  0  0  0  0  0  0  0  0  0
   -1.1136   21.2489  -27.8438 H   0  0  0  0  0  0  0  0  0  0  0  0
   -0.3283   23.6119  -27.8921 H   0  0  0  0  0  0  0  0  0  0  0  0
   -2.3087   25.8084  -25.6802 H   0  0  0  0  0  0  0  0  0  0  0  0
   -1.4941   24.6029  -23.6527 H   0  0  0  0  0  0  0  0  0  0  0  0
    0.8325   23.7051  -23.5784 H   0  0  0  0  0  0  0  0  0  0  0  0
    2.3484   24.0008  -25.5404 H   0  0  0  0  0  0  0  0  0  0  0  0
    1.5443   25.2043  -27.5723 H   0  0  0  0  0  0  0  0  0  0  0  0
   -7.9635   24.5510  -30.6504 H   0  0  0  0  0  0  0  0  0  0  0  0
   -9.2322   22.5910  -31.5081 H   0  0  0  0  0  0  0  0  0  0  0  0
   -8.2200   20.2450  -33.7710 H   0  0  0  0  0  0  0  0  0  0  0  0
   -7.0853   19.3307  -33.4615 H   0  0  0  0  0  0  0  0  0  0  0  0
  1  2  1  0
  2  3  2  0
  3  4  1  0
  4  5  2  0
  5  6  1  0
  6  7  1  0
  7  8  2  0
  8  9  1  0
  9 10  1  0
 10 11  2  0
 10 12  1  0
 12 13  1  0
 13 14  2  0
 14 15  1  0
 15 16  2  0
 16 17  1  0
 17 18  2  0
 18 19  1  0
 19 20  1  0
 20 21  2  0
 20 22  1  0
 22 23  2  0
 23 24  1  0
 24 25  2  0
 25 26  1  0
 26 27  2  0
  9 28  2  0
 28 29  1  0
 29 30  2  0
 30 31  1  0
  6 32  2  0
 32  2  1  0
 30  7  1  0
 18 13  1  0
 27 22  1  0
  1 33  1  0
  1 34  1  0
  1 35  1  0
  3 36  1  0
  4 37  1  0
  5 38  1  0
  8 39  1  0
 14 40  1  0
 15 41  1  0
 16 42  1  0
 17 43  1  0
 23 44  1  0
 24 45  1  0
 25 46  1  0
 26 47  1  0
 27 48  1  0
 28 49  1  0
 29 50  1  0
 31 51  1  0
 32 52  1  0
M  CHG  2  12  -1  19  -1
M  END
>  <UniqueID>  (39) 
37

>  <SMILES>  (39) 
Cc1cccc(-c2cc(C(=O)[N-]c3ccccc3[N-]C(=O)c3ccccc3)ccc2O)c1

>  <Energy>  (39) 
78.34922053686336

>  <Genealogy>  (39) 
Cc1cccc(-c2cc(C(=O)[N-]c3ccccc3[N-]C(=O)c3ccccc3)ccc2O)c1 (protonated)
Cc1cccc(-c2cc(C(=O)[N-]c3ccccc3[N-]C(=O)c3ccccc3)ccc2O)c1 (3D coordinates assigned)
Cc1cccc(-c2cc(C(=O)[N-]c3ccccc3[N-]C(=O)c3ccccc3)ccc2O)c1 (optimized conformer: 78.34922053686336 kcal/mol)

>  <smiles>  (39) 
Cc1cccc(-c2cc(C(=O)Nc3ccccc3NC(=O)c3ccccc3)ccc2O)c1

>  <score_type>  (39) 
oracle

>  <origin>  (39) 
adgpu

>  <m_score__min__energy>  (39) 
-13.31

>  <m_primary>  (39) 
energy

$$$$
39:0
     RDKit          3D

 61 64  0  0  0  0  0  0  0  0999 V2000
   -0.4430   18.5270  -27.8260 C   0  0  0  0  0  0  0  0  0  0  0  0
   -1.1020   19.8630  -28.0450 C   0  0  0  0  0  0  0  0  0  0  0  0
   -1.6970   20.5100  -26.9500 C   0  0  0  0  0  0  0  0  0  0  0  0
   -2.3220   21.7470  -27.1080 C   0  0  0  0  0  0  0  0  0  0  0  0
   -2.3810   22.3600  -28.3600 C   0  0  0  0  0  0  0  0  0  0  0  0
   -3.0000   23.6520  -28.4550 N   0  0  0  0  0  0  0  0  0  0  0  0
   -2.6680   24.7360  -29.3350 C   0  0  0  0  0  0  0  0  0  0  0  0
   -1.6270   25.4220  -29.1580 O   0  0  0  0  0  0  0  0  0  0  0  0
   -3.5110   25.0320  -30.4510 N   0  0  0  0  0  0  0  0  0  0  0  0
   -4.6590   24.2470  -30.7920 C   0  0  0  0  0  0  0  0  0  0  0  0
   -5.9150   24.6910  -30.3910 C   0  0  0  0  0  0  0  0  0  0  0  0
   -7.0490   23.9280  -30.6460 C   0  0  0  0  0  0  0  0  0  0  0  0
   -6.9560   22.7050  -31.3280 C   0  0  0  0  0  0  0  0  0  0  0  0
   -8.2200   21.9090  -31.5280 C   0  0  0  0  0  0  0  0  0  0  0  0
   -5.6860   22.2530  -31.7780 C   0  0  0  0  0  0  0  0  0  0  0  0
   -5.5030   20.7390  -32.7080 S   0  0  0  0  0  0  0  0  0  0  0  0
   -4.1920   20.7260  -33.4430 O   0  0  0  0  0  0  0  0  0  0  0  0
   -6.5850   20.6600  -33.7480 O   0  0  0  0  0  0  0  0  0  0  0  0
   -5.5930   19.2590  -31.6800 C   0  0  0  0  0  0  0  0  0  0  0  0
   -6.9710   18.6130  -31.5820 C   0  0  0  0  0  0  0  0  0  0  0  0
   -6.4310   17.3600  -32.2550 C   0  0  0  0  0  0  0  0  0  0  0  0
   -5.0580   18.0060  -32.3600 C   0  0  0  0  0  0  0  0  0  0  0  0
   -4.5420   23.0440  -31.5200 C   0  0  0  0  0  0  0  0  0  0  0  0
   -3.3010   22.6390  -32.0150 O   0  0  0  0  0  0  0  0  0  0  0  0
   -1.7840   21.7250  -29.4620 C   0  0  0  0  0  0  0  0  0  0  0  0
   -1.1720   20.4680  -29.3240 C   0  0  0  0  0  0  0  0  0  0  0  0
   -0.4510   19.7140  -30.7580 S   0  0  0  0  0  0  0  0  0  0  0  0
   -0.6070   18.2190  -30.6790 O   0  0  0  0  0  0  0  0  0  0  0  0
    1.0180   20.0300  -30.8120 O   0  0  0  0  0  0  0  0  0  0  0  0
   -1.2430   20.3320  -32.1870 N   0  0  0  0  0  0  0  0  0  0  0  0
   -0.3670   21.2230  -32.9390 C   0  0  0  0  0  0  0  0  0  0  0  0
   -0.8070   21.1460  -34.3920 C   0  0  0  0  0  0  0  0  0  0  0  0
   -1.5840   19.8500  -34.5060 C   0  0  0  0  0  0  0  0  0  0  0  0
   -1.5880   19.2520  -33.1070 C   0  0  0  0  0  0  0  0  0  0  0  0
   -0.3493   18.3369  -26.7466 H   0  0  0  0  0  0  0  0  0  0  0  0
   -1.0546   17.7367  -28.2857 H   0  0  0  0  0  0  0  0  0  0  0  0
    0.5563   18.5313  -28.2857 H   0  0  0  0  0  0  0  0  0  0  0  0
   -1.6700   20.0365  -25.9575 H   0  0  0  0  0  0  0  0  0  0  0  0
   -2.7730   22.2443  -26.2366 H   0  0  0  0  0  0  0  0  0  0  0  0
   -6.0117   25.6538  -29.8678 H   0  0  0  0  0  0  0  0  0  0  0  0
   -8.0322   24.2878  -30.3087 H   0  0  0  0  0  0  0  0  0  0  0  0
   -8.6440   21.6420  -30.5487 H   0  0  0  0  0  0  0  0  0  0  0  0
   -8.9479   22.5120  -32.0906 H   0  0  0  0  0  0  0  0  0  0  0  0
   -7.9907   20.9920  -32.0906 H   0  0  0  0  0  0  0  0  0  0  0  0
   -5.1157   19.6639  -30.7754 H   0  0  0  0  0  0  0  0  0  0  0  0
   -7.3203   18.4541  -30.5511 H   0  0  0  0  0  0  0  0  0  0  0  0
   -7.8562   19.1252  -31.9870 H   0  0  0  0  0  0  0  0  0  0  0  0
   -6.4573   16.4624  -31.6196 H   0  0  0  0  0  0  0  0  0  0  0  0
   -6.9241   16.9530  -33.1501 H   0  0  0  0  0  0  0  0  0  0  0  0
   -4.2731   17.4868  -31.7906 H   0  0  0  0  0  0  0  0  0  0  0  0
   -4.5492   18.0755  -33.3328 H   0  0  0  0  0  0  0  0  0  0  0  0
   -2.9640   21.6880  -31.9580 H   0  0  0  0  0  0  0  0  0  0  0  0
   -1.7959   22.2183  -30.4451 H   0  0  0  0  0  0  0  0  0  0  0  0
   -0.4655   22.2536  -32.5674 H   0  0  0  0  0  0  0  0  0  0  0  0
    0.6867   20.9269  -32.8289 H   0  0  0  0  0  0  0  0  0  0  0  0
   -1.4477   22.0031  -34.6465 H   0  0  0  0  0  0  0  0  0  0  0  0
    0.0493   21.1730  -35.0819 H   0  0  0  0  0  0  0  0  0  0  0  0
   -2.6126   20.0471  -34.8424 H   0  0  0  0  0  0  0  0  0  0  0  0
   -1.1314   19.1668  -35.2398 H   0  0  0  0  0  0  0  0  0  0  0  0
   -2.5853   18.8545  -32.8677 H   0  0  0  0  0  0  0  0  0  0  0  0
   -0.8698   18.4224  -33.0297 H   0  0  0  0  0  0  0  0  0  0  0  0
  1  2  1  0
  2  3  2  0
  3  4  1  0
  4  5  2  0
  5  6  1  0
  6  7  1  0
  7  8  2  0
  7  9  1  0
  9 10  1  0
 10 11  2  0
 11 12  1  0
 12 13  2  0
 13 14  1  0
 13 15  1  0
 15 16  1  0
 16 17  2  0
 16 18  2  0
 16 19  1  0
 19 20  1  0
 20 21  1  0
 21 22  1  0
 15 23  2  0
 23 24  1  0
  5 25  1  0
 25 26  2  0
 26 27  1  0
 27 28  2  0
 27 29  2  0
 27 30  1  0
 30 31  1  0
 31 32  1  0
 32 33  1  0
 33 34  1  0
 26  2  1  0
 34 30  1  0
 23 10  1  0
 22 19  1  0
  1 35  1  0
  1 36  1  0
  1 37  1  0
  3 38  1  0
  4 39  1  0
 11 40  1  0
 12 41  1  0
 14 42  1  0
 14 43  1  0
 14 44  1  0
 19 45  1  0
 20 46  1  0
 20 47  1  0
 21 48  1  0
 21 49  1  0
 22 50  1  0
 22 51  1  0
 24 52  1  0
 25 53  1  0
 31 54  1  0
 31 55  1  0
 32 56  1  0
 32 57  1  0
 33 58  1  0
 33 59  1  0
 34 60  1  0
 34 61  1  0
M  CHG  2   6  -1   9  -1
M  END
>  <UniqueID>  (40) 
38

>  <SMILES>  (40) 
Cc1ccc([N-]C(=O)[N-]c2ccc(C)c(S(=O)(=O)C3CCC3)c2O)cc1S(=O)(=O)N1CCCC1

>  <Energy>  (40) 
137.21572416581583

>  <Genealogy>  (40) 
Cc1ccc([N-]C(=O)[N-]c2ccc(C)c(S(=O)(=O)C3CCC3)c2O)cc1S(=O)(=O)N1CCCC1 (protonated)
Cc1ccc([N-]C(=O)[N-]c2ccc(C)c(S(=O)(=O)C3CCC3)c2O)cc1S(=O)(=O)N1CCCC1 (3D coordinates assigned)
Cc1ccc([N-]C(=O)[N-]c2ccc(C)c(S(=O)(=O)C3CCC3)c2O)cc1S(=O)(=O)N1CCCC1 (nonaromatic ring conformer: 137.21572416581583 kcal/mol)

>  <smiles>  (40) 
Cc1ccc(NC(=O)Nc2ccc(C)c(S(=O)(=O)C3CCC3)c2O)cc1S(=O)(=O)N1CCCC1

>  <score_type>  (40) 
oracle

>  <origin>  (40) 
adgpu

>  <m_score__min__energy>  (40) 
-15.140000000000001

>  <m_primary>  (40) 
energy

$$$$
40:0
     RDKit          3D

 34 35  0  0  0  0  0  0  0  0999 V2000
   -1.1450   25.0910  -26.7110 C   0  0  0  0  0  0  0  0  0  0  0  0
   -1.9210   24.9500  -27.9790 C   0  0  0  0  0  0  0  0  0  0  0  0
   -1.6270   25.6760  -28.9680 O   0  0  0  0  0  0  0  0  0  0  0  0
   -2.9270   23.9320  -28.0920 N   0  0  0  0  0  0  0  0  0  0  0  0
   -3.8500   23.8270  -29.1910 C   0  0  0  0  0  0  0  0  0  0  0  0
   -4.9960   24.6350  -29.2680 C   0  0  0  0  0  0  0  0  0  0  0  0
   -5.8880   24.4970  -30.3350 C   0  0  0  0  0  0  0  0  0  0  0  0
   -5.6600   23.5430  -31.3390 C   0  0  0  0  0  0  0  0  0  0  0  0
   -6.5970   23.4320  -32.4280 N   0  0  0  0  0  0  0  0  0  0  0  0
   -7.9360   22.8510  -32.3120 C   0  0  0  0  0  0  0  0  0  0  0  0
   -7.8660   21.3470  -32.3330 C   0  0  0  0  0  0  0  0  0  0  0  0
   -6.8270   20.6890  -33.0140 C   0  0  0  0  0  0  0  0  0  0  0  0
   -6.7660   19.2920  -33.0240 C   0  0  0  0  0  0  0  0  0  0  0  0
   -7.7330   18.5420  -32.3500 C   0  0  0  0  0  0  0  0  0  0  0  0
   -7.6710   17.1880  -32.3610 F   0  0  0  0  0  0  0  0  0  0  0  0
   -8.7630   19.1890  -31.6590 C   0  0  0  0  0  0  0  0  0  0  0  0
   -8.8280   20.5860  -31.6470 C   0  0  0  0  0  0  0  0  0  0  0  0
   -4.5270   22.7140  -31.2440 C   0  0  0  0  0  0  0  0  0  0  0  0
   -3.6360   22.8530  -30.1760 C   0  0  0  0  0  0  0  0  0  0  0  0
   -1.8209   24.9682  -25.8519 H   0  0  0  0  0  0  0  0  0  0  0  0
   -0.3607   24.3207  -26.6735 H   0  0  0  0  0  0  0  0  0  0  0  0
   -0.6818   26.0880  -26.6735 H   0  0  0  0  0  0  0  0  0  0  0  0
   -2.9320   23.1740  -27.3710 H   0  0  0  0  0  0  0  0  0  0  0  0
   -5.1927   25.3809  -28.4839 H   0  0  0  0  0  0  0  0  0  0  0  0
   -6.7773   25.1422  -30.3885 H   0  0  0  0  0  0  0  0  0  0  0  0
   -6.2960   23.7460  -33.3790 H   0  0  0  0  0  0  0  0  0  0  0  0
   -8.3911   23.1783  -31.3656 H   0  0  0  0  0  0  0  0  0  0  0  0
   -8.5438   23.1892  -33.1642 H   0  0  0  0  0  0  0  0  0  0  0  0
   -6.0594   21.2750  -33.5407 H   0  0  0  0  0  0  0  0  0  0  0  0
   -5.9545   18.7822  -33.5640 H   0  0  0  0  0  0  0  0  0  0  0  0
   -9.5221   18.5987  -31.1249 H   0  0  0  0  0  0  0  0  0  0  0  0
   -9.6360   21.0916  -31.0979 H   0  0  0  0  0  0  0  0  0  0  0  0
   -4.3413   21.9518  -32.0150 H   0  0  0  0  0  0  0  0  0  0  0  0
   -2.7592   22.1922  -30.1079 H   0  0  0  0  0  0  0  0  0  0  0  0
  1  2  1  0
  2  3  2  0
  2  4  1  0
  4  5  1  0
  5  6  2  0
  6  7  1  0
  7  8  2  0
  8  9  1  0
  9 10  1  0
 10 11  1  0
 11 12  2  0
 12 13  1  0
 13 14  2  0
 14 15  1  0
 14 16  1  0
 16 17  2  0
  8 18  1  0
 18 19  2  0
 19  5  1  0
 17 11  1  0
  1 20  1  0
  1 21  1  0
  1 22  1  0
  4 23  1  0
  6 24  1  0
  7 25  1  0
  9 26  1  0
 10 27  1  0
 10 28  1  0
 12 29  1  0
 13 30  1  0
 16 31  1  0
 17 32  1  0
 18 33  1  0
 19 34  1  0
M  END
>  <UniqueID>  (41) 
39

>  <SMILES>  (41) 
CC(=O)Nc1ccc(NCc2ccc(F)cc2)cc1

>  <Energy>  (41) 
35.11002400731754

>  <Genealogy>  (41) 
CC(=O)Nc1ccc(NCc2ccc(F)cc2)cc1 (3D coordinates assigned)
CC(=O)Nc1ccc(NCc2ccc(F)cc2)cc1 (optimized conformer: 35.11002400731754 kcal/mol)

>  <smiles>  (41) 
CC(=O)Nc1ccc(NCc2ccc(F)cc2)cc1

>  <score_type>  (41) 
oracle

>  <origin>  (41) 
adgpu

>  <m_score__min__energy>  (41) 
-7.9199999999999999

>  <m_primary>  (41) 
energy

$$$$
41:0
     RDKit          3D

 56 61  0  0  0  0  0  0  0  0999 V2000
   -3.0020   17.3610  -34.4560 C   0  0  0  0  0  0  0  0  0  0  0  0
   -4.3970   17.1080  -34.0620 N   0  0  0  0  0  0  0  0  0  0  0  0
   -5.3480   17.7730  -34.9890 C   0  0  0  0  0  0  0  0  0  0  0  0
   -5.9170   19.0840  -34.4290 C   0  0  0  0  0  0  0  0  0  0  0  0
   -6.5420   18.8480  -33.1220 N   0  0  0  0  0  0  0  0  0  0  0  0
   -7.5510   19.7540  -32.6250 C   0  0  0  0  0  0  0  0  0  0  0  0
   -8.9300   19.4880  -32.8090 C   0  0  0  0  0  0  0  0  0  0  0  0
   -9.9090   20.3960  -32.3500 C   0  0  0  0  0  0  0  0  0  0  0  0
   -9.5320   21.5810  -31.6930 C   0  0  0  0  0  0  0  0  0  0  0  0
   -8.1720   21.8110  -31.5110 C   0  0  0  0  0  0  0  0  0  0  0  0
   -7.5860   22.8640  -30.9300 N   0  0  0  0  0  0  0  0  0  0  0  0
   -6.2600   22.5920  -31.0300 C   0  0  0  0  0  0  0  0  0  0  0  0
   -5.1930   23.5070  -30.5860 C   0  0  0  0  0  0  0  0  0  0  0  0
   -5.2000   24.8890  -30.7480 C   0  0  0  0  0  0  0  0  0  0  0  0
   -4.1060   25.4400  -30.1760 N   0  0  0  0  0  0  0  0  0  0  0  0
   -3.4000   24.4190  -29.6630 C   0  0  0  0  0  0  0  0  0  0  0  0
   -2.1870   24.4950  -28.9860 C   0  0  0  0  0  0  0  0  0  0  0  0
   -1.5950   23.2970  -28.5520 C   0  0  0  0  0  0  0  0  0  0  0  0
   -2.2100   22.0440  -28.8160 C   0  0  0  0  0  0  0  0  0  0  0  0
   -1.5670   20.7820  -28.3640 C   0  0  0  0  0  0  0  0  0  0  0  0
   -1.9860   20.1500  -27.1760 C   0  0  0  0  0  0  0  0  0  0  0  0
   -1.3740   18.9680  -26.7470 C   0  0  0  0  0  0  0  0  0  0  0  0
   -0.3360   18.4050  -27.4920 C   0  0  0  0  0  0  0  0  0  0  0  0
    0.0890   19.0200  -28.6730 C   0  0  0  0  0  0  0  0  0  0  0  0
   -0.5230   20.2000  -29.1100 C   0  0  0  0  0  0  0  0  0  0  0  0
   -3.4430   22.0090  -29.5120 C   0  0  0  0  0  0  0  0  0  0  0  0
   -4.0230   23.2180  -29.8980 C   0  0  0  0  0  0  0  0  0  0  0  0
   -5.9940   21.4200  -31.6640 N   0  0  0  0  0  0  0  0  0  0  0  0
   -7.2190   20.9430  -31.9560 C   0  0  0  0  0  0  0  0  0  0  0  0
   -6.0610   17.7320  -32.2960 C   0  0  0  0  0  0  0  0  0  0  0  0
   -4.5960   17.4330  -32.6280 C   0  0  0  0  0  0  0  0  0  0  0  0
   -2.3812   17.4736  -33.5550 H   0  0  0  0  0  0  0  0  0  0  0  0
   -2.6307   16.5155  -35.0538 H   0  0  0  0  0  0  0  0  0  0  0  0
   -2.9513   18.2830  -35.0538 H   0  0  0  0  0  0  0  0  0  0  0  0
   -4.8234   17.9929  -35.9305 H   0  0  0  0  0  0  0  0  0  0  0  0
   -6.1938   17.0861  -35.1398 H   0  0  0  0  0  0  0  0  0  0  0  0
   -5.1024   19.8145  -34.3156 H   0  0  0  0  0  0  0  0  0  0  0  0
   -6.6755   19.4722  -35.1247 H   0  0  0  0  0  0  0  0  0  0  0  0
   -9.2420   18.5628  -33.3156 H   0  0  0  0  0  0  0  0  0  0  0  0
  -10.9750   20.1748  -32.5075 H   0  0  0  0  0  0  0  0  0  0  0  0
  -10.2847   22.2995  -31.3362 H   0  0  0  0  0  0  0  0  0  0  0  0
   -8.0510   23.7190  -30.5560 H   0  0  0  0  0  0  0  0  0  0  0  0
   -5.9865   25.4546  -31.2691 H   0  0  0  0  0  0  0  0  0  0  0  0
   -3.8610   26.4550  -30.1430 H   0  0  0  0  0  0  0  0  0  0  0  0
   -1.7051   25.4654  -28.7959 H   0  0  0  0  0  0  0  0  0  0  0  0
   -0.6435   23.3297  -28.0010 H   0  0  0  0  0  0  0  0  0  0  0  0
   -2.8005   20.5898  -26.5818 H   0  0  0  0  0  0  0  0  0  0  0  0
   -1.7112   18.4806  -25.8203 H   0  0  0  0  0  0  0  0  0  0  0  0
    0.1471   17.4779  -27.1497 H   0  0  0  0  0  0  0  0  0  0  0  0
    0.9062   18.5755  -29.2601 H   0  0  0  0  0  0  0  0  0  0  0  0
   -0.1867   20.6766  -30.0426 H   0  0  0  0  0  0  0  0  0  0  0  0
   -3.9320   21.0511  -29.7429 H   0  0  0  0  0  0  0  0  0  0  0  0
   -6.1467   18.0014  -31.2329 H   0  0  0  0  0  0  0  0  0  0  0  0
   -6.6693   16.8392  -32.5029 H   0  0  0  0  0  0  0  0  0  0  0  0
   -3.9896   18.3162  -32.3783 H   0  0  0  0  0  0  0  0  0  0  0  0
   -4.2906   16.5555  -32.0392 H   0  0  0  0  0  0  0  0  0  0  0  0
  1  2  1  0
  2  3  1  0
  3  4  1  0
  4  5  1  0
  5  6  1  0
  6  7  2  0
  7  8  1  0
  8  9  2  0
  9 10  1  0
 10 11  1  0
 11 12  1  0
 12 13  1  0
 13 14  2  0
 14 15  1  0
 15 16  1  0
 16 17  2  0
 17 18  1  0
 18 19  2  0
 19 20  1  0
 20 21  2  0
 21 22  1  0
 22 23  2  0
 23 24  1  0
 24 25  2  0
 19 26  1  0
 26 27  2  0
 12 28  2  0
 28 29  1  0
  5 30  1  0
 30 31  1  0
 31  2  1  0
 29  6  1  0
 29 10  2  0
 27 13  1  0
 27 16  1  0
 25 20  1  0
  1 32  1  0
  1 33  1  0
  1 34  1  0
  3 35  1  0
  3 36  1  0
  4 37  1  0
  4 38  1  0
  7 39  1  0
  8 40  1  0
  9 41  1  0
 11 42  1  0
 14 43  1  0
 15 44  1  0
 17 45  1  0
 18 46  1  0
 21 47  1  0
 22 48  1  0
 23 49  1  0
 24 50  1  0
 25 51  1  0
 26 52  1  0
 30 53  1  0
 30 54  1  0
 31 55  1  0
 31 56  1  0
M  END
>  <UniqueID>  (42) 
40

>  <SMILES>  (42) 
CN1CCN(c2cccc3[nH]c(-c4c[nH]c5ccc(-c6ccccc6)cc45)nc23)CC1

>  <Energy>  (42) 
149.82095290105627

>  <Genealogy>  (42) 
CN1CCN(c2cccc3[nH]c(-c4c[nH]c5ccc(-c6ccccc6)cc45)nc23)CC1 (3D coordinates assigned)
CN1CCN(c2cccc3[nH]c(-c4c[nH]c5ccc(-c6ccccc6)cc45)nc23)CC1 (nonaromatic ring conformer: 149.82095290105627 kcal/mol)

>  <smiles>  (42) 
CN1CCN(c2cccc3[nH]c(-c4c[nH]c5ccc(-c6ccccc6)cc45)nc23)CC1

>  <score_type>  (42) 
oracle

>  <origin>  (42) 
adgpu

>  <m_score__min__energy>  (42) 
-11

>  <m_primary>  (42) 
energy

$$$$
42:0
     RDKit          3D

 47 49  0  0  0  0  0  0  0  0999 V2000
   -0.5400   27.0540  -24.0720 C   0  0  0  0  0  0  0  0  0  0  0  0
   -0.8890   26.4720  -25.4090 C   0  0  0  0  0  0  0  0  0  0  0  0
   -0.4720   27.1080  -26.5880 C   0  0  0  0  0  0  0  0  0  0  0  0
   -0.8290   26.5860  -27.8350 C   0  0  0  0  0  0  0  0  0  0  0  0
   -1.6060   25.4220  -27.9230 C   0  0  0  0  0  0  0  0  0  0  0  0
   -1.9810   24.9200  -29.2170 N   0  0  0  0  0  0  0  0  0  0  0  0
   -3.1450   24.1160  -29.4650 C   0  0  0  0  0  0  0  0  0  0  0  0
   -3.6060   22.9820  -28.3640 S   0  0  0  0  0  0  0  0  0  0  0  0
   -3.6890   24.0820  -30.7930 N   0  0  0  0  0  0  0  0  0  0  0  0
   -5.0150   23.6250  -31.0940 C   0  0  0  0  0  0  0  0  0  0  0  0
   -6.1870   24.0840  -30.5280 C   0  0  0  0  0  0  0  0  0  0  0  0
   -6.3150   25.1790  -29.5200 C   0  0  0  0  0  0  0  0  0  0  0  0
   -7.2300   23.4110  -31.0520 N   0  0  0  0  0  0  0  0  0  0  0  0
   -6.7470   22.5220  -31.9120 N   0  0  0  0  0  0  0  0  0  0  0  0
   -7.6020   21.6450  -32.7100 C   0  0  0  0  0  0  0  0  0  0  0  0
   -7.0680   20.2390  -32.6890 C   0  0  0  0  0  0  0  0  0  0  0  0
   -6.4920   19.6880  -33.8450 C   0  0  0  0  0  0  0  0  0  0  0  0
   -5.9700   18.3910  -33.8240 C   0  0  0  0  0  0  0  0  0  0  0  0
   -6.0170   17.6370  -32.6490 C   0  0  0  0  0  0  0  0  0  0  0  0
   -6.5870   18.1780  -31.4930 C   0  0  0  0  0  0  0  0  0  0  0  0
   -7.1110   19.4750  -31.5110 C   0  0  0  0  0  0  0  0  0  0  0  0
   -5.3980   22.6090  -31.9550 C   0  0  0  0  0  0  0  0  0  0  0  0
   -4.4990   21.7440  -32.7890 C   0  0  0  0  0  0  0  0  0  0  0  0
   -2.0570   24.8090  -26.7400 C   0  0  0  0  0  0  0  0  0  0  0  0
   -1.7000   25.3310  -25.4930 C   0  0  0  0  0  0  0  0  0  0  0  0
   -0.9303   26.4032  -23.2757 H   0  0  0  0  0  0  0  0  0  0  0  0
    0.5534   27.1310  -23.9797 H   0  0  0  0  0  0  0  0  0  0  0  0
   -0.9871   28.0548  -23.9797 H   0  0  0  0  0  0  0  0  0  0  0  0
    0.1385   28.0213  -26.5311 H   0  0  0  0  0  0  0  0  0  0  0  0
   -0.4979   27.0922  -28.7538 H   0  0  0  0  0  0  0  0  0  0  0  0
   -1.3760   25.1640  -30.0330 H   0  0  0  0  0  0  0  0  0  0  0  0
   -3.0690   24.3440  -31.5900 H   0  0  0  0  0  0  0  0  0  0  0  0
   -6.2652   24.7527  -28.5072 H   0  0  0  0  0  0  0  0  0  0  0  0
   -5.4950   25.8996  -29.6553 H   0  0  0  0  0  0  0  0  0  0  0  0
   -7.2791   25.6910  -29.6553 H   0  0  0  0  0  0  0  0  0  0  0  0
   -8.6201   21.6532  -32.2937 H   0  0  0  0  0  0  0  0  0  0  0  0
   -7.6179   22.0073  -33.7485 H   0  0  0  0  0  0  0  0  0  0  0  0
   -6.4512   20.2795  -34.7715 H   0  0  0  0  0  0  0  0  0  0  0  0
   -5.5220   17.9641  -34.7334 H   0  0  0  0  0  0  0  0  0  0  0  0
   -5.6053   16.6171  -32.6334 H   0  0  0  0  0  0  0  0  0  0  0  0
   -6.6236   17.5834  -30.5683 H   0  0  0  0  0  0  0  0  0  0  0  0
   -7.5583   19.8981  -30.5994 H   0  0  0  0  0  0  0  0  0  0  0  0
   -3.8640   21.1330  -32.1306 H   0  0  0  0  0  0  0  0  0  0  0  0
   -5.1097   21.0853  -33.4239 H   0  0  0  0  0  0  0  0  0  0  0  0
   -3.8643   22.3797  -33.4239 H   0  0  0  0  0  0  0  0  0  0  0  0
   -2.6941   23.9140  -26.7963 H   0  0  0  0  0  0  0  0  0  0  0  0
   -2.0570   24.8443  -24.5734 H   0  0  0  0  0  0  0  0  0  0  0  0
  1  2  1  0
  2  3  2  0
  3  4  1  0
  4  5  2  0
  5  6  1  0
  6  7  1  0
  7  8  2  0
  7  9  1  0
  9 10  1  0
 10 11  1  0
 11 12  1  0
 11 13  2  0
 13 14  1  0
 14 15  1  0
 15 16  1  0
 16 17  2  0
 17 18  1  0
 18 19  2  0
 19 20  1  0
 20 21  2  0
 14 22  1  0
 22 23  1  0
  5 24  1  0
 24 25  2  0
 25  2  1  0
 22 10  2  0
 21 16  1  0
  1 26  1  0
  1 27  1  0
  1 28  1  0
  3 29  1  0
  4 30  1  0
  6 31  1  0
  9 32  1  0
 12 33  1  0
 12 34  1  0
 12 35  1  0
 15 36  1  0
 15 37  1  0
 17 38  1  0
 18 39  1  0
 19 40  1  0
 20 41  1  0
 21 42  1  0
 23 43  1  0
 23 44  1  0
 23 45  1  0
 24 46  1  0
 25 47  1  0
M  END
>  <UniqueID>  (43) 
41

>  <SMILES>  (43) 
Cc1ccc(NC(=S)Nc2c(C)nn(Cc3ccccc3)c2C)cc1

>  <Energy>  (43) 
85.78641786212103

>  <Genealogy>  (43) 
Cc1ccc(NC(=S)Nc2c(C)nn(Cc3ccccc3)c2C)cc1 (3D coordinates assigned)
Cc1ccc(NC(=S)Nc2c(C)nn(Cc3ccccc3)c2C)cc1 (optimized conformer: 85.78641786212103 kcal/mol)

>  <smiles>  (43) 
Cc1ccc(NC(=S)Nc2c(C)nn(Cc3ccccc3)c2C)cc1

>  <score_type>  (43) 
oracle

>  <origin>  (43) 
adgpu

>  <m_score__min__energy>  (43) 
-9.3499999999999996

>  <m_primary>  (43) 
energy

$$$$
43:0
     RDKit          3D

 61 64  0  0  0  0  0  0  0  0999 V2000
   -4.5990   24.1460  -28.3430 C   0  0  0  0  0  0  0  0  0  0  0  0
   -5.1490   24.7420  -29.9250 S   0  0  0  0  0  0  0  0  0  0  0  0
   -3.9650   24.8940  -30.8360 O   0  0  0  0  0  0  0  0  0  0  0  0
   -5.8060   26.0830  -29.7600 O   0  0  0  0  0  0  0  0  0  0  0  0
   -6.3000   23.6020  -30.6160 C   0  0  0  0  0  0  0  0  0  0  0  0
   -7.1100   22.8160  -29.7830 C   0  0  0  0  0  0  0  0  0  0  0  0
   -8.0270   21.9190  -30.3370 C   0  0  0  0  0  0  0  0  0  0  0  0
   -8.1470   21.7950  -31.7320 C   0  0  0  0  0  0  0  0  0  0  0  0
   -9.1340   20.8190  -32.3230 C   0  0  0  0  0  0  0  0  0  0  0  0
   -8.7150   19.3880  -32.0880 C   0  0  0  0  0  0  0  0  0  0  0  0
   -9.3450   18.6940  -31.2480 O   0  0  0  0  0  0  0  0  0  0  0  0
   -7.7350   18.7420  -32.9140 N   0  0  0  0  0  0  0  0  0  0  0  0
   -6.3420   19.0640  -32.9850 C   0  0  0  0  0  0  0  0  0  0  0  0
   -5.8670   20.1040  -33.7950 C   0  0  0  0  0  0  0  0  0  0  0  0
   -4.5040   20.4050  -33.8170 C   0  0  0  0  0  0  0  0  0  0  0  0
   -3.6310   19.6790  -33.0000 C   0  0  0  0  0  0  0  0  0  0  0  0
   -1.9110   20.0230  -33.0120 S   0  0  0  0  0  0  0  0  0  0  0  0
   -1.1410   18.7320  -33.0410 O   0  0  0  0  0  0  0  0  0  0  0  0
   -1.5580   20.8100  -34.2420 O   0  0  0  0  0  0  0  0  0  0  0  0
   -1.4940   20.9570  -31.5810 C   0  0  0  0  0  0  0  0  0  0  0  0
   -2.1750   22.1490  -31.3020 C   0  0  0  0  0  0  0  0  0  0  0  0
   -1.8530   22.8950  -30.1640 C   0  0  0  0  0  0  0  0  0  0  0  0
   -0.8570   22.4440  -29.2780 C   0  0  0  0  0  0  0  0  0  0  0  0
   -0.4870   23.2070  -28.1170 N   0  0  0  0  0  0  0  0  0  0  0  0
   -0.5060   24.6400  -28.0530 C   0  0  0  0  0  0  0  0  0  0  0  0
   -0.9820   25.3160  -29.0030 O   0  0  0  0  0  0  0  0  0  0  0  0
    0.0370   25.2930  -26.8970 N   0  0  0  0  0  0  0  0  0  0  0  0
   -0.2760   26.6150  -26.4390 C   0  0  0  0  0  0  0  0  0  0  0  0
   -0.2130   27.6760  -27.3520 C   0  0  0  0  0  0  0  0  0  0  0  0
   -0.4940   28.9830  -26.9390 C   0  0  0  0  0  0  0  0  0  0  0  0
   -0.8240   29.2410  -25.6050 C   0  0  0  0  0  0  0  0  0  0  0  0
   -1.1740   30.8790  -25.0860 Cl  0  0  0  0  0  0  0  0  0  0  0  0
   -0.8650   28.1920  -24.6810 C   0  0  0  0  0  0  0  0  0  0  0  0
   -0.5870   26.8830  -25.0910 C   0  0  0  0  0  0  0  0  0  0  0  0
   -0.1700   21.2560  -29.5690 C   0  0  0  0  0  0  0  0  0  0  0  0
   -0.4930   20.5110  -30.7060 C   0  0  0  0  0  0  0  0  0  0  0  0
   -4.1150   18.6950  -32.1960 N   0  0  0  0  0  0  0  0  0  0  0  0
   -5.4380   18.3820  -32.1640 C   0  0  0  0  0  0  0  0  0  0  0  0
   -7.3440   22.5960  -32.5640 C   0  0  0  0  0  0  0  0  0  0  0  0
   -6.4280   23.4930  -32.0070 C   0  0  0  0  0  0  0  0  0  0  0  0
   -5.1114   24.7013  -27.5436 H   0  0  0  0  0  0  0  0  0  0  0  0
   -4.8327   23.0749  -28.2533 H   0  0  0  0  0  0  0  0  0  0  0  0
   -3.5126   24.2931  -28.2533 H   0  0  0  0  0  0  0  0  0  0  0  0
   -7.0230   22.9061  -28.6902 H   0  0  0  0  0  0  0  0  0  0  0  0
   -8.6589   21.3061  -29.6774 H   0  0  0  0  0  0  0  0  0  0  0  0
  -10.1180   20.9828  -31.8595 H   0  0  0  0  0  0  0  0  0  0  0  0
   -9.1757   20.9896  -33.4089 H   0  0  0  0  0  0  0  0  0  0  0  0
   -6.5682   20.6834  -34.4136 H   0  0  0  0  0  0  0  0  0  0  0  0
   -4.1210   21.2037  -34.4692 H   0  0  0  0  0  0  0  0  0  0  0  0
   -2.9663   22.4996  -31.9809 H   0  0  0  0  0  0  0  0  0  0  0  0
   -2.3805   23.8385  -29.9604 H   0  0  0  0  0  0  0  0  0  0  0  0
   -0.2850   22.6900  -27.2300 H   0  0  0  0  0  0  0  0  0  0  0  0
    0.0590   27.4803  -28.3997 H   0  0  0  0  0  0  0  0  0  0  0  0
   -0.4552   29.8087  -27.6648 H   0  0  0  0  0  0  0  0  0  0  0  0
   -1.1163   28.3962  -23.6297 H   0  0  0  0  0  0  0  0  0  0  0  0
   -0.6113   26.0618  -24.3595 H   0  0  0  0  0  0  0  0  0  0  0  0
    0.6287   20.9085  -28.8972 H   0  0  0  0  0  0  0  0  0  0  0  0
    0.0396   19.5716  -30.9155 H   0  0  0  0  0  0  0  0  0  0  0  0
   -5.7982   17.5903  -31.4906 H   0  0  0  0  0  0  0  0  0  0  0  0
   -7.4372   22.5162  -33.6571 H   0  0  0  0  0  0  0  0  0  0  0  0
   -5.8043   24.1167  -32.6643 H   0  0  0  0  0  0  0  0  0  0  0  0
  1  2  1  0
  2  3  2  0
  2  4  2  0
  2  5  1  0
  5  6  2  0
  6  7  1  0
  7  8  2  0
  8  9  1  0
  9 10  1  0
 10 11  2  0
 10 12  1  0
 12 13  1  0
 13 14  2  0
 14 15  1  0
 15 16  2  0
 16 17  1  0
 17 18  2  0
 17 19  2  0
 17 20  1  0
 20 21  2  0
 21 22  1  0
 22 23  2  0
 23 24  1  0
 24 25  1  0
 25 26  2  0
 25 27  1  0
 27 28  1  0
 28 29  2  0
 29 30  1  0
 30 31  2  0
 31 32  1  0
 31 33  1  0
 33 34  2  0
 23 35  1  0
 35 36  2  0
 16 37  1  0
 37 38  2  0
  8 39  1  0
 39 40  2  0
 40  5  1  0
 38 13  1  0
 36 20  1  0
 34 28  1  0
  1 41  1  0
  1 42  1  0
  1 43  1  0
  6 44  1  0
  7 45  1  0
  9 46  1  0
  9 47  1  0
 14 48  1  0
 15 49  1  0
 21 50  1  0
 22 51  1  0
 24 52  1  0
 29 53  1  0
 30 54  1  0
 33 55  1  0
 34 56  1  0
 35 57  1  0
 36 58  1  0
 38 59  1  0
 39 60  1  0
 40 61  1  0
M  CHG  2  12  -1  27  -1
M  END
>  <UniqueID>  (44) 
42

>  <SMILES>  (44) 
CS(=O)(=O)c1ccc(CC(=O)[N-]c2ccc(S(=O)(=O)c3ccc(NC(=O)[N-]c4ccc(Cl)cc4)cc3)nc2)cc1

>  <Energy>  (44) 
76.80662130152749

>  <Genealogy>  (44) 
CS(=O)(=O)c1ccc(CC(=O)[N-]c2ccc(S(=O)(=O)c3ccc(NC(=O)[N-]c4ccc(Cl)cc4)cc3)nc2)cc1 (protonated)
CS(=O)(=O)c1ccc(CC(=O)[N-]c2ccc(S(=O)(=O)c3ccc(NC(=O)[N-]c4ccc(Cl)cc4)cc3)nc2)cc1 (3D coordinates assigned)
CS(=O)(=O)c1ccc(CC(=O)[N-]c2ccc(S(=O)(=O)c3ccc(NC(=O)[N-]c4ccc(Cl)cc4)cc3)nc2)cc1 (optimized conformer: 76.80662130152749 kcal/mol)

>  <smiles>  (44) 
CS(=O)(=O)c1ccc(CC(=O)Nc2ccc(S(=O)(=O)c3ccc(NC(=O)Nc4ccc(Cl)cc4)cc3)nc2)cc1

>  <score_type>  (44) 
oracle

>  <origin>  (44) 
adgpu

>  <m_score__min__energy>  (44) 
-13.15

>  <m_primary>  (44) 
energy

$$$$
44:0
     RDKit          3D

 57 59  0  0  0  0  0  0  0  0999 V2000
   -3.1520   21.5600  -33.4500 C   0  0  0  0  0  0  0  0  0  0  0  0
   -1.9740   20.6100  -33.6740 C   0  0  0  0  0  0  0  0  0  0  0  0
   -2.2960   19.1130  -33.4440 C   0  0  0  0  0  0  0  0  0  0  0  0
   -1.2030   18.3320  -32.6780 C   0  0  0  0  0  0  0  0  0  0  0  0
   -0.5460   19.1560  -31.5710 C   0  0  0  0  0  0  0  0  0  0  0  0
   -3.6280   18.9610  -32.8400 N   0  0  0  0  0  0  0  0  0  0  0  0
   -4.6790   18.1440  -33.3770 C   0  0  0  0  0  0  0  0  0  0  0  0
   -5.9880   18.3800  -33.7750 C   0  0  0  0  0  0  0  0  0  0  0  0
   -6.8730   19.5030  -33.7950 N   0  0  0  0  0  0  0  0  0  0  0  0
   -7.0460   20.3710  -32.6670 C   0  0  0  0  0  0  0  0  0  0  0  0
   -5.9330   21.0260  -32.1190 C   0  0  0  0  0  0  0  0  0  0  0  0
   -6.0740   21.8910  -31.0190 C   0  0  0  0  0  0  0  0  0  0  0  0
   -4.8820   22.5400  -30.4130 C   0  0  0  0  0  0  0  0  0  0  0  0
   -4.8350   23.9340  -30.2370 C   0  0  0  0  0  0  0  0  0  0  0  0
   -3.7030   24.5430  -29.6870 C   0  0  0  0  0  0  0  0  0  0  0  0
   -2.6040   23.7690  -29.2970 C   0  0  0  0  0  0  0  0  0  0  0  0
   -1.1700   24.5460  -28.6320 S   0  0  0  0  0  0  0  0  0  0  0  0
   -1.1210   24.3010  -27.1500 O   0  0  0  0  0  0  0  0  0  0  0  0
    0.0690   23.9580  -29.2500 O   0  0  0  0  0  0  0  0  0  0  0  0
   -1.2210   26.2580  -28.9230 N   0  0  0  0  0  0  0  0  0  0  0  0
   -0.8310   26.9770  -27.7150 C   0  0  0  0  0  0  0  0  0  0  0  0
   -2.6430   22.3780  -29.4670 C   0  0  0  0  0  0  0  0  0  0  0  0
   -3.7730   21.7680  -30.0200 C   0  0  0  0  0  0  0  0  0  0  0  0
   -7.3580   22.1210  -30.4970 C   0  0  0  0  0  0  0  0  0  0  0  0
   -8.4730   21.4940  -31.0540 C   0  0  0  0  0  0  0  0  0  0  0  0
   -8.3300   20.6100  -32.1350 C   0  0  0  0  0  0  0  0  0  0  0  0
   -9.5440   19.9410  -32.7190 C   0  0  0  0  0  0  0  0  0  0  0  0
   -6.1360   17.0430  -34.0760 C   0  0  0  0  0  0  0  0  0  0  0  0
   -7.0800   16.3280  -34.5030 O   0  0  0  0  0  0  0  0  0  0  0  0
   -4.8210   16.8130  -33.7350 C   0  0  0  0  0  0  0  0  0  0  0  0
   -4.0710   15.8020  -33.7510 O   0  0  0  0  0  0  0  0  0  0  0  0
   -3.3161   21.6924  -32.3704 H   0  0  0  0  0  0  0  0  0  0  0  0
   -2.9296   22.5345  -33.9093 H   0  0  0  0  0  0  0  0  0  0  0  0
   -4.0573   21.1362  -33.9093 H   0  0  0  0  0  0  0  0  0  0  0  0
   -1.6293   20.7306  -34.7116 H   0  0  0  0  0  0  0  0  0  0  0  0
   -1.2109   20.8811  -32.9296 H   0  0  0  0  0  0  0  0  0  0  0  0
   -2.3077   18.6426  -34.4383 H   0  0  0  0  0  0  0  0  0  0  0  0
   -1.6611   17.4398  -32.2262 H   0  0  0  0  0  0  0  0  0  0  0  0
   -0.4181   18.0682  -33.4021 H   0  0  0  0  0  0  0  0  0  0  0  0
   -0.8567   18.7664  -30.5904 H   0  0  0  0  0  0  0  0  0  0  0  0
    0.5480   19.0874  -31.6630 H   0  0  0  0  0  0  0  0  0  0  0  0
   -0.8565   20.2073  -31.6630 H   0  0  0  0  0  0  0  0  0  0  0  0
   -3.6820   19.1860  -31.8240 H   0  0  0  0  0  0  0  0  0  0  0  0
   -7.4700   19.6430  -34.6410 H   0  0  0  0  0  0  0  0  0  0  0  0
   -4.9369   20.8609  -32.5554 H   0  0  0  0  0  0  0  0  0  0  0  0
   -5.6959   24.5507  -30.5345 H   0  0  0  0  0  0  0  0  0  0  0  0
   -3.6760   25.6353  -29.5602 H   0  0  0  0  0  0  0  0  0  0  0  0
   -1.1424   26.4029  -26.8299 H   0  0  0  0  0  0  0  0  0  0  0  0
    0.2612   27.1069  -27.7021 H   0  0  0  0  0  0  0  0  0  0  0  0
   -1.3177   27.9634  -27.7021 H   0  0  0  0  0  0  0  0  0  0  0  0
   -1.7817   21.7644  -29.1643 H   0  0  0  0  0  0  0  0  0  0  0  0
   -3.7953   20.6758  -30.1489 H   0  0  0  0  0  0  0  0  0  0  0  0
   -7.4853   22.8012  -29.6419 H   0  0  0  0  0  0  0  0  0  0  0  0
   -9.4732   21.6942  -30.6423 H   0  0  0  0  0  0  0  0  0  0  0  0
  -10.1926   19.5836  -31.9056 H   0  0  0  0  0  0  0  0  0  0  0  0
  -10.0971   20.6617  -33.3392 H   0  0  0  0  0  0  0  0  0  0  0  0
   -9.2301   19.0885  -33.3392 H   0  0  0  0  0  0  0  0  0  0  0  0
  1  2  1  0
  2  3  1  0
  3  4  1  0
  4  5  1  0
  3  6  1  0
  6  7  1  0
  7  8  2  0
  8  9  1  0
  9 10  1  0
 10 11  2  0
 11 12  1  0
 12 13  1  0
 13 14  2  0
 14 15  1  0
 15 16  2  0
 16 17  1  0
 17 18  2  0
 17 19  2  0
 17 20  1  0
 20 21  1  0
 16 22  1  0
 22 23  2  0
 12 24  2  0
 24 25  1  0
 25 26  2  0
 26 27  1  0
  8 28  1  0
 28 29  2  0
 28 30  1  0
 30 31  2  0
 30  7  1  0
 26 10  1  0
 23 13  1  0
  1 32  1  0
  1 33  1  0
  1 34  1  0
  2 35  1  0
  2 36  1  0
  3 37  1  0
  4 38  1  0
  4 39  1  0
  5 40  1  0
  5 41  1  0
  5 42  1  0
  6 43  1  0
  9 44  1  0
 11 45  1  0
 14 46  1  0
 15 47  1  0
 21 48  1  0
 21 49  1  0
 21 50  1  0
 22 51  1  0
 23 52  1  0
 24 53  1  0
 25 54  1  0
 27 55  1  0
 27 56  1  0
 27 57  1  0
M  CHG  1  20  -1
M  END
>  <UniqueID>  (45) 
43

>  <SMILES>  (45) 
CCC(CC)Nc1c(Nc2cc(-c3ccc(S(=O)(=O)[N-]C)cc3)ccc2C)c(=O)c1=O

>  <Energy>  (45) 
54.5315360922862

>  <Genealogy>  (45) 
CCC(CC)Nc1c(Nc2cc(-c3ccc(S(=O)(=O)[N-]C)cc3)ccc2C)c(=O)c1=O (protonated)
CCC(CC)Nc1c(Nc2cc(-c3ccc(S(=O)(=O)[N-]C)cc3)ccc2C)c(=O)c1=O (3D coordinates assigned)
CCC(CC)Nc1c(Nc2cc(-c3ccc(S(=O)(=O)[N-]C)cc3)ccc2C)c(=O)c1=O (optimized conformer: 54.5315360922862 kcal/mol)

>  <smiles>  (45) 
CCC(CC)Nc1c(Nc2cc(-c3ccc(S(=O)(=O)NC)cc3)ccc2C)c(=O)c1=O

>  <score_type>  (45) 
oracle

>  <origin>  (45) 
adgpu

>  <m_score__min__energy>  (45) 
-10.08

>  <m_primary>  (45) 
energy

$$$$
45:0
     RDKit          3D

 41 43  0  0  0  0  0  0  0  0999 V2000
   -2.1131   25.2962  -25.6196 H   0  0  0  0  0  0  0  0  0  0  0  0
   -2.1340   25.1690  -26.7120 C   0  0  0  0  0  0  0  0  0  0  0  0
   -3.0520   24.0430  -27.5590 S   0  0  0  0  0  0  0  0  0  0  0  0
   -2.4770   24.5520  -29.0620 C   0  0  0  0  0  0  0  0  0  0  0  0
   -2.8400   24.0870  -30.2210 N   0  0  0  0  0  0  0  0  0  0  0  0
   -3.7260   22.9780  -30.4370 C   0  0  0  0  0  0  0  0  0  0  0  0
   -3.2650   21.8110  -30.3260 O   0  0  0  0  0  0  0  0  0  0  0  0
   -5.1690   23.1700  -30.7130 C   0  0  0  0  0  0  0  0  0  0  0  0
   -5.8270   24.3460  -30.3110 C   0  0  0  0  0  0  0  0  0  0  0  0
   -5.2649   25.1395  -29.7968 H   0  0  0  0  0  0  0  0  0  0  0  0
   -7.1920   24.5110  -30.5620 C   0  0  0  0  0  0  0  0  0  0  0  0
   -7.6999   25.4340  -30.2457 H   0  0  0  0  0  0  0  0  0  0  0  0
   -7.9130   23.5080  -31.2130 C   0  0  0  0  0  0  0  0  0  0  0  0
   -8.9885   23.6406  -31.4023 H   0  0  0  0  0  0  0  0  0  0  0  0
   -7.2690   22.3300  -31.6270 C   0  0  0  0  0  0  0  0  0  0  0  0
   -7.9630   21.2930  -32.2680 O   0  0  0  0  0  0  0  0  0  0  0  0
   -7.4250   20.0440  -32.6110 C   0  0  0  0  0  0  0  0  0  0  0  0
   -7.8160   18.8610  -31.9580 C   0  0  0  0  0  0  0  0  0  0  0  0
   -8.5551   18.9023  -31.1444 H   0  0  0  0  0  0  0  0  0  0  0  0
   -7.2680   17.6330  -32.3400 C   0  0  0  0  0  0  0  0  0  0  0  0
   -7.5674   16.7131  -31.8164 H   0  0  0  0  0  0  0  0  0  0  0  0
   -6.3390   17.5690  -33.3870 C   0  0  0  0  0  0  0  0  0  0  0  0
   -5.6360   16.0240  -33.8540 S   0  0  0  0  0  0  0  0  0  0  0  0
   -6.7180   15.0970  -34.3330 O   0  0  0  0  0  0  0  0  0  0  0  0
   -4.6500   16.2300  -34.9700 O   0  0  0  0  0  0  0  0  0  0  0  0
   -4.8100   15.3040  -32.4550 C   0  0  0  0  0  0  0  0  0  0  0  0
   -5.2550   15.6919  -31.5269 H   0  0  0  0  0  0  0  0  0  0  0  0
   -4.9220   14.2102  -32.4861 H   0  0  0  0  0  0  0  0  0  0  0  0
   -3.7417   15.5642  -32.4861 H   0  0  0  0  0  0  0  0  0  0  0  0
   -5.9590   18.7460  -34.0460 C   0  0  0  0  0  0  0  0  0  0  0  0
   -5.2269   18.7032  -34.8659 H   0  0  0  0  0  0  0  0  0  0  0  0
   -6.5070   19.9740  -33.6650 C   0  0  0  0  0  0  0  0  0  0  0  0
   -6.2148   20.8914  -34.1970 H   0  0  0  0  0  0  0  0  0  0  0  0
   -5.9060   22.1590  -31.3550 C   0  0  0  0  0  0  0  0  0  0  0  0
   -5.4063   21.2235  -31.6468 H   0  0  0  0  0  0  0  0  0  0  0  0
   -1.6090   25.5780  -28.9410 N   0  0  0  0  0  0  0  0  0  0  0  0
   -1.4050   25.9120  -27.6370 C   0  0  0  0  0  0  0  0  0  0  0  0
   -0.5130   27.0440  -27.2450 C   0  0  0  0  0  0  0  0  0  0  0  0
   -0.4625   27.1081  -26.1480 H   0  0  0  0  0  0  0  0  0  0  0  0
    0.4957   26.8729  -27.6491 H   0  0  0  0  0  0  0  0  0  0  0  0
   -0.9152   27.9847  -27.6491 H   0  0  0  0  0  0  0  0  0  0  0  0
  1  2  1  0
  2  3  1  0
  3  4  1  0
  4  5  2  0
  5  6  1  0
  6  7  2  0
  6  8  1  0
  8  9  2  0
  9 10  1  0
  9 11  1  0
 11 12  1  0
 11 13  2  0
 13 14  1  0
 13 15  1  0
 15 16  1  0
 16 17  1  0
 17 18  2  0
 18 19  1  0
 18 20  1  0
 20 21  1  0
 20 22  2  0
 22 23  1  0
 23 24  2  0
 23 25  2  0
 23 26  1  0
 26 27  1  0
 26 28  1  0
 26 29  1  0
 22 30  1  0
 30 31  1  0
 30 32  2  0
 32 33  1  0
 15 34  2  0
 34 35  1  0
  4 36  1  0
 36 37  1  0
 37 38  1  0
 38 39  1  0
 38 40  1  0
 38 41  1  0
 37  2  2  0
 34  8  1  0
 32 17  1  0
M  CHG  1  36  -1
M  END
>  <UniqueID>  (46) 
44

>  <SMILES>  (46) 
Cc1cs/c(=N\C(=O)c2cccc(Oc3ccc(S(C)(=O)=O)cc3)c2)[n-]1

>  <Energy>  (46) 
84.24239117274766

>  <Genealogy>  (46) 
Cc1csc(=NC(=O)c2cccc(Oc3ccc(S(C)(=O)=O)cc3)c2)[n-]1 (protonated)
Cc1cs/c(=N\C(=O)c2cccc(Oc3ccc(S(C)(=O)=O)cc3)c2)[n-]1 (cis-trans isomerization)
Cc1cs/c(=N\C(=O)c2cccc(Oc3ccc(S(C)(=O)=O)cc3)c2)[n-]1 (3D coordinates assigned)
Cc1cs/c(=N\C(=O)c2cccc(Oc3ccc(S(C)(=O)=O)cc3)c2)[n-]1 (optimized conformer: 84.24239117274766 kcal/mol)

>  <smiles>  (46) 
Cc1csc(=NC(=O)c2cccc(Oc3ccc(S(C)(=O)=O)cc3)c2)[nH]1

>  <score_type>  (46) 
oracle

>  <origin>  (46) 
adgpu

>  <m_score__min__energy>  (46) 
-10.24

>  <m_primary>  (46) 
energy

$$$$
46:0
     RDKit          3D

 52 54  0  0  0  0  0  0  0  0999 V2000
   -2.3200   22.4920  -30.5300 C   0  0  0  0  0  0  0  0  0  0  0  0
   -0.8540   22.3100  -30.1350 C   0  0  0  0  0  0  0  0  0  0  0  0
   -0.3240   21.0330  -30.6310 N   0  0  0  0  0  0  0  0  0  0  0  0
    0.2990   20.0880  -29.6870 C   0  0  0  0  0  0  0  0  0  0  0  0
   -0.5810   19.8820  -28.4570 C   0  0  0  0  0  0  0  0  0  0  0  0
   -0.4480   20.6950  -32.0300 C   0  0  0  0  0  0  0  0  0  0  0  0
    0.4860   21.1780  -32.9580 C   0  0  0  0  0  0  0  0  0  0  0  0
    0.3290   20.8890  -34.3180 C   0  0  0  0  0  0  0  0  0  0  0  0
    1.3120   21.4080  -35.3190 C   0  0  0  0  0  0  0  0  0  0  0  0
   -0.7510   20.1790  -34.7380 N   0  0  0  0  0  0  0  0  0  0  0  0
   -1.6850   19.7040  -33.8720 C   0  0  0  0  0  0  0  0  0  0  0  0
   -2.7890   19.0090  -34.3820 O   0  0  0  0  0  0  0  0  0  0  0  0
   -4.1020   19.1230  -33.8970 C   0  0  0  0  0  0  0  0  0  0  0  0
   -4.9650   18.0330  -34.0250 C   0  0  0  0  0  0  0  0  0  0  0  0
   -6.2690   18.1240  -33.5380 C   0  0  0  0  0  0  0  0  0  0  0  0
   -6.6980   19.2710  -32.9490 N   0  0  0  0  0  0  0  0  0  0  0  0
   -5.9000   20.3690  -32.8250 C   0  0  0  0  0  0  0  0  0  0  0  0
   -6.4250   21.5800  -32.1390 C   0  0  0  0  0  0  0  0  0  0  0  0
   -7.7930   21.8960  -32.2290 C   0  0  0  0  0  0  0  0  0  0  0  0
   -8.3080   23.0180  -31.5750 C   0  0  0  0  0  0  0  0  0  0  0  0
   -7.4680   23.8400  -30.8230 C   0  0  0  0  0  0  0  0  0  0  0  0
   -6.1030   23.5470  -30.7240 C   0  0  0  0  0  0  0  0  0  0  0  0
   -5.0410   24.5940  -29.7890 S   0  0  0  0  0  0  0  0  0  0  0  0
   -3.8680   25.3100  -30.8360 N   0  0  0  0  0  0  0  0  0  0  0  0
   -5.8480   25.6750  -29.1230 O   0  0  0  0  0  0  0  0  0  0  0  0
   -4.3400   23.7950  -28.7270 O   0  0  0  0  0  0  0  0  0  0  0  0
   -5.5820   22.4310  -31.3940 C   0  0  0  0  0  0  0  0  0  0  0  0
   -4.5830   20.3100  -33.3140 C   0  0  0  0  0  0  0  0  0  0  0  0
   -1.5160   19.9070  -32.4900 C   0  0  0  0  0  0  0  0  0  0  0  0
   -2.3570   19.3050  -31.6120 F   0  0  0  0  0  0  0  0  0  0  0  0
   -2.9374   22.5686  -29.6228 H   0  0  0  0  0  0  0  0  0  0  0  0
   -2.4279   23.4104  -31.1257 H   0  0  0  0  0  0  0  0  0  0  0  0
   -2.6493   21.6278  -31.1257 H   0  0  0  0  0  0  0  0  0  0  0  0
   -0.2627   23.1336  -30.5616 H   0  0  0  0  0  0  0  0  0  0  0  0
   -0.7867   22.3118  -29.0371 H   0  0  0  0  0  0  0  0  0  0  0  0
    0.4454   19.1210  -30.1904 H   0  0  0  0  0  0  0  0  0  0  0  0
    1.2640   20.5035  -29.3614 H   0  0  0  0  0  0  0  0  0  0  0  0
    0.0213   20.0230  -27.5474 H   0  0  0  0  0  0  0  0  0  0  0  0
   -1.4040   20.6118  -28.4686 H   0  0  0  0  0  0  0  0  0  0  0  0
   -0.9946   18.8628  -28.4686 H   0  0  0  0  0  0  0  0  0  0  0  0
    1.3397   21.7824  -32.6176 H   0  0  0  0  0  0  0  0  0  0  0  0
    2.1667   21.8592  -34.7937 H   0  0  0  0  0  0  0  0  0  0  0  0
    1.6654   20.5790  -35.9497 H   0  0  0  0  0  0  0  0  0  0  0  0
    0.8268   22.1674  -35.9497 H   0  0  0  0  0  0  0  0  0  0  0  0
   -4.6184   17.1072  -34.5074 H   0  0  0  0  0  0  0  0  0  0  0  0
   -6.9510   17.2660  -33.6309 H   0  0  0  0  0  0  0  0  0  0  0  0
   -8.4631   21.2539  -32.8196 H   0  0  0  0  0  0  0  0  0  0  0  0
   -9.3795   23.2542  -31.6532 H   0  0  0  0  0  0  0  0  0  0  0  0
   -7.8794   24.7200  -30.3069 H   0  0  0  0  0  0  0  0  0  0  0  0
   -2.9530   25.2810  -30.3330 H   0  0  0  0  0  0  0  0  0  0  0  0
   -4.5045   22.2168  -31.3381 H   0  0  0  0  0  0  0  0  0  0  0  0
   -3.9289   21.1914  -33.2408 H   0  0  0  0  0  0  0  0  0  0  0  0
  1  2  1  0
  2  3  1  0
  3  4  1  0
  4  5  1  0
  3  6  1  0
  6  7  2  0
  7  8  1  0
  8  9  1  0
  8 10  2  0
 10 11  1  0
 11 12  1  0
 12 13  1  0
 13 14  2  0
 14 15  1  0
 15 16  2  0
 16 17  1  0
 17 18  1  0
 18 19  2  0
 19 20  1  0
 20 21  2  0
 21 22  1  0
 22 23  1  0
 23 24  1  0
 23 25  2  0
 23 26  2  0
 22 27  2  0
 17 28  2  0
 11 29  2  0
 29 30  1  0
 29  6  1  0
 28 13  1  0
 27 18  1  0
  1 31  1  0
  1 32  1  0
  1 33  1  0
  2 34  1  0
  2 35  1  0
  4 36  1  0
  4 37  1  0
  5 38  1  0
  5 39  1  0
  5 40  1  0
  7 41  1  0
  9 42  1  0
  9 43  1  0
  9 44  1  0
 14 45  1  0
 15 46  1  0
 19 47  1  0
 20 48  1  0
 21 49  1  0
 24 50  1  0
 27 51  1  0
 28 52  1  0
M  CHG  1  24  -1
M  END
>  <UniqueID>  (47) 
45

>  <SMILES>  (47) 
CCN(CC)c1cc(C)nc(Oc2ccnc(-c3cccc(S([NH-])(=O)=O)c3)c2)c1F

>  <Energy>  (47) 
62.19035935822372

>  <Genealogy>  (47) 
CCN(CC)c1cc(C)nc(Oc2ccnc(-c3cccc(S([NH-])(=O)=O)c3)c2)c1F (protonated)
CCN(CC)c1cc(C)nc(Oc2ccnc(-c3cccc(S([NH-])(=O)=O)c3)c2)c1F (3D coordinates assigned)
CCN(CC)c1cc(C)nc(Oc2ccnc(-c3cccc(S([NH-])(=O)=O)c3)c2)c1F (optimized conformer: 62.19035935822372 kcal/mol)

>  <smiles>  (47) 
CCN(CC)c1cc(C)nc(Oc2ccnc(-c3cccc(S(N)(=O)=O)c3)c2)c1F

>  <score_type>  (47) 
oracle

>  <origin>  (47) 
adgpu

>  <m_score__min__energy>  (47) 
-11

>  <m_primary>  (47) 
energy

$$$$
47:0
     RDKit          3D

 50 52  0  0  0  0  0  0  0  0999 V2000
   -7.2020   23.7420  -29.9860 C   0  0  0  0  0  0  0  0  0  0  0  0
   -6.1650   22.6280  -29.8580 C   0  0  0  0  0  0  0  0  0  0  0  0
   -5.7010   22.1710  -31.1870 N   0  0  0  0  0  0  0  0  0  0  0  0
   -4.3160   22.6220  -31.4580 C   0  0  0  0  0  0  0  0  0  0  0  0
   -3.5350   22.8510  -30.1800 C   0  0  0  0  0  0  0  0  0  0  0  0
   -3.1460   21.7440  -29.4020 C   0  0  0  0  0  0  0  0  0  0  0  0
   -2.4410   21.9270  -28.2110 C   0  0  0  0  0  0  0  0  0  0  0  0
   -1.8980   20.4140  -27.1800 Br  0  0  0  0  0  0  0  0  0  0  0  0
   -2.1350   23.2160  -27.7720 C   0  0  0  0  0  0  0  0  0  0  0  0
   -2.5440   24.3250  -28.5150 C   0  0  0  0  0  0  0  0  0  0  0  0
   -3.2600   24.1560  -29.7170 C   0  0  0  0  0  0  0  0  0  0  0  0
   -3.7130   25.2570  -30.4640 O   0  0  0  0  0  0  0  0  0  0  0  0
   -5.0570   25.7270  -30.4800 C   0  0  0  0  0  0  0  0  0  0  0  0
   -6.6530   22.4800  -32.2890 C   0  0  0  0  0  0  0  0  0  0  0  0
   -7.9340   21.6790  -32.2550 C   0  0  0  0  0  0  0  0  0  0  0  0
   -9.1930   22.1620  -31.9590 C   0  0  0  0  0  0  0  0  0  0  0  0
  -10.0570   21.1330  -31.9490 N   0  0  0  0  0  0  0  0  0  0  0  0
   -9.4220   20.0100  -32.2380 N   0  0  0  0  0  0  0  0  0  0  0  0
   -8.1250   20.3140  -32.4450 C   0  0  0  0  0  0  0  0  0  0  0  0
   -7.1170   19.3080  -32.8240 C   0  0  0  0  0  0  0  0  0  0  0  0
   -7.0870   18.0700  -32.1660 C   0  0  0  0  0  0  0  0  0  0  0  0
   -6.1320   17.1100  -32.5160 C   0  0  0  0  0  0  0  0  0  0  0  0
   -5.2170   17.3660  -33.5480 C   0  0  0  0  0  0  0  0  0  0  0  0
   -4.1650   16.3540  -33.8920 C   0  0  0  0  0  0  0  0  0  0  0  0
   -5.2550   18.6000  -34.2130 C   0  0  0  0  0  0  0  0  0  0  0  0
   -6.2080   19.5600  -33.8630 C   0  0  0  0  0  0  0  0  0  0  0  0
   -7.5102   24.0731  -28.9833 H   0  0  0  0  0  0  0  0  0  0  0  0
   -6.7639   24.5896  -30.5335 H   0  0  0  0  0  0  0  0  0  0  0  0
   -8.0787   23.3657  -30.5335 H   0  0  0  0  0  0  0  0  0  0  0  0
   -5.3032   23.0043  -29.2873 H   0  0  0  0  0  0  0  0  0  0  0  0
   -6.6317   21.7765  -29.3411 H   0  0  0  0  0  0  0  0  0  0  0  0
   -3.8027   21.8542  -32.0555 H   0  0  0  0  0  0  0  0  0  0  0  0
   -4.3691   23.5775  -32.0004 H   0  0  0  0  0  0  0  0  0  0  0  0
   -3.3996   20.7268  -29.7352 H   0  0  0  0  0  0  0  0  0  0  0  0
   -1.5704   23.3585  -26.8387 H   0  0  0  0  0  0  0  0  0  0  0  0
   -2.3056   25.3383  -28.1595 H   0  0  0  0  0  0  0  0  0  0  0  0
   -5.4141   25.8519  -29.4471 H   0  0  0  0  0  0  0  0  0  0  0  0
   -5.1011   26.6939  -31.0026 H   0  0  0  0  0  0  0  0  0  0  0  0
   -5.6941   24.9983  -31.0026 H   0  0  0  0  0  0  0  0  0  0  0  0
   -6.9135   23.5470  -32.2286 H   0  0  0  0  0  0  0  0  0  0  0  0
   -6.1428   22.2136  -33.2264 H   0  0  0  0  0  0  0  0  0  0  0  0
   -9.4467   23.2144  -31.7638 H   0  0  0  0  0  0  0  0  0  0  0  0
  -11.0790   21.1940  -31.7460 H   0  0  0  0  0  0  0  0  0  0  0  0
   -7.8169   17.8532  -31.3721 H   0  0  0  0  0  0  0  0  0  0  0  0
   -6.0983   16.1502  -31.9797 H   0  0  0  0  0  0  0  0  0  0  0  0
   -3.7364   15.9417  -32.9667 H   0  0  0  0  0  0  0  0  0  0  0  0
   -4.6162   15.5418  -34.4808 H   0  0  0  0  0  0  0  0  0  0  0  0
   -3.3709   16.8363  -34.4808 H   0  0  0  0  0  0  0  0  0  0  0  0
   -4.5314   18.8131  -35.0136 H   0  0  0  0  0  0  0  0  0  0  0  0
   -6.2459   20.5170  -34.4040 H   0  0  0  0  0  0  0  0  0  0  0  0
  1  2  1  0
  2  3  1  0
  3  4  1  0
  4  5  1  0
  5  6  2  0
  6  7  1  0
  7  8  1  0
  7  9  2  0
  9 10  1  0
 10 11  2  0
 11 12  1  0
 12 13  1  0
  3 14  1  0
 14 15  1  0
 15 16  2  0
 16 17  1  0
 17 18  1  0
 18 19  2  0
 19 20  1  0
 20 21  2  0
 21 22  1  0
 22 23  2  0
 23 24  1  0
 23 25  1  0
 25 26  2  0
 11  5  1  0
 19 15  1  0
 26 20  1  0
  1 27  1  0
  1 28  1  0
  1 29  1  0
  2 30  1  0
  2 31  1  0
  4 32  1  0
  4 33  1  0
  6 34  1  0
  9 35  1  0
 10 36  1  0
 13 37  1  0
 13 38  1  0
 13 39  1  0
 14 40  1  0
 14 41  1  0
 16 42  1  0
 17 43  1  0
 21 44  1  0
 22 45  1  0
 24 46  1  0
 24 47  1  0
 24 48  1  0
 25 49  1  0
 26 50  1  0
M  END
>  <UniqueID>  (48) 
46

>  <SMILES>  (48) 
CCN(Cc1cc(Br)ccc1OC)Cc1c[nH]nc1-c1ccc(C)cc1

>  <Energy>  (48) 
87.78308285226257

>  <Genealogy>  (48) 
CCN(Cc1cc(Br)ccc1OC)Cc1c[nH]nc1-c1ccc(C)cc1 (3D coordinates assigned)
CCN(Cc1cc(Br)ccc1OC)Cc1c[nH]nc1-c1ccc(C)cc1 (optimized conformer: 87.78308285226257 kcal/mol)

>  <smiles>  (48) 
CCN(Cc1cc(Br)ccc1OC)Cc1c[nH]nc1-c1ccc(C)cc1

>  <score_type>  (48) 
oracle

>  <origin>  (48) 
adgpu

>  <m_score__min__energy>  (48) 
-9.4299999999999997

>  <m_primary>  (48) 
energy

$$$$
48:0
     RDKit          3D

 37 39  0  0  0  0  0  0  0  0999 V2000
   -9.1090   19.3700  -32.7130 N   0  0  0  0  0  0  0  0  0  0  0  0
   -8.5150   20.2870  -32.3310 C   0  0  0  0  0  0  0  0  0  0  0  0
   -7.7750   21.4250  -31.8570 C   0  0  0  0  0  0  0  0  0  0  0  0
   -7.9890   21.9110  -30.5650 C   0  0  0  0  0  0  0  0  0  0  0  0
   -7.2560   23.0070  -30.0970 C   0  0  0  0  0  0  0  0  0  0  0  0
   -6.3120   23.6300  -30.9230 C   0  0  0  0  0  0  0  0  0  0  0  0
   -5.3890   25.0110  -30.3360 S   0  0  0  0  0  0  0  0  0  0  0  0
   -5.7230   25.2970  -28.8980 O   0  0  0  0  0  0  0  0  0  0  0  0
   -5.7310   26.2120  -31.1720 O   0  0  0  0  0  0  0  0  0  0  0  0
   -3.6890   24.6930  -30.4700 N   0  0  0  0  0  0  0  0  0  0  0  0
   -3.0990   23.3870  -30.4750 C   0  0  0  0  0  0  0  0  0  0  0  0
   -2.4800   22.9250  -29.3070 C   0  0  0  0  0  0  0  0  0  0  0  0
   -1.8760   21.6670  -29.2770 C   0  0  0  0  0  0  0  0  0  0  0  0
   -1.8810   20.8590  -30.4160 C   0  0  0  0  0  0  0  0  0  0  0  0
   -2.4960   21.3070  -31.5920 C   0  0  0  0  0  0  0  0  0  0  0  0
   -2.4950   20.3060  -33.0400 S   0  0  0  0  0  0  0  0  0  0  0  0
   -2.4040   18.8510  -32.6770 O   0  0  0  0  0  0  0  0  0  0  0  0
   -3.7610   20.5400  -33.8110 O   0  0  0  0  0  0  0  0  0  0  0  0
   -1.1120   20.7180  -34.0360 C   0  0  0  0  0  0  0  0  0  0  0  0
   -0.6420   21.9270  -34.2110 O   0  0  0  0  0  0  0  0  0  0  0  0
    0.3900   21.8060  -35.0170 C   0  0  0  0  0  0  0  0  0  0  0  0
    1.0880   22.7820  -35.3930 O   0  0  0  0  0  0  0  0  0  0  0  0
    0.6410   20.5350  -35.3970 N   0  0  0  0  0  0  0  0  0  0  0  0
   -0.3270   19.8540  -34.7590 C   0  0  0  0  0  0  0  0  0  0  0  0
   -0.4960   18.4760  -34.8370 O   0  0  0  0  0  0  0  0  0  0  0  0
   -3.1050   22.5680  -31.6190 C   0  0  0  0  0  0  0  0  0  0  0  0
   -6.1080   23.1490  -32.2200 C   0  0  0  0  0  0  0  0  0  0  0  0
   -6.8290   22.0450  -32.6840 C   0  0  0  0  0  0  0  0  0  0  0  0
   -8.7351   21.4312  -29.9144 H   0  0  0  0  0  0  0  0  0  0  0  0
   -7.4218   23.3810  -29.0759 H   0  0  0  0  0  0  0  0  0  0  0  0
   -2.4697   23.5576  -28.4072 H   0  0  0  0  0  0  0  0  0  0  0  0
   -1.3949   21.3112  -28.3540 H   0  0  0  0  0  0  0  0  0  0  0  0
   -1.4013   19.8694  -30.3896 H   0  0  0  0  0  0  0  0  0  0  0  0
   -1.1740   18.0070  -34.2500 H   0  0  0  0  0  0  0  0  0  0  0  0
   -3.5912   22.9203  -32.5407 H   0  0  0  0  0  0  0  0  0  0  0  0
   -5.3770   23.6415  -32.8780 H   0  0  0  0  0  0  0  0  0  0  0  0
   -6.6534   21.6623  -33.7002 H   0  0  0  0  0  0  0  0  0  0  0  0
  1  2  3  0
  2  3  1  0
  3  4  2  0
  4  5  1  0
  5  6  2  0
  6  7  1  0
  7  8  2  0
  7  9  2  0
  7 10  1  0
 10 11  1  0
 11 12  2  0
 12 13  1  0
 13 14  2  0
 14 15  1  0
 15 16  1  0
 16 17  2  0
 16 18  2  0
 16 19  1  0
 19 20  1  0
 20 21  1  0
 21 22  2  0
 21 23  1  0
 23 24  1  0
 24 25  1  0
 15 26  2  0
  6 27  1  0
 27 28  2  0
 28  3  1  0
 26 11  1  0
 24 19  2  0
  4 29  1  0
  5 30  1  0
 12 31  1  0
 13 32  1  0
 14 33  1  0
 25 34  1  0
 26 35  1  0
 27 36  1  0
 28 37  1  0
M  CHG  2  10  -1  23  -1
M  END
>  <UniqueID>  (49) 
47

>  <SMILES>  (49) 
N#Cc1ccc(S(=O)(=O)[N-]c2cccc(S(=O)(=O)c3oc(=O)[n-]c3O)c2)cc1

>  <Energy>  (49) 
71.44816264175059

>  <Genealogy>  (49) 
N#Cc1ccc(S(=O)(=O)[N-]c2cccc(S(=O)(=O)c3oc(=O)[n-]c3O)c2)cc1 (protonated)
N#Cc1ccc(S(=O)(=O)[N-]c2cccc(S(=O)(=O)c3oc(=O)[n-]c3O)c2)cc1 (3D coordinates assigned)
N#Cc1ccc(S(=O)(=O)[N-]c2cccc(S(=O)(=O)c3oc(=O)[n-]c3O)c2)cc1 (optimized conformer: 71.44816264175059 kcal/mol)

>  <smiles>  (49) 
N#Cc1ccc(S(=O)(=O)Nc2cccc(S(=O)(=O)c3oc(=O)[nH]c3O)c2)cc1

>  <score_type>  (49) 
oracle

>  <origin>  (49) 
adgpu

>  <m_score__min__energy>  (49) 
-10.74

>  <m_primary>  (49) 
energy

$$$$
49:0
     RDKit          3D

 33 34  0  0  0  0  0  0  0  0999 V2000
   -4.3740   18.9310  -33.8980 C   0  0  0  0  0  0  0  0  0  0  0  0
   -5.1560   20.1360  -33.3820 C   0  0  0  0  0  0  0  0  0  0  0  0
   -6.5070   19.7160  -32.8490 C   0  0  0  0  0  0  0  0  0  0  0  0
   -6.7400   18.3460  -32.6330 C   0  0  0  0  0  0  0  0  0  0  0  0
   -7.9690   17.8980  -32.1530 C   0  0  0  0  0  0  0  0  0  0  0  0
   -8.9830   18.8100  -31.8740 C   0  0  0  0  0  0  0  0  0  0  0  0
   -8.7700   20.1750  -32.0650 C   0  0  0  0  0  0  0  0  0  0  0  0
   -7.5330   20.6540  -32.5460 C   0  0  0  0  0  0  0  0  0  0  0  0
   -7.3150   22.0730  -32.7070 N   0  0  0  0  0  0  0  0  0  0  0  0
   -7.5980   23.0480  -31.6500 C   0  0  0  0  0  0  0  0  0  0  0  0
   -6.3200   23.6260  -31.1050 C   0  0  0  0  0  0  0  0  0  0  0  0
   -5.1200   22.9000  -31.1900 C   0  0  0  0  0  0  0  0  0  0  0  0
   -3.9260   23.4550  -30.7200 C   0  0  0  0  0  0  0  0  0  0  0  0
   -3.9180   24.7430  -30.1750 C   0  0  0  0  0  0  0  0  0  0  0  0
   -2.7310   25.2940  -29.7090 O   0  0  0  0  0  0  0  0  0  0  0  0
   -5.1060   25.4780  -30.1030 C   0  0  0  0  0  0  0  0  0  0  0  0
   -6.3020   24.9250  -30.5720 C   0  0  0  0  0  0  0  0  0  0  0  0
   -3.9953   18.3474  -33.0459 H   0  0  0  0  0  0  0  0  0  0  0  0
   -5.0350   18.2996  -34.5100 H   0  0  0  0  0  0  0  0  0  0  0  0
   -3.5282   19.2775  -34.5100 H   0  0  0  0  0  0  0  0  0  0  0  0
   -4.5844   20.6172  -32.5747 H   0  0  0  0  0  0  0  0  0  0  0  0
   -5.3101   20.8373  -34.2153 H   0  0  0  0  0  0  0  0  0  0  0  0
   -5.9422   17.6192  -32.8456 H   0  0  0  0  0  0  0  0  0  0  0  0
   -8.1381   16.8227  -31.9944 H   0  0  0  0  0  0  0  0  0  0  0  0
   -9.9547   18.4532  -31.5019 H   0  0  0  0  0  0  0  0  0  0  0  0
   -9.5768   20.8874  -31.8377 H   0  0  0  0  0  0  0  0  0  0  0  0
   -6.9270   22.4350  -33.6050 H   0  0  0  0  0  0  0  0  0  0  0  0
   -8.2145   23.8600  -32.0631 H   0  0  0  0  0  0  0  0  0  0  0  0
   -8.1333   22.5404  -30.8341 H   0  0  0  0  0  0  0  0  0  0  0  0
   -5.1200   21.8910  -31.6281 H   0  0  0  0  0  0  0  0  0  0  0  0
   -2.9915   22.8778  -30.7789 H   0  0  0  0  0  0  0  0  0  0  0  0
   -5.0996   26.4921  -29.6770 H   0  0  0  0  0  0  0  0  0  0  0  0
   -7.2323   25.5100  -30.5231 H   0  0  0  0  0  0  0  0  0  0  0  0
  1  2  1  0
  2  3  1  0
  3  4  2  0
  4  5  1  0
  5  6  2  0
  6  7  1  0
  7  8  2  0
  8  9  1  0
  9 10  1  0
 10 11  1  0
 11 12  2  0
 12 13  1  0
 13 14  2  0
 14 15  1  0
 14 16  1  0
 16 17  2  0
  8  3  1  0
 17 11  1  0
  1 18  1  0
  1 19  1  0
  1 20  1  0
  2 21  1  0
  2 22  1  0
  4 23  1  0
  5 24  1  0
  6 25  1  0
  7 26  1  0
  9 27  1  0
 10 28  1  0
 10 29  1  0
 12 30  1  0
 13 31  1  0
 16 32  1  0
 17 33  1  0
M  CHG  1  15  -1
M  END
>  <UniqueID>  (50) 
48

>  <SMILES>  (50) 
CCc1ccccc1NCc1ccc([O-])cc1

>  <Energy>  (50) 
32.426508194643766

>  <Genealogy>  (50) 
CCc1ccccc1NCc1ccc([O-])cc1 (protonated)
CCc1ccccc1NCc1ccc([O-])cc1 (3D coordinates assigned)
CCc1ccccc1NCc1ccc([O-])cc1 (optimized conformer: 32.426508194643766 kcal/mol)

>  <smiles>  (50) 
CCc1ccccc1NCc1ccc(O)cc1

>  <score_type>  (50) 
oracle

>  <origin>  (50) 
adgpu

>  <m_score__min__energy>  (50) 
-10.51

>  <m_primary>  (50) 
energy

$$$$
