0:0
     RDKit          3D

 27 29  0  0  0  0  0  0  0  0999 V2000
   -6.3140   17.2020  -33.8410 O   0  0  0  0  0  0  0  0  0  0  0  0
   -6.4770   18.3720  -33.4040 C   0  0  0  0  0  0  0  0  0  0  0  0
   -5.3710   19.2010  -33.2200 C   0  0  0  0  0  0  0  0  0  0  0  0
   -5.5380   20.5050  -32.7270 C   0  0  0  0  0  0  0  0  0  0  0  0
   -4.3050   21.3570  -32.5150 C   0  0  0  0  0  0  0  0  0  0  0  0
   -3.8410   21.4350  -30.7480 S   0  0  0  0  0  0  0  0  0  0  0  0
   -4.4270   23.1080  -30.5010 C   0  0  0  0  0  0  0  0  0  0  0  0
   -3.9710   24.1730  -31.1930 N   0  0  0  0  0  0  0  0  0  0  0  0
   -4.5610   25.3140  -30.8420 N   0  0  0  0  0  0  0  0  0  0  0  0
   -5.4930   25.1670  -29.8740 C   0  0  0  0  0  0  0  0  0  0  0  0
   -5.6220   23.5540  -29.4050 S   0  0  0  0  0  0  0  0  0  0  0  0
   -6.8450   20.9610  -32.4250 C   0  0  0  0  0  0  0  0  0  0  0  0
   -7.1010   22.2570  -31.9270 C   0  0  0  0  0  0  0  0  0  0  0  0
   -8.4070   22.6630  -31.6400 C   0  0  0  0  0  0  0  0  0  0  0  0
   -9.4750   21.7900  -31.8440 C   0  0  0  0  0  0  0  0  0  0  0  0
   -9.2450   20.5050  -32.3360 C   0  0  0  0  0  0  0  0  0  0  0  0
   -7.9400   20.0800  -32.6300 C   0  0  0  0  0  0  0  0  0  0  0  0
   -7.7260   18.8210  -33.1100 N   0  0  0  0  0  0  0  0  0  0  0  0
   -4.3635   18.8318  -33.4621 H   0  0  0  0  0  0  0  0  0  0  0  0
   -3.4695   20.9250  -33.0853 H   0  0  0  0  0  0  0  0  0  0  0  0
   -4.5272   22.3779  -32.8592 H   0  0  0  0  0  0  0  0  0  0  0  0
   -6.0872   25.9897  -29.4497 H   0  0  0  0  0  0  0  0  0  0  0  0
   -6.2652   22.9532  -31.7635 H   0  0  0  0  0  0  0  0  0  0  0  0
   -8.5932   23.6752  -31.2517 H   0  0  0  0  0  0  0  0  0  0  0  0
  -10.5009   22.1152  -31.6165 H   0  0  0  0  0  0  0  0  0  0  0  0
  -10.0915   19.8207  -32.4945 H   0  0  0  0  0  0  0  0  0  0  0  0
   -8.5360   18.1760  -33.2570 H   0  0  0  0  0  0  0  0  0  0  0  0
  1  2  2  0
  2  3  1  0
  3  4  2  0
  4  5  1  0
  5  6  1  0
  6  7  1  0
  7  8  2  0
  8  9  1  0
  9 10  2  0
 10 11  1  0
  4 12  1  0
 12 13  2  0
 13 14  1  0
 14 15  2  0
 15 16  1  0
 16 17  2  0
 17 18  1  0
 18  2  1  0
 11  7  1  0
 17 12  1  0
  3 19  1  0
  5 20  1  0
  5 21  1  0
 10 22  1  0
 13 23  1  0
 14 24  1  0
 15 25  1  0
 16 26  1  0
 18 27  1  0
M  END
>  <UniqueID>  (1) 
1

>  <SMILES>  (1) 
O=c1cc(CSc2nncs2)c2ccccc2[nH]1

>  <Energy>  (1) 
64.86424871202325

>  <Genealogy>  (1) 
O=c1cc(CSc2nncs2)c2ccccc2[nH]1 (3D coordinates assigned)
O=c1cc(CSc2nncs2)c2ccccc2[nH]1 (optimized conformer: 64.86424871202325 kcal/mol)

>  <smiles>  (1) 
O=c1cc(CSc2nncs2)c2ccccc2[nH]1

>  <score_type>  (1) 
oracle

>  <origin>  (1) 
adgpu

>  <m_score__min__energy>  (1) 
-8.1500000000000004

>  <m_primary>  (1) 
energy

$$$$
1:0
     RDKit          3D

 35 37  0  0  0  0  0  0  0  0999 V2000
   -3.4980   25.2920  -29.7340 O   0  0  0  0  0  0  0  0  0  0  0  0
   -3.5930   24.0340  -30.3250 C   0  0  0  0  0  0  0  0  0  0  0  0
   -2.4780   23.1650  -30.2930 C   0  0  0  0  0  0  0  0  0  0  0  0
   -2.5490   21.8890  -30.8800 C   0  0  0  0  0  0  0  0  0  0  0  0
   -3.7460   21.5170  -31.4880 C   0  0  0  0  0  0  0  0  0  0  0  0
   -4.0250   20.3460  -32.0880 N   0  0  0  0  0  0  0  0  0  0  0  0
   -5.3090   20.4370  -32.5060 C   0  0  0  0  0  0  0  0  0  0  0  0
   -5.8410   21.6790  -32.1750 C   0  0  0  0  0  0  0  0  0  0  0  0
   -7.2580   22.1280  -32.3900 C   0  0  0  0  0  0  0  0  0  0  0  0
   -8.2500   20.9970  -32.1100 C   0  0  0  0  0  0  0  0  0  0  0  0
   -8.0920   19.9130  -33.0990 N   0  0  0  0  0  0  0  0  0  0  0  0
   -8.1820   18.5750  -32.4990 C   0  0  0  0  0  0  0  0  0  0  0  0
   -6.9620   17.7670  -32.8300 C   0  0  0  0  0  0  0  0  0  0  0  0
   -6.1900   17.1010  -31.8660 C   0  0  0  0  0  0  0  0  0  0  0  0
   -5.0790   16.4570  -32.3920 C   0  0  0  0  0  0  0  0  0  0  0  0
   -5.0600   16.7240  -34.0510 S   0  0  0  0  0  0  0  0  0  0  0  0
   -6.4570   17.6540  -34.1210 C   0  0  0  0  0  0  0  0  0  0  0  0
   -4.8300   22.3560  -31.5190 C   0  0  0  0  0  0  0  0  0  0  0  0
   -4.7900   23.6280  -30.9490 C   0  0  0  0  0  0  0  0  0  0  0  0
   -4.1070   25.5650  -28.9710 H   0  0  0  0  0  0  0  0  0  0  0  0
   -1.5473   23.4898  -29.8049 H   0  0  0  0  0  0  0  0  0  0  0  0
   -1.6867   21.2063  -30.8597 H   0  0  0  0  0  0  0  0  0  0  0  0
   -3.3900   19.5250  -32.1970 H   0  0  0  0  0  0  0  0  0  0  0  0
   -5.8551   19.6409  -33.0333 H   0  0  0  0  0  0  0  0  0  0  0  0
   -7.4736   22.9688  -31.7142 H   0  0  0  0  0  0  0  0  0  0  0  0
   -7.3689   22.4338  -33.4408 H   0  0  0  0  0  0  0  0  0  0  0  0
   -8.0671   20.5966  -31.1019 H   0  0  0  0  0  0  0  0  0  0  0  0
   -9.2727   21.3958  -32.1803 H   0  0  0  0  0  0  0  0  0  0  0  0
   -8.8670   19.9960  -33.8000 H   0  0  0  0  0  0  0  0  0  0  0  0
   -8.2657   18.6731  -31.4066 H   0  0  0  0  0  0  0  0  0  0  0  0
   -9.0679   18.0631  -32.9030 H   0  0  0  0  0  0  0  0  0  0  0  0
   -6.4415   17.0904  -30.7952 H   0  0  0  0  0  0  0  0  0  0  0  0
   -4.3402   15.8739  -31.8227 H   0  0  0  0  0  0  0  0  0  0  0  0
   -6.8952   18.0958  -35.0280 H   0  0  0  0  0  0  0  0  0  0  0  0
   -5.6650   24.2936  -30.9852 H   0  0  0  0  0  0  0  0  0  0  0  0
  1  2  1  0
  2  3  2  0
  3  4  1  0
  4  5  2  0
  5  6  1  0
  6  7  1  0
  7  8  2  0
  8  9  1  0
  9 10  1  0
 10 11  1  0
 11 12  1  0
 12 13  1  0
 13 14  1  0
 14 15  2  0
 15 16  1  0
 16 17  1  0
  8 18  1  0
 18 19  2  0
 19  2  1  0
 18  5  1  0
 17 13  2  0
  1 20  1  0
  3 21  1  0
  4 22  1  0
  6 23  1  0
  7 24  1  0
  9 25  1  0
  9 26  1  0
 10 27  1  0
 10 28  1  0
 11 29  1  0
 12 30  1  0
 12 31  1  0
 14 32  1  0
 15 33  1  0
 17 34  1  0
 19 35  1  0
M  END
>  <UniqueID>  (2) 
2

>  <SMILES>  (2) 
Oc1ccc2[nH]cc(CCNCc3ccsc3)c2c1

>  <Energy>  (2) 
90.49286614432613

>  <Genealogy>  (2) 
Oc1ccc2[nH]cc(CCNCc3ccsc3)c2c1 (3D coordinates assigned)
Oc1ccc2[nH]cc(CCNCc3ccsc3)c2c1 (optimized conformer: 90.49286614432613 kcal/mol)

>  <smiles>  (2) 
Oc1ccc2[nH]cc(CCNCc3ccsc3)c2c1

>  <score_type>  (2) 
oracle

>  <origin>  (2) 
adgpu

>  <m_score__min__energy>  (2) 
-7.7699999999999996

>  <m_primary>  (2) 
energy

$$$$
2:0
     RDKit          3D

 49 51  0  0  0  0  0  0  0  0999 V2000
    0.4260   20.8900  -28.3860 C   0  0  0  0  0  0  0  0  0  0  0  0
    0.1170   20.7930  -29.8210 N   0  0  0  0  0  0  0  0  0  0  0  0
   -0.9410   21.7600  -30.2150 C   0  0  0  0  0  0  0  0  0  0  0  0
   -2.3350   21.1200  -30.2890 C   0  0  0  0  0  0  0  0  0  0  0  0
   -2.3720   19.9410  -31.2930 C   0  0  0  0  0  0  0  0  0  0  0  0
   -3.0640   20.4440  -32.8720 S   0  0  0  0  0  0  0  0  0  0  0  0
   -3.2590   19.2410  -33.7510 O   0  0  0  0  0  0  0  0  0  0  0  0
   -2.0960   21.3640  -33.5640 O   0  0  0  0  0  0  0  0  0  0  0  0
   -4.5910   21.3170  -32.6010 C   0  0  0  0  0  0  0  0  0  0  0  0
   -5.8540   20.6880  -32.7250 C   0  0  0  0  0  0  0  0  0  0  0  0
   -6.0490   18.9890  -33.1450 Cl  0  0  0  0  0  0  0  0  0  0  0  0
   -7.0220   21.4150  -32.4790 C   0  0  0  0  0  0  0  0  0  0  0  0
   -6.9590   22.7620  -32.1300 C   0  0  0  0  0  0  0  0  0  0  0  0
   -5.7270   23.4050  -32.0160 C   0  0  0  0  0  0  0  0  0  0  0  0
   -5.7170   24.8040  -31.7040 N   0  0  0  0  0  0  0  0  0  0  0  0
   -5.1960   25.3470  -30.4880 C   0  0  0  0  0  0  0  0  0  0  0  0
   -5.9900   25.8460  -29.6490 O   0  0  0  0  0  0  0  0  0  0  0  0
   -3.7870   25.2950  -30.2230 N   0  0  0  0  0  0  0  0  0  0  0  0
   -3.1320   24.5700  -29.1720 C   0  0  0  0  0  0  0  0  0  0  0  0
   -3.7490   23.4880  -28.5170 C   0  0  0  0  0  0  0  0  0  0  0  0
   -3.0900   22.8220  -27.4800 C   0  0  0  0  0  0  0  0  0  0  0  0
   -1.8150   23.2360  -27.0760 C   0  0  0  0  0  0  0  0  0  0  0  0
   -1.1380   22.5500  -26.0080 C   0  0  0  0  0  0  0  0  0  0  0  0
   -0.5930   21.9990  -25.1480 N   0  0  0  0  0  0  0  0  0  0  0  0
   -1.2060   24.3270  -27.7080 C   0  0  0  0  0  0  0  0  0  0  0  0
   -1.8640   24.9950  -28.7460 C   0  0  0  0  0  0  0  0  0  0  0  0
   -1.2490   26.0820  -29.3580 O   0  0  0  0  0  0  0  0  0  0  0  0
   -4.5330   22.6700  -32.1970 C   0  0  0  0  0  0  0  0  0  0  0  0
   -3.2890   23.2500  -31.9420 O   0  0  0  0  0  0  0  0  0  0  0  0
   -0.9830   19.2990  -31.4880 C   0  0  0  0  0  0  0  0  0  0  0  0
   -0.1680   19.3860  -30.1950 C   0  0  0  0  0  0  0  0  0  0  0  0
   -0.4622   20.6112  -27.8000 H   0  0  0  0  0  0  0  0  0  0  0  0
    1.2546   20.2088  -28.1425 H   0  0  0  0  0  0  0  0  0  0  0  0
    0.7166   21.9226  -28.1425 H   0  0  0  0  0  0  0  0  0  0  0  0
   -0.9667   22.5735  -29.4751 H   0  0  0  0  0  0  0  0  0  0  0  0
   -0.6930   22.1305  -31.2206 H   0  0  0  0  0  0  0  0  0  0  0  0
   -2.6094   20.7471  -29.2912 H   0  0  0  0  0  0  0  0  0  0  0  0
   -3.0458   21.8857  -30.6332 H   0  0  0  0  0  0  0  0  0  0  0  0
   -3.0312   19.1766  -30.8558 H   0  0  0  0  0  0  0  0  0  0  0  0
   -8.0002   20.9188  -32.5618 H   0  0  0  0  0  0  0  0  0  0  0  0
   -7.8871   23.3221  -31.9431 H   0  0  0  0  0  0  0  0  0  0  0  0
   -4.7550   23.1648  -28.8228 H   0  0  0  0  0  0  0  0  0  0  0  0
   -3.5743   21.9703  -26.9799 H   0  0  0  0  0  0  0  0  0  0  0  0
   -0.2077   24.6596  -27.3874 H   0  0  0  0  0  0  0  0  0  0  0  0
   -3.1820   24.1740  -31.5420 H   0  0  0  0  0  0  0  0  0  0  0  0
   -1.1081   18.2424  -31.7670 H   0  0  0  0  0  0  0  0  0  0  0  0
   -0.4488   19.8395  -32.2833 H   0  0  0  0  0  0  0  0  0  0  0  0
   -0.7359   18.9090  -29.3826 H   0  0  0  0  0  0  0  0  0  0  0  0
    0.7913   18.8731  -30.3585 H   0  0  0  0  0  0  0  0  0  0  0  0
  1  2  1  0
  2  3  1  0
  3  4  1  0
  4  5  1  0
  5  6  1  0
  6  7  2  0
  6  8  2  0
  6  9  1  0
  9 10  2  0
 10 11  1  0
 10 12  1  0
 12 13  2  0
 13 14  1  0
 14 15  1  0
 15 16  1  0
 16 17  2  0
 16 18  1  0
 18 19  1  0
 19 20  2  0
 20 21  1  0
 21 22  2  0
 22 23  1  0
 23 24  3  0
 22 25  1  0
 25 26  2  0
 26 27  1  0
 14 28  2  0
 28 29  1  0
  5 30  1  0
 30 31  1  0
 31  2  1  0
 28  9  1  0
 26 19  1  0
  1 32  1  0
  1 33  1  0
  1 34  1  0
  3 35  1  0
  3 36  1  0
  4 37  1  0
  4 38  1  0
  5 39  1  0
 12 40  1  0
 13 41  1  0
 20 42  1  0
 21 43  1  0
 25 44  1  0
 29 45  1  0
 30 46  1  0
 30 47  1  0
 31 48  1  0
 31 49  1  0
M  CHG  3  15  -1  18  -1  27  -1
M  END
>  <UniqueID>  (3) 
3

>  <SMILES>  (3) 
CN1CCC(S(=O)(=O)c2c(Cl)ccc([N-]C(=O)[N-]c3ccc(C#N)cc3[O-])c2O)CC1

>  <Energy>  (3) 
68.32114315154588

>  <Genealogy>  (3) 
CN1CCC(S(=O)(=O)c2c(Cl)ccc([N-]C(=O)[N-]c3ccc(C#N)cc3[O-])c2O)CC1 (protonated)
CN1CCC(S(=O)(=O)c2c(Cl)ccc([N-]C(=O)[N-]c3ccc(C#N)cc3[O-])c2O)CC1 (3D coordinates assigned)
CN1CCC(S(=O)(=O)c2c(Cl)ccc([N-]C(=O)[N-]c3ccc(C#N)cc3[O-])c2O)CC1 (nonaromatic ring conformer: 68.32114315154588 kcal/mol)

>  <smiles>  (3) 
CN1CCC(S(=O)(=O)c2c(Cl)ccc(NC(=O)Nc3ccc(C#N)cc3O)c2O)CC1

>  <score_type>  (3) 
oracle

>  <origin>  (3) 
adgpu

>  <m_score__min__energy>  (3) 
-14.67

>  <m_primary>  (3) 
energy

$$$$
3:0
     RDKit          3D

 58 62  0  0  0  0  0  0  0  0999 V2000
   -3.3810   20.5420  -29.4360 O   0  0  0  0  0  0  0  0  0  0  0  0
   -2.6130   20.8790  -30.3790 C   0  0  0  0  0  0  0  0  0  0  0  0
   -1.5760   21.8450  -30.1400 N   0  0  0  0  0  0  0  0  0  0  0  0
   -1.5920   22.7670  -29.0370 C   0  0  0  0  0  0  0  0  0  0  0  0
   -1.7690   24.1450  -29.2570 C   0  0  0  0  0  0  0  0  0  0  0  0
   -1.7250   25.0470  -28.1900 C   0  0  0  0  0  0  0  0  0  0  0  0
   -1.4890   24.5840  -26.8950 C   0  0  0  0  0  0  0  0  0  0  0  0
   -1.2990   23.2200  -26.6620 C   0  0  0  0  0  0  0  0  0  0  0  0
   -1.3530   22.3040  -27.7240 C   0  0  0  0  0  0  0  0  0  0  0  0
   -1.1970   20.9000  -27.4630 N   0  0  0  0  0  0  0  0  0  0  0  0
   -1.9760   20.2770  -26.3900 C   0  0  0  0  0  0  0  0  0  0  0  0
   -2.1570   18.7840  -26.6860 C   0  0  0  0  0  0  0  0  0  0  0  0
   -0.9100   18.1680  -26.9560 O   0  0  0  0  0  0  0  0  0  0  0  0
   -0.3550   18.7080  -28.1410 C   0  0  0  0  0  0  0  0  0  0  0  0
   -0.0160   20.1890  -27.9560 C   0  0  0  0  0  0  0  0  0  0  0  0
   -2.7750   20.2500  -31.7120 C   0  0  0  0  0  0  0  0  0  0  0  0
   -1.7040   20.2030  -32.6230 C   0  0  0  0  0  0  0  0  0  0  0  0
   -1.8730   19.6300  -33.8850 C   0  0  0  0  0  0  0  0  0  0  0  0
   -3.1110   19.1050  -34.2580 C   0  0  0  0  0  0  0  0  0  0  0  0
   -4.1910   19.1500  -33.3690 C   0  0  0  0  0  0  0  0  0  0  0  0
   -5.7490   18.4760  -33.8400 S   0  0  0  0  0  0  0  0  0  0  0  0
   -6.0890   18.9120  -35.2390 O   0  0  0  0  0  0  0  0  0  0  0  0
   -5.6910   16.9750  -33.8260 O   0  0  0  0  0  0  0  0  0  0  0  0
   -6.9790   19.0440  -32.7570 N   0  0  0  0  0  0  0  0  0  0  0  0
   -8.0590   18.1990  -32.2550 C   0  0  0  0  0  0  0  0  0  0  0  0
   -9.0440   19.1480  -31.5290 C   0  0  0  0  0  0  0  0  0  0  0  0
   -8.4320   20.4930  -31.7240 C   0  0  0  0  0  0  0  0  0  0  0  0
   -8.9130   21.7260  -31.2790 C   0  0  0  0  0  0  0  0  0  0  0  0
   -8.1710   22.8810  -31.5760 C   0  0  0  0  0  0  0  0  0  0  0  0
   -6.9670   22.7820  -32.2990 C   0  0  0  0  0  0  0  0  0  0  0  0
   -6.5000   21.5300  -32.7310 C   0  0  0  0  0  0  0  0  0  0  0  0
   -7.2620   20.3950  -32.4290 C   0  0  0  0  0  0  0  0  0  0  0  0
   -4.0190   19.7170  -32.0980 C   0  0  0  0  0  0  0  0  0  0  0  0
   -0.7270   21.8180  -30.7510 H   0  0  0  0  0  0  0  0  0  0  0  0
   -1.9436   24.5161  -30.2777 H   0  0  0  0  0  0  0  0  0  0  0  0
   -1.8764   26.1214  -28.3712 H   0  0  0  0  0  0  0  0  0  0  0  0
   -1.4525   25.2945  -26.0561 H   0  0  0  0  0  0  0  0  0  0  0  0
   -1.1059   22.8616  -25.6401 H   0  0  0  0  0  0  0  0  0  0  0  0
   -1.4454   20.3990  -25.4342 H   0  0  0  0  0  0  0  0  0  0  0  0
   -2.9627   20.7592  -26.3277 H   0  0  0  0  0  0  0  0  0  0  0  0
   -2.6180   18.2971  -25.8140 H   0  0  0  0  0  0  0  0  0  0  0  0
   -2.8014   18.6764  -27.5710 H   0  0  0  0  0  0  0  0  0  0  0  0
    0.5628   18.1566  -28.3933 H   0  0  0  0  0  0  0  0  0  0  0  0
   -1.0931   18.6136  -28.9512 H   0  0  0  0  0  0  0  0  0  0  0  0
    0.8033   20.2900  -27.2290 H   0  0  0  0  0  0  0  0  0  0  0  0
    0.2955   20.6179  -28.9198 H   0  0  0  0  0  0  0  0  0  0  0  0
   -0.7267   20.6205  -32.3391 H   0  0  0  0  0  0  0  0  0  0  0  0
   -1.0274   19.5923  -34.5876 H   0  0  0  0  0  0  0  0  0  0  0  0
   -3.2384   18.6546  -35.2534 H   0  0  0  0  0  0  0  0  0  0  0  0
   -8.5642   17.6894  -33.0888 H   0  0  0  0  0  0  0  0  0  0  0  0
   -7.6785   17.4200  -31.5780 H   0  0  0  0  0  0  0  0  0  0  0  0
  -10.0443   19.1006  -31.9841 H   0  0  0  0  0  0  0  0  0  0  0  0
   -9.1876   18.8902  -30.4693 H   0  0  0  0  0  0  0  0  0  0  0  0
   -9.8515   21.7913  -30.7089 H   0  0  0  0  0  0  0  0  0  0  0  0
   -8.5315   23.8654  -31.2429 H   0  0  0  0  0  0  0  0  0  0  0  0
   -6.3892   23.6899  -32.5267 H   0  0  0  0  0  0  0  0  0  0  0  0
   -5.5584   21.4432  -33.2930 H   0  0  0  0  0  0  0  0  0  0  0  0
   -4.8650   19.7454  -31.3956 H   0  0  0  0  0  0  0  0  0  0  0  0
  1  2  2  0
  2  3  1  0
  3  4  1  0
  4  5  2  0
  5  6  1  0
  6  7  2  0
  7  8  1  0
  8  9  2  0
  9 10  1  0
 10 11  1  0
 11 12  1  0
 12 13  1  0
 13 14  1  0
 14 15  1  0
  2 16  1  0
 16 17  2  0
 17 18  1  0
 18 19  2  0
 19 20  1  0
 20 21  1  0
 21 22  2  0
 21 23  2  0
 21 24  1  0
 24 25  1  0
 25 26  1  0
 26 27  1  0
 27 28  2  0
 28 29  1  0
 29 30  2  0
 30 31  1  0
 31 32  2  0
 20 33  2  0
  9  4  1  0
 15 10  1  0
 33 16  1  0
 32 24  1  0
 32 27  1  0
  3 34  1  0
  5 35  1  0
  6 36  1  0
  7 37  1  0
  8 38  1  0
 11 39  1  0
 11 40  1  0
 12 41  1  0
 12 42  1  0
 14 43  1  0
 14 44  1  0
 15 45  1  0
 15 46  1  0
 17 47  1  0
 18 48  1  0
 19 49  1  0
 25 50  1  0
 25 51  1  0
 26 52  1  0
 26 53  1  0
 28 54  1  0
 29 55  1  0
 30 56  1  0
 31 57  1  0
 33 58  1  0
M  END
>  <UniqueID>  (4) 
4

>  <SMILES>  (4) 
O=C(Nc1ccccc1N1CCOCC1)c1cccc(S(=O)(=O)N2CCc3ccccc32)c1

>  <Energy>  (4) 
90.4480116850597

>  <Genealogy>  (4) 
O=C(Nc1ccccc1N1CCOCC1)c1cccc(S(=O)(=O)N2CCc3ccccc32)c1 (3D coordinates assigned)
O=C(Nc1ccccc1N1CCOCC1)c1cccc(S(=O)(=O)N2CCc3ccccc32)c1 (nonaromatic ring conformer: 90.4480116850597 kcal/mol)

>  <smiles>  (4) 
O=C(Nc1ccccc1N1CCOCC1)c1cccc(S(=O)(=O)N2CCc3ccccc32)c1

>  <score_type>  (4) 
oracle

>  <origin>  (4) 
adgpu

>  <m_score__min__energy>  (4) 
-10.6

>  <m_primary>  (4) 
energy

$$$$
4:0
     RDKit          3D

 37 39  0  0  0  0  0  0  0  0999 V2000
   -4.0900   25.6400  -30.4840 O   0  0  0  0  0  0  0  0  0  0  0  0
   -3.9620   24.3890  -30.4220 C   0  0  0  0  0  0  0  0  0  0  0  0
   -4.5930   23.5760  -31.4210 N   0  0  0  0  0  0  0  0  0  0  0  0
   -5.8200   23.9190  -32.1370 C   0  0  0  0  0  0  0  0  0  0  0  0
   -6.7970   22.7790  -32.0980 C   0  0  0  0  0  0  0  0  0  0  0  0
   -8.0710   22.9470  -31.5440 C   0  0  0  0  0  0  0  0  0  0  0  0
   -8.9300   21.8530  -31.4680 C   0  0  0  0  0  0  0  0  0  0  0  0
   -8.5230   20.6090  -31.9540 C   0  0  0  0  0  0  0  0  0  0  0  0
   -7.2480   20.4710  -32.5330 C   0  0  0  0  0  0  0  0  0  0  0  0
   -6.7560   19.1710  -33.0710 C   0  0  0  0  0  0  0  0  0  0  0  0
   -7.3290   17.9670  -32.6180 C   0  0  0  0  0  0  0  0  0  0  0  0
   -6.8920   16.7360  -33.1150 C   0  0  0  0  0  0  0  0  0  0  0  0
   -5.8650   16.6880  -34.0590 C   0  0  0  0  0  0  0  0  0  0  0  0
   -5.4310   15.4640  -34.5520 O   0  0  0  0  0  0  0  0  0  0  0  0
   -5.2700   17.8710  -34.5030 C   0  0  0  0  0  0  0  0  0  0  0  0
   -5.7070   19.1050  -34.0110 C   0  0  0  0  0  0  0  0  0  0  0  0
   -6.4270   21.5590  -32.5760 N   0  0  0  0  0  0  0  0  0  0  0  0
   -3.1930   23.8010  -29.3100 C   0  0  0  0  0  0  0  0  0  0  0  0
   -3.5860   22.5720  -28.7560 C   0  0  0  0  0  0  0  0  0  0  0  0
   -2.8520   22.0040  -27.7110 C   0  0  0  0  0  0  0  0  0  0  0  0
   -1.7240   22.6580  -27.2090 C   0  0  0  0  0  0  0  0  0  0  0  0
   -1.3260   23.8810  -27.7550 C   0  0  0  0  0  0  0  0  0  0  0  0
   -2.0510   24.4520  -28.8060 C   0  0  0  0  0  0  0  0  0  0  0  0
   -1.6430   25.6720  -29.3340 O   0  0  0  0  0  0  0  0  0  0  0  0
   -6.2772   24.8020  -31.6665 H   0  0  0  0  0  0  0  0  0  0  0  0
   -5.5680   24.1315  -33.1865 H   0  0  0  0  0  0  0  0  0  0  0  0
   -8.3906   23.9319  -31.1727 H   0  0  0  0  0  0  0  0  0  0  0  0
   -9.9300   21.9693  -31.0247 H   0  0  0  0  0  0  0  0  0  0  0  0
   -9.1956   19.7413  -31.8846 H   0  0  0  0  0  0  0  0  0  0  0  0
   -8.1297   17.9957  -31.8643 H   0  0  0  0  0  0  0  0  0  0  0  0
   -7.3578   15.8042  -32.7619 H   0  0  0  0  0  0  0  0  0  0  0  0
   -4.4557   17.8320  -35.2415 H   0  0  0  0  0  0  0  0  0  0  0  0
   -5.2284   20.0318  -34.3602 H   0  0  0  0  0  0  0  0  0  0  0  0
   -4.4748   22.0544  -29.1459 H   0  0  0  0  0  0  0  0  0  0  0  0
   -3.1631   21.0397  -27.2827 H   0  0  0  0  0  0  0  0  0  0  0  0
   -1.1497   22.2104  -26.3845 H   0  0  0  0  0  0  0  0  0  0  0  0
   -0.4395   24.3965  -27.3570 H   0  0  0  0  0  0  0  0  0  0  0  0
  1  2  2  0
  2  3  1  0
  3  4  1  0
  4  5  1  0
  5  6  2  0
  6  7  1  0
  7  8  2  0
  8  9  1  0
  9 10  1  0
 10 11  2  0
 11 12  1  0
 12 13  2  0
 13 14  1  0
 13 15  1  0
 15 16  2  0
  9 17  2  0
  2 18  1  0
 18 19  2  0
 19 20  1  0
 20 21  2  0
 21 22  1  0
 22 23  2  0
 23 24  1  0
 17  5  1  0
 23 18  1  0
 16 10  1  0
  4 25  1  0
  4 26  1  0
  6 27  1  0
  7 28  1  0
  8 29  1  0
 11 30  1  0
 12 31  1  0
 15 32  1  0
 16 33  1  0
 19 34  1  0
 20 35  1  0
 21 36  1  0
 22 37  1  0
M  CHG  3   3  -1  14  -1  24  -1
M  END
>  <UniqueID>  (5) 
5

>  <SMILES>  (5) 
O=C([N-]Cc1cccc(-c2ccc([O-])cc2)n1)c1ccccc1[O-]

>  <Energy>  (5) 
45.60803889896722

>  <Genealogy>  (5) 
O=C([N-]Cc1cccc(-c2ccc([O-])cc2)n1)c1ccccc1[O-] (protonated)
O=C([N-]Cc1cccc(-c2ccc([O-])cc2)n1)c1ccccc1[O-] (3D coordinates assigned)
O=C([N-]Cc1cccc(-c2ccc([O-])cc2)n1)c1ccccc1[O-] (optimized conformer: 45.60803889896722 kcal/mol)

>  <smiles>  (5) 
O=C(NCc1cccc(-c2ccc(O)cc2)n1)c1ccccc1O

>  <score_type>  (5) 
oracle

>  <origin>  (5) 
adgpu

>  <m_score__min__energy>  (5) 
-13.26

>  <m_primary>  (5) 
energy

$$$$
5:0
     RDKit          3D

 65 69  0  0  0  0  0  0  0  0999 V2000
    2.2960   24.5964  -35.8512 H   0  0  0  0  0  0  0  0  0  0  0  0
    2.0990   23.5150  -35.8090 C   0  0  0  0  0  0  0  0  0  0  0  0
    1.0000   23.0500  -35.1640 N   0  0  0  0  0  0  0  0  0  0  0  0
    0.7360   21.7180  -35.0910 C   0  0  0  0  0  0  0  0  0  0  0  0
   -0.3400   21.3200  -34.4770 N   0  0  0  0  0  0  0  0  0  0  0  0
   -0.7740   19.9690  -34.2460 C   0  0  0  0  0  0  0  0  0  0  0  0
   -2.1490   19.7200  -34.1520 C   0  0  0  0  0  0  0  0  0  0  0  0
   -2.8598   20.5452  -34.3061 H   0  0  0  0  0  0  0  0  0  0  0  0
   -2.6360   18.4330  -33.8640 C   0  0  0  0  0  0  0  0  0  0  0  0
   -4.0980   18.1830  -33.7510 C   0  0  0  0  0  0  0  0  0  0  0  0
   -4.6750   17.0360  -34.3300 C   0  0  0  0  0  0  0  0  0  0  0  0
   -4.0377   16.3104  -34.8567 H   0  0  0  0  0  0  0  0  0  0  0  0
   -6.0490   16.8140  -34.2400 C   0  0  0  0  0  0  0  0  0  0  0  0
   -6.4893   15.9150  -34.6961 H   0  0  0  0  0  0  0  0  0  0  0  0
   -6.8680   17.7270  -33.5740 C   0  0  0  0  0  0  0  0  0  0  0  0
   -7.9524   17.5511  -33.5186 H   0  0  0  0  0  0  0  0  0  0  0  0
   -6.3140   18.8680  -32.9750 C   0  0  0  0  0  0  0  0  0  0  0  0
   -7.1490   19.8450  -32.3310 N   0  0  0  0  0  0  0  0  0  0  0  0
   -6.7880   21.1130  -32.1960 N   0  0  0  0  0  0  0  0  0  0  0  0
   -7.7850   21.7570  -31.5600 C   0  0  0  0  0  0  0  0  0  0  0  0
   -7.7540   23.2220  -31.2260 C   0  0  0  0  0  0  0  0  0  0  0  0
   -7.5970   23.7933  -32.1528 H   0  0  0  0  0  0  0  0  0  0  0  0
   -8.7130   23.4809  -30.7535 H   0  0  0  0  0  0  0  0  0  0  0  0
   -6.6710   23.5560  -30.2700 N   0  0  0  0  0  0  0  0  0  0  0  0
   -6.8220   22.9870  -29.4020 H   0  0  0  0  0  0  0  0  0  0  0  0
   -6.6910   24.9980  -29.8790 C   0  0  0  0  0  0  0  0  0  0  0  0
   -7.6628   25.4260  -30.1662 H   0  0  0  0  0  0  0  0  0  0  0  0
   -6.5266   25.0474  -28.7925 H   0  0  0  0  0  0  0  0  0  0  0  0
   -5.5760   25.8170  -30.5520 C   0  0  0  0  0  0  0  0  0  0  0  0
   -5.7318   25.8000  -31.6408 H   0  0  0  0  0  0  0  0  0  0  0  0
   -5.6245   26.8424  -30.1567 H   0  0  0  0  0  0  0  0  0  0  0  0
   -4.2360   25.2810  -30.2560 N   0  0  0  0  0  0  0  0  0  0  0  0
   -3.9010   25.7050  -29.3600 H   0  0  0  0  0  0  0  0  0  0  0  0
   -4.2000   23.8130  -30.1100 C   0  0  0  0  0  0  0  0  0  0  0  0
   -3.2541   23.4382  -30.5282 H   0  0  0  0  0  0  0  0  0  0  0  0
   -4.2844   23.5773  -29.0389 H   0  0  0  0  0  0  0  0  0  0  0  0
   -5.3670   23.1310  -30.8370 C   0  0  0  0  0  0  0  0  0  0  0  0
   -5.3335   23.4012  -31.9028 H   0  0  0  0  0  0  0  0  0  0  0  0
   -5.2691   22.0426  -30.7109 H   0  0  0  0  0  0  0  0  0  0  0  0
   -8.8110   20.8770  -31.2730 C   0  0  0  0  0  0  0  0  0  0  0  0
   -9.7645   21.0918  -30.7683 H   0  0  0  0  0  0  0  0  0  0  0  0
   -8.3650   19.6660  -31.7650 C   0  0  0  0  0  0  0  0  0  0  0  0
   -9.1080   18.3690  -31.6570 C   0  0  0  0  0  0  0  0  0  0  0  0
   -9.2526   18.1165  -30.5962 H   0  0  0  0  0  0  0  0  0  0  0  0
  -10.0877   18.4657  -32.1478 H   0  0  0  0  0  0  0  0  0  0  0  0
   -8.5290   17.5728  -32.1478 H   0  0  0  0  0  0  0  0  0  0  0  0
   -4.9320   19.0920  -33.0750 C   0  0  0  0  0  0  0  0  0  0  0  0
   -4.4945   19.9918  -32.6179 H   0  0  0  0  0  0  0  0  0  0  0  0
   -1.7150   17.3870  -33.6700 C   0  0  0  0  0  0  0  0  0  0  0  0
   -2.0811   16.3742  -33.4461 H   0  0  0  0  0  0  0  0  0  0  0  0
   -0.3350   17.6220  -33.7590 C   0  0  0  0  0  0  0  0  0  0  0  0
    0.6450   16.5140  -33.5000 C   0  0  0  0  0  0  0  0  0  0  0  0
    0.7658   16.3774  -32.4152 H   0  0  0  0  0  0  0  0  0  0  0  0
    0.2708   15.5814  -33.9475 H   0  0  0  0  0  0  0  0  0  0  0  0
    1.6163   16.7715  -33.9475 H   0  0  0  0  0  0  0  0  0  0  0  0
    0.1320   18.9170  -34.0180 C   0  0  0  0  0  0  0  0  0  0  0  0
    1.2142   19.1127  -34.0433 H   0  0  0  0  0  0  0  0  0  0  0  0
    1.5800   20.8350  -35.6920 N   0  0  0  0  0  0  0  0  0  0  0  0
    2.6960   21.2530  -36.3480 C   0  0  0  0  0  0  0  0  0  0  0  0
    3.6190   20.2510  -36.9780 C   0  0  0  0  0  0  0  0  0  0  0  0
    4.6020   19.8890  -36.0740 F   0  0  0  0  0  0  0  0  0  0  0  0
    2.9040   19.1240  -37.3430 F   0  0  0  0  0  0  0  0  0  0  0  0
    4.2220   20.7840  -38.1050 F   0  0  0  0  0  0  0  0  0  0  0  0
    2.9780   22.6220  -36.4180 C   0  0  0  0  0  0  0  0  0  0  0  0
    3.8742   22.9851  -36.9425 H   0  0  0  0  0  0  0  0  0  0  0  0
  1  2  1  0
  2  3  1  0
  3  4  1  0
  4  5  2  0
  5  6  1  0
  6  7  2  0
  7  8  1  0
  7  9  1  0
  9 10  1  0
 10 11  2  0
 11 12  1  0
 11 13  1  0
 13 14  1  0
 13 15  2  0
 15 16  1  0
 15 17  1  0
 17 18  1  0
 18 19  1  0
 19 20  2  0
 20 21  1  0
 21 22  1  0
 21 23  1  0
 21 24  1  0
 24 25  1  0
 24 26  1  0
 26 27  1  0
 26 28  1  0
 26 29  1  0
 29 30  1  0
 29 31  1  0
 29 32  1  0
 32 33  1  0
 32 34  1  0
 34 35  1  0
 34 36  1  0
 34 37  1  0
 37 38  1  0
 37 39  1  0
 20 40  1  0
 40 41  1  0
 40 42  2  0
 42 43  1  0
 43 44  1  0
 43 45  1  0
 43 46  1  0
 17 47  2  0
 47 48  1  0
  9 49  2  0
 49 50  1  0
 49 51  1  0
 51 52  1  0
 52 53  1  0
 52 54  1  0
 52 55  1  0
 51 56  2  0
 56 57  1  0
  4 58  1  0
 58 59  2  0
 59 60  1  0
 60 61  1  0
 60 62  1  0
 60 63  1  0
 59 64  1  0
 64 65  1  0
 64  2  2  0
 56  6  1  0
 47 10  1  0
 42 18  1  0
 37 24  1  0
M  CHG  2   3  -1  24   1
M  END
>  <UniqueID>  (6) 
6

>  <SMILES>  (6) 
Cc1cc(/N=c2\nc(C(F)(F)F)cc[n-]2)cc(-c2cccc(-n3nc(C[NH+]4CCNCC4)cc3C)c2)c1

>  <Energy>  (6) 
125.95529939396543

>  <Genealogy>  (6) 
Cc1cc(N=c2nc(C(F)(F)F)cc[n-]2)cc(-c2cccc(-n3nc(C[NH+]4CCNCC4)cc3C)c2)c1 (protonated)
Cc1cc(/N=c2\nc(C(F)(F)F)cc[n-]2)cc(-c2cccc(-n3nc(C[NH+]4CCNCC4)cc3C)c2)c1 (cis-trans isomerization)
Cc1cc(/N=c2\nc(C(F)(F)F)cc[n-]2)cc(-c2cccc(-n3nc(C[NH+]4CCNCC4)cc3C)c2)c1 (3D coordinates assigned)
Cc1cc(/N=c2\nc(C(F)(F)F)cc[n-]2)cc(-c2cccc(-n3nc(C[NH+]4CCNCC4)cc3C)c2)c1 (nonaromatic ring conformer: 125.95529939396543 kcal/mol)

>  <smiles>  (6) 
Cc1cc(N=c2nc(C(F)(F)F)cc[nH]2)cc(-c2cccc(-n3nc(CN4CCNCC4)cc3C)c2)c1

>  <score_type>  (6) 
oracle

>  <origin>  (6) 
adgpu

>  <m_score__min__energy>  (6) 
-10.470000000000001

>  <m_primary>  (6) 
energy

$$$$
6:0
     RDKit          3D

 59 62  0  0  0  0  0  0  0  0999 V2000
    2.1090   18.2700  -31.6130 C   0  0  0  0  0  0  0  0  0  0  0  0
    1.8160   19.6210  -31.9940 O   0  0  0  0  0  0  0  0  0  0  0  0
    0.5300   20.1500  -32.2020 C   0  0  0  0  0  0  0  0  0  0  0  0
    0.2800   20.7730  -33.4280 C   0  0  0  0  0  0  0  0  0  0  0  0
   -0.9820   21.2800  -33.7190 C   0  0  0  0  0  0  0  0  0  0  0  0
   -2.0160   21.1660  -32.7980 C   0  0  0  0  0  0  0  0  0  0  0  0
   -1.7990   20.5140  -31.5840 C   0  0  0  0  0  0  0  0  0  0  0  0
   -0.5280   20.0030  -31.2690 C   0  0  0  0  0  0  0  0  0  0  0  0
   -0.3400   19.2430  -30.0660 N   0  0  0  0  0  0  0  0  0  0  0  0
   -0.2260   19.9430  -28.4840 S   0  0  0  0  0  0  0  0  0  0  0  0
    1.0800   20.6680  -28.3610 O   0  0  0  0  0  0  0  0  0  0  0  0
   -0.2850   18.8540  -27.4530 O   0  0  0  0  0  0  0  0  0  0  0  0
   -1.5520   21.0860  -28.2750 C   0  0  0  0  0  0  0  0  0  0  0  0
   -2.6970   20.7320  -27.5500 C   0  0  0  0  0  0  0  0  0  0  0  0
   -3.7830   21.6020  -27.4840 C   0  0  0  0  0  0  0  0  0  0  0  0
   -3.7290   22.8380  -28.1300 C   0  0  0  0  0  0  0  0  0  0  0  0
   -2.5760   23.2260  -28.8370 C   0  0  0  0  0  0  0  0  0  0  0  0
   -2.5070   24.5540  -29.4870 C   0  0  0  0  0  0  0  0  0  0  0  0
   -1.6040   25.3730  -29.1700 O   0  0  0  0  0  0  0  0  0  0  0  0
   -3.4840   24.9350  -30.4520 N   0  0  0  0  0  0  0  0  0  0  0  0
   -4.6840   24.1820  -30.6370 C   0  0  0  0  0  0  0  0  0  0  0  0
   -5.8650   24.5420  -29.9780 C   0  0  0  0  0  0  0  0  0  0  0  0
   -7.0180   23.7650  -30.1310 C   0  0  0  0  0  0  0  0  0  0  0  0
   -7.0000   22.6320  -30.9490 C   0  0  0  0  0  0  0  0  0  0  0  0
   -5.8270   22.2740  -31.6180 C   0  0  0  0  0  0  0  0  0  0  0  0
   -5.8120   20.8720  -32.6920 S   0  0  0  0  0  0  0  0  0  0  0  0
   -7.1350   20.8010  -33.4090 O   0  0  0  0  0  0  0  0  0  0  0  0
   -4.7370   21.0740  -33.7250 O   0  0  0  0  0  0  0  0  0  0  0  0
   -5.4900   19.3670  -31.8430 N   0  0  0  0  0  0  0  0  0  0  0  0
   -6.6950   18.5570  -31.5640 C   0  0  0  0  0  0  0  0  0  0  0  0
   -7.1360   17.7160  -32.7830 C   0  0  0  0  0  0  0  0  0  0  0  0
   -6.4280   18.0750  -33.9450 O   0  0  0  0  0  0  0  0  0  0  0  0
   -5.0420   17.8300  -33.7640 C   0  0  0  0  0  0  0  0  0  0  0  0
   -4.4700   18.5610  -32.5310 C   0  0  0  0  0  0  0  0  0  0  0  0
   -4.6680   23.0430  -31.4470 C   0  0  0  0  0  0  0  0  0  0  0  0
   -1.4910   22.3360  -28.9090 C   0  0  0  0  0  0  0  0  0  0  0  0
    2.1255   18.1938  -30.5158 H   0  0  0  0  0  0  0  0  0  0  0  0
    1.3354   17.5995  -32.0155 H   0  0  0  0  0  0  0  0  0  0  0  0
    3.0909   17.9803  -32.0155 H   0  0  0  0  0  0  0  0  0  0  0  0
    1.0881   20.8631  -34.1689 H   0  0  0  0  0  0  0  0  0  0  0  0
   -1.1627   21.7746  -34.6848 H   0  0  0  0  0  0  0  0  0  0  0  0
   -3.0052   21.5896  -33.0260 H   0  0  0  0  0  0  0  0  0  0  0  0
   -2.6272   20.3991  -30.8692 H   0  0  0  0  0  0  0  0  0  0  0  0
   -2.7388   19.7632  -27.0307 H   0  0  0  0  0  0  0  0  0  0  0  0
   -4.6840   21.3145  -26.9222 H   0  0  0  0  0  0  0  0  0  0  0  0
   -4.5952   23.5146  -28.0861 H   0  0  0  0  0  0  0  0  0  0  0  0
   -5.8865   25.4371  -29.3389 H   0  0  0  0  0  0  0  0  0  0  0  0
   -7.9424   24.0468  -29.6055 H   0  0  0  0  0  0  0  0  0  0  0  0
   -7.9084   22.0228  -31.0659 H   0  0  0  0  0  0  0  0  0  0  0  0
   -6.4777   17.8778  -30.7265 H   0  0  0  0  0  0  0  0  0  0  0  0
   -7.5146   19.2489  -31.3203 H   0  0  0  0  0  0  0  0  0  0  0  0
   -6.9530   16.6529  -32.5679 H   0  0  0  0  0  0  0  0  0  0  0  0
   -8.2053   17.9032  -32.9607 H   0  0  0  0  0  0  0  0  0  0  0  0
   -4.8885   16.7483  -33.6358 H   0  0  0  0  0  0  0  0  0  0  0  0
   -4.5161   18.2099  -34.6523 H   0  0  0  0  0  0  0  0  0  0  0  0
   -4.0746   17.8136  -31.8274 H   0  0  0  0  0  0  0  0  0  0  0  0
   -3.6780   19.2411  -32.8777 H   0  0  0  0  0  0  0  0  0  0  0  0
   -3.7378   22.7477  -31.9545 H   0  0  0  0  0  0  0  0  0  0  0  0
   -0.5869   22.6216  -29.4667 H   0  0  0  0  0  0  0  0  0  0  0  0
  1  2  1  0
  2  3  1  0
  3  4  2  0
  4  5  1  0
  5  6  2  0
  6  7  1  0
  7  8  2  0
  8  9  1  0
  9 10  1  0
 10 11  2  0
 10 12  2  0
 10 13  1  0
 13 14  2  0
 14 15  1  0
 15 16  2  0
 16 17  1  0
 17 18  1  0
 18 19  2  0
 18 20  1  0
 20 21  1  0
 21 22  2  0
 22 23  1  0
 23 24  2  0
 24 25  1  0
 25 26  1  0
 26 27  2  0
 26 28  2  0
 26 29  1  0
 29 30  1  0
 30 31  1  0
 31 32  1  0
 32 33  1  0
 33 34  1  0
 25 35  2  0
 17 36  2  0
  8  3  1  0
 36 13  1  0
 35 21  1  0
 34 29  1  0
  1 37  1  0
  1 38  1  0
  1 39  1  0
  4 40  1  0
  5 41  1  0
  6 42  1  0
  7 43  1  0
 14 44  1  0
 15 45  1  0
 16 46  1  0
 22 47  1  0
 23 48  1  0
 24 49  1  0
 30 50  1  0
 30 51  1  0
 31 52  1  0
 31 53  1  0
 33 54  1  0
 33 55  1  0
 34 56  1  0
 34 57  1  0
 35 58  1  0
 36 59  1  0
M  CHG  2   9  -1  20  -1
M  END
>  <UniqueID>  (7) 
7

>  <SMILES>  (7) 
COc1ccccc1[N-]S(=O)(=O)c1cccc(C(=O)[N-]c2cccc(S(=O)(=O)N3CCOCC3)c2)c1

>  <Energy>  (7) 
99.61625299373537

>  <Genealogy>  (7) 
COc1ccccc1[N-]S(=O)(=O)c1cccc(C(=O)[N-]c2cccc(S(=O)(=O)N3CCOCC3)c2)c1 (protonated)
COc1ccccc1[N-]S(=O)(=O)c1cccc(C(=O)[N-]c2cccc(S(=O)(=O)N3CCOCC3)c2)c1 (3D coordinates assigned)
COc1ccccc1[N-]S(=O)(=O)c1cccc(C(=O)[N-]c2cccc(S(=O)(=O)N3CCOCC3)c2)c1 (nonaromatic ring conformer: 99.61625299373537 kcal/mol)

>  <smiles>  (7) 
COc1ccccc1NS(=O)(=O)c1cccc(C(=O)Nc2cccc(S(=O)(=O)N3CCOCC3)c2)c1

>  <score_type>  (7) 
oracle

>  <origin>  (7) 
adgpu

>  <m_score__min__energy>  (7) 
-11.880000000000001

>  <m_primary>  (7) 
energy

$$$$
7:0
     RDKit          3D

 41 43  0  0  0  0  0  0  0  0999 V2000
   -5.6400   16.8510  -34.2080 C   0  0  0  0  0  0  0  0  0  0  0  0
   -6.7190   17.0130  -33.2920 O   0  0  0  0  0  0  0  0  0  0  0  0
   -7.2050   18.2530  -32.8530 C   0  0  0  0  0  0  0  0  0  0  0  0
   -8.3380   18.2700  -32.0300 C   0  0  0  0  0  0  0  0  0  0  0  0
   -8.8620   19.4790  -31.5670 C   0  0  0  0  0  0  0  0  0  0  0  0
   -8.2560   20.6960  -31.9210 C   0  0  0  0  0  0  0  0  0  0  0  0
   -8.7920   21.9970  -31.3910 C   0  0  0  0  0  0  0  0  0  0  0  0
   -8.0760   23.4190  -32.2890 S   0  0  0  0  0  0  0  0  0  0  0  0
   -6.6820   23.6090  -31.1820 C   0  0  0  0  0  0  0  0  0  0  0  0
   -5.7710   24.5920  -31.4040 N   0  0  0  0  0  0  0  0  0  0  0  0
   -4.6900   24.7430  -30.5970 C   0  0  0  0  0  0  0  0  0  0  0  0
   -3.8650   25.6640  -30.8350 O   0  0  0  0  0  0  0  0  0  0  0  0
   -4.5050   23.8740  -29.5110 C   0  0  0  0  0  0  0  0  0  0  0  0
   -3.1240   24.0410  -28.4270 S   0  0  0  0  0  0  0  0  0  0  0  0
   -3.5880   24.5510  -27.0910 O   0  0  0  0  0  0  0  0  0  0  0  0
   -2.1360   25.0280  -28.9860 O   0  0  0  0  0  0  0  0  0  0  0  0
   -2.3410   22.4760  -28.2460 C   0  0  0  0  0  0  0  0  0  0  0  0
   -2.9980   21.4380  -27.5700 C   0  0  0  0  0  0  0  0  0  0  0  0
   -2.3740   20.1970  -27.4070 C   0  0  0  0  0  0  0  0  0  0  0  0
   -1.0880   19.9880  -27.9150 C   0  0  0  0  0  0  0  0  0  0  0  0
   -0.3040   18.4320  -27.7100 Cl  0  0  0  0  0  0  0  0  0  0  0  0
   -0.4250   21.0230  -28.5840 C   0  0  0  0  0  0  0  0  0  0  0  0
   -1.0490   22.2630  -28.7480 C   0  0  0  0  0  0  0  0  0  0  0  0
   -5.4670   22.8830  -29.2910 C   0  0  0  0  0  0  0  0  0  0  0  0
   -6.5300   22.7670  -30.1280 N   0  0  0  0  0  0  0  0  0  0  0  0
   -7.1190   20.6830  -32.7420 C   0  0  0  0  0  0  0  0  0  0  0  0
   -6.5960   19.4730  -33.2080 C   0  0  0  0  0  0  0  0  0  0  0  0
   -4.7029   16.7103  -33.6495 H   0  0  0  0  0  0  0  0  0  0  0  0
   -5.8254   15.9706  -34.8409 H   0  0  0  0  0  0  0  0  0  0  0  0
   -5.5587   17.7470  -34.8409 H   0  0  0  0  0  0  0  0  0  0  0  0
   -8.8195   17.3227  -31.7457 H   0  0  0  0  0  0  0  0  0  0  0  0
   -9.7532   19.4783  -30.9222 H   0  0  0  0  0  0  0  0  0  0  0  0
   -9.8854   22.0103  -31.5106 H   0  0  0  0  0  0  0  0  0  0  0  0
   -8.5179   22.0808  -30.3290 H   0  0  0  0  0  0  0  0  0  0  0  0
   -4.0083   21.6004  -27.1663 H   0  0  0  0  0  0  0  0  0  0  0  0
   -2.8951   19.3849  -26.8789 H   0  0  0  0  0  0  0  0  0  0  0  0
    0.5879   20.8606  -28.9811 H   0  0  0  0  0  0  0  0  0  0  0  0
   -0.5245   23.0750  -29.2729 H   0  0  0  0  0  0  0  0  0  0  0  0
   -5.3623   22.1961  -28.4382 H   0  0  0  0  0  0  0  0  0  0  0  0
   -6.6356   21.6309  -33.0211 H   0  0  0  0  0  0  0  0  0  0  0  0
   -5.7058   19.4735  -33.8542 H   0  0  0  0  0  0  0  0  0  0  0  0
  1  2  1  0
  2  3  1  0
  3  4  2  0
  4  5  1  0
  5  6  2  0
  6  7  1  0
  7  8  1  0
  8  9  1  0
  9 10  2  0
 10 11  1  0
 11 12  2  0
 11 13  1  0
 13 14  1  0
 14 15  2  0
 14 16  2  0
 14 17  1  0
 17 18  2  0
 18 19  1  0
 19 20  2  0
 20 21  1  0
 20 22  1  0
 22 23  2  0
 13 24  2  0
 24 25  1  0
  6 26  1  0
 26 27  2  0
 27  3  1  0
 25  9  1  0
 23 17  1  0
  1 28  1  0
  1 29  1  0
  1 30  1  0
  4 31  1  0
  5 32  1  0
  7 33  1  0
  7 34  1  0
 18 35  1  0
 19 36  1  0
 22 37  1  0
 23 38  1  0
 24 39  1  0
 26 40  1  0
 27 41  1  0
M  CHG  1  25  -1
M  END
>  <UniqueID>  (8) 
8

>  <SMILES>  (8) 
COc1ccc(CSc2nc(=O)c(S(=O)(=O)c3ccc(Cl)cc3)c[n-]2)cc1

>  <Energy>  (8) 
41.949657972939505

>  <Genealogy>  (8) 
COc1ccc(CSc2nc(=O)c(S(=O)(=O)c3ccc(Cl)cc3)c[n-]2)cc1 (protonated)
COc1ccc(CSc2nc(=O)c(S(=O)(=O)c3ccc(Cl)cc3)c[n-]2)cc1 (3D coordinates assigned)
COc1ccc(CSc2nc(=O)c(S(=O)(=O)c3ccc(Cl)cc3)c[n-]2)cc1 (optimized conformer: 41.949657972939505 kcal/mol)

>  <smiles>  (8) 
COc1ccc(CSc2nc(=O)c(S(=O)(=O)c3ccc(Cl)cc3)c[nH]2)cc1

>  <score_type>  (8) 
oracle

>  <origin>  (8) 
adgpu

>  <m_score__min__energy>  (8) 
-10.390000000000001

>  <m_primary>  (8) 
energy

$$$$
8:0
     RDKit          3D

 42 44  0  0  0  0  0  0  0  0999 V2000
   -4.5440   24.5510  -27.8450 N   0  0  0  0  0  0  0  0  0  0  0  0
   -3.3690   23.8490  -28.2730 C   0  0  0  0  0  0  0  0  0  0  0  0
   -2.7370   22.9580  -27.3900 C   0  0  0  0  0  0  0  0  0  0  0  0
   -1.5880   22.2670  -27.7850 C   0  0  0  0  0  0  0  0  0  0  0  0
   -1.0590   22.4650  -29.0610 C   0  0  0  0  0  0  0  0  0  0  0  0
   -1.6800   23.3480  -29.9490 C   0  0  0  0  0  0  0  0  0  0  0  0
   -2.8520   24.0300  -29.5720 C   0  0  0  0  0  0  0  0  0  0  0  0
   -3.4980   24.9420  -30.4760 N   0  0  0  0  0  0  0  0  0  0  0  0
   -4.9110   25.1570  -30.6010 C   0  0  0  0  0  0  0  0  0  0  0  0
   -5.3640   26.3150  -30.3900 O   0  0  0  0  0  0  0  0  0  0  0  0
   -5.8550   24.0540  -30.9020 C   0  0  0  0  0  0  0  0  0  0  0  0
   -5.8450   23.4440  -32.1690 C   0  0  0  0  0  0  0  0  0  0  0  0
   -6.7520   22.4230  -32.4710 C   0  0  0  0  0  0  0  0  0  0  0  0
   -7.6840   22.0020  -31.5160 C   0  0  0  0  0  0  0  0  0  0  0  0
   -8.8470   20.7450  -31.9310 S   0  0  0  0  0  0  0  0  0  0  0  0
  -10.1720   21.3410  -32.3180 O   0  0  0  0  0  0  0  0  0  0  0  0
   -9.0480   19.8610  -30.7310 O   0  0  0  0  0  0  0  0  0  0  0  0
   -8.2380   19.7930  -33.2500 N   0  0  0  0  0  0  0  0  0  0  0  0
   -7.1280   18.8820  -33.1350 C   0  0  0  0  0  0  0  0  0  0  0  0
   -6.1010   18.9310  -34.0940 C   0  0  0  0  0  0  0  0  0  0  0  0
   -5.0130   18.0550  -34.0140 C   0  0  0  0  0  0  0  0  0  0  0  0
   -4.9370   17.1260  -32.9740 C   0  0  0  0  0  0  0  0  0  0  0  0
   -5.9500   17.0700  -32.0140 C   0  0  0  0  0  0  0  0  0  0  0  0
   -7.0380   17.9450  -32.0870 C   0  0  0  0  0  0  0  0  0  0  0  0
   -7.7070   22.6110  -30.2540 C   0  0  0  0  0  0  0  0  0  0  0  0
   -6.8060   23.6350  -29.9530 C   0  0  0  0  0  0  0  0  0  0  0  0
   -5.0640   24.2670  -26.9850 H   0  0  0  0  0  0  0  0  0  0  0  0
   -4.9090   25.3620  -28.3920 H   0  0  0  0  0  0  0  0  0  0  0  0
   -3.1487   22.8031  -26.3818 H   0  0  0  0  0  0  0  0  0  0  0  0
   -1.1008   21.5672  -27.0901 H   0  0  0  0  0  0  0  0  0  0  0  0
   -0.1514   21.9251  -29.3687 H   0  0  0  0  0  0  0  0  0  0  0  0
   -1.2502   23.5108  -30.9484 H   0  0  0  0  0  0  0  0  0  0  0  0
   -5.1191   23.7720  -32.9276 H   0  0  0  0  0  0  0  0  0  0  0  0
   -6.7326   21.9490  -33.4634 H   0  0  0  0  0  0  0  0  0  0  0  0
   -8.7770   19.8250  -34.1430 H   0  0  0  0  0  0  0  0  0  0  0  0
   -6.1533   19.6633  -34.9131 H   0  0  0  0  0  0  0  0  0  0  0  0
   -4.2164   18.0981  -34.7713 H   0  0  0  0  0  0  0  0  0  0  0  0
   -4.0802   16.4390  -32.9110 H   0  0  0  0  0  0  0  0  0  0  0  0
   -5.8916   16.3350  -31.1977 H   0  0  0  0  0  0  0  0  0  0  0  0
   -7.8276   17.9015  -31.3224 H   0  0  0  0  0  0  0  0  0  0  0  0
   -8.4361   22.2819  -29.4990 H   0  0  0  0  0  0  0  0  0  0  0  0
   -6.8401   24.1182  -28.9654 H   0  0  0  0  0  0  0  0  0  0  0  0
  1  2  1  0
  2  3  2  0
  3  4  1  0
  4  5  2  0
  5  6  1  0
  6  7  2  0
  7  8  1  0
  8  9  1  0
  9 10  2  0
  9 11  1  0
 11 12  2  0
 12 13  1  0
 13 14  2  0
 14 15  1  0
 15 16  2  0
 15 17  2  0
 15 18  1  0
 18 19  1  0
 19 20  2  0
 20 21  1  0
 21 22  2  0
 22 23  1  0
 23 24  2  0
 14 25  1  0
 25 26  2  0
  7  2  1  0
 26 11  1  0
 24 19  1  0
  1 27  1  0
  1 28  1  0
  3 29  1  0
  4 30  1  0
  5 31  1  0
  6 32  1  0
 12 33  1  0
 13 34  1  0
 18 35  1  0
 20 36  1  0
 21 37  1  0
 22 38  1  0
 23 39  1  0
 24 40  1  0
 25 41  1  0
 26 42  1  0
M  CHG  1   8  -1
M  END
>  <UniqueID>  (9) 
9

>  <SMILES>  (9) 
Nc1ccccc1[N-]C(=O)c1ccc(S(=O)(=O)Nc2ccccc2)cc1

>  <Energy>  (9) 
54.45952353615397

>  <Genealogy>  (9) 
Nc1ccccc1[N-]C(=O)c1ccc(S(=O)(=O)Nc2ccccc2)cc1 (protonated)
Nc1ccccc1[N-]C(=O)c1ccc(S(=O)(=O)Nc2ccccc2)cc1 (3D coordinates assigned)
Nc1ccccc1[N-]C(=O)c1ccc(S(=O)(=O)Nc2ccccc2)cc1 (optimized conformer: 54.45952353615397 kcal/mol)

>  <smiles>  (9) 
Nc1ccccc1NC(=O)c1ccc(S(=O)(=O)Nc2ccccc2)cc1

>  <score_type>  (9) 
oracle

>  <origin>  (9) 
adgpu

>  <m_score__min__energy>  (9) 
-12.6

>  <m_primary>  (9) 
energy

$$$$
9:0
     RDKit          3D

 48 50  0  0  0  0  0  0  0  0999 V2000
   -3.1110   19.0340  -26.5990 C   0  0  0  0  0  0  0  0  0  0  0  0
   -1.3820   18.7620  -27.0990 S   0  0  0  0  0  0  0  0  0  0  0  0
   -1.3840   20.1190  -28.2730 C   0  0  0  0  0  0  0  0  0  0  0  0
   -0.7570   19.9700  -29.5150 C   0  0  0  0  0  0  0  0  0  0  0  0
   -0.7370   21.0340  -30.4200 C   0  0  0  0  0  0  0  0  0  0  0  0
   -1.3500   22.2460  -30.0890 C   0  0  0  0  0  0  0  0  0  0  0  0
   -2.0000   22.4000  -28.8580 C   0  0  0  0  0  0  0  0  0  0  0  0
   -2.5980   23.6680  -28.5500 N   0  0  0  0  0  0  0  0  0  0  0  0
   -2.4860   24.8730  -29.3200 C   0  0  0  0  0  0  0  0  0  0  0  0
   -1.4850   25.6250  -29.1850 O   0  0  0  0  0  0  0  0  0  0  0  0
   -3.5600   25.2940  -30.1670 N   0  0  0  0  0  0  0  0  0  0  0  0
   -4.5990   24.4570  -30.6930 C   0  0  0  0  0  0  0  0  0  0  0  0
   -5.9540   24.8300  -30.6340 C   0  0  0  0  0  0  0  0  0  0  0  0
   -6.9380   23.9770  -31.1370 C   0  0  0  0  0  0  0  0  0  0  0  0
   -6.5860   22.7410  -31.6850 C   0  0  0  0  0  0  0  0  0  0  0  0
   -5.2420   22.3440  -31.7180 C   0  0  0  0  0  0  0  0  0  0  0  0
   -4.7970   20.7660  -32.3730 S   0  0  0  0  0  0  0  0  0  0  0  0
   -4.0780   19.9760  -31.3150 O   0  0  0  0  0  0  0  0  0  0  0  0
   -3.8550   20.9570  -33.5300 O   0  0  0  0  0  0  0  0  0  0  0  0
   -6.2010   19.8720  -32.9070 N   0  0  0  0  0  0  0  0  0  0  0  0
   -5.9890   19.2700  -34.2480 C   0  0  0  0  0  0  0  0  0  0  0  0
   -5.7050   17.7620  -34.1890 C   0  0  0  0  0  0  0  0  0  0  0  0
   -6.8580   17.0060  -33.5050 C   0  0  0  0  0  0  0  0  0  0  0  0
   -7.5690   17.8490  -32.4320 C   0  0  0  0  0  0  0  0  0  0  0  0
   -6.6320   18.9180  -31.8620 C   0  0  0  0  0  0  0  0  0  0  0  0
   -4.2540   23.2060  -31.2200 C   0  0  0  0  0  0  0  0  0  0  0  0
   -1.9950   21.3340  -27.9390 C   0  0  0  0  0  0  0  0  0  0  0  0
   -3.1779   19.0445  -25.5011 H   0  0  0  0  0  0  0  0  0  0  0  0
   -3.4604   19.9982  -26.9969 H   0  0  0  0  0  0  0  0  0  0  0  0
   -3.7396   18.2237  -26.9969 H   0  0  0  0  0  0  0  0  0  0  0  0
   -0.2797   19.0147  -29.7789 H   0  0  0  0  0  0  0  0  0  0  0  0
   -0.2386   20.9181  -31.3937 H   0  0  0  0  0  0  0  0  0  0  0  0
   -1.3216   23.0846  -30.8003 H   0  0  0  0  0  0  0  0  0  0  0  0
   -6.2388   25.7956  -30.1907 H   0  0  0  0  0  0  0  0  0  0  0  0
   -7.9950   24.2793  -31.1017 H   0  0  0  0  0  0  0  0  0  0  0  0
   -7.3646   22.0785  -32.0911 H   0  0  0  0  0  0  0  0  0  0  0  0
   -6.8932   19.4333  -34.8528 H   0  0  0  0  0  0  0  0  0  0  0  0
   -5.1065   19.7546  -34.6911 H   0  0  0  0  0  0  0  0  0  0  0  0
   -5.5824   17.3794  -35.2130 H   0  0  0  0  0  0  0  0  0  0  0  0
   -4.7875   17.6025  -33.6035 H   0  0  0  0  0  0  0  0  0  0  0  0
   -7.5935   16.7189  -34.2709 H   0  0  0  0  0  0  0  0  0  0  0  0
   -6.4268   16.1268  -33.0040 H   0  0  0  0  0  0  0  0  0  0  0  0
   -8.4437   18.3409  -32.8826 H   0  0  0  0  0  0  0  0  0  0  0  0
   -7.8796   17.1834  -31.6132 H   0  0  0  0  0  0  0  0  0  0  0  0
   -7.1588   19.4696  -31.0694 H   0  0  0  0  0  0  0  0  0  0  0  0
   -5.7384   18.4167  -31.4617 H   0  0  0  0  0  0  0  0  0  0  0  0
   -3.1986   22.8968  -31.2435 H   0  0  0  0  0  0  0  0  0  0  0  0
   -2.4724   21.4556  -26.9555 H   0  0  0  0  0  0  0  0  0  0  0  0
  1  2  1  0
  2  3  1  0
  3  4  2  0
  4  5  1  0
  5  6  2  0
  6  7  1  0
  7  8  1  0
  8  9  1  0
  9 10  2  0
  9 11  1  0
 11 12  1  0
 12 13  2  0
 13 14  1  0
 14 15  2  0
 15 16  1  0
 16 17  1  0
 17 18  2  0
 17 19  2  0
 17 20  1  0
 20 21  1  0
 21 22  1  0
 22 23  1  0
 23 24  1  0
 24 25  1  0
 16 26  2  0
  7 27  2  0
 27  3  1  0
 26 12  1  0
 25 20  1  0
  1 28  1  0
  1 29  1  0
  1 30  1  0
  4 31  1  0
  5 32  1  0
  6 33  1  0
 13 34  1  0
 14 35  1  0
 15 36  1  0
 21 37  1  0
 21 38  1  0
 22 39  1  0
 22 40  1  0
 23 41  1  0
 23 42  1  0
 24 43  1  0
 24 44  1  0
 25 45  1  0
 25 46  1  0
 26 47  1  0
 27 48  1  0
M  CHG  2   8  -1  11  -1
M  END
>  <UniqueID>  (10) 
10

>  <SMILES>  (10) 
CSc1cccc([N-]C(=O)[N-]c2cccc(S(=O)(=O)N3CCCCC3)c2)c1

>  <Energy>  (10) 
55.84011434976425

>  <Genealogy>  (10) 
CSc1cccc([N-]C(=O)[N-]c2cccc(S(=O)(=O)N3CCCCC3)c2)c1 (protonated)
CSc1cccc([N-]C(=O)[N-]c2cccc(S(=O)(=O)N3CCCCC3)c2)c1 (3D coordinates assigned)
CSc1cccc([N-]C(=O)[N-]c2cccc(S(=O)(=O)N3CCCCC3)c2)c1 (nonaromatic ring conformer: 55.84011434976425 kcal/mol)

>  <smiles>  (10) 
CSc1cccc(NC(=O)Nc2cccc(S(=O)(=O)N3CCCCC3)c2)c1

>  <score_type>  (10) 
oracle

>  <origin>  (10) 
adgpu

>  <m_score__min__energy>  (10) 
-12.41

>  <m_primary>  (10) 
energy

$$$$
10:0
     RDKit          3D

 64 67  0  0  0  0  0  0  0  0999 V2000
   -4.8660   16.7710  -32.8430 C   0  0  0  0  0  0  0  0  0  0  0  0
   -5.9780   17.2210  -33.6980 N   0  0  0  0  0  0  0  0  0  0  0  0
   -7.2310   17.3680  -32.9250 C   0  0  0  0  0  0  0  0  0  0  0  0
   -7.2230   18.6260  -32.0420 C   0  0  0  0  0  0  0  0  0  0  0  0
   -6.7000   19.7780  -32.7820 N   0  0  0  0  0  0  0  0  0  0  0  0
   -6.2370   20.9320  -32.0630 C   0  0  0  0  0  0  0  0  0  0  0  0
   -7.1760   21.7350  -31.3980 C   0  0  0  0  0  0  0  0  0  0  0  0
   -6.7810   22.9040  -30.7480 C   0  0  0  0  0  0  0  0  0  0  0  0
   -5.4390   23.3000  -30.7640 C   0  0  0  0  0  0  0  0  0  0  0  0
   -4.9340   24.7530  -29.8980 S   0  0  0  0  0  0  0  0  0  0  0  0
   -4.2210   25.6740  -30.8480 O   0  0  0  0  0  0  0  0  0  0  0  0
   -6.1530   25.4680  -29.3840 O   0  0  0  0  0  0  0  0  0  0  0  0
   -3.8860   24.3740  -28.5470 N   0  0  0  0  0  0  0  0  0  0  0  0
   -4.2200   23.0680  -27.9310 C   0  0  0  0  0  0  0  0  0  0  0  0
   -3.3730   21.9010  -28.4710 C   0  0  0  0  0  0  0  0  0  0  0  0
   -1.8560   22.1780  -28.4240 C   0  0  0  0  0  0  0  0  0  0  0  0
   -1.5300   23.6420  -28.1080 C   0  0  0  0  0  0  0  0  0  0  0  0
   -2.4610   24.5630  -28.9040 C   0  0  0  0  0  0  0  0  0  0  0  0
   -4.4950   22.5100  -31.4340 C   0  0  0  0  0  0  0  0  0  0  0  0
   -4.8710   21.3090  -32.0610 C   0  0  0  0  0  0  0  0  0  0  0  0
   -3.8190   20.4580  -32.6700 C   0  0  0  0  0  0  0  0  0  0  0  0
   -3.6710   19.2730  -32.2670 O   0  0  0  0  0  0  0  0  0  0  0  0
   -3.0370   20.9420  -33.7720 N   0  0  0  0  0  0  0  0  0  0  0  0
   -1.7640   20.3990  -34.1690 C   0  0  0  0  0  0  0  0  0  0  0  0
   -1.6000   19.0060  -34.2290 C   0  0  0  0  0  0  0  0  0  0  0  0
   -0.3940   18.4530  -34.6650 C   0  0  0  0  0  0  0  0  0  0  0  0
    0.6660   19.2830  -35.0330 C   0  0  0  0  0  0  0  0  0  0  0  0
    0.5310   20.6800  -34.9710 C   0  0  0  0  0  0  0  0  0  0  0  0
    1.6410   21.5740  -35.4680 C   0  0  0  0  0  0  0  0  0  0  0  0
    2.7280   21.4560  -34.6200 F   0  0  0  0  0  0  0  0  0  0  0  0
    2.0230   21.2140  -36.7500 F   0  0  0  0  0  0  0  0  0  0  0  0
    1.2330   22.8990  -35.4960 F   0  0  0  0  0  0  0  0  0  0  0  0
   -0.6990   21.2280  -34.5640 C   0  0  0  0  0  0  0  0  0  0  0  0
   -6.4600   19.6580  -34.2220 C   0  0  0  0  0  0  0  0  0  0  0  0
   -5.6060   18.4150  -34.5080 C   0  0  0  0  0  0  0  0  0  0  0  0
   -5.1472   16.8848  -31.7857 H   0  0  0  0  0  0  0  0  0  0  0  0
   -4.6471   15.7135  -33.0524 H   0  0  0  0  0  0  0  0  0  0  0  0
   -3.9733   17.3786  -33.0524 H   0  0  0  0  0  0  0  0  0  0  0  0
   -8.0751   17.4333  -33.6273 H   0  0  0  0  0  0  0  0  0  0  0  0
   -7.3262   16.4927  -32.2657 H   0  0  0  0  0  0  0  0  0  0  0  0
   -8.2505   18.8437  -31.7151 H   0  0  0  0  0  0  0  0  0  0  0  0
   -6.5753   18.4421  -31.1722 H   0  0  0  0  0  0  0  0  0  0  0  0
   -8.2355   21.4392  -31.3892 H   0  0  0  0  0  0  0  0  0  0  0  0
   -7.5270   23.5169  -30.2209 H   0  0  0  0  0  0  0  0  0  0  0  0
   -4.0579   23.1431  -26.8456 H   0  0  0  0  0  0  0  0  0  0  0  0
   -5.2687   22.8503  -28.1815 H   0  0  0  0  0  0  0  0  0  0  0  0
   -3.5840   21.0068  -27.8661 H   0  0  0  0  0  0  0  0  0  0  0  0
   -3.6468   21.7598  -29.5270 H   0  0  0  0  0  0  0  0  0  0  0  0
   -1.4063   21.5421  -27.6472 H   0  0  0  0  0  0  0  0  0  0  0  0
   -1.4471   21.9549  -29.4205 H   0  0  0  0  0  0  0  0  0  0  0  0
   -1.6690   23.8233  -27.0320 H   0  0  0  0  0  0  0  0  0  0  0  0
   -0.4865   23.8507  -28.3865 H   0  0  0  0  0  0  0  0  0  0  0  0
   -2.1820   25.6075  -28.7012 H   0  0  0  0  0  0  0  0  0  0  0  0
   -2.3472   24.3138  -29.9693 H   0  0  0  0  0  0  0  0  0  0  0  0
   -3.4445   22.8343  -31.4699 H   0  0  0  0  0  0  0  0  0  0  0  0
   -3.4620   21.6800  -34.3760 H   0  0  0  0  0  0  0  0  0  0  0  0
   -2.4273   18.3454  -33.9305 H   0  0  0  0  0  0  0  0  0  0  0  0
   -0.2792   17.3603  -34.7185 H   0  0  0  0  0  0  0  0  0  0  0  0
    1.6135   18.8403  -35.3739 H   0  0  0  0  0  0  0  0  0  0  0  0
   -0.8296   22.3202  -34.5546 H   0  0  0  0  0  0  0  0  0  0  0  0
   -7.4230   19.5672  -34.7459 H   0  0  0  0  0  0  0  0  0  0  0  0
   -5.9268   20.5527  -34.5759 H   0  0  0  0  0  0  0  0  0  0  0  0
   -5.7154   18.1582  -35.5720 H   0  0  0  0  0  0  0  0  0  0  0  0
   -4.5714   18.6721  -34.2368 H   0  0  0  0  0  0  0  0  0  0  0  0
  1  2  1  0
  2  3  1  0
  3  4  1  0
  4  5  1  0
  5  6  1  0
  6  7  2  0
  7  8  1  0
  8  9  2  0
  9 10  1  0
 10 11  2  0
 10 12  2  0
 10 13  1  0
 13 14  1  0
 14 15  1  0
 15 16  1  0
 16 17  1  0
 17 18  1  0
  9 19  1  0
 19 20  2  0
 20 21  1  0
 21 22  2  0
 21 23  1  0
 23 24  1  0
 24 25  2  0
 25 26  1  0
 26 27  2  0
 27 28  1  0
 28 29  1  0
 29 30  1  0
 29 31  1  0
 29 32  1  0
 28 33  2  0
  5 34  1  0
 34 35  1  0
 35  2  1  0
 20  6  1  0
 33 24  1  0
 18 13  1  0
  1 36  1  0
  1 37  1  0
  1 38  1  0
  3 39  1  0
  3 40  1  0
  4 41  1  0
  4 42  1  0
  7 43  1  0
  8 44  1  0
 14 45  1  0
 14 46  1  0
 15 47  1  0
 15 48  1  0
 16 49  1  0
 16 50  1  0
 17 51  1  0
 17 52  1  0
 18 53  1  0
 18 54  1  0
 19 55  1  0
 23 56  1  0
 25 57  1  0
 26 58  1  0
 27 59  1  0
 33 60  1  0
 34 61  1  0
 34 62  1  0
 35 63  1  0
 35 64  1  0
M  END
>  <UniqueID>  (11) 
11

>  <SMILES>  (11) 
CN1CCN(c2ccc(S(=O)(=O)N3CCCCC3)cc2C(=O)Nc2cccc(C(F)(F)F)c2)CC1

>  <Energy>  (11) 
90.70100048116143

>  <Genealogy>  (11) 
CN1CCN(c2ccc(S(=O)(=O)N3CCCCC3)cc2C(=O)Nc2cccc(C(F)(F)F)c2)CC1 (3D coordinates assigned)
CN1CCN(c2ccc(S(=O)(=O)N3CCCCC3)cc2C(=O)Nc2cccc(C(F)(F)F)c2)CC1 (nonaromatic ring conformer: 90.70100048116143 kcal/mol)

>  <smiles>  (11) 
CN1CCN(c2ccc(S(=O)(=O)N3CCCCC3)cc2C(=O)Nc2cccc(C(F)(F)F)c2)CC1

>  <score_type>  (11) 
oracle

>  <origin>  (11) 
adgpu

>  <m_score__min__energy>  (11) 
-10.529999999999999

>  <m_primary>  (11) 
energy

$$$$
11:0
     RDKit          3D

 44 46  0  0  0  0  0  0  0  0999 V2000
   -0.8530   26.0590  -29.8700 H   0  0  0  0  0  0  0  0  0  0  0  0
   -1.2250   25.6660  -28.9760 N   0  0  0  0  0  0  0  0  0  0  0  0
   -2.3620   25.0550  -28.9290 C   0  0  0  0  0  0  0  0  0  0  0  0
   -3.1090   24.9100  -30.0550 N   0  0  0  0  0  0  0  0  0  0  0  0
   -4.3140   24.2760  -30.0260 C   0  0  0  0  0  0  0  0  0  0  0  0
   -5.0720   24.1140  -31.1930 O   0  0  0  0  0  0  0  0  0  0  0  0
   -5.5560   22.8800  -31.6550 C   0  0  0  0  0  0  0  0  0  0  0  0
   -4.6780   21.8240  -31.9560 C   0  0  0  0  0  0  0  0  0  0  0  0
   -3.5923   21.9711  -31.8581 H   0  0  0  0  0  0  0  0  0  0  0  0
   -5.1750   20.5910  -32.3780 C   0  0  0  0  0  0  0  0  0  0  0  0
   -4.4805   19.7682  -32.6031 H   0  0  0  0  0  0  0  0  0  0  0  0
   -6.5540   20.3970  -32.5160 C   0  0  0  0  0  0  0  0  0  0  0  0
   -7.1770   18.7960  -32.8990 S   0  0  0  0  0  0  0  0  0  0  0  0
   -8.6720   18.8420  -33.0530 O   0  0  0  0  0  0  0  0  0  0  0  0
   -6.8340   17.8440  -31.7870 O   0  0  0  0  0  0  0  0  0  0  0  0
   -6.4460   18.2450  -34.3660 N   0  0  0  0  0  0  0  0  0  0  0  0
   -5.4220   17.2490  -34.3400 C   0  0  0  0  0  0  0  0  0  0  0  0
   -5.6100   15.8900  -34.1990 C   0  0  0  0  0  0  0  0  0  0  0  0
   -6.9210   15.1760  -34.1400 C   0  0  0  0  0  0  0  0  0  0  0  0
   -7.2068   15.0204  -33.0892 H   0  0  0  0  0  0  0  0  0  0  0  0
   -7.6903   15.7797  -34.6437 H   0  0  0  0  0  0  0  0  0  0  0  0
   -6.8312   14.2022  -34.6437 H   0  0  0  0  0  0  0  0  0  0  0  0
   -4.4260   15.3030  -33.9320 N   0  0  0  0  0  0  0  0  0  0  0  0
   -3.5000   16.2530  -33.9220 N   0  0  0  0  0  0  0  0  0  0  0  0
   -2.0990   16.0040  -33.6040 C   0  0  0  0  0  0  0  0  0  0  0  0
   -1.9694   15.9810  -32.5119 H   0  0  0  0  0  0  0  0  0  0  0  0
   -1.7925   15.0373  -34.0301 H   0  0  0  0  0  0  0  0  0  0  0  0
   -1.4782   16.8059  -34.0301 H   0  0  0  0  0  0  0  0  0  0  0  0
   -4.0700   17.4530  -34.1640 C   0  0  0  0  0  0  0  0  0  0  0  0
   -3.3620   18.7730  -34.1080 C   0  0  0  0  0  0  0  0  0  0  0  0
   -3.2071   19.0617  -33.0579 H   0  0  0  0  0  0  0  0  0  0  0  0
   -2.3882   18.6884  -34.6125 H   0  0  0  0  0  0  0  0  0  0  0  0
   -3.9711   19.5375  -34.6125 H   0  0  0  0  0  0  0  0  0  0  0  0
   -7.4310   21.4580  -32.2590 C   0  0  0  0  0  0  0  0  0  0  0  0
   -8.5141   21.3136  -32.3858 H   0  0  0  0  0  0  0  0  0  0  0  0
   -6.9390   22.7040  -31.8410 C   0  0  0  0  0  0  0  0  0  0  0  0
   -7.8550   23.7700  -31.5680 N   0  0  0  0  0  0  0  0  0  0  0  0
   -7.5360   24.6610  -31.1280 H   0  0  0  0  0  0  0  0  0  0  0  0
   -8.8670   23.6770  -31.8060 H   0  0  0  0  0  0  0  0  0  0  0  0
   -4.7850   23.7530  -28.8210 C   0  0  0  0  0  0  0  0  0  0  0  0
   -5.7507   23.2282  -28.7764 H   0  0  0  0  0  0  0  0  0  0  0  0
   -4.0070   23.9090  -27.6750 C   0  0  0  0  0  0  0  0  0  0  0  0
   -4.3585   23.5091  -26.7124 H   0  0  0  0  0  0  0  0  0  0  0  0
   -2.8130   24.5560  -27.7480 N   0  0  0  0  0  0  0  0  0  0  0  0
  1  2  1  0
  2  3  2  0
  3  4  1  0
  4  5  2  0
  5  6  1  0
  6  7  1  0
  7  8  2  0
  8  9  1  0
  8 10  1  0
 10 11  1  0
 10 12  2  0
 12 13  1  0
 13 14  2  0
 13 15  2  0
 13 16  1  0
 16 17  1  0
 17 18  1  0
 18 19  1  0
 19 20  1  0
 19 21  1  0
 19 22  1  0
 18 23  2  0
 23 24  1  0
 24 25  1  0
 25 26  1  0
 25 27  1  0
 25 28  1  0
 24 29  1  0
 29 30  1  0
 30 31  1  0
 30 32  1  0
 30 33  1  0
 12 34  1  0
 34 35  1  0
 34 36  2  0
 36 37  1  0
 37 38  1  0
 37 39  1  0
  5 40  1  0
 40 41  1  0
 40 42  2  0
 42 43  1  0
 42 44  1  0
 44  3  1  0
 36  7  1  0
 29 17  2  0
M  CHG  2  16  -1  44  -1
M  END
>  <UniqueID>  (12) 
12

>  <SMILES>  (12) 
[H]/N=c1\nc(Oc2ccc(S(=O)(=O)[N-]c3c(C)nn(C)c3C)cc2N)cc[n-]1

>  <Energy>  (12) 
87.03425256836803

>  <Genealogy>  (12) 
Cc1nn(C)c(C)c1[N-]S(=O)(=O)c1ccc(Oc2cc[n-]c(=N)n2)c(N)c1 (protonated)
[H]/N=c1\nc(Oc2ccc(S(=O)(=O)[N-]c3c(C)nn(C)c3C)cc2N)cc[n-]1 (cis-trans isomerization)
[H]/N=c1\nc(Oc2ccc(S(=O)(=O)[N-]c3c(C)nn(C)c3C)cc2N)cc[n-]1 (3D coordinates assigned)
[H]/N=c1\nc(Oc2ccc(S(=O)(=O)[N-]c3c(C)nn(C)c3C)cc2N)cc[n-]1 (optimized conformer: 87.03425256836803 kcal/mol)

>  <smiles>  (12) 
Cc1nn(C)c(C)c1NS(=O)(=O)c1ccc(Oc2cc[nH]c(=N)n2)c(N)c1

>  <score_type>  (12) 
oracle

>  <origin>  (12) 
adgpu

>  <m_score__min__energy>  (12) 
-9.75

>  <m_primary>  (12) 
energy

$$$$
12:0
     RDKit          3D

 48 50  0  0  0  0  0  0  0  0999 V2000
   -2.5950   17.6340  -33.8180 C   0  0  0  0  0  0  0  0  0  0  0  0
   -3.9040   17.7420  -34.3690 O   0  0  0  0  0  0  0  0  0  0  0  0
   -5.0080   18.2720  -33.6880 C   0  0  0  0  0  0  0  0  0  0  0  0
   -5.8040   19.3000  -34.2270 C   0  0  0  0  0  0  0  0  0  0  0  0
   -6.9050   19.7850  -33.5150 C   0  0  0  0  0  0  0  0  0  0  0  0
   -7.2390   19.2450  -32.2610 C   0  0  0  0  0  0  0  0  0  0  0  0
   -8.4250   19.7320  -31.5170 C   0  0  0  0  0  0  0  0  0  0  0  0
   -9.1090   18.9200  -30.8390 O   0  0  0  0  0  0  0  0  0  0  0  0
   -8.8010   21.1160  -31.5190 N   0  0  0  0  0  0  0  0  0  0  0  0
   -7.9060   22.2130  -31.2870 C   0  0  0  0  0  0  0  0  0  0  0  0
   -7.3790   22.9650  -32.3510 C   0  0  0  0  0  0  0  0  0  0  0  0
   -6.4620   23.9880  -32.1040 C   0  0  0  0  0  0  0  0  0  0  0  0
   -6.0560   24.2710  -30.7920 C   0  0  0  0  0  0  0  0  0  0  0  0
   -5.0230   25.2950  -30.5500 C   0  0  0  0  0  0  0  0  0  0  0  0
   -5.3660   26.5030  -30.4490 O   0  0  0  0  0  0  0  0  0  0  0  0
   -3.6310   24.9630  -30.4840 N   0  0  0  0  0  0  0  0  0  0  0  0
   -3.0020   24.2540  -29.3720 C   0  0  0  0  0  0  0  0  0  0  0  0
   -3.3030   22.7570  -29.4620 C   0  0  0  0  0  0  0  0  0  0  0  0
   -2.9540   22.2160  -30.8250 C   0  0  0  0  0  0  0  0  0  0  0  0
   -1.6270   21.8650  -31.1280 C   0  0  0  0  0  0  0  0  0  0  0  0
   -1.3060   21.3290  -32.3780 C   0  0  0  0  0  0  0  0  0  0  0  0
   -2.3070   21.1380  -33.3350 C   0  0  0  0  0  0  0  0  0  0  0  0
   -3.6320   21.4720  -33.0390 C   0  0  0  0  0  0  0  0  0  0  0  0
   -3.9580   22.0030  -31.7870 C   0  0  0  0  0  0  0  0  0  0  0  0
   -6.6290   23.5610  -29.7250 C   0  0  0  0  0  0  0  0  0  0  0  0
   -7.5550   22.5450  -29.9730 C   0  0  0  0  0  0  0  0  0  0  0  0
   -6.4260   18.2400  -31.7130 C   0  0  0  0  0  0  0  0  0  0  0  0
   -5.3230   17.7560  -32.4250 C   0  0  0  0  0  0  0  0  0  0  0  0
   -2.6579   17.6392  -32.7198 H   0  0  0  0  0  0  0  0  0  0  0  0
   -2.1320   16.6946  -34.1543 H   0  0  0  0  0  0  0  0  0  0  0  0
   -1.9843   18.4848  -34.1543 H   0  0  0  0  0  0  0  0  0  0  0  0
   -5.5589   19.7234  -35.2122 H   0  0  0  0  0  0  0  0  0  0  0  0
   -7.5150   20.5959  -33.9396 H   0  0  0  0  0  0  0  0  0  0  0  0
   -7.6906   22.7464  -33.3831 H   0  0  0  0  0  0  0  0  0  0  0  0
   -6.0564   24.5743  -32.9417 H   0  0  0  0  0  0  0  0  0  0  0  0
   -1.9137   24.4088  -29.4115 H   0  0  0  0  0  0  0  0  0  0  0  0
   -3.4028   24.6443  -28.4249 H   0  0  0  0  0  0  0  0  0  0  0  0
   -2.7120   22.2251  -28.7019 H   0  0  0  0  0  0  0  0  0  0  0  0
   -4.3788   22.6052  -29.2900 H   0  0  0  0  0  0  0  0  0  0  0  0
   -0.8369   22.0131  -30.3771 H   0  0  0  0  0  0  0  0  0  0  0  0
   -0.2654   21.0573  -32.6090 H   0  0  0  0  0  0  0  0  0  0  0  0
   -2.0519   20.7245  -34.3219 H   0  0  0  0  0  0  0  0  0  0  0  0
   -4.4189   21.3169  -33.7918 H   0  0  0  0  0  0  0  0  0  0  0  0
   -5.0030   22.2550  -31.5537 H   0  0  0  0  0  0  0  0  0  0  0  0
   -6.3478   23.8056  -28.6901 H   0  0  0  0  0  0  0  0  0  0  0  0
   -8.0108   22.0029  -29.1314 H   0  0  0  0  0  0  0  0  0  0  0  0
   -6.6574   17.8309  -30.7185 H   0  0  0  0  0  0  0  0  0  0  0  0
   -4.6978   16.9631  -31.9887 H   0  0  0  0  0  0  0  0  0  0  0  0
  1  2  1  0
  2  3  1  0
  3  4  2  0
  4  5  1  0
  5  6  2  0
  6  7  1  0
  7  8  2  0
  7  9  1  0
  9 10  1  0
 10 11  2  0
 11 12  1  0
 12 13  2  0
 13 14  1  0
 14 15  2  0
 14 16  1  0
 16 17  1  0
 17 18  1  0
 18 19  1  0
 19 20  2  0
 20 21  1  0
 21 22  2  0
 22 23  1  0
 23 24  2  0
 13 25  1  0
 25 26  2  0
  6 27  1  0
 27 28  2  0
 28  3  1  0
 26 10  1  0
 24 19  1  0
  1 29  1  0
  1 30  1  0
  1 31  1  0
  4 32  1  0
  5 33  1  0
 11 34  1  0
 12 35  1  0
 17 36  1  0
 17 37  1  0
 18 38  1  0
 18 39  1  0
 20 40  1  0
 21 41  1  0
 22 42  1  0
 23 43  1  0
 24 44  1  0
 25 45  1  0
 26 46  1  0
 27 47  1  0
 28 48  1  0
M  CHG  2   9  -1  16  -1
M  END
>  <UniqueID>  (13) 
13

>  <SMILES>  (13) 
COc1ccc(C(=O)[N-]c2ccc(C(=O)[N-]CCc3ccccc3)cc2)cc1

>  <Energy>  (13) 
57.725060281980646

>  <Genealogy>  (13) 
COc1ccc(C(=O)[N-]c2ccc(C(=O)[N-]CCc3ccccc3)cc2)cc1 (protonated)
COc1ccc(C(=O)[N-]c2ccc(C(=O)[N-]CCc3ccccc3)cc2)cc1 (3D coordinates assigned)
COc1ccc(C(=O)[N-]c2ccc(C(=O)[N-]CCc3ccccc3)cc2)cc1 (optimized conformer: 57.725060281980646 kcal/mol)

>  <smiles>  (13) 
COc1ccc(C(=O)Nc2ccc(C(=O)NCCc3ccccc3)cc2)cc1

>  <score_type>  (13) 
oracle

>  <origin>  (13) 
adgpu

>  <m_score__min__energy>  (13) 
-11.119999999999999

>  <m_primary>  (13) 
energy

$$$$
13:0
     RDKit          3D

 31 32  0  0  0  0  0  0  0  0999 V2000
   -0.9670   21.6610  -26.9110 C   0  0  0  0  0  0  0  0  0  0  0  0
   -1.8490   21.9510  -28.0970 C   0  0  0  0  0  0  0  0  0  0  0  0
   -2.6360   20.9140  -28.6280 C   0  0  0  0  0  0  0  0  0  0  0  0
   -3.4560   21.1380  -29.7340 C   0  0  0  0  0  0  0  0  0  0  0  0
   -3.5040   22.4000  -30.3310 C   0  0  0  0  0  0  0  0  0  0  0  0
   -4.5230   22.6720  -31.7410 S   0  0  0  0  0  0  0  0  0  0  0  0
   -3.7100   22.5680  -33.0010 O   0  0  0  0  0  0  0  0  0  0  0  0
   -5.1160   24.0520  -31.6720 O   0  0  0  0  0  0  0  0  0  0  0  0
   -5.8070   21.4770  -31.7670 C   0  0  0  0  0  0  0  0  0  0  0  0
   -5.5670   20.1940  -32.2730 C   0  0  0  0  0  0  0  0  0  0  0  0
   -6.6000   19.2560  -32.2750 C   0  0  0  0  0  0  0  0  0  0  0  0
   -7.8570   19.6040  -31.7730 C   0  0  0  0  0  0  0  0  0  0  0  0
   -9.1660   18.4370  -31.7670 Cl  0  0  0  0  0  0  0  0  0  0  0  0
   -8.0580   20.8950  -31.2750 C   0  0  0  0  0  0  0  0  0  0  0  0
   -7.0380   21.7940  -31.2820 N   0  0  0  0  0  0  0  0  0  0  0  0
   -2.7110   23.4370  -29.8250 C   0  0  0  0  0  0  0  0  0  0  0  0
   -1.8750   23.2270  -28.7160 C   0  0  0  0  0  0  0  0  0  0  0  0
   -0.8880   24.5720  -28.1220 S   0  0  0  0  0  0  0  0  0  0  0  0
   -1.2390   25.9950  -29.0390 N   0  0  0  0  0  0  0  0  0  0  0  0
   -1.1790   24.8190  -26.6680 O   0  0  0  0  0  0  0  0  0  0  0  0
    0.5730   24.2490  -28.2670 O   0  0  0  0  0  0  0  0  0  0  0  0
   -1.5281   21.8455  -25.9830 H   0  0  0  0  0  0  0  0  0  0  0  0
   -0.6449   20.6097  -26.9419 H   0  0  0  0  0  0  0  0  0  0  0  0
   -0.0839   22.3161  -26.9419 H   0  0  0  0  0  0  0  0  0  0  0  0
   -2.6048   19.9159  -28.1666 H   0  0  0  0  0  0  0  0  0  0  0  0
   -4.0674   20.3175  -30.1377 H   0  0  0  0  0  0  0  0  0  0  0  0
   -4.5742   19.9281  -32.6650 H   0  0  0  0  0  0  0  0  0  0  0  0
   -6.4253   18.2447  -32.6709 H   0  0  0  0  0  0  0  0  0  0  0  0
   -9.0421   21.1835  -30.8772 H   0  0  0  0  0  0  0  0  0  0  0  0
   -2.7431   24.4279  -30.3016 H   0  0  0  0  0  0  0  0  0  0  0  0
   -1.5600   25.6800  -29.9820 H   0  0  0  0  0  0  0  0  0  0  0  0
  1  2  1  0
  2  3  2  0
  3  4  1  0
  4  5  2  0
  5  6  1  0
  6  7  2  0
  6  8  2  0
  6  9  1  0
  9 10  2  0
 10 11  1  0
 11 12  2  0
 12 13  1  0
 12 14  1  0
 14 15  2  0
  5 16  1  0
 16 17  2  0
 17 18  1  0
 18 19  1  0
 18 20  2  0
 18 21  2  0
 17  2  1  0
 15  9  1  0
  1 22  1  0
  1 23  1  0
  1 24  1  0
  3 25  1  0
  4 26  1  0
 10 27  1  0
 11 28  1  0
 14 29  1  0
 16 30  1  0
 19 31  1  0
M  CHG  1  19  -1
M  END
>  <UniqueID>  (14) 
14

>  <SMILES>  (14) 
Cc1ccc(S(=O)(=O)c2ccc(Cl)cn2)cc1S([NH-])(=O)=O

>  <Energy>  (14) 
35.13362589793525

>  <Genealogy>  (14) 
Cc1ccc(S(=O)(=O)c2ccc(Cl)cn2)cc1S([NH-])(=O)=O (protonated)
Cc1ccc(S(=O)(=O)c2ccc(Cl)cn2)cc1S([NH-])(=O)=O (3D coordinates assigned)
Cc1ccc(S(=O)(=O)c2ccc(Cl)cn2)cc1S([NH-])(=O)=O (optimized conformer: 35.13362589793525 kcal/mol)

>  <smiles>  (14) 
Cc1ccc(S(=O)(=O)c2ccc(Cl)cn2)cc1S(N)(=O)=O

>  <score_type>  (14) 
oracle

>  <origin>  (14) 
adgpu

>  <m_score__min__energy>  (14) 
-10.59

>  <m_primary>  (14) 
energy

$$$$
14:0
     RDKit          3D

 38 41  0  0  0  0  0  0  0  0999 V2000
   -4.0380   13.3900  -34.6780 O   0  0  0  0  0  0  0  0  0  0  0  0
   -4.4180   14.6300  -34.1780 C   0  0  0  0  0  0  0  0  0  0  0  0
   -4.8990   14.7390  -32.8700 C   0  0  0  0  0  0  0  0  0  0  0  0
   -5.2840   15.9850  -32.3650 C   0  0  0  0  0  0  0  0  0  0  0  0
   -5.2010   17.1330  -33.1700 C   0  0  0  0  0  0  0  0  0  0  0  0
   -5.6010   18.4610  -32.6540 C   0  0  0  0  0  0  0  0  0  0  0  0
   -6.7320   18.6590  -31.9500 N   0  0  0  0  0  0  0  0  0  0  0  0
   -6.7170   19.9140  -31.5300 N   0  0  0  0  0  0  0  0  0  0  0  0
   -5.5760   20.4700  -31.9820 C   0  0  0  0  0  0  0  0  0  0  0  0
   -5.1410   21.8310  -31.5970 C   0  0  0  0  0  0  0  0  0  0  0  0
   -3.9760   22.0000  -30.8300 C   0  0  0  0  0  0  0  0  0  0  0  0
   -3.5530   23.2790  -30.4590 C   0  0  0  0  0  0  0  0  0  0  0  0
   -4.2960   24.4010  -30.8370 C   0  0  0  0  0  0  0  0  0  0  0  0
   -3.8740   25.6720  -30.4680 O   0  0  0  0  0  0  0  0  0  0  0  0
   -5.4680   24.2410  -31.5840 C   0  0  0  0  0  0  0  0  0  0  0  0
   -5.8930   22.9620  -31.9570 C   0  0  0  0  0  0  0  0  0  0  0  0
   -4.8530   19.5870  -32.7090 N   0  0  0  0  0  0  0  0  0  0  0  0
   -3.4560   19.6760  -33.0260 C   0  0  0  0  0  0  0  0  0  0  0  0
   -2.5870   18.6410  -32.6540 C   0  0  0  0  0  0  0  0  0  0  0  0
   -1.2260   18.7220  -32.9610 C   0  0  0  0  0  0  0  0  0  0  0  0
   -0.7270   19.8390  -33.6410 C   0  0  0  0  0  0  0  0  0  0  0  0
    0.6270   19.9200  -33.9460 O   0  0  0  0  0  0  0  0  0  0  0  0
   -1.5900   20.8730  -34.0140 C   0  0  0  0  0  0  0  0  0  0  0  0
   -2.9520   20.7930  -33.7070 C   0  0  0  0  0  0  0  0  0  0  0  0
   -4.6970   17.0170  -34.4770 C   0  0  0  0  0  0  0  0  0  0  0  0
   -4.3140   15.7710  -34.9790 C   0  0  0  0  0  0  0  0  0  0  0  0
   -4.9748   13.8428  -32.2366 H   0  0  0  0  0  0  0  0  0  0  0  0
   -5.6537   16.0664  -31.3322 H   0  0  0  0  0  0  0  0  0  0  0  0
   -3.3934   21.1201  -30.5197 H   0  0  0  0  0  0  0  0  0  0  0  0
   -2.6334   23.4032  -29.8683 H   0  0  0  0  0  0  0  0  0  0  0  0
   -6.0562   25.1227  -31.8784 H   0  0  0  0  0  0  0  0  0  0  0  0
   -6.8209   22.8407  -32.5353 H   0  0  0  0  0  0  0  0  0  0  0  0
   -2.9773   17.7627  -32.1190 H   0  0  0  0  0  0  0  0  0  0  0  0
   -0.5468   17.9078  -32.6682 H   0  0  0  0  0  0  0  0  0  0  0  0
   -1.1978   21.7502  -34.5493 H   0  0  0  0  0  0  0  0  0  0  0  0
   -3.6295   21.6084  -34.0005 H   0  0  0  0  0  0  0  0  0  0  0  0
   -4.6036   17.9129  -35.1084 H   0  0  0  0  0  0  0  0  0  0  0  0
   -3.9299   15.6875  -36.0064 H   0  0  0  0  0  0  0  0  0  0  0  0
  1  2  1  0
  2  3  2  0
  3  4  1  0
  4  5  2  0
  5  6  1  0
  6  7  2  0
  7  8  1  0
  8  9  2  0
  9 10  1  0
 10 11  2  0
 11 12  1  0
 12 13  2  0
 13 14  1  0
 13 15  1  0
 15 16  2  0
  9 17  1  0
 17 18  1  0
 18 19  2  0
 19 20  1  0
 20 21  2  0
 21 22  1  0
 21 23  1  0
 23 24  2  0
  5 25  1  0
 25 26  2  0
 26  2  1  0
 17  6  1  0
 24 18  1  0
 16 10  1  0
  3 27  1  0
  4 28  1  0
 11 29  1  0
 12 30  1  0
 15 31  1  0
 16 32  1  0
 19 33  1  0
 20 34  1  0
 23 35  1  0
 24 36  1  0
 25 37  1  0
 26 38  1  0
M  CHG  3   1  -1  14  -1  22  -1
M  END
>  <UniqueID>  (15) 
15

>  <SMILES>  (15) 
[O-]c1ccc(-c2nnc(-c3ccc([O-])cc3)n2-c2ccc([O-])cc2)cc1

>  <Energy>  (15) 
94.1360072487988

>  <Genealogy>  (15) 
[O-]c1ccc(-c2nnc(-c3ccc([O-])cc3)n2-c2ccc([O-])cc2)cc1 (protonated)
[O-]c1ccc(-c2nnc(-c3ccc([O-])cc3)n2-c2ccc([O-])cc2)cc1 (3D coordinates assigned)
[O-]c1ccc(-c2nnc(-c3ccc([O-])cc3)n2-c2ccc([O-])cc2)cc1 (optimized conformer: 94.1360072487988 kcal/mol)

>  <smiles>  (15) 
Oc1ccc(-c2nnc(-c3ccc(O)cc3)n2-c2ccc(O)cc2)cc1

>  <score_type>  (15) 
oracle

>  <origin>  (15) 
adgpu

>  <m_score__min__energy>  (15) 
-10.35

>  <m_primary>  (15) 
energy

$$$$
15:0
     RDKit          3D

 49 52  0  0  1  0  0  0  0  0999 V2000
    0.1730   28.2370  -24.7660 C   0  0  0  0  0  0  0  0  0  0  0  0
   -0.6850   27.3150  -25.5270 C   0  0  0  0  0  0  0  0  0  0  0  0
   -0.4010   26.8340  -26.7860 C   0  0  0  0  0  0  0  0  0  0  0  0
   -1.4490   26.0020  -27.1500 C   0  0  0  0  0  0  0  0  0  0  0  0
   -1.5550   25.3600  -28.2600 N   0  0  0  0  0  0  0  0  0  0  0  0
   -2.6730   24.5240  -28.5500 C   0  0  0  0  0  0  0  0  0  0  0  0
   -3.1360   23.5950  -27.6390 C   0  0  0  0  0  0  0  0  0  0  0  0
   -4.2270   22.7980  -27.9540 C   0  0  0  0  0  0  0  0  0  0  0  0
   -4.8010   22.9690  -29.1670 N   0  0  0  0  0  0  0  0  0  0  0  0
   -4.3360   23.8810  -30.0440 C   0  0  0  0  0  0  0  0  0  0  0  0
   -4.8870   24.0500  -31.2170 N   0  0  0  0  0  0  0  0  0  0  0  0
   -6.0010   23.2100  -31.4950 C   0  0  0  0  0  0  0  0  0  0  0  0
   -7.2580   23.7980  -31.4550 C   0  0  0  0  0  0  0  0  0  0  0  0
   -8.3960   23.0600  -31.7120 C   0  0  0  0  0  0  0  0  0  0  0  0
   -8.2320   21.7240  -32.0070 C   0  0  0  0  0  0  0  0  0  0  0  0
   -6.9850   21.1200  -32.0530 C   0  0  0  0  0  0  0  0  0  0  0  0
   -6.9240   19.4200  -32.4400 S   0  0  0  0  0  0  0  0  0  0  0  0
   -8.3120   18.9370  -32.7330 O   0  0  0  0  0  0  0  0  0  0  0  0
   -6.3360   18.6380  -31.2860 O   0  0  0  0  0  0  0  0  0  0  0  0
   -5.9230   19.2340  -33.8460 N   0  0  0  0  0  0  0  0  0  0  0  0
   -4.5370   19.3930  -33.5450 C   0  0  0  0  0  0  0  0  0  0  0  0
   -3.7810   18.2980  -34.2210 C   0  0  0  0  0  0  0  0  0  0  0  0
   -4.7850   17.4960  -34.9830 C   0  0  0  0  0  0  0  0  0  0  0  0
   -6.1040   17.8990  -34.3760 C   0  0  0  0  0  0  0  0  0  0  0  0
   -5.8620   21.8790  -31.7930 C   0  0  0  0  0  0  0  0  0  0  0  0
   -3.2680   24.6700  -29.7480 N   0  0  0  0  0  0  0  0  0  0  0  0
   -2.3310   25.9930  -26.1270 N   0  0  0  0  0  0  0  0  0  0  0  0
   -1.8760   26.7800  -25.1500 N   0  0  0  0  0  0  0  0  0  0  0  0
    0.0214   28.0741  -23.6887 H   0  0  0  0  0  0  0  0  0  0  0  0
    1.2270   28.0512  -25.0202 H   0  0  0  0  0  0  0  0  0  0  0  0
   -0.0880   29.2749  -25.0202 H   0  0  0  0  0  0  0  0  0  0  0  0
    0.4892   27.0661  -27.3890 H   0  0  0  0  0  0  0  0  0  0  0  0
   -2.6396   23.4870  -26.6633 H   0  0  0  0  0  0  0  0  0  0  0  0
   -4.6119   22.0529  -27.2422 H   0  0  0  0  0  0  0  0  0  0  0  0
   -5.6160   22.3700  -29.3970 H   0  0  0  0  0  0  0  0  0  0  0  0
   -7.3485   24.8677  -31.2150 H   0  0  0  0  0  0  0  0  0  0  0  0
   -9.3946   23.5204  -31.6824 H   0  0  0  0  0  0  0  0  0  0  0  0
   -9.1237   21.1140  -32.2137 H   0  0  0  0  0  0  0  0  0  0  0  0
   -4.1863   20.3687  -33.9125 H   0  0  0  0  0  0  0  0  0  0  0  0
   -4.3781   19.3473  -32.4575 H   0  0  0  0  0  0  0  0  0  0  0  0
   -3.0325   18.7207  -34.9074 H   0  0  0  0  0  0  0  0  0  0  0  0
   -3.2462   17.6741  -33.4898 H   0  0  0  0  0  0  0  0  0  0  0  0
   -4.7542   17.7453  -36.0539 H   0  0  0  0  0  0  0  0  0  0  0  0
   -4.6009   16.4134  -34.9193 H   0  0  0  0  0  0  0  0  0  0  0  0
   -6.8914   17.8988  -35.1441 H   0  0  0  0  0  0  0  0  0  0  0  0
   -6.4095   17.1962  -33.5868 H   0  0  0  0  0  0  0  0  0  0  0  0
   -4.8630   21.4195  -31.8246 H   0  0  0  0  0  0  0  0  0  0  0  0
   -3.2290   25.4350  -26.1400 H   0  0  0  0  0  0  0  0  0  0  0  0
   -2.3770   26.9320  -24.2650 H   0  0  0  0  0  0  0  0  0  0  0  0
  1  2  1  0
  2  3  2  0
  3  4  1  0
  4  5  2  0
  5  6  1  0
  6  7  1  0
  7  8  2  0
  8  9  1  0
  9 10  1  0
 10 11  2  0
 11 12  1  0
 12 13  2  0
 13 14  1  0
 14 15  2  0
 15 16  1  0
 16 17  1  0
 17 18  2  0
 17 19  2  0
 17 20  1  0
 20 21  1  0
 21 22  1  0
 22 23  1  0
 23 24  1  0
 16 25  2  0
 10 26  1  0
  4 27  1  0
 27 28  1  0
 28  2  1  0
 26  6  2  0
 25 12  1  0
 24 20  1  0
  1 29  1  0
  1 30  1  0
  1 31  1  0
  3 32  1  0
  7 33  1  0
  8 34  1  0
  9 35  1  0
 13 36  1  0
 14 37  1  0
 15 38  1  0
 21 39  1  0
 21 40  1  0
 22 41  1  0
 22 42  1  0
 23 43  1  0
 23 44  1  0
 24 45  1  0
 24 46  1  0
 25 47  1  0
 27 48  1  0
 28 49  1  0
M  END
>  <smiles>  (16) 
Cc1cc(=Nc2cc[nH]c(=Nc3cccc(S(=O)(=O)N4CCCC4)c3)n2)[nH][nH]1

>  <score_type>  (16) 
oracle

>  <origin>  (16) 
adgpu

>  <m_score__min__energy>  (16) 
-10.029999999999999

>  <m_primary>  (16) 
energy

$$$$
16:0
     RDKit          3D

 43 46  0  0  0  0  0  0  0  0999 V2000
   -6.8140   15.7360  -34.0020 N   0  0  0  0  0  0  0  0  0  0  0  0
   -6.8720   16.8170  -33.5950 C   0  0  0  0  0  0  0  0  0  0  0  0
   -6.9440   18.1620  -33.0860 C   0  0  0  0  0  0  0  0  0  0  0  0
   -6.0590   19.1380  -33.5570 C   0  0  0  0  0  0  0  0  0  0  0  0
   -6.1290   20.4450  -33.0630 C   0  0  0  0  0  0  0  0  0  0  0  0
   -7.0900   20.7900  -32.0960 C   0  0  0  0  0  0  0  0  0  0  0  0
   -7.1510   22.1310  -31.5740 N   0  0  0  0  0  0  0  0  0  0  0  0
   -7.3820   22.3550  -30.1420 C   0  0  0  0  0  0  0  0  0  0  0  0
   -6.8550   23.7380  -29.7200 C   0  0  0  0  0  0  0  0  0  0  0  0
   -5.6060   24.0830  -30.4330 N   0  0  0  0  0  0  0  0  0  0  0  0
   -4.4900   23.1880  -30.0550 C   0  0  0  0  0  0  0  0  0  0  0  0
   -3.6400   23.8320  -28.9940 C   0  0  0  0  0  0  0  0  0  0  0  0
   -4.1900   24.1000  -27.7140 C   0  0  0  0  0  0  0  0  0  0  0  0
   -3.4110   24.7120  -26.7140 C   0  0  0  0  0  0  0  0  0  0  0  0
   -2.0960   25.0410  -27.0280 C   0  0  0  0  0  0  0  0  0  0  0  0
   -1.5630   24.7880  -28.2500 C   0  0  0  0  0  0  0  0  0  0  0  0
   -2.2980   24.1840  -29.2660 C   0  0  0  0  0  0  0  0  0  0  0  0
   -0.2510   25.2200  -28.2770 O   0  0  0  0  0  0  0  0  0  0  0  0
    0.0600   25.7770  -26.9930 C   0  0  0  0  0  0  0  0  0  0  0  0
   -1.1450   25.6430  -26.2270 O   0  0  0  0  0  0  0  0  0  0  0  0
   -5.7940   24.1670  -31.9060 C   0  0  0  0  0  0  0  0  0  0  0  0
   -6.9500   23.2970  -32.4390 C   0  0  0  0  0  0  0  0  0  0  0  0
   -7.9680   19.8010  -31.6220 C   0  0  0  0  0  0  0  0  0  0  0  0
   -7.8980   18.4950  -32.1170 C   0  0  0  0  0  0  0  0  0  0  0  0
   -5.3073   18.8773  -34.3166 H   0  0  0  0  0  0  0  0  0  0  0  0
   -5.4280   21.2075  -33.4333 H   0  0  0  0  0  0  0  0  0  0  0  0
   -8.4613   22.3010  -29.9368 H   0  0  0  0  0  0  0  0  0  0  0  0
   -6.8478   21.5816  -29.5706 H   0  0  0  0  0  0  0  0  0  0  0  0
   -7.6183   24.4964  -29.9487 H   0  0  0  0  0  0  0  0  0  0  0  0
   -6.6405   23.7111  -28.6415 H   0  0  0  0  0  0  0  0  0  0  0  0
   -4.8982   22.2425  -29.6684 H   0  0  0  0  0  0  0  0  0  0  0  0
   -3.8693   22.9959  -30.9426 H   0  0  0  0  0  0  0  0  0  0  0  0
   -5.2342   23.8272  -27.5012 H   0  0  0  0  0  0  0  0  0  0  0  0
   -3.8277   24.9230  -25.7181 H   0  0  0  0  0  0  0  0  0  0  0  0
   -1.8485   23.9866  -30.2504 H   0  0  0  0  0  0  0  0  0  0  0  0
    0.8826   25.2209  -26.5196 H   0  0  0  0  0  0  0  0  0  0  0  0
    0.3881   26.8244  -27.0661 H   0  0  0  0  0  0  0  0  0  0  0  0
   -5.9992   25.2150  -32.1697 H   0  0  0  0  0  0  0  0  0  0  0  0
   -4.8703   23.7883  -32.3678 H   0  0  0  0  0  0  0  0  0  0  0  0
   -7.8730   23.8949  -32.4621 H   0  0  0  0  0  0  0  0  0  0  0  0
   -6.6990   22.9511  -33.4526 H   0  0  0  0  0  0  0  0  0  0  0  0
   -8.7156   20.0557  -30.8563 H   0  0  0  0  0  0  0  0  0  0  0  0
   -8.5934   17.7284  -31.7445 H   0  0  0  0  0  0  0  0  0  0  0  0
  1  2  3  0
  2  3  1  0
  3  4  2  0
  4  5  1  0
  5  6  2  0
  6  7  1  0
  7  8  1  0
  8  9  1  0
  9 10  1  0
 10 11  1  0
 11 12  1  0
 12 13  2  0
 13 14  1  0
 14 15  2  0
 15 16  1  0
 16 17  2  0
 16 18  1  0
 18 19  1  0
 19 20  1  0
 10 21  1  0
 21 22  1  0
  6 23  1  0
 23 24  2  0
 24  3  1  0
 22  7  1  0
 17 12  1  0
 20 15  1  0
  4 25  1  0
  5 26  1  0
  8 27  1  0
  8 28  1  0
  9 29  1  0
  9 30  1  0
 11 31  1  0
 11 32  1  0
 13 33  1  0
 14 34  1  0
 17 35  1  0
 19 36  1  0
 19 37  1  0
 21 38  1  0
 21 39  1  0
 22 40  1  0
 22 41  1  0
 23 42  1  0
 24 43  1  0
M  END
>  <UniqueID>  (17) 
16

>  <SMILES>  (17) 
N#Cc1ccc(N2CCN(Cc3ccc4c(c3)OCO4)CC2)cc1

>  <Energy>  (17) 
84.49074871945425

>  <Genealogy>  (17) 
N#Cc1ccc(N2CCN(Cc3ccc4c(c3)OCO4)CC2)cc1 (3D coordinates assigned)
N#Cc1ccc(N2CCN(Cc3ccc4c(c3)OCO4)CC2)cc1 (nonaromatic ring conformer: 84.49074871945425 kcal/mol)

>  <smiles>  (17) 
N#Cc1ccc(N2CCN(Cc3ccc4c(c3)OCO4)CC2)cc1

>  <score_type>  (17) 
oracle

>  <origin>  (17) 
adgpu

>  <m_score__min__energy>  (17) 
-8.1099999999999994

>  <m_primary>  (17) 
energy

$$$$
17:0
     RDKit          3D

 46 48  0  0  0  0  0  0  0  0999 V2000
   -0.1800   12.5750  -25.6160 C   0  0  0  0  0  0  0  0  0  0  0  0
    0.6790   12.1660  -26.8160 C   0  0  0  0  0  0  0  0  0  0  0  0
    2.1100   12.4730  -26.6220 N   0  0  0  0  0  0  0  0  0  0  0  0
    2.7110   13.2580  -27.7170 C   0  0  0  0  0  0  0  0  0  0  0  0
    1.9850   14.5610  -27.9530 C   0  0  0  0  0  0  0  0  0  0  0  0
    1.5170   15.3210  -26.8710 C   0  0  0  0  0  0  0  0  0  0  0  0
    0.8630   16.5370  -27.0910 C   0  0  0  0  0  0  0  0  0  0  0  0
    0.6620   17.0150  -28.4000 C   0  0  0  0  0  0  0  0  0  0  0  0
   -0.0210   18.3090  -28.6560 C   0  0  0  0  0  0  0  0  0  0  0  0
   -0.6670   19.0190  -27.6290 C   0  0  0  0  0  0  0  0  0  0  0  0
   -1.3000   20.2290  -27.9200 C   0  0  0  0  0  0  0  0  0  0  0  0
   -1.2990   20.7350  -29.2290 C   0  0  0  0  0  0  0  0  0  0  0  0
   -1.9690   22.0200  -29.5500 C   0  0  0  0  0  0  0  0  0  0  0  0
   -1.4910   23.2290  -29.0140 C   0  0  0  0  0  0  0  0  0  0  0  0
   -2.1250   24.4360  -29.3130 C   0  0  0  0  0  0  0  0  0  0  0  0
   -3.2420   24.4580  -30.1520 C   0  0  0  0  0  0  0  0  0  0  0  0
   -3.8630   25.6710  -30.4310 O   0  0  0  0  0  0  0  0  0  0  0  0
   -3.7300   23.2610  -30.7060 C   0  0  0  0  0  0  0  0  0  0  0  0
   -4.9440   23.2760  -31.5910 C   0  0  0  0  0  0  0  0  0  0  0  0
   -3.0950   22.0470  -30.3950 C   0  0  0  0  0  0  0  0  0  0  0  0
   -0.6520   19.9890  -30.2270 C   0  0  0  0  0  0  0  0  0  0  0  0
   -0.0410   18.8150  -29.9200 N   0  0  0  0  0  0  0  0  0  0  0  0
    1.1470   16.2550  -29.4790 C   0  0  0  0  0  0  0  0  0  0  0  0
    1.8000   15.0390  -29.2580 C   0  0  0  0  0  0  0  0  0  0  0  0
    0.3481   12.3236  -24.6844 H   0  0  0  0  0  0  0  0  0  0  0  0
   -0.3664   13.6585  -25.6508 H   0  0  0  0  0  0  0  0  0  0  0  0
   -1.1387   12.0367  -25.6508 H   0  0  0  0  0  0  0  0  0  0  0  0
    0.5696   11.0830  -26.9746 H   0  0  0  0  0  0  0  0  0  0  0  0
    0.3303   12.7413  -27.6863 H   0  0  0  0  0  0  0  0  0  0  0  0
    2.6430   11.5770  -26.5190 H   0  0  0  0  0  0  0  0  0  0  0  0
    2.2190   13.0010  -25.7260 H   0  0  0  0  0  0  0  0  0  0  0  0
    3.7581   13.4776  -27.4615 H   0  0  0  0  0  0  0  0  0  0  0  0
    2.6392   12.6609  -28.6381 H   0  0  0  0  0  0  0  0  0  0  0  0
    1.6654   14.9582  -25.8432 H   0  0  0  0  0  0  0  0  0  0  0  0
    0.5025   17.1252  -26.2342 H   0  0  0  0  0  0  0  0  0  0  0  0
   -0.6738   18.6237  -26.6025 H   0  0  0  0  0  0  0  0  0  0  0  0
   -1.8028   20.7893  -27.1180 H   0  0  0  0  0  0  0  0  0  0  0  0
   -0.6109   23.2235  -28.3542 H   0  0  0  0  0  0  0  0  0  0  0  0
   -1.7432   25.3750  -28.8858 H   0  0  0  0  0  0  0  0  0  0  0  0
   -5.8511   23.2872  -30.9689 H   0  0  0  0  0  0  0  0  0  0  0  0
   -4.9238   24.1740  -32.2260 H   0  0  0  0  0  0  0  0  0  0  0  0
   -4.9459   22.3778  -32.2260 H   0  0  0  0  0  0  0  0  0  0  0  0
   -3.4817   21.1073  -30.8162 H   0  0  0  0  0  0  0  0  0  0  0  0
   -0.6397   20.3572  -31.2635 H   0  0  0  0  0  0  0  0  0  0  0  0
    1.0112   16.6210  -30.5074 H   0  0  0  0  0  0  0  0  0  0  0  0
    2.1707   14.4539  -30.1126 H   0  0  0  0  0  0  0  0  0  0  0  0
  1  2  1  0
  2  3  1  0
  3  4  1  0
  4  5  1  0
  5  6  2  0
  6  7  1  0
  7  8  2  0
  8  9  1  0
  9 10  2  0
 10 11  1  0
 11 12  2  0
 12 13  1  0
 13 14  2  0
 14 15  1  0
 15 16  2  0
 16 17  1  0
 16 18  1  0
 18 19  1  0
 18 20  2  0
 12 21  1  0
 21 22  2  0
  8 23  1  0
 23 24  2  0
 24  5  1  0
 22  9  1  0
 20 13  1  0
  1 25  1  0
  1 26  1  0
  1 27  1  0
  2 28  1  0
  2 29  1  0
  3 30  1  0
  3 31  1  0
  4 32  1  0
  4 33  1  0
  6 34  1  0
  7 35  1  0
 10 36  1  0
 11 37  1  0
 14 38  1  0
 15 39  1  0
 19 40  1  0
 19 41  1  0
 19 42  1  0
 20 43  1  0
 21 44  1  0
 23 45  1  0
 24 46  1  0
M  CHG  2   3   1  17  -1
M  END
>  <UniqueID>  (18) 
17

>  <SMILES>  (18) 
CC[NH2+]Cc1ccc(-c2ccc(-c3ccc([O-])c(C)c3)cn2)cc1

>  <Energy>  (18) 
56.7266405509843

>  <Genealogy>  (18) 
CC[NH2+]Cc1ccc(-c2ccc(-c3ccc([O-])c(C)c3)cn2)cc1 (protonated)
CC[NH2+]Cc1ccc(-c2ccc(-c3ccc([O-])c(C)c3)cn2)cc1 (3D coordinates assigned)
CC[NH2+]Cc1ccc(-c2ccc(-c3ccc([O-])c(C)c3)cn2)cc1 (optimized conformer: 56.7266405509843 kcal/mol)

>  <smiles>  (18) 
CCNCc1ccc(-c2ccc(-c3ccc(O)c(C)c3)cn2)cc1

>  <score_type>  (18) 
oracle

>  <origin>  (18) 
adgpu

>  <m_score__min__energy>  (18) 
-8.9700000000000006

>  <m_primary>  (18) 
energy

$$$$
18:0
     RDKit          3D

 31 32  0  0  0  0  0  0  0  0999 V2000
   -7.8230   18.1670  -31.9720 C   0  0  0  0  0  0  0  0  0  0  0  0
   -9.0760   19.0300  -32.0580 C   0  0  0  0  0  0  0  0  0  0  0  0
   -8.7150   20.4810  -32.0760 C   0  0  0  0  0  0  0  0  0  0  0  0
   -9.6630   21.4490  -31.9210 N   0  0  0  0  0  0  0  0  0  0  0  0
   -8.8220   22.8810  -31.9520 S   0  0  0  0  0  0  0  0  0  0  0  0
   -7.3090   22.2320  -32.1490 C   0  0  0  0  0  0  0  0  0  0  0  0
   -5.7750   23.1440  -32.2690 S   0  0  0  0  0  0  0  0  0  0  0  0
   -6.2770   24.3740  -31.0240 C   0  0  0  0  0  0  0  0  0  0  0  0
   -5.0850   24.7740  -30.2150 C   0  0  0  0  0  0  0  0  0  0  0  0
   -4.2580   25.5930  -30.6980 O   0  0  0  0  0  0  0  0  0  0  0  0
   -4.9400   24.2940  -28.8690 N   0  0  0  0  0  0  0  0  0  0  0  0
   -3.7590   24.4820  -28.0710 C   0  0  0  0  0  0  0  0  0  0  0  0
   -3.8440   24.9160  -26.7340 C   0  0  0  0  0  0  0  0  0  0  0  0
   -2.6820   25.1170  -25.9820 C   0  0  0  0  0  0  0  0  0  0  0  0
   -1.4280   24.8980  -26.5560 C   0  0  0  0  0  0  0  0  0  0  0  0
   -1.3330   24.4870  -27.8880 C   0  0  0  0  0  0  0  0  0  0  0  0
   -2.4900   24.2850  -28.6460 C   0  0  0  0  0  0  0  0  0  0  0  0
   -2.3780   23.8840  -29.9370 F   0  0  0  0  0  0  0  0  0  0  0  0
   -7.4120   20.8890  -32.1920 N   0  0  0  0  0  0  0  0  0  0  0  0
   -7.5697   17.9925  -30.9159 H   0  0  0  0  0  0  0  0  0  0  0  0
   -8.0069   17.2031  -32.4690 H   0  0  0  0  0  0  0  0  0  0  0  0
   -6.9880   18.6824  -32.4690 H   0  0  0  0  0  0  0  0  0  0  0  0
   -9.6233   18.7821  -32.9794 H   0  0  0  0  0  0  0  0  0  0  0  0
   -9.7045   18.8317  -31.1773 H   0  0  0  0  0  0  0  0  0  0  0  0
   -6.6923   25.2589  -31.5285 H   0  0  0  0  0  0  0  0  0  0  0  0
   -7.0411   23.9385  -30.3633 H   0  0  0  0  0  0  0  0  0  0  0  0
   -5.7740   23.8510  -28.4200 H   0  0  0  0  0  0  0  0  0  0  0  0
   -4.8288   25.0978  -26.2790 H   0  0  0  0  0  0  0  0  0  0  0  0
   -2.7561   25.4484  -24.9357 H   0  0  0  0  0  0  0  0  0  0  0  0
   -0.5158   25.0489  -25.9600 H   0  0  0  0  0  0  0  0  0  0  0  0
   -0.3446   24.3219  -28.3416 H   0  0  0  0  0  0  0  0  0  0  0  0
  1  2  1  0
  2  3  1  0
  3  4  2  0
  4  5  1  0
  5  6  1  0
  6  7  1  0
  7  8  1  0
  8  9  1  0
  9 10  2  0
  9 11  1  0
 11 12  1  0
 12 13  2  0
 13 14  1  0
 14 15  2  0
 15 16  1  0
 16 17  2  0
 17 18  1  0
  6 19  2  0
 19  3  1  0
 17 12  1  0
  1 20  1  0
  1 21  1  0
  1 22  1  0
  2 23  1  0
  2 24  1  0
  8 25  1  0
  8 26  1  0
 11 27  1  0
 13 28  1  0
 14 29  1  0
 15 30  1  0
 16 31  1  0
M  END
>  <UniqueID>  (19) 
18

>  <SMILES>  (19) 
CCc1nsc(SCC(=O)Nc2ccccc2F)n1

>  <Energy>  (19) 
62.41895211312735

>  <Genealogy>  (19) 
CCc1nsc(SCC(=O)Nc2ccccc2F)n1 (3D coordinates assigned)
CCc1nsc(SCC(=O)Nc2ccccc2F)n1 (optimized conformer: 62.41895211312735 kcal/mol)

>  <smiles>  (19) 
CCc1nsc(SCC(=O)Nc2ccccc2F)n1

>  <score_type>  (19) 
oracle

>  <origin>  (19) 
adgpu

>  <m_score__min__energy>  (19) 
-7.9100000000000001

>  <m_primary>  (19) 
energy

$$$$
19:0
     RDKit          3D

 38 40  0  0  0  0  0  0  0  0999 V2000
   -3.5750   20.1050  -31.9850 C   0  0  0  0  0  0  0  0  0  0  0  0
   -3.7050   21.5110  -33.1300 S   0  0  0  0  0  0  0  0  0  0  0  0
   -4.0450   22.6910  -31.8260 C   0  0  0  0  0  0  0  0  0  0  0  0
   -3.1450   22.9970  -30.8670 N   0  0  0  0  0  0  0  0  0  0  0  0
   -3.7210   23.8290  -30.0080 N   0  0  0  0  0  0  0  0  0  0  0  0
   -3.0410   24.3700  -28.8580 C   0  0  0  0  0  0  0  0  0  0  0  0
   -1.7500   24.9250  -28.9640 C   0  0  0  0  0  0  0  0  0  0  0  0
   -1.1150   25.4570  -27.8360 C   0  0  0  0  0  0  0  0  0  0  0  0
   -1.7590   25.4520  -26.5990 C   0  0  0  0  0  0  0  0  0  0  0  0
   -3.0460   24.9180  -26.4840 C   0  0  0  0  0  0  0  0  0  0  0  0
   -3.6850   24.3830  -27.6080 C   0  0  0  0  0  0  0  0  0  0  0  0
   -4.9870   24.0630  -30.4140 C   0  0  0  0  0  0  0  0  0  0  0  0
   -5.7980   24.8410  -29.8460 O   0  0  0  0  0  0  0  0  0  0  0  0
   -5.2340   23.3610  -31.5710 C   0  0  0  0  0  0  0  0  0  0  0  0
   -6.4780   23.3210  -32.2830 N   0  0  0  0  0  0  0  0  0  0  0  0
   -7.8820   22.4830  -31.7020 S   0  0  0  0  0  0  0  0  0  0  0  0
   -9.1040   23.0590  -32.3590 O   0  0  0  0  0  0  0  0  0  0  0  0
   -7.9910   22.6770  -30.2150 O   0  0  0  0  0  0  0  0  0  0  0  0
   -7.7910   20.7730  -32.1100 C   0  0  0  0  0  0  0  0  0  0  0  0
   -6.8160   20.3220  -33.0110 C   0  0  0  0  0  0  0  0  0  0  0  0
   -6.7380   18.9640  -33.3390 C   0  0  0  0  0  0  0  0  0  0  0  0
   -7.6360   18.0520  -32.7710 C   0  0  0  0  0  0  0  0  0  0  0  0
   -7.5620   16.7360  -33.0900 F   0  0  0  0  0  0  0  0  0  0  0  0
   -8.6170   18.5000  -31.8790 C   0  0  0  0  0  0  0  0  0  0  0  0
   -8.6970   19.8570  -31.5510 C   0  0  0  0  0  0  0  0  0  0  0  0
   -3.6089   20.4719  -30.9485 H   0  0  0  0  0  0  0  0  0  0  0  0
   -4.4130   19.4135  -32.1568 H   0  0  0  0  0  0  0  0  0  0  0  0
   -2.6244   19.5789  -32.1568 H   0  0  0  0  0  0  0  0  0  0  0  0
   -1.2390   24.9401  -29.9380 H   0  0  0  0  0  0  0  0  0  0  0  0
   -0.1039   25.8808  -27.9255 H   0  0  0  0  0  0  0  0  0  0  0  0
   -1.2547   25.8679  -25.7143 H   0  0  0  0  0  0  0  0  0  0  0  0
   -3.5564   24.9184  -25.5096 H   0  0  0  0  0  0  0  0  0  0  0  0
   -4.6997   23.9691  -27.5130 H   0  0  0  0  0  0  0  0  0  0  0  0
   -6.4710   23.5780  -33.2950 H   0  0  0  0  0  0  0  0  0  0  0  0
   -6.1113   21.0369  -33.4607 H   0  0  0  0  0  0  0  0  0  0  0  0
   -5.9703   18.6124  -34.0440 H   0  0  0  0  0  0  0  0  0  0  0  0
   -9.3253   17.7845  -31.4358 H   0  0  0  0  0  0  0  0  0  0  0  0
   -9.4716   20.2079  -30.8533 H   0  0  0  0  0  0  0  0  0  0  0  0
  1  2  1  0
  2  3  1  0
  3  4  1  0
  4  5  1  0
  5  6  1  0
  6  7  2  0
  7  8  1  0
  8  9  2  0
  9 10  1  0
 10 11  2  0
  5 12  1  0
 12 13  2  0
 12 14  1  0
 14 15  1  0
 15 16  1  0
 16 17  2  0
 16 18  2  0
 16 19  1  0
 19 20  2  0
 20 21  1  0
 21 22  2  0
 22 23  1  0
 22 24  1  0
 24 25  2  0
 14  3  2  0
 25 19  1  0
 11  6  1  0
  1 26  1  0
  1 27  1  0
  1 28  1  0
  7 29  1  0
  8 30  1  0
  9 31  1  0
 10 32  1  0
 11 33  1  0
 15 34  1  0
 20 35  1  0
 21 36  1  0
 24 37  1  0
 25 38  1  0
M  CHG  1   4  -1
M  END
>  <UniqueID>  (20) 
19

>  <SMILES>  (20) 
CSc1[n-]n(-c2ccccc2)c(=O)c1NS(=O)(=O)c1ccc(F)cc1

>  <Energy>  (20) 
78.64461455260229

>  <Genealogy>  (20) 
CSc1[n-]n(-c2ccccc2)c(=O)c1NS(=O)(=O)c1ccc(F)cc1 (protonated)
CSc1[n-]n(-c2ccccc2)c(=O)c1NS(=O)(=O)c1ccc(F)cc1 (3D coordinates assigned)
CSc1[n-]n(-c2ccccc2)c(=O)c1NS(=O)(=O)c1ccc(F)cc1 (optimized conformer: 78.64461455260229 kcal/mol)

>  <smiles>  (20) 
CSc1[nH]n(-c2ccccc2)c(=O)c1NS(=O)(=O)c1ccc(F)cc1

>  <score_type>  (20) 
oracle

>  <origin>  (20) 
adgpu

>  <m_score__min__energy>  (20) 
-9.3200000000000003

>  <m_primary>  (20) 
energy

$$$$
20:0
     RDKit          3D

 59 62  0  0  0  0  0  0  0  0999 V2000
   -5.6590   26.4090  -30.7840 O   0  0  0  0  0  0  0  0  0  0  0  0
   -5.0710   25.2990  -30.6720 C   0  0  0  0  0  0  0  0  0  0  0  0
   -3.7020   25.2860  -30.2410 N   0  0  0  0  0  0  0  0  0  0  0  0
   -3.0370   24.1900  -29.5950 C   0  0  0  0  0  0  0  0  0  0  0  0
   -2.7550   24.2790  -28.2260 C   0  0  0  0  0  0  0  0  0  0  0  0
   -2.0780   23.2410  -27.5750 C   0  0  0  0  0  0  0  0  0  0  0  0
   -1.6670   22.1080  -28.2890 C   0  0  0  0  0  0  0  0  0  0  0  0
   -0.7740   20.8300  -27.4650 S   0  0  0  0  0  0  0  0  0  0  0  0
    0.6810   21.2070  -27.4330 O   0  0  0  0  0  0  0  0  0  0  0  0
   -1.2650   20.6920  -26.0500 O   0  0  0  0  0  0  0  0  0  0  0  0
   -0.9690   19.3130  -28.3210 N   0  0  0  0  0  0  0  0  0  0  0  0
   -0.1410   19.2820  -29.5340 C   0  0  0  0  0  0  0  0  0  0  0  0
    1.1790   18.6110  -29.1750 C   0  0  0  0  0  0  0  0  0  0  0  0
    0.9310   17.8940  -27.8560 C   0  0  0  0  0  0  0  0  0  0  0  0
   -0.5230   18.1760  -27.5020 C   0  0  0  0  0  0  0  0  0  0  0  0
   -1.9310   22.0230  -29.6630 C   0  0  0  0  0  0  0  0  0  0  0  0
   -2.6060   23.0610  -30.3150 C   0  0  0  0  0  0  0  0  0  0  0  0
   -5.8190   24.0480  -30.9460 C   0  0  0  0  0  0  0  0  0  0  0  0
   -6.7050   23.5150  -29.9920 C   0  0  0  0  0  0  0  0  0  0  0  0
   -7.4230   22.3460  -30.2660 C   0  0  0  0  0  0  0  0  0  0  0  0
   -7.2550   21.6870  -31.4920 C   0  0  0  0  0  0  0  0  0  0  0  0
   -8.1610   20.2220  -31.8630 S   0  0  0  0  0  0  0  0  0  0  0  0
   -8.9440   20.4340  -33.1290 O   0  0  0  0  0  0  0  0  0  0  0  0
   -9.1130   19.9520  -30.7270 O   0  0  0  0  0  0  0  0  0  0  0  0
   -7.0780   18.8610  -32.0640 N   0  0  0  0  0  0  0  0  0  0  0  0
   -5.8180   19.2720  -32.7380 C   0  0  0  0  0  0  0  0  0  0  0  0
   -5.7780   18.8890  -34.2250 C   0  0  0  0  0  0  0  0  0  0  0  0
   -5.9460   17.3710  -34.4160 C   0  0  0  0  0  0  0  0  0  0  0  0
   -6.8130   16.7250  -33.3190 C   0  0  0  0  0  0  0  0  0  0  0  0
   -7.7920   17.7430  -32.7220 C   0  0  0  0  0  0  0  0  0  0  0  0
   -6.3790   22.2190  -32.4460 C   0  0  0  0  0  0  0  0  0  0  0  0
   -5.6720   23.3950  -32.1810 C   0  0  0  0  0  0  0  0  0  0  0  0
   -3.0670   25.1689  -27.6596 H   0  0  0  0  0  0  0  0  0  0  0  0
   -1.8678   23.3153  -26.4978 H   0  0  0  0  0  0  0  0  0  0  0  0
   -1.9820   19.2020  -28.5710 H   0  0  0  0  0  0  0  0  0  0  0  0
   -0.6512   18.7082  -30.3216 H   0  0  0  0  0  0  0  0  0  0  0  0
    0.0336   20.3016  -29.9082 H   0  0  0  0  0  0  0  0  0  0  0  0
    1.4677   17.8908  -29.9547 H   0  0  0  0  0  0  0  0  0  0  0  0
    1.9968   19.3420  -29.0922 H   0  0  0  0  0  0  0  0  0  0  0  0
    1.0952   16.8124  -27.9704 H   0  0  0  0  0  0  0  0  0  0  0  0
    1.6159   18.2425  -27.0689 H   0  0  0  0  0  0  0  0  0  0  0  0
   -1.1402   17.2920  -27.7202 H   0  0  0  0  0  0  0  0  0  0  0  0
   -0.6210   18.4097  -26.4316 H   0  0  0  0  0  0  0  0  0  0  0  0
   -1.6067   21.1381  -30.2302 H   0  0  0  0  0  0  0  0  0  0  0  0
   -2.8005   22.9938  -31.3956 H   0  0  0  0  0  0  0  0  0  0  0  0
   -6.8341   24.0210  -29.0238 H   0  0  0  0  0  0  0  0  0  0  0  0
   -8.1211   21.9429  -29.5176 H   0  0  0  0  0  0  0  0  0  0  0  0
   -5.7165   20.3641  -32.6548 H   0  0  0  0  0  0  0  0  0  0  0  0
   -4.9919   18.7428  -32.2404 H   0  0  0  0  0  0  0  0  0  0  0  0
   -6.5925   19.4087  -34.7509 H   0  0  0  0  0  0  0  0  0  0  0  0
   -4.8003   19.1843  -34.6335 H   0  0  0  0  0  0  0  0  0  0  0  0
   -6.4206   17.1897  -35.3916 H   0  0  0  0  0  0  0  0  0  0  0  0
   -4.9458   16.9168  -34.3588 H   0  0  0  0  0  0  0  0  0  0  0  0
   -7.3826   15.8911  -33.7551 H   0  0  0  0  0  0  0  0  0  0  0  0
   -6.1521   16.3628  -32.5178 H   0  0  0  0  0  0  0  0  0  0  0  0
   -8.4232   18.1467  -33.5274 H   0  0  0  0  0  0  0  0  0  0  0  0
   -8.4036   17.2307  -31.9647 H   0  0  0  0  0  0  0  0  0  0  0  0
   -6.2464   21.7077  -33.4109 H   0  0  0  0  0  0  0  0  0  0  0  0
   -4.9971   23.8114  -32.9433 H   0  0  0  0  0  0  0  0  0  0  0  0
  1  2  2  0
  2  3  1  0
  3  4  1  0
  4  5  2  0
  5  6  1  0
  6  7  2  0
  7  8  1  0
  8  9  2  0
  8 10  2  0
  8 11  1  0
 11 12  1  0
 12 13  1  0
 13 14  1  0
 14 15  1  0
  7 16  1  0
 16 17  2  0
  2 18  1  0
 18 19  2  0
 19 20  1  0
 20 21  2  0
 21 22  1  0
 22 23  2  0
 22 24  2  0
 22 25  1  0
 25 26  1  0
 26 27  1  0
 27 28  1  0
 28 29  1  0
 29 30  1  0
 21 31  1  0
 31 32  2  0
 17  4  1  0
 32 18  1  0
 15 11  1  0
 30 25  1  0
  5 33  1  0
  6 34  1  0
 11 35  1  0
 12 36  1  0
 12 37  1  0
 13 38  1  0
 13 39  1  0
 14 40  1  0
 14 41  1  0
 15 42  1  0
 15 43  1  0
 16 44  1  0
 17 45  1  0
 19 46  1  0
 20 47  1  0
 26 48  1  0
 26 49  1  0
 27 50  1  0
 27 51  1  0
 28 52  1  0
 28 53  1  0
 29 54  1  0
 29 55  1  0
 30 56  1  0
 30 57  1  0
 31 58  1  0
 32 59  1  0
M  CHG  2   3  -1  11   1
M  END
>  <UniqueID>  (21) 
20

>  <SMILES>  (21) 
O=C([N-]c1ccc(S(=O)(=O)[NH+]2CCCC2)cc1)c1ccc(S(=O)(=O)N2CCCCC2)cc1

>  <Energy>  (21) 
74.5515104497193

>  <Genealogy>  (21) 
O=C([N-]c1ccc(S(=O)(=O)[NH+]2CCCC2)cc1)c1ccc(S(=O)(=O)N2CCCCC2)cc1 (protonated)
O=C([N-]c1ccc(S(=O)(=O)[NH+]2CCCC2)cc1)c1ccc(S(=O)(=O)N2CCCCC2)cc1 (3D coordinates assigned)
O=C([N-]c1ccc(S(=O)(=O)[NH+]2CCCC2)cc1)c1ccc(S(=O)(=O)N2CCCCC2)cc1 (nonaromatic ring conformer: 74.5515104497193 kcal/mol)

>  <smiles>  (21) 
O=C(Nc1ccc(S(=O)(=O)N2CCCC2)cc1)c1ccc(S(=O)(=O)N2CCCCC2)cc1

>  <score_type>  (21) 
oracle

>  <origin>  (21) 
adgpu

>  <m_score__min__energy>  (21) 
-12.960000000000001

>  <m_primary>  (21) 
energy

$$$$
21:0
     RDKit          3D

 62 65  0  0  0  0  0  0  0  0999 V2000
    1.0520   27.9700  -22.7190 C   0  0  0  0  0  0  0  0  0  0  0  0
    1.1700   26.6510  -23.3720 N   0  0  0  0  0  0  0  0  0  0  0  0
   -0.0990   26.2640  -24.0470 C   0  0  0  0  0  0  0  0  0  0  0  0
   -0.0810   26.5690  -25.5570 C   0  0  0  0  0  0  0  0  0  0  0  0
    1.0570   25.9260  -26.2560 N   0  0  0  0  0  0  0  0  0  0  0  0
    0.5430   24.5320  -27.1840 S   0  0  0  0  0  0  0  0  0  0  0  0
    0.9090   23.2720  -26.4480 O   0  0  0  0  0  0  0  0  0  0  0  0
    1.2710   24.5310  -28.5010 O   0  0  0  0  0  0  0  0  0  0  0  0
   -1.1960   24.5420  -27.4860 C   0  0  0  0  0  0  0  0  0  0  0  0
   -2.1040   24.5240  -26.4150 C   0  0  0  0  0  0  0  0  0  0  0  0
   -3.4810   24.5380  -26.6590 C   0  0  0  0  0  0  0  0  0  0  0  0
   -3.9600   24.5420  -27.9720 C   0  0  0  0  0  0  0  0  0  0  0  0
   -3.0580   24.5200  -29.0480 C   0  0  0  0  0  0  0  0  0  0  0  0
   -3.5050   24.4730  -30.3710 O   0  0  0  0  0  0  0  0  0  0  0  0
   -4.7030   23.8600  -30.7710 C   0  0  0  0  0  0  0  0  0  0  0  0
   -4.8410   22.4800  -30.5720 C   0  0  0  0  0  0  0  0  0  0  0  0
   -6.0430   21.8360  -30.8790 C   0  0  0  0  0  0  0  0  0  0  0  0
   -7.1100   22.5560  -31.4330 C   0  0  0  0  0  0  0  0  0  0  0  0
   -8.6380   21.7450  -31.7880 S   0  0  0  0  0  0  0  0  0  0  0  0
   -9.5940   22.7650  -32.3500 O   0  0  0  0  0  0  0  0  0  0  0  0
   -9.2230   21.2350  -30.4960 O   0  0  0  0  0  0  0  0  0  0  0  0
   -8.4920   20.4400  -32.9550 N   0  0  0  0  0  0  0  0  0  0  0  0
   -9.3560   19.2720  -32.6900 C   0  0  0  0  0  0  0  0  0  0  0  0
   -8.7460   18.3010  -31.6790 C   0  0  0  0  0  0  0  0  0  0  0  0
   -7.3640   17.8610  -32.1420 C   0  0  0  0  0  0  0  0  0  0  0  0
   -6.4580   19.0770  -32.3500 C   0  0  0  0  0  0  0  0  0  0  0  0
   -7.0990   20.1000  -33.3070 C   0  0  0  0  0  0  0  0  0  0  0  0
   -6.9520   23.9230  -31.6970 C   0  0  0  0  0  0  0  0  0  0  0  0
   -5.7710   24.5800  -31.3410 C   0  0  0  0  0  0  0  0  0  0  0  0
   -1.6820   24.5620  -28.8010 C   0  0  0  0  0  0  0  0  0  0  0  0
    2.1890   25.5780  -25.3730 C   0  0  0  0  0  0  0  0  0  0  0  0
    2.3540   26.6260  -24.2680 C   0  0  0  0  0  0  0  0  0  0  0  0
    1.0636   27.8407  -21.6267 H   0  0  0  0  0  0  0  0  0  0  0  0
    1.8968   28.6060  -23.0219 H   0  0  0  0  0  0  0  0  0  0  0  0
    0.1077   28.4459  -23.0219 H   0  0  0  0  0  0  0  0  0  0  0  0
    1.3390   25.9480  -22.6140 H   0  0  0  0  0  0  0  0  0  0  0  0
   -0.2580   25.1846  -23.9070 H   0  0  0  0  0  0  0  0  0  0  0  0
   -0.9106   26.8542  -23.5965 H   0  0  0  0  0  0  0  0  0  0  0  0
   -1.0187   26.2038  -26.0012 H   0  0  0  0  0  0  0  0  0  0  0  0
    0.0279   27.6572  -25.6753 H   0  0  0  0  0  0  0  0  0  0  0  0
   -1.7309   24.4988  -25.3805 H   0  0  0  0  0  0  0  0  0  0  0  0
   -4.1881   24.5459  -25.8164 H   0  0  0  0  0  0  0  0  0  0  0  0
   -5.0432   24.5624  -28.1624 H   0  0  0  0  0  0  0  0  0  0  0  0
   -3.9972   21.8991  -30.1712 H   0  0  0  0  0  0  0  0  0  0  0  0
   -6.1519   20.7588  -30.6848 H   0  0  0  0  0  0  0  0  0  0  0  0
  -10.3192   19.6294  -32.2970 H   0  0  0  0  0  0  0  0  0  0  0  0
   -9.4785   18.7287  -33.6386 H   0  0  0  0  0  0  0  0  0  0  0  0
   -8.6605   18.7994  -30.7021 H   0  0  0  0  0  0  0  0  0  0  0  0
   -9.3947   17.4168  -31.5934 H   0  0  0  0  0  0  0  0  0  0  0  0
   -6.9190   17.2037  -31.3805 H   0  0  0  0  0  0  0  0  0  0  0  0
   -7.4624   17.3223  -33.0960 H   0  0  0  0  0  0  0  0  0  0  0  0
   -6.2788   19.5599  -31.3781 H   0  0  0  0  0  0  0  0  0  0  0  0
   -5.5132   18.7320  -32.7953 H   0  0  0  0  0  0  0  0  0  0  0  0
   -6.4990   21.0217  -33.2849 H   0  0  0  0  0  0  0  0  0  0  0  0
   -7.1196   19.6409  -34.3064 H   0  0  0  0  0  0  0  0  0  0  0  0
   -7.7623   24.4824  -32.1874 H   0  0  0  0  0  0  0  0  0  0  0  0
   -5.6752   25.6632  -31.5065 H   0  0  0  0  0  0  0  0  0  0  0  0
   -0.9767   24.6110  -29.6437 H   0  0  0  0  0  0  0  0  0  0  0  0
    2.0010   24.5960  -24.9145 H   0  0  0  0  0  0  0  0  0  0  0  0
    3.1103   25.5481  -25.9733 H   0  0  0  0  0  0  0  0  0  0  0  0
    3.2482   26.3844  -23.6747 H   0  0  0  0  0  0  0  0  0  0  0  0
    2.4567   27.6152  -24.7380 H   0  0  0  0  0  0  0  0  0  0  0  0
  1  2  1  0
  2  3  1  0
  3  4  1  0
  4  5  1  0
  5  6  1  0
  6  7  2  0
  6  8  2  0
  6  9  1  0
  9 10  2  0
 10 11  1  0
 11 12  2  0
 12 13  1  0
 13 14  1  0
 14 15  1  0
 15 16  2  0
 16 17  1  0
 17 18  2  0
 18 19  1  0
 19 20  2  0
 19 21  2  0
 19 22  1  0
 22 23  1  0
 23 24  1  0
 24 25  1  0
 25 26  1  0
 26 27  1  0
 18 28  1  0
 28 29  2  0
 13 30  2  0
  5 31  1  0
 31 32  1  0
 32  2  1  0
 30  9  1  0
 29 15  1  0
 27 22  1  0
  1 33  1  0
  1 34  1  0
  1 35  1  0
  2 36  1  0
  3 37  1  0
  3 38  1  0
  4 39  1  0
  4 40  1  0
 10 41  1  0
 11 42  1  0
 12 43  1  0
 16 44  1  0
 17 45  1  0
 23 46  1  0
 23 47  1  0
 24 48  1  0
 24 49  1  0
 25 50  1  0
 25 51  1  0
 26 52  1  0
 26 53  1  0
 27 54  1  0
 27 55  1  0
 28 56  1  0
 29 57  1  0
 30 58  1  0
 31 59  1  0
 31 60  1  0
 32 61  1  0
 32 62  1  0
M  CHG  1   2   1
M  END
>  <UniqueID>  (22) 
21

>  <SMILES>  (22) 
C[NH+]1CCN(S(=O)(=O)c2cccc(Oc3ccc(S(=O)(=O)N4CCCCC4)cc3)c2)CC1

>  <Energy>  (22) 
84.82042294274432

>  <Genealogy>  (22) 
C[NH+]1CCN(S(=O)(=O)c2cccc(Oc3ccc(S(=O)(=O)N4CCCCC4)cc3)c2)CC1 (protonated)
C[NH+]1CCN(S(=O)(=O)c2cccc(Oc3ccc(S(=O)(=O)N4CCCCC4)cc3)c2)CC1 (3D coordinates assigned)
C[NH+]1CCN(S(=O)(=O)c2cccc(Oc3ccc(S(=O)(=O)N4CCCCC4)cc3)c2)CC1 (nonaromatic ring conformer: 84.82042294274432 kcal/mol)

>  <smiles>  (22) 
CN1CCN(S(=O)(=O)c2cccc(Oc3ccc(S(=O)(=O)N4CCCCC4)cc3)c2)CC1

>  <score_type>  (22) 
oracle

>  <origin>  (22) 
adgpu

>  <m_score__min__energy>  (22) 
-11.93

>  <m_primary>  (22) 
energy

$$$$
22:0
     RDKit          3D

 54 57  0  0  1  0  0  0  0  0999 V2000
    1.2390   16.9810  -28.3330 C   0  0  0  0  0  0  0  0  0  0  0  0
    0.1930   17.0900  -27.2590 C   0  0  0  0  0  0  0  0  0  0  0  0
   -0.6580   18.2800  -27.3510 C   0  0  0  0  0  0  0  0  0  0  0  0
   -1.9020   18.2500  -26.7560 C   0  0  0  0  0  0  0  0  0  0  0  0
   -2.7210   19.3590  -26.8290 C   0  0  0  0  0  0  0  0  0  0  0  0
   -2.3330   20.5230  -27.4900 C   0  0  0  0  0  0  0  0  0  0  0  0
   -3.2370   21.5760  -27.5010 O   0  0  0  0  0  0  0  0  0  0  0  0
   -3.2130   22.6440  -28.3550 C   0  0  0  0  0  0  0  0  0  0  0  0
   -4.0830   22.7410  -29.4420 C   0  0  0  0  0  0  0  0  0  0  0  0
   -4.0290   23.8340  -30.2840 C   0  0  0  0  0  0  0  0  0  0  0  0
   -4.8390   23.9230  -31.2950 N   0  0  0  0  0  0  0  0  0  0  0  0
   -5.8050   22.9080  -31.5720 C   0  0  0  0  0  0  0  0  0  0  0  0
   -5.5010   21.7990  -32.3570 C   0  0  0  0  0  0  0  0  0  0  0  0
   -6.4790   20.8310  -32.6010 C   0  0  0  0  0  0  0  0  0  0  0  0
   -7.7580   20.9500  -32.0730 C   0  0  0  0  0  0  0  0  0  0  0  0
   -8.7200   19.9340  -32.3510 C   0  0  0  0  0  0  0  0  0  0  0  0
   -9.5080   19.1210  -32.5600 N   0  0  0  0  0  0  0  0  0  0  0  0
   -8.0500   22.0500  -31.2980 C   0  0  0  0  0  0  0  0  0  0  0  0
   -7.0950   23.0160  -31.0470 C   0  0  0  0  0  0  0  0  0  0  0  0
   -3.1480   24.8410  -30.0980 N   0  0  0  0  0  0  0  0  0  0  0  0
   -2.3210   24.7270  -29.0480 C   0  0  0  0  0  0  0  0  0  0  0  0
   -1.4670   25.6550  -28.8290 N   0  0  0  0  0  0  0  0  0  0  0  0
   -0.5580   25.6030  -27.7330 C   0  0  0  0  0  0  0  0  0  0  0  0
    0.4510   24.6410  -27.8260 C   0  0  0  0  0  0  0  0  0  0  0  0
    1.3800   24.5120  -26.8160 C   0  0  0  0  0  0  0  0  0  0  0  0
    1.2790   25.3620  -25.7160 C   0  0  0  0  0  0  0  0  0  0  0  0
    2.2810   25.1760  -24.6960 C   0  0  0  0  0  0  0  0  0  0  0  0
    3.0800   25.0340  -23.8710 N   0  0  0  0  0  0  0  0  0  0  0  0
    0.2840   26.3060  -25.6300 C   0  0  0  0  0  0  0  0  0  0  0  0
   -0.6470   26.4380  -26.6390 C   0  0  0  0  0  0  0  0  0  0  0  0
   -2.3500   23.6670  -28.2050 N   0  0  0  0  0  0  0  0  0  0  0  0
   -1.1020   20.5520  -28.0780 C   0  0  0  0  0  0  0  0  0  0  0  0
   -0.6980   21.7000  -28.7400 O   0  0  0  0  0  0  0  0  0  0  0  0
   -0.2620   19.4390  -28.0130 C   0  0  0  0  0  0  0  0  0  0  0  0
    2.2312   16.8776  -27.8694 H   0  0  0  0  0  0  0  0  0  0  0  0
    1.0326   16.0995  -28.9578 H   0  0  0  0  0  0  0  0  0  0  0  0
    1.2187   17.8861  -28.9578 H   0  0  0  0  0  0  0  0  0  0  0  0
   -0.4528   16.2015  -27.3184 H   0  0  0  0  0  0  0  0  0  0  0  0
    0.7346   17.1685  -26.3048 H   0  0  0  0  0  0  0  0  0  0  0  0
   -2.2398   17.3472  -26.2261 H   0  0  0  0  0  0  0  0  0  0  0  0
   -3.7108   19.3228  -26.3505 H   0  0  0  0  0  0  0  0  0  0  0  0
   -4.8158   21.9422  -29.6290 H   0  0  0  0  0  0  0  0  0  0  0  0
   -4.4937   21.6851  -32.7840 H   0  0  0  0  0  0  0  0  0  0  0  0
   -6.2311   19.9583  -33.2230 H   0  0  0  0  0  0  0  0  0  0  0  0
   -9.0583   22.1611  -30.8726 H   0  0  0  0  0  0  0  0  0  0  0  0
   -7.3545   23.8844  -30.4236 H   0  0  0  0  0  0  0  0  0  0  0  0
   -3.0870   25.6750  -30.7190 H   0  0  0  0  0  0  0  0  0  0  0  0
    0.5041   23.9850  -28.7074 H   0  0  0  0  0  0  0  0  0  0  0  0
    2.1793   23.7587  -26.8764 H   0  0  0  0  0  0  0  0  0  0  0  0
    0.2296   26.9621  -24.7487 H   0  0  0  0  0  0  0  0  0  0  0  0
   -1.4438   27.1934  -26.5725 H   0  0  0  0  0  0  0  0  0  0  0  0
   -1.6720   23.6550  -27.4100 H   0  0  0  0  0  0  0  0  0  0  0  0
   -0.6760   22.5600  -28.2420 H   0  0  0  0  0  0  0  0  0  0  0  0
    0.7275   19.4782  -28.4919 H   0  0  0  0  0  0  0  0  0  0  0  0
  1  2  1  0
  2  3  1  0
  3  4  2  0
  4  5  1  0
  5  6  2  0
  6  7  1  0
  7  8  1  0
  8  9  2  0
  9 10  1  0
 10 11  2  0
 11 12  1  0
 12 13  2  0
 13 14  1  0
 14 15  2  0
 15 16  1  0
 16 17  3  0
 15 18  1  0
 18 19  2  0
 10 20  1  0
 20 21  1  0
 21 22  2  0
 22 23  1  0
 23 24  2  0
 24 25  1  0
 25 26  2  0
 26 27  1  0
 27 28  3  0
 26 29  1  0
 29 30  2  0
 21 31  1  0
  6 32  1  0
 32 33  1  0
 32 34  2  0
 34  3  1  0
 31  8  1  0
 19 12  1  0
 30 23  1  0
  1 35  1  0
  1 36  1  0
  1 37  1  0
  2 38  1  0
  2 39  1  0
  4 40  1  0
  5 41  1  0
  9 42  1  0
 13 43  1  0
 14 44  1  0
 18 45  1  0
 19 46  1  0
 20 47  1  0
 24 48  1  0
 25 49  1  0
 29 50  1  0
 30 51  1  0
 31 52  1  0
 33 53  1  0
 34 54  1  0
M  END
>  <smiles>  (23) 
CCc1ccc(Oc2cc(=Nc3ccc(C#N)cc3)[nH]c(=Nc3ccc(C#N)cc3)[nH]2)c(O)c1

>  <score_type>  (23) 
oracle

>  <origin>  (23) 
adgpu

>  <m_score__min__energy>  (23) 
-10.66

>  <m_primary>  (23) 
energy

$$$$
23:0
     RDKit          3D

 75 78  0  0  0  0  0  0  0  0999 V2000
   -3.9880   13.6720  -33.1760 C   0  0  0  0  0  0  0  0  0  0  0  0
   -4.1040   13.6410  -34.6990 C   0  0  0  0  0  0  0  0  0  0  0  0
   -2.8120   14.0860  -35.4010 C   0  0  0  0  0  0  0  0  0  0  0  0
   -2.0380   12.9450  -36.0750 C   0  0  0  0  0  0  0  0  0  0  0  0
   -0.9320   12.5350  -35.2680 O   0  0  0  0  0  0  0  0  0  0  0  0
   -0.9150   12.6120  -33.8690 C   0  0  0  0  0  0  0  0  0  0  0  0
   -1.3880   11.6700  -33.1760 O   0  0  0  0  0  0  0  0  0  0  0  0
   -0.3750   13.7820  -33.2250 N   0  0  0  0  0  0  0  0  0  0  0  0
   -0.7040   13.9910  -31.8010 C   0  0  0  0  0  0  0  0  0  0  0  0
   -0.1190   15.2700  -31.1900 C   0  0  0  0  0  0  0  0  0  0  0  0
   -0.0040   16.3190  -32.1970 N   0  0  0  0  0  0  0  0  0  0  0  0
   -0.2860   17.6880  -31.8420 C   0  0  0  0  0  0  0  0  0  0  0  0
   -0.0530   18.0800  -30.6670 O   0  0  0  0  0  0  0  0  0  0  0  0
   -0.8510   18.6870  -32.8330 C   0  0  2  0  0  0  0  0  0  0  0  0
   -0.2540   20.1020  -32.6770 C   0  0  0  0  0  0  0  0  0  0  0  0
   -1.2550   21.0990  -32.1430 C   0  0  0  0  0  0  0  0  0  0  0  0
   -1.0210   21.7660  -30.9310 C   0  0  0  0  0  0  0  0  0  0  0  0
   -1.9560   22.6780  -30.4330 C   0  0  0  0  0  0  0  0  0  0  0  0
   -3.1420   22.9450  -31.1420 C   0  0  0  0  0  0  0  0  0  0  0  0
   -4.1360   23.9090  -30.6150 C   0  0  0  0  0  0  0  0  0  0  0  0
   -3.7790   25.2770  -30.4060 N   0  0  0  0  0  0  0  0  0  0  0  0
   -5.3110   23.5330  -30.3510 O   0  0  0  0  0  0  0  0  0  0  0  0
   -3.3640   22.2880  -32.3650 C   0  0  0  0  0  0  0  0  0  0  0  0
   -2.4250   21.3800  -32.8620 C   0  0  0  0  0  0  0  0  0  0  0  0
   -2.3110   18.7310  -32.7220 N   0  0  0  0  0  0  0  0  0  0  0  0
   -3.1720   18.2530  -33.7630 C   0  0  0  0  0  0  0  0  0  0  0  0
   -2.7230   18.0910  -34.9320 O   0  0  0  0  0  0  0  0  0  0  0  0
   -4.5900   17.9750  -33.4750 C   0  0  0  0  0  0  0  0  0  0  0  0
   -5.1020   16.6720  -33.5350 C   0  0  0  0  0  0  0  0  0  0  0  0
   -6.4560   16.4590  -33.2770 C   0  0  0  0  0  0  0  0  0  0  0  0
   -7.2840   17.5320  -32.9430 C   0  0  0  0  0  0  0  0  0  0  0  0
   -6.7410   18.8310  -32.8610 C   0  0  0  0  0  0  0  0  0  0  0  0
   -7.5580   20.0240  -32.4860 C   0  0  0  0  0  0  0  0  0  0  0  0
   -8.9600   19.9540  -32.3360 C   0  0  0  0  0  0  0  0  0  0  0  0
   -9.6950   21.0890  -31.9760 C   0  0  0  0  0  0  0  0  0  0  0  0
   -9.0450   22.3030  -31.7480 C   0  0  0  0  0  0  0  0  0  0  0  0
   -7.6580   22.3870  -31.8760 C   0  0  0  0  0  0  0  0  0  0  0  0
   -6.9180   21.2590  -32.2450 C   0  0  0  0  0  0  0  0  0  0  0  0
   -5.4170   19.0020  -33.1410 N   0  0  0  0  0  0  0  0  0  0  0  0
    0.8440   15.9870  -33.3350 C   0  0  0  0  0  0  0  0  0  0  0  0
    0.2710   14.7910  -34.0900 C   0  0  0  0  0  0  0  0  0  0  0  0
   -4.9590   13.4125  -32.7290 H   0  0  0  0  0  0  0  0  0  0  0  0
   -3.2289   12.9452  -32.8512 H   0  0  0  0  0  0  0  0  0  0  0  0
   -3.6926   14.6806  -32.8512 H   0  0  0  0  0  0  0  0  0  0  0  0
   -4.3393   12.6134  -35.0132 H   0  0  0  0  0  0  0  0  0  0  0  0
   -4.8980   14.3460  -34.9862 H   0  0  0  0  0  0  0  0  0  0  0  0
   -3.0750   14.8265  -36.1708 H   0  0  0  0  0  0  0  0  0  0  0  0
   -2.1540   14.4975  -34.6215 H   0  0  0  0  0  0  0  0  0  0  0  0
   -2.7133   12.0893  -36.2227 H   0  0  0  0  0  0  0  0  0  0  0  0
   -1.6550   13.3024  -37.0422 H   0  0  0  0  0  0  0  0  0  0  0  0
   -1.7989   14.0350  -31.7050 H   0  0  0  0  0  0  0  0  0  0  0  0
   -0.2552   13.1504  -31.2515 H   0  0  0  0  0  0  0  0  0  0  0  0
   -0.7782   15.6174  -30.3809 H   0  0  0  0  0  0  0  0  0  0  0  0
    0.8839   15.0466  -30.7972 H   0  0  0  0  0  0  0  0  0  0  0  0
   -0.5642   18.3392  -33.8364 H   0  0  0  0  0  0  0  0  0  0  0  0
    0.5971   20.0506  -31.9821 H   0  0  0  0  0  0  0  0  0  0  0  0
    0.0572   20.4442  -33.6750 H   0  0  0  0  0  0  0  0  0  0  0  0
   -0.0959   21.5700  -30.3691 H   0  0  0  0  0  0  0  0  0  0  0  0
   -1.7632   23.1911  -29.4793 H   0  0  0  0  0  0  0  0  0  0  0  0
   -3.5050   25.8850  -31.2090 H   0  0  0  0  0  0  0  0  0  0  0  0
   -4.2831   22.4900  -32.9346 H   0  0  0  0  0  0  0  0  0  0  0  0
   -2.6057   20.8815  -33.8258 H   0  0  0  0  0  0  0  0  0  0  0  0
   -2.7500   19.1280  -31.8590 H   0  0  0  0  0  0  0  0  0  0  0  0
   -4.4434   15.8265  -33.7828 H   0  0  0  0  0  0  0  0  0  0  0  0
   -6.8725   15.4427  -33.3369 H   0  0  0  0  0  0  0  0  0  0  0  0
   -8.3531   17.3655  -32.7450 H   0  0  0  0  0  0  0  0  0  0  0  0
   -9.4792   18.9988  -32.5036 H   0  0  0  0  0  0  0  0  0  0  0  0
  -10.7882   21.0243  -31.8724 H   0  0  0  0  0  0  0  0  0  0  0  0
   -9.6263   23.1937  -31.4673 H   0  0  0  0  0  0  0  0  0  0  0  0
   -7.1458   23.3419  -31.6864 H   0  0  0  0  0  0  0  0  0  0  0  0
   -5.8255   21.3350  -32.3485 H   0  0  0  0  0  0  0  0  0  0  0  0
    0.8978   16.8521  -34.0123 H   0  0  0  0  0  0  0  0  0  0  0  0
    1.8498   15.7318  -32.9699 H   0  0  0  0  0  0  0  0  0  0  0  0
   -0.4772   15.1614  -34.8062 H   0  0  0  0  0  0  0  0  0  0  0  0
    1.1191   14.2908  -34.5804 H   0  0  0  0  0  0  0  0  0  0  0  0
  1  2  1  0
  2  3  1  0
  3  4  1  0
  4  5  1  0
  5  6  1  0
  6  7  2  0
  6  8  1  0
  8  9  1  0
  9 10  1  0
 10 11  1  0
 11 12  1  0
 12 13  2  0
 12 14  1  0
 14 15  1  0
 15 16  1  0
 16 17  2  0
 17 18  1  0
 18 19  2  0
 19 20  1  0
 20 21  1  0
 20 22  2  0
 19 23  1  0
 23 24  2  0
 14 25  1  0
 25 26  1  0
 26 27  2  0
 26 28  1  0
 28 29  2  0
 29 30  1  0
 30 31  2  0
 31 32  1  0
 32 33  1  0
 33 34  2  0
 34 35  1  0
 35 36  2  0
 36 37  1  0
 37 38  2  0
 32 39  2  0
 11 40  1  0
 40 41  1  0
 41  8  1  0
 24 16  1  0
 39 28  1  0
 38 33  1  0
  1 42  1  0
  1 43  1  0
  1 44  1  0
  2 45  1  0
  2 46  1  0
  3 47  1  0
  3 48  1  0
  4 49  1  0
  4 50  1  0
  9 51  1  0
  9 52  1  0
 10 53  1  0
 10 54  1  0
 14 55  1  6
 15 56  1  0
 15 57  1  0
 17 58  1  0
 18 59  1  0
 21 60  1  0
 23 61  1  0
 24 62  1  0
 25 63  1  0
 29 64  1  0
 30 65  1  0
 31 66  1  0
 34 67  1  0
 35 68  1  0
 36 69  1  0
 37 70  1  0
 38 71  1  0
 40 72  1  0
 40 73  1  0
 41 74  1  0
 41 75  1  0
M  CHG  1  21  -1
M  END
>  <UniqueID>  (24) 
22

>  <SMILES>  (24) 
CCCCOC(=O)N1CCN(C(=O)[C@H](Cc2ccc(C([NH-])=O)cc2)NC(=O)c2cccc(-c3ccccc3)n2)CC1

>  <Energy>  (24) 
77.24224381944457

>  <Genealogy>  (24) 
CCCCOC(=O)N1CCN(C(=O)C(Cc2ccc(C([NH-])=O)cc2)NC(=O)c2cccc(-c3ccccc3)n2)CC1 (protonated)
CCCCOC(=O)N1CCN(C(=O)[C@H](Cc2ccc(C([NH-])=O)cc2)NC(=O)c2cccc(-c3ccccc3)n2)CC1 (chirality)
CCCCOC(=O)N1CCN(C(=O)[C@H](Cc2ccc(C([NH-])=O)cc2)NC(=O)c2cccc(-c3ccccc3)n2)CC1 (3D coordinates assigned)
CCCCOC(=O)N1CCN(C(=O)[C@H](Cc2ccc(C([NH-])=O)cc2)NC(=O)c2cccc(-c3ccccc3)n2)CC1 (nonaromatic ring conformer: 77.24224381944457 kcal/mol)

>  <smiles>  (24) 
CCCCOC(=O)N1CCN(C(=O)C(Cc2ccc(C(N)=O)cc2)NC(=O)c2cccc(-c3ccccc3)n2)CC1

>  <score_type>  (24) 
oracle

>  <origin>  (24) 
adgpu

>  <m_score__min__energy>  (24) 
-11.59

>  <m_primary>  (24) 
energy

$$$$
24:0
     RDKit          3D

 44 46  0  0  0  0  0  0  0  0999 V2000
   -1.1340   20.9220  -28.6210 O   0  0  0  0  0  0  0  0  0  0  0  0
   -0.5830   22.0090  -28.9470 C   0  0  0  0  0  0  0  0  0  0  0  0
    0.2840   22.7170  -27.9510 C   0  0  0  0  0  0  0  0  0  0  0  0
    0.1680   24.5270  -28.1640 S   0  0  0  0  0  0  0  0  0  0  0  0
   -1.6150   24.5490  -28.3560 C   0  0  0  0  0  0  0  0  0  0  0  0
   -2.4450   24.2170  -27.2820 C   0  0  0  0  0  0  0  0  0  0  0  0
   -3.8260   24.2510  -27.4760 C   0  0  0  0  0  0  0  0  0  0  0  0
   -4.6050   23.9640  -26.5300 O   0  0  0  0  0  0  0  0  0  0  0  0
   -4.3320   24.5930  -28.6900 N   0  0  0  0  0  0  0  0  0  0  0  0
   -3.5090   24.9080  -29.7240 C   0  0  0  0  0  0  0  0  0  0  0  0
   -3.9950   25.2240  -30.8410 O   0  0  0  0  0  0  0  0  0  0  0  0
   -2.1610   24.8830  -29.5540 N   0  0  0  0  0  0  0  0  0  0  0  0
   -0.8360   22.6040  -30.2290 N   0  0  0  0  0  0  0  0  0  0  0  0
   -1.5740   21.9620  -31.2820 C   0  0  0  0  0  0  0  0  0  0  0  0
   -0.8770   21.3430  -32.3310 C   0  0  0  0  0  0  0  0  0  0  0  0
   -1.5710   20.6970  -33.3570 C   0  0  0  0  0  0  0  0  0  0  0  0
   -2.9680   20.6520  -33.3400 C   0  0  0  0  0  0  0  0  0  0  0  0
   -3.6770   21.2470  -32.2870 C   0  0  0  0  0  0  0  0  0  0  0  0
   -5.4350   21.1700  -32.2240 S   0  0  0  0  0  0  0  0  0  0  0  0
   -5.9420   20.8000  -33.5910 O   0  0  0  0  0  0  0  0  0  0  0  0
   -5.8680   20.1120  -31.2450 O   0  0  0  0  0  0  0  0  0  0  0  0
   -6.0560   22.7360  -31.7490 N   0  0  0  0  0  0  0  0  0  0  0  0
   -6.1580   22.8670  -30.2780 C   0  0  0  0  0  0  0  0  0  0  0  0
   -7.5890   22.6440  -29.7580 C   0  0  0  0  0  0  0  0  0  0  0  0
   -8.2600   21.7020  -30.5630 O   0  0  0  0  0  0  0  0  0  0  0  0
   -8.5160   22.2460  -31.8460 C   0  0  0  0  0  0  0  0  0  0  0  0
   -7.3260   23.0470  -32.4290 C   0  0  0  0  0  0  0  0  0  0  0  0
   -2.9780   21.8920  -31.2570 C   0  0  0  0  0  0  0  0  0  0  0  0
   -0.0428   22.4515  -26.9348 H   0  0  0  0  0  0  0  0  0  0  0  0
    1.3280   22.4089  -28.1093 H   0  0  0  0  0  0  0  0  0  0  0  0
   -2.0198   23.9357  -26.3073 H   0  0  0  0  0  0  0  0  0  0  0  0
   -0.5560   23.6020  -30.3640 H   0  0  0  0  0  0  0  0  0  0  0  0
    0.2227   21.3666  -32.3455 H   0  0  0  0  0  0  0  0  0  0  0  0
   -1.0168   20.2226  -34.1803 H   0  0  0  0  0  0  0  0  0  0  0  0
   -3.5115   20.1493  -34.1535 H   0  0  0  0  0  0  0  0  0  0  0  0
   -5.4947   22.1235  -29.8120 H   0  0  0  0  0  0  0  0  0  0  0  0
   -5.8664   23.8947  -30.0157 H   0  0  0  0  0  0  0  0  0  0  0  0
   -7.5455   22.2721  -28.7237 H   0  0  0  0  0  0  0  0  0  0  0  0
   -8.1353   23.5982  -29.7924 H   0  0  0  0  0  0  0  0  0  0  0  0
   -8.7491   21.4198  -32.5337 H   0  0  0  0  0  0  0  0  0  0  0  0
   -9.3550   22.9490  -31.7365 H   0  0  0  0  0  0  0  0  0  0  0  0
   -7.2246   22.8030  -33.4968 H   0  0  0  0  0  0  0  0  0  0  0  0
   -7.5347   24.1166  -32.2795 H   0  0  0  0  0  0  0  0  0  0  0  0
   -3.5323   22.3468  -30.4228 H   0  0  0  0  0  0  0  0  0  0  0  0
  1  2  2  0
  2  3  1  0
  3  4  1  0
  4  5  1  0
  5  6  2  0
  6  7  1  0
  7  8  2  0
  7  9  1  0
  9 10  1  0
 10 11  2  0
 10 12  1  0
  2 13  1  0
 13 14  1  0
 14 15  2  0
 15 16  1  0
 16 17  2  0
 17 18  1  0
 18 19  1  0
 19 20  2  0
 19 21  2  0
 19 22  1  0
 22 23  1  0
 23 24  1  0
 24 25  1  0
 25 26  1  0
 26 27  1  0
 18 28  2  0
 12  5  1  0
 28 14  1  0
 27 22  1  0
  3 29  1  0
  3 30  1  0
  6 31  1  0
 13 32  1  0
 15 33  1  0
 16 34  1  0
 17 35  1  0
 23 36  1  0
 23 37  1  0
 24 38  1  0
 24 39  1  0
 26 40  1  0
 26 41  1  0
 27 42  1  0
 27 43  1  0
 28 44  1  0
M  CHG  2   9  -1  12  -1
M  END
>  <UniqueID>  (25) 
23

>  <SMILES>  (25) 
O=C(CSc1cc(=O)[n-]c(=O)[n-]1)Nc1cccc(S(=O)(=O)N2CCOCC2)c1

>  <Energy>  (25) 
55.448673218335735

>  <Genealogy>  (25) 
O=C(CSc1cc(=O)[n-]c(=O)[n-]1)Nc1cccc(S(=O)(=O)N2CCOCC2)c1 (protonated)
O=C(CSc1cc(=O)[n-]c(=O)[n-]1)Nc1cccc(S(=O)(=O)N2CCOCC2)c1 (3D coordinates assigned)
O=C(CSc1cc(=O)[n-]c(=O)[n-]1)Nc1cccc(S(=O)(=O)N2CCOCC2)c1 (nonaromatic ring conformer: 55.448673218335735 kcal/mol)

>  <smiles>  (25) 
O=C(CSc1cc(=O)[nH]c(=O)[nH]1)Nc1cccc(S(=O)(=O)N2CCOCC2)c1

>  <score_type>  (25) 
oracle

>  <origin>  (25) 
adgpu

>  <m_score__min__energy>  (25) 
-11.390000000000001

>  <m_primary>  (25) 
energy

$$$$
25:0
     RDKit          3D

 44 46  0  0  0  0  0  0  0  0999 V2000
   -6.9210   17.7660  -33.0290 N   0  0  0  0  0  0  0  0  0  0  0  0
   -7.2760   18.8220  -32.7160 C   0  0  0  0  0  0  0  0  0  0  0  0
   -7.7190   20.1350  -32.3270 C   0  0  0  0  0  0  0  0  0  0  0  0
   -9.0450   20.3360  -31.9210 C   0  0  0  0  0  0  0  0  0  0  0  0
   -9.4800   21.6150  -31.5650 C   0  0  0  0  0  0  0  0  0  0  0  0
   -8.5940   22.6950  -31.6080 C   0  0  0  0  0  0  0  0  0  0  0  0
   -7.2590   22.5010  -31.9970 C   0  0  0  0  0  0  0  0  0  0  0  0
   -6.3370   23.6770  -32.1250 C   0  0  0  0  0  0  0  0  0  0  0  0
   -5.9920   24.1420  -30.7920 N   0  0  0  0  0  0  0  0  0  0  0  0
   -4.6810   24.5610  -30.4040 C   0  0  0  0  0  0  0  0  0  0  0  0
   -4.2160   25.6500  -30.8410 O   0  0  0  0  0  0  0  0  0  0  0  0
   -3.8940   23.7330  -29.5240 N   0  0  0  0  0  0  0  0  0  0  0  0
   -3.9040   22.2700  -29.6810 C   0  0  0  0  0  0  0  0  0  0  0  0
   -3.0650   21.8590  -30.8640 C   0  0  0  0  0  0  0  0  0  0  0  0
   -1.6690   21.7760  -30.7420 C   0  0  0  0  0  0  0  0  0  0  0  0
   -0.8840   21.4390  -31.8490 C   0  0  0  0  0  0  0  0  0  0  0  0
   -1.4870   21.1800  -33.0830 C   0  0  0  0  0  0  0  0  0  0  0  0
   -2.8760   21.2590  -33.2130 C   0  0  0  0  0  0  0  0  0  0  0  0
   -3.6640   21.5930  -32.1080 C   0  0  0  0  0  0  0  0  0  0  0  0
   -3.0280   24.3370  -28.5450 C   0  0  0  0  0  0  0  0  0  0  0  0
   -1.7340   24.7530  -28.9000 C   0  0  0  0  0  0  0  0  0  0  0  0
   -0.8980   25.3460  -27.9490 C   0  0  0  0  0  0  0  0  0  0  0  0
   -1.3490   25.5300  -26.6380 C   0  0  0  0  0  0  0  0  0  0  0  0
   -2.6360   25.1210  -26.2770 C   0  0  0  0  0  0  0  0  0  0  0  0
   -3.4740   24.5260  -27.2260 C   0  0  0  0  0  0  0  0  0  0  0  0
   -6.8290   21.2160  -32.3690 C   0  0  0  0  0  0  0  0  0  0  0  0
   -9.7433   19.4869  -31.8826 H   0  0  0  0  0  0  0  0  0  0  0  0
  -10.5222   21.7723  -31.2502 H   0  0  0  0  0  0  0  0  0  0  0  0
   -8.9442   23.7016  -31.3358 H   0  0  0  0  0  0  0  0  0  0  0  0
   -5.4244   23.3760  -32.6604 H   0  0  0  0  0  0  0  0  0  0  0  0
   -6.8308   24.4825  -32.6883 H   0  0  0  0  0  0  0  0  0  0  0  0
   -3.4975   21.8057  -28.7704 H   0  0  0  0  0  0  0  0  0  0  0  0
   -4.9393   21.9376  -29.8472 H   0  0  0  0  0  0  0  0  0  0  0  0
   -1.1908   21.9768  -29.7719 H   0  0  0  0  0  0  0  0  0  0  0  0
    0.2097   21.3776  -31.7485 H   0  0  0  0  0  0  0  0  0  0  0  0
   -0.8678   20.9138  -33.9523 H   0  0  0  0  0  0  0  0  0  0  0  0
   -3.3495   21.0583  -34.1854 H   0  0  0  0  0  0  0  0  0  0  0  0
   -4.7577   21.6480  -32.2120 H   0  0  0  0  0  0  0  0  0  0  0  0
   -1.3769   24.6116  -29.9308 H   0  0  0  0  0  0  0  0  0  0  0  0
    0.1150   25.6680  -28.2321 H   0  0  0  0  0  0  0  0  0  0  0  0
   -0.6906   25.9968  -25.8906 H   0  0  0  0  0  0  0  0  0  0  0  0
   -2.9901   25.2671  -25.2459 H   0  0  0  0  0  0  0  0  0  0  0  0
   -4.4860   24.2048  -26.9385 H   0  0  0  0  0  0  0  0  0  0  0  0
   -5.7901   21.0584  -32.6943 H   0  0  0  0  0  0  0  0  0  0  0  0
  1  2  3  0
  2  3  1  0
  3  4  2  0
  4  5  1  0
  5  6  2  0
  6  7  1  0
  7  8  1  0
  8  9  1  0
  9 10  1  0
 10 11  2  0
 10 12  1  0
 12 13  1  0
 13 14  1  0
 14 15  2  0
 15 16  1  0
 16 17  2  0
 17 18  1  0
 18 19  2  0
 12 20  1  0
 20 21  2  0
 21 22  1  0
 22 23  2  0
 23 24  1  0
 24 25  2  0
  7 26  2  0
 26  3  1  0
 19 14  1  0
 25 20  1  0
  4 27  1  0
  5 28  1  0
  6 29  1  0
  8 30  1  0
  8 31  1  0
 13 32  1  0
 13 33  1  0
 15 34  1  0
 16 35  1  0
 17 36  1  0
 18 37  1  0
 19 38  1  0
 21 39  1  0
 22 40  1  0
 23 41  1  0
 24 42  1  0
 25 43  1  0
 26 44  1  0
M  CHG  1   9  -1
M  END
>  <UniqueID>  (26) 
24

>  <SMILES>  (26) 
N#Cc1cccc(C[N-]C(=O)N(Cc2ccccc2)c2ccccc2)c1

>  <Energy>  (26) 
45.82940939657117

>  <Genealogy>  (26) 
N#Cc1cccc(C[N-]C(=O)N(Cc2ccccc2)c2ccccc2)c1 (protonated)
N#Cc1cccc(C[N-]C(=O)N(Cc2ccccc2)c2ccccc2)c1 (3D coordinates assigned)
N#Cc1cccc(C[N-]C(=O)N(Cc2ccccc2)c2ccccc2)c1 (optimized conformer: 45.82940939657117 kcal/mol)

>  <smiles>  (26) 
N#Cc1cccc(CNC(=O)N(Cc2ccccc2)c2ccccc2)c1

>  <score_type>  (26) 
oracle

>  <origin>  (26) 
adgpu

>  <m_score__min__energy>  (26) 
-10.18

>  <m_primary>  (26) 
energy

$$$$
26:0
     RDKit          3D

 45 48  0  0  0  0  0  0  0  0999 V2000
   -0.9010   22.3130  -31.3920 O   0  0  0  0  0  0  0  0  0  0  0  0
   -1.7150   21.3760  -31.1720 C   0  0  0  0  0  0  0  0  0  0  0  0
   -1.2310   20.0440  -30.9450 N   0  0  0  0  0  0  0  0  0  0  0  0
    0.1920   19.7120  -30.9740 C   0  0  0  0  0  0  0  0  0  0  0  0
    0.8330   19.9980  -29.6140 C   0  0  0  0  0  0  0  0  0  0  0  0
    0.1850   19.1720  -28.5440 C   0  0  0  0  0  0  0  0  0  0  0  0
    0.6320   17.9500  -28.0520 C   0  0  0  0  0  0  0  0  0  0  0  0
   -0.2420   17.4580  -27.1440 N   0  0  0  0  0  0  0  0  0  0  0  0
   -1.2430   18.3530  -27.0690 C   0  0  0  0  0  0  0  0  0  0  0  0
   -2.3890   18.2750  -26.2800 C   0  0  0  0  0  0  0  0  0  0  0  0
   -3.3250   19.3220  -26.3740 C   0  0  0  0  0  0  0  0  0  0  0  0
   -3.0970   20.4090  -27.2480 C   0  0  0  0  0  0  0  0  0  0  0  0
   -1.9320   20.4600  -28.0340 C   0  0  0  0  0  0  0  0  0  0  0  0
   -1.0200   19.4100  -27.9140 C   0  0  0  0  0  0  0  0  0  0  0  0
   -3.1630   21.6660  -31.1060 C   0  0  0  0  0  0  0  0  0  0  0  0
   -4.1250   20.7390  -31.5460 C   0  0  0  0  0  0  0  0  0  0  0  0
   -5.4440   21.1470  -31.3450 C   0  0  0  0  0  0  0  0  0  0  0  0
   -6.6760   20.3920  -31.6910 C   0  0  0  0  0  0  0  0  0  0  0  0
   -7.9000   21.0690  -31.8650 C   0  0  0  0  0  0  0  0  0  0  0  0
   -9.0640   20.3660  -32.1900 C   0  0  0  0  0  0  0  0  0  0  0  0
   -9.0230   18.9800  -32.3460 C   0  0  0  0  0  0  0  0  0  0  0  0
   -7.8200   18.2930  -32.1760 C   0  0  0  0  0  0  0  0  0  0  0  0
   -6.6530   18.9910  -31.8500 C   0  0  0  0  0  0  0  0  0  0  0  0
   -5.4010   22.6700  -30.6270 S   0  0  0  0  0  0  0  0  0  0  0  0
   -3.7300   22.8270  -30.5600 C   0  0  0  0  0  0  0  0  0  0  0  0
   -3.0510   24.0450  -30.0810 C   0  0  0  0  0  0  0  0  0  0  0  0
   -2.0240   23.9760  -29.3570 O   0  0  0  0  0  0  0  0  0  0  0  0
   -3.5230   25.2940  -30.4700 O   0  0  0  0  0  0  0  0  0  0  0  0
   -1.9100   19.2770  -30.7370 H   0  0  0  0  0  0  0  0  0  0  0  0
    0.3107   18.6450  -31.2137 H   0  0  0  0  0  0  0  0  0  0  0  0
    0.6872   20.3280  -31.7391 H   0  0  0  0  0  0  0  0  0  0  0  0
    1.9046   19.7541  -29.6604 H   0  0  0  0  0  0  0  0  0  0  0  0
    0.6965   21.0626  -29.3732 H   0  0  0  0  0  0  0  0  0  0  0  0
    1.5647   17.4536  -28.3581 H   0  0  0  0  0  0  0  0  0  0  0  0
   -0.1600   16.5580  -26.6210 H   0  0  0  0  0  0  0  0  0  0  0  0
   -2.5567   17.4225  -25.6054 H   0  0  0  0  0  0  0  0  0  0  0  0
   -4.2396   19.2940  -25.7635 H   0  0  0  0  0  0  0  0  0  0  0  0
   -3.8361   21.2210  -27.3139 H   0  0  0  0  0  0  0  0  0  0  0  0
   -1.7456   21.2992  -28.7204 H   0  0  0  0  0  0  0  0  0  0  0  0
   -3.8605   19.7765  -32.0082 H   0  0  0  0  0  0  0  0  0  0  0  0
   -7.9398   22.1616  -31.7439 H   0  0  0  0  0  0  0  0  0  0  0  0
  -10.0131   20.9060  -32.3228 H   0  0  0  0  0  0  0  0  0  0  0  0
   -9.9394   18.4285  -32.6031 H   0  0  0  0  0  0  0  0  0  0  0  0
   -7.7899   17.2003  -32.2987 H   0  0  0  0  0  0  0  0  0  0  0  0
   -5.7089   18.4425  -31.7164 H   0  0  0  0  0  0  0  0  0  0  0  0
  1  2  2  0
  2  3  1  0
  3  4  1  0
  4  5  1  0
  5  6  1  0
  6  7  2  0
  7  8  1  0
  8  9  1  0
  9 10  2  0
 10 11  1  0
 11 12  2  0
 12 13  1  0
 13 14  2  0
  2 15  1  0
 15 16  1  0
 16 17  2  0
 17 18  1  0
 18 19  2  0
 19 20  1  0
 20 21  2  0
 21 22  1  0
 22 23  2  0
 17 24  1  0
 24 25  1  0
 25 26  1  0
 26 27  2  0
 26 28  1  0
 14  6  1  0
 25 15  2  0
 14  9  1  0
 23 18  1  0
  3 29  1  0
  4 30  1  0
  4 31  1  0
  5 32  1  0
  5 33  1  0
  7 34  1  0
  8 35  1  0
 10 36  1  0
 11 37  1  0
 12 38  1  0
 13 39  1  0
 16 40  1  0
 19 41  1  0
 20 42  1  0
 21 43  1  0
 22 44  1  0
 23 45  1  0
M  CHG  1  28  -1
M  END
>  <UniqueID>  (27) 
25

>  <SMILES>  (27) 
O=C(NCCc1c[nH]c2ccccc12)c1cc(-c2ccccc2)sc1C(=O)[O-]

>  <Energy>  (27) 
110.10887334667117

>  <Genealogy>  (27) 
O=C(NCCc1c[nH]c2ccccc12)c1cc(-c2ccccc2)sc1C(=O)[O-] (protonated)
O=C(NCCc1c[nH]c2ccccc12)c1cc(-c2ccccc2)sc1C(=O)[O-] (3D coordinates assigned)
O=C(NCCc1c[nH]c2ccccc12)c1cc(-c2ccccc2)sc1C(=O)[O-] (optimized conformer: 110.10887334667117 kcal/mol)

>  <smiles>  (27) 
O=C(NCCc1c[nH]c2ccccc12)c1cc(-c2ccccc2)sc1C(=O)O

>  <score_type>  (27) 
oracle

>  <origin>  (27) 
adgpu

>  <m_score__min__energy>  (27) 
-11.529999999999999

>  <m_primary>  (27) 
energy

$$$$
27:0
     RDKit          3D

 34 36  0  0  0  0  0  0  0  0999 V2000
   -0.5020   26.7150  -26.8440 C   0  0  0  0  0  0  0  0  0  0  0  0
   -0.9450   25.2010  -27.6700 S   0  0  0  0  0  0  0  0  0  0  0  0
    0.2990   24.5840  -28.2440 O   0  0  0  0  0  0  0  0  0  0  0  0
   -1.5600   24.2330  -26.6970 O   0  0  0  0  0  0  0  0  0  0  0  0
   -2.0530   25.5270  -28.9630 N   0  0  0  0  0  0  0  0  0  0  0  0
   -2.8160   24.5490  -29.6820 C   0  0  0  0  0  0  0  0  0  0  0  0
   -2.3170   23.2650  -29.9670 C   0  0  0  0  0  0  0  0  0  0  0  0
   -3.0990   22.3450  -30.6700 C   0  0  0  0  0  0  0  0  0  0  0  0
   -4.3890   22.6890  -31.1020 C   0  0  0  0  0  0  0  0  0  0  0  0
   -5.2100   21.7130  -31.8450 C   0  0  0  0  0  0  0  0  0  0  0  0
   -4.8500   20.4350  -32.0740 N   0  0  0  0  0  0  0  0  0  0  0  0
   -5.9090   19.9750  -32.7720 C   0  0  0  0  0  0  0  0  0  0  0  0
   -6.0220   18.5900  -33.2810 C   0  0  0  0  0  0  0  0  0  0  0  0
   -5.0230   18.0520  -34.1100 C   0  0  0  0  0  0  0  0  0  0  0  0
   -5.1320   16.7430  -34.5910 C   0  0  0  0  0  0  0  0  0  0  0  0
   -6.2380   15.9600  -34.2480 C   0  0  0  0  0  0  0  0  0  0  0  0
   -7.2360   16.4850  -33.4230 C   0  0  0  0  0  0  0  0  0  0  0  0
   -7.1320   17.7950  -32.9410 C   0  0  0  0  0  0  0  0  0  0  0  0
   -6.8520   20.9210  -32.9540 N   0  0  0  0  0  0  0  0  0  0  0  0
   -6.3830   21.9790  -32.3660 O   0  0  0  0  0  0  0  0  0  0  0  0
   -4.8850   23.9730  -30.8190 C   0  0  0  0  0  0  0  0  0  0  0  0
   -4.1020   24.8920  -30.1160 C   0  0  0  0  0  0  0  0  0  0  0  0
   -0.5459   26.5650  -25.7552 H   0  0  0  0  0  0  0  0  0  0  0  0
    0.5188   27.0054  -27.1333 H   0  0  0  0  0  0  0  0  0  0  0  0
   -1.2052   27.5098  -27.1333 H   0  0  0  0  0  0  0  0  0  0  0  0
   -1.3067   22.9840  -29.6349 H   0  0  0  0  0  0  0  0  0  0  0  0
   -2.7002   21.3430  -30.8866 H   0  0  0  0  0  0  0  0  0  0  0  0
   -4.1503   18.6637  -34.3823 H   0  0  0  0  0  0  0  0  0  0  0  0
   -4.3462   16.3292  -35.2401 H   0  0  0  0  0  0  0  0  0  0  0  0
   -6.3226   14.9310  -34.6274 H   0  0  0  0  0  0  0  0  0  0  0  0
   -8.1051   15.8677  -33.1518 H   0  0  0  0  0  0  0  0  0  0  0  0
   -7.9214   18.2047  -32.2937 H   0  0  0  0  0  0  0  0  0  0  0  0
   -5.8944   24.2558  -31.1525 H   0  0  0  0  0  0  0  0  0  0  0  0
   -4.4998   25.8948  -29.9014 H   0  0  0  0  0  0  0  0  0  0  0  0
  1  2  1  0
  2  3  2  0
  2  4  2  0
  2  5  1  0
  5  6  1  0
  6  7  2  0
  7  8  1  0
  8  9  2  0
  9 10  1  0
 10 11  2  0
 11 12  1  0
 12 13  1  0
 13 14  2  0
 14 15  1  0
 15 16  2  0
 16 17  1  0
 17 18  2  0
 12 19  2  0
 19 20  1  0
  9 21  1  0
 21 22  2  0
 22  6  1  0
 20 10  1  0
 18 13  1  0
  1 23  1  0
  1 24  1  0
  1 25  1  0
  7 26  1  0
  8 27  1  0
 14 28  1  0
 15 29  1  0
 16 30  1  0
 17 31  1  0
 18 32  1  0
 21 33  1  0
 22 34  1  0
M  CHG  1   5  -1
M  END
>  <UniqueID>  (28) 
26

>  <SMILES>  (28) 
CS(=O)(=O)[N-]c1ccc(-c2nc(-c3ccccc3)no2)cc1

>  <Energy>  (28) 
69.28427536461177

>  <Genealogy>  (28) 
CS(=O)(=O)[N-]c1ccc(-c2nc(-c3ccccc3)no2)cc1 (protonated)
CS(=O)(=O)[N-]c1ccc(-c2nc(-c3ccccc3)no2)cc1 (3D coordinates assigned)
CS(=O)(=O)[N-]c1ccc(-c2nc(-c3ccccc3)no2)cc1 (optimized conformer: 69.28427536461177 kcal/mol)

>  <smiles>  (28) 
CS(=O)(=O)Nc1ccc(-c2nc(-c3ccccc3)no2)cc1

>  <score_type>  (28) 
oracle

>  <origin>  (28) 
adgpu

>  <m_score__min__energy>  (28) 
-9.0099999999999998

>  <m_primary>  (28) 
energy

$$$$
28:0
     RDKit          3D

 33 35  0  0  0  0  0  0  0  0999 V2000
   -9.4690   19.2530  -32.6780 N   0  0  0  0  0  0  0  0  0  0  0  0
   -8.6770   20.0620  -32.4310 C   0  0  0  0  0  0  0  0  0  0  0  0
   -7.6930   21.0670  -32.1250 C   0  0  0  0  0  0  0  0  0  0  0  0
   -8.0310   22.1540  -31.3080 C   0  0  0  0  0  0  0  0  0  0  0  0
   -7.0750   23.1290  -31.0100 C   0  0  0  0  0  0  0  0  0  0  0  0
   -5.7740   23.0330  -31.5370 C   0  0  0  0  0  0  0  0  0  0  0  0
   -4.7830   23.9810  -31.2470 O   0  0  0  0  0  0  0  0  0  0  0  0
   -3.8600   23.8980  -30.1940 C   0  0  0  0  0  0  0  0  0  0  0  0
   -2.6490   23.2330  -30.4110 C   0  0  0  0  0  0  0  0  0  0  0  0
   -1.6970   23.1380  -29.3920 C   0  0  0  0  0  0  0  0  0  0  0  0
   -1.9450   23.7150  -28.1340 C   0  0  0  0  0  0  0  0  0  0  0  0
   -0.9630   23.6460  -27.0820 N   0  0  0  0  0  0  0  0  0  0  0  0
   -1.2510   22.9240  -25.9940 N   0  0  0  0  0  0  0  0  0  0  0  0
   -0.3820   22.8130  -24.9600 C   0  0  0  0  0  0  0  0  0  0  0  0
    0.8420   23.4680  -25.0400 C   0  0  0  0  0  0  0  0  0  0  0  0
    1.6690   23.3870  -24.0930 O   0  0  0  0  0  0  0  0  0  0  0  0
    1.1390   24.1910  -26.1510 N   0  0  0  0  0  0  0  0  0  0  0  0
    0.2500   24.2790  -27.1770 C   0  0  0  0  0  0  0  0  0  0  0  0
    0.5640   24.9250  -28.2140 O   0  0  0  0  0  0  0  0  0  0  0  0
   -3.1450   24.4150  -27.9270 C   0  0  0  0  0  0  0  0  0  0  0  0
   -4.0950   24.5060  -28.9480 C   0  0  0  0  0  0  0  0  0  0  0  0
   -5.4380   21.9330  -32.3360 C   0  0  0  0  0  0  0  0  0  0  0  0
   -6.3940   20.9570  -32.6350 C   0  0  0  0  0  0  0  0  0  0  0  0
   -9.0493   22.2400  -30.9009 H   0  0  0  0  0  0  0  0  0  0  0  0
   -7.3411   23.9757  -30.3602 H   0  0  0  0  0  0  0  0  0  0  0  0
   -2.4438   22.7806  -31.3925 H   0  0  0  0  0  0  0  0  0  0  0  0
   -0.7497   22.6096  -29.5750 H   0  0  0  0  0  0  0  0  0  0  0  0
   -0.6403   22.2155  -24.0733 H   0  0  0  0  0  0  0  0  0  0  0  0
    2.0630   24.6760  -26.2200 H   0  0  0  0  0  0  0  0  0  0  0  0
   -3.3381   24.8942  -26.9559 H   0  0  0  0  0  0  0  0  0  0  0  0
   -5.0318   25.0563  -28.7760 H   0  0  0  0  0  0  0  0  0  0  0  0
   -4.4159   21.8361  -32.7308 H   0  0  0  0  0  0  0  0  0  0  0  0
   -6.1248   20.1015  -33.2719 H   0  0  0  0  0  0  0  0  0  0  0  0
  1  2  3  0
  2  3  1  0
  3  4  2  0
  4  5  1  0
  5  6  2  0
  6  7  1  0
  7  8  1  0
  8  9  2  0
  9 10  1  0
 10 11  2  0
 11 12  1  0
 12 13  1  0
 13 14  2  0
 14 15  1  0
 15 16  2  0
 15 17  1  0
 17 18  1  0
 18 19  2  0
 11 20  1  0
 20 21  2  0
  6 22  1  0
 22 23  2  0
 23  3  1  0
 21  8  1  0
 18 12  1  0
  4 24  1  0
  5 25  1  0
  9 26  1  0
 10 27  1  0
 14 28  1  0
 17 29  1  0
 20 30  1  0
 21 31  1  0
 22 32  1  0
 23 33  1  0
M  END
>  <UniqueID>  (29) 
27

>  <SMILES>  (29) 
N#Cc1ccc(Oc2ccc(-n3ncc(=O)[nH]c3=O)cc2)cc1

>  <Energy>  (29) 
50.367620836772375

>  <Genealogy>  (29) 
N#Cc1ccc(Oc2ccc(-n3ncc(=O)[nH]c3=O)cc2)cc1 (3D coordinates assigned)
N#Cc1ccc(Oc2ccc(-n3ncc(=O)[nH]c3=O)cc2)cc1 (optimized conformer: 50.367620836772375 kcal/mol)

>  <smiles>  (29) 
N#Cc1ccc(Oc2ccc(-n3ncc(=O)[nH]c3=O)cc2)cc1

>  <score_type>  (29) 
oracle

>  <origin>  (29) 
adgpu

>  <m_score__min__energy>  (29) 
-8.0299999999999994

>  <m_primary>  (29) 
energy

$$$$
29:0
     RDKit          3D

 41 43  0  0  0  0  0  0  0  0999 V2000
    1.8340   28.9640  -21.7570 N   0  0  0  0  0  0  0  0  0  0  0  0
    1.3750   28.3000  -22.5850 C   0  0  0  0  0  0  0  0  0  0  0  0
    0.8050   27.4730  -23.6150 C   0  0  0  0  0  0  0  0  0  0  0  0
   -0.5240   27.0470  -23.5170 C   0  0  0  0  0  0  0  0  0  0  0  0
   -1.0810   26.2440  -24.5170 C   0  0  0  0  0  0  0  0  0  0  0  0
   -0.3110   25.8550  -25.6300 C   0  0  0  0  0  0  0  0  0  0  0  0
   -0.9010   25.0050  -26.6950 C   0  0  0  0  0  0  0  0  0  0  0  0
   -0.8480   25.4040  -28.0430 C   0  0  0  0  0  0  0  0  0  0  0  0
   -1.4070   24.6040  -29.0430 C   0  0  0  0  0  0  0  0  0  0  0  0
   -2.0210   23.3910  -28.7140 C   0  0  0  0  0  0  0  0  0  0  0  0
   -2.7190   22.3880  -29.9830 S   0  0  0  0  0  0  0  0  0  0  0  0
   -1.9770   21.0830  -30.0320 O   0  0  0  0  0  0  0  0  0  0  0  0
   -2.6060   23.0650  -31.3220 O   0  0  0  0  0  0  0  0  0  0  0  0
   -4.3900   22.0800  -29.6420 N   0  0  0  0  0  0  0  0  0  0  0  0
   -5.4820   22.2870  -30.5520 C   0  0  0  0  0  0  0  0  0  0  0  0
   -6.0810   21.2110  -31.2370 C   0  0  0  0  0  0  0  0  0  0  0  0
   -7.1530   21.4340  -32.1050 C   0  0  0  0  0  0  0  0  0  0  0  0
   -7.6440   22.7250  -32.2920 C   0  0  0  0  0  0  0  0  0  0  0  0
   -7.0610   23.8000  -31.6200 C   0  0  0  0  0  0  0  0  0  0  0  0
   -5.9720   23.5930  -30.7570 C   0  0  0  0  0  0  0  0  0  0  0  0
   -5.2500   24.9690  -29.9130 S   0  0  0  0  0  0  0  0  0  0  0  0
   -3.9330   25.6250  -30.8210 N   0  0  0  0  0  0  0  0  0  0  0  0
   -6.2930   26.0350  -29.7240 O   0  0  0  0  0  0  0  0  0  0  0  0
   -4.7370   24.5250  -28.5720 O   0  0  0  0  0  0  0  0  0  0  0  0
   -2.0770   22.9840  -27.3750 C   0  0  0  0  0  0  0  0  0  0  0  0
   -1.5210   23.7830  -26.3740 C   0  0  0  0  0  0  0  0  0  0  0  0
    1.0250   26.2870  -25.7180 C   0  0  0  0  0  0  0  0  0  0  0  0
    1.5770   27.0910  -24.7170 C   0  0  0  0  0  0  0  0  0  0  0  0
   -1.1327   27.3447  -22.6505 H   0  0  0  0  0  0  0  0  0  0  0  0
   -2.1271   25.9141  -24.4338 H   0  0  0  0  0  0  0  0  0  0  0  0
   -0.3625   26.3537  -28.3120 H   0  0  0  0  0  0  0  0  0  0  0  0
   -1.3641   24.9293  -30.0929 H   0  0  0  0  0  0  0  0  0  0  0  0
   -5.7023   20.1891  -31.0874 H   0  0  0  0  0  0  0  0  0  0  0  0
   -7.6101   20.5895  -32.6415 H   0  0  0  0  0  0  0  0  0  0  0  0
   -8.4926   22.8967  -32.9705 H   0  0  0  0  0  0  0  0  0  0  0  0
   -7.4566   24.8158  -31.7669 H   0  0  0  0  0  0  0  0  0  0  0  0
   -3.0820   25.0700  -30.5710 H   0  0  0  0  0  0  0  0  0  0  0  0
   -2.5605   22.0319  -27.1112 H   0  0  0  0  0  0  0  0  0  0  0  0
   -1.5680   23.4545  -25.3253 H   0  0  0  0  0  0  0  0  0  0  0  0
    1.6394   25.9899  -26.5807 H   0  0  0  0  0  0  0  0  0  0  0  0
    2.6222   27.4245  -24.7961 H   0  0  0  0  0  0  0  0  0  0  0  0
  1  2  3  0
  2  3  1  0
  3  4  2  0
  4  5  1  0
  5  6  2  0
  6  7  1  0
  7  8  2  0
  8  9  1  0
  9 10  2  0
 10 11  1  0
 11 12  2  0
 11 13  2  0
 11 14  1  0
 14 15  1  0
 15 16  2  0
 16 17  1  0
 17 18  2  0
 18 19  1  0
 19 20  2  0
 20 21  1  0
 21 22  1  0
 21 23  2  0
 21 24  2  0
 10 25  1  0
 25 26  2  0
  6 27  1  0
 27 28  2  0
 28  3  1  0
 26  7  1  0
 20 15  1  0
  4 29  1  0
  5 30  1  0
  8 31  1  0
  9 32  1  0
 16 33  1  0
 17 34  1  0
 18 35  1  0
 19 36  1  0
 22 37  1  0
 25 38  1  0
 26 39  1  0
 27 40  1  0
 28 41  1  0
M  CHG  2  14  -1  22  -1
M  END
>  <UniqueID>  (30) 
28

>  <SMILES>  (30) 
N#Cc1ccc(-c2ccc(S(=O)(=O)[N-]c3ccccc3S([NH-])(=O)=O)cc2)cc1

>  <Energy>  (30) 
52.13828584754967

>  <Genealogy>  (30) 
N#Cc1ccc(-c2ccc(S(=O)(=O)[N-]c3ccccc3S([NH-])(=O)=O)cc2)cc1 (protonated)
N#Cc1ccc(-c2ccc(S(=O)(=O)[N-]c3ccccc3S([NH-])(=O)=O)cc2)cc1 (3D coordinates assigned)
N#Cc1ccc(-c2ccc(S(=O)(=O)[N-]c3ccccc3S([NH-])(=O)=O)cc2)cc1 (optimized conformer: 52.13828584754967 kcal/mol)

>  <smiles>  (30) 
N#Cc1ccc(-c2ccc(S(=O)(=O)Nc3ccccc3S(N)(=O)=O)cc2)cc1

>  <score_type>  (30) 
oracle

>  <origin>  (30) 
adgpu

>  <m_score__min__energy>  (30) 
-13.43

>  <m_primary>  (30) 
energy

$$$$
30:0
     RDKit          3D

 53 57  0  0  0  0  0  0  0  0999 V2000
   -5.5600   16.0140  -34.2050 C   0  0  0  0  0  0  0  0  0  0  0  0
   -5.3620   17.4610  -34.6430 C   0  0  0  0  0  0  0  0  0  0  0  0
   -4.2330   18.1000  -33.8770 C   0  0  0  0  0  0  0  0  0  0  0  0
   -2.8750   17.8740  -34.0450 C   0  0  0  0  0  0  0  0  0  0  0  0
   -2.2300   16.9010  -34.9410 C   0  0  0  0  0  0  0  0  0  0  0  0
   -0.9580   17.0090  -35.3710 N   0  0  0  0  0  0  0  0  0  0  0  0
   -0.7380   15.9600  -36.1480 N   0  0  0  0  0  0  0  0  0  0  0  0
   -1.8860   15.2530  -36.1620 C   0  0  0  0  0  0  0  0  0  0  0  0
   -2.1090   13.9760  -36.9200 C   0  0  0  0  0  0  0  0  0  0  0  0
   -3.0990   14.0260  -38.0780 C   0  0  0  0  0  0  0  0  0  0  0  0
   -3.5100   13.4040  -36.7500 C   0  0  0  0  0  0  0  0  0  0  0  0
   -2.8040   15.8260  -35.4250 O   0  0  0  0  0  0  0  0  0  0  0  0
   -2.1760   18.7320  -33.2770 N   0  0  0  0  0  0  0  0  0  0  0  0
   -3.1160   19.4720  -32.6490 C   0  0  0  0  0  0  0  0  0  0  0  0
   -2.7650   20.5700  -31.7210 C   0  0  0  0  0  0  0  0  0  0  0  0
   -1.5180   21.2050  -31.8360 C   0  0  0  0  0  0  0  0  0  0  0  0
   -1.1710   22.2460  -30.9700 C   0  0  0  0  0  0  0  0  0  0  0  0
   -2.0580   22.6530  -29.9650 C   0  0  0  0  0  0  0  0  0  0  0  0
   -1.6320   23.9700  -28.8770 S   0  0  0  0  0  0  0  0  0  0  0  0
   -2.1430   23.5590  -27.2220 C   0  0  0  0  0  0  0  0  0  0  0  0
   -0.1430   24.1880  -28.9090 O   0  0  0  0  0  0  0  0  0  0  0  0
   -2.3160   25.2380  -29.3120 O   0  0  0  0  0  0  0  0  0  0  0  0
   -3.2980   22.0150  -29.8380 C   0  0  0  0  0  0  0  0  0  0  0  0
   -3.6480   20.9750  -30.7060 C   0  0  0  0  0  0  0  0  0  0  0  0
   -4.3760   19.1180  -33.0030 N   0  0  0  0  0  0  0  0  0  0  0  0
   -5.6040   19.7760  -32.6520 C   0  0  0  0  0  0  0  0  0  0  0  0
   -5.8070   21.1090  -33.0410 C   0  0  0  0  0  0  0  0  0  0  0  0
   -6.9990   21.7640  -32.7180 C   0  0  0  0  0  0  0  0  0  0  0  0
   -7.9950   21.0920  -32.0030 C   0  0  0  0  0  0  0  0  0  0  0  0
   -9.4890   21.9160  -31.5970 Cl  0  0  0  0  0  0  0  0  0  0  0  0
   -7.7970   19.7650  -31.6060 C   0  0  0  0  0  0  0  0  0  0  0  0
   -6.6060   19.1040  -31.9260 C   0  0  0  0  0  0  0  0  0  0  0  0
   -6.3770   17.4490  -31.3780 Cl  0  0  0  0  0  0  0  0  0  0  0  0
   -5.5672   15.9612  -33.1063 H   0  0  0  0  0  0  0  0  0  0  0  0
   -6.5177   15.6402  -34.5964 H   0  0  0  0  0  0  0  0  0  0  0  0
   -4.7380   15.3967  -34.5964 H   0  0  0  0  0  0  0  0  0  0  0  0
   -5.1278   17.4841  -35.7175 H   0  0  0  0  0  0  0  0  0  0  0  0
   -6.2872   18.0210  -34.4417 H   0  0  0  0  0  0  0  0  0  0  0  0
   -1.0777   13.6076  -36.8160 H   0  0  0  0  0  0  0  0  0  0  0  0
   -3.5304   14.9880  -38.3918 H   0  0  0  0  0  0  0  0  0  0  0  0
   -3.0892   13.6890  -39.1251 H   0  0  0  0  0  0  0  0  0  0  0  0
   -4.2387   13.9167  -36.1048 H   0  0  0  0  0  0  0  0  0  0  0  0
   -3.9204   12.4313  -36.4410 H   0  0  0  0  0  0  0  0  0  0  0  0
   -0.8095   20.8812  -32.6126 H   0  0  0  0  0  0  0  0  0  0  0  0
   -0.1979   22.7474  -31.0781 H   0  0  0  0  0  0  0  0  0  0  0  0
   -1.4969   24.0786  -26.4991 H   0  0  0  0  0  0  0  0  0  0  0  0
   -3.1868   23.8721  -27.0721 H   0  0  0  0  0  0  0  0  0  0  0  0
   -2.0610   22.4723  -27.0721 H   0  0  0  0  0  0  0  0  0  0  0  0
   -3.9997   22.3327  -29.0527 H   0  0  0  0  0  0  0  0  0  0  0  0
   -4.6196   20.4718  -30.5932 H   0  0  0  0  0  0  0  0  0  0  0  0
   -5.0247   21.6408  -33.6025 H   0  0  0  0  0  0  0  0  0  0  0  0
   -7.1534   22.8085  -33.0265 H   0  0  0  0  0  0  0  0  0  0  0  0
   -8.5805   19.2395  -31.0403 H   0  0  0  0  0  0  0  0  0  0  0  0
  1  2  1  0
  2  3  1  0
  3  4  2  0
  4  5  1  0
  5  6  2  0
  6  7  1  0
  7  8  2  0
  8  9  1  0
  9 10  1  0
 10 11  1  0
  8 12  1  0
  4 13  1  0
 13 14  2  0
 14 15  1  0
 15 16  2  0
 16 17  1  0
 17 18  2  0
 18 19  1  0
 19 20  1  0
 19 21  2  0
 19 22  2  0
 18 23  1  0
 23 24  2  0
 14 25  1  0
 25 26  1  0
 26 27  2  0
 27 28  1  0
 28 29  2  0
 29 30  1  0
 29 31  1  0
 31 32  2  0
 32 33  1  0
 25  3  1  0
 32 26  1  0
 12  5  1  0
 24 15  1  0
 11  9  1  0
  1 34  1  0
  1 35  1  0
  1 36  1  0
  2 37  1  0
  2 38  1  0
  9 39  1  0
 10 40  1  0
 10 41  1  0
 11 42  1  0
 11 43  1  0
 16 44  1  0
 17 45  1  0
 20 46  1  0
 20 47  1  0
 20 48  1  0
 23 49  1  0
 24 50  1  0
 27 51  1  0
 28 52  1  0
 31 53  1  0
M  END
>  <UniqueID>  (31) 
29

>  <SMILES>  (31) 
CCc1c(-c2nnc(C3CC3)o2)nc(-c2ccc(S(C)(=O)=O)cc2)n1-c1ccc(Cl)cc1Cl

>  <Energy>  (31) 
389.6406585643804

>  <Genealogy>  (31) 
CCc1c(-c2nnc(C3CC3)o2)nc(-c2ccc(S(C)(=O)=O)cc2)n1-c1ccc(Cl)cc1Cl (3D coordinates assigned)
CCc1c(-c2nnc(C3CC3)o2)nc(-c2ccc(S(C)(=O)=O)cc2)n1-c1ccc(Cl)cc1Cl (nonaromatic ring conformer: 389.6406585643804 kcal/mol)

>  <smiles>  (31) 
CCc1c(-c2nnc(C3CC3)o2)nc(-c2ccc(S(C)(=O)=O)cc2)n1-c1ccc(Cl)cc1Cl

>  <score_type>  (31) 
oracle

>  <origin>  (31) 
adgpu

>  <m_score__min__energy>  (31) 
-8.9800000000000004

>  <m_primary>  (31) 
energy

$$$$
31:0
     RDKit          3D

 49 53  0  0  0  0  0  0  0  0999 V2000
    3.9130   14.3140  -25.5930 N   0  0  0  0  0  0  0  0  0  0  0  0
    3.1240   15.2630  -26.3150 C   0  0  0  0  0  0  0  0  0  0  0  0
    1.7850   14.9840  -26.6140 C   0  0  0  0  0  0  0  0  0  0  0  0
    1.0100   15.9110  -27.3200 C   0  0  0  0  0  0  0  0  0  0  0  0
    1.5650   17.1380  -27.7390 C   0  0  0  0  0  0  0  0  0  0  0  0
    0.7850   18.1100  -28.4700 N   0  0  0  0  0  0  0  0  0  0  0  0
    0.5450   19.3950  -28.1270 C   0  0  0  0  0  0  0  0  0  0  0  0
   -0.2430   19.9710  -29.1080 C   0  0  0  0  0  0  0  0  0  0  0  0
   -0.7560   21.3640  -29.1610 C   0  0  0  0  0  0  0  0  0  0  0  0
    0.0190   22.4400  -28.6490 C   0  0  0  0  0  0  0  0  0  0  0  0
   -0.4640   23.7620  -28.6840 C   0  0  0  0  0  0  0  0  0  0  0  0
   -1.7180   23.9870  -29.2420 C   0  0  0  0  0  0  0  0  0  0  0  0
   -2.3500   25.1760  -29.3400 N   0  0  0  0  0  0  0  0  0  0  0  0
   -3.5300   24.8780  -29.9330 C   0  0  0  0  0  0  0  0  0  0  0  0
   -4.4900   25.8390  -30.2340 O   0  0  0  0  0  0  0  0  0  0  0  0
   -3.6360   23.5210  -30.2040 C   0  0  0  0  0  0  0  0  0  0  0  0
   -4.7410   22.8560  -30.8270 N   0  0  0  0  0  0  0  0  0  0  0  0
   -4.5020   21.9670  -31.9670 C   0  0  0  0  0  0  0  0  0  0  0  0
   -5.8290   21.5170  -32.5860 C   0  0  0  0  0  0  0  0  0  0  0  0
   -6.7540   22.6520  -32.6840 N   0  0  0  0  0  0  0  0  0  0  0  0
   -7.1490   23.1780  -31.3620 C   0  0  0  0  0  0  0  0  0  0  0  0
   -6.0850   22.9850  -30.2590 C   0  0  0  0  0  0  0  0  0  0  0  0
   -2.4670   22.9580  -29.7540 C   0  0  0  0  0  0  0  0  0  0  0  0
   -2.0290   21.6360  -29.7190 C   0  0  0  0  0  0  0  0  0  0  0  0
   -0.4440   18.9610  -30.0330 C   0  0  0  0  0  0  0  0  0  0  0  0
    0.1900   17.8480  -29.6240 N   0  0  0  0  0  0  0  0  0  0  0  0
    2.9140   17.4040  -27.4370 C   0  0  0  0  0  0  0  0  0  0  0  0
    3.6850   16.4770  -26.7310 C   0  0  0  0  0  0  0  0  0  0  0  0
    4.9050   14.5240  -25.3430 H   0  0  0  0  0  0  0  0  0  0  0  0
    3.5100   13.3980  -25.2980 H   0  0  0  0  0  0  0  0  0  0  0  0
    1.3397   14.0310  -26.2922 H   0  0  0  0  0  0  0  0  0  0  0  0
   -0.0407   15.6808  -27.5500 H   0  0  0  0  0  0  0  0  0  0  0  0
    0.9138   19.8981  -27.2210 H   0  0  0  0  0  0  0  0  0  0  0  0
    1.0109   22.2368  -28.2190 H   0  0  0  0  0  0  0  0  0  0  0  0
    0.1334   24.5933  -28.2815 H   0  0  0  0  0  0  0  0  0  0  0  0
   -5.0320   26.2850  -29.5050 H   0  0  0  0  0  0  0  0  0  0  0  0
   -3.9121   22.5023  -32.7256 H   0  0  0  0  0  0  0  0  0  0  0  0
   -3.9547   21.0795  -31.6165 H   0  0  0  0  0  0  0  0  0  0  0  0
   -5.6421   21.1129  -33.5919 H   0  0  0  0  0  0  0  0  0  0  0  0
   -6.2783   20.7424  -31.9472 H   0  0  0  0  0  0  0  0  0  0  0  0
   -6.2870   23.4170  -33.2270 H   0  0  0  0  0  0  0  0  0  0  0  0
   -7.3476   24.2550  -31.4648 H   0  0  0  0  0  0  0  0  0  0  0  0
   -8.0362   22.6085  -31.0479 H   0  0  0  0  0  0  0  0  0  0  0  0
   -6.1065   23.8544  -29.5854 H   0  0  0  0  0  0  0  0  0  0  0  0
   -6.3189   22.0600  -29.7116 H   0  0  0  0  0  0  0  0  0  0  0  0
   -2.6562   20.8237  -30.1149 H   0  0  0  0  0  0  0  0  0  0  0  0
   -1.0310   19.0544  -30.9586 H   0  0  0  0  0  0  0  0  0  0  0  0
    3.3665   18.3529  -27.7607 H   0  0  0  0  0  0  0  0  0  0  0  0
    4.7370   16.7016  -26.5010 H   0  0  0  0  0  0  0  0  0  0  0  0
  1  2  1  0
  2  3  2  0
  3  4  1  0
  4  5  2  0
  5  6  1  0
  6  7  1  0
  7  8  2  0
  8  9  1  0
  9 10  2  0
 10 11  1  0
 11 12  2  0
 12 13  1  0
 13 14  1  0
 14 15  1  0
 14 16  2  0
 16 17  1  0
 17 18  1  0
 18 19  1  0
 19 20  1  0
 20 21  1  0
 21 22  1  0
 16 23  1  0
 23 24  2  0
  8 25  1  0
 25 26  2  0
  5 27  1  0
 27 28  2  0
 28  2  1  0
 26  6  1  0
 24  9  1  0
 23 12  1  0
 22 17  1  0
  1 29  1  0
  1 30  1  0
  3 31  1  0
  4 32  1  0
  7 33  1  0
 10 34  1  0
 11 35  1  0
 15 36  1  0
 18 37  1  0
 18 38  1  0
 19 39  1  0
 19 40  1  0
 20 41  1  0
 21 42  1  0
 21 43  1  0
 22 44  1  0
 22 45  1  0
 24 46  1  0
 25 47  1  0
 27 48  1  0
 28 49  1  0
M  CHG  1  13  -1
M  END
>  <UniqueID>  (32) 
30

>  <SMILES>  (32) 
Nc1ccc(-n2cc(-c3ccc4[n-]c(O)c(N5CCNCC5)c4c3)cn2)cc1

>  <Energy>  (32) 
130.51404767123637

>  <Genealogy>  (32) 
Nc1ccc(-n2cc(-c3ccc4[n-]c(O)c(N5CCNCC5)c4c3)cn2)cc1 (protonated)
Nc1ccc(-n2cc(-c3ccc4[n-]c(O)c(N5CCNCC5)c4c3)cn2)cc1 (3D coordinates assigned)
Nc1ccc(-n2cc(-c3ccc4[n-]c(O)c(N5CCNCC5)c4c3)cn2)cc1 (nonaromatic ring conformer: 130.51404767123637 kcal/mol)

>  <smiles>  (32) 
Nc1ccc(-n2cc(-c3ccc4[nH]c(O)c(N5CCNCC5)c4c3)cn2)cc1

>  <score_type>  (32) 
oracle

>  <origin>  (32) 
adgpu

>  <m_score__min__energy>  (32) 
-10.359999999999999

>  <m_primary>  (32) 
energy

$$$$
32:0
     RDKit          3D

 35 37  0  0  0  0  0  0  0  0999 V2000
   -0.8620   22.4150  -26.3200 C   0  0  0  0  0  0  0  0  0  0  0  0
   -1.9350   22.8350  -27.2790 C   0  0  0  0  0  0  0  0  0  0  0  0
   -2.8920   21.9100  -27.7260 C   0  0  0  0  0  0  0  0  0  0  0  0
   -3.8710   22.2990  -28.6460 C   0  0  0  0  0  0  0  0  0  0  0  0
   -3.8960   23.6100  -29.1380 C   0  0  0  0  0  0  0  0  0  0  0  0
   -5.1180   24.0680  -30.3180 S   0  0  0  0  0  0  0  0  0  0  0  0
   -4.6060   25.1590  -31.2160 O   0  0  0  0  0  0  0  0  0  0  0  0
   -6.3270   24.5840  -29.5890 O   0  0  0  0  0  0  0  0  0  0  0  0
   -5.5120   22.6740  -31.2840 N   0  0  0  0  0  0  0  0  0  0  0  0
   -4.6790   21.9230  -32.0530 C   0  0  0  0  0  0  0  0  0  0  0  0
   -3.2030   22.1370  -32.1910 C   0  0  0  0  0  0  0  0  0  0  0  0
   -5.3890   20.9260  -32.7190 C   0  0  0  0  0  0  0  0  0  0  0  0
   -6.7000   21.1000  -32.3350 C   0  0  0  0  0  0  0  0  0  0  0  0
   -7.8470   20.4020  -32.7090 C   0  0  0  0  0  0  0  0  0  0  0  0
   -9.0750   20.8220  -32.1700 C   0  0  0  0  0  0  0  0  0  0  0  0
   -9.1300   21.9200  -31.2830 C   0  0  0  0  0  0  0  0  0  0  0  0
   -7.9550   22.6050  -30.9250 C   0  0  0  0  0  0  0  0  0  0  0  0
   -6.7460   22.1650  -31.4700 C   0  0  0  0  0  0  0  0  0  0  0  0
   -2.9300   24.5310  -28.7080 C   0  0  0  0  0  0  0  0  0  0  0  0
   -1.9520   24.1430  -27.7870 C   0  0  0  0  0  0  0  0  0  0  0  0
   -1.2174   22.5541  -25.2883 H   0  0  0  0  0  0  0  0  0  0  0  0
   -0.6180   21.3550  -26.4840 H   0  0  0  0  0  0  0  0  0  0  0  0
    0.0367   23.0277  -26.4840 H   0  0  0  0  0  0  0  0  0  0  0  0
   -2.8717   20.8759  -27.3514 H   0  0  0  0  0  0  0  0  0  0  0  0
   -4.6243   21.5724  -28.9845 H   0  0  0  0  0  0  0  0  0  0  0  0
   -2.7471   22.2031  -31.1921 H   0  0  0  0  0  0  0  0  0  0  0  0
   -2.7601   21.2937  -32.7411 H   0  0  0  0  0  0  0  0  0  0  0  0
   -3.0178   23.0714  -32.7411 H   0  0  0  0  0  0  0  0  0  0  0  0
   -4.9886   20.1641  -33.4039 H   0  0  0  0  0  0  0  0  0  0  0  0
   -7.7928   19.5504  -33.4032 H   0  0  0  0  0  0  0  0  0  0  0  0
  -10.0000   20.2919  -32.4408 H   0  0  0  0  0  0  0  0  0  0  0  0
  -10.0975   22.2412  -30.8698 H   0  0  0  0  0  0  0  0  0  0  0  0
   -7.9869   23.4620  -30.2361 H   0  0  0  0  0  0  0  0  0  0  0  0
   -2.9416   25.5603  -29.0958 H   0  0  0  0  0  0  0  0  0  0  0  0
   -1.1917   24.8671  -27.4589 H   0  0  0  0  0  0  0  0  0  0  0  0
  1  2  1  0
  2  3  2  0
  3  4  1  0
  4  5  2  0
  5  6  1  0
  6  7  2  0
  6  8  2  0
  6  9  1  0
  9 10  1  0
 10 11  1  0
 10 12  2  0
 12 13  1  0
 13 14  2  0
 14 15  1  0
 15 16  2  0
 16 17  1  0
 17 18  2  0
  5 19  1  0
 19 20  2  0
 20  2  1  0
 18  9  1  0
 18 13  1  0
  1 21  1  0
  1 22  1  0
  1 23  1  0
  3 24  1  0
  4 25  1  0
 11 26  1  0
 11 27  1  0
 11 28  1  0
 12 29  1  0
 14 30  1  0
 15 31  1  0
 16 32  1  0
 17 33  1  0
 19 34  1  0
 20 35  1  0
M  END
>  <UniqueID>  (33) 
31

>  <SMILES>  (33) 
Cc1ccc(S(=O)(=O)n2c(C)cc3ccccc32)cc1

>  <Energy>  (33) 
71.67078368288477

>  <Genealogy>  (33) 
Cc1ccc(S(=O)(=O)n2c(C)cc3ccccc32)cc1 (3D coordinates assigned)
Cc1ccc(S(=O)(=O)n2c(C)cc3ccccc32)cc1 (optimized conformer: 71.67078368288477 kcal/mol)

>  <smiles>  (33) 
Cc1ccc(S(=O)(=O)n2c(C)cc3ccccc32)cc1

>  <score_type>  (33) 
oracle

>  <origin>  (33) 
adgpu

>  <m_score__min__energy>  (33) 
-8.0999999999999996

>  <m_primary>  (33) 
energy

$$$$
33:0
     RDKit          3D

 32 34  0  0  0  0  0  0  0  0999 V2000
   -7.1970   23.8160  -32.9180 N   0  0  0  0  0  0  0  0  0  0  0  0
   -6.2790   23.7690  -32.2150 C   0  0  0  0  0  0  0  0  0  0  0  0
   -5.1300   23.7100  -31.3360 C   0  0  0  0  0  0  0  0  0  0  0  0
   -4.3700   22.5270  -31.1990 C   0  0  0  0  0  0  0  0  0  0  0  0
   -4.7420   21.2670  -31.8870 C   0  0  0  0  0  0  0  0  0  0  0  0
   -5.9820   20.6570  -31.6230 C   0  0  0  0  0  0  0  0  0  0  0  0
   -6.3410   19.4770  -32.2800 C   0  0  0  0  0  0  0  0  0  0  0  0
   -5.4730   18.9000  -33.2110 C   0  0  0  0  0  0  0  0  0  0  0  0
   -4.2450   19.5040  -33.4880 C   0  0  0  0  0  0  0  0  0  0  0  0
   -3.8800   20.6850  -32.8330 C   0  0  0  0  0  0  0  0  0  0  0  0
   -3.2280   22.5410  -30.3840 C   0  0  0  0  0  0  0  0  0  0  0  0
   -2.8560   23.7160  -29.7150 C   0  0  0  0  0  0  0  0  0  0  0  0
   -1.6700   23.7570  -28.8290 C   0  0  0  0  0  0  0  0  0  0  0  0
   -1.3240   22.6110  -28.0910 C   0  0  0  0  0  0  0  0  0  0  0  0
   -0.2070   22.6170  -27.2510 C   0  0  0  0  0  0  0  0  0  0  0  0
    0.5710   23.7700  -27.1300 C   0  0  0  0  0  0  0  0  0  0  0  0
    0.2290   24.9220  -27.8410 C   0  0  0  0  0  0  0  0  0  0  0  0
   -0.8900   24.9260  -28.6810 C   0  0  0  0  0  0  0  0  0  0  0  0
   -1.2320   26.1030  -29.3390 O   0  0  0  0  0  0  0  0  0  0  0  0
   -3.6250   24.8300  -29.8490 N   0  0  0  0  0  0  0  0  0  0  0  0
   -4.7330   24.8610  -30.6330 C   0  0  0  0  0  0  0  0  0  0  0  0
   -5.3930   25.9300  -30.7240 O   0  0  0  0  0  0  0  0  0  0  0  0
   -6.6719   21.1108  -30.8963 H   0  0  0  0  0  0  0  0  0  0  0  0
   -7.3090   19.0013  -32.0639 H   0  0  0  0  0  0  0  0  0  0  0  0
   -5.7572   17.9702  -33.7255 H   0  0  0  0  0  0  0  0  0  0  0  0
   -3.5633   19.0504  -34.2226 H   0  0  0  0  0  0  0  0  0  0  0  0
   -2.9142   21.1604  -33.0591 H   0  0  0  0  0  0  0  0  0  0  0  0
   -2.6236   21.6290  -30.2696 H   0  0  0  0  0  0  0  0  0  0  0  0
   -1.9378   21.7021  -28.1756 H   0  0  0  0  0  0  0  0  0  0  0  0
    0.0594   21.7124  -26.6846 H   0  0  0  0  0  0  0  0  0  0  0  0
    1.4540   23.7708  -26.4741 H   0  0  0  0  0  0  0  0  0  0  0  0
    0.8417   25.8300  -27.7404 H   0  0  0  0  0  0  0  0  0  0  0  0
  1  2  3  0
  2  3  1  0
  3  4  2  0
  4  5  1  0
  5  6  2  0
  6  7  1  0
  7  8  2  0
  8  9  1  0
  9 10  2  0
  4 11  1  0
 11 12  2  0
 12 13  1  0
 13 14  2  0
 14 15  1  0
 15 16  2  0
 16 17  1  0
 17 18  2  0
 18 19  1  0
 12 20  1  0
 20 21  1  0
 21 22  2  0
 21  3  1  0
 10  5  1  0
 18 13  1  0
  6 23  1  0
  7 24  1  0
  8 25  1  0
  9 26  1  0
 10 27  1  0
 11 28  1  0
 14 29  1  0
 15 30  1  0
 16 31  1  0
 17 32  1  0
M  CHG  2  19  -1  20  -1
M  END
>  <UniqueID>  (34) 
32

>  <SMILES>  (34) 
N#Cc1c(-c2ccccc2)cc(-c2ccccc2[O-])[n-]c1=O

>  <Energy>  (34) 
49.58566061700705

>  <Genealogy>  (34) 
N#Cc1c(-c2ccccc2)cc(-c2ccccc2[O-])[n-]c1=O (protonated)
N#Cc1c(-c2ccccc2)cc(-c2ccccc2[O-])[n-]c1=O (3D coordinates assigned)
N#Cc1c(-c2ccccc2)cc(-c2ccccc2[O-])[n-]c1=O (optimized conformer: 49.58566061700705 kcal/mol)

>  <smiles>  (34) 
N#Cc1c(-c2ccccc2)cc(-c2ccccc2O)[nH]c1=O

>  <score_type>  (34) 
oracle

>  <origin>  (34) 
adgpu

>  <m_score__min__energy>  (34) 
-12.289999999999999

>  <m_primary>  (34) 
energy

$$$$
34:0
     RDKit          3D

 28 29  0  0  0  0  0  0  0  0999 V2000
   -4.2050   25.6960  -30.5230 O   0  0  0  0  0  0  0  0  0  0  0  0
   -4.0420   24.4460  -30.4880 C   0  0  0  0  0  0  0  0  0  0  0  0
   -4.6110   23.6330  -31.5190 N   0  0  0  0  0  0  0  0  0  0  0  0
   -6.0190   23.2530  -31.5690 C   0  0  0  0  0  0  0  0  0  0  0  0
   -6.1740   21.8930  -32.2030 C   0  0  0  0  0  0  0  0  0  0  0  0
   -5.0510   21.2540  -32.7580 C   0  0  0  0  0  0  0  0  0  0  0  0
   -5.1770   20.0030  -33.3670 C   0  0  0  0  0  0  0  0  0  0  0  0
   -6.4230   19.3770  -33.4310 C   0  0  0  0  0  0  0  0  0  0  0  0
   -6.5430   18.1630  -34.0220 F   0  0  0  0  0  0  0  0  0  0  0  0
   -7.5480   20.0020  -32.8870 C   0  0  0  0  0  0  0  0  0  0  0  0
   -7.4330   21.2570  -32.2750 C   0  0  0  0  0  0  0  0  0  0  0  0
   -8.8850   22.0030  -31.6140 Cl  0  0  0  0  0  0  0  0  0  0  0  0
   -3.2530   23.8340  -29.3840 C   0  0  0  0  0  0  0  0  0  0  0  0
   -3.6570   22.5930  -28.8520 C   0  0  0  0  0  0  0  0  0  0  0  0
   -2.9400   21.9930  -27.8140 C   0  0  0  0  0  0  0  0  0  0  0  0
   -1.8080   22.6180  -27.2930 C   0  0  0  0  0  0  0  0  0  0  0  0
   -1.3900   23.8450  -27.8080 C   0  0  0  0  0  0  0  0  0  0  0  0
   -2.0990   24.4560  -28.8490 C   0  0  0  0  0  0  0  0  0  0  0  0
   -1.6380   25.6730  -29.3410 O   0  0  0  0  0  0  0  0  0  0  0  0
   -6.4233   23.2245  -30.5464 H   0  0  0  0  0  0  0  0  0  0  0  0
   -6.5671   23.9923  -32.1715 H   0  0  0  0  0  0  0  0  0  0  0  0
   -4.0665   21.7425  -32.7123 H   0  0  0  0  0  0  0  0  0  0  0  0
   -4.2925   19.5103  -33.7970 H   0  0  0  0  0  0  0  0  0  0  0  0
   -8.5286   19.5064  -32.9395 H   0  0  0  0  0  0  0  0  0  0  0  0
   -4.5472   22.0910  -29.2588 H   0  0  0  0  0  0  0  0  0  0  0  0
   -3.2692   21.0256  -27.4070 H   0  0  0  0  0  0  0  0  0  0  0  0
   -1.2446   22.1436  -26.4760 H   0  0  0  0  0  0  0  0  0  0  0  0
   -0.4972   24.3359  -27.3934 H   0  0  0  0  0  0  0  0  0  0  0  0
  1  2  2  0
  2  3  1  0
  3  4  1  0
  4  5  1  0
  5  6  2  0
  6  7  1  0
  7  8  2  0
  8  9  1  0
  8 10  1  0
 10 11  2  0
 11 12  1  0
  2 13  1  0
 13 14  2  0
 14 15  1  0
 15 16  2  0
 16 17  1  0
 17 18  2  0
 18 19  1  0
 11  5  1  0
 18 13  1  0
  4 20  1  0
  4 21  1  0
  6 22  1  0
  7 23  1  0
 10 24  1  0
 14 25  1  0
 15 26  1  0
 16 27  1  0
 17 28  1  0
M  CHG  2   3  -1  19  -1
M  END
>  <UniqueID>  (35) 
33

>  <SMILES>  (35) 
O=C([N-]Cc1ccc(F)cc1Cl)c1ccccc1[O-]

>  <Energy>  (35) 
30.37128444363067

>  <Genealogy>  (35) 
O=C([N-]Cc1ccc(F)cc1Cl)c1ccccc1[O-] (protonated)
O=C([N-]Cc1ccc(F)cc1Cl)c1ccccc1[O-] (3D coordinates assigned)
O=C([N-]Cc1ccc(F)cc1Cl)c1ccccc1[O-] (optimized conformer: 30.37128444363067 kcal/mol)

>  <smiles>  (35) 
O=C(NCc1ccc(F)cc1Cl)c1ccccc1O

>  <score_type>  (35) 
oracle

>  <origin>  (35) 
adgpu

>  <m_score__min__energy>  (35) 
-11.710000000000001

>  <m_primary>  (35) 
energy

$$$$
35:0
     RDKit          3D

 64 67  0  0  0  0  0  0  0  0999 V2000
   -4.9750   15.0650  -32.1670 C   0  0  0  0  0  0  0  0  0  0  0  0
   -4.5680   15.5470  -33.3440 C   0  0  0  0  0  0  0  0  0  0  0  0
   -5.3990   16.5230  -34.1350 C   0  0  0  0  0  0  0  0  0  0  0  0
   -5.4100   17.8460  -33.4920 N   0  0  0  0  0  0  0  0  0  0  0  0
   -6.6300   18.4310  -32.9740 C   0  0  0  0  0  0  0  0  0  0  0  0
   -7.4170   17.7480  -32.0240 C   0  0  0  0  0  0  0  0  0  0  0  0
   -8.5970   18.3170  -31.5360 C   0  0  0  0  0  0  0  0  0  0  0  0
   -9.0060   19.5740  -31.9820 C   0  0  0  0  0  0  0  0  0  0  0  0
   -8.2370   20.2640  -32.9220 C   0  0  0  0  0  0  0  0  0  0  0  0
   -7.0580   19.6990  -33.4130 C   0  0  0  0  0  0  0  0  0  0  0  0
   -3.8900   18.6700  -33.2670 S   0  0  0  0  0  0  0  0  0  0  0  0
   -3.2040   18.8580  -34.5920 O   0  0  0  0  0  0  0  0  0  0  0  0
   -2.9930   17.8270  -32.4010 O   0  0  0  0  0  0  0  0  0  0  0  0
   -4.1480   20.2490  -32.5230 C   0  0  0  0  0  0  0  0  0  0  0  0
   -4.0240   21.4130  -33.2930 C   0  0  0  0  0  0  0  0  0  0  0  0
   -4.1020   22.6710  -32.6870 C   0  0  0  0  0  0  0  0  0  0  0  0
   -4.3060   22.7860  -31.2990 C   0  0  0  0  0  0  0  0  0  0  0  0
   -4.2350   24.1050  -30.6190 C   0  0  0  0  0  0  0  0  0  0  0  0
   -4.7640   25.1130  -31.1550 O   0  0  0  0  0  0  0  0  0  0  0  0
   -3.6660   24.2460  -29.3120 N   0  0  0  0  0  0  0  0  0  0  0  0
   -2.3790   23.7570  -28.9170 C   0  0  0  0  0  0  0  0  0  0  0  0
   -2.1430   22.3810  -28.7510 C   0  0  0  0  0  0  0  0  0  0  0  0
   -0.8640   21.9150  -28.4190 C   0  0  0  0  0  0  0  0  0  0  0  0
   -0.5650   20.1850  -28.2390 S   0  0  0  0  0  0  0  0  0  0  0  0
    0.7870   19.9750  -27.6140 O   0  0  0  0  0  0  0  0  0  0  0  0
   -1.5980   19.5970  -27.3190 O   0  0  0  0  0  0  0  0  0  0  0  0
   -0.6350   19.3560  -29.7770 N   0  0  0  0  0  0  0  0  0  0  0  0
    0.6980   18.8340  -30.1390 C   0  0  0  0  0  0  0  0  0  0  0  0
    0.7930   18.5920  -31.6530 C   0  0  0  0  0  0  0  0  0  0  0  0
    0.5810   19.7550  -32.4430 O   0  0  0  0  0  0  0  0  0  0  0  0
   -0.1580   20.7720  -31.7840 C   0  0  0  0  0  0  0  0  0  0  0  0
   -1.2260   20.2150  -30.8270 C   0  0  0  0  0  0  0  0  0  0  0  0
    0.1820   22.8310  -28.2470 C   0  0  0  0  0  0  0  0  0  0  0  0
   -0.0460   24.1990  -28.4130 C   0  0  0  0  0  0  0  0  0  0  0  0
   -1.3210   24.6650  -28.7570 C   0  0  0  0  0  0  0  0  0  0  0  0
   -1.5470   26.0290  -28.9360 O   0  0  0  0  0  0  0  0  0  0  0  0
   -4.4750   21.6120  -30.5430 C   0  0  0  0  0  0  0  0  0  0  0  0
   -4.3970   20.3550  -31.1500 C   0  0  0  0  0  0  0  0  0  0  0  0
   -4.3427   14.3534  -31.6157 H   0  0  0  0  0  0  0  0  0  0  0  0
   -5.9425   15.3795  -31.7487 H   0  0  0  0  0  0  0  0  0  0  0  0
   -3.5977   15.2218  -33.7476 H   0  0  0  0  0  0  0  0  0  0  0  0
   -4.9773   16.6178  -35.1465 H   0  0  0  0  0  0  0  0  0  0  0  0
   -6.4317   16.1471  -34.1825 H   0  0  0  0  0  0  0  0  0  0  0  0
   -7.0995   16.7584  -31.6636 H   0  0  0  0  0  0  0  0  0  0  0  0
   -9.2046   17.7722  -30.7984 H   0  0  0  0  0  0  0  0  0  0  0  0
   -9.9330   20.0212  -31.5939 H   0  0  0  0  0  0  0  0  0  0  0  0
   -8.5605   21.2539  -33.2761 H   0  0  0  0  0  0  0  0  0  0  0  0
   -6.4569   20.2505  -34.1509 H   0  0  0  0  0  0  0  0  0  0  0  0
   -3.8646   21.3370  -34.3787 H   0  0  0  0  0  0  0  0  0  0  0  0
   -4.0031   23.5787  -33.3005 H   0  0  0  0  0  0  0  0  0  0  0  0
   -2.9680   21.6654  -28.8826 H   0  0  0  0  0  0  0  0  0  0  0  0
    1.4649   19.5641  -29.8411 H   0  0  0  0  0  0  0  0  0  0  0  0
    0.8576   17.8789  -29.6173 H   0  0  0  0  0  0  0  0  0  0  0  0
    1.7961   18.2004  -31.8776 H   0  0  0  0  0  0  0  0  0  0  0  0
   -0.0082   17.8839  -31.9111 H   0  0  0  0  0  0  0  0  0  0  0  0
    0.5408   21.3941  -31.2055 H   0  0  0  0  0  0  0  0  0  0  0  0
   -0.6808   21.3529  -32.5581 H   0  0  0  0  0  0  0  0  0  0  0  0
   -1.7459   21.0568  -30.3463 H   0  0  0  0  0  0  0  0  0  0  0  0
   -1.9232   19.6010  -31.4160 H   0  0  0  0  0  0  0  0  0  0  0  0
    1.1868   22.4715  -27.9802 H   0  0  0  0  0  0  0  0  0  0  0  0
    0.7790   24.9130  -28.2730 H   0  0  0  0  0  0  0  0  0  0  0  0
   -2.4840   26.4120  -28.9660 H   0  0  0  0  0  0  0  0  0  0  0  0
   -4.6706   21.6836  -29.4629 H   0  0  0  0  0  0  0  0  0  0  0  0
   -4.5319   19.4457  -30.5459 H   0  0  0  0  0  0  0  0  0  0  0  0
  1  2  2  0
  2  3  1  0
  3  4  1  0
  4  5  1  0
  5  6  2  0
  6  7  1  0
  7  8  2  0
  8  9  1  0
  9 10  2  0
  4 11  1  0
 11 12  2  0
 11 13  2  0
 11 14  1  0
 14 15  2  0
 15 16  1  0
 16 17  2  0
 17 18  1  0
 18 19  2  0
 18 20  1  0
 20 21  1  0
 21 22  2  0
 22 23  1  0
 23 24  1  0
 24 25  2  0
 24 26  2  0
 24 27  1  0
 27 28  1  0
 28 29  1  0
 29 30  1  0
 30 31  1  0
 31 32  1  0
 23 33  2  0
 33 34  1  0
 34 35  2  0
 35 36  1  0
 17 37  1  0
 37 38  2  0
 10  5  1  0
 38 14  1  0
 35 21  1  0
 32 27  1  0
  1 39  1  0
  1 40  1  0
  2 41  1  0
  3 42  1  0
  3 43  1  0
  6 44  1  0
  7 45  1  0
  8 46  1  0
  9 47  1  0
 10 48  1  0
 15 49  1  0
 16 50  1  0
 22 51  1  0
 28 52  1  0
 28 53  1  0
 29 54  1  0
 29 55  1  0
 31 56  1  0
 31 57  1  0
 32 58  1  0
 32 59  1  0
 33 60  1  0
 34 61  1  0
 36 62  1  0
 37 63  1  0
 38 64  1  0
M  CHG  1  20  -1
M  END
>  <UniqueID>  (36) 
34

>  <SMILES>  (36) 
C=CCN(c1ccccc1)S(=O)(=O)c1ccc(C(=O)[N-]c2cc(S(=O)(=O)N3CCOCC3)ccc2O)cc1

>  <Energy>  (36) 
85.54033585053978

>  <Genealogy>  (36) 
C=CCN(c1ccccc1)S(=O)(=O)c1ccc(C(=O)[N-]c2cc(S(=O)(=O)N3CCOCC3)ccc2O)cc1 (protonated)
C=CCN(c1ccccc1)S(=O)(=O)c1ccc(C(=O)[N-]c2cc(S(=O)(=O)N3CCOCC3)ccc2O)cc1 (3D coordinates assigned)
C=CCN(c1ccccc1)S(=O)(=O)c1ccc(C(=O)[N-]c2cc(S(=O)(=O)N3CCOCC3)ccc2O)cc1 (nonaromatic ring conformer: 85.54033585053978 kcal/mol)

>  <smiles>  (36) 
C=CCN(c1ccccc1)S(=O)(=O)c1ccc(C(=O)Nc2cc(S(=O)(=O)N3CCOCC3)ccc2O)cc1

>  <score_type>  (36) 
oracle

>  <origin>  (36) 
adgpu

>  <m_score__min__energy>  (36) 
-12.050000000000001

>  <m_primary>  (36) 
energy

$$$$
36:0
     RDKit          3D

 39 41  0  0  0  0  0  0  0  0999 V2000
   -5.3340   22.5980  -29.9170 O   0  0  0  0  0  0  0  0  0  0  0  0
   -4.7490   23.0890  -31.2110 S   0  0  0  0  0  0  0  0  0  0  0  0
   -4.5080   24.5660  -31.0700 O   0  0  0  0  0  0  0  0  0  0  0  0
   -5.8580   22.8320  -32.5160 N   0  0  0  0  0  0  0  0  0  0  0  0
   -7.1330   22.2320  -32.2770 C   0  0  0  0  0  0  0  0  0  0  0  0
   -8.1890   23.0460  -31.8450 C   0  0  0  0  0  0  0  0  0  0  0  0
   -9.4660   22.5130  -31.6700 C   0  0  0  0  0  0  0  0  0  0  0  0
   -9.6980   21.1600  -31.9200 C   0  0  0  0  0  0  0  0  0  0  0  0
   -8.6500   20.3350  -32.3330 C   0  0  0  0  0  0  0  0  0  0  0  0
   -7.3540   20.8540  -32.5060 C   0  0  0  0  0  0  0  0  0  0  0  0
   -6.2770   19.9740  -32.8840 N   0  0  0  0  0  0  0  0  0  0  0  0
   -5.3520   19.3790  -31.9310 C   0  0  0  0  0  0  0  0  0  0  0  0
   -4.6250   18.2820  -32.6980 C   0  0  0  0  0  0  0  0  0  0  0  0
   -4.8410   18.6040  -34.1730 C   0  0  0  0  0  0  0  0  0  0  0  0
   -6.1120   19.4370  -34.2250 C   0  0  0  0  0  0  0  0  0  0  0  0
   -3.2180   22.2770  -31.5710 C   0  0  0  0  0  0  0  0  0  0  0  0
   -3.1100   21.5620  -32.7750 C   0  0  0  0  0  0  0  0  0  0  0  0
   -1.9340   20.8830  -33.0980 C   0  0  0  0  0  0  0  0  0  0  0  0
   -0.8510   20.9040  -32.2170 C   0  0  0  0  0  0  0  0  0  0  0  0
   -0.9470   21.6010  -31.0120 C   0  0  0  0  0  0  0  0  0  0  0  0
   -2.1210   22.2880  -30.6760 C   0  0  0  0  0  0  0  0  0  0  0  0
   -2.1490   23.1930  -28.9860 Br  0  0  0  0  0  0  0  0  0  0  0  0
   -5.4470   22.7430  -33.4710 H   0  0  0  0  0  0  0  0  0  0  0  0
   -8.0095   24.1122  -31.6426 H   0  0  0  0  0  0  0  0  0  0  0  0
  -10.2904   23.1595  -31.3348 H   0  0  0  0  0  0  0  0  0  0  0  0
  -10.7077   20.7428  -31.7916 H   0  0  0  0  0  0  0  0  0  0  0  0
   -8.8396   19.2686  -32.5250 H   0  0  0  0  0  0  0  0  0  0  0  0
   -4.6373   20.1322  -31.5678 H   0  0  0  0  0  0  0  0  0  0  0  0
   -5.8753   18.9814  -31.0490 H   0  0  0  0  0  0  0  0  0  0  0  0
   -3.5520   18.2901  -32.4559 H   0  0  0  0  0  0  0  0  0  0  0  0
   -5.0046   17.2827  -32.4387 H   0  0  0  0  0  0  0  0  0  0  0  0
   -3.9897   19.1763  -34.5702 H   0  0  0  0  0  0  0  0  0  0  0  0
   -4.9258   17.6917  -34.7817 H   0  0  0  0  0  0  0  0  0  0  0  0
   -6.0081   20.2524  -34.9560 H   0  0  0  0  0  0  0  0  0  0  0  0
   -6.9810   18.8383  -34.5356 H   0  0  0  0  0  0  0  0  0  0  0  0
   -3.9614   21.5368  -33.4710 H   0  0  0  0  0  0  0  0  0  0  0  0
   -1.8604   20.3313  -34.0468 H   0  0  0  0  0  0  0  0  0  0  0  0
    0.0770   20.3716  -32.4726 H   0  0  0  0  0  0  0  0  0  0  0  0
   -0.0927   21.6112  -30.3191 H   0  0  0  0  0  0  0  0  0  0  0  0
  1  2  2  0
  2  3  2  0
  2  4  1  0
  4  5  1  0
  5  6  2  0
  6  7  1  0
  7  8  2  0
  8  9  1  0
  9 10  2  0
 10 11  1  0
 11 12  1  0
 12 13  1  0
 13 14  1  0
 14 15  1  0
  2 16  1  0
 16 17  2  0
 17 18  1  0
 18 19  2  0
 19 20  1  0
 20 21  2  0
 21 22  1  0
 10  5  1  0
 15 11  1  0
 21 16  1  0
  4 23  1  0
  6 24  1  0
  7 25  1  0
  8 26  1  0
  9 27  1  0
 12 28  1  0
 12 29  1  0
 13 30  1  0
 13 31  1  0
 14 32  1  0
 14 33  1  0
 15 34  1  0
 15 35  1  0
 17 36  1  0
 18 37  1  0
 19 38  1  0
 20 39  1  0
M  END
>  <UniqueID>  (37) 
35

>  <SMILES>  (37) 
O=S(=O)(Nc1ccccc1N1CCCC1)c1ccccc1Br

>  <Energy>  (37) 
53.06787171863241

>  <Genealogy>  (37) 
O=S(=O)(Nc1ccccc1N1CCCC1)c1ccccc1Br (3D coordinates assigned)
O=S(=O)(Nc1ccccc1N1CCCC1)c1ccccc1Br (nonaromatic ring conformer: 53.06787171863241 kcal/mol)

>  <smiles>  (37) 
O=S(=O)(Nc1ccccc1N1CCCC1)c1ccccc1Br

>  <score_type>  (37) 
oracle

>  <origin>  (37) 
adgpu

>  <m_score__min__energy>  (37) 
-8.6400000000000006

>  <m_primary>  (37) 
energy

$$$$
37:0
     RDKit          3D

 44 47  0  0  0  0  0  0  0  0999 V2000
   -3.8660   25.2850  -30.8090 O   0  0  0  0  0  0  0  0  0  0  0  0
   -5.1160   24.7390  -30.1780 S   0  0  0  0  0  0  0  0  0  0  0  0
   -6.1480   25.8300  -30.1210 O   0  0  0  0  0  0  0  0  0  0  0  0
   -4.7570   24.2150  -28.5640 N   0  0  0  0  0  0  0  0  0  0  0  0
   -3.6440   23.3570  -28.2510 C   0  0  0  0  0  0  0  0  0  0  0  0
   -3.8280   21.9640  -28.2180 C   0  0  0  0  0  0  0  0  0  0  0  0
   -2.7560   21.1060  -27.9790 C   0  0  0  0  0  0  0  0  0  0  0  0
   -1.4780   21.6180  -27.7690 C   0  0  0  0  0  0  0  0  0  0  0  0
   -1.2610   23.0030  -27.7870 C   0  0  0  0  0  0  0  0  0  0  0  0
    0.0270   23.5120  -27.5630 C   0  0  0  0  0  0  0  0  0  0  0  0
    0.2470   24.8900  -27.5580 C   0  0  0  0  0  0  0  0  0  0  0  0
   -0.8150   25.7690  -27.7660 C   0  0  0  0  0  0  0  0  0  0  0  0
   -2.1040   25.2790  -27.9920 C   0  0  0  0  0  0  0  0  0  0  0  0
   -2.3480   23.8900  -28.0230 C   0  0  0  0  0  0  0  0  0  0  0  0
   -5.7090   23.3870  -31.1360 C   0  0  0  0  0  0  0  0  0  0  0  0
   -7.0680   23.0490  -31.1120 C   0  0  0  0  0  0  0  0  0  0  0  0
   -7.5380   21.9680  -31.8650 C   0  0  0  0  0  0  0  0  0  0  0  0
   -6.6540   21.2080  -32.6420 C   0  0  0  0  0  0  0  0  0  0  0  0
   -7.1650   20.1390  -33.3910 O   0  0  0  0  0  0  0  0  0  0  0  0
   -6.6090   18.8520  -33.4520 C   0  0  0  0  0  0  0  0  0  0  0  0
   -5.9590   18.3740  -34.6050 C   0  0  0  0  0  0  0  0  0  0  0  0
   -5.4030   17.0910  -34.6190 C   0  0  0  0  0  0  0  0  0  0  0  0
   -5.4830   16.2820  -33.4820 C   0  0  0  0  0  0  0  0  0  0  0  0
   -6.1090   16.7580  -32.3280 C   0  0  0  0  0  0  0  0  0  0  0  0
   -6.6650   18.0410  -32.3110 C   0  0  0  0  0  0  0  0  0  0  0  0
   -5.2950   21.5670  -32.6860 C   0  0  0  0  0  0  0  0  0  0  0  0
   -4.8260   22.6480  -31.9330 C   0  0  0  0  0  0  0  0  0  0  0  0
   -5.3860   24.5580  -27.8050 H   0  0  0  0  0  0  0  0  0  0  0  0
   -4.8317   21.5453  -28.3830 H   0  0  0  0  0  0  0  0  0  0  0  0
   -2.9202   20.0186  -27.9561 H   0  0  0  0  0  0  0  0  0  0  0  0
   -0.6361   20.9335  -27.5884 H   0  0  0  0  0  0  0  0  0  0  0  0
    0.8665   22.8224  -27.3907 H   0  0  0  0  0  0  0  0  0  0  0  0
    1.2603   25.2835  -27.3896 H   0  0  0  0  0  0  0  0  0  0  0  0
   -0.6372   26.8544  -27.7521 H   0  0  0  0  0  0  0  0  0  0  0  0
   -2.9354   25.9824  -28.1470 H   0  0  0  0  0  0  0  0  0  0  0  0
   -7.7680   23.6356  -30.4989 H   0  0  0  0  0  0  0  0  0  0  0  0
   -8.6079   21.7131  -31.8470 H   0  0  0  0  0  0  0  0  0  0  0  0
   -5.8880   19.0119  -35.4984 H   0  0  0  0  0  0  0  0  0  0  0  0
   -4.9026   16.7184  -35.5250 H   0  0  0  0  0  0  0  0  0  0  0  0
   -5.0526   15.2698  -33.4962 H   0  0  0  0  0  0  0  0  0  0  0  0
   -6.1648   16.1231  -31.4315 H   0  0  0  0  0  0  0  0  0  0  0  0
   -7.1489   18.4155  -31.3969 H   0  0  0  0  0  0  0  0  0  0  0  0
   -4.5977   20.9948  -33.3156 H   0  0  0  0  0  0  0  0  0  0  0  0
   -3.7603   22.9186  -31.9668 H   0  0  0  0  0  0  0  0  0  0  0  0
  1  2  2  0
  2  3  2  0
  2  4  1  0
  4  5  1  0
  5  6  2  0
  6  7  1  0
  7  8  2  0
  8  9  1  0
  9 10  2  0
 10 11  1  0
 11 12  2  0
 12 13  1  0
 13 14  2  0
  2 15  1  0
 15 16  2  0
 16 17  1  0
 17 18  2  0
 18 19  1  0
 19 20  1  0
 20 21  2  0
 21 22  1  0
 22 23  2  0
 23 24  1  0
 24 25  2  0
 18 26  1  0
 26 27  2  0
 14  5  1  0
 27 15  1  0
 14  9  1  0
 25 20  1  0
  4 28  1  0
  6 29  1  0
  7 30  1  0
  8 31  1  0
 10 32  1  0
 11 33  1  0
 12 34  1  0
 13 35  1  0
 16 36  1  0
 17 37  1  0
 21 38  1  0
 22 39  1  0
 23 40  1  0
 24 41  1  0
 25 42  1  0
 26 43  1  0
 27 44  1  0
M  END
>  <UniqueID>  (38) 
36

>  <SMILES>  (38) 
O=S(=O)(Nc1cccc2ccccc12)c1ccc(Oc2ccccc2)cc1

>  <Energy>  (38) 
65.09869400790357

>  <Genealogy>  (38) 
O=S(=O)(Nc1cccc2ccccc12)c1ccc(Oc2ccccc2)cc1 (3D coordinates assigned)
O=S(=O)(Nc1cccc2ccccc12)c1ccc(Oc2ccccc2)cc1 (optimized conformer: 65.09869400790357 kcal/mol)

>  <smiles>  (38) 
O=S(=O)(Nc1cccc2ccccc12)c1ccc(Oc2ccccc2)cc1

>  <score_type>  (38) 
oracle

>  <origin>  (38) 
adgpu

>  <m_score__min__energy>  (38) 
-10.470000000000001

>  <m_primary>  (38) 
energy

$$$$
38:0
     RDKit          3D

 55 57  0  0  0  0  0  0  0  0999 V2000
   -1.2110   21.4360  -31.4150 C   0  0  0  0  0  0  0  0  0  0  0  0
   -2.5620   20.9170  -31.8330 C   0  0  0  0  0  0  0  0  0  0  0  0
   -3.6090   20.8900  -30.8980 C   0  0  0  0  0  0  0  0  0  0  0  0
   -4.8700   20.4080  -31.2550 C   0  0  0  0  0  0  0  0  0  0  0  0
   -5.1060   19.9500  -32.5540 C   0  0  0  0  0  0  0  0  0  0  0  0
   -6.6960   19.3200  -32.9840 S   0  0  0  0  0  0  0  0  0  0  0  0
   -7.2060   20.0560  -34.1900 O   0  0  0  0  0  0  0  0  0  0  0  0
   -6.5970   17.8580  -33.3280 O   0  0  0  0  0  0  0  0  0  0  0  0
   -7.8090   19.5370  -31.6670 N   0  0  0  0  0  0  0  0  0  0  0  0
   -8.5520   20.7870  -31.8460 C   0  0  0  0  0  0  0  0  0  0  0  0
   -7.6700   21.9520  -31.4990 C   0  0  0  0  0  0  0  0  0  0  0  0
   -7.0720   22.7150  -32.5150 C   0  0  0  0  0  0  0  0  0  0  0  0
   -6.2780   23.8190  -32.1940 C   0  0  0  0  0  0  0  0  0  0  0  0
   -6.0690   24.1760  -30.8520 C   0  0  0  0  0  0  0  0  0  0  0  0
   -5.2420   25.3470  -30.5000 C   0  0  0  0  0  0  0  0  0  0  0  0
   -5.8120   26.4270  -30.1920 O   0  0  0  0  0  0  0  0  0  0  0  0
   -3.8110   25.2870  -30.4600 N   0  0  0  0  0  0  0  0  0  0  0  0
   -3.0390   24.1210  -30.0500 C   0  0  0  0  0  0  0  0  0  0  0  0
   -2.8240   24.1570  -28.5380 C   0  0  0  0  0  0  0  0  0  0  0  0
   -2.4490   22.7920  -28.0240 C   0  0  0  0  0  0  0  0  0  0  0  0
   -1.1050   22.4790  -27.7570 C   0  0  0  0  0  0  0  0  0  0  0  0
   -0.7550   21.2010  -27.3120 C   0  0  0  0  0  0  0  0  0  0  0  0
   -1.7400   20.2240  -27.1400 C   0  0  0  0  0  0  0  0  0  0  0  0
   -3.0770   20.5230  -27.4170 C   0  0  0  0  0  0  0  0  0  0  0  0
   -3.4310   21.8010  -27.8630 C   0  0  0  0  0  0  0  0  0  0  0  0
   -6.6990   23.4370  -29.8400 C   0  0  0  0  0  0  0  0  0  0  0  0
   -7.4930   22.3330  -30.1600 C   0  0  0  0  0  0  0  0  0  0  0  0
   -4.0680   19.9600  -33.4930 C   0  0  0  0  0  0  0  0  0  0  0  0
   -2.7920   20.4370  -33.1450 C   0  0  0  0  0  0  0  0  0  0  0  0
   -1.6960   20.4370  -34.1790 C   0  0  0  0  0  0  0  0  0  0  0  0
   -1.1508   21.4591  -30.3169 H   0  0  0  0  0  0  0  0  0  0  0  0
   -0.4258   20.7755  -31.8114 H   0  0  0  0  0  0  0  0  0  0  0  0
   -1.0699   22.4523  -31.8114 H   0  0  0  0  0  0  0  0  0  0  0  0
   -3.4342   21.2521  -29.8741 H   0  0  0  0  0  0  0  0  0  0  0  0
   -5.6802   20.3888  -30.5113 H   0  0  0  0  0  0  0  0  0  0  0  0
   -8.4890   18.7440  -31.7140 H   0  0  0  0  0  0  0  0  0  0  0  0
   -8.8767   20.8730  -32.8935 H   0  0  0  0  0  0  0  0  0  0  0  0
   -9.4322   20.7862  -31.1863 H   0  0  0  0  0  0  0  0  0  0  0  0
   -7.2295   22.4421  -33.5689 H   0  0  0  0  0  0  0  0  0  0  0  0
   -5.8143   24.4115  -32.9965 H   0  0  0  0  0  0  0  0  0  0  0  0
   -3.5859   23.2058  -30.3207 H   0  0  0  0  0  0  0  0  0  0  0  0
   -2.0638   24.1302  -30.5588 H   0  0  0  0  0  0  0  0  0  0  0  0
   -2.0160   24.8659  -28.3044 H   0  0  0  0  0  0  0  0  0  0  0  0
   -3.7595   24.4739  -28.0539 H   0  0  0  0  0  0  0  0  0  0  0  0
   -0.3259   23.2425  -27.8987 H   0  0  0  0  0  0  0  0  0  0  0  0
    0.2973   20.9636  -27.0968 H   0  0  0  0  0  0  0  0  0  0  0  0
   -1.4628   19.2199  -26.7866 H   0  0  0  0  0  0  0  0  0  0  0  0
   -3.8513   19.7531  -27.2843 H   0  0  0  0  0  0  0  0  0  0  0  0
   -4.4829   22.0305  -28.0885 H   0  0  0  0  0  0  0  0  0  0  0  0
   -6.5671   23.7286  -28.7876 H   0  0  0  0  0  0  0  0  0  0  0  0
   -7.9818   21.7596  -29.3586 H   0  0  0  0  0  0  0  0  0  0  0  0
   -4.2523   19.5912  -34.5128 H   0  0  0  0  0  0  0  0  0  0  0  0
   -1.4293   19.3999  -34.4306 H   0  0  0  0  0  0  0  0  0  0  0  0
   -2.0456   20.9555  -35.0839 H   0  0  0  0  0  0  0  0  0  0  0  0
   -0.8130   20.9555  -33.7773 H   0  0  0  0  0  0  0  0  0  0  0  0
  1  2  1  0
  2  3  2  0
  3  4  1  0
  4  5  2  0
  5  6  1  0
  6  7  2  0
  6  8  2  0
  6  9  1  0
  9 10  1  0
 10 11  1  0
 11 12  2  0
 12 13  1  0
 13 14  2  0
 14 15  1  0
 15 16  2  0
 15 17  1  0
 17 18  1  0
 18 19  1  0
 19 20  1  0
 20 21  2  0
 21 22  1  0
 22 23  2  0
 23 24  1  0
 24 25  2  0
 14 26  1  0
 26 27  2  0
  5 28  1  0
 28 29  2  0
 29 30  1  0
 29  2  1  0
 27 11  1  0
 25 20  1  0
  1 31  1  0
  1 32  1  0
  1 33  1  0
  3 34  1  0
  4 35  1  0
  9 36  1  0
 10 37  1  0
 10 38  1  0
 12 39  1  0
 13 40  1  0
 18 41  1  0
 18 42  1  0
 19 43  1  0
 19 44  1  0
 21 45  1  0
 22 46  1  0
 23 47  1  0
 24 48  1  0
 25 49  1  0
 26 50  1  0
 27 51  1  0
 28 52  1  0
 30 53  1  0
 30 54  1  0
 30 55  1  0
M  CHG  1  17  -1
M  END
>  <UniqueID>  (39) 
37

>  <SMILES>  (39) 
Cc1ccc(S(=O)(=O)NCc2ccc(C(=O)[N-]CCc3ccccc3)cc2)cc1C

>  <Energy>  (39) 
54.808298965349046

>  <Genealogy>  (39) 
Cc1ccc(S(=O)(=O)NCc2ccc(C(=O)[N-]CCc3ccccc3)cc2)cc1C (protonated)
Cc1ccc(S(=O)(=O)NCc2ccc(C(=O)[N-]CCc3ccccc3)cc2)cc1C (3D coordinates assigned)
Cc1ccc(S(=O)(=O)NCc2ccc(C(=O)[N-]CCc3ccccc3)cc2)cc1C (optimized conformer: 54.808298965349046 kcal/mol)

>  <smiles>  (39) 
Cc1ccc(S(=O)(=O)NCc2ccc(C(=O)NCCc3ccccc3)cc2)cc1C

>  <score_type>  (39) 
oracle

>  <origin>  (39) 
adgpu

>  <m_score__min__energy>  (39) 
-12.18

>  <m_primary>  (39) 
energy

$$$$
39:0
     RDKit          3D

 47 50  0  0  0  0  0  0  0  0999 V2000
   -6.9350   15.4560  -34.1770 C   0  0  0  0  0  0  0  0  0  0  0  0
   -6.3460   16.8170  -33.9630 C   0  0  0  0  0  0  0  0  0  0  0  0
   -5.2470   17.2470  -34.7520 C   0  0  0  0  0  0  0  0  0  0  0  0
   -4.7090   18.5380  -34.5860 C   0  0  0  0  0  0  0  0  0  0  0  0
   -5.2990   19.3650  -33.6350 C   0  0  0  0  0  0  0  0  0  0  0  0
   -4.9760   20.6220  -33.3130 N   0  0  0  0  0  0  0  0  0  0  0  0
   -5.8770   20.9570  -32.3510 C   0  0  0  0  0  0  0  0  0  0  0  0
   -5.9320   22.2830  -31.6920 C   0  0  0  0  0  0  0  0  0  0  0  0
   -7.1710   22.8710  -31.3860 C   0  0  0  0  0  0  0  0  0  0  0  0
   -7.2290   24.1280  -30.7800 C   0  0  0  0  0  0  0  0  0  0  0  0
   -6.0520   24.8190  -30.4830 C   0  0  0  0  0  0  0  0  0  0  0  0
   -4.8080   24.2590  -30.7940 C   0  0  0  0  0  0  0  0  0  0  0  0
   -3.6160   24.9960  -30.4820 N   0  0  0  0  0  0  0  0  0  0  0  0
   -2.5980   24.5950  -29.5530 C   0  0  0  0  0  0  0  0  0  0  0  0
   -1.9480   25.4840  -28.9410 O   0  0  0  0  0  0  0  0  0  0  0  0
   -2.2420   23.1680  -29.3560 C   0  0  0  0  0  0  0  0  0  0  0  0
   -1.2480   22.6150  -30.1770 C   0  0  0  0  0  0  0  0  0  0  0  0
   -0.8730   21.2830  -30.0370 C   0  0  0  0  0  0  0  0  0  0  0  0
   -1.4690   20.4860  -29.0630 C   0  0  0  0  0  0  0  0  0  0  0  0
   -2.4600   21.0100  -28.2180 C   0  0  0  0  0  0  0  0  0  0  0  0
   -3.0730   20.1050  -27.1800 C   0  0  0  0  0  0  0  0  0  0  0  0
   -2.8870   22.3550  -28.3860 C   0  0  0  0  0  0  0  0  0  0  0  0
   -4.0040   22.9190  -27.5330 C   0  0  0  0  0  0  0  0  0  0  0  0
   -4.7530   22.9750  -31.3640 C   0  0  0  0  0  0  0  0  0  0  0  0
   -6.7560   19.9560  -32.0660 N   0  0  0  0  0  0  0  0  0  0  0  0
   -6.3640   18.9660  -32.8880 C   0  0  0  0  0  0  0  0  0  0  0  0
   -6.9250   17.6990  -33.0230 C   0  0  0  0  0  0  0  0  0  0  0  0
   -7.1380   14.9870  -33.2029 H   0  0  0  0  0  0  0  0  0  0  0  0
   -7.8740   15.5476  -34.7426 H   0  0  0  0  0  0  0  0  0  0  0  0
   -6.2255   14.8342  -34.7426 H   0  0  0  0  0  0  0  0  0  0  0  0
   -4.8122   16.5665  -35.4989 H   0  0  0  0  0  0  0  0  0  0  0  0
   -3.8533   18.8802  -35.1865 H   0  0  0  0  0  0  0  0  0  0  0  0
   -4.2220   21.2050  -33.7390 H   0  0  0  0  0  0  0  0  0  0  0  0
   -8.1025   22.3372  -31.6256 H   0  0  0  0  0  0  0  0  0  0  0  0
   -8.2040   24.5750  -30.5360 H   0  0  0  0  0  0  0  0  0  0  0  0
   -6.1033   25.8073  -30.0027 H   0  0  0  0  0  0  0  0  0  0  0  0
   -0.7604   23.2409  -30.9389 H   0  0  0  0  0  0  0  0  0  0  0  0
   -0.1032   20.8578  -30.6978 H   0  0  0  0  0  0  0  0  0  0  0  0
   -1.1603   19.4358  -28.9547 H   0  0  0  0  0  0  0  0  0  0  0  0
   -2.8216   20.4761  -26.1755 H   0  0  0  0  0  0  0  0  0  0  0  0
   -4.1660   20.0929  -27.3035 H   0  0  0  0  0  0  0  0  0  0  0  0
   -2.6787   19.0855  -27.3035 H   0  0  0  0  0  0  0  0  0  0  0  0
   -3.7530   22.7923  -26.4695 H   0  0  0  0  0  0  0  0  0  0  0  0
   -4.1304   23.9889  -27.7549 H   0  0  0  0  0  0  0  0  0  0  0  0
   -4.9400   22.3855  -27.7549 H   0  0  0  0  0  0  0  0  0  0  0  0
   -3.7764   22.5065  -31.5555 H   0  0  0  0  0  0  0  0  0  0  0  0
   -7.7912   17.3943  -32.4173 H   0  0  0  0  0  0  0  0  0  0  0  0
  1  2  1  0
  2  3  2  0
  3  4  1  0
  4  5  2  0
  5  6  1  0
  6  7  1  0
  7  8  1  0
  8  9  2  0
  9 10  1  0
 10 11  2  0
 11 12  1  0
 12 13  1  0
 13 14  1  0
 14 15  2  0
 14 16  1  0
 16 17  2  0
 17 18  1  0
 18 19  2  0
 19 20  1  0
 20 21  1  0
 20 22  2  0
 22 23  1  0
 12 24  2  0
  7 25  2  0
 25 26  1  0
 26 27  2  0
 27  2  1  0
 26  5  1  0
 24  8  1  0
 22 16  1  0
  1 28  1  0
  1 29  1  0
  1 30  1  0
  3 31  1  0
  4 32  1  0
  6 33  1  0
  9 34  1  0
 10 35  1  0
 11 36  1  0
 17 37  1  0
 18 38  1  0
 19 39  1  0
 21 40  1  0
 21 41  1  0
 21 42  1  0
 23 43  1  0
 23 44  1  0
 23 45  1  0
 24 46  1  0
 27 47  1  0
M  CHG  1  13  -1
M  END
>  <UniqueID>  (40) 
38

>  <SMILES>  (40) 
Cc1ccc2[nH]c(-c3cccc([N-]C(=O)c4cccc(C)c4C)c3)nc2c1

>  <Energy>  (40) 
98.15481694817163

>  <Genealogy>  (40) 
Cc1ccc2[nH]c(-c3cccc([N-]C(=O)c4cccc(C)c4C)c3)nc2c1 (protonated)
Cc1ccc2[nH]c(-c3cccc([N-]C(=O)c4cccc(C)c4C)c3)nc2c1 (3D coordinates assigned)
Cc1ccc2[nH]c(-c3cccc([N-]C(=O)c4cccc(C)c4C)c3)nc2c1 (optimized conformer: 98.15481694817163 kcal/mol)

>  <smiles>  (40) 
Cc1ccc2[nH]c(-c3cccc(NC(=O)c4cccc(C)c4C)c3)nc2c1

>  <score_type>  (40) 
oracle

>  <origin>  (40) 
adgpu

>  <m_score__min__energy>  (40) 
-11.42

>  <m_primary>  (40) 
energy

$$$$
40:0
     RDKit          3D

 46 48  0  0  0  0  0  0  0  0999 V2000
   -2.7690   20.6850  -27.3220 C   0  0  0  0  0  0  0  0  0  0  0  0
   -2.4380   22.0360  -27.8850 C   0  0  0  0  0  0  0  0  0  0  0  0
   -1.3430   22.7550  -27.3910 C   0  0  0  0  0  0  0  0  0  0  0  0
   -1.0560   24.0260  -27.8870 C   0  0  0  0  0  0  0  0  0  0  0  0
   -1.8650   24.6040  -28.8700 C   0  0  0  0  0  0  0  0  0  0  0  0
   -1.5400   25.8730  -29.3360 O   0  0  0  0  0  0  0  0  0  0  0  0
   -2.9860   23.9020  -29.3720 C   0  0  0  0  0  0  0  0  0  0  0  0
   -3.8770   24.4880  -30.4110 C   0  0  0  0  0  0  0  0  0  0  0  0
   -4.3130   25.6630  -30.2850 O   0  0  0  0  0  0  0  0  0  0  0  0
   -4.1970   23.7310  -31.5870 N   0  0  0  0  0  0  0  0  0  0  0  0
   -4.8710   22.4640  -31.6300 C   0  0  0  0  0  0  0  0  0  0  0  0
   -4.1800   21.2460  -31.4910 C   0  0  0  0  0  0  0  0  0  0  0  0
   -4.8720   20.0330  -31.5630 C   0  0  0  0  0  0  0  0  0  0  0  0
   -6.2550   20.0210  -31.7860 C   0  0  0  0  0  0  0  0  0  0  0  0
   -7.1340   18.4970  -31.8770 S   0  0  0  0  0  0  0  0  0  0  0  0
   -8.5670   18.7160  -31.4750 O   0  0  0  0  0  0  0  0  0  0  0  0
   -6.4980   17.5220  -30.9270 O   0  0  0  0  0  0  0  0  0  0  0  0
   -7.0610   17.8840  -33.5150 N   0  0  0  0  0  0  0  0  0  0  0  0
   -6.8660   16.4110  -33.5490 C   0  0  0  0  0  0  0  0  0  0  0  0
   -5.5600   15.9670  -34.2290 C   0  0  0  0  0  0  0  0  0  0  0  0
   -4.3930   16.8340  -33.7620 C   0  0  0  0  0  0  0  0  0  0  0  0
   -4.6400   18.3280  -34.0340 C   0  0  0  0  0  0  0  0  0  0  0  0
   -6.1140   18.6520  -34.3480 C   0  0  0  0  0  0  0  0  0  0  0  0
   -6.9380   21.2310  -31.9540 C   0  0  0  0  0  0  0  0  0  0  0  0
   -6.2480   22.4440  -31.8830 C   0  0  0  0  0  0  0  0  0  0  0  0
   -3.2630   22.6180  -28.8600 C   0  0  0  0  0  0  0  0  0  0  0  0
   -2.7573   20.7328  -26.2231 H   0  0  0  0  0  0  0  0  0  0  0  0
   -3.7685   20.3796  -27.6651 H   0  0  0  0  0  0  0  0  0  0  0  0
   -2.0238   19.9522  -27.6651 H   0  0  0  0  0  0  0  0  0  0  0  0
   -0.7068   22.3155  -26.6087 H   0  0  0  0  0  0  0  0  0  0  0  0
   -0.1862   24.5784  -27.5019 H   0  0  0  0  0  0  0  0  0  0  0  0
   -3.0926   21.2481  -31.3253 H   0  0  0  0  0  0  0  0  0  0  0  0
   -4.3281   19.0843  -31.4440 H   0  0  0  0  0  0  0  0  0  0  0  0
   -6.8604   16.0391  -32.5138 H   0  0  0  0  0  0  0  0  0  0  0  0
   -7.6917   15.9950  -34.1449 H   0  0  0  0  0  0  0  0  0  0  0  0
   -5.3566   14.9170  -33.9718 H   0  0  0  0  0  0  0  0  0  0  0  0
   -5.6708   16.0758  -35.3180 H   0  0  0  0  0  0  0  0  0  0  0  0
   -4.2528   16.6883  -32.6807 H   0  0  0  0  0  0  0  0  0  0  0  0
   -3.4976   16.5298  -34.3239 H   0  0  0  0  0  0  0  0  0  0  0  0
   -4.3381   18.9000  -33.1443 H   0  0  0  0  0  0  0  0  0  0  0  0
   -4.0490   18.6011  -34.9207 H   0  0  0  0  0  0  0  0  0  0  0  0
   -6.2826   19.7248  -34.1728 H   0  0  0  0  0  0  0  0  0  0  0  0
   -6.2968   18.3749  -35.3967 H   0  0  0  0  0  0  0  0  0  0  0  0
   -8.0217   21.2271  -32.1426 H   0  0  0  0  0  0  0  0  0  0  0  0
   -6.7905   23.3900  -32.0269 H   0  0  0  0  0  0  0  0  0  0  0  0
   -4.1384   22.0642  -29.2300 H   0  0  0  0  0  0  0  0  0  0  0  0
  1  2  1  0
  2  3  2  0
  3  4  1  0
  4  5  2  0
  5  6  1  0
  5  7  1  0
  7  8  1  0
  8  9  2  0
  8 10  1  0
 10 11  1  0
 11 12  2  0
 12 13  1  0
 13 14  2  0
 14 15  1  0
 15 16  2  0
 15 17  2  0
 15 18  1  0
 18 19  1  0
 19 20  1  0
 20 21  1  0
 21 22  1  0
 22 23  1  0
 14 24  1  0
 24 25  2  0
  7 26  2  0
 26  2  1  0
 25 11  1  0
 23 18  1  0
  1 27  1  0
  1 28  1  0
  1 29  1  0
  3 30  1  0
  4 31  1  0
 12 32  1  0
 13 33  1  0
 19 34  1  0
 19 35  1  0
 20 36  1  0
 20 37  1  0
 21 38  1  0
 21 39  1  0
 22 40  1  0
 22 41  1  0
 23 42  1  0
 23 43  1  0
 24 44  1  0
 25 45  1  0
 26 46  1  0
M  CHG  2   6  -1  10  -1
M  END
>  <UniqueID>  (41) 
39

>  <SMILES>  (41) 
Cc1ccc([O-])c(C(=O)[N-]c2ccc(S(=O)(=O)N3CCCCC3)cc2)c1

>  <Energy>  (41) 
59.676860196442206

>  <Genealogy>  (41) 
Cc1ccc([O-])c(C(=O)[N-]c2ccc(S(=O)(=O)N3CCCCC3)cc2)c1 (protonated)
Cc1ccc([O-])c(C(=O)[N-]c2ccc(S(=O)(=O)N3CCCCC3)cc2)c1 (3D coordinates assigned)
Cc1ccc([O-])c(C(=O)[N-]c2ccc(S(=O)(=O)N3CCCCC3)cc2)c1 (nonaromatic ring conformer: 59.676860196442206 kcal/mol)

>  <smiles>  (41) 
Cc1ccc(O)c(C(=O)Nc2ccc(S(=O)(=O)N3CCCCC3)cc2)c1

>  <score_type>  (41) 
oracle

>  <origin>  (41) 
adgpu

>  <m_score__min__energy>  (41) 
-13.119999999999999

>  <m_primary>  (41) 
energy

$$$$
41:0
     RDKit          3D

 41 43  0  0  0  0  0  0  0  0999 V2000
   -8.2040   21.3010  -30.3710 H   0  0  0  0  0  0  0  0  0  0  0  0
   -8.3050   22.2880  -30.5760 O   0  0  0  0  0  0  0  0  0  0  0  0
   -7.2010   23.1370  -30.6520 C   0  0  0  0  0  0  0  0  0  0  0  0
   -7.0370   24.1590  -29.7060 C   0  0  0  0  0  0  0  0  0  0  0  0
   -7.7860   24.2952  -28.9120 H   0  0  0  0  0  0  0  0  0  0  0  0
   -5.9270   25.0050  -29.7670 C   0  0  0  0  0  0  0  0  0  0  0  0
   -5.8060   25.8076  -29.0246 H   0  0  0  0  0  0  0  0  0  0  0  0
   -4.9700   24.8320  -30.7710 C   0  0  0  0  0  0  0  0  0  0  0  0
   -3.8620   25.6690  -30.8260 O   0  0  0  0  0  0  0  0  0  0  0  0
   -5.1260   23.8160  -31.7190 C   0  0  0  0  0  0  0  0  0  0  0  0
   -4.3667   23.6783  -32.5029 H   0  0  0  0  0  0  0  0  0  0  0  0
   -6.2470   22.9700  -31.6760 C   0  0  0  0  0  0  0  0  0  0  0  0
   -6.3840   21.8580  -32.6830 C   0  0  0  0  0  0  0  0  0  0  0  0
   -6.8819   22.2419  -33.5856 H   0  0  0  0  0  0  0  0  0  0  0  0
   -6.9828   21.0448  -32.2470 H   0  0  0  0  0  0  0  0  0  0  0  0
   -5.0600   21.3460  -33.0390 N   0  0  0  0  0  0  0  0  0  0  0  0
   -4.9990   20.7830  -33.9180 H   0  0  0  0  0  0  0  0  0  0  0  0
   -3.9500   21.2840  -32.1260 C   0  0  0  0  0  0  0  0  0  0  0  0
   -2.6340   21.5720  -32.5380 C   0  0  0  0  0  0  0  0  0  0  0  0
   -2.4397   21.8702  -33.5788 H   0  0  0  0  0  0  0  0  0  0  0  0
   -1.5740   21.4810  -31.6320 C   0  0  0  0  0  0  0  0  0  0  0  0
   -0.5516   21.7206  -31.9594 H   0  0  0  0  0  0  0  0  0  0  0  0
   -1.8080   21.0860  -30.3090 C   0  0  0  0  0  0  0  0  0  0  0  0
   -0.4640   20.9570  -29.1780 S   0  0  0  0  0  0  0  0  0  0  0  0
    0.6220   20.0830  -29.7420 O   0  0  0  0  0  0  0  0  0  0  0  0
   -0.9640   20.3500  -27.9000 O   0  0  0  0  0  0  0  0  0  0  0  0
    0.1910   22.5320  -28.8390 N   0  0  0  0  0  0  0  0  0  0  0  0
   -0.4500   23.5460  -28.3350 C   0  0  0  0  0  0  0  0  0  0  0  0
    0.2340   24.7050  -28.1280 N   0  0  0  0  0  0  0  0  0  0  0  0
   -0.3550   25.8120  -27.6000 C   0  0  0  0  0  0  0  0  0  0  0  0
    0.2332   26.7295  -27.4507 H   0  0  0  0  0  0  0  0  0  0  0  0
   -1.7040   25.7840  -27.2480 C   0  0  0  0  0  0  0  0  0  0  0  0
   -2.1851   26.6749  -26.8180 H   0  0  0  0  0  0  0  0  0  0  0  0
   -2.4360   24.6150  -27.4470 C   0  0  0  0  0  0  0  0  0  0  0  0
   -3.5012   24.5799  -27.1748 H   0  0  0  0  0  0  0  0  0  0  0  0
   -1.8170   23.4880  -27.9920 C   0  0  0  0  0  0  0  0  0  0  0  0
   -2.3905   22.5631  -28.1524 H   0  0  0  0  0  0  0  0  0  0  0  0
   -3.1110   20.7850  -29.8970 C   0  0  0  0  0  0  0  0  0  0  0  0
   -3.3006   20.4761  -28.8584 H   0  0  0  0  0  0  0  0  0  0  0  0
   -4.1730   20.8760  -30.8030 C   0  0  0  0  0  0  0  0  0  0  0  0
   -5.1924   20.6252  -30.4746 H   0  0  0  0  0  0  0  0  0  0  0  0
  1  2  1  0
  2  3  1  0
  3  4  2  0
  4  5  1  0
  4  6  1  0
  6  7  1  0
  6  8  2  0
  8  9  1  0
  8 10  1  0
 10 11  1  0
 10 12  2  0
 12 13  1  0
 13 14  1  0
 13 15  1  0
 13 16  1  0
 16 17  1  0
 16 18  1  0
 18 19  2  0
 19 20  1  0
 19 21  1  0
 21 22  1  0
 21 23  2  0
 23 24  1  0
 24 25  2  0
 24 26  2  0
 24 27  1  0
 27 28  2  0
 28 29  1  0
 29 30  1  0
 30 31  1  0
 30 32  2  0
 32 33  1  0
 32 34  1  0
 34 35  1  0
 34 36  2  0
 36 37  1  0
 23 38  1  0
 38 39  1  0
 38 40  2  0
 40 41  1  0
 12  3  1  0
 40 18  1  0
 36 28  1  0
M  CHG  2   9  -1  29  -1
M  END
>  <UniqueID>  (42) 
40

>  <SMILES>  (42) 
O=S(=O)(/N=c1\cccc[n-]1)c1ccc(NCc2cc([O-])ccc2O)cc1

>  <Energy>  (42) 
51.71905316733818

>  <Genealogy>  (42) 
O=S(=O)(N=c1cccc[n-]1)c1ccc(NCc2cc([O-])ccc2O)cc1 (protonated)
O=S(=O)(/N=c1\cccc[n-]1)c1ccc(NCc2cc([O-])ccc2O)cc1 (cis-trans isomerization)
O=S(=O)(/N=c1\cccc[n-]1)c1ccc(NCc2cc([O-])ccc2O)cc1 (3D coordinates assigned)
O=S(=O)(/N=c1\cccc[n-]1)c1ccc(NCc2cc([O-])ccc2O)cc1 (optimized conformer: 51.71905316733818 kcal/mol)

>  <smiles>  (42) 
O=S(=O)(N=c1cccc[nH]1)c1ccc(NCc2cc(O)ccc2O)cc1

>  <score_type>  (42) 
oracle

>  <origin>  (42) 
adgpu

>  <m_score__min__energy>  (42) 
-11.27

>  <m_primary>  (42) 
energy

$$$$
42:0
     RDKit          3D

 34 36  0  0  0  0  0  0  0  0999 V2000
   -5.2040   18.5750  -34.2110 C   0  0  0  0  0  0  0  0  0  0  0  0
   -5.9090   19.6870  -33.5110 C   0  0  0  0  0  0  0  0  0  0  0  0
   -5.2820   20.7300  -32.9360 N   0  0  0  0  0  0  0  0  0  0  0  0
   -6.3270   21.4210  -32.4290 C   0  0  0  0  0  0  0  0  0  0  0  0
   -6.1880   22.6850  -31.6730 C   0  0  0  0  0  0  0  0  0  0  0  0
   -7.3210   23.3320  -31.1530 C   0  0  0  0  0  0  0  0  0  0  0  0
   -7.1850   24.5210  -30.4330 C   0  0  0  0  0  0  0  0  0  0  0  0
   -5.9200   25.0740  -30.2210 C   0  0  0  0  0  0  0  0  0  0  0  0
   -4.7780   24.4430  -30.7280 C   0  0  0  0  0  0  0  0  0  0  0  0
   -3.4970   25.0370  -30.4730 N   0  0  0  0  0  0  0  0  0  0  0  0
   -2.3970   24.5400  -29.2290 S   0  0  0  0  0  0  0  0  0  0  0  0
   -1.1710   25.4090  -29.2830 O   0  0  0  0  0  0  0  0  0  0  0  0
   -3.0570   24.7090  -27.8900 O   0  0  0  0  0  0  0  0  0  0  0  0
   -1.9680   22.8460  -29.4440 C   0  0  0  0  0  0  0  0  0  0  0  0
   -1.6550   22.3610  -30.7220 C   0  0  0  0  0  0  0  0  0  0  0  0
   -1.2900   21.0220  -30.8960 C   0  0  0  0  0  0  0  0  0  0  0  0
   -1.2390   20.1620  -29.7950 C   0  0  0  0  0  0  0  0  0  0  0  0
   -1.5550   20.6400  -28.5200 C   0  0  0  0  0  0  0  0  0  0  0  0
   -1.9200   21.9780  -28.3430 C   0  0  0  0  0  0  0  0  0  0  0  0
   -4.9180   23.2510  -31.4630 C   0  0  0  0  0  0  0  0  0  0  0  0
   -7.5080   20.8210  -32.6800 N   0  0  0  0  0  0  0  0  0  0  0  0
   -7.2070   19.7510  -33.3500 O   0  0  0  0  0  0  0  0  0  0  0  0
   -4.7700   17.8904  -33.4674 H   0  0  0  0  0  0  0  0  0  0  0  0
   -5.9195   18.0262  -34.8410 H   0  0  0  0  0  0  0  0  0  0  0  0
   -4.4024   18.9881  -34.8410 H   0  0  0  0  0  0  0  0  0  0  0  0
   -8.3199   22.9003  -31.3135 H   0  0  0  0  0  0  0  0  0  0  0  0
   -8.0772   25.0237  -30.0315 H   0  0  0  0  0  0  0  0  0  0  0  0
   -5.8207   26.0105  -29.6525 H   0  0  0  0  0  0  0  0  0  0  0  0
   -1.6966   23.0354  -31.5900 H   0  0  0  0  0  0  0  0  0  0  0  0
   -1.0430   20.6455  -31.8996 H   0  0  0  0  0  0  0  0  0  0  0  0
   -0.9503   19.1094  -29.9320 H   0  0  0  0  0  0  0  0  0  0  0  0
   -1.5164   19.9623  -27.6544 H   0  0  0  0  0  0  0  0  0  0  0  0
   -2.1700   22.3507  -27.3387 H   0  0  0  0  0  0  0  0  0  0  0  0
   -4.0261   22.7578  -31.8768 H   0  0  0  0  0  0  0  0  0  0  0  0
  1  2  1  0
  2  3  2  0
  3  4  1  0
  4  5  1  0
  5  6  2  0
  6  7  1  0
  7  8  2  0
  8  9  1  0
  9 10  1  0
 10 11  1  0
 11 12  2  0
 11 13  2  0
 11 14  1  0
 14 15  2  0
 15 16  1  0
 16 17  2  0
 17 18  1  0
 18 19  2  0
  9 20  2  0
  4 21  2  0
 21 22  1  0
 22  2  1  0
 20  5  1  0
 19 14  1  0
  1 23  1  0
  1 24  1  0
  1 25  1  0
  6 26  1  0
  7 27  1  0
  8 28  1  0
 15 29  1  0
 16 30  1  0
 17 31  1  0
 18 32  1  0
 19 33  1  0
 20 34  1  0
M  CHG  1  10  -1
M  END
>  <UniqueID>  (43) 
41

>  <SMILES>  (43) 
Cc1nc(-c2cccc([N-]S(=O)(=O)c3ccccc3)c2)no1

>  <Energy>  (43) 
71.02785271773136

>  <Genealogy>  (43) 
Cc1nc(-c2cccc([N-]S(=O)(=O)c3ccccc3)c2)no1 (protonated)
Cc1nc(-c2cccc([N-]S(=O)(=O)c3ccccc3)c2)no1 (3D coordinates assigned)
Cc1nc(-c2cccc([N-]S(=O)(=O)c3ccccc3)c2)no1 (optimized conformer: 71.02785271773136 kcal/mol)

>  <smiles>  (43) 
Cc1nc(-c2cccc(NS(=O)(=O)c3ccccc3)c2)no1

>  <score_type>  (43) 
oracle

>  <origin>  (43) 
adgpu

>  <m_score__min__energy>  (43) 
-9.4399999999999995

>  <m_primary>  (43) 
energy

$$$$
43:0
     RDKit          3D

 36 38  0  0  0  0  0  0  0  0999 V2000
   -5.2900   17.5130  -34.9710 C   0  0  0  0  0  0  0  0  0  0  0  0
   -5.2160   18.7420  -34.1290 C   0  0  0  0  0  0  0  0  0  0  0  0
   -6.2580   19.2990  -33.4170 C   0  0  0  0  0  0  0  0  0  0  0  0
   -5.6680   20.3620  -32.7570 C   0  0  0  0  0  0  0  0  0  0  0  0
   -6.3160   21.3280  -31.8430 C   0  0  0  0  0  0  0  0  0  0  0  0
   -7.6140   21.0700  -31.3680 C   0  0  0  0  0  0  0  0  0  0  0  0
   -8.2440   21.9700  -30.5050 C   0  0  0  0  0  0  0  0  0  0  0  0
   -7.5890   23.1350  -30.1070 C   0  0  0  0  0  0  0  0  0  0  0  0
   -6.2980   23.4110  -30.5720 C   0  0  0  0  0  0  0  0  0  0  0  0
   -5.4890   24.8950  -30.0770 S   0  0  0  0  0  0  0  0  0  0  0  0
   -6.4890   25.9380  -29.6620 O   0  0  0  0  0  0  0  0  0  0  0  0
   -4.6910   25.4170  -31.2370 O   0  0  0  0  0  0  0  0  0  0  0  0
   -4.4230   24.5710  -28.7470 N   0  0  0  0  0  0  0  0  0  0  0  0
   -3.2570   23.7300  -28.8420 C   0  0  0  0  0  0  0  0  0  0  0  0
   -3.3360   22.3370  -28.6380 C   0  0  0  0  0  0  0  0  0  0  0  0
   -2.1930   21.5390  -28.7390 C   0  0  0  0  0  0  0  0  0  0  0  0
   -0.9580   22.1180  -29.0370 C   0  0  0  0  0  0  0  0  0  0  0  0
   -0.8640   23.4970  -29.2340 C   0  0  0  0  0  0  0  0  0  0  0  0
   -2.0040   24.3030  -29.1370 C   0  0  0  0  0  0  0  0  0  0  0  0
   -1.8820   25.6730  -29.3410 O   0  0  0  0  0  0  0  0  0  0  0  0
   -5.6620   22.5060  -31.4350 C   0  0  0  0  0  0  0  0  0  0  0  0
   -4.3900   20.3880  -33.0700 O   0  0  0  0  0  0  0  0  0  0  0  0
   -4.0810   19.4240  -33.8870 N   0  0  0  0  0  0  0  0  0  0  0  0
   -5.3434   16.6265  -34.3219 H   0  0  0  0  0  0  0  0  0  0  0  0
   -6.1871   17.5571  -35.6060 H   0  0  0  0  0  0  0  0  0  0  0  0
   -4.3941   17.4491  -35.6060 H   0  0  0  0  0  0  0  0  0  0  0  0
   -7.3086   18.9749  -33.3823 H   0  0  0  0  0  0  0  0  0  0  0  0
   -8.1370   20.1533  -31.6780 H   0  0  0  0  0  0  0  0  0  0  0  0
   -9.2595   21.7591  -30.1384 H   0  0  0  0  0  0  0  0  0  0  0  0
   -8.0885   23.8393  -29.4255 H   0  0  0  0  0  0  0  0  0  0  0  0
   -4.6110   25.0920  -27.8610 H   0  0  0  0  0  0  0  0  0  0  0  0
   -4.3048   21.8748  -28.3975 H   0  0  0  0  0  0  0  0  0  0  0  0
   -2.2666   20.4526  -28.5834 H   0  0  0  0  0  0  0  0  0  0  0  0
   -0.0597   21.4882  -29.1165 H   0  0  0  0  0  0  0  0  0  0  0  0
    0.1102   23.9519  -29.4664 H   0  0  0  0  0  0  0  0  0  0  0  0
   -4.6447   22.7185  -31.7955 H   0  0  0  0  0  0  0  0  0  0  0  0
  1  2  1  0
  2  3  1  0
  3  4  2  0
  4  5  1  0
  5  6  2  0
  6  7  1  0
  7  8  2  0
  8  9  1  0
  9 10  1  0
 10 11  2  0
 10 12  2  0
 10 13  1  0
 13 14  1  0
 14 15  2  0
 15 16  1  0
 16 17  2  0
 17 18  1  0
 18 19  2  0
 19 20  1  0
  9 21  2  0
  4 22  1  0
 22 23  1  0
 23  2  2  0
 21  5  1  0
 19 14  1  0
  1 24  1  0
  1 25  1  0
  1 26  1  0
  3 27  1  0
  6 28  1  0
  7 29  1  0
  8 30  1  0
 13 31  1  0
 15 32  1  0
 16 33  1  0
 17 34  1  0
 18 35  1  0
 21 36  1  0
M  CHG  1  20  -1
M  END
>  <UniqueID>  (44) 
42

>  <SMILES>  (44) 
Cc1cc(-c2cccc(S(=O)(=O)Nc3ccccc3[O-])c2)on1

>  <Energy>  (44) 
71.73981468266955

>  <Genealogy>  (44) 
Cc1cc(-c2cccc(S(=O)(=O)Nc3ccccc3[O-])c2)on1 (protonated)
Cc1cc(-c2cccc(S(=O)(=O)Nc3ccccc3[O-])c2)on1 (3D coordinates assigned)
Cc1cc(-c2cccc(S(=O)(=O)Nc3ccccc3[O-])c2)on1 (optimized conformer: 71.73981468266955 kcal/mol)

>  <smiles>  (44) 
Cc1cc(-c2cccc(S(=O)(=O)Nc3ccccc3O)c2)on1

>  <score_type>  (44) 
oracle

>  <origin>  (44) 
adgpu

>  <m_score__min__energy>  (44) 
-12.550000000000001

>  <m_primary>  (44) 
energy

$$$$
44:0
     RDKit          3D

 52 55  0  0  0  0  0  0  0  0999 V2000
   -6.8960   17.9020  -31.0740 O   0  0  0  0  0  0  0  0  0  0  0  0
   -6.7810   18.7170  -32.3330 S   0  0  0  0  0  0  0  0  0  0  0  0
   -7.3120   17.9110  -33.4840 O   0  0  0  0  0  0  0  0  0  0  0  0
   -7.7270   20.1610  -32.1630 N   0  0  0  0  0  0  0  0  0  0  0  0
   -7.2160   21.4410  -31.7670 C   0  0  0  0  0  0  0  0  0  0  0  0
   -7.5960   21.9580  -30.5230 C   0  0  0  0  0  0  0  0  0  0  0  0
   -7.1310   23.2070  -30.1010 C   0  0  0  0  0  0  0  0  0  0  0  0
   -6.2710   23.9570  -30.9180 C   0  0  0  0  0  0  0  0  0  0  0  0
   -5.7880   25.3140  -30.4760 C   0  0  0  0  0  0  0  0  0  0  0  0
   -4.3250   25.3640  -30.4280 N   0  0  0  0  0  0  0  0  0  0  0  0
   -3.5410   24.7430  -29.5910 C   0  0  0  0  0  0  0  0  0  0  0  0
   -4.0320   23.9130  -28.5620 C   0  0  0  0  0  0  0  0  0  0  0  0
   -3.1340   23.2720  -27.7100 C   0  0  0  0  0  0  0  0  0  0  0  0
   -1.7580   23.4510  -27.8770 C   0  0  0  0  0  0  0  0  0  0  0  0
   -0.6090   22.6640  -26.8020 S   0  0  0  0  0  0  0  0  0  0  0  0
   -0.9370   23.0010  -25.3740 O   0  0  0  0  0  0  0  0  0  0  0  0
    0.7840   23.1500  -27.0880 O   0  0  0  0  0  0  0  0  0  0  0  0
   -0.6950   20.9220  -27.0430 C   0  0  0  0  0  0  0  0  0  0  0  0
   -1.7580   20.1870  -26.4950 C   0  0  0  0  0  0  0  0  0  0  0  0
   -1.8420   18.8090  -26.7110 C   0  0  0  0  0  0  0  0  0  0  0  0
   -0.8710   18.1590  -27.4780 C   0  0  0  0  0  0  0  0  0  0  0  0
    0.1860   18.8880  -28.0310 C   0  0  0  0  0  0  0  0  0  0  0  0
    0.2730   20.2670  -27.8170 C   0  0  0  0  0  0  0  0  0  0  0  0
   -1.3060   24.2900  -28.8990 C   0  0  0  0  0  0  0  0  0  0  0  0
   -2.1970   24.9070  -29.7200 N   0  0  0  0  0  0  0  0  0  0  0  0
   -5.8930   23.4410  -32.1670 C   0  0  0  0  0  0  0  0  0  0  0  0
   -6.3530   22.1900  -32.5860 C   0  0  0  0  0  0  0  0  0  0  0  0
   -5.1020   19.1380  -32.6600 C   0  0  0  0  0  0  0  0  0  0  0  0
   -4.3730   19.8730  -31.7130 C   0  0  0  0  0  0  0  0  0  0  0  0
   -3.0290   20.1800  -31.9470 C   0  0  0  0  0  0  0  0  0  0  0  0
   -2.4080   19.7590  -33.1290 C   0  0  0  0  0  0  0  0  0  0  0  0
   -0.7180   20.1330  -33.4180 Cl  0  0  0  0  0  0  0  0  0  0  0  0
   -3.1350   19.0300  -34.0780 C   0  0  0  0  0  0  0  0  0  0  0  0
   -4.4790   18.7210  -33.8450 C   0  0  0  0  0  0  0  0  0  0  0  0
   -8.2659   21.3769  -29.8722 H   0  0  0  0  0  0  0  0  0  0  0  0
   -7.4409   23.6042  -29.1231 H   0  0  0  0  0  0  0  0  0  0  0  0
   -6.1502   26.0727  -31.1854 H   0  0  0  0  0  0  0  0  0  0  0  0
   -6.1773   25.5112  -29.4662 H   0  0  0  0  0  0  0  0  0  0  0  0
   -5.1153   23.7725  -28.4327 H   0  0  0  0  0  0  0  0  0  0  0  0
   -3.5092   22.6238  -26.9044 H   0  0  0  0  0  0  0  0  0  0  0  0
   -2.5260   20.6966  -25.8946 H   0  0  0  0  0  0  0  0  0  0  0  0
   -2.6737   18.2348  -26.2767 H   0  0  0  0  0  0  0  0  0  0  0  0
   -0.9385   17.0741  -27.6465 H   0  0  0  0  0  0  0  0  0  0  0  0
    0.9498   18.3763  -28.6349 H   0  0  0  0  0  0  0  0  0  0  0  0
    1.1030   20.8393  -28.2570 H   0  0  0  0  0  0  0  0  0  0  0  0
   -0.2271   24.4516  -29.0396 H   0  0  0  0  0  0  0  0  0  0  0  0
   -5.2296   24.0258  -32.8211 H   0  0  0  0  0  0  0  0  0  0  0  0
   -6.0385   21.7894  -33.5610 H   0  0  0  0  0  0  0  0  0  0  0  0
   -4.8594   20.2082  -30.7851 H   0  0  0  0  0  0  0  0  0  0  0  0
   -2.4588   20.7532  -31.2012 H   0  0  0  0  0  0  0  0  0  0  0  0
   -2.6486   18.7000  -35.0078 H   0  0  0  0  0  0  0  0  0  0  0  0
   -5.0485   18.1497  -34.5929 H   0  0  0  0  0  0  0  0  0  0  0  0
  1  2  2  0
  2  3  2  0
  2  4  1  0
  4  5  1  0
  5  6  2  0
  6  7  1  0
  7  8  2  0
  8  9  1  0
  9 10  1  0
 10 11  2  3
 11 12  1  0
 12 13  2  0
 13 14  1  0
 14 15  1  0
 15 16  2  0
 15 17  2  0
 15 18  1  0
 18 19  2  0
 19 20  1  0
 20 21  2  0
 21 22  1  0
 22 23  2  0
 14 24  2  0
 24 25  1  0
  8 26  1  0
 26 27  2  0
  2 28  1  0
 28 29  2  0
 29 30  1  0
 30 31  2  0
 31 32  1  0
 31 33  1  0
 33 34  2  0
 27  5  1  0
 34 28  1  0
 25 11  1  0
 23 18  1  0
  6 35  1  0
  7 36  1  0
  9 37  1  0
  9 38  1  0
 12 39  1  0
 13 40  1  0
 19 41  1  0
 20 42  1  0
 21 43  1  0
 22 44  1  0
 23 45  1  0
 24 46  1  0
 26 47  1  0
 27 48  1  0
 29 49  1  0
 30 50  1  0
 33 51  1  0
 34 52  1  0
M  CHG  2   4  -1  25  -1
M  END
>  <UniqueID>  (45) 
43

>  <SMILES>  (45) 
O=S(=O)([N-]c1ccc(CN=c2ccc(S(=O)(=O)c3ccccc3)c[n-]2)cc1)c1ccc(Cl)cc1

>  <Energy>  (45) 
64.20965883771669

>  <Genealogy>  (45) 
O=S(=O)([N-]c1ccc(CN=c2ccc(S(=O)(=O)c3ccccc3)c[n-]2)cc1)c1ccc(Cl)cc1 (protonated)
O=S(=O)([N-]c1ccc(CN=c2ccc(S(=O)(=O)c3ccccc3)c[n-]2)cc1)c1ccc(Cl)cc1 (3D coordinates assigned)
O=S(=O)([N-]c1ccc(CN=c2ccc(S(=O)(=O)c3ccccc3)c[n-]2)cc1)c1ccc(Cl)cc1 (optimized conformer: 64.20965883771669 kcal/mol)

>  <smiles>  (45) 
O=S(=O)(Nc1ccc(CN=c2ccc(S(=O)(=O)c3ccccc3)c[nH]2)cc1)c1ccc(Cl)cc1

>  <score_type>  (45) 
oracle

>  <origin>  (45) 
adgpu

>  <m_score__min__energy>  (45) 
-11.99

>  <m_primary>  (45) 
energy

$$$$
45:0
     RDKit          3D

 44 46  0  0  0  0  0  0  0  0999 V2000
   -2.8800   20.7930  -34.1470 N   0  0  0  0  0  0  0  0  0  0  0  0
   -3.0250   19.5470  -33.9470 C   0  0  0  0  0  0  0  0  0  0  0  0
   -4.2200   18.9990  -34.2900 N   0  0  0  0  0  0  0  0  0  0  0  0
   -4.4980   17.6870  -34.1280 C   0  0  0  0  0  0  0  0  0  0  0  0
   -6.1100   17.0340  -34.6100 S   0  0  0  0  0  0  0  0  0  0  0  0
   -7.1710   17.1370  -33.1580 C   0  0  0  0  0  0  0  0  0  0  0  0
   -6.9410   18.3670  -32.3540 C   0  0  0  0  0  0  0  0  0  0  0  0
   -7.1650   18.2940  -31.1280 O   0  0  0  0  0  0  0  0  0  0  0  0
   -6.4950   19.5420  -32.9680 N   0  0  0  0  0  0  0  0  0  0  0  0
   -6.2340   20.7790  -32.3510 C   0  0  0  0  0  0  0  0  0  0  0  0
   -7.1020   21.8360  -32.2690 C   0  0  0  0  0  0  0  0  0  0  0  0
   -6.7840   23.0380  -31.6430 C   0  0  0  0  0  0  0  0  0  0  0  0
   -5.5450   23.2090  -31.0640 C   0  0  0  0  0  0  0  0  0  0  0  0
   -5.1600   24.7220  -30.2800 S   0  0  0  0  0  0  0  0  0  0  0  0
   -4.9630   24.4400  -28.5890 N   0  0  0  0  0  0  0  0  0  0  0  0
   -3.8830   25.3120  -30.8400 O   0  0  0  0  0  0  0  0  0  0  0  0
   -6.2900   25.6740  -30.4730 O   0  0  0  0  0  0  0  0  0  0  0  0
   -4.6680   22.1570  -31.1390 C   0  0  0  0  0  0  0  0  0  0  0  0
   -4.9860   20.9770  -31.7570 C   0  0  0  0  0  0  0  0  0  0  0  0
   -3.5750   16.8480  -33.6040 N   0  0  0  0  0  0  0  0  0  0  0  0
   -2.3540   17.3350  -33.2370 C   0  0  0  0  0  0  0  0  0  0  0  0
   -1.4220   16.4780  -32.7050 C   0  0  0  0  0  0  0  0  0  0  0  0
   -0.2030   17.0150  -32.3500 C   0  0  0  0  0  0  0  0  0  0  0  0
    0.8120   16.0810  -31.7700 C   0  0  0  0  0  0  0  0  0  0  0  0
    0.3490   14.7870  -31.8740 F   0  0  0  0  0  0  0  0  0  0  0  0
    0.9490   16.4180  -30.4200 F   0  0  0  0  0  0  0  0  0  0  0  0
    2.0210   16.1910  -32.4420 F   0  0  0  0  0  0  0  0  0  0  0  0
    0.0880   18.3610  -32.5150 C   0  0  0  0  0  0  0  0  0  0  0  0
   -0.8680   19.1980  -33.0510 C   0  0  0  0  0  0  0  0  0  0  0  0
   -2.0870   18.6980  -33.4140 C   0  0  0  0  0  0  0  0  0  0  0  0
   -2.0550   21.3490  -33.9450 H   0  0  0  0  0  0  0  0  0  0  0  0
   -8.2199   17.1262  -33.4893 H   0  0  0  0  0  0  0  0  0  0  0  0
   -6.9332   16.2760  -32.5160 H   0  0  0  0  0  0  0  0  0  0  0  0
   -6.3390   19.4880  -34.0180 H   0  0  0  0  0  0  0  0  0  0  0  0
   -8.0995   21.7295  -32.7202 H   0  0  0  0  0  0  0  0  0  0  0  0
   -7.5226   23.8525  -31.6104 H   0  0  0  0  0  0  0  0  0  0  0  0
   -4.9090   25.3690  -28.1130 H   0  0  0  0  0  0  0  0  0  0  0  0
   -5.7490   23.8510  -28.1900 H   0  0  0  0  0  0  0  0  0  0  0  0
   -3.6716   22.2653  -30.6856 H   0  0  0  0  0  0  0  0  0  0  0  0
   -4.2419   20.1674  -31.7861 H   0  0  0  0  0  0  0  0  0  0  0  0
   -3.7980   15.8180  -33.4770 H   0  0  0  0  0  0  0  0  0  0  0  0
   -1.6390   15.4084  -32.5680 H   0  0  0  0  0  0  0  0  0  0  0  0
    1.0714   18.7569  -32.2213 H   0  0  0  0  0  0  0  0  0  0  0  0
   -0.6495   20.2676  -33.1863 H   0  0  0  0  0  0  0  0  0  0  0  0
  1  2  2  3
  2  3  1  0
  3  4  2  0
  4  5  1  0
  5  6  1  0
  6  7  1  0
  7  8  2  0
  7  9  1  0
  9 10  1  0
 10 11  2  0
 11 12  1  0
 12 13  2  0
 13 14  1  0
 14 15  1  0
 14 16  2  0
 14 17  2  0
 13 18  1  0
 18 19  2  0
  4 20  1  0
 20 21  1  0
 21 22  2  0
 22 23  1  0
 23 24  1  0
 24 25  1  0
 24 26  1  0
 24 27  1  0
 23 28  2  0
 28 29  1  0
 29 30  2  0
 30  2  1  0
 19 10  1  0
 30 21  1  0
  1 31  1  0
  6 32  1  0
  6 33  1  0
  9 34  1  0
 11 35  1  0
 12 36  1  0
 15 37  1  0
 15 38  1  0
 18 39  1  0
 19 40  1  0
 20 41  1  0
 22 42  1  0
 28 43  1  0
 29 44  1  0
M  END
>  <smiles>  (46) 
N=c1nc(SCC(=O)Nc2ccc(S(N)(=O)=O)cc2)[nH]c2cc(C(F)(F)F)ccc12

>  <score_type>  (46) 
oracle

>  <origin>  (46) 
adgpu

>  <m_score__min__energy>  (46) 
-9.7400000000000002

>  <m_primary>  (46) 
energy

$$$$
46:0
     RDKit          3D

 44 46  0  0  0  0  0  0  0  0999 V2000
   -0.1450   18.7620  -27.8260 C   0  0  0  0  0  0  0  0  0  0  0  0
   -0.0020   20.1600  -27.4330 N   0  0  0  0  0  0  0  0  0  0  0  0
   -1.4870   20.7260  -26.7300 S   0  0  0  0  0  0  0  0  0  0  0  0
   -2.4970   19.6110  -26.7260 O   0  0  0  0  0  0  0  0  0  0  0  0
   -1.2340   21.1540  -25.3130 O   0  0  0  0  0  0  0  0  0  0  0  0
   -2.0940   22.1030  -27.6440 C   0  0  0  0  0  0  0  0  0  0  0  0
   -3.4700   22.2870  -27.8430 C   0  0  0  0  0  0  0  0  0  0  0  0
   -3.9300   23.3490  -28.6280 C   0  0  0  0  0  0  0  0  0  0  0  0
   -3.0200   24.2180  -29.2420 C   0  0  0  0  0  0  0  0  0  0  0  0
   -3.5100   25.2550  -30.1020 N   0  0  0  0  0  0  0  0  0  0  0  0
   -4.7510   25.1970  -30.8190 C   0  0  0  0  0  0  0  0  0  0  0  0
   -5.6350   26.0600  -30.5870 O   0  0  0  0  0  0  0  0  0  0  0  0
   -5.0050   24.1790  -31.7960 N   0  0  0  0  0  0  0  0  0  0  0  0
   -5.9890   23.1420  -31.6620 C   0  0  0  0  0  0  0  0  0  0  0  0
   -7.1770   23.3590  -30.9430 C   0  0  0  0  0  0  0  0  0  0  0  0
   -8.1200   22.3360  -30.8130 C   0  0  0  0  0  0  0  0  0  0  0  0
   -7.8950   21.0980  -31.4170 C   0  0  0  0  0  0  0  0  0  0  0  0
   -6.7250   20.8770  -32.1460 C   0  0  0  0  0  0  0  0  0  0  0  0
   -5.7570   21.8920  -32.2600 C   0  0  0  0  0  0  0  0  0  0  0  0
   -4.5670   21.6880  -32.9750 O   0  0  0  0  0  0  0  0  0  0  0  0
   -3.3330   21.3290  -32.4100 C   0  0  0  0  0  0  0  0  0  0  0  0
   -2.1710   21.5000  -33.1720 C   0  0  0  0  0  0  0  0  0  0  0  0
   -0.9200   21.1730  -32.6390 C   0  0  0  0  0  0  0  0  0  0  0  0
   -0.8230   20.6840  -31.3330 C   0  0  0  0  0  0  0  0  0  0  0  0
   -1.9750   20.5260  -30.5580 C   0  0  0  0  0  0  0  0  0  0  0  0
   -3.2250   20.8510  -31.0910 C   0  0  0  0  0  0  0  0  0  0  0  0
   -1.6440   24.0570  -29.0060 C   0  0  0  0  0  0  0  0  0  0  0  0
   -1.1860   23.0040  -28.2120 C   0  0  0  0  0  0  0  0  0  0  0  0
   -0.2094   18.1329  -26.9260 H   0  0  0  0  0  0  0  0  0  0  0  0
   -1.0602   18.6410  -28.4241 H   0  0  0  0  0  0  0  0  0  0  0  0
    0.7268   18.4582  -28.4241 H   0  0  0  0  0  0  0  0  0  0  0  0
   -4.1889   21.5946  -27.3807 H   0  0  0  0  0  0  0  0  0  0  0  0
   -5.0108   23.5022  -28.7636 H   0  0  0  0  0  0  0  0  0  0  0  0
   -7.3654   24.3390  -30.4803 H   0  0  0  0  0  0  0  0  0  0  0  0
   -9.0399   22.5064  -30.2345 H   0  0  0  0  0  0  0  0  0  0  0  0
   -8.6406   20.2953  -31.3185 H   0  0  0  0  0  0  0  0  0  0  0  0
   -6.5591   19.9050  -32.6335 H   0  0  0  0  0  0  0  0  0  0  0  0
   -2.2424   21.8941  -34.1965 H   0  0  0  0  0  0  0  0  0  0  0  0
   -0.0125   21.3006  -33.2474 H   0  0  0  0  0  0  0  0  0  0  0  0
    0.1606   20.4235  -30.9152 H   0  0  0  0  0  0  0  0  0  0  0  0
   -1.8978   20.1459  -29.5287 H   0  0  0  0  0  0  0  0  0  0  0  0
   -4.1295   20.7326  -30.4762 H   0  0  0  0  0  0  0  0  0  0  0  0
   -0.9256   24.7629  -29.4483 H   0  0  0  0  0  0  0  0  0  0  0  0
   -0.1077   22.8820  -28.0322 H   0  0  0  0  0  0  0  0  0  0  0  0
  1  2  1  0
  2  3  1  0
  3  4  2  0
  3  5  2  0
  3  6  1  0
  6  7  2  0
  7  8  1  0
  8  9  2  0
  9 10  1  0
 10 11  1  0
 11 12  2  0
 11 13  1  0
 13 14  1  0
 14 15  2  0
 15 16  1  0
 16 17  2  0
 17 18  1  0
 18 19  2  0
 19 20  1  0
 20 21  1  0
 21 22  2  0
 22 23  1  0
 23 24  2  0
 24 25  1  0
 25 26  2  0
  9 27  1  0
 27 28  2  0
 28  6  1  0
 19 14  1  0
 26 21  1  0
  1 29  1  0
  1 30  1  0
  1 31  1  0
  7 32  1  0
  8 33  1  0
 15 34  1  0
 16 35  1  0
 17 36  1  0
 18 37  1  0
 22 38  1  0
 23 39  1  0
 24 40  1  0
 25 41  1  0
 26 42  1  0
 27 43  1  0
 28 44  1  0
M  CHG  3   2  -1  10  -1  13  -1
M  END
>  <UniqueID>  (47) 
44

>  <SMILES>  (47) 
C[N-]S(=O)(=O)c1ccc([N-]C(=O)[N-]c2ccccc2Oc2ccccc2)cc1

>  <Energy>  (47) 
55.105547719775196

>  <Genealogy>  (47) 
C[N-]S(=O)(=O)c1ccc([N-]C(=O)[N-]c2ccccc2Oc2ccccc2)cc1 (protonated)
C[N-]S(=O)(=O)c1ccc([N-]C(=O)[N-]c2ccccc2Oc2ccccc2)cc1 (3D coordinates assigned)
C[N-]S(=O)(=O)c1ccc([N-]C(=O)[N-]c2ccccc2Oc2ccccc2)cc1 (optimized conformer: 55.105547719775196 kcal/mol)

>  <smiles>  (47) 
CNS(=O)(=O)c1ccc(NC(=O)Nc2ccccc2Oc2ccccc2)cc1

>  <score_type>  (47) 
oracle

>  <origin>  (47) 
adgpu

>  <m_score__min__energy>  (47) 
-11.99

>  <m_primary>  (47) 
energy

$$$$
47:0
     RDKit          3D

 37 39  0  0  1  0  0  0  0  0999 V2000
   -6.2630   25.0740  -29.3350 N   0  0  0  0  0  0  0  0  0  0  0  0
   -6.2680   23.9930  -30.2700 C   0  0  0  0  0  0  0  0  0  0  0  0
   -7.2270   23.8580  -31.2510 C   0  0  0  0  0  0  0  0  0  0  0  0
   -7.2330   22.8100  -32.1590 C   0  0  0  0  0  0  0  0  0  0  0  0
   -6.2240   21.8580  -32.0680 C   0  0  0  0  0  0  0  0  0  0  0  0
   -5.2440   21.9770  -31.0820 C   0  0  0  0  0  0  0  0  0  0  0  0
   -5.2690   23.0240  -30.2020 C   0  0  0  0  0  0  0  0  0  0  0  0
   -4.2490   23.1050  -29.2120 N   0  0  0  0  0  0  0  0  0  0  0  0
   -3.3470   24.1900  -29.2940 C   0  0  0  0  0  0  0  0  0  0  0  0
   -3.5110   25.0080  -30.2340 O   0  0  0  0  0  0  0  0  0  0  0  0
   -2.2570   24.4280  -28.3770 C   0  0  0  0  0  0  0  0  0  0  0  0
   -2.2500   23.7250  -27.1870 C   0  0  0  0  0  0  0  0  0  0  0  0
   -1.2250   23.9050  -26.2520 C   0  0  0  0  0  0  0  0  0  0  0  0
   -0.2170   24.8030  -26.5400 C   0  0  0  0  0  0  0  0  0  0  0  0
    0.8090   24.9650  -25.5710 N   0  0  0  0  0  0  0  0  0  0  0  0
    0.8120   25.8630  -24.6580 C   0  0  0  0  0  0  0  0  0  0  0  0
    1.7290   26.1020  -23.6970 N   0  0  0  0  0  0  0  0  0  0  0  0
    1.3270   27.1260  -22.9750 N   0  0  0  0  0  0  0  0  0  0  0  0
    0.1570   27.5550  -23.4570 N   0  0  0  0  0  0  0  0  0  0  0  0
   -0.2040   26.7910  -24.5150 C   0  0  0  0  0  0  0  0  0  0  0  0
   -1.2580   26.9180  -25.2130 O   0  0  0  0  0  0  0  0  0  0  0  0
   -0.2050   25.5210  -27.7320 C   0  0  0  0  0  0  0  0  0  0  0  0
   -1.2360   25.3310  -28.6600 C   0  0  0  0  0  0  0  0  0  0  0  0
   -5.3990   25.6870  -29.3760 H   0  0  0  0  0  0  0  0  0  0  0  0
   -7.0300   25.2610  -28.6650 H   0  0  0  0  0  0  0  0  0  0  0  0
   -8.0225   24.6149  -31.3164 H   0  0  0  0  0  0  0  0  0  0  0  0
   -8.0142   22.7340  -32.9297 H   0  0  0  0  0  0  0  0  0  0  0  0
   -6.1983   21.0129  -32.7717 H   0  0  0  0  0  0  0  0  0  0  0  0
   -4.4456   21.2236  -31.0118 H   0  0  0  0  0  0  0  0  0  0  0  0
   -4.1420   22.4170  -28.4530 H   0  0  0  0  0  0  0  0  0  0  0  0
   -3.0615   23.0142  -26.9721 H   0  0  0  0  0  0  0  0  0  0  0  0
   -1.2224   23.3425  -25.3067 H   0  0  0  0  0  0  0  0  0  0  0  0
    2.6170   25.5430  -23.5670 H   0  0  0  0  0  0  0  0  0  0  0  0
    1.8490   27.5320  -22.1550 H   0  0  0  0  0  0  0  0  0  0  0  0
   -0.3560   28.3640  -23.0400 H   0  0  0  0  0  0  0  0  0  0  0  0
    0.6075   26.2317  -27.9433 H   0  0  0  0  0  0  0  0  0  0  0  0
   -1.2392   25.8915  -29.6065 H   0  0  0  0  0  0  0  0  0  0  0  0
  1  2  1  0
  2  3  2  0
  3  4  1  0
  4  5  2  0
  5  6  1  0
  6  7  2  0
  7  8  1  0
  8  9  1  0
  9 10  2  0
  9 11  1  0
 11 12  2  0
 12 13  1  0
 13 14  2  0
 14 15  1  0
 15 16  2  0
 16 17  1  0
 17 18  1  0
 18 19  1  0
 19 20  1  0
 20 21  2  0
 14 22  1  0
 22 23  2  0
  7  2  1  0
 23 11  1  0
 20 16  1  0
  1 24  1  0
  1 25  1  0
  3 26  1  0
  4 27  1  0
  5 28  1  0
  6 29  1  0
  8 30  1  0
 12 31  1  0
 13 32  1  0
 17 33  1  0
 18 34  1  0
 19 35  1  0
 22 36  1  0
 23 37  1  0
M  END
>  <smiles>  (48) 
Nc1ccccc1NC(=O)c1ccc(N=c2[nH][nH][nH]c2=O)cc1

>  <score_type>  (48) 
oracle

>  <origin>  (48) 
adgpu

>  <m_score__min__energy>  (48) 
-7.7199999999999998

>  <m_primary>  (48) 
energy

$$$$
48:0
     RDKit          3D

 66 69  0  0  0  0  0  0  0  0999 V2000
   -5.2820   25.6330  -30.4810 C   0  0  0  0  0  0  0  0  0  0  0  0
   -3.8890   25.3500  -30.5470 O   0  0  0  0  0  0  0  0  0  0  0  0
   -3.3290   24.0820  -30.3390 C   0  0  0  0  0  0  0  0  0  0  0  0
   -2.3670   23.8360  -29.3390 C   0  0  0  0  0  0  0  0  0  0  0  0
   -1.8440   22.5520  -29.1650 C   0  0  0  0  0  0  0  0  0  0  0  0
   -2.2740   21.5030  -29.9810 C   0  0  0  0  0  0  0  0  0  0  0  0
   -3.2230   21.7370  -30.9840 C   0  0  0  0  0  0  0  0  0  0  0  0
   -3.6720   20.6530  -31.8190 N   0  0  0  0  0  0  0  0  0  0  0  0
   -2.8100   20.0100  -32.6810 C   0  0  0  0  0  0  0  0  0  0  0  0
   -1.3290   20.3820  -32.8060 C   0  0  2  0  0  0  0  0  0  0  0  0
   -1.2280   21.5400  -33.8200 C   0  0  0  0  0  0  0  0  0  0  0  0
   -0.5130   19.1940  -33.2080 N   0  0  1  0  0  0  0  0  0  0  0  0
   -0.1850   19.1130  -34.6630 C   0  0  0  0  0  0  0  0  0  0  0  0
   -0.2510   17.7100  -35.3290 C   0  0  0  0  0  0  0  0  0  0  0  0
   -1.4710   16.8570  -34.9390 C   0  0  0  0  0  0  0  0  0  0  0  0
   -1.5470   16.6890  -33.4900 N   0  0  0  0  0  0  0  0  0  0  0  0
    0.6900   19.0670  -32.3960 C   0  0  0  0  0  0  0  0  0  0  0  0
    1.7900   19.4990  -32.8480 O   0  0  0  0  0  0  0  0  0  0  0  0
    0.6700   18.4650  -31.0310 C   0  0  0  0  0  0  0  0  0  0  0  0
    0.3350   19.2150  -29.8860 C   0  0  0  0  0  0  0  0  0  0  0  0
    0.3360   18.6220  -28.6210 C   0  0  0  0  0  0  0  0  0  0  0  0
    0.6740   17.2720  -28.4710 C   0  0  0  0  0  0  0  0  0  0  0  0
    0.6430   16.6350  -27.1130 C   0  0  0  0  0  0  0  0  0  0  0  0
    0.9830   16.5100  -29.6070 C   0  0  0  0  0  0  0  0  0  0  0  0
    0.9840   17.1010  -30.8720 C   0  0  0  0  0  0  0  0  0  0  0  0
   -3.2710   18.9950  -33.4600 N   0  0  0  0  0  0  0  0  0  0  0  0
   -4.5570   18.5790  -33.4100 C   0  0  0  0  0  0  0  0  0  0  0  0
   -4.9840   17.5240  -34.2240 C   0  0  0  0  0  0  0  0  0  0  0  0
   -6.3130   17.0930  -34.1730 C   0  0  0  0  0  0  0  0  0  0  0  0
   -7.2170   17.7160  -33.3080 C   0  0  0  0  0  0  0  0  0  0  0  0
   -6.7980   18.7710  -32.4900 C   0  0  0  0  0  0  0  0  0  0  0  0
   -5.4610   19.2090  -32.5360 C   0  0  0  0  0  0  0  0  0  0  0  0
   -4.9860   20.2640  -31.7390 C   0  0  0  0  0  0  0  0  0  0  0  0
   -5.7770   20.8570  -30.9500 O   0  0  0  0  0  0  0  0  0  0  0  0
   -3.7500   23.0260  -31.1570 C   0  0  0  0  0  0  0  0  0  0  0  0
   -5.5938   25.6963  -29.4280 H   0  0  0  0  0  0  0  0  0  0  0  0
   -5.4857   26.5909  -30.9820 H   0  0  0  0  0  0  0  0  0  0  0  0
   -5.8433   24.8305  -30.9820 H   0  0  0  0  0  0  0  0  0  0  0  0
   -2.0264   24.6583  -28.6926 H   0  0  0  0  0  0  0  0  0  0  0  0
   -1.0921   22.3669  -28.3838 H   0  0  0  0  0  0  0  0  0  0  0  0
   -1.8666   20.4916  -29.8356 H   0  0  0  0  0  0  0  0  0  0  0  0
   -0.9213   20.7098  -31.8384 H   0  0  0  0  0  0  0  0  0  0  0  0
   -1.1448   22.4944  -33.2795 H   0  0  0  0  0  0  0  0  0  0  0  0
   -0.3389   21.3976  -34.4518 H   0  0  0  0  0  0  0  0  0  0  0  0
   -2.1284   21.5537  -34.4518 H   0  0  0  0  0  0  0  0  0  0  0  0
   -1.1200   18.3650  -33.0080 H   0  0  0  0  0  0  0  0  0  0  0  0
   -0.8896   19.7667  -35.1980 H   0  0  0  0  0  0  0  0  0  0  0  0
    0.8717   19.4104  -34.7324 H   0  0  0  0  0  0  0  0  0  0  0  0
   -0.2692   17.8514  -36.4197 H   0  0  0  0  0  0  0  0  0  0  0  0
    0.6326   17.1605  -34.9722 H   0  0  0  0  0  0  0  0  0  0  0  0
   -2.3862   17.3544  -35.2925 H   0  0  0  0  0  0  0  0  0  0  0  0
   -1.3695   15.8650  -35.4033 H   0  0  0  0  0  0  0  0  0  0  0  0
   -2.4920   17.0040  -33.1730 H   0  0  0  0  0  0  0  0  0  0  0  0
   -1.4920   15.6660  -33.2850 H   0  0  0  0  0  0  0  0  0  0  0  0
    0.0701   20.2776  -29.9892 H   0  0  0  0  0  0  0  0  0  0  0  0
    0.0694   19.2200  -27.7371 H   0  0  0  0  0  0  0  0  0  0  0  0
    0.6811   17.4169  -26.3403 H   0  0  0  0  0  0  0  0  0  0  0  0
   -0.2845   16.0542  -27.0015 H   0  0  0  0  0  0  0  0  0  0  0  0
    1.5097   15.9669  -27.0015 H   0  0  0  0  0  0  0  0  0  0  0  0
    1.2256   15.4423  -29.5010 H   0  0  0  0  0  0  0  0  0  0  0  0
    1.2330   16.4942  -31.7551 H   0  0  0  0  0  0  0  0  0  0  0  0
   -4.2731   17.0331  -34.9049 H   0  0  0  0  0  0  0  0  0  0  0  0
   -6.6472   16.2636  -34.8136 H   0  0  0  0  0  0  0  0  0  0  0  0
   -8.2623   17.3755  -33.2702 H   0  0  0  0  0  0  0  0  0  0  0  0
   -7.5133   19.2581  -31.8110 H   0  0  0  0  0  0  0  0  0  0  0  0
   -4.4996   23.2084  -31.9411 H   0  0  0  0  0  0  0  0  0  0  0  0
  1  2  1  0
  2  3  1  0
  3  4  2  0
  4  5  1  0
  5  6  2  0
  6  7  1  0
  7  8  1  0
  8  9  1  0
  9 10  1  0
 10 11  1  0
 10 12  1  0
 12 13  1  0
 13 14  1  0
 14 15  1  0
 15 16  1  0
 12 17  1  0
 17 18  2  0
 17 19  1  0
 19 20  2  0
 20 21  1  0
 21 22  2  0
 22 23  1  0
 22 24  1  0
 24 25  2  0
  9 26  2  0
 26 27  1  0
 27 28  2  0
 28 29  1  0
 29 30  2  0
 30 31  1  0
 31 32  2  0
 32 33  1  0
 33 34  2  0
  7 35  2  0
 35  3  1  0
 33  8  1  0
 25 19  1  0
 32 27  1  0
  1 36  1  0
  1 37  1  0
  1 38  1  0
  4 39  1  0
  5 40  1  0
  6 41  1  0
 10 42  1  1
 11 43  1  0
 11 44  1  0
 11 45  1  0
 12 46  1  1
 13 47  1  0
 13 48  1  0
 14 49  1  0
 14 50  1  0
 15 51  1  0
 15 52  1  0
 16 53  1  0
 16 54  1  0
 20 55  1  0
 21 56  1  0
 23 57  1  0
 23 58  1  0
 23 59  1  0
 24 60  1  0
 25 61  1  0
 28 62  1  0
 29 63  1  0
 30 64  1  0
 31 65  1  0
 35 66  1  0
M  CHG  1  12   1
M  END
>  <UniqueID>  (49) 
45

>  <SMILES>  (49) 
COc1cccc(-n2c([C@H](C)[N@@H+](CCCN)C(=O)c3ccc(C)cc3)nc3ccccc3c2=O)c1

>  <Energy>  (49) 
93.9253434483953

>  <Genealogy>  (49) 
COc1cccc(-n2c(C(C)[NH+](CCCN)C(=O)c3ccc(C)cc3)nc3ccccc3c2=O)c1 (protonated)
COc1cccc(-n2c([C@H](C)[N@@H+](CCCN)C(=O)c3ccc(C)cc3)nc3ccccc3c2=O)c1 (chirality)
COc1cccc(-n2c([C@H](C)[N@@H+](CCCN)C(=O)c3ccc(C)cc3)nc3ccccc3c2=O)c1 (3D coordinates assigned)
COc1cccc(-n2c([C@H](C)[N@@H+](CCCN)C(=O)c3ccc(C)cc3)nc3ccccc3c2=O)c1 (optimized conformer: 93.9253434483953 kcal/mol)

>  <smiles>  (49) 
COc1cccc(-n2c(C(C)N(CCCN)C(=O)c3ccc(C)cc3)nc3ccccc3c2=O)c1

>  <score_type>  (49) 
oracle

>  <origin>  (49) 
adgpu

>  <m_score__min__energy>  (49) 
-9.5600000000000005

>  <m_primary>  (49) 
energy

$$$$
49:0
     RDKit          3D

 50 52  0  0  0  0  0  0  0  0999 V2000
   -1.7370   19.8190  -27.5850 C   0  0  0  0  0  0  0  0  0  0  0  0
   -2.4460   20.9300  -28.2960 C   0  0  0  0  0  0  0  0  0  0  0  0
   -2.1770   21.1840  -29.6500 C   0  0  0  0  0  0  0  0  0  0  0  0
   -2.8730   22.1860  -30.3320 C   0  0  0  0  0  0  0  0  0  0  0  0
   -3.8600   22.9330  -29.6730 C   0  0  0  0  0  0  0  0  0  0  0  0
   -4.7690   24.1600  -30.5550 S   0  0  0  0  0  0  0  0  0  0  0  0
   -5.9300   24.6310  -29.7260 O   0  0  0  0  0  0  0  0  0  0  0  0
   -3.8690   25.3320  -30.8300 O   0  0  0  0  0  0  0  0  0  0  0  0
   -5.3730   23.5380  -32.0670 N   0  0  0  0  0  0  0  0  0  0  0  0
   -5.6000   22.0890  -31.9980 C   0  0  0  0  0  0  0  0  0  0  0  0
   -7.0720   21.7410  -32.0430 C   0  0  0  0  0  0  0  0  0  0  0  0
   -8.0180   22.7500  -31.7870 C   0  0  0  0  0  0  0  0  0  0  0  0
   -9.3790   22.4490  -31.7460 C   0  0  0  0  0  0  0  0  0  0  0  0
   -9.8170   21.1420  -31.9700 C   0  0  0  0  0  0  0  0  0  0  0  0
   -8.8900   20.1350  -32.2440 C   0  0  0  0  0  0  0  0  0  0  0  0
   -7.5160   20.4200  -32.2730 C   0  0  0  0  0  0  0  0  0  0  0  0
   -6.5940   19.3570  -32.5460 N   0  0  0  0  0  0  0  0  0  0  0  0
   -5.7820   19.3950  -33.7640 C   0  0  0  0  0  0  0  0  0  0  0  0
   -6.0620   18.1300  -34.5760 C   0  0  0  0  0  0  0  0  0  0  0  0
   -5.7840   16.8860  -33.8110 N   0  0  0  0  0  0  0  0  0  0  0  0
   -6.7200   15.8170  -34.1930 C   0  0  0  0  0  0  0  0  0  0  0  0
   -5.7290   17.0500  -32.3360 C   0  0  0  0  0  0  0  0  0  0  0  0
   -6.7230   18.0970  -31.8090 C   0  0  0  0  0  0  0  0  0  0  0  0
   -4.1370   22.6750  -28.3220 C   0  0  0  0  0  0  0  0  0  0  0  0
   -3.4330   21.6800  -27.6380 C   0  0  0  0  0  0  0  0  0  0  0  0
   -1.8283   19.9621  -26.4982 H   0  0  0  0  0  0  0  0  0  0  0  0
   -2.1881   18.8563  -27.8673 H   0  0  0  0  0  0  0  0  0  0  0  0
   -0.6738   19.8226  -27.8673 H   0  0  0  0  0  0  0  0  0  0  0  0
   -1.4146   20.5915  -30.1770 H   0  0  0  0  0  0  0  0  0  0  0  0
   -2.6458   22.3892  -31.3889 H   0  0  0  0  0  0  0  0  0  0  0  0
   -4.6340   23.7050  -32.7870 H   0  0  0  0  0  0  0  0  0  0  0  0
   -5.0960   21.6100  -32.8504 H   0  0  0  0  0  0  0  0  0  0  0  0
   -5.1955   21.7278  -31.0410 H   0  0  0  0  0  0  0  0  0  0  0  0
   -7.6819   23.7837  -31.6180 H   0  0  0  0  0  0  0  0  0  0  0  0
  -10.1101   23.2438  -31.5365 H   0  0  0  0  0  0  0  0  0  0  0  0
  -10.8908   20.9065  -31.9306 H   0  0  0  0  0  0  0  0  0  0  0  0
   -9.2390   19.1102  -32.4387 H   0  0  0  0  0  0  0  0  0  0  0  0
   -6.0458   20.2826  -34.3578 H   0  0  0  0  0  0  0  0  0  0  0  0
   -4.7146   19.4456  -33.5029 H   0  0  0  0  0  0  0  0  0  0  0  0
   -7.1206   18.1305  -34.8750 H   0  0  0  0  0  0  0  0  0  0  0  0
   -5.3935   18.1402  -35.4495 H   0  0  0  0  0  0  0  0  0  0  0  0
   -7.1306   15.3480  -33.2867 H   0  0  0  0  0  0  0  0  0  0  0  0
   -7.5403   16.2435  -34.7890 H   0  0  0  0  0  0  0  0  0  0  0  0
   -6.1888   15.0602  -34.7890 H   0  0  0  0  0  0  0  0  0  0  0  0
   -5.9588   16.0818  -31.8672 H   0  0  0  0  0  0  0  0  0  0  0  0
   -4.7177   17.4005  -32.0821 H   0  0  0  0  0  0  0  0  0  0  0  0
   -7.7471   17.7134  -31.9277 H   0  0  0  0  0  0  0  0  0  0  0  0
   -6.5047   18.2864  -30.7476 H   0  0  0  0  0  0  0  0  0  0  0  0
   -4.9103   23.2574  -27.7997 H   0  0  0  0  0  0  0  0  0  0  0  0
   -3.6537   21.4837  -26.5784 H   0  0  0  0  0  0  0  0  0  0  0  0
  1  2  1  0
  2  3  2  0
  3  4  1  0
  4  5  2  0
  5  6  1  0
  6  7  2  0
  6  8  2  0
  6  9  1  0
  9 10  1  0
 10 11  1  0
 11 12  2  0
 12 13  1  0
 13 14  2  0
 14 15  1  0
 15 16  2  0
 16 17  1  0
 17 18  1  0
 18 19  1  0
 19 20  1  0
 20 21  1  0
 20 22  1  0
 22 23  1  0
  5 24  1  0
 24 25  2  0
 25  2  1  0
 16 11  1  0
 23 17  1  0
  1 26  1  0
  1 27  1  0
  1 28  1  0
  3 29  1  0
  4 30  1  0
  9 31  1  0
 10 32  1  0
 10 33  1  0
 12 34  1  0
 13 35  1  0
 14 36  1  0
 15 37  1  0
 18 38  1  0
 18 39  1  0
 19 40  1  0
 19 41  1  0
 21 42  1  0
 21 43  1  0
 21 44  1  0
 22 45  1  0
 22 46  1  0
 23 47  1  0
 23 48  1  0
 24 49  1  0
 25 50  1  0
M  END
>  <UniqueID>  (50) 
46

>  <SMILES>  (50) 
Cc1ccc(S(=O)(=O)NCc2ccccc2N2CCN(C)CC2)cc1

>  <Energy>  (50) 
60.8455394896184

>  <Genealogy>  (50) 
Cc1ccc(S(=O)(=O)NCc2ccccc2N2CCN(C)CC2)cc1 (3D coordinates assigned)
Cc1ccc(S(=O)(=O)NCc2ccccc2N2CCN(C)CC2)cc1 (nonaromatic ring conformer: 60.8455394896184 kcal/mol)

>  <smiles>  (50) 
Cc1ccc(S(=O)(=O)NCc2ccccc2N2CCN(C)CC2)cc1

>  <score_type>  (50) 
oracle

>  <origin>  (50) 
adgpu

>  <m_score__min__energy>  (50) 
-9.6500000000000004

>  <m_primary>  (50) 
energy

$$$$
