0:0
     RDKit          3D

 63 66  0  0  0  0  0  0  0  0999 V2000
   -9.5840   21.2260  -32.0890 C   0  0  0  0  0  0  0  0  0  0  0  0
   -8.3440   20.4820  -31.8440 N   0  0  0  0  0  0  0  0  0  0  0  0
   -8.4120   19.0620  -31.5990 C   0  0  0  0  0  0  0  0  0  0  0  0
   -9.3930   18.5890  -30.9610 O   0  0  0  0  0  0  0  0  0  0  0  0
   -7.3610   18.1430  -32.0910 C   0  0  0  0  0  0  0  0  0  0  0  0
   -7.2240   17.8940  -33.4670 C   0  0  0  0  0  0  0  0  0  0  0  0
   -6.2390   17.0170  -33.9340 C   0  0  0  0  0  0  0  0  0  0  0  0
   -5.3710   16.3860  -33.0310 C   0  0  0  0  0  0  0  0  0  0  0  0
   -4.1380   15.2630  -33.6170 S   0  0  0  0  0  0  0  0  0  0  0  0
   -4.7040   14.4580  -34.7540 O   0  0  0  0  0  0  0  0  0  0  0  0
   -3.7740   14.3100  -32.5130 O   0  0  0  0  0  0  0  0  0  0  0  0
   -2.6950   16.0920  -34.1580 N   0  0  0  0  0  0  0  0  0  0  0  0
   -1.8520   16.5120  -33.0260 C   0  0  0  0  0  0  0  0  0  0  0  0
   -1.5810   18.0020  -33.1660 C   0  0  0  0  0  0  0  0  0  0  0  0
   -2.6850   18.5010  -34.0660 C   0  0  0  0  0  0  0  0  0  0  0  0
   -3.0260   17.3010  -34.9250 C   0  0  0  0  0  0  0  0  0  0  0  0
   -5.4970   16.6430  -31.6600 C   0  0  0  0  0  0  0  0  0  0  0  0
   -6.4800   17.5200  -31.1940 C   0  0  0  0  0  0  0  0  0  0  0  0
   -7.0720   21.1620  -31.8930 C   0  0  0  0  0  0  0  0  0  0  0  0
   -6.0340   20.6660  -32.7000 C   0  0  0  0  0  0  0  0  0  0  0  0
   -4.8070   21.3310  -32.7610 C   0  0  0  0  0  0  0  0  0  0  0  0
   -4.6050   22.5000  -32.0230 C   0  0  0  0  0  0  0  0  0  0  0  0
   -5.6300   23.0090  -31.2170 C   0  0  0  0  0  0  0  0  0  0  0  0
   -5.3730   24.4840  -30.2850 S   0  0  0  0  0  0  0  0  0  0  0  0
   -4.8730   25.5720  -31.1960 O   0  0  0  0  0  0  0  0  0  0  0  0
   -6.6850   24.9240  -29.6970 O   0  0  0  0  0  0  0  0  0  0  0  0
   -4.2240   24.1980  -29.0010 N   0  0  0  0  0  0  0  0  0  0  0  0
   -2.8530   24.1960  -29.5450 C   0  0  0  0  0  0  0  0  0  0  0  0
   -1.8030   24.1350  -28.4170 C   0  0  0  0  0  0  0  0  0  0  0  0
   -2.3300   23.4280  -27.1570 C   0  0  0  0  0  0  0  0  0  0  0  0
   -3.3470   22.3440  -27.5170 C   0  0  0  0  0  0  0  0  0  0  0  0
   -4.5430   22.9250  -28.3070 C   0  0  0  0  0  0  0  0  0  0  0  0
   -6.8580   22.3360  -31.1460 C   0  0  0  0  0  0  0  0  0  0  0  0
  -10.0425   21.5011  -31.1277 H   0  0  0  0  0  0  0  0  0  0  0  0
   -9.3576   22.1376  -32.6615 H   0  0  0  0  0  0  0  0  0  0  0  0
  -10.2818   20.5973  -32.6615 H   0  0  0  0  0  0  0  0  0  0  0  0
   -7.8956   18.3919  -34.1818 H   0  0  0  0  0  0  0  0  0  0  0  0
   -6.1451   16.8218  -35.0125 H   0  0  0  0  0  0  0  0  0  0  0  0
   -2.3752   16.3156  -32.0785 H   0  0  0  0  0  0  0  0  0  0  0  0
   -0.9059   15.9509  -33.0266 H   0  0  0  0  0  0  0  0  0  0  0  0
   -1.6232   18.4992  -32.1857 H   0  0  0  0  0  0  0  0  0  0  0  0
   -0.5809   18.2099  -33.5742 H   0  0  0  0  0  0  0  0  0  0  0  0
   -3.5567   18.8201  -33.4759 H   0  0  0  0  0  0  0  0  0  0  0  0
   -2.3843   19.3763  -34.6605 H   0  0  0  0  0  0  0  0  0  0  0  0
   -4.0986   17.3077  -35.1687 H   0  0  0  0  0  0  0  0  0  0  0  0
   -2.4568   17.3274  -35.8659 H   0  0  0  0  0  0  0  0  0  0  0  0
   -4.8188   16.1521  -30.9465 H   0  0  0  0  0  0  0  0  0  0  0  0
   -6.5638   17.7235  -30.1162 H   0  0  0  0  0  0  0  0  0  0  0  0
   -6.1886   19.7487  -33.2871 H   0  0  0  0  0  0  0  0  0  0  0  0
   -3.9981   20.9334  -33.3915 H   0  0  0  0  0  0  0  0  0  0  0  0
   -3.6380   23.0217  -32.0755 H   0  0  0  0  0  0  0  0  0  0  0  0
   -4.3200   24.9930  -28.3240 H   0  0  0  0  0  0  0  0  0  0  0  0
   -2.7281   23.3201  -30.1987 H   0  0  0  0  0  0  0  0  0  0  0  0
   -2.7021   25.1277  -30.1100 H   0  0  0  0  0  0  0  0  0  0  0  0
   -0.9218   23.5890  -28.7849 H   0  0  0  0  0  0  0  0  0  0  0  0
   -1.5521   25.1692  -28.1387 H   0  0  0  0  0  0  0  0  0  0  0  0
   -1.4855   22.9656  -26.6251 H   0  0  0  0  0  0  0  0  0  0  0  0
   -2.8268   24.1747  -26.5201 H   0  0  0  0  0  0  0  0  0  0  0  0
   -2.8507   21.5790  -28.1322 H   0  0  0  0  0  0  0  0  0  0  0  0
   -3.7309   21.9085  -26.5827 H   0  0  0  0  0  0  0  0  0  0  0  0
   -4.8569   22.1862  -29.0591 H   0  0  0  0  0  0  0  0  0  0  0  0
   -5.3403   23.1403  -27.5804 H   0  0  0  0  0  0  0  0  0  0  0  0
   -7.6594   22.7279  -30.5024 H   0  0  0  0  0  0  0  0  0  0  0  0
  1  2  1  0
  2  3  1  0
  3  4  2  0
  3  5  1  0
  5  6  2  0
  6  7  1  0
  7  8  2  0
  8  9  1  0
  9 10  2  0
  9 11  2  0
  9 12  1  0
 12 13  1  0
 13 14  1  0
 14 15  1  0
 15 16  1  0
  8 17  1  0
 17 18  2  0
  2 19  1  0
 19 20  2  0
 20 21  1  0
 21 22  2  0
 22 23  1  0
 23 24  1  0
 24 25  2  0
 24 26  2  0
 24 27  1  0
 27 28  1  0
 28 29  1  0
 29 30  1  0
 30 31  1  0
 31 32  1  0
 23 33  2  0
 18  5  1  0
 33 19  1  0
 16 12  1  0
 32 27  1  0
  1 34  1  0
  1 35  1  0
  1 36  1  0
  6 37  1  0
  7 38  1  0
 13 39  1  0
 13 40  1  0
 14 41  1  0
 14 42  1  0
 15 43  1  0
 15 44  1  0
 16 45  1  0
 16 46  1  0
 17 47  1  0
 18 48  1  0
 20 49  1  0
 21 50  1  0
 22 51  1  0
 27 52  1  0
 28 53  1  0
 28 54  1  0
 29 55  1  0
 29 56  1  0
 30 57  1  0
 30 58  1  0
 31 59  1  0
 31 60  1  0
 32 61  1  0
 32 62  1  0
 33 63  1  0
M  CHG  1  27   1
M  END
>  <UniqueID>  (1) 
1

>  <SMILES>  (1) 
CN(C(=O)c1ccc(S(=O)(=O)N2CCCC2)cc1)c1cccc(S(=O)(=O)[NH+]2CCCCC2)c1

>  <Energy>  (1) 
76.49399397545812

>  <Genealogy>  (1) 
CN(C(=O)c1ccc(S(=O)(=O)N2CCCC2)cc1)c1cccc(S(=O)(=O)[NH+]2CCCCC2)c1 (protonated)
CN(C(=O)c1ccc(S(=O)(=O)N2CCCC2)cc1)c1cccc(S(=O)(=O)[NH+]2CCCCC2)c1 (3D coordinates assigned)
CN(C(=O)c1ccc(S(=O)(=O)N2CCCC2)cc1)c1cccc(S(=O)(=O)[NH+]2CCCCC2)c1 (nonaromatic ring conformer: 76.49399397545812 kcal/mol)

>  <smiles>  (1) 
CN(C(=O)c1ccc(S(=O)(=O)N2CCCC2)cc1)c1cccc(S(=O)(=O)N2CCCCC2)c1

>  <score_type>  (1) 
oracle

>  <origin>  (1) 
adgpu

>  <m_score__min__energy>  (1) 
-10.23

>  <m_primary>  (1) 
energy

$$$$
1:0
     RDKit          3D

 50 53  0  0  0  0  0  0  0  0999 V2000
   -0.8500   26.7810  -28.8390 O   0  0  0  0  0  0  0  0  0  0  0  0
   -1.1380   25.3310  -28.5690 S   0  0  0  0  0  0  0  0  0  0  0  0
   -0.1340   24.4990  -29.3200 O   0  0  0  0  0  0  0  0  0  0  0  0
   -2.7480   24.9570  -29.1230 N   0  0  0  0  0  0  0  0  0  0  0  0
   -3.2860   23.7510  -28.4900 C   0  0  0  0  0  0  0  0  0  0  0  0
   -4.5560   23.2640  -29.1950 C   0  0  0  0  0  0  0  0  0  0  0  0
   -4.6100   23.8100  -30.9380 S   0  0  0  0  0  0  0  0  0  0  0  0
   -5.5530   22.3850  -31.4900 C   0  0  0  0  0  0  0  0  0  0  0  0
   -6.9080   22.4740  -31.5470 N   0  0  0  0  0  0  0  0  0  0  0  0
   -7.6710   21.4140  -31.9230 C   0  0  0  0  0  0  0  0  0  0  0  0
   -9.0650   21.5190  -31.9680 C   0  0  0  0  0  0  0  0  0  0  0  0
   -9.8340   20.4140  -32.3500 C   0  0  0  0  0  0  0  0  0  0  0  0
   -9.2100   19.2050  -32.6840 C   0  0  0  0  0  0  0  0  0  0  0  0
   -7.8170   19.0950  -32.6370 C   0  0  0  0  0  0  0  0  0  0  0  0
   -7.0440   20.1970  -32.2580 C   0  0  0  0  0  0  0  0  0  0  0  0
   -5.6890   20.1090  -32.2030 N   0  0  0  0  0  0  0  0  0  0  0  0
   -4.9240   21.1700  -31.8300 C   0  0  0  0  0  0  0  0  0  0  0  0
   -3.5010   21.0230  -31.7730 N   0  0  0  0  0  0  0  0  0  0  0  0
   -2.7260   21.0400  -33.0210 C   0  0  0  0  0  0  0  0  0  0  0  0
   -1.2630   21.5130  -32.8190 C   0  0  0  0  0  0  0  0  0  0  0  0
   -0.9680   21.9070  -31.4920 O   0  0  0  0  0  0  0  0  0  0  0  0
   -1.3460   20.8840  -30.6010 C   0  0  0  0  0  0  0  0  0  0  0  0
   -2.8630   20.8850  -30.4610 C   0  0  0  0  0  0  0  0  0  0  0  0
   -0.9990   25.0410  -26.8260 C   0  0  0  0  0  0  0  0  0  0  0  0
   -1.2360   26.0970  -25.9300 C   0  0  0  0  0  0  0  0  0  0  0  0
   -1.1100   25.9020  -24.5530 C   0  0  0  0  0  0  0  0  0  0  0  0
   -0.7550   24.6460  -24.0530 C   0  0  0  0  0  0  0  0  0  0  0  0
   -0.5250   23.5860  -24.9310 C   0  0  0  0  0  0  0  0  0  0  0  0
   -0.6420   23.7730  -26.3150 C   0  0  0  0  0  0  0  0  0  0  0  0
   -0.2870   22.2680  -27.4520 Br  0  0  0  0  0  0  0  0  0  0  0  0
   -2.5267   22.9562  -28.5326 H   0  0  0  0  0  0  0  0  0  0  0  0
   -3.5419   23.9937  -27.4481 H   0  0  0  0  0  0  0  0  0  0  0  0
   -4.5820   22.1647  -29.1644 H   0  0  0  0  0  0  0  0  0  0  0  0
   -5.4246   23.6924  -28.6734 H   0  0  0  0  0  0  0  0  0  0  0  0
   -9.5555   22.4675  -31.7039 H   0  0  0  0  0  0  0  0  0  0  0  0
  -10.9304   20.4948  -32.3881 H   0  0  0  0  0  0  0  0  0  0  0  0
   -9.8182   18.3391  -32.9843 H   0  0  0  0  0  0  0  0  0  0  0  0
   -7.3301   18.1437  -32.8976 H   0  0  0  0  0  0  0  0  0  0  0  0
   -2.7110   20.0223  -33.4382 H   0  0  0  0  0  0  0  0  0  0  0  0
   -3.2123   21.7552  -33.7007 H   0  0  0  0  0  0  0  0  0  0  0  0
   -0.5905   20.6868  -33.0931 H   0  0  0  0  0  0  0  0  0  0  0  0
   -1.1222   22.3993  -33.4551 H   0  0  0  0  0  0  0  0  0  0  0  0
   -1.0122   19.9117  -30.9925 H   0  0  0  0  0  0  0  0  0  0  0  0
   -0.8816   21.0558  -29.6187 H   0  0  0  0  0  0  0  0  0  0  0  0
   -3.1843   19.9392  -30.0002 H   0  0  0  0  0  0  0  0  0  0  0  0
   -3.1608   21.7355  -29.8302 H   0  0  0  0  0  0  0  0  0  0  0  0
   -1.5233   27.0859  -26.3166 H   0  0  0  0  0  0  0  0  0  0  0  0
   -1.2903   26.7378  -23.8610 H   0  0  0  0  0  0  0  0  0  0  0  0
   -0.6570   24.4932  -22.9681 H   0  0  0  0  0  0  0  0  0  0  0  0
   -0.2502   22.5975  -24.5343 H   0  0  0  0  0  0  0  0  0  0  0  0
  1  2  2  0
  2  3  2  0
  2  4  1  0
  4  5  1  0
  5  6  1  0
  6  7  1  0
  7  8  1  0
  8  9  2  0
  9 10  1  0
 10 11  2  0
 11 12  1  0
 12 13  2  0
 13 14  1  0
 14 15  2  0
 15 16  1  0
 16 17  2  0
 17 18  1  0
 18 19  1  0
 19 20  1  0
 20 21  1  0
 21 22  1  0
 22 23  1  0
  2 24  1  0
 24 25  2  0
 25 26  1  0
 26 27  2  0
 27 28  1  0
 28 29  2  0
 29 30  1  0
 17  8  1  0
 23 18  1  0
 29 24  1  0
 15 10  1  0
  5 31  1  0
  5 32  1  0
  6 33  1  0
  6 34  1  0
 11 35  1  0
 12 36  1  0
 13 37  1  0
 14 38  1  0
 19 39  1  0
 19 40  1  0
 20 41  1  0
 20 42  1  0
 22 43  1  0
 22 44  1  0
 23 45  1  0
 23 46  1  0
 25 47  1  0
 26 48  1  0
 27 49  1  0
 28 50  1  0
M  CHG  1   4  -1
M  END
>  <UniqueID>  (2) 
2

>  <SMILES>  (2) 
O=S(=O)([N-]CCSc1nc2ccccc2nc1N1CCOCC1)c1ccccc1Br

>  <Energy>  (2) 
62.63496766887242

>  <Genealogy>  (2) 
O=S(=O)([N-]CCSc1nc2ccccc2nc1N1CCOCC1)c1ccccc1Br (protonated)
O=S(=O)([N-]CCSc1nc2ccccc2nc1N1CCOCC1)c1ccccc1Br (3D coordinates assigned)
O=S(=O)([N-]CCSc1nc2ccccc2nc1N1CCOCC1)c1ccccc1Br (nonaromatic ring conformer: 62.63496766887242 kcal/mol)

>  <smiles>  (2) 
O=S(=O)(NCCSc1nc2ccccc2nc1N1CCOCC1)c1ccccc1Br

>  <score_type>  (2) 
oracle

>  <origin>  (2) 
adgpu

>  <m_score__min__energy>  (2) 
-10.92

>  <m_primary>  (2) 
energy

$$$$
2:0
     RDKit          3D

 39 41  0  0  0  0  0  0  0  0999 V2000
   -8.6950   19.3340  -31.7220 C   0  0  0  0  0  0  0  0  0  0  0  0
   -7.5220   19.6710  -33.0720 S   0  0  0  0  0  0  0  0  0  0  0  0
   -6.8930   21.1690  -32.3130 C   0  0  0  0  0  0  0  0  0  0  0  0
   -7.7470   21.9870  -31.5680 C   0  0  0  0  0  0  0  0  0  0  0  0
   -7.2630   23.1620  -30.9850 C   0  0  0  0  0  0  0  0  0  0  0  0
   -5.9200   23.5290  -31.1510 C   0  0  0  0  0  0  0  0  0  0  0  0
   -5.3070   25.0170  -30.4390 S   0  0  0  0  0  0  0  0  0  0  0  0
   -5.7720   26.2130  -31.2230 O   0  0  0  0  0  0  0  0  0  0  0  0
   -5.8130   25.1280  -29.0290 O   0  0  0  0  0  0  0  0  0  0  0  0
   -3.5740   24.9920  -30.4200 N   0  0  0  0  0  0  0  0  0  0  0  0
   -2.7660   24.1850  -29.5510 C   0  0  0  0  0  0  0  0  0  0  0  0
   -3.1210   22.8660  -29.2160 C   0  0  0  0  0  0  0  0  0  0  0  0
   -2.3170   22.1100  -28.3520 C   0  0  0  0  0  0  0  0  0  0  0  0
   -1.1290   22.6630  -27.8370 C   0  0  0  0  0  0  0  0  0  0  0  0
   -0.7850   23.9820  -28.1590 C   0  0  0  0  0  0  0  0  0  0  0  0
   -1.5960   24.7380  -29.0090 C   0  0  0  0  0  0  0  0  0  0  0  0
   -1.2360   26.0470  -29.3150 O   0  0  0  0  0  0  0  0  0  0  0  0
   -0.2690   21.8690  -26.8870 C   0  0  0  0  0  0  0  0  0  0  0  0
   -0.4510   20.3590  -27.0820 C   0  0  0  0  0  0  0  0  0  0  0  0
   -1.9350   19.9880  -27.0350 C   0  0  0  0  0  0  0  0  0  0  0  0
   -2.6840   20.7610  -28.0230 N   0  0  0  0  0  0  0  0  0  0  0  0
   -5.0660   22.7060  -31.8970 C   0  0  0  0  0  0  0  0  0  0  0  0
   -5.5510   21.5310  -32.4790 C   0  0  0  0  0  0  0  0  0  0  0  0
   -8.1919   19.4785  -30.7545 H   0  0  0  0  0  0  0  0  0  0  0  0
   -9.5490   20.0231  -31.7978 H   0  0  0  0  0  0  0  0  0  0  0  0
   -9.0530   18.2967  -31.7978 H   0  0  0  0  0  0  0  0  0  0  0  0
   -8.8027   21.7056  -31.4400 H   0  0  0  0  0  0  0  0  0  0  0  0
   -7.9373   23.7999  -30.3948 H   0  0  0  0  0  0  0  0  0  0  0  0
   -4.0369   22.4242  -29.6354 H   0  0  0  0  0  0  0  0  0  0  0  0
    0.1301   24.4257  -27.7397 H   0  0  0  0  0  0  0  0  0  0  0  0
    0.7861   22.1261  -27.0620 H   0  0  0  0  0  0  0  0  0  0  0  0
   -0.5717   22.1204  -25.8598 H   0  0  0  0  0  0  0  0  0  0  0  0
   -0.0356   20.0673  -28.0579 H   0  0  0  0  0  0  0  0  0  0  0  0
    0.0740   19.8298  -26.2731 H   0  0  0  0  0  0  0  0  0  0  0  0
   -2.0477   18.9156  -27.2524 H   0  0  0  0  0  0  0  0  0  0  0  0
   -2.3279   20.2134  -26.0326 H   0  0  0  0  0  0  0  0  0  0  0  0
   -3.5510   20.3430  -28.4300 H   0  0  0  0  0  0  0  0  0  0  0  0
   -4.0098   22.9855  -32.0252 H   0  0  0  0  0  0  0  0  0  0  0  0
   -4.8777   20.8906  -33.0677 H   0  0  0  0  0  0  0  0  0  0  0  0
  1  2  1  0
  2  3  1  0
  3  4  2  0
  4  5  1  0
  5  6  2  0
  6  7  1  0
  7  8  2  0
  7  9  2  0
  7 10  1  0
 10 11  1  0
 11 12  2  0
 12 13  1  0
 13 14  2  0
 14 15  1  0
 15 16  2  0
 16 17  1  0
 14 18  1  0
 18 19  1  0
 19 20  1  0
 20 21  1  0
  6 22  1  0
 22 23  2  0
 23  3  1  0
 16 11  1  0
 21 13  1  0
  1 24  1  0
  1 25  1  0
  1 26  1  0
  4 27  1  0
  5 28  1  0
 12 29  1  0
 15 30  1  0
 18 31  1  0
 18 32  1  0
 19 33  1  0
 19 34  1  0
 20 35  1  0
 20 36  1  0
 21 37  1  0
 22 38  1  0
 23 39  1  0
M  CHG  2  10  -1  17  -1
M  END
>  <UniqueID>  (3) 
3

>  <SMILES>  (3) 
CSc1ccc(S(=O)(=O)[N-]c2cc3c(cc2[O-])CCCN3)cc1

>  <Energy>  (3) 
38.00868897022665

>  <Genealogy>  (3) 
CSc1ccc(S(=O)(=O)[N-]c2cc3c(cc2[O-])CCCN3)cc1 (protonated)
CSc1ccc(S(=O)(=O)[N-]c2cc3c(cc2[O-])CCCN3)cc1 (3D coordinates assigned)
CSc1ccc(S(=O)(=O)[N-]c2cc3c(cc2[O-])CCCN3)cc1 (nonaromatic ring conformer: 38.00868897022665 kcal/mol)

>  <smiles>  (3) 
CSc1ccc(S(=O)(=O)Nc2cc3c(cc2O)CCCN3)cc1

>  <score_type>  (3) 
oracle

>  <origin>  (3) 
adgpu

>  <m_score__min__energy>  (3) 
-13.35

>  <m_primary>  (3) 
energy

$$$$
3:0
     RDKit          3D

 68 71  0  0  0  0  0  0  0  0999 V2000
   -2.7930   13.5410  -32.8130 C   0  0  0  0  0  0  0  0  0  0  0  0
   -2.3440   14.5720  -33.6880 O   0  0  0  0  0  0  0  0  0  0  0  0
   -2.1100   15.9020  -33.3060 C   0  0  0  0  0  0  0  0  0  0  0  0
   -0.9830   16.2600  -32.5430 C   0  0  0  0  0  0  0  0  0  0  0  0
   -0.7700   17.5870  -32.1680 C   0  0  0  0  0  0  0  0  0  0  0  0
   -1.6750   18.5900  -32.5490 C   0  0  0  0  0  0  0  0  0  0  0  0
   -1.4540   19.9920  -32.1250 C   0  0  0  0  0  0  0  0  0  0  0  0
   -1.2730   20.8840  -33.0020 O   0  0  0  0  0  0  0  0  0  0  0  0
   -1.3740   20.3380  -30.7330 N   0  0  0  0  0  0  0  0  0  0  0  0
   -1.5350   21.6830  -30.2490 C   0  0  0  0  0  0  0  0  0  0  0  0
   -0.4540   22.3360  -29.6430 C   0  0  0  0  0  0  0  0  0  0  0  0
   -0.5930   23.6420  -29.1700 C   0  0  0  0  0  0  0  0  0  0  0  0
   -1.8220   24.3190  -29.2850 C   0  0  0  0  0  0  0  0  0  0  0  0
   -1.9810   25.6360  -28.8280 O   0  0  0  0  0  0  0  0  0  0  0  0
   -1.2270   26.2240  -27.7750 C   0  0  0  0  0  0  0  0  0  0  0  0
   -2.9190   23.6560  -29.8730 C   0  0  0  0  0  0  0  0  0  0  0  0
   -4.5070   24.4350  -30.0010 S   0  0  0  0  0  0  0  0  0  0  0  0
   -4.9650   24.8660  -28.6330 O   0  0  0  0  0  0  0  0  0  0  0  0
   -4.3700   25.6720  -30.8440 O   0  0  0  0  0  0  0  0  0  0  0  0
   -5.7020   23.3940  -30.7430 N   0  0  0  0  0  0  0  0  0  0  0  0
   -6.3890   24.0800  -31.8520 C   0  0  0  0  0  0  0  0  0  0  0  0
   -7.5830   23.2430  -32.3560 C   0  0  0  0  0  0  0  0  0  0  0  0
   -7.5380   21.9280  -31.8340 O   0  0  0  0  0  0  0  0  0  0  0  0
   -7.6870   21.9630  -30.4240 C   0  0  0  0  0  0  0  0  0  0  0  0
   -6.6820   22.9220  -29.7520 C   0  0  0  0  0  0  0  0  0  0  0  0
   -2.7710   22.3420  -30.3390 C   0  0  0  0  0  0  0  0  0  0  0  0
   -2.7850   18.2410  -33.3360 C   0  0  0  0  0  0  0  0  0  0  0  0
   -3.0220   16.9050  -33.6960 C   0  0  0  0  0  0  0  0  0  0  0  0
   -4.4770   16.5200  -34.6310 S   0  0  0  0  0  0  0  0  0  0  0  0
   -4.3230   17.0800  -36.0180 O   0  0  0  0  0  0  0  0  0  0  0  0
   -4.6180   15.0280  -34.7580 O   0  0  0  0  0  0  0  0  0  0  0  0
   -5.9270   17.1880  -33.9100 N   0  0  0  0  0  0  0  0  0  0  0  0
   -6.0350   16.9190  -32.4550 C   0  0  0  0  0  0  0  0  0  0  0  0
   -6.3180   18.1700  -31.6140 C   0  0  0  0  0  0  0  0  0  0  0  0
   -5.3600   19.2820  -32.0150 C   0  0  0  0  0  0  0  0  0  0  0  0
   -5.5320   19.6640  -33.4910 C   0  0  0  0  0  0  0  0  0  0  0  0
   -6.2070   18.5710  -34.3500 C   0  0  0  0  0  0  0  0  0  0  0  0
   -2.6543   13.8596  -31.7693 H   0  0  0  0  0  0  0  0  0  0  0  0
   -3.8591   13.3423  -32.9971 H   0  0  0  0  0  0  0  0  0  0  0  0
   -2.2122   12.6251  -32.9971 H   0  0  0  0  0  0  0  0  0  0  0  0
   -0.2628   15.4860  -32.2392 H   0  0  0  0  0  0  0  0  0  0  0  0
    0.1144   17.8493  -31.5688 H   0  0  0  0  0  0  0  0  0  0  0  0
   -1.0210   19.6170  -30.0660 H   0  0  0  0  0  0  0  0  0  0  0  0
    0.5101   21.8166  -29.5392 H   0  0  0  0  0  0  0  0  0  0  0  0
    0.2656   24.1468  -28.7031 H   0  0  0  0  0  0  0  0  0  0  0  0
   -1.6381   25.9034  -26.8064 H   0  0  0  0  0  0  0  0  0  0  0  0
   -0.1776   25.9034  -27.8521 H   0  0  0  0  0  0  0  0  0  0  0  0
   -1.2822   27.3199  -27.8521 H   0  0  0  0  0  0  0  0  0  0  0  0
   -6.7550   25.0562  -31.5011 H   0  0  0  0  0  0  0  0  0  0  0  0
   -5.6770   24.2140  -32.6797 H   0  0  0  0  0  0  0  0  0  0  0  0
   -8.5194   23.7244  -32.0376 H   0  0  0  0  0  0  0  0  0  0  0  0
   -7.5322   23.1860  -33.4533 H   0  0  0  0  0  0  0  0  0  0  0  0
   -8.7077   22.2957  -30.1844 H   0  0  0  0  0  0  0  0  0  0  0  0
   -7.4938   20.9504  -30.0402 H   0  0  0  0  0  0  0  0  0  0  0  0
   -7.2232   23.7840  -29.3349 H   0  0  0  0  0  0  0  0  0  0  0  0
   -6.1553   22.3890  -28.9467 H   0  0  0  0  0  0  0  0  0  0  0  0
   -3.6337   21.8214  -30.7803 H   0  0  0  0  0  0  0  0  0  0  0  0
   -3.4779   19.0253  -33.6748 H   0  0  0  0  0  0  0  0  0  0  0  0
   -6.8528   16.2010  -32.2947 H   0  0  0  0  0  0  0  0  0  0  0  0
   -5.0606   16.5268  -32.1283 H   0  0  0  0  0  0  0  0  0  0  0  0
   -7.3535   18.4995  -31.7849 H   0  0  0  0  0  0  0  0  0  0  0  0
   -6.1779   17.9335  -30.5489 H   0  0  0  0  0  0  0  0  0  0  0  0
   -5.5570   20.1663  -31.3912 H   0  0  0  0  0  0  0  0  0  0  0  0
   -4.3310   18.9221  -31.8682 H   0  0  0  0  0  0  0  0  0  0  0  0
   -6.1479   20.5739  -33.5430 H   0  0  0  0  0  0  0  0  0  0  0  0
   -4.5219   19.8114  -33.9008 H   0  0  0  0  0  0  0  0  0  0  0  0
   -7.2950   18.7293  -34.3152 H   0  0  0  0  0  0  0  0  0  0  0  0
   -5.7914   18.6677  -35.3639 H   0  0  0  0  0  0  0  0  0  0  0  0
  1  2  1  0
  2  3  1  0
  3  4  2  0
  4  5  1  0
  5  6  2  0
  6  7  1  0
  7  8  2  0
  7  9  1  0
  9 10  1  0
 10 11  2  0
 11 12  1  0
 12 13  2  0
 13 14  1  0
 14 15  1  0
 13 16  1  0
 16 17  1  0
 17 18  2  0
 17 19  2  0
 17 20  1  0
 20 21  1  0
 21 22  1  0
 22 23  1  0
 23 24  1  0
 24 25  1  0
 16 26  2  0
  6 27  1  0
 27 28  2  0
 28 29  1  0
 29 30  2  0
 29 31  2  0
 29 32  1  0
 32 33  1  0
 33 34  1  0
 34 35  1  0
 35 36  1  0
 36 37  1  0
 28  3  1  0
 37 32  1  0
 26 10  1  0
 25 20  1  0
  1 38  1  0
  1 39  1  0
  1 40  1  0
  4 41  1  0
  5 42  1  0
  9 43  1  0
 11 44  1  0
 12 45  1  0
 15 46  1  0
 15 47  1  0
 15 48  1  0
 21 49  1  0
 21 50  1  0
 22 51  1  0
 22 52  1  0
 24 53  1  0
 24 54  1  0
 25 55  1  0
 25 56  1  0
 26 57  1  0
 27 58  1  0
 33 59  1  0
 33 60  1  0
 34 61  1  0
 34 62  1  0
 35 63  1  0
 35 64  1  0
 36 65  1  0
 36 66  1  0
 37 67  1  0
 37 68  1  0
M  END
>  <UniqueID>  (4) 
4

>  <SMILES>  (4) 
COc1ccc(C(=O)Nc2ccc(OC)c(S(=O)(=O)N3CCOCC3)c2)cc1S(=O)(=O)N1CCCCC1

>  <Energy>  (4) 
91.13641607917656

>  <Genealogy>  (4) 
COc1ccc(C(=O)Nc2ccc(OC)c(S(=O)(=O)N3CCOCC3)c2)cc1S(=O)(=O)N1CCCCC1 (3D coordinates assigned)
COc1ccc(C(=O)Nc2ccc(OC)c(S(=O)(=O)N3CCOCC3)c2)cc1S(=O)(=O)N1CCCCC1 (nonaromatic ring conformer: 91.13641607917656 kcal/mol)

>  <smiles>  (4) 
COc1ccc(C(=O)Nc2ccc(OC)c(S(=O)(=O)N3CCOCC3)c2)cc1S(=O)(=O)N1CCCCC1

>  <score_type>  (4) 
oracle

>  <origin>  (4) 
adgpu

>  <m_score__min__energy>  (4) 
-10.19

>  <m_primary>  (4) 
energy

$$$$
4:0
     RDKit          3D

 36 38  0  0  0  0  0  0  0  0999 V2000
   -2.5470   20.8360  -27.6140 C   0  0  0  0  0  0  0  0  0  0  0  0
   -2.2190   22.2330  -28.0480 C   0  0  0  0  0  0  0  0  0  0  0  0
   -1.0840   22.8850  -27.5440 C   0  0  0  0  0  0  0  0  0  0  0  0
   -0.7630   24.1720  -27.9770 C   0  0  0  0  0  0  0  0  0  0  0  0
   -1.5660   24.8180  -28.9230 C   0  0  0  0  0  0  0  0  0  0  0  0
   -1.2340   26.1020  -29.3410 O   0  0  0  0  0  0  0  0  0  0  0  0
   -2.6970   24.1760  -29.4470 C   0  0  0  0  0  0  0  0  0  0  0  0
   -3.5010   24.8690  -30.4120 N   0  0  0  0  0  0  0  0  0  0  0  0
   -5.2340   24.9370  -30.4070 S   0  0  0  0  0  0  0  0  0  0  0  0
   -5.6800   26.1350  -31.1970 O   0  0  0  0  0  0  0  0  0  0  0  0
   -5.7180   25.0750  -28.9910 O   0  0  0  0  0  0  0  0  0  0  0  0
   -5.8950   23.4570  -31.0930 C   0  0  0  0  0  0  0  0  0  0  0  0
   -7.2170   23.0650  -30.7730 C   0  0  0  0  0  0  0  0  0  0  0  0
   -7.7580   21.8750  -31.2910 C   0  0  0  0  0  0  0  0  0  0  0  0
   -6.9510   21.1000  -32.1270 C   0  0  0  0  0  0  0  0  0  0  0  0
   -5.6720   21.4850  -32.4440 C   0  0  0  0  0  0  0  0  0  0  0  0
   -5.1090   22.6580  -31.9470 C   0  0  0  0  0  0  0  0  0  0  0  0
   -5.1430   20.5350  -33.2950 C   0  0  0  0  0  0  0  0  0  0  0  0
   -6.1590   19.6010  -33.4520 C   0  0  0  0  0  0  0  0  0  0  0  0
   -6.0690   18.4680  -34.2500 O   0  0  0  0  0  0  0  0  0  0  0  0
   -7.2570   19.9360  -32.7320 N   0  0  0  0  0  0  0  0  0  0  0  0
   -8.5330   19.2260  -32.6960 C   0  0  0  0  0  0  0  0  0  0  0  0
   -3.0120   22.8730  -29.0130 C   0  0  0  0  0  0  0  0  0  0  0  0
   -2.5586   20.7866  -26.5152 H   0  0  0  0  0  0  0  0  0  0  0  0
   -3.5359   20.5535  -28.0042 H   0  0  0  0  0  0  0  0  0  0  0  0
   -1.7872   20.1429  -28.0042 H   0  0  0  0  0  0  0  0  0  0  0  0
   -0.4448   22.3800  -26.8049 H   0  0  0  0  0  0  0  0  0  0  0  0
    0.1248   24.6806  -27.5730 H   0  0  0  0  0  0  0  0  0  0  0  0
   -7.8275   23.6980  -30.1122 H   0  0  0  0  0  0  0  0  0  0  0  0
   -8.7843   21.5643  -31.0456 H   0  0  0  0  0  0  0  0  0  0  0  0
   -4.0828   22.9515  -32.2129 H   0  0  0  0  0  0  0  0  0  0  0  0
   -4.1405   20.5210  -33.7476 H   0  0  0  0  0  0  0  0  0  0  0  0
   -8.8310   19.0602  -31.6502 H   0  0  0  0  0  0  0  0  0  0  0  0
   -9.3012   19.8264  -33.2054 H   0  0  0  0  0  0  0  0  0  0  0  0
   -8.4278   18.2567  -33.2054 H   0  0  0  0  0  0  0  0  0  0  0  0
   -3.8857   22.3537  -29.4336 H   0  0  0  0  0  0  0  0  0  0  0  0
  1  2  1  0
  2  3  2  0
  3  4  1  0
  4  5  2  0
  5  6  1  0
  5  7  1  0
  7  8  1  0
  8  9  1  0
  9 10  2  0
  9 11  2  0
  9 12  1  0
 12 13  2  0
 13 14  1  0
 14 15  2  0
 15 16  1  0
 16 17  2  0
 16 18  1  0
 18 19  2  0
 19 20  1  0
 19 21  1  0
 21 22  1  0
  7 23  2  0
 23  2  1  0
 17 12  1  0
 21 15  1  0
  1 24  1  0
  1 25  1  0
  1 26  1  0
  3 27  1  0
  4 28  1  0
 13 29  1  0
 14 30  1  0
 17 31  1  0
 18 32  1  0
 22 33  1  0
 22 34  1  0
 22 35  1  0
 23 36  1  0
M  CHG  3   6  -1   8  -1  20  -1
M  END
>  <UniqueID>  (5) 
5

>  <SMILES>  (5) 
Cc1ccc([O-])c([N-]S(=O)(=O)c2ccc3c(c2)cc([O-])n3C)c1

>  <Energy>  (5) 
74.69569766740871

>  <Genealogy>  (5) 
Cc1ccc([O-])c([N-]S(=O)(=O)c2ccc3c(c2)cc([O-])n3C)c1 (protonated)
Cc1ccc([O-])c([N-]S(=O)(=O)c2ccc3c(c2)cc([O-])n3C)c1 (3D coordinates assigned)
Cc1ccc([O-])c([N-]S(=O)(=O)c2ccc3c(c2)cc([O-])n3C)c1 (optimized conformer: 74.69569766740871 kcal/mol)

>  <smiles>  (5) 
Cc1ccc(O)c(NS(=O)(=O)c2ccc3c(c2)cc(O)n3C)c1

>  <score_type>  (5) 
oracle

>  <origin>  (5) 
adgpu

>  <m_score__min__energy>  (5) 
-13.44

>  <m_primary>  (5) 
energy

$$$$
5:0
     RDKit          3D

 53 56  0  0  0  0  0  0  0  0999 V2000
   -9.5240   20.4290  -32.3470 C   0  0  0  0  0  0  0  0  0  0  0  0
   -9.2380   21.8250  -32.3410 O   0  0  0  0  0  0  0  0  0  0  0  0
   -8.2270   22.4220  -31.5730 C   0  0  0  0  0  0  0  0  0  0  0  0
   -7.9650   22.0430  -30.2430 C   0  0  0  0  0  0  0  0  0  0  0  0
   -6.9470   22.6710  -29.5180 C   0  0  0  0  0  0  0  0  0  0  0  0
   -6.1870   23.6990  -30.1050 C   0  0  0  0  0  0  0  0  0  0  0  0
   -5.1220   24.3520  -29.4000 N   0  0  0  0  0  0  0  0  0  0  0  0
   -3.8720   24.7690  -29.9590 C   0  0  0  0  0  0  0  0  0  0  0  0
   -3.8670   25.6570  -30.8520 O   0  0  0  0  0  0  0  0  0  0  0  0
   -2.6420   24.1910  -29.5060 N   0  0  0  0  0  0  0  0  0  0  0  0
   -2.0710   22.9640  -29.9810 C   0  0  0  0  0  0  0  0  0  0  0  0
   -1.0760   22.2840  -29.2540 C   0  0  0  0  0  0  0  0  0  0  0  0
   -0.6290   22.7700  -28.0290 O   0  0  0  0  0  0  0  0  0  0  0  0
   -0.5500   21.0890  -29.7420 C   0  0  0  0  0  0  0  0  0  0  0  0
   -1.0200   20.5490  -30.9390 C   0  0  0  0  0  0  0  0  0  0  0  0
   -2.0300   21.1950  -31.6660 C   0  0  0  0  0  0  0  0  0  0  0  0
   -2.5630   20.4890  -33.2020 S   0  0  0  0  0  0  0  0  0  0  0  0
   -3.5940   21.3710  -33.8500 O   0  0  0  0  0  0  0  0  0  0  0  0
   -1.3760   20.3950  -34.1190 O   0  0  0  0  0  0  0  0  0  0  0  0
   -3.2620   18.9120  -32.9670 N   0  0  0  0  0  0  0  0  0  0  0  0
   -4.6130   18.6950  -32.5820 C   0  0  0  0  0  0  0  0  0  0  0  0
   -5.4610   19.5870  -31.9130 C   0  0  0  0  0  0  0  0  0  0  0  0
   -6.7760   19.1830  -31.6360 C   0  0  0  0  0  0  0  0  0  0  0  0
   -7.2270   17.9130  -32.0340 C   0  0  0  0  0  0  0  0  0  0  0  0
   -6.3630   17.0400  -32.7140 C   0  0  0  0  0  0  0  0  0  0  0  0
   -5.0580   17.4610  -32.9740 C   0  0  0  0  0  0  0  0  0  0  0  0
   -3.9950   16.7260  -33.7060 C   0  0  0  0  0  0  0  0  0  0  0  0
   -2.8060   17.7280  -33.7090 C   0  0  2  0  0  0  0  0  0  0  0  0
   -1.5620   17.1170  -33.0610 C   0  0  0  0  0  0  0  0  0  0  0  0
   -2.5730   22.4040  -31.1680 C   0  0  0  0  0  0  0  0  0  0  0  0
   -3.6040   23.0760  -31.8260 O   0  0  0  0  0  0  0  0  0  0  0  0
   -6.4300   24.0520  -31.4360 C   0  0  0  0  0  0  0  0  0  0  0  0
   -7.4490   23.4260  -32.1610 C   0  0  0  0  0  0  0  0  0  0  0  0
   -9.5985   20.0655  -31.3115 H   0  0  0  0  0  0  0  0  0  0  0  0
  -10.4770   20.2522  -32.8671 H   0  0  0  0  0  0  0  0  0  0  0  0
   -8.7173   19.8917  -32.8671 H   0  0  0  0  0  0  0  0  0  0  0  0
   -8.5635   21.2494  -29.7717 H   0  0  0  0  0  0  0  0  0  0  0  0
   -6.7396   22.3595  -28.4836 H   0  0  0  0  0  0  0  0  0  0  0  0
    0.2399   20.5691  -29.1801 H   0  0  0  0  0  0  0  0  0  0  0  0
   -0.5943   19.6075  -31.3162 H   0  0  0  0  0  0  0  0  0  0  0  0
   -5.1038   20.5827  -31.6113 H   0  0  0  0  0  0  0  0  0  0  0  0
   -7.4572   19.8639  -31.1046 H   0  0  0  0  0  0  0  0  0  0  0  0
   -8.2587   17.6024  -31.8124 H   0  0  0  0  0  0  0  0  0  0  0  0
   -6.7071   16.0457  -33.0349 H   0  0  0  0  0  0  0  0  0  0  0  0
   -3.7261   15.7967  -33.1824 H   0  0  0  0  0  0  0  0  0  0  0  0
   -4.3017   16.4182  -34.7166 H   0  0  0  0  0  0  0  0  0  0  0  0
   -2.5167   17.9913  -34.7371 H   0  0  0  0  0  0  0  0  0  0  0  0
   -1.6581   17.1642  -31.9662 H   0  0  0  0  0  0  0  0  0  0  0  0
   -1.4627   16.0676  -33.3754 H   0  0  0  0  0  0  0  0  0  0  0  0
   -0.6708   17.6799  -33.3754 H   0  0  0  0  0  0  0  0  0  0  0  0
   -4.3460   23.5600  -31.3430 H   0  0  0  0  0  0  0  0  0  0  0  0
   -5.8153   24.8276  -31.9162 H   0  0  0  0  0  0  0  0  0  0  0  0
   -7.6407   23.7252  -33.2020 H   0  0  0  0  0  0  0  0  0  0  0  0
  1  2  1  0
  2  3  1  0
  3  4  2  0
  4  5  1  0
  5  6  2  0
  6  7  1  0
  7  8  1  0
  8  9  2  0
  8 10  1  0
 10 11  1  0
 11 12  2  0
 12 13  1  0
 12 14  1  0
 14 15  2  0
 15 16  1  0
 16 17  1  0
 17 18  2  0
 17 19  2  0
 17 20  1  0
 20 21  1  0
 21 22  2  0
 22 23  1  0
 23 24  2  0
 24 25  1  0
 25 26  2  0
 26 27  1  0
 27 28  1  0
 28 29  1  0
 16 30  2  0
 30 31  1  0
  6 32  1  0
 32 33  2  0
 33  3  1  0
 30 11  1  0
 28 20  1  0
 26 21  1  0
  1 34  1  0
  1 35  1  0
  1 36  1  0
  4 37  1  0
  5 38  1  0
 14 39  1  0
 15 40  1  0
 22 41  1  0
 23 42  1  0
 24 43  1  0
 25 44  1  0
 27 45  1  0
 27 46  1  0
 28 47  1  6
 29 48  1  0
 29 49  1  0
 29 50  1  0
 31 51  1  0
 32 52  1  0
 33 53  1  0
M  CHG  3   7  -1  10  -1  13  -1
M  END
>  <UniqueID>  (6) 
6

>  <SMILES>  (6) 
COc1ccc([N-]C(=O)[N-]c2c([O-])ccc(S(=O)(=O)N3c4ccccc4C[C@@H]3C)c2O)cc1

>  <Energy>  (6) 
82.31603376095099

>  <Genealogy>  (6) 
COc1ccc([N-]C(=O)[N-]c2c([O-])ccc(S(=O)(=O)N3c4ccccc4CC3C)c2O)cc1 (protonated)
COc1ccc([N-]C(=O)[N-]c2c([O-])ccc(S(=O)(=O)N3c4ccccc4C[C@@H]3C)c2O)cc1 (chirality)
COc1ccc([N-]C(=O)[N-]c2c([O-])ccc(S(=O)(=O)N3c4ccccc4C[C@@H]3C)c2O)cc1 (3D coordinates assigned)
COc1ccc([N-]C(=O)[N-]c2c([O-])ccc(S(=O)(=O)N3c4ccccc4C[C@@H]3C)c2O)cc1 (nonaromatic ring conformer: 82.31603376095099 kcal/mol)

>  <smiles>  (6) 
COc1ccc(NC(=O)Nc2c(O)ccc(S(=O)(=O)N3c4ccccc4CC3C)c2O)cc1

>  <score_type>  (6) 
oracle

>  <origin>  (6) 
adgpu

>  <m_score__min__energy>  (6) 
-13.49

>  <m_primary>  (6) 
energy

$$$$
6:0
     RDKit          3D

 49 52  0  0  0  0  0  0  0  0999 V2000
   -9.2570   22.2770  -31.3540 C   0  0  0  0  0  0  0  0  0  0  0  0
   -8.0200   21.4490  -31.5490 C   0  0  0  0  0  0  0  0  0  0  0  0
   -6.7670   21.6580  -30.9770 C   0  0  0  0  0  0  0  0  0  0  0  0
   -6.3090   22.7120  -30.1220 N   0  0  0  0  0  0  0  0  0  0  0  0
   -5.1220   23.9050  -30.5420 S   0  0  0  0  0  0  0  0  0  0  0  0
   -5.3310   24.3300  -31.9680 O   0  0  0  0  0  0  0  0  0  0  0  0
   -5.2520   25.0840  -29.6190 O   0  0  0  0  0  0  0  0  0  0  0  0
   -3.5010   23.2190  -30.3930 C   0  0  0  0  0  0  0  0  0  0  0  0
   -2.7470   23.4630  -29.2250 C   0  0  0  0  0  0  0  0  0  0  0  0
   -1.4600   22.9220  -29.0750 C   0  0  0  0  0  0  0  0  0  0  0  0
   -0.9050   22.1310  -30.0850 C   0  0  0  0  0  0  0  0  0  0  0  0
   -1.6580   21.8970  -31.2330 C   0  0  0  0  0  0  0  0  0  0  0  0
   -2.9230   22.4180  -31.4030 C   0  0  0  0  0  0  0  0  0  0  0  0
   -3.4830   22.0170  -32.7150 C   0  0  0  0  0  0  0  0  0  0  0  0
   -4.5990   22.4280  -33.1320 O   0  0  0  0  0  0  0  0  0  0  0  0
   -2.6610   21.1490  -33.5270 N   0  0  2  0  0  0  0  0  0  0  0  0
   -3.3230   19.8580  -33.7400 C   0  0  0  0  0  0  0  0  0  0  0  0
   -1.1940   20.9590  -32.6040 S   0  0  0  0  0  0  0  0  0  0  0  0
   -0.9230   19.5270  -32.2330 O   0  0  0  0  0  0  0  0  0  0  0  0
   -0.0230   21.5680  -33.3220 O   0  0  0  0  0  0  0  0  0  0  0  0
   -6.0160   20.5740  -31.3630 C   0  0  0  0  0  0  0  0  0  0  0  0
   -4.8220   20.3490  -31.0250 O   0  0  0  0  0  0  0  0  0  0  0  0
   -6.7520   19.7690  -32.1530 N   0  0  0  0  0  0  0  0  0  0  0  0
   -6.3140   18.5220  -32.7230 C   0  0  0  0  0  0  0  0  0  0  0  0
   -6.1480   18.3950  -34.1120 C   0  0  0  0  0  0  0  0  0  0  0  0
   -5.7360   17.1770  -34.6620 C   0  0  0  0  0  0  0  0  0  0  0  0
   -5.4920   16.0790  -33.8320 C   0  0  0  0  0  0  0  0  0  0  0  0
   -5.6660   16.1970  -32.4500 C   0  0  0  0  0  0  0  0  0  0  0  0
   -6.0790   17.4120  -31.8960 C   0  0  0  0  0  0  0  0  0  0  0  0
   -7.9630   20.3090  -32.2850 N   0  0  0  0  0  0  0  0  0  0  0  0
   -9.0530   19.7510  -33.0910 C   0  0  0  0  0  0  0  0  0  0  0  0
   -9.4472   22.4043  -30.2781 H   0  0  0  0  0  0  0  0  0  0  0  0
   -9.1155   23.2631  -31.8205 H   0  0  0  0  0  0  0  0  0  0  0  0
  -10.1147   21.7703  -31.8205 H   0  0  0  0  0  0  0  0  0  0  0  0
   -3.1725   24.0841  -28.4230 H   0  0  0  0  0  0  0  0  0  0  0  0
   -0.8858   23.1216  -28.1583 H   0  0  0  0  0  0  0  0  0  0  0  0
    0.1026   21.7035  -29.9757 H   0  0  0  0  0  0  0  0  0  0  0  0
   -2.4510   21.6110  -34.4430 H   0  0  0  0  0  0  0  0  0  0  0  0
   -3.5573   19.4011  -32.7672 H   0  0  0  0  0  0  0  0  0  0  0  0
   -4.2534   20.0120  -34.3063 H   0  0  0  0  0  0  0  0  0  0  0  0
   -2.6550   19.1924  -34.3063 H   0  0  0  0  0  0  0  0  0  0  0  0
   -6.3425   19.2557  -34.7688 H   0  0  0  0  0  0  0  0  0  0  0  0
   -5.6037   17.0828  -35.7499 H   0  0  0  0  0  0  0  0  0  0  0  0
   -5.1634   15.1231  -34.2659 H   0  0  0  0  0  0  0  0  0  0  0  0
   -5.4775   15.3319  -31.7972 H   0  0  0  0  0  0  0  0  0  0  0  0
   -6.2204   17.4988  -30.8086 H   0  0  0  0  0  0  0  0  0  0  0  0
   -9.8332   19.3516  -32.4263 H   0  0  0  0  0  0  0  0  0  0  0  0
   -9.4811   20.5408  -33.7257 H   0  0  0  0  0  0  0  0  0  0  0  0
   -8.6626   18.9419  -33.7257 H   0  0  0  0  0  0  0  0  0  0  0  0
  1  2  1  0
  2  3  2  0
  3  4  1  0
  4  5  1  0
  5  6  2  0
  5  7  2  0
  5  8  1  0
  8  9  2  0
  9 10  1  0
 10 11  2  0
 11 12  1  0
 12 13  2  0
 13 14  1  0
 14 15  2  0
 14 16  1  0
 16 17  1  0
 16 18  1  0
 18 19  2  0
 18 20  2  0
  3 21  1  0
 21 22  2  0
 21 23  1  0
 23 24  1  0
 24 25  2  0
 25 26  1  0
 26 27  2  0
 27 28  1  0
 28 29  2  0
 23 30  1  0
 30 31  1  0
 30  2  1  0
 13  8  1  0
 29 24  1  0
 18 12  1  0
  1 32  1  0
  1 33  1  0
  1 34  1  0
  9 35  1  0
 10 36  1  0
 11 37  1  0
 16 38  1  6
 17 39  1  0
 17 40  1  0
 17 41  1  0
 25 42  1  0
 26 43  1  0
 27 44  1  0
 28 45  1  0
 29 46  1  0
 31 47  1  0
 31 48  1  0
 31 49  1  0
M  CHG  2   4  -1  16   1
M  END
>  <UniqueID>  (7) 
7

>  <SMILES>  (7) 
Cc1c([N-]S(=O)(=O)c2cccc3c2C(=O)[N@H+](C)S3(=O)=O)c(=O)n(-c2ccccc2)n1C

>  <Energy>  (7) 
118.27561860338156

>  <Genealogy>  (7) 
Cc1c([N-]S(=O)(=O)c2cccc3c2C(=O)[NH+](C)S3(=O)=O)c(=O)n(-c2ccccc2)n1C (protonated)
Cc1c([N-]S(=O)(=O)c2cccc3c2C(=O)[N@H+](C)S3(=O)=O)c(=O)n(-c2ccccc2)n1C (chirality)
Cc1c([N-]S(=O)(=O)c2cccc3c2C(=O)[N@H+](C)S3(=O)=O)c(=O)n(-c2ccccc2)n1C (3D coordinates assigned)
Cc1c([N-]S(=O)(=O)c2cccc3c2C(=O)[N@H+](C)S3(=O)=O)c(=O)n(-c2ccccc2)n1C (nonaromatic ring conformer: 118.27561860338156 kcal/mol)

>  <smiles>  (7) 
Cc1c(NS(=O)(=O)c2cccc3c2C(=O)N(C)S3(=O)=O)c(=O)n(-c2ccccc2)n1C

>  <score_type>  (7) 
oracle

>  <origin>  (7) 
adgpu

>  <m_score__min__energy>  (7) 
-10.59

>  <m_primary>  (7) 
energy

$$$$
7:0
     RDKit          3D

 19 20  0  0  0  0  0  0  0  0999 V2000
   -8.4060   21.2600  -31.9740 C   0  0  0  0  0  0  0  0  0  0  0  0
   -7.2960   22.2100  -31.6780 C   0  0  0  0  0  0  0  0  0  0  0  0
   -5.9380   21.8930  -31.6890 C   0  0  0  0  0  0  0  0  0  0  0  0
   -5.1360   22.9740  -31.2930 C   0  0  0  0  0  0  0  0  0  0  0  0
   -3.7380   23.0090  -31.1960 C   0  0  0  0  0  0  0  0  0  0  0  0
   -2.8900   21.8200  -31.5300 C   0  0  0  0  0  0  0  0  0  0  0  0
   -3.1490   24.1700  -30.7820 N   0  0  0  0  0  0  0  0  0  0  0  0
   -3.8640   25.2590  -30.4700 N   0  0  0  0  0  0  0  0  0  0  0  0
   -5.2240   25.2650  -30.5500 C   0  0  0  0  0  0  0  0  0  0  0  0
   -5.8760   26.2990  -30.2480 O   0  0  0  0  0  0  0  0  0  0  0  0
   -5.8610   24.1040  -30.9680 C   0  0  0  0  0  0  0  0  0  0  0  0
   -7.5050   23.8050  -31.1540 S   0  0  0  0  0  0  0  0  0  0  0  0
   -8.8355   20.8924  -31.0304 H   0  0  0  0  0  0  0  0  0  0  0  0
   -9.1848   21.7756  -32.5550 H   0  0  0  0  0  0  0  0  0  0  0  0
   -8.0168   20.4109  -32.5550 H   0  0  0  0  0  0  0  0  0  0  0  0
   -5.5409   20.9080  -31.9754 H   0  0  0  0  0  0  0  0  0  0  0  0
   -2.5482   21.3408  -30.6008 H   0  0  0  0  0  0  0  0  0  0  0  0
   -3.4808   21.1016  -32.1172 H   0  0  0  0  0  0  0  0  0  0  0  0
   -2.0184   22.1446  -32.1172 H   0  0  0  0  0  0  0  0  0  0  0  0
  1  2  1  0
  2  3  2  0
  3  4  1  0
  4  5  1  0
  5  6  1  0
  5  7  2  0
  7  8  1  0
  8  9  1  0
  9 10  2  0
  9 11  1  0
 11 12  1  0
 12  2  1  0
 11  4  2  0
  1 13  1  0
  1 14  1  0
  1 15  1  0
  3 16  1  0
  6 17  1  0
  6 18  1  0
  6 19  1  0
M  CHG  1   8  -1
M  END
>  <UniqueID>  (8) 
8

>  <SMILES>  (8) 
Cc1cc2c(C)n[n-]c(=O)c2s1

>  <Energy>  (8) 
50.67629756961912

>  <Genealogy>  (8) 
Cc1cc2c(C)n[n-]c(=O)c2s1 (protonated)
Cc1cc2c(C)n[n-]c(=O)c2s1 (3D coordinates assigned)
Cc1cc2c(C)n[n-]c(=O)c2s1 (optimized conformer: 50.67629756961912 kcal/mol)

>  <smiles>  (8) 
Cc1cc2c(C)n[nH]c(=O)c2s1

>  <score_type>  (8) 
oracle

>  <origin>  (8) 
adgpu

>  <m_score__min__energy>  (8) 
-7.5700000000000003

>  <m_primary>  (8) 
energy

$$$$
8:0
     RDKit          3D

 49 53  0  0  0  0  0  0  0  0999 V2000
   -5.1530   25.7300  -30.4770 C   0  0  0  0  0  0  0  0  0  0  0  0
   -3.8520   25.1540  -30.4260 O   0  0  0  0  0  0  0  0  0  0  0  0
   -3.5740   23.7850  -30.5710 C   0  0  0  0  0  0  0  0  0  0  0  0
   -4.4400   22.9320  -31.2850 C   0  0  0  0  0  0  0  0  0  0  0  0
   -4.1810   21.5590  -31.3810 C   0  0  0  0  0  0  0  0  0  0  0  0
   -5.0840   20.7150  -32.1150 N   0  0  0  0  0  0  0  0  0  0  0  0
   -6.3640   20.5490  -31.8080 N   0  0  0  0  0  0  0  0  0  0  0  0
   -6.9170   19.6900  -32.6900 C   0  0  0  0  0  0  0  0  0  0  0  0
   -8.3710   19.3460  -32.7200 C   0  0  0  0  0  0  0  0  0  0  0  0
   -5.9470   19.2860  -33.6000 C   0  0  0  0  0  0  0  0  0  0  0  0
   -6.1130   18.4180  -34.8140 C   0  0  0  0  0  0  0  0  0  0  0  0
   -5.4090   17.1040  -34.6150 C   0  0  0  0  0  0  0  0  0  0  0  0
   -6.0530   16.0530  -33.9100 C   0  0  0  0  0  0  0  0  0  0  0  0
   -5.3910   14.8320  -33.6900 C   0  0  0  0  0  0  0  0  0  0  0  0
   -4.0960   14.6970  -34.1770 C   0  0  0  0  0  0  0  0  0  0  0  0
   -3.4720   15.6990  -34.8460 C   0  0  0  0  0  0  0  0  0  0  0  0
   -4.0900   16.9220  -35.0880 C   0  0  0  0  0  0  0  0  0  0  0  0
   -2.2020   15.2910  -35.2080 O   0  0  0  0  0  0  0  0  0  0  0  0
   -2.0180   13.9490  -34.7360 C   0  0  0  0  0  0  0  0  0  0  0  0
   -3.2500   13.6100  -34.0840 O   0  0  0  0  0  0  0  0  0  0  0  0
   -4.8090   19.9570  -33.1970 C   0  0  0  0  0  0  0  0  0  0  0  0
   -3.6730   19.8640  -33.7360 O   0  0  0  0  0  0  0  0  0  0  0  0
   -3.0290   21.0320  -30.7770 C   0  0  0  0  0  0  0  0  0  0  0  0
   -2.7150   19.7200  -30.9100 F   0  0  0  0  0  0  0  0  0  0  0  0
   -2.1600   21.8690  -30.0750 C   0  0  0  0  0  0  0  0  0  0  0  0
   -2.4140   23.2470  -29.9680 C   0  0  0  0  0  0  0  0  0  0  0  0
   -1.4560   24.1020  -29.2250 C   0  0  0  0  0  0  0  0  0  0  0  0
   -0.1750   23.7700  -28.8280 C   0  0  0  0  0  0  0  0  0  0  0  0
    0.3830   24.8270  -28.2100 N   0  0  0  0  0  0  0  0  0  0  0  0
   -0.4890   25.8240  -28.2060 N   0  0  0  0  0  0  0  0  0  0  0  0
   -1.6160   25.4130  -28.8170 C   0  0  0  0  0  0  0  0  0  0  0  0
   -5.5220   25.8934  -29.4537 H   0  0  0  0  0  0  0  0  0  0  0  0
   -5.1075   26.6921  -31.0083 H   0  0  0  0  0  0  0  0  0  0  0  0
   -5.8347   25.0496  -31.0083 H   0  0  0  0  0  0  0  0  0  0  0  0
   -5.3320   23.3508  -31.7738 H   0  0  0  0  0  0  0  0  0  0  0  0
   -6.8590   21.0350  -31.0280 H   0  0  0  0  0  0  0  0  0  0  0  0
   -8.7480   19.2568  -31.6905 H   0  0  0  0  0  0  0  0  0  0  0  0
   -8.9244   20.1380  -33.2458 H   0  0  0  0  0  0  0  0  0  0  0  0
   -8.5108   18.3900  -33.2458 H   0  0  0  0  0  0  0  0  0  0  0  0
   -7.1839   18.2339  -34.9850 H   0  0  0  0  0  0  0  0  0  0  0  0
   -5.6758   18.9307  -35.6835 H   0  0  0  0  0  0  0  0  0  0  0  0
   -7.0767   16.1949  -33.5334 H   0  0  0  0  0  0  0  0  0  0  0  0
   -5.8824   14.0096  -33.1495 H   0  0  0  0  0  0  0  0  0  0  0  0
   -3.5674   17.7231  -35.6312 H   0  0  0  0  0  0  0  0  0  0  0  0
   -1.8258   13.2667  -35.5772 H   0  0  0  0  0  0  0  0  0  0  0  0
   -1.1561   13.8652  -34.0577 H   0  0  0  0  0  0  0  0  0  0  0  0
   -1.2640   21.4441  -29.5990 H   0  0  0  0  0  0  0  0  0  0  0  0
    0.3112   22.7968  -28.9911 H   0  0  0  0  0  0  0  0  0  0  0  0
   -2.5192   26.0226  -28.9674 H   0  0  0  0  0  0  0  0  0  0  0  0
  1  2  1  0
  2  3  1  0
  3  4  2  0
  4  5  1  0
  5  6  1  0
  6  7  1  0
  7  8  1  0
  8  9  1  0
  8 10  2  0
 10 11  1  0
 11 12  1  0
 12 13  2  0
 13 14  1  0
 14 15  2  0
 15 16  1  0
 16 17  2  0
 16 18  1  0
 18 19  1  0
 19 20  1  0
 10 21  1  0
 21 22  2  0
  5 23  2  0
 23 24  1  0
 23 25  1  0
 25 26  2  0
 26 27  1  0
 27 28  1  0
 28 29  2  0
 29 30  1  0
 30 31  1  0
 26  3  1  0
 31 27  2  0
 21  6  1  0
 17 12  1  0
 20 15  1  0
  1 32  1  0
  1 33  1  0
  1 34  1  0
  4 35  1  0
  7 36  1  0
  9 37  1  0
  9 38  1  0
  9 39  1  0
 11 40  1  0
 11 41  1  0
 13 42  1  0
 14 43  1  0
 17 44  1  0
 19 45  1  0
 19 46  1  0
 25 47  1  0
 28 48  1  0
 31 49  1  0
M  CHG  1  30  -1
M  END
>  <UniqueID>  (9) 
9

>  <SMILES>  (9) 
COc1cc(-n2[nH]c(C)c(Cc3ccc4c(c3)OCO4)c2=O)c(F)cc1-c1cn[n-]c1

>  <Energy>  (9) 
151.42625924879172

>  <Genealogy>  (9) 
COc1cc(-n2[nH]c(C)c(Cc3ccc4c(c3)OCO4)c2=O)c(F)cc1-c1cn[n-]c1 (protonated)
COc1cc(-n2[nH]c(C)c(Cc3ccc4c(c3)OCO4)c2=O)c(F)cc1-c1cn[n-]c1 (3D coordinates assigned)
COc1cc(-n2[nH]c(C)c(Cc3ccc4c(c3)OCO4)c2=O)c(F)cc1-c1cn[n-]c1 (nonaromatic ring conformer: 151.42625924879172 kcal/mol)

>  <smiles>  (9) 
COc1cc(-n2[nH]c(C)c(Cc3ccc4c(c3)OCO4)c2=O)c(F)cc1-c1cn[nH]c1

>  <score_type>  (9) 
oracle

>  <origin>  (9) 
adgpu

>  <m_score__min__energy>  (9) 
-9.4800000000000004

>  <m_primary>  (9) 
energy

$$$$
9:0
     RDKit          3D

 55 58  0  0  0  0  0  0  0  0999 V2000
   -8.6360   18.1750  -32.1840 N   0  0  0  0  0  0  0  0  0  0  0  0
   -8.4240   19.3040  -32.0420 C   0  0  0  0  0  0  0  0  0  0  0  0
   -8.1600   20.7090  -31.8660 C   0  0  0  0  0  0  0  0  0  0  0  0
   -9.1800   21.6450  -32.0680 C   0  0  0  0  0  0  0  0  0  0  0  0
   -8.9220   23.0090  -31.8990 C   0  0  0  0  0  0  0  0  0  0  0  0
   -7.6430   23.4400  -31.5340 C   0  0  0  0  0  0  0  0  0  0  0  0
   -6.6150   22.5080  -31.3370 C   0  0  0  0  0  0  0  0  0  0  0  0
   -4.9980   23.0560  -30.9040 S   0  0  0  0  0  0  0  0  0  0  0  0
   -4.9040   24.5380  -31.1340 O   0  0  0  0  0  0  0  0  0  0  0  0
   -4.7230   22.7780  -29.4530 O   0  0  0  0  0  0  0  0  0  0  0  0
   -3.7800   22.2350  -31.8770 C   0  0  0  0  0  0  0  0  0  0  0  0
   -3.9980   21.7060  -33.1330 C   0  0  0  0  0  0  0  0  0  0  0  0
   -2.8330   21.2880  -33.6610 N   0  0  0  0  0  0  0  0  0  0  0  0
   -1.8660   21.5510  -32.7620 C   0  0  0  0  0  0  0  0  0  0  0  0
   -2.4170   22.1290  -31.6340 C   0  0  0  0  0  0  0  0  0  0  0  0
   -1.6580   22.5760  -30.4550 C   0  0  0  0  0  0  0  0  0  0  0  0
   -0.5430   22.0420  -30.2080 O   0  0  0  0  0  0  0  0  0  0  0  0
   -2.1870   23.5870  -29.5830 N   0  0  0  0  0  0  0  0  0  0  0  0
   -1.4450   24.1540  -28.4960 C   0  0  0  0  0  0  0  0  0  0  0  0
   -1.4050   25.5470  -28.3590 C   0  0  0  0  0  0  0  0  0  0  0  0
   -0.7060   26.1370  -27.3050 C   0  0  0  0  0  0  0  0  0  0  0  0
   -0.0480   25.3390  -26.3570 C   0  0  0  0  0  0  0  0  0  0  0  0
    0.6790   25.9420  -25.2700 N   0  0  0  0  0  0  0  0  0  0  0  0
    2.0440   25.5000  -24.9660 C   0  0  0  0  0  0  0  0  0  0  0  0
    2.8240   26.6460  -24.3170 C   0  0  0  0  0  0  0  0  0  0  0  0
    2.1170   27.1710  -23.2070 O   0  0  0  0  0  0  0  0  0  0  0  0
    0.9090   27.7630  -23.6460 C   0  0  0  0  0  0  0  0  0  0  0  0
   -0.0310   26.7090  -24.2410 C   0  0  0  0  0  0  0  0  0  0  0  0
   -0.1040   23.9420  -26.4790 C   0  0  0  0  0  0  0  0  0  0  0  0
   -0.8170   23.3380  -27.5350 C   0  0  0  0  0  0  0  0  0  0  0  0
   -0.9380   21.9430  -27.6470 O   0  0  0  0  0  0  0  0  0  0  0  0
   -1.6320   21.1060  -26.7270 C   0  0  0  0  0  0  0  0  0  0  0  0
   -0.8830   19.9680  -26.4980 F   0  0  0  0  0  0  0  0  0  0  0  0
   -2.8570   20.7380  -27.2550 F   0  0  0  0  0  0  0  0  0  0  0  0
   -6.8790   21.1400  -31.4950 C   0  0  0  0  0  0  0  0  0  0  0  0
  -10.1855   21.3078  -32.3599 H   0  0  0  0  0  0  0  0  0  0  0  0
   -9.7261   23.7436  -32.0534 H   0  0  0  0  0  0  0  0  0  0  0  0
   -7.4431   24.5135  -31.4011 H   0  0  0  0  0  0  0  0  0  0  0  0
   -4.9777   21.6365  -33.6284 H   0  0  0  0  0  0  0  0  0  0  0  0
   -2.7010   20.8590  -34.6040 H   0  0  0  0  0  0  0  0  0  0  0  0
   -0.7963   21.3376  -32.9041 H   0  0  0  0  0  0  0  0  0  0  0  0
   -3.1130   24.0100  -29.8070 H   0  0  0  0  0  0  0  0  0  0  0  0
   -1.9291   26.1818  -29.0886 H   0  0  0  0  0  0  0  0  0  0  0  0
   -0.6708   27.2329  -27.2171 H   0  0  0  0  0  0  0  0  0  0  0  0
    2.0063   24.6454  -24.2744 H   0  0  0  0  0  0  0  0  0  0  0  0
    2.5457   25.1990  -25.8975 H   0  0  0  0  0  0  0  0  0  0  0  0
    3.8007   26.2706  -23.9776 H   0  0  0  0  0  0  0  0  0  0  0  0
    2.9582   27.4461  -25.0598 H   0  0  0  0  0  0  0  0  0  0  0  0
    0.4133   28.2465  -22.7913 H   0  0  0  0  0  0  0  0  0  0  0  0
    1.1431   28.5048  -24.4238 H   0  0  0  0  0  0  0  0  0  0  0  0
   -0.3690   26.0288  -23.4453 H   0  0  0  0  0  0  0  0  0  0  0  0
   -0.9010   27.2083  -24.6925 H   0  0  0  0  0  0  0  0  0  0  0  0
    0.4144   23.3108  -25.7422 H   0  0  0  0  0  0  0  0  0  0  0  0
   -1.7894   21.6540  -25.7863 H   0  0  0  0  0  0  0  0  0  0  0  0
   -6.0792   20.4036  -31.3275 H   0  0  0  0  0  0  0  0  0  0  0  0
  1  2  3  0
  2  3  1  0
  3  4  2  0
  4  5  1  0
  5  6  2  0
  6  7  1  0
  7  8  1  0
  8  9  2  0
  8 10  2  0
  8 11  1  0
 11 12  2  0
 12 13  1  0
 13 14  1  0
 14 15  2  0
 15 16  1  0
 16 17  2  0
 16 18  1  0
 18 19  1  0
 19 20  2  0
 20 21  1  0
 21 22  2  0
 22 23  1  0
 23 24  1  0
 24 25  1  0
 25 26  1  0
 26 27  1  0
 27 28  1  0
 22 29  1  0
 29 30  2  0
 30 31  1  0
 31 32  1  0
 32 33  1  0
 32 34  1  0
  7 35  2  0
 35  3  1  0
 15 11  1  0
 30 19  1  0
 28 23  1  0
  4 36  1  0
  5 37  1  0
  6 38  1  0
 12 39  1  0
 13 40  1  0
 14 41  1  0
 18 42  1  0
 20 43  1  0
 21 44  1  0
 24 45  1  0
 24 46  1  0
 25 47  1  0
 25 48  1  0
 27 49  1  0
 27 50  1  0
 28 51  1  0
 28 52  1  0
 29 53  1  0
 32 54  1  0
 35 55  1  0
M  END
>  <UniqueID>  (10) 
10

>  <SMILES>  (10) 
N#Cc1cccc(S(=O)(=O)c2c[nH]cc2C(=O)Nc2ccc(N3CCOCC3)cc2OC(F)F)c1

>  <Energy>  (10) 
97.70932342907254

>  <Genealogy>  (10) 
N#Cc1cccc(S(=O)(=O)c2c[nH]cc2C(=O)Nc2ccc(N3CCOCC3)cc2OC(F)F)c1 (3D coordinates assigned)
N#Cc1cccc(S(=O)(=O)c2c[nH]cc2C(=O)Nc2ccc(N3CCOCC3)cc2OC(F)F)c1 (nonaromatic ring conformer: 97.70932342907254 kcal/mol)

>  <smiles>  (10) 
N#Cc1cccc(S(=O)(=O)c2c[nH]cc2C(=O)Nc2ccc(N3CCOCC3)cc2OC(F)F)c1

>  <score_type>  (10) 
oracle

>  <origin>  (10) 
adgpu

>  <m_score__min__energy>  (10) 
-9.8300000000000001

>  <m_primary>  (10) 
energy

$$$$
10:0
     RDKit          3D

 45 47  0  0  0  0  0  0  0  0999 V2000
   -4.9670   18.4280  -34.1640 C   0  0  0  0  0  0  0  0  0  0  0  0
   -6.3470   18.6920  -33.9200 O   0  0  0  0  0  0  0  0  0  0  0  0
   -6.8200   19.7290  -33.1020 C   0  0  0  0  0  0  0  0  0  0  0  0
   -8.1530   19.7870  -32.6450 C   0  0  0  0  0  0  0  0  0  0  0  0
   -8.5690   20.8370  -31.8220 C   0  0  0  0  0  0  0  0  0  0  0  0
   -7.6650   21.8320  -31.4460 C   0  0  0  0  0  0  0  0  0  0  0  0
   -6.3410   21.7890  -31.8970 C   0  0  0  0  0  0  0  0  0  0  0  0
   -5.2080   23.0430  -31.3970 S   0  0  0  0  0  0  0  0  0  0  0  0
   -3.9060   22.9200  -32.1370 O   0  0  0  0  0  0  0  0  0  0  0  0
   -5.8060   24.3870  -31.6990 O   0  0  0  0  0  0  0  0  0  0  0  0
   -4.9080   22.9240  -29.6920 N   0  0  0  0  0  0  0  0  0  0  0  0
   -3.6740   23.2590  -29.0380 C   0  0  0  0  0  0  0  0  0  0  0  0
   -3.1190   22.4310  -28.0450 C   0  0  0  0  0  0  0  0  0  0  0  0
   -1.8950   22.7550  -27.4280 C   0  0  0  0  0  0  0  0  0  0  0  0
   -1.2690   23.9740  -27.7600 C   0  0  0  0  0  0  0  0  0  0  0  0
   -1.8130   24.7930  -28.7610 C   0  0  0  0  0  0  0  0  0  0  0  0
   -3.0040   24.4400  -29.4000 C   0  0  0  0  0  0  0  0  0  0  0  0
   -3.5030   25.2800  -30.3960 O   0  0  0  0  0  0  0  0  0  0  0  0
    0.0080   24.3700  -27.0760 C   0  0  0  0  0  0  0  0  0  0  0  0
    0.0090   23.8610  -25.6370 C   0  0  0  0  0  0  0  0  0  0  0  0
   -0.1660   22.3410  -25.6040 C   0  0  0  0  0  0  0  0  0  0  0  0
   -1.3040   21.8890  -26.4240 N   0  0  0  0  0  0  0  0  0  0  0  0
   -1.6610   20.4960  -26.3240 C   0  0  0  0  0  0  0  0  0  0  0  0
   -1.6100   19.5930  -27.5170 C   0  0  0  0  0  0  0  0  0  0  0  0
   -1.9580   20.0060  -25.2020 O   0  0  0  0  0  0  0  0  0  0  0  0
   -5.9260   20.7380  -32.7290 C   0  0  0  0  0  0  0  0  0  0  0  0
   -4.4379   18.3268  -33.2049 H   0  0  0  0  0  0  0  0  0  0  0  0
   -4.8681   17.4946  -34.7376 H   0  0  0  0  0  0  0  0  0  0  0  0
   -4.5306   19.2589  -34.7376 H   0  0  0  0  0  0  0  0  0  0  0  0
   -8.8674   19.0033  -32.9373 H   0  0  0  0  0  0  0  0  0  0  0  0
   -9.6103   20.8795  -31.4700 H   0  0  0  0  0  0  0  0  0  0  0  0
   -7.9947   22.6532  -30.7926 H   0  0  0  0  0  0  0  0  0  0  0  0
   -3.6499   21.5153  -27.7455 H   0  0  0  0  0  0  0  0  0  0  0  0
   -1.2968   25.7218  -29.0453 H   0  0  0  0  0  0  0  0  0  0  0  0
   -3.8140   24.9310  -31.2940 H   0  0  0  0  0  0  0  0  0  0  0  0
    0.8611   23.9347  -27.6170 H   0  0  0  0  0  0  0  0  0  0  0  0
    0.0898   25.4669  -27.0711 H   0  0  0  0  0  0  0  0  0  0  0  0
    0.9645   24.1255  -25.1605 H   0  0  0  0  0  0  0  0  0  0  0  0
   -0.8276   24.3265  -25.0953 H   0  0  0  0  0  0  0  0  0  0  0  0
    0.7527   21.8712  -25.9851 H   0  0  0  0  0  0  0  0  0  0  0  0
   -0.3658   22.0487  -24.5625 H   0  0  0  0  0  0  0  0  0  0  0  0
   -1.5509   18.5467  -27.1826 H   0  0  0  0  0  0  0  0  0  0  0  0
   -2.5175   19.7338  -28.1225 H   0  0  0  0  0  0  0  0  0  0  0  0
   -0.7241   19.8350  -28.1225 H   0  0  0  0  0  0  0  0  0  0  0  0
   -4.8878   20.7073  -33.0913 H   0  0  0  0  0  0  0  0  0  0  0  0
  1  2  1  0
  2  3  1  0
  3  4  2  0
  4  5  1  0
  5  6  2  0
  6  7  1  0
  7  8  1  0
  8  9  2  0
  8 10  2  0
  8 11  1  0
 11 12  1  0
 12 13  2  0
 13 14  1  0
 14 15  2  0
 15 16  1  0
 16 17  2  0
 17 18  1  0
 15 19  1  0
 19 20  1  0
 20 21  1  0
 21 22  1  0
 22 23  1  0
 23 24  1  0
 23 25  2  0
  7 26  2  0
 26  3  1  0
 17 12  1  0
 22 14  1  0
  1 27  1  0
  1 28  1  0
  1 29  1  0
  4 30  1  0
  5 31  1  0
  6 32  1  0
 13 33  1  0
 16 34  1  0
 18 35  1  0
 19 36  1  0
 19 37  1  0
 20 38  1  0
 20 39  1  0
 21 40  1  0
 21 41  1  0
 24 42  1  0
 24 43  1  0
 24 44  1  0
 26 45  1  0
M  CHG  1  11  -1
M  END
>  <UniqueID>  (11) 
11

>  <SMILES>  (11) 
COc1cccc(S(=O)(=O)[N-]c2cc3c(cc2O)CCCN3C(C)=O)c1

>  <Energy>  (11) 
53.93735758887413

>  <Genealogy>  (11) 
COc1cccc(S(=O)(=O)[N-]c2cc3c(cc2O)CCCN3C(C)=O)c1 (protonated)
COc1cccc(S(=O)(=O)[N-]c2cc3c(cc2O)CCCN3C(C)=O)c1 (3D coordinates assigned)
COc1cccc(S(=O)(=O)[N-]c2cc3c(cc2O)CCCN3C(C)=O)c1 (nonaromatic ring conformer: 53.93735758887413 kcal/mol)

>  <smiles>  (11) 
COc1cccc(S(=O)(=O)Nc2cc3c(cc2O)CCCN3C(C)=O)c1

>  <score_type>  (11) 
oracle

>  <origin>  (11) 
adgpu

>  <m_score__min__energy>  (11) 
-9.7799999999999994

>  <m_primary>  (11) 
energy

$$$$
11:0
     RDKit          3D

 49 52  0  0  0  0  0  0  0  0999 V2000
   -2.0000   18.3380  -32.3150 O   0  0  0  0  0  0  0  0  0  0  0  0
   -3.0800   18.8910  -33.2030 S   0  0  0  0  0  0  0  0  0  0  0  0
   -2.4420   19.2340  -34.5210 O   0  0  0  0  0  0  0  0  0  0  0  0
   -3.7120   20.3760  -32.4830 C   0  0  0  0  0  0  0  0  0  0  0  0
   -3.8240   20.4970  -31.0930 C   0  0  0  0  0  0  0  0  0  0  0  0
   -4.3150   21.6740  -30.5220 C   0  0  0  0  0  0  0  0  0  0  0  0
   -4.7120   22.7510  -31.3330 C   0  0  0  0  0  0  0  0  0  0  0  0
   -5.2060   23.9640  -30.7300 N   0  0  0  0  0  0  0  0  0  0  0  0
   -6.3020   24.1480  -29.9690 C   0  0  0  0  0  0  0  0  0  0  0  0
   -6.4040   25.4440  -29.6230 N   0  0  0  0  0  0  0  0  0  0  0  0
   -5.3600   26.0390  -30.1820 N   0  0  0  0  0  0  0  0  0  0  0  0
   -4.6390   25.1530  -30.8490 N   0  0  0  0  0  0  0  0  0  0  0  0
   -4.6250   22.6140  -32.7310 C   0  0  0  0  0  0  0  0  0  0  0  0
   -4.1360   21.4350  -33.2990 C   0  0  0  0  0  0  0  0  0  0  0  0
   -4.3220   17.6650  -33.4270 N   0  0  0  0  0  0  0  0  0  0  0  0
   -3.7790   16.4590  -34.1020 C   0  0  0  0  0  0  0  0  0  0  0  0
   -3.6420   15.2740  -33.1700 C   0  0  0  0  0  0  0  0  0  0  0  0
   -2.4020   14.6280  -33.0170 C   0  0  0  0  0  0  0  0  0  0  0  0
   -2.2730   13.5420  -32.1470 C   0  0  0  0  0  0  0  0  0  0  0  0
   -3.3750   13.0990  -31.4100 C   0  0  0  0  0  0  0  0  0  0  0  0
   -4.6050   13.7490  -31.5360 C   0  0  0  0  0  0  0  0  0  0  0  0
   -4.7380   14.8360  -32.4060 C   0  0  0  0  0  0  0  0  0  0  0  0
   -5.4640   18.2020  -34.2080 C   0  0  0  0  0  0  0  0  0  0  0  0
   -6.6080   18.6750  -33.3350 C   0  0  0  0  0  0  0  0  0  0  0  0
   -7.2100   17.7970  -32.4170 C   0  0  0  0  0  0  0  0  0  0  0  0
   -8.2570   18.2360  -31.6010 C   0  0  0  0  0  0  0  0  0  0  0  0
   -8.6970   19.5600  -31.6760 C   0  0  0  0  0  0  0  0  0  0  0  0
   -8.0820   20.4500  -32.5600 C   0  0  0  0  0  0  0  0  0  0  0  0
   -7.0360   20.0150  -33.3800 C   0  0  0  0  0  0  0  0  0  0  0  0
   -3.5235   19.6599  -30.4458 H   0  0  0  0  0  0  0  0  0  0  0  0
   -4.3915   21.7584  -29.4279 H   0  0  0  0  0  0  0  0  0  0  0  0
   -7.0077   23.3573  -29.6746 H   0  0  0  0  0  0  0  0  0  0  0  0
   -4.9445   23.4416  -33.3814 H   0  0  0  0  0  0  0  0  0  0  0  0
   -4.0832   21.3366  -34.3933 H   0  0  0  0  0  0  0  0  0  0  0  0
   -4.6640   17.3910  -32.4800 H   0  0  0  0  0  0  0  0  0  0  0  0
   -4.4553   16.1825  -34.9243 H   0  0  0  0  0  0  0  0  0  0  0  0
   -2.7722   16.7101  -34.4671 H   0  0  0  0  0  0  0  0  0  0  0  0
   -1.5285   14.9797  -33.5856 H   0  0  0  0  0  0  0  0  0  0  0  0
   -1.3025   13.0349  -32.0420 H   0  0  0  0  0  0  0  0  0  0  0  0
   -3.2737   12.2392  -30.7314 H   0  0  0  0  0  0  0  0  0  0  0  0
   -5.4703   13.4054  -30.9501 H   0  0  0  0  0  0  0  0  0  0  0  0
   -5.7059   15.3513  -32.4930 H   0  0  0  0  0  0  0  0  0  0  0  0
   -5.1084   19.0511  -34.8102 H   0  0  0  0  0  0  0  0  0  0  0  0
   -5.8462   17.3842  -34.8365 H   0  0  0  0  0  0  0  0  0  0  0  0
   -6.8553   16.7586  -32.3402 H   0  0  0  0  0  0  0  0  0  0  0  0
   -8.7353   17.5376  -30.8985 H   0  0  0  0  0  0  0  0  0  0  0  0
   -9.5268   19.9013  -31.0396 H   0  0  0  0  0  0  0  0  0  0  0  0
   -8.4212   21.4951  -32.6112 H   0  0  0  0  0  0  0  0  0  0  0  0
   -6.5454   20.7236  -34.0635 H   0  0  0  0  0  0  0  0  0  0  0  0
  1  2  2  0
  2  3  2  0
  2  4  1  0
  4  5  2  0
  5  6  1  0
  6  7  2  0
  7  8  1  0
  8  9  1  0
  9 10  2  0
 10 11  1  0
 11 12  2  0
  7 13  1  0
 13 14  2  0
  2 15  1  0
 15 16  1  0
 16 17  1  0
 17 18  2  0
 18 19  1  0
 19 20  2  0
 20 21  1  0
 21 22  2  0
 15 23  1  0
 23 24  1  0
 24 25  2  0
 25 26  1  0
 26 27  2  0
 27 28  1  0
 28 29  2  0
 14  4  1  0
 22 17  1  0
 29 24  1  0
 12  8  1  0
  5 30  1  0
  6 31  1  0
  9 32  1  0
 13 33  1  0
 14 34  1  0
 15 35  1  0
 16 36  1  0
 16 37  1  0
 18 38  1  0
 19 39  1  0
 20 40  1  0
 21 41  1  0
 22 42  1  0
 23 43  1  0
 23 44  1  0
 25 45  1  0
 26 46  1  0
 27 47  1  0
 28 48  1  0
 29 49  1  0
M  CHG  1  15   1
M  END
>  <UniqueID>  (12) 
12

>  <SMILES>  (12) 
O=S(=O)(c1ccc(-n2cnnn2)cc1)[NH+](Cc1ccccc1)Cc1ccccc1

>  <Energy>  (12) 
97.44321388561495

>  <Genealogy>  (12) 
O=S(=O)(c1ccc(-n2cnnn2)cc1)[NH+](Cc1ccccc1)Cc1ccccc1 (protonated)
O=S(=O)(c1ccc(-n2cnnn2)cc1)[NH+](Cc1ccccc1)Cc1ccccc1 (3D coordinates assigned)
O=S(=O)(c1ccc(-n2cnnn2)cc1)[NH+](Cc1ccccc1)Cc1ccccc1 (optimized conformer: 97.44321388561495 kcal/mol)

>  <smiles>  (12) 
O=S(=O)(c1ccc(-n2cnnn2)cc1)N(Cc1ccccc1)Cc1ccccc1

>  <score_type>  (12) 
oracle

>  <origin>  (12) 
adgpu

>  <m_score__min__energy>  (12) 
-9.1500000000000004

>  <m_primary>  (12) 
energy

$$$$
12:0
     RDKit          3D

 52 55  0  0  0  0  0  0  0  0999 V2000
    0.7700   19.8050  -29.1630 C   0  0  0  0  0  0  0  0  0  0  0  0
   -0.5090   20.0920  -28.5160 N   0  0  0  0  0  0  0  0  0  0  0  0
   -1.2330   19.2810  -27.7050 C   0  0  0  0  0  0  0  0  0  0  0  0
   -0.8470   18.1370  -27.3400 O   0  0  0  0  0  0  0  0  0  0  0  0
   -2.4130   19.8290  -27.3220 N   0  0  0  0  0  0  0  0  0  0  0  0
   -3.3750   19.2930  -26.3610 C   0  0  0  0  0  0  0  0  0  0  0  0
   -2.4200   21.0410  -27.9150 C   0  0  0  0  0  0  0  0  0  0  0  0
   -3.3810   22.0480  -27.8320 C   0  0  0  0  0  0  0  0  0  0  0  0
   -3.1550   23.2430  -28.5540 C   0  0  0  0  0  0  0  0  0  0  0  0
   -4.0950   24.3220  -28.5200 N   0  0  0  0  0  0  0  0  0  0  0  0
   -5.0580   24.8130  -29.8800 S   0  0  0  0  0  0  0  0  0  0  0  0
   -6.1190   25.7670  -29.4060 O   0  0  0  0  0  0  0  0  0  0  0  0
   -4.1810   25.5330  -30.8670 O   0  0  0  0  0  0  0  0  0  0  0  0
   -5.8430   23.4380  -30.6500 C   0  0  0  0  0  0  0  0  0  0  0  0
   -7.2430   23.3580  -30.6790 C   0  0  0  0  0  0  0  0  0  0  0  0
   -7.8720   22.2270  -31.2050 C   0  0  0  0  0  0  0  0  0  0  0  0
   -7.1060   21.1640  -31.7060 C   0  0  0  0  0  0  0  0  0  0  0  0
   -7.8940   19.6960  -32.2760 S   0  0  0  0  0  0  0  0  0  0  0  0
   -8.8410   20.0400  -33.3910 O   0  0  0  0  0  0  0  0  0  0  0  0
   -8.6810   19.0740  -31.1550 O   0  0  0  0  0  0  0  0  0  0  0  0
   -6.6780   18.5910  -32.8620 N   0  0  0  0  0  0  0  0  0  0  0  0
   -6.1370   19.0060  -34.1580 C   0  0  0  0  0  0  0  0  0  0  0  0
   -5.6770   17.7380  -34.8680 C   0  0  0  0  0  0  0  0  0  0  0  0
   -6.3330   16.5870  -34.1160 C   0  0  0  0  0  0  0  0  0  0  0  0
   -7.2170   17.2470  -33.0710 C   0  0  0  0  0  0  0  0  0  0  0  0
   -5.7080   21.2470  -31.6850 C   0  0  0  0  0  0  0  0  0  0  0  0
   -5.0780   22.3800  -31.1650 C   0  0  0  0  0  0  0  0  0  0  0  0
   -1.9520   23.4060  -29.2840 C   0  0  0  0  0  0  0  0  0  0  0  0
   -1.0000   22.3710  -29.3460 C   0  0  0  0  0  0  0  0  0  0  0  0
   -1.2720   21.1960  -28.6470 C   0  0  0  0  0  0  0  0  0  0  0  0
    1.5387   19.6325  -28.3953 H   0  0  0  0  0  0  0  0  0  0  0  0
    0.6702   18.9069  -29.7903 H   0  0  0  0  0  0  0  0  0  0  0  0
    1.0635   20.6596  -29.7903 H   0  0  0  0  0  0  0  0  0  0  0  0
   -3.0207   19.4904  -25.3385 H   0  0  0  0  0  0  0  0  0  0  0  0
   -4.3513   19.7772  -26.5106 H   0  0  0  0  0  0  0  0  0  0  0  0
   -3.4770   18.2080  -26.5106 H   0  0  0  0  0  0  0  0  0  0  0  0
   -4.2877   21.9169  -27.2232 H   0  0  0  0  0  0  0  0  0  0  0  0
   -7.8477   24.1887  -30.2862 H   0  0  0  0  0  0  0  0  0  0  0  0
   -8.9703   22.1699  -31.2264 H   0  0  0  0  0  0  0  0  0  0  0  0
   -5.9010   18.5470  -32.1610 H   0  0  0  0  0  0  0  0  0  0  0  0
   -6.9152   19.5104  -34.7495 H   0  0  0  0  0  0  0  0  0  0  0  0
   -5.3033   19.7122  -34.0305 H   0  0  0  0  0  0  0  0  0  0  0  0
   -6.0034   17.7461  -35.9184 H   0  0  0  0  0  0  0  0  0  0  0  0
   -4.5806   17.6489  -34.8728 H   0  0  0  0  0  0  0  0  0  0  0  0
   -6.9371   15.9734  -34.8005 H   0  0  0  0  0  0  0  0  0  0  0  0
   -5.5895   15.9159  -33.6613 H   0  0  0  0  0  0  0  0  0  0  0  0
   -8.2543   17.3052  -33.4323 H   0  0  0  0  0  0  0  0  0  0  0  0
   -7.2246   16.6707  -32.1341 H   0  0  0  0  0  0  0  0  0  0  0  0
   -5.1039   20.4167  -32.0795 H   0  0  0  0  0  0  0  0  0  0  0  0
   -3.9798   22.4432  -31.1591 H   0  0  0  0  0  0  0  0  0  0  0  0
   -1.7594   24.3533  -29.8090 H   0  0  0  0  0  0  0  0  0  0  0  0
   -0.0727   22.4855  -29.9265 H   0  0  0  0  0  0  0  0  0  0  0  0
  1  2  1  0
  2  3  1  0
  3  4  2  0
  3  5  1  0
  5  6  1  0
  5  7  1  0
  7  8  2  0
  8  9  1  0
  9 10  1  0
 10 11  1  0
 11 12  2  0
 11 13  2  0
 11 14  1  0
 14 15  2  0
 15 16  1  0
 16 17  2  0
 17 18  1  0
 18 19  2  0
 18 20  2  0
 18 21  1  0
 21 22  1  0
 22 23  1  0
 23 24  1  0
 24 25  1  0
 17 26  1  0
 26 27  2  0
  9 28  2  0
 28 29  1  0
 29 30  2  0
 30  2  1  0
 30  7  1  0
 27 14  1  0
 25 21  1  0
  1 31  1  0
  1 32  1  0
  1 33  1  0
  6 34  1  0
  6 35  1  0
  6 36  1  0
  8 37  1  0
 15 38  1  0
 16 39  1  0
 21 40  1  0
 22 41  1  0
 22 42  1  0
 23 43  1  0
 23 44  1  0
 24 45  1  0
 24 46  1  0
 25 47  1  0
 25 48  1  0
 26 49  1  0
 27 50  1  0
 28 51  1  0
 29 52  1  0
M  CHG  2  10  -1  21   1
M  END
>  <UniqueID>  (13) 
13

>  <SMILES>  (13) 
Cn1c(=O)n(C)c2cc([N-]S(=O)(=O)c3ccc(S(=O)(=O)[NH+]4CCCC4)cc3)ccc21

>  <Energy>  (13) 
101.33607114331222

>  <Genealogy>  (13) 
Cn1c(=O)n(C)c2cc([N-]S(=O)(=O)c3ccc(S(=O)(=O)[NH+]4CCCC4)cc3)ccc21 (protonated)
Cn1c(=O)n(C)c2cc([N-]S(=O)(=O)c3ccc(S(=O)(=O)[NH+]4CCCC4)cc3)ccc21 (3D coordinates assigned)
Cn1c(=O)n(C)c2cc([N-]S(=O)(=O)c3ccc(S(=O)(=O)[NH+]4CCCC4)cc3)ccc21 (nonaromatic ring conformer: 101.33607114331222 kcal/mol)

>  <smiles>  (13) 
Cn1c(=O)n(C)c2cc(NS(=O)(=O)c3ccc(S(=O)(=O)N4CCCC4)cc3)ccc21

>  <score_type>  (13) 
oracle

>  <origin>  (13) 
adgpu

>  <m_score__min__energy>  (13) 
-10.99

>  <m_primary>  (13) 
energy

$$$$
13:0
     RDKit          3D

 50 53  0  0  0  0  0  0  0  0999 V2000
    0.7680   24.0950  -25.0640 C   0  0  0  0  0  0  0  0  0  0  0  0
   -0.1140   24.0070  -26.2810 C   0  0  0  0  0  0  0  0  0  0  0  0
   -0.6020   22.7460  -26.6560 C   0  0  0  0  0  0  0  0  0  0  0  0
   -1.3970   22.5970  -27.7910 C   0  0  0  0  0  0  0  0  0  0  0  0
   -1.7060   23.7020  -28.5850 C   0  0  0  0  0  0  0  0  0  0  0  0
   -2.5090   23.5120  -29.7570 N   0  0  0  0  0  0  0  0  0  0  0  0
   -3.7640   24.1820  -29.9570 C   0  0  0  0  0  0  0  0  0  0  0  0
   -4.3070   24.8130  -29.0100 O   0  0  0  0  0  0  0  0  0  0  0  0
   -4.4390   24.1190  -31.2190 N   0  0  0  0  0  0  0  0  0  0  0  0
   -5.0530   22.9520  -31.7800 C   0  0  0  0  0  0  0  0  0  0  0  0
   -4.2430   22.0210  -32.4740 C   0  0  0  0  0  0  0  0  0  0  0  0
   -4.7950   20.8460  -33.0150 C   0  0  0  0  0  0  0  0  0  0  0  0
   -6.1620   20.6290  -32.8380 C   0  0  0  0  0  0  0  0  0  0  0  0
   -6.9480   21.5130  -32.1480 C   0  0  0  0  0  0  0  0  0  0  0  0
   -6.4280   22.6800  -31.5880 C   0  0  0  0  0  0  0  0  0  0  0  0
   -8.2070   21.0350  -32.0840 N   0  0  0  0  0  0  0  0  0  0  0  0
   -9.3440   21.6010  -31.3610 C   0  0  0  0  0  0  0  0  0  0  0  0
   -8.1410   19.8430  -32.7290 C   0  0  0  0  0  0  0  0  0  0  0  0
   -9.1210   19.0560  -32.8370 O   0  0  0  0  0  0  0  0  0  0  0  0
   -6.9070   19.5750  -33.2240 N   0  0  0  0  0  0  0  0  0  0  0  0
   -6.4580   18.3570  -33.8920 C   0  0  0  0  0  0  0  0  0  0  0  0
   -1.2700   24.9820  -28.1990 C   0  0  0  0  0  0  0  0  0  0  0  0
   -1.6350   26.0820  -28.9700 O   0  0  0  0  0  0  0  0  0  0  0  0
   -0.4880   25.1530  -27.0350 C   0  0  0  0  0  0  0  0  0  0  0  0
    0.0430   26.7900  -26.5730 S   0  0  0  0  0  0  0  0  0  0  0  0
    1.4850   26.7640  -26.1470 O   0  0  0  0  0  0  0  0  0  0  0  0
   -0.0660   27.7310  -27.7400 O   0  0  0  0  0  0  0  0  0  0  0  0
   -0.9510   27.3440  -25.1880 C   0  0  0  0  0  0  0  0  0  0  0  0
   -1.0720   26.3180  -24.0740 C   0  0  0  0  0  0  0  0  0  0  0  0
   -0.2160   27.5580  -23.8750 C   0  0  0  0  0  0  0  0  0  0  0  0
    0.1486   24.0332  -24.1570 H   0  0  0  0  0  0  0  0  0  0  0  0
    1.4891   23.2643  -25.0729 H   0  0  0  0  0  0  0  0  0  0  0  0
    1.3107   25.0518  -25.0729 H   0  0  0  0  0  0  0  0  0  0  0  0
   -0.3541   21.8643  -26.0468 H   0  0  0  0  0  0  0  0  0  0  0  0
   -1.7828   21.6032  -28.0622 H   0  0  0  0  0  0  0  0  0  0  0  0
   -2.0870   22.9770  -30.5490 H   0  0  0  0  0  0  0  0  0  0  0  0
   -3.1674   22.2193  -32.5917 H   0  0  0  0  0  0  0  0  0  0  0  0
   -4.1702   20.1225  -33.5593 H   0  0  0  0  0  0  0  0  0  0  0  0
   -7.0673   23.3675  -31.0148 H   0  0  0  0  0  0  0  0  0  0  0  0
   -9.1700   21.5144  -30.2783 H   0  0  0  0  0  0  0  0  0  0  0  0
   -9.4587   22.6614  -31.6303 H   0  0  0  0  0  0  0  0  0  0  0  0
  -10.2592   21.0533  -31.6303 H   0  0  0  0  0  0  0  0  0  0  0  0
   -6.1811   17.6059  -33.1376 H   0  0  0  0  0  0  0  0  0  0  0  0
   -7.2700   17.9631  -34.5209 H   0  0  0  0  0  0  0  0  0  0  0  0
   -5.5846   18.5844  -34.5209 H   0  0  0  0  0  0  0  0  0  0  0  0
   -1.6447   27.9545  -25.7847 H   0  0  0  0  0  0  0  0  0  0  0  0
   -2.0197   26.2102  -23.5261 H   0  0  0  0  0  0  0  0  0  0  0  0
   -0.9019   25.2343  -23.9929 H   0  0  0  0  0  0  0  0  0  0  0  0
   -0.5442   28.3478  -23.1833 H   0  0  0  0  0  0  0  0  0  0  0  0
    0.8302   27.7436  -23.5904 H   0  0  0  0  0  0  0  0  0  0  0  0
  1  2  1  0
  2  3  2  0
  3  4  1  0
  4  5  2  0
  5  6  1  0
  6  7  1  0
  7  8  2  0
  7  9  1  0
  9 10  1  0
 10 11  2  0
 11 12  1  0
 12 13  2  0
 13 14  1  0
 14 15  2  0
 14 16  1  0
 16 17  1  0
 16 18  1  0
 18 19  2  0
 18 20  1  0
 20 21  1  0
  5 22  1  0
 22 23  1  0
 22 24  2  0
 24 25  1  0
 25 26  2  0
 25 27  2  0
 25 28  1  0
 28 29  1  0
 29 30  1  0
 24  2  1  0
 30 28  1  0
 15 10  1  0
 20 13  1  0
  1 31  1  0
  1 32  1  0
  1 33  1  0
  3 34  1  0
  4 35  1  0
  6 36  1  0
 11 37  1  0
 12 38  1  0
 15 39  1  0
 17 40  1  0
 17 41  1  0
 17 42  1  0
 21 43  1  0
 21 44  1  0
 21 45  1  0
 28 46  1  0
 29 47  1  0
 29 48  1  0
 30 49  1  0
 30 50  1  0
M  CHG  2   9  -1  23  -1
M  END
>  <UniqueID>  (14) 
14

>  <SMILES>  (14) 
Cc1ccc(NC(=O)[N-]c2ccc3c(c2)n(C)c(=O)n3C)c([O-])c1S(=O)(=O)C1CC1

>  <Energy>  (14) 
369.49742785323707

>  <Genealogy>  (14) 
Cc1ccc(NC(=O)[N-]c2ccc3c(c2)n(C)c(=O)n3C)c([O-])c1S(=O)(=O)C1CC1 (protonated)
Cc1ccc(NC(=O)[N-]c2ccc3c(c2)n(C)c(=O)n3C)c([O-])c1S(=O)(=O)C1CC1 (3D coordinates assigned)
Cc1ccc(NC(=O)[N-]c2ccc3c(c2)n(C)c(=O)n3C)c([O-])c1S(=O)(=O)C1CC1 (nonaromatic ring conformer: 369.49742785323707 kcal/mol)

>  <smiles>  (14) 
Cc1ccc(NC(=O)Nc2ccc3c(c2)n(C)c(=O)n3C)c(O)c1S(=O)(=O)C1CC1

>  <score_type>  (14) 
oracle

>  <origin>  (14) 
adgpu

>  <m_score__min__energy>  (14) 
-13.6

>  <m_primary>  (14) 
energy

$$$$
14:0
     RDKit          3D

 44 47  0  0  0  0  0  0  0  0999 V2000
   -8.1100   19.6500  -32.1830 C   0  0  0  0  0  0  0  0  0  0  0  0
   -7.5310   21.0360  -32.0590 C   0  0  0  0  0  0  0  0  0  0  0  0
   -8.4010   22.0940  -31.7630 C   0  0  0  0  0  0  0  0  0  0  0  0
   -7.9240   23.3930  -31.6230 C   0  0  0  0  0  0  0  0  0  0  0  0
   -6.5610   23.6710  -31.7890 C   0  0  0  0  0  0  0  0  0  0  0  0
   -6.0520   25.0010  -31.6050 N   0  0  0  0  0  0  0  0  0  0  0  0
   -5.2810   25.4650  -30.4910 C   0  0  0  0  0  0  0  0  0  0  0  0
   -5.8690   26.0590  -29.5490 O   0  0  0  0  0  0  0  0  0  0  0  0
   -3.8640   25.2510  -30.4470 N   0  0  0  0  0  0  0  0  0  0  0  0
   -3.1640   24.2850  -29.6490 C   0  0  0  0  0  0  0  0  0  0  0  0
   -3.7550   23.0510  -29.2720 C   0  0  0  0  0  0  0  0  0  0  0  0
   -3.0320   22.1170  -28.5090 C   0  0  0  0  0  0  0  0  0  0  0  0
   -1.7220   22.4240  -28.1430 C   0  0  0  0  0  0  0  0  0  0  0  0
   -1.1470   23.6090  -28.5280 C   0  0  0  0  0  0  0  0  0  0  0  0
   -1.8320   24.5560  -29.2860 C   0  0  0  0  0  0  0  0  0  0  0  0
    0.1980   23.6110  -28.0130 C   0  0  0  0  0  0  0  0  0  0  0  0
    1.0400   24.5340  -28.1630 O   0  0  0  0  0  0  0  0  0  0  0  0
    0.4590   22.4090  -27.2980 N   0  0  0  0  0  0  0  0  0  0  0  0
   -0.7580   21.5920  -27.3480 C   0  0  0  0  0  0  0  0  0  0  0  0
   -5.6680   22.6190  -32.0730 C   0  0  0  0  0  0  0  0  0  0  0  0
   -4.3000   22.8790  -32.1850 O   0  0  0  0  0  0  0  0  0  0  0  0
   -6.1480   21.3000  -32.2440 C   0  0  0  0  0  0  0  0  0  0  0  0
   -5.0060   19.9860  -32.6400 S   0  0  0  0  0  0  0  0  0  0  0  0
   -5.3540   18.7640  -31.8380 O   0  0  0  0  0  0  0  0  0  0  0  0
   -5.1220   19.6120  -34.0910 O   0  0  0  0  0  0  0  0  0  0  0  0
   -3.2950   20.4180  -32.3040 C   0  0  0  0  0  0  0  0  0  0  0  0
   -2.2910   19.5250  -33.0140 C   0  0  0  0  0  0  0  0  0  0  0  0
   -2.4750   20.9640  -33.4640 C   0  0  0  0  0  0  0  0  0  0  0  0
   -8.2837   19.2341  -31.1796 H   0  0  0  0  0  0  0  0  0  0  0  0
   -9.0632   19.6984  -32.7300 H   0  0  0  0  0  0  0  0  0  0  0  0
   -7.4057   19.0060  -32.7300 H   0  0  0  0  0  0  0  0  0  0  0  0
   -9.4757   21.8944  -31.6397 H   0  0  0  0  0  0  0  0  0  0  0  0
   -8.6219   24.2078  -31.3802 H   0  0  0  0  0  0  0  0  0  0  0  0
   -4.7865   22.8235  -29.5790 H   0  0  0  0  0  0  0  0  0  0  0  0
   -3.4904   21.1638  -28.2071 H   0  0  0  0  0  0  0  0  0  0  0  0
   -1.3435   25.4925  -29.5931 H   0  0  0  0  0  0  0  0  0  0  0  0
   -0.5642   20.6322  -27.8493 H   0  0  0  0  0  0  0  0  0  0  0  0
   -1.1406   21.3409  -26.3477 H   0  0  0  0  0  0  0  0  0  0  0  0
   -3.8920   23.7820  -31.9760 H   0  0  0  0  0  0  0  0  0  0  0  0
   -3.4746   20.7593  -31.2738 H   0  0  0  0  0  0  0  0  0  0  0  0
   -1.3653   19.2232  -32.5021 H   0  0  0  0  0  0  0  0  0  0  0  0
   -2.3375   18.5439  -33.5092 H   0  0  0  0  0  0  0  0  0  0  0  0
   -1.6830   21.7042  -33.2774 H   0  0  0  0  0  0  0  0  0  0  0  0
   -2.7101   21.4565  -34.4191 H   0  0  0  0  0  0  0  0  0  0  0  0
  1  2  1  0
  2  3  2  0
  3  4  1  0
  4  5  2  0
  5  6  1  0
  6  7  1  0
  7  8  2  0
  7  9  1  0
  9 10  1  0
 10 11  2  0
 11 12  1  0
 12 13  2  0
 13 14  1  0
 14 15  2  0
 14 16  1  0
 16 17  2  0
 16 18  1  0
 18 19  1  0
  5 20  1  0
 20 21  1  0
 20 22  2  0
 22 23  1  0
 23 24  2  0
 23 25  2  0
 23 26  1  0
 26 27  1  0
 27 28  1  0
 22  2  1  0
 28 26  1  0
 15 10  1  0
 19 13  1  0
  1 29  1  0
  1 30  1  0
  1 31  1  0
  3 32  1  0
  4 33  1  0
 11 34  1  0
 12 35  1  0
 15 36  1  0
 19 37  1  0
 19 38  1  0
 21 39  1  0
 26 40  1  0
 27 41  1  0
 27 42  1  0
 28 43  1  0
 28 44  1  0
M  CHG  3   6  -1   9  -1  18  -1
M  END
>  <UniqueID>  (15) 
15

>  <SMILES>  (15) 
Cc1ccc([N-]C(=O)[N-]c2ccc3c(c2)C(=O)[N-]C3)c(O)c1S(=O)(=O)C1CC1

>  <Energy>  (15) 
343.3722170373809

>  <Genealogy>  (15) 
Cc1ccc([N-]C(=O)[N-]c2ccc3c(c2)C(=O)[N-]C3)c(O)c1S(=O)(=O)C1CC1 (protonated)
Cc1ccc([N-]C(=O)[N-]c2ccc3c(c2)C(=O)[N-]C3)c(O)c1S(=O)(=O)C1CC1 (3D coordinates assigned)
Cc1ccc([N-]C(=O)[N-]c2ccc3c(c2)C(=O)[N-]C3)c(O)c1S(=O)(=O)C1CC1 (nonaromatic ring conformer: 343.3722170373809 kcal/mol)

>  <smiles>  (15) 
Cc1ccc(NC(=O)Nc2ccc3c(c2)C(=O)NC3)c(O)c1S(=O)(=O)C1CC1

>  <score_type>  (15) 
oracle

>  <origin>  (15) 
adgpu

>  <m_score__min__energy>  (15) 
-12.67

>  <m_primary>  (15) 
energy

$$$$
15:0
     RDKit          3D

 67 70  0  0  0  0  0  0  0  0999 V2000
   -0.0940   18.8090  -33.4860 C   0  0  0  0  0  0  0  0  0  0  0  0
   -0.2440   20.2470  -32.9320 C   0  0  0  0  0  0  0  0  0  0  0  0
    0.5410   20.3470  -31.6040 C   0  0  0  0  0  0  0  0  0  0  0  0
    0.4150   21.1980  -33.9620 C   0  0  0  0  0  0  0  0  0  0  0  0
   -1.7710   20.6090  -32.7510 C   0  0  0  0  0  0  0  0  0  0  0  0
   -2.6650   20.3160  -33.9960 C   0  0  0  0  0  0  0  0  0  0  0  0
   -3.5210   19.0520  -33.8180 C   0  0  0  0  0  0  0  0  0  0  0  0
   -4.3980   19.1060  -32.6250 N   0  0  0  0  0  0  0  0  0  0  0  0
   -6.0630   19.4430  -33.0380 S   0  0  0  0  0  0  0  0  0  0  0  0
   -6.9220   18.3060  -32.5620 O   0  0  0  0  0  0  0  0  0  0  0  0
   -6.2010   19.5190  -34.5320 O   0  0  0  0  0  0  0  0  0  0  0  0
   -6.6510   20.9490  -32.3090 C   0  0  0  0  0  0  0  0  0  0  0  0
   -7.8930   20.9520  -31.6570 C   0  0  0  0  0  0  0  0  0  0  0  0
   -8.4210   22.1350  -31.1390 C   0  0  0  0  0  0  0  0  0  0  0  0
   -7.7130   23.3300  -31.2620 C   0  0  0  0  0  0  0  0  0  0  0  0
   -6.4560   23.3440  -31.8760 C   0  0  0  0  0  0  0  0  0  0  0  0
   -5.7380   24.5780  -31.9710 N   0  0  0  0  0  0  0  0  0  0  0  0
   -5.2630   25.2770  -30.8160 C   0  0  0  0  0  0  0  0  0  0  0  0
   -6.0840   25.8650  -30.0650 O   0  0  0  0  0  0  0  0  0  0  0  0
   -3.8690   25.3020  -30.4940 N   0  0  0  0  0  0  0  0  0  0  0  0
   -3.2250   24.3160  -29.6710 C   0  0  0  0  0  0  0  0  0  0  0  0
   -3.7420   23.0170  -29.5690 C   0  0  0  0  0  0  0  0  0  0  0  0
   -3.1460   22.0870  -28.7210 C   0  0  0  0  0  0  0  0  0  0  0  0
   -2.0230   22.4320  -27.9630 C   0  0  0  0  0  0  0  0  0  0  0  0
   -1.3960   21.2050  -26.8670 Cl  0  0  0  0  0  0  0  0  0  0  0  0
   -1.4760   23.7340  -28.0650 C   0  0  0  0  0  0  0  0  0  0  0  0
   -0.0540   24.2390  -27.1260 S   0  0  0  0  0  0  0  0  0  0  0  0
    0.8100   23.0660  -26.7580 O   0  0  0  0  0  0  0  0  0  0  0  0
    0.7800   25.1740  -27.9550 O   0  0  0  0  0  0  0  0  0  0  0  0
   -0.6250   25.1070  -25.6680 C   0  0  0  0  0  0  0  0  0  0  0  0
   -1.0350   26.5510  -25.9050 C   0  0  0  0  0  0  0  0  0  0  0  0
   -2.0970   25.4850  -25.6790 C   0  0  0  0  0  0  0  0  0  0  0  0
   -2.1100   24.6780  -28.9030 C   0  0  0  0  0  0  0  0  0  0  0  0
   -1.6400   25.9850  -28.9680 O   0  0  0  0  0  0  0  0  0  0  0  0
   -5.9260   22.1540  -32.4220 C   0  0  0  0  0  0  0  0  0  0  0  0
   -4.7050   22.1610  -33.0980 O   0  0  0  0  0  0  0  0  0  0  0  0
   -3.9330   20.0170  -31.5580 C   0  0  0  0  0  0  0  0  0  0  0  0
   -2.4050   20.0150  -31.4620 C   0  0  0  0  0  0  0  0  0  0  0  0
   -0.0200   18.0994  -32.6488 H   0  0  0  0  0  0  0  0  0  0  0  0
   -0.9710   18.5598  -34.1014 H   0  0  0  0  0  0  0  0  0  0  0  0
    0.8156   18.7462  -34.1014 H   0  0  0  0  0  0  0  0  0  0  0  0
   -0.1566   20.2581  -30.7581 H   0  0  0  0  0  0  0  0  0  0  0  0
    1.2826   19.5361  -31.5545 H   0  0  0  0  0  0  0  0  0  0  0  0
    1.0556   21.3180  -31.5545 H   0  0  0  0  0  0  0  0  0  0  0  0
    0.9638   21.9899  -33.4312 H   0  0  0  0  0  0  0  0  0  0  0  0
    1.1128   20.6282  -34.5931 H   0  0  0  0  0  0  0  0  0  0  0  0
   -0.3636   21.6513  -34.5931 H   0  0  0  0  0  0  0  0  0  0  0  0
   -1.7516   21.7029  -32.6371 H   0  0  0  0  0  0  0  0  0  0  0  0
   -3.3327   21.1744  -34.1614 H   0  0  0  0  0  0  0  0  0  0  0  0
   -1.9991   20.1518  -34.8560 H   0  0  0  0  0  0  0  0  0  0  0  0
   -4.1518   18.9280  -34.7106 H   0  0  0  0  0  0  0  0  0  0  0  0
   -2.8314   18.2062  -33.6796 H   0  0  0  0  0  0  0  0  0  0  0  0
   -8.4560   20.0127  -31.5531 H   0  0  0  0  0  0  0  0  0  0  0  0
   -9.3975   22.1250  -30.6327 H   0  0  0  0  0  0  0  0  0  0  0  0
   -8.1443   24.2649  -30.8749 H   0  0  0  0  0  0  0  0  0  0  0  0
   -4.6232   22.7308  -30.1620 H   0  0  0  0  0  0  0  0  0  0  0  0
   -3.5626   21.0716  -28.6469 H   0  0  0  0  0  0  0  0  0  0  0  0
    0.0403   24.5903  -24.9606 H   0  0  0  0  0  0  0  0  0  0  0  0
   -0.8450   27.3107  -25.1325 H   0  0  0  0  0  0  0  0  0  0  0  0
   -0.8364   27.2977  -26.6879 H   0  0  0  0  0  0  0  0  0  0  0  0
   -2.6748   25.4739  -24.7431 H   0  0  0  0  0  0  0  0  0  0  0  0
   -2.9844   25.1415  -26.2308 H   0  0  0  0  0  0  0  0  0  0  0  0
   -4.4880   22.8210  -33.8330 H   0  0  0  0  0  0  0  0  0  0  0  0
   -4.2781   21.0375  -31.7806 H   0  0  0  0  0  0  0  0  0  0  0  0
   -4.3448   19.6716  -30.5983 H   0  0  0  0  0  0  0  0  0  0  0  0
   -2.0971   20.6202  -30.5966 H   0  0  0  0  0  0  0  0  0  0  0  0
   -2.0601   18.9770  -31.3450 H   0  0  0  0  0  0  0  0  0  0  0  0
  1  2  1  0
  2  3  1  0
  2  4  1  0
  2  5  1  0
  5  6  1  0
  6  7  1  0
  7  8  1  0
  8  9  1  0
  9 10  2  0
  9 11  2  0
  9 12  1  0
 12 13  2  0
 13 14  1  0
 14 15  2  0
 15 16  1  0
 16 17  1  0
 17 18  1  0
 18 19  2  0
 18 20  1  0
 20 21  1  0
 21 22  2  0
 22 23  1  0
 23 24  2  0
 24 25  1  0
 24 26  1  0
 26 27  1  0
 27 28  2  0
 27 29  2  0
 27 30  1  0
 30 31  1  0
 31 32  1  0
 26 33  2  0
 33 34  1  0
 16 35  2  0
 35 36  1  0
  8 37  1  0
 37 38  1  0
 38  5  1  0
 35 12  1  0
 33 21  1  0
 32 30  1  0
  1 39  1  0
  1 40  1  0
  1 41  1  0
  3 42  1  0
  3 43  1  0
  3 44  1  0
  4 45  1  0
  4 46  1  0
  4 47  1  0
  5 48  1  0
  6 49  1  0
  6 50  1  0
  7 51  1  0
  7 52  1  0
 13 53  1  0
 14 54  1  0
 15 55  1  0
 22 56  1  0
 23 57  1  0
 30 58  1  0
 31 59  1  0
 31 60  1  0
 32 61  1  0
 32 62  1  0
 36 63  1  0
 37 64  1  0
 37 65  1  0
 38 66  1  0
 38 67  1  0
M  CHG  3  17  -1  20  -1  34  -1
M  END
>  <UniqueID>  (16) 
16

>  <SMILES>  (16) 
CC(C)(C)C1CCN(S(=O)(=O)c2cccc([N-]C(=O)[N-]c3ccc(Cl)c(S(=O)(=O)C4CC4)c3[O-])c2O)CC1

>  <Energy>  (16) 
353.90026866384574

>  <Genealogy>  (16) 
CC(C)(C)C1CCN(S(=O)(=O)c2cccc([N-]C(=O)[N-]c3ccc(Cl)c(S(=O)(=O)C4CC4)c3[O-])c2O)CC1 (protonated)
CC(C)(C)C1CCN(S(=O)(=O)c2cccc([N-]C(=O)[N-]c3ccc(Cl)c(S(=O)(=O)C4CC4)c3[O-])c2O)CC1 (3D coordinates assigned)
CC(C)(C)C1CCN(S(=O)(=O)c2cccc([N-]C(=O)[N-]c3ccc(Cl)c(S(=O)(=O)C4CC4)c3[O-])c2O)CC1 (nonaromatic ring conformer: 353.90026866384574 kcal/mol)

>  <smiles>  (16) 
CC(C)(C)C1CCN(S(=O)(=O)c2cccc(NC(=O)Nc3ccc(Cl)c(S(=O)(=O)C4CC4)c3O)c2O)CC1

>  <score_type>  (16) 
oracle

>  <origin>  (16) 
adgpu

>  <m_score__min__energy>  (16) 
-17.100000000000001

>  <m_primary>  (16) 
energy

$$$$
16:0
     RDKit          3D

 45 46  0  0  0  0  0  0  0  0999 V2000
   -3.8870   24.1410  -27.2480 C   0  0  0  0  0  0  0  0  0  0  0  0
   -2.9600   23.5980  -28.3310 C   0  0  0  0  0  0  0  0  0  0  0  0
   -2.6300   24.6560  -29.3520 C   0  0  0  0  0  0  0  0  0  0  0  0
   -1.5570   25.3040  -29.2450 O   0  0  0  0  0  0  0  0  0  0  0  0
   -3.4890   24.9230  -30.4690 N   0  0  0  0  0  0  0  0  0  0  0  0
   -4.7250   24.2610  -30.7700 C   0  0  0  0  0  0  0  0  0  0  0  0
   -5.9640   24.8410  -30.4610 C   0  0  0  0  0  0  0  0  0  0  0  0
   -7.1530   24.1860  -30.7910 C   0  0  0  0  0  0  0  0  0  0  0  0
   -7.1210   22.9430  -31.4540 C   0  0  0  0  0  0  0  0  0  0  0  0
   -8.2950   22.2440  -31.7720 O   0  0  0  0  0  0  0  0  0  0  0  0
   -9.0890   21.5250  -30.8340 C   0  0  0  0  0  0  0  0  0  0  0  0
   -5.8790   22.3800  -31.7970 C   0  0  0  0  0  0  0  0  0  0  0  0
   -5.8110   21.1230  -32.4880 N   0  0  0  0  0  0  0  0  0  0  0  0
   -6.8470   20.7640  -33.4550 C   0  0  0  0  0  0  0  0  0  0  0  0
   -4.4140   20.1080  -32.3040 S   0  0  0  0  0  0  0  0  0  0  0  0
   -3.9670   20.0980  -30.8680 O   0  0  0  0  0  0  0  0  0  0  0  0
   -3.2940   20.6420  -33.1510 O   0  0  0  0  0  0  0  0  0  0  0  0
   -4.8250   18.4620  -32.7760 C   0  0  0  0  0  0  0  0  0  0  0  0
   -4.0750   17.6020  -33.5540 C   0  0  0  0  0  0  0  0  0  0  0  0
   -2.7800   17.9070  -34.2320 C   0  0  0  0  0  0  0  0  0  0  0  0
   -4.7340   16.4340  -33.6860 N   0  0  0  0  0  0  0  0  0  0  0  0
   -5.8390   16.5400  -33.0050 O   0  0  0  0  0  0  0  0  0  0  0  0
   -5.9420   17.7220  -32.4400 C   0  0  0  0  0  0  0  0  0  0  0  0
   -7.0990   18.1520  -31.6010 C   0  0  0  0  0  0  0  0  0  0  0  0
   -4.6900   23.0450  -31.4570 C   0  0  0  0  0  0  0  0  0  0  0  0
   -3.4745   23.8994  -26.2573 H   0  0  0  0  0  0  0  0  0  0  0  0
   -3.9735   25.2326  -27.3529 H   0  0  0  0  0  0  0  0  0  0  0  0
   -4.8814   23.6826  -27.3529 H   0  0  0  0  0  0  0  0  0  0  0  0
   -2.0278   23.2492  -27.8626 H   0  0  0  0  0  0  0  0  0  0  0  0
   -3.4725   22.7702  -28.8429 H   0  0  0  0  0  0  0  0  0  0  0  0
   -5.9998   25.8175  -29.9558 H   0  0  0  0  0  0  0  0  0  0  0  0
   -8.1194   24.6430  -30.5319 H   0  0  0  0  0  0  0  0  0  0  0  0
   -8.7870   21.7984  -29.8122 H   0  0  0  0  0  0  0  0  0  0  0  0
  -10.1496   21.7763  -30.9826 H   0  0  0  0  0  0  0  0  0  0  0  0
   -8.9438   20.4448  -30.9826 H   0  0  0  0  0  0  0  0  0  0  0  0
   -7.7550   20.4494  -32.9197 H   0  0  0  0  0  0  0  0  0  0  0  0
   -7.0768   21.6349  -34.0864 H   0  0  0  0  0  0  0  0  0  0  0  0
   -6.4887   19.9376  -34.0864 H   0  0  0  0  0  0  0  0  0  0  0  0
   -2.0037   18.0898  -33.4745 H   0  0  0  0  0  0  0  0  0  0  0  0
   -2.4853   17.0537  -34.8605 H   0  0  0  0  0  0  0  0  0  0  0  0
   -2.8971   18.8021  -34.8605 H   0  0  0  0  0  0  0  0  0  0  0  0
   -6.8368   18.0545  -30.5372 H   0  0  0  0  0  0  0  0  0  0  0  0
   -7.3436   19.2011  -31.8237 H   0  0  0  0  0  0  0  0  0  0  0  0
   -7.9694   17.5173  -31.8237 H   0  0  0  0  0  0  0  0  0  0  0  0
   -3.7212   22.6041  -31.7344 H   0  0  0  0  0  0  0  0  0  0  0  0
  1  2  1  0
  2  3  1  0
  3  4  2  0
  3  5  1  0
  5  6  1  0
  6  7  2  0
  7  8  1  0
  8  9  2  0
  9 10  1  0
 10 11  1  0
  9 12  1  0
 12 13  1  0
 13 14  1  0
 13 15  1  0
 15 16  2  0
 15 17  2  0
 15 18  1  0
 18 19  1  0
 19 20  1  0
 19 21  2  0
 21 22  1  0
 22 23  1  0
 23 24  1  0
 12 25  2  0
 25  6  1  0
 23 18  2  0
  1 26  1  0
  1 27  1  0
  1 28  1  0
  2 29  1  0
  2 30  1  0
  7 31  1  0
  8 32  1  0
 11 33  1  0
 11 34  1  0
 11 35  1  0
 14 36  1  0
 14 37  1  0
 14 38  1  0
 20 39  1  0
 20 40  1  0
 20 41  1  0
 24 42  1  0
 24 43  1  0
 24 44  1  0
 25 45  1  0
M  CHG  1   5  -1
M  END
>  <UniqueID>  (17) 
17

>  <SMILES>  (17) 
CCC(=O)[N-]c1ccc(OC)c(N(C)S(=O)(=O)c2c(C)noc2C)c1

>  <Energy>  (17) 
79.14628279942093

>  <Genealogy>  (17) 
CCC(=O)[N-]c1ccc(OC)c(N(C)S(=O)(=O)c2c(C)noc2C)c1 (protonated)
CCC(=O)[N-]c1ccc(OC)c(N(C)S(=O)(=O)c2c(C)noc2C)c1 (3D coordinates assigned)
CCC(=O)[N-]c1ccc(OC)c(N(C)S(=O)(=O)c2c(C)noc2C)c1 (optimized conformer: 79.14628279942093 kcal/mol)

>  <smiles>  (17) 
CCC(=O)Nc1ccc(OC)c(N(C)S(=O)(=O)c2c(C)noc2C)c1

>  <score_type>  (17) 
oracle

>  <origin>  (17) 
adgpu

>  <m_score__min__energy>  (17) 
-9.4100000000000001

>  <m_primary>  (17) 
energy

$$$$
17:0
     RDKit          3D

 35 37  0  0  0  0  0  0  0  0999 V2000
   -5.7567   17.2373  -30.5557 H   0  0  0  0  0  0  0  0  0  0  0  0
   -5.9580   17.5870  -31.5790 C   0  0  0  0  0  0  0  0  0  0  0  0
   -6.5930   18.7720  -31.7800 N   0  0  0  0  0  0  0  0  0  0  0  0
   -6.8620   19.2440  -33.0310 C   0  0  0  0  0  0  0  0  0  0  0  0
   -7.4620   20.3830  -33.2000 N   0  0  0  0  0  0  0  0  0  0  0  0
   -7.9730   21.4090  -31.8960 S   0  0  0  0  0  0  0  0  0  0  0  0
   -8.4020   20.5500  -30.7390 O   0  0  0  0  0  0  0  0  0  0  0  0
   -9.1390   22.2400  -32.3500 O   0  0  0  0  0  0  0  0  0  0  0  0
   -6.6590   22.4790  -31.4190 C   0  0  0  0  0  0  0  0  0  0  0  0
   -5.3500   22.2080  -31.8370 C   0  0  0  0  0  0  0  0  0  0  0  0
   -5.1470   21.3309  -32.4690 H   0  0  0  0  0  0  0  0  0  0  0  0
   -4.3010   23.0480  -31.4540 C   0  0  0  0  0  0  0  0  0  0  0  0
   -3.2718   22.8173  -31.7664 H   0  0  0  0  0  0  0  0  0  0  0  0
   -4.5570   24.1880  -30.6700 C   0  0  0  0  0  0  0  0  0  0  0  0
   -3.5020   25.0660  -30.2510 N   0  0  0  0  0  0  0  0  0  0  0  0
   -2.4700   24.7570  -29.3070 C   0  0  0  0  0  0  0  0  0  0  0  0
   -1.6490   25.6570  -28.9880 O   0  0  0  0  0  0  0  0  0  0  0  0
   -2.2970   23.4050  -28.7450 C   0  0  0  0  0  0  0  0  0  0  0  0
   -1.2700   22.6330  -29.0200 O   0  0  0  0  0  0  0  0  0  0  0  0
   -1.4160   21.4940  -28.3840 C   0  0  0  0  0  0  0  0  0  0  0  0
   -0.7086   20.6524  -28.4209 H   0  0  0  0  0  0  0  0  0  0  0  0
   -2.5920   21.5130  -27.6620 C   0  0  0  0  0  0  0  0  0  0  0  0
   -2.9906   20.7082  -27.0269 H   0  0  0  0  0  0  0  0  0  0  0  0
   -3.1660   22.7430  -27.8970 C   0  0  0  0  0  0  0  0  0  0  0  0
   -4.1175   23.1201  -27.4940 H   0  0  0  0  0  0  0  0  0  0  0  0
   -5.8630   24.4460  -30.2410 C   0  0  0  0  0  0  0  0  0  0  0  0
   -6.0664   25.3188  -29.6032 H   0  0  0  0  0  0  0  0  0  0  0  0
   -6.9120   23.6010  -30.6180 C   0  0  0  0  0  0  0  0  0  0  0  0
   -7.9378   23.8175  -30.2851 H   0  0  0  0  0  0  0  0  0  0  0  0
   -6.4810   18.4930  -34.1490 C   0  0  0  0  0  0  0  0  0  0  0  0
   -6.6948   18.8605  -35.1635 H   0  0  0  0  0  0  0  0  0  0  0  0
   -5.8270   17.2730  -33.9650 C   0  0  0  0  0  0  0  0  0  0  0  0
   -5.5217   16.6749  -34.8363 H   0  0  0  0  0  0  0  0  0  0  0  0
   -5.5610   16.8130  -32.6730 C   0  0  0  0  0  0  0  0  0  0  0  0
   -4.6670   15.1480  -32.4040 Br  0  0  0  0  0  0  0  0  0  0  0  0
  1  2  1  0
  2  3  1  0
  3  4  1  0
  4  5  2  0
  5  6  1  0
  6  7  2  0
  6  8  2  0
  6  9  1  0
  9 10  2  0
 10 11  1  0
 10 12  1  0
 12 13  1  0
 12 14  2  0
 14 15  1  0
 15 16  1  0
 16 17  2  0
 16 18  1  0
 18 19  1  0
 19 20  1  0
 20 21  1  0
 20 22  2  0
 22 23  1  0
 22 24  1  0
 24 25  1  0
 14 26  1  0
 26 27  1  0
 26 28  2  0
 28 29  1  0
  4 30  1  0
 30 31  1  0
 30 32  2  0
 32 33  1  0
 32 34  1  0
 34 35  1  0
 34  2  2  0
 28  9  1  0
 24 18  2  0
M  CHG  2   3  -1  15  -1
M  END
>  <UniqueID>  (18) 
18

>  <SMILES>  (18) 
O=C([N-]c1ccc(S(=O)(=O)/N=c2/ccc(Br)c[n-]2)cc1)c1ccco1

>  <Energy>  (18) 
72.10446727288405

>  <Genealogy>  (18) 
O=C([N-]c1ccc(S(=O)(=O)N=c2ccc(Br)c[n-]2)cc1)c1ccco1 (protonated)
O=C([N-]c1ccc(S(=O)(=O)/N=c2/ccc(Br)c[n-]2)cc1)c1ccco1 (cis-trans isomerization)
O=C([N-]c1ccc(S(=O)(=O)/N=c2/ccc(Br)c[n-]2)cc1)c1ccco1 (3D coordinates assigned)
O=C([N-]c1ccc(S(=O)(=O)/N=c2/ccc(Br)c[n-]2)cc1)c1ccco1 (optimized conformer: 72.10446727288405 kcal/mol)

>  <smiles>  (18) 
O=C(Nc1ccc(S(=O)(=O)N=c2ccc(Br)c[nH]2)cc1)c1ccco1

>  <score_type>  (18) 
oracle

>  <origin>  (18) 
adgpu

>  <m_score__min__energy>  (18) 
-10.51

>  <m_primary>  (18) 
energy

$$$$
18:0
     RDKit          3D

 60 63  0  0  0  0  0  0  0  0999 V2000
   -2.0500   18.8950  -26.6660 C   0  0  0  0  0  0  0  0  0  0  0  0
   -1.1540   19.6020  -27.5790 N   0  0  0  0  0  0  0  0  0  0  0  0
   -1.4920   20.9130  -28.0650 C   0  0  0  0  0  0  0  0  0  0  0  0
   -2.8350   21.3020  -28.1790 C   0  0  0  0  0  0  0  0  0  0  0  0
   -3.1650   22.5980  -28.5890 C   0  0  0  0  0  0  0  0  0  0  0  0
   -2.1570   23.5250  -28.8920 C   0  0  0  0  0  0  0  0  0  0  0  0
   -2.5130   24.9250  -29.2260 C   0  0  0  0  0  0  0  0  0  0  0  0
   -1.9770   25.8690  -28.5860 O   0  0  0  0  0  0  0  0  0  0  0  0
   -3.4650   25.2420  -30.2550 N   0  0  0  0  0  0  0  0  0  0  0  0
   -4.6360   24.4790  -30.5790 C   0  0  0  0  0  0  0  0  0  0  0  0
   -5.8780   24.8930  -30.0840 C   0  0  0  0  0  0  0  0  0  0  0  0
   -7.0200   24.1180  -30.3060 C   0  0  0  0  0  0  0  0  0  0  0  0
   -6.9320   22.9240  -31.0350 C   0  0  0  0  0  0  0  0  0  0  0  0
   -8.3400   21.8740  -31.2020 S   0  0  0  0  0  0  0  0  0  0  0  0
   -9.1350   21.9050  -29.9260 O   0  0  0  0  0  0  0  0  0  0  0  0
   -9.2140   22.3920  -32.3110 O   0  0  0  0  0  0  0  0  0  0  0  0
   -7.8700   20.2280  -31.5550 N   0  0  0  0  0  0  0  0  0  0  0  0
   -7.0780   20.1690  -32.8000 C   0  0  0  0  0  0  0  0  0  0  0  0
   -6.9240   18.7170  -33.3020 C   0  0  0  0  0  0  0  0  0  0  0  0
   -7.2580   17.7920  -32.2870 O   0  0  0  0  0  0  0  0  0  0  0  0
   -8.6330   17.9010  -31.9660 C   0  0  0  0  0  0  0  0  0  0  0  0
   -9.0540   19.3570  -31.6520 C   0  0  0  0  0  0  0  0  0  0  0  0
   -5.7030   22.5450  -31.5920 C   0  0  0  0  0  0  0  0  0  0  0  0
   -4.5640   23.3240  -31.3770 C   0  0  0  0  0  0  0  0  0  0  0  0
   -0.8140   23.1130  -28.8500 C   0  0  0  0  0  0  0  0  0  0  0  0
   -0.4840   21.8210  -28.4310 C   0  0  0  0  0  0  0  0  0  0  0  0
    0.1770   18.7230  -28.2720 S   0  0  0  0  0  0  0  0  0  0  0  0
    1.4710   19.0890  -27.5990 O   0  0  0  0  0  0  0  0  0  0  0  0
   -0.0560   17.2490  -28.0890 O   0  0  0  0  0  0  0  0  0  0  0  0
    0.3100   19.1290  -29.9790 C   0  0  0  0  0  0  0  0  0  0  0  0
    1.5640   19.2240  -30.5990 C   0  0  0  0  0  0  0  0  0  0  0  0
    1.6530   19.5590  -31.9530 C   0  0  0  0  0  0  0  0  0  0  0  0
    0.4930   19.8040  -32.6930 C   0  0  0  0  0  0  0  0  0  0  0  0
   -0.7580   19.7080  -32.0800 C   0  0  0  0  0  0  0  0  0  0  0  0
   -0.8510   19.3640  -30.7270 C   0  0  0  0  0  0  0  0  0  0  0  0
   -1.7662   19.1189  -25.6271 H   0  0  0  0  0  0  0  0  0  0  0  0
   -3.0854   19.2221  -26.8419 H   0  0  0  0  0  0  0  0  0  0  0  0
   -1.9727   17.8119  -26.8419 H   0  0  0  0  0  0  0  0  0  0  0  0
   -3.6338   20.5831  -27.9444 H   0  0  0  0  0  0  0  0  0  0  0  0
   -4.2216   22.8920  -28.6743 H   0  0  0  0  0  0  0  0  0  0  0  0
   -5.9558   25.8327  -29.5176 H   0  0  0  0  0  0  0  0  0  0  0  0
   -7.9912   24.4463  -29.9072 H   0  0  0  0  0  0  0  0  0  0  0  0
   -7.2750   19.9000  -30.7570 H   0  0  0  0  0  0  0  0  0  0  0  0
   -7.5843   20.7636  -33.5747 H   0  0  0  0  0  0  0  0  0  0  0  0
   -6.0756   20.5713  -32.5918 H   0  0  0  0  0  0  0  0  0  0  0  0
   -7.5901   18.5617  -34.1635 H   0  0  0  0  0  0  0  0  0  0  0  0
   -5.8752   18.5558  -33.5917 H   0  0  0  0  0  0  0  0  0  0  0  0
   -9.2245   17.5390  -32.8198 H   0  0  0  0  0  0  0  0  0  0  0  0
   -8.8148   17.2983  -31.0640 H   0  0  0  0  0  0  0  0  0  0  0  0
   -9.7093   19.7253  -32.4551 H   0  0  0  0  0  0  0  0  0  0  0  0
   -9.5867   19.3731  -30.6897 H   0  0  0  0  0  0  0  0  0  0  0  0
   -5.6353   21.6311  -32.2004 H   0  0  0  0  0  0  0  0  0  0  0  0
   -3.6068   23.0326  -31.8339 H   0  0  0  0  0  0  0  0  0  0  0  0
   -0.0181   23.8112  -29.1485 H   0  0  0  0  0  0  0  0  0  0  0  0
    0.5712   21.5132  -28.3875 H   0  0  0  0  0  0  0  0  0  0  0  0
    2.4792   19.0346  -30.0189 H   0  0  0  0  0  0  0  0  0  0  0  0
    2.6381   19.6300  -32.4372 H   0  0  0  0  0  0  0  0  0  0  0  0
    0.5654   20.0722  -33.7573 H   0  0  0  0  0  0  0  0  0  0  0  0
   -1.6712   19.9030  -32.6614 H   0  0  0  0  0  0  0  0  0  0  0  0
   -1.8382   19.2779  -30.2494 H   0  0  0  0  0  0  0  0  0  0  0  0
  1  2  1  0
  2  3  1  0
  3  4  2  0
  4  5  1  0
  5  6  2  0
  6  7  1  0
  7  8  2  0
  7  9  1  0
  9 10  1  0
 10 11  2  0
 11 12  1  0
 12 13  2  0
 13 14  1  0
 14 15  2  0
 14 16  2  0
 14 17  1  0
 17 18  1  0
 18 19  1  0
 19 20  1  0
 20 21  1  0
 21 22  1  0
 13 23  1  0
 23 24  2  0
  6 25  1  0
 25 26  2  0
  2 27  1  0
 27 28  2  0
 27 29  2  0
 27 30  1  0
 30 31  2  0
 31 32  1  0
 32 33  2  0
 33 34  1  0
 34 35  2  0
 26  3  1  0
 35 30  1  0
 24 10  1  0
 22 17  1  0
  1 36  1  0
  1 37  1  0
  1 38  1  0
  4 39  1  0
  5 40  1  0
 11 41  1  0
 12 42  1  0
 17 43  1  0
 18 44  1  0
 18 45  1  0
 19 46  1  0
 19 47  1  0
 21 48  1  0
 21 49  1  0
 22 50  1  0
 22 51  1  0
 23 52  1  0
 24 53  1  0
 25 54  1  0
 26 55  1  0
 31 56  1  0
 32 57  1  0
 33 58  1  0
 34 59  1  0
 35 60  1  0
M  CHG  2   9  -1  17   1
M  END
>  <UniqueID>  (19) 
19

>  <SMILES>  (19) 
CN(c1ccc(C(=O)[N-]c2ccc(S(=O)(=O)[NH+]3CCOCC3)cc2)cc1)S(=O)(=O)c1ccccc1

>  <Energy>  (19) 
80.52410306244501

>  <Genealogy>  (19) 
CN(c1ccc(C(=O)[N-]c2ccc(S(=O)(=O)[NH+]3CCOCC3)cc2)cc1)S(=O)(=O)c1ccccc1 (protonated)
CN(c1ccc(C(=O)[N-]c2ccc(S(=O)(=O)[NH+]3CCOCC3)cc2)cc1)S(=O)(=O)c1ccccc1 (3D coordinates assigned)
CN(c1ccc(C(=O)[N-]c2ccc(S(=O)(=O)[NH+]3CCOCC3)cc2)cc1)S(=O)(=O)c1ccccc1 (nonaromatic ring conformer: 80.52410306244501 kcal/mol)

>  <smiles>  (19) 
CN(c1ccc(C(=O)Nc2ccc(S(=O)(=O)N3CCOCC3)cc2)cc1)S(=O)(=O)c1ccccc1

>  <score_type>  (19) 
oracle

>  <origin>  (19) 
adgpu

>  <m_score__min__energy>  (19) 
-12.94

>  <m_primary>  (19) 
energy

$$$$
19:0
     RDKit          3D

 59 62  0  0  0  0  0  0  0  0999 V2000
   -3.8750   25.6450  -30.4390 O   0  0  0  0  0  0  0  0  0  0  0  0
   -4.2900   24.4610  -30.5460 C   0  0  0  0  0  0  0  0  0  0  0  0
   -5.2360   24.1510  -31.5790 N   0  0  0  0  0  0  0  0  0  0  0  0
   -6.0170   22.9480  -31.6690 C   0  0  0  0  0  0  0  0  0  0  0  0
   -5.7190   22.0180  -32.6710 C   0  0  0  0  0  0  0  0  0  0  0  0
   -6.4490   20.8300  -32.7730 C   0  0  0  0  0  0  0  0  0  0  0  0
   -7.4930   20.5630  -31.8780 C   0  0  0  0  0  0  0  0  0  0  0  0
   -8.4020   19.0610  -32.0170 S   0  0  0  0  0  0  0  0  0  0  0  0
   -9.4320   19.1830  -33.1070 O   0  0  0  0  0  0  0  0  0  0  0  0
   -9.1110   18.8070  -30.7150 O   0  0  0  0  0  0  0  0  0  0  0  0
   -7.3130   17.7400  -32.3700 N   0  0  0  0  0  0  0  0  0  0  0  0
   -6.1640   17.7280  -31.4210 C   0  0  0  0  0  0  0  0  0  0  0  0
   -4.8870   18.3340  -32.0200 C   0  0  0  0  0  0  0  0  0  0  0  0
   -4.4520   17.5730  -33.2840 C   0  0  0  0  0  0  0  0  0  0  0  0
   -5.6420   16.9830  -34.0610 C   0  0  0  0  0  0  0  0  0  0  0  0
   -6.9220   17.7850  -33.8010 C   0  0  0  0  0  0  0  0  0  0  0  0
   -7.8180   21.5070  -30.8950 C   0  0  0  0  0  0  0  0  0  0  0  0
   -7.0920   22.6980  -30.7970 C   0  0  0  0  0  0  0  0  0  0  0  0
   -3.7690   23.4220  -29.6330 C   0  0  0  0  0  0  0  0  0  0  0  0
   -3.5710   22.1120  -30.0940 C   0  0  0  0  0  0  0  0  0  0  0  0
   -2.9860   21.1540  -29.2630 C   0  0  0  0  0  0  0  0  0  0  0  0
   -2.6060   21.4900  -27.9560 C   0  0  0  0  0  0  0  0  0  0  0  0
   -1.7530   20.3210  -26.9470 S   0  0  0  0  0  0  0  0  0  0  0  0
   -1.6080   20.8780  -25.5580 O   0  0  0  0  0  0  0  0  0  0  0  0
   -2.5660   19.0580  -26.8570 O   0  0  0  0  0  0  0  0  0  0  0  0
   -0.1730   19.9350  -27.6000 N   0  0  0  0  0  0  0  0  0  0  0  0
    0.2680   20.9440  -28.5730 C   0  0  0  0  0  0  0  0  0  0  0  0
    0.0550   20.3910  -29.9790 C   0  0  0  0  0  0  0  0  0  0  0  0
   -0.3580   18.9450  -29.8020 C   0  0  0  0  0  0  0  0  0  0  0  0
   -0.1970   18.6550  -28.3180 C   0  0  0  0  0  0  0  0  0  0  0  0
   -2.8610   22.7790  -27.4720 C   0  0  0  0  0  0  0  0  0  0  0  0
   -3.4360   23.7400  -28.3050 C   0  0  0  0  0  0  0  0  0  0  0  0
   -4.9056   22.2228  -33.3827 H   0  0  0  0  0  0  0  0  0  0  0  0
   -6.2024   20.1017  -33.5596 H   0  0  0  0  0  0  0  0  0  0  0  0
   -7.8600   16.8590  -32.2180 H   0  0  0  0  0  0  0  0  0  0  0  0
   -6.4410   18.3064  -30.5273 H   0  0  0  0  0  0  0  0  0  0  0  0
   -5.9478   16.6771  -31.1782 H   0  0  0  0  0  0  0  0  0  0  0  0
   -5.0769   19.3855  -32.2814 H   0  0  0  0  0  0  0  0  0  0  0  0
   -4.0822   18.2599  -31.2737 H   0  0  0  0  0  0  0  0  0  0  0  0
   -3.9103   18.2669  -33.9436 H   0  0  0  0  0  0  0  0  0  0  0  0
   -3.8153   16.7348  -32.9646 H   0  0  0  0  0  0  0  0  0  0  0  0
   -5.4156   17.0064  -35.1372 H   0  0  0  0  0  0  0  0  0  0  0  0
   -5.8025   15.9488  -33.7224 H   0  0  0  0  0  0  0  0  0  0  0  0
   -6.7526   18.8322  -34.0921 H   0  0  0  0  0  0  0  0  0  0  0  0
   -7.7341   17.3391  -34.3940 H   0  0  0  0  0  0  0  0  0  0  0  0
   -8.6465   21.3107  -30.1985 H   0  0  0  0  0  0  0  0  0  0  0  0
   -7.3628   23.4430  -30.0343 H   0  0  0  0  0  0  0  0  0  0  0  0
   -3.8778   21.8382  -31.1142 H   0  0  0  0  0  0  0  0  0  0  0  0
   -2.8228   20.1319  -29.6354 H   0  0  0  0  0  0  0  0  0  0  0  0
   -0.3198   21.8648  -28.4441 H   0  0  0  0  0  0  0  0  0  0  0  0
    1.3321   21.1756  -28.4177 H   0  0  0  0  0  0  0  0  0  0  0  0
   -0.7367   20.9540  -30.4950 H   0  0  0  0  0  0  0  0  0  0  0  0
    0.9671   20.4773  -30.5878 H   0  0  0  0  0  0  0  0  0  0  0  0
   -1.4045   18.8037  -30.1100 H   0  0  0  0  0  0  0  0  0  0  0  0
    0.2518   18.2681  -30.4185 H   0  0  0  0  0  0  0  0  0  0  0  0
   -1.0415   18.0454  -27.9641 H   0  0  0  0  0  0  0  0  0  0  0  0
    0.7363   18.1013  -28.1384 H   0  0  0  0  0  0  0  0  0  0  0  0
   -2.6075   23.0348  -26.4326 H   0  0  0  0  0  0  0  0  0  0  0  0
   -3.6297   24.7521  -27.9200 H   0  0  0  0  0  0  0  0  0  0  0  0
  1  2  2  0
  2  3  1  0
  3  4  1  0
  4  5  2  0
  5  6  1  0
  6  7  2  0
  7  8  1  0
  8  9  2  0
  8 10  2  0
  8 11  1  0
 11 12  1  0
 12 13  1  0
 13 14  1  0
 14 15  1  0
 15 16  1  0
  7 17  1  0
 17 18  2  0
  2 19  1  0
 19 20  2  0
 20 21  1  0
 21 22  2  0
 22 23  1  0
 23 24  2  0
 23 25  2  0
 23 26  1  0
 26 27  1  0
 27 28  1  0
 28 29  1  0
 29 30  1  0
 22 31  1  0
 31 32  2  0
 18  4  1  0
 32 19  1  0
 16 11  1  0
 30 26  1  0
  5 33  1  0
  6 34  1  0
 11 35  1  0
 12 36  1  0
 12 37  1  0
 13 38  1  0
 13 39  1  0
 14 40  1  0
 14 41  1  0
 15 42  1  0
 15 43  1  0
 16 44  1  0
 16 45  1  0
 17 46  1  0
 18 47  1  0
 20 48  1  0
 21 49  1  0
 27 50  1  0
 27 51  1  0
 28 52  1  0
 28 53  1  0
 29 54  1  0
 29 55  1  0
 30 56  1  0
 30 57  1  0
 31 58  1  0
 32 59  1  0
M  CHG  2   3  -1  11   1
M  END
>  <UniqueID>  (20) 
20

>  <SMILES>  (20) 
O=C([N-]c1ccc(S(=O)(=O)[NH+]2CCCCC2)cc1)c1ccc(S(=O)(=O)N2CCCC2)cc1

>  <Energy>  (20) 
70.8751682903395

>  <Genealogy>  (20) 
O=C([N-]c1ccc(S(=O)(=O)[NH+]2CCCCC2)cc1)c1ccc(S(=O)(=O)N2CCCC2)cc1 (protonated)
O=C([N-]c1ccc(S(=O)(=O)[NH+]2CCCCC2)cc1)c1ccc(S(=O)(=O)N2CCCC2)cc1 (3D coordinates assigned)
O=C([N-]c1ccc(S(=O)(=O)[NH+]2CCCCC2)cc1)c1ccc(S(=O)(=O)N2CCCC2)cc1 (nonaromatic ring conformer: 70.8751682903395 kcal/mol)

>  <smiles>  (20) 
O=C(Nc1ccc(S(=O)(=O)N2CCCCC2)cc1)c1ccc(S(=O)(=O)N2CCCC2)cc1

>  <score_type>  (20) 
oracle

>  <origin>  (20) 
adgpu

>  <m_score__min__energy>  (20) 
-12.83

>  <m_primary>  (20) 
energy

$$$$
20:0
     RDKit          3D

 50 53  0  0  0  0  0  0  0  0999 V2000
   -8.5020   20.9670  -30.4780 O   0  0  0  0  0  0  0  0  0  0  0  0
   -8.1050   21.7220  -31.7130 S   0  0  0  0  0  0  0  0  0  0  0  0
   -9.2950   22.5030  -32.2060 O   0  0  0  0  0  0  0  0  0  0  0  0
   -7.6020   20.5980  -32.9360 N   0  0  0  0  0  0  0  0  0  0  0  0
   -6.3110   19.9740  -33.0020 C   0  0  0  0  0  0  0  0  0  0  0  0
   -5.1750   20.6740  -33.4490 C   0  0  0  0  0  0  0  0  0  0  0  0
   -3.9220   20.0460  -33.4800 C   0  0  0  0  0  0  0  0  0  0  0  0
   -3.8000   18.7000  -33.0870 C   0  0  0  0  0  0  0  0  0  0  0  0
   -4.9330   18.0030  -32.6430 C   0  0  0  0  0  0  0  0  0  0  0  0
   -6.1850   18.6330  -32.6080 C   0  0  0  0  0  0  0  0  0  0  0  0
   -7.3090   17.9310  -32.1780 O   0  0  0  0  0  0  0  0  0  0  0  0
   -2.4480   18.0300  -33.0730 C   0  0  0  0  0  0  0  0  0  0  0  0
   -1.4930   18.6700  -34.0900 C   0  0  0  0  0  0  0  0  0  0  0  0
   -1.4290   20.1870  -33.8870 C   0  0  0  0  0  0  0  0  0  0  0  0
   -2.7700   20.7670  -33.9500 N   0  0  0  0  0  0  0  0  0  0  0  0
   -6.7650   22.7940  -31.3170 C   0  0  0  0  0  0  0  0  0  0  0  0
   -6.8600   24.1760  -31.5320 C   0  0  0  0  0  0  0  0  0  0  0  0
   -5.7710   25.0070  -31.2570 C   0  0  0  0  0  0  0  0  0  0  0  0
   -4.5800   24.4680  -30.7610 C   0  0  0  0  0  0  0  0  0  0  0  0
   -3.5190   25.3180  -30.4690 O   0  0  0  0  0  0  0  0  0  0  0  0
   -4.4710   23.0800  -30.5450 C   0  0  0  0  0  0  0  0  0  0  0  0
   -3.2480   22.5010  -30.0600 N   0  0  0  0  0  0  0  0  0  0  0  0
   -2.7140   22.8990  -28.7500 C   0  0  0  0  0  0  0  0  0  0  0  0
   -1.2390   22.5020  -28.6260 C   0  0  0  0  0  0  0  0  0  0  0  0
   -0.5360   22.7580  -29.8900 N   0  0  0  0  0  0  0  0  0  0  0  0
   -1.0220   21.8910  -30.9840 C   0  0  0  0  0  0  0  0  0  0  0  0
   -2.5200   21.5230  -30.8750 C   0  0  0  0  0  0  0  0  0  0  0  0
   -5.5710   22.2520  -30.8210 C   0  0  0  0  0  0  0  0  0  0  0  0
   -5.2707   21.7199  -33.7760 H   0  0  0  0  0  0  0  0  0  0  0  0
   -4.8388   16.9556  -32.3202 H   0  0  0  0  0  0  0  0  0  0  0  0
   -8.2100   18.3830  -32.0730 H   0  0  0  0  0  0  0  0  0  0  0  0
   -2.0133   18.1229  -32.0668 H   0  0  0  0  0  0  0  0  0  0  0  0
   -2.5837   16.9727  -33.3446 H   0  0  0  0  0  0  0  0  0  0  0  0
   -0.4870   18.2447  -33.9589 H   0  0  0  0  0  0  0  0  0  0  0  0
   -1.8638   18.4628  -35.1047 H   0  0  0  0  0  0  0  0  0  0  0  0
   -0.9867   20.4026  -32.9032 H   0  0  0  0  0  0  0  0  0  0  0  0
   -0.8119   20.6278  -34.6838 H   0  0  0  0  0  0  0  0  0  0  0  0
   -2.8610   21.7720  -34.2200 H   0  0  0  0  0  0  0  0  0  0  0  0
   -7.7950   24.6076  -31.9185 H   0  0  0  0  0  0  0  0  0  0  0  0
   -5.8510   26.0901  -31.4315 H   0  0  0  0  0  0  0  0  0  0  0  0
   -2.8056   23.9895  -28.6384 H   0  0  0  0  0  0  0  0  0  0  0  0
   -3.2867   22.3867  -27.9629 H   0  0  0  0  0  0  0  0  0  0  0  0
   -0.7704   23.0913  -27.8240 H   0  0  0  0  0  0  0  0  0  0  0  0
   -1.1749   21.4293  -28.3909 H   0  0  0  0  0  0  0  0  0  0  0  0
   -0.6930   23.7590  -30.1610 H   0  0  0  0  0  0  0  0  0  0  0  0
   -0.8629   22.4153  -31.9378 H   0  0  0  0  0  0  0  0  0  0  0  0
   -0.4569   20.9494  -30.9196 H   0  0  0  0  0  0  0  0  0  0  0  0
   -2.9581   21.4994  -31.8837 H   0  0  0  0  0  0  0  0  0  0  0  0
   -2.6026   20.5375  -30.3933 H   0  0  0  0  0  0  0  0  0  0  0  0
   -5.4952   21.1686  -30.6465 H   0  0  0  0  0  0  0  0  0  0  0  0
  1  2  2  0
  2  3  2  0
  2  4  1  0
  4  5  1  0
  5  6  2  0
  6  7  1  0
  7  8  2  0
  8  9  1  0
  9 10  2  0
 10 11  1  0
  8 12  1  0
 12 13  1  0
 13 14  1  0
 14 15  1  0
  2 16  1  0
 16 17  2  0
 17 18  1  0
 18 19  2  0
 19 20  1  0
 19 21  1  0
 21 22  1  0
 22 23  1  0
 23 24  1  0
 24 25  1  0
 25 26  1  0
 26 27  1  0
 21 28  2  0
 10  5  1  0
 28 16  1  0
 15  7  1  0
 27 22  1  0
  6 29  1  0
  9 30  1  0
 11 31  1  0
 12 32  1  0
 12 33  1  0
 13 34  1  0
 13 35  1  0
 14 36  1  0
 14 37  1  0
 15 38  1  0
 17 39  1  0
 18 40  1  0
 23 41  1  0
 23 42  1  0
 24 43  1  0
 24 44  1  0
 25 45  1  0
 26 46  1  0
 26 47  1  0
 27 48  1  0
 27 49  1  0
 28 50  1  0
M  CHG  2   4  -1  20  -1
M  END
>  <UniqueID>  (21) 
21

>  <SMILES>  (21) 
O=S(=O)([N-]c1cc2c(cc1O)CCCN2)c1ccc([O-])c(N2CCNCC2)c1

>  <Energy>  (21) 
63.492556379173614

>  <Genealogy>  (21) 
O=S(=O)([N-]c1cc2c(cc1O)CCCN2)c1ccc([O-])c(N2CCNCC2)c1 (protonated)
O=S(=O)([N-]c1cc2c(cc1O)CCCN2)c1ccc([O-])c(N2CCNCC2)c1 (3D coordinates assigned)
O=S(=O)([N-]c1cc2c(cc1O)CCCN2)c1ccc([O-])c(N2CCNCC2)c1 (nonaromatic ring conformer: 63.492556379173614 kcal/mol)

>  <smiles>  (21) 
O=S(=O)(Nc1cc2c(cc1O)CCCN2)c1ccc(O)c(N2CCNCC2)c1

>  <score_type>  (21) 
oracle

>  <origin>  (21) 
adgpu

>  <m_score__min__energy>  (21) 
-11.35

>  <m_primary>  (21) 
energy

$$$$
21:0
     RDKit          3D

 36 38  0  0  0  0  0  0  0  0999 V2000
   -6.7230   18.8000  -33.4750 C   0  0  0  0  0  0  0  0  0  0  0  0
   -7.3100   19.9380  -32.7690 N   0  0  0  0  0  0  0  0  0  0  0  0
   -8.6320   20.1900  -32.5880 C   0  0  0  0  0  0  0  0  0  0  0  0
   -9.6640   19.3590  -33.0180 O   0  0  0  0  0  0  0  0  0  0  0  0
   -8.8360   21.3970  -31.9340 C   0  0  0  0  0  0  0  0  0  0  0  0
   -7.5700   21.9060  -31.7340 C   0  0  0  0  0  0  0  0  0  0  0  0
   -7.1700   23.1060  -31.1520 C   0  0  0  0  0  0  0  0  0  0  0  0
   -5.7910   23.3920  -31.1070 C   0  0  0  0  0  0  0  0  0  0  0  0
   -5.2160   24.9050  -30.4130 S   0  0  0  0  0  0  0  0  0  0  0  0
   -5.7260   25.0220  -29.0040 O   0  0  0  0  0  0  0  0  0  0  0  0
   -5.7350   26.0720  -31.2070 O   0  0  0  0  0  0  0  0  0  0  0  0
   -3.4800   24.9320  -30.3940 N   0  0  0  0  0  0  0  0  0  0  0  0
   -2.9770   23.8700  -29.5250 C   0  0  0  0  0  0  0  0  0  0  0  0
   -1.6960   24.3240  -28.8870 C   0  0  0  0  0  0  0  0  0  0  0  0
   -0.5840   23.4700  -28.8450 C   0  0  0  0  0  0  0  0  0  0  0  0
    0.5870   23.8980  -28.2160 C   0  0  0  0  0  0  0  0  0  0  0  0
    0.6430   25.1280  -27.6400 N   0  0  0  0  0  0  0  0  0  0  0  0
   -0.4240   25.9700  -27.6540 C   0  0  0  0  0  0  0  0  0  0  0  0
   -1.6160   25.5820  -28.2720 C   0  0  0  0  0  0  0  0  0  0  0  0
   -4.8600   22.4770  -31.6550 C   0  0  0  0  0  0  0  0  0  0  0  0
   -5.2950   21.2740  -32.2380 C   0  0  0  0  0  0  0  0  0  0  0  0
   -6.6680   21.0110  -32.2570 C   0  0  0  0  0  0  0  0  0  0  0  0
   -6.3463   18.0696  -32.7438 H   0  0  0  0  0  0  0  0  0  0  0  0
   -7.4888   18.3254  -34.1061 H   0  0  0  0  0  0  0  0  0  0  0  0
   -5.8924   19.1489  -34.1061 H   0  0  0  0  0  0  0  0  0  0  0  0
   -9.8770   19.2340  -33.9990 H   0  0  0  0  0  0  0  0  0  0  0  0
   -9.7953   21.8479  -31.6402 H   0  0  0  0  0  0  0  0  0  0  0  0
   -7.9083   23.8096  -30.7398 H   0  0  0  0  0  0  0  0  0  0  0  0
   -3.7198   23.6500  -28.7441 H   0  0  0  0  0  0  0  0  0  0  0  0
   -2.7947   22.9612  -30.1173 H   0  0  0  0  0  0  0  0  0  0  0  0
   -0.6340   22.4715  -29.3037 H   0  0  0  0  0  0  0  0  0  0  0  0
    1.4665   23.2380  -28.1866 H   0  0  0  0  0  0  0  0  0  0  0  0
   -0.3491   26.9588  -27.1779 H   0  0  0  0  0  0  0  0  0  0  0  0
   -2.4841   26.2576  -28.2760 H   0  0  0  0  0  0  0  0  0  0  0  0
   -3.7853   22.7097  -31.6243 H   0  0  0  0  0  0  0  0  0  0  0  0
   -4.5760   20.5604  -32.6668 H   0  0  0  0  0  0  0  0  0  0  0  0
  1  2  1  0
  2  3  1  0
  3  4  1  0
  3  5  2  0
  5  6  1  0
  6  7  2  0
  7  8  1  0
  8  9  1  0
  9 10  2  0
  9 11  2  0
  9 12  1  0
 12 13  1  0
 13 14  1  0
 14 15  2  0
 15 16  1  0
 16 17  2  0
 17 18  1  0
 18 19  2  0
  8 20  2  0
 20 21  1  0
 21 22  2  0
 22  2  1  0
 22  6  1  0
 19 14  1  0
  1 23  1  0
  1 24  1  0
  1 25  1  0
  4 26  1  0
  5 27  1  0
  7 28  1  0
 13 29  1  0
 13 30  1  0
 15 31  1  0
 16 32  1  0
 18 33  1  0
 19 34  1  0
 20 35  1  0
 21 36  1  0
M  CHG  1  12  -1
M  END
>  <UniqueID>  (22) 
22

>  <SMILES>  (22) 
Cn1c(O)cc2cc(S(=O)(=O)[N-]Cc3ccncc3)ccc21

>  <Energy>  (22) 
70.86815230585955

>  <Genealogy>  (22) 
Cn1c(O)cc2cc(S(=O)(=O)[N-]Cc3ccncc3)ccc21 (protonated)
Cn1c(O)cc2cc(S(=O)(=O)[N-]Cc3ccncc3)ccc21 (3D coordinates assigned)
Cn1c(O)cc2cc(S(=O)(=O)[N-]Cc3ccncc3)ccc21 (optimized conformer: 70.86815230585955 kcal/mol)

>  <smiles>  (22) 
Cn1c(O)cc2cc(S(=O)(=O)NCc3ccncc3)ccc21

>  <score_type>  (22) 
oracle

>  <origin>  (22) 
adgpu

>  <m_score__min__energy>  (22) 
-9.5600000000000005

>  <m_primary>  (22) 
energy

$$$$
22:0
     RDKit          3D

 51 53  0  0  0  0  0  0  0  0999 V2000
   -0.3160   21.4240  -27.4050 C   0  0  0  0  0  0  0  0  0  0  0  0
   -1.4930   22.1020  -28.0450 C   0  0  0  0  0  0  0  0  0  0  0  0
   -1.7440   21.9310  -29.4050 C   0  0  0  0  0  0  0  0  0  0  0  0
   -2.8270   22.5710  -30.0270 C   0  0  0  0  0  0  0  0  0  0  0  0
   -3.0280   22.3300  -31.5020 C   0  0  0  0  0  0  0  0  0  0  0  0
   -3.6610   23.4470  -29.2750 C   0  0  0  0  0  0  0  0  0  0  0  0
   -5.0590   24.2330  -30.0720 S   0  0  0  0  0  0  0  0  0  0  0  0
   -4.5560   25.1260  -31.1730 O   0  0  0  0  0  0  0  0  0  0  0  0
   -5.8360   25.1090  -29.1280 O   0  0  0  0  0  0  0  0  0  0  0  0
   -6.0890   22.9780  -30.7290 N   0  0  0  0  0  0  0  0  0  0  0  0
   -7.2380   22.7430  -29.8330 C   0  0  0  0  0  0  0  0  0  0  0  0
   -8.3780   21.9480  -30.5080 C   0  0  0  0  0  0  0  0  0  0  0  0
   -7.9690   21.2770  -31.7580 N   0  0  0  0  0  0  0  0  0  0  0  0
   -7.5190   19.8760  -31.6140 C   0  0  0  0  0  0  0  0  0  0  0  0
   -6.3140   19.5310  -32.4610 C   0  0  0  0  0  0  0  0  0  0  0  0
   -5.0140   19.7400  -31.9670 C   0  0  0  0  0  0  0  0  0  0  0  0
   -3.9010   19.3840  -32.7340 C   0  0  0  0  0  0  0  0  0  0  0  0
   -4.0750   18.7850  -33.9830 C   0  0  0  0  0  0  0  0  0  0  0  0
   -5.3620   18.5510  -34.4720 C   0  0  0  0  0  0  0  0  0  0  0  0
   -6.4780   18.9300  -33.7210 C   0  0  0  0  0  0  0  0  0  0  0  0
   -7.2070   22.1070  -32.7210 C   0  0  0  0  0  0  0  0  0  0  0  0
   -6.5550   23.3340  -32.0710 C   0  0  0  0  0  0  0  0  0  0  0  0
   -3.3880   23.6290  -27.8880 C   0  0  0  0  0  0  0  0  0  0  0  0
   -4.2010   24.5420  -27.0070 C   0  0  0  0  0  0  0  0  0  0  0  0
   -2.3000   22.9610  -27.3000 C   0  0  0  0  0  0  0  0  0  0  0  0
   -0.4116   21.4791  -26.3105 H   0  0  0  0  0  0  0  0  0  0  0  0
   -0.2854   20.3699  -27.7178 H   0  0  0  0  0  0  0  0  0  0  0  0
    0.6112   21.9264  -27.7178 H   0  0  0  0  0  0  0  0  0  0  0  0
   -1.0828   21.2842  -30.0004 H   0  0  0  0  0  0  0  0  0  0  0  0
   -3.7266   21.4924  -31.6448 H   0  0  0  0  0  0  0  0  0  0  0  0
   -3.4418   23.2362  -31.9686 H   0  0  0  0  0  0  0  0  0  0  0  0
   -2.0623   22.0856  -31.9686 H   0  0  0  0  0  0  0  0  0  0  0  0
   -6.8887   22.1784  -28.9559 H   0  0  0  0  0  0  0  0  0  0  0  0
   -7.6437   23.7266  -29.5537 H   0  0  0  0  0  0  0  0  0  0  0  0
   -8.7338   21.1827  -29.8025 H   0  0  0  0  0  0  0  0  0  0  0  0
   -9.1642   22.6708  -30.7714 H   0  0  0  0  0  0  0  0  0  0  0  0
   -7.2626   19.7009  -30.5587 H   0  0  0  0  0  0  0  0  0  0  0  0
   -8.3457   19.2373  -31.9583 H   0  0  0  0  0  0  0  0  0  0  0  0
   -4.8723   20.1861  -30.9715 H   0  0  0  0  0  0  0  0  0  0  0  0
   -2.8871   19.5760  -32.3531 H   0  0  0  0  0  0  0  0  0  0  0  0
   -3.1983   18.4974  -34.5819 H   0  0  0  0  0  0  0  0  0  0  0  0
   -5.4977   18.0672  -35.4506 H   0  0  0  0  0  0  0  0  0  0  0  0
   -7.4893   18.7572  -34.1177 H   0  0  0  0  0  0  0  0  0  0  0  0
   -6.4170   21.4869  -33.1697 H   0  0  0  0  0  0  0  0  0  0  0  0
   -7.9194   22.4738  -33.4746 H   0  0  0  0  0  0  0  0  0  0  0  0
   -5.7013   23.6636  -32.6814 H   0  0  0  0  0  0  0  0  0  0  0  0
   -7.2896   24.1499  -32.0026 H   0  0  0  0  0  0  0  0  0  0  0  0
   -3.9956   24.3113  -25.9513 H   0  0  0  0  0  0  0  0  0  0  0  0
   -3.9297   25.5879  -27.2133 H   0  0  0  0  0  0  0  0  0  0  0  0
   -5.2712   24.3933  -27.2133 H   0  0  0  0  0  0  0  0  0  0  0  0
   -2.0814   23.1187  -26.2335 H   0  0  0  0  0  0  0  0  0  0  0  0
  1  2  1  0
  2  3  2  0
  3  4  1  0
  4  5  1  0
  4  6  2  0
  6  7  1  0
  7  8  2  0
  7  9  2  0
  7 10  1  0
 10 11  1  0
 11 12  1  0
 12 13  1  0
 13 14  1  0
 14 15  1  0
 15 16  2  0
 16 17  1  0
 17 18  2  0
 18 19  1  0
 19 20  2  0
 13 21  1  0
 21 22  1  0
  6 23  1  0
 23 24  1  0
 23 25  2  0
 25  2  1  0
 22 10  1  0
 20 15  1  0
  1 26  1  0
  1 27  1  0
  1 28  1  0
  3 29  1  0
  5 30  1  0
  5 31  1  0
  5 32  1  0
 11 33  1  0
 11 34  1  0
 12 35  1  0
 12 36  1  0
 14 37  1  0
 14 38  1  0
 16 39  1  0
 17 40  1  0
 18 41  1  0
 19 42  1  0
 20 43  1  0
 21 44  1  0
 21 45  1  0
 22 46  1  0
 22 47  1  0
 24 48  1  0
 24 49  1  0
 24 50  1  0
 25 51  1  0
M  END
>  <UniqueID>  (23) 
23

>  <SMILES>  (23) 
Cc1cc(C)c(S(=O)(=O)N2CCN(Cc3ccccc3)CC2)c(C)c1

>  <Energy>  (23) 
67.13304963551053

>  <Genealogy>  (23) 
Cc1cc(C)c(S(=O)(=O)N2CCN(Cc3ccccc3)CC2)c(C)c1 (3D coordinates assigned)
Cc1cc(C)c(S(=O)(=O)N2CCN(Cc3ccccc3)CC2)c(C)c1 (nonaromatic ring conformer: 67.13304963551053 kcal/mol)

>  <smiles>  (23) 
Cc1cc(C)c(S(=O)(=O)N2CCN(Cc3ccccc3)CC2)c(C)c1

>  <score_type>  (23) 
oracle

>  <origin>  (23) 
adgpu

>  <m_score__min__energy>  (23) 
-8.9100000000000001

>  <m_primary>  (23) 
energy

$$$$
23:0
     RDKit          3D

 74 78  0  0  0  0  0  0  0  0999 V2000
   -5.3640   26.4790  -30.4640 O   0  0  0  0  0  0  0  0  0  0  0  0
   -4.9850   25.2910  -30.6430 C   0  0  0  0  0  0  0  0  0  0  0  0
   -3.5970   24.9590  -30.4740 N   0  0  0  0  0  0  0  0  0  0  0  0
   -3.0600   24.1670  -29.4010 C   0  0  0  0  0  0  0  0  0  0  0  0
   -3.7640   23.0680  -28.8790 C   0  0  0  0  0  0  0  0  0  0  0  0
   -3.2290   22.3260  -27.8250 C   0  0  0  0  0  0  0  0  0  0  0  0
   -1.9790   22.6570  -27.2990 C   0  0  0  0  0  0  0  0  0  0  0  0
   -1.2500   23.7300  -27.8340 C   0  0  0  0  0  0  0  0  0  0  0  0
    0.3180   24.1350  -27.1400 S   0  0  0  0  0  0  0  0  0  0  0  0
    1.2400   24.5390  -28.2540 O   0  0  0  0  0  0  0  0  0  0  0  0
    0.8990   22.9330  -26.4440 O   0  0  0  0  0  0  0  0  0  0  0  0
    0.1440   25.4620  -26.0170 N   0  0  0  0  0  0  0  0  0  0  0  0
   -0.5870   25.0160  -24.8140 C   0  0  0  0  0  0  0  0  0  0  0  0
   -0.5570   26.0960  -23.7110 C   0  0  0  0  0  0  0  0  0  0  0  0
   -0.4860   27.5230  -24.3010 C   0  0  0  0  0  0  0  0  0  0  0  0
   -1.1690   27.5970  -25.6660 C   0  0  0  0  0  0  0  0  0  0  0  0
   -0.5190   26.6160  -26.6720 C   0  0  0  0  0  0  0  0  0  0  0  0
   -1.7870   24.4710  -28.8960 C   0  0  0  0  0  0  0  0  0  0  0  0
   -5.9770   24.2580  -30.9760 C   0  0  0  0  0  0  0  0  0  0  0  0
   -6.7410   23.6510  -29.9700 C   0  0  0  0  0  0  0  0  0  0  0  0
   -7.7390   22.7370  -30.3150 C   0  0  0  0  0  0  0  0  0  0  0  0
   -7.9180   22.3920  -31.6570 C   0  0  0  0  0  0  0  0  0  0  0  0
   -9.1850   21.2140  -32.1330 S   0  0  0  0  0  0  0  0  0  0  0  0
   -8.4170   19.7890  -31.2860 C   0  0  0  0  0  0  0  0  0  0  0  0
   -7.4310   19.0870  -32.1820 C   0  0  0  0  0  0  0  0  0  0  0  0
   -6.4020   19.8090  -32.8070 C   0  0  0  0  0  0  0  0  0  0  0  0
   -5.4620   19.1560  -33.6100 C   0  0  0  0  0  0  0  0  0  0  0  0
   -5.5230   17.7640  -33.7950 C   0  0  0  0  0  0  0  0  0  0  0  0
   -4.4550   17.0690  -34.5590 C   0  0  0  0  0  0  0  0  0  0  0  0
   -4.3680   17.2490  -35.8050 O   0  0  0  0  0  0  0  0  0  0  0  0
   -3.4790   16.2350  -33.9160 N   0  0  0  0  0  0  0  0  0  0  0  0
   -3.8950   15.1210  -33.0490 C   0  0  0  0  0  0  0  0  0  0  0  0
   -3.2040   13.8340  -33.5100 C   0  0  0  0  0  0  0  0  0  0  0  0
   -1.6680   13.9720  -33.5850 C   0  0  0  0  0  0  0  0  0  0  0  0
   -1.1640   15.4250  -33.5030 C   0  0  0  0  0  0  0  0  0  0  0  0
   -2.0610   16.3940  -34.2850 C   0  0  0  0  0  0  0  0  0  0  0  0
   -6.5600   17.0440  -33.1700 C   0  0  0  0  0  0  0  0  0  0  0  0
   -7.5200   17.7050  -32.3900 C   0  0  0  0  0  0  0  0  0  0  0  0
   -7.1420   22.9610  -32.6180 N   0  0  0  0  0  0  0  0  0  0  0  0
   -6.1870   23.8800  -32.3080 C   0  0  0  0  0  0  0  0  0  0  0  0
   -4.7407   22.7917  -29.3030 H   0  0  0  0  0  0  0  0  0  0  0  0
   -3.7933   21.4788  -27.4080 H   0  0  0  0  0  0  0  0  0  0  0  0
   -1.5643   22.0750  -26.4627 H   0  0  0  0  0  0  0  0  0  0  0  0
    1.1160   25.7380  -25.7380 H   0  0  0  0  0  0  0  0  0  0  0  0
   -1.6327   24.8092  -25.0855 H   0  0  0  0  0  0  0  0  0  0  0  0
   -0.1005   24.1086  -24.4268 H   0  0  0  0  0  0  0  0  0  0  0  0
   -1.4692   26.0080  -23.1027 H   0  0  0  0  0  0  0  0  0  0  0  0
    0.3443   25.9347  -23.1014 H   0  0  0  0  0  0  0  0  0  0  0  0
   -0.9859   28.2202  -23.6125 H   0  0  0  0  0  0  0  0  0  0  0  0
    0.5728   27.7923  -24.4288 H   0  0  0  0  0  0  0  0  0  0  0  0
   -2.2320   27.3393  -25.5496 H   0  0  0  0  0  0  0  0  0  0  0  0
   -1.0578   28.6196  -26.0558 H   0  0  0  0  0  0  0  0  0  0  0  0
   -1.3019   26.2343  -27.3438 H   0  0  0  0  0  0  0  0  0  0  0  0
    0.2573   27.1731  -27.2170 H   0  0  0  0  0  0  0  0  0  0  0  0
   -1.2068   25.2956  -29.3359 H   0  0  0  0  0  0  0  0  0  0  0  0
   -6.5554   23.8934  -28.9132 H   0  0  0  0  0  0  0  0  0  0  0  0
   -8.3781   22.2929  -29.5376 H   0  0  0  0  0  0  0  0  0  0  0  0
   -7.8933   20.1461  -30.3870 H   0  0  0  0  0  0  0  0  0  0  0  0
   -9.2103   19.0762  -31.0166 H   0  0  0  0  0  0  0  0  0  0  0  0
   -6.3347   20.8976  -32.6638 H   0  0  0  0  0  0  0  0  0  0  0  0
   -4.6676   19.7369  -34.1014 H   0  0  0  0  0  0  0  0  0  0  0  0
   -3.6099   15.3387  -32.0091 H   0  0  0  0  0  0  0  0  0  0  0  0
   -4.9861   14.9950  -33.1097 H   0  0  0  0  0  0  0  0  0  0  0  0
   -3.4502   13.0298  -32.8010 H   0  0  0  0  0  0  0  0  0  0  0  0
   -3.5657   13.6095  -34.5243 H   0  0  0  0  0  0  0  0  0  0  0  0
   -1.2289   13.4061  -32.7502 H   0  0  0  0  0  0  0  0  0  0  0  0
   -1.3616   13.5843  -34.5677 H   0  0  0  0  0  0  0  0  0  0  0  0
   -1.1440   15.7341  -32.4475 H   0  0  0  0  0  0  0  0  0  0  0  0
   -0.1591   15.4599  -33.9491 H   0  0  0  0  0  0  0  0  0  0  0  0
   -1.7484   17.4258  -34.0665 H   0  0  0  0  0  0  0  0  0  0  0  0
   -1.9565   16.1718  -35.3572 H   0  0  0  0  0  0  0  0  0  0  0  0
   -6.6174   15.9526  -33.2950 H   0  0  0  0  0  0  0  0  0  0  0  0
   -8.3464   17.1355  -31.9397 H   0  0  0  0  0  0  0  0  0  0  0  0
   -5.5777   24.3276  -33.1070 H   0  0  0  0  0  0  0  0  0  0  0  0
  1  2  2  0
  2  3  1  0
  3  4  1  0
  4  5  2  0
  5  6  1  0
  6  7  2  0
  7  8  1  0
  8  9  1  0
  9 10  2  0
  9 11  2  0
  9 12  1  0
 12 13  1  0
 13 14  1  0
 14 15  1  0
 15 16  1  0
 16 17  1  0
  8 18  2  0
  2 19  1  0
 19 20  2  0
 20 21  1  0
 21 22  2  0
 22 23  1  0
 23 24  1  0
 24 25  1  0
 25 26  2  0
 26 27  1  0
 27 28  2  0
 28 29  1  0
 29 30  2  0
 29 31  1  0
 31 32  1  0
 32 33  1  0
 33 34  1  0
 34 35  1  0
 35 36  1  0
 28 37  1  0
 37 38  2  0
 22 39  1  0
 39 40  2  0
 18  4  1  0
 40 19  1  0
 17 12  1  0
 38 25  1  0
 36 31  1  0
  5 41  1  0
  6 42  1  0
  7 43  1  0
 12 44  1  0
 13 45  1  0
 13 46  1  0
 14 47  1  0
 14 48  1  0
 15 49  1  0
 15 50  1  0
 16 51  1  0
 16 52  1  0
 17 53  1  0
 17 54  1  0
 18 55  1  0
 20 56  1  0
 21 57  1  0
 24 58  1  0
 24 59  1  0
 26 60  1  0
 27 61  1  0
 32 62  1  0
 32 63  1  0
 33 64  1  0
 33 65  1  0
 34 66  1  0
 34 67  1  0
 35 68  1  0
 35 69  1  0
 36 70  1  0
 36 71  1  0
 37 72  1  0
 38 73  1  0
 40 74  1  0
M  CHG  2   3  -1  12   1
M  END
>  <UniqueID>  (24) 
24

>  <SMILES>  (24) 
O=C([N-]c1cccc(S(=O)(=O)[NH+]2CCCCC2)c1)c1ccc(SCc2ccc(C(=O)N3CCCCC3)cc2)nc1

>  <Energy>  (24) 
94.14200765657874

>  <Genealogy>  (24) 
O=C([N-]c1cccc(S(=O)(=O)[NH+]2CCCCC2)c1)c1ccc(SCc2ccc(C(=O)N3CCCCC3)cc2)nc1 (protonated)
O=C([N-]c1cccc(S(=O)(=O)[NH+]2CCCCC2)c1)c1ccc(SCc2ccc(C(=O)N3CCCCC3)cc2)nc1 (3D coordinates assigned)
O=C([N-]c1cccc(S(=O)(=O)[NH+]2CCCCC2)c1)c1ccc(SCc2ccc(C(=O)N3CCCCC3)cc2)nc1 (nonaromatic ring conformer: 94.14200765657874 kcal/mol)

>  <smiles>  (24) 
O=C(Nc1cccc(S(=O)(=O)N2CCCCC2)c1)c1ccc(SCc2ccc(C(=O)N3CCCCC3)cc2)nc1

>  <score_type>  (24) 
oracle

>  <origin>  (24) 
adgpu

>  <m_score__min__energy>  (24) 
-13.800000000000001

>  <m_primary>  (24) 
energy

$$$$
24:0
     RDKit          3D

 42 44  0  0  0  0  0  0  0  0999 V2000
   -3.4210   21.4820  -30.1700 O   0  0  0  0  0  0  0  0  0  0  0  0
   -3.3020   22.0210  -31.3020 C   0  0  0  0  0  0  0  0  0  0  0  0
   -4.1370   23.1470  -31.6100 N   0  0  0  0  0  0  0  0  0  0  0  0
   -5.2610   23.6570  -30.8270 C   0  0  2  0  0  0  0  0  0  0  0  0
   -6.5050   23.8250  -31.7230 C   0  0  0  0  0  0  0  0  0  0  0  0
   -7.2450   22.5230  -31.8930 C   0  0  0  0  0  0  0  0  0  0  0  0
   -8.6160   22.4460  -31.5960 C   0  0  0  0  0  0  0  0  0  0  0  0
   -9.3140   21.2510  -31.7960 C   0  0  0  0  0  0  0  0  0  0  0  0
   -8.6520   20.1290  -32.3020 C   0  0  0  0  0  0  0  0  0  0  0  0
   -9.3480   18.9440  -32.5050 O   0  0  0  0  0  0  0  0  0  0  0  0
   -7.2880   20.1990  -32.6060 C   0  0  0  0  0  0  0  0  0  0  0  0
   -6.5880   21.3910  -32.4040 C   0  0  0  0  0  0  0  0  0  0  0  0
   -4.8680   24.9760  -30.2240 C   0  0  0  0  0  0  0  0  0  0  0  0
   -5.7610   25.8100  -29.9150 O   0  0  0  0  0  0  0  0  0  0  0  0
   -3.4840   25.2690  -29.9970 N   0  0  0  0  0  0  0  0  0  0  0  0
   -2.6390   24.6550  -29.0100 C   0  0  0  0  0  0  0  0  0  0  0  0
   -1.3590   24.1690  -29.3440 C   0  0  0  0  0  0  0  0  0  0  0  0
   -0.5680   23.5420  -28.3770 C   0  0  0  0  0  0  0  0  0  0  0  0
   -1.0500   23.3800  -27.0770 C   0  0  0  0  0  0  0  0  0  0  0  0
   -2.3260   23.8380  -26.7410 C   0  0  0  0  0  0  0  0  0  0  0  0
   -3.1260   24.4700  -27.7010 C   0  0  0  0  0  0  0  0  0  0  0  0
   -4.3990   24.9050  -27.3320 O   0  0  0  0  0  0  0  0  0  0  0  0
   -2.3230   21.4570  -32.2550 C   0  0  0  0  0  0  0  0  0  0  0  0
   -2.6400   20.7690  -33.4110 C   0  0  0  0  0  0  0  0  0  0  0  0
   -1.4360   20.4370  -33.9930 C   0  0  0  0  0  0  0  0  0  0  0  0
   -0.4590   20.9430  -33.1620 C   0  0  0  0  0  0  0  0  0  0  0  0
   -1.0190   21.5440  -32.1380 O   0  0  0  0  0  0  0  0  0  0  0  0
   -5.5112   22.9441  -30.0275 H   0  0  0  0  0  0  0  0  0  0  0  0
   -7.1797   24.5619  -31.2628 H   0  0  0  0  0  0  0  0  0  0  0  0
   -6.1718   24.1639  -32.7150 H   0  0  0  0  0  0  0  0  0  0  0  0
   -9.1423   23.3291  -31.2047 H   0  0  0  0  0  0  0  0  0  0  0  0
  -10.3857   21.1940  -31.5547 H   0  0  0  0  0  0  0  0  0  0  0  0
   -6.7670   19.3157  -33.0039 H   0  0  0  0  0  0  0  0  0  0  0  0
   -5.5163   21.4436  -32.6464 H   0  0  0  0  0  0  0  0  0  0  0  0
   -0.9806   24.2836  -30.3705 H   0  0  0  0  0  0  0  0  0  0  0  0
    0.4352   23.1759  -28.6407 H   0  0  0  0  0  0  0  0  0  0  0  0
   -0.4240   22.8909  -26.3161 H   0  0  0  0  0  0  0  0  0  0  0  0
   -2.7044   23.7016  -25.7172 H   0  0  0  0  0  0  0  0  0  0  0  0
   -4.9590   25.5060  -27.9250 H   0  0  0  0  0  0  0  0  0  0  0  0
   -3.6462   20.5347  -33.7886 H   0  0  0  0  0  0  0  0  0  0  0  0
   -1.2849   19.8812  -34.9302 H   0  0  0  0  0  0  0  0  0  0  0  0
    0.6244   20.8563  -33.3313 H   0  0  0  0  0  0  0  0  0  0  0  0
  1  2  2  0
  2  3  1  0
  3  4  1  0
  4  5  1  0
  5  6  1  0
  6  7  2  0
  7  8  1  0
  8  9  2  0
  9 10  1  0
  9 11  1  0
 11 12  2  0
  4 13  1  0
 13 14  2  0
 13 15  1  0
 15 16  1  0
 16 17  2  0
 17 18  1  0
 18 19  2  0
 19 20  1  0
 20 21  2  0
 21 22  1  0
  2 23  1  0
 23 24  2  0
 24 25  1  0
 25 26  2  0
 26 27  1  0
 12  6  1  0
 21 16  1  0
 27 23  1  0
  4 28  1  1
  5 29  1  0
  5 30  1  0
  7 31  1  0
  8 32  1  0
 11 33  1  0
 12 34  1  0
 17 35  1  0
 18 36  1  0
 19 37  1  0
 20 38  1  0
 22 39  1  0
 24 40  1  0
 25 41  1  0
 26 42  1  0
M  CHG  3   3  -1  10  -1  15  -1
M  END
>  <UniqueID>  (25) 
25

>  <SMILES>  (25) 
O=C([N-][C@H](Cc1ccc([O-])cc1)C(=O)[N-]c1ccccc1O)c1ccco1

>  <Energy>  (25) 
69.75718829525688

>  <Genealogy>  (25) 
O=C([N-]C(Cc1ccc([O-])cc1)C(=O)[N-]c1ccccc1O)c1ccco1 (protonated)
O=C([N-][C@H](Cc1ccc([O-])cc1)C(=O)[N-]c1ccccc1O)c1ccco1 (chirality)
O=C([N-][C@H](Cc1ccc([O-])cc1)C(=O)[N-]c1ccccc1O)c1ccco1 (3D coordinates assigned)
O=C([N-][C@H](Cc1ccc([O-])cc1)C(=O)[N-]c1ccccc1O)c1ccco1 (optimized conformer: 69.75718829525688 kcal/mol)

>  <smiles>  (25) 
O=C(NC(Cc1ccc(O)cc1)C(=O)Nc1ccccc1O)c1ccco1

>  <score_type>  (25) 
oracle

>  <origin>  (25) 
adgpu

>  <m_score__min__energy>  (25) 
-10.08

>  <m_primary>  (25) 
energy

$$$$
25:0
     RDKit          3D

 60 63  0  0  0  0  0  0  0  0999 V2000
   -6.1480   19.8130  -31.6010 C   0  0  0  0  0  0  0  0  0  0  0  0
   -6.9380   19.5300  -32.8130 N   0  0  0  0  0  0  0  0  0  0  0  0
   -7.6600   18.2460  -32.6960 C   0  0  0  0  0  0  0  0  0  0  0  0
   -6.7120   17.0380  -32.7740 C   0  0  0  0  0  0  0  0  0  0  0  0
   -5.7430   17.2010  -33.8540 N   0  0  0  0  0  0  0  0  0  0  0  0
   -4.7390   16.1900  -34.0570 C   0  0  0  0  0  0  0  0  0  0  0  0
   -5.0560   14.9690  -33.9690 O   0  0  0  0  0  0  0  0  0  0  0  0
   -3.3310   16.5480  -34.3060 C   0  0  0  0  0  0  0  0  0  0  0  0
   -2.5690   15.8350  -35.2480 C   0  0  0  0  0  0  0  0  0  0  0  0
   -1.2690   16.2450  -35.5490 C   0  0  0  0  0  0  0  0  0  0  0  0
   -0.7180   17.3600  -34.9050 C   0  0  0  0  0  0  0  0  0  0  0  0
   -1.4630   18.0750  -33.9590 C   0  0  0  0  0  0  0  0  0  0  0  0
   -0.7900   19.5090  -33.1930 S   0  0  0  0  0  0  0  0  0  0  0  0
    0.0830   19.1060  -32.0360 O   0  0  0  0  0  0  0  0  0  0  0  0
    0.0490   20.2360  -34.2050 O   0  0  0  0  0  0  0  0  0  0  0  0
   -2.0520   20.5840  -32.6020 C   0  0  0  0  0  0  0  0  0  0  0  0
   -2.0230   21.0880  -31.2960 C   0  0  0  0  0  0  0  0  0  0  0  0
   -2.9940   22.0180  -30.8810 C   0  0  0  0  0  0  0  0  0  0  0  0
   -3.9740   22.4880  -31.7660 C   0  0  0  0  0  0  0  0  0  0  0  0
   -4.8250   23.5690  -31.3250 N   0  0  0  0  0  0  0  0  0  0  0  0
   -4.5120   24.6570  -30.4320 C   0  0  0  0  0  0  0  0  0  0  0  0
   -3.8720   25.6710  -30.8310 O   0  0  0  0  0  0  0  0  0  0  0  0
   -4.9270   24.5390  -29.0120 C   0  0  0  0  0  0  0  0  0  0  0  0
   -4.1490   24.1420  -27.9870 C   0  0  0  0  0  0  0  0  0  0  0  0
   -2.6890   23.9290  -28.0750 C   0  0  0  0  0  0  0  0  0  0  0  0
   -2.1490   22.6590  -27.8160 C   0  0  0  0  0  0  0  0  0  0  0  0
   -0.7980   22.4220  -28.0870 C   0  0  0  0  0  0  0  0  0  0  0  0
    0.0080   23.4620  -28.5480 C   0  0  0  0  0  0  0  0  0  0  0  0
   -0.5300   24.6820  -28.7680 N   0  0  0  0  0  0  0  0  0  0  0  0
   -1.8510   24.9310  -28.5530 C   0  0  0  0  0  0  0  0  0  0  0  0
   -4.0190   21.9530  -33.0650 C   0  0  0  0  0  0  0  0  0  0  0  0
   -3.0660   21.0060  -33.4730 C   0  0  0  0  0  0  0  0  0  0  0  0
   -2.7640   17.6650  -33.6590 C   0  0  0  0  0  0  0  0  0  0  0  0
   -5.8840   18.3210  -34.7940 C   0  0  0  0  0  0  0  0  0  0  0  0
   -6.1040   19.6500  -34.0410 C   0  0  0  0  0  0  0  0  0  0  0  0
   -6.7542   19.5958  -30.7092 H   0  0  0  0  0  0  0  0  0  0  0  0
   -5.2473   19.1816  -31.5947 H   0  0  0  0  0  0  0  0  0  0  0  0
   -5.8530   20.8727  -31.5947 H   0  0  0  0  0  0  0  0  0  0  0  0
   -8.1859   18.2219  -31.7302 H   0  0  0  0  0  0  0  0  0  0  0  0
   -8.3652   18.1770  -33.5374 H   0  0  0  0  0  0  0  0  0  0  0  0
   -6.1737   16.9412  -31.8196 H   0  0  0  0  0  0  0  0  0  0  0  0
   -7.3097   16.1363  -32.9731 H   0  0  0  0  0  0  0  0  0  0  0  0
   -2.9973   14.9538  -35.7480 H   0  0  0  0  0  0  0  0  0  0  0  0
   -0.6768   15.6918  -36.2928 H   0  0  0  0  0  0  0  0  0  0  0  0
    0.3080   17.6766  -35.1441 H   0  0  0  0  0  0  0  0  0  0  0  0
   -1.2422   20.7574  -30.5953 H   0  0  0  0  0  0  0  0  0  0  0  0
   -2.9838   22.3827  -29.8433 H   0  0  0  0  0  0  0  0  0  0  0  0
   -5.9687   24.8006  -28.7743 H   0  0  0  0  0  0  0  0  0  0  0  0
   -4.6342   23.9637  -27.0160 H   0  0  0  0  0  0  0  0  0  0  0  0
   -2.7821   21.8592  -27.4043 H   0  0  0  0  0  0  0  0  0  0  0  0
   -0.3726   21.4187  -27.9370 H   0  0  0  0  0  0  0  0  0  0  0  0
    1.0788   23.2900  -28.7321 H   0  0  0  0  0  0  0  0  0  0  0  0
   -2.2586   25.9318  -28.7588 H   0  0  0  0  0  0  0  0  0  0  0  0
   -4.8036   22.2774  -33.7644 H   0  0  0  0  0  0  0  0  0  0  0  0
   -3.1158   20.5896  -34.4899 H   0  0  0  0  0  0  0  0  0  0  0  0
   -3.3514   18.2184  -32.9115 H   0  0  0  0  0  0  0  0  0  0  0  0
   -4.9700   18.3985  -35.4011 H   0  0  0  0  0  0  0  0  0  0  0  0
   -6.7576   18.1326  -35.4354 H   0  0  0  0  0  0  0  0  0  0  0  0
   -5.1204   20.0484  -33.7514 H   0  0  0  0  0  0  0  0  0  0  0  0
   -6.6498   20.3136  -34.7278 H   0  0  0  0  0  0  0  0  0  0  0  0
  1  2  1  0
  2  3  1  0
  3  4  1  0
  4  5  1  0
  5  6  1  0
  6  7  2  0
  6  8  1  0
  8  9  2  0
  9 10  1  0
 10 11  2  0
 11 12  1  0
 12 13  1  0
 13 14  2  0
 13 15  2  0
 13 16  1  0
 16 17  2  0
 17 18  1  0
 18 19  2  0
 19 20  1  0
 20 21  1  0
 21 22  2  0
 21 23  1  0
 23 24  2  3
 24 25  1  0
 25 26  2  0
 26 27  1  0
 27 28  2  0
 28 29  1  0
 29 30  2  0
 19 31  1  0
 31 32  2  0
 12 33  2  0
  5 34  1  0
 34 35  1  0
 35  2  1  0
 33  8  1  0
 32 16  1  0
 30 25  1  0
  1 36  1  0
  1 37  1  0
  1 38  1  0
  3 39  1  0
  3 40  1  0
  4 41  1  0
  4 42  1  0
  9 43  1  0
 10 44  1  0
 11 45  1  0
 17 46  1  0
 18 47  1  0
 23 48  1  0
 24 49  1  0
 26 50  1  0
 27 51  1  0
 28 52  1  0
 30 53  1  0
 31 54  1  0
 32 55  1  0
 33 56  1  0
 34 57  1  0
 34 58  1  0
 35 59  1  0
 35 60  1  0
M  CHG  1  20  -1
M  END
>  <UniqueID>  (26) 
26

>  <SMILES>  (26) 
CN1CCN(C(=O)c2cccc(S(=O)(=O)c3ccc([N-]C(=O)C=Cc4cccnc4)cc3)c2)CC1

>  <Energy>  (26) 
95.53762988463114

>  <Genealogy>  (26) 
CN1CCN(C(=O)c2cccc(S(=O)(=O)c3ccc([N-]C(=O)C=Cc4cccnc4)cc3)c2)CC1 (protonated)
CN1CCN(C(=O)c2cccc(S(=O)(=O)c3ccc([N-]C(=O)C=Cc4cccnc4)cc3)c2)CC1 (3D coordinates assigned)
CN1CCN(C(=O)c2cccc(S(=O)(=O)c3ccc([N-]C(=O)C=Cc4cccnc4)cc3)c2)CC1 (nonaromatic ring conformer: 95.53762988463114 kcal/mol)

>  <smiles>  (26) 
CN1CCN(C(=O)c2cccc(S(=O)(=O)c3ccc(NC(=O)C=Cc4cccnc4)cc3)c2)CC1

>  <score_type>  (26) 
oracle

>  <origin>  (26) 
adgpu

>  <m_score__min__energy>  (26) 
-13.039999999999999

>  <m_primary>  (26) 
energy

$$$$
26:0
     RDKit          3D

 62 65  0  0  0  0  0  0  0  0999 V2000
    0.2240   26.4680  -27.1220 C   0  0  0  0  0  0  0  0  0  0  0  0
   -1.2230   26.5290  -27.3090 N   0  0  0  0  0  0  0  0  0  0  0  0
   -1.9400   25.0280  -26.8090 S   0  0  0  0  0  0  0  0  0  0  0  0
   -3.3960   25.2550  -26.5020 O   0  0  0  0  0  0  0  0  0  0  0  0
   -1.2550   24.5420  -25.5640 O   0  0  0  0  0  0  0  0  0  0  0  0
   -1.7660   23.8040  -28.0720 C   0  0  0  0  0  0  0  0  0  0  0  0
   -1.1900   22.5620  -27.7710 C   0  0  0  0  0  0  0  0  0  0  0  0
   -1.0450   21.5890  -28.7640 C   0  0  0  0  0  0  0  0  0  0  0  0
   -0.4470   20.4110  -28.4480 F   0  0  0  0  0  0  0  0  0  0  0  0
   -1.4810   21.8450  -30.0770 C   0  0  0  0  0  0  0  0  0  0  0  0
   -1.3210   20.8580  -31.1140 N   0  0  0  0  0  0  0  0  0  0  0  0
   -0.0280   20.1930  -31.3070 C   0  0  0  0  0  0  0  0  0  0  0  0
   -0.2520   18.8030  -31.9090 C   0  0  0  0  0  0  0  0  0  0  0  0
   -0.9730   18.8620  -33.2020 N   0  0  0  0  0  0  0  0  0  0  0  0
   -1.7730   17.3400  -33.5270 S   0  0  0  0  0  0  0  0  0  0  0  0
   -1.1340   16.6860  -34.7210 O   0  0  0  0  0  0  0  0  0  0  0  0
   -1.6010   16.4230  -32.3480 O   0  0  0  0  0  0  0  0  0  0  0  0
   -3.4950   17.5710  -33.8430 C   0  0  0  0  0  0  0  0  0  0  0  0
   -4.0000   17.4430  -35.1440 C   0  0  0  0  0  0  0  0  0  0  0  0
   -5.3680   17.5810  -35.3850 C   0  0  0  0  0  0  0  0  0  0  0  0
   -6.2420   17.8380  -34.3260 C   0  0  0  0  0  0  0  0  0  0  0  0
   -5.7490   17.9670  -33.0230 C   0  0  0  0  0  0  0  0  0  0  0  0
   -6.8720   18.2530  -31.6960 S   0  0  0  0  0  0  0  0  0  0  0  0
   -8.2250   17.7360  -32.0990 O   0  0  0  0  0  0  0  0  0  0  0  0
   -6.4230   17.5140  -30.4640 O   0  0  0  0  0  0  0  0  0  0  0  0
   -6.9720   19.9640  -31.3700 N   0  0  0  0  0  0  0  0  0  0  0  0
   -8.3540   20.4360  -31.5750 C   0  0  0  0  0  0  0  0  0  0  0  0
   -8.4110   21.9780  -31.5900 C   0  0  0  0  0  0  0  0  0  0  0  0
   -7.2110   22.5310  -31.0910 O   0  0  0  0  0  0  0  0  0  0  0  0
   -6.1370   22.2090  -31.9590 C   0  0  0  0  0  0  0  0  0  0  0  0
   -6.0530   20.6960  -32.2520 C   0  0  0  0  0  0  0  0  0  0  0  0
   -4.3730   17.8500  -32.7860 C   0  0  0  0  0  0  0  0  0  0  0  0
   -1.9020   20.0090  -33.3520 C   0  0  0  0  0  0  0  0  0  0  0  0
   -2.4360   20.5330  -32.0110 C   0  0  0  0  0  0  0  0  0  0  0  0
   -2.0500   23.0930  -30.3760 C   0  0  0  0  0  0  0  0  0  0  0  0
   -2.1880   24.0690  -29.3840 C   0  0  0  0  0  0  0  0  0  0  0  0
   -2.7530   25.2980  -29.7120 O   0  0  0  0  0  0  0  0  0  0  0  0
    0.4546   26.4583  -26.0465 H   0  0  0  0  0  0  0  0  0  0  0  0
    0.6158   25.5525  -27.5893 H   0  0  0  0  0  0  0  0  0  0  0  0
    0.6915   27.3472  -27.5893 H   0  0  0  0  0  0  0  0  0  0  0  0
   -0.8498   22.3516  -26.7463 H   0  0  0  0  0  0  0  0  0  0  0  0
    0.5938   20.7917  -31.9889 H   0  0  0  0  0  0  0  0  0  0  0  0
    0.4811   20.0940  -30.3369 H   0  0  0  0  0  0  0  0  0  0  0  0
    0.7256   18.3251  -32.0701 H   0  0  0  0  0  0  0  0  0  0  0  0
   -0.8689   18.2257  -31.2047 H   0  0  0  0  0  0  0  0  0  0  0  0
   -3.3154   17.2329  -35.9789 H   0  0  0  0  0  0  0  0  0  0  0  0
   -5.7580   17.4873  -36.4093 H   0  0  0  0  0  0  0  0  0  0  0  0
   -7.3205   17.9392  -34.5170 H   0  0  0  0  0  0  0  0  0  0  0  0
   -8.7272   20.0522  -32.5359 H   0  0  0  0  0  0  0  0  0  0  0  0
   -8.9780   20.0686  -30.7470 H   0  0  0  0  0  0  0  0  0  0  0  0
   -8.5643   22.3228  -32.6233 H   0  0  0  0  0  0  0  0  0  0  0  0
   -9.2426   22.3055  -30.9487 H   0  0  0  0  0  0  0  0  0  0  0  0
   -6.2769   22.7459  -32.9088 H   0  0  0  0  0  0  0  0  0  0  0  0
   -5.2021   22.5076  -31.4622 H   0  0  0  0  0  0  0  0  0  0  0  0
   -6.3295   20.5117  -33.3006 H   0  0  0  0  0  0  0  0  0  0  0  0
   -5.0249   20.3488  -32.0720 H   0  0  0  0  0  0  0  0  0  0  0  0
   -3.9800   17.9775  -31.7666 H   0  0  0  0  0  0  0  0  0  0  0  0
   -1.3693   20.8265  -33.8599 H   0  0  0  0  0  0  0  0  0  0  0  0
   -2.7666   19.6561  -33.9332 H   0  0  0  0  0  0  0  0  0  0  0  0
   -3.0361   21.4378  -32.1874 H   0  0  0  0  0  0  0  0  0  0  0  0
   -3.0579   19.7553  -31.5436 H   0  0  0  0  0  0  0  0  0  0  0  0
   -2.3905   23.3052  -31.4002 H   0  0  0  0  0  0  0  0  0  0  0  0
  1  2  1  0
  2  3  1  0
  3  4  2  0
  3  5  2  0
  3  6  1  0
  6  7  2  0
  7  8  1  0
  8  9  1  0
  8 10  2  0
 10 11  1  0
 11 12  1  0
 12 13  1  0
 13 14  1  0
 14 15  1  0
 15 16  2  0
 15 17  2  0
 15 18  1  0
 18 19  2  0
 19 20  1  0
 20 21  2  0
 21 22  1  0
 22 23  1  0
 23 24  2  0
 23 25  2  0
 23 26  1  0
 26 27  1  0
 27 28  1  0
 28 29  1  0
 29 30  1  0
 30 31  1  0
 22 32  2  0
 14 33  1  0
 33 34  1  0
 10 35  1  0
 35 36  2  0
 36 37  1  0
 36  6  1  0
 34 11  1  0
 32 18  1  0
 31 26  1  0
  1 38  1  0
  1 39  1  0
  1 40  1  0
  7 41  1  0
 12 42  1  0
 12 43  1  0
 13 44  1  0
 13 45  1  0
 19 46  1  0
 20 47  1  0
 21 48  1  0
 27 49  1  0
 27 50  1  0
 28 51  1  0
 28 52  1  0
 30 53  1  0
 30 54  1  0
 31 55  1  0
 31 56  1  0
 32 57  1  0
 33 58  1  0
 33 59  1  0
 34 60  1  0
 34 61  1  0
 35 62  1  0
M  CHG  2   2  -1  37  -1
M  END
>  <UniqueID>  (27) 
27

>  <SMILES>  (27) 
C[N-]S(=O)(=O)c1cc(F)c(N2CCN(S(=O)(=O)c3cccc(S(=O)(=O)N4CCOCC4)c3)CC2)cc1[O-]

>  <Energy>  (27) 
78.83448940897748

>  <Genealogy>  (27) 
C[N-]S(=O)(=O)c1cc(F)c(N2CCN(S(=O)(=O)c3cccc(S(=O)(=O)N4CCOCC4)c3)CC2)cc1[O-] (protonated)
C[N-]S(=O)(=O)c1cc(F)c(N2CCN(S(=O)(=O)c3cccc(S(=O)(=O)N4CCOCC4)c3)CC2)cc1[O-] (3D coordinates assigned)
C[N-]S(=O)(=O)c1cc(F)c(N2CCN(S(=O)(=O)c3cccc(S(=O)(=O)N4CCOCC4)c3)CC2)cc1[O-] (nonaromatic ring conformer: 78.83448940897748 kcal/mol)

>  <smiles>  (27) 
CNS(=O)(=O)c1cc(F)c(N2CCN(S(=O)(=O)c3cccc(S(=O)(=O)N4CCOCC4)c3)CC2)cc1O

>  <score_type>  (27) 
oracle

>  <origin>  (27) 
adgpu

>  <m_score__min__energy>  (27) 
-13

>  <m_primary>  (27) 
energy

$$$$
27:0
     RDKit          3D

 61 64  0  0  1  0  0  0  0  0999 V2000
   -5.5300   14.3320  -34.2630 C   0  0  0  0  0  0  0  0  0  0  0  0
   -5.1120   15.6520  -33.7890 N   0  0  0  0  0  0  0  0  0  0  0  0
   -5.7540   16.8490  -34.1730 C   0  0  0  0  0  0  0  0  0  0  0  0
   -6.7330   16.7470  -34.9670 O   0  0  0  0  0  0  0  0  0  0  0  0
   -5.3230   18.1540  -33.6910 C   0  0  0  0  0  0  0  0  0  0  0  0
   -6.1210   19.2770  -33.7260 C   0  0  0  0  0  0  0  0  0  0  0  0
   -5.6720   20.4820  -33.2610 C   0  0  0  0  0  0  0  0  0  0  0  0
   -4.3880   20.6080  -32.7350 C   0  0  0  0  0  0  0  0  0  0  0  0
   -4.0060   21.8810  -32.2790 N   0  0  0  0  0  0  0  0  0  0  0  0
   -3.5510   22.1290  -31.1000 C   0  0  0  0  0  0  0  0  0  0  0  0
   -3.4150   21.1260  -30.2120 N   0  0  0  0  0  0  0  0  0  0  0  0
   -2.9360   21.4490  -29.0020 C   0  0  0  0  0  0  0  0  0  0  0  0
   -2.5870   22.7270  -28.6380 C   0  0  0  0  0  0  0  0  0  0  0  0
   -2.7550   23.7100  -29.6100 C   0  0  0  0  0  0  0  0  0  0  0  0
   -2.4480   24.9100  -29.3260 N   0  0  0  0  0  0  0  0  0  0  0  0
   -1.9340   25.3610  -28.0800 C   0  0  0  0  0  0  0  0  0  0  0  0
   -0.6920   25.9900  -28.1160 C   0  0  0  0  0  0  0  0  0  0  0  0
   -0.1680   26.4400  -26.9200 C   0  0  0  0  0  0  0  0  0  0  0  0
   -0.8320   26.2850  -25.7200 C   0  0  0  0  0  0  0  0  0  0  0  0
   -0.0520   26.9030  -24.2880 S   0  0  0  0  0  0  0  0  0  0  0  0
    1.2310   26.1330  -24.0350 O   0  0  0  0  0  0  0  0  0  0  0  0
   -0.8870   26.7320  -23.0550 O   0  0  0  0  0  0  0  0  0  0  0  0
    0.4010   28.5360  -24.5500 N   0  0  0  0  0  0  0  0  0  0  0  0
   -0.6830   29.4110  -24.8690 C   0  0  0  0  0  0  0  0  0  0  0  0
   -0.0770   30.7380  -25.2910 C   0  0  0  0  0  0  0  0  0  0  0  0
    1.3130   30.6840  -25.3460 O   0  0  0  0  0  0  0  0  0  0  0  0
    1.8540   30.3690  -24.0850 C   0  0  0  0  0  0  0  0  0  0  0  0
    1.2640   29.0820  -23.5490 C   0  0  0  0  0  0  0  0  0  0  0  0
   -2.0770   25.6560  -25.6780 C   0  0  0  0  0  0  0  0  0  0  0  0
   -2.6010   25.2050  -26.8820 C   0  0  0  0  0  0  0  0  0  0  0  0
   -3.2340   23.4070  -30.8300 N   0  0  0  0  0  0  0  0  0  0  0  0
   -3.5620   19.4920  -32.6870 C   0  0  0  0  0  0  0  0  0  0  0  0
   -2.3020   19.6550  -32.1620 O   0  0  0  0  0  0  0  0  0  0  0  0
   -1.2290   20.2480  -32.8670 C   0  0  0  0  0  0  0  0  0  0  0  0
   -4.0550   18.2970  -33.1680 C   0  0  0  0  0  0  0  0  0  0  0  0
   -5.7361   13.6811  -33.4006 H   0  0  0  0  0  0  0  0  0  0  0  0
   -6.4403   14.4325  -34.8724 H   0  0  0  0  0  0  0  0  0  0  0  0
   -4.7278   13.8903  -34.8724 H   0  0  0  0  0  0  0  0  0  0  0  0
   -4.2970   15.6550  -33.1370 H   0  0  0  0  0  0  0  0  0  0  0  0
   -7.1390   19.2026  -34.1360 H   0  0  0  0  0  0  0  0  0  0  0  0
   -6.3316   21.3613  -33.3027 H   0  0  0  0  0  0  0  0  0  0  0  0
   -3.6860   20.1820  -30.5180 H   0  0  0  0  0  0  0  0  0  0  0  0
   -2.8158   20.6462  -28.2596 H   0  0  0  0  0  0  0  0  0  0  0  0
   -2.1972   22.9604  -27.6362 H   0  0  0  0  0  0  0  0  0  0  0  0
   -0.1480   26.1236  -29.0627 H   0  0  0  0  0  0  0  0  0  0  0  0
    0.8122   26.9391  -26.9240 H   0  0  0  0  0  0  0  0  0  0  0  0
   -1.2784   28.9894  -25.6922 H   0  0  0  0  0  0  0  0  0  0  0  0
   -1.3479   29.5423  -24.0026 H   0  0  0  0  0  0  0  0  0  0  0  0
   -0.4615   31.0030  -26.2869 H   0  0  0  0  0  0  0  0  0  0  0  0
   -0.3577   31.4927  -24.5416 H   0  0  0  0  0  0  0  0  0  0  0  0
    2.9438   30.2534  -24.1796 H   0  0  0  0  0  0  0  0  0  0  0  0
    1.6127   31.1835  -23.3862 H   0  0  0  0  0  0  0  0  0  0  0  0
    2.0701   28.3686  -23.3227 H   0  0  0  0  0  0  0  0  0  0  0  0
    0.6991   29.2782  -22.6257 H   0  0  0  0  0  0  0  0  0  0  0  0
   -2.6203   25.5231  -24.7308 H   0  0  0  0  0  0  0  0  0  0  0  0
   -3.5814   24.7062  -26.8810 H   0  0  0  0  0  0  0  0  0  0  0  0
   -3.3420   24.1740  -31.5190 H   0  0  0  0  0  0  0  0  0  0  0  0
   -0.4983   20.6518  -32.1507 H   0  0  0  0  0  0  0  0  0  0  0  0
   -0.7426   19.4906  -33.4993 H   0  0  0  0  0  0  0  0  0  0  0  0
   -1.6115   21.0628  -33.4993 H   0  0  0  0  0  0  0  0  0  0  0  0
   -3.4028   17.4119  -33.1326 H   0  0  0  0  0  0  0  0  0  0  0  0
  1  2  1  0
  2  3  1  0
  3  4  2  0
  3  5  1  0
  5  6  2  0
  6  7  1  0
  7  8  2  0
  8  9  1  0
  9 10  2  0
 10 11  1  0
 11 12  1  0
 12 13  2  0
 13 14  1  0
 14 15  2  0
 15 16  1  0
 16 17  2  0
 17 18  1  0
 18 19  2  0
 19 20  1  0
 20 21  2  0
 20 22  2  0
 20 23  1  0
 23 24  1  0
 24 25  1  0
 25 26  1  0
 26 27  1  0
 27 28  1  0
 19 29  1  0
 29 30  2  0
 14 31  1  0
  8 32  1  0
 32 33  1  0
 33 34  1  0
 32 35  2  0
 35  5  1  0
 31 10  1  0
 30 16  1  0
 28 23  1  0
  1 36  1  0
  1 37  1  0
  1 38  1  0
  2 39  1  0
  6 40  1  0
  7 41  1  0
 11 42  1  0
 12 43  1  0
 13 44  1  0
 17 45  1  0
 18 46  1  0
 24 47  1  0
 24 48  1  0
 25 49  1  0
 25 50  1  0
 27 51  1  0
 27 52  1  0
 28 53  1  0
 28 54  1  0
 29 55  1  0
 30 56  1  0
 31 57  1  0
 34 58  1  0
 34 59  1  0
 34 60  1  0
 35 61  1  0
M  END
>  <smiles>  (28) 
CNC(=O)c1ccc(N=c2[nH]ccc(=Nc3ccc(S(=O)(=O)N4CCOCC4)cc3)[nH]2)c(OC)c1

>  <score_type>  (28) 
oracle

>  <origin>  (28) 
adgpu

>  <m_score__min__energy>  (28) 
-10.529999999999999

>  <m_primary>  (28) 
energy

$$$$
28:0
     RDKit          3D

 33 35  0  0  0  0  0  0  0  0999 V2000
   -6.1000   18.2990  -34.6420 N   0  0  0  0  0  0  0  0  0  0  0  0
   -6.2240   19.3350  -33.9070 C   0  0  0  0  0  0  0  0  0  0  0  0
   -7.3910   19.9050  -33.5580 N   0  0  0  0  0  0  0  0  0  0  0  0
   -7.1020   20.9480  -32.7960 N   0  0  0  0  0  0  0  0  0  0  0  0
   -5.7720   21.0680  -32.6430 C   0  0  0  0  0  0  0  0  0  0  0  0
   -5.1280   22.1140  -31.8590 C   0  0  0  0  0  0  0  0  0  0  0  0
   -3.9930   21.8930  -31.1030 C   0  0  0  0  0  0  0  0  0  0  0  0
   -3.4800   22.9670  -30.4050 C   0  0  0  0  0  0  0  0  0  0  0  0
   -4.0320   24.2180  -30.4280 C   0  0  0  0  0  0  0  0  0  0  0  0
   -3.5130   25.3010  -29.7240 O   0  0  0  0  0  0  0  0  0  0  0  0
   -5.1630   24.4170  -31.1880 C   0  0  0  0  0  0  0  0  0  0  0  0
   -5.7120   23.3720  -31.9030 C   0  0  0  0  0  0  0  0  0  0  0  0
   -5.1790   20.0380  -33.3490 C   0  0  0  0  0  0  0  0  0  0  0  0
   -3.7470   19.7780  -33.4620 C   0  0  0  0  0  0  0  0  0  0  0  0
   -3.1950   18.5340  -33.2200 C   0  0  0  0  0  0  0  0  0  0  0  0
   -1.8290   18.3720  -33.3500 C   0  0  0  0  0  0  0  0  0  0  0  0
   -0.9810   19.3970  -33.7120 C   0  0  0  0  0  0  0  0  0  0  0  0
   -1.5360   20.6390  -33.9540 C   0  0  0  0  0  0  0  0  0  0  0  0
   -0.7040   21.7120  -34.3260 O   0  0  0  0  0  0  0  0  0  0  0  0
   -2.9040   20.8150  -33.8270 C   0  0  0  0  0  0  0  0  0  0  0  0
   -6.8660   17.7630  -35.0660 H   0  0  0  0  0  0  0  0  0  0  0  0
   -8.3510   19.5860  -33.8350 H   0  0  0  0  0  0  0  0  0  0  0  0
   -7.8370   21.5650  -32.3910 H   0  0  0  0  0  0  0  0  0  0  0  0
   -3.5179   20.9018  -31.0593 H   0  0  0  0  0  0  0  0  0  0  0  0
   -2.5774   22.8082  -29.7966 H   0  0  0  0  0  0  0  0  0  0  0  0
   -4.0010   25.6380  -28.8880 H   0  0  0  0  0  0  0  0  0  0  0  0
   -5.6304   25.4121  -31.2253 H   0  0  0  0  0  0  0  0  0  0  0  0
   -6.6149   23.5367  -32.5094 H   0  0  0  0  0  0  0  0  0  0  0  0
   -3.8330   17.6866  -32.9286 H   0  0  0  0  0  0  0  0  0  0  0  0
   -1.3980   17.3788  -33.1556 H   0  0  0  0  0  0  0  0  0  0  0  0
    0.1025   19.2314  -33.8052 H   0  0  0  0  0  0  0  0  0  0  0  0
   -1.0100   22.4110  -35.0020 H   0  0  0  0  0  0  0  0  0  0  0  0
   -3.3342   21.8085  -34.0219 H   0  0  0  0  0  0  0  0  0  0  0  0
  1  2  2  3
  2  3  1  0
  3  4  1  0
  4  5  1  0
  5  6  1  0
  6  7  2  0
  7  8  1  0
  8  9  2  0
  9 10  1  0
  9 11  1  0
 11 12  2  0
  5 13  2  0
 13 14  1  0
 14 15  2  0
 15 16  1  0
 16 17  2  0
 17 18  1  0
 18 19  1  0
 18 20  2  0
 13  2  1  0
 20 14  1  0
 12  6  1  0
  1 21  1  0
  3 22  1  0
  4 23  1  0
  7 24  1  0
  8 25  1  0
 10 26  1  0
 11 27  1  0
 12 28  1  0
 15 29  1  0
 16 30  1  0
 17 31  1  0
 19 32  1  0
 20 33  1  0
M  END
>  <smiles>  (29) 
N=c1[nH][nH]c(-c2ccc(O)cc2)c1-c1cccc(O)c1

>  <score_type>  (29) 
oracle

>  <origin>  (29) 
adgpu

>  <m_score__min__energy>  (29) 
-8.3000000000000007

>  <m_primary>  (29) 
energy

$$$$
29:0
     RDKit          3D

 51 55  0  0  0  0  0  0  0  0999 V2000
   -1.4740   25.0010  -26.4530 C   0  0  0  0  0  0  0  0  0  0  0  0
   -0.1800   24.9430  -26.9740 C   0  0  0  0  0  0  0  0  0  0  0  0
    0.0090   24.7170  -28.2990 N   0  0  0  0  0  0  0  0  0  0  0  0
   -1.0360   24.5330  -29.1510 C   0  0  0  0  0  0  0  0  0  0  0  0
   -2.3530   24.5600  -28.6700 C   0  0  0  0  0  0  0  0  0  0  0  0
   -3.4820   24.3330  -29.5930 C   0  0  0  0  0  0  0  0  0  0  0  0
   -3.9080   25.2620  -30.4710 N   0  0  0  0  0  0  0  0  0  0  0  0
   -4.8580   24.6990  -31.2040 N   0  0  0  0  0  0  0  0  0  0  0  0
   -4.9890   23.4320  -30.7700 C   0  0  0  0  0  0  0  0  0  0  0  0
   -6.1330   22.2580  -31.4970 S   0  0  0  0  0  0  0  0  0  0  0  0
   -4.8140   21.3450  -32.2960 C   0  0  0  0  0  0  0  0  0  0  0  0
   -3.7150   22.0170  -32.8450 C   0  0  0  0  0  0  0  0  0  0  0  0
   -2.6830   21.2960  -33.4520 C   0  0  0  0  0  0  0  0  0  0  0  0
   -2.7520   19.8960  -33.5350 C   0  0  0  0  0  0  0  0  0  0  0  0
   -1.7060   19.1460  -34.1730 N   0  0  0  0  0  0  0  0  0  0  0  0
   -0.4490   19.8200  -34.5100 C   0  0  0  0  0  0  0  0  0  0  0  0
    0.2440   19.0810  -35.6610 C   0  0  0  0  0  0  0  0  0  0  0  0
    0.3540   17.6970  -35.3820 O   0  0  0  0  0  0  0  0  0  0  0  0
   -0.9370   17.1200  -35.3080 C   0  0  0  0  0  0  0  0  0  0  0  0
   -1.7140   17.6820  -34.1130 C   0  0  0  0  0  0  0  0  0  0  0  0
   -3.8640   19.2280  -33.0020 C   0  0  0  0  0  0  0  0  0  0  0  0
   -4.8850   19.9490  -32.3740 C   0  0  0  0  0  0  0  0  0  0  0  0
   -4.1420   23.1610  -29.7550 N   0  0  0  0  0  0  0  0  0  0  0  0
   -3.8400   21.8480  -29.1730 C   0  0  0  0  0  0  0  0  0  0  0  0
   -2.4710   21.4060  -29.5790 C   0  0  0  0  0  0  0  0  0  0  0  0
   -1.7580   20.3700  -29.0140 C   0  0  0  0  0  0  0  0  0  0  0  0
   -0.5790   20.3040  -29.7230 C   0  0  0  0  0  0  0  0  0  0  0  0
   -0.6440   21.3030  -30.6720 C   0  0  0  0  0  0  0  0  0  0  0  0
   -1.7840   21.9430  -30.5610 O   0  0  0  0  0  0  0  0  0  0  0  0
   -2.5640   24.8220  -27.3080 C   0  0  0  0  0  0  0  0  0  0  0  0
   -1.6335   25.1857  -25.3804 H   0  0  0  0  0  0  0  0  0  0  0  0
    0.6866   25.0805  -26.3105 H   0  0  0  0  0  0  0  0  0  0  0  0
   -0.8469   24.3624  -30.2211 H   0  0  0  0  0  0  0  0  0  0  0  0
   -3.6638   23.1148  -32.7984 H   0  0  0  0  0  0  0  0  0  0  0  0
   -1.8134   21.8273  -33.8663 H   0  0  0  0  0  0  0  0  0  0  0  0
   -0.6603   20.8554  -34.8154 H   0  0  0  0  0  0  0  0  0  0  0  0
    0.2103   19.8206  -33.6295 H   0  0  0  0  0  0  0  0  0  0  0  0
   -0.3433   19.2169  -36.5811 H   0  0  0  0  0  0  0  0  0  0  0  0
    1.2555   19.4951  -35.7848 H   0  0  0  0  0  0  0  0  0  0  0  0
   -1.4866   17.3448  -36.2340 H   0  0  0  0  0  0  0  0  0  0  0  0
   -0.8314   16.0324  -35.1812 H   0  0  0  0  0  0  0  0  0  0  0  0
   -2.7518   17.3189  -34.1463 H   0  0  0  0  0  0  0  0  0  0  0  0
   -1.2404   17.3498  -33.1774 H   0  0  0  0  0  0  0  0  0  0  0  0
   -3.9336   18.1328  -33.0781 H   0  0  0  0  0  0  0  0  0  0  0  0
   -5.7454   19.4181  -31.9406 H   0  0  0  0  0  0  0  0  0  0  0  0
   -3.8893   21.9166  -28.0763 H   0  0  0  0  0  0  0  0  0  0  0  0
   -4.5762   21.1161  -29.5369 H   0  0  0  0  0  0  0  0  0  0  0  0
   -2.0660   19.7306  -28.1736 H   0  0  0  0  0  0  0  0  0  0  0  0
    0.2483   19.5967  -29.5643 H   0  0  0  0  0  0  0  0  0  0  0  0
    0.1404   21.5287  -31.4094 H   0  0  0  0  0  0  0  0  0  0  0  0
   -3.5886   24.8865  -26.9131 H   0  0  0  0  0  0  0  0  0  0  0  0
  1  2  2  0
  2  3  1  0
  3  4  2  0
  4  5  1  0
  5  6  1  0
  6  7  2  0
  7  8  1  0
  8  9  2  0
  9 10  1  0
 10 11  1  0
 11 12  2  0
 12 13  1  0
 13 14  2  0
 14 15  1  0
 15 16  1  0
 16 17  1  0
 17 18  1  0
 18 19  1  0
 19 20  1  0
 14 21  1  0
 21 22  2  0
  9 23  1  0
 23 24  1  0
 24 25  1  0
 25 26  2  0
 26 27  1  0
 27 28  2  0
 28 29  1  0
  5 30  2  0
 30  1  1  0
 23  6  1  0
 29 25  1  0
 22 11  1  0
 20 15  1  0
  1 31  1  0
  2 32  1  0
  4 33  1  0
 12 34  1  0
 13 35  1  0
 16 36  1  0
 16 37  1  0
 17 38  1  0
 17 39  1  0
 19 40  1  0
 19 41  1  0
 20 42  1  0
 20 43  1  0
 21 44  1  0
 22 45  1  0
 24 46  1  0
 24 47  1  0
 26 48  1  0
 27 49  1  0
 28 50  1  0
 30 51  1  0
M  END
>  <UniqueID>  (30) 
28

>  <SMILES>  (30) 
c1cncc(-c2nnc(Sc3ccc(N4CCOCC4)cc3)n2Cc2ccco2)c1

>  <Energy>  (30) 
122.27890763203784

>  <Genealogy>  (30) 
c1cncc(-c2nnc(Sc3ccc(N4CCOCC4)cc3)n2Cc2ccco2)c1 (3D coordinates assigned)
c1cncc(-c2nnc(Sc3ccc(N4CCOCC4)cc3)n2Cc2ccco2)c1 (nonaromatic ring conformer: 122.27890763203784 kcal/mol)

>  <smiles>  (30) 
c1cncc(-c2nnc(Sc3ccc(N4CCOCC4)cc3)n2Cc2ccco2)c1

>  <score_type>  (30) 
oracle

>  <origin>  (30) 
adgpu

>  <m_score__min__energy>  (30) 
-8.5700000000000003

>  <m_primary>  (30) 
energy

$$$$
30:0
     RDKit          3D

 30 32  0  0  0  0  0  0  0  0999 V2000
   -7.6110   24.3110  -30.9190 O   0  0  0  0  0  0  0  0  0  0  0  0
   -6.6490   23.5130  -31.0660 C   0  0  0  0  0  0  0  0  0  0  0  0
   -6.8960   22.2580  -31.7200 N   0  0  0  0  0  0  0  0  0  0  0  0
   -8.1690   21.5430  -31.7970 C   0  0  0  0  0  0  0  0  0  0  0  0
   -7.9510   20.0750  -31.9920 C   0  0  0  0  0  0  0  0  0  0  0  0
   -6.7450   19.4600  -32.2450 C   0  0  0  0  0  0  0  0  0  0  0  0
   -7.0650   18.1230  -32.3420 C   0  0  0  0  0  0  0  0  0  0  0  0
   -8.3910   17.9640  -32.1610 N   0  0  0  0  0  0  0  0  0  0  0  0
   -8.9320   19.1540  -31.9480 N   0  0  0  0  0  0  0  0  0  0  0  0
   -5.3140   23.9290  -30.6030 C   0  0  0  0  0  0  0  0  0  0  0  0
   -4.5870   23.3970  -29.5570 C   0  0  0  0  0  0  0  0  0  0  0  0
   -3.4350   24.1610  -29.5240 C   0  0  0  0  0  0  0  0  0  0  0  0
   -2.2750   24.0000  -28.6150 C   0  0  0  0  0  0  0  0  0  0  0  0
   -2.1920   22.8440  -27.8160 C   0  0  0  0  0  0  0  0  0  0  0  0
   -1.1220   22.6620  -26.9370 C   0  0  0  0  0  0  0  0  0  0  0  0
   -0.1160   23.6250  -26.8490 C   0  0  0  0  0  0  0  0  0  0  0  0
   -0.1740   24.7690  -27.6460 C   0  0  0  0  0  0  0  0  0  0  0  0
   -1.2390   24.9600  -28.5340 C   0  0  0  0  0  0  0  0  0  0  0  0
   -1.2380   26.0900  -29.3430 O   0  0  0  0  0  0  0  0  0  0  0  0
   -3.4920   25.0940  -30.4960 N   0  0  0  0  0  0  0  0  0  0  0  0
   -4.6390   24.9610  -31.1430 N   0  0  0  0  0  0  0  0  0  0  0  0
   -8.7277   21.7024  -30.8630 H   0  0  0  0  0  0  0  0  0  0  0  0
   -8.7356   21.9296  -32.6569 H   0  0  0  0  0  0  0  0  0  0  0  0
   -5.7547   19.9280  -32.3463 H   0  0  0  0  0  0  0  0  0  0  0  0
   -6.3488   17.3112  -32.5370 H   0  0  0  0  0  0  0  0  0  0  0  0
   -4.8612   22.5580  -28.9006 H   0  0  0  0  0  0  0  0  0  0  0  0
   -2.9773   22.0768  -27.8846 H   0  0  0  0  0  0  0  0  0  0  0  0
   -1.0722   21.7576  -26.3128 H   0  0  0  0  0  0  0  0  0  0  0  0
    0.7226   23.4824  -26.1515 H   0  0  0  0  0  0  0  0  0  0  0  0
    0.6219   25.5251  -27.5760 H   0  0  0  0  0  0  0  0  0  0  0  0
  1  2  2  0
  2  3  1  0
  3  4  1  0
  4  5  1  0
  5  6  1  0
  6  7  2  0
  7  8  1  0
  8  9  1  0
  2 10  1  0
 10 11  1  0
 11 12  2  0
 12 13  1  0
 13 14  2  0
 14 15  1  0
 15 16  2  0
 16 17  1  0
 17 18  2  0
 18 19  1  0
 12 20  1  0
 20 21  1  0
  9  5  2  0
 21 10  2  0
 18 13  1  0
  4 22  1  0
  4 23  1  0
  6 24  1  0
  7 25  1  0
 11 26  1  0
 14 27  1  0
 15 28  1  0
 16 29  1  0
 17 30  1  0
M  CHG  4   3  -1   8  -1  19  -1  20  -1
M  END
>  <UniqueID>  (31) 
29

>  <SMILES>  (31) 
O=C([N-]Cc1cc[n-]n1)c1cc(-c2ccccc2[O-])[n-]n1

>  <Energy>  (31) 
96.28178209618505

>  <Genealogy>  (31) 
O=C([N-]Cc1cc[n-]n1)c1cc(-c2ccccc2[O-])[n-]n1 (protonated)
O=C([N-]Cc1cc[n-]n1)c1cc(-c2ccccc2[O-])[n-]n1 (3D coordinates assigned)
O=C([N-]Cc1cc[n-]n1)c1cc(-c2ccccc2[O-])[n-]n1 (optimized conformer: 96.28178209618505 kcal/mol)

>  <smiles>  (31) 
O=C(NCc1cc[nH]n1)c1cc(-c2ccccc2O)[nH]n1

>  <score_type>  (31) 
oracle

>  <origin>  (31) 
adgpu

>  <m_score__min__energy>  (31) 
-12.31

>  <m_primary>  (31) 
energy

$$$$
31:0
     RDKit          3D

 48 50  0  0  0  0  0  0  0  0999 V2000
   -3.2190   16.0240  -33.5050 C   0  0  0  0  0  0  0  0  0  0  0  0
   -4.5520   16.5300  -33.9720 C   0  0  0  0  0  0  0  0  0  0  0  0
   -5.2110   15.8180  -34.7760 O   0  0  0  0  0  0  0  0  0  0  0  0
   -5.0970   17.7860  -33.5060 N   0  0  0  0  0  0  0  0  0  0  0  0
   -4.4330   18.5570  -32.4420 C   0  0  0  0  0  0  0  0  0  0  0  0
   -5.4690   19.2570  -31.5590 C   0  0  0  0  0  0  0  0  0  0  0  0
   -6.4570   19.9540  -32.3890 N   0  0  0  0  0  0  0  0  0  0  0  0
   -7.0570   21.1710  -31.9100 C   0  0  0  0  0  0  0  0  0  0  0  0
   -8.3140   21.2500  -31.8310 O   0  0  0  0  0  0  0  0  0  0  0  0
   -6.2270   22.3360  -31.5260 C   0  0  0  0  0  0  0  0  0  0  0  0
   -6.8100   23.6010  -31.3450 C   0  0  0  0  0  0  0  0  0  0  0  0
   -6.0250   24.6950  -30.9830 C   0  0  0  0  0  0  0  0  0  0  0  0
   -4.6500   24.5440  -30.7820 C   0  0  0  0  0  0  0  0  0  0  0  0
   -3.8910   25.6660  -30.4730 O   0  0  0  0  0  0  0  0  0  0  0  0
   -4.0530   23.2750  -30.9180 C   0  0  0  0  0  0  0  0  0  0  0  0
   -2.6460   23.0700  -30.7140 N   0  0  0  0  0  0  0  0  0  0  0  0
   -1.8540   23.3730  -29.1990 S   0  0  0  0  0  0  0  0  0  0  0  0
   -0.6170   24.1940  -29.4410 O   0  0  0  0  0  0  0  0  0  0  0  0
   -2.7810   24.1480  -28.3050 O   0  0  0  0  0  0  0  0  0  0  0  0
   -1.4350   21.8520  -28.4180 C   0  0  0  0  0  0  0  0  0  0  0  0
   -0.1130   21.3890  -28.4460 C   0  0  0  0  0  0  0  0  0  0  0  0
    0.2210   20.1820  -27.8230 C   0  0  0  0  0  0  0  0  0  0  0  0
   -0.7640   19.4320  -27.1740 C   0  0  0  0  0  0  0  0  0  0  0  0
   -2.0860   19.8870  -27.1490 C   0  0  0  0  0  0  0  0  0  0  0  0
   -3.4330   18.8610  -26.2660 Br  0  0  0  0  0  0  0  0  0  0  0  0
   -2.4220   21.0940  -27.7710 C   0  0  0  0  0  0  0  0  0  0  0  0
   -4.8470   22.1830  -31.3060 C   0  0  0  0  0  0  0  0  0  0  0  0
   -7.1360   19.1730  -33.4240 C   0  0  0  0  0  0  0  0  0  0  0  0
   -6.1060   18.4830  -34.3190 C   0  0  0  0  0  0  0  0  0  0  0  0
   -3.1950   16.0149  -32.4053 H   0  0  0  0  0  0  0  0  0  0  0  0
   -3.0611   15.0034  -33.8837 H   0  0  0  0  0  0  0  0  0  0  0  0
   -2.4236   16.6827  -33.8837 H   0  0  0  0  0  0  0  0  0  0  0  0
   -3.8315   17.8752  -31.8228 H   0  0  0  0  0  0  0  0  0  0  0  0
   -3.7882   19.3186  -32.9048 H   0  0  0  0  0  0  0  0  0  0  0  0
   -5.9811   18.5081  -30.9370 H   0  0  0  0  0  0  0  0  0  0  0  0
   -4.9569   19.9911  -30.9196 H   0  0  0  0  0  0  0  0  0  0  0  0
   -7.8928   23.7294  -31.4898 H   0  0  0  0  0  0  0  0  0  0  0  0
   -6.4907   25.6832  -30.8548 H   0  0  0  0  0  0  0  0  0  0  0  0
   -2.1230   22.4840  -31.4020 H   0  0  0  0  0  0  0  0  0  0  0  0
    0.6635   21.9756  -28.9587 H   0  0  0  0  0  0  0  0  0  0  0  0
    1.2604   19.8225  -27.8438 H   0  0  0  0  0  0  0  0  0  0  0  0
   -0.4992   18.4840  -26.6830 H   0  0  0  0  0  0  0  0  0  0  0  0
   -3.4628   21.4496  -27.7527 H   0  0  0  0  0  0  0  0  0  0  0  0
   -4.3826   21.1948  -31.4395 H   0  0  0  0  0  0  0  0  0  0  0  0
   -7.7723   18.4125  -32.9478 H   0  0  0  0  0  0  0  0  0  0  0  0
   -7.7537   19.8459  -34.0369 H   0  0  0  0  0  0  0  0  0  0  0  0
   -6.6182   17.7531  -34.9632 H   0  0  0  0  0  0  0  0  0  0  0  0
   -5.6024   19.2448  -34.9323 H   0  0  0  0  0  0  0  0  0  0  0  0
  1  2  1  0
  2  3  2  0
  2  4  1  0
  4  5  1  0
  5  6  1  0
  6  7  1  0
  7  8  1  0
  8  9  2  0
  8 10  1  0
 10 11  2  0
 11 12  1  0
 12 13  2  0
 13 14  1  0
 13 15  1  0
 15 16  1  0
 16 17  1  0
 17 18  2  0
 17 19  2  0
 17 20  1  0
 20 21  2  0
 21 22  1  0
 22 23  2  0
 23 24  1  0
 24 25  1  0
 24 26  2  0
 15 27  2  0
  7 28  1  0
 28 29  1  0
 29  4  1  0
 27 10  1  0
 26 20  1  0
  1 30  1  0
  1 31  1  0
  1 32  1  0
  5 33  1  0
  5 34  1  0
  6 35  1  0
  6 36  1  0
 11 37  1  0
 12 38  1  0
 16 39  1  0
 21 40  1  0
 22 41  1  0
 23 42  1  0
 26 43  1  0
 27 44  1  0
 28 45  1  0
 28 46  1  0
 29 47  1  0
 29 48  1  0
M  CHG  1  14  -1
M  END
>  <UniqueID>  (32) 
30

>  <SMILES>  (32) 
CC(=O)N1CCN(C(=O)c2ccc([O-])c(NS(=O)(=O)c3cccc(Br)c3)c2)CC1

>  <Energy>  (32) 
59.197363286697104

>  <Genealogy>  (32) 
CC(=O)N1CCN(C(=O)c2ccc([O-])c(NS(=O)(=O)c3cccc(Br)c3)c2)CC1 (protonated)
CC(=O)N1CCN(C(=O)c2ccc([O-])c(NS(=O)(=O)c3cccc(Br)c3)c2)CC1 (3D coordinates assigned)
CC(=O)N1CCN(C(=O)c2ccc([O-])c(NS(=O)(=O)c3cccc(Br)c3)c2)CC1 (nonaromatic ring conformer: 59.197363286697104 kcal/mol)

>  <smiles>  (32) 
CC(=O)N1CCN(C(=O)c2ccc(O)c(NS(=O)(=O)c3cccc(Br)c3)c2)CC1

>  <score_type>  (32) 
oracle

>  <origin>  (32) 
adgpu

>  <m_score__min__energy>  (32) 
-12.69

>  <m_primary>  (32) 
energy

$$$$
32:0
     RDKit          3D

 57 61  0  0  0  0  0  0  0  0999 V2000
   -2.0760   25.2650  -29.3580 O   0  0  0  0  0  0  0  0  0  0  0  0
   -1.4730   24.1620  -29.3390 C   0  0  0  0  0  0  0  0  0  0  0  0
   -0.2970   24.0450  -28.5270 N   0  0  0  0  0  0  0  0  0  0  0  0
   -0.2550   24.0420  -27.0940 C   0  0  0  0  0  0  0  0  0  0  0  0
   -0.0600   25.2640  -26.4380 C   0  0  0  0  0  0  0  0  0  0  0  0
   -0.0570   25.3290  -25.0440 C   0  0  0  0  0  0  0  0  0  0  0  0
   -0.2340   24.1700  -24.2910 C   0  0  0  0  0  0  0  0  0  0  0  0
   -0.3940   22.9380  -24.9300 C   0  0  0  0  0  0  0  0  0  0  0  0
   -0.3940   22.8530  -26.3330 C   0  0  0  0  0  0  0  0  0  0  0  0
   -0.4550   21.5570  -26.9610 N   0  0  0  0  0  0  0  0  0  0  0  0
   -1.6040   20.6740  -26.7340 C   0  0  0  0  0  0  0  0  0  0  0  0
   -2.0920   20.0880  -28.0700 C   0  0  0  0  0  0  0  0  0  0  0  0
   -1.0090   19.5890  -28.9480 N   0  0  0  0  0  0  0  0  0  0  0  0
    0.3440   19.7160  -28.3890 C   0  0  0  0  0  0  0  0  0  0  0  0
    0.5920   21.1460  -27.9050 C   0  0  0  0  0  0  0  0  0  0  0  0
   -2.0080   23.0210  -30.1170 C   0  0  0  0  0  0  0  0  0  0  0  0
   -1.0670   21.9230  -31.0040 S   0  0  0  0  0  0  0  0  0  0  0  0
   -2.3610   21.0560  -31.6250 C   0  0  0  0  0  0  0  0  0  0  0  0
   -2.3280   19.9690  -32.4910 C   0  0  0  0  0  0  0  0  0  0  0  0
   -3.5480   19.3920  -32.9020 C   0  0  0  0  0  0  0  0  0  0  0  0
   -3.5380   18.2270  -33.8210 C   0  0  0  0  0  0  0  0  0  0  0  0
   -2.6030   17.2100  -33.8710 C   0  0  0  0  0  0  0  0  0  0  0  0
   -3.0430   16.3920  -34.8870 C   0  0  0  0  0  0  0  0  0  0  0  0
   -4.1750   16.8950  -35.4110 N   0  0  0  0  0  0  0  0  0  0  0  0
   -4.4770   18.0100  -34.7640 N   0  0  0  0  0  0  0  0  0  0  0  0
   -4.7650   19.9400  -32.4260 C   0  0  0  0  0  0  0  0  0  0  0  0
   -4.7670   21.0410  -31.5530 C   0  0  0  0  0  0  0  0  0  0  0  0
   -3.5470   21.5930  -31.1550 C   0  0  0  0  0  0  0  0  0  0  0  0
   -3.3590   22.6810  -30.2870 C   0  0  0  0  0  0  0  0  0  0  0  0
   -4.4450   23.3910  -29.6830 N   0  0  0  0  0  0  0  0  0  0  0  0
   -5.5680   23.8670  -30.4880 C   0  0  0  0  0  0  0  0  0  0  0  0
   -5.3660   25.3300  -30.8870 C   0  0  0  0  0  0  0  0  0  0  0  0
   -4.0110   25.6810  -30.8190 O   0  0  0  0  0  0  0  0  0  0  0  0
    0.0921   26.1806  -27.0268 H   0  0  0  0  0  0  0  0  0  0  0  0
    0.0852   26.2959  -24.5392 H   0  0  0  0  0  0  0  0  0  0  0  0
   -0.2478   24.2252  -23.1925 H   0  0  0  0  0  0  0  0  0  0  0  0
   -0.5212   22.0254  -24.3292 H   0  0  0  0  0  0  0  0  0  0  0  0
   -1.3060   19.8539  -26.0642 H   0  0  0  0  0  0  0  0  0  0  0  0
   -2.4189   21.2538  -26.2760 H   0  0  0  0  0  0  0  0  0  0  0  0
   -2.7715   19.2511  -27.8514 H   0  0  0  0  0  0  0  0  0  0  0  0
   -2.5849   20.9082  -28.6126 H   0  0  0  0  0  0  0  0  0  0  0  0
   -1.1780   18.5750  -29.1550 H   0  0  0  0  0  0  0  0  0  0  0  0
    0.4520   19.0232  -27.5414 H   0  0  0  0  0  0  0  0  0  0  0  0
    1.0768   19.4737  -29.1727 H   0  0  0  0  0  0  0  0  0  0  0  0
    1.5703   21.1945  -27.4045 H   0  0  0  0  0  0  0  0  0  0  0  0
    0.5762   21.8233  -28.7716 H   0  0  0  0  0  0  0  0  0  0  0  0
   -1.3689   19.5665  -32.8489 H   0  0  0  0  0  0  0  0  0  0  0  0
   -1.7098   17.0831  -33.2416 H   0  0  0  0  0  0  0  0  0  0  0  0
   -2.5453   15.4690  -35.2192 H   0  0  0  0  0  0  0  0  0  0  0  0
   -5.7206   19.4977  -32.7441 H   0  0  0  0  0  0  0  0  0  0  0  0
   -5.7155   21.4622  -31.1882 H   0  0  0  0  0  0  0  0  0  0  0  0
   -4.2640   23.8700  -28.7720 H   0  0  0  0  0  0  0  0  0  0  0  0
   -5.6468   23.2525  -31.3969 H   0  0  0  0  0  0  0  0  0  0  0  0
   -6.4891   23.7871  -29.8921 H   0  0  0  0  0  0  0  0  0  0  0  0
   -5.7253   25.4762  -31.9163 H   0  0  0  0  0  0  0  0  0  0  0  0
   -5.9310   25.9670  -30.1906 H   0  0  0  0  0  0  0  0  0  0  0  0
   -3.5030   24.9330  -31.2280 H   0  0  0  0  0  0  0  0  0  0  0  0
  1  2  2  0
  2  3  1  0
  3  4  1  0
  4  5  2  0
  5  6  1  0
  6  7  2  0
  7  8  1  0
  8  9  2  0
  9 10  1  0
 10 11  1  0
 11 12  1  0
 12 13  1  0
 13 14  1  0
 14 15  1  0
  2 16  1  0
 16 17  1  0
 17 18  1  0
 18 19  2  0
 19 20  1  0
 20 21  1  0
 21 22  1  0
 22 23  2  0
 23 24  1  0
 24 25  1  0
 20 26  2  0
 26 27  1  0
 27 28  2  0
 28 29  1  0
 29 30  1  0
 30 31  1  0
 31 32  1  0
 32 33  1  0
  9  4  1  0
 15 10  1  0
 29 16  2  0
 28 18  1  0
 25 21  2  0
  5 34  1  0
  6 35  1  0
  7 36  1  0
  8 37  1  0
 11 38  1  0
 11 39  1  0
 12 40  1  0
 12 41  1  0
 13 42  1  0
 14 43  1  0
 14 44  1  0
 15 45  1  0
 15 46  1  0
 19 47  1  0
 22 48  1  0
 23 49  1  0
 26 50  1  0
 27 51  1  0
 30 52  1  0
 31 53  1  0
 31 54  1  0
 32 55  1  0
 32 56  1  0
 33 57  1  0
M  CHG  2   3  -1  24  -1
M  END
>  <UniqueID>  (33) 
31

>  <SMILES>  (33) 
O=C([N-]c1ccccc1N1CCNCC1)c1sc2cc(-c3cc[n-]n3)ccc2c1NCCO

>  <Energy>  (33) 
140.44071692869414

>  <Genealogy>  (33) 
O=C([N-]c1ccccc1N1CCNCC1)c1sc2cc(-c3cc[n-]n3)ccc2c1NCCO (protonated)
O=C([N-]c1ccccc1N1CCNCC1)c1sc2cc(-c3cc[n-]n3)ccc2c1NCCO (3D coordinates assigned)
O=C([N-]c1ccccc1N1CCNCC1)c1sc2cc(-c3cc[n-]n3)ccc2c1NCCO (nonaromatic ring conformer: 140.44071692869414 kcal/mol)

>  <smiles>  (33) 
O=C(Nc1ccccc1N1CCNCC1)c1sc2cc(-c3cc[nH]n3)ccc2c1NCCO

>  <score_type>  (33) 
oracle

>  <origin>  (33) 
adgpu

>  <m_score__min__energy>  (33) 
-9.9299999999999997

>  <m_primary>  (33) 
energy

$$$$
33:0
     RDKit          3D

 60 63  0  0  0  0  0  0  0  0999 V2000
   -6.3511   25.2952  -31.3905 H   0  0  0  0  0  0  0  0  0  0  0  0
   -5.7660   24.3710  -31.2740 C   0  0  0  0  0  0  0  0  0  0  0  0
   -6.3350   23.1380  -31.6120 C   0  0  0  0  0  0  0  0  0  0  0  0
   -7.3684   23.0975  -31.9868 H   0  0  0  0  0  0  0  0  0  0  0  0
   -5.5960   21.9530  -31.4760 C   0  0  0  0  0  0  0  0  0  0  0  0
   -6.1990   20.6360  -31.7980 C   0  0  0  0  0  0  0  0  0  0  0  0
   -7.3000   20.1430  -31.1780 N   0  0  0  0  0  0  0  0  0  0  0  0
   -7.7020   18.9640  -31.6500 N   0  0  0  0  0  0  0  0  0  0  0  0
   -6.9220   18.4950  -32.6480 C   0  0  0  0  0  0  0  0  0  0  0  0
   -7.2030   17.3900  -33.2750 N   0  0  0  0  0  0  0  0  0  0  0  0
   -6.4810   16.7540  -34.3420 C   0  0  0  0  0  0  0  0  0  0  0  0
   -6.7140   15.5370  -34.5790 O   0  0  0  0  0  0  0  0  0  0  0  0
   -5.3600   17.4290  -35.0950 C   0  0  0  0  0  0  0  0  0  0  0  0
   -5.2229   16.9237  -36.0624 H   0  0  0  0  0  0  0  0  0  0  0  0
   -5.6277   18.4857  -35.2425 H   0  0  0  0  0  0  0  0  0  0  0  0
   -4.0670   17.3690  -34.3220 C   0  0  0  0  0  0  0  0  0  0  0  0
   -3.6980   16.2070  -33.6370 C   0  0  0  0  0  0  0  0  0  0  0  0
   -4.3369   15.3133  -33.6930 H   0  0  0  0  0  0  0  0  0  0  0  0
   -2.5230   16.1740  -32.8820 C   0  0  0  0  0  0  0  0  0  0  0  0
   -2.2354   15.2485  -32.3617 H   0  0  0  0  0  0  0  0  0  0  0  0
   -1.7040   17.3140  -32.7810 C   0  0  0  0  0  0  0  0  0  0  0  0
   -0.5320   17.3110  -32.0060 O   0  0  0  0  0  0  0  0  0  0  0  0
    0.1910   16.1420  -31.6380 C   0  0  0  0  0  0  0  0  0  0  0  0
    0.2362   16.0689  -30.5414 H   0  0  0  0  0  0  0  0  0  0  0  0
   -0.3160   15.2543  -32.0441 H   0  0  0  0  0  0  0  0  0  0  0  0
    1.2117   16.1991  -32.0441 H   0  0  0  0  0  0  0  0  0  0  0  0
   -2.0750   18.4880  -33.4650 C   0  0  0  0  0  0  0  0  0  0  0  0
   -1.1200   19.9760  -33.3410 S   0  0  0  0  0  0  0  0  0  0  0  0
   -1.9370   21.0580  -32.6880 O   0  0  0  0  0  0  0  0  0  0  0  0
    0.0760   19.7170  -32.4640 O   0  0  0  0  0  0  0  0  0  0  0  0
   -0.5770   20.5310  -34.9150 N   0  0  0  0  0  0  0  0  0  0  0  0
   -1.4460   20.7880  -35.4430 H   0  0  0  0  0  0  0  0  0  0  0  0
    0.0810   19.4200  -35.6500 C   0  0  0  0  0  0  0  0  0  0  0  0
    0.7072   18.8496  -34.9482 H   0  0  0  0  0  0  0  0  0  0  0  0
   -0.7039   18.7833  -36.0842 H   0  0  0  0  0  0  0  0  0  0  0  0
    0.9630   19.9410  -36.7940 C   0  0  0  0  0  0  0  0  0  0  0  0
    1.3955   19.0849  -37.3325 H   0  0  0  0  0  0  0  0  0  0  0  0
    0.3392   20.5467  -37.4678 H   0  0  0  0  0  0  0  0  0  0  0  0
    2.1030   20.8250  -36.2570 C   0  0  0  0  0  0  0  0  0  0  0  0
    2.9986   20.2009  -36.1213 H   0  0  0  0  0  0  0  0  0  0  0  0
    2.2747   21.6279  -36.9890 H   0  0  0  0  0  0  0  0  0  0  0  0
    1.7560   21.4870  -34.9130 C   0  0  0  0  0  0  0  0  0  0  0  0
    2.0592   20.8173  -34.0947 H   0  0  0  0  0  0  0  0  0  0  0  0
    2.2914   22.4458  -34.8493 H   0  0  0  0  0  0  0  0  0  0  0  0
    0.2500   21.7640  -34.8010 C   0  0  0  0  0  0  0  0  0  0  0  0
    0.0508   22.2310  -33.8252 H   0  0  0  0  0  0  0  0  0  0  0  0
   -0.0266   22.4248  -35.6357 H   0  0  0  0  0  0  0  0  0  0  0  0
   -3.2440   18.5000  -34.2420 C   0  0  0  0  0  0  0  0  0  0  0  0
   -3.5177   19.4101  -34.7958 H   0  0  0  0  0  0  0  0  0  0  0  0
   -5.6760   19.5790  -33.0040 S   0  0  0  0  0  0  0  0  0  0  0  0
   -4.2700   22.0240  -31.0010 C   0  0  0  0  0  0  0  0  0  0  0  0
   -3.6760   21.1031  -30.9059 H   0  0  0  0  0  0  0  0  0  0  0  0
   -3.6980   23.2620  -30.6470 C   0  0  0  0  0  0  0  0  0  0  0  0
   -2.3880   23.3670  -30.1540 O   0  0  0  0  0  0  0  0  0  0  0  0
   -1.4990   22.2680  -29.9810 C   0  0  0  0  0  0  0  0  0  0  0  0
   -1.3493   22.0830  -28.9070 H   0  0  0  0  0  0  0  0  0  0  0  0
   -1.9288   21.3712  -30.4512 H   0  0  0  0  0  0  0  0  0  0  0  0
   -0.5322   22.5009  -30.4512 H   0  0  0  0  0  0  0  0  0  0  0  0
   -4.4570   24.4320  -30.7890 C   0  0  0  0  0  0  0  0  0  0  0  0
   -3.9120   25.6630  -30.4440 O   0  0  0  0  0  0  0  0  0  0  0  0
  1  2  1  0
  2  3  2  0
  3  4  1  0
  3  5  1  0
  5  6  1  0
  6  7  2  0
  7  8  1  0
  8  9  1  0
  9 10  2  0
 10 11  1  0
 11 12  2  0
 11 13  1  0
 13 14  1  0
 13 15  1  0
 13 16  1  0
 16 17  2  0
 17 18  1  0
 17 19  1  0
 19 20  1  0
 19 21  2  0
 21 22  1  0
 22 23  1  0
 23 24  1  0
 23 25  1  0
 23 26  1  0
 21 27  1  0
 27 28  1  0
 28 29  2  0
 28 30  2  0
 28 31  1  0
 31 32  1  0
 31 33  1  0
 33 34  1  0
 33 35  1  0
 33 36  1  0
 36 37  1  0
 36 38  1  0
 36 39  1  0
 39 40  1  0
 39 41  1  0
 39 42  1  0
 42 43  1  0
 42 44  1  0
 42 45  1  0
 45 46  1  0
 45 47  1  0
 27 48  2  0
 48 49  1  0
  9 50  1  0
  5 51  2  0
 51 52  1  0
 51 53  1  0
 53 54  1  0
 54 55  1  0
 55 56  1  0
 55 57  1  0
 55 58  1  0
 53 59  2  0
 59 60  1  0
 59  2  1  0
 50  6  1  0
 48 16  1  0
 45 31  1  0
M  CHG  3   8  -1  31   1  60  -1
M  END
>  <UniqueID>  (34) 
32

>  <SMILES>  (34) 
COc1cc(-c2n[n-]/c(=N/C(=O)Cc3ccc(OC)c(S(=O)(=O)[NH+]4CCCCC4)c3)s2)ccc1[O-]

>  <Energy>  (34) 
108.75036520312099

>  <Genealogy>  (34) 
COc1cc(-c2n[n-]c(=NC(=O)Cc3ccc(OC)c(S(=O)(=O)[NH+]4CCCCC4)c3)s2)ccc1[O-] (protonated)
COc1cc(-c2n[n-]/c(=N/C(=O)Cc3ccc(OC)c(S(=O)(=O)[NH+]4CCCCC4)c3)s2)ccc1[O-] (cis-trans isomerization)
COc1cc(-c2n[n-]/c(=N/C(=O)Cc3ccc(OC)c(S(=O)(=O)[NH+]4CCCCC4)c3)s2)ccc1[O-] (3D coordinates assigned)
COc1cc(-c2n[n-]/c(=N/C(=O)Cc3ccc(OC)c(S(=O)(=O)[NH+]4CCCCC4)c3)s2)ccc1[O-] (nonaromatic ring conformer: 108.75036520312099 kcal/mol)

>  <smiles>  (34) 
COc1cc(-c2n[nH]c(=NC(=O)Cc3ccc(OC)c(S(=O)(=O)N4CCCCC4)c3)s2)ccc1O

>  <score_type>  (34) 
oracle

>  <origin>  (34) 
adgpu

>  <m_score__min__energy>  (34) 
-11.640000000000001

>  <m_primary>  (34) 
energy

$$$$
34:0
     RDKit          3D

 47 50  0  0  0  0  0  0  0  0999 V2000
    0.0740   16.9560  -27.3190 N   0  0  0  0  0  0  0  0  0  0  0  0
   -0.5150   18.1620  -27.8140 C   0  0  0  0  0  0  0  0  0  0  0  0
   -1.5570   18.7810  -27.1080 C   0  0  0  0  0  0  0  0  0  0  0  0
   -2.1330   19.9580  -27.5940 C   0  0  0  0  0  0  0  0  0  0  0  0
   -1.6770   20.5250  -28.7930 C   0  0  0  0  0  0  0  0  0  0  0  0
   -2.2690   21.7400  -29.2920 N   0  0  0  0  0  0  0  0  0  0  0  0
   -1.8180   22.9150  -28.7630 C   0  0  0  0  0  0  0  0  0  0  0  0
   -2.3570   24.1490  -29.1530 C   0  0  0  0  0  0  0  0  0  0  0  0
   -1.8320   25.3990  -28.5390 C   0  0  0  0  0  0  0  0  0  0  0  0
   -1.2380   26.2650  -29.2340 O   0  0  0  0  0  0  0  0  0  0  0  0
   -1.9910   25.6320  -27.1770 O   0  0  0  0  0  0  0  0  0  0  0  0
   -3.3850   24.1590  -30.1160 C   0  0  0  0  0  0  0  0  0  0  0  0
   -3.8970   25.2520  -30.4870 O   0  0  0  0  0  0  0  0  0  0  0  0
   -3.8410   22.9490  -30.6710 C   0  0  0  0  0  0  0  0  0  0  0  0
   -4.8590   22.9350  -31.6410 C   0  0  0  0  0  0  0  0  0  0  0  0
   -5.2960   21.7340  -32.1970 C   0  0  0  0  0  0  0  0  0  0  0  0
   -4.7230   20.5180  -31.8040 C   0  0  0  0  0  0  0  0  0  0  0  0
   -5.1750   19.2760  -32.3800 N   0  0  0  0  0  0  0  0  0  0  0  0
   -4.4910   18.7440  -33.5660 C   0  0  0  0  0  0  0  0  0  0  0  0
   -5.0520   17.3730  -33.9530 C   0  0  0  0  0  0  0  0  0  0  0  0
   -6.5190   17.4140  -33.9400 N   0  0  0  0  0  0  0  0  0  0  0  0
   -7.0800   17.6800  -32.5980 C   0  0  0  0  0  0  0  0  0  0  0  0
   -6.1180   18.4230  -31.6440 C   0  0  0  0  0  0  0  0  0  0  0  0
   -3.7060   20.5210  -30.8380 C   0  0  0  0  0  0  0  0  0  0  0  0
   -3.2600   21.7280  -30.2470 C   0  0  0  0  0  0  0  0  0  0  0  0
   -0.6300   19.9100  -29.4950 C   0  0  0  0  0  0  0  0  0  0  0  0
   -0.0530   18.7330  -29.0090 C   0  0  0  0  0  0  0  0  0  0  0  0
   -0.4510   16.3340  -26.6650 H   0  0  0  0  0  0  0  0  0  0  0  0
    1.0400   16.6780  -27.6020 H   0  0  0  0  0  0  0  0  0  0  0  0
   -1.9219   18.3388  -26.1692 H   0  0  0  0  0  0  0  0  0  0  0  0
   -2.9470   20.4415  -27.0340 H   0  0  0  0  0  0  0  0  0  0  0  0
   -1.0132   22.8930  -28.0135 H   0  0  0  0  0  0  0  0  0  0  0  0
   -5.3154   23.8822  -31.9645 H   0  0  0  0  0  0  0  0  0  0  0  0
   -6.0974   21.7413  -32.9505 H   0  0  0  0  0  0  0  0  0  0  0  0
   -4.6321   19.4406  -34.4055 H   0  0  0  0  0  0  0  0  0  0  0  0
   -3.4216   18.6326  -33.3338 H   0  0  0  0  0  0  0  0  0  0  0  0
   -4.7031   17.1073  -34.9618 H   0  0  0  0  0  0  0  0  0  0  0  0
   -4.7034   16.6209  -33.2299 H   0  0  0  0  0  0  0  0  0  0  0  0
   -6.8820   16.4950  -34.2860 H   0  0  0  0  0  0  0  0  0  0  0  0
   -6.8460   18.1530  -34.6080 H   0  0  0  0  0  0  0  0  0  0  0  0
   -7.9866   18.2913  -32.7183 H   0  0  0  0  0  0  0  0  0  0  0  0
   -7.2834   16.7003  -32.1411 H   0  0  0  0  0  0  0  0  0  0  0  0
   -6.7082   19.0511  -30.9605 H   0  0  0  0  0  0  0  0  0  0  0  0
   -5.5386   17.6717  -31.0873 H   0  0  0  0  0  0  0  0  0  0  0  0
   -3.2467   19.5688  -30.5341 H   0  0  0  0  0  0  0  0  0  0  0  0
   -0.2617   20.3552  -30.4310 H   0  0  0  0  0  0  0  0  0  0  0  0
    0.7657   18.2533  -29.5654 H   0  0  0  0  0  0  0  0  0  0  0  0
  1  2  1  0
  2  3  2  0
  3  4  1  0
  4  5  2  0
  5  6  1  0
  6  7  1  0
  7  8  2  0
  8  9  1  0
  9 10  2  0
  9 11  1  0
  8 12  1  0
 12 13  2  0
 12 14  1  0
 14 15  2  0
 15 16  1  0
 16 17  2  0
 17 18  1  0
 18 19  1  0
 19 20  1  0
 20 21  1  0
 21 22  1  0
 22 23  1  0
 17 24  1  0
 24 25  2  0
  5 26  1  0
 26 27  2  0
 27  2  1  0
 25  6  1  0
 25 14  1  0
 23 18  1  0
  1 28  1  0
  1 29  1  0
  3 30  1  0
  4 31  1  0
  7 32  1  0
 15 33  1  0
 16 34  1  0
 19 35  1  0
 19 36  1  0
 20 37  1  0
 20 38  1  0
 21 39  1  0
 21 40  1  0
 22 41  1  0
 22 42  1  0
 23 43  1  0
 23 44  1  0
 24 45  1  0
 26 46  1  0
 27 47  1  0
M  CHG  2  11  -1  21   1
M  END
>  <UniqueID>  (35) 
33

>  <SMILES>  (35) 
Nc1ccc(-n2cc(C(=O)[O-])c(=O)c3ccc(N4CC[NH2+]CC4)cc32)cc1

>  <Energy>  (35) 
75.14812654496109

>  <Genealogy>  (35) 
Nc1ccc(-n2cc(C(=O)[O-])c(=O)c3ccc(N4CC[NH2+]CC4)cc32)cc1 (protonated)
Nc1ccc(-n2cc(C(=O)[O-])c(=O)c3ccc(N4CC[NH2+]CC4)cc32)cc1 (3D coordinates assigned)
Nc1ccc(-n2cc(C(=O)[O-])c(=O)c3ccc(N4CC[NH2+]CC4)cc32)cc1 (nonaromatic ring conformer: 75.14812654496109 kcal/mol)

>  <smiles>  (35) 
Nc1ccc(-n2cc(C(=O)O)c(=O)c3ccc(N4CCNCC4)cc32)cc1

>  <score_type>  (35) 
oracle

>  <origin>  (35) 
adgpu

>  <m_score__min__energy>  (35) 
-9.5099999999999998

>  <m_primary>  (35) 
energy

$$$$
35:0
     RDKit          3D

 38 41  0  0  0  0  0  0  0  0999 V2000
   -9.6610   21.7210  -31.6620 C   0  0  0  0  0  0  0  0  0  0  0  0
   -8.2120   21.4260  -31.8630 C   0  0  0  0  0  0  0  0  0  0  0  0
   -7.7310   20.3500  -32.5450 N   0  0  0  0  0  0  0  0  0  0  0  0
   -6.4070   20.4740  -32.6490 N   0  0  0  0  0  0  0  0  0  0  0  0
   -5.5610   19.5530  -33.3610 C   0  0  0  0  0  0  0  0  0  0  0  0
   -6.0990   18.6330  -34.2790 C   0  0  0  0  0  0  0  0  0  0  0  0
   -5.2620   17.7500  -34.9690 C   0  0  0  0  0  0  0  0  0  0  0  0
   -3.8820   17.7820  -34.7560 C   0  0  0  0  0  0  0  0  0  0  0  0
   -3.3350   18.7020  -33.8580 C   0  0  0  0  0  0  0  0  0  0  0  0
   -4.1680   19.5870  -33.1670 C   0  0  0  0  0  0  0  0  0  0  0  0
   -6.0730   21.6290  -32.0460 C   0  0  0  0  0  0  0  0  0  0  0  0
   -4.7050   22.5940  -31.9660 S   0  0  0  0  0  0  0  0  0  0  0  0
   -5.5760   23.8680  -31.2100 C   0  0  0  0  0  0  0  0  0  0  0  0
   -4.9850   25.1530  -30.8150 C   0  0  0  0  0  0  0  0  0  0  0  0
   -5.6960   26.1940  -30.8260 O   0  0  0  0  0  0  0  0  0  0  0  0
   -3.5950   25.2220  -30.4740 N   0  0  0  0  0  0  0  0  0  0  0  0
   -2.9480   24.5550  -29.3800 C   0  0  0  0  0  0  0  0  0  0  0  0
   -1.6440   24.8910  -28.9670 C   0  0  0  0  0  0  0  0  0  0  0  0
   -1.0600   24.2320  -27.8790 C   0  0  0  0  0  0  0  0  0  0  0  0
   -1.7720   23.2460  -27.1920 C   0  0  0  0  0  0  0  0  0  0  0  0
   -3.0740   22.9250  -27.5830 C   0  0  0  0  0  0  0  0  0  0  0  0
   -3.6620   23.5830  -28.6680 C   0  0  0  0  0  0  0  0  0  0  0  0
   -6.9350   23.5300  -31.0730 C   0  0  0  0  0  0  0  0  0  0  0  0
   -7.1520   22.2520  -31.5690 C   0  0  0  0  0  0  0  0  0  0  0  0
   -9.8801   21.7656  -30.5850 H   0  0  0  0  0  0  0  0  0  0  0  0
   -9.9063   22.6875  -32.1264 H   0  0  0  0  0  0  0  0  0  0  0  0
  -10.2646   20.9273  -32.1264 H   0  0  0  0  0  0  0  0  0  0  0  0
   -7.1845   18.6078  -34.4553 H   0  0  0  0  0  0  0  0  0  0  0  0
   -5.6913   17.0292  -35.6805 H   0  0  0  0  0  0  0  0  0  0  0  0
   -3.2259   17.0829  -35.2952 H   0  0  0  0  0  0  0  0  0  0  0  0
   -2.2476   18.7301  -33.6945 H   0  0  0  0  0  0  0  0  0  0  0  0
   -3.7314   20.3146  -32.4671 H   0  0  0  0  0  0  0  0  0  0  0  0
   -1.0835   25.6728  -29.5005 H   0  0  0  0  0  0  0  0  0  0  0  0
   -0.0383   24.4911  -27.5643 H   0  0  0  0  0  0  0  0  0  0  0  0
   -1.3075   22.7225  -26.3434 H   0  0  0  0  0  0  0  0  0  0  0  0
   -3.6374   22.1540  -27.0370 H   0  0  0  0  0  0  0  0  0  0  0  0
   -4.6921   23.3355  -28.9641 H   0  0  0  0  0  0  0  0  0  0  0  0
   -7.7085   24.1803  -30.6385 H   0  0  0  0  0  0  0  0  0  0  0  0
  1  2  1  0
  2  3  2  0
  3  4  1  0
  4  5  1  0
  5  6  2  0
  6  7  1  0
  7  8  2  0
  8  9  1  0
  9 10  2  0
  4 11  1  0
 11 12  1  0
 12 13  1  0
 13 14  1  0
 14 15  2  0
 14 16  1  0
 16 17  1  0
 17 18  2  0
 18 19  1  0
 19 20  2  0
 20 21  1  0
 21 22  2  0
 13 23  2  0
 23 24  1  0
 24  2  1  0
 10  5  1  0
 24 11  2  0
 22 17  1  0
  1 25  1  0
  1 26  1  0
  1 27  1  0
  6 28  1  0
  7 29  1  0
  8 30  1  0
  9 31  1  0
 10 32  1  0
 18 33  1  0
 19 34  1  0
 20 35  1  0
 21 36  1  0
 22 37  1  0
 23 38  1  0
M  CHG  1  16  -1
M  END
>  <UniqueID>  (36) 
34

>  <SMILES>  (36) 
Cc1nn(-c2ccccc2)c2sc(C(=O)[N-]c3ccccc3)cc12

>  <Energy>  (36) 
129.25243458289668

>  <Genealogy>  (36) 
Cc1nn(-c2ccccc2)c2sc(C(=O)[N-]c3ccccc3)cc12 (protonated)
Cc1nn(-c2ccccc2)c2sc(C(=O)[N-]c3ccccc3)cc12 (3D coordinates assigned)
Cc1nn(-c2ccccc2)c2sc(C(=O)[N-]c3ccccc3)cc12 (optimized conformer: 129.25243458289668 kcal/mol)

>  <smiles>  (36) 
Cc1nn(-c2ccccc2)c2sc(C(=O)Nc3ccccc3)cc12

>  <score_type>  (36) 
oracle

>  <origin>  (36) 
adgpu

>  <m_score__min__energy>  (36) 
-10.970000000000001

>  <m_primary>  (36) 
energy

$$$$
36:0
     RDKit          3D

 68 73  0  0  0  0  0  0  0  0999 V2000
   -5.5740   24.6840  -29.3650 O   0  0  0  0  0  0  0  0  0  0  0  0
   -4.6570   24.4030  -30.5230 S   0  0  0  0  0  0  0  0  0  0  0  0
   -3.9250   25.6740  -30.8570 O   0  0  0  0  0  0  0  0  0  0  0  0
   -5.5590   23.9010  -31.9200 N   0  0  0  0  0  0  0  0  0  0  0  0
   -6.4440   22.7750  -31.9660 C   0  0  0  0  0  0  0  0  0  0  0  0
   -7.8190   22.8900  -31.7130 C   0  0  0  0  0  0  0  0  0  0  0  0
   -8.6170   21.7890  -31.7480 N   0  0  0  0  0  0  0  0  0  0  0  0
   -8.1210   20.5520  -32.0150 C   0  0  0  0  0  0  0  0  0  0  0  0
   -8.9710   19.4420  -32.0290 C   0  0  0  0  0  0  0  0  0  0  0  0
   -8.4510   18.1670  -32.2740 C   0  0  0  0  0  0  0  0  0  0  0  0
   -7.0820   17.9970  -32.5090 C   0  0  0  0  0  0  0  0  0  0  0  0
   -6.2260   19.1030  -32.5130 C   0  0  0  0  0  0  0  0  0  0  0  0
   -6.7420   20.3870  -32.2710 C   0  0  0  0  0  0  0  0  0  0  0  0
   -5.9140   21.5140  -32.2620 C   0  0  0  0  0  0  0  0  0  0  0  0
   -3.4830   23.1550  -30.1080 C   0  0  0  0  0  0  0  0  0  0  0  0
   -3.9060   21.8460  -29.8370 C   0  0  0  0  0  0  0  0  0  0  0  0
   -2.9700   20.8460  -29.5530 C   0  0  0  0  0  0  0  0  0  0  0  0
   -1.6020   21.1490  -29.5150 C   0  0  0  0  0  0  0  0  0  0  0  0
   -0.6090   20.0950  -29.2100 C   0  0  0  0  0  0  0  0  0  0  0  0
   -0.4900   19.0090  -30.0950 C   0  0  0  0  0  0  0  0  0  0  0  0
    0.5110   18.0450  -29.9160 C   0  0  0  0  0  0  0  0  0  0  0  0
    0.6280   16.8910  -30.8770 C   0  0  0  0  0  0  0  0  0  0  0  0
    0.2120   17.2910  -32.2300 N   0  0  0  0  0  0  0  0  0  0  0  0
   -0.8430   16.4350  -32.8070 C   0  0  0  0  0  0  0  0  0  0  0  0
   -1.7660   17.1580  -33.8110 C   0  0  0  0  0  0  0  0  0  0  0  0
   -1.8010   18.6490  -33.5910 C   0  0  0  0  0  0  0  0  0  0  0  0
   -0.7500   19.4650  -34.0410 C   0  0  0  0  0  0  0  0  0  0  0  0
   -0.7780   20.8380  -33.7910 C   0  0  0  0  0  0  0  0  0  0  0  0
   -1.8540   21.3840  -33.0890 C   0  0  0  0  0  0  0  0  0  0  0  0
   -2.8650   20.5830  -32.6590 N   0  0  0  0  0  0  0  0  0  0  0  0
   -2.8630   19.2430  -32.8920 C   0  0  0  0  0  0  0  0  0  0  0  0
    1.3850   18.1550  -28.8270 C   0  0  0  0  0  0  0  0  0  0  0  0
    1.2600   19.2120  -27.9260 C   0  0  0  0  0  0  0  0  0  0  0  0
    0.2640   20.1890  -28.0960 C   0  0  0  0  0  0  0  0  0  0  0  0
    0.1180   21.2330  -27.1150 N   0  0  0  0  0  0  0  0  0  0  0  0
    0.8760   22.3420  -27.0120 C   0  0  0  0  0  0  0  0  0  0  0  0
    0.4200   23.0860  -25.9440 C   0  0  0  0  0  0  0  0  0  0  0  0
   -0.6300   22.3530  -25.4310 C   0  0  0  0  0  0  0  0  0  0  0  0
   -0.7930   21.2300  -26.1560 N   0  0  0  0  0  0  0  0  0  0  0  0
   -1.1800   22.4590  -29.7910 C   0  0  0  0  0  0  0  0  0  0  0  0
   -2.1140   23.4540  -30.0880 C   0  0  0  0  0  0  0  0  0  0  0  0
   -8.2536   23.8745  -31.4854 H   0  0  0  0  0  0  0  0  0  0  0  0
  -10.0482   19.5714  -31.8474 H   0  0  0  0  0  0  0  0  0  0  0  0
   -9.1207   17.2944  -32.2820 H   0  0  0  0  0  0  0  0  0  0  0  0
   -6.6779   16.9903  -32.6912 H   0  0  0  0  0  0  0  0  0  0  0  0
   -5.1514   18.9678  -32.7052 H   0  0  0  0  0  0  0  0  0  0  0  0
   -4.8427   21.4090  -32.4883 H   0  0  0  0  0  0  0  0  0  0  0  0
   -4.9790   21.6042  -29.8478 H   0  0  0  0  0  0  0  0  0  0  0  0
   -3.3089   19.8177  -29.3587 H   0  0  0  0  0  0  0  0  0  0  0  0
   -1.1908   18.9150  -30.9376 H   0  0  0  0  0  0  0  0  0  0  0  0
    1.6740   16.5520  -30.9072 H   0  0  0  0  0  0  0  0  0  0  0  0
   -0.0291   16.0787  -30.5328 H   0  0  0  0  0  0  0  0  0  0  0  0
    1.0490   17.3010  -32.8570 H   0  0  0  0  0  0  0  0  0  0  0  0
   -0.3595   15.5945  -33.3264 H   0  0  0  0  0  0  0  0  0  0  0  0
   -1.4790   16.1101  -31.9704 H   0  0  0  0  0  0  0  0  0  0  0  0
   -1.4027   16.9600  -34.8302 H   0  0  0  0  0  0  0  0  0  0  0  0
   -2.7863   16.7740  -33.6642 H   0  0  0  0  0  0  0  0  0  0  0  0
    0.0943   19.0225  -34.5899 H   0  0  0  0  0  0  0  0  0  0  0  0
    0.0399   21.4835  -34.1437 H   0  0  0  0  0  0  0  0  0  0  0  0
   -1.8840   22.4642  -32.8834 H   0  0  0  0  0  0  0  0  0  0  0  0
   -3.6967   18.6227  -32.5313 H   0  0  0  0  0  0  0  0  0  0  0  0
    2.1747   17.4032  -28.6816 H   0  0  0  0  0  0  0  0  0  0  0  0
    1.9494   19.2820  -27.0717 H   0  0  0  0  0  0  0  0  0  0  0  0
    1.7169   22.6091  -27.6690 H   0  0  0  0  0  0  0  0  0  0  0  0
    0.8074   24.0497  -25.5818 H   0  0  0  0  0  0  0  0  0  0  0  0
   -1.2406   22.6416  -24.5627 H   0  0  0  0  0  0  0  0  0  0  0  0
   -0.1076   22.7033  -29.7733 H   0  0  0  0  0  0  0  0  0  0  0  0
   -1.7736   24.4768  -30.3072 H   0  0  0  0  0  0  0  0  0  0  0  0
  1  2  2  0
  2  3  2  0
  2  4  1  0
  4  5  1  0
  5  6  2  0
  6  7  1  0
  7  8  2  0
  8  9  1  0
  9 10  2  0
 10 11  1  0
 11 12  2  0
 12 13  1  0
 13 14  2  0
  2 15  1  0
 15 16  2  0
 16 17  1  0
 17 18  2  0
 18 19  1  0
 19 20  2  0
 20 21  1  0
 21 22  1  0
 22 23  1  0
 23 24  1  0
 24 25  1  0
 25 26  1  0
 26 27  2  0
 27 28  1  0
 28 29  2  0
 29 30  1  0
 30 31  2  0
 21 32  2  0
 32 33  1  0
 33 34  2  0
 34 35  1  0
 35 36  1  0
 36 37  2  0
 37 38  1  0
 38 39  2  0
 18 40  1  0
 40 41  2  0
 14  5  1  0
 41 15  1  0
 13  8  1  0
 34 19  1  0
 39 35  1  0
 31 26  1  0
  6 42  1  0
  9 43  1  0
 10 44  1  0
 11 45  1  0
 12 46  1  0
 14 47  1  0
 16 48  1  0
 17 49  1  0
 20 50  1  0
 22 51  1  0
 22 52  1  0
 23 53  1  0
 24 54  1  0
 24 55  1  0
 25 56  1  0
 25 57  1  0
 27 58  1  0
 28 59  1  0
 29 60  1  0
 31 61  1  0
 32 62  1  0
 33 63  1  0
 36 64  1  0
 37 65  1  0
 38 66  1  0
 40 67  1  0
 41 68  1  0
M  CHG  1   4  -1
M  END
>  <UniqueID>  (37) 
35

>  <SMILES>  (37) 
O=S(=O)([N-]c1cnc2ccccc2c1)c1ccc(-c2cc(CNCCc3cccnc3)ccc2-n2cccn2)cc1

>  <Energy>  (37) 
125.61450923418926

>  <Genealogy>  (37) 
O=S(=O)([N-]c1cnc2ccccc2c1)c1ccc(-c2cc(CNCCc3cccnc3)ccc2-n2cccn2)cc1 (protonated)
O=S(=O)([N-]c1cnc2ccccc2c1)c1ccc(-c2cc(CNCCc3cccnc3)ccc2-n2cccn2)cc1 (3D coordinates assigned)
O=S(=O)([N-]c1cnc2ccccc2c1)c1ccc(-c2cc(CNCCc3cccnc3)ccc2-n2cccn2)cc1 (optimized conformer: 125.61450923418926 kcal/mol)

>  <smiles>  (37) 
O=S(=O)(Nc1cnc2ccccc2c1)c1ccc(-c2cc(CNCCc3cccnc3)ccc2-n2cccn2)cc1

>  <score_type>  (37) 
oracle

>  <origin>  (37) 
adgpu

>  <m_score__min__energy>  (37) 
-12.92

>  <m_primary>  (37) 
energy

$$$$
37:0
     RDKit          3D

 42 43  0  0  0  0  0  0  0  0999 V2000
   -1.5400   20.3370  -29.9060 C   0  0  0  0  0  0  0  0  0  0  0  0
   -2.3280   21.6140  -29.7890 C   0  0  0  0  0  0  0  0  0  0  0  0
   -2.1910   22.3880  -28.6220 C   0  0  0  0  0  0  0  0  0  0  0  0
   -2.8900   23.5880  -28.4630 C   0  0  0  0  0  0  0  0  0  0  0  0
   -2.7030   24.3120  -27.2750 O   0  0  0  0  0  0  0  0  0  0  0  0
   -1.7920   25.3980  -27.1050 C   0  0  0  0  0  0  0  0  0  0  0  0
   -0.8610   25.4960  -28.2720 C   0  0  0  0  0  0  0  0  0  0  0  0
   -1.2360   26.0570  -29.3340 O   0  0  0  0  0  0  0  0  0  0  0  0
    0.4300   24.9910  -28.1770 O   0  0  0  0  0  0  0  0  0  0  0  0
   -3.7400   24.0260  -29.4930 C   0  0  0  0  0  0  0  0  0  0  0  0
   -3.8970   23.2610  -30.6490 C   0  0  0  0  0  0  0  0  0  0  0  0
   -3.2200   22.0420  -30.8030 C   0  0  0  0  0  0  0  0  0  0  0  0
   -3.4690   21.1110  -32.2920 S   0  0  0  0  0  0  0  0  0  0  0  0
   -3.6460   19.6520  -31.9800 O   0  0  0  0  0  0  0  0  0  0  0  0
   -2.2620   21.2990  -33.1680 O   0  0  0  0  0  0  0  0  0  0  0  0
   -4.8920   21.6650  -33.1160 N   0  0  0  0  0  0  0  0  0  0  0  0
   -6.2070   21.2450  -32.7350 C   0  0  0  0  0  0  0  0  0  0  0  0
   -6.7770   20.0130  -32.9920 C   0  0  0  0  0  0  0  0  0  0  0  0
   -6.1160   18.8470  -33.6480 C   0  0  0  0  0  0  0  0  0  0  0  0
   -8.0340   19.9940  -32.5050 N   0  0  0  0  0  0  0  0  0  0  0  0
   -8.2760   21.1820  -31.9670 N   0  0  0  0  0  0  0  0  0  0  0  0
   -9.5600   21.5480  -31.3810 C   0  0  0  0  0  0  0  0  0  0  0  0
   -7.1960   21.9820  -32.1110 C   0  0  0  0  0  0  0  0  0  0  0  0
   -7.1320   23.4210  -31.6900 C   0  0  0  0  0  0  0  0  0  0  0  0
   -1.3057   19.9573  -28.9005 H   0  0  0  0  0  0  0  0  0  0  0  0
   -2.1335   19.5886  -30.4515 H   0  0  0  0  0  0  0  0  0  0  0  0
   -0.6049   20.5319  -30.4515 H   0  0  0  0  0  0  0  0  0  0  0  0
   -1.5217   22.0425  -27.8203 H   0  0  0  0  0  0  0  0  0  0  0  0
   -2.3605   26.3356  -27.0171 H   0  0  0  0  0  0  0  0  0  0  0  0
   -1.2000   25.2233  -26.1945 H   0  0  0  0  0  0  0  0  0  0  0  0
   -4.2839   24.9762  -29.3872 H   0  0  0  0  0  0  0  0  0  0  0  0
   -4.5604   23.6184  -31.4504 H   0  0  0  0  0  0  0  0  0  0  0  0
   -4.7650   22.1260  -34.0430 H   0  0  0  0  0  0  0  0  0  0  0  0
   -5.7287   18.1639  -32.8777 H   0  0  0  0  0  0  0  0  0  0  0  0
   -6.8473   18.3159  -34.2749 H   0  0  0  0  0  0  0  0  0  0  0  0
   -5.2847   19.2017  -34.2749 H   0  0  0  0  0  0  0  0  0  0  0  0
   -9.4820   21.5258  -30.2840 H   0  0  0  0  0  0  0  0  0  0  0  0
   -9.8371   22.5609  -31.7085 H   0  0  0  0  0  0  0  0  0  0  0  0
  -10.3295   20.8334  -31.7085 H   0  0  0  0  0  0  0  0  0  0  0  0
   -7.1293   23.4819  -30.5917 H   0  0  0  0  0  0  0  0  0  0  0  0
   -6.2126   23.8780  -32.0849 H   0  0  0  0  0  0  0  0  0  0  0  0
   -8.0072   23.9578  -32.0849 H   0  0  0  0  0  0  0  0  0  0  0  0
  1  2  1  0
  2  3  2  0
  3  4  1  0
  4  5  1  0
  5  6  1  0
  6  7  1  0
  7  8  2  0
  7  9  1  0
  4 10  2  0
 10 11  1  0
 11 12  2  0
 12 13  1  0
 13 14  2  0
 13 15  2  0
 13 16  1  0
 16 17  1  0
 17 18  1  0
 18 19  1  0
 18 20  2  0
 20 21  1  0
 21 22  1  0
 21 23  1  0
 23 24  1  0
 12  2  1  0
 23 17  2  0
  1 25  1  0
  1 26  1  0
  1 27  1  0
  3 28  1  0
  6 29  1  0
  6 30  1  0
 10 31  1  0
 11 32  1  0
 16 33  1  0
 19 34  1  0
 19 35  1  0
 19 36  1  0
 22 37  1  0
 22 38  1  0
 22 39  1  0
 24 40  1  0
 24 41  1  0
 24 42  1  0
M  CHG  1   9  -1
M  END
>  <UniqueID>  (38) 
36

>  <SMILES>  (38) 
Cc1cc(OCC(=O)[O-])ccc1S(=O)(=O)Nc1c(C)nn(C)c1C

>  <Energy>  (38) 
77.46233303937485

>  <Genealogy>  (38) 
Cc1cc(OCC(=O)[O-])ccc1S(=O)(=O)Nc1c(C)nn(C)c1C (protonated)
Cc1cc(OCC(=O)[O-])ccc1S(=O)(=O)Nc1c(C)nn(C)c1C (3D coordinates assigned)
Cc1cc(OCC(=O)[O-])ccc1S(=O)(=O)Nc1c(C)nn(C)c1C (optimized conformer: 77.46233303937485 kcal/mol)

>  <smiles>  (38) 
Cc1cc(OCC(=O)O)ccc1S(=O)(=O)Nc1c(C)nn(C)c1C

>  <score_type>  (38) 
oracle

>  <origin>  (38) 
adgpu

>  <m_score__min__energy>  (38) 
-10.369999999999999

>  <m_primary>  (38) 
energy

$$$$
38:0
     RDKit          3D

 55 58  0  0  0  0  0  0  0  0999 V2000
    0.0090   21.3930  -34.9320 C   0  0  0  0  0  0  0  0  0  0  0  0
   -0.7220   20.9540  -33.7000 C   0  0  0  0  0  0  0  0  0  0  0  0
   -0.0090   20.5440  -32.5590 C   0  0  0  0  0  0  0  0  0  0  0  0
   -0.6890   20.1090  -31.4120 C   0  0  0  0  0  0  0  0  0  0  0  0
    0.0750   19.7010  -30.1870 C   0  0  0  0  0  0  0  0  0  0  0  0
   -2.0930   20.1090  -31.4000 C   0  0  0  0  0  0  0  0  0  0  0  0
   -2.8140   20.4850  -32.5480 C   0  0  0  0  0  0  0  0  0  0  0  0
   -4.5730   20.4290  -32.5700 S   0  0  0  0  0  0  0  0  0  0  0  0
   -5.0750   21.5510  -33.4330 O   0  0  0  0  0  0  0  0  0  0  0  0
   -5.1340   20.6450  -31.1930 O   0  0  0  0  0  0  0  0  0  0  0  0
   -5.0920   18.8600  -33.2130 C   0  0  0  0  0  0  0  0  0  0  0  0
   -6.3630   18.2640  -33.1150 C   0  0  0  0  0  0  0  0  0  0  0  0
   -7.5920   18.8290  -32.5250 C   0  0  0  0  0  0  0  0  0  0  0  0
   -8.1350   18.2360  -31.5560 O   0  0  0  0  0  0  0  0  0  0  0  0
   -8.2050   19.9960  -33.0760 N   0  0  0  0  0  0  0  0  0  0  0  0
   -8.9690   20.9620  -32.2920 C   0  0  0  0  0  0  0  0  0  0  0  0
   -8.0560   21.9970  -31.6950 C   0  0  0  0  0  0  0  0  0  0  0  0
   -7.3780   22.9120  -32.5180 C   0  0  0  0  0  0  0  0  0  0  0  0
   -6.5240   23.8660  -31.9570 C   0  0  0  0  0  0  0  0  0  0  0  0
   -6.3340   23.9110  -30.5670 C   0  0  0  0  0  0  0  0  0  0  0  0
   -5.2650   25.1120  -29.8560 S   0  0  0  0  0  0  0  0  0  0  0  0
   -3.8560   25.2930  -30.8420 N   0  0  0  0  0  0  0  0  0  0  0  0
   -5.9820   26.4280  -29.7600 O   0  0  0  0  0  0  0  0  0  0  0  0
   -4.8430   24.6690  -28.4820 O   0  0  0  0  0  0  0  0  0  0  0  0
   -7.0000   22.9900  -29.7480 C   0  0  0  0  0  0  0  0  0  0  0  0
   -7.8610   22.0420  -30.3060 C   0  0  0  0  0  0  0  0  0  0  0  0
   -6.3310   17.0050  -33.6200 N   0  0  0  0  0  0  0  0  0  0  0  0
   -5.0710   16.7890  -34.0240 C   0  0  0  0  0  0  0  0  0  0  0  0
   -4.5630   15.6150  -34.5800 C   0  0  0  0  0  0  0  0  0  0  0  0
   -3.1950   15.5760  -34.9000 C   0  0  0  0  0  0  0  0  0  0  0  0
   -2.3680   16.6950  -34.6450 C   0  0  0  0  0  0  0  0  0  0  0  0
   -0.6570   16.6240  -35.0330 Cl  0  0  0  0  0  0  0  0  0  0  0  0
   -2.9090   17.8630  -34.0750 C   0  0  0  0  0  0  0  0  0  0  0  0
   -4.2790   17.8850  -33.7830 C   0  0  0  0  0  0  0  0  0  0  0  0
   -2.1250   20.8960  -33.6990 C   0  0  0  0  0  0  0  0  0  0  0  0
    0.9190   21.9395  -34.6433 H   0  0  0  0  0  0  0  0  0  0  0  0
    0.2848   20.5109  -35.5286 H   0  0  0  0  0  0  0  0  0  0  0  0
   -0.6400   22.0509  -35.5286 H   0  0  0  0  0  0  0  0  0  0  0  0
    1.0908   20.5647  -32.5663 H   0  0  0  0  0  0  0  0  0  0  0  0
   -0.4852   20.0002  -29.2889 H   0  0  0  0  0  0  0  0  0  0  0  0
    0.2121   18.6096  -30.1870 H   0  0  0  0  0  0  0  0  0  0  0  0
    1.0583   20.1941  -30.1870 H   0  0  0  0  0  0  0  0  0  0  0  0
   -2.6322   19.8134  -30.4879 H   0  0  0  0  0  0  0  0  0  0  0  0
   -9.7017   21.4591  -32.9447 H   0  0  0  0  0  0  0  0  0  0  0  0
   -9.4844   20.4309  -31.4781 H   0  0  0  0  0  0  0  0  0  0  0  0
   -7.5198   22.8775  -33.6083 H   0  0  0  0  0  0  0  0  0  0  0  0
   -5.9999   24.5828  -32.6062 H   0  0  0  0  0  0  0  0  0  0  0  0
   -3.8660   26.2720  -31.2180 H   0  0  0  0  0  0  0  0  0  0  0  0
   -6.8441   23.0135  -28.6594 H   0  0  0  0  0  0  0  0  0  0  0  0
   -8.3876   21.3288  -29.6548 H   0  0  0  0  0  0  0  0  0  0  0  0
   -7.1250   16.3280  -33.6730 H   0  0  0  0  0  0  0  0  0  0  0  0
   -5.2130   14.7465  -34.7624 H   0  0  0  0  0  0  0  0  0  0  0  0
   -2.7648   14.6699  -35.3515 H   0  0  0  0  0  0  0  0  0  0  0  0
   -2.2728   18.7353  -33.8645 H   0  0  0  0  0  0  0  0  0  0  0  0
   -2.6857   21.1737  -34.6037 H   0  0  0  0  0  0  0  0  0  0  0  0
  1  2  1  0
  2  3  2  0
  3  4  1  0
  4  5  1  0
  4  6  2  0
  6  7  1  0
  7  8  1  0
  8  9  2  0
  8 10  2  0
  8 11  1  0
 11 12  2  0
 12 13  1  0
 13 14  2  0
 13 15  1  0
 15 16  1  0
 16 17  1  0
 17 18  2  0
 18 19  1  0
 19 20  2  0
 20 21  1  0
 21 22  1  0
 21 23  2  0
 21 24  2  0
 20 25  1  0
 25 26  2  0
 12 27  1  0
 27 28  1  0
 28 29  2  0
 29 30  1  0
 30 31  2  0
 31 32  1  0
 31 33  1  0
 33 34  2  0
  7 35  2  0
 35  2  1  0
 34 11  1  0
 26 17  1  0
 34 28  1  0
  1 36  1  0
  1 37  1  0
  1 38  1  0
  3 39  1  0
  5 40  1  0
  5 41  1  0
  5 42  1  0
  6 43  1  0
 16 44  1  0
 16 45  1  0
 18 46  1  0
 19 47  1  0
 22 48  1  0
 25 49  1  0
 26 50  1  0
 27 51  1  0
 29 52  1  0
 30 53  1  0
 33 54  1  0
 35 55  1  0
M  CHG  2  15  -1  22  -1
M  END
>  <UniqueID>  (39) 
37

>  <SMILES>  (39) 
Cc1cc(C)cc(S(=O)(=O)c2c(C(=O)[N-]Cc3ccc(S([NH-])(=O)=O)cc3)[nH]c3ccc(Cl)cc23)c1

>  <Energy>  (39) 
92.98724446654015

>  <Genealogy>  (39) 
Cc1cc(C)cc(S(=O)(=O)c2c(C(=O)[N-]Cc3ccc(S([NH-])(=O)=O)cc3)[nH]c3ccc(Cl)cc23)c1 (protonated)
Cc1cc(C)cc(S(=O)(=O)c2c(C(=O)[N-]Cc3ccc(S([NH-])(=O)=O)cc3)[nH]c3ccc(Cl)cc23)c1 (3D coordinates assigned)
Cc1cc(C)cc(S(=O)(=O)c2c(C(=O)[N-]Cc3ccc(S([NH-])(=O)=O)cc3)[nH]c3ccc(Cl)cc23)c1 (optimized conformer: 92.98724446654015 kcal/mol)

>  <smiles>  (39) 
Cc1cc(C)cc(S(=O)(=O)c2c(C(=O)NCc3ccc(S(N)(=O)=O)cc3)[nH]c3ccc(Cl)cc23)c1

>  <score_type>  (39) 
oracle

>  <origin>  (39) 
adgpu

>  <m_score__min__energy>  (39) 
-12.9

>  <m_primary>  (39) 
energy

$$$$
39:0
     RDKit          3D

 48 50  0  0  0  0  0  0  0  0999 V2000
   -3.8770   25.4910  -30.8050 O   0  0  0  0  0  0  0  0  0  0  0  0
   -3.6880   24.1740  -30.1090 S   0  0  0  0  0  0  0  0  0  0  0  0
   -2.3280   23.6380  -30.4650 O   0  0  0  0  0  0  0  0  0  0  0  0
   -3.7910   24.4150  -28.3920 N   0  0  0  0  0  0  0  0  0  0  0  0
   -2.5960   23.8830  -27.7430 C   0  0  0  0  0  0  0  0  0  0  0  0
   -1.8430   25.0090  -27.0830 C   0  0  0  0  0  0  0  0  0  0  0  0
   -1.8050   25.0810  -25.6790 C   0  0  0  0  0  0  0  0  0  0  0  0
   -1.1210   26.1170  -25.0400 C   0  0  0  0  0  0  0  0  0  0  0  0
   -0.4740   27.0970  -25.7930 C   0  0  0  0  0  0  0  0  0  0  0  0
   -0.5140   27.0470  -27.1880 C   0  0  0  0  0  0  0  0  0  0  0  0
   -1.1980   26.0160  -27.8430 C   0  0  0  0  0  0  0  0  0  0  0  0
   -1.2220   26.0250  -29.2390 O   0  0  0  0  0  0  0  0  0  0  0  0
   -4.9410   23.0560  -30.6430 C   0  0  0  0  0  0  0  0  0  0  0  0
   -4.6360   21.7000  -30.8140 C   0  0  0  0  0  0  0  0  0  0  0  0
   -5.6180   20.8080  -31.2550 C   0  0  0  0  0  0  0  0  0  0  0  0
   -6.9160   21.2650  -31.5280 C   0  0  0  0  0  0  0  0  0  0  0  0
   -8.1630   20.1350  -32.0610 S   0  0  0  0  0  0  0  0  0  0  0  0
   -9.3050   20.9060  -32.6640 O   0  0  0  0  0  0  0  0  0  0  0  0
   -8.6900   19.3800  -30.8720 O   0  0  0  0  0  0  0  0  0  0  0  0
   -7.5430   19.0050  -33.2440 N   0  0  0  0  0  0  0  0  0  0  0  0
   -7.1120   17.7550  -32.5810 C   0  0  0  0  0  0  0  0  0  0  0  0
   -6.1990   16.9270  -33.4900 C   0  0  0  0  0  0  0  0  0  0  0  0
   -4.9080   17.6940  -33.8250 C   0  0  0  0  0  0  0  0  0  0  0  0
   -5.0860   19.2210  -33.7470 C   0  0  0  0  0  0  0  0  0  0  0  0
   -6.5180   19.6330  -34.1140 C   0  0  0  0  0  0  0  0  0  0  0  0
   -7.2160   22.6250  -31.3700 C   0  0  0  0  0  0  0  0  0  0  0  0
   -6.2330   23.5170  -30.9290 C   0  0  0  0  0  0  0  0  0  0  0  0
   -2.8891   23.1427  -26.9840 H   0  0  0  0  0  0  0  0  0  0  0  0
   -1.9530   23.4010  -28.4942 H   0  0  0  0  0  0  0  0  0  0  0  0
   -2.3183   24.3149  -25.0794 H   0  0  0  0  0  0  0  0  0  0  0  0
   -1.0923   26.1605  -23.9412 H   0  0  0  0  0  0  0  0  0  0  0  0
    0.0681   27.9098  -25.2875 H   0  0  0  0  0  0  0  0  0  0  0  0
   -0.0041   27.8238  -27.7768 H   0  0  0  0  0  0  0  0  0  0  0  0
   -1.9990   25.6740  -29.7830 H   0  0  0  0  0  0  0  0  0  0  0  0
   -3.6203   21.3355  -30.6006 H   0  0  0  0  0  0  0  0  0  0  0  0
   -5.3721   19.7442  -31.3884 H   0  0  0  0  0  0  0  0  0  0  0  0
   -6.5661   18.0080  -31.6601 H   0  0  0  0  0  0  0  0  0  0  0  0
   -8.0070   17.1578  -32.3524 H   0  0  0  0  0  0  0  0  0  0  0  0
   -5.9372   15.9892  -32.9781 H   0  0  0  0  0  0  0  0  0  0  0  0
   -6.7351   16.7189  -34.4277 H   0  0  0  0  0  0  0  0  0  0  0  0
   -4.1257   17.3942  -33.1122 H   0  0  0  0  0  0  0  0  0  0  0  0
   -4.6328   17.4444  -34.8604 H   0  0  0  0  0  0  0  0  0  0  0  0
   -4.8680   19.5556  -32.7221 H   0  0  0  0  0  0  0  0  0  0  0  0
   -4.3948   19.6890  -34.4634 H   0  0  0  0  0  0  0  0  0  0  0  0
   -6.6026   20.7259  -34.0226 H   0  0  0  0  0  0  0  0  0  0  0  0
   -6.7053   19.2912  -35.1426 H   0  0  0  0  0  0  0  0  0  0  0  0
   -8.2285   22.9923  -31.5937 H   0  0  0  0  0  0  0  0  0  0  0  0
   -6.4748   24.5831  -30.8064 H   0  0  0  0  0  0  0  0  0  0  0  0
  1  2  2  0
  2  3  2  0
  2  4  1  0
  4  5  1  0
  5  6  1  0
  6  7  2  0
  7  8  1  0
  8  9  2  0
  9 10  1  0
 10 11  2  0
 11 12  1  0
  2 13  1  0
 13 14  2  0
 14 15  1  0
 15 16  2  0
 16 17  1  0
 17 18  2  0
 17 19  2  0
 17 20  1  0
 20 21  1  0
 21 22  1  0
 22 23  1  0
 23 24  1  0
 24 25  1  0
 16 26  1  0
 26 27  2  0
 11  6  1  0
 27 13  1  0
 25 20  1  0
  5 28  1  0
  5 29  1  0
  7 30  1  0
  8 31  1  0
  9 32  1  0
 10 33  1  0
 12 34  1  0
 14 35  1  0
 15 36  1  0
 21 37  1  0
 21 38  1  0
 22 39  1  0
 22 40  1  0
 23 41  1  0
 23 42  1  0
 24 43  1  0
 24 44  1  0
 25 45  1  0
 25 46  1  0
 26 47  1  0
 27 48  1  0
M  CHG  1   4  -1
M  END
>  <UniqueID>  (40) 
38

>  <SMILES>  (40) 
O=S(=O)([N-]Cc1ccccc1O)c1ccc(S(=O)(=O)N2CCCCC2)cc1

>  <Energy>  (40) 
52.64214079492334

>  <Genealogy>  (40) 
O=S(=O)([N-]Cc1ccccc1O)c1ccc(S(=O)(=O)N2CCCCC2)cc1 (protonated)
O=S(=O)([N-]Cc1ccccc1O)c1ccc(S(=O)(=O)N2CCCCC2)cc1 (3D coordinates assigned)
O=S(=O)([N-]Cc1ccccc1O)c1ccc(S(=O)(=O)N2CCCCC2)cc1 (nonaromatic ring conformer: 52.64214079492334 kcal/mol)

>  <smiles>  (40) 
O=S(=O)(NCc1ccccc1O)c1ccc(S(=O)(=O)N2CCCCC2)cc1

>  <score_type>  (40) 
oracle

>  <origin>  (40) 
adgpu

>  <m_score__min__energy>  (40) 
-11.68

>  <m_primary>  (40) 
energy

$$$$
40:0
     RDKit          3D

 56 59  0  0  0  0  0  0  0  0999 V2000
   -3.9060   25.0930  -30.5870 O   0  0  0  0  0  0  0  0  0  0  0  0
   -3.6990   23.8720  -30.3430 C   0  0  0  0  0  0  0  0  0  0  0  0
   -4.3430   22.8890  -31.1680 N   0  0  0  0  0  0  0  0  0  0  0  0
   -5.7480   22.6950  -31.4020 C   0  0  0  0  0  0  0  0  0  0  0  0
   -6.6560   23.7680  -31.5040 C   0  0  0  0  0  0  0  0  0  0  0  0
   -8.0120   23.5220  -31.7370 C   0  0  0  0  0  0  0  0  0  0  0  0
   -8.4690   22.2110  -31.9140 C   0  0  0  0  0  0  0  0  0  0  0  0
   -7.5670   21.1360  -31.8670 C   0  0  0  0  0  0  0  0  0  0  0  0
   -8.1220   19.4880  -32.2030 S   0  0  0  0  0  0  0  0  0  0  0  0
   -9.3840   19.5580  -33.0210 O   0  0  0  0  0  0  0  0  0  0  0  0
   -8.4530   18.8050  -30.9020 O   0  0  0  0  0  0  0  0  0  0  0  0
   -6.9420   18.5210  -33.0570 N   0  0  0  0  0  0  0  0  0  0  0  0
   -6.1750   19.2990  -34.0220 C   0  0  0  0  0  0  0  0  0  0  0  0
   -4.8950   18.5210  -34.2540 C   0  0  0  0  0  0  0  0  0  0  0  0
   -4.7020   17.6940  -32.9930 C   0  0  0  0  0  0  0  0  0  0  0  0
   -5.9520   17.9330  -32.1590 C   0  0  0  0  0  0  0  0  0  0  0  0
   -6.2090   21.3840  -31.6150 C   0  0  0  0  0  0  0  0  0  0  0  0
   -2.7780   23.5090  -29.2470 C   0  0  0  0  0  0  0  0  0  0  0  0
   -2.8900   22.2380  -28.6580 C   0  0  0  0  0  0  0  0  0  0  0  0
   -1.9930   21.8340  -27.6580 C   0  0  0  0  0  0  0  0  0  0  0  0
   -2.0260   20.1690  -27.0700 S   0  0  0  0  0  0  0  0  0  0  0  0
   -3.4280   19.6320  -27.1930 O   0  0  0  0  0  0  0  0  0  0  0  0
   -1.6440   20.1500  -25.6120 O   0  0  0  0  0  0  0  0  0  0  0  0
   -0.9450   19.1440  -27.9910 N   0  0  0  0  0  0  0  0  0  0  0  0
   -0.5440   17.9730  -27.1910 C   0  0  0  0  0  0  0  0  0  0  0  0
    0.5320   17.1520  -27.9320 C   0  0  0  0  0  0  0  0  0  0  0  0
    0.7630   17.6490  -29.2410 O   0  0  0  0  0  0  0  0  0  0  0  0
    1.2310   18.9840  -29.1690 C   0  0  0  0  0  0  0  0  0  0  0  0
    0.2440   19.9030  -28.4200 C   0  0  0  0  0  0  0  0  0  0  0  0
   -1.0100   22.7300  -27.2070 C   0  0  0  0  0  0  0  0  0  0  0  0
   -0.9050   24.0050  -27.7740 C   0  0  0  0  0  0  0  0  0  0  0  0
   -1.7820   24.3980  -28.7940 C   0  0  0  0  0  0  0  0  0  0  0  0
   -1.6670   25.6740  -29.3400 O   0  0  0  0  0  0  0  0  0  0  0  0
   -6.2964   24.8023  -31.3999 H   0  0  0  0  0  0  0  0  0  0  0  0
   -8.7220   24.3610  -31.7814 H   0  0  0  0  0  0  0  0  0  0  0  0
   -9.5382   22.0222  -32.0905 H   0  0  0  0  0  0  0  0  0  0  0  0
   -6.7358   19.4034  -34.9625 H   0  0  0  0  0  0  0  0  0  0  0  0
   -5.9706   20.3148  -33.6528 H   0  0  0  0  0  0  0  0  0  0  0  0
   -4.9939   17.8675  -35.1333 H   0  0  0  0  0  0  0  0  0  0  0  0
   -4.0387   19.1836  -34.4482 H   0  0  0  0  0  0  0  0  0  0  0  0
   -4.6043   16.6273  -33.2433 H   0  0  0  0  0  0  0  0  0  0  0  0
   -3.7879   17.9797  -32.4519 H   0  0  0  0  0  0  0  0  0  0  0  0
   -6.3253   16.9816  -31.7522 H   0  0  0  0  0  0  0  0  0  0  0  0
   -5.7419   18.5975  -31.3079 H   0  0  0  0  0  0  0  0  0  0  0  0
   -5.4985   20.5448  -31.5838 H   0  0  0  0  0  0  0  0  0  0  0  0
   -3.6877   21.5542  -28.9838 H   0  0  0  0  0  0  0  0  0  0  0  0
   -0.1380   18.3152  -26.2276 H   0  0  0  0  0  0  0  0  0  0  0  0
   -1.4259   17.3362  -27.0275 H   0  0  0  0  0  0  0  0  0  0  0  0
    1.4716   17.1991  -27.3619 H   0  0  0  0  0  0  0  0  0  0  0  0
    0.1739   16.1154  -28.0172 H   0  0  0  0  0  0  0  0  0  0  0  0
    2.1960   18.9940  -28.6410 H   0  0  0  0  0  0  0  0  0  0  0  0
    1.3354   19.3632  -30.1963 H   0  0  0  0  0  0  0  0  0  0  0  0
    0.7428   20.3249  -27.5350 H   0  0  0  0  0  0  0  0  0  0  0  0
   -0.0742   20.7096  -29.0968 H   0  0  0  0  0  0  0  0  0  0  0  0
   -0.3201   22.4284  -26.4051 H   0  0  0  0  0  0  0  0  0  0  0  0
   -0.1314   24.7012  -27.4179 H   0  0  0  0  0  0  0  0  0  0  0  0
  1  2  2  0
  2  3  1  0
  3  4  1  0
  4  5  2  0
  5  6  1  0
  6  7  2  0
  7  8  1  0
  8  9  1  0
  9 10  2  0
  9 11  2  0
  9 12  1  0
 12 13  1  0
 13 14  1  0
 14 15  1  0
 15 16  1  0
  8 17  2  0
  2 18  1  0
 18 19  2  0
 19 20  1  0
 20 21  1  0
 21 22  2  0
 21 23  2  0
 21 24  1  0
 24 25  1  0
 25 26  1  0
 26 27  1  0
 27 28  1  0
 28 29  1  0
 20 30  2  0
 30 31  1  0
 31 32  2  0
 32 33  1  0
 17  4  1  0
 32 18  1  0
 16 12  1  0
 29 24  1  0
  5 34  1  0
  6 35  1  0
  7 36  1  0
 13 37  1  0
 13 38  1  0
 14 39  1  0
 14 40  1  0
 15 41  1  0
 15 42  1  0
 16 43  1  0
 16 44  1  0
 17 45  1  0
 19 46  1  0
 25 47  1  0
 25 48  1  0
 26 49  1  0
 26 50  1  0
 28 51  1  0
 28 52  1  0
 29 53  1  0
 29 54  1  0
 30 55  1  0
 31 56  1  0
M  CHG  2   3  -1  33  -1
M  END
>  <UniqueID>  (41) 
39

>  <SMILES>  (41) 
O=C([N-]c1cccc(S(=O)(=O)N2CCCC2)c1)c1cc(S(=O)(=O)N2CCOCC2)ccc1[O-]

>  <Energy>  (41) 
76.02641509727114

>  <Genealogy>  (41) 
O=C([N-]c1cccc(S(=O)(=O)N2CCCC2)c1)c1cc(S(=O)(=O)N2CCOCC2)ccc1[O-] (protonated)
O=C([N-]c1cccc(S(=O)(=O)N2CCCC2)c1)c1cc(S(=O)(=O)N2CCOCC2)ccc1[O-] (3D coordinates assigned)
O=C([N-]c1cccc(S(=O)(=O)N2CCCC2)c1)c1cc(S(=O)(=O)N2CCOCC2)ccc1[O-] (nonaromatic ring conformer: 76.02641509727114 kcal/mol)

>  <smiles>  (41) 
O=C(Nc1cccc(S(=O)(=O)N2CCCC2)c1)c1cc(S(=O)(=O)N2CCOCC2)ccc1O

>  <score_type>  (41) 
oracle

>  <origin>  (41) 
adgpu

>  <m_score__min__energy>  (41) 
-15.19

>  <m_primary>  (41) 
energy

$$$$
41:0
     RDKit          3D

 54 57  0  0  0  0  0  0  0  0999 V2000
   -5.3800   16.0980  -32.4430 C   0  0  0  0  0  0  0  0  0  0  0  0
   -5.5270   17.5720  -32.6690 C   0  0  0  0  0  0  0  0  0  0  0  0
   -4.6870   18.3700  -33.4290 C   0  0  0  0  0  0  0  0  0  0  0  0
   -3.5280   17.9200  -34.1430 N   0  0  0  0  0  0  0  0  0  0  0  0
   -1.8770   18.2350  -33.7150 S   0  0  0  0  0  0  0  0  0  0  0  0
   -1.1280   18.5870  -34.9700 O   0  0  0  0  0  0  0  0  0  0  0  0
   -1.2300   17.0180  -33.1190 O   0  0  0  0  0  0  0  0  0  0  0  0
   -1.8030   19.5910  -32.5890 C   0  0  0  0  0  0  0  0  0  0  0  0
   -1.2780   19.4170  -31.2990 C   0  0  0  0  0  0  0  0  0  0  0  0
   -1.2020   20.4990  -30.4170 C   0  0  0  0  0  0  0  0  0  0  0  0
   -1.6530   21.7700  -30.8100 C   0  0  0  0  0  0  0  0  0  0  0  0
   -1.5480   22.9050  -29.9340 N   0  0  0  0  0  0  0  0  0  0  0  0
   -1.9610   22.8900  -28.5590 C   0  0  0  0  0  0  0  0  0  0  0  0
   -2.7670   22.0080  -28.1540 O   0  0  0  0  0  0  0  0  0  0  0  0
   -1.5110   23.9450  -27.6220 C   0  0  0  0  0  0  0  0  0  0  0  0
   -1.1830   23.6010  -26.2990 C   0  0  0  0  0  0  0  0  0  0  0  0
   -0.7630   24.5790  -25.3950 C   0  0  0  0  0  0  0  0  0  0  0  0
   -0.6570   25.9110  -25.8030 C   0  0  0  0  0  0  0  0  0  0  0  0
   -0.9640   26.2650  -27.1170 C   0  0  0  0  0  0  0  0  0  0  0  0
   -1.3820   25.2910  -28.0320 C   0  0  0  0  0  0  0  0  0  0  0  0
   -1.6380   25.6680  -29.3450 O   0  0  0  0  0  0  0  0  0  0  0  0
   -2.1570   21.9440  -32.1060 C   0  0  0  0  0  0  0  0  0  0  0  0
   -2.2420   20.8600  -32.9840 C   0  0  0  0  0  0  0  0  0  0  0  0
   -5.2210   19.6420  -33.3290 C   0  0  0  0  0  0  0  0  0  0  0  0
   -4.7630   20.6910  -33.8500 O   0  0  0  0  0  0  0  0  0  0  0  0
   -6.3330   19.6000  -32.5670 N   0  0  0  0  0  0  0  0  0  0  0  0
   -7.1900   20.7170  -32.2730 C   0  0  0  0  0  0  0  0  0  0  0  0
   -8.5870   20.5670  -32.3090 C   0  0  0  0  0  0  0  0  0  0  0  0
   -9.4170   21.6470  -31.9990 C   0  0  0  0  0  0  0  0  0  0  0  0
   -8.8600   22.8800  -31.6430 C   0  0  0  0  0  0  0  0  0  0  0  0
   -7.4710   23.0340  -31.5990 C   0  0  0  0  0  0  0  0  0  0  0  0
   -6.6380   21.9560  -31.9120 C   0  0  0  0  0  0  0  0  0  0  0  0
   -6.5110   18.3480  -32.1510 N   0  0  0  0  0  0  0  0  0  0  0  0
   -7.6170   17.8870  -31.3090 C   0  0  0  0  0  0  0  0  0  0  0  0
   -5.3596   15.8930  -31.3625 H   0  0  0  0  0  0  0  0  0  0  0  0
   -6.2300   15.5704  -32.9003 H   0  0  0  0  0  0  0  0  0  0  0  0
   -4.4426   15.7486  -32.9003 H   0  0  0  0  0  0  0  0  0  0  0  0
   -0.9248   18.4251  -30.9806 H   0  0  0  0  0  0  0  0  0  0  0  0
   -0.7864   20.3542  -29.4089 H   0  0  0  0  0  0  0  0  0  0  0  0
   -1.2420   23.8170  -30.3460 H   0  0  0  0  0  0  0  0  0  0  0  0
   -1.2578   22.5530  -25.9732 H   0  0  0  0  0  0  0  0  0  0  0  0
   -0.5153   24.3002  -24.3602 H   0  0  0  0  0  0  0  0  0  0  0  0
   -0.3314   26.6808  -25.0879 H   0  0  0  0  0  0  0  0  0  0  0  0
   -0.8773   27.3142  -27.4358 H   0  0  0  0  0  0  0  0  0  0  0  0
   -2.4879   22.9403  -32.4344 H   0  0  0  0  0  0  0  0  0  0  0  0
   -2.6568   21.0051  -33.9924 H   0  0  0  0  0  0  0  0  0  0  0  0
   -9.0278   19.5969  -32.5819 H   0  0  0  0  0  0  0  0  0  0  0  0
  -10.5099   21.5278  -32.0349 H   0  0  0  0  0  0  0  0  0  0  0  0
   -9.5152   23.7288  -31.3976 H   0  0  0  0  0  0  0  0  0  0  0  0
   -7.0337   24.0035  -31.3181 H   0  0  0  0  0  0  0  0  0  0  0  0
   -5.5455   22.0792  -31.8753 H   0  0  0  0  0  0  0  0  0  0  0  0
   -7.3435   18.0010  -30.2496 H   0  0  0  0  0  0  0  0  0  0  0  0
   -8.5146   18.4859  -31.5225 H   0  0  0  0  0  0  0  0  0  0  0  0
   -7.8236   16.8279  -31.5225 H   0  0  0  0  0  0  0  0  0  0  0  0
  1  2  1  0
  2  3  2  0
  3  4  1  0
  4  5  1  0
  5  6  2  0
  5  7  2  0
  5  8  1  0
  8  9  2  0
  9 10  1  0
 10 11  2  0
 11 12  1  0
 12 13  1  0
 13 14  2  0
 13 15  1  0
 15 16  2  0
 16 17  1  0
 17 18  2  0
 18 19  1  0
 19 20  2  0
 20 21  1  0
 11 22  1  0
 22 23  2  0
  3 24  1  0
 24 25  2  0
 24 26  1  0
 26 27  1  0
 27 28  2  0
 28 29  1  0
 29 30  2  0
 30 31  1  0
 31 32  2  0
 26 33  1  0
 33 34  1  0
 33  2  1  0
 23  8  1  0
 32 27  1  0
 20 15  1  0
  1 35  1  0
  1 36  1  0
  1 37  1  0
  9 38  1  0
 10 39  1  0
 12 40  1  0
 16 41  1  0
 17 42  1  0
 18 43  1  0
 19 44  1  0
 22 45  1  0
 23 46  1  0
 28 47  1  0
 29 48  1  0
 30 49  1  0
 31 50  1  0
 32 51  1  0
 34 52  1  0
 34 53  1  0
 34 54  1  0
M  CHG  2   4  -1  21  -1
M  END
>  <UniqueID>  (42) 
40

>  <SMILES>  (42) 
Cc1c([N-]S(=O)(=O)c2ccc(NC(=O)c3ccccc3[O-])cc2)c(=O)n(-c2ccccc2)n1C

>  <Energy>  (42) 
112.89142665781392

>  <Genealogy>  (42) 
Cc1c([N-]S(=O)(=O)c2ccc(NC(=O)c3ccccc3[O-])cc2)c(=O)n(-c2ccccc2)n1C (protonated)
Cc1c([N-]S(=O)(=O)c2ccc(NC(=O)c3ccccc3[O-])cc2)c(=O)n(-c2ccccc2)n1C (3D coordinates assigned)
Cc1c([N-]S(=O)(=O)c2ccc(NC(=O)c3ccccc3[O-])cc2)c(=O)n(-c2ccccc2)n1C (optimized conformer: 112.89142665781392 kcal/mol)

>  <smiles>  (42) 
Cc1c(NS(=O)(=O)c2ccc(NC(=O)c3ccccc3O)cc2)c(=O)n(-c2ccccc2)n1C

>  <score_type>  (42) 
oracle

>  <origin>  (42) 
adgpu

>  <m_score__min__energy>  (42) 
-12.789999999999999

>  <m_primary>  (42) 
energy

$$$$
42:0
     RDKit          3D

 60 63  0  0  0  0  0  0  0  0999 V2000
   -2.1180   23.0820  -30.7990 O   0  0  0  0  0  0  0  0  0  0  0  0
   -3.1410   22.5450  -31.3050 C   0  0  0  0  0  0  0  0  0  0  0  0
   -3.0150   21.3140  -32.0340 N   0  0  0  0  0  0  0  0  0  0  0  0
   -1.7790   20.8430  -32.5980 C   0  0  0  0  0  0  0  0  0  0  0  0
   -1.7580   20.0640  -33.7680 C   0  0  0  0  0  0  0  0  0  0  0  0
   -0.5450   19.6050  -34.2890 C   0  0  0  0  0  0  0  0  0  0  0  0
    0.6630   19.9180  -33.6510 C   0  0  0  0  0  0  0  0  0  0  0  0
    2.1950   19.3500  -34.3180 S   0  0  0  0  0  0  0  0  0  0  0  0
    2.0360   17.9290  -34.7840 O   0  0  0  0  0  0  0  0  0  0  0  0
    3.2330   19.3620  -33.2290 O   0  0  0  0  0  0  0  0  0  0  0  0
    2.7480   20.3350  -35.6540 N   0  0  0  0  0  0  0  0  0  0  0  0
    1.6510   20.7720  -36.5430 C   0  0  0  0  0  0  0  0  0  0  0  0
    0.9480   22.0660  -36.0850 C   0  0  0  0  0  0  0  0  0  0  0  0
    1.8840   23.0760  -35.4030 C   0  0  0  0  0  0  0  0  0  0  0  0
    3.3460   22.7900  -35.7230 C   0  0  0  0  0  0  0  0  0  0  0  0
    3.7160   21.3820  -35.2430 C   0  0  0  0  0  0  0  0  0  0  0  0
    0.6410   20.6600  -32.4620 C   0  0  0  0  0  0  0  0  0  0  0  0
   -0.5710   21.1160  -31.9380 C   0  0  0  0  0  0  0  0  0  0  0  0
   -4.4710   23.1560  -31.0740 C   0  0  0  0  0  0  0  0  0  0  0  0
   -5.6280   22.3720  -31.2300 C   0  0  0  0  0  0  0  0  0  0  0  0
   -6.9000   22.9200  -31.0160 C   0  0  0  0  0  0  0  0  0  0  0  0
   -8.3410   21.9180  -31.2130 S   0  0  0  0  0  0  0  0  0  0  0  0
   -9.1540   21.9630  -29.9490 O   0  0  0  0  0  0  0  0  0  0  0  0
   -9.1800   22.4780  -32.3260 O   0  0  0  0  0  0  0  0  0  0  0  0
   -7.9320   20.2590  -31.5780 N   0  0  0  0  0  0  0  0  0  0  0  0
   -9.1490   19.4490  -31.7270 C   0  0  0  0  0  0  0  0  0  0  0  0
   -8.7680   17.9800  -32.0100 C   0  0  0  0  0  0  0  0  0  0  0  0
   -7.3820   17.8220  -32.2650 O   0  0  0  0  0  0  0  0  0  0  0  0
   -6.9730   18.7240  -33.2750 C   0  0  0  0  0  0  0  0  0  0  0  0
   -7.1190   20.1850  -32.8040 C   0  0  0  0  0  0  0  0  0  0  0  0
   -7.0210   24.2640  -30.6430 C   0  0  0  0  0  0  0  0  0  0  0  0
   -5.8800   25.0500  -30.4740 C   0  0  0  0  0  0  0  0  0  0  0  0
   -4.6080   24.5050  -30.6760 C   0  0  0  0  0  0  0  0  0  0  0  0
   -3.4910   25.3030  -30.4530 O   0  0  0  0  0  0  0  0  0  0  0  0
   -3.8410   20.6720  -32.0530 H   0  0  0  0  0  0  0  0  0  0  0  0
   -2.7011   19.8144  -34.2761 H   0  0  0  0  0  0  0  0  0  0  0  0
   -0.5384   18.9950  -35.2044 H   0  0  0  0  0  0  0  0  0  0  0  0
    2.0667   20.9414  -37.5473 H   0  0  0  0  0  0  0  0  0  0  0  0
    0.8924   19.9756  -36.5264 H   0  0  0  0  0  0  0  0  0  0  0  0
    0.5018   22.5484  -36.9671 H   0  0  0  0  0  0  0  0  0  0  0  0
    0.1959   21.7731  -35.3377 H   0  0  0  0  0  0  0  0  0  0  0  0
    1.6332   24.0881  -35.7533 H   0  0  0  0  0  0  0  0  0  0  0  0
    1.7470   22.9919  -34.3148 H   0  0  0  0  0  0  0  0  0  0  0  0
    3.5022   22.8583  -36.8097 H   0  0  0  0  0  0  0  0  0  0  0  0
    3.9813   23.5274  -35.2105 H   0  0  0  0  0  0  0  0  0  0  0  0
    4.7025   21.1232  -35.6552 H   0  0  0  0  0  0  0  0  0  0  0  0
    3.7125   21.4074  -34.1433 H   0  0  0  0  0  0  0  0  0  0  0  0
    1.5824   20.8843  -31.9391 H   0  0  0  0  0  0  0  0  0  0  0  0
   -0.5785   21.6931  -31.0015 H   0  0  0  0  0  0  0  0  0  0  0  0
   -5.5335   21.3161  -31.5235 H   0  0  0  0  0  0  0  0  0  0  0  0
   -9.7383   19.5013  -30.7996 H   0  0  0  0  0  0  0  0  0  0  0  0
   -9.7438   19.8382  -32.5665 H   0  0  0  0  0  0  0  0  0  0  0  0
   -9.0384   17.3699  -31.1356 H   0  0  0  0  0  0  0  0  0  0  0  0
   -9.3139   17.6585  -32.9092 H   0  0  0  0  0  0  0  0  0  0  0  0
   -5.9194   18.5303  -33.5250 H   0  0  0  0  0  0  0  0  0  0  0  0
   -7.6124   18.5750  -34.1576 H   0  0  0  0  0  0  0  0  0  0  0  0
   -6.1208   20.6001  -32.6007 H   0  0  0  0  0  0  0  0  0  0  0  0
   -7.6194   20.7628  -33.5951 H   0  0  0  0  0  0  0  0  0  0  0  0
   -8.0175   24.7015  -30.4828 H   0  0  0  0  0  0  0  0  0  0  0  0
   -5.9820   26.1051  -30.1800 H   0  0  0  0  0  0  0  0  0  0  0  0
  1  2  2  0
  2  3  1  0
  3  4  1  0
  4  5  2  0
  5  6  1  0
  6  7  2  0
  7  8  1  0
  8  9  2  0
  8 10  2  0
  8 11  1  0
 11 12  1  0
 12 13  1  0
 13 14  1  0
 14 15  1  0
 15 16  1  0
  7 17  1  0
 17 18  2  0
  2 19  1  0
 19 20  2  0
 20 21  1  0
 21 22  1  0
 22 23  2  0
 22 24  2  0
 22 25  1  0
 25 26  1  0
 26 27  1  0
 27 28  1  0
 28 29  1  0
 29 30  1  0
 21 31  2  0
 31 32  1  0
 32 33  2  0
 33 34  1  0
 18  4  1  0
 33 19  1  0
 16 11  1  0
 30 25  1  0
  3 35  1  0
  5 36  1  0
  6 37  1  0
 12 38  1  0
 12 39  1  0
 13 40  1  0
 13 41  1  0
 14 42  1  0
 14 43  1  0
 15 44  1  0
 15 45  1  0
 16 46  1  0
 16 47  1  0
 17 48  1  0
 18 49  1  0
 20 50  1  0
 26 51  1  0
 26 52  1  0
 27 53  1  0
 27 54  1  0
 29 55  1  0
 29 56  1  0
 30 57  1  0
 30 58  1  0
 31 59  1  0
 32 60  1  0
M  CHG  1  34  -1
M  END
>  <UniqueID>  (43) 
41

>  <SMILES>  (43) 
O=C(Nc1ccc(S(=O)(=O)N2CCCCC2)cc1)c1cc(S(=O)(=O)N2CCOCC2)ccc1[O-]

>  <Energy>  (43) 
83.8470225196615

>  <Genealogy>  (43) 
O=C(Nc1ccc(S(=O)(=O)N2CCCCC2)cc1)c1cc(S(=O)(=O)N2CCOCC2)ccc1[O-] (protonated)
O=C(Nc1ccc(S(=O)(=O)N2CCCCC2)cc1)c1cc(S(=O)(=O)N2CCOCC2)ccc1[O-] (3D coordinates assigned)
O=C(Nc1ccc(S(=O)(=O)N2CCCCC2)cc1)c1cc(S(=O)(=O)N2CCOCC2)ccc1[O-] (nonaromatic ring conformer: 83.8470225196615 kcal/mol)

>  <smiles>  (43) 
O=C(Nc1ccc(S(=O)(=O)N2CCCCC2)cc1)c1cc(S(=O)(=O)N2CCOCC2)ccc1O

>  <score_type>  (43) 
oracle

>  <origin>  (43) 
adgpu

>  <m_score__min__energy>  (43) 
-12.449999999999999

>  <m_primary>  (43) 
energy

$$$$
43:0
     RDKit          3D

 35 36  0  0  0  0  0  0  0  0999 V2000
   -3.5300   24.5570  -27.0600 C   0  0  0  0  0  0  0  0  0  0  0  0
   -4.2070   23.9900  -28.2330 N   0  0  0  0  0  0  0  0  0  0  0  0
   -4.2360   22.5250  -28.1390 C   0  0  0  0  0  0  0  0  0  0  0  0
   -3.3550   24.4610  -29.6830 S   0  0  0  0  0  0  0  0  0  0  0  0
   -2.0500   25.1130  -29.3210 O   0  0  0  0  0  0  0  0  0  0  0  0
   -4.1880   25.4350  -30.4700 O   0  0  0  0  0  0  0  0  0  0  0  0
   -3.0140   23.0320  -30.6550 C   0  0  0  0  0  0  0  0  0  0  0  0
   -1.8260   22.3110  -30.4810 C   0  0  0  0  0  0  0  0  0  0  0  0
   -1.5640   21.1930  -31.2760 C   0  0  0  0  0  0  0  0  0  0  0  0
   -2.4810   20.7960  -32.2540 C   0  0  0  0  0  0  0  0  0  0  0  0
   -3.6730   21.5120  -32.4460 C   0  0  0  0  0  0  0  0  0  0  0  0
   -4.5860   21.0960  -33.4760 N   0  0  0  0  0  0  0  0  0  0  0  0
   -5.7830   19.8570  -33.2610 S   0  0  0  0  0  0  0  0  0  0  0  0
   -6.1140   19.2450  -34.5920 O   0  0  0  0  0  0  0  0  0  0  0  0
   -5.2370   18.7920  -32.3520 O   0  0  0  0  0  0  0  0  0  0  0  0
   -7.2440   20.5470  -32.5770 C   0  0  0  0  0  0  0  0  0  0  0  0
   -8.4850   19.9320  -32.5400 C   0  0  0  0  0  0  0  0  0  0  0  0
   -9.4750   20.7410  -31.9690 C   0  0  0  0  0  0  0  0  0  0  0  0
   -9.0130   21.9870  -31.5640 C   0  0  0  0  0  0  0  0  0  0  0  0
   -7.3710   22.0870  -31.9180 S   0  0  0  0  0  0  0  0  0  0  0  0
   -3.9400   22.6230  -31.6230 C   0  0  0  0  0  0  0  0  0  0  0  0
   -3.9961   24.1666  -26.1433 H   0  0  0  0  0  0  0  0  0  0  0  0
   -2.4667   24.2760  -27.0789 H   0  0  0  0  0  0  0  0  0  0  0  0
   -3.6200   25.6531  -27.0789 H   0  0  0  0  0  0  0  0  0  0  0  0
   -4.2419   22.2255  -27.0806 H   0  0  0  0  0  0  0  0  0  0  0  0
   -5.1419   22.1437  -28.6330 H   0  0  0  0  0  0  0  0  0  0  0  0
   -3.3459   22.1082  -28.6330 H   0  0  0  0  0  0  0  0  0  0  0  0
   -1.0989   22.6254  -29.7178 H   0  0  0  0  0  0  0  0  0  0  0  0
   -0.6340   20.6234  -31.1324 H   0  0  0  0  0  0  0  0  0  0  0  0
   -2.2667   19.9157  -32.8778 H   0  0  0  0  0  0  0  0  0  0  0  0
   -4.6050   21.6220  -34.3790 H   0  0  0  0  0  0  0  0  0  0  0  0
   -8.6725   18.9165  -32.9188 H   0  0  0  0  0  0  0  0  0  0  0  0
  -10.5206   20.4200  -31.8521 H   0  0  0  0  0  0  0  0  0  0  0  0
   -9.6182   22.7749  -31.0918 H   0  0  0  0  0  0  0  0  0  0  0  0
   -4.8843   23.1746  -31.7414 H   0  0  0  0  0  0  0  0  0  0  0  0
  1  2  1  0
  2  3  1  0
  2  4  1  0
  4  5  2  0
  4  6  2  0
  4  7  1  0
  7  8  2  0
  8  9  1  0
  9 10  2  0
 10 11  1  0
 11 12  1  0
 12 13  1  0
 13 14  2  0
 13 15  2  0
 13 16  1  0
 16 17  2  0
 17 18  1  0
 18 19  2  0
 19 20  1  0
 11 21  2  0
 21  7  1  0
 20 16  1  0
  1 22  1  0
  1 23  1  0
  1 24  1  0
  3 25  1  0
  3 26  1  0
  3 27  1  0
  8 28  1  0
  9 29  1  0
 10 30  1  0
 12 31  1  0
 17 32  1  0
 18 33  1  0
 19 34  1  0
 21 35  1  0
M  END
>  <UniqueID>  (44) 
42

>  <SMILES>  (44) 
CN(C)S(=O)(=O)c1cccc(NS(=O)(=O)c2cccs2)c1

>  <Energy>  (44) 
59.00901994523708

>  <Genealogy>  (44) 
CN(C)S(=O)(=O)c1cccc(NS(=O)(=O)c2cccs2)c1 (3D coordinates assigned)
CN(C)S(=O)(=O)c1cccc(NS(=O)(=O)c2cccs2)c1 (optimized conformer: 59.00901994523708 kcal/mol)

>  <smiles>  (44) 
CN(C)S(=O)(=O)c1cccc(NS(=O)(=O)c2cccs2)c1

>  <score_type>  (44) 
oracle

>  <origin>  (44) 
adgpu

>  <m_score__min__energy>  (44) 
-8.5800000000000001

>  <m_primary>  (44) 
energy

$$$$
44:0
     RDKit          3D

 46 49  0  0  0  0  0  0  0  0999 V2000
   -8.8840   18.1680  -31.5320 C   0  0  0  0  0  0  0  0  0  0  0  0
   -8.8150   19.3520  -32.4460 C   0  0  0  0  0  0  0  0  0  0  0  0
   -9.8460   19.6760  -33.0950 O   0  0  0  0  0  0  0  0  0  0  0  0
   -7.6020   20.1040  -32.6300 N   0  0  0  0  0  0  0  0  0  0  0  0
   -6.4830   19.6150  -33.4420 C   0  0  0  0  0  0  0  0  0  0  0  0
   -5.3220   20.6140  -33.2250 C   0  0  0  0  0  0  0  0  0  0  0  0
   -5.9160   21.6410  -32.3280 C   0  0  0  0  0  0  0  0  0  0  0  0
   -5.3160   22.8090  -31.8650 C   0  0  0  0  0  0  0  0  0  0  0  0
   -6.0670   23.6750  -31.0480 C   0  0  0  0  0  0  0  0  0  0  0  0
   -5.3530   25.1520  -30.4020 S   0  0  0  0  0  0  0  0  0  0  0  0
   -5.7500   26.3470  -31.2240 O   0  0  0  0  0  0  0  0  0  0  0  0
   -5.8520   25.3590  -29.0010 O   0  0  0  0  0  0  0  0  0  0  0  0
   -3.6240   25.0090  -30.3700 N   0  0  0  0  0  0  0  0  0  0  0  0
   -2.8650   24.2280  -29.4370 C   0  0  0  0  0  0  0  0  0  0  0  0
   -3.2540   22.9310  -29.0560 C   0  0  0  0  0  0  0  0  0  0  0  0
   -2.4740   22.1830  -28.1640 C   0  0  0  0  0  0  0  0  0  0  0  0
   -1.3070   22.7480  -27.6130 C   0  0  0  0  0  0  0  0  0  0  0  0
   -0.9090   24.0330  -28.0080 C   0  0  0  0  0  0  0  0  0  0  0  0
   -1.6840   24.7660  -28.9120 C   0  0  0  0  0  0  0  0  0  0  0  0
   -1.2660   26.0360  -29.2960 O   0  0  0  0  0  0  0  0  0  0  0  0
   -0.4320   21.9460  -26.6790 C   0  0  0  0  0  0  0  0  0  0  0  0
   -1.2060   20.8030  -26.0000 C   0  0  0  0  0  0  0  0  0  0  0  0
   -1.9720   19.9810  -27.0420 C   0  0  0  0  0  0  0  0  0  0  0  0
   -2.8680   20.8490  -27.8020 N   0  0  0  0  0  0  0  0  0  0  0  0
   -7.4090   23.3620  -30.7470 C   0  0  0  0  0  0  0  0  0  0  0  0
   -7.9950   22.1900  -31.2410 C   0  0  0  0  0  0  0  0  0  0  0  0
   -7.2090   21.3230  -32.0090 C   0  0  0  0  0  0  0  0  0  0  0  0
   -8.8641   18.5101  -30.4867 H   0  0  0  0  0  0  0  0  0  0  0  0
   -9.8159   17.6143  -31.7189 H   0  0  0  0  0  0  0  0  0  0  0  0
   -8.0227   17.5098  -31.7189 H   0  0  0  0  0  0  0  0  0  0  0  0
   -6.1856   18.6080  -33.1141 H   0  0  0  0  0  0  0  0  0  0  0  0
   -6.7591   19.5467  -34.5046 H   0  0  0  0  0  0  0  0  0  0  0  0
   -4.4631   20.1216  -32.7455 H   0  0  0  0  0  0  0  0  0  0  0  0
   -4.9360   21.0354  -34.1649 H   0  0  0  0  0  0  0  0  0  0  0  0
   -4.2765   23.0501  -32.1322 H   0  0  0  0  0  0  0  0  0  0  0  0
   -4.1804   22.4993  -29.4626 H   0  0  0  0  0  0  0  0  0  0  0  0
    0.0179   24.4668  -27.6046 H   0  0  0  0  0  0  0  0  0  0  0  0
    0.4015   21.5171  -27.2545 H   0  0  0  0  0  0  0  0  0  0  0  0
   -0.0671   22.6224  -25.8921 H   0  0  0  0  0  0  0  0  0  0  0  0
   -0.4964   20.1484  -25.4728 H   0  0  0  0  0  0  0  0  0  0  0  0
   -1.9251   21.2339  -25.2878 H   0  0  0  0  0  0  0  0  0  0  0  0
   -1.2563   19.5053  -27.7287 H   0  0  0  0  0  0  0  0  0  0  0  0
   -2.5653   19.2098  -26.5289 H   0  0  0  0  0  0  0  0  0  0  0  0
   -3.7640   20.4500  -28.1670 H   0  0  0  0  0  0  0  0  0  0  0  0
   -8.0004   24.0444  -30.1188 H   0  0  0  0  0  0  0  0  0  0  0  0
   -9.0490   21.9560  -31.0303 H   0  0  0  0  0  0  0  0  0  0  0  0
  1  2  1  0
  2  3  2  0
  2  4  1  0
  4  5  1  0
  5  6  1  0
  6  7  1  0
  7  8  2  0
  8  9  1  0
  9 10  1  0
 10 11  2  0
 10 12  2  0
 10 13  1  0
 13 14  1  0
 14 15  2  0
 15 16  1  0
 16 17  2  0
 17 18  1  0
 18 19  2  0
 19 20  1  0
 17 21  1  0
 21 22  1  0
 22 23  1  0
 23 24  1  0
  9 25  2  0
 25 26  1  0
 26 27  2  0
 27  4  1  0
 27  7  1  0
 19 14  1  0
 24 16  1  0
  1 28  1  0
  1 29  1  0
  1 30  1  0
  5 31  1  0
  5 32  1  0
  6 33  1  0
  6 34  1  0
  8 35  1  0
 15 36  1  0
 18 37  1  0
 21 38  1  0
 21 39  1  0
 22 40  1  0
 22 41  1  0
 23 42  1  0
 23 43  1  0
 24 44  1  0
 25 45  1  0
 26 46  1  0
M  CHG  2  13  -1  20  -1
M  END
>  <UniqueID>  (45) 
43

>  <SMILES>  (45) 
CC(=O)N1CCc2cc(S(=O)(=O)[N-]c3cc4c(cc3[O-])CCCN4)ccc21

>  <Energy>  (45) 
67.90218270943629

>  <Genealogy>  (45) 
CC(=O)N1CCc2cc(S(=O)(=O)[N-]c3cc4c(cc3[O-])CCCN4)ccc21 (protonated)
CC(=O)N1CCc2cc(S(=O)(=O)[N-]c3cc4c(cc3[O-])CCCN4)ccc21 (3D coordinates assigned)
CC(=O)N1CCc2cc(S(=O)(=O)[N-]c3cc4c(cc3[O-])CCCN4)ccc21 (nonaromatic ring conformer: 67.90218270943629 kcal/mol)

>  <smiles>  (45) 
CC(=O)N1CCc2cc(S(=O)(=O)Nc3cc4c(cc3O)CCCN4)ccc21

>  <score_type>  (45) 
oracle

>  <origin>  (45) 
adgpu

>  <m_score__min__energy>  (45) 
-14.67

>  <m_primary>  (45) 
energy

$$$$
45:0
     RDKit          3D

 64 67  0  0  0  0  0  0  0  0999 V2000
    4.3960   24.9990  -28.4470 C   0  0  0  0  0  0  0  0  0  0  0  0
    4.1460   25.9970  -27.4140 N   0  0  0  0  0  0  0  0  0  0  0  0
    4.0840   25.2340  -25.8540 S   0  0  0  0  0  0  0  0  0  0  0  0
    4.3780   26.2640  -24.8010 O   0  0  0  0  0  0  0  0  0  0  0  0
    5.1360   24.1630  -25.7640 O   0  0  0  0  0  0  0  0  0  0  0  0
    2.4780   24.5500  -25.5590 C   0  0  0  0  0  0  0  0  0  0  0  0
    1.4970   24.6660  -26.5550 C   0  0  0  0  0  0  0  0  0  0  0  0
    0.2110   24.1300  -26.3710 C   0  0  0  0  0  0  0  0  0  0  0  0
   -0.8350   24.2460  -27.4180 C   0  0  0  0  0  0  0  0  0  0  0  0
   -1.9290   23.3710  -27.4750 C   0  0  0  0  0  0  0  0  0  0  0  0
   -2.8750   23.5180  -28.4860 C   0  0  0  0  0  0  0  0  0  0  0  0
   -2.7200   24.5480  -29.4310 C   0  0  0  0  0  0  0  0  0  0  0  0
   -3.5550   24.7370  -30.4150 N   0  0  0  0  0  0  0  0  0  0  0  0
   -4.8020   24.0640  -30.6480 C   0  0  0  0  0  0  0  0  0  0  0  0
   -4.8810   23.1070  -31.6660 C   0  0  0  0  0  0  0  0  0  0  0  0
   -6.0960   22.4760  -31.9510 C   0  0  0  0  0  0  0  0  0  0  0  0
   -7.2500   22.8150  -31.2330 C   0  0  0  0  0  0  0  0  0  0  0  0
   -8.7800   22.0340  -31.6260 S   0  0  0  0  0  0  0  0  0  0  0  0
   -9.4540   21.6030  -30.3540 O   0  0  0  0  0  0  0  0  0  0  0  0
   -9.6840   22.9920  -32.3490 O   0  0  0  0  0  0  0  0  0  0  0  0
   -8.4780   20.6030  -32.6520 C   0  0  0  0  0  0  0  0  0  0  0  0
   -7.6770   19.5380  -31.8770 C   0  0  0  0  0  0  0  0  0  0  0  0
   -7.0370   18.5100  -32.7270 N   0  0  0  0  0  0  0  0  0  0  0  0
   -6.1110   19.0510  -33.7360 C   0  0  0  0  0  0  0  0  0  0  0  0
   -5.7160   17.9280  -34.7200 C   0  0  0  0  0  0  0  0  0  0  0  0
   -6.0750   16.6370  -34.2530 O   0  0  0  0  0  0  0  0  0  0  0  0
   -5.6450   16.4670  -32.9160 C   0  0  0  0  0  0  0  0  0  0  0  0
   -6.4220   17.4040  -31.9690 C   0  0  0  0  0  0  0  0  0  0  0  0
   -7.1840   23.8020  -30.2400 C   0  0  0  0  0  0  0  0  0  0  0  0
   -5.9690   24.4300  -29.9540 C   0  0  0  0  0  0  0  0  0  0  0  0
   -1.6280   25.3510  -29.3430 N   0  0  0  0  0  0  0  0  0  0  0  0
   -0.7220   25.2070  -28.3750 N   0  0  0  0  0  0  0  0  0  0  0  0
   -0.0730   23.4510  -25.1750 C   0  0  0  0  0  0  0  0  0  0  0  0
    0.8990   23.3230  -24.1810 C   0  0  0  0  0  0  0  0  0  0  0  0
    2.1840   23.8680  -24.3610 C   0  0  0  0  0  0  0  0  0  0  0  0
    3.1810   23.7410  -23.3820 O   0  0  0  0  0  0  0  0  0  0  0  0
    3.1320   22.8310  -22.2880 C   0  0  0  0  0  0  0  0  0  0  0  0
    4.6374   24.0352  -27.9749 H   0  0  0  0  0  0  0  0  0  0  0  0
    3.4984   24.8862  -29.0727 H   0  0  0  0  0  0  0  0  0  0  0  0
    5.2408   25.3226  -29.0727 H   0  0  0  0  0  0  0  0  0  0  0  0
    1.7381   25.1846  -27.4947 H   0  0  0  0  0  0  0  0  0  0  0  0
   -2.0393   22.5733  -26.7256 H   0  0  0  0  0  0  0  0  0  0  0  0
   -3.7353   22.8351  -28.5450 H   0  0  0  0  0  0  0  0  0  0  0  0
   -3.9821   22.8496  -32.2454 H   0  0  0  0  0  0  0  0  0  0  0  0
   -6.1456   21.7118  -32.7407 H   0  0  0  0  0  0  0  0  0  0  0  0
   -9.4409   20.1736  -32.9657 H   0  0  0  0  0  0  0  0  0  0  0  0
   -7.8951   20.9142  -33.5314 H   0  0  0  0  0  0  0  0  0  0  0  0
   -6.8889   20.0500  -31.3054 H   0  0  0  0  0  0  0  0  0  0  0  0
   -8.3989   19.0088  -31.2375 H   0  0  0  0  0  0  0  0  0  0  0  0
   -6.6031   19.8661  -34.2869 H   0  0  0  0  0  0  0  0  0  0  0  0
   -5.2099   19.4393  -33.2388 H   0  0  0  0  0  0  0  0  0  0  0  0
   -6.2219   18.1078  -35.6801 H   0  0  0  0  0  0  0  0  0  0  0  0
   -4.6213   17.9497  -34.8256 H   0  0  0  0  0  0  0  0  0  0  0  0
   -5.8159   15.4238  -32.6118 H   0  0  0  0  0  0  0  0  0  0  0  0
   -4.5744   16.7122  -32.8554 H   0  0  0  0  0  0  0  0  0  0  0  0
   -7.2112   16.8311  -31.4600 H   0  0  0  0  0  0  0  0  0  0  0  0
   -5.7226   17.8240  -31.2311 H   0  0  0  0  0  0  0  0  0  0  0  0
   -8.0909   24.0829  -29.6845 H   0  0  0  0  0  0  0  0  0  0  0  0
   -5.9252   25.2135  -29.1832 H   0  0  0  0  0  0  0  0  0  0  0  0
   -1.0712   23.0157  -25.0198 H   0  0  0  0  0  0  0  0  0  0  0  0
    0.6583   22.7913  -23.2486 H   0  0  0  0  0  0  0  0  0  0  0  0
    3.1622   23.3923  -21.3425 H   0  0  0  0  0  0  0  0  0  0  0  0
    2.2011   22.2471  -22.3382 H   0  0  0  0  0  0  0  0  0  0  0  0
    3.9948   22.1505  -22.3382 H   0  0  0  0  0  0  0  0  0  0  0  0
  1  2  1  0
  2  3  1  0
  3  4  2  0
  3  5  2  0
  3  6  1  0
  6  7  2  0
  7  8  1  0
  8  9  1  0
  9 10  1  0
 10 11  2  0
 11 12  1  0
 12 13  2  3
 13 14  1  0
 14 15  2  0
 15 16  1  0
 16 17  2  0
 17 18  1  0
 18 19  2  0
 18 20  2  0
 18 21  1  0
 21 22  1  0
 22 23  1  0
 23 24  1  0
 24 25  1  0
 25 26  1  0
 26 27  1  0
 27 28  1  0
 17 29  1  0
 29 30  2  0
 12 31  1  0
 31 32  1  0
  8 33  2  0
 33 34  1  0
 34 35  2  0
 35 36  1  0
 36 37  1  0
 35  6  1  0
 32  9  2  0
 30 14  1  0
 28 23  1  0
  1 38  1  0
  1 39  1  0
  1 40  1  0
  7 41  1  0
 10 42  1  0
 11 43  1  0
 15 44  1  0
 16 45  1  0
 21 46  1  0
 21 47  1  0
 22 48  1  0
 22 49  1  0
 24 50  1  0
 24 51  1  0
 25 52  1  0
 25 53  1  0
 27 54  1  0
 27 55  1  0
 28 56  1  0
 28 57  1  0
 29 58  1  0
 30 59  1  0
 33 60  1  0
 34 61  1  0
 37 62  1  0
 37 63  1  0
 37 64  1  0
M  CHG  2   2  -1  31  -1
M  END
>  <UniqueID>  (46) 
44

>  <SMILES>  (46) 
C[N-]S(=O)(=O)c1cc(-c2ccc(=Nc3ccc(S(=O)(=O)CCN4CCOCC4)cc3)[n-]n2)ccc1OC

>  <Energy>  (46) 
88.26678941062343

>  <Genealogy>  (46) 
C[N-]S(=O)(=O)c1cc(-c2ccc(=Nc3ccc(S(=O)(=O)CCN4CCOCC4)cc3)[n-]n2)ccc1OC (protonated)
C[N-]S(=O)(=O)c1cc(-c2ccc(=Nc3ccc(S(=O)(=O)CCN4CCOCC4)cc3)[n-]n2)ccc1OC (3D coordinates assigned)
C[N-]S(=O)(=O)c1cc(-c2ccc(=Nc3ccc(S(=O)(=O)CCN4CCOCC4)cc3)[n-]n2)ccc1OC (nonaromatic ring conformer: 88.26678941062343 kcal/mol)

>  <smiles>  (46) 
CNS(=O)(=O)c1cc(-c2ccc(=Nc3ccc(S(=O)(=O)CCN4CCOCC4)cc3)[nH]n2)ccc1OC

>  <score_type>  (46) 
oracle

>  <origin>  (46) 
adgpu

>  <m_score__min__energy>  (46) 
-12.02

>  <m_primary>  (46) 
energy

$$$$
46:0
     RDKit          3D

 49 52  0  0  0  0  0  0  0  0999 V2000
   -5.3010   23.4590  -32.4280 O   0  0  0  0  0  0  0  0  0  0  0  0
   -6.2640   23.2380  -31.6430 C   0  0  0  0  0  0  0  0  0  0  0  0
   -6.2450   23.8420  -30.2710 C   0  0  0  0  0  0  0  0  0  0  0  0
   -5.1160   25.2790  -30.1740 S   0  0  0  0  0  0  0  0  0  0  0  0
   -3.7450   24.3560  -29.4830 C   0  0  0  0  0  0  0  0  0  0  0  0
   -2.5060   24.9160  -29.4300 N   0  0  0  0  0  0  0  0  0  0  0  0
   -1.4530   24.2400  -28.9010 C   0  0  0  0  0  0  0  0  0  0  0  0
   -0.3200   24.7890  -28.8580 O   0  0  0  0  0  0  0  0  0  0  0  0
   -1.6430   22.9400  -28.4090 C   0  0  0  0  0  0  0  0  0  0  0  0
   -2.9170   22.3880  -28.4770 C   0  0  0  0  0  0  0  0  0  0  0  0
   -3.9430   23.0960  -29.0130 N   0  0  0  0  0  0  0  0  0  0  0  0
   -3.1160   21.0120  -27.9320 C   0  0  0  0  0  0  0  0  0  0  0  0
   -1.9600   20.1110  -28.4070 C   0  0  0  0  0  0  0  0  0  0  0  0
   -0.5960   20.7000  -28.2340 N   0  0  0  0  0  0  0  0  0  0  0  0
    0.2270   20.5050  -29.4480 C   0  0  0  0  0  0  0  0  0  0  0  0
   -0.6350   20.4400  -30.6830 C   0  0  0  0  0  0  0  0  0  0  0  0
   -0.8540   19.2160  -31.3380 C   0  0  0  0  0  0  0  0  0  0  0  0
   -1.6400   19.1680  -32.4920 C   0  0  0  0  0  0  0  0  0  0  0  0
   -2.2230   20.3340  -32.9940 C   0  0  0  0  0  0  0  0  0  0  0  0
   -2.0130   21.5550  -32.3450 C   0  0  0  0  0  0  0  0  0  0  0  0
   -1.2220   21.6090  -31.1930 C   0  0  0  0  0  0  0  0  0  0  0  0
   -0.5610   22.1120  -27.7660 C   0  0  0  0  0  0  0  0  0  0  0  0
   -7.3740   22.4330  -32.0600 N   0  0  0  0  0  0  0  0  0  0  0  0
   -7.3750   21.0250  -32.3310 C   0  0  0  0  0  0  0  0  0  0  0  0
   -6.2730   20.4730  -32.9950 C   0  0  0  0  0  0  0  0  0  0  0  0
   -6.2190   19.1000  -33.2570 C   0  0  0  0  0  0  0  0  0  0  0  0
   -7.2640   18.2660  -32.8450 C   0  0  0  0  0  0  0  0  0  0  0  0
   -7.2130   16.9350  -33.1070 F   0  0  0  0  0  0  0  0  0  0  0  0
   -8.3580   18.8050  -32.1600 C   0  0  0  0  0  0  0  0  0  0  0  0
   -9.3640   17.9950  -31.7470 F   0  0  0  0  0  0  0  0  0  0  0  0
   -8.4140   20.1780  -31.8970 C   0  0  0  0  0  0  0  0  0  0  0  0
   -7.2625   24.1710  -30.0131 H   0  0  0  0  0  0  0  0  0  0  0  0
   -5.8852   23.0774  -29.5667 H   0  0  0  0  0  0  0  0  0  0  0  0
   -3.1267   21.0490  -26.8327 H   0  0  0  0  0  0  0  0  0  0  0  0
   -4.0739   20.6062  -28.2895 H   0  0  0  0  0  0  0  0  0  0  0  0
   -2.0020   19.1710  -27.8372 H   0  0  0  0  0  0  0  0  0  0  0  0
   -2.1017   19.9686  -29.4885 H   0  0  0  0  0  0  0  0  0  0  0  0
    0.9300   21.3455  -29.5443 H   0  0  0  0  0  0  0  0  0  0  0  0
    0.7720   19.5544  -29.3518 H   0  0  0  0  0  0  0  0  0  0  0  0
   -0.4054   18.2934  -30.9410 H   0  0  0  0  0  0  0  0  0  0  0  0
   -1.8003   18.2092  -33.0068 H   0  0  0  0  0  0  0  0  0  0  0  0
   -2.8468   20.2919  -33.8991 H   0  0  0  0  0  0  0  0  0  0  0  0
   -2.4704   22.4736  -32.7411 H   0  0  0  0  0  0  0  0  0  0  0  0
   -1.0591   22.5708  -30.6846 H   0  0  0  0  0  0  0  0  0  0  0  0
   -0.7000   22.1293  -26.6750 H   0  0  0  0  0  0  0  0  0  0  0  0
    0.4118   22.5419  -28.0468 H   0  0  0  0  0  0  0  0  0  0  0  0
   -5.4444   21.1230  -33.3127 H   0  0  0  0  0  0  0  0  0  0  0  0
   -5.3539   18.6756  -33.7876 H   0  0  0  0  0  0  0  0  0  0  0  0
   -9.2713   20.5973  -31.3500 H   0  0  0  0  0  0  0  0  0  0  0  0
  1  2  2  0
  2  3  1  0
  3  4  1  0
  4  5  1  0
  5  6  2  0
  6  7  1  0
  7  8  2  0
  7  9  1  0
  9 10  2  0
 10 11  1  0
 10 12  1  0
 12 13  1  0
 13 14  1  0
 14 15  1  0
 15 16  1  0
 16 17  2  0
 17 18  1  0
 18 19  2  0
 19 20  1  0
 20 21  2  0
 14 22  1  0
  2 23  1  0
 23 24  1  0
 24 25  2  0
 25 26  1  0
 26 27  2  0
 27 28  1  0
 27 29  1  0
 29 30  1  0
 29 31  2  0
 11  5  1  0
 21 16  1  0
 31 24  1  0
 22  9  1  0
  3 32  1  0
  3 33  1  0
 12 34  1  0
 12 35  1  0
 13 36  1  0
 13 37  1  0
 15 38  1  0
 15 39  1  0
 17 40  1  0
 18 41  1  0
 19 42  1  0
 20 43  1  0
 21 44  1  0
 22 45  1  0
 22 46  1  0
 25 47  1  0
 26 48  1  0
 31 49  1  0
M  CHG  2  11  -1  23  -1
M  END
>  <UniqueID>  (47) 
45

>  <SMILES>  (47) 
O=C(CSc1nc(=O)c2c([n-]1)CCN(Cc1ccccc1)C2)[N-]c1ccc(F)c(F)c1

>  <Energy>  (47) 
65.90319232164987

>  <Genealogy>  (47) 
O=C(CSc1nc(=O)c2c([n-]1)CCN(Cc1ccccc1)C2)[N-]c1ccc(F)c(F)c1 (protonated)
O=C(CSc1nc(=O)c2c([n-]1)CCN(Cc1ccccc1)C2)[N-]c1ccc(F)c(F)c1 (3D coordinates assigned)
O=C(CSc1nc(=O)c2c([n-]1)CCN(Cc1ccccc1)C2)[N-]c1ccc(F)c(F)c1 (nonaromatic ring conformer: 65.90319232164987 kcal/mol)

>  <smiles>  (47) 
O=C(CSc1nc(=O)c2c([nH]1)CCN(Cc1ccccc1)C2)Nc1ccc(F)c(F)c1

>  <score_type>  (47) 
oracle

>  <origin>  (47) 
adgpu

>  <m_score__min__energy>  (47) 
-10.01

>  <m_primary>  (47) 
energy

$$$$
47:0
     RDKit          3D

 36 37  0  0  0  0  0  0  0  0999 V2000
   -4.7040   26.2100  -31.2360 H   0  0  0  0  0  0  0  0  0  0  0  0
   -4.2450   25.6610  -30.4760 N   0  0  0  0  0  0  0  0  0  0  0  0
   -4.1530   24.3730  -30.5420 C   0  0  0  0  0  0  0  0  0  0  0  0
   -4.6290   23.6510  -31.5790 N   0  0  0  0  0  0  0  0  0  0  0  0
   -4.3270   22.3800  -31.2450 C   0  0  0  0  0  0  0  0  0  0  0  0
   -4.6960   20.9810  -32.3180 S   0  0  0  0  0  0  0  0  0  0  0  0
   -6.4950   21.0850  -32.1680 C   0  0  0  0  0  0  0  0  0  0  0  0
   -7.0610   22.3500  -31.9260 C   0  0  0  0  0  0  0  0  0  0  0  0
   -6.4129   23.2383  -31.8976 H   0  0  0  0  0  0  0  0  0  0  0  0
   -8.4310   22.4920  -31.7220 C   0  0  0  0  0  0  0  0  0  0  0  0
   -8.8553   23.4845  -31.5101 H   0  0  0  0  0  0  0  0  0  0  0  0
   -9.2630   21.3800  -31.7860 C   0  0  0  0  0  0  0  0  0  0  0  0
  -10.3402   21.4882  -31.5911 H   0  0  0  0  0  0  0  0  0  0  0  0
   -8.7340   20.1270  -32.0970 C   0  0  0  0  0  0  0  0  0  0  0  0
   -9.4054   19.2583  -32.1641 H   0  0  0  0  0  0  0  0  0  0  0  0
   -7.3520   19.9550  -32.3270 C   0  0  0  0  0  0  0  0  0  0  0  0
   -6.8990   18.5980  -32.8720 C   0  0  0  0  0  0  0  0  0  0  0  0
   -7.8262   18.0627  -33.1247 H   0  0  0  0  0  0  0  0  0  0  0  0
   -6.0830   18.7320  -34.1660 C   0  0  0  0  0  0  0  0  0  0  0  0
   -5.0258   18.9056  -33.9165 H   0  0  0  0  0  0  0  0  0  0  0  0
   -6.1738   17.8069  -34.7542 H   0  0  0  0  0  0  0  0  0  0  0  0
   -6.4649   19.5795  -34.7542 H   0  0  0  0  0  0  0  0  0  0  0  0
   -6.1860   17.7280  -31.8350 C   0  0  0  0  0  0  0  0  0  0  0  0
   -6.4607   18.0632  -30.8240 H   0  0  0  0  0  0  0  0  0  0  0  0
   -6.4870   16.6783  -31.9677 H   0  0  0  0  0  0  0  0  0  0  0  0
   -5.0977   17.8169  -31.9677 H   0  0  0  0  0  0  0  0  0  0  0  0
   -3.6780   22.3660  -30.0220 C   0  0  0  0  0  0  0  0  0  0  0  0
   -3.1300   21.1810  -29.2900 C   0  0  0  0  0  0  0  0  0  0  0  0
   -3.7850   20.3149  -29.4655 H   0  0  0  0  0  0  0  0  0  0  0  0
   -2.1150   20.9770  -29.6618 H   0  0  0  0  0  0  0  0  0  0  0  0
   -3.0540   21.4540  -27.7910 C   0  0  0  0  0  0  0  0  0  0  0  0
   -3.3090   20.5379  -27.2381 H   0  0  0  0  0  0  0  0  0  0  0  0
   -2.0338   21.7696  -27.5270 H   0  0  0  0  0  0  0  0  0  0  0  0
   -3.7643   22.2513  -27.5270 H   0  0  0  0  0  0  0  0  0  0  0  0
   -3.5670   23.6310  -29.5850 N   0  0  0  0  0  0  0  0  0  0  0  0
   -3.1190   23.9650  -28.7020 H   0  0  0  0  0  0  0  0  0  0  0  0
  1  2  1  0
  2  3  2  0
  3  4  1  0
  4  5  1  0
  5  6  1  0
  6  7  1  0
  7  8  2  0
  8  9  1  0
  8 10  1  0
 10 11  1  0
 10 12  2  0
 12 13  1  0
 12 14  1  0
 14 15  1  0
 14 16  2  0
 16 17  1  0
 17 18  1  0
 17 19  1  0
 19 20  1  0
 19 21  1  0
 19 22  1  0
 17 23  1  0
 23 24  1  0
 23 25  1  0
 23 26  1  0
  5 27  2  0
 27 28  1  0
 28 29  1  0
 28 30  1  0
 28 31  1  0
 31 32  1  0
 31 33  1  0
 31 34  1  0
 27 35  1  0
 35 36  1  0
 35  3  1  0
 16  7  1  0
M  CHG  1   4  -1
M  END
>  <UniqueID>  (48) 
46

>  <SMILES>  (48) 
[H]/N=c1\[n-]c(Sc2ccccc2C(C)C)c(CC)[nH]1

>  <Energy>  (48) 
63.78362587757047

>  <Genealogy>  (48) 
CCc1[nH]c(=N)[n-]c1Sc1ccccc1C(C)C (protonated)
[H]/N=c1\[n-]c(Sc2ccccc2C(C)C)c(CC)[nH]1 (cis-trans isomerization)
[H]/N=c1\[n-]c(Sc2ccccc2C(C)C)c(CC)[nH]1 (3D coordinates assigned)
[H]/N=c1\[n-]c(Sc2ccccc2C(C)C)c(CC)[nH]1 (optimized conformer: 63.78362587757047 kcal/mol)

>  <smiles>  (48) 
CCc1[nH]c(=N)[nH]c1Sc1ccccc1C(C)C

>  <score_type>  (48) 
oracle

>  <origin>  (48) 
adgpu

>  <m_score__min__energy>  (48) 
-9.0099999999999998

>  <m_primary>  (48) 
energy

$$$$
