0:0
     RDKit          3D

 34 35  0  0  0  0  0  0  0  0999 V2000
   -9.3080   19.6970  -32.3780 C   0  0  0  0  0  0  0  0  0  0  0  0
   -8.0250   20.4190  -32.1310 C   0  0  0  0  0  0  0  0  0  0  0  0
   -6.9430   19.7710  -32.1160 O   0  0  0  0  0  0  0  0  0  0  0  0
   -8.0230   21.8500  -32.0070 N   0  0  0  0  0  0  0  0  0  0  0  0
   -6.8830   22.6220  -31.5930 C   0  0  0  0  0  0  0  0  0  0  0  0
   -7.0280   23.8000  -30.8390 C   0  0  0  0  0  0  0  0  0  0  0  0
   -5.9040   24.5440  -30.4680 C   0  0  0  0  0  0  0  0  0  0  0  0
   -4.6210   24.1260  -30.8390 C   0  0  0  0  0  0  0  0  0  0  0  0
   -3.4910   24.9210  -30.4520 N   0  0  0  0  0  0  0  0  0  0  0  0
   -2.5630   24.6170  -29.4020 C   0  0  0  0  0  0  0  0  0  0  0  0
   -1.8470   25.5460  -28.9430 O   0  0  0  0  0  0  0  0  0  0  0  0
   -2.4610   23.2630  -28.8080 C   0  0  0  0  0  0  0  0  0  0  0  0
   -1.2790   22.5180  -28.9480 C   0  0  0  0  0  0  0  0  0  0  0  0
   -1.1730   21.2420  -28.3910 C   0  0  0  0  0  0  0  0  0  0  0  0
   -2.2440   20.6860  -27.6700 C   0  0  0  0  0  0  0  0  0  0  0  0
   -2.1320   19.3700  -27.0970 N   0  0  0  0  0  0  0  0  0  0  0  0
   -1.0780   18.7110  -27.2160 O   0  0  0  0  0  0  0  0  0  0  0  0
   -3.1850   18.8160  -26.4060 O   0  0  0  0  0  0  0  0  0  0  0  0
   -3.4220   21.4390  -27.5160 C   0  0  0  0  0  0  0  0  0  0  0  0
   -3.5260   22.7150  -28.0740 C   0  0  0  0  0  0  0  0  0  0  0  0
   -4.4770   22.9740  -31.6320 C   0  0  0  0  0  0  0  0  0  0  0  0
   -5.6000   22.2300  -32.0040 C   0  0  0  0  0  0  0  0  0  0  0  0
   -9.7727   19.4355  -31.4159 H   0  0  0  0  0  0  0  0  0  0  0  0
   -9.9888   20.3445  -32.9501 H   0  0  0  0  0  0  0  0  0  0  0  0
   -9.1079   18.7790  -32.9501 H   0  0  0  0  0  0  0  0  0  0  0  0
   -8.8790   22.3640  -32.3170 H   0  0  0  0  0  0  0  0  0  0  0  0
   -8.0311   24.1379  -30.5395 H   0  0  0  0  0  0  0  0  0  0  0  0
   -6.0291   25.4651  -29.8799 H   0  0  0  0  0  0  0  0  0  0  0  0
   -0.4289   22.9435  -29.5015 H   0  0  0  0  0  0  0  0  0  0  0  0
   -0.2437   20.6671  -28.5174 H   0  0  0  0  0  0  0  0  0  0  0  0
   -4.2679   21.0196  -26.9517 H   0  0  0  0  0  0  0  0  0  0  0  0
   -4.4500   23.2960  -27.9375 H   0  0  0  0  0  0  0  0  0  0  0  0
   -3.4764   22.6570  -31.9610 H   0  0  0  0  0  0  0  0  0  0  0  0
   -5.4771   21.3298  -32.6241 H   0  0  0  0  0  0  0  0  0  0  0  0
  1  2  1  0
  2  3  2  0
  2  4  1  0
  4  5  1  0
  5  6  2  0
  6  7  1  0
  7  8  2  0
  8  9  1  0
  9 10  1  0
 10 11  2  0
 10 12  1  0
 12 13  2  0
 13 14  1  0
 14 15  2  0
 15 16  1  0
 16 17  2  0
 16 18  1  0
 15 19  1  0
 19 20  2  0
  8 21  1  0
 21 22  2  0
 22  5  1  0
 20 12  1  0
  1 23  1  0
  1 24  1  0
  1 25  1  0
  4 26  1  0
  6 27  1  0
  7 28  1  0
 13 29  1  0
 14 30  1  0
 19 31  1  0
 20 32  1  0
 21 33  1  0
 22 34  1  0
M  CHG  3   9  -1  16   1  18  -1
M  END
>  <UniqueID>  (1) 
1

>  <SMILES>  (1) 
CC(=O)Nc1ccc([N-]C(=O)c2ccc([N+](=O)[O-])cc2)cc1

>  <Energy>  (1) 
44.19008730823999

>  <Genealogy>  (1) 
CC(=O)Nc1ccc([N-]C(=O)c2ccc([N+](=O)[O-])cc2)cc1 (protonated)
CC(=O)Nc1ccc([N-]C(=O)c2ccc([N+](=O)[O-])cc2)cc1 (3D coordinates assigned)
CC(=O)Nc1ccc([N-]C(=O)c2ccc([N+](=O)[O-])cc2)cc1 (optimized conformer: 44.19008730823999 kcal/mol)

>  <smiles>  (1) 
CC(=O)Nc1ccc(NC(=O)c2ccc([N+](=O)[O-])cc2)cc1

>  <score_type>  (1) 
oracle

>  <origin>  (1) 
adgpu

>  <m_score__min__energy>  (1) 
-9.25

>  <m_primary>  (1) 
energy

$$$$
1:0
     RDKit          3D

 42 45  0  0  0  0  0  0  0  0999 V2000
   -3.5240   24.9050  -29.1000 N   0  0  0  0  0  0  0  0  0  0  0  0
   -2.9140   23.8220  -29.8210 C   0  0  0  0  0  0  0  0  0  0  0  0
   -3.6250   23.1660  -30.8580 C   0  0  0  0  0  0  0  0  0  0  0  0
   -5.0120   23.5430  -31.2120 C   0  0  0  0  0  0  0  0  0  0  0  0
   -5.3160   24.7660  -31.2480 O   0  0  0  0  0  0  0  0  0  0  0  0
   -6.0540   22.5220  -31.4930 C   0  0  0  0  0  0  0  0  0  0  0  0
   -7.2610   22.5270  -30.7680 C   0  0  0  0  0  0  0  0  0  0  0  0
   -8.2500   21.5750  -31.0310 C   0  0  0  0  0  0  0  0  0  0  0  0
   -8.0510   20.6100  -32.0220 C   0  0  0  0  0  0  0  0  0  0  0  0
   -9.2940   19.4170  -32.3490 Cl  0  0  0  0  0  0  0  0  0  0  0  0
   -6.8610   20.6010  -32.7550 C   0  0  0  0  0  0  0  0  0  0  0  0
   -5.8700   21.5510  -32.4960 C   0  0  0  0  0  0  0  0  0  0  0  0
   -3.0330   22.0830  -31.5270 C   0  0  0  0  0  0  0  0  0  0  0  0
   -1.7610   21.6400  -31.1740 C   0  0  0  0  0  0  0  0  0  0  0  0
   -1.0540   22.2810  -30.1600 C   0  0  0  0  0  0  0  0  0  0  0  0
   -1.6040   23.3840  -29.4900 C   0  0  0  0  0  0  0  0  0  0  0  0
   -0.7680   24.0700  -28.4810 C   0  0  0  0  0  0  0  0  0  0  0  0
    0.3110   23.4680  -27.8350 C   0  0  0  0  0  0  0  0  0  0  0  0
    0.9220   24.5710  -26.7240 S   0  0  0  0  0  0  0  0  0  0  0  0
   -0.2130   25.7610  -27.0940 C   0  0  0  0  0  0  0  0  0  0  0  0
   -0.3050   27.0980  -26.4630 C   0  0  0  0  0  0  0  0  0  0  0  0
   -0.3120   28.2690  -27.2460 C   0  0  0  0  0  0  0  0  0  0  0  0
   -0.3990   29.5250  -26.6380 C   0  0  0  0  0  0  0  0  0  0  0  0
   -0.4790   29.6280  -25.2470 C   0  0  0  0  0  0  0  0  0  0  0  0
   -0.4730   28.4740  -24.4620 C   0  0  0  0  0  0  0  0  0  0  0  0
   -0.3860   27.2150  -25.0640 C   0  0  0  0  0  0  0  0  0  0  0  0
   -1.0600   25.3300  -28.0560 N   0  0  0  0  0  0  0  0  0  0  0  0
   -3.0840   25.3030  -28.2420 H   0  0  0  0  0  0  0  0  0  0  0  0
   -4.4410   25.3080  -29.3930 H   0  0  0  0  0  0  0  0  0  0  0  0
   -7.4268   23.2857  -29.9889 H   0  0  0  0  0  0  0  0  0  0  0  0
   -9.1878   21.5854  -30.4562 H   0  0  0  0  0  0  0  0  0  0  0  0
   -6.7044   19.8441  -33.5377 H   0  0  0  0  0  0  0  0  0  0  0  0
   -4.9382   21.5404  -33.0805 H   0  0  0  0  0  0  0  0  0  0  0  0
   -3.5794   21.5794  -32.3381 H   0  0  0  0  0  0  0  0  0  0  0  0
   -1.3138   20.7820  -31.6972 H   0  0  0  0  0  0  0  0  0  0  0  0
   -0.0535   21.9186  -29.8813 H   0  0  0  0  0  0  0  0  0  0  0  0
    0.6936   22.4533  -28.0194 H   0  0  0  0  0  0  0  0  0  0  0  0
   -0.2487   28.1948  -28.3417 H   0  0  0  0  0  0  0  0  0  0  0  0
   -0.4045   30.4346  -27.2566 H   0  0  0  0  0  0  0  0  0  0  0  0
   -0.5466   30.6174  -24.7711 H   0  0  0  0  0  0  0  0  0  0  0  0
   -0.5369   28.5552  -23.3669 H   0  0  0  0  0  0  0  0  0  0  0  0
   -0.3809   26.3099  -24.4390 H   0  0  0  0  0  0  0  0  0  0  0  0
  1  2  1  0
  2  3  2  0
  3  4  1  0
  4  5  2  0
  4  6  1  0
  6  7  2  0
  7  8  1  0
  8  9  2  0
  9 10  1  0
  9 11  1  0
 11 12  2  0
  3 13  1  0
 13 14  2  0
 14 15  1  0
 15 16  2  0
 16 17  1  0
 17 18  2  0
 18 19  1  0
 19 20  1  0
 20 21  1  0
 21 22  2  0
 22 23  1  0
 23 24  2  0
 24 25  1  0
 25 26  2  0
 20 27  2  0
 16  2  1  0
 27 17  1  0
 12  6  1  0
 26 21  1  0
  1 28  1  0
  1 29  1  0
  7 30  1  0
  8 31  1  0
 11 32  1  0
 12 33  1  0
 13 34  1  0
 14 35  1  0
 15 36  1  0
 18 37  1  0
 22 38  1  0
 23 39  1  0
 24 40  1  0
 25 41  1  0
 26 42  1  0
M  END
>  <UniqueID>  (2) 
2

>  <SMILES>  (2) 
Nc1c(C(=O)c2ccc(Cl)cc2)cccc1-c1csc(-c2ccccc2)n1

>  <Energy>  (2) 
93.090567681612

>  <Genealogy>  (2) 
Nc1c(C(=O)c2ccc(Cl)cc2)cccc1-c1csc(-c2ccccc2)n1 (3D coordinates assigned)
Nc1c(C(=O)c2ccc(Cl)cc2)cccc1-c1csc(-c2ccccc2)n1 (optimized conformer: 93.090567681612 kcal/mol)

>  <smiles>  (2) 
Nc1c(C(=O)c2ccc(Cl)cc2)cccc1-c1csc(-c2ccccc2)n1

>  <score_type>  (2) 
oracle

>  <origin>  (2) 
adgpu

>  <m_score__min__energy>  (2) 
-9.4000000000000004

>  <m_primary>  (2) 
energy

$$$$
2:0
     RDKit          3D

 24 24  0  0  0  0  0  0  0  0999 V2000
   -6.3660   17.7250  -32.6420 C   0  0  0  0  0  0  0  0  0  0  0  0
   -7.0900   19.0320  -32.5080 C   0  0  0  0  0  0  0  0  0  0  0  0
   -8.4800   19.0540  -32.3430 C   0  0  0  0  0  0  0  0  0  0  0  0
   -9.1490   20.2660  -32.1700 C   0  0  0  0  0  0  0  0  0  0  0  0
   -8.4410   21.4790  -32.1600 C   0  0  0  0  0  0  0  0  0  0  0  0
   -9.1870   22.7710  -31.9680 C   0  0  0  0  0  0  0  0  0  0  0  0
   -7.0350   21.4640  -32.3110 C   0  0  0  0  0  0  0  0  0  0  0  0
   -6.2800   22.6870  -32.2400 N   0  0  0  0  0  0  0  0  0  0  0  0
   -6.2130   23.5130  -31.0680 C   0  0  0  0  0  0  0  0  0  0  0  0
   -6.4260   22.9620  -29.7640 N   0  0  0  0  0  0  0  0  0  0  0  0
   -5.7410   25.0740  -31.2100 S   0  0  0  0  0  0  0  0  0  0  0  0
   -6.3710   20.2350  -32.4670 C   0  0  0  0  0  0  0  0  0  0  0  0
   -6.1442   17.3245  -31.6418 H   0  0  0  0  0  0  0  0  0  0  0  0
   -6.9971   17.0108  -33.1912 H   0  0  0  0  0  0  0  0  0  0  0  0
   -5.4258   17.8813  -33.1912 H   0  0  0  0  0  0  0  0  0  0  0  0
   -9.0472   18.1115  -32.3498 H   0  0  0  0  0  0  0  0  0  0  0  0
  -10.2413   20.2717  -32.0402 H   0  0  0  0  0  0  0  0  0  0  0  0
   -9.3027   22.9713  -30.8926 H   0  0  0  0  0  0  0  0  0  0  0  0
   -8.6241   23.5924  -32.4355 H   0  0  0  0  0  0  0  0  0  0  0  0
  -10.1797   22.6942  -32.4355 H   0  0  0  0  0  0  0  0  0  0  0  0
   -5.7620   23.0010  -33.0910 H   0  0  0  0  0  0  0  0  0  0  0  0
   -6.5690   21.9360  -29.6290 H   0  0  0  0  0  0  0  0  0  0  0  0
   -6.3840   23.5710  -28.9180 H   0  0  0  0  0  0  0  0  0  0  0  0
   -5.2749   20.2168  -32.5579 H   0  0  0  0  0  0  0  0  0  0  0  0
  1  2  1  0
  2  3  2  0
  3  4  1  0
  4  5  2  0
  5  6  1  0
  5  7  1  0
  7  8  1  0
  8  9  1  0
  9 10  1  0
  9 11  2  0
  7 12  2  0
 12  2  1  0
  1 13  1  0
  1 14  1  0
  1 15  1  0
  3 16  1  0
  4 17  1  0
  6 18  1  0
  6 19  1  0
  6 20  1  0
  8 21  1  0
 10 22  1  0
 10 23  1  0
 12 24  1  0
M  END
>  <UniqueID>  (3) 
3

>  <SMILES>  (3) 
Cc1ccc(C)c(NC(N)=S)c1

>  <Energy>  (3) 
24.268141761994904

>  <Genealogy>  (3) 
Cc1ccc(C)c(NC(N)=S)c1 (3D coordinates assigned)
Cc1ccc(C)c(NC(N)=S)c1 (optimized conformer: 24.268141761994904 kcal/mol)

>  <smiles>  (3) 
Cc1ccc(C)c(NC(N)=S)c1

>  <score_type>  (3) 
oracle

>  <origin>  (3) 
adgpu

>  <m_score__min__energy>  (3) 
-5.8899999999999997

>  <m_primary>  (3) 
energy

$$$$
3:0
     RDKit          3D

 51 54  0  0  0  0  0  0  0  0999 V2000
   -0.5781   18.8416  -35.0150 H   0  0  0  0  0  0  0  0  0  0  0  0
   -1.1920   19.5030  -34.3860 C   0  0  0  0  0  0  0  0  0  0  0  0
   -2.4630   19.1470  -34.0670 N   0  0  0  0  0  0  0  0  0  0  0  0
   -3.2590   19.9300  -33.2870 C   0  0  0  0  0  0  0  0  0  0  0  0
   -4.5900   19.4910  -32.9770 N   0  0  0  0  0  0  0  0  0  0  0  0
   -5.0850   19.5320  -31.5970 C   0  0  0  0  0  0  0  0  0  0  0  0
   -5.0431   18.5194  -31.1693 H   0  0  0  0  0  0  0  0  0  0  0  0
   -4.4527   20.2208  -31.0176 H   0  0  0  0  0  0  0  0  0  0  0  0
   -6.5410   20.0410  -31.5480 C   0  0  0  0  0  0  0  0  0  0  0  0
   -7.1092   19.4150  -30.8442 H   0  0  0  0  0  0  0  0  0  0  0  0
   -6.5148   21.0928  -31.2270 H   0  0  0  0  0  0  0  0  0  0  0  0
   -7.2080   19.9930  -32.8700 N   0  0  0  0  0  0  0  0  0  0  0  0
   -8.6650   20.1090  -32.7130 C   0  0  0  0  0  0  0  0  0  0  0  0
   -8.9180   20.1291  -31.6427 H   0  0  0  0  0  0  0  0  0  0  0  0
   -9.0123   21.0376  -33.1894 H   0  0  0  0  0  0  0  0  0  0  0  0
   -9.1549   19.2470  -33.1894 H   0  0  0  0  0  0  0  0  0  0  0  0
   -6.8600   18.7610  -33.5990 C   0  0  0  0  0  0  0  0  0  0  0  0
   -7.0247   17.8891  -32.9489 H   0  0  0  0  0  0  0  0  0  0  0  0
   -7.4919   18.6688  -34.4947 H   0  0  0  0  0  0  0  0  0  0  0  0
   -5.3850   18.8230  -34.0110 C   0  0  0  0  0  0  0  0  0  0  0  0
   -5.0061   17.8003  -34.1544 H   0  0  0  0  0  0  0  0  0  0  0  0
   -5.3014   19.3937  -34.9476 H   0  0  0  0  0  0  0  0  0  0  0  0
   -2.7690   21.1640  -32.8060 C   0  0  0  0  0  0  0  0  0  0  0  0
   -3.6310   22.0910  -32.0370 C   0  0  0  0  0  0  0  0  0  0  0  0
   -4.7370   22.6650  -32.6850 C   0  0  0  0  0  0  0  0  0  0  0  0
   -4.9339   22.4270  -33.7407 H   0  0  0  0  0  0  0  0  0  0  0  0
   -5.5860   23.5320  -32.0040 C   0  0  0  0  0  0  0  0  0  0  0  0
   -6.4621   23.9569  -32.5158 H   0  0  0  0  0  0  0  0  0  0  0  0
   -5.3290   23.8630  -30.6760 C   0  0  0  0  0  0  0  0  0  0  0  0
   -6.0070   24.5461  -30.1435 H   0  0  0  0  0  0  0  0  0  0  0  0
   -4.2110   23.3320  -30.0100 C   0  0  0  0  0  0  0  0  0  0  0  0
   -3.9530   23.6600  -28.6320 N   0  0  0  0  0  0  0  0  0  0  0  0
   -3.0520   24.4840  -28.1810 C   0  0  0  0  0  0  0  0  0  0  0  0
   -2.1600   25.0860  -29.0210 N   0  0  0  0  0  0  0  0  0  0  0  0
   -1.1980   25.9310  -28.5630 C   0  0  0  0  0  0  0  0  0  0  0  0
   -0.4991   26.4029  -29.2693 H   0  0  0  0  0  0  0  0  0  0  0  0
   -1.0970   26.2000  -27.1960 C   0  0  0  0  0  0  0  0  0  0  0  0
   -0.3234   26.8854  -26.8193 H   0  0  0  0  0  0  0  0  0  0  0  0
   -1.9890   25.5890  -26.3140 C   0  0  0  0  0  0  0  0  0  0  0  0
   -1.9197   25.7883  -25.2344 H   0  0  0  0  0  0  0  0  0  0  0  0
   -2.9700   24.7240  -26.8040 C   0  0  0  0  0  0  0  0  0  0  0  0
   -3.6728   24.2350  -26.1134 H   0  0  0  0  0  0  0  0  0  0  0  0
   -3.3810   22.3970  -30.6740 C   0  0  0  0  0  0  0  0  0  0  0  0
   -2.2130   21.7780  -29.9420 C   0  0  0  0  0  0  0  0  0  0  0  0
   -2.3735   21.8631  -28.8571 H   0  0  0  0  0  0  0  0  0  0  0  0
   -2.1282   20.7166  -30.2180 H   0  0  0  0  0  0  0  0  0  0  0  0
   -1.2870   22.3037  -30.2180 H   0  0  0  0  0  0  0  0  0  0  0  0
   -1.4570   21.5410  -33.1300 C   0  0  0  0  0  0  0  0  0  0  0  0
   -1.0538   22.4962  -32.7626 H   0  0  0  0  0  0  0  0  0  0  0  0
   -0.6630   20.7070  -33.9170 C   0  0  0  0  0  0  0  0  0  0  0  0
    0.3692   20.9948  -34.1656 H   0  0  0  0  0  0  0  0  0  0  0  0
  1  2  1  0
  2  3  2  0
  3  4  1  0
  4  5  1  0
  5  6  1  0
  6  7  1  0
  6  8  1  0
  6  9  1  0
  9 10  1  0
  9 11  1  0
  9 12  1  0
 12 13  1  0
 13 14  1  0
 13 15  1  0
 13 16  1  0
 12 17  1  0
 17 18  1  0
 17 19  1  0
 17 20  1  0
 20 21  1  0
 20 22  1  0
  4 23  2  0
 23 24  1  0
 24 25  2  0
 25 26  1  0
 25 27  1  0
 27 28  1  0
 27 29  2  0
 29 30  1  0
 29 31  1  0
 31 32  1  0
 32 33  2  0
 33 34  1  0
 34 35  1  0
 35 36  1  0
 35 37  2  0
 37 38  1  0
 37 39  1  0
 39 40  1  0
 39 41  2  0
 41 42  1  0
 31 43  2  0
 43 44  1  0
 44 45  1  0
 44 46  1  0
 44 47  1  0
 23 48  1  0
 48 49  1  0
 48 50  2  0
 50 51  1  0
 50  2  1  0
 20  5  1  0
 43 24  1  0
 41 33  1  0
M  CHG  1  34  -1
M  END
>  <UniqueID>  (4) 
4

>  <SMILES>  (4) 
Cc1c(/N=c2/cccc[n-]2)cccc1-c1cccnc1N1CCN(C)CC1

>  <Energy>  (4) 
77.71936552749246

>  <Genealogy>  (4) 
Cc1c(N=c2cccc[n-]2)cccc1-c1cccnc1N1CCN(C)CC1 (protonated)
Cc1c(/N=c2/cccc[n-]2)cccc1-c1cccnc1N1CCN(C)CC1 (cis-trans isomerization)
Cc1c(/N=c2/cccc[n-]2)cccc1-c1cccnc1N1CCN(C)CC1 (3D coordinates assigned)
Cc1c(/N=c2/cccc[n-]2)cccc1-c1cccnc1N1CCN(C)CC1 (nonaromatic ring conformer: 77.71936552749246 kcal/mol)

>  <smiles>  (4) 
Cc1c(N=c2cccc[nH]2)cccc1-c1cccnc1N1CCN(C)CC1

>  <score_type>  (4) 
oracle

>  <origin>  (4) 
adgpu

>  <m_score__min__energy>  (4) 
-9.0800000000000001

>  <m_primary>  (4) 
energy

$$$$
4:0
     RDKit          3D

 30 31  0  0  0  0  0  0  0  0999 V2000
   -3.8680   22.2860  -28.6030 C   0  0  0  0  0  0  0  0  0  0  0  0
   -3.8760   23.7440  -28.7280 N   0  0  0  0  0  0  0  0  0  0  0  0
   -2.9500   24.5480  -27.9640 C   0  0  0  0  0  0  0  0  0  0  0  0
   -3.2460   24.9210  -26.6370 C   0  0  0  0  0  0  0  0  0  0  0  0
   -2.3520   25.7050  -25.9040 C   0  0  0  0  0  0  0  0  0  0  0  0
   -1.1550   26.1310  -26.4820 C   0  0  0  0  0  0  0  0  0  0  0  0
   -0.8510   25.7750  -27.7980 C   0  0  0  0  0  0  0  0  0  0  0  0
   -1.7420   24.9910  -28.5370 C   0  0  0  0  0  0  0  0  0  0  0  0
   -5.0120   24.4890  -29.8200 S   0  0  0  0  0  0  0  0  0  0  0  0
   -4.2510   25.2770  -30.8510 O   0  0  0  0  0  0  0  0  0  0  0  0
   -5.9040   25.4300  -29.0600 O   0  0  0  0  0  0  0  0  0  0  0  0
   -5.9990   23.2680  -30.6160 C   0  0  0  0  0  0  0  0  0  0  0  0
   -5.5350   22.6470  -31.7840 C   0  0  0  0  0  0  0  0  0  0  0  0
   -6.3130   21.6750  -32.4210 C   0  0  0  0  0  0  0  0  0  0  0  0
   -7.5580   21.3170  -31.8940 C   0  0  0  0  0  0  0  0  0  0  0  0
   -8.5320   20.0970  -32.6920 Cl  0  0  0  0  0  0  0  0  0  0  0  0
   -8.0260   21.9360  -30.7300 C   0  0  0  0  0  0  0  0  0  0  0  0
   -7.2510   22.9100  -30.0920 C   0  0  0  0  0  0  0  0  0  0  0  0
   -3.8665   22.0093  -27.5384 H   0  0  0  0  0  0  0  0  0  0  0  0
   -4.7639   21.8715  -29.0883 H   0  0  0  0  0  0  0  0  0  0  0  0
   -2.9676   21.8813  -29.0883 H   0  0  0  0  0  0  0  0  0  0  0  0
   -4.1886   24.5920  -26.1751 H   0  0  0  0  0  0  0  0  0  0  0  0
   -2.5920   25.9875  -24.8683 H   0  0  0  0  0  0  0  0  0  0  0  0
   -0.4518   26.7465  -25.9017 H   0  0  0  0  0  0  0  0  0  0  0  0
    0.0915   26.1122  -28.2540 H   0  0  0  0  0  0  0  0  0  0  0  0
   -1.4977   24.7180  -29.5742 H   0  0  0  0  0  0  0  0  0  0  0  0
   -4.5558   22.9251  -32.2008 H   0  0  0  0  0  0  0  0  0  0  0  0
   -5.9451   21.1913  -33.3379 H   0  0  0  0  0  0  0  0  0  0  0  0
   -9.0057   21.6561  -30.3156 H   0  0  0  0  0  0  0  0  0  0  0  0
   -7.6232   23.3962  -29.1782 H   0  0  0  0  0  0  0  0  0  0  0  0
  1  2  1  0
  2  3  1  0
  3  4  2  0
  4  5  1  0
  5  6  2  0
  6  7  1  0
  7  8  2  0
  2  9  1  0
  9 10  2  0
  9 11  2  0
  9 12  1  0
 12 13  2  0
 13 14  1  0
 14 15  2  0
 15 16  1  0
 15 17  1  0
 17 18  2  0
  8  3  1  0
 18 12  1  0
  1 19  1  0
  1 20  1  0
  1 21  1  0
  4 22  1  0
  5 23  1  0
  6 24  1  0
  7 25  1  0
  8 26  1  0
 13 27  1  0
 14 28  1  0
 17 29  1  0
 18 30  1  0
M  END
>  <UniqueID>  (5) 
5

>  <SMILES>  (5) 
CN(c1ccccc1)S(=O)(=O)c1ccc(Cl)cc1

>  <Energy>  (5) 
34.60806712849343

>  <Genealogy>  (5) 
CN(c1ccccc1)S(=O)(=O)c1ccc(Cl)cc1 (3D coordinates assigned)
CN(c1ccccc1)S(=O)(=O)c1ccc(Cl)cc1 (optimized conformer: 34.60806712849343 kcal/mol)

>  <smiles>  (5) 
CN(c1ccccc1)S(=O)(=O)c1ccc(Cl)cc1

>  <score_type>  (5) 
oracle

>  <origin>  (5) 
adgpu

>  <m_score__min__energy>  (5) 
-7.71

>  <m_primary>  (5) 
energy

$$$$
5:0
     RDKit          3D

 30 30  0  0  0  0  0  0  0  0999 V2000
   -3.1470   25.3660  -31.5920 H   0  0  0  0  0  0  0  0  0  0  0  0
   -3.7680   25.2950  -30.7940 O   0  0  0  0  0  0  0  0  0  0  0  0
   -4.9280   24.5240  -30.8370 C   0  0  0  0  0  0  0  0  0  0  0  0
   -6.0720   24.9290  -30.1370 C   0  0  0  0  0  0  0  0  0  0  0  0
   -6.0555   25.8609  -29.5528 H   0  0  0  0  0  0  0  0  0  0  0  0
   -7.2320   24.1550  -30.1780 C   0  0  0  0  0  0  0  0  0  0  0  0
   -8.1319   24.4884  -29.6404 H   0  0  0  0  0  0  0  0  0  0  0  0
   -7.2560   22.9530  -30.9020 C   0  0  0  0  0  0  0  0  0  0  0  0
   -8.4870   22.1410  -30.9900 C   0  0  0  0  0  0  0  0  0  0  0  0
   -9.4317   22.6207  -30.6944 H   0  0  0  0  0  0  0  0  0  0  0  0
   -8.5450   20.8640  -31.4020 C   0  0  0  0  0  0  0  0  0  0  0  0
   -9.5019   20.3358  -31.2780 H   0  0  0  0  0  0  0  0  0  0  0  0
   -7.4300   20.1130  -32.0070 C   0  0  0  0  0  0  0  0  0  0  0  0
   -6.7000   19.4040  -31.2620 O   0  0  0  0  0  0  0  0  0  0  0  0
   -7.2130   20.1390  -33.3900 O   0  0  0  0  0  0  0  0  0  0  0  0
   -6.1110   19.5000  -34.0280 C   0  0  0  0  0  0  0  0  0  0  0  0
   -5.1749   19.8492  -33.5678 H   0  0  0  0  0  0  0  0  0  0  0  0
   -6.1264   19.7524  -35.0985 H   0  0  0  0  0  0  0  0  0  0  0  0
   -6.2080   17.9850  -33.8790 C   0  0  0  0  0  0  0  0  0  0  0  0
   -6.2248   17.7219  -32.8111 H   0  0  0  0  0  0  0  0  0  0  0  0
   -7.1309   17.6277  -34.3593 H   0  0  0  0  0  0  0  0  0  0  0  0
   -5.3382   17.5129  -34.3593 H   0  0  0  0  0  0  0  0  0  0  0  0
   -6.1210   22.5640  -31.6270 C   0  0  0  0  0  0  0  0  0  0  0  0
   -6.1476   21.6439  -32.2292 H   0  0  0  0  0  0  0  0  0  0  0  0
   -4.9470   23.3410  -31.5910 C   0  0  0  0  0  0  0  0  0  0  0  0
   -3.7850   22.9750  -32.2880 O   0  0  0  0  0  0  0  0  0  0  0  0
   -3.6170   21.7450  -32.9850 C   0  0  0  0  0  0  0  0  0  0  0  0
   -3.5050   20.9252  -32.2602 H   0  0  0  0  0  0  0  0  0  0  0  0
   -4.4980   21.5582  -33.6167 H   0  0  0  0  0  0  0  0  0  0  0  0
   -2.7182   21.8013  -33.6167 H   0  0  0  0  0  0  0  0  0  0  0  0
  1  2  1  0
  2  3  1  0
  3  4  2  0
  4  5  1  0
  4  6  1  0
  6  7  1  0
  6  8  2  0
  8  9  1  0
  9 10  1  0
  9 11  2  0
 11 12  1  0
 11 13  1  0
 13 14  2  0
 13 15  1  0
 15 16  1  0
 16 17  1  0
 16 18  1  0
 16 19  1  0
 19 20  1  0
 19 21  1  0
 19 22  1  0
  8 23  1  0
 23 24  1  0
 23 25  2  0
 25 26  1  0
 26 27  1  0
 27 28  1  0
 27 29  1  0
 27 30  1  0
 25  3  1  0
M  END
>  <UniqueID>  (6) 
6

>  <SMILES>  (6) 
CCOC(=O)/C=C\c1ccc(O)c(OC)c1

>  <Energy>  (6) 
29.752874669439546

>  <Genealogy>  (6) 
CCOC(=O)/C=C\c1ccc(O)c(OC)c1 (cis-trans isomerization)
CCOC(=O)/C=C\c1ccc(O)c(OC)c1 (3D coordinates assigned)
CCOC(=O)/C=C\c1ccc(O)c(OC)c1 (optimized conformer: 29.752874669439546 kcal/mol)

>  <smiles>  (6) 
CCOC(=O)C=Cc1ccc(O)c(OC)c1

>  <score_type>  (6) 
oracle

>  <origin>  (6) 
adgpu

>  <m_score__min__energy>  (6) 
-6.71

>  <m_primary>  (6) 
energy

$$$$
6:0
     RDKit          3D

 41 42  0  0  0  0  0  0  0  0999 V2000
   -1.2060   26.2940  -26.6930 C   0  0  0  0  0  0  0  0  0  0  0  0
   -0.8670   26.6240  -28.1370 C   0  0  0  0  0  0  0  0  0  0  0  0
   -1.4880   25.6730  -28.9970 O   0  0  0  0  0  0  0  0  0  0  0  0
   -1.3990   24.2790  -28.8390 C   0  0  0  0  0  0  0  0  0  0  0  0
   -0.1620   23.6340  -28.6400 C   0  0  0  0  0  0  0  0  0  0  0  0
   -0.1040   22.2460  -28.5070 C   0  0  0  0  0  0  0  0  0  0  0  0
   -1.2720   21.4860  -28.5630 C   0  0  0  0  0  0  0  0  0  0  0  0
   -2.5040   22.1130  -28.7540 C   0  0  0  0  0  0  0  0  0  0  0  0
   -2.5790   23.5080  -28.9020 C   0  0  0  0  0  0  0  0  0  0  0  0
   -3.9210   24.1630  -29.1360 C   0  0  0  0  0  0  0  0  0  0  0  0
   -3.8700   25.1450  -30.2310 N   0  0  0  0  0  0  0  0  0  0  0  0
   -5.1970   25.4310  -30.8040 C   0  0  0  0  0  0  0  0  0  0  0  0
   -5.9010   24.1460  -31.1500 C   0  0  0  0  0  0  0  0  0  0  0  0
   -5.3020   23.2080  -32.0070 C   0  0  0  0  0  0  0  0  0  0  0  0
   -5.9930   22.0530  -32.3810 C   0  0  0  0  0  0  0  0  0  0  0  0
   -7.2860   21.8220  -31.8980 C   0  0  0  0  0  0  0  0  0  0  0  0
   -8.1830   20.3510  -32.3970 S   0  0  0  0  0  0  0  0  0  0  0  0
   -6.8400   19.7510  -33.4690 C   0  0  0  0  0  0  0  0  0  0  0  0
   -7.8780   22.7390  -31.0230 C   0  0  0  0  0  0  0  0  0  0  0  0
   -7.1890   23.8950  -30.6490 C   0  0  0  0  0  0  0  0  0  0  0  0
   -0.5816   26.9018  -26.0217 H   0  0  0  0  0  0  0  0  0  0  0  0
   -2.2674   26.5142  -26.5060 H   0  0  0  0  0  0  0  0  0  0  0  0
   -1.0144   25.2271  -26.5060 H   0  0  0  0  0  0  0  0  0  0  0  0
   -1.2337   27.6324  -28.3790 H   0  0  0  0  0  0  0  0  0  0  0  0
    0.2236   26.5888  -28.2761 H   0  0  0  0  0  0  0  0  0  0  0  0
    0.7627   24.2276  -28.5892 H   0  0  0  0  0  0  0  0  0  0  0  0
    0.8662   21.7497  -28.3575 H   0  0  0  0  0  0  0  0  0  0  0  0
   -1.2221   20.3923  -28.4566 H   0  0  0  0  0  0  0  0  0  0  0  0
   -3.4235   21.5103  -28.7889 H   0  0  0  0  0  0  0  0  0  0  0  0
   -4.6566   23.3855  -29.3898 H   0  0  0  0  0  0  0  0  0  0  0  0
   -4.2059   24.6938  -28.2156 H   0  0  0  0  0  0  0  0  0  0  0  0
   -3.5010   26.0370  -29.8260 H   0  0  0  0  0  0  0  0  0  0  0  0
   -5.7975   25.9882  -30.0699 H   0  0  0  0  0  0  0  0  0  0  0  0
   -5.0721   26.0296  -31.7183 H   0  0  0  0  0  0  0  0  0  0  0  0
   -4.2842   23.3838  -32.3853 H   0  0  0  0  0  0  0  0  0  0  0  0
   -5.5203   21.3243  -33.0559 H   0  0  0  0  0  0  0  0  0  0  0  0
   -6.0118   19.3810  -32.8468 H   0  0  0  0  0  0  0  0  0  0  0  0
   -7.2147   18.9347  -34.1040 H   0  0  0  0  0  0  0  0  0  0  0  0
   -6.4819   20.5747  -34.1040 H   0  0  0  0  0  0  0  0  0  0  0  0
   -8.8874   22.5494  -30.6290 H   0  0  0  0  0  0  0  0  0  0  0  0
   -7.6573   24.6122  -29.9588 H   0  0  0  0  0  0  0  0  0  0  0  0
  1  2  1  0
  2  3  1  0
  3  4  1  0
  4  5  2  0
  5  6  1  0
  6  7  2  0
  7  8  1  0
  8  9  2  0
  9 10  1  0
 10 11  1  0
 11 12  1  0
 12 13  1  0
 13 14  2  0
 14 15  1  0
 15 16  2  0
 16 17  1  0
 17 18  1  0
 16 19  1  0
 19 20  2  0
  9  4  1  0
 20 13  1  0
  1 21  1  0
  1 22  1  0
  1 23  1  0
  2 24  1  0
  2 25  1  0
  5 26  1  0
  6 27  1  0
  7 28  1  0
  8 29  1  0
 10 30  1  0
 10 31  1  0
 11 32  1  0
 12 33  1  0
 12 34  1  0
 14 35  1  0
 15 36  1  0
 18 37  1  0
 18 38  1  0
 18 39  1  0
 19 40  1  0
 20 41  1  0
M  END
>  <UniqueID>  (7) 
7

>  <SMILES>  (7) 
CCOc1ccccc1CNCc1ccc(SC)cc1

>  <Energy>  (7) 
27.88264020953572

>  <Genealogy>  (7) 
CCOc1ccccc1CNCc1ccc(SC)cc1 (3D coordinates assigned)
CCOc1ccccc1CNCc1ccc(SC)cc1 (optimized conformer: 27.88264020953572 kcal/mol)

>  <smiles>  (7) 
CCOc1ccccc1CNCc1ccc(SC)cc1

>  <score_type>  (7) 
oracle

>  <origin>  (7) 
adgpu

>  <m_score__min__energy>  (7) 
-8.3100000000000005

>  <m_primary>  (7) 
energy

$$$$
7:0
     RDKit          3D

 30 32  0  0  0  0  0  0  0  0999 V2000
   -3.0630   25.2980  -29.7230 O   0  0  0  0  0  0  0  0  0  0  0  0
   -2.6310   23.9830  -29.5800 C   0  0  0  0  0  0  0  0  0  0  0  0
   -3.2680   22.8660  -30.1020 C   0  0  0  0  0  0  0  0  0  0  0  0
   -4.5250   22.8200  -30.8870 C   0  0  0  0  0  0  0  0  0  0  0  0
   -5.4400   23.8880  -30.8510 C   0  0  0  0  0  0  0  0  0  0  0  0
   -6.6260   23.8310  -31.5900 C   0  0  0  0  0  0  0  0  0  0  0  0
   -6.9120   22.7080  -32.3700 C   0  0  0  0  0  0  0  0  0  0  0  0
   -6.0160   21.6370  -32.4070 C   0  0  0  0  0  0  0  0  0  0  0  0
   -4.8300   21.6890  -31.6680 C   0  0  0  0  0  0  0  0  0  0  0  0
   -2.4760   21.7800  -29.7610 C   0  0  0  0  0  0  0  0  0  0  0  0
   -1.4090   22.2900  -29.0470 C   0  0  0  0  0  0  0  0  0  0  0  0
   -0.3530   21.5300  -28.5530 O   0  0  0  0  0  0  0  0  0  0  0  0
   -1.5040   23.6320  -28.9240 N   0  0  0  0  0  0  0  0  0  0  0  0
   -0.5770   24.5280  -28.2840 C   0  0  0  0  0  0  0  0  0  0  0  0
   -0.9960   25.7710  -27.7790 C   0  0  0  0  0  0  0  0  0  0  0  0
   -0.0660   26.6160  -27.1710 C   0  0  0  0  0  0  0  0  0  0  0  0
    1.2710   26.2260  -27.0750 C   0  0  0  0  0  0  0  0  0  0  0  0
    2.4510   27.2780  -26.3170 Cl  0  0  0  0  0  0  0  0  0  0  0  0
    1.6580   24.9900  -27.5980 C   0  0  0  0  0  0  0  0  0  0  0  0
    0.7380   24.1810  -28.1860 N   0  0  0  0  0  0  0  0  0  0  0  0
   -5.2211   24.7742  -30.2372 H   0  0  0  0  0  0  0  0  0  0  0  0
   -7.3346   24.6717  -31.5570 H   0  0  0  0  0  0  0  0  0  0  0  0
   -7.8427   22.6671  -32.9550 H   0  0  0  0  0  0  0  0  0  0  0  0
   -6.2437   20.7514  -33.0184 H   0  0  0  0  0  0  0  0  0  0  0  0
   -4.1306   20.8405  -31.6971 H   0  0  0  0  0  0  0  0  0  0  0  0
   -2.6604   20.7243  -30.0092 H   0  0  0  0  0  0  0  0  0  0  0  0
    0.4990   21.9700  -28.2280 H   0  0  0  0  0  0  0  0  0  0  0  0
   -2.0496   26.0758  -27.8623 H   0  0  0  0  0  0  0  0  0  0  0  0
   -0.3863   27.5881  -26.7680 H   0  0  0  0  0  0  0  0  0  0  0  0
    2.7088   24.6711  -27.5338 H   0  0  0  0  0  0  0  0  0  0  0  0
  1  2  1  0
  2  3  2  0
  3  4  1  0
  4  5  2  0
  5  6  1  0
  6  7  2  0
  7  8  1  0
  8  9  2  0
  3 10  1  0
 10 11  2  0
 11 12  1  0
 11 13  1  0
 13 14  1  0
 14 15  2  0
 15 16  1  0
 16 17  2  0
 17 18  1  0
 17 19  1  0
 19 20  2  0
 13  2  1  0
 20 14  1  0
  9  4  1  0
  5 21  1  0
  6 22  1  0
  7 23  1  0
  8 24  1  0
  9 25  1  0
 10 26  1  0
 12 27  1  0
 15 28  1  0
 16 29  1  0
 19 30  1  0
M  CHG  1   1  -1
M  END
>  <UniqueID>  (8) 
8

>  <SMILES>  (8) 
[O-]c1c(-c2ccccc2)cc(O)n1-c1ccc(Cl)cn1

>  <Energy>  (8) 
69.31549476512387

>  <Genealogy>  (8) 
[O-]c1c(-c2ccccc2)cc(O)n1-c1ccc(Cl)cn1 (protonated)
[O-]c1c(-c2ccccc2)cc(O)n1-c1ccc(Cl)cn1 (3D coordinates assigned)
[O-]c1c(-c2ccccc2)cc(O)n1-c1ccc(Cl)cn1 (optimized conformer: 69.31549476512387 kcal/mol)

>  <smiles>  (8) 
Oc1cc(-c2ccccc2)c(O)n1-c1ccc(Cl)cn1

>  <score_type>  (8) 
oracle

>  <origin>  (8) 
adgpu

>  <m_score__min__energy>  (8) 
-8.6400000000000006

>  <m_primary>  (8) 
energy

$$$$
8:0
     RDKit          3D

 32 34  0  0  0  0  0  0  0  0999 V2000
   -3.1790   17.7710  -34.6130 C   0  0  0  0  0  0  0  0  0  0  0  0
   -4.5760   17.6480  -34.0920 C   0  0  0  0  0  0  0  0  0  0  0  0
   -5.2390   16.4170  -34.1280 C   0  0  0  0  0  0  0  0  0  0  0  0
   -6.5470   16.3330  -33.6500 C   0  0  0  0  0  0  0  0  0  0  0  0
   -7.1780   17.4680  -33.1390 C   0  0  0  0  0  0  0  0  0  0  0  0
   -6.4840   18.6920  -33.1040 C   0  0  0  0  0  0  0  0  0  0  0  0
   -7.0940   19.9390  -32.5870 C   0  0  0  0  0  0  0  0  0  0  0  0
   -8.4850   20.1130  -32.4800 C   0  0  0  0  0  0  0  0  0  0  0  0
   -8.9910   21.3090  -31.9650 C   0  0  0  0  0  0  0  0  0  0  0  0
  -10.2350   21.4720  -31.8570 O   0  0  0  0  0  0  0  0  0  0  0  0
   -8.1170   22.3210  -31.5630 C   0  0  0  0  0  0  0  0  0  0  0  0
   -6.7310   22.1240  -31.6760 C   0  0  0  0  0  0  0  0  0  0  0  0
   -5.7550   23.1600  -31.2490 C   0  0  0  0  0  0  0  0  0  0  0  0
   -6.1220   24.5130  -31.1260 C   0  0  0  0  0  0  0  0  0  0  0  0
   -5.1700   25.4570  -30.7300 C   0  0  0  0  0  0  0  0  0  0  0  0
   -3.8930   25.0710  -30.4700 N   0  0  0  0  0  0  0  0  0  0  0  0
   -3.5030   23.7750  -30.5880 C   0  0  0  0  0  0  0  0  0  0  0  0
   -4.4220   22.7990  -30.9830 C   0  0  0  0  0  0  0  0  0  0  0  0
   -6.2700   20.9420  -32.1730 N   0  0  0  0  0  0  0  0  0  0  0  0
   -5.2110   18.7420  -33.5910 N   0  0  0  0  0  0  0  0  0  0  0  0
   -2.4768   17.8328  -33.7685 H   0  0  0  0  0  0  0  0  0  0  0  0
   -2.9377   16.8906  -35.2268 H   0  0  0  0  0  0  0  0  0  0  0  0
   -3.0953   18.6800  -35.2268 H   0  0  0  0  0  0  0  0  0  0  0  0
   -4.7348   15.5252  -34.5286 H   0  0  0  0  0  0  0  0  0  0  0  0
   -7.0811   15.3717  -33.6759 H   0  0  0  0  0  0  0  0  0  0  0  0
   -8.2110   17.4064  -32.7660 H   0  0  0  0  0  0  0  0  0  0  0  0
   -9.1697   19.3135  -32.7994 H   0  0  0  0  0  0  0  0  0  0  0  0
   -8.5112   23.2658  -31.1607 H   0  0  0  0  0  0  0  0  0  0  0  0
   -7.1543   24.8266  -31.3407 H   0  0  0  0  0  0  0  0  0  0  0  0
   -5.4550   26.5146  -30.6286 H   0  0  0  0  0  0  0  0  0  0  0  0
   -2.4618   23.4933  -30.3722 H   0  0  0  0  0  0  0  0  0  0  0  0
   -4.1036   21.7511  -31.0856 H   0  0  0  0  0  0  0  0  0  0  0  0
  1  2  1  0
  2  3  2  0
  3  4  1  0
  4  5  2  0
  5  6  1  0
  6  7  1  0
  7  8  2  0
  8  9  1  0
  9 10  2  0
  9 11  1  0
 11 12  2  0
 12 13  1  0
 13 14  2  0
 14 15  1  0
 15 16  2  0
 16 17  1  0
 17 18  2  0
 12 19  1  0
  6 20  2  0
 20  2  1  0
 19  7  1  0
 18 13  1  0
  1 21  1  0
  1 22  1  0
  1 23  1  0
  3 24  1  0
  4 25  1  0
  5 26  1  0
  8 27  1  0
 11 28  1  0
 14 29  1  0
 15 30  1  0
 17 31  1  0
 18 32  1  0
M  CHG  1  19  -1
M  END
>  <UniqueID>  (9) 
9

>  <SMILES>  (9) 
Cc1cccc(-c2cc(=O)cc(-c3ccncc3)[n-]2)n1

>  <Energy>  (9) 
42.701056818805256

>  <Genealogy>  (9) 
Cc1cccc(-c2cc(=O)cc(-c3ccncc3)[n-]2)n1 (protonated)
Cc1cccc(-c2cc(=O)cc(-c3ccncc3)[n-]2)n1 (3D coordinates assigned)
Cc1cccc(-c2cc(=O)cc(-c3ccncc3)[n-]2)n1 (optimized conformer: 42.701056818805256 kcal/mol)

>  <smiles>  (9) 
Cc1cccc(-c2cc(=O)cc(-c3ccncc3)[nH]2)n1

>  <score_type>  (9) 
oracle

>  <origin>  (9) 
adgpu

>  <m_score__min__energy>  (9) 
-7.8399999999999999

>  <m_primary>  (9) 
energy

$$$$
9:0
     RDKit          3D

 49 52  0  0  0  0  0  0  0  0999 V2000
    0.0110   20.8170  -27.9020 C   0  0  0  0  0  0  0  0  0  0  0  0
   -1.1710   21.5560  -28.4580 C   0  0  0  0  0  0  0  0  0  0  0  0
   -2.3970   20.9030  -28.6630 C   0  0  0  0  0  0  0  0  0  0  0  0
   -3.4800   21.5980  -29.2090 C   0  0  0  0  0  0  0  0  0  0  0  0
   -3.3500   22.9470  -29.5610 C   0  0  0  0  0  0  0  0  0  0  0  0
   -4.6960   23.7990  -30.3200 S   0  0  0  0  0  0  0  0  0  0  0  0
   -4.2340   25.1300  -30.8460 O   0  0  0  0  0  0  0  0  0  0  0  0
   -5.7560   24.0400  -29.2810 O   0  0  0  0  0  0  0  0  0  0  0  0
   -5.3530   22.8780  -31.6440 N   0  0  0  0  0  0  0  0  0  0  0  0
   -4.5500   22.6670  -32.8560 C   0  0  0  0  0  0  0  0  0  0  0  0
   -4.1280   21.2170  -32.9670 C   0  0  0  0  0  0  0  0  0  0  0  0
   -5.1110   20.3040  -33.3780 C   0  0  0  0  0  0  0  0  0  0  0  0
   -4.8210   18.9440  -33.4600 C   0  0  0  0  0  0  0  0  0  0  0  0
   -5.7160   18.1350  -33.8230 O   0  0  0  0  0  0  0  0  0  0  0  0
   -3.5820   18.4880  -33.1440 N   0  0  0  0  0  0  0  0  0  0  0  0
   -2.5900   19.3320  -32.7400 C   0  0  0  0  0  0  0  0  0  0  0  0
   -1.3300   18.8110  -32.4020 C   0  0  0  0  0  0  0  0  0  0  0  0
   -0.3080   19.6570  -31.9750 C   0  0  0  0  0  0  0  0  0  0  0  0
   -0.5300   21.0280  -31.8810 C   0  0  0  0  0  0  0  0  0  0  0  0
   -1.7750   21.5670  -32.2110 C   0  0  0  0  0  0  0  0  0  0  0  0
   -2.8310   20.7310  -32.6450 C   0  0  0  0  0  0  0  0  0  0  0  0
   -6.7400   22.4970  -31.6210 C   0  0  0  0  0  0  0  0  0  0  0  0
   -7.1140   21.2040  -31.2220 C   0  0  0  0  0  0  0  0  0  0  0  0
   -8.4620   20.8340  -31.2040 C   0  0  0  0  0  0  0  0  0  0  0  0
   -9.4460   21.7530  -31.5780 C   0  0  0  0  0  0  0  0  0  0  0  0
   -9.0830   23.0440  -31.9680 C   0  0  0  0  0  0  0  0  0  0  0  0
   -7.7350   23.4170  -31.9900 C   0  0  0  0  0  0  0  0  0  0  0  0
   -2.1350   23.6080  -29.3270 C   0  0  0  0  0  0  0  0  0  0  0  0
   -1.0500   22.9150  -28.7830 C   0  0  0  0  0  0  0  0  0  0  0  0
   -0.0260   20.8401  -26.8029 H   0  0  0  0  0  0  0  0  0  0  0  0
   -0.0135   19.7731  -28.2478 H   0  0  0  0  0  0  0  0  0  0  0  0
    0.9388   21.2962  -28.2478 H   0  0  0  0  0  0  0  0  0  0  0  0
   -2.5055   19.8421  -28.3933 H   0  0  0  0  0  0  0  0  0  0  0  0
   -4.4394   21.0824  -29.3629 H   0  0  0  0  0  0  0  0  0  0  0  0
   -5.1482   22.9384  -33.7383 H   0  0  0  0  0  0  0  0  0  0  0  0
   -3.6495   23.2962  -32.8001 H   0  0  0  0  0  0  0  0  0  0  0  0
   -6.1174   20.6646  -33.6372 H   0  0  0  0  0  0  0  0  0  0  0  0
   -3.3970   17.4600  -33.2100 H   0  0  0  0  0  0  0  0  0  0  0  0
   -1.1488   17.7285  -32.4748 H   0  0  0  0  0  0  0  0  0  0  0  0
    0.6756   19.2407  -31.7119 H   0  0  0  0  0  0  0  0  0  0  0  0
    0.2807   21.6910  -31.5446 H   0  0  0  0  0  0  0  0  0  0  0  0
   -1.9366   22.6523  -32.1328 H   0  0  0  0  0  0  0  0  0  0  0  0
   -6.3430   20.4789  -30.9222 H   0  0  0  0  0  0  0  0  0  0  0  0
   -8.7485   19.8179  -30.8950 H   0  0  0  0  0  0  0  0  0  0  0  0
  -10.5061   21.4597  -31.5652 H   0  0  0  0  0  0  0  0  0  0  0  0
   -9.8582   23.7685  -32.2583 H   0  0  0  0  0  0  0  0  0  0  0  0
   -7.4532   24.4348  -32.2975 H   0  0  0  0  0  0  0  0  0  0  0  0
   -2.0358   24.6756  -29.5726 H   0  0  0  0  0  0  0  0  0  0  0  0
   -0.0977   23.4373  -28.6091 H   0  0  0  0  0  0  0  0  0  0  0  0
  1  2  1  0
  2  3  2  0
  3  4  1  0
  4  5  2  0
  5  6  1  0
  6  7  2  0
  6  8  2  0
  6  9  1  0
  9 10  1  0
 10 11  1  0
 11 12  2  0
 12 13  1  0
 13 14  2  0
 13 15  1  0
 15 16  1  0
 16 17  2  0
 17 18  1  0
 18 19  2  0
 19 20  1  0
 20 21  2  0
  9 22  1  0
 22 23  2  0
 23 24  1  0
 24 25  2  0
 25 26  1  0
 26 27  2  0
  5 28  1  0
 28 29  2  0
 29  2  1  0
 21 11  1  0
 27 22  1  0
 21 16  1  0
  1 30  1  0
  1 31  1  0
  1 32  1  0
  3 33  1  0
  4 34  1  0
 10 35  1  0
 10 36  1  0
 12 37  1  0
 15 38  1  0
 17 39  1  0
 18 40  1  0
 19 41  1  0
 20 42  1  0
 23 43  1  0
 24 44  1  0
 25 45  1  0
 26 46  1  0
 27 47  1  0
 28 48  1  0
 29 49  1  0
M  END
>  <UniqueID>  (10) 
10

>  <SMILES>  (10) 
Cc1ccc(S(=O)(=O)N(Cc2cc(=O)[nH]c3ccccc23)c2ccccc2)cc1

>  <Energy>  (10) 
60.419056803105576

>  <Genealogy>  (10) 
Cc1ccc(S(=O)(=O)N(Cc2cc(=O)[nH]c3ccccc23)c2ccccc2)cc1 (3D coordinates assigned)
Cc1ccc(S(=O)(=O)N(Cc2cc(=O)[nH]c3ccccc23)c2ccccc2)cc1 (optimized conformer: 60.419056803105576 kcal/mol)

>  <smiles>  (10) 
Cc1ccc(S(=O)(=O)N(Cc2cc(=O)[nH]c3ccccc23)c2ccccc2)cc1

>  <score_type>  (10) 
oracle

>  <origin>  (10) 
adgpu

>  <m_score__min__energy>  (10) 
-10.039999999999999

>  <m_primary>  (10) 
energy

$$$$
10:0
     RDKit          3D

 26 28  0  0  0  0  0  0  0  0999 V2000
   -0.3650   26.0320  -28.4240 H   0  0  0  0  0  0  0  0  0  0  0  0
   -1.2470   25.9650  -28.9820 N   0  0  0  0  0  0  0  0  0  0  0  0
   -2.0050   24.9160  -28.9630 C   0  0  0  0  0  0  0  0  0  0  0  0
   -3.1350   24.8980  -29.7150 N   0  0  0  0  0  0  0  0  0  0  0  0
   -3.9760   23.8280  -29.7430 C   0  0  0  0  0  0  0  0  0  0  0  0
   -5.1840   23.8960  -30.5890 C   0  0  0  0  0  0  0  0  0  0  0  0
   -5.1690   23.6620  -31.9180 N   0  0  0  0  0  0  0  0  0  0  0  0
   -6.4520   23.8230  -32.3000 C   0  0  0  0  0  0  0  0  0  0  0  0
   -6.7978   23.7053  -33.3376 H   0  0  0  0  0  0  0  0  0  0  0  0
   -7.2640   24.1430  -31.2760 N   0  0  0  0  0  0  0  0  0  0  0  0
   -8.2920   24.3180  -31.3150 H   0  0  0  0  0  0  0  0  0  0  0  0
   -6.4750   24.1930  -30.1910 C   0  0  0  0  0  0  0  0  0  0  0  0
   -6.7982   24.4286  -29.1663 H   0  0  0  0  0  0  0  0  0  0  0  0
   -3.6730   22.6950  -28.9680 C   0  0  0  0  0  0  0  0  0  0  0  0
   -4.3444   21.8238  -28.9819 H   0  0  0  0  0  0  0  0  0  0  0  0
   -2.5120   22.6750  -28.1750 C   0  0  0  0  0  0  0  0  0  0  0  0
   -2.1780   21.4840  -27.3510 C   0  0  0  0  0  0  0  0  0  0  0  0
   -1.2330   21.4020  -26.3410 C   0  0  0  0  0  0  0  0  0  0  0  0
   -0.5895   22.2289  -26.0061 H   0  0  0  0  0  0  0  0  0  0  0  0
   -1.2230   20.1870  -25.8450 O   0  0  0  0  0  0  0  0  0  0  0  0
   -2.1150   19.4600  -26.4760 C   0  0  0  0  0  0  0  0  0  0  0  0
   -2.3260   18.3998  -26.2722 H   0  0  0  0  0  0  0  0  0  0  0  0
   -2.7480   20.2250  -27.4330 C   0  0  0  0  0  0  0  0  0  0  0  0
   -3.5431   19.9012  -28.1207 H   0  0  0  0  0  0  0  0  0  0  0  0
   -1.6740   23.8030  -28.1770 C   0  0  0  0  0  0  0  0  0  0  0  0
   -0.7609   23.8128  -27.5637 H   0  0  0  0  0  0  0  0  0  0  0  0
  1  2  1  0
  2  3  2  0
  3  4  1  0
  4  5  1  0
  5  6  1  0
  6  7  1  0
  7  8  2  0
  8  9  1  0
  8 10  1  0
 10 11  1  0
 10 12  1  0
 12 13  1  0
  5 14  2  0
 14 15  1  0
 14 16  1  0
 16 17  1  0
 17 18  2  0
 18 19  1  0
 18 20  1  0
 20 21  1  0
 21 22  1  0
 21 23  2  0
 23 24  1  0
 16 25  2  0
 25 26  1  0
 25  3  1  0
 12  6  2  0
 23 17  1  0
M  CHG  1   4  -1
M  END
>  <UniqueID>  (11) 
11

>  <SMILES>  (11) 
[H]/N=c1\cc(-c2ccoc2)cc(-c2c[nH]cn2)[n-]1

>  <Energy>  (11) 
87.29292836460579

>  <Genealogy>  (11) 
N=c1cc(-c2ccoc2)cc(-c2c[nH]cn2)[n-]1 (protonated)
[H]/N=c1\cc(-c2ccoc2)cc(-c2c[nH]cn2)[n-]1 (cis-trans isomerization)
[H]/N=c1\cc(-c2ccoc2)cc(-c2c[nH]cn2)[n-]1 (3D coordinates assigned)
[H]/N=c1\cc(-c2ccoc2)cc(-c2c[nH]cn2)[n-]1 (optimized conformer: 87.29292836460579 kcal/mol)

>  <smiles>  (11) 
N=c1cc(-c2ccoc2)cc(-c2c[nH]cn2)[nH]1

>  <score_type>  (11) 
oracle

>  <origin>  (11) 
adgpu

>  <m_score__min__energy>  (11) 
-7.6699999999999999

>  <m_primary>  (11) 
energy

$$$$
11:0
     RDKit          3D

 14 14  0  0  0  0  0  0  0  0999 V2000
   -3.8400   25.3010  -30.1080 N   0  0  0  0  0  0  0  0  0  0  0  0
   -4.8280   24.3580  -30.5320 C   0  0  0  0  0  0  0  0  0  0  0  0
   -4.4480   23.2000  -31.2270 C   0  0  0  0  0  0  0  0  0  0  0  0
   -5.4150   22.2790  -31.6410 C   0  0  0  0  0  0  0  0  0  0  0  0
   -6.7670   22.5100  -31.3630 C   0  0  0  0  0  0  0  0  0  0  0  0
   -8.0870   21.2520  -31.9300 Br  0  0  0  0  0  0  0  0  0  0  0  0
   -7.1510   23.6630  -30.6720 C   0  0  0  0  0  0  0  0  0  0  0  0
   -6.1850   24.5850  -30.2560 C   0  0  0  0  0  0  0  0  0  0  0  0
   -3.8070   25.6310  -29.1170 H   0  0  0  0  0  0  0  0  0  0  0  0
   -3.1340   25.6740  -30.7800 H   0  0  0  0  0  0  0  0  0  0  0  0
   -3.3860   23.0161  -31.4469 H   0  0  0  0  0  0  0  0  0  0  0  0
   -5.1129   21.3722  -32.1856 H   0  0  0  0  0  0  0  0  0  0  0  0
   -8.2139   23.8453  -30.4552 H   0  0  0  0  0  0  0  0  0  0  0  0
   -6.4899   25.4905  -29.7110 H   0  0  0  0  0  0  0  0  0  0  0  0
  1  2  1  0
  2  3  2  0
  3  4  1  0
  4  5  2  0
  5  6  1  0
  5  7  1  0
  7  8  2  0
  8  2  1  0
  1  9  1  0
  1 10  1  0
  3 11  1  0
  4 12  1  0
  7 13  1  0
  8 14  1  0
M  END
>  <UniqueID>  (12) 
12

>  <SMILES>  (12) 
Nc1ccc(Br)cc1

>  <Energy>  (12) 
11.394168177317825

>  <Genealogy>  (12) 
Nc1ccc(Br)cc1 (3D coordinates assigned)
Nc1ccc(Br)cc1 (optimized conformer: 11.394168177317825 kcal/mol)

>  <smiles>  (12) 
Nc1ccc(Br)cc1

>  <score_type>  (12) 
oracle

>  <origin>  (12) 
adgpu

>  <m_score__min__energy>  (12) 
-5.25

>  <m_primary>  (12) 
energy

$$$$
12:0
     RDKit          3D

 22 23  0  0  0  0  0  0  0  0999 V2000
   -5.7380   25.6110  -30.4470 Cl  0  0  0  0  0  0  0  0  0  0  0  0
   -5.9660   23.9800  -31.0490 C   0  0  0  0  0  0  0  0  0  0  0  0
   -7.2550   23.4720  -31.2240 C   0  0  0  0  0  0  0  0  0  0  0  0
   -7.4400   22.1710  -31.7030 C   0  0  0  0  0  0  0  0  0  0  0  0
   -6.3310   21.3610  -32.0140 C   0  0  0  0  0  0  0  0  0  0  0  0
   -6.5240   19.9800  -32.5230 C   0  0  0  0  0  0  0  0  0  0  0  0
   -5.8140   19.5270  -33.6510 C   0  0  0  0  0  0  0  0  0  0  0  0
   -5.9970   18.2250  -34.1290 C   0  0  0  0  0  0  0  0  0  0  0  0
   -6.8890   17.3630  -33.4880 C   0  0  0  0  0  0  0  0  0  0  0  0
   -7.6000   17.8000  -32.3680 C   0  0  0  0  0  0  0  0  0  0  0  0
   -7.4210   19.1000  -31.8860 C   0  0  0  0  0  0  0  0  0  0  0  0
   -5.0360   21.8840  -31.8330 C   0  0  0  0  0  0  0  0  0  0  0  0
   -4.8570   23.1850  -31.3540 C   0  0  0  0  0  0  0  0  0  0  0  0
   -8.1278   24.0972  -30.9843 H   0  0  0  0  0  0  0  0  0  0  0  0
   -8.4585   21.7780  -31.8376 H   0  0  0  0  0  0  0  0  0  0  0  0
   -5.1102   20.2017  -34.1603 H   0  0  0  0  0  0  0  0  0  0  0  0
   -5.4375   17.8799  -35.0109 H   0  0  0  0  0  0  0  0  0  0  0  0
   -7.0318   16.3396  -33.8651 H   0  0  0  0  0  0  0  0  0  0  0  0
   -8.3024   17.1197  -31.8641 H   0  0  0  0  0  0  0  0  0  0  0  0
   -7.9842   19.4380  -31.0036 H   0  0  0  0  0  0  0  0  0  0  0  0
   -4.1588   21.2641  -32.0703 H   0  0  0  0  0  0  0  0  0  0  0  0
   -3.8413   23.5843  -31.2167 H   0  0  0  0  0  0  0  0  0  0  0  0
  1  2  1  0
  2  3  2  0
  3  4  1  0
  4  5  2  0
  5  6  1  0
  6  7  2  0
  7  8  1  0
  8  9  2  0
  9 10  1  0
 10 11  2  0
  5 12  1  0
 12 13  2  0
 13  2  1  0
 11  6  1  0
  3 14  1  0
  4 15  1  0
  7 16  1  0
  8 17  1  0
  9 18  1  0
 10 19  1  0
 11 20  1  0
 12 21  1  0
 13 22  1  0
M  END
>  <UniqueID>  (13) 
13

>  <SMILES>  (13) 
Clc1ccc(-c2ccccc2)cc1

>  <Energy>  (13) 
28.018311043662457

>  <Genealogy>  (13) 
Clc1ccc(-c2ccccc2)cc1 (3D coordinates assigned)
Clc1ccc(-c2ccccc2)cc1 (optimized conformer: 28.018311043662457 kcal/mol)

>  <smiles>  (13) 
Clc1ccc(-c2ccccc2)cc1

>  <score_type>  (13) 
oracle

>  <origin>  (13) 
adgpu

>  <m_score__min__energy>  (13) 
-6.3399999999999999

>  <m_primary>  (13) 
energy

$$$$
13:0
     RDKit          3D

 24 25  0  0  0  0  0  0  0  0999 V2000
   -7.3090   25.1820  -30.4680 H   0  0  0  0  0  0  0  0  0  0  0  0
   -6.3780   25.5860  -30.2240 N   0  0  0  0  0  0  0  0  0  0  0  0
   -5.2710   24.9250  -30.3480 C   0  0  0  0  0  0  0  0  0  0  0  0
   -5.1180   23.6310  -30.8180 C   0  0  0  0  0  0  0  0  0  0  0  0
   -6.1430   22.6380  -31.2000 C   0  0  0  0  0  0  0  0  0  0  0  0
   -5.9080   21.7220  -32.2380 C   0  0  0  0  0  0  0  0  0  0  0  0
   -4.9431   21.7307  -32.7661 H   0  0  0  0  0  0  0  0  0  0  0  0
   -6.8920   20.7990  -32.6050 C   0  0  0  0  0  0  0  0  0  0  0  0
   -6.6934   20.0794  -33.4130 H   0  0  0  0  0  0  0  0  0  0  0  0
   -8.1350   20.7860  -31.9460 C   0  0  0  0  0  0  0  0  0  0  0  0
   -9.1540   19.8800  -32.2760 O   0  0  0  0  0  0  0  0  0  0  0  0
   -9.1170   18.4870  -31.9810 C   0  0  0  0  0  0  0  0  0  0  0  0
   -9.1132   18.3431  -30.8905 H   0  0  0  0  0  0  0  0  0  0  0  0
  -10.0025   17.9972  -32.4124 H   0  0  0  0  0  0  0  0  0  0  0  0
   -8.2068   18.0449  -32.4124 H   0  0  0  0  0  0  0  0  0  0  0  0
   -8.3750   21.7120  -30.9240 C   0  0  0  0  0  0  0  0  0  0  0  0
   -9.3451   21.7131  -30.4054 H   0  0  0  0  0  0  0  0  0  0  0  0
   -7.3910   22.6360  -30.5570 C   0  0  0  0  0  0  0  0  0  0  0  0
   -7.5963   23.3655  -29.7597 H   0  0  0  0  0  0  0  0  0  0  0  0
   -3.7440   23.4510  -30.8460 C   0  0  0  0  0  0  0  0  0  0  0  0
   -3.2316   22.5360  -31.1780 H   0  0  0  0  0  0  0  0  0  0  0  0
   -3.1300   24.5690  -30.4040 N   0  0  0  0  0  0  0  0  0  0  0  0
   -4.0630   25.4580  -30.1020 N   0  0  0  0  0  0  0  0  0  0  0  0
   -3.8670   26.4220  -29.7520 H   0  0  0  0  0  0  0  0  0  0  0  0
  1  2  1  0
  2  3  2  0
  3  4  1  0
  4  5  1  0
  5  6  2  0
  6  7  1  0
  6  8  1  0
  8  9  1  0
  8 10  2  0
 10 11  1  0
 11 12  1  0
 12 13  1  0
 12 14  1  0
 12 15  1  0
 10 16  1  0
 16 17  1  0
 16 18  2  0
 18 19  1  0
  4 20  2  0
 20 21  1  0
 20 22  1  0
 22 23  1  0
 23 24  1  0
 23  3  1  0
 18  5  1  0
M  CHG  1  22  -1
M  END
>  <UniqueID>  (14) 
14

>  <SMILES>  (14) 
[H]/N=c1/[nH][n-]cc1-c1ccc(OC)cc1

>  <Energy>  (14) 
60.737620487727106

>  <Genealogy>  (14) 
COc1ccc(-c2c[n-][nH]c2=N)cc1 (protonated)
[H]/N=c1/[nH][n-]cc1-c1ccc(OC)cc1 (cis-trans isomerization)
[H]/N=c1/[nH][n-]cc1-c1ccc(OC)cc1 (3D coordinates assigned)
[H]/N=c1/[nH][n-]cc1-c1ccc(OC)cc1 (optimized conformer: 60.737620487727106 kcal/mol)

>  <smiles>  (14) 
COc1ccc(-c2c[nH][nH]c2=N)cc1

>  <score_type>  (14) 
oracle

>  <origin>  (14) 
adgpu

>  <m_score__min__energy>  (14) 
-7.5499999999999998

>  <m_primary>  (14) 
energy

$$$$
14:0
     RDKit          3D

 29 30  0  0  0  0  0  0  0  0999 V2000
   -6.0620   26.0970  -30.1310 O   0  0  0  0  0  0  0  0  0  0  0  0
   -5.1430   24.9070  -30.1010 S   0  0  0  0  0  0  0  0  0  0  0  0
   -3.8640   25.2700  -30.7990 O   0  0  0  0  0  0  0  0  0  0  0  0
   -4.7900   24.4720  -28.4500 N   0  0  0  0  0  0  0  0  0  0  0  0
   -3.8980   23.3070  -28.3820 C   0  0  0  0  0  0  0  0  0  0  0  0
   -2.4540   23.7340  -28.3430 C   0  0  0  0  0  0  0  0  0  0  0  0
   -2.0810   24.9000  -27.6580 C   0  0  0  0  0  0  0  0  0  0  0  0
   -0.7430   25.2990  -27.6580 C   0  0  0  0  0  0  0  0  0  0  0  0
    0.1900   24.5570  -28.3130 N   0  0  0  0  0  0  0  0  0  0  0  0
   -0.1410   23.4180  -28.9750 C   0  0  0  0  0  0  0  0  0  0  0  0
   -1.4690   22.9820  -28.9990 C   0  0  0  0  0  0  0  0  0  0  0  0
   -5.8750   23.5450  -30.9460 C   0  0  0  0  0  0  0  0  0  0  0  0
   -5.0830   22.6340  -31.6620 C   0  0  0  0  0  0  0  0  0  0  0  0
   -5.6820   21.5830  -32.3630 C   0  0  0  0  0  0  0  0  0  0  0  0
   -7.0720   21.4330  -32.3460 C   0  0  0  0  0  0  0  0  0  0  0  0
   -7.6520   20.4180  -33.0320 F   0  0  0  0  0  0  0  0  0  0  0  0
   -7.8640   22.3320  -31.6260 C   0  0  0  0  0  0  0  0  0  0  0  0
   -7.2670   23.3830  -30.9230 C   0  0  0  0  0  0  0  0  0  0  0  0
   -5.7000   24.1990  -28.0140 H   0  0  0  0  0  0  0  0  0  0  0  0
   -4.1274   22.7309  -27.4734 H   0  0  0  0  0  0  0  0  0  0  0  0
   -4.0571   22.6911  -29.2794 H   0  0  0  0  0  0  0  0  0  0  0  0
   -2.8369   25.4954  -27.1249 H   0  0  0  0  0  0  0  0  0  0  0  0
   -0.4430   26.2147  -27.1275 H   0  0  0  0  0  0  0  0  0  0  0  0
    0.6370   22.8379  -29.4929 H   0  0  0  0  0  0  0  0  0  0  0  0
   -1.7391   22.0563  -29.5283 H   0  0  0  0  0  0  0  0  0  0  0  0
   -3.9889   22.7471  -31.6717 H   0  0  0  0  0  0  0  0  0  0  0  0
   -5.0594   20.8738  -32.9282 H   0  0  0  0  0  0  0  0  0  0  0  0
   -8.9574   22.2126  -31.6124 H   0  0  0  0  0  0  0  0  0  0  0  0
   -7.8915   24.0845  -30.3504 H   0  0  0  0  0  0  0  0  0  0  0  0
  1  2  2  0
  2  3  2  0
  2  4  1  0
  4  5  1  0
  5  6  1  0
  6  7  2  0
  7  8  1  0
  8  9  2  0
  9 10  1  0
 10 11  2  0
  2 12  1  0
 12 13  2  0
 13 14  1  0
 14 15  2  0
 15 16  1  0
 15 17  1  0
 17 18  2  0
 11  6  1  0
 18 12  1  0
  4 19  1  0
  5 20  1  0
  5 21  1  0
  7 22  1  0
  8 23  1  0
 10 24  1  0
 11 25  1  0
 13 26  1  0
 14 27  1  0
 17 28  1  0
 18 29  1  0
M  END
>  <UniqueID>  (15) 
15

>  <SMILES>  (15) 
O=S(=O)(NCc1ccncc1)c1ccc(F)cc1

>  <Energy>  (15) 
26.043774781135863

>  <Genealogy>  (15) 
O=S(=O)(NCc1ccncc1)c1ccc(F)cc1 (3D coordinates assigned)
O=S(=O)(NCc1ccncc1)c1ccc(F)cc1 (optimized conformer: 26.043774781135863 kcal/mol)

>  <smiles>  (15) 
O=S(=O)(NCc1ccncc1)c1ccc(F)cc1

>  <score_type>  (15) 
oracle

>  <origin>  (15) 
adgpu

>  <m_score__min__energy>  (15) 
-7.5199999999999996

>  <m_primary>  (15) 
energy

$$$$
15:0
     RDKit          3D

 18 18  0  0  0  0  0  0  0  0999 V2000
   -6.0340   25.6580  -28.9230 N   0  0  0  0  0  0  0  0  0  0  0  0
   -6.4070   25.3180  -30.2950 C   0  0  0  0  0  0  0  0  0  0  0  0
   -5.6050   24.1390  -30.7900 C   0  0  0  0  0  0  0  0  0  0  0  0
   -6.2680   22.9720  -31.2050 C   0  0  0  0  0  0  0  0  0  0  0  0
   -5.5380   21.8580  -31.6370 C   0  0  0  0  0  0  0  0  0  0  0  0
   -6.3750   20.4090  -32.1620 Cl  0  0  0  0  0  0  0  0  0  0  0  0
   -4.1410   21.9010  -31.6460 C   0  0  0  0  0  0  0  0  0  0  0  0
   -3.4730   23.0510  -31.2200 C   0  0  0  0  0  0  0  0  0  0  0  0
   -4.1960   24.1670  -30.7860 C   0  0  0  0  0  0  0  0  0  0  0  0
   -3.5100   25.2970  -30.3530 O   0  0  0  0  0  0  0  0  0  0  0  0
   -6.4100   24.9410  -28.2600 H   0  0  0  0  0  0  0  0  0  0  0  0
   -4.9910   25.6760  -28.8460 H   0  0  0  0  0  0  0  0  0  0  0  0
   -6.4090   26.6010  -28.6730 H   0  0  0  0  0  0  0  0  0  0  0  0
   -7.4771   25.0652  -30.3261 H   0  0  0  0  0  0  0  0  0  0  0  0
   -6.1999   26.1830  -30.9422 H   0  0  0  0  0  0  0  0  0  0  0  0
   -7.3672   22.9332  -31.1905 H   0  0  0  0  0  0  0  0  0  0  0  0
   -3.5669   21.0277  -31.9891 H   0  0  0  0  0  0  0  0  0  0  0  0
   -2.3734   23.0793  -31.2258 H   0  0  0  0  0  0  0  0  0  0  0  0
  1  2  1  0
  2  3  1  0
  3  4  2  0
  4  5  1  0
  5  6  1  0
  5  7  2  0
  7  8  1  0
  8  9  2  0
  9 10  1  0
  9  3  1  0
  1 11  1  0
  1 12  1  0
  1 13  1  0
  2 14  1  0
  2 15  1  0
  4 16  1  0
  7 17  1  0
  8 18  1  0
M  CHG  2   1   1  10  -1
M  END
>  <UniqueID>  (16) 
16

>  <SMILES>  (16) 
[NH3+]Cc1cc(Cl)ccc1[O-]

>  <Energy>  (16) 
15.284153160347989

>  <Genealogy>  (16) 
[NH3+]Cc1cc(Cl)ccc1[O-] (protonated)
[NH3+]Cc1cc(Cl)ccc1[O-] (3D coordinates assigned)
[NH3+]Cc1cc(Cl)ccc1[O-] (optimized conformer: 15.284153160347989 kcal/mol)

>  <smiles>  (16) 
NCc1cc(Cl)ccc1O

>  <score_type>  (16) 
oracle

>  <origin>  (16) 
adgpu

>  <m_score__min__energy>  (16) 
-7.7999999999999998

>  <m_primary>  (16) 
energy

$$$$
16:0
     RDKit          3D

 25 26  0  0  0  0  0  0  0  0999 V2000
   -5.7630   18.1460  -34.5920 C   0  0  0  0  0  0  0  0  0  0  0  0
   -5.6850   19.4090  -33.7870 C   0  0  0  0  0  0  0  0  0  0  0  0
   -6.8560   20.0340  -33.3390 C   0  0  0  0  0  0  0  0  0  0  0  0
   -6.7840   21.1920  -32.5580 C   0  0  0  0  0  0  0  0  0  0  0  0
   -5.5380   21.7370  -32.1960 C   0  0  0  0  0  0  0  0  0  0  0  0
   -5.4810   22.9340  -31.3920 N   0  0  0  0  0  0  0  0  0  0  0  0
   -6.5030   23.5280  -30.7390 C   0  0  0  0  0  0  0  0  0  0  0  0
   -6.0120   24.6470  -30.1030 C   0  0  0  0  0  0  0  0  0  0  0  0
   -6.7930   25.6670  -29.3420 C   0  0  0  0  0  0  0  0  0  0  0  0
   -4.6730   24.6970  -30.4310 C   0  0  0  0  0  0  0  0  0  0  0  0
   -4.3730   23.6420  -31.2110 N   0  0  0  0  0  0  0  0  0  0  0  0
   -4.3650   21.0960  -32.6400 C   0  0  0  0  0  0  0  0  0  0  0  0
   -4.4400   19.9400  -33.4220 C   0  0  0  0  0  0  0  0  0  0  0  0
   -5.8164   17.2816  -33.9138 H   0  0  0  0  0  0  0  0  0  0  0  0
   -6.6614   18.1704  -35.2263 H   0  0  0  0  0  0  0  0  0  0  0  0
   -4.8685   18.0597  -35.2263 H   0  0  0  0  0  0  0  0  0  0  0  0
   -7.8369   19.6119  -33.6028 H   0  0  0  0  0  0  0  0  0  0  0  0
   -7.7104   21.6816  -32.2234 H   0  0  0  0  0  0  0  0  0  0  0  0
   -7.5460   23.1791  -30.7185 H   0  0  0  0  0  0  0  0  0  0  0  0
   -6.6634   25.4978  -28.2628 H   0  0  0  0  0  0  0  0  0  0  0  0
   -6.4323   26.6733  -29.6013 H   0  0  0  0  0  0  0  0  0  0  0  0
   -7.8586   25.5813  -29.6013 H   0  0  0  0  0  0  0  0  0  0  0  0
   -3.9647   25.4739  -30.1073 H   0  0  0  0  0  0  0  0  0  0  0  0
   -3.3819   21.5086  -32.3691 H   0  0  0  0  0  0  0  0  0  0  0  0
   -3.5160   19.4436  -33.7533 H   0  0  0  0  0  0  0  0  0  0  0  0
  1  2  1  0
  2  3  2  0
  3  4  1  0
  4  5  2  0
  5  6  1  0
  6  7  1  0
  7  8  2  0
  8  9  1  0
  8 10  1  0
 10 11  2  0
  5 12  1  0
 12 13  2  0
 13  2  1  0
 11  6  1  0
  1 14  1  0
  1 15  1  0
  1 16  1  0
  3 17  1  0
  4 18  1  0
  7 19  1  0
  9 20  1  0
  9 21  1  0
  9 22  1  0
 10 23  1  0
 12 24  1  0
 13 25  1  0
M  END
>  <UniqueID>  (17) 
17

>  <SMILES>  (17) 
Cc1ccc(-n2cc(C)cn2)cc1

>  <Energy>  (17) 
55.737371911746465

>  <Genealogy>  (17) 
Cc1ccc(-n2cc(C)cn2)cc1 (3D coordinates assigned)
Cc1ccc(-n2cc(C)cn2)cc1 (optimized conformer: 55.737371911746465 kcal/mol)

>  <smiles>  (17) 
Cc1ccc(-n2cc(C)cn2)cc1

>  <score_type>  (17) 
oracle

>  <origin>  (17) 
adgpu

>  <m_score__min__energy>  (17) 
-5.79

>  <m_primary>  (17) 
energy

$$$$
17:0
     RDKit          3D

 26 27  0  0  0  0  0  0  0  0999 V2000
    2.1630   25.1810  -28.8960 H   0  0  0  0  0  0  0  0  0  0  0  0
    1.8800   24.4590  -28.1960 N   0  0  0  0  0  0  0  0  0  0  0  0
    0.6390   24.1530  -28.0030 C   0  0  0  0  0  0  0  0  0  0  0  0
   -0.3370   24.7700  -28.7180 N   0  0  0  0  0  0  0  0  0  0  0  0
   -1.6480   24.4640  -28.5370 C   0  0  0  0  0  0  0  0  0  0  0  0
   -2.6310   25.1430  -29.3280 N   0  0  0  0  0  0  0  0  0  0  0  0
   -3.4710   24.5420  -30.1160 C   0  0  0  0  0  0  0  0  0  0  0  0
   -4.3940   25.2140  -30.8340 N   0  0  0  0  0  0  0  0  0  0  0  0
   -5.1460   24.4170  -31.5920 N   0  0  0  0  0  0  0  0  0  0  0  0
   -4.8280   23.1080  -31.4740 C   0  0  0  0  0  0  0  0  0  0  0  0
   -5.4850   22.0240  -32.2660 C   0  0  0  0  0  0  0  0  0  0  0  0
   -6.0337   21.3589  -31.5829 H   0  0  0  0  0  0  0  0  0  0  0  0
   -6.1769   22.4818  -32.9883 H   0  0  0  0  0  0  0  0  0  0  0  0
   -4.4440   21.2110  -33.0290 C   0  0  0  0  0  0  0  0  0  0  0  0
   -3.7849   20.6963  -32.3144 H   0  0  0  0  0  0  0  0  0  0  0  0
   -4.9510   20.4674  -33.6614 H   0  0  0  0  0  0  0  0  0  0  0  0
   -3.8454   21.8831  -33.6614 H   0  0  0  0  0  0  0  0  0  0  0  0
   -3.5410   22.8790  -30.4090 S   0  0  0  0  0  0  0  0  0  0  0  0
   -2.0160   23.5130  -27.5590 C   0  0  0  0  0  0  0  0  0  0  0  0
   -3.4580   23.1600  -27.3040 C   0  0  0  0  0  0  0  0  0  0  0  0
   -3.6385   23.1158  -26.2198 H   0  0  0  0  0  0  0  0  0  0  0  0
   -4.1078   23.9256  -27.7530 H   0  0  0  0  0  0  0  0  0  0  0  0
   -3.6807   22.1808  -27.7530 H   0  0  0  0  0  0  0  0  0  0  0  0
   -0.9820   22.8720  -26.8530 C   0  0  0  0  0  0  0  0  0  0  0  0
   -1.2430   21.9850  -25.9970 O   0  0  0  0  0  0  0  0  0  0  0  0
    0.3120   23.2080  -27.0860 N   0  0  0  0  0  0  0  0  0  0  0  0
  1  2  1  0
  2  3  2  0
  3  4  1  0
  4  5  1  0
  5  6  1  0
  6  7  2  3
  7  8  1  0
  8  9  1  0
  9 10  2  0
 10 11  1  0
 11 12  1  0
 11 13  1  0
 11 14  1  0
 14 15  1  0
 14 16  1  0
 14 17  1  0
 10 18  1  0
  5 19  2  0
 19 20  1  0
 20 21  1  0
 20 22  1  0
 20 23  1  0
 19 24  1  0
 24 25  2  0
 24 26  1  0
 26  3  1  0
 18  7  1  0
M  CHG  3   4  -1   8  -1  26  -1
M  END
>  <UniqueID>  (18) 
18

>  <SMILES>  (18) 
[H]/N=c1\[n-]c(N=c2[n-]nc(CC)s2)c(C)c(=O)[n-]1

>  <Energy>  (18) 
66.84093401483167

>  <Genealogy>  (18) 
CCc1n[n-]c(=Nc2[n-]c(=N)[n-]c(=O)c2C)s1 (protonated)
[H]/N=c1\[n-]c(N=c2[n-]nc(CC)s2)c(C)c(=O)[n-]1 (cis-trans isomerization)
[H]/N=c1\[n-]c(N=c2[n-]nc(CC)s2)c(C)c(=O)[n-]1 (3D coordinates assigned)
[H]/N=c1\[n-]c(N=c2[n-]nc(CC)s2)c(C)c(=O)[n-]1 (optimized conformer: 66.84093401483167 kcal/mol)

>  <smiles>  (18) 
CCc1n[nH]c(=Nc2[nH]c(=N)[nH]c(=O)c2C)s1

>  <score_type>  (18) 
oracle

>  <origin>  (18) 
adgpu

>  <m_score__min__energy>  (18) 
-8.9000000000000004

>  <m_primary>  (18) 
energy

$$$$
18:0
     RDKit          3D

 33 35  0  0  0  0  0  0  0  0999 V2000
   -7.5414   15.8447  -34.0413 H   0  0  0  0  0  0  0  0  0  0  0  0
   -6.8570   16.6810  -33.8360 C   0  0  0  0  0  0  0  0  0  0  0  0
   -5.7530   16.8620  -34.6090 N   0  0  0  0  0  0  0  0  0  0  0  0
   -4.8840   17.8840  -34.3870 C   0  0  0  0  0  0  0  0  0  0  0  0
   -4.0027   18.0025  -35.0346 H   0  0  0  0  0  0  0  0  0  0  0  0
   -5.1050   18.7910  -33.3340 C   0  0  0  0  0  0  0  0  0  0  0  0
   -4.1640   19.9100  -33.0790 C   0  0  0  0  0  0  0  0  0  0  0  0
   -2.8290   19.9020  -33.4940 C   0  0  0  0  0  0  0  0  0  0  0  0
   -2.3320   19.0930  -34.0494 H   0  0  0  0  0  0  0  0  0  0  0  0
   -2.1120   21.3430  -32.9980 S   0  0  0  0  0  0  0  0  0  0  0  0
   -3.5170   21.9240  -32.2930 C   0  0  0  0  0  0  0  0  0  0  0  0
   -3.5840   23.0640  -31.6690 N   0  0  0  0  0  0  0  0  0  0  0  0
   -4.7640   23.6580  -31.1070 C   0  0  0  0  0  0  0  0  0  0  0  0
   -6.0450   23.2230  -31.4930 C   0  0  0  0  0  0  0  0  0  0  0  0
   -6.1484   22.3909  -32.2049 H   0  0  0  0  0  0  0  0  0  0  0  0
   -7.1850   23.8410  -30.9780 C   0  0  0  0  0  0  0  0  0  0  0  0
   -8.1835   23.4847  -31.2713 H   0  0  0  0  0  0  0  0  0  0  0  0
   -7.0590   24.9110  -30.0910 C   0  0  0  0  0  0  0  0  0  0  0  0
   -7.9586   25.3914  -29.6786 H   0  0  0  0  0  0  0  0  0  0  0  0
   -5.7920   25.3730  -29.7260 C   0  0  0  0  0  0  0  0  0  0  0  0
   -5.6981   26.2228  -29.0338 H   0  0  0  0  0  0  0  0  0  0  0  0
   -4.6330   24.7560  -30.2400 C   0  0  0  0  0  0  0  0  0  0  0  0
   -3.3430   25.2000  -29.9080 O   0  0  0  0  0  0  0  0  0  0  0  0
   -2.4810   24.5500  -28.9810 C   0  0  0  0  0  0  0  0  0  0  0  0
   -2.7983   24.7893  -27.9553 H   0  0  0  0  0  0  0  0  0  0  0  0
   -2.5299   23.4620  -29.1356 H   0  0  0  0  0  0  0  0  0  0  0  0
   -1.4484   24.8962  -29.1356 H   0  0  0  0  0  0  0  0  0  0  0  0
   -4.5340   21.0370  -32.4050 N   0  0  0  0  0  0  0  0  0  0  0  0
   -5.4740   21.1620  -31.9690 H   0  0  0  0  0  0  0  0  0  0  0  0
   -6.2430   18.6110  -32.5310 C   0  0  0  0  0  0  0  0  0  0  0  0
   -6.4430   19.3040  -31.7005 H   0  0  0  0  0  0  0  0  0  0  0  0
   -7.1210   17.5560  -32.7830 C   0  0  0  0  0  0  0  0  0  0  0  0
   -8.0140   17.4159  -32.1561 H   0  0  0  0  0  0  0  0  0  0  0  0
  1  2  1  0
  2  3  2  0
  3  4  1  0
  4  5  1  0
  4  6  2  0
  6  7  1  0
  7  8  2  0
  8  9  1  0
  8 10  1  0
 10 11  1  0
 11 12  2  0
 12 13  1  0
 13 14  2  0
 14 15  1  0
 14 16  1  0
 16 17  1  0
 16 18  2  0
 18 19  1  0
 18 20  1  0
 20 21  1  0
 20 22  2  0
 22 23  1  0
 23 24  1  0
 24 25  1  0
 24 26  1  0
 24 27  1  0
 11 28  1  0
 28 29  1  0
  6 30  1  0
 30 31  1  0
 30 32  2  0
 32 33  1  0
 32  2  1  0
 28  7  1  0
 22 13  1  0
M  END
>  <UniqueID>  (19) 
19

>  <SMILES>  (19) 
COc1ccccc1/N=c1\[nH]c(-c2cccnc2)cs1

>  <Energy>  (19) 
76.40642098930128

>  <Genealogy>  (19) 
COc1ccccc1/N=c1\[nH]c(-c2cccnc2)cs1 (cis-trans isomerization)
COc1ccccc1/N=c1\[nH]c(-c2cccnc2)cs1 (3D coordinates assigned)
COc1ccccc1/N=c1\[nH]c(-c2cccnc2)cs1 (optimized conformer: 76.40642098930128 kcal/mol)

>  <smiles>  (19) 
COc1ccccc1N=c1[nH]c(-c2cccnc2)cs1

>  <score_type>  (19) 
oracle

>  <origin>  (19) 
adgpu

>  <m_score__min__energy>  (19) 
-7.54

>  <m_primary>  (19) 
energy

$$$$
19:0
     RDKit          3D

 22 23  0  0  0  0  0  0  0  0999 V2000
   -0.3427   25.7093  -28.1031 H   0  0  0  0  0  0  0  0  0  0  0  0
   -1.2470   25.1000  -28.2480 C   0  0  0  0  0  0  0  0  0  0  0  0
   -2.0320   25.2990  -29.3400 N   0  0  0  0  0  0  0  0  0  0  0  0
   -3.1570   24.5680  -29.5720 C   0  0  0  0  0  0  0  0  0  0  0  0
   -3.8590   24.8330  -30.6390 N   0  0  0  0  0  0  0  0  0  0  0  0
   -5.0160   24.1330  -31.1220 C   0  0  0  0  0  0  0  0  0  0  0  0
   -4.8420   22.9680  -31.8810 C   0  0  0  0  0  0  0  0  0  0  0  0
   -3.8276   22.6274  -32.1360 H   0  0  0  0  0  0  0  0  0  0  0  0
   -5.9520   22.2360  -32.3160 C   0  0  0  0  0  0  0  0  0  0  0  0
   -5.8095   21.3327  -32.9274 H   0  0  0  0  0  0  0  0  0  0  0  0
   -7.2430   22.6520  -31.9740 C   0  0  0  0  0  0  0  0  0  0  0  0
   -8.1160   22.0820  -32.3247 H   0  0  0  0  0  0  0  0  0  0  0  0
   -7.4230   23.7930  -31.1860 C   0  0  0  0  0  0  0  0  0  0  0  0
   -8.4376   24.1151  -30.9088 H   0  0  0  0  0  0  0  0  0  0  0  0
   -6.3140   24.5250  -30.7500 C   0  0  0  0  0  0  0  0  0  0  0  0
   -6.4577   25.4107  -30.1137 H   0  0  0  0  0  0  0  0  0  0  0  0
   -3.5390   23.5860  -28.6320 C   0  0  0  0  0  0  0  0  0  0  0  0
   -4.4558   22.9979  -28.7856 H   0  0  0  0  0  0  0  0  0  0  0  0
   -2.7430   23.3680  -27.5060 C   0  0  0  0  0  0  0  0  0  0  0  0
   -3.0276   22.5996  -26.7721 H   0  0  0  0  0  0  0  0  0  0  0  0
   -1.5870   24.1240  -27.3110 C   0  0  0  0  0  0  0  0  0  0  0  0
   -0.9516   23.9527  -26.4296 H   0  0  0  0  0  0  0  0  0  0  0  0
  1  2  1  0
  2  3  1  0
  3  4  1  0
  4  5  2  0
  5  6  1  0
  6  7  2  0
  7  8  1  0
  7  9  1  0
  9 10  1  0
  9 11  2  0
 11 12  1  0
 11 13  1  0
 13 14  1  0
 13 15  2  0
 15 16  1  0
  4 17  1  0
 17 18  1  0
 17 19  2  0
 19 20  1  0
 19 21  1  0
 21 22  1  0
 21  2  2  0
 15  6  1  0
M  CHG  1   3  -1
M  END
>  <UniqueID>  (20) 
20

>  <SMILES>  (20) 
c1ccc(/N=c2\cccc[n-]2)cc1

>  <Energy>  (20) 
33.09562778311824

>  <Genealogy>  (20) 
c1ccc(N=c2cccc[n-]2)cc1 (protonated)
c1ccc(/N=c2\cccc[n-]2)cc1 (cis-trans isomerization)
c1ccc(/N=c2\cccc[n-]2)cc1 (3D coordinates assigned)
c1ccc(/N=c2\cccc[n-]2)cc1 (optimized conformer: 33.09562778311824 kcal/mol)

>  <smiles>  (20) 
c1ccc(N=c2cccc[nH]2)cc1

>  <score_type>  (20) 
oracle

>  <origin>  (20) 
adgpu

>  <m_score__min__energy>  (20) 
-7.7000000000000002

>  <m_primary>  (20) 
energy

$$$$
20:0
     RDKit          3D

 31 33  0  0  0  0  0  0  0  0999 V2000
   -6.8982   22.3288  -29.9695 H   0  0  0  0  0  0  0  0  0  0  0  0
   -6.2160   22.5240  -30.8100 C   0  0  0  0  0  0  0  0  0  0  0  0
   -6.2630   21.7210  -31.8810 C   0  0  0  0  0  0  0  0  0  0  0  0
   -5.5680   21.9227  -32.7094 H   0  0  0  0  0  0  0  0  0  0  0  0
   -7.1970   20.5750  -32.0170 C   0  0  0  0  0  0  0  0  0  0  0  0
   -6.7690   19.2330  -31.9860 C   0  0  0  0  0  0  0  0  0  0  0  0
   -5.7034   18.9949  -31.8524 H   0  0  0  0  0  0  0  0  0  0  0  0
   -7.7060   18.2070  -32.1260 C   0  0  0  0  0  0  0  0  0  0  0  0
   -7.3784   17.1574  -32.0945 H   0  0  0  0  0  0  0  0  0  0  0  0
   -9.0210   18.5010  -32.3010 N   0  0  0  0  0  0  0  0  0  0  0  0
   -9.4630   19.7840  -32.3460 C   0  0  0  0  0  0  0  0  0  0  0  0
  -10.5337   19.9911  -32.4899 H   0  0  0  0  0  0  0  0  0  0  0  0
   -8.5610   20.8410  -32.2100 C   0  0  0  0  0  0  0  0  0  0  0  0
   -8.9190   21.8802  -32.2541 H   0  0  0  0  0  0  0  0  0  0  0  0
   -5.2800   23.6620  -30.7190 C   0  0  0  0  0  0  0  0  0  0  0  0
   -5.6510   24.9880  -30.6640 C   0  0  0  0  0  0  0  0  0  0  0  0
   -6.6828   25.3633  -30.7313 H   0  0  0  0  0  0  0  0  0  0  0  0
   -4.5530   25.7520  -30.5150 N   0  0  0  0  0  0  0  0  0  0  0  0
   -3.4890   24.9620  -30.4900 N   0  0  0  0  0  0  0  0  0  0  0  0
   -3.8950   23.6840  -30.6180 C   0  0  0  0  0  0  0  0  0  0  0  0
   -2.9520   22.5510  -30.7360 C   0  0  0  0  0  0  0  0  0  0  0  0
   -2.1850   22.1430  -29.6290 C   0  0  0  0  0  0  0  0  0  0  0  0
   -2.2793   22.6757  -28.6713 H   0  0  0  0  0  0  0  0  0  0  0  0
   -1.3040   21.0640  -29.7410 C   0  0  0  0  0  0  0  0  0  0  0  0
   -0.6984   20.7576  -28.8753 H   0  0  0  0  0  0  0  0  0  0  0  0
   -1.1910   20.3740  -30.9500 C   0  0  0  0  0  0  0  0  0  0  0  0
   -0.4937   19.5277  -31.0368 H   0  0  0  0  0  0  0  0  0  0  0  0
   -1.9630   20.7580  -32.0490 C   0  0  0  0  0  0  0  0  0  0  0  0
   -1.8765   20.2101  -32.9989 H   0  0  0  0  0  0  0  0  0  0  0  0
   -2.8460   21.8380  -31.9440 C   0  0  0  0  0  0  0  0  0  0  0  0
   -3.5780   22.2020  -33.0290 F   0  0  0  0  0  0  0  0  0  0  0  0
  1  2  1  0
  2  3  2  0
  3  4  1  0
  3  5  1  0
  5  6  2  0
  6  7  1  0
  6  8  1  0
  8  9  1  0
  8 10  2  0
 10 11  1  0
 11 12  1  0
 11 13  2  0
 13 14  1  0
  2 15  1  0
 15 16  1  0
 16 17  1  0
 16 18  2  0
 18 19  1  0
 19 20  1  0
 20 21  1  0
 21 22  2  0
 22 23  1  0
 22 24  1  0
 24 25  1  0
 24 26  2  0
 26 27  1  0
 26 28  1  0
 28 29  1  0
 28 30  2  0
 30 31  1  0
 13  5  1  0
 20 15  2  0
 30 21  1  0
M  CHG  1  19  -1
M  END
>  <UniqueID>  (21) 
21

>  <SMILES>  (21) 
Fc1ccccc1-c1[n-]ncc1/C=C/c1ccncc1

>  <Energy>  (21) 
73.83025732401964

>  <Genealogy>  (21) 
Fc1ccccc1-c1[n-]ncc1C=Cc1ccncc1 (protonated)
Fc1ccccc1-c1[n-]ncc1/C=C/c1ccncc1 (cis-trans isomerization)
Fc1ccccc1-c1[n-]ncc1/C=C/c1ccncc1 (3D coordinates assigned)
Fc1ccccc1-c1[n-]ncc1/C=C/c1ccncc1 (optimized conformer: 73.83025732401964 kcal/mol)

>  <smiles>  (21) 
Fc1ccccc1-c1[nH]ncc1C=Cc1ccncc1

>  <score_type>  (21) 
oracle

>  <origin>  (21) 
adgpu

>  <m_score__min__energy>  (21) 
-9.4900000000000002

>  <m_primary>  (21) 
energy

$$$$
21:0
     RDKit          3D

 27 28  0  0  0  0  0  0  0  0999 V2000
   -3.8680   25.2800  -30.8150 O   0  0  0  0  0  0  0  0  0  0  0  0
   -5.1810   24.8770  -30.2020 S   0  0  0  0  0  0  0  0  0  0  0  0
   -6.1190   26.0510  -30.2420 O   0  0  0  0  0  0  0  0  0  0  0  0
   -4.9220   24.4140  -28.5500 N   0  0  0  0  0  0  0  0  0  0  0  0
   -3.7320   23.7600  -28.0740 C   0  0  0  0  0  0  0  0  0  0  0  0
   -2.7110   24.4650  -27.4030 C   0  0  0  0  0  0  0  0  0  0  0  0
   -1.5710   23.7940  -26.9510 C   0  0  0  0  0  0  0  0  0  0  0  0
   -1.4310   22.4210  -27.1650 C   0  0  0  0  0  0  0  0  0  0  0  0
   -2.4320   21.7150  -27.8350 C   0  0  0  0  0  0  0  0  0  0  0  0
   -3.5760   22.3810  -28.2890 C   0  0  0  0  0  0  0  0  0  0  0  0
   -5.8370   23.5230  -31.1150 C   0  0  0  0  0  0  0  0  0  0  0  0
   -4.9720   22.6080  -31.7310 C   0  0  0  0  0  0  0  0  0  0  0  0
   -5.4890   21.5250  -32.4490 C   0  0  0  0  0  0  0  0  0  0  0  0
   -6.8720   21.3540  -32.5580 C   0  0  0  0  0  0  0  0  0  0  0  0
   -7.7390   22.2670  -31.9510 C   0  0  0  0  0  0  0  0  0  0  0  0
   -7.2250   23.3510  -31.2320 C   0  0  0  0  0  0  0  0  0  0  0  0
   -5.6580   24.6900  -27.8620 H   0  0  0  0  0  0  0  0  0  0  0  0
   -2.8123   25.5473  -27.2347 H   0  0  0  0  0  0  0  0  0  0  0  0
   -0.7810   24.3497  -26.4246 H   0  0  0  0  0  0  0  0  0  0  0  0
   -0.5332   21.8965  -26.8061 H   0  0  0  0  0  0  0  0  0  0  0  0
   -2.3213   20.6341  -28.0062 H   0  0  0  0  0  0  0  0  0  0  0  0
   -4.3597   21.8196  -28.8188 H   0  0  0  0  0  0  0  0  0  0  0  0
   -3.8833   22.7422  -31.6494 H   0  0  0  0  0  0  0  0  0  0  0  0
   -4.8069   20.8073  -32.9283 H   0  0  0  0  0  0  0  0  0  0  0  0
   -7.2780   20.5010  -33.1214 H   0  0  0  0  0  0  0  0  0  0  0  0
   -8.8272   22.1328  -32.0389 H   0  0  0  0  0  0  0  0  0  0  0  0
   -7.9095   24.0696  -30.7576 H   0  0  0  0  0  0  0  0  0  0  0  0
  1  2  2  0
  2  3  2  0
  2  4  1  0
  4  5  1  0
  5  6  2  0
  6  7  1  0
  7  8  2  0
  8  9  1  0
  9 10  2  0
  2 11  1  0
 11 12  2  0
 12 13  1  0
 13 14  2  0
 14 15  1  0
 15 16  2  0
 10  5  1  0
 16 11  1  0
  4 17  1  0
  6 18  1  0
  7 19  1  0
  8 20  1  0
  9 21  1  0
 10 22  1  0
 12 23  1  0
 13 24  1  0
 14 25  1  0
 15 26  1  0
 16 27  1  0
M  END
>  <UniqueID>  (22) 
22

>  <SMILES>  (22) 
O=S(=O)(Nc1ccccc1)c1ccccc1

>  <Energy>  (22) 
30.347112760453996

>  <Genealogy>  (22) 
O=S(=O)(Nc1ccccc1)c1ccccc1 (3D coordinates assigned)
O=S(=O)(Nc1ccccc1)c1ccccc1 (optimized conformer: 30.347112760453996 kcal/mol)

>  <smiles>  (22) 
O=S(=O)(Nc1ccccc1)c1ccccc1

>  <score_type>  (22) 
oracle

>  <origin>  (22) 
adgpu

>  <m_score__min__energy>  (22) 
-7.1299999999999999

>  <m_primary>  (22) 
energy

$$$$
22:0
     RDKit          3D

 30 31  0  0  0  0  0  0  0  0999 V2000
   -6.1120   25.6650  -29.7100 C   0  0  0  0  0  0  0  0  0  0  0  0
   -5.4750   24.3880  -30.0430 N   0  0  0  0  0  0  0  0  0  0  0  0
   -4.0540   24.1670  -29.7610 C   0  0  0  0  0  0  0  0  0  0  0  0
   -6.2640   23.3490  -30.6530 C   0  0  0  0  0  0  0  0  0  0  0  0
   -7.6110   23.4140  -30.9460 C   0  0  0  0  0  0  0  0  0  0  0  0
   -7.9630   22.2390  -31.4950 N   0  0  0  0  0  0  0  0  0  0  0  0
   -9.3040   21.8770  -31.9480 C   0  0  0  0  0  0  0  0  0  0  0  0
   -6.8290   21.5000  -31.5390 C   0  0  0  0  0  0  0  0  0  0  0  0
   -6.7320   20.1340  -32.0990 C   0  0  0  0  0  0  0  0  0  0  0  0
   -7.7360   19.1930  -31.8130 C   0  0  0  0  0  0  0  0  0  0  0  0
   -7.6740   17.9040  -32.3500 C   0  0  0  0  0  0  0  0  0  0  0  0
   -6.6140   17.5430  -33.1830 C   0  0  0  0  0  0  0  0  0  0  0  0
   -6.5380   15.9250  -33.8560 Cl  0  0  0  0  0  0  0  0  0  0  0  0
   -5.6140   18.4720  -33.4830 C   0  0  0  0  0  0  0  0  0  0  0  0
   -5.6670   19.7670  -32.9510 C   0  0  0  0  0  0  0  0  0  0  0  0
   -4.3570   20.8800  -33.3330 Cl  0  0  0  0  0  0  0  0  0  0  0  0
   -5.7650   22.1510  -31.0230 N   0  0  0  0  0  0  0  0  0  0  0  0
   -6.1662   25.7736  -28.6167 H   0  0  0  0  0  0  0  0  0  0  0  0
   -5.5203   26.4909  -30.1317 H   0  0  0  0  0  0  0  0  0  0  0  0
   -7.1277   25.6891  -30.1317 H   0  0  0  0  0  0  0  0  0  0  0  0
   -3.8957   24.1424  -28.6727 H   0  0  0  0  0  0  0  0  0  0  0  0
   -3.7379   23.2089  -30.1993 H   0  0  0  0  0  0  0  0  0  0  0  0
   -3.4618   24.9838  -30.1993 H   0  0  0  0  0  0  0  0  0  0  0  0
   -8.2755   24.2714  -30.7634 H   0  0  0  0  0  0  0  0  0  0  0  0
   -9.9510   21.7023  -31.0757 H   0  0  0  0  0  0  0  0  0  0  0  0
   -9.7194   22.6952  -32.5547 H   0  0  0  0  0  0  0  0  0  0  0  0
   -9.2513   20.9609  -32.5547 H   0  0  0  0  0  0  0  0  0  0  0  0
   -8.5770   19.4730  -31.1616 H   0  0  0  0  0  0  0  0  0  0  0  0
   -8.4619   17.1730  -32.1157 H   0  0  0  0  0  0  0  0  0  0  0  0
   -4.7804   18.1848  -34.1407 H   0  0  0  0  0  0  0  0  0  0  0  0
  1  2  1  0
  2  3  1  0
  2  4  1  0
  4  5  2  0
  5  6  1  0
  6  7  1  0
  6  8  1  0
  8  9  1  0
  9 10  2  0
 10 11  1  0
 11 12  2  0
 12 13  1  0
 12 14  1  0
 14 15  2  0
 15 16  1  0
  8 17  2  0
 17  4  1  0
 15  9  1  0
  1 18  1  0
  1 19  1  0
  1 20  1  0
  3 21  1  0
  3 22  1  0
  3 23  1  0
  5 24  1  0
  7 25  1  0
  7 26  1  0
  7 27  1  0
 10 28  1  0
 11 29  1  0
 14 30  1  0
M  END
>  <UniqueID>  (23) 
23

>  <SMILES>  (23) 
CN(C)c1cn(C)c(-c2ccc(Cl)cc2Cl)n1

>  <Energy>  (23) 
62.5912249912057

>  <Genealogy>  (23) 
CN(C)c1cn(C)c(-c2ccc(Cl)cc2Cl)n1 (3D coordinates assigned)
CN(C)c1cn(C)c(-c2ccc(Cl)cc2Cl)n1 (optimized conformer: 62.5912249912057 kcal/mol)

>  <smiles>  (23) 
CN(C)c1cn(C)c(-c2ccc(Cl)cc2Cl)n1

>  <score_type>  (23) 
oracle

>  <origin>  (23) 
adgpu

>  <m_score__min__energy>  (23) 
-6.4699999999999998

>  <m_primary>  (23) 
energy

$$$$
23:0
     RDKit          3D

 28 29  0  0  0  0  0  0  0  0999 V2000
   -0.6573   26.4578  -28.7528 H   0  0  0  0  0  0  0  0  0  0  0  0
   -1.2570   25.5550  -28.5650 C   0  0  0  0  0  0  0  0  0  0  0  0
   -2.3370   25.2970  -29.3420 N   0  0  0  0  0  0  0  0  0  0  0  0
   -3.1190   24.2020  -29.1620 C   0  0  0  0  0  0  0  0  0  0  0  0
   -4.2850   23.9880  -30.0580 C   0  0  0  0  0  0  0  0  0  0  0  0
   -4.2380   22.9790  -31.0390 C   0  0  0  0  0  0  0  0  0  0  0  0
   -3.3403   22.3502  -31.1324 H   0  0  0  0  0  0  0  0  0  0  0  0
   -5.3230   22.7700  -31.8950 C   0  0  0  0  0  0  0  0  0  0  0  0
   -5.2775   21.9763  -32.6552 H   0  0  0  0  0  0  0  0  0  0  0  0
   -6.4650   23.5670  -31.7870 C   0  0  0  0  0  0  0  0  0  0  0  0
   -7.5160   23.3620  -32.6190 F   0  0  0  0  0  0  0  0  0  0  0  0
   -6.5200   24.5790  -30.8270 C   0  0  0  0  0  0  0  0  0  0  0  0
   -7.4174   25.2100  -30.7462 H   0  0  0  0  0  0  0  0  0  0  0  0
   -5.4380   24.7930  -29.9680 C   0  0  0  0  0  0  0  0  0  0  0  0
   -5.4871   25.5951  -29.2169 H   0  0  0  0  0  0  0  0  0  0  0  0
   -2.7910   23.2940  -28.1450 C   0  0  0  0  0  0  0  0  0  0  0  0
   -3.4099   22.3964  -27.9992 H   0  0  0  0  0  0  0  0  0  0  0  0
   -1.6850   23.5140  -27.3110 C   0  0  0  0  0  0  0  0  0  0  0  0
   -1.4680   22.6020  -26.3980 N   0  0  0  0  0  0  0  0  0  0  0  0
   -0.4360   22.4870  -25.3750 C   0  0  0  0  0  0  0  0  0  0  0  0
   -0.8998   22.5387  -24.3789 H   0  0  0  0  0  0  0  0  0  0  0  0
    0.0858   21.5251  -25.4871 H   0  0  0  0  0  0  0  0  0  0  0  0
    0.2847   23.3104  -25.4871 H   0  0  0  0  0  0  0  0  0  0  0  0
   -0.8920   24.6850  -27.5220 C   0  0  0  0  0  0  0  0  0  0  0  0
    0.3210   25.0640  -26.7060 C   0  0  0  0  0  0  0  0  0  0  0  0
    0.0806   24.9889  -25.6352 H   0  0  0  0  0  0  0  0  0  0  0  0
    1.1508   24.3823  -26.9442 H   0  0  0  0  0  0  0  0  0  0  0  0
    0.6151   26.0968  -26.9442 H   0  0  0  0  0  0  0  0  0  0  0  0
  1  2  1  0
  2  3  1  0
  3  4  1  0
  4  5  1  0
  5  6  2  0
  6  7  1  0
  6  8  1  0
  8  9  1  0
  8 10  2  0
 10 11  1  0
 10 12  1  0
 12 13  1  0
 12 14  2  0
 14 15  1  0
  4 16  2  0
 16 17  1  0
 16 18  1  0
 18 19  2  0
 19 20  1  0
 20 21  1  0
 20 22  1  0
 20 23  1  0
 18 24  1  0
 24 25  1  0
 25 26  1  0
 25 27  1  0
 25 28  1  0
 24  2  2  0
 14  5  1  0
M  CHG  1   3  -1
M  END
>  <UniqueID>  (24) 
24

>  <SMILES>  (24) 
C/N=c1/cc(-c2ccc(F)cc2)[n-]cc1C

>  <Energy>  (24) 
42.58298271329631

>  <Genealogy>  (24) 
CN=c1cc(-c2ccc(F)cc2)[n-]cc1C (protonated)
C/N=c1/cc(-c2ccc(F)cc2)[n-]cc1C (cis-trans isomerization)
C/N=c1/cc(-c2ccc(F)cc2)[n-]cc1C (3D coordinates assigned)
C/N=c1/cc(-c2ccc(F)cc2)[n-]cc1C (optimized conformer: 42.58298271329631 kcal/mol)

>  <smiles>  (24) 
CN=c1cc(-c2ccc(F)cc2)[nH]cc1C

>  <score_type>  (24) 
oracle

>  <origin>  (24) 
adgpu

>  <m_score__min__energy>  (24) 
-7.4100000000000001

>  <m_primary>  (24) 
energy

$$$$
24:0
     RDKit          3D

 35 37  0  0  0  0  0  0  0  0999 V2000
   -2.7270   19.6070  -26.9660 C   0  0  0  0  0  0  0  0  0  0  0  0
   -1.4250   20.8200  -26.5840 S   0  0  0  0  0  0  0  0  0  0  0  0
   -2.0500   22.0360  -27.7460 C   0  0  0  0  0  0  0  0  0  0  0  0
   -1.2590   22.4480  -28.8240 C   0  0  0  0  0  0  0  0  0  0  0  0
   -1.7440   23.3970  -29.7290 C   0  0  0  0  0  0  0  0  0  0  0  0
   -3.0230   23.9560  -29.5510 C   0  0  0  0  0  0  0  0  0  0  0  0
   -3.5700   24.9120  -30.4700 N   0  0  0  0  0  0  0  0  0  0  0  0
   -4.9490   25.0400  -30.8460 C   0  0  0  0  0  0  0  0  0  0  0  0
   -5.5080   26.1690  -30.8420 O   0  0  0  0  0  0  0  0  0  0  0  0
   -5.7530   23.8290  -31.1180 C   0  0  0  0  0  0  0  0  0  0  0  0
   -7.0860   23.8110  -30.6690 C   0  0  0  0  0  0  0  0  0  0  0  0
   -7.8780   22.6750  -30.8270 C   0  0  0  0  0  0  0  0  0  0  0  0
   -7.3610   21.5360  -31.4390 C   0  0  0  0  0  0  0  0  0  0  0  0
   -6.0450   21.5290  -31.9220 C   0  0  0  0  0  0  0  0  0  0  0  0
   -5.5410   20.3850  -32.5600 C   0  0  0  0  0  0  0  0  0  0  0  0
   -4.2470   20.3810  -33.0780 C   0  0  0  0  0  0  0  0  0  0  0  0
   -3.4480   21.5200  -32.9770 C   0  0  0  0  0  0  0  0  0  0  0  0
   -3.9330   22.6660  -32.3410 C   0  0  0  0  0  0  0  0  0  0  0  0
   -5.2280   22.6840  -31.7790 C   0  0  0  0  0  0  0  0  0  0  0  0
   -3.8160   23.5240  -28.4800 C   0  0  0  0  0  0  0  0  0  0  0  0
   -3.3300   22.5750  -27.5760 C   0  0  0  0  0  0  0  0  0  0  0  0
   -3.1486   19.2143  -26.0290 H   0  0  0  0  0  0  0  0  0  0  0  0
   -3.5219   20.0940  -27.5500 H   0  0  0  0  0  0  0  0  0  0  0  0
   -2.2974   18.7797  -27.5500 H   0  0  0  0  0  0  0  0  0  0  0  0
   -0.2530   22.0242  -28.9599 H   0  0  0  0  0  0  0  0  0  0  0  0
   -1.1238   23.7076  -30.5828 H   0  0  0  0  0  0  0  0  0  0  0  0
   -7.5087   24.7049  -30.1870 H   0  0  0  0  0  0  0  0  0  0  0  0
   -8.9172   22.6782  -30.4663 H   0  0  0  0  0  0  0  0  0  0  0  0
   -7.9878   20.6381  -31.5439 H   0  0  0  0  0  0  0  0  0  0  0  0
   -6.1701   19.4873  -32.6517 H   0  0  0  0  0  0  0  0  0  0  0  0
   -3.8549   19.4774  -33.5677 H   0  0  0  0  0  0  0  0  0  0  0  0
   -2.4324   21.5161  -33.3995 H   0  0  0  0  0  0  0  0  0  0  0  0
   -3.2994   23.5630  -32.2776 H   0  0  0  0  0  0  0  0  0  0  0  0
   -4.8282   23.9344  -28.3495 H   0  0  0  0  0  0  0  0  0  0  0  0
   -3.9545   22.2516  -26.7301 H   0  0  0  0  0  0  0  0  0  0  0  0
  1  2  1  0
  2  3  1  0
  3  4  2  0
  4  5  1  0
  5  6  2  0
  6  7  1  0
  7  8  1  0
  8  9  2  0
  8 10  1  0
 10 11  2  0
 11 12  1  0
 12 13  2  0
 13 14  1  0
 14 15  2  0
 15 16  1  0
 16 17  2  0
 17 18  1  0
 18 19  2  0
  6 20  1  0
 20 21  2  0
 21  3  1  0
 19 10  1  0
 19 14  1  0
  1 22  1  0
  1 23  1  0
  1 24  1  0
  4 25  1  0
  5 26  1  0
 11 27  1  0
 12 28  1  0
 13 29  1  0
 15 30  1  0
 16 31  1  0
 17 32  1  0
 18 33  1  0
 20 34  1  0
 21 35  1  0
M  CHG  1   7  -1
M  END
>  <UniqueID>  (25) 
25

>  <SMILES>  (25) 
CSc1ccc([N-]C(=O)c2cccc3ccccc23)cc1

>  <Energy>  (25) 
47.12104106538756

>  <Genealogy>  (25) 
CSc1ccc([N-]C(=O)c2cccc3ccccc23)cc1 (protonated)
CSc1ccc([N-]C(=O)c2cccc3ccccc23)cc1 (3D coordinates assigned)
CSc1ccc([N-]C(=O)c2cccc3ccccc23)cc1 (optimized conformer: 47.12104106538756 kcal/mol)

>  <smiles>  (25) 
CSc1ccc(NC(=O)c2cccc3ccccc23)cc1

>  <score_type>  (25) 
oracle

>  <origin>  (25) 
adgpu

>  <m_score__min__energy>  (25) 
-9.3599999999999994

>  <m_primary>  (25) 
energy

$$$$
25:0
     RDKit          3D

 32 34  0  0  0  0  0  0  0  0999 V2000
   -4.6270   25.3300  -30.8390 N   0  0  0  0  0  0  0  0  0  0  0  0
   -4.2540   24.2610  -30.6030 C   0  0  0  0  0  0  0  0  0  0  0  0
   -3.7720   22.9410  -30.2850 C   0  0  0  0  0  0  0  0  0  0  0  0
   -3.2120   22.7300  -29.0160 C   0  0  0  0  0  0  0  0  0  0  0  0
   -2.6830   21.4810  -28.6740 C   0  0  0  0  0  0  0  0  0  0  0  0
   -1.9830   21.2300  -27.0860 Cl  0  0  0  0  0  0  0  0  0  0  0  0
   -2.7070   20.4380  -29.6000 C   0  0  0  0  0  0  0  0  0  0  0  0
   -3.2620   20.6380  -30.8650 C   0  0  0  0  0  0  0  0  0  0  0  0
   -3.8010   21.8820  -31.2200 C   0  0  0  0  0  0  0  0  0  0  0  0
   -4.5160   22.0370  -32.8740 S   0  0  0  0  0  0  0  0  0  0  0  0
   -6.2190   21.7300  -32.3660 C   0  0  0  0  0  0  0  0  0  0  0  0
   -6.9670   22.8080  -31.8600 C   0  0  0  0  0  0  0  0  0  0  0  0
   -8.2730   22.6200  -31.4110 C   0  0  0  0  0  0  0  0  0  0  0  0
   -8.8610   21.3610  -31.4870 C   0  0  0  0  0  0  0  0  0  0  0  0
   -8.1560   20.2930  -32.0440 C   0  0  0  0  0  0  0  0  0  0  0  0
   -6.8380   20.4580  -32.5120 C   0  0  0  0  0  0  0  0  0  0  0  0
   -6.2200   19.3290  -33.2670 C   0  0  0  0  0  0  0  0  0  0  0  0
   -5.4080   18.3580  -32.7000 C   0  0  0  0  0  0  0  0  0  0  0  0
   -5.0360   17.5080  -33.7200 C   0  0  0  0  0  0  0  0  0  0  0  0
   -5.6250   17.9910  -34.8670 C   0  0  0  0  0  0  0  0  0  0  0  0
   -6.3420   19.0950  -34.5900 N   0  0  0  0  0  0  0  0  0  0  0  0
   -3.1888   23.5520  -28.2854 H   0  0  0  0  0  0  0  0  0  0  0  0
   -2.2880   19.4566  -29.3329 H   0  0  0  0  0  0  0  0  0  0  0  0
   -3.2765   19.8112  -31.5903 H   0  0  0  0  0  0  0  0  0  0  0  0
   -6.5164   23.8106  -31.8181 H   0  0  0  0  0  0  0  0  0  0  0  0
   -8.8392   23.4671  -30.9964 H   0  0  0  0  0  0  0  0  0  0  0  0
   -9.8821   21.2075  -31.1078 H   0  0  0  0  0  0  0  0  0  0  0  0
   -8.6374   19.3068  -32.1186 H   0  0  0  0  0  0  0  0  0  0  0  0
   -5.1172   18.2809  -31.6419 H   0  0  0  0  0  0  0  0  0  0  0  0
   -4.3945   16.6185  -33.6342 H   0  0  0  0  0  0  0  0  0  0  0  0
   -5.5239   17.5396  -35.8650 H   0  0  0  0  0  0  0  0  0  0  0  0
   -6.8590   19.6540  -35.2990 H   0  0  0  0  0  0  0  0  0  0  0  0
  1  2  3  0
  2  3  1  0
  3  4  2  0
  4  5  1  0
  5  6  1  0
  5  7  2  0
  7  8  1  0
  8  9  2  0
  9 10  1  0
 10 11  1  0
 11 12  2  0
 12 13  1  0
 13 14  2  0
 14 15  1  0
 15 16  2  0
 16 17  1  0
 17 18  2  0
 18 19  1  0
 19 20  2  0
 20 21  1  0
  9  3  1  0
 16 11  1  0
 21 17  1  0
  4 22  1  0
  7 23  1  0
  8 24  1  0
 12 25  1  0
 13 26  1  0
 14 27  1  0
 15 28  1  0
 18 29  1  0
 19 30  1  0
 20 31  1  0
 21 32  1  0
M  END
>  <UniqueID>  (26) 
26

>  <SMILES>  (26) 
N#Cc1cc(Cl)ccc1Sc1ccccc1-c1ccc[nH]1

>  <Energy>  (26) 
68.60791581987624

>  <Genealogy>  (26) 
N#Cc1cc(Cl)ccc1Sc1ccccc1-c1ccc[nH]1 (3D coordinates assigned)
N#Cc1cc(Cl)ccc1Sc1ccccc1-c1ccc[nH]1 (optimized conformer: 68.60791581987624 kcal/mol)

>  <smiles>  (26) 
N#Cc1cc(Cl)ccc1Sc1ccccc1-c1ccc[nH]1

>  <score_type>  (26) 
oracle

>  <origin>  (26) 
adgpu

>  <m_score__min__energy>  (26) 
-8.4299999999999997

>  <m_primary>  (26) 
energy

$$$$
26:0
     RDKit          3D

 31 32  0  0  0  0  0  0  0  0999 V2000
   -0.0490   27.6930  -27.4340 H   0  0  0  0  0  0  0  0  0  0  0  0
   -0.8080   27.2350  -27.9880 N   0  0  0  0  0  0  0  0  0  0  0  0
   -0.7950   25.9640  -28.2350 C   0  0  0  0  0  0  0  0  0  0  0  0
    0.2210   25.1950  -27.7740 N   0  0  0  0  0  0  0  0  0  0  0  0
    0.2660   23.8580  -28.0060 C   0  0  0  0  0  0  0  0  0  0  0  0
    1.4220   23.0800  -27.4470 C   0  0  0  0  0  0  0  0  0  0  0  0
    1.3840   23.1056  -26.3480 H   0  0  0  0  0  0  0  0  0  0  0  0
    1.3630   22.0371  -27.7917 H   0  0  0  0  0  0  0  0  0  0  0  0
    2.3660   23.5273  -27.7917 H   0  0  0  0  0  0  0  0  0  0  0  0
   -0.7800   23.2380  -28.7260 C   0  0  0  0  0  0  0  0  0  0  0  0
   -0.7930   21.7380  -28.9210 C   0  0  0  0  0  0  0  0  0  0  0  0
   -0.7973   21.2407  -27.9398 H   0  0  0  0  0  0  0  0  0  0  0  0
   -1.6937   21.4490  -29.4825 H   0  0  0  0  0  0  0  0  0  0  0  0
    0.1025   21.4335  -29.4825 H   0  0  0  0  0  0  0  0  0  0  0  0
   -1.8020   24.0690  -29.2470 C   0  0  0  0  0  0  0  0  0  0  0  0
   -2.8960   23.5390  -30.0880 C   0  0  0  0  0  0  0  0  0  0  0  0
   -3.1970   22.2230  -30.1560 N   0  0  0  0  0  0  0  0  0  0  0  0
   -4.2930   22.1740  -30.9470 C   0  0  0  0  0  0  0  0  0  0  0  0
   -5.0340   20.9160  -31.2600 C   0  0  0  0  0  0  0  0  0  0  0  0
   -5.3263   20.4198  -30.3228 H   0  0  0  0  0  0  0  0  0  0  0  0
   -5.9347   21.1566  -31.8439 H   0  0  0  0  0  0  0  0  0  0  0  0
   -4.3869   20.2449  -31.8439 H   0  0  0  0  0  0  0  0  0  0  0  0
   -4.6500   23.4540  -31.3310 C   0  0  0  0  0  0  0  0  0  0  0  0
   -5.8850   23.8660  -32.0660 C   0  0  0  0  0  0  0  0  0  0  0  0
   -6.6715   24.1284  -31.3432 H   0  0  0  0  0  0  0  0  0  0  0  0
   -5.6618   24.7384  -32.6978 H   0  0  0  0  0  0  0  0  0  0  0  0
   -6.2303   23.0344  -32.6978 H   0  0  0  0  0  0  0  0  0  0  0  0
   -3.7680   24.3000  -30.7780 N   0  0  0  0  0  0  0  0  0  0  0  0
   -3.8620   25.6730  -30.7520 O   0  0  0  0  0  0  0  0  0  0  0  0
   -1.7950   25.4030  -28.9630 N   0  0  0  0  0  0  0  0  0  0  0  0
   -2.5620   26.0140  -29.3300 H   0  0  0  0  0  0  0  0  0  0  0  0
  1  2  1  0
  2  3  2  0
  3  4  1  0
  4  5  2  0
  5  6  1  0
  6  7  1  0
  6  8  1  0
  6  9  1  0
  5 10  1  0
 10 11  1  0
 11 12  1  0
 11 13  1  0
 11 14  1  0
 10 15  2  0
 15 16  1  0
 16 17  2  0
 17 18  1  0
 18 19  1  0
 19 20  1  0
 19 21  1  0
 19 22  1  0
 18 23  2  0
 23 24  1  0
 24 25  1  0
 24 26  1  0
 24 27  1  0
 23 28  1  0
 28 29  1  0
 15 30  1  0
 30 31  1  0
 30  3  1  0
 28 16  1  0
M  CHG  1  29  -1
M  END
>  <UniqueID>  (27) 
27

>  <SMILES>  (27) 
[H]/N=c1\nc(C)c(C)c(-c2nc(C)c(C)n2[O-])[nH]1

>  <Energy>  (27) 
67.44669202704941

>  <Genealogy>  (27) 
Cc1nc(=N)[nH]c(-c2nc(C)c(C)n2[O-])c1C (protonated)
[H]/N=c1\nc(C)c(C)c(-c2nc(C)c(C)n2[O-])[nH]1 (cis-trans isomerization)
[H]/N=c1\nc(C)c(C)c(-c2nc(C)c(C)n2[O-])[nH]1 (3D coordinates assigned)
[H]/N=c1\nc(C)c(C)c(-c2nc(C)c(C)n2[O-])[nH]1 (optimized conformer: 67.44669202704941 kcal/mol)

>  <smiles>  (27) 
Cc1nc(=N)[nH]c(-c2nc(C)c(C)n2O)c1C

>  <score_type>  (27) 
oracle

>  <origin>  (27) 
adgpu

>  <m_score__min__energy>  (27) 
-8.9299999999999997

>  <m_primary>  (27) 
energy

$$$$
27:0
     RDKit          3D

 30 32  0  0  0  0  0  0  0  0999 V2000
   -4.2300   13.6300  -31.7620 C   0  0  0  0  0  0  0  0  0  0  0  0
   -4.5600   14.8450  -32.5800 C   0  0  0  0  0  0  0  0  0  0  0  0
   -4.0180   14.9980  -33.8650 C   0  0  0  0  0  0  0  0  0  0  0  0
   -4.2940   16.1440  -34.6150 C   0  0  0  0  0  0  0  0  0  0  0  0
   -5.1010   17.1550  -34.0860 C   0  0  0  0  0  0  0  0  0  0  0  0
   -5.3530   18.2400  -34.8100 O   0  0  0  0  0  0  0  0  0  0  0  0
   -6.1090   19.2380  -34.3670 C   0  0  0  0  0  0  0  0  0  0  0  0
   -6.6850   19.1940  -33.0880 C   0  0  0  0  0  0  0  0  0  0  0  0
   -7.5360   20.3150  -32.6170 C   0  0  0  0  0  0  0  0  0  0  0  0
   -6.9620   21.5700  -32.3460 C   0  0  0  0  0  0  0  0  0  0  0  0
   -7.7560   22.6260  -31.8910 C   0  0  0  0  0  0  0  0  0  0  0  0
   -9.1280   22.4400  -31.7010 C   0  0  0  0  0  0  0  0  0  0  0  0
   -9.7070   21.1970  -31.9650 C   0  0  0  0  0  0  0  0  0  0  0  0
   -8.9180   20.1350  -32.4200 C   0  0  0  0  0  0  0  0  0  0  0  0
   -9.5100   18.9440  -32.6940 F   0  0  0  0  0  0  0  0  0  0  0  0
   -6.4400   18.0640  -32.2860 C   0  0  0  0  0  0  0  0  0  0  0  0
   -6.9220   17.9950  -31.1210 O   0  0  0  0  0  0  0  0  0  0  0  0
   -5.6390   17.0220  -32.7870 C   0  0  0  0  0  0  0  0  0  0  0  0
   -5.3570   15.8650  -32.0360 C   0  0  0  0  0  0  0  0  0  0  0  0
   -4.2975   13.8786  -30.6926 H   0  0  0  0  0  0  0  0  0  0  0  0
   -4.9421   12.8252  -31.9971 H   0  0  0  0  0  0  0  0  0  0  0  0
   -3.2086   13.2961  -31.9971 H   0  0  0  0  0  0  0  0  0  0  0  0
   -3.3726   14.2119  -34.2840 H   0  0  0  0  0  0  0  0  0  0  0  0
   -3.8743   16.2510  -35.6262 H   0  0  0  0  0  0  0  0  0  0  0  0
   -6.2862   20.1115  -35.0117 H   0  0  0  0  0  0  0  0  0  0  0  0
   -5.8824   21.7211  -32.4930 H   0  0  0  0  0  0  0  0  0  0  0  0
   -7.3004   23.6052  -31.6821 H   0  0  0  0  0  0  0  0  0  0  0  0
   -9.7517   23.2726  -31.3436 H   0  0  0  0  0  0  0  0  0  0  0  0
  -10.7870   21.0524  -31.8147 H   0  0  0  0  0  0  0  0  0  0  0  0
   -5.7627   15.7597  -31.0190 H   0  0  0  0  0  0  0  0  0  0  0  0
  1  2  1  0
  2  3  2  0
  3  4  1  0
  4  5  2  0
  5  6  1  0
  6  7  1  0
  7  8  2  0
  8  9  1  0
  9 10  2  0
 10 11  1  0
 11 12  2  0
 12 13  1  0
 13 14  2  0
 14 15  1  0
  8 16  1  0
 16 17  2  0
 16 18  1  0
 18 19  2  0
 19  2  1  0
 18  5  1  0
 14  9  1  0
  1 20  1  0
  1 21  1  0
  1 22  1  0
  3 23  1  0
  4 24  1  0
  7 25  1  0
 10 26  1  0
 11 27  1  0
 12 28  1  0
 13 29  1  0
 19 30  1  0
M  END
>  <UniqueID>  (28) 
28

>  <SMILES>  (28) 
Cc1ccc2occ(-c3ccccc3F)c(=O)c2c1

>  <Energy>  (28) 
44.88981164303145

>  <Genealogy>  (28) 
Cc1ccc2occ(-c3ccccc3F)c(=O)c2c1 (3D coordinates assigned)
Cc1ccc2occ(-c3ccccc3F)c(=O)c2c1 (optimized conformer: 44.88981164303145 kcal/mol)

>  <smiles>  (28) 
Cc1ccc2occ(-c3ccccc3F)c(=O)c2c1

>  <score_type>  (28) 
oracle

>  <origin>  (28) 
adgpu

>  <m_score__min__energy>  (28) 
-6.9100000000000001

>  <m_primary>  (28) 
energy

$$$$
28:0
     RDKit          3D

 29 31  0  0  0  0  0  0  0  0999 V2000
   -3.2313   25.3615  -24.9959 H   0  0  0  0  0  0  0  0  0  0  0  0
   -2.7720   25.3080  -25.9940 C   0  0  0  0  0  0  0  0  0  0  0  0
   -3.3700   24.5410  -26.9980 C   0  0  0  0  0  0  0  0  0  0  0  0
   -4.2897   23.9772  -26.7829 H   0  0  0  0  0  0  0  0  0  0  0  0
   -2.7990   24.4880  -28.2830 C   0  0  0  0  0  0  0  0  0  0  0  0
   -3.3610   23.6600  -29.3130 N   0  0  0  0  0  0  0  0  0  0  0  0
   -4.5380   23.7660  -29.8750 C   0  0  0  0  0  0  0  0  0  0  0  0
   -5.3940   24.8550  -29.6120 C   0  0  0  0  0  0  0  0  0  0  0  0
   -5.0822   25.6425  -28.9101 H   0  0  0  0  0  0  0  0  0  0  0  0
   -6.6350   24.9340  -30.2410 C   0  0  0  0  0  0  0  0  0  0  0  0
   -7.3022   25.7816  -30.0254 H   0  0  0  0  0  0  0  0  0  0  0  0
   -7.0280   23.9750  -31.1170 N   0  0  0  0  0  0  0  0  0  0  0  0
   -7.9670   24.0710  -31.5680 H   0  0  0  0  0  0  0  0  0  0  0  0
   -6.2280   22.9140  -31.4200 C   0  0  0  0  0  0  0  0  0  0  0  0
   -6.6610   21.9450  -32.3400 C   0  0  0  0  0  0  0  0  0  0  0  0
   -7.6484   22.0436  -32.8147 H   0  0  0  0  0  0  0  0  0  0  0  0
   -5.8440   20.8570  -32.6550 C   0  0  0  0  0  0  0  0  0  0  0  0
   -6.3940   19.6530  -33.8070 Cl  0  0  0  0  0  0  0  0  0  0  0  0
   -4.5890   20.7260  -32.0550 C   0  0  0  0  0  0  0  0  0  0  0  0
   -3.9485   19.8678  -32.3063 H   0  0  0  0  0  0  0  0  0  0  0  0
   -4.1450   21.6800  -31.1380 C   0  0  0  0  0  0  0  0  0  0  0  0
   -3.1555   21.5684  -30.6705 H   0  0  0  0  0  0  0  0  0  0  0  0
   -4.9550   22.7860  -30.8060 C   0  0  0  0  0  0  0  0  0  0  0  0
   -1.5970   25.1610  -28.5290 C   0  0  0  0  0  0  0  0  0  0  0  0
   -1.1202   25.0867  -29.5175 H   0  0  0  0  0  0  0  0  0  0  0  0
   -0.9990   25.9280  -27.5230 C   0  0  0  0  0  0  0  0  0  0  0  0
   -0.0633   26.4688  -27.7277 H   0  0  0  0  0  0  0  0  0  0  0  0
   -1.5890   26.0080  -26.2580 C   0  0  0  0  0  0  0  0  0  0  0  0
   -0.8380   26.9670  -24.9970 Cl  0  0  0  0  0  0  0  0  0  0  0  0
  1  2  1  0
  2  3  2  0
  3  4  1  0
  3  5  1  0
  5  6  1  0
  6  7  2  0
  7  8  1  0
  8  9  1  0
  8 10  2  0
 10 11  1  0
 10 12  1  0
 12 13  1  0
 12 14  1  0
 14 15  2  0
 15 16  1  0
 15 17  1  0
 17 18  1  0
 17 19  2  0
 19 20  1  0
 19 21  1  0
 21 22  1  0
 21 23  2  0
  5 24  2  0
 24 25  1  0
 24 26  1  0
 26 27  1  0
 26 28  2  0
 28 29  1  0
 28  2  1  0
 23  7  1  0
 23 14  1  0
M  END
>  <UniqueID>  (29) 
29

>  <SMILES>  (29) 
Clc1ccc(/N=c2\cc[nH]c3cc(Cl)ccc23)cc1

>  <Energy>  (29) 
46.2377992681569

>  <Genealogy>  (29) 
Clc1ccc(/N=c2\cc[nH]c3cc(Cl)ccc23)cc1 (cis-trans isomerization)
Clc1ccc(/N=c2\cc[nH]c3cc(Cl)ccc23)cc1 (3D coordinates assigned)
Clc1ccc(/N=c2\cc[nH]c3cc(Cl)ccc23)cc1 (optimized conformer: 46.2377992681569 kcal/mol)

>  <smiles>  (29) 
Clc1ccc(N=c2cc[nH]c3cc(Cl)ccc23)cc1

>  <score_type>  (29) 
oracle

>  <origin>  (29) 
adgpu

>  <m_score__min__energy>  (29) 
-7.3399999999999999

>  <m_primary>  (29) 
energy

$$$$
29:0
     RDKit          3D

 24 25  0  0  0  0  0  0  0  0999 V2000
   -8.0520   21.8710  -29.1970 H   0  0  0  0  0  0  0  0  0  0  0  0
   -7.5210   22.3070  -30.0560 C   0  0  0  0  0  0  0  0  0  0  0  0
   -6.9800   23.5520  -29.9610 N   0  0  0  0  0  0  0  0  0  0  0  0
   -6.3120   24.1270  -30.9990 C   0  0  0  0  0  0  0  0  0  0  0  0
   -5.7370   25.5050  -30.8440 C   0  0  0  0  0  0  0  0  0  0  0  0
   -6.2223   26.0038  -29.9921 H   0  0  0  0  0  0  0  0  0  0  0  0
   -5.9170   26.0670  -31.7723 H   0  0  0  0  0  0  0  0  0  0  0  0
   -4.2940   25.4460  -30.6060 N   0  0  0  0  0  0  0  0  0  0  0  0
   -3.6860   24.8730  -29.6070 C   0  0  0  0  0  0  0  0  0  0  0  0
   -2.3270   24.9050  -29.5670 N   0  0  0  0  0  0  0  0  0  0  0  0
   -1.6340   24.3230  -28.5550 C   0  0  0  0  0  0  0  0  0  0  0  0
   -0.3760   24.3700  -28.5480 O   0  0  0  0  0  0  0  0  0  0  0  0
   -2.3180   23.6770  -27.5270 C   0  0  0  0  0  0  0  0  0  0  0  0
   -1.7720   23.1992  -26.7002 H   0  0  0  0  0  0  0  0  0  0  0  0
   -3.7110   23.6510  -27.5720 C   0  0  0  0  0  0  0  0  0  0  0  0
   -4.2763   23.1487  -26.7732 H   0  0  0  0  0  0  0  0  0  0  0  0
   -4.3730   24.2450  -28.6010 N   0  0  0  0  0  0  0  0  0  0  0  0
   -5.4150   24.2060  -28.5890 H   0  0  0  0  0  0  0  0  0  0  0  0
   -6.1800   23.4300  -32.2090 C   0  0  0  0  0  0  0  0  0  0  0  0
   -5.6501   23.8864  -33.0580 H   0  0  0  0  0  0  0  0  0  0  0  0
   -6.7280   22.1510  -32.3250 C   0  0  0  0  0  0  0  0  0  0  0  0
   -6.6283   21.5923  -33.2673 H   0  0  0  0  0  0  0  0  0  0  0  0
   -7.4020   21.5830  -31.2440 C   0  0  0  0  0  0  0  0  0  0  0  0
   -7.8352   20.5753  -31.3265 H   0  0  0  0  0  0  0  0  0  0  0  0
  1  2  1  0
  2  3  2  0
  3  4  1  0
  4  5  1  0
  5  6  1  0
  5  7  1  0
  5  8  1  0
  8  9  2  0
  9 10  1  0
 10 11  1  0
 11 12  2  0
 11 13  1  0
 13 14  1  0
 13 15  2  0
 15 16  1  0
 15 17  1  0
 17 18  1  0
  4 19  2  0
 19 20  1  0
 19 21  1  0
 21 22  1  0
 21 23  2  0
 23 24  1  0
 23  2  1  0
 17  9  1  0
M  CHG  1  10  -1
M  END
>  <UniqueID>  (30) 
30

>  <SMILES>  (30) 
O=c1cc[nH]/c(=N\Cc2ccccn2)[n-]1

>  <Energy>  (30) 
26.7800842275124

>  <Genealogy>  (30) 
O=c1cc[nH]c(=NCc2ccccn2)[n-]1 (protonated)
O=c1cc[nH]/c(=N\Cc2ccccn2)[n-]1 (cis-trans isomerization)
O=c1cc[nH]/c(=N\Cc2ccccn2)[n-]1 (3D coordinates assigned)
O=c1cc[nH]/c(=N\Cc2ccccn2)[n-]1 (optimized conformer: 26.7800842275124 kcal/mol)

>  <smiles>  (30) 
O=c1cc[nH]c(=NCc2ccccn2)[nH]1

>  <score_type>  (30) 
oracle

>  <origin>  (30) 
adgpu

>  <m_score__min__energy>  (30) 
-7.1500000000000004

>  <m_primary>  (30) 
energy

$$$$
30:0
     RDKit          3D

 49 51  0  0  0  0  0  0  0  0999 V2000
   -0.4990   22.3180  -24.5610 C   0  0  0  0  0  0  0  0  0  0  0  0
   -0.3100   22.2340  -25.9700 O   0  0  0  0  0  0  0  0  0  0  0  0
   -1.2500   22.6510  -26.9260 C   0  0  0  0  0  0  0  0  0  0  0  0
   -1.8880   21.7400  -27.7900 C   0  0  0  0  0  0  0  0  0  0  0  0
   -2.8400   22.1860  -28.7100 C   0  0  0  0  0  0  0  0  0  0  0  0
   -3.1650   23.5440  -28.7870 C   0  0  0  0  0  0  0  0  0  0  0  0
   -4.3920   24.0850  -29.9280 S   0  0  0  0  0  0  0  0  0  0  0  0
   -3.8730   25.3090  -30.6310 O   0  0  0  0  0  0  0  0  0  0  0  0
   -5.6630   24.4390  -29.2070 O   0  0  0  0  0  0  0  0  0  0  0  0
   -4.7160   22.8230  -31.0840 N   0  0  0  0  0  0  0  0  0  0  0  0
   -3.5920   22.1550  -31.7420 C   0  0  0  0  0  0  0  0  0  0  0  0
   -6.0680   22.4170  -31.3670 C   0  0  0  0  0  0  0  0  0  0  0  0
   -6.3960   21.0540  -31.4900 C   0  0  0  0  0  0  0  0  0  0  0  0
   -7.7090   20.6630  -31.7690 C   0  0  0  0  0  0  0  0  0  0  0  0
   -8.7080   21.6270  -31.9310 C   0  0  0  0  0  0  0  0  0  0  0  0
   -8.3940   22.9830  -31.8190 C   0  0  0  0  0  0  0  0  0  0  0  0
   -7.0820   23.3790  -31.5410 C   0  0  0  0  0  0  0  0  0  0  0  0
   -2.5350   24.4560  -27.9310 C   0  0  0  0  0  0  0  0  0  0  0  0
   -1.5740   24.0190  -27.0070 C   0  0  0  0  0  0  0  0  0  0  0  0
   -0.9410   24.9650  -26.1290 N   0  0  0  0  0  0  0  0  0  0  0  0
    0.4920   25.2510  -26.2590 C   0  0  0  0  0  0  0  0  0  0  0  0
    1.1760   25.2990  -24.8760 C   0  0  0  0  0  0  0  0  0  0  0  0
    0.2450   25.5850  -23.7640 N   0  0  0  0  0  0  0  0  0  0  0  0
   -0.8630   26.4620  -24.1690 C   0  0  0  0  0  0  0  0  0  0  0  0
   -1.7550   25.7440  -25.1900 C   0  0  0  0  0  0  0  0  0  0  0  0
    0.3900   21.9229  -24.0476 H   0  0  0  0  0  0  0  0  0  0  0  0
   -0.6517   23.3687  -24.2735 H   0  0  0  0  0  0  0  0  0  0  0  0
   -1.3813   21.7273  -24.2735 H   0  0  0  0  0  0  0  0  0  0  0  0
   -1.6351   20.6706  -27.7401 H   0  0  0  0  0  0  0  0  0  0  0  0
   -3.3363   21.4657  -29.3769 H   0  0  0  0  0  0  0  0  0  0  0  0
   -2.9097   21.7495  -30.9804 H   0  0  0  0  0  0  0  0  0  0  0  0
   -3.9697   21.3347  -32.3700 H   0  0  0  0  0  0  0  0  0  0  0  0
   -3.0520   22.8788  -32.3700 H   0  0  0  0  0  0  0  0  0  0  0  0
   -5.6137   20.2907  -31.3657 H   0  0  0  0  0  0  0  0  0  0  0  0
   -7.9562   19.5951  -31.8612 H   0  0  0  0  0  0  0  0  0  0  0  0
   -9.7413   21.3176  -32.1467 H   0  0  0  0  0  0  0  0  0  0  0  0
   -9.1802   23.7411  -31.9497 H   0  0  0  0  0  0  0  0  0  0  0  0
   -6.8402   24.4489  -31.4577 H   0  0  0  0  0  0  0  0  0  0  0  0
   -2.7957   25.5234  -27.9836 H   0  0  0  0  0  0  0  0  0  0  0  0
    0.9622   24.4628  -26.8654 H   0  0  0  0  0  0  0  0  0  0  0  0
    0.6104   26.2322  -26.7419 H   0  0  0  0  0  0  0  0  0  0  0  0
    1.6515   24.3248  -24.6894 H   0  0  0  0  0  0  0  0  0  0  0  0
    1.9051   26.1221  -24.9056 H   0  0  0  0  0  0  0  0  0  0  0  0
    0.7740   26.0460  -22.9870 H   0  0  0  0  0  0  0  0  0  0  0  0
   -0.1450   24.6850  -23.3930 H   0  0  0  0  0  0  0  0  0  0  0  0
   -1.4612   26.7252  -23.2842 H   0  0  0  0  0  0  0  0  0  0  0  0
   -0.4525   27.3740  -24.6269 H   0  0  0  0  0  0  0  0  0  0  0  0
   -2.4406   25.0676  -24.6586 H   0  0  0  0  0  0  0  0  0  0  0  0
   -2.3247   26.4968  -25.7545 H   0  0  0  0  0  0  0  0  0  0  0  0
  1  2  1  0
  2  3  1  0
  3  4  2  0
  4  5  1  0
  5  6  2  0
  6  7  1  0
  7  8  2  0
  7  9  2  0
  7 10  1  0
 10 11  1  0
 10 12  1  0
 12 13  2  0
 13 14  1  0
 14 15  2  0
 15 16  1  0
 16 17  2  0
  6 18  1  0
 18 19  2  0
 19 20  1  0
 20 21  1  0
 21 22  1  0
 22 23  1  0
 23 24  1  0
 24 25  1  0
 19  3  1  0
 25 20  1  0
 17 12  1  0
  1 26  1  0
  1 27  1  0
  1 28  1  0
  4 29  1  0
  5 30  1  0
 11 31  1  0
 11 32  1  0
 11 33  1  0
 13 34  1  0
 14 35  1  0
 15 36  1  0
 16 37  1  0
 17 38  1  0
 18 39  1  0
 21 40  1  0
 21 41  1  0
 22 42  1  0
 22 43  1  0
 23 44  1  0
 23 45  1  0
 24 46  1  0
 24 47  1  0
 25 48  1  0
 25 49  1  0
M  CHG  1  23   1
M  END
>  <UniqueID>  (31) 
31

>  <SMILES>  (31) 
COc1ccc(S(=O)(=O)N(C)c2ccccc2)cc1N1CC[NH2+]CC1

>  <Energy>  (31) 
62.504119930123416

>  <Genealogy>  (31) 
COc1ccc(S(=O)(=O)N(C)c2ccccc2)cc1N1CC[NH2+]CC1 (protonated)
COc1ccc(S(=O)(=O)N(C)c2ccccc2)cc1N1CC[NH2+]CC1 (3D coordinates assigned)
COc1ccc(S(=O)(=O)N(C)c2ccccc2)cc1N1CC[NH2+]CC1 (nonaromatic ring conformer: 62.504119930123416 kcal/mol)

>  <smiles>  (31) 
COc1ccc(S(=O)(=O)N(C)c2ccccc2)cc1N1CCNCC1

>  <score_type>  (31) 
oracle

>  <origin>  (31) 
adgpu

>  <m_score__min__energy>  (31) 
-8.6999999999999993

>  <m_primary>  (31) 
energy

$$$$
31:0
     RDKit          3D

 27 29  0  0  0  0  0  0  0  0999 V2000
   -8.7010   20.3310  -32.3620 C   0  0  0  0  0  0  0  0  0  0  0  0
   -9.0860   21.4170  -31.5710 C   0  0  0  0  0  0  0  0  0  0  0  0
   -8.1260   22.3250  -31.1100 C   0  0  0  0  0  0  0  0  0  0  0  0
   -6.7690   22.1520  -31.4390 C   0  0  0  0  0  0  0  0  0  0  0  0
   -5.7540   23.1080  -30.9540 C   0  0  0  0  0  0  0  0  0  0  0  0
   -5.3650   24.2140  -31.6240 N   0  0  0  0  0  0  0  0  0  0  0  0
   -4.4540   24.7800  -30.8490 N   0  0  0  0  0  0  0  0  0  0  0  0
   -4.2980   24.0470  -29.7580 N   0  0  0  0  0  0  0  0  0  0  0  0
   -3.3870   24.3570  -28.6890 C   0  0  0  0  0  0  0  0  0  0  0  0
   -3.8610   24.5480  -27.3780 C   0  0  0  0  0  0  0  0  0  0  0  0
   -2.9720   24.8490  -26.3420 C   0  0  0  0  0  0  0  0  0  0  0  0
   -1.6040   24.9640  -26.6020 C   0  0  0  0  0  0  0  0  0  0  0  0
   -1.1230   24.7770  -27.9000 C   0  0  0  0  0  0  0  0  0  0  0  0
   -2.0070   24.4750  -28.9410 C   0  0  0  0  0  0  0  0  0  0  0  0
   -5.0950   22.9920  -29.7850 N   0  0  0  0  0  0  0  0  0  0  0  0
   -6.3920   21.0550  -32.2360 C   0  0  0  0  0  0  0  0  0  0  0  0
   -7.3560   20.1510  -32.6940 C   0  0  0  0  0  0  0  0  0  0  0  0
   -9.4569   19.6181  -32.7231 H   0  0  0  0  0  0  0  0  0  0  0  0
  -10.1453   21.5583  -31.3104 H   0  0  0  0  0  0  0  0  0  0  0  0
   -8.4338   23.1780  -30.4875 H   0  0  0  0  0  0  0  0  0  0  0  0
   -4.9370   24.4600  -27.1672 H   0  0  0  0  0  0  0  0  0  0  0  0
   -3.3504   24.9957  -25.3196 H   0  0  0  0  0  0  0  0  0  0  0  0
   -0.9065   25.2016  -25.7853 H   0  0  0  0  0  0  0  0  0  0  0  0
   -0.0459   24.8675  -28.1041 H   0  0  0  0  0  0  0  0  0  0  0  0
   -1.6222   24.3290  -29.9611 H   0  0  0  0  0  0  0  0  0  0  0  0
   -5.3343   20.9079  -32.4999 H   0  0  0  0  0  0  0  0  0  0  0  0
   -7.0544   19.2962  -33.3172 H   0  0  0  0  0  0  0  0  0  0  0  0
  1  2  2  0
  2  3  1  0
  3  4  2  0
  4  5  1  0
  5  6  1  0
  6  7  2  0
  7  8  1  0
  8  9  1  0
  9 10  2  0
 10 11  1  0
 11 12  2  0
 12 13  1  0
 13 14  2  0
  8 15  1  0
  4 16  1  0
 16 17  2  0
 17  1  1  0
 15  5  2  0
 14  9  1  0
  1 18  1  0
  2 19  1  0
  3 20  1  0
 10 21  1  0
 11 22  1  0
 12 23  1  0
 13 24  1  0
 14 25  1  0
 16 26  1  0
 17 27  1  0
M  END
>  <UniqueID>  (32) 
32

>  <SMILES>  (32) 
c1ccc(-c2nnn(-c3ccccc3)n2)cc1

>  <Energy>  (32) 
69.76859330745536

>  <Genealogy>  (32) 
c1ccc(-c2nnn(-c3ccccc3)n2)cc1 (3D coordinates assigned)
c1ccc(-c2nnn(-c3ccccc3)n2)cc1 (optimized conformer: 69.76859330745536 kcal/mol)

>  <smiles>  (32) 
c1ccc(-c2nnn(-c3ccccc3)n2)cc1

>  <score_type>  (32) 
oracle

>  <origin>  (32) 
adgpu

>  <m_score__min__energy>  (32) 
-7.6500000000000004

>  <m_primary>  (32) 
energy

$$$$
32:0
     RDKit          3D

 34 35  0  0  0  0  0  0  0  0999 V2000
   -8.8720   19.4900  -32.6820 C   0  0  0  0  0  0  0  0  0  0  0  0
   -8.0850   20.6880  -32.2410 C   0  0  0  0  0  0  0  0  0  0  0  0
   -8.6320   21.5930  -31.3170 C   0  0  0  0  0  0  0  0  0  0  0  0
   -7.8860   22.6900  -30.8760 C   0  0  0  0  0  0  0  0  0  0  0  0
   -6.5800   22.8890  -31.3470 C   0  0  0  0  0  0  0  0  0  0  0  0
   -5.6180   24.2520  -30.7830 S   0  0  0  0  0  0  0  0  0  0  0  0
   -6.0850   25.4980  -31.4800 O   0  0  0  0  0  0  0  0  0  0  0  0
   -5.7960   24.4380  -29.3010 O   0  0  0  0  0  0  0  0  0  0  0  0
   -3.9400   23.9860  -31.1470 N   0  0  0  0  0  0  0  0  0  0  0  0
   -3.3150   23.2150  -30.0680 C   0  0  0  0  0  0  0  0  0  0  0  0
   -2.9770   24.1250  -28.8790 C   0  0  1  0  0  0  0  0  0  0  0  0
   -2.0710   23.4490  -27.8600 C   0  0  0  0  0  0  0  0  0  0  0  0
   -1.2940   24.6000  -27.3040 C   0  0  0  0  0  0  0  0  0  0  0  0
   -1.2920   25.5970  -28.4460 C   0  0  0  0  0  0  0  0  0  0  0  0
   -2.3370   25.2940  -29.3420 O   0  0  0  0  0  0  0  0  0  0  0  0
   -6.0230   21.9730  -32.2500 C   0  0  0  0  0  0  0  0  0  0  0  0
   -6.7700   20.8770  -32.6920 C   0  0  0  0  0  0  0  0  0  0  0  0
   -9.2319   18.9422  -31.7986 H   0  0  0  0  0  0  0  0  0  0  0  0
   -9.7314   19.8177  -33.2854 H   0  0  0  0  0  0  0  0  0  0  0  0
   -8.2300   18.8314  -33.2854 H   0  0  0  0  0  0  0  0  0  0  0  0
   -9.6530   21.4379  -30.9382 H   0  0  0  0  0  0  0  0  0  0  0  0
   -8.3243   23.3987  -30.1579 H   0  0  0  0  0  0  0  0  0  0  0  0
   -3.4920   24.9300  -31.1790 H   0  0  0  0  0  0  0  0  0  0  0  0
   -4.0097   22.4294  -29.7359 H   0  0  0  0  0  0  0  0  0  0  0  0
   -2.3849   22.7657  -30.4462 H   0  0  0  0  0  0  0  0  0  0  0  0
   -3.9285   24.3643  -28.3816 H   0  0  0  0  0  0  0  0  0  0  0  0
   -2.6583   22.9497  -27.0753 H   0  0  0  0  0  0  0  0  0  0  0  0
   -1.4377   22.6599  -28.2916 H   0  0  0  0  0  0  0  0  0  0  0  0
   -1.7893   25.0184  -26.4154 H   0  0  0  0  0  0  0  0  0  0  0  0
   -0.2832   24.3197  -26.9729 H   0  0  0  0  0  0  0  0  0  0  0  0
   -1.4357   26.6116  -28.0461 H   0  0  0  0  0  0  0  0  0  0  0  0
   -0.3297   25.5422  -28.9762 H   0  0  0  0  0  0  0  0  0  0  0  0
   -4.9944   22.1170  -32.6122 H   0  0  0  0  0  0  0  0  0  0  0  0
   -6.3246   20.1594  -33.3968 H   0  0  0  0  0  0  0  0  0  0  0  0
  1  2  1  0
  2  3  2  0
  3  4  1  0
  4  5  2  0
  5  6  1  0
  6  7  2  0
  6  8  2  0
  6  9  1  0
  9 10  1  0
 10 11  1  0
 11 12  1  0
 12 13  1  0
 13 14  1  0
 14 15  1  0
  5 16  1  0
 16 17  2  0
 17  2  1  0
 15 11  1  0
  1 18  1  0
  1 19  1  0
  1 20  1  0
  3 21  1  0
  4 22  1  0
  9 23  1  0
 10 24  1  0
 10 25  1  0
 11 26  1  1
 12 27  1  0
 12 28  1  0
 13 29  1  0
 13 30  1  0
 14 31  1  0
 14 32  1  0
 16 33  1  0
 17 34  1  0
M  END
>  <UniqueID>  (33) 
33

>  <SMILES>  (33) 
Cc1ccc(S(=O)(=O)NC[C@H]2CCCO2)cc1

>  <Energy>  (33) 
28.108818310624002

>  <Genealogy>  (33) 
Cc1ccc(S(=O)(=O)NC[C@H]2CCCO2)cc1 (chirality)
Cc1ccc(S(=O)(=O)NC[C@H]2CCCO2)cc1 (3D coordinates assigned)
Cc1ccc(S(=O)(=O)NC[C@H]2CCCO2)cc1 (nonaromatic ring conformer: 28.108818310624002 kcal/mol)

>  <smiles>  (33) 
Cc1ccc(S(=O)(=O)NCC2CCCO2)cc1

>  <score_type>  (33) 
oracle

>  <origin>  (33) 
adgpu

>  <m_score__min__energy>  (33) 
-8.0399999999999991

>  <m_primary>  (33) 
energy

$$$$
33:0
     RDKit          3D

 25 26  0  0  0  0  0  0  0  0999 V2000
   -4.2600   24.1170  -28.4910 C   0  0  0  0  0  0  0  0  0  0  0  0
   -4.3890   24.9120  -30.1240 S   0  0  0  0  0  0  0  0  0  0  0  0
   -5.7750   23.8970  -30.6400 C   0  0  0  0  0  0  0  0  0  0  0  0
   -6.1740   23.8860  -31.9820 C   0  0  0  0  0  0  0  0  0  0  0  0
   -7.2550   23.0960  -32.3850 C   0  0  0  0  0  0  0  0  0  0  0  0
   -7.9390   22.3120  -31.4470 C   0  0  0  0  0  0  0  0  0  0  0  0
   -9.3190   21.2920  -31.9650 S   0  0  0  0  0  0  0  0  0  0  0  0
   -8.2490   19.9490  -32.4740 C   0  0  0  0  0  0  0  0  0  0  0  0
   -8.3970   18.6770  -31.9170 C   0  0  0  0  0  0  0  0  0  0  0  0
   -7.5440   17.6610  -32.3490 C   0  0  0  0  0  0  0  0  0  0  0  0
   -6.5980   17.9220  -33.2860 N   0  0  0  0  0  0  0  0  0  0  0  0
   -6.4660   19.1680  -33.8150 C   0  0  0  0  0  0  0  0  0  0  0  0
   -7.2870   20.1710  -33.4090 N   0  0  0  0  0  0  0  0  0  0  0  0
   -7.5450   22.3310  -30.1040 C   0  0  0  0  0  0  0  0  0  0  0  0
   -6.4650   23.1220  -29.7010 C   0  0  0  0  0  0  0  0  0  0  0  0
   -4.3830   24.8750  -27.7034 H   0  0  0  0  0  0  0  0  0  0  0  0
   -5.0461   23.3540  -28.3915 H   0  0  0  0  0  0  0  0  0  0  0  0
   -3.2730   23.6417  -28.3915 H   0  0  0  0  0  0  0  0  0  0  0  0
   -5.6365   24.4995  -32.7201 H   0  0  0  0  0  0  0  0  0  0  0  0
   -7.5685   23.0901  -33.4393 H   0  0  0  0  0  0  0  0  0  0  0  0
   -9.1671   18.4809  -31.1564 H   0  0  0  0  0  0  0  0  0  0  0  0
   -7.6384   16.6483  -31.9300 H   0  0  0  0  0  0  0  0  0  0  0  0
   -5.6931   19.3638  -34.5728 H   0  0  0  0  0  0  0  0  0  0  0  0
   -8.0861   21.7225  -29.3644 H   0  0  0  0  0  0  0  0  0  0  0  0
   -6.1573   23.1352  -28.6450 H   0  0  0  0  0  0  0  0  0  0  0  0
  1  2  1  0
  2  3  1  0
  3  4  2  0
  4  5  1  0
  5  6  2  0
  6  7  1  0
  7  8  1  0
  8  9  2  0
  9 10  1  0
 10 11  2  0
 11 12  1  0
 12 13  2  0
  6 14  1  0
 14 15  2  0
 15  3  1  0
 13  8  1  0
  1 16  1  0
  1 17  1  0
  1 18  1  0
  4 19  1  0
  5 20  1  0
  9 21  1  0
 10 22  1  0
 12 23  1  0
 14 24  1  0
 15 25  1  0
M  END
>  <UniqueID>  (34) 
34

>  <SMILES>  (34) 
CSc1ccc(Sc2ccncn2)cc1

>  <Energy>  (34) 
18.108302834437115

>  <Genealogy>  (34) 
CSc1ccc(Sc2ccncn2)cc1 (3D coordinates assigned)
CSc1ccc(Sc2ccncn2)cc1 (optimized conformer: 18.108302834437115 kcal/mol)

>  <smiles>  (34) 
CSc1ccc(Sc2ccncn2)cc1

>  <score_type>  (34) 
oracle

>  <origin>  (34) 
adgpu

>  <m_score__min__energy>  (34) 
-6.5800000000000001

>  <m_primary>  (34) 
energy

$$$$
34:0
     RDKit          3D

 36 38  0  0  0  0  0  0  0  0999 V2000
   -4.1790   24.3950  -27.1600 C   0  0  0  0  0  0  0  0  0  0  0  0
   -4.3340   23.8790  -28.5600 C   0  0  0  0  0  0  0  0  0  0  0  0
   -3.7740   22.6450  -28.9240 C   0  0  0  0  0  0  0  0  0  0  0  0
   -3.8860   22.1800  -30.2380 C   0  0  0  0  0  0  0  0  0  0  0  0
   -4.5400   22.9520  -31.2120 C   0  0  0  0  0  0  0  0  0  0  0  0
   -4.6630   22.4450  -32.6260 C   0  0  0  0  0  0  0  0  0  0  0  0
   -5.5390   21.2170  -32.6940 C   0  0  0  0  0  0  0  0  0  0  0  0
   -4.9650   20.0560  -33.1050 N   0  0  0  0  0  0  0  0  0  0  0  0
   -5.6450   18.9150  -33.2330 N   0  0  0  0  0  0  0  0  0  0  0  0
   -4.9270   17.7230  -33.6830 C   0  0  0  0  0  0  0  0  0  0  0  0
   -6.9830   18.8630  -32.9570 C   0  0  0  0  0  0  0  0  0  0  0  0
   -7.6140   17.7760  -33.0860 O   0  0  0  0  0  0  0  0  0  0  0  0
   -7.6510   20.0240  -32.5320 C   0  0  0  0  0  0  0  0  0  0  0  0
   -9.0300   20.0080  -32.2430 C   0  0  0  0  0  0  0  0  0  0  0  0
   -9.6770   21.1720  -31.8250 C   0  0  0  0  0  0  0  0  0  0  0  0
   -8.9610   22.3590  -31.6890 C   0  0  0  0  0  0  0  0  0  0  0  0
   -7.5940   22.3940  -31.9690 C   0  0  0  0  0  0  0  0  0  0  0  0
   -6.9200   21.2300  -32.3960 C   0  0  0  0  0  0  0  0  0  0  0  0
   -5.0980   24.1890  -30.8450 C   0  0  0  0  0  0  0  0  0  0  0  0
   -4.9850   24.6530  -29.5310 C   0  0  0  0  0  0  0  0  0  0  0  0
   -4.4196   23.5942  -26.4453 H   0  0  0  0  0  0  0  0  0  0  0  0
   -3.1417   24.7262  -27.0040 H   0  0  0  0  0  0  0  0  0  0  0  0
   -4.8621   25.2430  -27.0040 H   0  0  0  0  0  0  0  0  0  0  0  0
   -3.2446   22.0408  -28.1725 H   0  0  0  0  0  0  0  0  0  0  0  0
   -3.4592   21.2035  -30.5105 H   0  0  0  0  0  0  0  0  0  0  0  0
   -5.1033   23.2345  -33.2528 H   0  0  0  0  0  0  0  0  0  0  0  0
   -3.6594   22.1761  -32.9871 H   0  0  0  0  0  0  0  0  0  0  0  0
   -4.5823   17.1508  -32.8090 H   0  0  0  0  0  0  0  0  0  0  0  0
   -5.5987   17.0974  -34.2892 H   0  0  0  0  0  0  0  0  0  0  0  0
   -4.0600   18.0242  -34.2892 H   0  0  0  0  0  0  0  0  0  0  0  0
   -9.5999   19.0729  -32.3474 H   0  0  0  0  0  0  0  0  0  0  0  0
  -10.7541   21.1519  -31.6026 H   0  0  0  0  0  0  0  0  0  0  0  0
   -9.4755   23.2736  -31.3592 H   0  0  0  0  0  0  0  0  0  0  0  0
   -7.0377   23.3362  -31.8559 H   0  0  0  0  0  0  0  0  0  0  0  0
   -5.6263   24.7951  -31.5957 H   0  0  0  0  0  0  0  0  0  0  0  0
   -5.4091   25.6304  -29.2576 H   0  0  0  0  0  0  0  0  0  0  0  0
  1  2  1  0
  2  3  2  0
  3  4  1  0
  4  5  2  0
  5  6  1  0
  6  7  1  0
  7  8  2  0
  8  9  1  0
  9 10  1  0
  9 11  1  0
 11 12  2  0
 11 13  1  0
 13 14  2  0
 14 15  1  0
 15 16  2  0
 16 17  1  0
 17 18  2  0
  5 19  1  0
 19 20  2  0
 20  2  1  0
 18  7  1  0
 18 13  1  0
  1 21  1  0
  1 22  1  0
  1 23  1  0
  3 24  1  0
  4 25  1  0
  6 26  1  0
  6 27  1  0
 10 28  1  0
 10 29  1  0
 10 30  1  0
 14 31  1  0
 15 32  1  0
 16 33  1  0
 17 34  1  0
 19 35  1  0
 20 36  1  0
M  END
>  <UniqueID>  (35) 
35

>  <SMILES>  (35) 
Cc1ccc(Cc2nn(C)c(=O)c3ccccc23)cc1

>  <Energy>  (35) 
44.025382521455846

>  <Genealogy>  (35) 
Cc1ccc(Cc2nn(C)c(=O)c3ccccc23)cc1 (3D coordinates assigned)
Cc1ccc(Cc2nn(C)c(=O)c3ccccc23)cc1 (optimized conformer: 44.025382521455846 kcal/mol)

>  <smiles>  (35) 
Cc1ccc(Cc2nn(C)c(=O)c3ccccc23)cc1

>  <score_type>  (35) 
oracle

>  <origin>  (35) 
adgpu

>  <m_score__min__energy>  (35) 
-7.8499999999999996

>  <m_primary>  (35) 
energy

$$$$
35:0
     RDKit          3D

 24 25  0  0  0  0  0  0  0  0999 V2000
   -7.8220   18.6820  -32.6790 N   0  0  0  0  0  0  0  0  0  0  0  0
   -8.0200   20.0450  -32.2930 C   0  0  0  0  0  0  0  0  0  0  0  0
   -9.3000   20.6120  -32.3460 C   0  0  0  0  0  0  0  0  0  0  0  0
   -9.4950   21.9410  -31.9660 C   0  0  0  0  0  0  0  0  0  0  0  0
   -8.4140   22.7130  -31.5300 C   0  0  0  0  0  0  0  0  0  0  0  0
   -7.1220   22.1600  -31.4710 C   0  0  0  0  0  0  0  0  0  0  0  0
   -5.9720   22.9810  -31.0100 C   0  0  0  0  0  0  0  0  0  0  0  0
   -4.6640   22.4610  -31.0410 C   0  0  0  0  0  0  0  0  0  0  0  0
   -3.5840   23.2340  -30.6060 C   0  0  0  0  0  0  0  0  0  0  0  0
   -3.7950   24.5330  -30.1340 C   0  0  0  0  0  0  0  0  0  0  0  0
   -2.7200   25.2990  -29.7020 O   0  0  0  0  0  0  0  0  0  0  0  0
   -5.0890   25.0590  -30.0970 C   0  0  0  0  0  0  0  0  0  0  0  0
   -6.1730   24.2890  -30.5320 C   0  0  0  0  0  0  0  0  0  0  0  0
   -6.9350   20.8200  -31.8570 C   0  0  0  0  0  0  0  0  0  0  0  0
   -8.2200   18.3160  -33.5730 H   0  0  0  0  0  0  0  0  0  0  0  0
   -7.2750   18.0280  -32.0740 H   0  0  0  0  0  0  0  0  0  0  0  0
  -10.1536   20.0083  -32.6880 H   0  0  0  0  0  0  0  0  0  0  0  0
  -10.5018   22.3820  -32.0097 H   0  0  0  0  0  0  0  0  0  0  0  0
   -8.5748   23.7594  -31.2312 H   0  0  0  0  0  0  0  0  0  0  0  0
   -4.4909   21.4393  -31.4101 H   0  0  0  0  0  0  0  0  0  0  0  0
   -2.5655   22.8194  -30.6350 H   0  0  0  0  0  0  0  0  0  0  0  0
   -5.2557   26.0807  -29.7250 H   0  0  0  0  0  0  0  0  0  0  0  0
   -7.1892   24.7089  -30.5001 H   0  0  0  0  0  0  0  0  0  0  0  0
   -5.9293   20.3762  -31.8166 H   0  0  0  0  0  0  0  0  0  0  0  0
  1  2  1  0
  2  3  2  0
  3  4  1  0
  4  5  2  0
  5  6  1  0
  6  7  1  0
  7  8  2  0
  8  9  1  0
  9 10  2  0
 10 11  1  0
 10 12  1  0
 12 13  2  0
  6 14  2  0
 14  2  1  0
 13  7  1  0
  1 15  1  0
  1 16  1  0
  3 17  1  0
  4 18  1  0
  5 19  1  0
  8 20  1  0
  9 21  1  0
 12 22  1  0
 13 23  1  0
 14 24  1  0
M  CHG  1  11  -1
M  END
>  <UniqueID>  (36) 
36

>  <SMILES>  (36) 
Nc1cccc(-c2ccc([O-])cc2)c1

>  <Energy>  (36) 
29.180002030958544

>  <Genealogy>  (36) 
Nc1cccc(-c2ccc([O-])cc2)c1 (protonated)
Nc1cccc(-c2ccc([O-])cc2)c1 (3D coordinates assigned)
Nc1cccc(-c2ccc([O-])cc2)c1 (optimized conformer: 29.180002030958544 kcal/mol)

>  <smiles>  (36) 
Nc1cccc(-c2ccc(O)cc2)c1

>  <score_type>  (36) 
oracle

>  <origin>  (36) 
adgpu

>  <m_score__min__energy>  (36) 
-9.4900000000000002

>  <m_primary>  (36) 
energy

$$$$
36:0
     RDKit          3D

 34 36  0  0  0  0  0  0  0  0999 V2000
   -2.8580   24.9710  -29.3650 F   0  0  0  0  0  0  0  0  0  0  0  0
   -3.9080   24.5500  -30.1140 C   0  0  0  0  0  0  0  0  0  0  0  0
   -5.0890   25.2950  -30.1410 C   0  0  0  0  0  0  0  0  0  0  0  0
   -6.1720   24.8620  -30.9130 C   0  0  0  0  0  0  0  0  0  0  0  0
   -6.0850   23.6800  -31.6670 C   0  0  0  0  0  0  0  0  0  0  0  0
   -7.2190   23.2650  -32.4540 N   0  0  0  0  0  0  0  0  0  0  0  0
   -8.3810   22.5560  -31.9180 C   0  0  0  0  0  0  0  0  0  0  0  0
   -8.2640   21.0840  -32.1710 C   0  0  0  0  0  0  0  0  0  0  0  0
   -9.2850   20.1580  -32.2000 C   0  0  0  0  0  0  0  0  0  0  0  0
   -8.7700   18.9460  -32.4830 N   0  0  0  0  0  0  0  0  0  0  0  0
   -7.4600   19.0810  -32.6420 N   0  0  0  0  0  0  0  0  0  0  0  0
   -6.5780   17.9800  -32.9470 C   0  0  0  0  0  0  0  0  0  0  0  0
   -6.1050   17.8020  -34.2610 C   0  0  0  0  0  0  0  0  0  0  0  0
   -5.2490   16.7410  -34.5720 C   0  0  0  0  0  0  0  0  0  0  0  0
   -4.8520   15.8460  -33.5760 C   0  0  0  0  0  0  0  0  0  0  0  0
   -5.3090   16.0130  -32.2670 C   0  0  0  0  0  0  0  0  0  0  0  0
   -6.1650   17.0720  -31.9500 C   0  0  0  0  0  0  0  0  0  0  0  0
   -7.1190   20.3760  -32.4610 C   0  0  0  0  0  0  0  0  0  0  0  0
   -4.8900   22.9340  -31.6280 C   0  0  0  0  0  0  0  0  0  0  0  0
   -3.8090   23.3700  -30.8550 C   0  0  0  0  0  0  0  0  0  0  0  0
   -5.1675   26.2226  -29.5550 H   0  0  0  0  0  0  0  0  0  0  0  0
   -7.1001   25.4523  -30.9298 H   0  0  0  0  0  0  0  0  0  0  0  0
   -7.2100   23.4560  -33.4810 H   0  0  0  0  0  0  0  0  0  0  0  0
   -8.4438   22.7326  -30.8341 H   0  0  0  0  0  0  0  0  0  0  0  0
   -9.2864   22.9307  -32.4179 H   0  0  0  0  0  0  0  0  0  0  0  0
  -10.3486   20.3741  -32.0209 H   0  0  0  0  0  0  0  0  0  0  0  0
   -6.4117   18.5041  -35.0503 H   0  0  0  0  0  0  0  0  0  0  0  0
   -4.8877   16.6110  -35.6028 H   0  0  0  0  0  0  0  0  0  0  0  0
   -4.1802   15.0106  -33.8223 H   0  0  0  0  0  0  0  0  0  0  0  0
   -4.9944   15.3089  -31.4826 H   0  0  0  0  0  0  0  0  0  0  0  0
   -6.5187   17.1978  -30.9161 H   0  0  0  0  0  0  0  0  0  0  0  0
   -6.1033   20.7923  -32.5328 H   0  0  0  0  0  0  0  0  0  0  0  0
   -4.8070   22.0035  -32.2088 H   0  0  0  0  0  0  0  0  0  0  0  0
   -2.8792   22.7827  -30.8305 H   0  0  0  0  0  0  0  0  0  0  0  0
  1  2  1  0
  2  3  2  0
  3  4  1  0
  4  5  2  0
  5  6  1  0
  6  7  1  0
  7  8  1  0
  8  9  1  0
  9 10  2  0
 10 11  1  0
 11 12  1  0
 12 13  2  0
 13 14  1  0
 14 15  2  0
 15 16  1  0
 16 17  2  0
 11 18  1  0
  5 19  1  0
 19 20  2  0
 20  2  1  0
 18  8  2  0
 17 12  1  0
  3 21  1  0
  4 22  1  0
  6 23  1  0
  7 24  1  0
  7 25  1  0
  9 26  1  0
 13 27  1  0
 14 28  1  0
 15 29  1  0
 16 30  1  0
 17 31  1  0
 18 32  1  0
 19 33  1  0
 20 34  1  0
M  END
>  <UniqueID>  (37) 
37

>  <SMILES>  (37) 
Fc1ccc(NCc2cnn(-c3ccccc3)c2)cc1

>  <Energy>  (37) 
67.80953169525765

>  <Genealogy>  (37) 
Fc1ccc(NCc2cnn(-c3ccccc3)c2)cc1 (3D coordinates assigned)
Fc1ccc(NCc2cnn(-c3ccccc3)c2)cc1 (optimized conformer: 67.80953169525765 kcal/mol)

>  <smiles>  (37) 
Fc1ccc(NCc2cnn(-c3ccccc3)c2)cc1

>  <score_type>  (37) 
oracle

>  <origin>  (37) 
adgpu

>  <m_score__min__energy>  (37) 
-7.6299999999999999

>  <m_primary>  (37) 
energy

$$$$
37:0
     RDKit          3D

 22 23  0  0  0  0  0  0  0  0999 V2000
   -3.8230   25.2920  -30.1190 N   0  0  0  0  0  0  0  0  0  0  0  0
   -4.7630   24.3050  -30.5540 C   0  0  0  0  0  0  0  0  0  0  0  0
   -4.3170   23.1380  -31.1850 C   0  0  0  0  0  0  0  0  0  0  0  0
   -5.2340   22.1730  -31.6120 C   0  0  0  0  0  0  0  0  0  0  0  0
   -6.6150   22.3610  -31.4130 C   0  0  0  0  0  0  0  0  0  0  0  0
   -7.5630   21.3670  -31.8520 N   0  0  0  0  0  0  0  0  0  0  0  0
   -8.9100   21.4680  -31.8200 C   0  0  0  0  0  0  0  0  0  0  0  0
   -9.4810   20.3170  -32.3230 C   0  0  0  0  0  0  0  0  0  0  0  0
   -8.4410   19.4820  -32.6770 C   0  0  0  0  0  0  0  0  0  0  0  0
   -7.2750   20.1550  -32.3750 C   0  0  0  0  0  0  0  0  0  0  0  0
   -7.0540   23.5380  -30.7770 C   0  0  0  0  0  0  0  0  0  0  0  0
   -6.1340   24.5020  -30.3530 C   0  0  0  0  0  0  0  0  0  0  0  0
   -3.1090   25.6790  -30.7770 H   0  0  0  0  0  0  0  0  0  0  0  0
   -3.8330   25.6430  -29.1350 H   0  0  0  0  0  0  0  0  0  0  0  0
   -3.2404   22.9795  -31.3456 H   0  0  0  0  0  0  0  0  0  0  0  0
   -4.8736   21.2594  -32.1075 H   0  0  0  0  0  0  0  0  0  0  0  0
   -9.4689   22.3393  -31.4479 H   0  0  0  0  0  0  0  0  0  0  0  0
  -10.5560   20.1061  -32.4225 H   0  0  0  0  0  0  0  0  0  0  0  0
   -8.5251   18.4763  -33.1145 H   0  0  0  0  0  0  0  0  0  0  0  0
   -6.2602   19.7625  -32.5363 H   0  0  0  0  0  0  0  0  0  0  0  0
   -8.1294   23.7005  -30.6123 H   0  0  0  0  0  0  0  0  0  0  0  0
   -6.4892   25.4187  -29.8596 H   0  0  0  0  0  0  0  0  0  0  0  0
  1  2  1  0
  2  3  2  0
  3  4  1  0
  4  5  2  0
  5  6  1  0
  6  7  1  0
  7  8  2  0
  8  9  1  0
  9 10  2  0
  5 11  1  0
 11 12  2  0
 12  2  1  0
 10  6  1  0
  1 13  1  0
  1 14  1  0
  3 15  1  0
  4 16  1  0
  7 17  1  0
  8 18  1  0
  9 19  1  0
 10 20  1  0
 11 21  1  0
 12 22  1  0
M  END
>  <UniqueID>  (38) 
38

>  <SMILES>  (38) 
Nc1ccc(-n2cccc2)cc1

>  <Energy>  (38) 
50.60481631439895

>  <Genealogy>  (38) 
Nc1ccc(-n2cccc2)cc1 (3D coordinates assigned)
Nc1ccc(-n2cccc2)cc1 (optimized conformer: 50.60481631439895 kcal/mol)

>  <smiles>  (38) 
Nc1ccc(-n2cccc2)cc1

>  <score_type>  (38) 
oracle

>  <origin>  (38) 
adgpu

>  <m_score__min__energy>  (38) 
-6.2800000000000002

>  <m_primary>  (38) 
energy

$$$$
38:0
     RDKit          3D

 41 43  0  0  1  0  0  0  0  0999 V2000
   -0.9720   26.7900  -24.0940 C   0  0  0  0  0  0  0  0  0  0  0  0
   -0.6070   26.5210  -25.4390 O   0  0  0  0  0  0  0  0  0  0  0  0
    0.6010   25.8670  -25.6420 C   0  0  0  0  0  0  0  0  0  0  0  0
    1.5600   25.7340  -24.6560 C   0  0  0  0  0  0  0  0  0  0  0  0
    2.7610   25.0860  -24.8520 C   0  0  0  0  0  0  0  0  0  0  0  0
    3.0500   24.5350  -26.0740 C   0  0  0  0  0  0  0  0  0  0  0  0
    4.2190   23.8860  -26.3200 F   0  0  0  0  0  0  0  0  0  0  0  0
    2.1190   24.6500  -27.0730 C   0  0  0  0  0  0  0  0  0  0  0  0
    0.9010   25.2960  -26.9110 C   0  0  0  0  0  0  0  0  0  0  0  0
   -0.0480   25.5100  -27.9050 N   0  0  0  0  0  0  0  0  0  0  0  0
   -1.0450   24.7930  -28.1260 C   0  0  0  0  0  0  0  0  0  0  0  0
   -1.8600   25.1830  -29.1600 N   0  0  0  0  0  0  0  0  0  0  0  0
   -2.9570   24.5040  -29.5060 C   0  0  0  0  0  0  0  0  0  0  0  0
   -3.6830   24.9210  -30.4860 N   0  0  0  0  0  0  0  0  0  0  0  0
   -4.8420   24.1640  -30.8150 C   0  0  0  0  0  0  0  0  0  0  0  0
   -6.0530   24.5850  -30.2580 C   0  0  0  0  0  0  0  0  0  0  0  0
   -7.2260   23.9100  -30.5240 C   0  0  0  0  0  0  0  0  0  0  0  0
   -7.1950   22.8100  -31.3510 C   0  0  0  0  0  0  0  0  0  0  0  0
   -5.9860   22.3900  -31.9070 C   0  0  0  0  0  0  0  0  0  0  0  0
   -5.9590   21.2950  -32.7290 F   0  0  0  0  0  0  0  0  0  0  0  0
   -4.8070   23.0580  -31.6480 C   0  0  0  0  0  0  0  0  0  0  0  0
   -3.2630   23.4030  -28.8060 N   0  0  0  0  0  0  0  0  0  0  0  0
   -2.5050   22.9950  -27.8030 C   0  0  0  0  0  0  0  0  0  0  0  0
   -1.3340   23.6670  -27.3900 C   0  0  0  0  0  0  0  0  0  0  0  0
   -0.5410   23.1580  -26.2770 C   0  0  0  0  0  0  0  0  0  0  0  0
   -0.2752   26.2764  -23.4153 H   0  0  0  0  0  0  0  0  0  0  0  0
   -0.9290   27.8740  -23.9122 H   0  0  0  0  0  0  0  0  0  0  0  0
   -1.9947   26.4280  -23.9122 H   0  0  0  0  0  0  0  0  0  0  0  0
    1.3550   26.1666  -23.6656 H   0  0  0  0  0  0  0  0  0  0  0  0
    3.4868   25.0110  -24.0288 H   0  0  0  0  0  0  0  0  0  0  0  0
    2.3486   24.2077  -28.0536 H   0  0  0  0  0  0  0  0  0  0  0  0
   -1.6340   26.0490  -29.7230 H   0  0  0  0  0  0  0  0  0  0  0  0
   -6.0707   25.4657  -29.5992 H   0  0  0  0  0  0  0  0  0  0  0  0
   -8.1748   24.2466  -30.0807 H   0  0  0  0  0  0  0  0  0  0  0  0
   -8.1227   22.2624  -31.5734 H   0  0  0  0  0  0  0  0  0  0  0  0
   -3.8598   22.7196  -32.0934 H   0  0  0  0  0  0  0  0  0  0  0  0
   -4.1260   22.8680  -29.0760 H   0  0  0  0  0  0  0  0  0  0  0  0
   -2.8020   22.0845  -27.2619 H   0  0  0  0  0  0  0  0  0  0  0  0
   -1.0077   23.4576  -25.3270 H   0  0  0  0  0  0  0  0  0  0  0  0
   -0.4937   22.0604  -26.3322 H   0  0  0  0  0  0  0  0  0  0  0  0
    0.4766   23.5721  -26.3322 H   0  0  0  0  0  0  0  0  0  0  0  0
  1  2  1  0
  2  3  1  0
  3  4  2  0
  4  5  1  0
  5  6  2  0
  6  7  1  0
  6  8  1  0
  8  9  2  0
  9 10  1  0
 10 11  2  0
 11 12  1  0
 12 13  1  0
 13 14  2  0
 14 15  1  0
 15 16  2  0
 16 17  1  0
 17 18  2  0
 18 19  1  0
 19 20  1  0
 19 21  2  0
 13 22  1  0
 22 23  1  0
 23 24  2  0
 24 25  1  0
  9  3  1  0
 24 11  1  0
 21 15  1  0
  1 26  1  0
  1 27  1  0
  1 28  1  0
  4 29  1  0
  5 30  1  0
  8 31  1  0
 12 32  1  0
 16 33  1  0
 17 34  1  0
 18 35  1  0
 21 36  1  0
 22 37  1  0
 23 38  1  0
 25 39  1  0
 25 40  1  0
 25 41  1  0
M  END
>  <smiles>  (39) 
COc1ccc(F)cc1N=c1[nH]c(=Nc2cccc(F)c2)[nH]cc1C

>  <score_type>  (39) 
oracle

>  <origin>  (39) 
adgpu

>  <m_score__min__energy>  (39) 
-8.2799999999999994

>  <m_primary>  (39) 
energy

$$$$
39:0
     RDKit          3D

 46 49  0  0  0  0  0  0  0  0999 V2000
    0.0410   23.3300  -26.0690 C   0  0  0  0  0  0  0  0  0  0  0  0
    0.1230   23.6980  -27.5160 C   0  0  0  0  0  0  0  0  0  0  0  0
    1.2550   23.9210  -28.0230 O   0  0  0  0  0  0  0  0  0  0  0  0
   -1.0850   23.8040  -28.3630 C   0  0  0  0  0  0  0  0  0  0  0  0
   -1.5640   24.9290  -29.0210 C   0  0  0  0  0  0  0  0  0  0  0  0
   -1.0220   26.2120  -29.0360 O   0  0  0  0  0  0  0  0  0  0  0  0
   -2.6820   24.5410  -29.7200 C   0  0  0  0  0  0  0  0  0  0  0  0
   -3.4710   25.3850  -30.4930 O   0  0  0  0  0  0  0  0  0  0  0  0
   -2.9200   23.2270  -29.5430 N   0  0  0  0  0  0  0  0  0  0  0  0
   -4.0360   22.4960  -30.0830 C   0  0  0  0  0  0  0  0  0  0  0  0
   -5.3450   22.9720  -29.9170 C   0  0  0  0  0  0  0  0  0  0  0  0
   -6.4290   22.2560  -30.4310 C   0  0  0  0  0  0  0  0  0  0  0  0
   -6.2230   21.0520  -31.1280 C   0  0  0  0  0  0  0  0  0  0  0  0
   -7.3740   20.2880  -31.6720 C   0  0  0  0  0  0  0  0  0  0  0  0
   -8.5640   20.9480  -32.0350 C   0  0  0  0  0  0  0  0  0  0  0  0
   -9.6470   20.2260  -32.5480 C   0  0  0  0  0  0  0  0  0  0  0  0
   -9.5550   18.8410  -32.7040 C   0  0  0  0  0  0  0  0  0  0  0  0
   -8.3800   18.1750  -32.3470 C   0  0  0  0  0  0  0  0  0  0  0  0
   -7.2950   18.8910  -31.8350 C   0  0  0  0  0  0  0  0  0  0  0  0
   -4.9080   20.5830  -31.3000 C   0  0  0  0  0  0  0  0  0  0  0  0
   -3.8250   21.3010  -30.7840 C   0  0  0  0  0  0  0  0  0  0  0  0
   -1.9470   22.7630  -28.7170 C   0  0  0  0  0  0  0  0  0  0  0  0
   -1.8220   21.3550  -28.2800 C   0  0  0  0  0  0  0  0  0  0  0  0
   -0.7180   20.5810  -28.6770 C   0  0  0  0  0  0  0  0  0  0  0  0
   -0.5960   19.2570  -28.2460 C   0  0  0  0  0  0  0  0  0  0  0  0
   -1.5710   18.6970  -27.4160 C   0  0  0  0  0  0  0  0  0  0  0  0
   -2.6710   19.4600  -27.0160 C   0  0  0  0  0  0  0  0  0  0  0  0
   -2.7980   20.7840  -27.4450 C   0  0  0  0  0  0  0  0  0  0  0  0
    0.2392   24.2193  -25.4527 H   0  0  0  0  0  0  0  0  0  0  0  0
   -0.9649   22.9453  -25.8449 H   0  0  0  0  0  0  0  0  0  0  0  0
    0.7884   22.5546  -25.8449 H   0  0  0  0  0  0  0  0  0  0  0  0
   -1.3160   26.9140  -29.7020 H   0  0  0  0  0  0  0  0  0  0  0  0
   -5.5192   23.9153  -29.3786 H   0  0  0  0  0  0  0  0  0  0  0  0
   -7.4512   22.6368  -30.2895 H   0  0  0  0  0  0  0  0  0  0  0  0
   -8.6425   22.0385  -31.9144 H   0  0  0  0  0  0  0  0  0  0  0  0
  -10.5725   20.7499  -32.8290 H   0  0  0  0  0  0  0  0  0  0  0  0
  -10.4074   18.2749  -33.1078 H   0  0  0  0  0  0  0  0  0  0  0  0
   -8.3089   17.0841  -32.4693 H   0  0  0  0  0  0  0  0  0  0  0  0
   -6.3725   18.3601  -31.5572 H   0  0  0  0  0  0  0  0  0  0  0  0
   -4.7304   19.6440  -31.8447 H   0  0  0  0  0  0  0  0  0  0  0  0
   -2.8012   20.9257  -30.9291 H   0  0  0  0  0  0  0  0  0  0  0  0
    0.0524   21.0186  -29.3289 H   0  0  0  0  0  0  0  0  0  0  0  0
    0.2690   18.6547  -28.5607 H   0  0  0  0  0  0  0  0  0  0  0  0
   -1.4724   17.6550  -27.0775 H   0  0  0  0  0  0  0  0  0  0  0  0
   -3.4378   19.0181  -26.3628 H   0  0  0  0  0  0  0  0  0  0  0  0
   -3.6653   21.3817  -27.1279 H   0  0  0  0  0  0  0  0  0  0  0  0
  1  2  1  0
  2  3  2  0
  2  4  1  0
  4  5  1  0
  5  6  1  0
  5  7  2  0
  7  8  1  0
  7  9  1  0
  9 10  1  0
 10 11  2  0
 11 12  1  0
 12 13  2  0
 13 14  1  0
 14 15  2  0
 15 16  1  0
 16 17  2  0
 17 18  1  0
 18 19  2  0
 13 20  1  0
 20 21  2  0
  9 22  1  0
 22 23  1  0
 23 24  2  0
 24 25  1  0
 25 26  2  0
 26 27  1  0
 27 28  2  0
 22  4  2  0
 28 23  1  0
 21 10  1  0
 19 14  1  0
  1 29  1  0
  1 30  1  0
  1 31  1  0
  6 32  1  0
 11 33  1  0
 12 34  1  0
 15 35  1  0
 16 36  1  0
 17 37  1  0
 18 38  1  0
 19 39  1  0
 20 40  1  0
 21 41  1  0
 24 42  1  0
 25 43  1  0
 26 44  1  0
 27 45  1  0
 28 46  1  0
M  CHG  1   8  -1
M  END
>  <UniqueID>  (40) 
39

>  <SMILES>  (40) 
CC(=O)c1c(O)c([O-])n(-c2ccc(-c3ccccc3)cc2)c1-c1ccccc1

>  <Energy>  (40) 
97.869576736421

>  <Genealogy>  (40) 
CC(=O)c1c(O)c([O-])n(-c2ccc(-c3ccccc3)cc2)c1-c1ccccc1 (protonated)
CC(=O)c1c(O)c([O-])n(-c2ccc(-c3ccccc3)cc2)c1-c1ccccc1 (3D coordinates assigned)
CC(=O)c1c(O)c([O-])n(-c2ccc(-c3ccccc3)cc2)c1-c1ccccc1 (optimized conformer: 97.869576736421 kcal/mol)

>  <smiles>  (40) 
CC(=O)c1c(O)c(O)n(-c2ccc(-c3ccccc3)cc2)c1-c1ccccc1

>  <score_type>  (40) 
oracle

>  <origin>  (40) 
adgpu

>  <m_score__min__energy>  (40) 
-12.83

>  <m_primary>  (40) 
energy

$$$$
40:0
     RDKit          3D

 31 33  0  0  0  0  0  0  0  0999 V2000
    0.7850   23.7650  -29.2980 H   0  0  0  0  0  0  0  0  0  0  0  0
    0.2710   24.2580  -28.5340 N   0  0  0  0  0  0  0  0  0  0  0  0
   -1.0210   24.3380  -28.5290 C   0  0  0  0  0  0  0  0  0  0  0  0
   -1.8560   23.8290  -29.5030 C   0  0  0  0  0  0  0  0  0  0  0  0
   -1.5796   23.2554  -30.4000 H   0  0  0  0  0  0  0  0  0  0  0  0
   -3.1270   24.2090  -29.0880 C   0  0  0  0  0  0  0  0  0  0  0  0
   -4.4040   23.9150  -29.7870 C   0  0  0  0  0  0  0  0  0  0  0  0
   -4.5570   22.7330  -30.5360 C   0  0  0  0  0  0  0  0  0  0  0  0
   -3.7235   22.0184  -30.6038 H   0  0  0  0  0  0  0  0  0  0  0  0
   -5.7590   22.4600  -31.1940 C   0  0  0  0  0  0  0  0  0  0  0  0
   -5.8669   21.5340  -31.7779 H   0  0  0  0  0  0  0  0  0  0  0  0
   -6.8250   23.3610  -31.1120 C   0  0  0  0  0  0  0  0  0  0  0  0
   -8.3330   23.0150  -31.9380 Cl  0  0  0  0  0  0  0  0  0  0  0  0
   -6.6850   24.5390  -30.3740 C   0  0  0  0  0  0  0  0  0  0  0  0
   -7.5222   25.2496  -30.3107 H   0  0  0  0  0  0  0  0  0  0  0  0
   -5.4820   24.8170  -29.7150 C   0  0  0  0  0  0  0  0  0  0  0  0
   -5.3783   25.7470  -29.1367 H   0  0  0  0  0  0  0  0  0  0  0  0
   -3.0230   24.9050  -27.9330 N   0  0  0  0  0  0  0  0  0  0  0  0
   -3.8060   25.3280  -27.3880 H   0  0  0  0  0  0  0  0  0  0  0  0
   -1.7450   24.9810  -27.5880 N   0  0  0  0  0  0  0  0  0  0  0  0
   -1.2610   25.6660  -26.4170 C   0  0  0  0  0  0  0  0  0  0  0  0
   -1.0520   27.0570  -26.4310 C   0  0  0  0  0  0  0  0  0  0  0  0
   -1.2670   27.6338  -27.3426 H   0  0  0  0  0  0  0  0  0  0  0  0
   -0.5720   27.7100  -25.2910 C   0  0  0  0  0  0  0  0  0  0  0  0
   -0.4153   28.7987  -25.3072 H   0  0  0  0  0  0  0  0  0  0  0  0
   -0.2910   26.9820  -24.1310 C   0  0  0  0  0  0  0  0  0  0  0  0
    0.0848   27.4976  -23.2349 H   0  0  0  0  0  0  0  0  0  0  0  0
   -0.4880   25.5990  -24.1110 C   0  0  0  0  0  0  0  0  0  0  0  0
   -0.2657   25.0260  -23.1987 H   0  0  0  0  0  0  0  0  0  0  0  0
   -0.9670   24.9420  -25.2480 C   0  0  0  0  0  0  0  0  0  0  0  0
   -1.1148   23.8522  -25.2281 H   0  0  0  0  0  0  0  0  0  0  0  0
  1  2  1  0
  2  3  2  0
  3  4  1  0
  4  5  1  0
  4  6  2  0
  6  7  1  0
  7  8  2  0
  8  9  1  0
  8 10  1  0
 10 11  1  0
 10 12  2  0
 12 13  1  0
 12 14  1  0
 14 15  1  0
 14 16  2  0
 16 17  1  0
  6 18  1  0
 18 19  1  0
 18 20  1  0
 20 21  1  0
 21 22  2  0
 22 23  1  0
 22 24  1  0
 24 25  1  0
 24 26  2  0
 26 27  1  0
 26 28  1  0
 28 29  1  0
 28 30  2  0
 30 31  1  0
 20  3  1  0
 30 21  1  0
 16  7  1  0
M  END
>  <UniqueID>  (41) 
40

>  <SMILES>  (41) 
[H]/N=c1\cc(-c2ccc(Cl)cc2)[nH]n1-c1ccccc1

>  <Energy>  (41) 
73.28643168535677

>  <Genealogy>  (41) 
[H]/N=c1\cc(-c2ccc(Cl)cc2)[nH]n1-c1ccccc1 (cis-trans isomerization)
[H]/N=c1\cc(-c2ccc(Cl)cc2)[nH]n1-c1ccccc1 (3D coordinates assigned)
[H]/N=c1\cc(-c2ccc(Cl)cc2)[nH]n1-c1ccccc1 (optimized conformer: 73.28643168535677 kcal/mol)

>  <smiles>  (41) 
N=c1cc(-c2ccc(Cl)cc2)[nH]n1-c1ccccc1

>  <score_type>  (41) 
oracle

>  <origin>  (41) 
adgpu

>  <m_score__min__energy>  (41) 
-7.2800000000000002

>  <m_primary>  (41) 
energy

$$$$
41:0
     RDKit          3D

 29 30  0  0  0  0  0  0  0  0999 V2000
   -7.4580   18.5550  -32.7060 C   0  0  0  0  0  0  0  0  0  0  0  0
   -7.7980   19.9730  -32.3510 C   0  0  0  0  0  0  0  0  0  0  0  0
   -9.1150   20.3230  -32.0250 C   0  0  0  0  0  0  0  0  0  0  0  0
   -9.4360   21.6490  -31.7290 C   0  0  0  0  0  0  0  0  0  0  0  0
   -8.4480   22.6360  -31.7720 C   0  0  0  0  0  0  0  0  0  0  0  0
   -7.1280   22.3110  -32.1220 C   0  0  0  0  0  0  0  0  0  0  0  0
   -6.1410   23.3570  -32.1770 N   0  0  0  0  0  0  0  0  0  0  0  0
   -5.4780   24.1390  -30.7760 S   0  0  0  0  0  0  0  0  0  0  0  0
   -4.6350   25.3030  -31.2120 O   0  0  0  0  0  0  0  0  0  0  0  0
   -6.6030   24.6450  -29.9170 O   0  0  0  0  0  0  0  0  0  0  0  0
   -4.4660   23.0120  -29.8790 C   0  0  0  0  0  0  0  0  0  0  0  0
   -4.2260   23.1950  -28.5120 C   0  0  0  0  0  0  0  0  0  0  0  0
   -3.4320   22.2810  -27.8170 C   0  0  0  0  0  0  0  0  0  0  0  0
   -2.8820   21.1940  -28.4990 C   0  0  0  0  0  0  0  0  0  0  0  0
   -3.1230   21.0330  -29.8280 N   0  0  0  0  0  0  0  0  0  0  0  0
   -3.8940   21.9100  -30.5270 C   0  0  0  0  0  0  0  0  0  0  0  0
   -6.8100   20.9700  -32.4110 C   0  0  0  0  0  0  0  0  0  0  0  0
   -7.3177   17.9700  -31.7851 H   0  0  0  0  0  0  0  0  0  0  0  0
   -8.2769   18.1184  -33.2966 H   0  0  0  0  0  0  0  0  0  0  0  0
   -6.5301   18.5373  -33.2966 H   0  0  0  0  0  0  0  0  0  0  0  0
   -9.8981   19.5509  -32.0022 H   0  0  0  0  0  0  0  0  0  0  0  0
  -10.4687   21.9173  -31.4614 H   0  0  0  0  0  0  0  0  0  0  0  0
   -8.7069   23.6772  -31.5294 H   0  0  0  0  0  0  0  0  0  0  0  0
   -5.7350   23.6230  -33.1020 H   0  0  0  0  0  0  0  0  0  0  0  0
   -4.6622   24.0573  -27.9865 H   0  0  0  0  0  0  0  0  0  0  0  0
   -3.2415   22.4160  -26.7421 H   0  0  0  0  0  0  0  0  0  0  0  0
   -2.2540   20.4680  -27.9618 H   0  0  0  0  0  0  0  0  0  0  0  0
   -4.0680   21.7532  -31.6018 H   0  0  0  0  0  0  0  0  0  0  0  0
   -5.7795   20.7009  -32.6860 H   0  0  0  0  0  0  0  0  0  0  0  0
  1  2  1  0
  2  3  2  0
  3  4  1  0
  4  5  2  0
  5  6  1  0
  6  7  1  0
  7  8  1  0
  8  9  2  0
  8 10  2  0
  8 11  1  0
 11 12  2  0
 12 13  1  0
 13 14  2  0
 14 15  1  0
 15 16  2  0
  6 17  2  0
 17  2  1  0
 16 11  1  0
  1 18  1  0
  1 19  1  0
  1 20  1  0
  3 21  1  0
  4 22  1  0
  5 23  1  0
  7 24  1  0
 12 25  1  0
 13 26  1  0
 14 27  1  0
 16 28  1  0
 17 29  1  0
M  END
>  <UniqueID>  (42) 
41

>  <SMILES>  (42) 
Cc1cccc(NS(=O)(=O)c2cccnc2)c1

>  <Energy>  (42) 
32.156992618255344

>  <Genealogy>  (42) 
Cc1cccc(NS(=O)(=O)c2cccnc2)c1 (3D coordinates assigned)
Cc1cccc(NS(=O)(=O)c2cccnc2)c1 (optimized conformer: 32.156992618255344 kcal/mol)

>  <smiles>  (42) 
Cc1cccc(NS(=O)(=O)c2cccnc2)c1

>  <score_type>  (42) 
oracle

>  <origin>  (42) 
adgpu

>  <m_score__min__energy>  (42) 
-7.2199999999999998

>  <m_primary>  (42) 
energy

$$$$
42:0
     RDKit          3D

 32 33  0  0  0  0  0  0  0  0999 V2000
   -2.9480   24.5400  -27.3810 C   0  0  0  0  0  0  0  0  0  0  0  0
   -2.2260   24.8480  -28.6890 C   0  0  0  0  0  0  0  0  0  0  0  0
   -3.1580   25.2050  -29.7100 O   0  0  0  0  0  0  0  0  0  0  0  0
   -4.2890   24.4580  -30.0820 C   0  0  0  0  0  0  0  0  0  0  0  0
   -4.2460   23.0690  -30.3080 C   0  0  0  0  0  0  0  0  0  0  0  0
   -5.4050   22.3790  -30.6750 C   0  0  0  0  0  0  0  0  0  0  0  0
   -6.6200   23.0620  -30.8120 C   0  0  0  0  0  0  0  0  0  0  0  0
   -8.0710   22.1950  -31.3000 S   0  0  0  0  0  0  0  0  0  0  0  0
   -8.8680   23.0300  -32.2640 O   0  0  0  0  0  0  0  0  0  0  0  0
   -8.9330   21.9200  -30.0990 O   0  0  0  0  0  0  0  0  0  0  0  0
   -7.6040   20.6800  -32.0640 C   0  0  0  0  0  0  0  0  0  0  0  0
   -8.2000   19.4760  -31.6620 C   0  0  0  0  0  0  0  0  0  0  0  0
   -7.8140   18.2700  -32.2550 C   0  0  0  0  0  0  0  0  0  0  0  0
   -6.8300   18.2610  -33.2470 C   0  0  0  0  0  0  0  0  0  0  0  0
   -6.2270   19.4580  -33.6450 C   0  0  0  0  0  0  0  0  0  0  0  0
   -6.6110   20.6660  -33.0530 C   0  0  0  0  0  0  0  0  0  0  0  0
   -6.6650   24.4440  -30.5920 C   0  0  0  0  0  0  0  0  0  0  0  0
   -5.5080   25.1340  -30.2240 C   0  0  0  0  0  0  0  0  0  0  0  0
   -2.3036   24.8149  -26.5330 H   0  0  0  0  0  0  0  0  0  0  0  0
   -3.8829   25.1176  -27.3334 H   0  0  0  0  0  0  0  0  0  0  0  0
   -3.1781   23.4654  -27.3334 H   0  0  0  0  0  0  0  0  0  0  0  0
   -1.5292   25.6839  -28.5283 H   0  0  0  0  0  0  0  0  0  0  0  0
   -1.6783   23.9496  -29.0097 H   0  0  0  0  0  0  0  0  0  0  0  0
   -3.2968   22.5247  -30.1954 H   0  0  0  0  0  0  0  0  0  0  0  0
   -5.3626   21.2950  -30.8570 H   0  0  0  0  0  0  0  0  0  0  0  0
   -8.9725   19.4803  -30.8789 H   0  0  0  0  0  0  0  0  0  0  0  0
   -8.2855   17.3273  -31.9402 H   0  0  0  0  0  0  0  0  0  0  0  0
   -6.5297   17.3119  -33.7150 H   0  0  0  0  0  0  0  0  0  0  0  0
   -5.4503   19.4499  -34.4239 H   0  0  0  0  0  0  0  0  0  0  0  0
   -6.1328   21.6064  -33.3643 H   0  0  0  0  0  0  0  0  0  0  0  0
   -7.6141   24.9876  -30.7093 H   0  0  0  0  0  0  0  0  0  0  0  0
   -5.5541   26.2182  -30.0440 H   0  0  0  0  0  0  0  0  0  0  0  0
  1  2  1  0
  2  3  1  0
  3  4  1  0
  4  5  2  0
  5  6  1  0
  6  7  2  0
  7  8  1  0
  8  9  2  0
  8 10  2  0
  8 11  1  0
 11 12  2  0
 12 13  1  0
 13 14  2  0
 14 15  1  0
 15 16  2  0
  7 17  1  0
 17 18  2  0
 18  4  1  0
 16 11  1  0
  1 19  1  0
  1 20  1  0
  1 21  1  0
  2 22  1  0
  2 23  1  0
  5 24  1  0
  6 25  1  0
 12 26  1  0
 13 27  1  0
 14 28  1  0
 15 29  1  0
 16 30  1  0
 17 31  1  0
 18 32  1  0
M  END
>  <UniqueID>  (43) 
42

>  <SMILES>  (43) 
CCOc1ccc(S(=O)(=O)c2ccccc2)cc1

>  <Energy>  (43) 
32.26164807044281

>  <Genealogy>  (43) 
CCOc1ccc(S(=O)(=O)c2ccccc2)cc1 (3D coordinates assigned)
CCOc1ccc(S(=O)(=O)c2ccccc2)cc1 (optimized conformer: 32.26164807044281 kcal/mol)

>  <smiles>  (43) 
CCOc1ccc(S(=O)(=O)c2ccccc2)cc1

>  <score_type>  (43) 
oracle

>  <origin>  (43) 
adgpu

>  <m_score__min__energy>  (43) 
-8.1099999999999994

>  <m_primary>  (43) 
energy

$$$$
43:0
     RDKit          3D

 24 25  0  0  0  0  0  0  0  0999 V2000
   -7.9880   18.1150  -31.9740 C   0  0  0  0  0  0  0  0  0  0  0  0
   -9.1450   19.3080  -32.7140 S   0  0  0  0  0  0  0  0  0  0  0  0
   -8.4740   20.6960  -31.7980 C   0  0  0  0  0  0  0  0  0  0  0  0
   -9.1400   21.3220  -30.8110 N   0  0  0  0  0  0  0  0  0  0  0  0
   -8.3520   22.2910  -30.3700 N   0  0  0  0  0  0  0  0  0  0  0  0
   -7.2170   22.2470  -31.0990 C   0  0  0  0  0  0  0  0  0  0  0  0
   -6.0980   23.1930  -30.8980 C   0  0  0  0  0  0  0  0  0  0  0  0
   -6.3270   24.5630  -30.6990 C   0  0  0  0  0  0  0  0  0  0  0  0
   -5.2430   25.4210  -30.4910 C   0  0  0  0  0  0  0  0  0  0  0  0
   -3.9770   24.9260  -30.4680 N   0  0  0  0  0  0  0  0  0  0  0  0
   -3.7270   23.6010  -30.6390 C   0  0  0  0  0  0  0  0  0  0  0  0
   -4.7820   22.7100  -30.8490 C   0  0  0  0  0  0  0  0  0  0  0  0
   -7.2560   21.2370  -31.9980 N   0  0  0  0  0  0  0  0  0  0  0  0
   -6.2380   20.8070  -32.9530 C   0  0  0  0  0  0  0  0  0  0  0  0
   -8.0485   18.1774  -30.8774 H   0  0  0  0  0  0  0  0  0  0  0  0
   -8.2527   17.0978  -32.2986 H   0  0  0  0  0  0  0  0  0  0  0  0
   -6.9632   18.3484  -32.2986 H   0  0  0  0  0  0  0  0  0  0  0  0
   -7.3531   24.9594  -30.7066 H   0  0  0  0  0  0  0  0  0  0  0  0
   -5.4146   26.4978  -30.3458 H   0  0  0  0  0  0  0  0  0  0  0  0
   -2.6919   23.2297  -30.6120 H   0  0  0  0  0  0  0  0  0  0  0  0
   -4.5820   21.6357  -30.9752 H   0  0  0  0  0  0  0  0  0  0  0  0
   -5.3578   20.4352  -32.4081 H   0  0  0  0  0  0  0  0  0  0  0  0
   -6.6442   20.0036  -33.5851 H   0  0  0  0  0  0  0  0  0  0  0  0
   -5.9453   21.6583  -33.5851 H   0  0  0  0  0  0  0  0  0  0  0  0
  1  2  1  0
  2  3  1  0
  3  4  2  0
  4  5  1  0
  5  6  2  0
  6  7  1  0
  7  8  2  0
  8  9  1  0
  9 10  2  0
 10 11  1  0
 11 12  2  0
  6 13  1  0
 13 14  1  0
 13  3  1  0
 12  7  1  0
  1 15  1  0
  1 16  1  0
  1 17  1  0
  8 18  1  0
  9 19  1  0
 11 20  1  0
 12 21  1  0
 14 22  1  0
 14 23  1  0
 14 24  1  0
M  END
>  <UniqueID>  (44) 
43

>  <SMILES>  (44) 
CSc1nnc(-c2ccncc2)n1C

>  <Energy>  (44) 
60.20619510555223

>  <Genealogy>  (44) 
CSc1nnc(-c2ccncc2)n1C (3D coordinates assigned)
CSc1nnc(-c2ccncc2)n1C (optimized conformer: 60.20619510555223 kcal/mol)

>  <smiles>  (44) 
CSc1nnc(-c2ccncc2)n1C

>  <score_type>  (44) 
oracle

>  <origin>  (44) 
adgpu

>  <m_score__min__energy>  (44) 
-6.29

>  <m_primary>  (44) 
energy

$$$$
44:0
     RDKit          3D

 26 27  0  0  0  0  0  0  0  0999 V2000
   -1.6130   25.7740  -29.0260 O   0  0  0  0  0  0  0  0  0  0  0  0
   -2.4860   24.9180  -29.3280 C   0  0  0  0  0  0  0  0  0  0  0  0
   -3.4880   25.2700  -30.2250 O   0  0  0  0  0  0  0  0  0  0  0  0
   -2.4270   23.5400  -28.7790 C   0  0  0  0  0  0  0  0  0  0  0  0
   -1.8300   23.3500  -27.5180 C   0  0  0  0  0  0  0  0  0  0  0  0
   -1.8020   22.0870  -26.9230 C   0  0  0  0  0  0  0  0  0  0  0  0
   -2.3660   20.9940  -27.5770 C   0  0  0  0  0  0  0  0  0  0  0  0
   -2.9470   21.1550  -28.8340 C   0  0  0  0  0  0  0  0  0  0  0  0
   -2.9830   22.4170  -29.4520 C   0  0  0  0  0  0  0  0  0  0  0  0
   -3.5290   22.5070  -30.8250 C   0  0  0  0  0  0  0  0  0  0  0  0
   -2.7260   22.6800  -31.7840 O   0  0  0  0  0  0  0  0  0  0  0  0
   -4.9810   22.3660  -31.1030 C   0  0  0  0  0  0  0  0  0  0  0  0
   -5.4500   21.4850  -32.0970 C   0  0  0  0  0  0  0  0  0  0  0  0
   -6.8200   21.3550  -32.3420 C   0  0  0  0  0  0  0  0  0  0  0  0
   -7.7400   22.0970  -31.5960 C   0  0  0  0  0  0  0  0  0  0  0  0
   -9.4580   21.9310  -31.9050 Cl  0  0  0  0  0  0  0  0  0  0  0  0
   -7.2880   22.9660  -30.5990 C   0  0  0  0  0  0  0  0  0  0  0  0
   -5.9180   23.0980  -30.3500 C   0  0  0  0  0  0  0  0  0  0  0  0
   -1.3802   24.2069  -26.9952 H   0  0  0  0  0  0  0  0  0  0  0  0
   -1.3339   21.9550  -25.9364 H   0  0  0  0  0  0  0  0  0  0  0  0
   -2.3529   20.0024  -27.1009 H   0  0  0  0  0  0  0  0  0  0  0  0
   -3.3820   20.2850  -29.3478 H   0  0  0  0  0  0  0  0  0  0  0  0
   -4.7322   20.8945  -32.6853 H   0  0  0  0  0  0  0  0  0  0  0  0
   -7.1749   20.6672  -33.1237 H   0  0  0  0  0  0  0  0  0  0  0  0
   -8.0115   23.5475  -30.0087 H   0  0  0  0  0  0  0  0  0  0  0  0
   -5.5702   23.7792  -29.5595 H   0  0  0  0  0  0  0  0  0  0  0  0
  1  2  2  0
  2  3  1  0
  2  4  1  0
  4  5  2  0
  5  6  1  0
  6  7  2  0
  7  8  1  0
  8  9  2  0
  9 10  1  0
 10 11  2  0
 10 12  1  0
 12 13  2  0
 13 14  1  0
 14 15  2  0
 15 16  1  0
 15 17  1  0
 17 18  2  0
  9  4  1  0
 18 12  1  0
  5 19  1  0
  6 20  1  0
  7 21  1  0
  8 22  1  0
 13 23  1  0
 14 24  1  0
 17 25  1  0
 18 26  1  0
M  CHG  1   3  -1
M  END
>  <UniqueID>  (45) 
44

>  <SMILES>  (45) 
O=C([O-])c1ccccc1C(=O)c1ccc(Cl)cc1

>  <Energy>  (45) 
38.805310531934595

>  <Genealogy>  (45) 
O=C([O-])c1ccccc1C(=O)c1ccc(Cl)cc1 (protonated)
O=C([O-])c1ccccc1C(=O)c1ccc(Cl)cc1 (3D coordinates assigned)
O=C([O-])c1ccccc1C(=O)c1ccc(Cl)cc1 (optimized conformer: 38.805310531934595 kcal/mol)

>  <smiles>  (45) 
O=C(O)c1ccccc1C(=O)c1ccc(Cl)cc1

>  <score_type>  (45) 
oracle

>  <origin>  (45) 
adgpu

>  <m_score__min__energy>  (45) 
-9.4299999999999997

>  <m_primary>  (45) 
energy

$$$$
45:0
     RDKit          3D

 29 31  0  0  0  0  0  0  0  0999 V2000
   -3.7640   12.9320  -32.3020 N   0  0  0  0  0  0  0  0  0  0  0  0
   -4.2970   13.9360  -32.5220 C   0  0  0  0  0  0  0  0  0  0  0  0
   -4.9580   15.1850  -32.7970 C   0  0  0  0  0  0  0  0  0  0  0  0
   -5.1900   15.5800  -34.1200 C   0  0  0  0  0  0  0  0  0  0  0  0
   -5.8310   16.7950  -34.3870 C   0  0  0  0  0  0  0  0  0  0  0  0
   -6.2600   17.6180  -33.3290 C   0  0  0  0  0  0  0  0  0  0  0  0
   -6.8910   18.8490  -33.5570 O   0  0  0  0  0  0  0  0  0  0  0  0
   -6.5030   20.0770  -33.0010 C   0  0  0  0  0  0  0  0  0  0  0  0
   -7.4070   20.8990  -32.3070 C   0  0  0  0  0  0  0  0  0  0  0  0
   -6.9790   22.1090  -31.7530 C   0  0  0  0  0  0  0  0  0  0  0  0
   -5.6380   22.5120  -31.8730 C   0  0  0  0  0  0  0  0  0  0  0  0
   -5.1830   23.7920  -31.2880 C   0  0  0  0  0  0  0  0  0  0  0  0
   -6.0130   24.8000  -30.9480 N   0  0  0  0  0  0  0  0  0  0  0  0
   -5.1550   25.7230  -30.4740 C   0  0  0  0  0  0  0  0  0  0  0  0
   -3.8780   25.3040  -30.5200 N   0  0  0  0  0  0  0  0  0  0  0  0
   -3.8950   24.0870  -31.0330 N   0  0  0  0  0  0  0  0  0  0  0  0
   -4.7330   21.6760  -32.5500 C   0  0  0  0  0  0  0  0  0  0  0  0
   -5.1640   20.4670  -33.1030 C   0  0  0  0  0  0  0  0  0  0  0  0
   -6.0060   17.2250  -32.0090 C   0  0  0  0  0  0  0  0  0  0  0  0
   -5.3650   16.0120  -31.7420 C   0  0  0  0  0  0  0  0  0  0  0  0
   -4.8681   14.9346  -34.9505 H   0  0  0  0  0  0  0  0  0  0  0  0
   -6.0002   17.1080  -35.4279 H   0  0  0  0  0  0  0  0  0  0  0  0
   -8.4568   20.5888  -32.1991 H   0  0  0  0  0  0  0  0  0  0  0  0
   -7.6965   22.7499  -31.2197 H   0  0  0  0  0  0  0  0  0  0  0  0
   -5.4634   26.7076  -30.0926 H   0  0  0  0  0  0  0  0  0  0  0  0
   -3.6788   21.9754  -32.6451 H   0  0  0  0  0  0  0  0  0  0  0  0
   -4.4444   19.8172  -33.6225 H   0  0  0  0  0  0  0  0  0  0  0  0
   -6.3131   17.8754  -31.1767 H   0  0  0  0  0  0  0  0  0  0  0  0
   -5.1798   15.7062  -30.7017 H   0  0  0  0  0  0  0  0  0  0  0  0
  1  2  3  0
  2  3  1  0
  3  4  2  0
  4  5  1  0
  5  6  2  0
  6  7  1  0
  7  8  1  0
  8  9  2  0
  9 10  1  0
 10 11  2  0
 11 12  1  0
 12 13  1  0
 13 14  2  0
 14 15  1  0
 15 16  1  0
 11 17  1  0
 17 18  2  0
  6 19  1  0
 19 20  2  0
 20  3  1  0
 18  8  1  0
 16 12  2  0
  4 21  1  0
  5 22  1  0
  9 23  1  0
 10 24  1  0
 14 25  1  0
 17 26  1  0
 18 27  1  0
 19 28  1  0
 20 29  1  0
M  CHG  1  15  -1
M  END
>  <UniqueID>  (46) 
45

>  <SMILES>  (46) 
N#Cc1ccc(Oc2ccc(-c3nc[n-]n3)cc2)cc1

>  <Energy>  (46) 
69.80468009551745

>  <Genealogy>  (46) 
N#Cc1ccc(Oc2ccc(-c3nc[n-]n3)cc2)cc1 (protonated)
N#Cc1ccc(Oc2ccc(-c3nc[n-]n3)cc2)cc1 (3D coordinates assigned)
N#Cc1ccc(Oc2ccc(-c3nc[n-]n3)cc2)cc1 (optimized conformer: 69.80468009551745 kcal/mol)

>  <smiles>  (46) 
N#Cc1ccc(Oc2ccc(-c3nc[nH]n3)cc2)cc1

>  <score_type>  (46) 
oracle

>  <origin>  (46) 
adgpu

>  <m_score__min__energy>  (46) 
-8.5899999999999999

>  <m_primary>  (46) 
energy

$$$$
46:0
     RDKit          3D

 37 39  0  0  0  0  0  0  0  0999 V2000
   -8.0617   18.2280  -33.4873 H   0  0  0  0  0  0  0  0  0  0  0  0
   -7.1800   18.7640  -33.1060 C   0  0  0  0  0  0  0  0  0  0  0  0
   -6.7450   18.5500  -31.7960 C   0  0  0  0  0  0  0  0  0  0  0  0
   -7.2867   17.8479  -31.1451 H   0  0  0  0  0  0  0  0  0  0  0  0
   -5.6220   19.2270  -31.3110 C   0  0  0  0  0  0  0  0  0  0  0  0
   -5.2882   19.0615  -30.2760 H   0  0  0  0  0  0  0  0  0  0  0  0
   -4.9180   20.1170  -32.1380 C   0  0  0  0  0  0  0  0  0  0  0  0
   -3.7150   20.8480  -31.6080 C   0  0  0  0  0  0  0  0  0  0  0  0
   -3.2075   21.3566  -32.4410 H   0  0  0  0  0  0  0  0  0  0  0  0
   -3.0423   20.1178  -31.1344 H   0  0  0  0  0  0  0  0  0  0  0  0
   -4.0940   21.8180  -30.6300 O   0  0  0  0  0  0  0  0  0  0  0  0
   -3.2440   22.7650  -30.0290 C   0  0  0  0  0  0  0  0  0  0  0  0
   -1.9690   22.4010  -29.5540 C   0  0  0  0  0  0  0  0  0  0  0  0
   -1.6429   21.3522  -29.6144 H   0  0  0  0  0  0  0  0  0  0  0  0
   -1.1190   23.3580  -29.0090 C   0  0  0  0  0  0  0  0  0  0  0  0
   -0.1269   23.0687  -28.6321 H   0  0  0  0  0  0  0  0  0  0  0  0
   -1.5340   24.6820  -28.9450 C   0  0  0  0  0  0  0  0  0  0  0  0
   -0.8648   25.4461  -28.5226 H   0  0  0  0  0  0  0  0  0  0  0  0
   -2.7630   25.0370  -29.4020 N   0  0  0  0  0  0  0  0  0  0  0  0
   -3.0400   26.0430  -29.3360 H   0  0  0  0  0  0  0  0  0  0  0  0
   -3.6400   24.1290  -29.9230 C   0  0  0  0  0  0  0  0  0  0  0  0
   -4.8020   24.5730  -30.3290 N   0  0  0  0  0  0  0  0  0  0  0  0
   -5.9210   23.8210  -30.8130 C   0  0  0  0  0  0  0  0  0  0  0  0
   -6.1760   23.7340  -32.1910 C   0  0  0  0  0  0  0  0  0  0  0  0
   -5.5339   24.2723  -32.9037 H   0  0  0  0  0  0  0  0  0  0  0  0
   -7.2450   22.9640  -32.6580 C   0  0  0  0  0  0  0  0  0  0  0  0
   -7.4524   22.9087  -33.7369 H   0  0  0  0  0  0  0  0  0  0  0  0
   -8.0510   22.2640  -31.7550 C   0  0  0  0  0  0  0  0  0  0  0  0
   -9.0890   21.5190  -32.2100 F   0  0  0  0  0  0  0  0  0  0  0  0
   -7.7810   22.3250  -30.3840 C   0  0  0  0  0  0  0  0  0  0  0  0
   -8.4106   21.7678  -29.6747 H   0  0  0  0  0  0  0  0  0  0  0  0
   -6.7110   23.0940  -29.9140 C   0  0  0  0  0  0  0  0  0  0  0  0
   -6.4900   23.1276  -28.8370 H   0  0  0  0  0  0  0  0  0  0  0  0
   -5.3720   20.3390  -33.4510 C   0  0  0  0  0  0  0  0  0  0  0  0
   -4.8416   21.0501  -34.1014 H   0  0  0  0  0  0  0  0  0  0  0  0
   -6.4950   19.6590  -33.9320 C   0  0  0  0  0  0  0  0  0  0  0  0
   -6.8399   19.8289  -34.9626 H   0  0  0  0  0  0  0  0  0  0  0  0
  1  2  1  0
  2  3  2  0
  3  4  1  0
  3  5  1  0
  5  6  1  0
  5  7  2  0
  7  8  1  0
  8  9  1  0
  8 10  1  0
  8 11  1  0
 11 12  1  0
 12 13  2  0
 13 14  1  0
 13 15  1  0
 15 16  1  0
 15 17  2  0
 17 18  1  0
 17 19  1  0
 19 20  1  0
 19 21  1  0
 21 22  2  0
 22 23  1  0
 23 24  2  0
 24 25  1  0
 24 26  1  0
 26 27  1  0
 26 28  2  0
 28 29  1  0
 28 30  1  0
 30 31  1  0
 30 32  2  0
 32 33  1  0
  7 34  1  0
 34 35  1  0
 34 36  2  0
 36 37  1  0
 36  2  1  0
 21 12  1  0
 32 23  1  0
M  END
>  <UniqueID>  (47) 
46

>  <SMILES>  (47) 
Fc1ccc(/N=c2/[nH]cccc2OCc2ccccc2)cc1

>  <Energy>  (47) 
52.18173237934503

>  <Genealogy>  (47) 
Fc1ccc(/N=c2/[nH]cccc2OCc2ccccc2)cc1 (cis-trans isomerization)
Fc1ccc(/N=c2/[nH]cccc2OCc2ccccc2)cc1 (3D coordinates assigned)
Fc1ccc(/N=c2/[nH]cccc2OCc2ccccc2)cc1 (optimized conformer: 52.18173237934503 kcal/mol)

>  <smiles>  (47) 
Fc1ccc(N=c2[nH]cccc2OCc2ccccc2)cc1

>  <score_type>  (47) 
oracle

>  <origin>  (47) 
adgpu

>  <m_score__min__energy>  (47) 
-7.2000000000000002

>  <m_primary>  (47) 
energy

$$$$
47:0
     RDKit          3D

 27 29  0  0  0  0  0  0  0  0999 V2000
   -1.8050   25.6390  -28.9620 O   0  0  0  0  0  0  0  0  0  0  0  0
   -2.5740   24.7220  -29.3550 C   0  0  0  0  0  0  0  0  0  0  0  0
   -3.4870   24.9990  -30.4240 N   0  0  0  0  0  0  0  0  0  0  0  0
   -4.5790   24.1630  -30.8340 C   0  0  0  0  0  0  0  0  0  0  0  0
   -5.8850   24.5550  -30.5250 C   0  0  0  0  0  0  0  0  0  0  0  0
   -6.9710   23.7530  -30.8910 C   0  0  0  0  0  0  0  0  0  0  0  0
   -6.7620   22.5340  -31.5580 C   0  0  0  0  0  0  0  0  0  0  0  0
   -7.9090   21.6860  -31.9480 C   0  0  0  0  0  0  0  0  0  0  0  0
   -7.7930   20.4080  -32.3610 N   0  0  0  0  0  0  0  0  0  0  0  0
   -9.0760   20.0700  -32.5950 C   0  0  0  0  0  0  0  0  0  0  0  0
   -9.9240   21.0800  -32.3390 N   0  0  0  0  0  0  0  0  0  0  0  0
   -9.1900   22.1020  -31.9310 N   0  0  0  0  0  0  0  0  0  0  0  0
   -5.4470   22.1300  -31.8450 C   0  0  0  0  0  0  0  0  0  0  0  0
   -4.3630   22.9330  -31.4780 C   0  0  0  0  0  0  0  0  0  0  0  0
   -2.4630   23.3800  -28.7510 C   0  0  0  0  0  0  0  0  0  0  0  0
   -1.3670   22.5320  -28.8630 C   0  0  0  0  0  0  0  0  0  0  0  0
   -1.5560   21.2960  -28.2320 C   0  0  0  0  0  0  0  0  0  0  0  0
   -2.8020   21.1580  -27.6340 C   0  0  0  0  0  0  0  0  0  0  0  0
   -3.6680   22.5750  -27.8930 S   0  0  0  0  0  0  0  0  0  0  0  0
   -6.0596   25.5004  -29.9905 H   0  0  0  0  0  0  0  0  0  0  0  0
   -7.9949   24.0786  -30.6552 H   0  0  0  0  0  0  0  0  0  0  0  0
   -9.3930   19.0800  -32.9546 H   0  0  0  0  0  0  0  0  0  0  0  0
   -5.2694   21.1754  -32.3619 H   0  0  0  0  0  0  0  0  0  0  0  0
   -3.3370   22.6006  -31.6943 H   0  0  0  0  0  0  0  0  0  0  0  0
   -0.4433   22.8047  -29.3944 H   0  0  0  0  0  0  0  0  0  0  0  0
   -0.7890   20.5078  -28.2119 H   0  0  0  0  0  0  0  0  0  0  0  0
   -3.1601   20.2742  -27.0857 H   0  0  0  0  0  0  0  0  0  0  0  0
  1  2  2  0
  2  3  1  0
  3  4  1  0
  4  5  2  0
  5  6  1  0
  6  7  2  0
  7  8  1  0
  8  9  1  0
  9 10  2  0
 10 11  1  0
 11 12  1  0
  7 13  1  0
 13 14  2  0
  2 15  1  0
 15 16  2  0
 16 17  1  0
 17 18  2  0
 18 19  1  0
 14  4  1  0
 19 15  1  0
 12  8  2  0
  5 20  1  0
  6 21  1  0
 10 22  1  0
 13 23  1  0
 14 24  1  0
 16 25  1  0
 17 26  1  0
 18 27  1  0
M  CHG  2   3  -1  11  -1
M  END
>  <UniqueID>  (48) 
47

>  <SMILES>  (48) 
O=C([N-]c1ccc(-c2nc[n-]n2)cc1)c1cccs1

>  <Energy>  (48) 
93.25893054756577

>  <Genealogy>  (48) 
O=C([N-]c1ccc(-c2nc[n-]n2)cc1)c1cccs1 (protonated)
O=C([N-]c1ccc(-c2nc[n-]n2)cc1)c1cccs1 (3D coordinates assigned)
O=C([N-]c1ccc(-c2nc[n-]n2)cc1)c1cccs1 (optimized conformer: 93.25893054756577 kcal/mol)

>  <smiles>  (48) 
O=C(Nc1ccc(-c2nc[nH]n2)cc1)c1cccs1

>  <score_type>  (48) 
oracle

>  <origin>  (48) 
adgpu

>  <m_score__min__energy>  (48) 
-8.6099999999999994

>  <m_primary>  (48) 
energy

$$$$
48:0
     RDKit          3D

 30 32  0  0  1  0  0  0  0  0999 V2000
   -3.6290   25.2940  -30.7040 N   0  0  0  0  0  0  0  0  0  0  0  0
   -4.8630   24.5670  -30.7150 C   0  0  0  0  0  0  0  0  0  0  0  0
   -6.0090   25.0470  -30.1100 C   0  0  0  0  0  0  0  0  0  0  0  0
   -7.1750   24.2820  -30.1610 C   0  0  0  0  0  0  0  0  0  0  0  0
   -7.1890   23.0510  -30.8120 C   0  0  0  0  0  0  0  0  0  0  0  0
   -8.2860   22.2900  -30.8840 N   0  0  0  0  0  0  0  0  0  0  0  0
   -8.2560   21.1050  -31.5230 C   0  0  0  0  0  0  0  0  0  0  0  0
   -7.1530   20.6150  -32.1210 N   0  0  0  0  0  0  0  0  0  0  0  0
   -6.0330   21.3530  -32.0700 C   0  0  0  0  0  0  0  0  0  0  0  0
   -4.9280   20.9930  -32.5990 N   0  0  0  0  0  0  0  0  0  0  0  0
   -4.8420   19.7490  -33.2870 C   0  0  0  0  0  0  0  0  0  0  0  0
   -5.8010   19.3590  -34.2020 C   0  0  0  0  0  0  0  0  0  0  0  0
   -5.7220   18.1500  -34.8740 C   0  0  0  0  0  0  0  0  0  0  0  0
   -4.6540   17.2790  -34.6430 C   0  0  0  0  0  0  0  0  0  0  0  0
   -3.7080   17.6870  -33.7270 C   0  0  0  0  0  0  0  0  0  0  0  0
   -3.7730   18.8860  -33.0490 C   0  0  0  0  0  0  0  0  0  0  0  0
   -6.0450   22.5780  -31.4130 C   0  0  0  0  0  0  0  0  0  0  0  0
   -4.9200   23.3480  -31.3470 C   0  0  0  0  0  0  0  0  0  0  0  0
   -3.1800   25.6220  -29.8160 H   0  0  0  0  0  0  0  0  0  0  0  0
   -3.1240   25.5270  -31.5940 H   0  0  0  0  0  0  0  0  0  0  0  0
   -6.0022   26.0190  -29.5951 H   0  0  0  0  0  0  0  0  0  0  0  0
   -8.0923   24.6551  -29.6821 H   0  0  0  0  0  0  0  0  0  0  0  0
   -9.1480   22.6530  -30.4270 H   0  0  0  0  0  0  0  0  0  0  0  0
   -9.1787   20.5071  -31.5584 H   0  0  0  0  0  0  0  0  0  0  0  0
   -6.6513   20.0274  -34.4026 H   0  0  0  0  0  0  0  0  0  0  0  0
   -6.5058   17.8737  -35.5947 H   0  0  0  0  0  0  0  0  0  0  0  0
   -4.5721   16.3150  -35.1664 H   0  0  0  0  0  0  0  0  0  0  0  0
   -2.8561   17.0207  -33.5263 H   0  0  0  0  0  0  0  0  0  0  0  0
   -2.9890   19.1590  -32.3273 H   0  0  0  0  0  0  0  0  0  0  0  0
   -4.0054   22.9708  -31.8278 H   0  0  0  0  0  0  0  0  0  0  0  0
  1  2  1  0
  2  3  2  0
  3  4  1  0
  4  5  2  0
  5  6  1  0
  6  7  1  0
  7  8  2  0
  8  9  1  0
  9 10  2  0
 10 11  1  0
 11 12  2  0
 12 13  1  0
 13 14  2  0
 14 15  1  0
 15 16  2  0
  9 17  1  0
 17 18  2  0
 18  2  1  0
 17  5  1  0
 16 11  1  0
  1 19  1  0
  1 20  1  0
  3 21  1  0
  4 22  1  0
  6 23  1  0
  7 24  1  0
 12 25  1  0
 13 26  1  0
 14 27  1  0
 15 28  1  0
 16 29  1  0
 18 30  1  0
M  END
>  <smiles>  (49) 
Nc1ccc2[nH]cnc(=Nc3ccccc3)c2c1

>  <score_type>  (49) 
oracle

>  <origin>  (49) 
adgpu

>  <m_score__min__energy>  (49) 
-7.2199999999999998

>  <m_primary>  (49) 
energy

$$$$
