0:0
     RDKit          3D

 52 55  0  0  0  0  0  0  0  0999 V2000
   -1.9230   25.2730  -29.3420 N   0  0  0  0  0  0  0  0  0  0  0  0
   -1.5510   24.0840  -28.6490 C   0  0  0  0  0  0  0  0  0  0  0  0
   -1.2490   24.1530  -27.4260 O   0  0  0  0  0  0  0  0  0  0  0  0
   -1.5050   22.7820  -29.3670 C   0  0  0  0  0  0  0  0  0  0  0  0
   -2.2410   22.5780  -30.5680 C   0  0  0  0  0  0  0  0  0  0  0  0
   -3.0450   23.6450  -31.0950 N   0  0  0  0  0  0  0  0  0  0  0  0
   -4.5510   24.1900  -30.4270 S   0  0  0  0  0  0  0  0  0  0  0  0
   -4.8030   25.6010  -30.8780 O   0  0  0  0  0  0  0  0  0  0  0  0
   -4.4350   24.1900  -28.9280 O   0  0  0  0  0  0  0  0  0  0  0  0
   -5.9010   23.1730  -30.9480 C   0  0  0  0  0  0  0  0  0  0  0  0
   -5.6270   21.8790  -31.4200 C   0  0  0  0  0  0  0  0  0  0  0  0
   -6.6520   21.0650  -31.9180 C   0  0  0  0  0  0  0  0  0  0  0  0
   -6.2760   19.4540  -32.5470 S   0  0  0  0  0  0  0  0  0  0  0  0
   -6.9150   18.4220  -31.6590 O   0  0  0  0  0  0  0  0  0  0  0  0
   -6.8660   19.3120  -33.9240 O   0  0  0  0  0  0  0  0  0  0  0  0
   -4.5570   19.1430  -32.6350 N   0  0  0  0  0  0  0  0  0  0  0  0
   -4.2600   17.8210  -33.1880 C   0  0  0  0  0  0  0  0  0  0  0  0
   -2.9370   17.9390  -33.9460 C   0  0  0  0  0  0  0  0  0  0  0  0
   -2.5860   19.4170  -33.9200 C   0  0  0  0  0  0  0  0  0  0  0  0
   -3.8690   20.1010  -33.4980 C   0  0  0  0  0  0  0  0  0  0  0  0
   -7.9720   21.5330  -31.9050 C   0  0  0  0  0  0  0  0  0  0  0  0
   -8.2600   22.8090  -31.4150 C   0  0  0  0  0  0  0  0  0  0  0  0
   -7.2370   23.6380  -30.9380 C   0  0  0  0  0  0  0  0  0  0  0  0
   -7.5840   24.9060  -30.4650 O   0  0  0  0  0  0  0  0  0  0  0  0
   -2.1910   21.3220  -31.2150 C   0  0  0  0  0  0  0  0  0  0  0  0
   -1.4080   20.2850  -30.6980 C   0  0  0  0  0  0  0  0  0  0  0  0
   -0.6940   20.4990  -29.5220 C   0  0  0  0  0  0  0  0  0  0  0  0
   -0.7530   21.7010  -28.8570 C   0  0  0  0  0  0  0  0  0  0  0  0
    0.0940   21.6800  -27.6310 C   0  0  0  0  0  0  0  0  0  0  0  0
    0.6410   20.2420  -27.5690 C   0  0  0  0  0  0  0  0  0  0  0  0
    0.2110   19.5300  -28.8640 C   0  0  0  0  0  0  0  0  0  0  0  0
   -2.7760   25.2970  -29.9460 H   0  0  0  0  0  0  0  0  0  0  0  0
   -4.5945   21.5002  -31.3983 H   0  0  0  0  0  0  0  0  0  0  0  0
   -4.1657   17.0847  -32.3763 H   0  0  0  0  0  0  0  0  0  0  0  0
   -5.0664   17.4855  -33.8567 H   0  0  0  0  0  0  0  0  0  0  0  0
   -2.1540   17.3489  -33.4473 H   0  0  0  0  0  0  0  0  0  0  0  0
   -3.0197   17.5568  -34.9741 H   0  0  0  0  0  0  0  0  0  0  0  0
   -1.7831   19.6137  -33.1943 H   0  0  0  0  0  0  0  0  0  0  0  0
   -2.2183   19.7779  -34.8919 H   0  0  0  0  0  0  0  0  0  0  0  0
   -3.6477   21.0261  -32.9455 H   0  0  0  0  0  0  0  0  0  0  0  0
   -4.4843   20.3845  -34.3646 H   0  0  0  0  0  0  0  0  0  0  0  0
   -8.7842   20.8939  -32.2817 H   0  0  0  0  0  0  0  0  0  0  0  0
   -9.3004   23.1661  -31.4037 H   0  0  0  0  0  0  0  0  0  0  0  0
   -6.9030   25.6220  -30.2460 H   0  0  0  0  0  0  0  0  0  0  0  0
   -2.7735   21.1589  -32.1338 H   0  0  0  0  0  0  0  0  0  0  0  0
   -1.3569   19.3143  -31.2130 H   0  0  0  0  0  0  0  0  0  0  0  0
    0.9162   22.4061  -27.7133 H   0  0  0  0  0  0  0  0  0  0  0  0
   -0.4696   21.9539  -26.7269 H   0  0  0  0  0  0  0  0  0  0  0  0
    1.7385   20.2600  -27.4964 H   0  0  0  0  0  0  0  0  0  0  0  0
    0.2484   19.7147  -26.6870 H   0  0  0  0  0  0  0  0  0  0  0  0
    1.0825   19.3149  -29.4998 H   0  0  0  0  0  0  0  0  0  0  0  0
   -0.2730   18.5607  -28.6735 H   0  0  0  0  0  0  0  0  0  0  0  0
  1  2  1  0
  2  3  2  0
  2  4  1  0
  4  5  2  0
  5  6  1  0
  6  7  1  0
  7  8  2  0
  7  9  2  0
  7 10  1  0
 10 11  2  0
 11 12  1  0
 12 13  1  0
 13 14  2  0
 13 15  2  0
 13 16  1  0
 16 17  1  0
 17 18  1  0
 18 19  1  0
 19 20  1  0
 12 21  2  0
 21 22  1  0
 22 23  2  0
 23 24  1  0
  5 25  1  0
 25 26  2  0
 26 27  1  0
 27 28  2  0
 28 29  1  0
 29 30  1  0
 30 31  1  0
 28  4  1  0
 23 10  1  0
 31 27  1  0
 20 16  1  0
  1 32  1  0
 11 33  1  0
 17 34  1  0
 17 35  1  0
 18 36  1  0
 18 37  1  0
 19 38  1  0
 19 39  1  0
 20 40  1  0
 20 41  1  0
 21 42  1  0
 22 43  1  0
 24 44  1  0
 25 45  1  0
 26 46  1  0
 29 47  1  0
 29 48  1  0
 30 49  1  0
 30 50  1  0
 31 51  1  0
 31 52  1  0
M  CHG  2   1  -1   6  -1
M  END
>  <UniqueID>  (1) 
1

>  <SMILES>  (1) 
[NH-]C(=O)c1c([N-]S(=O)(=O)c2cc(S(=O)(=O)N3CCCC3)ccc2O)ccc2c1CCC2

>  <Energy>  (1) 
73.06866925918672

>  <Genealogy>  (1) 
[NH-]C(=O)c1c([N-]S(=O)(=O)c2cc(S(=O)(=O)N3CCCC3)ccc2O)ccc2c1CCC2 (protonated)
[NH-]C(=O)c1c([N-]S(=O)(=O)c2cc(S(=O)(=O)N3CCCC3)ccc2O)ccc2c1CCC2 (3D coordinates assigned)
[NH-]C(=O)c1c([N-]S(=O)(=O)c2cc(S(=O)(=O)N3CCCC3)ccc2O)ccc2c1CCC2 (nonaromatic ring conformer: 73.06866925918672 kcal/mol)

>  <smiles>  (1) 
NC(=O)c1c(NS(=O)(=O)c2cc(S(=O)(=O)N3CCCC3)ccc2O)ccc2c1CCC2

>  <score_type>  (1) 
oracle

>  <origin>  (1) 
adgpu

>  <m_score__min__energy>  (1) 
-13.18

>  <m_primary>  (1) 
energy

$$$$
1:0
     RDKit          3D

 47 50  0  0  0  0  0  0  0  0999 V2000
   -5.8320   24.3900  -31.6880 O   0  0  0  0  0  0  0  0  0  0  0  0
   -5.6750   23.4530  -30.8610 C   0  0  0  0  0  0  0  0  0  0  0  0
   -5.5480   23.7660  -29.4040 C   0  0  0  0  0  0  0  0  0  0  0  0
   -4.1020   23.9890  -29.0480 C   0  0  0  0  0  0  0  0  0  0  0  0
   -3.5250   23.2920  -27.9760 C   0  0  0  0  0  0  0  0  0  0  0  0
   -2.1940   23.5220  -27.6240 C   0  0  0  0  0  0  0  0  0  0  0  0
   -1.4480   24.4590  -28.3440 C   0  0  0  0  0  0  0  0  0  0  0  0
   -0.2460   24.6790  -28.0420 O   0  0  0  0  0  0  0  0  0  0  0  0
   -2.0220   25.1390  -29.3710 N   0  0  0  0  0  0  0  0  0  0  0  0
   -3.3180   24.9360  -29.7350 C   0  0  0  0  0  0  0  0  0  0  0  0
   -3.8530   25.6720  -30.7860 O   0  0  0  0  0  0  0  0  0  0  0  0
   -5.6300   22.0890  -31.2970 N   0  0  0  0  0  0  0  0  0  0  0  0
   -4.5090   21.4280  -31.9010 C   0  0  0  0  0  0  0  0  0  0  0  0
   -4.6340   20.6900  -33.0880 C   0  0  0  0  0  0  0  0  0  0  0  0
   -3.5120   20.0930  -33.6640 C   0  0  0  0  0  0  0  0  0  0  0  0
   -2.2500   20.2320  -33.0790 C   0  0  0  0  0  0  0  0  0  0  0  0
   -1.1630   19.6300  -33.7160 O   0  0  0  0  0  0  0  0  0  0  0  0
   -2.1110   20.9760  -31.8850 C   0  0  0  0  0  0  0  0  0  0  0  0
   -0.5430   21.1730  -31.0900 S   0  0  0  0  0  0  0  0  0  0  0  0
   -0.4920   22.5290  -30.4440 O   0  0  0  0  0  0  0  0  0  0  0  0
    0.5660   21.0750  -32.1000 O   0  0  0  0  0  0  0  0  0  0  0  0
   -0.3270   19.9330  -29.8960 N   0  0  0  0  0  0  0  0  0  0  0  0
    0.8790   19.1200  -29.7600 C   0  0  0  0  0  0  0  0  0  0  0  0
    0.6970   18.3070  -28.4540 C   0  0  0  0  0  0  0  0  0  0  0  0
   -0.6110   18.7890  -27.9250 C   0  0  0  0  0  0  0  0  0  0  0  0
   -1.2480   18.4260  -26.7370 C   0  0  0  0  0  0  0  0  0  0  0  0
   -2.4740   19.0340  -26.4220 C   0  0  0  0  0  0  0  0  0  0  0  0
   -3.0350   19.9910  -27.2890 C   0  0  0  0  0  0  0  0  0  0  0  0
   -2.3740   20.3430  -28.4780 C   0  0  0  0  0  0  0  0  0  0  0  0
   -1.1580   19.7160  -28.7700 C   0  0  0  0  0  0  0  0  0  0  0  0
   -3.2460   21.5810  -31.3190 C   0  0  0  0  0  0  0  0  0  0  0  0
   -6.1236   24.6751  -29.1754 H   0  0  0  0  0  0  0  0  0  0  0  0
   -5.9372   22.9202  -28.8183 H   0  0  0  0  0  0  0  0  0  0  0  0
   -4.1233   22.5620  -27.4111 H   0  0  0  0  0  0  0  0  0  0  0  0
   -1.7370   22.9714  -26.7885 H   0  0  0  0  0  0  0  0  0  0  0  0
   -5.6190   20.5819  -33.5656 H   0  0  0  0  0  0  0  0  0  0  0  0
   -3.6217   19.5067  -34.5883 H   0  0  0  0  0  0  0  0  0  0  0  0
   -0.2020   19.7750  -33.4340 H   0  0  0  0  0  0  0  0  0  0  0  0
    0.9834   18.4431  -30.6208 H   0  0  0  0  0  0  0  0  0  0  0  0
    1.7848   19.7432  -29.7252 H   0  0  0  0  0  0  0  0  0  0  0  0
    0.6628   17.2278  -28.6640 H   0  0  0  0  0  0  0  0  0  0  0  0
    1.5248   18.4462  -27.7431 H   0  0  0  0  0  0  0  0  0  0  0  0
   -0.7999   17.6809  -26.0632 H   0  0  0  0  0  0  0  0  0  0  0  0
   -2.9982   18.7615  -25.4941 H   0  0  0  0  0  0  0  0  0  0  0  0
   -3.9945   20.4650  -27.0346 H   0  0  0  0  0  0  0  0  0  0  0  0
   -2.8014   21.0918  -29.1611 H   0  0  0  0  0  0  0  0  0  0  0  0
   -3.1399   22.1837  -30.4050 H   0  0  0  0  0  0  0  0  0  0  0  0
  1  2  2  0
  2  3  1  0
  3  4  1  0
  4  5  1  0
  5  6  2  0
  6  7  1  0
  7  8  2  0
  7  9  1  0
  9 10  1  0
 10 11  1  0
  2 12  1  0
 12 13  1  0
 13 14  2  0
 14 15  1  0
 15 16  2  0
 16 17  1  0
 16 18  1  0
 18 19  1  0
 19 20  2  0
 19 21  2  0
 19 22  1  0
 22 23  1  0
 23 24  1  0
 24 25  1  0
 25 26  2  0
 26 27  1  0
 27 28  2  0
 28 29  1  0
 29 30  2  0
 18 31  2  0
 10  4  2  0
 31 13  1  0
 30 22  1  0
 30 25  1  0
  3 32  1  0
  3 33  1  0
  5 34  1  0
  6 35  1  0
 14 36  1  0
 15 37  1  0
 17 38  1  0
 23 39  1  0
 23 40  1  0
 24 41  1  0
 24 42  1  0
 26 43  1  0
 27 44  1  0
 28 45  1  0
 29 46  1  0
 31 47  1  0
M  CHG  3   9  -1  11  -1  12  -1
M  END
>  <UniqueID>  (2) 
2

>  <SMILES>  (2) 
O=C(Cc1ccc(=O)[n-]c1[O-])[N-]c1ccc(O)c(S(=O)(=O)N2CCc3ccccc32)c1

>  <Energy>  (2) 
72.13761894446357

>  <Genealogy>  (2) 
O=C(Cc1ccc(=O)[n-]c1[O-])[N-]c1ccc(O)c(S(=O)(=O)N2CCc3ccccc32)c1 (protonated)
O=C(Cc1ccc(=O)[n-]c1[O-])[N-]c1ccc(O)c(S(=O)(=O)N2CCc3ccccc32)c1 (3D coordinates assigned)
O=C(Cc1ccc(=O)[n-]c1[O-])[N-]c1ccc(O)c(S(=O)(=O)N2CCc3ccccc32)c1 (nonaromatic ring conformer: 72.13761894446357 kcal/mol)

>  <smiles>  (2) 
O=C(Cc1ccc(=O)[nH]c1O)Nc1ccc(O)c(S(=O)(=O)N2CCc3ccccc32)c1

>  <score_type>  (2) 
oracle

>  <origin>  (2) 
adgpu

>  <m_score__min__energy>  (2) 
-14.630000000000001

>  <m_primary>  (2) 
energy

$$$$
2:0
     RDKit          3D

 42 44  0  0  0  0  0  0  0  0999 V2000
   -0.4690   17.8930  -27.1870 C   0  0  0  0  0  0  0  0  0  0  0  0
   -1.4230   19.0300  -27.3400 C   0  0  0  0  0  0  0  0  0  0  0  0
   -1.2790   20.0930  -28.2060 C   0  0  0  0  0  0  0  0  0  0  0  0
   -2.4450   20.8180  -28.0250 C   0  0  0  0  0  0  0  0  0  0  0  0
   -2.8380   22.0760  -28.6990 C   0  0  0  0  0  0  0  0  0  0  0  0
   -1.9540   23.1680  -28.7030 C   0  0  0  0  0  0  0  0  0  0  0  0
   -2.3060   24.3600  -29.3410 C   0  0  0  0  0  0  0  0  0  0  0  0
   -3.5450   24.4830  -29.9750 C   0  0  0  0  0  0  0  0  0  0  0  0
   -3.8630   25.6750  -30.6170 O   0  0  0  0  0  0  0  0  0  0  0  0
   -4.4490   23.4060  -29.9650 C   0  0  0  0  0  0  0  0  0  0  0  0
   -6.0200   23.5190  -30.7610 S   0  0  0  0  0  0  0  0  0  0  0  0
   -6.8650   24.5840  -30.1210 O   0  0  0  0  0  0  0  0  0  0  0  0
   -5.7930   23.8550  -32.2080 O   0  0  0  0  0  0  0  0  0  0  0  0
   -6.8420   21.9990  -30.6200 N   0  0  0  0  0  0  0  0  0  0  0  0
   -6.9680   21.1040  -31.7290 C   0  0  0  0  0  0  0  0  0  0  0  0
   -8.1300   20.6650  -32.3390 C   0  0  0  0  0  0  0  0  0  0  0  0
   -9.5360   21.0110  -31.9710 C   0  0  0  0  0  0  0  0  0  0  0  0
   -7.8080   19.8440  -33.3600 N   0  0  0  0  0  0  0  0  0  0  0  0
   -6.4850   19.7420  -33.3960 N   0  0  0  0  0  0  0  0  0  0  0  0
   -5.7680   18.9490  -34.3870 C   0  0  0  0  0  0  0  0  0  0  0  0
   -5.9390   20.4760  -32.4010 C   0  0  0  0  0  0  0  0  0  0  0  0
   -4.4700   20.6970  -32.1940 C   0  0  0  0  0  0  0  0  0  0  0  0
   -4.0830   22.2040  -29.3400 C   0  0  0  0  0  0  0  0  0  0  0  0
   -3.1870   20.1960  -27.1350 O   0  0  0  0  0  0  0  0  0  0  0  0
   -2.6080   19.1120  -26.7070 N   0  0  0  0  0  0  0  0  0  0  0  0
   -0.3029   17.6951  -26.1178 H   0  0  0  0  0  0  0  0  0  0  0  0
   -0.8884   16.9956  -27.6652 H   0  0  0  0  0  0  0  0  0  0  0  0
    0.4877   18.1502  -27.6652 H   0  0  0  0  0  0  0  0  0  0  0  0
   -0.4381   20.3129  -28.8802 H   0  0  0  0  0  0  0  0  0  0  0  0
   -0.9789   23.0839  -28.2008 H   0  0  0  0  0  0  0  0  0  0  0  0
   -1.6037   25.2066  -29.3442 H   0  0  0  0  0  0  0  0  0  0  0  0
   -7.0120   21.6340  -29.6570 H   0  0  0  0  0  0  0  0  0  0  0  0
   -9.6330   21.0349  -30.8755 H   0  0  0  0  0  0  0  0  0  0  0  0
   -9.7905   21.9986  -32.3833 H   0  0  0  0  0  0  0  0  0  0  0  0
  -10.2197   20.2543  -32.3833 H   0  0  0  0  0  0  0  0  0  0  0  0
   -5.1148   18.2266  -33.8757 H   0  0  0  0  0  0  0  0  0  0  0  0
   -6.4903   18.4087  -35.0166 H   0  0  0  0  0  0  0  0  0  0  0  0
   -5.1579   19.6134  -35.0166 H   0  0  0  0  0  0  0  0  0  0  0  0
   -4.2524   20.7297  -31.1162 H   0  0  0  0  0  0  0  0  0  0  0  0
   -3.9065   19.8735  -32.6570 H   0  0  0  0  0  0  0  0  0  0  0  0
   -4.1737   21.6498  -32.6570 H   0  0  0  0  0  0  0  0  0  0  0  0
   -4.7784   21.3518  -29.3517 H   0  0  0  0  0  0  0  0  0  0  0  0
  1  2  1  0
  2  3  1  0
  3  4  2  0
  4  5  1  0
  5  6  2  0
  6  7  1  0
  7  8  2  0
  8  9  1  0
  8 10  1  0
 10 11  1  0
 11 12  2  0
 11 13  2  0
 11 14  1  0
 14 15  1  0
 15 16  1  0
 16 17  1  0
 16 18  2  0
 18 19  1  0
 19 20  1  0
 19 21  1  0
 21 22  1  0
 10 23  2  0
  4 24  1  0
 24 25  1  0
 25  2  2  0
 23  5  1  0
 21 15  2  0
  1 26  1  0
  1 27  1  0
  1 28  1  0
  3 29  1  0
  6 30  1  0
  7 31  1  0
 14 32  1  0
 17 33  1  0
 17 34  1  0
 17 35  1  0
 20 36  1  0
 20 37  1  0
 20 38  1  0
 22 39  1  0
 22 40  1  0
 22 41  1  0
 23 42  1  0
M  CHG  1   9  -1
M  END
>  <UniqueID>  (3) 
3

>  <SMILES>  (3) 
Cc1cc(-c2ccc([O-])c(S(=O)(=O)Nc3c(C)nn(C)c3C)c2)on1

>  <Energy>  (3) 
108.65129244867654

>  <Genealogy>  (3) 
Cc1cc(-c2ccc([O-])c(S(=O)(=O)Nc3c(C)nn(C)c3C)c2)on1 (protonated)
Cc1cc(-c2ccc([O-])c(S(=O)(=O)Nc3c(C)nn(C)c3C)c2)on1 (3D coordinates assigned)
Cc1cc(-c2ccc([O-])c(S(=O)(=O)Nc3c(C)nn(C)c3C)c2)on1 (optimized conformer: 108.65129244867654 kcal/mol)

>  <smiles>  (3) 
Cc1cc(-c2ccc(O)c(S(=O)(=O)Nc3c(C)nn(C)c3C)c2)on1

>  <score_type>  (3) 
oracle

>  <origin>  (3) 
adgpu

>  <m_score__min__energy>  (3) 
-12.029999999999999

>  <m_primary>  (3) 
energy

$$$$
3:0
     RDKit          3D

 41 43  0  0  0  0  0  0  0  0999 V2000
   -4.0460   21.1820  -33.5890 N   0  0  0  0  0  0  0  0  0  0  0  0
   -5.1070   20.6640  -32.7330 C   0  0  0  0  0  0  0  0  0  0  0  0
   -5.8550   21.8090  -32.0870 C   0  0  0  0  0  0  0  0  0  0  0  0
   -7.2420   21.7080  -31.8420 C   0  0  0  0  0  0  0  0  0  0  0  0
   -8.1610   20.2650  -32.2640 Cl  0  0  0  0  0  0  0  0  0  0  0  0
   -7.9240   22.7650  -31.2420 C   0  0  0  0  0  0  0  0  0  0  0  0
   -7.2430   23.9130  -30.8470 C   0  0  0  0  0  0  0  0  0  0  0  0
   -5.8570   24.0250  -31.0340 C   0  0  0  0  0  0  0  0  0  0  0  0
   -5.1760   25.2300  -30.5110 C   0  0  0  0  0  0  0  0  0  0  0  0
   -5.8460   26.2300  -30.1390 O   0  0  0  0  0  0  0  0  0  0  0  0
   -3.7430   25.2770  -30.4790 N   0  0  0  0  0  0  0  0  0  0  0  0
   -2.9420   24.8860  -29.3230 C   0  0  0  0  0  0  0  0  0  0  0  0
   -3.3230   23.4820  -28.8430 C   0  0  0  0  0  0  0  0  0  0  0  0
   -2.2200   22.4890  -29.0710 C   0  0  0  0  0  0  0  0  0  0  0  0
   -1.2230   22.5670  -30.0400 C   0  0  0  0  0  0  0  0  0  0  0  0
   -0.4410   21.4640  -30.0020 N   0  0  0  0  0  0  0  0  0  0  0  0
   -0.9410   20.6870  -29.0240 C   0  0  0  0  0  0  0  0  0  0  0  0
   -0.4820   19.4330  -28.6240 C   0  0  0  0  0  0  0  0  0  0  0  0
   -1.1730   18.7790  -27.5870 C   0  0  0  0  0  0  0  0  0  0  0  0
   -2.2980   19.3870  -26.9810 C   0  0  0  0  0  0  0  0  0  0  0  0
   -3.1480   18.5560  -25.6910 Cl  0  0  0  0  0  0  0  0  0  0  0  0
   -2.7390   20.6530  -27.4100 C   0  0  0  0  0  0  0  0  0  0  0  0
   -2.0290   21.2780  -28.4350 C   0  0  0  0  0  0  0  0  0  0  0  0
   -5.1590   22.9730  -31.6830 C   0  0  0  0  0  0  0  0  0  0  0  0
   -3.7920   23.0630  -31.9660 O   0  0  0  0  0  0  0  0  0  0  0  0
   -4.3150   22.1500  -33.8810 H   0  0  0  0  0  0  0  0  0  0  0  0
   -3.1780   21.2750  -33.0130 H   0  0  0  0  0  0  0  0  0  0  0  0
   -5.8055   20.0680  -33.3387 H   0  0  0  0  0  0  0  0  0  0  0  0
   -4.6629   20.0340  -31.9482 H   0  0  0  0  0  0  0  0  0  0  0  0
   -9.0094   22.6915  -31.0792 H   0  0  0  0  0  0  0  0  0  0  0  0
   -7.7978   24.7418  -30.3830 H   0  0  0  0  0  0  0  0  0  0  0  0
   -1.8782   24.8946  -29.6026 H   0  0  0  0  0  0  0  0  0  0  0  0
   -3.1309   25.5994  -28.5073 H   0  0  0  0  0  0  0  0  0  0  0  0
   -3.5462   23.5234  -27.7667 H   0  0  0  0  0  0  0  0  0  0  0  0
   -4.1999   23.1529  -29.4198 H   0  0  0  0  0  0  0  0  0  0  0  0
   -1.0901   23.4069  -30.7378 H   0  0  0  0  0  0  0  0  0  0  0  0
    0.3740   21.2550  -30.6210 H   0  0  0  0  0  0  0  0  0  0  0  0
    0.3926   18.9693  -29.1037 H   0  0  0  0  0  0  0  0  0  0  0  0
   -0.8365   17.7890  -27.2454 H   0  0  0  0  0  0  0  0  0  0  0  0
   -3.6156   21.1341  -26.9515 H   0  0  0  0  0  0  0  0  0  0  0  0
   -3.2390   23.8950  -31.8150 H   0  0  0  0  0  0  0  0  0  0  0  0
  1  2  1  0
  2  3  1  0
  3  4  2  0
  4  5  1  0
  4  6  1  0
  6  7  2  0
  7  8  1  0
  8  9  1  0
  9 10  2  0
  9 11  1  0
 11 12  1  0
 12 13  1  0
 13 14  1  0
 14 15  2  0
 15 16  1  0
 16 17  1  0
 17 18  2  0
 18 19  1  0
 19 20  2  0
 20 21  1  0
 20 22  1  0
 22 23  2  0
  8 24  2  0
 24 25  1  0
 24  3  1  0
 23 14  1  0
 23 17  1  0
  1 26  1  0
  1 27  1  0
  2 28  1  0
  2 29  1  0
  6 30  1  0
  7 31  1  0
 12 32  1  0
 12 33  1  0
 13 34  1  0
 13 35  1  0
 15 36  1  0
 16 37  1  0
 18 38  1  0
 19 39  1  0
 22 40  1  0
 25 41  1  0
M  CHG  1  11  -1
M  END
>  <UniqueID>  (4) 
4

>  <SMILES>  (4) 
NCc1c(Cl)ccc(C(=O)[N-]CCc2c[nH]c3ccc(Cl)cc23)c1O

>  <Energy>  (4) 
76.71742940130319

>  <Genealogy>  (4) 
NCc1c(Cl)ccc(C(=O)[N-]CCc2c[nH]c3ccc(Cl)cc23)c1O (protonated)
NCc1c(Cl)ccc(C(=O)[N-]CCc2c[nH]c3ccc(Cl)cc23)c1O (3D coordinates assigned)
NCc1c(Cl)ccc(C(=O)[N-]CCc2c[nH]c3ccc(Cl)cc23)c1O (optimized conformer: 76.71742940130319 kcal/mol)

>  <smiles>  (4) 
NCc1c(Cl)ccc(C(=O)NCCc2c[nH]c3ccc(Cl)cc23)c1O

>  <score_type>  (4) 
oracle

>  <origin>  (4) 
adgpu

>  <m_score__min__energy>  (4) 
-10.779999999999999

>  <m_primary>  (4) 
energy

$$$$
4:0
     RDKit          3D

 40 42  0  0  0  0  0  0  0  0999 V2000
   -4.8310   25.6360  -30.7700 H   0  0  0  0  0  0  0  0  0  0  0  0
   -3.9470   25.2900  -30.3370 N   0  0  0  0  0  0  0  0  0  0  0  0
   -3.4780   24.0900  -30.4980 C   0  0  0  0  0  0  0  0  0  0  0  0
   -2.3150   23.7650  -29.8790 N   0  0  0  0  0  0  0  0  0  0  0  0
   -1.7440   22.5390  -29.9820 C   0  0  0  0  0  0  0  0  0  0  0  0
   -0.2120   22.2340  -29.0920 S   0  0  0  0  0  0  0  0  0  0  0  0
   -0.9270   20.9000  -28.1300 C   0  0  0  0  0  0  0  0  0  0  0  0
   -2.1790   21.0680  -27.5240 C   0  0  0  0  0  0  0  0  0  0  0  0
   -2.7194   22.0198  -27.6334 H   0  0  0  0  0  0  0  0  0  0  0  0
   -2.7420   20.0260  -26.7800 C   0  0  0  0  0  0  0  0  0  0  0  0
   -3.7267   20.1576  -26.3078 H   0  0  0  0  0  0  0  0  0  0  0  0
   -2.0540   18.8170  -26.6360 C   0  0  0  0  0  0  0  0  0  0  0  0
   -2.4997   17.9974  -26.0531 H   0  0  0  0  0  0  0  0  0  0  0  0
   -0.7960   18.6480  -27.2340 C   0  0  0  0  0  0  0  0  0  0  0  0
   -0.0990   17.4500  -27.0960 O   0  0  0  0  0  0  0  0  0  0  0  0
   -0.4380   16.7070  -26.4950 H   0  0  0  0  0  0  0  0  0  0  0  0
   -0.2350   19.6920  -27.9790 C   0  0  0  0  0  0  0  0  0  0  0  0
    0.7521   19.5631  -28.4471 H   0  0  0  0  0  0  0  0  0  0  0  0
   -2.3540   21.5450  -30.7670 C   0  0  0  0  0  0  0  0  0  0  0  0
   -1.7500   20.2350  -30.8760 C   0  0  0  0  0  0  0  0  0  0  0  0
   -1.2670   19.1870  -30.9660 N   0  0  0  0  0  0  0  0  0  0  0  0
   -3.5690   21.8380  -31.4270 C   0  0  0  0  0  0  0  0  0  0  0  0
   -4.2390   20.8020  -32.2520 C   0  0  0  0  0  0  0  0  0  0  0  0
   -5.5360   20.3720  -31.9310 C   0  0  0  0  0  0  0  0  0  0  0  0
   -6.0575   20.8029  -31.0636 H   0  0  0  0  0  0  0  0  0  0  0  0
   -6.1670   19.3980  -32.7100 C   0  0  0  0  0  0  0  0  0  0  0  0
   -7.1840   19.0663  -32.4535 H   0  0  0  0  0  0  0  0  0  0  0  0
   -5.5070   18.8390  -33.8220 C   0  0  0  0  0  0  0  0  0  0  0  0
   -6.0990   17.8600  -34.6340 O   0  0  0  0  0  0  0  0  0  0  0  0
   -6.4520   16.5540  -34.1910 C   0  0  0  0  0  0  0  0  0  0  0  0
   -6.4587   16.5292  -33.0913 H   0  0  0  0  0  0  0  0  0  0  0  0
   -7.4521   16.2962  -34.5697 H   0  0  0  0  0  0  0  0  0  0  0  0
   -5.7180   15.8275  -34.5697 H   0  0  0  0  0  0  0  0  0  0  0  0
   -4.2140   19.2720  -34.1360 C   0  0  0  0  0  0  0  0  0  0  0  0
   -3.6906   18.8413  -35.0023 H   0  0  0  0  0  0  0  0  0  0  0  0
   -3.5810   20.2470  -33.3590 C   0  0  0  0  0  0  0  0  0  0  0  0
   -2.5646   20.5794  -33.6167 H   0  0  0  0  0  0  0  0  0  0  0  0
   -4.1390   23.1250  -31.2920 C   0  0  0  0  0  0  0  0  0  0  0  0
   -5.3700   23.4530  -31.9850 C   0  0  0  0  0  0  0  0  0  0  0  0
   -6.3530   23.7130  -32.5380 N   0  0  0  0  0  0  0  0  0  0  0  0
  1  2  1  0
  2  3  2  0
  3  4  1  0
  4  5  1  0
  5  6  1  0
  6  7  1  0
  7  8  2  0
  8  9  1  0
  8 10  1  0
 10 11  1  0
 10 12  2  0
 12 13  1  0
 12 14  1  0
 14 15  1  0
 15 16  1  0
 14 17  2  0
 17 18  1  0
  5 19  2  0
 19 20  1  0
 20 21  3  0
 19 22  1  0
 22 23  1  0
 23 24  2  0
 24 25  1  0
 24 26  1  0
 26 27  1  0
 26 28  2  0
 28 29  1  0
 29 30  1  0
 30 31  1  0
 30 32  1  0
 30 33  1  0
 28 34  1  0
 34 35  1  0
 34 36  2  0
 36 37  1  0
 22 38  2  0
 38 39  1  0
 39 40  3  0
 38  3  1  0
 17  7  1  0
 36 23  1  0
M  CHG  1   4  -1
M  END
>  <UniqueID>  (5) 
5

>  <SMILES>  (5) 
[H]/N=c1/[n-]c(Sc2cccc(O)c2)c(C#N)c(-c2ccc(OC)cc2)c1C#N

>  <Energy>  (5) 
49.41359164127961

>  <Genealogy>  (5) 
COc1ccc(-c2c(C#N)c(Sc3cccc(O)c3)[n-]c(=N)c2C#N)cc1 (protonated)
[H]/N=c1/[n-]c(Sc2cccc(O)c2)c(C#N)c(-c2ccc(OC)cc2)c1C#N (cis-trans isomerization)
[H]/N=c1/[n-]c(Sc2cccc(O)c2)c(C#N)c(-c2ccc(OC)cc2)c1C#N (3D coordinates assigned)
[H]/N=c1/[n-]c(Sc2cccc(O)c2)c(C#N)c(-c2ccc(OC)cc2)c1C#N (optimized conformer: 49.41359164127961 kcal/mol)

>  <smiles>  (5) 
COc1ccc(-c2c(C#N)c(Sc3cccc(O)c3)[nH]c(=N)c2C#N)cc1

>  <score_type>  (5) 
oracle

>  <origin>  (5) 
adgpu

>  <m_score__min__energy>  (5) 
-9.2799999999999994

>  <m_primary>  (5) 
energy

$$$$
5:0
     RDKit          3D

 48 51  0  0  0  0  0  0  0  0999 V2000
   -7.5810   24.1530  -31.0550 O   0  0  0  0  0  0  0  0  0  0  0  0
   -6.5170   23.5780  -31.4090 C   0  0  0  0  0  0  0  0  0  0  0  0
   -6.5510   22.4770  -32.3270 N   0  0  0  0  0  0  0  0  0  0  0  0
   -5.4630   21.5950  -32.6430 C   0  0  0  0  0  0  0  0  0  0  0  0
   -5.5940   20.1960  -32.5830 C   0  0  0  0  0  0  0  0  0  0  0  0
   -4.5160   19.3720  -32.9220 C   0  0  0  0  0  0  0  0  0  0  0  0
   -3.3010   19.9340  -33.3330 C   0  0  0  0  0  0  0  0  0  0  0  0
   -1.9420   18.9010  -33.7670 S   0  0  0  0  0  0  0  0  0  0  0  0
   -2.4570   17.5980  -34.3150 O   0  0  0  0  0  0  0  0  0  0  0  0
   -1.1360   19.5980  -34.8270 O   0  0  0  0  0  0  0  0  0  0  0  0
   -0.9540   18.6100  -32.3500 N   0  0  0  0  0  0  0  0  0  0  0  0
    0.4720   18.4210  -32.7010 C   0  0  0  0  0  0  0  0  0  0  0  0
    1.3170   19.6860  -32.4660 C   0  0  0  0  0  0  0  0  0  0  0  0
    0.5440   20.8390  -32.7080 O   0  0  0  0  0  0  0  0  0  0  0  0
   -0.4510   20.9840  -31.7090 C   0  0  0  0  0  0  0  0  0  0  0  0
   -1.1460   19.6550  -31.3290 C   0  0  0  0  0  0  0  0  0  0  0  0
   -3.1780   21.3270  -33.4210 C   0  0  0  0  0  0  0  0  0  0  0  0
   -4.2550   22.1500  -33.0840 C   0  0  0  0  0  0  0  0  0  0  0  0
   -5.2340   24.0030  -30.8390 C   0  0  0  0  0  0  0  0  0  0  0  0
   -4.4170   23.2520  -30.0200 C   0  0  0  0  0  0  0  0  0  0  0  0
   -3.3420   24.0850  -29.7670 C   0  0  0  0  0  0  0  0  0  0  0  0
   -2.1360   23.7740  -28.9620 C   0  0  0  0  0  0  0  0  0  0  0  0
   -1.8360   22.4280  -28.6770 C   0  0  0  0  0  0  0  0  0  0  0  0
   -0.7170   22.0930  -27.9120 C   0  0  0  0  0  0  0  0  0  0  0  0
    0.1250   23.0940  -27.4280 C   0  0  0  0  0  0  0  0  0  0  0  0
   -0.1460   24.4330  -27.7130 C   0  0  0  0  0  0  0  0  0  0  0  0
   -1.2650   24.7820  -28.4850 C   0  0  0  0  0  0  0  0  0  0  0  0
   -1.4920   26.1230  -28.7940 O   0  0  0  0  0  0  0  0  0  0  0  0
   -3.5210   25.2540  -30.4160 N   0  0  0  0  0  0  0  0  0  0  0  0
   -4.6750   25.2060  -31.0640 N   0  0  0  0  0  0  0  0  0  0  0  0
   -6.5481   19.7481  -32.2682 H   0  0  0  0  0  0  0  0  0  0  0  0
   -4.6229   18.2787  -32.8656 H   0  0  0  0  0  0  0  0  0  0  0  0
    0.8805   17.6061  -32.0853 H   0  0  0  0  0  0  0  0  0  0  0  0
    0.5204   18.1851  -33.7743 H   0  0  0  0  0  0  0  0  0  0  0  0
    1.6714   19.6980  -31.4247 H   0  0  0  0  0  0  0  0  0  0  0  0
    2.1749   19.6778  -33.1545 H   0  0  0  0  0  0  0  0  0  0  0  0
    0.0205   21.4002  -30.8065 H   0  0  0  0  0  0  0  0  0  0  0  0
   -1.2263   21.6473  -32.1200 H   0  0  0  0  0  0  0  0  0  0  0  0
   -0.7294   19.2983  -30.3755 H   0  0  0  0  0  0  0  0  0  0  0  0
   -2.2253   19.8515  -31.2483 H   0  0  0  0  0  0  0  0  0  0  0  0
   -2.2304   21.7737  -33.7565 H   0  0  0  0  0  0  0  0  0  0  0  0
   -4.1537   23.2423  -33.1655 H   0  0  0  0  0  0  0  0  0  0  0  0
   -4.5820   22.2282  -29.6531 H   0  0  0  0  0  0  0  0  0  0  0  0
   -2.4904   21.6317  -29.0613 H   0  0  0  0  0  0  0  0  0  0  0  0
   -0.4991   21.0378  -27.6907 H   0  0  0  0  0  0  0  0  0  0  0  0
    1.0031   22.8279  -26.8213 H   0  0  0  0  0  0  0  0  0  0  0  0
    0.5212   25.2194  -27.3304 H   0  0  0  0  0  0  0  0  0  0  0  0
   -2.4250   26.4800  -28.9670 H   0  0  0  0  0  0  0  0  0  0  0  0
  1  2  2  0
  2  3  1  0
  3  4  1  0
  4  5  2  0
  5  6  1  0
  6  7  2  0
  7  8  1  0
  8  9  2  0
  8 10  2  0
  8 11  1  0
 11 12  1  0
 12 13  1  0
 13 14  1  0
 14 15  1  0
 15 16  1  0
  7 17  1  0
 17 18  2  0
  2 19  1  0
 19 20  1  0
 20 21  2  0
 21 22  1  0
 22 23  2  0
 23 24  1  0
 24 25  2  0
 25 26  1  0
 26 27  2  0
 27 28  1  0
 21 29  1  0
 29 30  1  0
 18  4  1  0
 30 19  2  0
 16 11  1  0
 27 22  1  0
  5 31  1  0
  6 32  1  0
 12 33  1  0
 12 34  1  0
 13 35  1  0
 13 36  1  0
 15 37  1  0
 15 38  1  0
 16 39  1  0
 16 40  1  0
 17 41  1  0
 18 42  1  0
 20 43  1  0
 23 44  1  0
 24 45  1  0
 25 46  1  0
 26 47  1  0
 28 48  1  0
M  CHG  2   3  -1  29  -1
M  END
>  <UniqueID>  (6) 
6

>  <SMILES>  (6) 
O=C([N-]c1ccc(S(=O)(=O)N2CCOCC2)cc1)c1cc(-c2ccccc2O)[n-]n1

>  <Energy>  (6) 
98.10829997801723

>  <Genealogy>  (6) 
O=C([N-]c1ccc(S(=O)(=O)N2CCOCC2)cc1)c1cc(-c2ccccc2O)[n-]n1 (protonated)
O=C([N-]c1ccc(S(=O)(=O)N2CCOCC2)cc1)c1cc(-c2ccccc2O)[n-]n1 (3D coordinates assigned)
O=C([N-]c1ccc(S(=O)(=O)N2CCOCC2)cc1)c1cc(-c2ccccc2O)[n-]n1 (nonaromatic ring conformer: 98.10829997801723 kcal/mol)

>  <smiles>  (6) 
O=C(Nc1ccc(S(=O)(=O)N2CCOCC2)cc1)c1cc(-c2ccccc2O)[nH]n1

>  <score_type>  (6) 
oracle

>  <origin>  (6) 
adgpu

>  <m_score__min__energy>  (6) 
-12.550000000000001

>  <m_primary>  (6) 
energy

$$$$
6:0
     RDKit          3D

 53 56  0  0  0  0  0  0  0  0999 V2000
   -4.4730   24.2570  -28.4520 C   0  0  0  0  0  0  0  0  0  0  0  0
   -5.2770   24.8650  -29.9130 S   0  0  0  0  0  0  0  0  0  0  0  0
   -4.2710   25.5840  -30.7680 O   0  0  0  0  0  0  0  0  0  0  0  0
   -6.3590   25.8360  -29.5340 O   0  0  0  0  0  0  0  0  0  0  0  0
   -5.9710   23.5050  -30.8070 C   0  0  0  0  0  0  0  0  0  0  0  0
   -7.3530   23.2740  -30.7380 C   0  0  0  0  0  0  0  0  0  0  0  0
   -7.9270   22.1870  -31.4060 C   0  0  0  0  0  0  0  0  0  0  0  0
   -9.3050   21.9370  -31.3110 C   0  0  0  0  0  0  0  0  0  0  0  0
   -9.8660   20.8400  -31.9700 C   0  0  0  0  0  0  0  0  0  0  0  0
   -9.0600   19.9890  -32.7320 C   0  0  0  0  0  0  0  0  0  0  0  0
   -7.6850   20.2330  -32.8380 C   0  0  0  0  0  0  0  0  0  0  0  0
   -7.1100   21.3290  -32.1770 C   0  0  0  0  0  0  0  0  0  0  0  0
   -5.7340   21.5770  -32.2700 C   0  0  0  0  0  0  0  0  0  0  0  0
   -5.1530   22.6520  -31.5780 C   0  0  0  0  0  0  0  0  0  0  0  0
   -3.7400   22.8960  -31.6390 N   0  0  0  0  0  0  0  0  0  0  0  0
   -2.5180   21.7700  -31.1400 S   0  0  0  0  0  0  0  0  0  0  0  0
   -2.9440   21.1090  -29.8600 O   0  0  0  0  0  0  0  0  0  0  0  0
   -1.2240   22.5020  -30.9040 O   0  0  0  0  0  0  0  0  0  0  0  0
   -2.3330   20.5340  -32.3800 C   0  0  0  0  0  0  0  0  0  0  0  0
   -1.0490   20.1200  -32.7540 C   0  0  0  0  0  0  0  0  0  0  0  0
   -0.8860   19.0960  -33.6900 C   0  0  0  0  0  0  0  0  0  0  0  0
   -2.0000   18.4730  -34.2570 C   0  0  0  0  0  0  0  0  0  0  0  0
   -1.8050   17.4440  -35.1720 O   0  0  0  0  0  0  0  0  0  0  0  0
   -3.2980   18.8870  -33.8960 C   0  0  0  0  0  0  0  0  0  0  0  0
   -4.7400   18.1130  -34.5750 S   0  0  0  0  0  0  0  0  0  0  0  0
   -4.3640   17.4450  -35.8660 O   0  0  0  0  0  0  0  0  0  0  0  0
   -5.7730   19.1570  -34.8840 O   0  0  0  0  0  0  0  0  0  0  0  0
   -5.4400   16.9190  -33.5080 N   0  0  0  0  0  0  0  0  0  0  0  0
   -5.7530   17.4730  -32.1940 C   0  0  0  0  0  0  0  0  0  0  0  0
   -5.7430   16.3030  -31.2230 C   0  0  0  0  0  0  0  0  0  0  0  0
   -4.9310   15.2170  -31.9120 C   0  0  0  0  0  0  0  0  0  0  0  0
   -4.5290   15.8050  -33.2550 C   0  0  0  0  0  0  0  0  0  0  0  0
   -3.4530   19.9170  -32.9520 C   0  0  0  0  0  0  0  0  0  0  0  0
   -4.9878   24.6463  -27.5612 H   0  0  0  0  0  0  0  0  0  0  0  0
   -4.5082   23.1576  -28.4447 H   0  0  0  0  0  0  0  0  0  0  0  0
   -3.4247   24.5903  -28.4447 H   0  0  0  0  0  0  0  0  0  0  0  0
   -7.9909   23.9534  -30.1536 H   0  0  0  0  0  0  0  0  0  0  0  0
   -9.9445   22.6061  -30.7165 H   0  0  0  0  0  0  0  0  0  0  0  0
  -10.9456   20.6453  -31.8889 H   0  0  0  0  0  0  0  0  0  0  0  0
   -9.5063   19.1267  -33.2489 H   0  0  0  0  0  0  0  0  0  0  0  0
   -7.0541   19.5636  -33.4411 H   0  0  0  0  0  0  0  0  0  0  0  0
   -5.1032   20.9237  -32.8907 H   0  0  0  0  0  0  0  0  0  0  0  0
   -0.1660   20.6024  -32.3095 H   0  0  0  0  0  0  0  0  0  0  0  0
    0.1258   18.7784  -33.9822 H   0  0  0  0  0  0  0  0  0  0  0  0
   -4.9950   18.2153  -31.9035 H   0  0  0  0  0  0  0  0  0  0  0  0
   -6.7285   17.9812  -32.1969 H   0  0  0  0  0  0  0  0  0  0  0  0
   -5.2698   16.5942  -30.2736 H   0  0  0  0  0  0  0  0  0  0  0  0
   -6.7605   15.9627  -30.9801 H   0  0  0  0  0  0  0  0  0  0  0  0
   -4.0391   14.9681  -31.3183 H   0  0  0  0  0  0  0  0  0  0  0  0
   -5.5068   14.2870  -32.0282 H   0  0  0  0  0  0  0  0  0  0  0  0
   -3.4901   16.1645  -33.2171 H   0  0  0  0  0  0  0  0  0  0  0  0
   -4.5897   15.0514  -34.0540 H   0  0  0  0  0  0  0  0  0  0  0  0
   -4.4627   20.2413  -32.6599 H   0  0  0  0  0  0  0  0  0  0  0  0
  1  2  1  0
  2  3  2  0
  2  4  2  0
  2  5  1  0
  5  6  2  0
  6  7  1  0
  7  8  2  0
  8  9  1  0
  9 10  2  0
 10 11  1  0
 11 12  2  0
 12 13  1  0
 13 14  2  0
 14 15  1  0
 15 16  1  0
 16 17  2  0
 16 18  2  0
 16 19  1  0
 19 20  2  0
 20 21  1  0
 21 22  2  0
 22 23  1  0
 22 24  1  0
 24 25  1  0
 25 26  2  0
 25 27  2  0
 25 28  1  0
 28 29  1  0
 29 30  1  0
 30 31  1  0
 31 32  1  0
 24 33  2  0
 14  5  1  0
 33 19  1  0
 12  7  1  0
 32 28  1  0
  1 34  1  0
  1 35  1  0
  1 36  1  0
  6 37  1  0
  8 38  1  0
  9 39  1  0
 10 40  1  0
 11 41  1  0
 13 42  1  0
 20 43  1  0
 21 44  1  0
 29 45  1  0
 29 46  1  0
 30 47  1  0
 30 48  1  0
 31 49  1  0
 31 50  1  0
 32 51  1  0
 32 52  1  0
 33 53  1  0
M  CHG  2  15  -1  23  -1
M  END
>  <UniqueID>  (7) 
7

>  <SMILES>  (7) 
CS(=O)(=O)c1cc2ccccc2cc1[N-]S(=O)(=O)c1ccc([O-])c(S(=O)(=O)N2CCCC2)c1

>  <Energy>  (7) 
62.49545962400328

>  <Genealogy>  (7) 
CS(=O)(=O)c1cc2ccccc2cc1[N-]S(=O)(=O)c1ccc([O-])c(S(=O)(=O)N2CCCC2)c1 (protonated)
CS(=O)(=O)c1cc2ccccc2cc1[N-]S(=O)(=O)c1ccc([O-])c(S(=O)(=O)N2CCCC2)c1 (3D coordinates assigned)
CS(=O)(=O)c1cc2ccccc2cc1[N-]S(=O)(=O)c1ccc([O-])c(S(=O)(=O)N2CCCC2)c1 (nonaromatic ring conformer: 62.49545962400328 kcal/mol)

>  <smiles>  (7) 
CS(=O)(=O)c1cc2ccccc2cc1NS(=O)(=O)c1ccc(O)c(S(=O)(=O)N2CCCC2)c1

>  <score_type>  (7) 
oracle

>  <origin>  (7) 
adgpu

>  <m_score__min__energy>  (7) 
-13.359999999999999

>  <m_primary>  (7) 
energy

$$$$
7:0
     RDKit          3D

 57 59  0  0  0  0  0  0  0  0999 V2000
   -1.6090   26.0460  -26.3240 C   0  0  0  0  0  0  0  0  0  0  0  0
   -0.9250   26.4160  -27.6400 C   0  0  0  0  0  0  0  0  0  0  0  0
   -1.0160   25.2890  -28.6700 C   0  0  0  0  0  0  0  0  0  0  0  0
   -2.3320   25.2980  -29.3080 N   0  0  0  0  0  0  0  0  0  0  0  0
   -3.1710   23.8190  -28.9530 S   0  0  0  0  0  0  0  0  0  0  0  0
   -2.3640   22.6590  -29.4640 O   0  0  0  0  0  0  0  0  0  0  0  0
   -3.3300   23.6690  -27.4650 O   0  0  0  0  0  0  0  0  0  0  0  0
   -4.7500   23.8090  -29.7360 C   0  0  0  0  0  0  0  0  0  0  0  0
   -5.5620   24.9510  -29.7160 C   0  0  0  0  0  0  0  0  0  0  0  0
   -6.8060   24.9390  -30.3510 C   0  0  0  0  0  0  0  0  0  0  0  0
   -7.2450   23.7920  -31.0170 C   0  0  0  0  0  0  0  0  0  0  0  0
   -8.4710   23.7880  -31.5970 F   0  0  0  0  0  0  0  0  0  0  0  0
   -6.4330   22.6440  -31.0560 C   0  0  0  0  0  0  0  0  0  0  0  0
   -6.8730   21.4610  -31.7430 N   0  0  0  0  0  0  0  0  0  0  0  0
   -8.0600   20.7550  -31.2400 C   0  0  0  0  0  0  0  0  0  0  0  0
   -8.3460   19.4990  -32.0660 C   0  0  0  0  0  0  0  0  0  0  0  0
   -7.0650   18.8560  -32.3940 N   0  0  0  0  0  0  0  0  0  0  0  0
   -7.1970   17.4330  -32.7770 C   0  0  0  0  0  0  0  0  0  0  0  0
   -5.9110   16.8070  -33.2820 C   0  0  0  0  0  0  0  0  0  0  0  0
   -5.4550   17.0670  -34.5850 C   0  0  0  0  0  0  0  0  0  0  0  0
   -4.2680   16.4890  -35.0470 C   0  0  0  0  0  0  0  0  0  0  0  0
   -3.5250   15.6430  -34.2140 C   0  0  0  0  0  0  0  0  0  0  0  0
   -2.0380   14.9050  -34.8010 S   0  0  0  0  0  0  0  0  0  0  0  0
   -1.8030   15.3120  -36.4640 N   0  0  0  0  0  0  0  0  0  0  0  0
   -0.8710   15.3990  -33.9930 O   0  0  0  0  0  0  0  0  0  0  0  0
   -2.1230   13.4110  -34.6580 O   0  0  0  0  0  0  0  0  0  0  0  0
   -3.9890   15.3620  -32.9230 C   0  0  0  0  0  0  0  0  0  0  0  0
   -5.1740   15.9380  -32.4590 C   0  0  0  0  0  0  0  0  0  0  0  0
   -6.2820   19.6510  -33.3640 C   0  0  0  0  0  0  0  0  0  0  0  0
   -6.3470   21.1690  -33.0820 C   0  0  0  0  0  0  0  0  0  0  0  0
   -5.1870   22.6610  -30.4090 C   0  0  0  0  0  0  0  0  0  0  0  0
   -0.9878   26.3821  -25.4807 H   0  0  0  0  0  0  0  0  0  0  0  0
   -2.5931   26.5348  -26.2721 H   0  0  0  0  0  0  0  0  0  0  0  0
   -1.7384   24.9549  -26.2721 H   0  0  0  0  0  0  0  0  0  0  0  0
   -1.4095   27.3135  -28.0519 H   0  0  0  0  0  0  0  0  0  0  0  0
    0.1391   26.5991  -27.4300 H   0  0  0  0  0  0  0  0  0  0  0  0
   -0.2392   25.4319  -29.4356 H   0  0  0  0  0  0  0  0  0  0  0  0
   -0.8677   24.3242  -28.1629 H   0  0  0  0  0  0  0  0  0  0  0  0
   -5.2188   25.8592  -29.1989 H   0  0  0  0  0  0  0  0  0  0  0  0
   -7.4424   25.8359  -30.3266 H   0  0  0  0  0  0  0  0  0  0  0  0
   -7.8884   20.4649  -30.1929 H   0  0  0  0  0  0  0  0  0  0  0  0
   -8.9260   21.4287  -31.3179 H   0  0  0  0  0  0  0  0  0  0  0  0
   -8.9709   18.8060  -31.4836 H   0  0  0  0  0  0  0  0  0  0  0  0
   -8.8805   19.7679  -32.9890 H   0  0  0  0  0  0  0  0  0  0  0  0
   -7.5338   16.8676  -31.8956 H   0  0  0  0  0  0  0  0  0  0  0  0
   -7.9173   17.3929  -33.6074 H   0  0  0  0  0  0  0  0  0  0  0  0
   -6.0345   17.7287  -35.2455 H   0  0  0  0  0  0  0  0  0  0  0  0
   -3.9169   16.6996  -36.0680 H   0  0  0  0  0  0  0  0  0  0  0  0
   -2.7430   15.5510  -36.8550 H   0  0  0  0  0  0  0  0  0  0  0  0
   -1.2360   16.1900  -36.4860 H   0  0  0  0  0  0  0  0  0  0  0  0
   -3.4177   14.6846  -32.2713 H   0  0  0  0  0  0  0  0  0  0  0  0
   -5.5323   15.7103  -31.4442 H   0  0  0  0  0  0  0  0  0  0  0  0
   -5.2313   19.3289  -33.3161 H   0  0  0  0  0  0  0  0  0  0  0  0
   -6.7153   19.4795  -34.3604 H   0  0  0  0  0  0  0  0  0  0  0  0
   -5.3334   21.5885  -33.1639 H   0  0  0  0  0  0  0  0  0  0  0  0
   -7.0274   21.6210  -33.8187 H   0  0  0  0  0  0  0  0  0  0  0  0
   -4.5488   21.7653  -30.4308 H   0  0  0  0  0  0  0  0  0  0  0  0
  1  2  1  0
  2  3  1  0
  3  4  1  0
  4  5  1  0
  5  6  2  0
  5  7  2  0
  5  8  1  0
  8  9  2  0
  9 10  1  0
 10 11  2  0
 11 12  1  0
 11 13  1  0
 13 14  1  0
 14 15  1  0
 15 16  1  0
 16 17  1  0
 17 18  1  0
 18 19  1  0
 19 20  2  0
 20 21  1  0
 21 22  2  0
 22 23  1  0
 23 24  1  0
 23 25  2  0
 23 26  2  0
 22 27  1  0
 27 28  2  0
 17 29  1  0
 29 30  1  0
 13 31  2  0
 31  8  1  0
 30 14  1  0
 28 19  1  0
  1 32  1  0
  1 33  1  0
  1 34  1  0
  2 35  1  0
  2 36  1  0
  3 37  1  0
  3 38  1  0
  9 39  1  0
 10 40  1  0
 15 41  1  0
 15 42  1  0
 16 43  1  0
 16 44  1  0
 18 45  1  0
 18 46  1  0
 20 47  1  0
 21 48  1  0
 24 49  1  0
 24 50  1  0
 27 51  1  0
 28 52  1  0
 29 53  1  0
 29 54  1  0
 30 55  1  0
 30 56  1  0
 31 57  1  0
M  CHG  1   4  -1
M  END
>  <UniqueID>  (8) 
8

>  <SMILES>  (8) 
CCC[N-]S(=O)(=O)c1ccc(F)c(N2CCN(Cc3ccc(S(N)(=O)=O)cc3)CC2)c1

>  <Energy>  (8) 
62.85931290132794

>  <Genealogy>  (8) 
CCC[N-]S(=O)(=O)c1ccc(F)c(N2CCN(Cc3ccc(S(N)(=O)=O)cc3)CC2)c1 (protonated)
CCC[N-]S(=O)(=O)c1ccc(F)c(N2CCN(Cc3ccc(S(N)(=O)=O)cc3)CC2)c1 (3D coordinates assigned)
CCC[N-]S(=O)(=O)c1ccc(F)c(N2CCN(Cc3ccc(S(N)(=O)=O)cc3)CC2)c1 (nonaromatic ring conformer: 62.85931290132794 kcal/mol)

>  <smiles>  (8) 
CCCNS(=O)(=O)c1ccc(F)c(N2CCN(Cc3ccc(S(N)(=O)=O)cc3)CC2)c1

>  <score_type>  (8) 
oracle

>  <origin>  (8) 
adgpu

>  <m_score__min__energy>  (8) 
-9.2899999999999991

>  <m_primary>  (8) 
energy

$$$$
8:0
     RDKit          3D

 47 50  0  0  0  0  0  0  0  0999 V2000
   -3.5080   20.5370  -28.6390 O   0  0  0  0  0  0  0  0  0  0  0  0
   -2.5920   21.1420  -28.0160 C   0  0  0  0  0  0  0  0  0  0  0  0
   -1.8170   20.4650  -27.0550 C   0  0  0  0  0  0  0  0  0  0  0  0
   -2.0340   19.0030  -26.7350 C   0  0  0  0  0  0  0  0  0  0  0  0
   -0.8740   18.2060  -27.1420 N   0  0  0  0  0  0  0  0  0  0  0  0
   -0.2520   18.2830  -28.4400 C   0  0  0  0  0  0  0  0  0  0  0  0
    0.2510   17.1120  -29.0290 C   0  0  0  0  0  0  0  0  0  0  0  0
    0.8780   17.1570  -30.2760 C   0  0  0  0  0  0  0  0  0  0  0  0
    0.9990   18.3730  -30.9610 C   0  0  0  0  0  0  0  0  0  0  0  0
    1.8230   18.4360  -32.5170 S   0  0  0  0  0  0  0  0  0  0  0  0
    3.0880   19.2370  -32.3770 O   0  0  0  0  0  0  0  0  0  0  0  0
    2.1860   17.0420  -32.9510 O   0  0  0  0  0  0  0  0  0  0  0  0
    0.7810   19.1960  -33.6920 N   0  0  0  0  0  0  0  0  0  0  0  0
    0.8340   20.6550  -33.5880 C   0  0  0  0  0  0  0  0  0  0  0  0
   -0.4990   21.1750  -34.1030 C   0  0  0  0  0  0  0  0  0  0  0  0
   -1.4510   19.9920  -34.0170 C   0  0  0  0  0  0  0  0  0  0  0  0
   -0.6200   18.8420  -33.4680 C   0  0  0  0  0  0  0  0  0  0  0  0
    0.4920   19.5440  -30.3850 C   0  0  0  0  0  0  0  0  0  0  0  0
   -0.1320   19.5010  -29.1350 C   0  0  0  0  0  0  0  0  0  0  0  0
   -0.8360   21.1900  -26.3610 C   0  0  0  0  0  0  0  0  0  0  0  0
   -0.6240   22.4740  -26.6240 O   0  0  0  0  0  0  0  0  0  0  0  0
   -1.3180   23.1440  -27.5370 C   0  0  0  0  0  0  0  0  0  0  0  0
   -1.0360   24.4950  -27.7660 C   0  0  0  0  0  0  0  0  0  0  0  0
   -1.7600   25.2130  -28.7220 C   0  0  0  0  0  0  0  0  0  0  0  0
   -1.4720   26.5550  -28.9430 O   0  0  0  0  0  0  0  0  0  0  0  0
   -2.7720   24.5820  -29.4560 C   0  0  0  0  0  0  0  0  0  0  0  0
   -3.4910   25.2940  -30.4090 O   0  0  0  0  0  0  0  0  0  0  0  0
   -3.0630   23.2310  -29.2330 C   0  0  0  0  0  0  0  0  0  0  0  0
   -2.3380   22.5010  -28.2730 C   0  0  0  0  0  0  0  0  0  0  0  0
   -2.1880   18.8895  -25.6518 H   0  0  0  0  0  0  0  0  0  0  0  0
   -2.9177   18.6479  -27.2854 H   0  0  0  0  0  0  0  0  0  0  0  0
   -0.4340   17.6000  -26.4130 H   0  0  0  0  0  0  0  0  0  0  0  0
    0.1503   16.1508  -28.5037 H   0  0  0  0  0  0  0  0  0  0  0  0
    1.2782   16.2345  -30.7219 H   0  0  0  0  0  0  0  0  0  0  0  0
    0.9797   20.9559  -32.5400 H   0  0  0  0  0  0  0  0  0  0  0  0
    1.6720   21.0645  -34.1711 H   0  0  0  0  0  0  0  0  0  0  0  0
   -0.8574   22.0045  -33.4757 H   0  0  0  0  0  0  0  0  0  0  0  0
   -0.4191   21.5636  -35.1290 H   0  0  0  0  0  0  0  0  0  0  0  0
   -2.2873   20.2198  -33.3398 H   0  0  0  0  0  0  0  0  0  0  0  0
   -1.8893   19.7483  -34.9960 H   0  0  0  0  0  0  0  0  0  0  0  0
   -0.8121   18.7143  -32.3925 H   0  0  0  0  0  0  0  0  0  0  0  0
   -0.8748   17.8949  -33.9660 H   0  0  0  0  0  0  0  0  0  0  0  0
    0.5851   20.5016  -30.9182 H   0  0  0  0  0  0  0  0  0  0  0  0
   -0.5318   20.4249  -28.6917 H   0  0  0  0  0  0  0  0  0  0  0  0
   -0.2347   20.6878  -25.5889 H   0  0  0  0  0  0  0  0  0  0  0  0
   -0.2416   24.9940  -27.1916 H   0  0  0  0  0  0  0  0  0  0  0  0
   -3.8602   22.7389  -29.8095 H   0  0  0  0  0  0  0  0  0  0  0  0
  1  2  2  0
  2  3  1  0
  3  4  1  0
  4  5  1  0
  5  6  1  0
  6  7  2  0
  7  8  1  0
  8  9  2  0
  9 10  1  0
 10 11  2  0
 10 12  2  0
 10 13  1  0
 13 14  1  0
 14 15  1  0
 15 16  1  0
 16 17  1  0
  9 18  1  0
 18 19  2  0
  3 20  2  0
 20 21  1  0
 21 22  1  0
 22 23  2  0
 23 24  1  0
 24 25  1  0
 24 26  2  0
 26 27  1  0
 26 28  1  0
 28 29  2  0
 29  2  1  0
 19  6  1  0
 29 22  1  0
 17 13  1  0
  4 30  1  0
  4 31  1  0
  5 32  1  0
  7 33  1  0
  8 34  1  0
 14 35  1  0
 14 36  1  0
 15 37  1  0
 15 38  1  0
 16 39  1  0
 16 40  1  0
 17 41  1  0
 17 42  1  0
 18 43  1  0
 19 44  1  0
 20 45  1  0
 23 46  1  0
 28 47  1  0
M  CHG  2  25  -1  27  -1
M  END
>  <UniqueID>  (9) 
9

>  <SMILES>  (9) 
O=c1c(CNc2ccc(S(=O)(=O)N3CCCC3)cc2)coc2cc([O-])c([O-])cc12

>  <Energy>  (9) 
56.820212870776

>  <Genealogy>  (9) 
O=c1c(CNc2ccc(S(=O)(=O)N3CCCC3)cc2)coc2cc([O-])c([O-])cc12 (protonated)
O=c1c(CNc2ccc(S(=O)(=O)N3CCCC3)cc2)coc2cc([O-])c([O-])cc12 (3D coordinates assigned)
O=c1c(CNc2ccc(S(=O)(=O)N3CCCC3)cc2)coc2cc([O-])c([O-])cc12 (nonaromatic ring conformer: 56.820212870776 kcal/mol)

>  <smiles>  (9) 
O=c1c(CNc2ccc(S(=O)(=O)N3CCCC3)cc2)coc2cc(O)c(O)cc12

>  <score_type>  (9) 
oracle

>  <origin>  (9) 
adgpu

>  <m_score__min__energy>  (9) 
-12.32

>  <m_primary>  (9) 
energy

$$$$
9:0
     RDKit          3D

 40 42  0  0  0  0  0  0  0  0999 V2000
   -9.2070   18.1700  -31.5960 C   0  0  0  0  0  0  0  0  0  0  0  0
   -7.9250   18.8810  -31.6290 N   0  0  0  0  0  0  0  0  0  0  0  0
   -6.6750   18.1130  -31.7360 C   0  0  0  0  0  0  0  0  0  0  0  0
   -6.6170   17.2920  -33.0370 C   0  0  0  0  0  0  0  0  0  0  0  0
   -6.0440   18.0680  -34.2360 C   0  0  0  0  0  0  0  0  0  0  0  0
   -4.9360   19.0160  -33.8620 C   0  0  0  0  0  0  0  0  0  0  0  0
   -3.6070   18.5690  -33.7970 C   0  0  0  0  0  0  0  0  0  0  0  0
   -2.5950   19.4690  -33.4600 C   0  0  0  0  0  0  0  0  0  0  0  0
   -2.9090   20.8060  -33.2150 C   0  0  0  0  0  0  0  0  0  0  0  0
   -4.2360   21.2260  -33.3200 C   0  0  0  0  0  0  0  0  0  0  0  0
   -5.2090   20.3340  -33.6440 N   0  0  0  0  0  0  0  0  0  0  0  0
   -7.9060   20.3190  -31.5580 C   0  0  0  0  0  0  0  0  0  0  0  0
   -6.8130   21.0350  -31.2180 N   0  0  0  0  0  0  0  0  0  0  0  0
   -7.0290   22.3780  -31.2780 C   0  0  0  0  0  0  0  0  0  0  0  0
   -5.9430   23.3470  -30.9840 C   0  0  0  0  0  0  0  0  0  0  0  0
   -6.1830   24.7330  -30.9370 C   0  0  0  0  0  0  0  0  0  0  0  0
   -5.1300   25.6100  -30.6620 C   0  0  0  0  0  0  0  0  0  0  0  0
   -3.8790   25.1280  -30.4380 N   0  0  0  0  0  0  0  0  0  0  0  0
   -3.6150   23.7960  -30.4720 C   0  0  0  0  0  0  0  0  0  0  0  0
   -4.6380   22.8840  -30.7420 C   0  0  0  0  0  0  0  0  0  0  0  0
   -8.3220   22.7370  -31.6750 C   0  0  0  0  0  0  0  0  0  0  0  0
   -9.1930   21.3270  -31.9550 S   0  0  0  0  0  0  0  0  0  0  0  0
   -9.5072   18.0035  -30.5509 H   0  0  0  0  0  0  0  0  0  0  0  0
   -9.9734   18.7720  -32.1062 H   0  0  0  0  0  0  0  0  0  0  0  0
   -9.1022   17.2011  -32.1062 H   0  0  0  0  0  0  0  0  0  0  0  0
   -5.8255   18.8115  -31.7178 H   0  0  0  0  0  0  0  0  0  0  0  0
   -6.6304   17.4134  -30.8883 H   0  0  0  0  0  0  0  0  0  0  0  0
   -5.9854   16.4086  -32.8618 H   0  0  0  0  0  0  0  0  0  0  0  0
   -7.6527   17.0248  -33.2937 H   0  0  0  0  0  0  0  0  0  0  0  0
   -5.6515   17.3434  -34.9646 H   0  0  0  0  0  0  0  0  0  0  0  0
   -6.8628   18.6740  -34.6511 H   0  0  0  0  0  0  0  0  0  0  0  0
   -3.3650   17.5173  -34.0101 H   0  0  0  0  0  0  0  0  0  0  0  0
   -1.5526   19.1251  -33.3878 H   0  0  0  0  0  0  0  0  0  0  0  0
   -2.1194   21.5215  -32.9420 H   0  0  0  0  0  0  0  0  0  0  0  0
   -4.4946   22.2800  -33.1403 H   0  0  0  0  0  0  0  0  0  0  0  0
   -7.1953   25.1245  -31.1160 H   0  0  0  0  0  0  0  0  0  0  0  0
   -5.3143   26.6939  -30.6267 H   0  0  0  0  0  0  0  0  0  0  0  0
   -2.5928   23.4345  -30.2864 H   0  0  0  0  0  0  0  0  0  0  0  0
   -4.4228   21.8055  -30.7652 H   0  0  0  0  0  0  0  0  0  0  0  0
   -8.7022   23.7634  -31.7847 H   0  0  0  0  0  0  0  0  0  0  0  0
  1  2  1  0
  2  3  1  0
  3  4  1  0
  4  5  1  0
  5  6  1  0
  6  7  2  0
  7  8  1  0
  8  9  2  0
  9 10  1  0
 10 11  2  0
  2 12  1  0
 12 13  2  0
 13 14  1  0
 14 15  1  0
 15 16  2  0
 16 17  1  0
 17 18  2  0
 18 19  1  0
 19 20  2  0
 14 21  2  0
 21 22  1  0
 11  6  1  0
 22 12  1  0
 20 15  1  0
  1 23  1  0
  1 24  1  0
  1 25  1  0
  3 26  1  0
  3 27  1  0
  4 28  1  0
  4 29  1  0
  5 30  1  0
  5 31  1  0
  7 32  1  0
  8 33  1  0
  9 34  1  0
 10 35  1  0
 16 36  1  0
 17 37  1  0
 19 38  1  0
 20 39  1  0
 21 40  1  0
M  END
>  <UniqueID>  (10) 
10

>  <SMILES>  (10) 
CN(CCCc1ccccn1)c1nc(-c2ccncc2)cs1

>  <Energy>  (10) 
66.89648423543251

>  <Genealogy>  (10) 
CN(CCCc1ccccn1)c1nc(-c2ccncc2)cs1 (3D coordinates assigned)
CN(CCCc1ccccn1)c1nc(-c2ccncc2)cs1 (optimized conformer: 66.89648423543251 kcal/mol)

>  <smiles>  (10) 
CN(CCCc1ccccn1)c1nc(-c2ccncc2)cs1

>  <score_type>  (10) 
oracle

>  <origin>  (10) 
adgpu

>  <m_score__min__energy>  (10) 
-7.8499999999999996

>  <m_primary>  (10) 
energy

$$$$
10:0
     RDKit          3D

 58 60  0  0  0  0  0  0  0  0999 V2000
   -1.4100   21.1960  -32.1510 C   0  0  0  0  0  0  0  0  0  0  0  0
   -2.8150   21.3890  -31.5950 C   0  0  0  0  0  0  0  0  0  0  0  0
   -4.0430   21.2460  -32.8840 S   0  0  0  0  0  0  0  0  0  0  0  0
   -3.4050   20.8140  -34.1710 O   0  0  0  0  0  0  0  0  0  0  0  0
   -4.6510   22.6020  -33.1150 O   0  0  0  0  0  0  0  0  0  0  0  0
   -5.3220   20.1290  -32.3580 C   0  0  0  0  0  0  0  0  0  0  0  0
   -5.0890   18.7640  -32.6050 C   0  0  0  0  0  0  0  0  0  0  0  0
   -6.0280   17.7840  -32.2490 C   0  0  0  0  0  0  0  0  0  0  0  0
   -5.7760   16.3460  -32.5110 C   0  0  0  0  0  0  0  0  0  0  0  0
   -6.1090   15.8550  -33.6240 O   0  0  0  0  0  0  0  0  0  0  0  0
   -5.1730   15.5030  -31.5150 N   0  0  0  0  0  0  0  0  0  0  0  0
   -4.8160   14.1110  -31.7790 C   0  0  0  0  0  0  0  0  0  0  0  0
   -3.3900   14.0220  -32.3370 C   0  0  0  0  0  0  0  0  0  0  0  0
   -3.2850   14.5880  -33.7590 C   0  0  0  0  0  0  0  0  0  0  0  0
   -2.6110   15.8880  -33.7730 N   0  0  0  0  0  0  0  0  0  0  0  0
   -1.5370   16.2690  -32.8730 C   0  0  0  0  0  0  0  0  0  0  0  0
   -1.1510   17.7110  -33.2590 C   0  0  0  0  0  0  0  0  0  0  0  0
   -2.1940   18.2080  -34.2730 C   0  0  0  0  0  0  0  0  0  0  0  0
   -2.9960   17.0020  -34.5550 C   0  0  0  0  0  0  0  0  0  0  0  0
   -3.9360   16.9670  -35.3920 O   0  0  0  0  0  0  0  0  0  0  0  0
   -7.2320   18.1850  -31.6600 C   0  0  0  0  0  0  0  0  0  0  0  0
   -7.4880   19.5330  -31.4180 C   0  0  0  0  0  0  0  0  0  0  0  0
   -6.5510   20.5240  -31.7580 C   0  0  0  0  0  0  0  0  0  0  0  0
   -6.9990   22.2120  -31.4220 S   0  0  0  0  0  0  0  0  0  0  0  0
   -7.4230   22.8960  -32.6920 O   0  0  0  0  0  0  0  0  0  0  0  0
   -8.1680   22.2440  -30.4770 O   0  0  0  0  0  0  0  0  0  0  0  0
   -5.6280   23.1120  -30.7830 C   0  0  0  0  0  0  0  0  0  0  0  0
   -5.3890   24.4180  -31.2350 C   0  0  0  0  0  0  0  0  0  0  0  0
   -4.3040   25.1470  -30.7380 C   0  0  0  0  0  0  0  0  0  0  0  0
   -3.4580   24.5790  -29.7790 C   0  0  0  0  0  0  0  0  0  0  0  0
   -2.3780   25.3020  -29.2900 O   0  0  0  0  0  0  0  0  0  0  0  0
   -3.7030   23.2830  -29.3130 C   0  0  0  0  0  0  0  0  0  0  0  0
   -4.7890   22.5540  -29.8070 C   0  0  0  0  0  0  0  0  0  0  0  0
   -0.6968   21.0980  -31.3193 H   0  0  0  0  0  0  0  0  0  0  0  0
   -1.3815   20.2855  -32.7676 H   0  0  0  0  0  0  0  0  0  0  0  0
   -1.1371   22.0651  -32.7676 H   0  0  0  0  0  0  0  0  0  0  0  0
   -3.0068   20.6225  -30.8297 H   0  0  0  0  0  0  0  0  0  0  0  0
   -2.8824   22.3966  -31.1590 H   0  0  0  0  0  0  0  0  0  0  0  0
   -4.1494   18.4579  -33.0882 H   0  0  0  0  0  0  0  0  0  0  0  0
   -4.9960   15.8740  -30.5540 H   0  0  0  0  0  0  0  0  0  0  0  0
   -4.8752   13.5376  -30.8422 H   0  0  0  0  0  0  0  0  0  0  0  0
   -5.5159   13.6972  -32.5199 H   0  0  0  0  0  0  0  0  0  0  0  0
   -2.7165   14.5910  -31.6792 H   0  0  0  0  0  0  0  0  0  0  0  0
   -3.1097   12.9590  -32.3763 H   0  0  0  0  0  0  0  0  0  0  0  0
   -2.7149   13.8835  -34.3825 H   0  0  0  0  0  0  0  0  0  0  0  0
   -4.3036   14.7241  -34.1514 H   0  0  0  0  0  0  0  0  0  0  0  0
   -1.8818   16.2320  -31.8291 H   0  0  0  0  0  0  0  0  0  0  0  0
   -0.6790   15.5858  -32.9573 H   0  0  0  0  0  0  0  0  0  0  0  0
   -1.1575   18.3541  -32.3666 H   0  0  0  0  0  0  0  0  0  0  0  0
   -0.1409   17.7405  -33.6934 H   0  0  0  0  0  0  0  0  0  0  0  0
   -2.8178   19.0032  -33.8388 H   0  0  0  0  0  0  0  0  0  0  0  0
   -1.7421   18.6448  -35.1758 H   0  0  0  0  0  0  0  0  0  0  0  0
   -7.9830   17.4295  -31.3856 H   0  0  0  0  0  0  0  0  0  0  0  0
   -8.4404   19.8269  -30.9526 H   0  0  0  0  0  0  0  0  0  0  0  0
   -6.0571   24.8703  -31.9828 H   0  0  0  0  0  0  0  0  0  0  0  0
   -4.1154   26.1680  -31.1013 H   0  0  0  0  0  0  0  0  0  0  0  0
   -3.0403   22.8368  -28.5568 H   0  0  0  0  0  0  0  0  0  0  0  0
   -4.9861   21.5399  -29.4292 H   0  0  0  0  0  0  0  0  0  0  0  0
  1  2  1  0
  2  3  1  0
  3  4  2  0
  3  5  2  0
  3  6  1  0
  6  7  2  0
  7  8  1  0
  8  9  1  0
  9 10  2  0
  9 11  1  0
 11 12  1  0
 12 13  1  0
 13 14  1  0
 14 15  1  0
 15 16  1  0
 16 17  1  0
 17 18  1  0
 18 19  1  0
 19 20  2  0
  8 21  2  0
 21 22  1  0
 22 23  2  0
 23 24  1  0
 24 25  2  0
 24 26  2  0
 24 27  1  0
 27 28  2  0
 28 29  1  0
 29 30  2  0
 30 31  1  0
 30 32  1  0
 32 33  2  0
 23  6  1  0
 33 27  1  0
 19 15  1  0
  1 34  1  0
  1 35  1  0
  1 36  1  0
  2 37  1  0
  2 38  1  0
  7 39  1  0
 11 40  1  0
 12 41  1  0
 12 42  1  0
 13 43  1  0
 13 44  1  0
 14 45  1  0
 14 46  1  0
 16 47  1  0
 16 48  1  0
 17 49  1  0
 17 50  1  0
 18 51  1  0
 18 52  1  0
 21 53  1  0
 22 54  1  0
 28 55  1  0
 29 56  1  0
 32 57  1  0
 33 58  1  0
M  CHG  1  31  -1
M  END
>  <UniqueID>  (11) 
11

>  <SMILES>  (11) 
CCS(=O)(=O)c1cc(C(=O)NCCCN2CCCC2=O)ccc1S(=O)(=O)c1ccc([O-])cc1

>  <Energy>  (11) 
61.4630431944545

>  <Genealogy>  (11) 
CCS(=O)(=O)c1cc(C(=O)NCCCN2CCCC2=O)ccc1S(=O)(=O)c1ccc([O-])cc1 (protonated)
CCS(=O)(=O)c1cc(C(=O)NCCCN2CCCC2=O)ccc1S(=O)(=O)c1ccc([O-])cc1 (3D coordinates assigned)
CCS(=O)(=O)c1cc(C(=O)NCCCN2CCCC2=O)ccc1S(=O)(=O)c1ccc([O-])cc1 (nonaromatic ring conformer: 61.4630431944545 kcal/mol)

>  <smiles>  (11) 
CCS(=O)(=O)c1cc(C(=O)NCCCN2CCCC2=O)ccc1S(=O)(=O)c1ccc(O)cc1

>  <score_type>  (11) 
oracle

>  <origin>  (11) 
adgpu

>  <m_score__min__energy>  (11) 
-10.890000000000001

>  <m_primary>  (11) 
energy

$$$$
11:0
     RDKit          3D

 56 59  0  0  0  0  0  0  0  0999 V2000
   -1.4790   25.6460  -29.1040 O   0  0  0  0  0  0  0  0  0  0  0  0
   -2.2800   24.6960  -29.3200 C   0  0  0  0  0  0  0  0  0  0  0  0
   -3.4670   24.9290  -30.0900 N   0  0  0  0  0  0  0  0  0  0  0  0
   -4.4050   23.9380  -30.5360 C   0  0  0  0  0  0  0  0  0  0  0  0
   -5.7800   24.0340  -30.2570 C   0  0  0  0  0  0  0  0  0  0  0  0
   -6.6560   23.0360  -30.6910 C   0  0  0  0  0  0  0  0  0  0  0  0
   -6.1700   21.9310  -31.3930 C   0  0  0  0  0  0  0  0  0  0  0  0
   -4.8000   21.8150  -31.6590 C   0  0  0  0  0  0  0  0  0  0  0  0
   -4.1690   20.4070  -32.5120 S   0  0  0  0  0  0  0  0  0  0  0  0
   -3.0580   19.8080  -31.6950 O   0  0  0  0  0  0  0  0  0  0  0  0
   -3.6130   20.8240  -33.8450 O   0  0  0  0  0  0  0  0  0  0  0  0
   -5.4370   19.2260  -32.7350 N   0  0  0  0  0  0  0  0  0  0  0  0
   -6.0330   18.8740  -31.4270 C   0  0  0  0  0  0  0  0  0  0  0  0
   -7.3950   18.1970  -31.5960 C   0  0  0  0  0  0  0  0  0  0  0  0
   -8.4020   19.1400  -32.2800 C   0  0  0  0  0  0  0  0  0  0  0  0
   -7.7190   20.2130  -33.1450 C   0  0  0  0  0  0  0  0  0  0  0  0
   -6.4150   19.6820  -33.7560 C   0  0  0  0  0  0  0  0  0  0  0  0
   -3.9210   22.8130  -31.2160 C   0  0  0  0  0  0  0  0  0  0  0  0
   -1.9670   23.3230  -28.8320 C   0  0  0  0  0  0  0  0  0  0  0  0
   -2.3430   22.9490  -27.5330 C   0  0  0  0  0  0  0  0  0  0  0  0
   -2.0670   21.6710  -27.0620 C   0  0  0  0  0  0  0  0  0  0  0  0
   -1.4170   20.7590  -27.8880 C   0  0  0  0  0  0  0  0  0  0  0  0
   -1.0470   21.1060  -29.1580 N   0  0  0  0  0  0  0  0  0  0  0  0
   -0.3360   20.1070  -29.9760 C   0  0  0  0  0  0  0  0  0  0  0  0
    0.4650   19.1860  -29.0950 C   0  0  0  0  0  0  0  0  0  0  0  0
   -0.0460   17.9290  -28.7310 C   0  0  0  0  0  0  0  0  0  0  0  0
    0.7130   17.0630  -27.9370 C   0  0  0  0  0  0  0  0  0  0  0  0
    1.9880   17.4420  -27.5080 C   0  0  0  0  0  0  0  0  0  0  0  0
    2.5080   18.6880  -27.8730 C   0  0  0  0  0  0  0  0  0  0  0  0
    3.7470   19.0530  -27.4590 F   0  0  0  0  0  0  0  0  0  0  0  0
    1.7510   19.5560  -28.6670 C   0  0  0  0  0  0  0  0  0  0  0  0
   -1.2990   22.3690  -29.6380 C   0  0  0  0  0  0  0  0  0  0  0  0
   -0.9320   22.6820  -30.8050 O   0  0  0  0  0  0  0  0  0  0  0  0
   -6.1668   24.8972  -29.6955 H   0  0  0  0  0  0  0  0  0  0  0  0
   -7.7320   23.1209  -30.4791 H   0  0  0  0  0  0  0  0  0  0  0  0
   -6.8643   21.1505  -31.7376 H   0  0  0  0  0  0  0  0  0  0  0  0
   -5.3554   18.1872  -30.8986 H   0  0  0  0  0  0  0  0  0  0  0  0
   -6.1769   19.8009  -30.8524 H   0  0  0  0  0  0  0  0  0  0  0  0
   -7.2732   17.2938  -32.2119 H   0  0  0  0  0  0  0  0  0  0  0  0
   -7.7816   17.9365  -30.5997 H   0  0  0  0  0  0  0  0  0  0  0  0
   -9.0652   18.5409  -32.9213 H   0  0  0  0  0  0  0  0  0  0  0  0
   -8.9614   19.6591  -31.4878 H   0  0  0  0  0  0  0  0  0  0  0  0
   -8.4012   20.5089  -33.9556 H   0  0  0  0  0  0  0  0  0  0  0  0
   -7.4798   21.0763  -32.5067 H   0  0  0  0  0  0  0  0  0  0  0  0
   -6.6563   18.8336  -34.4133 H   0  0  0  0  0  0  0  0  0  0  0  0
   -5.9498   20.5116  -34.3087 H   0  0  0  0  0  0  0  0  0  0  0  0
   -2.8419   22.7119  -31.4039 H   0  0  0  0  0  0  0  0  0  0  0  0
   -2.8592   23.6715  -26.8837 H   0  0  0  0  0  0  0  0  0  0  0  0
   -2.3607   21.3820  -26.0421 H   0  0  0  0  0  0  0  0  0  0  0  0
   -1.1983   19.7475  -27.5152 H   0  0  0  0  0  0  0  0  0  0  0  0
   -1.0685   19.5173  -30.5467 H   0  0  0  0  0  0  0  0  0  0  0  0
    0.3463   20.6276  -30.6641 H   0  0  0  0  0  0  0  0  0  0  0  0
   -1.0467   17.6247  -29.0717 H   0  0  0  0  0  0  0  0  0  0  0  0
    0.3058   16.0823  -27.6498 H   0  0  0  0  0  0  0  0  0  0  0  0
    2.5829   16.7599  -26.8829 H   0  0  0  0  0  0  0  0  0  0  0  0
    2.1646   20.5330  -28.9577 H   0  0  0  0  0  0  0  0  0  0  0  0
  1  2  2  0
  2  3  1  0
  3  4  1  0
  4  5  2  0
  5  6  1  0
  6  7  2  0
  7  8  1  0
  8  9  1  0
  9 10  2  0
  9 11  2  0
  9 12  1  0
 12 13  1  0
 13 14  1  0
 14 15  1  0
 15 16  1  0
 16 17  1  0
  8 18  2  0
  2 19  1  0
 19 20  2  0
 20 21  1  0
 21 22  2  0
 22 23  1  0
 23 24  1  0
 24 25  1  0
 25 26  2  0
 26 27  1  0
 27 28  2  0
 28 29  1  0
 29 30  1  0
 29 31  2  0
 23 32  1  0
 32 33  2  0
 18  4  1  0
 32 19  1  0
 17 12  1  0
 31 25  1  0
  5 34  1  0
  6 35  1  0
  7 36  1  0
 13 37  1  0
 13 38  1  0
 14 39  1  0
 14 40  1  0
 15 41  1  0
 15 42  1  0
 16 43  1  0
 16 44  1  0
 17 45  1  0
 17 46  1  0
 18 47  1  0
 20 48  1  0
 21 49  1  0
 22 50  1  0
 24 51  1  0
 24 52  1  0
 26 53  1  0
 27 54  1  0
 28 55  1  0
 31 56  1  0
M  CHG  1   3  -1
M  END
>  <UniqueID>  (12) 
12

>  <SMILES>  (12) 
O=C([N-]c1cccc(S(=O)(=O)N2CCCCC2)c1)c1cccn(Cc2cccc(F)c2)c1=O

>  <Energy>  (12) 
72.62431358653035

>  <Genealogy>  (12) 
O=C([N-]c1cccc(S(=O)(=O)N2CCCCC2)c1)c1cccn(Cc2cccc(F)c2)c1=O (protonated)
O=C([N-]c1cccc(S(=O)(=O)N2CCCCC2)c1)c1cccn(Cc2cccc(F)c2)c1=O (3D coordinates assigned)
O=C([N-]c1cccc(S(=O)(=O)N2CCCCC2)c1)c1cccn(Cc2cccc(F)c2)c1=O (nonaromatic ring conformer: 72.62431358653035 kcal/mol)

>  <smiles>  (12) 
O=C(Nc1cccc(S(=O)(=O)N2CCCCC2)c1)c1cccn(Cc2cccc(F)c2)c1=O

>  <score_type>  (12) 
oracle

>  <origin>  (12) 
adgpu

>  <m_score__min__energy>  (12) 
-12.42

>  <m_primary>  (12) 
energy

$$$$
12:0
     RDKit          3D

 63 66  0  0  0  0  0  0  0  0999 V2000
   -0.6520   20.9160  -28.5100 O   0  0  0  0  0  0  0  0  0  0  0  0
   -0.5740   21.6880  -29.5050 C   0  0  0  0  0  0  0  0  0  0  0  0
   -0.8840   23.1400  -29.3460 C   0  0  0  0  0  0  0  0  0  0  0  0
   -2.2640   23.4140  -29.8840 C   0  0  0  0  0  0  0  0  0  0  0  0
   -2.9670   22.3870  -30.5380 C   0  0  0  0  0  0  0  0  0  0  0  0
   -4.2860   22.5870  -30.9640 C   0  0  0  0  0  0  0  0  0  0  0  0
   -5.1510   21.2910  -31.7890 S   0  0  0  0  0  0  0  0  0  0  0  0
   -4.8290   21.3320  -33.2570 O   0  0  0  0  0  0  0  0  0  0  0  0
   -4.6840   19.9670  -31.2490 O   0  0  0  0  0  0  0  0  0  0  0  0
   -6.8780   21.4300  -31.5740 N   0  0  0  0  0  0  0  0  0  0  0  0
   -7.4130   22.5690  -32.3370 C   0  0  0  0  0  0  0  0  0  0  0  0
   -8.8550   22.8620  -31.8880 C   0  0  0  0  0  0  0  0  0  0  0  0
   -9.5810   21.5940  -31.3950 C   0  0  0  0  0  0  0  0  0  0  0  0
   -9.0790   20.3400  -32.1230 C   0  0  0  0  0  0  0  0  0  0  0  0
   -7.5510   20.1690  -31.9610 C   0  0  0  0  0  0  0  0  0  0  0  0
   -4.9120   23.8180  -30.7260 C   0  0  0  0  0  0  0  0  0  0  0  0
   -4.2230   24.8420  -30.0700 C   0  0  0  0  0  0  0  0  0  0  0  0
   -2.9050   24.6460  -29.6440 C   0  0  0  0  0  0  0  0  0  0  0  0
   -2.2470   25.6730  -28.9730 O   0  0  0  0  0  0  0  0  0  0  0  0
   -0.1280   21.1940  -30.7740 N   0  0  0  0  0  0  0  0  0  0  0  0
   -0.3930   19.8670  -31.2380 C   0  0  0  0  0  0  0  0  0  0  0  0
    0.3790   18.8210  -30.7360 C   0  0  0  0  0  0  0  0  0  0  0  0
    0.1930   17.5240  -31.2040 C   0  0  0  0  0  0  0  0  0  0  0  0
   -0.7710   17.2480  -32.1790 C   0  0  0  0  0  0  0  0  0  0  0  0
   -0.8880   15.5780  -32.7260 Cl  0  0  0  0  0  0  0  0  0  0  0  0
   -1.5930   18.2900  -32.6780 C   0  0  0  0  0  0  0  0  0  0  0  0
   -2.8430   17.9890  -33.9200 S   0  0  0  0  0  0  0  0  0  0  0  0
   -2.2080   17.3550  -35.1270 O   0  0  0  0  0  0  0  0  0  0  0  0
   -3.4540   19.2840  -34.3790 O   0  0  0  0  0  0  0  0  0  0  0  0
   -4.1160   16.9430  -33.3250 N   0  0  0  0  0  0  0  0  0  0  0  0
   -4.4370   15.8910  -34.3110 C   0  0  0  0  0  0  0  0  0  0  0  0
   -5.8430   15.3150  -34.0560 C   0  0  0  0  0  0  0  0  0  0  0  0
   -6.8880   16.2780  -34.1300 O   0  0  0  0  0  0  0  0  0  0  0  0
   -6.4560   17.6160  -33.9060 C   0  0  0  0  0  0  0  0  0  0  0  0
   -5.3050   17.7070  -32.8850 C   0  0  0  0  0  0  0  0  0  0  0  0
   -1.4150   19.6010  -32.1760 C   0  0  0  0  0  0  0  0  0  0  0  0
   -2.2740   20.6190  -32.5940 O   0  0  0  0  0  0  0  0  0  0  0  0
   -0.8443   23.4101  -28.2804 H   0  0  0  0  0  0  0  0  0  0  0  0
   -0.1459   23.7382  -29.9004 H   0  0  0  0  0  0  0  0  0  0  0  0
   -2.4770   21.4185  -30.7165 H   0  0  0  0  0  0  0  0  0  0  0  0
   -6.7869   23.4555  -32.1579 H   0  0  0  0  0  0  0  0  0  0  0  0
   -7.4079   22.3239  -33.4093 H   0  0  0  0  0  0  0  0  0  0  0  0
   -8.8287   23.5961  -31.0692 H   0  0  0  0  0  0  0  0  0  0  0  0
   -9.4067   23.2506  -32.7567 H   0  0  0  0  0  0  0  0  0  0  0  0
   -9.4024   21.4765  -30.3160 H   0  0  0  0  0  0  0  0  0  0  0  0
  -10.6550   21.7078  -31.6039 H   0  0  0  0  0  0  0  0  0  0  0  0
   -9.5845   19.4569  -31.7052 H   0  0  0  0  0  0  0  0  0  0  0  0
   -9.3042   20.4475  -33.1943 H   0  0  0  0  0  0  0  0  0  0  0  0
   -7.3608   19.4144  -31.1835 H   0  0  0  0  0  0  0  0  0  0  0  0
   -7.1441   19.8576  -32.9344 H   0  0  0  0  0  0  0  0  0  0  0  0
   -5.9488   23.9789  -31.0565 H   0  0  0  0  0  0  0  0  0  0  0  0
   -4.7195   25.8065  -29.8878 H   0  0  0  0  0  0  0  0  0  0  0  0
    1.1388   19.0217  -29.9663 H   0  0  0  0  0  0  0  0  0  0  0  0
    0.8107   16.7070  -30.8029 H   0  0  0  0  0  0  0  0  0  0  0  0
   -4.4014   16.3215  -35.3226 H   0  0  0  0  0  0  0  0  0  0  0  0
   -3.7002   15.0799  -34.2147 H   0  0  0  0  0  0  0  0  0  0  0  0
   -6.0382   14.5352  -34.8069 H   0  0  0  0  0  0  0  0  0  0  0  0
   -5.8439   14.9246  -33.0276 H   0  0  0  0  0  0  0  0  0  0  0  0
   -6.1130   18.0396  -34.8615 H   0  0  0  0  0  0  0  0  0  0  0  0
   -7.3091   18.1760  -33.4953 H   0  0  0  0  0  0  0  0  0  0  0  0
   -5.0231   18.7629  -32.7599 H   0  0  0  0  0  0  0  0  0  0  0  0
   -5.6559   17.2754  -31.9360 H   0  0  0  0  0  0  0  0  0  0  0  0
   -3.2540   20.4720  -32.7950 H   0  0  0  0  0  0  0  0  0  0  0  0
  1  2  2  0
  2  3  1  0
  3  4  1  0
  4  5  2  0
  5  6  1  0
  6  7  1  0
  7  8  2  0
  7  9  2  0
  7 10  1  0
 10 11  1  0
 11 12  1  0
 12 13  1  0
 13 14  1  0
 14 15  1  0
  6 16  2  0
 16 17  1  0
 17 18  2  0
 18 19  1  0
  2 20  1  0
 20 21  1  0
 21 22  2  0
 22 23  1  0
 23 24  2  0
 24 25  1  0
 24 26  1  0
 26 27  1  0
 27 28  2  0
 27 29  2  0
 27 30  1  0
 30 31  1  0
 31 32  1  0
 32 33  1  0
 33 34  1  0
 34 35  1  0
 26 36  2  0
 36 37  1  0
 18  4  1  0
 36 21  1  0
 15 10  1  0
 35 30  1  0
  3 38  1  0
  3 39  1  0
  5 40  1  0
 11 41  1  0
 11 42  1  0
 12 43  1  0
 12 44  1  0
 13 45  1  0
 13 46  1  0
 14 47  1  0
 14 48  1  0
 15 49  1  0
 15 50  1  0
 16 51  1  0
 17 52  1  0
 22 53  1  0
 23 54  1  0
 31 55  1  0
 31 56  1  0
 32 57  1  0
 32 58  1  0
 34 59  1  0
 34 60  1  0
 35 61  1  0
 35 62  1  0
 37 63  1  0
M  CHG  2  19  -1  20  -1
M  END
>  <UniqueID>  (13) 
13

>  <SMILES>  (13) 
O=C(Cc1cc(S(=O)(=O)N2CCCCC2)ccc1[O-])[N-]c1ccc(Cl)c(S(=O)(=O)N2CCOCC2)c1O

>  <Energy>  (13) 
85.49087646200246

>  <Genealogy>  (13) 
O=C(Cc1cc(S(=O)(=O)N2CCCCC2)ccc1[O-])[N-]c1ccc(Cl)c(S(=O)(=O)N2CCOCC2)c1O (protonated)
O=C(Cc1cc(S(=O)(=O)N2CCCCC2)ccc1[O-])[N-]c1ccc(Cl)c(S(=O)(=O)N2CCOCC2)c1O (3D coordinates assigned)
O=C(Cc1cc(S(=O)(=O)N2CCCCC2)ccc1[O-])[N-]c1ccc(Cl)c(S(=O)(=O)N2CCOCC2)c1O (nonaromatic ring conformer: 85.49087646200246 kcal/mol)

>  <smiles>  (13) 
O=C(Cc1cc(S(=O)(=O)N2CCCCC2)ccc1O)Nc1ccc(Cl)c(S(=O)(=O)N2CCOCC2)c1O

>  <score_type>  (13) 
oracle

>  <origin>  (13) 
adgpu

>  <m_score__min__energy>  (13) 
-14.5

>  <m_primary>  (13) 
energy

$$$$
13:0
     RDKit          3D

 39 42  0  0  0  0  0  0  0  0999 V2000
    1.9190   20.4440  -33.7250 O   0  0  0  0  0  0  0  0  0  0  0  0
    0.6500   20.1370  -34.4680 S   0  0  0  0  0  0  0  0  0  0  0  0
    0.6990   18.7090  -34.9360 O   0  0  0  0  0  0  0  0  0  0  0  0
    0.5180   21.1860  -35.8380 N   0  0  0  0  0  0  0  0  0  0  0  0
    1.0800   22.4990  -35.8510 C   0  0  0  0  0  0  0  0  0  0  0  0
    2.4450   22.7160  -35.9900 C   0  0  0  0  0  0  0  0  0  0  0  0
    2.6910   24.3790  -35.9540 S   0  0  0  0  0  0  0  0  0  0  0  0
    1.0610   24.7450  -35.7640 C   0  0  0  0  0  0  0  0  0  0  0  0
    0.3170   23.6200  -35.7270 N   0  0  0  0  0  0  0  0  0  0  0  0
   -0.7220   20.3960  -33.3950 C   0  0  0  0  0  0  0  0  0  0  0  0
   -1.8110   21.1580  -33.8340 C   0  0  0  0  0  0  0  0  0  0  0  0
   -2.9180   21.3510  -33.0030 C   0  0  0  0  0  0  0  0  0  0  0  0
   -2.9420   20.7860  -31.7140 C   0  0  0  0  0  0  0  0  0  0  0  0
   -4.0420   20.9370  -30.8580 O   0  0  0  0  0  0  0  0  0  0  0  0
   -5.3630   21.1870  -31.2620 C   0  0  0  0  0  0  0  0  0  0  0  0
   -6.1970   20.1310  -31.6760 C   0  0  0  0  0  0  0  0  0  0  0  0
   -7.5170   20.3770  -32.0580 C   0  0  0  0  0  0  0  0  0  0  0  0
   -8.3120   19.3520  -32.4490 F   0  0  0  0  0  0  0  0  0  0  0  0
   -8.0150   21.6800  -32.0410 C   0  0  0  0  0  0  0  0  0  0  0  0
   -7.1920   22.7410  -31.6560 C   0  0  0  0  0  0  0  0  0  0  0  0
   -5.8560   22.5120  -31.2790 C   0  0  0  0  0  0  0  0  0  0  0  0
   -5.0040   23.6620  -30.8890 C   0  0  0  0  0  0  0  0  0  0  0  0
   -3.7400   23.6160  -30.3350 C   0  0  0  0  0  0  0  0  0  0  0  0
   -3.3150   24.8700  -30.0970 N   0  0  0  0  0  0  0  0  0  0  0  0
   -4.2640   25.7150  -30.4690 N   0  0  0  0  0  0  0  0  0  0  0  0
   -5.3030   25.0090  -30.9530 C   0  0  0  0  0  0  0  0  0  0  0  0
   -1.8600   20.0090  -31.2860 C   0  0  0  0  0  0  0  0  0  0  0  0
   -0.7530   19.8180  -32.1180 C   0  0  0  0  0  0  0  0  0  0  0  0
    3.2204   21.9439  -36.1026 H   0  0  0  0  0  0  0  0  0  0  0  0
    0.6558   25.7643  -35.6810 H   0  0  0  0  0  0  0  0  0  0  0  0
   -1.7954   21.6071  -34.8380 H   0  0  0  0  0  0  0  0  0  0  0  0
   -3.7727   21.9460  -33.3572 H   0  0  0  0  0  0  0  0  0  0  0  0
   -5.8052   19.1034  -31.6987 H   0  0  0  0  0  0  0  0  0  0  0  0
   -9.0584   21.8724  -32.3315 H   0  0  0  0  0  0  0  0  0  0  0  0
   -7.5924   23.7655  -31.6475 H   0  0  0  0  0  0  0  0  0  0  0  0
   -3.1707   22.6992  -30.1220 H   0  0  0  0  0  0  0  0  0  0  0  0
   -6.2405   25.4366  -31.3380 H   0  0  0  0  0  0  0  0  0  0  0  0
   -1.8806   19.5455  -30.2886 H   0  0  0  0  0  0  0  0  0  0  0  0
    0.0965   19.2122  -31.7697 H   0  0  0  0  0  0  0  0  0  0  0  0
  1  2  2  0
  2  3  2  0
  2  4  1  0
  4  5  1  0
  5  6  2  0
  6  7  1  0
  7  8  1  0
  8  9  2  0
  2 10  1  0
 10 11  2  0
 11 12  1  0
 12 13  2  0
 13 14  1  0
 14 15  1  0
 15 16  2  0
 16 17  1  0
 17 18  1  0
 17 19  2  0
 19 20  1  0
 20 21  2  0
 21 22  1  0
 22 23  1  0
 23 24  2  0
 24 25  1  0
 25 26  1  0
 13 27  1  0
 27 28  2  0
  9  5  1  0
 28 10  1  0
 21 15  1  0
 26 22  2  0
  6 29  1  0
  8 30  1  0
 11 31  1  0
 12 32  1  0
 16 33  1  0
 19 34  1  0
 20 35  1  0
 23 36  1  0
 26 37  1  0
 27 38  1  0
 28 39  1  0
M  CHG  2   4  -1  25  -1
M  END
>  <UniqueID>  (14) 
14

>  <SMILES>  (14) 
O=S(=O)([N-]c1cscn1)c1ccc(Oc2cc(F)ccc2-c2cn[n-]c2)cc1

>  <Energy>  (14) 
114.93167640907724

>  <Genealogy>  (14) 
O=S(=O)([N-]c1cscn1)c1ccc(Oc2cc(F)ccc2-c2cn[n-]c2)cc1 (protonated)
O=S(=O)([N-]c1cscn1)c1ccc(Oc2cc(F)ccc2-c2cn[n-]c2)cc1 (3D coordinates assigned)
O=S(=O)([N-]c1cscn1)c1ccc(Oc2cc(F)ccc2-c2cn[n-]c2)cc1 (optimized conformer: 114.93167640907724 kcal/mol)

>  <smiles>  (14) 
O=S(=O)(Nc1cscn1)c1ccc(Oc2cc(F)ccc2-c2cn[nH]c2)cc1

>  <score_type>  (14) 
oracle

>  <origin>  (14) 
adgpu

>  <m_score__min__energy>  (14) 
-11.1

>  <m_primary>  (14) 
energy

$$$$
14:0
     RDKit          3D

 49 51  0  0  0  0  0  0  0  0999 V2000
   -4.4580   18.3220  -34.0330 C   0  0  0  0  0  0  0  0  0  0  0  0
   -3.4740   18.7310  -32.9390 C   0  0  0  0  0  0  0  0  0  0  0  0
   -2.0820   18.5200  -33.3970 N   0  0  0  0  0  0  0  0  0  0  0  0
   -1.4550   19.7800  -33.8520 C   0  0  0  0  0  0  0  0  0  0  0  0
   -1.2520   20.7660  -32.6830 C   0  0  0  0  0  0  0  0  0  0  0  0
   -0.8760   20.0460  -31.4570 N   0  0  0  0  0  0  0  0  0  0  0  0
   -1.3170   20.5080  -30.1610 C   0  0  0  0  0  0  0  0  0  0  0  0
   -1.6230   19.6640  -29.2760 O   0  0  0  0  0  0  0  0  0  0  0  0
   -1.4160   21.9490  -29.8350 C   0  0  0  0  0  0  0  0  0  0  0  0
   -0.4140   22.5640  -29.0640 C   0  0  0  0  0  0  0  0  0  0  0  0
   -0.4840   23.9270  -28.7730 C   0  0  0  0  0  0  0  0  0  0  0  0
   -1.5450   24.6960  -29.2570 C   0  0  0  0  0  0  0  0  0  0  0  0
   -1.6040   26.0530  -28.9520 O   0  0  0  0  0  0  0  0  0  0  0  0
   -2.5500   24.1070  -30.0410 C   0  0  0  0  0  0  0  0  0  0  0  0
   -3.6200   24.9400  -30.5170 N   0  0  0  0  0  0  0  0  0  0  0  0
   -5.3300   24.6950  -30.3260 S   0  0  0  0  0  0  0  0  0  0  0  0
   -5.5840   24.4210  -28.8700 O   0  0  0  0  0  0  0  0  0  0  0  0
   -6.1050   25.9240  -30.7110 O   0  0  0  0  0  0  0  0  0  0  0  0
   -5.8570   23.3010  -31.2770 C   0  0  0  0  0  0  0  0  0  0  0  0
   -4.9350   22.5800  -32.0520 C   0  0  0  0  0  0  0  0  0  0  0  0
   -5.3470   21.4590  -32.7800 C   0  0  0  0  0  0  0  0  0  0  0  0
   -6.6880   21.0440  -32.7400 C   0  0  0  0  0  0  0  0  0  0  0  0
   -7.1090   19.9270  -33.4580 O   0  0  0  0  0  0  0  0  0  0  0  0
   -7.6130   21.7630  -31.9740 C   0  0  0  0  0  0  0  0  0  0  0  0
   -7.2020   22.8920  -31.2520 C   0  0  0  0  0  0  0  0  0  0  0  0
   -2.4730   22.7300  -30.3350 C   0  0  0  0  0  0  0  0  0  0  0  0
   -0.2910   18.7100  -31.6050 C   0  0  0  0  0  0  0  0  0  0  0  0
   -1.2520   17.7970  -32.3920 C   0  0  0  0  0  0  0  0  0  0  0  0
   -5.3803   17.9387  -33.5720 H   0  0  0  0  0  0  0  0  0  0  0  0
   -4.6960   19.1957  -34.6575 H   0  0  0  0  0  0  0  0  0  0  0  0
   -4.0065   17.5370  -34.6575 H   0  0  0  0  0  0  0  0  0  0  0  0
   -3.6199   19.7944  -32.6984 H   0  0  0  0  0  0  0  0  0  0  0  0
   -3.6547   18.1151  -32.0457 H   0  0  0  0  0  0  0  0  0  0  0  0
   -0.4769   19.5508  -34.3000 H   0  0  0  0  0  0  0  0  0  0  0  0
   -2.1228   20.2511  -34.5883 H   0  0  0  0  0  0  0  0  0  0  0  0
   -0.4539   21.4765  -32.9440 H   0  0  0  0  0  0  0  0  0  0  0  0
   -2.1956   21.3022  -32.5038 H   0  0  0  0  0  0  0  0  0  0  0  0
    0.4301   21.9673  -28.6879 H   0  0  0  0  0  0  0  0  0  0  0  0
    0.2991   24.3975  -28.1603 H   0  0  0  0  0  0  0  0  0  0  0  0
   -3.8827   22.8984  -32.0870 H   0  0  0  0  0  0  0  0  0  0  0  0
   -4.6182   20.9006  -33.3859 H   0  0  0  0  0  0  0  0  0  0  0  0
   -7.7730   20.0060  -34.2170 H   0  0  0  0  0  0  0  0  0  0  0  0
   -8.6644   21.4415  -31.9386 H   0  0  0  0  0  0  0  0  0  0  0  0
   -7.9359   23.4612  -30.6625 H   0  0  0  0  0  0  0  0  0  0  0  0
   -3.2470   22.2625  -30.9613 H   0  0  0  0  0  0  0  0  0  0  0  0
    0.6629   18.7882  -32.1472 H   0  0  0  0  0  0  0  0  0  0  0  0
   -0.1194   18.2788  -30.6077 H   0  0  0  0  0  0  0  0  0  0  0  0
   -0.6555   17.0367  -32.9175 H   0  0  0  0  0  0  0  0  0  0  0  0
   -1.9460   17.3568  -31.6608 H   0  0  0  0  0  0  0  0  0  0  0  0
  1  2  1  0
  2  3  1  0
  3  4  1  0
  4  5  1  0
  5  6  1  0
  6  7  1  0
  7  8  2  0
  7  9  1  0
  9 10  2  0
 10 11  1  0
 11 12  2  0
 12 13  1  0
 12 14  1  0
 14 15  1  0
 15 16  1  0
 16 17  2  0
 16 18  2  0
 16 19  1  0
 19 20  2  0
 20 21  1  0
 21 22  2  0
 22 23  1  0
 22 24  1  0
 24 25  2  0
 14 26  2  0
  6 27  1  0
 27 28  1  0
 28  3  1  0
 26  9  1  0
 25 19  1  0
  1 29  1  0
  1 30  1  0
  1 31  1  0
  2 32  1  0
  2 33  1  0
  4 34  1  0
  4 35  1  0
  5 36  1  0
  5 37  1  0
 10 38  1  0
 11 39  1  0
 20 40  1  0
 21 41  1  0
 23 42  1  0
 24 43  1  0
 25 44  1  0
 26 45  1  0
 27 46  1  0
 27 47  1  0
 28 48  1  0
 28 49  1  0
M  CHG  2  13  -1  15  -1
M  END
>  <UniqueID>  (15) 
15

>  <SMILES>  (15) 
CCN1CCN(C(=O)c2ccc([O-])c([N-]S(=O)(=O)c3ccc(O)cc3)c2)CC1

>  <Energy>  (15) 
66.38400381148104

>  <Genealogy>  (15) 
CCN1CCN(C(=O)c2ccc([O-])c([N-]S(=O)(=O)c3ccc(O)cc3)c2)CC1 (protonated)
CCN1CCN(C(=O)c2ccc([O-])c([N-]S(=O)(=O)c3ccc(O)cc3)c2)CC1 (3D coordinates assigned)
CCN1CCN(C(=O)c2ccc([O-])c([N-]S(=O)(=O)c3ccc(O)cc3)c2)CC1 (nonaromatic ring conformer: 66.38400381148104 kcal/mol)

>  <smiles>  (15) 
CCN1CCN(C(=O)c2ccc(O)c(NS(=O)(=O)c3ccc(O)cc3)c2)CC1

>  <score_type>  (15) 
oracle

>  <origin>  (15) 
adgpu

>  <m_score__min__energy>  (15) 
-12.51

>  <m_primary>  (15) 
energy

$$$$
15:0
     RDKit          3D

 60 63  0  0  0  0  0  0  0  0999 V2000
   -3.4570   21.3530  -27.9030 C   0  0  0  0  0  0  0  0  0  0  0  0
   -3.0160   22.4130  -28.7440 O   0  0  0  0  0  0  0  0  0  0  0  0
   -2.1260   23.4250  -28.3530 C   0  0  0  0  0  0  0  0  0  0  0  0
   -1.1960   23.2300  -27.3120 C   0  0  0  0  0  0  0  0  0  0  0  0
   -0.3660   24.2770  -26.9010 C   0  0  0  0  0  0  0  0  0  0  0  0
   -0.4560   25.5260  -27.5180 C   0  0  0  0  0  0  0  0  0  0  0  0
    0.3440   26.5420  -27.1110 F   0  0  0  0  0  0  0  0  0  0  0  0
   -1.3660   25.7280  -28.5590 C   0  0  0  0  0  0  0  0  0  0  0  0
   -2.1830   24.6780  -29.0000 C   0  0  0  0  0  0  0  0  0  0  0  0
   -3.0810   24.9230  -30.0890 N   0  0  0  0  0  0  0  0  0  0  0  0
   -4.8070   24.9180  -29.9240 S   0  0  0  0  0  0  0  0  0  0  0  0
   -5.2010   24.8160  -28.4760 O   0  0  0  0  0  0  0  0  0  0  0  0
   -5.3510   26.2070  -30.4710 O   0  0  0  0  0  0  0  0  0  0  0  0
   -5.4860   23.5760  -30.8450 C   0  0  0  0  0  0  0  0  0  0  0  0
   -6.8730   23.3810  -30.8930 C   0  0  0  0  0  0  0  0  0  0  0  0
   -7.4090   22.3050  -31.6080 C   0  0  0  0  0  0  0  0  0  0  0  0
   -6.5650   21.4180  -32.2800 C   0  0  0  0  0  0  0  0  0  0  0  0
   -5.1690   21.5950  -32.2240 C   0  0  0  0  0  0  0  0  0  0  0  0
   -4.2700   20.7290  -32.9300 N   0  0  0  0  0  0  0  0  0  0  0  0
   -3.0590   20.1650  -32.4140 C   0  0  0  0  0  0  0  0  0  0  0  0
   -2.5670   19.1300  -32.9400 O   0  0  0  0  0  0  0  0  0  0  0  0
   -2.4710   20.7340  -31.2350 N   0  0  0  0  0  0  0  0  0  0  0  0
   -1.2280   20.2970  -30.6590 C   0  0  0  0  0  0  0  0  0  0  0  0
   -0.1530   19.9820  -31.5030 C   0  0  0  0  0  0  0  0  0  0  0  0
    1.0690   19.5600  -30.9690 C   0  0  0  0  0  0  0  0  0  0  0  0
    1.2270   19.4230  -29.5840 C   0  0  0  0  0  0  0  0  0  0  0  0
    2.7810   18.9120  -28.9120 S   0  0  0  0  0  0  0  0  0  0  0  0
    3.8300   19.0040  -29.9860 O   0  0  0  0  0  0  0  0  0  0  0  0
    3.1660   19.8550  -27.8070 O   0  0  0  0  0  0  0  0  0  0  0  0
    2.7540   17.2780  -28.2910 N   0  0  0  0  0  0  0  0  0  0  0  0
    1.4010   16.7270  -28.2400 C   0  0  0  0  0  0  0  0  0  0  0  0
    1.4130   15.6600  -27.1550 C   0  0  0  0  0  0  0  0  0  0  0  0
    2.6440   15.9580  -26.3110 C   0  0  0  0  0  0  0  0  0  0  0  0
    3.2570   17.2050  -26.9220 C   0  0  0  0  0  0  0  0  0  0  0  0
    0.1470   19.7140  -28.7370 C   0  0  0  0  0  0  0  0  0  0  0  0
   -1.0760   20.1370  -29.2690 C   0  0  0  0  0  0  0  0  0  0  0  0
   -4.6400   22.6830  -31.5150 C   0  0  0  0  0  0  0  0  0  0  0  0
   -3.3352   21.6457  -26.8497 H   0  0  0  0  0  0  0  0  0  0  0  0
   -4.5176   21.1420  -28.1046 H   0  0  0  0  0  0  0  0  0  0  0  0
   -2.8591   20.4520  -28.1046 H   0  0  0  0  0  0  0  0  0  0  0  0
   -1.1229   22.2487  -26.8204 H   0  0  0  0  0  0  0  0  0  0  0  0
    0.3594   24.1164  -26.0899 H   0  0  0  0  0  0  0  0  0  0  0  0
   -1.4416   26.7167  -29.0351 H   0  0  0  0  0  0  0  0  0  0  0  0
   -7.5427   24.0768  -30.3663 H   0  0  0  0  0  0  0  0  0  0  0  0
   -8.4985   22.1569  -31.6412 H   0  0  0  0  0  0  0  0  0  0  0  0
   -6.9907   20.5811  -32.8530 H   0  0  0  0  0  0  0  0  0  0  0  0
   -3.0490   21.4190  -30.6970 H   0  0  0  0  0  0  0  0  0  0  0  0
   -0.2718   20.0675  -32.5932 H   0  0  0  0  0  0  0  0  0  0  0  0
    1.9106   19.3345  -31.6405 H   0  0  0  0  0  0  0  0  0  0  0  0
    0.6777   17.5168  -27.9891 H   0  0  0  0  0  0  0  0  0  0  0  0
    1.1052   16.3047  -29.2117 H   0  0  0  0  0  0  0  0  0  0  0  0
    0.5015   15.7233  -26.5425 H   0  0  0  0  0  0  0  0  0  0  0  0
    1.4425   14.6452  -27.5786 H   0  0  0  0  0  0  0  0  0  0  0  0
    2.3584   16.1421  -25.2648 H   0  0  0  0  0  0  0  0  0  0  0  0
    3.3505   15.1149  -26.3047 H   0  0  0  0  0  0  0  0  0  0  0  0
    2.9513   18.0969  -26.3555 H   0  0  0  0  0  0  0  0  0  0  0  0
    4.3560   17.1629  -26.9007 H   0  0  0  0  0  0  0  0  0  0  0  0
    0.2625   19.6090  -27.6481 H   0  0  0  0  0  0  0  0  0  0  0  0
   -1.9223   20.3454  -28.5980 H   0  0  0  0  0  0  0  0  0  0  0  0
   -3.5512   22.8366  -31.4847 H   0  0  0  0  0  0  0  0  0  0  0  0
  1  2  1  0
  2  3  1  0
  3  4  2  0
  4  5  1  0
  5  6  2  0
  6  7  1  0
  6  8  1  0
  8  9  2  0
  9 10  1  0
 10 11  1  0
 11 12  2  0
 11 13  2  0
 11 14  1  0
 14 15  2  0
 15 16  1  0
 16 17  2  0
 17 18  1  0
 18 19  1  0
 19 20  1  0
 20 21  2  0
 20 22  1  0
 22 23  1  0
 23 24  2  0
 24 25  1  0
 25 26  2  0
 26 27  1  0
 27 28  2  0
 27 29  2  0
 27 30  1  0
 30 31  1  0
 31 32  1  0
 32 33  1  0
 33 34  1  0
 26 35  1  0
 35 36  2  0
 18 37  2  0
  9  3  1  0
 37 14  1  0
 36 23  1  0
 34 30  1  0
  1 38  1  0
  1 39  1  0
  1 40  1  0
  4 41  1  0
  5 42  1  0
  8 43  1  0
 15 44  1  0
 16 45  1  0
 17 46  1  0
 22 47  1  0
 24 48  1  0
 25 49  1  0
 31 50  1  0
 31 51  1  0
 32 52  1  0
 32 53  1  0
 33 54  1  0
 33 55  1  0
 34 56  1  0
 34 57  1  0
 35 58  1  0
 36 59  1  0
 37 60  1  0
M  CHG  2  10  -1  19  -1
M  END
>  <UniqueID>  (16) 
16

>  <SMILES>  (16) 
COc1ccc(F)cc1[N-]S(=O)(=O)c1cccc([N-]C(=O)Nc2ccc(S(=O)(=O)N3CCCC3)cc2)c1

>  <Energy>  (16) 
78.3503874331573

>  <Genealogy>  (16) 
COc1ccc(F)cc1[N-]S(=O)(=O)c1cccc([N-]C(=O)Nc2ccc(S(=O)(=O)N3CCCC3)cc2)c1 (protonated)
COc1ccc(F)cc1[N-]S(=O)(=O)c1cccc([N-]C(=O)Nc2ccc(S(=O)(=O)N3CCCC3)cc2)c1 (3D coordinates assigned)
COc1ccc(F)cc1[N-]S(=O)(=O)c1cccc([N-]C(=O)Nc2ccc(S(=O)(=O)N3CCCC3)cc2)c1 (nonaromatic ring conformer: 78.3503874331573 kcal/mol)

>  <smiles>  (16) 
COc1ccc(F)cc1NS(=O)(=O)c1cccc(NC(=O)Nc2ccc(S(=O)(=O)N3CCCC3)cc2)c1

>  <score_type>  (16) 
oracle

>  <origin>  (16) 
adgpu

>  <m_score__min__energy>  (16) 
-11.51

>  <m_primary>  (16) 
energy

$$$$
16:0
     RDKit          3D

 52 55  0  0  0  0  0  0  0  0999 V2000
   -1.6750   21.2080  -31.7890 O   0  0  0  0  0  0  0  0  0  0  0  0
   -2.1550   21.9220  -30.8700 C   0  0  0  0  0  0  0  0  0  0  0  0
   -2.8090   23.1470  -31.2100 N   0  0  0  0  0  0  0  0  0  0  0  0
   -4.2150   23.3220  -31.0240 C   0  0  0  0  0  0  0  0  0  0  0  0
   -5.0890   22.2410  -31.1960 C   0  0  0  0  0  0  0  0  0  0  0  0
   -6.4720   22.4230  -31.0540 C   0  0  0  0  0  0  0  0  0  0  0  0
   -7.5810   21.0860  -31.3640 S   0  0  0  0  0  0  0  0  0  0  0  0
   -8.7210   21.1540  -30.3870 O   0  0  0  0  0  0  0  0  0  0  0  0
   -8.1500   21.2280  -32.7470 O   0  0  0  0  0  0  0  0  0  0  0  0
   -6.7880   19.5320  -31.2180 N   0  0  0  0  0  0  0  0  0  0  0  0
   -5.7110   19.3930  -32.2030 C   0  0  0  0  0  0  0  0  0  0  0  0
   -6.2470   18.6090  -33.3910 C   0  0  0  0  0  0  0  0  0  0  0  0
   -7.5260   17.9540  -32.9090 C   0  0  0  0  0  0  0  0  0  0  0  0
   -7.7240   18.4310  -31.4770 C   0  0  0  0  0  0  0  0  0  0  0  0
   -6.9720   23.6810  -30.6910 C   0  0  0  0  0  0  0  0  0  0  0  0
   -6.0980   24.7530  -30.4910 C   0  0  0  0  0  0  0  0  0  0  0  0
   -4.7220   24.5770  -30.6600 C   0  0  0  0  0  0  0  0  0  0  0  0
   -3.8620   25.6510  -30.4640 O   0  0  0  0  0  0  0  0  0  0  0  0
   -1.9940   21.5140  -29.4570 C   0  0  0  0  0  0  0  0  0  0  0  0
   -1.8430   20.1520  -29.1500 C   0  0  0  0  0  0  0  0  0  0  0  0
   -1.7600   19.7280  -27.8210 C   0  0  0  0  0  0  0  0  0  0  0  0
   -1.8320   20.6600  -26.7850 C   0  0  0  0  0  0  0  0  0  0  0  0
   -1.9910   22.0170  -27.0750 C   0  0  0  0  0  0  0  0  0  0  0  0
   -2.0670   22.4530  -28.4040 C   0  0  0  0  0  0  0  0  0  0  0  0
   -2.1940   23.8550  -28.6700 N   0  0  0  0  0  0  0  0  0  0  0  0
   -1.8510   24.8670  -27.7070 C   0  0  0  0  0  0  0  0  0  0  0  0
   -2.5690   25.0100  -26.5040 C   0  0  0  0  0  0  0  0  0  0  0  0
   -2.2310   26.0180  -25.5980 C   0  0  0  0  0  0  0  0  0  0  0  0
   -1.1730   26.8860  -25.8770 C   0  0  0  0  0  0  0  0  0  0  0  0
   -0.4590   26.7540  -27.0710 C   0  0  0  0  0  0  0  0  0  0  0  0
   -0.8000   25.7520  -27.9850 C   0  0  0  0  0  0  0  0  0  0  0  0
   -4.6892   21.2465  -31.4432 H   0  0  0  0  0  0  0  0  0  0  0  0
   -5.3789   20.3882  -32.5337 H   0  0  0  0  0  0  0  0  0  0  0  0
   -4.8553   18.8654  -31.7563 H   0  0  0  0  0  0  0  0  0  0  0  0
   -6.4564   19.2849  -34.2332 H   0  0  0  0  0  0  0  0  0  0  0  0
   -5.5195   17.8645  -33.7468 H   0  0  0  0  0  0  0  0  0  0  0  0
   -8.3747   18.2638  -33.5365 H   0  0  0  0  0  0  0  0  0  0  0  0
   -7.4643   16.8572  -32.9648 H   0  0  0  0  0  0  0  0  0  0  0  0
   -8.7574   18.7835  -31.3430 H   0  0  0  0  0  0  0  0  0  0  0  0
   -7.5365   17.6046  -30.7756 H   0  0  0  0  0  0  0  0  0  0  0  0
   -8.0550   23.8249  -30.5632 H   0  0  0  0  0  0  0  0  0  0  0  0
   -6.4939   25.7372  -30.2000 H   0  0  0  0  0  0  0  0  0  0  0  0
   -1.7896   19.4125  -29.9626 H   0  0  0  0  0  0  0  0  0  0  0  0
   -1.6379   18.6592  -27.5915 H   0  0  0  0  0  0  0  0  0  0  0  0
   -1.7635   20.3258  -25.7392 H   0  0  0  0  0  0  0  0  0  0  0  0
   -2.0569   22.7474  -26.2552 H   0  0  0  0  0  0  0  0  0  0  0  0
   -2.5990   24.1420  -29.5890 H   0  0  0  0  0  0  0  0  0  0  0  0
   -3.3993   24.3252  -26.2769 H   0  0  0  0  0  0  0  0  0  0  0  0
   -2.7994   26.1284  -24.6627 H   0  0  0  0  0  0  0  0  0  0  0  0
   -0.9020   27.6728  -25.1576 H   0  0  0  0  0  0  0  0  0  0  0  0
    0.3725   27.4393  -27.2923 H   0  0  0  0  0  0  0  0  0  0  0  0
   -0.2404   25.6578  -28.9273 H   0  0  0  0  0  0  0  0  0  0  0  0
  1  2  2  0
  2  3  1  0
  3  4  1  0
  4  5  2  0
  5  6  1  0
  6  7  1  0
  7  8  2  0
  7  9  2  0
  7 10  1  0
 10 11  1  0
 11 12  1  0
 12 13  1  0
 13 14  1  0
  6 15  2  0
 15 16  1  0
 16 17  2  0
 17 18  1  0
  2 19  1  0
 19 20  2  0
 20 21  1  0
 21 22  2  0
 22 23  1  0
 23 24  2  0
 24 25  1  0
 25 26  1  0
 26 27  2  0
 27 28  1  0
 28 29  2  0
 29 30  1  0
 30 31  2  0
 17  4  1  0
 24 19  1  0
 31 26  1  0
 14 10  1  0
  5 32  1  0
 11 33  1  0
 11 34  1  0
 12 35  1  0
 12 36  1  0
 13 37  1  0
 13 38  1  0
 14 39  1  0
 14 40  1  0
 15 41  1  0
 16 42  1  0
 20 43  1  0
 21 44  1  0
 22 45  1  0
 23 46  1  0
 25 47  1  0
 27 48  1  0
 28 49  1  0
 29 50  1  0
 30 51  1  0
 31 52  1  0
M  CHG  2   3  -1  18  -1
M  END
>  <UniqueID>  (17) 
17

>  <SMILES>  (17) 
O=C([N-]c1cc(S(=O)(=O)N2CCCC2)ccc1[O-])c1ccccc1Nc1ccccc1

>  <Energy>  (17) 
72.97515971871422

>  <Genealogy>  (17) 
O=C([N-]c1cc(S(=O)(=O)N2CCCC2)ccc1[O-])c1ccccc1Nc1ccccc1 (protonated)
O=C([N-]c1cc(S(=O)(=O)N2CCCC2)ccc1[O-])c1ccccc1Nc1ccccc1 (3D coordinates assigned)
O=C([N-]c1cc(S(=O)(=O)N2CCCC2)ccc1[O-])c1ccccc1Nc1ccccc1 (nonaromatic ring conformer: 72.97515971871422 kcal/mol)

>  <smiles>  (17) 
O=C(Nc1cc(S(=O)(=O)N2CCCC2)ccc1O)c1ccccc1Nc1ccccc1

>  <score_type>  (17) 
oracle

>  <origin>  (17) 
adgpu

>  <m_score__min__energy>  (17) 
-13.42

>  <m_primary>  (17) 
energy

$$$$
17:0
     RDKit          3D

 48 51  0  0  0  0  0  0  0  0999 V2000
   -4.0830   25.3590  -30.6960 N   0  0  0  0  0  0  0  0  0  0  0  0
   -3.4910   24.2500  -30.0170 C   0  0  0  0  0  0  0  0  0  0  0  0
   -3.2490   24.3550  -28.7830 O   0  0  0  0  0  0  0  0  0  0  0  0
   -3.1770   22.9930  -30.7570 C   0  0  0  0  0  0  0  0  0  0  0  0
   -1.8500   22.5250  -30.7740 C   0  0  0  0  0  0  0  0  0  0  0  0
   -1.5070   21.3690  -31.4710 C   0  0  0  0  0  0  0  0  0  0  0  0
   -2.4730   20.6310  -32.1580 C   0  0  0  0  0  0  0  0  0  0  0  0
   -1.9380   19.1430  -33.0220 S   0  0  0  0  0  0  0  0  0  0  0  0
   -0.5680   19.9760  -33.8290 C   0  0  0  0  0  0  0  0  0  0  0  0
    0.7500   19.7130  -33.4350 C   0  0  0  0  0  0  0  0  0  0  0  0
    1.8150   20.3600  -34.0700 C   0  0  0  0  0  0  0  0  0  0  0  0
    1.5710   21.2650  -35.1170 C   0  0  0  0  0  0  0  0  0  0  0  0
    2.6960   21.9700  -35.7640 C   0  0  0  0  0  0  0  0  0  0  0  0
    3.8520   21.4710  -35.6950 O   0  0  0  0  0  0  0  0  0  0  0  0
    2.5220   23.2140  -36.4570 N   0  0  0  0  0  0  0  0  0  0  0  0
    2.2970   24.5130  -35.8170 C   0  0  0  0  0  0  0  0  0  0  0  0
    0.8060   24.9090  -35.9250 C   0  0  0  0  0  0  0  0  0  0  0  0
    0.5130   25.6840  -37.2260 C   0  0  0  0  0  0  0  0  0  0  0  0
    1.4290   25.3150  -38.2410 O   0  0  0  0  0  0  0  0  0  0  0  0
    2.7160   25.8490  -37.9550 C   0  0  0  0  0  0  0  0  0  0  0  0
    3.1840   25.5690  -36.5010 C   0  0  0  0  0  0  0  0  0  0  0  0
    0.2460   21.5380  -35.4940 C   0  0  0  0  0  0  0  0  0  0  0  0
   -0.8170   20.8850  -34.8640 C   0  0  0  0  0  0  0  0  0  0  0  0
   -3.8110   21.0780  -32.1720 C   0  0  0  0  0  0  0  0  0  0  0  0
   -4.8160   20.3960  -32.8830 C   0  0  0  0  0  0  0  0  0  0  0  0
   -6.1240   20.8740  -32.8860 C   0  0  0  0  0  0  0  0  0  0  0  0
   -6.4290   22.0390  -32.1860 C   0  0  0  0  0  0  0  0  0  0  0  0
   -5.4550   22.6970  -31.5060 N   0  0  0  0  0  0  0  0  0  0  0  0
   -4.1640   22.2630  -31.4690 C   0  0  0  0  0  0  0  0  0  0  0  0
   -3.4940   26.0480  -31.2140 H   0  0  0  0  0  0  0  0  0  0  0  0
   -1.0724   23.0802  -30.2289 H   0  0  0  0  0  0  0  0  0  0  0  0
   -0.4598   21.0324  -31.4804 H   0  0  0  0  0  0  0  0  0  0  0  0
    0.9479   18.9961  -32.6245 H   0  0  0  0  0  0  0  0  0  0  0  0
    2.8477   20.1597  -33.7486 H   0  0  0  0  0  0  0  0  0  0  0  0
    2.5599   24.4506  -34.7507 H   0  0  0  0  0  0  0  0  0  0  0  0
    0.1928   23.9959  -35.9085 H   0  0  0  0  0  0  0  0  0  0  0  0
    0.5631   25.5632  -35.0747 H   0  0  0  0  0  0  0  0  0  0  0  0
   -0.5096   25.4554  -37.5609 H   0  0  0  0  0  0  0  0  0  0  0  0
    0.6160   26.7613  -37.0288 H   0  0  0  0  0  0  0  0  0  0  0  0
    3.4427   25.4010  -38.6488 H   0  0  0  0  0  0  0  0  0  0  0  0
    2.6512   26.9407  -38.0735 H   0  0  0  0  0  0  0  0  0  0  0  0
    4.2215   25.2043  -36.5233 H   0  0  0  0  0  0  0  0  0  0  0  0
    3.1106   26.5052  -35.9282 H   0  0  0  0  0  0  0  0  0  0  0  0
    0.0437   22.2700  -36.2897 H   0  0  0  0  0  0  0  0  0  0  0  0
   -1.8508   21.0856  -35.1819 H   0  0  0  0  0  0  0  0  0  0  0  0
   -4.5670   19.4804  -33.4394 H   0  0  0  0  0  0  0  0  0  0  0  0
   -6.9098   20.3360  -33.4366 H   0  0  0  0  0  0  0  0  0  0  0  0
   -7.4587   22.4259  -32.1840 H   0  0  0  0  0  0  0  0  0  0  0  0
  1  2  1  0
  2  3  2  0
  2  4  1  0
  4  5  2  0
  5  6  1  0
  6  7  2  0
  7  8  1  0
  8  9  1  0
  9 10  2  0
 10 11  1  0
 11 12  2  0
 12 13  1  0
 13 14  2  0
 13 15  1  0
 15 16  1  0
 16 17  1  0
 17 18  1  0
 18 19  1  0
 19 20  1  0
 20 21  1  0
 12 22  1  0
 22 23  2  0
  7 24  1  0
 24 25  2  0
 25 26  1  0
 26 27  2  0
 27 28  1  0
 28 29  2  0
 29  4  1  0
 23  9  1  0
 29 24  1  0
 21 16  1  0
  1 30  1  0
  5 31  1  0
  6 32  1  0
 10 33  1  0
 11 34  1  0
 16 35  1  0
 17 36  1  0
 17 37  1  0
 18 38  1  0
 18 39  1  0
 20 40  1  0
 20 41  1  0
 21 42  1  0
 21 43  1  0
 22 44  1  0
 23 45  1  0
 25 46  1  0
 26 47  1  0
 27 48  1  0
M  CHG  2   1  -1  15  -1
M  END
>  <UniqueID>  (18) 
18

>  <SMILES>  (18) 
[NH-]C(=O)c1ccc(Sc2ccc(C(=O)[N-]C3CCOCC3)cc2)c2cccnc12

>  <Energy>  (18) 
66.23993694279466

>  <Genealogy>  (18) 
[NH-]C(=O)c1ccc(Sc2ccc(C(=O)[N-]C3CCOCC3)cc2)c2cccnc12 (protonated)
[NH-]C(=O)c1ccc(Sc2ccc(C(=O)[N-]C3CCOCC3)cc2)c2cccnc12 (3D coordinates assigned)
[NH-]C(=O)c1ccc(Sc2ccc(C(=O)[N-]C3CCOCC3)cc2)c2cccnc12 (nonaromatic ring conformer: 66.23993694279466 kcal/mol)

>  <smiles>  (18) 
NC(=O)c1ccc(Sc2ccc(C(=O)NC3CCOCC3)cc2)c2cccnc12

>  <score_type>  (18) 
oracle

>  <origin>  (18) 
adgpu

>  <m_score__min__energy>  (18) 
-11.57

>  <m_primary>  (18) 
energy

$$$$
18:0
     RDKit          3D

 39 41  0  0  0  0  0  0  0  0999 V2000
   -7.2360   19.7850  -33.8070 N   0  0  0  0  0  0  0  0  0  0  0  0
   -8.0560   20.3310  -32.3860 S   0  0  0  0  0  0  0  0  0  0  0  0
   -9.4820   20.6650  -32.7260 O   0  0  0  0  0  0  0  0  0  0  0  0
   -8.0500   19.2410  -31.3530 O   0  0  0  0  0  0  0  0  0  0  0  0
   -7.2460   21.7610  -31.7490 C   0  0  0  0  0  0  0  0  0  0  0  0
   -6.3570   21.6440  -30.6730 C   0  0  0  0  0  0  0  0  0  0  0  0
   -5.7050   22.7750  -30.1740 C   0  0  0  0  0  0  0  0  0  0  0  0
   -5.9350   24.0360  -30.7480 C   0  0  0  0  0  0  0  0  0  0  0  0
   -5.2500   25.2610  -30.2020 C   0  0  0  0  0  0  0  0  0  0  0  0
   -3.8530   25.3300  -30.6370 N   0  0  0  0  0  0  0  0  0  0  0  0
   -2.8140   24.3780  -29.6140 S   0  0  0  0  0  0  0  0  0  0  0  0
   -1.6270   25.2090  -29.2150 O   0  0  0  0  0  0  0  0  0  0  0  0
   -3.5600   23.9880  -28.3690 O   0  0  0  0  0  0  0  0  0  0  0  0
   -2.2360   22.9400  -30.4560 C   0  0  0  0  0  0  0  0  0  0  0  0
   -1.0290   22.3300  -30.0840 C   0  0  0  0  0  0  0  0  0  0  0  0
   -0.5880   21.1790  -30.7430 C   0  0  0  0  0  0  0  0  0  0  0  0
   -1.3500   20.6290  -31.7790 C   0  0  0  0  0  0  0  0  0  0  0  0
   -0.9230   19.5070  -32.4200 N   0  0  0  0  0  0  0  0  0  0  0  0
   -1.6390   18.9460  -33.4310 C   0  0  0  0  0  0  0  0  0  0  0  0
   -1.2100   17.9070  -33.9990 O   0  0  0  0  0  0  0  0  0  0  0  0
   -2.8480   19.5190  -33.8380 C   0  0  0  0  0  0  0  0  0  0  0  0
   -3.3130   20.6700  -33.1980 C   0  0  0  0  0  0  0  0  0  0  0  0
   -2.5650   21.2390  -32.1590 C   0  0  0  0  0  0  0  0  0  0  0  0
   -3.0030   22.3930  -31.4940 C   0  0  0  0  0  0  0  0  0  0  0  0
   -6.8170   24.1470  -31.8340 C   0  0  0  0  0  0  0  0  0  0  0  0
   -7.4680   23.0150  -32.3330 C   0  0  0  0  0  0  0  0  0  0  0  0
   -7.6480   20.3040  -34.6140 H   0  0  0  0  0  0  0  0  0  0  0  0
   -7.4860   18.7790  -33.9350 H   0  0  0  0  0  0  0  0  0  0  0  0
   -6.1715   20.6592  -30.2194 H   0  0  0  0  0  0  0  0  0  0  0  0
   -5.0087   22.6771  -29.3281 H   0  0  0  0  0  0  0  0  0  0  0  0
   -5.7805   26.1564  -30.5580 H   0  0  0  0  0  0  0  0  0  0  0  0
   -5.2686   25.2077  -29.1034 H   0  0  0  0  0  0  0  0  0  0  0  0
   -0.4267   22.7594  -29.2699 H   0  0  0  0  0  0  0  0  0  0  0  0
    0.3594   20.7052  -30.4466 H   0  0  0  0  0  0  0  0  0  0  0  0
   -3.4282   19.0667  -34.6558 H   0  0  0  0  0  0  0  0  0  0  0  0
   -4.2635   21.1283  -33.5087 H   0  0  0  0  0  0  0  0  0  0  0  0
   -3.9499   22.8698  -31.7872 H   0  0  0  0  0  0  0  0  0  0  0  0
   -6.9969   25.1295  -32.2948 H   0  0  0  0  0  0  0  0  0  0  0  0
   -8.1561   23.1090  -33.1861 H   0  0  0  0  0  0  0  0  0  0  0  0
  1  2  1  0
  2  3  2  0
  2  4  2  0
  2  5  1  0
  5  6  2  0
  6  7  1  0
  7  8  2  0
  8  9  1  0
  9 10  1  0
 10 11  1  0
 11 12  2  0
 11 13  2  0
 11 14  1  0
 14 15  2  0
 15 16  1  0
 16 17  2  0
 17 18  1  0
 18 19  1  0
 19 20  2  0
 19 21  1  0
 21 22  2  0
 22 23  1  0
 23 24  2  0
  8 25  1  0
 25 26  2  0
 26  5  1  0
 24 14  1  0
 23 17  1  0
  1 27  1  0
  1 28  1  0
  6 29  1  0
  7 30  1  0
  9 31  1  0
  9 32  1  0
 15 33  1  0
 16 34  1  0
 21 35  1  0
 22 36  1  0
 24 37  1  0
 25 38  1  0
 26 39  1  0
M  CHG  2  10  -1  18  -1
M  END
>  <UniqueID>  (19) 
19

>  <SMILES>  (19) 
NS(=O)(=O)c1ccc(C[N-]S(=O)(=O)c2ccc3[n-]c(=O)ccc3c2)cc1

>  <Energy>  (19) 
41.791438456289

>  <Genealogy>  (19) 
NS(=O)(=O)c1ccc(C[N-]S(=O)(=O)c2ccc3[n-]c(=O)ccc3c2)cc1 (protonated)
NS(=O)(=O)c1ccc(C[N-]S(=O)(=O)c2ccc3[n-]c(=O)ccc3c2)cc1 (3D coordinates assigned)
NS(=O)(=O)c1ccc(C[N-]S(=O)(=O)c2ccc3[n-]c(=O)ccc3c2)cc1 (optimized conformer: 41.791438456289 kcal/mol)

>  <smiles>  (19) 
NS(=O)(=O)c1ccc(CNS(=O)(=O)c2ccc3[nH]c(=O)ccc3c2)cc1

>  <score_type>  (19) 
oracle

>  <origin>  (19) 
adgpu

>  <m_score__min__energy>  (19) 
-10.949999999999999

>  <m_primary>  (19) 
energy

$$$$
19:0
     RDKit          3D

 53 55  0  0  0  0  0  0  0  0999 V2000
    1.4560   23.8150  -36.8610 N   0  0  0  0  0  0  0  0  0  0  0  0
    2.3540   22.6530  -35.9500 S   0  0  0  0  0  0  0  0  0  0  0  0
    3.3340   23.3580  -35.0550 O   0  0  0  0  0  0  0  0  0  0  0  0
    3.1140   21.7670  -36.8980 O   0  0  0  0  0  0  0  0  0  0  0  0
    1.2510   21.6930  -34.9700 C   0  0  0  0  0  0  0  0  0  0  0  0
   -0.1310   21.8970  -35.0790 C   0  0  0  0  0  0  0  0  0  0  0  0
   -1.0190   21.1380  -34.3110 C   0  0  0  0  0  0  0  0  0  0  0  0
   -0.5350   20.1560  -33.4320 C   0  0  0  0  0  0  0  0  0  0  0  0
   -1.4870   19.3630  -32.5800 C   0  0  0  0  0  0  0  0  0  0  0  0
   -1.9970   20.2070  -31.4130 C   0  0  0  0  0  0  0  0  0  0  0  0
   -2.8880   21.2440  -31.9130 N   0  0  0  0  0  0  0  0  0  0  0  0
   -3.0360   22.5170  -31.2760 C   0  0  0  0  0  0  0  0  0  0  0  0
   -2.0110   23.1210  -30.8550 O   0  0  0  0  0  0  0  0  0  0  0  0
   -4.3790   23.1380  -31.1140 C   0  0  0  0  0  0  0  0  0  0  0  0
   -5.5310   22.3700  -31.3760 C   0  0  0  0  0  0  0  0  0  0  0  0
   -6.8110   22.9220  -31.2380 C   0  0  0  0  0  0  0  0  0  0  0  0
   -8.2280   21.9240  -31.5540 S   0  0  0  0  0  0  0  0  0  0  0  0
   -8.6590   21.2340  -30.2890 O   0  0  0  0  0  0  0  0  0  0  0  0
   -9.3450   22.8160  -32.0190 O   0  0  0  0  0  0  0  0  0  0  0  0
   -7.8350   20.7470  -32.7870 N   0  0  0  0  0  0  0  0  0  0  0  0
   -6.5270   20.0900  -32.5350 C   0  0  0  0  0  0  0  0  0  0  0  0
   -6.6220   18.5700  -32.3090 C   0  0  0  0  0  0  0  0  0  0  0  0
   -7.7850   18.2410  -31.3780 C   0  0  0  0  0  0  0  0  0  0  0  0
   -9.1240   18.7690  -31.9200 C   0  0  0  0  0  0  0  0  0  0  0  0
   -8.9550   19.8180  -33.0360 C   0  0  0  0  0  0  0  0  0  0  0  0
   -6.9510   24.2520  -30.8250 C   0  0  0  0  0  0  0  0  0  0  0  0
   -5.8210   25.0260  -30.5640 C   0  0  0  0  0  0  0  0  0  0  0  0
   -4.5400   24.4830  -30.7070 C   0  0  0  0  0  0  0  0  0  0  0  0
   -3.4440   25.2980  -30.4460 O   0  0  0  0  0  0  0  0  0  0  0  0
    0.8510   19.9620  -33.3150 C   0  0  0  0  0  0  0  0  0  0  0  0
    1.7370   20.7210  -34.0860 C   0  0  0  0  0  0  0  0  0  0  0  0
    2.1510   24.4380  -37.3310 H   0  0  0  0  0  0  0  0  0  0  0  0
   -0.5190   22.6579  -35.7721 H   0  0  0  0  0  0  0  0  0  0  0  0
   -2.1020   21.3110  -34.3958 H   0  0  0  0  0  0  0  0  0  0  0  0
   -2.3412   19.0429  -33.1948 H   0  0  0  0  0  0  0  0  0  0  0  0
   -0.9569   18.4868  -32.1783 H   0  0  0  0  0  0  0  0  0  0  0  0
   -2.5433   19.5639  -30.7074 H   0  0  0  0  0  0  0  0  0  0  0  0
   -1.1437   20.6747  -30.9001 H   0  0  0  0  0  0  0  0  0  0  0  0
   -5.4236   21.3223  -31.6934 H   0  0  0  0  0  0  0  0  0  0  0  0
   -5.8765   20.2704  -33.4035 H   0  0  0  0  0  0  0  0  0  0  0  0
   -6.1263   20.5249  -31.6075 H   0  0  0  0  0  0  0  0  0  0  0  0
   -6.7791   18.0692  -33.2757 H   0  0  0  0  0  0  0  0  0  0  0  0
   -5.6867   18.2192  -31.8484 H   0  0  0  0  0  0  0  0  0  0  0  0
   -7.8528   17.1487  -31.2667 H   0  0  0  0  0  0  0  0  0  0  0  0
   -7.5941   18.7284  -30.4105 H   0  0  0  0  0  0  0  0  0  0  0  0
   -9.6978   17.9207  -32.3214 H   0  0  0  0  0  0  0  0  0  0  0  0
   -9.6440   19.2608  -31.0847 H   0  0  0  0  0  0  0  0  0  0  0  0
   -8.7716   19.2938  -33.9855 H   0  0  0  0  0  0  0  0  0  0  0  0
   -9.8780   20.4155  -33.0696 H   0  0  0  0  0  0  0  0  0  0  0  0
   -7.9542   24.6873  -30.7061 H   0  0  0  0  0  0  0  0  0  0  0  0
   -5.9379   26.0717  -30.2432 H   0  0  0  0  0  0  0  0  0  0  0  0
    1.2414   19.2097  -32.6138 H   0  0  0  0  0  0  0  0  0  0  0  0
    2.8207   20.5540  -33.9979 H   0  0  0  0  0  0  0  0  0  0  0  0
  1  2  1  0
  2  3  2  0
  2  4  2  0
  2  5  1  0
  5  6  2  0
  6  7  1  0
  7  8  2  0
  8  9  1  0
  9 10  1  0
 10 11  1  0
 11 12  1  0
 12 13  2  0
 12 14  1  0
 14 15  2  0
 15 16  1  0
 16 17  1  0
 17 18  2  0
 17 19  2  0
 17 20  1  0
 20 21  1  0
 21 22  1  0
 22 23  1  0
 23 24  1  0
 24 25  1  0
 16 26  2  0
 26 27  1  0
 27 28  2  0
 28 29  1  0
  8 30  1  0
 30 31  2  0
 31  5  1  0
 28 14  1  0
 25 20  1  0
  1 32  1  0
  6 33  1  0
  7 34  1  0
  9 35  1  0
  9 36  1  0
 10 37  1  0
 10 38  1  0
 15 39  1  0
 21 40  1  0
 21 41  1  0
 22 42  1  0
 22 43  1  0
 23 44  1  0
 23 45  1  0
 24 46  1  0
 24 47  1  0
 25 48  1  0
 25 49  1  0
 26 50  1  0
 27 51  1  0
 30 52  1  0
 31 53  1  0
M  CHG  3   1  -1  11  -1  29  -1
M  END
>  <UniqueID>  (20) 
20

>  <SMILES>  (20) 
[NH-]S(=O)(=O)c1ccc(CC[N-]C(=O)c2cc(S(=O)(=O)N3CCCCC3)ccc2[O-])cc1

>  <Energy>  (20) 
58.71099482200832

>  <Genealogy>  (20) 
[NH-]S(=O)(=O)c1ccc(CC[N-]C(=O)c2cc(S(=O)(=O)N3CCCCC3)ccc2[O-])cc1 (protonated)
[NH-]S(=O)(=O)c1ccc(CC[N-]C(=O)c2cc(S(=O)(=O)N3CCCCC3)ccc2[O-])cc1 (3D coordinates assigned)
[NH-]S(=O)(=O)c1ccc(CC[N-]C(=O)c2cc(S(=O)(=O)N3CCCCC3)ccc2[O-])cc1 (nonaromatic ring conformer: 58.71099482200832 kcal/mol)

>  <smiles>  (20) 
NS(=O)(=O)c1ccc(CCNC(=O)c2cc(S(=O)(=O)N3CCCCC3)ccc2O)cc1

>  <score_type>  (20) 
oracle

>  <origin>  (20) 
adgpu

>  <m_score__min__energy>  (20) 
-13.57

>  <m_primary>  (20) 
energy

$$$$
20:0
     RDKit          3D

 53 56  0  0  0  0  0  0  0  0999 V2000
   -2.0200   25.2400  -29.0450 O   0  0  0  0  0  0  0  0  0  0  0  0
   -2.0190   23.9870  -28.9110 C   0  0  0  0  0  0  0  0  0  0  0  0
   -3.2340   23.3070  -28.3310 C   0  0  0  0  0  0  0  0  0  0  0  0
   -4.0730   22.3010  -29.6050 S   0  0  0  0  0  0  0  0  0  0  0  0
   -4.8040   23.6980  -30.4670 C   0  0  0  0  0  0  0  0  0  0  0  0
   -4.2180   24.9070  -30.5270 N   0  0  0  0  0  0  0  0  0  0  0  0
   -5.0640   25.6690  -31.2060 N   0  0  0  0  0  0  0  0  0  0  0  0
   -6.1270   24.9630  -31.5590 N   0  0  0  0  0  0  0  0  0  0  0  0
   -5.9900   23.7230  -31.1180 N   0  0  0  0  0  0  0  0  0  0  0  0
   -6.9540   22.6790  -31.3640 C   0  0  0  0  0  0  0  0  0  0  0  0
   -8.3040   22.9660  -31.6440 C   0  0  0  0  0  0  0  0  0  0  0  0
   -9.2150   21.9300  -31.8760 C   0  0  0  0  0  0  0  0  0  0  0  0
   -8.7990   20.5990  -31.8040 C   0  0  0  0  0  0  0  0  0  0  0  0
   -7.4750   20.3010  -31.4790 C   0  0  0  0  0  0  0  0  0  0  0  0
   -6.5620   21.3330  -31.2460 C   0  0  0  0  0  0  0  0  0  0  0  0
   -0.7870   23.2880  -29.1330 N   0  0  0  0  0  0  0  0  0  0  0  0
   -0.6000   22.0260  -29.7850 C   0  0  0  0  0  0  0  0  0  0  0  0
   -0.3380   20.8960  -28.9980 C   0  0  0  0  0  0  0  0  0  0  0  0
   -0.0920   19.6590  -29.5990 C   0  0  0  0  0  0  0  0  0  0  0  0
   -0.1000   19.5420  -30.9900 C   0  0  0  0  0  0  0  0  0  0  0  0
   -0.3460   20.6660  -31.7900 C   0  0  0  0  0  0  0  0  0  0  0  0
   -0.4200   20.5050  -33.5450 S   0  0  0  0  0  0  0  0  0  0  0  0
    0.2400   21.6970  -34.1830 O   0  0  0  0  0  0  0  0  0  0  0  0
    0.3370   19.2740  -33.9630 O   0  0  0  0  0  0  0  0  0  0  0  0
   -2.0770   20.3960  -34.1010 N   0  0  0  0  0  0  0  0  0  0  0  0
   -2.5130   18.9770  -34.2360 C   0  0  0  0  0  0  0  0  0  0  0  0
   -3.4210   18.5140  -33.0870 C   0  0  0  0  0  0  0  0  0  0  0  0
   -4.6830   19.3860  -32.9970 C   0  0  0  0  0  0  0  0  0  0  0  0
   -4.4280   20.8490  -33.4010 C   0  0  0  0  0  0  0  0  0  0  0  0
   -2.9510   21.2230  -33.2360 C   0  0  0  0  0  0  0  0  0  0  0  0
   -0.5670   21.9140  -31.1840 C   0  0  0  0  0  0  0  0  0  0  0  0
   -2.9226   22.6548  -27.5018 H   0  0  0  0  0  0  0  0  0  0  0  0
   -3.9322   24.0753  -27.9673 H   0  0  0  0  0  0  0  0  0  0  0  0
   -8.6443   24.0114  -31.6805 H   0  0  0  0  0  0  0  0  0  0  0  0
  -10.2625   22.1647  -32.1159 H   0  0  0  0  0  0  0  0  0  0  0  0
   -9.5137   19.7868  -32.0031 H   0  0  0  0  0  0  0  0  0  0  0  0
   -7.1497   19.2527  -31.4062 H   0  0  0  0  0  0  0  0  0  0  0  0
   -5.5259   21.0904  -30.9674 H   0  0  0  0  0  0  0  0  0  0  0  0
   -0.3260   20.9837  -27.9016 H   0  0  0  0  0  0  0  0  0  0  0  0
    0.1084   18.7756  -28.9749 H   0  0  0  0  0  0  0  0  0  0  0  0
    0.0873   18.5650  -31.4594 H   0  0  0  0  0  0  0  0  0  0  0  0
   -2.0880   20.8210  -35.0580 H   0  0  0  0  0  0  0  0  0  0  0  0
   -3.0629   18.8682  -35.1824 H   0  0  0  0  0  0  0  0  0  0  0  0
   -1.6081   18.3520  -34.2114 H   0  0  0  0  0  0  0  0  0  0  0  0
   -3.7174   17.4691  -33.2614 H   0  0  0  0  0  0  0  0  0  0  0  0
   -2.8646   18.6042  -32.1424 H   0  0  0  0  0  0  0  0  0  0  0  0
   -5.4490   18.9654  -33.6651 H   0  0  0  0  0  0  0  0  0  0  0  0
   -5.0116   19.3851  -31.9472 H   0  0  0  0  0  0  0  0  0  0  0  0
   -4.7168   20.9856  -34.4536 H   0  0  0  0  0  0  0  0  0  0  0  0
   -5.0261   21.4994  -32.7458 H   0  0  0  0  0  0  0  0  0  0  0  0
   -2.8191   22.2817  -33.5040 H   0  0  0  0  0  0  0  0  0  0  0  0
   -2.6664   21.0434  -32.1887 H   0  0  0  0  0  0  0  0  0  0  0  0
   -0.7148   22.8074  -31.8085 H   0  0  0  0  0  0  0  0  0  0  0  0
  1  2  2  0
  2  3  1  0
  3  4  1  0
  4  5  1  0
  5  6  2  0
  6  7  1  0
  7  8  2  0
  8  9  1  0
  9 10  1  0
 10 11  2  0
 11 12  1  0
 12 13  2  0
 13 14  1  0
 14 15  2  0
  2 16  1  0
 16 17  1  0
 17 18  2  0
 18 19  1  0
 19 20  2  0
 20 21  1  0
 21 22  1  0
 22 23  2  0
 22 24  2  0
 22 25  1  0
 25 26  1  0
 26 27  1  0
 27 28  1  0
 28 29  1  0
 29 30  1  0
 21 31  2  0
  9  5  1  0
 15 10  1  0
 31 17  1  0
 30 25  1  0
  3 32  1  0
  3 33  1  0
 11 34  1  0
 12 35  1  0
 13 36  1  0
 14 37  1  0
 15 38  1  0
 18 39  1  0
 19 40  1  0
 20 41  1  0
 25 42  1  0
 26 43  1  0
 26 44  1  0
 27 45  1  0
 27 46  1  0
 28 47  1  0
 28 48  1  0
 29 49  1  0
 29 50  1  0
 30 51  1  0
 30 52  1  0
 31 53  1  0
M  CHG  2  16  -1  25   1
M  END
>  <UniqueID>  (21) 
21

>  <SMILES>  (21) 
O=C(CSc1nnnn1-c1ccccc1)[N-]c1cccc(S(=O)(=O)[NH+]2CCCCC2)c1

>  <Energy>  (21) 
105.84823439040215

>  <Genealogy>  (21) 
O=C(CSc1nnnn1-c1ccccc1)[N-]c1cccc(S(=O)(=O)[NH+]2CCCCC2)c1 (protonated)
O=C(CSc1nnnn1-c1ccccc1)[N-]c1cccc(S(=O)(=O)[NH+]2CCCCC2)c1 (3D coordinates assigned)
O=C(CSc1nnnn1-c1ccccc1)[N-]c1cccc(S(=O)(=O)[NH+]2CCCCC2)c1 (nonaromatic ring conformer: 105.84823439040215 kcal/mol)

>  <smiles>  (21) 
O=C(CSc1nnnn1-c1ccccc1)Nc1cccc(S(=O)(=O)N2CCCCC2)c1

>  <score_type>  (21) 
oracle

>  <origin>  (21) 
adgpu

>  <m_score__min__energy>  (21) 
-12.66

>  <m_primary>  (21) 
energy

$$$$
21:0
     RDKit          3D

 50 52  0  0  0  0  0  0  0  0999 V2000
   -4.5220   24.5310  -27.5930 C   0  0  0  0  0  0  0  0  0  0  0  0
   -4.0160   23.7350  -28.7640 C   0  0  0  0  0  0  0  0  0  0  0  0
   -3.3440   22.5240  -28.5600 C   0  0  0  0  0  0  0  0  0  0  0  0
   -2.8890   21.8090  -29.6210 N   0  0  0  0  0  0  0  0  0  0  0  0
   -3.0710   22.2420  -30.8980 C   0  0  0  0  0  0  0  0  0  0  0  0
   -2.5630   21.4450  -32.0410 C   0  0  0  0  0  0  0  0  0  0  0  0
   -3.4250   20.6030  -32.7700 C   0  0  0  0  0  0  0  0  0  0  0  0
   -2.9420   19.8530  -33.8460 C   0  0  0  0  0  0  0  0  0  0  0  0
   -1.5960   19.9330  -34.2080 C   0  0  0  0  0  0  0  0  0  0  0  0
   -0.7300   20.7650  -33.4960 C   0  0  0  0  0  0  0  0  0  0  0  0
   -1.2070   21.5170  -32.4190 C   0  0  0  0  0  0  0  0  0  0  0  0
   -3.7280   23.4140  -31.1150 N   0  0  0  0  0  0  0  0  0  0  0  0
   -4.2060   24.1640  -30.0890 C   0  0  0  0  0  0  0  0  0  0  0  0
   -5.0690   25.6930  -30.4720 S   0  0  0  0  0  0  0  0  0  0  0  0
   -6.7010   25.0300  -30.0060 C   0  0  0  0  0  0  0  0  0  0  0  0
   -6.9270   23.7220  -30.7060 C   0  0  0  0  0  0  0  0  0  0  0  0
   -7.5720   22.6660  -30.0440 C   0  0  0  0  0  0  0  0  0  0  0  0
   -7.7550   21.4380  -30.6860 C   0  0  0  0  0  0  0  0  0  0  0  0
   -7.2920   21.2420  -31.9990 C   0  0  0  0  0  0  0  0  0  0  0  0
   -7.4760   19.9430  -32.6890 C   0  0  0  0  0  0  0  0  0  0  0  0
   -8.6410   19.4850  -32.8490 O   0  0  0  0  0  0  0  0  0  0  0  0
   -6.3470   19.1890  -33.1630 N   0  0  0  0  0  0  0  0  0  0  0  0
   -6.4990   17.9620  -33.9490 C   0  0  0  0  0  0  0  0  0  0  0  0
   -5.3790   17.8660  -34.9870 C   0  0  0  0  0  0  0  0  0  0  0  0
   -6.4870   16.7470  -33.0210 C   0  0  0  0  0  0  0  0  0  0  0  0
   -6.6230   22.2950  -32.6480 C   0  0  0  0  0  0  0  0  0  0  0  0
   -6.4420   23.5240  -32.0060 C   0  0  0  0  0  0  0  0  0  0  0  0
   -4.2121   24.0435  -26.6569 H   0  0  0  0  0  0  0  0  0  0  0  0
   -4.1041   25.5477  -27.6327 H   0  0  0  0  0  0  0  0  0  0  0  0
   -5.6200   24.5841  -27.6327 H   0  0  0  0  0  0  0  0  0  0  0  0
   -3.1841   22.1507  -27.5377 H   0  0  0  0  0  0  0  0  0  0  0  0
   -4.4867   20.5351  -32.4904 H   0  0  0  0  0  0  0  0  0  0  0  0
   -3.6238   19.1984  -34.4087 H   0  0  0  0  0  0  0  0  0  0  0  0
   -1.2178   19.3405  -35.0542 H   0  0  0  0  0  0  0  0  0  0  0  0
    0.3299   20.8287  -33.7833 H   0  0  0  0  0  0  0  0  0  0  0  0
   -0.5190   22.1701  -31.8620 H   0  0  0  0  0  0  0  0  0  0  0  0
   -6.7366   24.8746  -28.9176 H   0  0  0  0  0  0  0  0  0  0  0  0
   -7.4847   25.7438  -30.2999 H   0  0  0  0  0  0  0  0  0  0  0  0
   -7.9352   22.8053  -29.0151 H   0  0  0  0  0  0  0  0  0  0  0  0
   -8.2655   20.6181  -30.1596 H   0  0  0  0  0  0  0  0  0  0  0  0
   -5.3990   19.4130  -32.7840 H   0  0  0  0  0  0  0  0  0  0  0  0
   -7.4621   17.9848  -34.4799 H   0  0  0  0  0  0  0  0  0  0  0  0
   -4.4096   17.7829  -34.4738 H   0  0  0  0  0  0  0  0  0  0  0  0
   -5.5378   16.9782  -35.6167 H   0  0  0  0  0  0  0  0  0  0  0  0
   -5.3844   18.7679  -35.6167 H   0  0  0  0  0  0  0  0  0  0  0  0
   -6.4903   17.0851  -31.9742 H   0  0  0  0  0  0  0  0  0  0  0  0
   -7.3791   16.1320  -33.2105 H   0  0  0  0  0  0  0  0  0  0  0  0
   -5.5829   16.1498  -33.2105 H   0  0  0  0  0  0  0  0  0  0  0  0
   -6.2391   22.1508  -33.6687 H   0  0  0  0  0  0  0  0  0  0  0  0
   -5.9162   24.3397  -32.5240 H   0  0  0  0  0  0  0  0  0  0  0  0
  1  2  1  0
  2  3  2  0
  3  4  1  0
  4  5  2  0
  5  6  1  0
  6  7  2  0
  7  8  1  0
  8  9  2  0
  9 10  1  0
 10 11  2  0
  5 12  1  0
 12 13  2  0
 13 14  1  0
 14 15  1  0
 15 16  1  0
 16 17  2  0
 17 18  1  0
 18 19  2  0
 19 20  1  0
 20 21  2  0
 20 22  1  0
 22 23  1  0
 23 24  1  0
 23 25  1  0
 19 26  1  0
 26 27  2  0
 13  2  1  0
 27 16  1  0
 11  6  1  0
  1 28  1  0
  1 29  1  0
  1 30  1  0
  3 31  1  0
  7 32  1  0
  8 33  1  0
  9 34  1  0
 10 35  1  0
 11 36  1  0
 15 37  1  0
 15 38  1  0
 17 39  1  0
 18 40  1  0
 22 41  1  0
 23 42  1  0
 24 43  1  0
 24 44  1  0
 24 45  1  0
 25 46  1  0
 25 47  1  0
 25 48  1  0
 26 49  1  0
 27 50  1  0
M  END
>  <UniqueID>  (22) 
22

>  <SMILES>  (22) 
Cc1cnc(-c2ccccc2)nc1SCc1ccc(C(=O)NC(C)C)cc1

>  <Energy>  (22) 
46.37023466254469

>  <Genealogy>  (22) 
Cc1cnc(-c2ccccc2)nc1SCc1ccc(C(=O)NC(C)C)cc1 (3D coordinates assigned)
Cc1cnc(-c2ccccc2)nc1SCc1ccc(C(=O)NC(C)C)cc1 (optimized conformer: 46.37023466254469 kcal/mol)

>  <smiles>  (22) 
Cc1cnc(-c2ccccc2)nc1SCc1ccc(C(=O)NC(C)C)cc1

>  <score_type>  (22) 
oracle

>  <origin>  (22) 
adgpu

>  <m_score__min__energy>  (22) 
-9.4299999999999997

>  <m_primary>  (22) 
energy

$$$$
22:0
     RDKit          3D

 52 55  0  0  0  0  0  0  0  0999 V2000
   -5.7150   19.3260  -34.1150 C   0  0  0  0  0  0  0  0  0  0  0  0
   -5.6050   20.3810  -33.0400 C   0  0  0  0  0  0  0  0  0  0  0  0
   -4.3480   20.9040  -32.7410 C   0  0  0  0  0  0  0  0  0  0  0  0
   -4.2000   21.8700  -31.7500 C   0  0  0  0  0  0  0  0  0  0  0  0
   -3.0430   22.3230  -31.5280 O   0  0  0  0  0  0  0  0  0  0  0  0
   -5.2830   22.3210  -31.0330 N   0  0  0  0  0  0  0  0  0  0  0  0
   -5.0440   23.2950  -29.9420 C   0  0  0  0  0  0  0  0  0  0  0  0
   -4.4490   24.5710  -30.4640 C   0  0  0  0  0  0  0  0  0  0  0  0
   -5.1220   25.3230  -31.2210 O   0  0  0  0  0  0  0  0  0  0  0  0
   -3.1080   24.9150  -30.0960 N   0  0  0  0  0  0  0  0  0  0  0  0
   -2.4030   24.4740  -28.9270 C   0  0  0  0  0  0  0  0  0  0  0  0
   -1.7850   25.3780  -28.0440 C   0  0  0  0  0  0  0  0  0  0  0  0
   -1.1360   24.9080  -26.8990 C   0  0  0  0  0  0  0  0  0  0  0  0
   -1.1040   23.5390  -26.6200 C   0  0  0  0  0  0  0  0  0  0  0  0
   -1.7290   22.6320  -27.4860 C   0  0  0  0  0  0  0  0  0  0  0  0
   -1.7200   20.9100  -27.1140 S   0  0  0  0  0  0  0  0  0  0  0  0
   -1.5510   20.7130  -25.6310 O   0  0  0  0  0  0  0  0  0  0  0  0
   -3.0330   20.3070  -27.5280 O   0  0  0  0  0  0  0  0  0  0  0  0
   -0.4240   20.1360  -27.9890 N   0  0  0  0  0  0  0  0  0  0  0  0
   -0.4900   18.6800  -27.8640 C   0  0  0  0  0  0  0  0  0  0  0  0
    0.1620   18.1070  -29.1120 C   0  0  0  0  0  0  0  0  0  0  0  0
    0.1570   19.2390  -30.1270 C   0  0  0  0  0  0  0  0  0  0  0  0
   -0.5140   20.4090  -29.4220 C   0  0  0  0  0  0  0  0  0  0  0  0
   -2.3880   23.1050  -28.6290 C   0  0  0  0  0  0  0  0  0  0  0  0
   -6.5560   21.8760  -31.3500 C   0  0  0  0  0  0  0  0  0  0  0  0
   -7.7120   22.3990  -30.7170 C   0  0  0  0  0  0  0  0  0  0  0  0
   -8.9850   21.9250  -31.0330 C   0  0  0  0  0  0  0  0  0  0  0  0
   -9.1440   20.9310  -31.9910 C   0  0  0  0  0  0  0  0  0  0  0  0
   -8.0340   20.4130  -32.6520 C   0  0  0  0  0  0  0  0  0  0  0  0
   -6.7340   20.8770  -32.3540 C   0  0  0  0  0  0  0  0  0  0  0  0
   -5.8183   18.3356  -33.6476 H   0  0  0  0  0  0  0  0  0  0  0  0
   -6.5967   19.5301  -34.7402 H   0  0  0  0  0  0  0  0  0  0  0  0
   -4.8101   19.3438  -34.7402 H   0  0  0  0  0  0  0  0  0  0  0  0
   -3.4650   20.5500  -33.2933 H   0  0  0  0  0  0  0  0  0  0  0  0
   -6.0011   23.5221  -29.4496 H   0  0  0  0  0  0  0  0  0  0  0  0
   -4.3337   22.8488  -29.2304 H   0  0  0  0  0  0  0  0  0  0  0  0
   -1.8126   26.4572  -28.2552 H   0  0  0  0  0  0  0  0  0  0  0  0
   -0.6486   25.6182  -26.2149 H   0  0  0  0  0  0  0  0  0  0  0  0
   -0.5879   23.1733  -25.7201 H   0  0  0  0  0  0  0  0  0  0  0  0
    0.0541   18.3511  -26.9664 H   0  0  0  0  0  0  0  0  0  0  0  0
   -1.5306   18.3369  -27.7669 H   0  0  0  0  0  0  0  0  0  0  0  0
    1.1925   17.7885  -28.8960 H   0  0  0  0  0  0  0  0  0  0  0  0
   -0.3749   17.2219  -29.4841 H   0  0  0  0  0  0  0  0  0  0  0  0
    1.1854   19.5018  -30.4158 H   0  0  0  0  0  0  0  0  0  0  0  0
   -0.3717   18.9592  -31.0501 H   0  0  0  0  0  0  0  0  0  0  0  0
    0.0064   21.3475  -29.6636 H   0  0  0  0  0  0  0  0  0  0  0  0
   -1.5609   20.5189  -29.7413 H   0  0  0  0  0  0  0  0  0  0  0  0
   -2.8976   22.3956  -29.2976 H   0  0  0  0  0  0  0  0  0  0  0  0
   -7.6028   23.1927  -29.9633 H   0  0  0  0  0  0  0  0  0  0  0  0
   -9.8665   22.3395  -30.5220 H   0  0  0  0  0  0  0  0  0  0  0  0
  -10.1494   20.5527  -32.2275 H   0  0  0  0  0  0  0  0  0  0  0  0
   -8.1710   19.6330  -33.4155 H   0  0  0  0  0  0  0  0  0  0  0  0
  1  2  1  0
  2  3  2  0
  3  4  1  0
  4  5  2  0
  4  6  1  0
  6  7  1  0
  7  8  1  0
  8  9  2  0
  8 10  1  0
 10 11  1  0
 11 12  2  0
 12 13  1  0
 13 14  2  0
 14 15  1  0
 15 16  1  0
 16 17  2  0
 16 18  2  0
 16 19  1  0
 19 20  1  0
 20 21  1  0
 21 22  1  0
 22 23  1  0
 15 24  2  0
  6 25  1  0
 25 26  2  0
 26 27  1  0
 27 28  2  0
 28 29  1  0
 29 30  2  0
 30  2  1  0
 24 11  1  0
 30 25  1  0
 23 19  1  0
  1 31  1  0
  1 32  1  0
  1 33  1  0
  3 34  1  0
  7 35  1  0
  7 36  1  0
 12 37  1  0
 13 38  1  0
 14 39  1  0
 20 40  1  0
 20 41  1  0
 21 42  1  0
 21 43  1  0
 22 44  1  0
 22 45  1  0
 23 46  1  0
 23 47  1  0
 24 48  1  0
 26 49  1  0
 27 50  1  0
 28 51  1  0
 29 52  1  0
M  CHG  1  10  -1
M  END
>  <UniqueID>  (23) 
23

>  <SMILES>  (23) 
Cc1cc(=O)n(CC(=O)[N-]c2cccc(S(=O)(=O)N3CCCC3)c2)c2ccccc12

>  <Energy>  (23) 
71.62405618309528

>  <Genealogy>  (23) 
Cc1cc(=O)n(CC(=O)[N-]c2cccc(S(=O)(=O)N3CCCC3)c2)c2ccccc12 (protonated)
Cc1cc(=O)n(CC(=O)[N-]c2cccc(S(=O)(=O)N3CCCC3)c2)c2ccccc12 (3D coordinates assigned)
Cc1cc(=O)n(CC(=O)[N-]c2cccc(S(=O)(=O)N3CCCC3)c2)c2ccccc12 (nonaromatic ring conformer: 71.62405618309528 kcal/mol)

>  <smiles>  (23) 
Cc1cc(=O)n(CC(=O)Nc2cccc(S(=O)(=O)N3CCCC3)c2)c2ccccc12

>  <score_type>  (23) 
oracle

>  <origin>  (23) 
adgpu

>  <m_score__min__energy>  (23) 
-11.800000000000001

>  <m_primary>  (23) 
energy

$$$$
23:0
     RDKit          3D

 42 44  0  0  0  0  0  0  0  0999 V2000
   -6.0280   25.1260  -29.3510 C   0  0  0  0  0  0  0  0  0  0  0  0
   -5.2950   25.6670  -30.5720 C   0  0  0  0  0  0  0  0  0  0  0  0
   -4.1170   24.9050  -30.8310 O   0  0  0  0  0  0  0  0  0  0  0  0
   -3.3460   24.2360  -29.8670 C   0  0  0  0  0  0  0  0  0  0  0  0
   -2.6010   24.9110  -28.8700 C   0  0  0  0  0  0  0  0  0  0  0  0
   -1.8470   24.1860  -27.9210 C   0  0  0  0  0  0  0  0  0  0  0  0
   -1.8260   22.7820  -27.9490 C   0  0  0  0  0  0  0  0  0  0  0  0
   -2.5670   22.1370  -28.9350 C   0  0  0  0  0  0  0  0  0  0  0  0
   -2.6820   20.8100  -29.1210 N   0  0  0  0  0  0  0  0  0  0  0  0
   -3.5030   20.6500  -30.1820 C   0  0  0  0  0  0  0  0  0  0  0  0
   -3.9060   21.8860  -30.6700 C   0  0  0  0  0  0  0  0  0  0  0  0
   -4.9970   22.1510  -32.0240 S   0  0  0  0  0  0  0  0  0  0  0  0
   -6.0230   23.1720  -31.6190 O   0  0  0  0  0  0  0  0  0  0  0  0
   -4.2260   22.6750  -33.2040 O   0  0  0  0  0  0  0  0  0  0  0  0
   -5.7720   20.6360  -32.4780 C   0  0  0  0  0  0  0  0  0  0  0  0
   -6.9870   20.2700  -31.8820 C   0  0  0  0  0  0  0  0  0  0  0  0
   -7.6320   19.0840  -32.2610 C   0  0  0  0  0  0  0  0  0  0  0  0
   -8.9110   18.6750  -31.5920 C   0  0  0  0  0  0  0  0  0  0  0  0
   -7.0390   18.2500  -33.2210 C   0  0  0  0  0  0  0  0  0  0  0  0
   -5.8290   18.6160  -33.8310 C   0  0  0  0  0  0  0  0  0  0  0  0
   -5.1880   17.7130  -34.8410 C   0  0  0  0  0  0  0  0  0  0  0  0
   -5.1910   19.8030  -33.4410 C   0  0  0  0  0  0  0  0  0  0  0  0
   -3.3030   22.8350  -29.8620 C   0  0  0  0  0  0  0  0  0  0  0  0
   -5.5356   25.4894  -28.4369 H   0  0  0  0  0  0  0  0  0  0  0  0
   -7.0722   25.4716  -29.3672 H   0  0  0  0  0  0  0  0  0  0  0  0
   -6.0055   24.0263  -29.3672 H   0  0  0  0  0  0  0  0  0  0  0  0
   -5.9602   25.6120  -31.4463 H   0  0  0  0  0  0  0  0  0  0  0  0
   -5.0059   26.7104  -30.3777 H   0  0  0  0  0  0  0  0  0  0  0  0
   -2.6095   26.0104  -28.8342 H   0  0  0  0  0  0  0  0  0  0  0  0
   -1.2717   24.7252  -27.1540 H   0  0  0  0  0  0  0  0  0  0  0  0
   -1.2415   22.2093  -27.2138 H   0  0  0  0  0  0  0  0  0  0  0  0
   -2.2320   20.0530  -28.5590 H   0  0  0  0  0  0  0  0  0  0  0  0
   -3.8085   19.6793  -30.5996 H   0  0  0  0  0  0  0  0  0  0  0  0
   -7.4364   20.9161  -31.1135 H   0  0  0  0  0  0  0  0  0  0  0  0
   -8.7831   18.7159  -30.5002 H   0  0  0  0  0  0  0  0  0  0  0  0
   -9.7174   19.3601  -31.8926 H   0  0  0  0  0  0  0  0  0  0  0  0
   -9.1703   17.6491  -31.8926 H   0  0  0  0  0  0  0  0  0  0  0  0
   -7.5256   17.3030  -33.4974 H   0  0  0  0  0  0  0  0  0  0  0  0
   -4.6267   16.9222  -34.3218 H   0  0  0  0  0  0  0  0  0  0  0  0
   -5.9658   17.2571  -35.4712 H   0  0  0  0  0  0  0  0  0  0  0  0
   -4.5011   18.2969  -35.4712 H   0  0  0  0  0  0  0  0  0  0  0  0
   -4.2282   20.0807  -33.8948 H   0  0  0  0  0  0  0  0  0  0  0  0
  1  2  1  0
  2  3  1  0
  3  4  1  0
  4  5  2  0
  5  6  1  0
  6  7  2  0
  7  8  1  0
  8  9  1  0
  9 10  1  0
 10 11  2  0
 11 12  1  0
 12 13  2  0
 12 14  2  0
 12 15  1  0
 15 16  2  0
 16 17  1  0
 17 18  1  0
 17 19  2  0
 19 20  1  0
 20 21  1  0
 20 22  2  0
 11 23  1  0
 23  4  1  0
 23  8  2  0
 22 15  1  0
  1 24  1  0
  1 25  1  0
  1 26  1  0
  2 27  1  0
  2 28  1  0
  5 29  1  0
  6 30  1  0
  7 31  1  0
  9 32  1  0
 10 33  1  0
 16 34  1  0
 18 35  1  0
 18 36  1  0
 18 37  1  0
 19 38  1  0
 21 39  1  0
 21 40  1  0
 21 41  1  0
 22 42  1  0
M  END
>  <UniqueID>  (24) 
24

>  <SMILES>  (24) 
CCOc1cccc2[nH]cc(S(=O)(=O)c3cc(C)cc(C)c3)c12

>  <Energy>  (24) 
73.35099023387684

>  <Genealogy>  (24) 
CCOc1cccc2[nH]cc(S(=O)(=O)c3cc(C)cc(C)c3)c12 (3D coordinates assigned)
CCOc1cccc2[nH]cc(S(=O)(=O)c3cc(C)cc(C)c3)c12 (optimized conformer: 73.35099023387684 kcal/mol)

>  <smiles>  (24) 
CCOc1cccc2[nH]cc(S(=O)(=O)c3cc(C)cc(C)c3)c12

>  <score_type>  (24) 
oracle

>  <origin>  (24) 
adgpu

>  <m_score__min__energy>  (24) 
-8.2200000000000006

>  <m_primary>  (24) 
energy

$$$$
24:0
     RDKit          3D

 50 53  0  0  0  0  0  0  0  0999 V2000
   -5.9571   23.8677  -31.5194 H   0  0  0  0  0  0  0  0  0  0  0  0
   -5.1070   23.1720  -31.5760 C   0  0  0  0  0  0  0  0  0  0  0  0
   -5.0810   22.3120  -32.5560 N   0  0  0  0  0  0  0  0  0  0  0  0
   -4.1300   21.2510  -32.7360 C   0  0  0  0  0  0  0  0  0  0  0  0
   -2.7660   21.5310  -32.5820 C   0  0  0  0  0  0  0  0  0  0  0  0
   -2.4442   22.5519  -32.3284 H   0  0  0  0  0  0  0  0  0  0  0  0
   -1.8090   20.5230  -32.7480 C   0  0  0  0  0  0  0  0  0  0  0  0
   -0.1000   20.8950  -32.5390 S   0  0  0  0  0  0  0  0  0  0  0  0
    0.0430   21.9180  -31.4460 O   0  0  0  0  0  0  0  0  0  0  0  0
    0.6470   19.6530  -32.1300 O   0  0  0  0  0  0  0  0  0  0  0  0
    0.5520   21.5290  -34.0290 N   0  0  0  0  0  0  0  0  0  0  0  0
   -0.2960   21.1260  -35.1610 C   0  0  0  0  0  0  0  0  0  0  0  0
   -0.3587   20.0283  -35.1951 H   0  0  0  0  0  0  0  0  0  0  0  0
   -1.2998   21.5559  -35.0281 H   0  0  0  0  0  0  0  0  0  0  0  0
    0.3020   21.6440  -36.4870 C   0  0  0  0  0  0  0  0  0  0  0  0
    0.4240   20.7952  -37.1760 H   0  0  0  0  0  0  0  0  0  0  0  0
   -0.3874   22.3967  -36.8970 H   0  0  0  0  0  0  0  0  0  0  0  0
    1.5610   22.2640  -36.3000 O   0  0  0  0  0  0  0  0  0  0  0  0
    2.4370   21.3730  -35.6380 C   0  0  0  0  0  0  0  0  0  0  0  0
    2.5117   20.4436  -36.2216 H   0  0  0  0  0  0  0  0  0  0  0  0
    3.4216   21.8552  -35.5484 H   0  0  0  0  0  0  0  0  0  0  0  0
    1.9270   21.0380  -34.2220 C   0  0  0  0  0  0  0  0  0  0  0  0
    1.9428   19.9470  -34.0822 H   0  0  0  0  0  0  0  0  0  0  0  0
    2.5820   21.5290  -33.4872 H   0  0  0  0  0  0  0  0  0  0  0  0
   -2.2170   19.2310  -33.1050 C   0  0  0  0  0  0  0  0  0  0  0  0
   -1.4695   18.4338  -33.2303 H   0  0  0  0  0  0  0  0  0  0  0  0
   -3.5720   18.9540  -33.3020 C   0  0  0  0  0  0  0  0  0  0  0  0
   -3.8873   17.9405  -33.5906 H   0  0  0  0  0  0  0  0  0  0  0  0
   -4.5290   19.9590  -33.1340 C   0  0  0  0  0  0  0  0  0  0  0  0
   -5.8650   19.6750  -33.3920 O   0  0  0  0  0  0  0  0  0  0  0  0
   -4.0570   23.2660  -30.5340 C   0  0  0  0  0  0  0  0  0  0  0  0
   -3.4670   24.4910  -30.1940 C   0  0  0  0  0  0  0  0  0  0  0  0
   -3.8700   25.6730  -30.8040 O   0  0  0  0  0  0  0  0  0  0  0  0
   -2.5070   24.5360  -29.2380 N   0  0  0  0  0  0  0  0  0  0  0  0
   -2.1110   23.4180  -28.5780 C   0  0  0  0  0  0  0  0  0  0  0  0
   -1.1990   23.5110  -27.7120 O   0  0  0  0  0  0  0  0  0  0  0  0
   -2.6940   22.2100  -28.8540 N   0  0  0  0  0  0  0  0  0  0  0  0
   -2.2700   21.0270  -28.1480 C   0  0  0  0  0  0  0  0  0  0  0  0
   -3.1870   20.3200  -27.3530 C   0  0  0  0  0  0  0  0  0  0  0  0
   -4.2259   20.6717  -27.2696 H   0  0  0  0  0  0  0  0  0  0  0  0
   -2.7830   19.1700  -26.6670 C   0  0  0  0  0  0  0  0  0  0  0  0
   -3.5046   18.6185  -26.0465 H   0  0  0  0  0  0  0  0  0  0  0  0
   -1.4640   18.7210  -26.7690 C   0  0  0  0  0  0  0  0  0  0  0  0
   -1.1486   17.8155  -26.2300 H   0  0  0  0  0  0  0  0  0  0  0  0
   -0.5450   19.4210  -27.5550 C   0  0  0  0  0  0  0  0  0  0  0  0
    0.4930   19.0654  -27.6337 H   0  0  0  0  0  0  0  0  0  0  0  0
   -0.9420   20.5730  -28.2420 C   0  0  0  0  0  0  0  0  0  0  0  0
   -0.0150   21.2690  -29.0100 O   0  0  0  0  0  0  0  0  0  0  0  0
   -3.6660   22.1220  -29.8170 C   0  0  0  0  0  0  0  0  0  0  0  0
   -4.2120   21.0120  -30.0700 O   0  0  0  0  0  0  0  0  0  0  0  0
  1  2  1  0
  2  3  2  0
  3  4  1  0
  4  5  2  0
  5  6  1  0
  5  7  1  0
  7  8  1  0
  8  9  2  0
  8 10  2  0
  8 11  1  0
 11 12  1  0
 12 13  1  0
 12 14  1  0
 12 15  1  0
 15 16  1  0
 15 17  1  0
 15 18  1  0
 18 19  1  0
 19 20  1  0
 19 21  1  0
 19 22  1  0
 22 23  1  0
 22 24  1  0
  7 25  2  0
 25 26  1  0
 25 27  1  0
 27 28  1  0
 27 29  2  0
 29 30  1  0
  2 31  1  0
 31 32  2  0
 32 33  1  0
 32 34  1  0
 34 35  1  0
 35 36  2  0
 35 37  1  0
 37 38  1  0
 38 39  2  0
 39 40  1  0
 39 41  1  0
 41 42  1  0
 41 43  2  0
 43 44  1  0
 43 45  1  0
 45 46  1  0
 45 47  2  0
 47 48  1  0
 37 49  1  0
 49 50  2  0
 29  4  1  0
 49 31  1  0
 22 11  1  0
 47 38  1  0
M  CHG  4  30  -1  33  -1  34  -1  48  -1
M  END
>  <UniqueID>  (25) 
25

>  <SMILES>  (25) 
O=c1[n-]c([O-])c(/C=N\c2cc(S(=O)(=O)N3CCOCC3)ccc2[O-])c(=O)n1-c1ccccc1[O-]

>  <Energy>  (25) 
87.39299657015398

>  <Genealogy>  (25) 
O=c1[n-]c([O-])c(C=Nc2cc(S(=O)(=O)N3CCOCC3)ccc2[O-])c(=O)n1-c1ccccc1[O-] (protonated)
O=c1[n-]c([O-])c(/C=N\c2cc(S(=O)(=O)N3CCOCC3)ccc2[O-])c(=O)n1-c1ccccc1[O-] (cis-trans isomerization)
O=c1[n-]c([O-])c(/C=N\c2cc(S(=O)(=O)N3CCOCC3)ccc2[O-])c(=O)n1-c1ccccc1[O-] (3D coordinates assigned)
O=c1[n-]c([O-])c(/C=N\c2cc(S(=O)(=O)N3CCOCC3)ccc2[O-])c(=O)n1-c1ccccc1[O-] (nonaromatic ring conformer: 87.39299657015398 kcal/mol)

>  <smiles>  (25) 
O=c1[nH]c(O)c(C=Nc2cc(S(=O)(=O)N3CCOCC3)ccc2O)c(=O)n1-c1ccccc1O

>  <score_type>  (25) 
oracle

>  <origin>  (25) 
adgpu

>  <m_score__min__energy>  (25) 
-14.18

>  <m_primary>  (25) 
energy

$$$$
25:0
     RDKit          3D

 67 71  0  0  0  0  0  0  0  0999 V2000
    0.5850   18.9530  -27.8800 C   0  0  0  0  0  0  0  0  0  0  0  0
   -0.5940   19.6670  -28.4230 N   0  0  0  0  0  0  0  0  0  0  0  0
   -1.6990   19.6400  -27.4490 C   0  0  0  0  0  0  0  0  0  0  0  0
   -2.9510   20.2300  -28.0930 C   0  0  0  0  0  0  0  0  0  0  0  0
   -2.6770   21.6420  -28.5170 C   0  0  0  0  0  0  0  0  0  0  0  0
   -3.7210   22.5760  -28.5960 C   0  0  0  0  0  0  0  0  0  0  0  0
   -3.4570   23.9170  -28.9020 C   0  0  0  0  0  0  0  0  0  0  0  0
   -4.5090   24.8850  -28.9320 N   0  0  0  0  0  0  0  0  0  0  0  0
   -5.6900   24.9580  -30.1990 S   0  0  0  0  0  0  0  0  0  0  0  0
   -5.3480   26.0810  -31.1330 O   0  0  0  0  0  0  0  0  0  0  0  0
   -7.0520   25.2100  -29.6160 O   0  0  0  0  0  0  0  0  0  0  0  0
   -5.6750   23.4420  -31.0940 C   0  0  0  0  0  0  0  0  0  0  0  0
   -6.8090   22.6190  -31.1060 C   0  0  0  0  0  0  0  0  0  0  0  0
   -6.7940   21.4120  -31.8120 C   0  0  0  0  0  0  0  0  0  0  0  0
   -5.6380   21.0020  -32.4970 C   0  0  0  0  0  0  0  0  0  0  0  0
   -5.6380   19.7490  -33.2010 N   0  0  0  0  0  0  0  0  0  0  0  0
   -6.2810   18.5630  -32.6960 C   0  0  0  0  0  0  0  0  0  0  0  0
   -7.1960   18.6720  -31.8330 O   0  0  0  0  0  0  0  0  0  0  0  0
   -5.9000   17.2120  -33.1840 C   0  0  0  0  0  0  0  0  0  0  0  0
   -6.8630   16.3230  -33.6950 C   0  0  0  0  0  0  0  0  0  0  0  0
   -6.4790   15.0750  -34.1960 C   0  0  0  0  0  0  0  0  0  0  0  0
   -5.1320   14.6960  -34.2030 C   0  0  0  0  0  0  0  0  0  0  0  0
   -4.6460   13.1350  -34.8670 S   0  0  0  0  0  0  0  0  0  0  0  0
   -5.7770   12.5740  -35.6840 O   0  0  0  0  0  0  0  0  0  0  0  0
   -3.4680   13.3360  -35.7830 O   0  0  0  0  0  0  0  0  0  0  0  0
   -4.2250   11.9840  -33.6130 N   0  0  0  0  0  0  0  0  0  0  0  0
   -5.2810   11.9030  -32.5960 C   0  0  0  0  0  0  0  0  0  0  0  0
   -4.8790   12.7960  -31.4350 C   0  0  0  0  0  0  0  0  0  0  0  0
   -3.3760   12.9430  -31.5410 C   0  0  0  0  0  0  0  0  0  0  0  0
   -2.9960   12.3770  -32.9070 C   0  0  0  0  0  0  0  0  0  0  0  0
   -4.1690   15.5720  -33.6870 C   0  0  0  0  0  0  0  0  0  0  0  0
   -4.5480   16.8160  -33.1790 C   0  0  0  0  0  0  0  0  0  0  0  0
   -4.5080   21.8380  -32.5000 C   0  0  0  0  0  0  0  0  0  0  0  0
   -4.5240   23.0430  -31.7910 C   0  0  0  0  0  0  0  0  0  0  0  0
   -2.1360   24.3260  -29.1090 C   0  0  0  0  0  0  0  0  0  0  0  0
   -1.8500   25.6650  -29.3370 O   0  0  0  0  0  0  0  0  0  0  0  0
   -1.0990   23.3880  -29.0960 C   0  0  0  0  0  0  0  0  0  0  0  0
   -1.3650   22.0390  -28.8230 C   0  0  0  0  0  0  0  0  0  0  0  0
   -0.2190   21.0450  -28.8430 C   0  0  0  0  0  0  0  0  0  0  0  0
    0.5517   18.9732  -26.7807 H   0  0  0  0  0  0  0  0  0  0  0  0
    0.5741   17.9096  -28.2281 H   0  0  0  0  0  0  0  0  0  0  0  0
    1.5046   19.4461  -28.2281 H   0  0  0  0  0  0  0  0  0  0  0  0
   -1.8962   18.6013  -27.1452 H   0  0  0  0  0  0  0  0  0  0  0  0
   -1.4252   20.2321  -26.5633 H   0  0  0  0  0  0  0  0  0  0  0  0
   -3.2283   19.6303  -28.9725 H   0  0  0  0  0  0  0  0  0  0  0  0
   -3.7769   20.2190  -27.3665 H   0  0  0  0  0  0  0  0  0  0  0  0
   -4.7567   22.2520  -28.4159 H   0  0  0  0  0  0  0  0  0  0  0  0
   -7.7134   22.9232  -30.5586 H   0  0  0  0  0  0  0  0  0  0  0  0
   -7.6936   20.7792  -31.8311 H   0  0  0  0  0  0  0  0  0  0  0  0
   -5.2740   19.7380  -34.1790 H   0  0  0  0  0  0  0  0  0  0  0  0
   -7.9246   16.6112  -33.7006 H   0  0  0  0  0  0  0  0  0  0  0  0
   -7.2418   14.3860  -34.5876 H   0  0  0  0  0  0  0  0  0  0  0  0
   -6.2357   12.2479  -33.0199 H   0  0  0  0  0  0  0  0  0  0  0  0
   -5.4069   10.8646  -32.2556 H   0  0  0  0  0  0  0  0  0  0  0  0
   -5.3683   13.7777  -31.5175 H   0  0  0  0  0  0  0  0  0  0  0  0
   -5.1805   12.3686  -30.4673 H   0  0  0  0  0  0  0  0  0  0  0  0
   -3.0894   14.0028  -31.4727 H   0  0  0  0  0  0  0  0  0  0  0  0
   -2.8598   12.4137  -30.7265 H   0  0  0  0  0  0  0  0  0  0  0  0
   -2.4631   13.1428  -33.4898 H   0  0  0  0  0  0  0  0  0  0  0  0
   -2.3401   11.5029  -32.7813 H   0  0  0  0  0  0  0  0  0  0  0  0
   -3.1089   15.2786  -33.6819 H   0  0  0  0  0  0  0  0  0  0  0  0
   -3.7835   17.4935  -32.7709 H   0  0  0  0  0  0  0  0  0  0  0  0
   -3.6091   21.5435  -33.0614 H   0  0  0  0  0  0  0  0  0  0  0  0
   -3.6289   23.6823  -31.7794 H   0  0  0  0  0  0  0  0  0  0  0  0
   -0.0677   23.7108  -29.3014 H   0  0  0  0  0  0  0  0  0  0  0  0
    0.1769   20.9967  -29.8682 H   0  0  0  0  0  0  0  0  0  0  0  0
    0.5221   21.4050  -28.1142 H   0  0  0  0  0  0  0  0  0  0  0  0
  1  2  1  0
  2  3  1  0
  3  4  1  0
  4  5  1  0
  5  6  2  0
  6  7  1  0
  7  8  1  0
  8  9  1  0
  9 10  2  0
  9 11  2  0
  9 12  1  0
 12 13  2  0
 13 14  1  0
 14 15  2  0
 15 16  1  0
 16 17  1  0
 17 18  2  0
 17 19  1  0
 19 20  2  0
 20 21  1  0
 21 22  2  0
 22 23  1  0
 23 24  2  0
 23 25  2  0
 23 26  1  0
 26 27  1  0
 27 28  1  0
 28 29  1  0
 29 30  1  0
 22 31  1  0
 31 32  2  0
 15 33  1  0
 33 34  2  0
  7 35  2  0
 35 36  1  0
 35 37  1  0
 37 38  2  0
 38 39  1  0
 39  2  1  0
 38  5  1  0
 34 12  1  0
 32 19  1  0
 30 26  1  0
  1 40  1  0
  1 41  1  0
  1 42  1  0
  3 43  1  0
  3 44  1  0
  4 45  1  0
  4 46  1  0
  6 47  1  0
 13 48  1  0
 14 49  1  0
 16 50  1  0
 20 51  1  0
 21 52  1  0
 27 53  1  0
 27 54  1  0
 28 55  1  0
 28 56  1  0
 29 57  1  0
 29 58  1  0
 30 59  1  0
 30 60  1  0
 31 61  1  0
 32 62  1  0
 33 63  1  0
 34 64  1  0
 37 65  1  0
 39 66  1  0
 39 67  1  0
M  CHG  2   8  -1  36  -1
M  END
>  <UniqueID>  (26) 
26

>  <SMILES>  (26) 
CN1CCc2cc([N-]S(=O)(=O)c3ccc(NC(=O)c4ccc(S(=O)(=O)N5CCCC5)cc4)cc3)c([O-])cc2C1

>  <Energy>  (26) 
92.2561477265677

>  <Genealogy>  (26) 
CN1CCc2cc([N-]S(=O)(=O)c3ccc(NC(=O)c4ccc(S(=O)(=O)N5CCCC5)cc4)cc3)c([O-])cc2C1 (protonated)
CN1CCc2cc([N-]S(=O)(=O)c3ccc(NC(=O)c4ccc(S(=O)(=O)N5CCCC5)cc4)cc3)c([O-])cc2C1 (3D coordinates assigned)
CN1CCc2cc([N-]S(=O)(=O)c3ccc(NC(=O)c4ccc(S(=O)(=O)N5CCCC5)cc4)cc3)c([O-])cc2C1 (nonaromatic ring conformer: 92.2561477265677 kcal/mol)

>  <smiles>  (26) 
CN1CCc2cc(NS(=O)(=O)c3ccc(NC(=O)c4ccc(S(=O)(=O)N5CCCC5)cc4)cc3)c(O)cc2C1

>  <score_type>  (26) 
oracle

>  <origin>  (26) 
adgpu

>  <m_score__min__energy>  (26) 
-13.949999999999999

>  <m_primary>  (26) 
energy

$$$$
26:0
     RDKit          3D

 58 61  0  0  0  0  0  0  0  0999 V2000
   -0.4970   22.7510  -26.5170 N   0  0  0  0  0  0  0  0  0  0  0  0
    0.7380   22.7100  -27.7280 S   0  0  0  0  0  0  0  0  0  0  0  0
    2.0700   22.9470  -27.0760 O   0  0  0  0  0  0  0  0  0  0  0  0
    0.4930   23.7870  -28.7480 O   0  0  0  0  0  0  0  0  0  0  0  0
    0.7610   21.1740  -28.4860 O   0  0  0  0  0  0  0  0  0  0  0  0
    0.1040   20.8610  -29.6850 C   0  0  0  0  0  0  0  0  0  0  0  0
   -0.2950   21.8380  -30.6140 C   0  0  0  0  0  0  0  0  0  0  0  0
   -0.9460   21.4650  -31.7920 C   0  0  0  0  0  0  0  0  0  0  0  0
   -1.2100   20.1190  -32.0690 C   0  0  0  0  0  0  0  0  0  0  0  0
   -1.8370   19.8100  -33.2890 O   0  0  0  0  0  0  0  0  0  0  0  0
   -3.2430   19.6810  -33.5170 C   0  0  0  0  0  0  0  0  0  0  0  0
   -4.0530   19.8060  -32.2170 C   0  0  0  0  0  0  0  0  0  0  0  0
   -4.6210   21.1540  -32.0340 N   0  0  0  0  0  0  0  0  0  0  0  0
   -5.8340   21.5390  -32.7740 C   0  0  0  0  0  0  0  0  0  0  0  0
   -6.9740   20.6130  -32.4490 C   0  0  0  0  0  0  0  0  0  0  0  0
   -8.0990   21.0810  -31.7470 C   0  0  0  0  0  0  0  0  0  0  0  0
   -9.1780   20.2280  -31.4940 C   0  0  0  0  0  0  0  0  0  0  0  0
   -9.1410   18.9030  -31.9350 C   0  0  0  0  0  0  0  0  0  0  0  0
   -8.0240   18.4270  -32.6260 C   0  0  0  0  0  0  0  0  0  0  0  0
   -6.9430   19.2770  -32.8820 C   0  0  0  0  0  0  0  0  0  0  0  0
   -4.0590   22.0550  -31.0570 C   0  0  0  0  0  0  0  0  0  0  0  0
   -4.1650   23.4010  -31.2200 N   0  0  0  0  0  0  0  0  0  0  0  0
   -3.6990   24.2670  -30.2850 C   0  0  0  0  0  0  0  0  0  0  0  0
   -3.8600   25.6330  -30.4870 O   0  0  0  0  0  0  0  0  0  0  0  0
   -3.0910   23.7790  -29.1150 C   0  0  0  0  0  0  0  0  0  0  0  0
   -2.6140   24.7030  -28.0590 C   0  0  0  0  0  0  0  0  0  0  0  0
   -3.2340   24.7180  -26.7970 C   0  0  0  0  0  0  0  0  0  0  0  0
   -2.7860   25.5930  -25.8020 C   0  0  0  0  0  0  0  0  0  0  0  0
   -1.7170   26.4560  -26.0560 C   0  0  0  0  0  0  0  0  0  0  0  0
   -1.0920   26.4440  -27.3060 C   0  0  0  0  0  0  0  0  0  0  0  0
   -1.5370   25.5730  -28.3050 C   0  0  0  0  0  0  0  0  0  0  0  0
   -2.9740   22.3850  -28.9760 C   0  0  0  0  0  0  0  0  0  0  0  0
   -2.4180   21.8810  -27.9640 O   0  0  0  0  0  0  0  0  0  0  0  0
   -3.4560   21.5650  -29.9420 N   0  0  0  0  0  0  0  0  0  0  0  0
   -0.8220   19.1430  -31.1320 C   0  0  0  0  0  0  0  0  0  0  0  0
   -0.1600   19.5150  -29.9590 C   0  0  0  0  0  0  0  0  0  0  0  0
   -1.2710   23.3550  -26.8710 H   0  0  0  0  0  0  0  0  0  0  0  0
   -0.8800   21.7810  -26.4380 H   0  0  0  0  0  0  0  0  0  0  0  0
   -0.0936   22.9004  -30.4122 H   0  0  0  0  0  0  0  0  0  0  0  0
   -1.2549   22.2385  -32.5106 H   0  0  0  0  0  0  0  0  0  0  0  0
   -3.5636   20.4710  -34.2121 H   0  0  0  0  0  0  0  0  0  0  0  0
   -3.4279   18.6812  -33.9367 H   0  0  0  0  0  0  0  0  0  0  0  0
   -4.8761   19.0767  -32.2426 H   0  0  0  0  0  0  0  0  0  0  0  0
   -3.3692   19.6142  -31.3770 H   0  0  0  0  0  0  0  0  0  0  0  0
   -6.1139   22.5664  -32.4982 H   0  0  0  0  0  0  0  0  0  0  0  0
   -5.6245   21.4758  -33.8520 H   0  0  0  0  0  0  0  0  0  0  0  0
   -8.1305   22.1228  -31.3953 H   0  0  0  0  0  0  0  0  0  0  0  0
  -10.0567   20.6008  -30.9472 H   0  0  0  0  0  0  0  0  0  0  0  0
   -9.9918   18.2341  -31.7381 H   0  0  0  0  0  0  0  0  0  0  0  0
   -7.9946   17.3823  -32.9692 H   0  0  0  0  0  0  0  0  0  0  0  0
   -6.0647   18.8976  -33.4248 H   0  0  0  0  0  0  0  0  0  0  0  0
   -4.0746   24.0389  -26.5915 H   0  0  0  0  0  0  0  0  0  0  0  0
   -3.2764   25.6017  -24.8174 H   0  0  0  0  0  0  0  0  0  0  0  0
   -1.3675   27.1445  -25.2726 H   0  0  0  0  0  0  0  0  0  0  0  0
   -0.2482   27.1213  -27.5043 H   0  0  0  0  0  0  0  0  0  0  0  0
   -1.0425   25.5683  -29.2876 H   0  0  0  0  0  0  0  0  0  0  0  0
   -1.0410   18.0823  -31.3240 H   0  0  0  0  0  0  0  0  0  0  0  0
    0.1567   18.7415  -29.2439 H   0  0  0  0  0  0  0  0  0  0  0  0
  1  2  1  0
  2  3  2  0
  2  4  2  0
  2  5  1  0
  5  6  1  0
  6  7  2  0
  7  8  1  0
  8  9  2  0
  9 10  1  0
 10 11  1  0
 11 12  1  0
 12 13  1  0
 13 14  1  0
 14 15  1  0
 15 16  2  0
 16 17  1  0
 17 18  2  0
 18 19  1  0
 19 20  2  0
 13 21  1  0
 21 22  2  0
 22 23  1  0
 23 24  1  0
 23 25  2  0
 25 26  1  0
 26 27  2  0
 27 28  1  0
 28 29  2  0
 29 30  1  0
 30 31  2  0
 25 32  1  0
 32 33  2  0
 32 34  1  0
  9 35  1  0
 35 36  2  0
 36  6  1  0
 20 15  1  0
 34 21  1  0
 31 26  1  0
  1 37  1  0
  1 38  1  0
  7 39  1  0
  8 40  1  0
 11 41  1  0
 11 42  1  0
 12 43  1  0
 12 44  1  0
 14 45  1  0
 14 46  1  0
 16 47  1  0
 17 48  1  0
 18 49  1  0
 19 50  1  0
 20 51  1  0
 27 52  1  0
 28 53  1  0
 29 54  1  0
 30 55  1  0
 31 56  1  0
 35 57  1  0
 36 58  1  0
M  CHG  2  24  -1  34  -1
M  END
>  <UniqueID>  (27) 
27

>  <SMILES>  (27) 
NS(=O)(=O)Oc1ccc(OCCN(Cc2ccccc2)c2nc([O-])c(-c3ccccc3)c(=O)[n-]2)cc1

>  <Energy>  (27) 
61.33812265138063

>  <Genealogy>  (27) 
NS(=O)(=O)Oc1ccc(OCCN(Cc2ccccc2)c2nc([O-])c(-c3ccccc3)c(=O)[n-]2)cc1 (protonated)
NS(=O)(=O)Oc1ccc(OCCN(Cc2ccccc2)c2nc([O-])c(-c3ccccc3)c(=O)[n-]2)cc1 (3D coordinates assigned)
NS(=O)(=O)Oc1ccc(OCCN(Cc2ccccc2)c2nc([O-])c(-c3ccccc3)c(=O)[n-]2)cc1 (optimized conformer: 61.33812265138063 kcal/mol)

>  <smiles>  (27) 
NS(=O)(=O)Oc1ccc(OCCN(Cc2ccccc2)c2nc(O)c(-c3ccccc3)c(=O)[nH]2)cc1

>  <score_type>  (27) 
oracle

>  <origin>  (27) 
adgpu

>  <m_score__min__energy>  (27) 
-13.17

>  <m_primary>  (27) 
energy

$$$$
27:0
     RDKit          3D

 63 66  0  0  0  0  0  0  0  0999 V2000
   -2.2250   17.3120  -34.4720 C   0  0  0  0  0  0  0  0  0  0  0  0
   -3.2660   17.9670  -33.6090 C   0  0  0  0  0  0  0  0  0  0  0  0
   -4.3420   17.2210  -33.0990 C   0  0  0  0  0  0  0  0  0  0  0  0
   -5.3240   17.8400  -32.3090 C   0  0  0  0  0  0  0  0  0  0  0  0
   -6.4850   17.0450  -31.7870 C   0  0  0  0  0  0  0  0  0  0  0  0
   -5.2480   19.2200  -32.0650 C   0  0  0  0  0  0  0  0  0  0  0  0
   -4.1810   19.9720  -32.5770 C   0  0  0  0  0  0  0  0  0  0  0  0
   -4.0770   21.7030  -32.2680 S   0  0  0  0  0  0  0  0  0  0  0  0
   -3.1720   21.9640  -31.0940 O   0  0  0  0  0  0  0  0  0  0  0  0
   -3.4750   22.3770  -33.4680 O   0  0  0  0  0  0  0  0  0  0  0  0
   -5.6960   22.3190  -31.8810 C   0  0  0  0  0  0  0  0  0  0  0  0
   -6.7910   21.6280  -32.4210 C   0  0  0  0  0  0  0  0  0  0  0  0
   -8.1010   22.0100  -32.1170 C   0  0  0  0  0  0  0  0  0  0  0  0
   -8.3330   23.0940  -31.2720 C   0  0  0  0  0  0  0  0  0  0  0  0
   -7.2600   23.7990  -30.7290 C   0  0  0  0  0  0  0  0  0  0  0  0
   -5.9340   23.4300  -31.0290 C   0  0  0  0  0  0  0  0  0  0  0  0
   -4.8560   24.2280  -30.4160 C   0  0  0  0  0  0  0  0  0  0  0  0
   -4.2380   25.0840  -31.1060 O   0  0  0  0  0  0  0  0  0  0  0  0
   -4.5800   24.1230  -29.0110 N   0  0  0  0  0  0  0  0  0  0  0  0
   -3.3630   23.5640  -28.5010 C   0  0  0  0  0  0  0  0  0  0  0  0
   -3.3360   22.2370  -28.0440 C   0  0  0  0  0  0  0  0  0  0  0  0
   -2.1470   21.6710  -27.5730 C   0  0  0  0  0  0  0  0  0  0  0  0
   -2.0950   19.9670  -27.1330 S   0  0  0  0  0  0  0  0  0  0  0  0
   -1.4710   19.8170  -25.7720 O   0  0  0  0  0  0  0  0  0  0  0  0
   -3.4980   19.4250  -27.0720 O   0  0  0  0  0  0  0  0  0  0  0  0
   -1.1560   19.1430  -28.3620 N   0  0  0  0  0  0  0  0  0  0  0  0
    0.1760   18.7610  -27.8550 C   0  0  0  0  0  0  0  0  0  0  0  0
    1.0520   18.1140  -28.9550 C   0  0  0  0  0  0  0  0  0  0  0  0
    0.2620   17.8470  -30.2440 C   0  0  0  0  0  0  0  0  0  0  0  0
   -0.4670   19.1120  -30.7370 C   0  0  0  0  0  0  0  0  0  0  0  0
   -1.0290   19.9620  -29.5790 C   0  0  0  0  0  0  0  0  0  0  0  0
   -0.9750   22.4410  -27.5560 C   0  0  0  0  0  0  0  0  0  0  0  0
   -0.9940   23.7630  -28.0160 C   0  0  0  0  0  0  0  0  0  0  0  0
   -2.1850   24.3260  -28.4980 C   0  0  0  0  0  0  0  0  0  0  0  0
   -2.2100   25.6430  -28.9600 O   0  0  0  0  0  0  0  0  0  0  0  0
   -3.1990   19.3450  -33.3550 C   0  0  0  0  0  0  0  0  0  0  0  0
   -1.4668   16.8349  -33.8337 H   0  0  0  0  0  0  0  0  0  0  0  0
   -2.7014   16.5506  -35.1071 H   0  0  0  0  0  0  0  0  0  0  0  0
   -1.7447   18.0710  -35.1071 H   0  0  0  0  0  0  0  0  0  0  0  0
   -4.4155   16.1459  -33.3199 H   0  0  0  0  0  0  0  0  0  0  0  0
   -6.4710   17.0546  -30.6871 H   0  0  0  0  0  0  0  0  0  0  0  0
   -7.4249   17.4899  -32.1456 H   0  0  0  0  0  0  0  0  0  0  0  0
   -6.4100   16.0078  -32.1456 H   0  0  0  0  0  0  0  0  0  0  0  0
   -6.0294   19.7142  -31.4691 H   0  0  0  0  0  0  0  0  0  0  0  0
   -6.6165   20.7744  -33.0925 H   0  0  0  0  0  0  0  0  0  0  0  0
   -8.9489   21.4550  -32.5448 H   0  0  0  0  0  0  0  0  0  0  0  0
   -9.3642   23.3935  -31.0333 H   0  0  0  0  0  0  0  0  0  0  0  0
   -7.4505   24.6513  -30.0601 H   0  0  0  0  0  0  0  0  0  0  0  0
   -4.2580   21.6372  -28.0565 H   0  0  0  0  0  0  0  0  0  0  0  0
    0.6847   19.6613  -27.4798 H   0  0  0  0  0  0  0  0  0  0  0  0
    0.0349   18.0204  -27.0540 H   0  0  0  0  0  0  0  0  0  0  0  0
    1.8879   18.7908  -29.1857 H   0  0  0  0  0  0  0  0  0  0  0  0
    1.4127   17.1472  -28.5739 H   0  0  0  0  0  0  0  0  0  0  0  0
    0.9584   17.5092  -31.0256 H   0  0  0  0  0  0  0  0  0  0  0  0
   -0.4936   17.0767  -30.0302 H   0  0  0  0  0  0  0  0  0  0  0  0
    0.2419   19.7254  -31.3125 H   0  0  0  0  0  0  0  0  0  0  0  0
   -1.3171   18.7872  -31.3549 H   0  0  0  0  0  0  0  0  0  0  0  0
   -0.3478   20.8028  -29.3816 H   0  0  0  0  0  0  0  0  0  0  0  0
   -2.0221   20.3415  -29.8615 H   0  0  0  0  0  0  0  0  0  0  0  0
   -0.0378   22.0048  -27.1800 H   0  0  0  0  0  0  0  0  0  0  0  0
   -0.0718   24.3624  -27.9994 H   0  0  0  0  0  0  0  0  0  0  0  0
   -3.0520   26.0440  -29.3580 H   0  0  0  0  0  0  0  0  0  0  0  0
   -2.3699   19.9372  -33.7695 H   0  0  0  0  0  0  0  0  0  0  0  0
  1  2  1  0
  2  3  2  0
  3  4  1  0
  4  5  1  0
  4  6  2  0
  6  7  1  0
  7  8  1  0
  8  9  2  0
  8 10  2  0
  8 11  1  0
 11 12  2  0
 12 13  1  0
 13 14  2  0
 14 15  1  0
 15 16  2  0
 16 17  1  0
 17 18  2  0
 17 19  1  0
 19 20  1  0
 20 21  2  0
 21 22  1  0
 22 23  1  0
 23 24  2  0
 23 25  2  0
 23 26  1  0
 26 27  1  0
 27 28  1  0
 28 29  1  0
 29 30  1  0
 30 31  1  0
 22 32  2  0
 32 33  1  0
 33 34  2  0
 34 35  1  0
  7 36  2  0
 36  2  1  0
 16 11  1  0
 34 20  1  0
 31 26  1  0
  1 37  1  0
  1 38  1  0
  1 39  1  0
  3 40  1  0
  5 41  1  0
  5 42  1  0
  5 43  1  0
  6 44  1  0
 12 45  1  0
 13 46  1  0
 14 47  1  0
 15 48  1  0
 21 49  1  0
 27 50  1  0
 27 51  1  0
 28 52  1  0
 28 53  1  0
 29 54  1  0
 29 55  1  0
 30 56  1  0
 30 57  1  0
 31 58  1  0
 31 59  1  0
 32 60  1  0
 33 61  1  0
 35 62  1  0
 36 63  1  0
M  CHG  1  19  -1
M  END
>  <UniqueID>  (28) 
28

>  <SMILES>  (28) 
Cc1cc(C)cc(S(=O)(=O)c2ccccc2C(=O)[N-]c2cc(S(=O)(=O)N3CCCCC3)ccc2O)c1

>  <Energy>  (28) 
84.80340301136557

>  <Genealogy>  (28) 
Cc1cc(C)cc(S(=O)(=O)c2ccccc2C(=O)[N-]c2cc(S(=O)(=O)N3CCCCC3)ccc2O)c1 (protonated)
Cc1cc(C)cc(S(=O)(=O)c2ccccc2C(=O)[N-]c2cc(S(=O)(=O)N3CCCCC3)ccc2O)c1 (3D coordinates assigned)
Cc1cc(C)cc(S(=O)(=O)c2ccccc2C(=O)[N-]c2cc(S(=O)(=O)N3CCCCC3)ccc2O)c1 (nonaromatic ring conformer: 84.80340301136557 kcal/mol)

>  <smiles>  (28) 
Cc1cc(C)cc(S(=O)(=O)c2ccccc2C(=O)Nc2cc(S(=O)(=O)N3CCCCC3)ccc2O)c1

>  <score_type>  (28) 
oracle

>  <origin>  (28) 
adgpu

>  <m_score__min__energy>  (28) 
-12.789999999999999

>  <m_primary>  (28) 
energy

$$$$
28:0
     RDKit          3D

 65 70  0  0  0  0  0  0  0  0999 V2000
   -4.6490   25.3100  -31.2250 O   0  0  0  0  0  0  0  0  0  0  0  0
   -5.4290   24.4760  -30.6870 C   0  0  0  0  0  0  0  0  0  0  0  0
   -6.7040   24.2030  -31.2780 N   0  0  0  0  0  0  0  0  0  0  0  0
   -7.2120   22.8940  -31.5620 C   0  0  0  0  0  0  0  0  0  0  0  0
   -8.5450   22.5820  -31.2130 C   0  0  0  0  0  0  0  0  0  0  0  0
   -9.0790   21.3100  -31.4820 C   0  0  0  0  0  0  0  0  0  0  0  0
   -8.2730   20.3700  -32.1220 C   0  0  0  0  0  0  0  0  0  0  0  0
   -6.9750   20.6820  -32.5010 C   0  0  0  0  0  0  0  0  0  0  0  0
   -6.4230   21.9360  -32.2340 C   0  0  0  0  0  0  0  0  0  0  0  0
   -6.4250   19.6360  -33.1050 C   0  0  0  0  0  0  0  0  0  0  0  0
   -5.0210   19.4800  -33.6160 C   0  0  0  0  0  0  0  0  0  0  0  0
   -4.0350   19.8900  -32.5610 C   0  0  0  0  0  0  0  0  0  0  0  0
   -4.3020   20.0370  -31.2020 C   0  0  0  0  0  0  0  0  0  0  0  0
   -3.2120   20.5070  -30.5550 N   0  0  0  0  0  0  0  0  0  0  0  0
   -2.2610   20.6640  -31.4920 C   0  0  0  0  0  0  0  0  0  0  0  0
   -0.9690   21.1500  -31.3060 C   0  0  0  0  0  0  0  0  0  0  0  0
   -0.1340   21.2460  -32.4340 C   0  0  0  0  0  0  0  0  0  0  0  0
   -0.6020   20.8500  -33.7060 C   0  0  0  0  0  0  0  0  0  0  0  0
   -1.9100   20.3600  -33.8630 C   0  0  0  0  0  0  0  0  0  0  0  0
   -2.7230   20.2920  -32.7310 C   0  0  0  0  0  0  0  0  0  0  0  0
   -7.4710   18.6260  -33.0470 C   0  0  0  0  0  0  0  0  0  0  0  0
   -7.3820   17.4420  -33.4660 O   0  0  0  0  0  0  0  0  0  0  0  0
   -8.6300   19.1600  -32.4170 N   0  0  0  0  0  0  0  0  0  0  0  0
   -5.0510   23.7970  -29.4820 N   0  0  0  0  0  0  0  0  0  0  0  0
   -3.7470   23.8950  -28.8880 C   0  0  0  0  0  0  0  0  0  0  0  0
   -3.5880   24.1120  -27.5090 C   0  0  0  0  0  0  0  0  0  0  0  0
   -2.3100   24.2570  -26.9610 C   0  0  0  0  0  0  0  0  0  0  0  0
   -1.1760   24.1840  -27.7790 C   0  0  0  0  0  0  0  0  0  0  0  0
    0.4390   24.3620  -27.0870 S   0  0  0  0  0  0  0  0  0  0  0  0
    0.7020   23.2290  -26.1360 O   0  0  0  0  0  0  0  0  0  0  0  0
    1.4530   24.2810  -28.1920 O   0  0  0  0  0  0  0  0  0  0  0  0
    0.6280   25.8690  -26.2170 N   0  0  0  0  0  0  0  0  0  0  0  0
    0.7180   25.6720  -24.7530 C   0  0  0  0  0  0  0  0  0  0  0  0
   -0.6470   25.6990  -24.0380 C   0  0  0  0  0  0  0  0  0  0  0  0
   -1.5940   26.8010  -24.5460 C   0  0  0  0  0  0  0  0  0  0  0  0
   -0.9210   27.7370  -25.5430 C   0  0  0  0  0  0  0  0  0  0  0  0
   -0.3120   26.9160  -26.6830 C   0  0  0  0  0  0  0  0  0  0  0  0
   -1.3330   23.9730  -29.1560 C   0  0  0  0  0  0  0  0  0  0  0  0
   -2.6110   23.8420  -29.7070 C   0  0  0  0  0  0  0  0  0  0  0  0
   -9.1719   23.3430  -30.7253 H   0  0  0  0  0  0  0  0  0  0  0  0
  -10.1110   21.0616  -31.1936 H   0  0  0  0  0  0  0  0  0  0  0  0
   -5.3937   22.1728  -32.5412 H   0  0  0  0  0  0  0  0  0  0  0  0
   -4.8476   18.4278  -33.8857 H   0  0  0  0  0  0  0  0  0  0  0  0
   -4.8880   20.1218  -34.4994 H   0  0  0  0  0  0  0  0  0  0  0  0
   -5.2642   19.8036  -30.7227 H   0  0  0  0  0  0  0  0  0  0  0  0
   -3.1320   20.7160  -29.5360 H   0  0  0  0  0  0  0  0  0  0  0  0
   -0.6130   21.4491  -30.3091 H   0  0  0  0  0  0  0  0  0  0  0  0
    0.8902   21.6321  -32.3244 H   0  0  0  0  0  0  0  0  0  0  0  0
    0.0616   20.9255  -34.5800 H   0  0  0  0  0  0  0  0  0  0  0  0
   -2.2812   20.0400  -34.8478 H   0  0  0  0  0  0  0  0  0  0  0  0
   -5.8020   23.3030  -28.9510 H   0  0  0  0  0  0  0  0  0  0  0  0
   -4.4727   24.1680  -26.8578 H   0  0  0  0  0  0  0  0  0  0  0  0
   -2.1947   24.4295  -25.8807 H   0  0  0  0  0  0  0  0  0  0  0  0
    1.1904   24.6971  -24.5624 H   0  0  0  0  0  0  0  0  0  0  0  0
    1.3070   26.5100  -24.3520 H   0  0  0  0  0  0  0  0  0  0  0  0
   -1.1362   24.7253  -24.1881 H   0  0  0  0  0  0  0  0  0  0  0  0
   -0.4483   25.9119  -22.9773 H   0  0  0  0  0  0  0  0  0  0  0  0
   -2.4570   26.3261  -25.0356 H   0  0  0  0  0  0  0  0  0  0  0  0
   -1.9012   27.4031  -23.6781 H   0  0  0  0  0  0  0  0  0  0  0  0
   -1.6666   28.4350  -25.9515 H   0  0  0  0  0  0  0  0  0  0  0  0
   -0.1272   28.3043  -25.0351 H   0  0  0  0  0  0  0  0  0  0  0  0
   -1.1283   26.4300  -27.2375 H   0  0  0  0  0  0  0  0  0  0  0  0
    0.2623   27.6111  -27.3131 H   0  0  0  0  0  0  0  0  0  0  0  0
   -0.4473   23.9103  -29.8053 H   0  0  0  0  0  0  0  0  0  0  0  0
   -2.7259   23.6963  -30.7912 H   0  0  0  0  0  0  0  0  0  0  0  0
  1  2  2  0
  2  3  1  0
  3  4  1  0
  4  5  1  0
  5  6  2  0
  6  7  1  0
  7  8  1  0
  8  9  1  0
  8 10  2  0
 10 11  1  0
 11 12  1  0
 12 13  2  0
 13 14  1  0
 14 15  1  0
 15 16  2  0
 16 17  1  0
 17 18  2  0
 18 19  1  0
 19 20  2  0
 10 21  1  0
 21 22  2  0
 21 23  1  0
  2 24  1  0
 24 25  1  0
 25 26  2  0
 26 27  1  0
 27 28  2  0
 28 29  1  0
 29 30  2  0
 29 31  2  0
 29 32  1  0
 32 33  1  0
 33 34  1  0
 34 35  1  0
 35 36  1  0
 36 37  1  0
 28 38  1  0
 38 39  2  0
  9  4  2  0
 20 12  1  0
 39 25  1  0
 23  7  2  0
 37 32  1  0
 20 15  1  0
  5 40  1  0
  6 41  1  0
  9 42  1  0
 11 43  1  0
 11 44  1  0
 13 45  1  0
 14 46  1  0
 16 47  1  0
 17 48  1  0
 18 49  1  0
 19 50  1  0
 24 51  1  0
 26 52  1  0
 27 53  1  0
 33 54  1  0
 33 55  1  0
 34 56  1  0
 34 57  1  0
 35 58  1  0
 35 59  1  0
 36 60  1  0
 36 61  1  0
 37 62  1  0
 37 63  1  0
 38 64  1  0
 39 65  1  0
M  CHG  1   3  -1
M  END
>  <UniqueID>  (29) 
29

>  <SMILES>  (29) 
O=C([N-]c1ccc2c(c1)=C(Cc1c[nH]c3ccccc13)C(=O)N=2)Nc1ccc(S(=O)(=O)N2CCCCC2)cc1

>  <Energy>  (29) 
146.15803535273798

>  <Genealogy>  (29) 
O=C([N-]c1ccc2c(c1)=C(Cc1c[nH]c3ccccc13)C(=O)N=2)Nc1ccc(S(=O)(=O)N2CCCCC2)cc1 (protonated)
O=C([N-]c1ccc2c(c1)=C(Cc1c[nH]c3ccccc13)C(=O)N=2)Nc1ccc(S(=O)(=O)N2CCCCC2)cc1 (3D coordinates assigned)
O=C([N-]c1ccc2c(c1)=C(Cc1c[nH]c3ccccc13)C(=O)N=2)Nc1ccc(S(=O)(=O)N2CCCCC2)cc1 (nonaromatic ring conformer: 146.15803535273798 kcal/mol)

>  <smiles>  (29) 
O=C(Nc1ccc(S(=O)(=O)N2CCCCC2)cc1)Nc1ccc2c(c1)=C(Cc1c[nH]c3ccccc13)C(=O)N=2

>  <score_type>  (29) 
oracle

>  <origin>  (29) 
adgpu

>  <m_score__min__energy>  (29) 
-13.699999999999999

>  <m_primary>  (29) 
energy

$$$$
29:0
     RDKit          3D

 39 41  0  0  0  0  0  0  0  0999 V2000
   -0.1340   19.1160  -27.8620 C   0  0  0  0  0  0  0  0  0  0  0  0
    0.3510   20.4330  -28.1030 O   0  0  0  0  0  0  0  0  0  0  0  0
   -0.4560   21.5200  -28.4740 C   0  0  0  0  0  0  0  0  0  0  0  0
   -1.7040   21.3520  -29.0980 C   0  0  0  0  0  0  0  0  0  0  0  0
   -2.4710   22.4650  -29.4490 C   0  0  0  0  0  0  0  0  0  0  0  0
   -1.9930   23.7620  -29.2100 C   0  0  0  0  0  0  0  0  0  0  0  0
   -2.7820   24.9150  -29.5390 N   0  0  0  0  0  0  0  0  0  0  0  0
   -4.1340   24.9190  -30.0150 C   0  0  0  0  0  0  0  0  0  0  0  0
   -4.3570   25.2680  -31.2040 O   0  0  0  0  0  0  0  0  0  0  0  0
   -5.2790   24.4070  -29.1840 C   0  0  0  0  0  0  0  0  0  0  0  0
   -6.8680   24.7540  -30.0070 S   0  0  0  0  0  0  0  0  0  0  0  0
   -6.8740   23.2240  -30.9440 C   0  0  0  0  0  0  0  0  0  0  0  0
   -7.9890   22.4360  -30.9360 N   0  0  0  0  0  0  0  0  0  0  0  0
   -7.9920   21.2760  -31.6380 C   0  0  0  0  0  0  0  0  0  0  0  0
   -9.0560   20.3740  -31.7020 C   0  0  0  0  0  0  0  0  0  0  0  0
   -8.7590   19.2610  -32.4890 C   0  0  0  0  0  0  0  0  0  0  0  0
   -7.1840   19.4110  -33.1000 S   0  0  0  0  0  0  0  0  0  0  0  0
   -6.8850   20.8890  -32.3590 C   0  0  0  0  0  0  0  0  0  0  0  0
   -5.7490   21.6890  -32.3750 C   0  0  0  0  0  0  0  0  0  0  0  0
   -4.7280   21.3520  -33.0300 O   0  0  0  0  0  0  0  0  0  0  0  0
   -5.7640   22.8500  -31.6560 N   0  0  0  0  0  0  0  0  0  0  0  0
   -0.7660   23.9410  -28.5490 C   0  0  0  0  0  0  0  0  0  0  0  0
   -0.3450   25.2470  -28.2550 O   0  0  0  0  0  0  0  0  0  0  0  0
   -0.8060   26.0100  -27.1460 C   0  0  0  0  0  0  0  0  0  0  0  0
    0.0020   22.8130  -28.1990 C   0  0  0  0  0  0  0  0  0  0  0  0
   -0.1982   18.9416  -26.7778 H   0  0  0  0  0  0  0  0  0  0  0  0
   -1.1320   19.0049  -28.3110 H   0  0  0  0  0  0  0  0  0  0  0  0
    0.5536   18.3842  -28.3110 H   0  0  0  0  0  0  0  0  0  0  0  0
   -2.0782   20.3397  -29.3108 H   0  0  0  0  0  0  0  0  0  0  0  0
   -3.4568   22.3237  -29.9161 H   0  0  0  0  0  0  0  0  0  0  0  0
   -5.1709   23.3208  -29.0484 H   0  0  0  0  0  0  0  0  0  0  0  0
   -5.2652   24.9135  -28.2077 H   0  0  0  0  0  0  0  0  0  0  0  0
  -10.0182   20.5238  -31.1905 H   0  0  0  0  0  0  0  0  0  0  0  0
   -9.4393   18.4186  -32.6828 H   0  0  0  0  0  0  0  0  0  0  0  0
   -4.9190   23.4640  -31.6530 H   0  0  0  0  0  0  0  0  0  0  0  0
   -0.5068   25.5148  -26.2105 H   0  0  0  0  0  0  0  0  0  0  0  0
   -0.3651   27.0170  -27.1851 H   0  0  0  0  0  0  0  0  0  0  0  0
   -1.9025   26.0881  -27.1851 H   0  0  0  0  0  0  0  0  0  0  0  0
    0.9742   22.9507  -27.7031 H   0  0  0  0  0  0  0  0  0  0  0  0
  1  2  1  0
  2  3  1  0
  3  4  2  0
  4  5  1  0
  5  6  2  0
  6  7  1  0
  7  8  1  0
  8  9  2  0
  8 10  1  0
 10 11  1  0
 11 12  1  0
 12 13  2  0
 13 14  1  0
 14 15  1  0
 15 16  2  0
 16 17  1  0
 17 18  1  0
 18 19  1  0
 19 20  2  0
 19 21  1  0
  6 22  1  0
 22 23  1  0
 23 24  1  0
 22 25  2  0
 25  3  1  0
 21 12  1  0
 18 14  2  0
  1 26  1  0
  1 27  1  0
  1 28  1  0
  4 29  1  0
  5 30  1  0
 10 31  1  0
 10 32  1  0
 15 33  1  0
 16 34  1  0
 21 35  1  0
 24 36  1  0
 24 37  1  0
 24 38  1  0
 25 39  1  0
M  CHG  1   7  -1
M  END
>  <UniqueID>  (30) 
30

>  <SMILES>  (30) 
COc1ccc([N-]C(=O)CSc2nc3ccsc3c(=O)[nH]2)c(OC)c1

>  <Energy>  (30) 
69.97410024204655

>  <Genealogy>  (30) 
COc1ccc([N-]C(=O)CSc2nc3ccsc3c(=O)[nH]2)c(OC)c1 (protonated)
COc1ccc([N-]C(=O)CSc2nc3ccsc3c(=O)[nH]2)c(OC)c1 (3D coordinates assigned)
COc1ccc([N-]C(=O)CSc2nc3ccsc3c(=O)[nH]2)c(OC)c1 (optimized conformer: 69.97410024204655 kcal/mol)

>  <smiles>  (30) 
COc1ccc(NC(=O)CSc2nc3ccsc3c(=O)[nH]2)c(OC)c1

>  <score_type>  (30) 
oracle

>  <origin>  (30) 
adgpu

>  <m_score__min__energy>  (30) 
-10.460000000000001

>  <m_primary>  (30) 
energy

$$$$
30:0
     RDKit          3D

 47 49  0  0  0  0  0  0  0  0999 V2000
   -2.2310   19.6250  -27.7740 O   0  0  0  0  0  0  0  0  0  0  0  0
   -1.4490   20.5050  -28.2250 C   0  0  0  0  0  0  0  0  0  0  0  0
   -0.0400   20.2410  -28.2100 N   0  0  0  0  0  0  0  0  0  0  0  0
    0.5880   18.9760  -28.4690 C   0  0  0  0  0  0  0  0  0  0  0  0
    1.5450   18.9020  -29.4900 C   0  0  0  0  0  0  0  0  0  0  0  0
    2.1870   17.6930  -29.7720 C   0  0  0  0  0  0  0  0  0  0  0  0
    1.8670   16.5440  -29.0460 C   0  0  0  0  0  0  0  0  0  0  0  0
    0.8910   16.5990  -28.0480 C   0  0  0  0  0  0  0  0  0  0  0  0
    0.2350   17.8050  -27.7630 C   0  0  0  0  0  0  0  0  0  0  0  0
   -0.7760   17.8330  -26.8040 O   0  0  0  0  0  0  0  0  0  0  0  0
   -2.0100   21.7530  -28.7950 C   0  0  0  0  0  0  0  0  0  0  0  0
   -1.5490   23.0110  -28.3710 C   0  0  0  0  0  0  0  0  0  0  0  0
   -2.0860   24.1800  -28.9130 C   0  0  0  0  0  0  0  0  0  0  0  0
   -3.0810   24.1110  -29.8910 C   0  0  0  0  0  0  0  0  0  0  0  0
   -3.6000   25.2880  -30.4190 O   0  0  0  0  0  0  0  0  0  0  0  0
   -3.5440   22.8620  -30.3360 C   0  0  0  0  0  0  0  0  0  0  0  0
   -4.7880   22.7700  -31.5850 S   0  0  0  0  0  0  0  0  0  0  0  0
   -4.1720   22.1710  -32.8200 O   0  0  0  0  0  0  0  0  0  0  0  0
   -5.2960   24.1450  -31.9190 O   0  0  0  0  0  0  0  0  0  0  0  0
   -6.1110   21.7680  -31.0280 N   0  0  0  0  0  0  0  0  0  0  0  0
   -6.3840   20.7150  -32.0260 C   0  0  0  0  0  0  0  0  0  0  0  0
   -7.5560   19.7990  -31.6310 C   0  0  0  0  0  0  0  0  0  0  0  0
   -8.9400   20.2030  -32.1830 C   0  0  0  0  0  0  0  0  0  0  0  0
   -9.4490   21.5700  -31.7000 C   0  0  0  0  0  0  0  0  0  0  0  0
   -8.3970   22.7100  -31.6970 C   0  0  0  0  0  0  0  0  0  0  0  0
   -7.2760   22.6020  -30.6380 C   0  0  0  0  0  0  0  0  0  0  0  0
   -3.0010   21.6890  -29.7910 C   0  0  0  0  0  0  0  0  0  0  0  0
    1.7925   19.8012  -30.0732 H   0  0  0  0  0  0  0  0  0  0  0  0
    2.9456   17.6466  -30.5672 H   0  0  0  0  0  0  0  0  0  0  0  0
    2.3830   15.5963  -29.2597 H   0  0  0  0  0  0  0  0  0  0  0  0
    0.6356   15.6908  -27.4824 H   0  0  0  0  0  0  0  0  0  0  0  0
   -1.4140   18.6160  -26.7260 H   0  0  0  0  0  0  0  0  0  0  0  0
   -0.7600   23.0749  -27.6072 H   0  0  0  0  0  0  0  0  0  0  0  0
   -1.7240   25.1599  -28.5684 H   0  0  0  0  0  0  0  0  0  0  0  0
   -6.6235   21.1959  -32.9859 H   0  0  0  0  0  0  0  0  0  0  0  0
   -5.4842   20.0859  -32.0940 H   0  0  0  0  0  0  0  0  0  0  0  0
   -7.3301   18.7859  -31.9950 H   0  0  0  0  0  0  0  0  0  0  0  0
   -7.6376   19.8733  -30.5365 H   0  0  0  0  0  0  0  0  0  0  0  0
   -8.8769   20.2291  -33.2809 H   0  0  0  0  0  0  0  0  0  0  0  0
   -9.6545   19.4551  -31.8087 H   0  0  0  0  0  0  0  0  0  0  0  0
  -10.2774   21.8747  -32.3565 H   0  0  0  0  0  0  0  0  0  0  0  0
   -9.7451   21.4288  -30.6500 H   0  0  0  0  0  0  0  0  0  0  0  0
   -7.9211   22.7300  -32.6885 H   0  0  0  0  0  0  0  0  0  0  0  0
   -8.9542   23.6239  -31.4434 H   0  0  0  0  0  0  0  0  0  0  0  0
   -6.9106   23.6176  -30.4255 H   0  0  0  0  0  0  0  0  0  0  0  0
   -7.7278   22.1042  -29.7674 H   0  0  0  0  0  0  0  0  0  0  0  0
   -3.3537   20.7095  -30.1461 H   0  0  0  0  0  0  0  0  0  0  0  0
  1  2  2  0
  2  3  1  0
  3  4  1  0
  4  5  2  0
  5  6  1  0
  6  7  2  0
  7  8  1  0
  8  9  2  0
  9 10  1  0
  2 11  1  0
 11 12  2  0
 12 13  1  0
 13 14  2  0
 14 15  1  0
 14 16  1  0
 16 17  1  0
 17 18  2  0
 17 19  2  0
 17 20  1  0
 20 21  1  0
 21 22  1  0
 22 23  1  0
 23 24  1  0
 24 25  1  0
 25 26  1  0
 16 27  2  0
  9  4  1  0
 27 11  1  0
 26 20  1  0
  5 28  1  0
  6 29  1  0
  7 30  1  0
  8 31  1  0
 10 32  1  0
 12 33  1  0
 13 34  1  0
 21 35  1  0
 21 36  1  0
 22 37  1  0
 22 38  1  0
 23 39  1  0
 23 40  1  0
 24 41  1  0
 24 42  1  0
 25 43  1  0
 25 44  1  0
 26 45  1  0
 26 46  1  0
 27 47  1  0
M  CHG  2   3  -1  15  -1
M  END
>  <UniqueID>  (31) 
31

>  <SMILES>  (31) 
O=C([N-]c1ccccc1O)c1ccc([O-])c(S(=O)(=O)N2CCCCCC2)c1

>  <Energy>  (31) 
69.83737976711545

>  <Genealogy>  (31) 
O=C([N-]c1ccccc1O)c1ccc([O-])c(S(=O)(=O)N2CCCCCC2)c1 (protonated)
O=C([N-]c1ccccc1O)c1ccc([O-])c(S(=O)(=O)N2CCCCCC2)c1 (3D coordinates assigned)
O=C([N-]c1ccccc1O)c1ccc([O-])c(S(=O)(=O)N2CCCCCC2)c1 (nonaromatic ring conformer: 69.83737976711545 kcal/mol)

>  <smiles>  (31) 
O=C(Nc1ccccc1O)c1ccc(O)c(S(=O)(=O)N2CCCCCC2)c1

>  <score_type>  (31) 
oracle

>  <origin>  (31) 
adgpu

>  <m_score__min__energy>  (31) 
-9.3300000000000001

>  <m_primary>  (31) 
energy

$$$$
31:0
     RDKit          3D

 47 50  0  0  0  0  0  0  0  0999 V2000
   -7.7250   24.8040  -30.4700 O   0  0  0  0  0  0  0  0  0  0  0  0
   -6.8400   24.2370  -31.1630 C   0  0  0  0  0  0  0  0  0  0  0  0
   -7.2490   23.4460  -32.2870 N   0  0  0  0  0  0  0  0  0  0  0  0
   -7.5720   22.0480  -32.2810 C   0  0  0  0  0  0  0  0  0  0  0  0
   -8.7500   21.6300  -31.6490 C   0  0  0  0  0  0  0  0  0  0  0  0
   -9.0880   20.2740  -31.6140 C   0  0  0  0  0  0  0  0  0  0  0  0
   -8.2560   19.3290  -32.2180 C   0  0  0  0  0  0  0  0  0  0  0  0
   -7.0900   19.7370  -32.8780 C   0  0  0  0  0  0  0  0  0  0  0  0
   -6.0320   18.5280  -33.6000 S   0  0  0  0  0  0  0  0  0  0  0  0
   -5.7710   18.8630  -35.0430 O   0  0  0  0  0  0  0  0  0  0  0  0
   -6.7180   17.1920  -33.5310 O   0  0  0  0  0  0  0  0  0  0  0  0
   -4.5250   18.4700  -32.7100 N   0  0  0  0  0  0  0  0  0  0  0  0
   -4.3570   19.6820  -31.9010 C   0  0  0  0  0  0  0  0  0  0  0  0
   -3.5360   20.6800  -32.7050 C   0  0  0  0  0  0  0  0  0  0  0  0
   -2.9320   19.8890  -33.8480 C   0  0  0  0  0  0  0  0  0  0  0  0
   -3.3860   18.4530  -33.6330 C   0  0  0  0  0  0  0  0  0  0  0  0
   -6.7600   21.0990  -32.9260 C   0  0  0  0  0  0  0  0  0  0  0  0
   -5.4280   24.3570  -30.7500 C   0  0  0  0  0  0  0  0  0  0  0  0
   -4.6570   23.3950  -30.1280 C   0  0  0  0  0  0  0  0  0  0  0  0
   -3.4310   24.0090  -29.9500 C   0  0  0  0  0  0  0  0  0  0  0  0
   -2.2420   23.4110  -29.2930 C   0  0  0  0  0  0  0  0  0  0  0  0
   -2.2180   22.0220  -29.0640 C   0  0  0  0  0  0  0  0  0  0  0  0
   -1.1450   21.4260  -28.3980 C   0  0  0  0  0  0  0  0  0  0  0  0
   -0.0830   22.2060  -27.9460 C   0  0  0  0  0  0  0  0  0  0  0  0
   -0.0820   23.5830  -28.1730 C   0  0  0  0  0  0  0  0  0  0  0  0
   -1.1380   24.1930  -28.8620 C   0  0  0  0  0  0  0  0  0  0  0  0
   -1.0290   25.5590  -29.1300 O   0  0  0  0  0  0  0  0  0  0  0  0
   -3.4970   25.2750  -30.4050 N   0  0  0  0  0  0  0  0  0  0  0  0
   -4.7090   25.4860  -30.8930 N   0  0  0  0  0  0  0  0  0  0  0  0
   -9.4119   22.3718  -31.1783 H   0  0  0  0  0  0  0  0  0  0  0  0
  -10.0108   19.9509  -31.1099 H   0  0  0  0  0  0  0  0  0  0  0  0
   -8.5171   18.2613  -32.1753 H   0  0  0  0  0  0  0  0  0  0  0  0
   -5.3416   20.1128  -31.6667 H   0  0  0  0  0  0  0  0  0  0  0  0
   -3.8452   19.4413  -30.9575 H   0  0  0  0  0  0  0  0  0  0  0  0
   -4.1806   21.4826  -33.0927 H   0  0  0  0  0  0  0  0  0  0  0  0
   -2.7607   21.1578  -32.0881 H   0  0  0  0  0  0  0  0  0  0  0  0
   -3.2986   20.2676  -34.8135 H   0  0  0  0  0  0  0  0  0  0  0  0
   -1.8353   19.9718  -33.8669 H   0  0  0  0  0  0  0  0  0  0  0  0
   -3.6903   18.0102  -34.5929 H   0  0  0  0  0  0  0  0  0  0  0  0
   -2.5651   17.8518  -33.2151 H   0  0  0  0  0  0  0  0  0  0  0  0
   -5.8620   21.4262  -33.4706 H   0  0  0  0  0  0  0  0  0  0  0  0
   -4.9507   22.3747  -29.8403 H   0  0  0  0  0  0  0  0  0  0  0  0
   -3.0543   21.3989  -29.4138 H   0  0  0  0  0  0  0  0  0  0  0  0
   -1.1384   20.3389  -28.2300 H   0  0  0  0  0  0  0  0  0  0  0  0
    0.7550   21.7365  -27.4100 H   0  0  0  0  0  0  0  0  0  0  0  0
    0.7558   24.1949  -27.8075 H   0  0  0  0  0  0  0  0  0  0  0  0
   -1.6340   26.0530  -29.7710 H   0  0  0  0  0  0  0  0  0  0  0  0
  1  2  2  0
  2  3  1  0
  3  4  1  0
  4  5  2  0
  5  6  1  0
  6  7  2  0
  7  8  1  0
  8  9  1  0
  9 10  2  0
  9 11  2  0
  9 12  1  0
 12 13  1  0
 13 14  1  0
 14 15  1  0
 15 16  1  0
  8 17  2  0
  2 18  1  0
 18 19  1  0
 19 20  2  0
 20 21  1  0
 21 22  2  0
 22 23  1  0
 23 24  2  0
 24 25  1  0
 25 26  2  0
 26 27  1  0
 20 28  1  0
 28 29  1  0
 17  4  1  0
 29 18  2  0
 16 12  1  0
 26 21  1  0
  5 30  1  0
  6 31  1  0
  7 32  1  0
 13 33  1  0
 13 34  1  0
 14 35  1  0
 14 36  1  0
 15 37  1  0
 15 38  1  0
 16 39  1  0
 16 40  1  0
 17 41  1  0
 19 42  1  0
 22 43  1  0
 23 44  1  0
 24 45  1  0
 25 46  1  0
 27 47  1  0
M  CHG  2   3  -1  28  -1
M  END
>  <UniqueID>  (32) 
32

>  <SMILES>  (32) 
O=C([N-]c1cccc(S(=O)(=O)N2CCCC2)c1)c1cc(-c2ccccc2O)[n-]n1

>  <Energy>  (32) 
87.07835994519402

>  <Genealogy>  (32) 
O=C([N-]c1cccc(S(=O)(=O)N2CCCC2)c1)c1cc(-c2ccccc2O)[n-]n1 (protonated)
O=C([N-]c1cccc(S(=O)(=O)N2CCCC2)c1)c1cc(-c2ccccc2O)[n-]n1 (3D coordinates assigned)
O=C([N-]c1cccc(S(=O)(=O)N2CCCC2)c1)c1cc(-c2ccccc2O)[n-]n1 (nonaromatic ring conformer: 87.07835994519402 kcal/mol)

>  <smiles>  (32) 
O=C(Nc1cccc(S(=O)(=O)N2CCCC2)c1)c1cc(-c2ccccc2O)[nH]n1

>  <score_type>  (32) 
oracle

>  <origin>  (32) 
adgpu

>  <m_score__min__energy>  (32) 
-13.09

>  <m_primary>  (32) 
energy

$$$$
32:0
     RDKit          3D

 49 52  0  0  0  0  0  0  0  0999 V2000
   -0.4750   19.0510  -29.1450 C   0  0  0  0  0  0  0  0  0  0  0  0
   -0.1920   19.6440  -27.8250 N   0  0  0  0  0  0  0  0  0  0  0  0
   -1.2290   19.3210  -26.8240 C   0  0  0  0  0  0  0  0  0  0  0  0
   -2.5970   19.9280  -27.1760 C   0  0  0  0  0  0  0  0  0  0  0  0
   -2.4870   21.3460  -27.6730 C   0  0  0  0  0  0  0  0  0  0  0  0
   -3.6570   22.0990  -27.8400 C   0  0  0  0  0  0  0  0  0  0  0  0
   -3.6150   23.3740  -28.4280 C   0  0  0  0  0  0  0  0  0  0  0  0
   -4.8250   24.0870  -28.7230 N   0  0  0  0  0  0  0  0  0  0  0  0
   -5.2860   24.5450  -30.3330 S   0  0  0  0  0  0  0  0  0  0  0  0
   -4.2780   25.5090  -30.8910 O   0  0  0  0  0  0  0  0  0  0  0  0
   -6.6360   25.2090  -30.2990 O   0  0  0  0  0  0  0  0  0  0  0  0
   -5.3180   23.1000  -31.3450 C   0  0  0  0  0  0  0  0  0  0  0  0
   -4.1180   22.6120  -31.8810 C   0  0  0  0  0  0  0  0  0  0  0  0
   -4.0930   21.3910  -32.5610 C   0  0  0  0  0  0  0  0  0  0  0  0
   -5.2670   20.6460  -32.7000 C   0  0  0  0  0  0  0  0  0  0  0  0
   -6.4810   21.1230  -32.1680 C   0  0  0  0  0  0  0  0  0  0  0  0
   -6.5010   22.3650  -31.5050 C   0  0  0  0  0  0  0  0  0  0  0  0
   -7.6600   20.2950  -32.2830 N   0  0  0  0  0  0  0  0  0  0  0  0
   -9.0050   20.8530  -32.1110 C   0  0  0  0  0  0  0  0  0  0  0  0
   -7.4830   18.8730  -32.6030 C   0  0  0  0  0  0  0  0  0  0  0  0
   -6.4320   18.7160  -33.7070 C   0  0  0  0  0  0  0  0  0  0  0  0
   -5.2350   19.4110  -33.3560 O   0  0  0  0  0  0  0  0  0  0  0  0
   -2.3730   23.9320  -28.7770 C   0  0  0  0  0  0  0  0  0  0  0  0
   -2.2810   25.2100  -29.3250 O   0  0  0  0  0  0  0  0  0  0  0  0
   -1.2010   23.1900  -28.5960 C   0  0  0  0  0  0  0  0  0  0  0  0
   -1.2520   21.8830  -28.0860 C   0  0  0  0  0  0  0  0  0  0  0  0
    0.0320   21.1030  -27.9090 C   0  0  0  0  0  0  0  0  0  0  0  0
   -0.9452   18.0656  -29.0111 H   0  0  0  0  0  0  0  0  0  0  0  0
   -1.1560   19.7093  -29.7043 H   0  0  0  0  0  0  0  0  0  0  0  0
    0.4651   18.9357  -29.7043 H   0  0  0  0  0  0  0  0  0  0  0  0
   -1.3332   18.2276  -26.7643 H   0  0  0  0  0  0  0  0  0  0  0  0
   -0.9105   19.7502  -25.8626 H   0  0  0  0  0  0  0  0  0  0  0  0
   -3.0642   19.3143  -27.9603 H   0  0  0  0  0  0  0  0  0  0  0  0
   -3.2036   19.9410  -26.2584 H   0  0  0  0  0  0  0  0  0  0  0  0
   -4.6206   21.6864  -27.5064 H   0  0  0  0  0  0  0  0  0  0  0  0
   -3.1911   23.1931  -31.7658 H   0  0  0  0  0  0  0  0  0  0  0  0
   -3.1500   21.0169  -32.9863 H   0  0  0  0  0  0  0  0  0  0  0  0
   -7.4489   22.7602  -31.1109 H   0  0  0  0  0  0  0  0  0  0  0  0
   -9.2290   20.9459  -31.0381 H   0  0  0  0  0  0  0  0  0  0  0  0
   -9.0534   21.8454  -32.5830 H   0  0  0  0  0  0  0  0  0  0  0  0
   -9.7417   20.1863  -32.5830 H   0  0  0  0  0  0  0  0  0  0  0  0
   -7.1504   18.3349  -31.7031 H   0  0  0  0  0  0  0  0  0  0  0  0
   -8.4401   18.4573  -32.9511 H   0  0  0  0  0  0  0  0  0  0  0  0
   -6.2049   17.6482  -33.8423 H   0  0  0  0  0  0  0  0  0  0  0  0
   -6.8296   19.1388  -34.6414 H   0  0  0  0  0  0  0  0  0  0  0  0
   -3.0720   25.6720  -29.7550 H   0  0  0  0  0  0  0  0  0  0  0  0
   -0.2293   23.6353  -28.8560 H   0  0  0  0  0  0  0  0  0  0  0  0
    0.6896   21.3090  -28.7664 H   0  0  0  0  0  0  0  0  0  0  0  0
    0.4868   21.4238  -26.9602 H   0  0  0  0  0  0  0  0  0  0  0  0
  1  2  1  0
  2  3  1  0
  3  4  1  0
  4  5  1  0
  5  6  2  0
  6  7  1  0
  7  8  1  0
  8  9  1  0
  9 10  2  0
  9 11  2  0
  9 12  1  0
 12 13  2  0
 13 14  1  0
 14 15  2  0
 15 16  1  0
 16 17  2  0
 16 18  1  0
 18 19  1  0
 18 20  1  0
 20 21  1  0
 21 22  1  0
  7 23  2  0
 23 24  1  0
 23 25  1  0
 25 26  2  0
 26 27  1  0
 27  2  1  0
 26  5  1  0
 17 12  1  0
 22 15  1  0
  1 28  1  0
  1 29  1  0
  1 30  1  0
  3 31  1  0
  3 32  1  0
  4 33  1  0
  4 34  1  0
  6 35  1  0
 13 36  1  0
 14 37  1  0
 17 38  1  0
 19 39  1  0
 19 40  1  0
 19 41  1  0
 20 42  1  0
 20 43  1  0
 21 44  1  0
 21 45  1  0
 24 46  1  0
 25 47  1  0
 27 48  1  0
 27 49  1  0
M  CHG  1   8  -1
M  END
>  <UniqueID>  (33) 
33

>  <SMILES>  (33) 
CN1CCc2cc([N-]S(=O)(=O)c3ccc4c(c3)N(C)CCO4)c(O)cc2C1

>  <Energy>  (33) 
60.94780970586951

>  <Genealogy>  (33) 
CN1CCc2cc([N-]S(=O)(=O)c3ccc4c(c3)N(C)CCO4)c(O)cc2C1 (protonated)
CN1CCc2cc([N-]S(=O)(=O)c3ccc4c(c3)N(C)CCO4)c(O)cc2C1 (3D coordinates assigned)
CN1CCc2cc([N-]S(=O)(=O)c3ccc4c(c3)N(C)CCO4)c(O)cc2C1 (nonaromatic ring conformer: 60.94780970586951 kcal/mol)

>  <smiles>  (33) 
CN1CCc2cc(NS(=O)(=O)c3ccc4c(c3)N(C)CCO4)c(O)cc2C1

>  <score_type>  (33) 
oracle

>  <origin>  (33) 
adgpu

>  <m_score__min__energy>  (33) 
-12.039999999999999

>  <m_primary>  (33) 
energy

$$$$
33:0
     RDKit          3D

 54 56  0  0  0  0  0  0  0  0999 V2000
   -9.2200   18.3060  -31.9380 C   0  0  0  0  0  0  0  0  0  0  0  0
   -8.6800   19.6040  -32.4540 C   0  0  0  0  0  0  0  0  0  0  0  0
   -9.4920   20.5150  -32.7810 O   0  0  0  0  0  0  0  0  0  0  0  0
   -7.2620   19.8640  -32.5030 N   0  0  0  0  0  0  0  0  0  0  0  0
   -6.4710   19.0320  -33.4290 C   0  0  0  0  0  0  0  0  0  0  0  0
   -4.9690   19.3340  -33.3650 C   0  0  0  0  0  0  0  0  0  0  0  0
   -4.7220   20.8400  -33.4450 C   0  0  0  0  0  0  0  0  0  0  0  0
   -5.4370   21.5320  -32.3170 C   0  0  0  0  0  0  0  0  0  0  0  0
   -4.8750   22.6700  -31.7220 C   0  0  0  0  0  0  0  0  0  0  0  0
   -5.5160   23.2970  -30.6460 C   0  0  0  0  0  0  0  0  0  0  0  0
   -4.7760   24.6900  -29.8650 S   0  0  0  0  0  0  0  0  0  0  0  0
   -5.7740   25.3530  -28.9510 O   0  0  0  0  0  0  0  0  0  0  0  0
   -4.3520   25.6690  -30.9240 O   0  0  0  0  0  0  0  0  0  0  0  0
   -3.3800   24.1980  -28.9540 N   0  0  0  0  0  0  0  0  0  0  0  0
   -3.1810   22.7530  -29.0820 C   0  0  0  0  0  0  0  0  0  0  0  0
   -3.2920   22.0730  -27.7130 C   0  0  0  0  0  0  0  0  0  0  0  0
   -1.7010   21.3190  -27.2140 S   0  0  0  0  0  0  0  0  0  0  0  0
   -0.6200   22.7010  -27.7280 C   0  0  0  0  0  0  0  0  0  0  0  0
   -0.6780   23.7970  -26.6990 C   0  0  0  0  0  0  0  0  0  0  0  0
   -1.0010   25.1100  -27.0860 C   0  0  0  0  0  0  0  0  0  0  0  0
   -1.0880   26.1260  -26.1320 C   0  0  0  0  0  0  0  0  0  0  0  0
   -0.8590   25.8480  -24.7760 C   0  0  0  0  0  0  0  0  0  0  0  0
   -0.9190   26.9520  -23.7620 C   0  0  0  0  0  0  0  0  0  0  0  0
   -0.5020   24.5460  -24.3930 C   0  0  0  0  0  0  0  0  0  0  0  0
   -0.4170   23.5270  -25.3450 C   0  0  0  0  0  0  0  0  0  0  0  0
   -6.7160   22.7710  -30.1580 C   0  0  0  0  0  0  0  0  0  0  0  0
   -7.2880   21.6440  -30.7500 C   0  0  0  0  0  0  0  0  0  0  0  0
   -6.6780   21.0320  -31.8650 C   0  0  0  0  0  0  0  0  0  0  0  0
   -9.2150   18.3181  -30.8381 H   0  0  0  0  0  0  0  0  0  0  0  0
  -10.2501   18.1682  -32.2985 H   0  0  0  0  0  0  0  0  0  0  0  0
   -8.5916   17.4782  -32.2985 H   0  0  0  0  0  0  0  0  0  0  0  0
   -6.6279   17.9740  -33.1720 H   0  0  0  0  0  0  0  0  0  0  0  0
   -6.8109   19.2590  -34.4503 H   0  0  0  0  0  0  0  0  0  0  0  0
   -4.5627   18.9504  -32.4175 H   0  0  0  0  0  0  0  0  0  0  0  0
   -4.4714   18.8462  -34.2162 H   0  0  0  0  0  0  0  0  0  0  0  0
   -3.6426   21.0379  -33.3697 H   0  0  0  0  0  0  0  0  0  0  0  0
   -5.1015   21.2208  -34.4047 H   0  0  0  0  0  0  0  0  0  0  0  0
   -3.9248   23.0730  -32.1024 H   0  0  0  0  0  0  0  0  0  0  0  0
   -3.5860   24.4050  -27.9500 H   0  0  0  0  0  0  0  0  0  0  0  0
   -3.9473   22.3401  -29.7546 H   0  0  0  0  0  0  0  0  0  0  0  0
   -2.1772   22.5668  -29.4916 H   0  0  0  0  0  0  0  0  0  0  0  0
   -3.5839   22.8229  -26.9631 H   0  0  0  0  0  0  0  0  0  0  0  0
   -4.0474   21.2763  -27.7813 H   0  0  0  0  0  0  0  0  0  0  0  0
    0.4152   22.3409  -27.8212 H   0  0  0  0  0  0  0  0  0  0  0  0
   -0.9628   23.0917  -28.6975 H   0  0  0  0  0  0  0  0  0  0  0  0
   -1.1861   25.3379  -28.1461 H   0  0  0  0  0  0  0  0  0  0  0  0
   -1.3376   27.1504  -26.4455 H   0  0  0  0  0  0  0  0  0  0  0  0
   -0.8956   26.5219  -22.7498 H   0  0  0  0  0  0  0  0  0  0  0  0
   -0.0559   27.6205  -23.8963 H   0  0  0  0  0  0  0  0  0  0  0  0
   -1.8495   27.5231  -23.8963 H   0  0  0  0  0  0  0  0  0  0  0  0
   -0.2878   24.3264  -23.3367 H   0  0  0  0  0  0  0  0  0  0  0  0
   -0.1443   22.5080  -25.0329 H   0  0  0  0  0  0  0  0  0  0  0  0
   -7.2130   23.2490  -29.3010 H   0  0  0  0  0  0  0  0  0  0  0  0
   -8.2224   21.2295  -30.3437 H   0  0  0  0  0  0  0  0  0  0  0  0
  1  2  1  0
  2  3  2  0
  2  4  1  0
  4  5  1  0
  5  6  1  0
  6  7  1  0
  7  8  1  0
  8  9  2  0
  9 10  1  0
 10 11  1  0
 11 12  2  0
 11 13  2  0
 11 14  1  0
 14 15  1  0
 15 16  1  0
 16 17  1  0
 17 18  1  0
 18 19  1  0
 19 20  2  0
 20 21  1  0
 21 22  2  0
 22 23  1  0
 22 24  1  0
 24 25  2  0
 10 26  2  0
 26 27  1  0
 27 28  2  0
 28  4  1  0
 28  8  1  0
 25 19  1  0
  1 29  1  0
  1 30  1  0
  1 31  1  0
  5 32  1  0
  5 33  1  0
  6 34  1  0
  6 35  1  0
  7 36  1  0
  7 37  1  0
  9 38  1  0
 14 39  1  0
 15 40  1  0
 15 41  1  0
 16 42  1  0
 16 43  1  0
 18 44  1  0
 18 45  1  0
 20 46  1  0
 21 47  1  0
 23 48  1  0
 23 49  1  0
 23 50  1  0
 24 51  1  0
 25 52  1  0
 26 53  1  0
 27 54  1  0
M  END
>  <UniqueID>  (34) 
34

>  <SMILES>  (34) 
CC(=O)N1CCCc2cc(S(=O)(=O)NCCSCc3ccc(C)cc3)ccc21

>  <Energy>  (34) 
51.6290275656775

>  <Genealogy>  (34) 
CC(=O)N1CCCc2cc(S(=O)(=O)NCCSCc3ccc(C)cc3)ccc21 (3D coordinates assigned)
CC(=O)N1CCCc2cc(S(=O)(=O)NCCSCc3ccc(C)cc3)ccc21 (nonaromatic ring conformer: 51.6290275656775 kcal/mol)

>  <smiles>  (34) 
CC(=O)N1CCCc2cc(S(=O)(=O)NCCSCc3ccc(C)cc3)ccc21

>  <score_type>  (34) 
oracle

>  <origin>  (34) 
adgpu

>  <m_score__min__energy>  (34) 
-10.949999999999999

>  <m_primary>  (34) 
energy

$$$$
34:0
     RDKit          3D

 64 67  0  0  0  0  0  0  0  0999 V2000
   -4.1970   21.7640  -33.1180 C   0  0  0  0  0  0  0  0  0  0  0  0
   -4.4910   22.6670  -31.9650 C   0  0  0  0  0  0  0  0  0  0  0  0
   -3.5460   23.1220  -31.1180 N   0  0  0  0  0  0  0  0  0  0  0  0
   -4.1460   23.8840  -30.2150 N   0  0  0  0  0  0  0  0  0  0  0  0
   -3.4330   24.5740  -29.1470 C   0  0  0  0  0  0  0  0  0  0  0  0
   -5.4750   23.9170  -30.4480 C   0  0  0  0  0  0  0  0  0  0  0  0
   -6.4530   24.7840  -29.7180 C   0  0  0  0  0  0  0  0  0  0  0  0
   -5.7230   23.1650  -31.5800 C   0  0  0  0  0  0  0  0  0  0  0  0
   -6.9780   23.0220  -32.2540 N   0  0  0  0  0  0  0  0  0  0  0  0
   -8.1270   21.8340  -31.7360 S   0  0  0  0  0  0  0  0  0  0  0  0
   -9.4670   22.1270  -32.3520 O   0  0  0  0  0  0  0  0  0  0  0  0
   -8.2640   21.8810  -30.2390 O   0  0  0  0  0  0  0  0  0  0  0  0
   -7.5910   20.2400  -32.2650 C   0  0  0  0  0  0  0  0  0  0  0  0
   -6.8440   20.0910  -33.4450 C   0  0  0  0  0  0  0  0  0  0  0  0
   -6.4770   18.8160  -33.8880 C   0  0  0  0  0  0  0  0  0  0  0  0
   -6.8340   17.6870  -33.1460 C   0  0  0  0  0  0  0  0  0  0  0  0
   -6.4320   16.4180  -33.5710 O   0  0  0  0  0  0  0  0  0  0  0  0
   -5.1640   15.8790  -33.3060 C   0  0  0  0  0  0  0  0  0  0  0  0
   -4.0330   16.5800  -33.7400 C   0  0  0  0  0  0  0  0  0  0  0  0
   -2.7490   16.1050  -33.4510 C   0  0  0  0  0  0  0  0  0  0  0  0
   -2.5800   14.9200  -32.7220 C   0  0  0  0  0  0  0  0  0  0  0  0
   -0.9620   14.3380  -32.3260 S   0  0  0  0  0  0  0  0  0  0  0  0
   -1.0730   13.0040  -31.6400 O   0  0  0  0  0  0  0  0  0  0  0  0
   -0.1810   14.1400  -33.5960 O   0  0  0  0  0  0  0  0  0  0  0  0
   -0.1060   15.4530  -31.2910 N   0  0  0  0  0  0  0  0  0  0  0  0
    1.0390   14.7870  -30.6430 C   0  0  0  0  0  0  0  0  0  0  0  0
    2.0290   15.8040  -30.0250 C   0  0  0  0  0  0  0  0  0  0  0  0
    1.4250   17.1370  -29.8210 N   0  0  0  0  0  0  0  0  0  0  0  0
    0.4420   17.1320  -28.7210 C   0  0  0  0  0  0  0  0  0  0  0  0
    0.8700   17.7040  -31.0750 C   0  0  0  0  0  0  0  0  0  0  0  0
    0.3360   16.6310  -32.0460 C   0  0  0  0  0  0  0  0  0  0  0  0
   -3.7100   14.2060  -32.2990 C   0  0  0  0  0  0  0  0  0  0  0  0
   -4.9930   14.6780  -32.5900 C   0  0  0  0  0  0  0  0  0  0  0  0
   -7.5880   17.8330  -31.9730 C   0  0  0  0  0  0  0  0  0  0  0  0
   -7.9710   19.1040  -31.5380 C   0  0  0  0  0  0  0  0  0  0  0  0
   -3.8770   20.7812  -32.7417 H   0  0  0  0  0  0  0  0  0  0  0  0
   -5.1028   21.6449  -33.7307 H   0  0  0  0  0  0  0  0  0  0  0  0
   -3.3947   22.2010  -33.7307 H   0  0  0  0  0  0  0  0  0  0  0  0
   -3.7997   24.2192  -28.1725 H   0  0  0  0  0  0  0  0  0  0  0  0
   -2.3561   24.3663  -29.2313 H   0  0  0  0  0  0  0  0  0  0  0  0
   -3.6053   25.6572  -29.2313 H   0  0  0  0  0  0  0  0  0  0  0  0
   -6.3141   24.6609  -28.6338 H   0  0  0  0  0  0  0  0  0  0  0  0
   -6.2860   25.8362  -29.9919 H   0  0  0  0  0  0  0  0  0  0  0  0
   -7.4776   24.4920  -29.9919 H   0  0  0  0  0  0  0  0  0  0  0  0
   -7.0580   23.3630  -33.2370 H   0  0  0  0  0  0  0  0  0  0  0  0
   -6.5469   20.9790  -34.0221 H   0  0  0  0  0  0  0  0  0  0  0  0
   -5.9066   18.7019  -34.8216 H   0  0  0  0  0  0  0  0  0  0  0  0
   -4.1544   17.5113  -34.3126 H   0  0  0  0  0  0  0  0  0  0  0  0
   -1.8677   16.6645  -33.7978 H   0  0  0  0  0  0  0  0  0  0  0  0
    0.6624   14.1291  -29.8460 H   0  0  0  0  0  0  0  0  0  0  0  0
    1.5775   14.2135  -31.4118 H   0  0  0  0  0  0  0  0  0  0  0  0
    2.3676   15.4186  -29.0520 H   0  0  0  0  0  0  0  0  0  0  0  0
    2.8656   15.9229  -30.7293 H   0  0  0  0  0  0  0  0  0  0  0  0
    0.9710   17.1347  -27.7565 H   0  0  0  0  0  0  0  0  0  0  0  0
   -0.1935   18.0269  -28.7931 H   0  0  0  0  0  0  0  0  0  0  0  0
   -0.1844   16.2307  -28.7931 H   0  0  0  0  0  0  0  0  0  0  0  0
    0.0438   18.3824  -30.8157 H   0  0  0  0  0  0  0  0  0  0  0  0
    1.6909   18.2272  -31.5872 H   0  0  0  0  0  0  0  0  0  0  0  0
   -0.5129   17.0413  -32.6126 H   0  0  0  0  0  0  0  0  0  0  0  0
    1.1377   16.3378  -32.7398 H   0  0  0  0  0  0  0  0  0  0  0  0
   -3.5862   13.2696  -31.7352 H   0  0  0  0  0  0  0  0  0  0  0  0
   -5.8738   14.1087  -32.2582 H   0  0  0  0  0  0  0  0  0  0  0  0
   -7.8788   16.9443  -31.3937 H   0  0  0  0  0  0  0  0  0  0  0  0
   -8.5719   19.2132  -30.6232 H   0  0  0  0  0  0  0  0  0  0  0  0
  1  2  1  0
  2  3  2  0
  3  4  1  0
  4  5  1  0
  4  6  1  0
  6  7  1  0
  6  8  2  0
  8  9  1  0
  9 10  1  0
 10 11  2  0
 10 12  2  0
 10 13  1  0
 13 14  2  0
 14 15  1  0
 15 16  2  0
 16 17  1  0
 17 18  1  0
 18 19  2  0
 19 20  1  0
 20 21  2  0
 21 22  1  0
 22 23  2  0
 22 24  2  0
 22 25  1  0
 25 26  1  0
 26 27  1  0
 27 28  1  0
 28 29  1  0
 28 30  1  0
 30 31  1  0
 21 32  1  0
 32 33  2  0
 16 34  1  0
 34 35  2  0
  8  2  1  0
 35 13  1  0
 33 18  1  0
 31 25  1  0
  1 36  1  0
  1 37  1  0
  1 38  1  0
  5 39  1  0
  5 40  1  0
  5 41  1  0
  7 42  1  0
  7 43  1  0
  7 44  1  0
  9 45  1  0
 14 46  1  0
 15 47  1  0
 19 48  1  0
 20 49  1  0
 26 50  1  0
 26 51  1  0
 27 52  1  0
 27 53  1  0
 29 54  1  0
 29 55  1  0
 29 56  1  0
 30 57  1  0
 30 58  1  0
 31 59  1  0
 31 60  1  0
 32 61  1  0
 33 62  1  0
 34 63  1  0
 35 64  1  0
M  END
>  <UniqueID>  (35) 
35

>  <SMILES>  (35) 
Cc1nn(C)c(C)c1NS(=O)(=O)c1ccc(Oc2ccc(S(=O)(=O)N3CCN(C)CC3)cc2)cc1

>  <Energy>  (35) 
117.62019493325258

>  <Genealogy>  (35) 
Cc1nn(C)c(C)c1NS(=O)(=O)c1ccc(Oc2ccc(S(=O)(=O)N3CCN(C)CC3)cc2)cc1 (3D coordinates assigned)
Cc1nn(C)c(C)c1NS(=O)(=O)c1ccc(Oc2ccc(S(=O)(=O)N3CCN(C)CC3)cc2)cc1 (nonaromatic ring conformer: 117.62019493325258 kcal/mol)

>  <smiles>  (35) 
Cc1nn(C)c(C)c1NS(=O)(=O)c1ccc(Oc2ccc(S(=O)(=O)N3CCN(C)CC3)cc2)cc1

>  <score_type>  (35) 
oracle

>  <origin>  (35) 
adgpu

>  <m_score__min__energy>  (35) 
-11.06

>  <m_primary>  (35) 
energy

$$$$
35:0
     RDKit          3D

 53 56  0  0  0  0  0  0  0  0999 V2000
    1.5770   27.9320  -23.0990 C   0  0  0  0  0  0  0  0  0  0  0  0
    0.2040   27.2750  -23.0940 C   0  0  0  0  0  0  0  0  0  0  0  0
   -0.0490   26.5650  -24.3990 C   0  0  0  0  0  0  0  0  0  0  0  0
    1.0260   26.0650  -25.1540 C   0  0  0  0  0  0  0  0  0  0  0  0
    0.7860   25.3550  -26.3350 C   0  0  0  0  0  0  0  0  0  0  0  0
   -0.5300   25.1200  -26.7650 C   0  0  0  0  0  0  0  0  0  0  0  0
   -0.8280   24.1490  -28.2080 S   0  0  0  0  0  0  0  0  0  0  0  0
   -1.2240   22.7620  -27.7860 O   0  0  0  0  0  0  0  0  0  0  0  0
    0.4420   24.0550  -29.0080 O   0  0  0  0  0  0  0  0  0  0  0  0
   -2.0770   24.8100  -29.2230 N   0  0  0  0  0  0  0  0  0  0  0  0
   -3.0650   24.0400  -29.9190 C   0  0  0  0  0  0  0  0  0  0  0  0
   -3.0020   22.6400  -29.9660 C   0  0  0  0  0  0  0  0  0  0  0  0
   -3.9250   21.9110  -30.7290 C   0  0  0  0  0  0  0  0  0  0  0  0
   -4.9900   22.5730  -31.3640 C   0  0  0  0  0  0  0  0  0  0  0  0
   -5.0960   23.9680  -31.2500 C   0  0  0  0  0  0  0  0  0  0  0  0
   -4.1380   24.6980  -30.5370 C   0  0  0  0  0  0  0  0  0  0  0  0
   -4.2470   26.0820  -30.4600 O   0  0  0  0  0  0  0  0  0  0  0  0
   -5.9920   21.8190  -32.2090 C   0  0  0  0  0  0  0  0  0  0  0  0
   -5.7270   20.3000  -32.3040 C   0  0  0  0  0  0  0  0  0  0  0  0
   -4.3070   19.9320  -32.1370 N   0  0  0  0  0  0  0  0  0  0  0  0
   -3.4700   20.3390  -33.2860 C   0  0  0  0  0  0  0  0  0  0  0  0
   -2.0210   20.1810  -32.9420 C   0  0  0  0  0  0  0  0  0  0  0  0
   -1.1460   21.2810  -32.9640 C   0  0  0  0  0  0  0  0  0  0  0  0
    0.1860   21.1010  -32.5930 C   0  0  0  0  0  0  0  0  0  0  0  0
    0.6320   19.8350  -32.2020 C   0  0  0  0  0  0  0  0  0  0  0  0
   -0.2660   18.7630  -32.1950 C   0  0  0  0  0  0  0  0  0  0  0  0
   -1.5590   18.9580  -32.5570 N   0  0  0  0  0  0  0  0  0  0  0  0
   -3.7910   20.4180  -30.8450 C   0  0  0  0  0  0  0  0  0  0  0  0
   -1.6030   25.6210  -26.0150 C   0  0  0  0  0  0  0  0  0  0  0  0
   -1.3650   26.3340  -24.8360 C   0  0  0  0  0  0  0  0  0  0  0  0
    1.9108   28.0917  -22.0631 H   0  0  0  0  0  0  0  0  0  0  0  0
    2.2939   27.2794  -23.6187 H   0  0  0  0  0  0  0  0  0  0  0  0
    1.5185   28.8997  -23.6187 H   0  0  0  0  0  0  0  0  0  0  0  0
    0.1546   26.5470  -22.2709 H   0  0  0  0  0  0  0  0  0  0  0  0
   -0.5613   28.0537  -22.9597 H   0  0  0  0  0  0  0  0  0  0  0  0
    2.0590   26.2325  -24.8151 H   0  0  0  0  0  0  0  0  0  0  0  0
    1.6317   24.9791  -26.9295 H   0  0  0  0  0  0  0  0  0  0  0  0
   -2.2223   22.1095  -29.3998 H   0  0  0  0  0  0  0  0  0  0  0  0
   -5.9388   24.4917  -31.7248 H   0  0  0  0  0  0  0  0  0  0  0  0
   -6.9912   21.9680  -31.7738 H   0  0  0  0  0  0  0  0  0  0  0  0
   -5.9071   22.2184  -33.2304 H   0  0  0  0  0  0  0  0  0  0  0  0
   -6.3106   19.7963  -31.5193 H   0  0  0  0  0  0  0  0  0  0  0  0
   -6.0230   19.9855  -33.3157 H   0  0  0  0  0  0  0  0  0  0  0  0
   -3.7099   19.7072  -34.1540 H   0  0  0  0  0  0  0  0  0  0  0  0
   -3.6724   21.3932  -33.5263 H   0  0  0  0  0  0  0  0  0  0  0  0
   -1.5083   22.2733  -33.2707 H   0  0  0  0  0  0  0  0  0  0  0  0
    0.8831   21.9518  -32.6079 H   0  0  0  0  0  0  0  0  0  0  0  0
    1.6796   19.6835  -31.9026 H   0  0  0  0  0  0  0  0  0  0  0  0
    0.0761   17.7612  -31.8959 H   0  0  0  0  0  0  0  0  0  0  0  0
   -4.3586   19.9432  -30.0312 H   0  0  0  0  0  0  0  0  0  0  0  0
   -2.7239   20.1593  -30.7783 H   0  0  0  0  0  0  0  0  0  0  0  0
   -2.6355   25.4527  -26.3550 H   0  0  0  0  0  0  0  0  0  0  0  0
   -2.2120   26.7162  -24.2473 H   0  0  0  0  0  0  0  0  0  0  0  0
  1  2  1  0
  2  3  1  0
  3  4  2  0
  4  5  1  0
  5  6  2  0
  6  7  1  0
  7  8  2  0
  7  9  2  0
  7 10  1  0
 10 11  1  0
 11 12  2  0
 12 13  1  0
 13 14  2  0
 14 15  1  0
 15 16  2  0
 16 17  1  0
 14 18  1  0
 18 19  1  0
 19 20  1  0
 20 21  1  0
 21 22  1  0
 22 23  2  0
 23 24  1  0
 24 25  2  0
 25 26  1  0
 26 27  2  0
 20 28  1  0
  6 29  1  0
 29 30  2  0
 30  3  1  0
 16 11  1  0
 27 22  1  0
 28 13  1  0
  1 31  1  0
  1 32  1  0
  1 33  1  0
  2 34  1  0
  2 35  1  0
  4 36  1  0
  5 37  1  0
 12 38  1  0
 15 39  1  0
 18 40  1  0
 18 41  1  0
 19 42  1  0
 19 43  1  0
 21 44  1  0
 21 45  1  0
 23 46  1  0
 24 47  1  0
 25 48  1  0
 26 49  1  0
 28 50  1  0
 28 51  1  0
 29 52  1  0
 30 53  1  0
M  CHG  2  10  -1  17  -1
M  END
>  <UniqueID>  (36) 
36

>  <SMILES>  (36) 
CCc1ccc(S(=O)(=O)[N-]c2cc3c(cc2[O-])CCN(Cc2ccccn2)C3)cc1

>  <Energy>  (36) 
67.70825930917044

>  <Genealogy>  (36) 
CCc1ccc(S(=O)(=O)[N-]c2cc3c(cc2[O-])CCN(Cc2ccccn2)C3)cc1 (protonated)
CCc1ccc(S(=O)(=O)[N-]c2cc3c(cc2[O-])CCN(Cc2ccccn2)C3)cc1 (3D coordinates assigned)
CCc1ccc(S(=O)(=O)[N-]c2cc3c(cc2[O-])CCN(Cc2ccccn2)C3)cc1 (nonaromatic ring conformer: 67.70825930917044 kcal/mol)

>  <smiles>  (36) 
CCc1ccc(S(=O)(=O)Nc2cc3c(cc2O)CCN(Cc2ccccn2)C3)cc1

>  <score_type>  (36) 
oracle

>  <origin>  (36) 
adgpu

>  <m_score__min__energy>  (36) 
-12.380000000000001

>  <m_primary>  (36) 
energy

$$$$
36:0
     RDKit          3D

 82 86  0  0  0  0  0  0  0  0999 V2000
   -3.5492   21.5192  -26.7137 H   0  0  0  0  0  0  0  0  0  0  0  0
   -3.3260   22.1150  -27.6110 C   0  0  0  0  0  0  0  0  0  0  0  0
   -4.3240   22.3260  -28.5670 C   0  0  0  0  0  0  0  0  0  0  0  0
   -5.3267   21.9004  -28.4138 H   0  0  0  0  0  0  0  0  0  0  0  0
   -4.0550   23.0750  -29.7170 C   0  0  0  0  0  0  0  0  0  0  0  0
   -5.3300   23.3790  -30.8960 S   0  0  0  0  0  0  0  0  0  0  0  0
   -5.1230   24.7310  -31.5220 O   0  0  0  0  0  0  0  0  0  0  0  0
   -6.6540   23.3820  -30.1840 O   0  0  0  0  0  0  0  0  0  0  0  0
   -5.3260   22.1390  -32.1260 N   0  0  0  0  0  0  0  0  0  0  0  0
   -6.6990   21.9210  -32.6270 C   0  0  0  0  0  0  0  0  0  0  0  0
   -7.3985   21.9422  -31.7783 H   0  0  0  0  0  0  0  0  0  0  0  0
   -6.9387   22.7180  -33.3462 H   0  0  0  0  0  0  0  0  0  0  0  0
   -6.8190   20.5690  -33.3410 C   0  0  0  0  0  0  0  0  0  0  0  0
   -7.8495   20.4533  -33.7081 H   0  0  0  0  0  0  0  0  0  0  0  0
   -6.0938   20.5604  -34.1681 H   0  0  0  0  0  0  0  0  0  0  0  0
   -6.5000   19.4270  -32.4460 N   0  0  0  0  0  0  0  0  0  0  0  0
   -7.7190   18.7250  -32.0130 C   0  0  0  0  0  0  0  0  0  0  0  0
   -7.7583   18.7024  -30.9139 H   0  0  0  0  0  0  0  0  0  0  0  0
   -8.6031   19.2523  -32.4007 H   0  0  0  0  0  0  0  0  0  0  0  0
   -7.7067   17.6957  -32.4007 H   0  0  0  0  0  0  0  0  0  0  0  0
   -5.6810   19.8040  -31.2720 C   0  0  0  0  0  0  0  0  0  0  0  0
   -6.3436   20.1730  -30.4753 H   0  0  0  0  0  0  0  0  0  0  0  0
   -5.1263   18.9165  -30.9334 H   0  0  0  0  0  0  0  0  0  0  0  0
   -4.6700   20.9030  -31.6330 C   0  0  0  0  0  0  0  0  0  0  0  0
   -4.0817   21.1493  -30.7367 H   0  0  0  0  0  0  0  0  0  0  0  0
   -4.0323   20.5176  -32.4422 H   0  0  0  0  0  0  0  0  0  0  0  0
   -2.7650   23.5690  -29.9290 C   0  0  0  0  0  0  0  0  0  0  0  0
   -2.5413   24.1413  -30.8414 H   0  0  0  0  0  0  0  0  0  0  0  0
   -1.7590   23.3400  -28.9890 C   0  0  0  0  0  0  0  0  0  0  0  0
   -0.7375   23.6956  -29.1892 H   0  0  0  0  0  0  0  0  0  0  0  0
   -2.0360   22.6580  -27.7850 C   0  0  0  0  0  0  0  0  0  0  0  0
   -0.9270   22.4290  -26.7540 C   0  0  1  0  0  0  0  0  0  0  0  0
   -1.3988   22.6835  -25.7935 H   0  0  0  0  0  0  0  0  0  0  0  0
   -0.4740   21.0290  -26.7240 N   0  0  0  0  0  0  0  0  0  0  0  0
   -0.1340   20.3060  -27.7520 C   0  0  0  0  0  0  0  0  0  0  0  0
    0.2410   19.0170  -27.5640 N   0  0  0  0  0  0  0  0  0  0  0  0
    0.5470   18.2230  -28.6250 C   0  0  0  0  0  0  0  0  0  0  0  0
    0.9110   16.8420  -28.4250 N   0  0  0  0  0  0  0  0  0  0  0  0
    0.7080   16.2140  -27.1160 C   0  0  0  0  0  0  0  0  0  0  0  0
    0.9071   16.9534  -26.3263 H   0  0  0  0  0  0  0  0  0  0  0  0
   -0.3307   15.8573  -27.0528 H   0  0  0  0  0  0  0  0  0  0  0  0
    1.6550   15.0130  -26.9340 C   0  0  2  0  0  0  0  0  0  0  0  0
    1.2732   14.4344  -26.0799 H   0  0  0  0  0  0  0  0  0  0  0  0
    3.0810   15.4420  -26.5490 C   0  0  0  0  0  0  0  0  0  0  0  0
    3.1724   15.4695  -25.4531 H   0  0  0  0  0  0  0  0  0  0  0  0
    3.8040   14.7216  -26.9593 H   0  0  0  0  0  0  0  0  0  0  0  0
    3.2865   16.4417  -26.9593 H   0  0  0  0  0  0  0  0  0  0  0  0
    1.6290   14.1420  -28.0560 O   0  0  0  0  0  0  0  0  0  0  0  0
    2.0040   14.7990  -29.2550 C   0  0  1  0  0  0  0  0  0  0  0  0
    3.0086   15.2297  -29.1309 H   0  0  0  0  0  0  0  0  0  0  0  0
    2.0020   13.7770  -30.3900 C   0  0  0  0  0  0  0  0  0  0  0  0
    2.0000   12.7610  -29.9685 H   0  0  0  0  0  0  0  0  0  0  0  0
    1.1041   13.9188  -31.0095 H   0  0  0  0  0  0  0  0  0  0  0  0
    2.9004   13.9152  -31.0095 H   0  0  0  0  0  0  0  0  0  0  0  0
    1.0420   15.9520  -29.5820 C   0  0  0  0  0  0  0  0  0  0  0  0
    1.4346   16.5221  -30.4369 H   0  0  0  0  0  0  0  0  0  0  0  0
    0.0541   15.5371  -29.8308 H   0  0  0  0  0  0  0  0  0  0  0  0
    0.4700   18.7380  -29.8810 N   0  0  0  0  0  0  0  0  0  0  0  0
    0.0980   20.0290  -30.0850 C   0  0  0  0  0  0  0  0  0  0  0  0
   -0.0270   20.5460  -31.4260 N   0  0  0  0  0  0  0  0  0  0  0  0
   -1.1560   21.4510  -31.7300 C   0  0  0  0  0  0  0  0  0  0  0  0
   -0.7481   22.4335  -32.0099 H   0  0  0  0  0  0  0  0  0  0  0  0
   -1.7823   21.4990  -30.8270 H   0  0  0  0  0  0  0  0  0  0  0  0
   -2.0560   20.9530  -32.8770 C   0  0  0  0  0  0  0  0  0  0  0  0
   -3.0774   21.3214  -32.7008 H   0  0  0  0  0  0  0  0  0  0  0  0
   -1.9972   19.8546  -32.8752 H   0  0  0  0  0  0  0  0  0  0  0  0
   -1.6240   21.4030  -34.2140 N   0  0  0  0  0  0  0  0  0  0  0  0
   -2.2240   20.9260  -34.9270 H   0  0  0  0  0  0  0  0  0  0  0  0
   -0.2100   21.1580  -34.5510 C   0  0  0  0  0  0  0  0  0  0  0  0
    0.3729   22.0499  -34.2776 H   0  0  0  0  0  0  0  0  0  0  0  0
   -0.1661   20.9460  -35.6295 H   0  0  0  0  0  0  0  0  0  0  0  0
    0.3930   19.9380  -33.8230 C   0  0  0  0  0  0  0  0  0  0  0  0
    1.1855   19.5164  -34.4587 H   0  0  0  0  0  0  0  0  0  0  0  0
   -0.4373   19.2382  -33.6473 H   0  0  0  0  0  0  0  0  0  0  0  0
    1.0010   20.2510  -32.4400 C   0  0  0  0  0  0  0  0  0  0  0  0
    1.6636   21.1239  -32.5352 H   0  0  0  0  0  0  0  0  0  0  0  0
    1.5527   19.3593  -32.1075 H   0  0  0  0  0  0  0  0  0  0  0  0
   -0.2020   20.8070  -29.0130 N   0  0  0  0  0  0  0  0  0  0  0  0
    0.2930   23.3500  -26.9290 C   0  0  0  0  0  0  0  0  0  0  0  0
    0.6779   23.6406  -25.9403 H   0  0  0  0  0  0  0  0  0  0  0  0
    1.0778   22.8171  -27.4859 H   0  0  0  0  0  0  0  0  0  0  0  0
   -0.0045   24.2508  -27.4859 H   0  0  0  0  0  0  0  0  0  0  0  0
  1  2  1  0
  2  3  2  0
  3  4  1  0
  3  5  1  0
  5  6  1  0
  6  7  2  0
  6  8  2  0
  6  9  1  0
  9 10  1  0
 10 11  1  0
 10 12  1  0
 10 13  1  0
 13 14  1  0
 13 15  1  0
 13 16  1  0
 16 17  1  0
 17 18  1  0
 17 19  1  0
 17 20  1  0
 16 21  1  0
 21 22  1  0
 21 23  1  0
 21 24  1  0
 24 25  1  0
 24 26  1  0
  5 27  2  0
 27 28  1  0
 27 29  1  0
 29 30  1  0
 29 31  2  0
 31 32  1  0
 32 33  1  1
 32 34  1  0
 34 35  2  0
 35 36  1  0
 36 37  2  0
 37 38  1  0
 38 39  1  0
 39 40  1  0
 39 41  1  0
 39 42  1  0
 42 43  1  1
 42 44  1  0
 44 45  1  0
 44 46  1  0
 44 47  1  0
 42 48  1  0
 48 49  1  0
 49 50  1  1
 49 51  1  0
 51 52  1  0
 51 53  1  0
 51 54  1  0
 49 55  1  0
 55 56  1  0
 55 57  1  0
 37 58  1  0
 58 59  2  0
 59 60  1  0
 60 61  1  0
 61 62  1  0
 61 63  1  0
 61 64  1  0
 64 65  1  0
 64 66  1  0
 64 67  1  0
 67 68  1  0
 67 69  1  0
 69 70  1  0
 69 71  1  0
 69 72  1  0
 72 73  1  0
 72 74  1  0
 72 75  1  0
 75 76  1  0
 75 77  1  0
 59 78  1  0
 32 79  1  0
 79 80  1  0
 79 81  1  0
 79 82  1  0
 31  2  1  0
 78 35  1  0
 24  9  1  0
 55 38  1  0
 75 60  1  0
M  CHG  1  78  -1
M  END
>  <UniqueID>  (37) 
37

>  <SMILES>  (37) 
CC1CN(c2nc(N3CCCNCC3)[n-]/c(=N\[C@@H](C)c3ccc(S(=O)(=O)N4CCN(C)CC4)cc3)n2)C[C@H](C)O1

>  <Energy>  (37) 
105.94818212621034

>  <Genealogy>  (37) 
CC1CN(c2nc(N3CCCNCC3)[n-]c(=NC(C)c3ccc(S(=O)(=O)N4CCN(C)CC4)cc3)n2)CC(C)O1 (protonated)
CC1CN(c2nc(N3CCCNCC3)[n-]c(=N[C@@H](C)c3ccc(S(=O)(=O)N4CCN(C)CC4)cc3)n2)C[C@H](C)O1 (chirality)
CC1CN(c2nc(N3CCCNCC3)[n-]/c(=N\[C@@H](C)c3ccc(S(=O)(=O)N4CCN(C)CC4)cc3)n2)C[C@H](C)O1 (cis-trans isomerization)
CC1CN(c2nc(N3CCCNCC3)[n-]/c(=N\[C@@H](C)c3ccc(S(=O)(=O)N4CCN(C)CC4)cc3)n2)C[C@H](C)O1 (3D coordinates assigned)
CC1CN(c2nc(N3CCCNCC3)[n-]/c(=N\[C@@H](C)c3ccc(S(=O)(=O)N4CCN(C)CC4)cc3)n2)C[C@H](C)O1 (nonaromatic ring conformer: 105.94818212621034 kcal/mol)

>  <smiles>  (37) 
CC1CN(c2nc(N3CCCNCC3)[nH]c(=NC(C)c3ccc(S(=O)(=O)N4CCN(C)CC4)cc3)n2)CC(C)O1

>  <score_type>  (37) 
oracle

>  <origin>  (37) 
adgpu

>  <m_score__min__energy>  (37) 
-8.4900000000000002

>  <m_primary>  (37) 
energy

$$$$
37:0
     RDKit          3D

 43 46  0  0  0  0  0  0  0  0999 V2000
    0.1660   22.3680  -25.9270 C   0  0  0  0  0  0  0  0  0  0  0  0
    0.2170   21.6110  -27.1900 N   0  0  0  0  0  0  0  0  0  0  0  0
   -0.6860   20.4430  -27.1890 C   0  0  0  0  0  0  0  0  0  0  0  0
   -2.1670   20.8440  -27.1130 C   0  0  0  0  0  0  0  0  0  0  0  0
   -2.4950   21.9980  -28.0230 C   0  0  0  0  0  0  0  0  0  0  0  0
   -3.8400   22.3120  -28.2660 C   0  0  0  0  0  0  0  0  0  0  0  0
   -4.1920   23.4010  -29.0840 C   0  0  0  0  0  0  0  0  0  0  0  0
   -5.5700   23.7070  -29.3660 N   0  0  0  0  0  0  0  0  0  0  0  0
   -6.2440   23.6790  -30.9640 S   0  0  0  0  0  0  0  0  0  0  0  0
   -5.2470   24.2410  -31.9370 O   0  0  0  0  0  0  0  0  0  0  0  0
   -7.4840   24.5280  -30.9910 O   0  0  0  0  0  0  0  0  0  0  0  0
   -6.6100   22.0180  -31.4260 C   0  0  0  0  0  0  0  0  0  0  0  0
   -7.7550   21.3930  -30.9100 C   0  0  0  0  0  0  0  0  0  0  0  0
   -8.0830   20.0890  -31.2970 C   0  0  0  0  0  0  0  0  0  0  0  0
   -7.2670   19.4050  -32.2020 C   0  0  0  0  0  0  0  0  0  0  0  0
   -7.5740   18.1400  -32.5930 N   0  0  0  0  0  0  0  0  0  0  0  0
   -6.7890   17.4670  -33.4750 C   0  0  0  0  0  0  0  0  0  0  0  0
   -7.0980   16.2950  -33.8200 O   0  0  0  0  0  0  0  0  0  0  0  0
   -5.6420   18.0870  -33.9930 C   0  0  0  0  0  0  0  0  0  0  0  0
   -4.8990   17.4830  -34.8120 O   0  0  0  0  0  0  0  0  0  0  0  0
   -5.3330   19.3510  -33.6040 N   0  0  0  0  0  0  0  0  0  0  0  0
   -6.1150   20.0280  -32.7220 C   0  0  0  0  0  0  0  0  0  0  0  0
   -5.7870   21.3310  -32.3320 C   0  0  0  0  0  0  0  0  0  0  0  0
   -3.1710   24.2000  -29.6270 C   0  0  0  0  0  0  0  0  0  0  0  0
   -3.4820   25.2870  -30.4380 O   0  0  0  0  0  0  0  0  0  0  0  0
   -1.8300   23.9050  -29.3690 C   0  0  0  0  0  0  0  0  0  0  0  0
   -1.4820   22.8160  -28.5600 C   0  0  0  0  0  0  0  0  0  0  0  0
   -0.0230   22.4750  -28.3620 C   0  0  0  0  0  0  0  0  0  0  0  0
    0.2131   21.6694  -25.0786 H   0  0  0  0  0  0  0  0  0  0  0  0
    1.0195   23.0603  -25.8797 H   0  0  0  0  0  0  0  0  0  0  0  0
   -0.7727   22.9395  -25.8797 H   0  0  0  0  0  0  0  0  0  0  0  0
   -0.5227   19.8702  -28.1138 H   0  0  0  0  0  0  0  0  0  0  0  0
   -0.4559   19.8436  -26.2958 H   0  0  0  0  0  0  0  0  0  0  0  0
   -2.7826   19.9795  -27.4023 H   0  0  0  0  0  0  0  0  0  0  0  0
   -2.3771   21.1599  -26.0805 H   0  0  0  0  0  0  0  0  0  0  0  0
   -4.6310   21.6981  -27.8105 H   0  0  0  0  0  0  0  0  0  0  0  0
   -6.1780   24.0900  -28.6080 H   0  0  0  0  0  0  0  0  0  0  0  0
   -8.3981   21.9307  -30.1977 H   0  0  0  0  0  0  0  0  0  0  0  0
   -8.9818   19.6030  -30.8895 H   0  0  0  0  0  0  0  0  0  0  0  0
   -4.8857   21.8162  -32.7347 H   0  0  0  0  0  0  0  0  0  0  0  0
   -1.0401   24.5340  -29.8054 H   0  0  0  0  0  0  0  0  0  0  0  0
    0.3396   21.9544  -29.2606 H   0  0  0  0  0  0  0  0  0  0  0  0
    0.5133   23.4195  -28.1878 H   0  0  0  0  0  0  0  0  0  0  0  0
  1  2  1  0
  2  3  1  0
  3  4  1  0
  4  5  1  0
  5  6  2  0
  6  7  1  0
  7  8  1  0
  8  9  1  0
  9 10  2  0
  9 11  2  0
  9 12  1  0
 12 13  2  0
 13 14  1  0
 14 15  2  0
 15 16  1  0
 16 17  1  0
 17 18  2  0
 17 19  1  0
 19 20  2  0
 19 21  1  0
 21 22  1  0
 22 23  2  0
  7 24  2  0
 24 25  1  0
 24 26  1  0
 26 27  2  0
 27 28  1  0
 28  2  1  0
 27  5  1  0
 23 12  1  0
 22 15  1  0
  1 29  1  0
  1 30  1  0
  1 31  1  0
  3 32  1  0
  3 33  1  0
  4 34  1  0
  4 35  1  0
  6 36  1  0
  8 37  1  0
 13 38  1  0
 14 39  1  0
 23 40  1  0
 26 41  1  0
 28 42  1  0
 28 43  1  0
M  CHG  3  16  -1  21  -1  25  -1
M  END
>  <UniqueID>  (38) 
38

>  <SMILES>  (38) 
CN1CCc2cc(NS(=O)(=O)c3ccc4[n-]c(=O)c(=O)[n-]c4c3)c([O-])cc2C1

>  <Energy>  (38) 
59.62647592407536

>  <Genealogy>  (38) 
CN1CCc2cc(NS(=O)(=O)c3ccc4[n-]c(=O)c(=O)[n-]c4c3)c([O-])cc2C1 (protonated)
CN1CCc2cc(NS(=O)(=O)c3ccc4[n-]c(=O)c(=O)[n-]c4c3)c([O-])cc2C1 (3D coordinates assigned)
CN1CCc2cc(NS(=O)(=O)c3ccc4[n-]c(=O)c(=O)[n-]c4c3)c([O-])cc2C1 (nonaromatic ring conformer: 59.62647592407536 kcal/mol)

>  <smiles>  (38) 
CN1CCc2cc(NS(=O)(=O)c3ccc4[nH]c(=O)c(=O)[nH]c4c3)c(O)cc2C1

>  <score_type>  (38) 
oracle

>  <origin>  (38) 
adgpu

>  <m_score__min__energy>  (38) 
-12.449999999999999

>  <m_primary>  (38) 
energy

$$$$
38:0
     RDKit          3D

 55 58  0  0  0  0  0  0  0  0999 V2000
   -0.5500   21.4370  -30.8510 O   0  0  0  0  0  0  0  0  0  0  0  0
   -1.6720   21.7750  -30.3890 C   0  0  0  0  0  0  0  0  0  0  0  0
   -2.8820   21.1560  -30.8670 N   0  0  0  0  0  0  0  0  0  0  0  0
   -2.9670   20.2510  -31.9840 C   0  0  0  0  0  0  0  0  0  0  0  0
   -1.8410   19.5700  -32.4850 C   0  0  0  0  0  0  0  0  0  0  0  0
   -1.9670   18.7080  -33.5770 C   0  0  0  0  0  0  0  0  0  0  0  0
   -3.2160   18.4900  -34.1600 C   0  0  0  0  0  0  0  0  0  0  0  0
   -4.3540   19.1250  -33.6470 C   0  0  0  0  0  0  0  0  0  0  0  0
   -5.9450   18.8030  -34.3450 S   0  0  0  0  0  0  0  0  0  0  0  0
   -6.7960   20.0380  -34.2190 O   0  0  0  0  0  0  0  0  0  0  0  0
   -5.7860   18.5020  -35.8090 O   0  0  0  0  0  0  0  0  0  0  0  0
   -6.7640   17.4700  -33.5580 N   0  0  0  0  0  0  0  0  0  0  0  0
   -7.2000   17.8420  -32.2090 C   0  0  0  0  0  0  0  0  0  0  0  0
   -6.1480   17.3580  -31.2270 C   0  0  0  0  0  0  0  0  0  0  0  0
   -5.3840   16.2720  -31.9570 C   0  0  0  0  0  0  0  0  0  0  0  0
   -5.8740   16.3130  -33.3990 C   0  0  0  0  0  0  0  0  0  0  0  0
   -4.2240   19.9990  -32.5600 C   0  0  0  0  0  0  0  0  0  0  0  0
   -1.7360   22.8330  -29.3600 C   0  0  0  0  0  0  0  0  0  0  0  0
   -0.5420   23.2690  -28.7580 C   0  0  0  0  0  0  0  0  0  0  0  0
   -0.5510   24.3300  -27.8500 C   0  0  0  0  0  0  0  0  0  0  0  0
   -1.7470   24.9760  -27.5410 C   0  0  0  0  0  0  0  0  0  0  0  0
   -2.9410   24.5510  -28.1240 C   0  0  0  0  0  0  0  0  0  0  0  0
   -2.9560   23.4680  -29.0120 C   0  0  0  0  0  0  0  0  0  0  0  0
   -4.2200   23.0470  -29.5400 N   0  0  0  0  0  0  0  0  0  0  0  0
   -4.8300   23.5230  -31.0930 S   0  0  0  0  0  0  0  0  0  0  0  0
   -3.9040   23.0250  -32.1650 O   0  0  0  0  0  0  0  0  0  0  0  0
   -4.8940   25.0240  -31.1770 O   0  0  0  0  0  0  0  0  0  0  0  0
   -6.4300   22.8280  -31.3320 C   0  0  0  0  0  0  0  0  0  0  0  0
   -7.4920   23.6110  -31.8050 C   0  0  0  0  0  0  0  0  0  0  0  0
   -8.7640   23.0500  -31.9620 C   0  0  0  0  0  0  0  0  0  0  0  0
   -8.9790   21.7030  -31.6520 C   0  0  0  0  0  0  0  0  0  0  0  0
   -7.9220   20.9180  -31.1810 C   0  0  0  0  0  0  0  0  0  0  0  0
   -6.6500   21.4790  -31.0210 C   0  0  0  0  0  0  0  0  0  0  0  0
   -3.7840   21.5370  -30.5000 H   0  0  0  0  0  0  0  0  0  0  0  0
   -0.8577   19.7174  -32.0144 H   0  0  0  0  0  0  0  0  0  0  0  0
   -1.0784   18.1992  -33.9788 H   0  0  0  0  0  0  0  0  0  0  0  0
   -3.3070   17.8171  -35.0254 H   0  0  0  0  0  0  0  0  0  0  0  0
   -7.3027   18.9349  -32.1378 H   0  0  0  0  0  0  0  0  0  0  0  0
   -8.1744   17.3847  -31.9821 H   0  0  0  0  0  0  0  0  0  0  0  0
   -5.4741   18.1815  -30.9483 H   0  0  0  0  0  0  0  0  0  0  0  0
   -6.5991   16.9848  -30.2958 H   0  0  0  0  0  0  0  0  0  0  0  0
   -4.3029   16.4704  -31.9146 H   0  0  0  0  0  0  0  0  0  0  0  0
   -5.5518   15.2848  -31.5017 H   0  0  0  0  0  0  0  0  0  0  0  0
   -5.0153   16.4095  -34.0797 H   0  0  0  0  0  0  0  0  0  0  0  0
   -6.4157   15.3861  -33.6386 H   0  0  0  0  0  0  0  0  0  0  0  0
   -5.1173   20.4945  -32.1520 H   0  0  0  0  0  0  0  0  0  0  0  0
    0.4069   22.7701  -29.0044 H   0  0  0  0  0  0  0  0  0  0  0  0
    0.3873   24.6565  -27.3778 H   0  0  0  0  0  0  0  0  0  0  0  0
   -1.7493   25.8213  -26.8371 H   0  0  0  0  0  0  0  0  0  0  0  0
   -3.8798   25.0715  -27.8839 H   0  0  0  0  0  0  0  0  0  0  0  0
   -7.3249   24.6695  -32.0534 H   0  0  0  0  0  0  0  0  0  0  0  0
   -9.5959   23.6688  -32.3296 H   0  0  0  0  0  0  0  0  0  0  0  0
   -9.9786   21.2617  -31.7786 H   0  0  0  0  0  0  0  0  0  0  0  0
   -8.0905   19.8589  -30.9361 H   0  0  0  0  0  0  0  0  0  0  0  0
   -5.8202   20.8595  -30.6500 H   0  0  0  0  0  0  0  0  0  0  0  0
  1  2  2  0
  2  3  1  0
  3  4  1  0
  4  5  2  0
  5  6  1  0
  6  7  2  0
  7  8  1  0
  8  9  1  0
  9 10  2  0
  9 11  2  0
  9 12  1  0
 12 13  1  0
 13 14  1  0
 14 15  1  0
 15 16  1  0
  8 17  2  0
  2 18  1  0
 18 19  2  0
 19 20  1  0
 20 21  2  0
 21 22  1  0
 22 23  2  0
 23 24  1  0
 24 25  1  0
 25 26  2  0
 25 27  2  0
 25 28  1  0
 28 29  2  0
 29 30  1  0
 30 31  2  0
 31 32  1  0
 32 33  2  0
 17  4  1  0
 23 18  1  0
 33 28  1  0
 16 12  1  0
  3 34  1  0
  5 35  1  0
  6 36  1  0
  7 37  1  0
 13 38  1  0
 13 39  1  0
 14 40  1  0
 14 41  1  0
 15 42  1  0
 15 43  1  0
 16 44  1  0
 16 45  1  0
 17 46  1  0
 19 47  1  0
 20 48  1  0
 21 49  1  0
 22 50  1  0
 29 51  1  0
 30 52  1  0
 31 53  1  0
 32 54  1  0
 33 55  1  0
M  CHG  1  24  -1
M  END
>  <UniqueID>  (39) 
39

>  <SMILES>  (39) 
O=C(Nc1cccc(S(=O)(=O)N2CCCC2)c1)c1ccccc1[N-]S(=O)(=O)c1ccccc1

>  <Energy>  (39) 
72.00757556166697

>  <Genealogy>  (39) 
O=C(Nc1cccc(S(=O)(=O)N2CCCC2)c1)c1ccccc1[N-]S(=O)(=O)c1ccccc1 (protonated)
O=C(Nc1cccc(S(=O)(=O)N2CCCC2)c1)c1ccccc1[N-]S(=O)(=O)c1ccccc1 (3D coordinates assigned)
O=C(Nc1cccc(S(=O)(=O)N2CCCC2)c1)c1ccccc1[N-]S(=O)(=O)c1ccccc1 (nonaromatic ring conformer: 72.00757556166697 kcal/mol)

>  <smiles>  (39) 
O=C(Nc1cccc(S(=O)(=O)N2CCCC2)c1)c1ccccc1NS(=O)(=O)c1ccccc1

>  <score_type>  (39) 
oracle

>  <origin>  (39) 
adgpu

>  <m_score__min__energy>  (39) 
-11.140000000000001

>  <m_primary>  (39) 
energy

$$$$
39:0
     RDKit          3D

 46 48  0  0  0  0  0  0  0  0999 V2000
   -0.8030   20.9320  -32.0780 O   0  0  0  0  0  0  0  0  0  0  0  0
   -1.3300   19.6350  -31.5360 S   0  0  0  0  0  0  0  0  0  0  0  0
   -0.1620   18.7080  -31.3430 O   0  0  0  0  0  0  0  0  0  0  0  0
   -2.0760   19.9090  -29.9900 N   0  0  0  0  0  0  0  0  0  0  0  0
   -1.0720   19.9800  -28.9260 C   0  0  0  0  0  0  0  0  0  0  0  0
   -1.5560   20.8990  -27.8030 C   0  0  0  0  0  0  0  0  0  0  0  0
   -1.4540   22.3420  -28.2210 C   0  0  0  0  0  0  0  0  0  0  0  0
   -0.4390   23.1590  -27.6990 C   0  0  0  0  0  0  0  0  0  0  0  0
   -0.3650   24.5080  -28.0600 C   0  0  0  0  0  0  0  0  0  0  0  0
   -1.3090   25.0540  -28.9340 C   0  0  0  0  0  0  0  0  0  0  0  0
   -1.2290   26.3950  -29.2880 O   0  0  0  0  0  0  0  0  0  0  0  0
   -2.3360   24.2510  -29.4500 C   0  0  0  0  0  0  0  0  0  0  0  0
   -3.2770   24.8030  -30.3160 O   0  0  0  0  0  0  0  0  0  0  0  0
   -2.4100   22.8980  -29.0880 C   0  0  0  0  0  0  0  0  0  0  0  0
   -2.4730   18.9250  -32.6990 C   0  0  0  0  0  0  0  0  0  0  0  0
   -2.1910   17.6300  -33.1720 C   0  0  0  0  0  0  0  0  0  0  0  0
   -3.0320   17.0000  -34.0880 C   0  0  0  0  0  0  0  0  0  0  0  0
   -4.1700   17.6520  -34.5500 C   0  0  0  0  0  0  0  0  0  0  0  0
   -4.4700   18.9370  -34.1010 C   0  0  0  0  0  0  0  0  0  0  0  0
   -3.6360   19.5960  -33.1780 C   0  0  0  0  0  0  0  0  0  0  0  0
   -4.1170   21.2310  -32.6690 S   0  0  0  0  0  0  0  0  0  0  0  0
   -3.4130   21.5980  -31.3930 O   0  0  0  0  0  0  0  0  0  0  0  0
   -3.7050   22.2210  -33.7220 O   0  0  0  0  0  0  0  0  0  0  0  0
   -5.8440   21.3320  -32.3490 C   0  0  0  0  0  0  0  0  0  0  0  0
   -6.4780   22.5770  -32.2230 C   0  0  0  0  0  0  0  0  0  0  0  0
   -7.8510   22.6420  -31.9650 C   0  0  0  0  0  0  0  0  0  0  0  0
   -8.5940   21.4660  -31.8240 C   0  0  0  0  0  0  0  0  0  0  0  0
   -7.9640   20.2240  -31.9390 C   0  0  0  0  0  0  0  0  0  0  0  0
   -6.5910   20.1550  -32.1970 C   0  0  0  0  0  0  0  0  0  0  0  0
   -0.8995   18.9718  -28.5214 H   0  0  0  0  0  0  0  0  0  0  0  0
   -0.1367   20.3832  -29.3416 H   0  0  0  0  0  0  0  0  0  0  0  0
   -2.6047   20.6632  -27.5690 H   0  0  0  0  0  0  0  0  0  0  0  0
   -0.9245   20.7401  -26.9165 H   0  0  0  0  0  0  0  0  0  0  0  0
    0.3010   22.7366  -27.0033 H   0  0  0  0  0  0  0  0  0  0  0  0
    0.4383   25.1410  -27.6550 H   0  0  0  0  0  0  0  0  0  0  0  0
   -3.1090   25.6820  -30.7910 H   0  0  0  0  0  0  0  0  0  0  0  0
   -3.2205   22.2689  -29.4847 H   0  0  0  0  0  0  0  0  0  0  0  0
   -1.2926   17.1065  -32.8132 H   0  0  0  0  0  0  0  0  0  0  0  0
   -2.7954   15.9869  -34.4454 H   0  0  0  0  0  0  0  0  0  0  0  0
   -4.8344   17.1530  -35.2708 H   0  0  0  0  0  0  0  0  0  0  0  0
   -5.3723   19.4440  -34.4736 H   0  0  0  0  0  0  0  0  0  0  0  0
   -5.8944   23.5035  -32.3273 H   0  0  0  0  0  0  0  0  0  0  0  0
   -8.3470   23.6195  -31.8729 H   0  0  0  0  0  0  0  0  0  0  0  0
   -9.6741   21.5185  -31.6226 H   0  0  0  0  0  0  0  0  0  0  0  0
   -8.5488   19.2991  -31.8265 H   0  0  0  0  0  0  0  0  0  0  0  0
   -6.0965   19.1760  -32.2808 H   0  0  0  0  0  0  0  0  0  0  0  0
  1  2  2  0
  2  3  2  0
  2  4  1  0
  4  5  1  0
  5  6  1  0
  6  7  1  0
  7  8  2  0
  8  9  1  0
  9 10  2  0
 10 11  1  0
 10 12  1  0
 12 13  1  0
 12 14  2  0
  2 15  1  0
 15 16  2  0
 16 17  1  0
 17 18  2  0
 18 19  1  0
 19 20  2  0
 20 21  1  0
 21 22  2  0
 21 23  2  0
 21 24  1  0
 24 25  2  0
 25 26  1  0
 26 27  2  0
 27 28  1  0
 28 29  2  0
 14  7  1  0
 20 15  1  0
 29 24  1  0
  5 30  1  0
  5 31  1  0
  6 32  1  0
  6 33  1  0
  8 34  1  0
  9 35  1  0
 13 36  1  0
 14 37  1  0
 16 38  1  0
 17 39  1  0
 18 40  1  0
 19 41  1  0
 25 42  1  0
 26 43  1  0
 27 44  1  0
 28 45  1  0
 29 46  1  0
M  CHG  2   4  -1  11  -1
M  END
>  <UniqueID>  (40) 
40

>  <SMILES>  (40) 
O=S(=O)([N-]CCc1ccc([O-])c(O)c1)c1ccccc1S(=O)(=O)c1ccccc1

>  <Energy>  (40) 
51.56773607309994

>  <Genealogy>  (40) 
O=S(=O)([N-]CCc1ccc([O-])c(O)c1)c1ccccc1S(=O)(=O)c1ccccc1 (protonated)
O=S(=O)([N-]CCc1ccc([O-])c(O)c1)c1ccccc1S(=O)(=O)c1ccccc1 (3D coordinates assigned)
O=S(=O)([N-]CCc1ccc([O-])c(O)c1)c1ccccc1S(=O)(=O)c1ccccc1 (optimized conformer: 51.56773607309994 kcal/mol)

>  <smiles>  (40) 
O=S(=O)(NCCc1ccc(O)c(O)c1)c1ccccc1S(=O)(=O)c1ccccc1

>  <score_type>  (40) 
oracle

>  <origin>  (40) 
adgpu

>  <m_score__min__energy>  (40) 
-12.19

>  <m_primary>  (40) 
energy

$$$$
40:0
     RDKit          3D

 67 71  0  0  0  0  0  0  0  0999 V2000
   -1.3070   14.4960  -32.8370 C   0  0  0  0  0  0  0  0  0  0  0  0
   -2.2230   15.6760  -33.0320 C   0  0  0  0  0  0  0  0  0  0  0  0
   -3.6080   15.4640  -33.0040 C   0  0  0  0  0  0  0  0  0  0  0  0
   -4.4950   16.5160  -33.2250 C   0  0  0  0  0  0  0  0  0  0  0  0
   -4.0150   17.8080  -33.4620 C   0  0  0  0  0  0  0  0  0  0  0  0
   -5.1480   19.1200  -33.7960 S   0  0  0  0  0  0  0  0  0  0  0  0
   -5.7770   18.9040  -35.1440 O   0  0  0  0  0  0  0  0  0  0  0  0
   -4.4230   20.4360  -33.8290 O   0  0  0  0  0  0  0  0  0  0  0  0
   -6.3500   19.1740  -32.5370 N   0  0  0  0  0  0  0  0  0  0  0  0
   -7.2360   20.2670  -32.3190 C   0  0  0  0  0  0  0  0  0  0  0  0
   -6.9770   21.6290  -32.5160 C   0  0  0  0  0  0  0  0  0  0  0  0
   -8.0020   22.5540  -32.2570 C   0  0  0  0  0  0  0  0  0  0  0  0
   -9.2580   22.1100  -31.7980 C   0  0  0  0  0  0  0  0  0  0  0  0
   -9.4850   20.7430  -31.5850 C   0  0  0  0  0  0  0  0  0  0  0  0
   -8.4490   19.8440  -31.8460 C   0  0  0  0  0  0  0  0  0  0  0  0
   -8.4740   18.3630  -31.7110 C   0  0  0  0  0  0  0  0  0  0  0  0
   -7.0250   17.9480  -32.0900 C   0  0  2  0  0  0  0  0  0  0  0  0
   -6.2820   17.3480  -30.8960 C   0  0  0  0  0  0  0  0  0  0  0  0
   -2.6300   18.0460  -33.4630 C   0  0  0  0  0  0  0  0  0  0  0  0
   -2.1610   19.3410  -33.6890 O   0  0  0  0  0  0  0  0  0  0  0  0
   -1.7280   16.9880  -33.2280 C   0  0  0  0  0  0  0  0  0  0  0  0
   -0.3200   17.2580  -33.2540 N   0  0  0  0  0  0  0  0  0  0  0  0
    0.3850   17.9550  -32.2230 C   0  0  0  0  0  0  0  0  0  0  0  0
    0.9920   17.2910  -31.3430 O   0  0  0  0  0  0  0  0  0  0  0  0
    0.3810   19.3870  -32.1800 N   0  0  0  0  0  0  0  0  0  0  0  0
   -0.4500   20.1970  -31.3380 C   0  0  0  0  0  0  0  0  0  0  0  0
   -0.7570   21.5020  -31.7450 C   0  0  0  0  0  0  0  0  0  0  0  0
   -1.5860   22.3110  -30.9620 C   0  0  0  0  0  0  0  0  0  0  0  0
   -2.1040   21.8270  -29.7510 C   0  0  0  0  0  0  0  0  0  0  0  0
   -3.0110   22.6580  -28.9360 C   0  0  0  0  0  0  0  0  0  0  0  0
   -2.8430   22.6770  -27.6820 O   0  0  0  0  0  0  0  0  0  0  0  0
   -4.0870   23.4210  -29.5350 N   0  0  0  0  0  0  0  0  0  0  0  0
   -4.9030   24.2780  -28.6610 C   0  0  0  0  0  0  0  0  0  0  0  0
   -5.7010   25.3050  -29.4790 C   0  0  0  0  0  0  0  0  0  0  0  0
   -6.3800   24.6830  -30.5560 O   0  0  0  0  0  0  0  0  0  0  0  0
   -5.4340   24.1470  -31.4600 C   0  0  0  0  0  0  0  0  0  0  0  0
   -4.6760   22.9900  -30.8120 C   0  0  0  0  0  0  0  0  0  0  0  0
   -1.7510   20.5410  -29.3130 C   0  0  0  0  0  0  0  0  0  0  0  0
   -0.9340   19.7280  -30.1030 C   0  0  0  0  0  0  0  0  0  0  0  0
   -1.1664   14.3148  -31.7612 H   0  0  0  0  0  0  0  0  0  0  0  0
   -1.7524   13.6050  -33.3037 H   0  0  0  0  0  0  0  0  0  0  0  0
   -0.3334   14.7065  -33.3037 H   0  0  0  0  0  0  0  0  0  0  0  0
   -3.9996   14.4555  -32.8053 H   0  0  0  0  0  0  0  0  0  0  0  0
   -5.5789   16.3290  -33.2129 H   0  0  0  0  0  0  0  0  0  0  0  0
   -5.9909   21.9677  -32.8665 H   0  0  0  0  0  0  0  0  0  0  0  0
   -7.8236   23.6282  -32.4130 H   0  0  0  0  0  0  0  0  0  0  0  0
  -10.0613   22.8367  -31.6066 H   0  0  0  0  0  0  0  0  0  0  0  0
  -10.4593   20.3860  -31.2198 H   0  0  0  0  0  0  0  0  0  0  0  0
   -8.7128   18.0648  -30.6795 H   0  0  0  0  0  0  0  0  0  0  0  0
   -9.2386   17.8850  -32.3410 H   0  0  0  0  0  0  0  0  0  0  0  0
   -7.0392   17.1765  -32.8740 H   0  0  0  0  0  0  0  0  0  0  0  0
   -6.7339   17.7129  -29.9619 H   0  0  0  0  0  0  0  0  0  0  0  0
   -6.3530   16.2509  -30.9336 H   0  0  0  0  0  0  0  0  0  0  0  0
   -5.2245   17.6485  -30.9336 H   0  0  0  0  0  0  0  0  0  0  0  0
   -1.1930   19.6020  -33.5470 H   0  0  0  0  0  0  0  0  0  0  0  0
   -0.3432   21.8925  -32.6864 H   0  0  0  0  0  0  0  0  0  0  0  0
   -1.8328   23.3295  -31.2961 H   0  0  0  0  0  0  0  0  0  0  0  0
   -5.6040   23.6481  -28.0937 H   0  0  0  0  0  0  0  0  0  0  0  0
   -4.2315   24.8210  -27.9796 H   0  0  0  0  0  0  0  0  0  0  0  0
   -6.4377   25.7922  -28.8233 H   0  0  0  0  0  0  0  0  0  0  0  0
   -4.9992   26.0458  -29.8897 H   0  0  0  0  0  0  0  0  0  0  0  0
   -5.9559   23.7816  -32.3567 H   0  0  0  0  0  0  0  0  0  0  0  0
   -4.7168   24.9344  -31.7352 H   0  0  0  0  0  0  0  0  0  0  0  0
   -5.3711   22.1573  -30.6290 H   0  0  0  0  0  0  0  0  0  0  0  0
   -3.8708   22.6652  -31.4874 H   0  0  0  0  0  0  0  0  0  0  0  0
   -2.1189   20.1718  -28.3443 H   0  0  0  0  0  0  0  0  0  0  0  0
   -0.6683   18.7178  -29.7581 H   0  0  0  0  0  0  0  0  0  0  0  0
  1  2  1  0
  2  3  2  0
  3  4  1  0
  4  5  2  0
  5  6  1  0
  6  7  2  0
  6  8  2  0
  6  9  1  0
  9 10  1  0
 10 11  2  0
 11 12  1  0
 12 13  2  0
 13 14  1  0
 14 15  2  0
 15 16  1  0
 16 17  1  0
 17 18  1  0
  5 19  1  0
 19 20  1  0
 19 21  2  0
 21 22  1  0
 22 23  1  0
 23 24  2  0
 23 25  1  0
 25 26  1  0
 26 27  2  0
 27 28  1  0
 28 29  2  0
 29 30  1  0
 30 31  2  0
 30 32  1  0
 32 33  1  0
 33 34  1  0
 34 35  1  0
 35 36  1  0
 36 37  1  0
 29 38  1  0
 38 39  2  0
 21  2  1  0
 39 26  1  0
 17  9  1  0
 37 32  1  0
 15 10  1  0
  1 40  1  0
  1 41  1  0
  1 42  1  0
  3 43  1  0
  4 44  1  0
 11 45  1  0
 12 46  1  0
 13 47  1  0
 14 48  1  0
 16 49  1  0
 16 50  1  0
 17 51  1  6
 18 52  1  0
 18 53  1  0
 18 54  1  0
 20 55  1  0
 27 56  1  0
 28 57  1  0
 33 58  1  0
 33 59  1  0
 34 60  1  0
 34 61  1  0
 36 62  1  0
 36 63  1  0
 37 64  1  0
 37 65  1  0
 38 66  1  0
 39 67  1  0
M  CHG  2  22  -1  25  -1
M  END
>  <UniqueID>  (41) 
41

>  <SMILES>  (41) 
Cc1ccc(S(=O)(=O)N2c3ccccc3C[C@@H]2C)c(O)c1[N-]C(=O)[N-]c1ccc(C(=O)N2CCOCC2)cc1

>  <Energy>  (41) 
106.56395059195647

>  <Genealogy>  (41) 
Cc1ccc(S(=O)(=O)N2c3ccccc3CC2C)c(O)c1[N-]C(=O)[N-]c1ccc(C(=O)N2CCOCC2)cc1 (protonated)
Cc1ccc(S(=O)(=O)N2c3ccccc3C[C@@H]2C)c(O)c1[N-]C(=O)[N-]c1ccc(C(=O)N2CCOCC2)cc1 (chirality)
Cc1ccc(S(=O)(=O)N2c3ccccc3C[C@@H]2C)c(O)c1[N-]C(=O)[N-]c1ccc(C(=O)N2CCOCC2)cc1 (3D coordinates assigned)
Cc1ccc(S(=O)(=O)N2c3ccccc3C[C@@H]2C)c(O)c1[N-]C(=O)[N-]c1ccc(C(=O)N2CCOCC2)cc1 (nonaromatic ring conformer: 106.56395059195647 kcal/mol)

>  <smiles>  (41) 
Cc1ccc(S(=O)(=O)N2c3ccccc3CC2C)c(O)c1NC(=O)Nc1ccc(C(=O)N2CCOCC2)cc1

>  <score_type>  (41) 
oracle

>  <origin>  (41) 
adgpu

>  <m_score__min__energy>  (41) 
-14.369999999999999

>  <m_primary>  (41) 
energy

$$$$
41:0
     RDKit          3D

 52 55  0  0  0  0  0  0  0  0999 V2000
   -0.0210   18.1660  -27.7620 C   0  0  0  0  0  0  0  0  0  0  0  0
   -1.1710   18.7400  -28.3740 O   0  0  0  0  0  0  0  0  0  0  0  0
   -1.3610   20.1130  -28.5890 C   0  0  0  0  0  0  0  0  0  0  0  0
   -2.0540   20.9160  -27.6640 C   0  0  0  0  0  0  0  0  0  0  0  0
   -2.2140   22.2850  -27.8900 C   0  0  0  0  0  0  0  0  0  0  0  0
   -1.6920   22.8800  -29.0450 C   0  0  0  0  0  0  0  0  0  0  0  0
   -1.8360   24.3420  -29.2600 C   0  0  0  0  0  0  0  0  0  0  0  0
   -0.8000   25.0550  -29.3200 O   0  0  0  0  0  0  0  0  0  0  0  0
   -3.1100   24.9720  -29.4750 N   0  0  0  0  0  0  0  0  0  0  0  0
   -4.0770   24.5040  -30.2030 C   0  0  0  0  0  0  0  0  0  0  0  0
   -4.0530   23.3040  -30.8200 N   0  0  0  0  0  0  0  0  0  0  0  0
   -5.1930   23.0680  -31.5240 C   0  0  0  0  0  0  0  0  0  0  0  0
   -5.3640   21.8200  -32.3130 C   0  0  0  0  0  0  0  0  0  0  0  0
   -6.6570   21.3770  -32.6550 C   0  0  0  0  0  0  0  0  0  0  0  0
   -6.8350   20.2110  -33.4070 C   0  0  0  0  0  0  0  0  0  0  0  0
   -5.7250   19.4700  -33.8310 C   0  0  0  0  0  0  0  0  0  0  0  0
   -5.8880   18.3130  -34.5870 O   0  0  0  0  0  0  0  0  0  0  0  0
   -4.4390   19.8980  -33.4950 C   0  0  0  0  0  0  0  0  0  0  0  0
   -4.2550   21.0650  -32.7430 C   0  0  0  0  0  0  0  0  0  0  0  0
   -6.1390   24.0970  -31.4470 C   0  0  0  0  0  0  0  0  0  0  0  0
   -5.5140   25.3210  -30.4750 S   0  0  0  0  0  0  0  0  0  0  0  0
   -0.9900   22.0830  -29.9630 C   0  0  0  0  0  0  0  0  0  0  0  0
   -0.8360   20.7060  -29.7540 C   0  0  0  0  0  0  0  0  0  0  0  0
    0.0270   19.7520  -30.9730 S   0  0  0  0  0  0  0  0  0  0  0  0
   -0.8270   18.5730  -31.3550 O   0  0  0  0  0  0  0  0  0  0  0  0
    1.3100   19.2170  -30.3970 O   0  0  0  0  0  0  0  0  0  0  0  0
    0.3790   20.6920  -32.4020 N   0  0  0  0  0  0  0  0  0  0  0  0
    1.4220   20.0410  -33.2080 C   0  0  0  0  0  0  0  0  0  0  0  0
    1.7160   20.8750  -34.4740 C   0  0  0  0  0  0  0  0  0  0  0  0
    0.8430   21.9830  -34.6000 O   0  0  0  0  0  0  0  0  0  0  0  0
   -0.5010   21.5430  -34.5620 C   0  0  0  0  0  0  0  0  0  0  0  0
   -0.8400   20.8810  -33.2080 C   0  0  0  0  0  0  0  0  0  0  0  0
   -0.1237   18.2173  -26.6680 H   0  0  0  0  0  0  0  0  0  0  0  0
    0.0736   17.1150  -28.0725 H   0  0  0  0  0  0  0  0  0  0  0  0
    0.8758   18.7222  -28.0725 H   0  0  0  0  0  0  0  0  0  0  0  0
   -2.4736   20.4612  -26.7545 H   0  0  0  0  0  0  0  0  0  0  0  0
   -2.7540   22.9002  -27.1552 H   0  0  0  0  0  0  0  0  0  0  0  0
   -7.5348   21.9535  -32.3276 H   0  0  0  0  0  0  0  0  0  0  0  0
   -7.8499   19.8752  -33.6661 H   0  0  0  0  0  0  0  0  0  0  0  0
   -6.5440   18.2690  -35.3580 H   0  0  0  0  0  0  0  0  0  0  0  0
   -3.5656   19.3152  -33.8228 H   0  0  0  0  0  0  0  0  0  0  0  0
   -3.2374   21.3945  -32.4863 H   0  0  0  0  0  0  0  0  0  0  0  0
   -7.1233   24.1045  -31.9381 H   0  0  0  0  0  0  0  0  0  0  0  0
   -0.5541   22.5466  -30.8602 H   0  0  0  0  0  0  0  0  0  0  0  0
    2.3409   19.9522  -32.6099 H   0  0  0  0  0  0  0  0  0  0  0  0
    1.0720   19.0426  -33.5092 H   0  0  0  0  0  0  0  0  0  0  0  0
    2.7511   21.2437  -34.4227 H   0  0  0  0  0  0  0  0  0  0  0  0
    1.5650   20.2253  -35.3487 H   0  0  0  0  0  0  0  0  0  0  0  0
   -1.1647   22.4069  -34.7140 H   0  0  0  0  0  0  0  0  0  0  0  0
   -0.6432   20.7964  -35.3573 H   0  0  0  0  0  0  0  0  0  0  0  0
   -1.5414   21.5246  -32.6568 H   0  0  0  0  0  0  0  0  0  0  0  0
   -1.2944   19.8976  -33.3986 H   0  0  0  0  0  0  0  0  0  0  0  0
  1  2  1  0
  2  3  1  0
  3  4  2  0
  4  5  1  0
  5  6  2  0
  6  7  1  0
  7  8  2  0
  7  9  1  0
  9 10  2  3
 10 11  1  0
 11 12  1  0
 12 13  1  0
 13 14  2  0
 14 15  1  0
 15 16  2  0
 16 17  1  0
 16 18  1  0
 18 19  2  0
 12 20  2  0
 20 21  1  0
  6 22  1  0
 22 23  2  0
 23 24  1  0
 24 25  2  0
 24 26  2  0
 24 27  1  0
 27 28  1  0
 28 29  1  0
 29 30  1  0
 30 31  1  0
 31 32  1  0
 23  3  1  0
 32 27  1  0
 21 10  1  0
 19 13  1  0
  1 33  1  0
  1 34  1  0
  1 35  1  0
  4 36  1  0
  5 37  1  0
 14 38  1  0
 15 39  1  0
 17 40  1  0
 18 41  1  0
 19 42  1  0
 20 43  1  0
 22 44  1  0
 28 45  1  0
 28 46  1  0
 29 47  1  0
 29 48  1  0
 31 49  1  0
 31 50  1  0
 32 51  1  0
 32 52  1  0
M  CHG  1  11  -1
M  END
>  <UniqueID>  (42) 
42

>  <SMILES>  (42) 
COc1ccc(C(=O)N=c2[n-]c(-c3ccc(O)cc3)cs2)cc1S(=O)(=O)N1CCOCC1

>  <Energy>  (42) 
99.86071697241401

>  <Genealogy>  (42) 
COc1ccc(C(=O)N=c2[n-]c(-c3ccc(O)cc3)cs2)cc1S(=O)(=O)N1CCOCC1 (protonated)
COc1ccc(C(=O)N=c2[n-]c(-c3ccc(O)cc3)cs2)cc1S(=O)(=O)N1CCOCC1 (3D coordinates assigned)
COc1ccc(C(=O)N=c2[n-]c(-c3ccc(O)cc3)cs2)cc1S(=O)(=O)N1CCOCC1 (nonaromatic ring conformer: 99.86071697241401 kcal/mol)

>  <smiles>  (42) 
COc1ccc(C(=O)N=c2[nH]c(-c3ccc(O)cc3)cs2)cc1S(=O)(=O)N1CCOCC1

>  <score_type>  (42) 
oracle

>  <origin>  (42) 
adgpu

>  <m_score__min__energy>  (42) 
-10.029999999999999

>  <m_primary>  (42) 
energy

$$$$
42:0
     RDKit          3D

 70 73  0  0  0  0  0  0  0  0999 V2000
    2.9620   16.2850  -32.7200 C   0  0  0  0  0  0  0  0  0  0  0  0
    2.3480   17.2770  -33.6740 C   0  0  0  0  0  0  0  0  0  0  0  0
    3.0060   18.5060  -33.8340 C   0  0  0  0  0  0  0  0  0  0  0  0
    2.5020   19.4820  -34.6840 C   0  0  0  0  0  0  0  0  0  0  0  0
    1.3190   19.2640  -35.3830 C   0  0  0  0  0  0  0  0  0  0  0  0
    0.8370   20.3100  -36.2360 N   0  0  0  0  0  0  0  0  0  0  0  0
    0.8700   21.7100  -35.9270 C   0  0  0  0  0  0  0  0  0  0  0  0
    1.6710   22.4730  -36.5280 O   0  0  0  0  0  0  0  0  0  0  0  0
    0.0060   22.2570  -34.9260 N   0  0  0  0  0  0  0  0  0  0  0  0
   -0.5750   21.5440  -33.8250 C   0  0  0  0  0  0  0  0  0  0  0  0
   -1.9660   21.4430  -33.6570 C   0  0  0  0  0  0  0  0  0  0  0  0
   -2.5040   20.7000  -32.5930 C   0  0  0  0  0  0  0  0  0  0  0  0
   -3.9730   20.5480  -32.4530 C   0  0  0  0  0  0  0  0  0  0  0  0
   -4.5520   19.2680  -32.3670 C   0  0  0  0  0  0  0  0  0  0  0  0
   -5.9370   19.1240  -32.2430 C   0  0  0  0  0  0  0  0  0  0  0  0
   -6.7620   20.2550  -32.1940 C   0  0  0  0  0  0  0  0  0  0  0  0
   -8.5080   20.0840  -32.0360 S   0  0  0  0  0  0  0  0  0  0  0  0
   -9.1720   21.5090  -31.2020 C   0  0  0  0  0  0  0  0  0  0  0  0
   -8.8200   18.8440  -31.2450 O   0  0  0  0  0  0  0  0  0  0  0  0
   -9.1420   19.9640  -33.3930 O   0  0  0  0  0  0  0  0  0  0  0  0
   -6.1930   21.5300  -32.2850 C   0  0  0  0  0  0  0  0  0  0  0  0
   -4.8090   21.6770  -32.4140 C   0  0  0  0  0  0  0  0  0  0  0  0
   -1.6350   20.0930  -31.6710 C   0  0  0  0  0  0  0  0  0  0  0  0
   -0.2440   20.2540  -31.7840 C   0  0  0  0  0  0  0  0  0  0  0  0
    0.6840   19.5910  -30.7970 C   0  0  0  0  0  0  0  0  0  0  0  0
    0.6090   20.2540  -29.5860 F   0  0  0  0  0  0  0  0  0  0  0  0
    1.9910   19.6280  -31.2520 F   0  0  0  0  0  0  0  0  0  0  0  0
    0.3290   18.2670  -30.6110 F   0  0  0  0  0  0  0  0  0  0  0  0
    0.2760   20.9670  -32.8770 C   0  0  0  0  0  0  0  0  0  0  0  0
    0.6630   18.0220  -35.2930 C   0  0  0  0  0  0  0  0  0  0  0  0
   -0.4640   17.8260  -36.0990 O   0  0  0  0  0  0  0  0  0  0  0  0
    1.1660   17.0080  -34.4270 C   0  0  0  0  0  0  0  0  0  0  0  0
    0.3030   15.4440  -34.3150 S   0  0  0  0  0  0  0  0  0  0  0  0
    1.2340   14.2910  -34.0790 O   0  0  0  0  0  0  0  0  0  0  0  0
   -0.3980   15.1860  -35.6200 O   0  0  0  0  0  0  0  0  0  0  0  0
   -0.8950   15.5280  -32.9640 C   0  0  0  0  0  0  0  0  0  0  0  0
   -2.1470   14.6620  -33.2440 C   0  0  0  0  0  0  0  0  0  0  0  0
   -3.3340   15.4740  -33.7950 C   0  0  0  0  0  0  0  0  0  0  0  0
   -2.8490   16.6130  -34.5930 N   0  0  0  0  0  0  0  0  0  0  0  0
   -3.9560   17.2360  -35.3320 C   0  0  0  0  0  0  0  0  0  0  0  0
   -2.1660   17.6170  -33.7450 C   0  0  0  0  0  0  0  0  0  0  0  0
   -1.2890   16.9800  -32.6450 C   0  0  0  0  0  0  0  0  0  0  0  0
    2.7659   16.6019  -31.6851 H   0  0  0  0  0  0  0  0  0  0  0  0
    2.5205   15.2918  -32.8893 H   0  0  0  0  0  0  0  0  0  0  0  0
    4.0478   16.2372  -32.8893 H   0  0  0  0  0  0  0  0  0  0  0  0
    3.9351   18.6994  -33.2778 H   0  0  0  0  0  0  0  0  0  0  0  0
    3.0414   20.4330  -34.8052 H   0  0  0  0  0  0  0  0  0  0  0  0
   -2.6393   21.9497  -34.3641 H   0  0  0  0  0  0  0  0  0  0  0  0
   -3.9104   18.3750  -32.3976 H   0  0  0  0  0  0  0  0  0  0  0  0
   -6.3805   18.1191  -32.1837 H   0  0  0  0  0  0  0  0  0  0  0  0
   -9.1035   21.3621  -30.1140 H   0  0  0  0  0  0  0  0  0  0  0  0
   -8.5973   22.4022  -31.4882 H   0  0  0  0  0  0  0  0  0  0  0  0
  -10.2255   21.6435  -31.4882 H   0  0  0  0  0  0  0  0  0  0  0  0
   -6.8378   22.4207  -32.2549 H   0  0  0  0  0  0  0  0  0  0  0  0
   -4.3711   22.6835  -32.4855 H   0  0  0  0  0  0  0  0  0  0  0  0
   -2.0480   19.4855  -30.8522 H   0  0  0  0  0  0  0  0  0  0  0  0
    1.3652   21.0727  -32.9885 H   0  0  0  0  0  0  0  0  0  0  0  0
   -1.2030   17.1670  -35.9100 H   0  0  0  0  0  0  0  0  0  0  0  0
   -0.3990   15.1110  -32.0751 H   0  0  0  0  0  0  0  0  0  0  0  0
   -1.8803   13.8891  -33.9798 H   0  0  0  0  0  0  0  0  0  0  0  0
   -2.4651   14.2266  -32.2852 H   0  0  0  0  0  0  0  0  0  0  0  0
   -3.9543   14.8243  -34.4299 H   0  0  0  0  0  0  0  0  0  0  0  0
   -3.9280   15.8558  -32.9516 H   0  0  0  0  0  0  0  0  0  0  0  0
   -4.6867   17.6472  -34.6200 H   0  0  0  0  0  0  0  0  0  0  0  0
   -3.5645   18.0463  -35.9646 H   0  0  0  0  0  0  0  0  0  0  0  0
   -4.4455   16.4808  -35.9646 H   0  0  0  0  0  0  0  0  0  0  0  0
   -1.5260   18.2407  -34.3864 H   0  0  0  0  0  0  0  0  0  0  0  0
   -2.9453   18.2093  -33.2432 H   0  0  0  0  0  0  0  0  0  0  0  0
   -0.3718   17.5775  -32.5367 H   0  0  0  0  0  0  0  0  0  0  0  0
   -1.8791   16.9670  -31.7168 H   0  0  0  0  0  0  0  0  0  0  0  0
  1  2  1  0
  2  3  2  0
  3  4  1  0
  4  5  2  0
  5  6  1  0
  6  7  1  0
  7  8  2  0
  7  9  1  0
  9 10  1  0
 10 11  2  0
 11 12  1  0
 12 13  1  0
 13 14  2  0
 14 15  1  0
 15 16  2  0
 16 17  1  0
 17 18  1  0
 17 19  2  0
 17 20  2  0
 16 21  1  0
 21 22  2  0
 12 23  2  0
 23 24  1  0
 24 25  1  0
 25 26  1  0
 25 27  1  0
 25 28  1  0
 24 29  2  0
  5 30  1  0
 30 31  1  0
 30 32  2  0
 32 33  1  0
 33 34  2  0
 33 35  2  0
 33 36  1  0
 36 37  1  0
 37 38  1  0
 38 39  1  0
 39 40  1  0
 39 41  1  0
 41 42  1  0
 32  2  1  0
 42 36  1  0
 29 10  1  0
 22 13  1  0
  1 43  1  0
  1 44  1  0
  1 45  1  0
  3 46  1  0
  4 47  1  0
 11 48  1  0
 14 49  1  0
 15 50  1  0
 18 51  1  0
 18 52  1  0
 18 53  1  0
 21 54  1  0
 22 55  1  0
 23 56  1  0
 29 57  1  0
 31 58  1  0
 36 59  1  0
 37 60  1  0
 37 61  1  0
 38 62  1  0
 38 63  1  0
 40 64  1  0
 40 65  1  0
 40 66  1  0
 41 67  1  0
 41 68  1  0
 42 69  1  0
 42 70  1  0
M  CHG  2   6  -1   9  -1
M  END
>  <UniqueID>  (43) 
43

>  <SMILES>  (43) 
Cc1ccc([N-]C(=O)[N-]c2cc(-c3ccc(S(C)(=O)=O)cc3)cc(C(F)(F)F)c2)c(O)c1S(=O)(=O)C1CCN(C)CC1

>  <Energy>  (43) 
96.03916394414273

>  <Genealogy>  (43) 
Cc1ccc([N-]C(=O)[N-]c2cc(-c3ccc(S(C)(=O)=O)cc3)cc(C(F)(F)F)c2)c(O)c1S(=O)(=O)C1CCN(C)CC1 (protonated)
Cc1ccc([N-]C(=O)[N-]c2cc(-c3ccc(S(C)(=O)=O)cc3)cc(C(F)(F)F)c2)c(O)c1S(=O)(=O)C1CCN(C)CC1 (3D coordinates assigned)
Cc1ccc([N-]C(=O)[N-]c2cc(-c3ccc(S(C)(=O)=O)cc3)cc(C(F)(F)F)c2)c(O)c1S(=O)(=O)C1CCN(C)CC1 (nonaromatic ring conformer: 96.03916394414273 kcal/mol)

>  <smiles>  (43) 
Cc1ccc(NC(=O)Nc2cc(-c3ccc(S(C)(=O)=O)cc3)cc(C(F)(F)F)c2)c(O)c1S(=O)(=O)C1CCN(C)CC1

>  <score_type>  (43) 
oracle

>  <origin>  (43) 
adgpu

>  <m_score__min__energy>  (43) 
-14.710000000000001

>  <m_primary>  (43) 
energy

$$$$
43:0
     RDKit          3D

 61 65  0  0  0  0  0  0  0  0999 V2000
   -3.8810   25.5930  -30.8050 O   0  0  0  0  0  0  0  0  0  0  0  0
   -4.2310   24.3980  -30.6100 C   0  0  0  0  0  0  0  0  0  0  0  0
   -3.1790   23.3330  -30.4470 C   0  0  0  0  0  0  0  0  0  0  0  0
   -2.4940   23.4410  -29.1090 C   0  0  0  0  0  0  0  0  0  0  0  0
   -1.8110   24.5480  -28.6420 C   0  0  0  0  0  0  0  0  0  0  0  0
   -1.6090   25.7330  -29.3440 O   0  0  0  0  0  0  0  0  0  0  0  0
   -1.3390   24.3000  -27.4030 N   0  0  0  0  0  0  0  0  0  0  0  0
   -0.5720   25.1790  -26.5610 C   0  0  0  0  0  0  0  0  0  0  0  0
   -1.1580   25.7690  -25.4270 C   0  0  0  0  0  0  0  0  0  0  0  0
   -0.4070   26.6130  -24.6020 C   0  0  0  0  0  0  0  0  0  0  0  0
    0.9350   26.8730  -24.9000 C   0  0  0  0  0  0  0  0  0  0  0  0
    1.6650   27.6850  -24.0960 F   0  0  0  0  0  0  0  0  0  0  0  0
    1.5240   26.2930  -26.0280 C   0  0  0  0  0  0  0  0  0  0  0  0
    0.7750   25.4510  -26.8570 C   0  0  0  0  0  0  0  0  0  0  0  0
   -1.7560   23.0420  -27.1310 C   0  0  0  0  0  0  0  0  0  0  0  0
   -1.5260   22.4510  -26.0390 O   0  0  0  0  0  0  0  0  0  0  0  0
   -2.4730   22.4940  -28.1390 N   0  0  0  0  0  0  0  0  0  0  0  0
   -3.0840   21.1580  -28.1480 C   0  0  0  0  0  0  0  0  0  0  0  0
   -2.0460   20.1100  -27.8900 C   0  0  0  0  0  0  0  0  0  0  0  0
   -2.1430   19.0800  -26.9750 C   0  0  0  0  0  0  0  0  0  0  0  0
   -0.9670   18.3690  -27.0900 C   0  0  0  0  0  0  0  0  0  0  0  0
   -0.2270   19.0090  -28.0650 C   0  0  0  0  0  0  0  0  0  0  0  0
   -0.8960   20.0430  -28.5200 O   0  0  0  0  0  0  0  0  0  0  0  0
   -5.6320   24.0900  -30.6060 N   0  0  0  0  0  0  0  0  0  0  0  0
   -6.2730   22.8840  -31.0450 C   0  0  0  0  0  0  0  0  0  0  0  0
   -5.5440   21.7600  -31.4760 C   0  0  0  0  0  0  0  0  0  0  0  0
   -6.2080   20.5850  -31.8380 C   0  0  0  0  0  0  0  0  0  0  0  0
   -7.6040   20.5020  -31.7430 C   0  0  0  0  0  0  0  0  0  0  0  0
   -8.4440   19.0030  -32.1560 S   0  0  0  0  0  0  0  0  0  0  0  0
   -9.0500   18.4210  -30.9090 O   0  0  0  0  0  0  0  0  0  0  0  0
   -9.5610   19.3160  -33.1110 O   0  0  0  0  0  0  0  0  0  0  0  0
   -7.3890   17.8110  -32.8780 N   0  0  0  0  0  0  0  0  0  0  0  0
   -6.5210   18.3990  -33.9030 C   0  0  0  0  0  0  0  0  0  0  0  0
   -5.2780   17.5230  -33.9740 C   0  0  0  0  0  0  0  0  0  0  0  0
   -5.2690   16.7210  -32.6790 C   0  0  0  0  0  0  0  0  0  0  0  0
   -6.4850   17.2000  -31.9010 C   0  0  0  0  0  0  0  0  0  0  0  0
   -8.3310   21.6180  -31.3040 C   0  0  0  0  0  0  0  0  0  0  0  0
   -7.6680   22.7960  -30.9460 C   0  0  0  0  0  0  0  0  0  0  0  0
   -3.6544   22.3443  -30.5275 H   0  0  0  0  0  0  0  0  0  0  0  0
   -2.4240   23.4669  -31.2357 H   0  0  0  0  0  0  0  0  0  0  0  0
   -2.2122   25.5658  -25.1875 H   0  0  0  0  0  0  0  0  0  0  0  0
   -0.8723   27.0729  -23.7177 H   0  0  0  0  0  0  0  0  0  0  0  0
    2.5784   26.4993  -26.2639 H   0  0  0  0  0  0  0  0  0  0  0  0
    1.2423   24.9997  -27.7446 H   0  0  0  0  0  0  0  0  0  0  0  0
   -3.8546   21.1061  -27.3647 H   0  0  0  0  0  0  0  0  0  0  0  0
   -3.5365   20.9782  -29.1343 H   0  0  0  0  0  0  0  0  0  0  0  0
   -2.9829   18.8705  -26.2963 H   0  0  0  0  0  0  0  0  0  0  0  0
   -0.6770   17.4736  -26.5206 H   0  0  0  0  0  0  0  0  0  0  0  0
    0.7712   18.6994  -28.4081 H   0  0  0  0  0  0  0  0  0  0  0  0
   -4.4462   21.8067  -31.5282 H   0  0  0  0  0  0  0  0  0  0  0  0
   -5.6320   19.7204  -32.1995 H   0  0  0  0  0  0  0  0  0  0  0  0
   -7.0347   18.4087  -34.8756 H   0  0  0  0  0  0  0  0  0  0  0  0
   -6.2605   19.4383  -33.6541 H   0  0  0  0  0  0  0  0  0  0  0  0
   -5.3315   16.8499  -34.8424 H   0  0  0  0  0  0  0  0  0  0  0  0
   -4.3629   18.1226  -34.0883 H   0  0  0  0  0  0  0  0  0  0  0  0
   -5.3475   15.6447  -32.8920 H   0  0  0  0  0  0  0  0  0  0  0  0
   -4.3370   16.8667  -32.1132 H   0  0  0  0  0  0  0  0  0  0  0  0
   -6.9783   16.3505  -31.4060 H   0  0  0  0  0  0  0  0  0  0  0  0
   -6.1993   17.9190  -31.1191 H   0  0  0  0  0  0  0  0  0  0  0  0
   -9.4280   21.5665  -31.2410 H   0  0  0  0  0  0  0  0  0  0  0  0
   -8.2455   23.6595  -30.5842 H   0  0  0  0  0  0  0  0  0  0  0  0
  1  2  2  0
  2  3  1  0
  3  4  1  0
  4  5  2  0
  5  6  1  0
  5  7  1  0
  7  8  1  0
  8  9  2  0
  9 10  1  0
 10 11  2  0
 11 12  1  0
 11 13  1  0
 13 14  2  0
  7 15  1  0
 15 16  2  0
 15 17  1  0
 17 18  1  0
 18 19  1  0
 19 20  2  0
 20 21  1  0
 21 22  2  0
 22 23  1  0
  2 24  1  0
 24 25  1  0
 25 26  2  0
 26 27  1  0
 27 28  2  0
 28 29  1  0
 29 30  2  0
 29 31  2  0
 29 32  1  0
 32 33  1  0
 33 34  1  0
 34 35  1  0
 35 36  1  0
 28 37  1  0
 37 38  2  0
 17  4  1  0
 23 19  1  0
 38 25  1  0
 14  8  1  0
 36 32  1  0
  3 39  1  0
  3 40  1  0
  9 41  1  0
 10 42  1  0
 13 43  1  0
 14 44  1  0
 18 45  1  0
 18 46  1  0
 20 47  1  0
 21 48  1  0
 22 49  1  0
 26 50  1  0
 27 51  1  0
 33 52  1  0
 33 53  1  0
 34 54  1  0
 34 55  1  0
 35 56  1  0
 35 57  1  0
 36 58  1  0
 36 59  1  0
 37 60  1  0
 38 61  1  0
M  CHG  2   6  -1  24  -1
M  END
>  <UniqueID>  (44) 
44

>  <SMILES>  (44) 
O=C(Cc1c([O-])n(-c2ccc(F)cc2)c(=O)n1Cc1ccco1)[N-]c1ccc(S(=O)(=O)N2CCCC2)cc1

>  <Energy>  (44) 
136.6943388911046

>  <Genealogy>  (44) 
O=C(Cc1c([O-])n(-c2ccc(F)cc2)c(=O)n1Cc1ccco1)[N-]c1ccc(S(=O)(=O)N2CCCC2)cc1 (protonated)
O=C(Cc1c([O-])n(-c2ccc(F)cc2)c(=O)n1Cc1ccco1)[N-]c1ccc(S(=O)(=O)N2CCCC2)cc1 (3D coordinates assigned)
O=C(Cc1c([O-])n(-c2ccc(F)cc2)c(=O)n1Cc1ccco1)[N-]c1ccc(S(=O)(=O)N2CCCC2)cc1 (nonaromatic ring conformer: 136.6943388911046 kcal/mol)

>  <smiles>  (44) 
O=C(Cc1c(O)n(-c2ccc(F)cc2)c(=O)n1Cc1ccco1)Nc1ccc(S(=O)(=O)N2CCCC2)cc1

>  <score_type>  (44) 
oracle

>  <origin>  (44) 
adgpu

>  <m_score__min__energy>  (44) 
-14.460000000000001

>  <m_primary>  (44) 
energy

$$$$
44:0
     RDKit          3D

 48 51  0  0  0  0  0  0  0  0999 V2000
    4.5300   23.8970  -26.2370 N   0  0  0  0  0  0  0  0  0  0  0  0
    3.3940   25.1990  -26.2300 S   0  0  0  0  0  0  0  0  0  0  0  0
    3.8540   26.2730  -27.1760 O   0  0  0  0  0  0  0  0  0  0  0  0
    3.3080   25.7800  -24.8470 O   0  0  0  0  0  0  0  0  0  0  0  0
    1.8140   24.6030  -26.7280 C   0  0  0  0  0  0  0  0  0  0  0  0
    1.7090   23.4120  -27.4580 C   0  0  0  0  0  0  0  0  0  0  0  0
    0.4540   22.9310  -27.8430 C   0  0  0  0  0  0  0  0  0  0  0  0
   -0.7100   23.6390  -27.5090 C   0  0  0  0  0  0  0  0  0  0  0  0
   -1.9990   23.1260  -27.8880 N   0  0  0  0  0  0  0  0  0  0  0  0
   -2.5730   22.0330  -27.3460 C   0  0  0  0  0  0  0  0  0  0  0  0
   -3.8430   21.8630  -27.8530 C   0  0  0  0  0  0  0  0  0  0  0  0
   -4.0490   22.8860  -28.7590 C   0  0  0  0  0  0  0  0  0  0  0  0
   -5.2630   23.0340  -29.5840 C   0  0  0  0  0  0  0  0  0  0  0  0
   -5.8980   24.2750  -29.7370 C   0  0  0  0  0  0  0  0  0  0  0  0
   -7.0270   24.3710  -30.5490 C   0  0  0  0  0  0  0  0  0  0  0  0
   -7.5050   23.2430  -31.2170 C   0  0  0  0  0  0  0  0  0  0  0  0
   -6.8320   22.0160  -31.0750 C   0  0  0  0  0  0  0  0  0  0  0  0
   -7.2800   20.8230  -31.7580 N   0  0  0  0  0  0  0  0  0  0  0  0
   -8.7200   20.6020  -31.9470 C   0  0  0  0  0  0  0  0  0  0  0  0
   -9.0170   19.1050  -32.0680 C   0  0  0  0  0  0  0  0  0  0  0  0
   -8.1900   18.5080  -33.0460 O   0  0  0  0  0  0  0  0  0  0  0  0
   -6.8430   18.5570  -32.6190 C   0  0  0  0  0  0  0  0  0  0  0  0
   -6.3470   20.0040  -32.5420 C   0  0  0  0  0  0  0  0  0  0  0  0
   -5.7360   21.9550  -30.2660 N   0  0  0  0  0  0  0  0  0  0  0  0
   -2.8920   23.6630  -28.7550 C   0  0  0  0  0  0  0  0  0  0  0  0
   -2.6680   24.8940  -29.5410 C   0  0  0  0  0  0  0  0  0  0  0  0
   -3.4850   25.2340  -30.4370 O   0  0  0  0  0  0  0  0  0  0  0  0
   -1.5500   25.6820  -29.3070 O   0  0  0  0  0  0  0  0  0  0  0  0
   -0.6030   24.8190  -26.7560 C   0  0  0  0  0  0  0  0  0  0  0  0
    0.6530   25.3000  -26.3700 C   0  0  0  0  0  0  0  0  0  0  0  0
    4.0640   23.0890  -26.7060 H   0  0  0  0  0  0  0  0  0  0  0  0
    2.6170   22.8534  -27.7292 H   0  0  0  0  0  0  0  0  0  0  0  0
    0.3789   21.9920  -28.4111 H   0  0  0  0  0  0  0  0  0  0  0  0
   -2.0966   21.3727  -26.6064 H   0  0  0  0  0  0  0  0  0  0  0  0
   -4.5548   21.0673  -27.5880 H   0  0  0  0  0  0  0  0  0  0  0  0
   -5.5086   25.1649  -29.2208 H   0  0  0  0  0  0  0  0  0  0  0  0
   -7.5414   25.3366  -30.6632 H   0  0  0  0  0  0  0  0  0  0  0  0
   -8.4018   23.3128  -31.8502 H   0  0  0  0  0  0  0  0  0  0  0  0
   -9.2662   21.0116  -31.0845 H   0  0  0  0  0  0  0  0  0  0  0  0
   -9.0409   21.1060  -32.8706 H   0  0  0  0  0  0  0  0  0  0  0  0
   -8.8346   18.6213  -31.0971 H   0  0  0  0  0  0  0  0  0  0  0  0
  -10.0676   18.9765  -32.3677 H   0  0  0  0  0  0  0  0  0  0  0  0
   -6.7636   18.0955  -31.6237 H   0  0  0  0  0  0  0  0  0  0  0  0
   -6.2236   18.0111  -33.3458 H   0  0  0  0  0  0  0  0  0  0  0  0
   -5.3570   20.0230  -32.0628 H   0  0  0  0  0  0  0  0  0  0  0  0
   -6.2813   20.4137  -33.5607 H   0  0  0  0  0  0  0  0  0  0  0  0
   -1.5114   25.3684  -26.4679 H   0  0  0  0  0  0  0  0  0  0  0  0
    0.7288   26.2278  -25.7840 H   0  0  0  0  0  0  0  0  0  0  0  0
  1  2  1  0
  2  3  2  0
  2  4  2  0
  2  5  1  0
  5  6  2  0
  6  7  1  0
  7  8  2  0
  8  9  1  0
  9 10  1  0
 10 11  2  0
 11 12  1  0
 12 13  1  0
 13 14  2  0
 14 15  1  0
 15 16  2  0
 16 17  1  0
 17 18  1  0
 18 19  1  0
 19 20  1  0
 20 21  1  0
 21 22  1  0
 22 23  1  0
 17 24  2  0
 12 25  2  0
 25 26  1  0
 26 27  2  0
 26 28  1  0
  8 29  1  0
 29 30  2  0
 30  5  1  0
 25  9  1  0
 24 13  1  0
 23 18  1  0
  1 31  1  0
  6 32  1  0
  7 33  1  0
 10 34  1  0
 11 35  1  0
 14 36  1  0
 15 37  1  0
 16 38  1  0
 19 39  1  0
 19 40  1  0
 20 41  1  0
 20 42  1  0
 22 43  1  0
 22 44  1  0
 23 45  1  0
 23 46  1  0
 29 47  1  0
 30 48  1  0
M  CHG  2   1  -1  28  -1
M  END
>  <UniqueID>  (45) 
45

>  <SMILES>  (45) 
[NH-]S(=O)(=O)c1ccc(-n2ccc(-c3cccc(N4CCOCC4)n3)c2C(=O)[O-])cc1

>  <Energy>  (45) 
95.11968529094639

>  <Genealogy>  (45) 
[NH-]S(=O)(=O)c1ccc(-n2ccc(-c3cccc(N4CCOCC4)n3)c2C(=O)[O-])cc1 (protonated)
[NH-]S(=O)(=O)c1ccc(-n2ccc(-c3cccc(N4CCOCC4)n3)c2C(=O)[O-])cc1 (3D coordinates assigned)
[NH-]S(=O)(=O)c1ccc(-n2ccc(-c3cccc(N4CCOCC4)n3)c2C(=O)[O-])cc1 (nonaromatic ring conformer: 95.11968529094639 kcal/mol)

>  <smiles>  (45) 
NS(=O)(=O)c1ccc(-n2ccc(-c3cccc(N4CCOCC4)n3)c2C(=O)O)cc1

>  <score_type>  (45) 
oracle

>  <origin>  (45) 
adgpu

>  <m_score__min__energy>  (45) 
-10.98

>  <m_primary>  (45) 
energy

$$$$
45:0
     RDKit          3D

 58 61  0  0  0  0  0  0  0  0999 V2000
   -4.0390   24.5560  -30.7120 O   0  0  0  0  0  0  0  0  0  0  0  0
   -4.6170   23.6930  -29.9970 C   0  0  0  0  0  0  0  0  0  0  0  0
   -4.5600   23.8010  -28.5640 N   0  0  0  0  0  0  0  0  0  0  0  0
   -3.5410   24.5320  -27.8600 C   0  0  0  0  0  0  0  0  0  0  0  0
   -2.3640   24.8960  -28.5290 C   0  0  0  0  0  0  0  0  0  0  0  0
   -1.3680   25.6210  -27.8690 C   0  0  0  0  0  0  0  0  0  0  0  0
   -1.5390   26.0020  -26.5320 C   0  0  0  0  0  0  0  0  0  0  0  0
   -0.2720   26.9000  -25.6930 S   0  0  0  0  0  0  0  0  0  0  0  0
   -0.7550   27.2690  -24.3170 O   0  0  0  0  0  0  0  0  0  0  0  0
    0.0150   28.1710  -26.4420 O   0  0  0  0  0  0  0  0  0  0  0  0
    1.1980   25.9620  -25.5540 N   0  0  0  0  0  0  0  0  0  0  0  0
    1.9530   25.9980  -26.8200 C   0  0  0  0  0  0  0  0  0  0  0  0
    2.9340   24.8170  -26.9000 C   0  0  0  0  0  0  0  0  0  0  0  0
    2.3110   23.5400  -26.8400 O   0  0  0  0  0  0  0  0  0  0  0  0
    1.0360   23.5510  -26.2120 C   0  0  0  0  0  0  0  0  0  0  0  0
    0.9280   24.5870  -25.0780 C   0  0  0  0  0  0  0  0  0  0  0  0
   -2.7280   25.6690  -25.8680 C   0  0  0  0  0  0  0  0  0  0  0  0
   -3.7240   24.9410  -26.5260 C   0  0  0  0  0  0  0  0  0  0  0  0
   -5.3870   22.6040  -30.6460 C   0  0  0  0  0  0  0  0  0  0  0  0
   -4.8120   21.3380  -30.8590 C   0  0  0  0  0  0  0  0  0  0  0  0
   -5.5420   20.3240  -31.4840 C   0  0  0  0  0  0  0  0  0  0  0  0
   -6.8530   20.5580  -31.9150 C   0  0  0  0  0  0  0  0  0  0  0  0
   -7.7670   19.2840  -32.7240 S   0  0  0  0  0  0  0  0  0  0  0  0
   -9.0080   19.8840  -33.3220 O   0  0  0  0  0  0  0  0  0  0  0  0
   -8.1950   18.2630  -31.7070 O   0  0  0  0  0  0  0  0  0  0  0  0
   -6.8460   18.4910  -33.9860 N   0  0  0  0  0  0  0  0  0  0  0  0
   -5.5230   19.1140  -34.2090 C   0  0  0  0  0  0  0  0  0  0  0  0
   -4.3720   18.3170  -33.5740 C   0  0  0  0  0  0  0  0  0  0  0  0
   -4.8210   17.6300  -32.4300 O   0  0  0  0  0  0  0  0  0  0  0  0
   -5.6890   16.5820  -32.8150 C   0  0  0  0  0  0  0  0  0  0  0  0
   -6.7850   17.0280  -33.8110 C   0  0  0  0  0  0  0  0  0  0  0  0
   -7.4330   21.8160  -31.7050 C   0  0  0  0  0  0  0  0  0  0  0  0
   -6.7050   22.8320  -31.0810 C   0  0  0  0  0  0  0  0  0  0  0  0
   -5.3620   23.4250  -28.0110 H   0  0  0  0  0  0  0  0  0  0  0  0
   -2.2233   24.6088  -29.5815 H   0  0  0  0  0  0  0  0  0  0  0  0
   -0.4453   25.8938  -28.4021 H   0  0  0  0  0  0  0  0  0  0  0  0
    1.2484   25.9401  -27.6627 H   0  0  0  0  0  0  0  0  0  0  0  0
    2.5245   26.9368  -26.8650 H   0  0  0  0  0  0  0  0  0  0  0  0
    3.4843   24.8887  -27.8498 H   0  0  0  0  0  0  0  0  0  0  0  0
    3.5918   24.8908  -26.0214 H   0  0  0  0  0  0  0  0  0  0  0  0
    0.2743   23.7826  -26.9710 H   0  0  0  0  0  0  0  0  0  0  0  0
    0.8836   22.5581  -25.7637 H   0  0  0  0  0  0  0  0  0  0  0  0
   -0.0883   24.5497  -24.6588 H   0  0  0  0  0  0  0  0  0  0  0  0
    1.6823   24.3371  -24.3173 H   0  0  0  0  0  0  0  0  0  0  0  0
   -2.8781   25.9820  -24.8242 H   0  0  0  0  0  0  0  0  0  0  0  0
   -4.6551   24.6867  -25.9984 H   0  0  0  0  0  0  0  0  0  0  0  0
   -3.7799   21.1450  -30.5310 H   0  0  0  0  0  0  0  0  0  0  0  0
   -5.0838   19.3359  -31.6383 H   0  0  0  0  0  0  0  0  0  0  0  0
   -5.3459   19.1836  -35.2924 H   0  0  0  0  0  0  0  0  0  0  0  0
   -5.5404   20.1053  -33.7326 H   0  0  0  0  0  0  0  0  0  0  0  0
   -3.9880   17.5905  -34.3052 H   0  0  0  0  0  0  0  0  0  0  0  0
   -3.5750   19.0157  -33.2797 H   0  0  0  0  0  0  0  0  0  0  0  0
   -5.0905   15.7889  -33.2870 H   0  0  0  0  0  0  0  0  0  0  0  0
   -6.1992   16.2317  -31.9056 H   0  0  0  0  0  0  0  0  0  0  0  0
   -6.5790   16.5667  -34.7881 H   0  0  0  0  0  0  0  0  0  0  0  0
   -7.7531   16.7059  -33.3998 H   0  0  0  0  0  0  0  0  0  0  0  0
   -8.4660   22.0045  -32.0329 H   0  0  0  0  0  0  0  0  0  0  0  0
   -7.1665   23.8188  -30.9285 H   0  0  0  0  0  0  0  0  0  0  0  0
  1  2  2  0
  2  3  1  0
  3  4  1  0
  4  5  2  0
  5  6  1  0
  6  7  2  0
  7  8  1  0
  8  9  2  0
  8 10  2  0
  8 11  1  0
 11 12  1  0
 12 13  1  0
 13 14  1  0
 14 15  1  0
 15 16  1  0
  7 17  1  0
 17 18  2  0
  2 19  1  0
 19 20  2  0
 20 21  1  0
 21 22  2  0
 22 23  1  0
 23 24  2  0
 23 25  2  0
 23 26  1  0
 26 27  1  0
 27 28  1  0
 28 29  1  0
 29 30  1  0
 30 31  1  0
 22 32  1  0
 32 33  2  0
 18  4  1  0
 33 19  1  0
 16 11  1  0
 31 26  1  0
  3 34  1  0
  5 35  1  0
  6 36  1  0
 12 37  1  0
 12 38  1  0
 13 39  1  0
 13 40  1  0
 15 41  1  0
 15 42  1  0
 16 43  1  0
 16 44  1  0
 17 45  1  0
 18 46  1  0
 20 47  1  0
 21 48  1  0
 27 49  1  0
 27 50  1  0
 28 51  1  0
 28 52  1  0
 30 53  1  0
 30 54  1  0
 31 55  1  0
 31 56  1  0
 32 57  1  0
 33 58  1  0
M  END
>  <UniqueID>  (46) 
46

>  <SMILES>  (46) 
O=C(Nc1ccc(S(=O)(=O)N2CCOCC2)cc1)c1ccc(S(=O)(=O)N2CCOCC2)cc1

>  <Energy>  (46) 
88.12770903716334

>  <Genealogy>  (46) 
O=C(Nc1ccc(S(=O)(=O)N2CCOCC2)cc1)c1ccc(S(=O)(=O)N2CCOCC2)cc1 (3D coordinates assigned)
O=C(Nc1ccc(S(=O)(=O)N2CCOCC2)cc1)c1ccc(S(=O)(=O)N2CCOCC2)cc1 (nonaromatic ring conformer: 88.12770903716334 kcal/mol)

>  <smiles>  (46) 
O=C(Nc1ccc(S(=O)(=O)N2CCOCC2)cc1)c1ccc(S(=O)(=O)N2CCOCC2)cc1

>  <score_type>  (46) 
oracle

>  <origin>  (46) 
adgpu

>  <m_score__min__energy>  (46) 
-9.5700000000000003

>  <m_primary>  (46) 
energy

$$$$
46:0
     RDKit          3D

 50 53  0  0  0  0  0  0  0  0999 V2000
   -9.4970   19.0200  -32.7090 C   0  0  0  0  0  0  0  0  0  0  0  0
   -9.6080   20.4080  -32.4090 O   0  0  0  0  0  0  0  0  0  0  0  0
   -8.5450   21.2300  -32.0020 C   0  0  0  0  0  0  0  0  0  0  0  0
   -8.6600   22.6310  -31.8980 C   0  0  0  0  0  0  0  0  0  0  0  0
   -7.5610   23.4030  -31.5040 C   0  0  0  0  0  0  0  0  0  0  0  0
   -6.3310   22.7890  -31.2030 C   0  0  0  0  0  0  0  0  0  0  0  0
   -5.1550   23.5980  -30.8360 C   0  0  0  0  0  0  0  0  0  0  0  0
   -5.0060   24.8980  -31.1620 N   0  0  0  0  0  0  0  0  0  0  0  0
   -3.8770   25.3030  -30.6170 N   0  0  0  0  0  0  0  0  0  0  0  0
   -3.3690   24.2390  -29.9670 C   0  0  0  0  0  0  0  0  0  0  0  0
   -1.8540   24.2950  -29.0190 S   0  0  0  0  0  0  0  0  0  0  0  0
   -1.9240   22.5290  -28.5540 C   0  0  0  0  0  0  0  0  0  0  0  0
   -1.4130   21.6760  -29.6810 C   0  0  0  0  0  0  0  0  0  0  0  0
   -2.0870   21.6410  -30.9090 C   0  0  0  0  0  0  0  0  0  0  0  0
   -1.6400   20.7820  -31.9220 C   0  0  0  0  0  0  0  0  0  0  0  0
   -2.5110   20.6910  -33.4580 S   0  0  0  0  0  0  0  0  0  0  0  0
   -3.3150   21.9420  -33.6700 O   0  0  0  0  0  0  0  0  0  0  0  0
   -1.5190   20.5600  -34.5790 O   0  0  0  0  0  0  0  0  0  0  0  0
   -3.6160   19.3150  -33.4740 C   0  0  0  0  0  0  0  0  0  0  0  0
   -4.9760   19.4930  -33.7770 C   0  0  0  0  0  0  0  0  0  0  0  0
   -5.8350   18.3900  -33.8170 C   0  0  0  0  0  0  0  0  0  0  0  0
   -5.3410   17.1060  -33.5710 C   0  0  0  0  0  0  0  0  0  0  0  0
   -3.9850   16.9220  -33.2840 C   0  0  0  0  0  0  0  0  0  0  0  0
   -3.1240   18.0240  -33.2360 C   0  0  0  0  0  0  0  0  0  0  0  0
   -0.5260   19.9600  -31.6810 C   0  0  0  0  0  0  0  0  0  0  0  0
   -0.0810   19.0700  -32.6560 O   0  0  0  0  0  0  0  0  0  0  0  0
    0.1320   20.0330  -30.4420 C   0  0  0  0  0  0  0  0  0  0  0  0
    1.3140   19.1620  -30.1420 C   0  0  0  0  0  0  0  0  0  0  0  0
   -0.3320   20.8800  -29.4840 N   0  0  0  0  0  0  0  0  0  0  0  0
   -4.1290   23.1370  -30.0910 N   0  0  0  0  0  0  0  0  0  0  0  0
   -6.2240   21.3900  -31.2960 C   0  0  0  0  0  0  0  0  0  0  0  0
   -7.3210   20.6210  -31.6950 C   0  0  0  0  0  0  0  0  0  0  0  0
   -9.4510   18.4450  -31.7724 H   0  0  0  0  0  0  0  0  0  0  0  0
  -10.3724   18.7000  -33.2931 H   0  0  0  0  0  0  0  0  0  0  0  0
   -8.5818   18.8432  -33.2931 H   0  0  0  0  0  0  0  0  0  0  0  0
   -9.6182   23.1200  -32.1276 H   0  0  0  0  0  0  0  0  0  0  0  0
   -7.6593   24.4960  -31.4292 H   0  0  0  0  0  0  0  0  0  0  0  0
   -1.3024   22.3631  -27.6618 H   0  0  0  0  0  0  0  0  0  0  0  0
   -2.9676   22.2547  -28.3403 H   0  0  0  0  0  0  0  0  0  0  0  0
   -2.9629   22.2848  -31.0771 H   0  0  0  0  0  0  0  0  0  0  0  0
   -5.3658   20.5008  -33.9830 H   0  0  0  0  0  0  0  0  0  0  0  0
   -6.9020   18.5334  -34.0426 H   0  0  0  0  0  0  0  0  0  0  0  0
   -6.0189   16.2403  -33.6032 H   0  0  0  0  0  0  0  0  0  0  0  0
   -3.5950   15.9108  -33.0959 H   0  0  0  0  0  0  0  0  0  0  0  0
   -2.0574   17.8768  -33.0107 H   0  0  0  0  0  0  0  0  0  0  0  0
    1.4361   19.0721  -29.0525 H   0  0  0  0  0  0  0  0  0  0  0  0
    1.1540   18.1643  -30.5766 H   0  0  0  0  0  0  0  0  0  0  0  0
    2.2196   19.6103  -30.5766 H   0  0  0  0  0  0  0  0  0  0  0  0
   -5.2708   20.8975  -31.0532 H   0  0  0  0  0  0  0  0  0  0  0  0
   -7.2225   19.5279  -31.7686 H   0  0  0  0  0  0  0  0  0  0  0  0
  1  2  1  0
  2  3  1  0
  3  4  2  0
  4  5  1  0
  5  6  2  0
  6  7  1  0
  7  8  2  0
  8  9  1  0
  9 10  1  0
 10 11  1  0
 11 12  1  0
 12 13  1  0
 13 14  2  0
 14 15  1  0
 15 16  1  0
 16 17  2  0
 16 18  2  0
 16 19  1  0
 19 20  2  0
 20 21  1  0
 21 22  2  0
 22 23  1  0
 23 24  2  0
 15 25  2  0
 25 26  1  0
 25 27  1  0
 27 28  1  0
 27 29  2  0
 10 30  2  0
  6 31  1  0
 31 32  2  0
 32  3  1  0
 30  7  1  0
 29 13  1  0
 24 19  1  0
  1 33  1  0
  1 34  1  0
  1 35  1  0
  4 36  1  0
  5 37  1  0
 12 38  1  0
 12 39  1  0
 14 40  1  0
 20 41  1  0
 21 42  1  0
 22 43  1  0
 23 44  1  0
 24 45  1  0
 28 46  1  0
 28 47  1  0
 28 48  1  0
 31 49  1  0
 32 50  1  0
M  CHG  2   9  -1  26  -1
M  END
>  <UniqueID>  (47) 
47

>  <SMILES>  (47) 
COc1ccc(-c2n[n-]c(SCc3cc(S(=O)(=O)c4ccccc4)c([O-])c(C)n3)n2)cc1

>  <Energy>  (47) 
83.7395853190594

>  <Genealogy>  (47) 
COc1ccc(-c2n[n-]c(SCc3cc(S(=O)(=O)c4ccccc4)c([O-])c(C)n3)n2)cc1 (protonated)
COc1ccc(-c2n[n-]c(SCc3cc(S(=O)(=O)c4ccccc4)c([O-])c(C)n3)n2)cc1 (3D coordinates assigned)
COc1ccc(-c2n[n-]c(SCc3cc(S(=O)(=O)c4ccccc4)c([O-])c(C)n3)n2)cc1 (optimized conformer: 83.7395853190594 kcal/mol)

>  <smiles>  (47) 
COc1ccc(-c2n[nH]c(SCc3cc(S(=O)(=O)c4ccccc4)c(O)c(C)n3)n2)cc1

>  <score_type>  (47) 
oracle

>  <origin>  (47) 
adgpu

>  <m_score__min__energy>  (47) 
-12.57

>  <m_primary>  (47) 
energy

$$$$
47:0
     RDKit          3D

 52 54  0  0  0  0  0  0  0  0999 V2000
    1.3940   28.3650  -22.2270 C   0  0  0  0  0  0  0  0  0  0  0  0
    0.9310   27.7740  -23.5190 C   0  0  0  0  0  0  0  0  0  0  0  0
    0.4850   28.5380  -24.4180 O   0  0  0  0  0  0  0  0  0  0  0  0
    0.9030   26.3480  -23.6870 N   0  0  0  0  0  0  0  0  0  0  0  0
    0.6780   25.6860  -24.9430 C   0  0  0  0  0  0  0  0  0  0  0  0
    1.6700   25.7350  -25.9350 C   0  0  0  0  0  0  0  0  0  0  0  0
    1.4670   25.1150  -27.1720 C   0  0  0  0  0  0  0  0  0  0  0  0
    0.2700   24.4380  -27.4310 C   0  0  0  0  0  0  0  0  0  0  0  0
    0.0100   23.6370  -29.0150 S   0  0  0  0  0  0  0  0  0  0  0  0
   -1.1780   22.4500  -28.3620 C   0  0  0  0  0  0  0  0  0  0  0  0
   -0.6740   21.2420  -27.8620 C   0  0  0  0  0  0  0  0  0  0  0  0
   -1.5290   20.2810  -27.3230 C   0  0  0  0  0  0  0  0  0  0  0  0
   -2.9070   20.5110  -27.2800 C   0  0  0  0  0  0  0  0  0  0  0  0
   -3.7840   19.5310  -26.7190 N   0  0  0  0  0  0  0  0  0  0  0  0
   -3.4240   21.7070  -27.7930 C   0  0  0  0  0  0  0  0  0  0  0  0
   -2.5760   22.6790  -28.3500 C   0  0  0  0  0  0  0  0  0  0  0  0
   -3.3190   24.1560  -28.9850 S   0  0  0  0  0  0  0  0  0  0  0  0
   -4.5240   24.4840  -28.1500 O   0  0  0  0  0  0  0  0  0  0  0  0
   -2.3570   25.3090  -28.9630 O   0  0  0  0  0  0  0  0  0  0  0  0
   -3.8090   23.8840  -30.6270 N   0  0  0  0  0  0  0  0  0  0  0  0
   -5.0490   23.2590  -30.9730 C   0  0  0  0  0  0  0  0  0  0  0  0
   -5.0090   22.0030  -31.5880 C   0  0  0  0  0  0  0  0  0  0  0  0
   -6.1900   21.3380  -31.9210 C   0  0  0  0  0  0  0  0  0  0  0  0
   -7.4320   21.9310  -31.6600 C   0  0  0  0  0  0  0  0  0  0  0  0
   -8.6970   21.1870  -31.9750 C   0  0  0  0  0  0  0  0  0  0  0  0
   -7.4790   23.1970  -31.0580 C   0  0  0  0  0  0  0  0  0  0  0  0
   -6.2970   23.8850  -30.7400 C   0  0  0  0  0  0  0  0  0  0  0  0
   -6.3900   25.2700  -30.1590 C   0  0  0  0  0  0  0  0  0  0  0  0
   -0.7430   24.4290  -26.4680 C   0  0  0  0  0  0  0  0  0  0  0  0
   -0.5450   25.0490  -25.2320 C   0  0  0  0  0  0  0  0  0  0  0  0
    0.9546   27.8041  -21.3889 H   0  0  0  0  0  0  0  0  0  0  0  0
    2.4911   28.3091  -22.1705 H   0  0  0  0  0  0  0  0  0  0  0  0
    1.0771   29.4168  -22.1705 H   0  0  0  0  0  0  0  0  0  0  0  0
    0.9770   25.7570  -22.8270 H   0  0  0  0  0  0  0  0  0  0  0  0
    2.6137   26.2648  -25.7380 H   0  0  0  0  0  0  0  0  0  0  0  0
    2.2501   25.1596  -27.9432 H   0  0  0  0  0  0  0  0  0  0  0  0
    0.4085   21.0494  -27.8950 H   0  0  0  0  0  0  0  0  0  0  0  0
   -1.1177   19.3393  -26.9306 H   0  0  0  0  0  0  0  0  0  0  0  0
   -4.6860   19.8120  -26.2730 H   0  0  0  0  0  0  0  0  0  0  0  0
   -3.5350   18.5160  -26.7430 H   0  0  0  0  0  0  0  0  0  0  0  0
   -4.5085   21.8879  -27.7595 H   0  0  0  0  0  0  0  0  0  0  0  0
   -4.0385   21.5356  -31.8110 H   0  0  0  0  0  0  0  0  0  0  0  0
   -6.1454   20.3441  -32.3903 H   0  0  0  0  0  0  0  0  0  0  0  0
   -9.1936   20.8949  -31.0380 H   0  0  0  0  0  0  0  0  0  0  0  0
   -9.3675   21.8346  -32.5589 H   0  0  0  0  0  0  0  0  0  0  0  0
   -8.4569   20.2862  -32.5589 H   0  0  0  0  0  0  0  0  0  0  0  0
   -8.4529   23.6561  -30.8325 H   0  0  0  0  0  0  0  0  0  0  0  0
   -6.3858   25.2080  -29.0608 H   0  0  0  0  0  0  0  0  0  0  0  0
   -5.5299   25.8674  -30.4958 H   0  0  0  0  0  0  0  0  0  0  0  0
   -7.3222   25.7471  -30.4958 H   0  0  0  0  0  0  0  0  0  0  0  0
   -1.7000   23.9317  -26.6843 H   0  0  0  0  0  0  0  0  0  0  0  0
   -1.3481   25.0398  -24.4804 H   0  0  0  0  0  0  0  0  0  0  0  0
  1  2  1  0
  2  3  2  0
  2  4  1  0
  4  5  1  0
  5  6  2  0
  6  7  1  0
  7  8  2  0
  8  9  1  0
  9 10  1  0
 10 11  2  0
 11 12  1  0
 12 13  2  0
 13 14  1  0
 13 15  1  0
 15 16  2  0
 16 17  1  0
 17 18  2  0
 17 19  2  0
 17 20  1  0
 20 21  1  0
 21 22  2  0
 22 23  1  0
 23 24  2  0
 24 25  1  0
 24 26  1  0
 26 27  2  0
 27 28  1  0
  8 29  1  0
 29 30  2  0
 30  5  1  0
 16 10  1  0
 27 21  1  0
  1 31  1  0
  1 32  1  0
  1 33  1  0
  4 34  1  0
  6 35  1  0
  7 36  1  0
 11 37  1  0
 12 38  1  0
 14 39  1  0
 14 40  1  0
 15 41  1  0
 22 42  1  0
 23 43  1  0
 25 44  1  0
 25 45  1  0
 25 46  1  0
 26 47  1  0
 28 48  1  0
 28 49  1  0
 28 50  1  0
 29 51  1  0
 30 52  1  0
M  CHG  1  20  -1
M  END
>  <UniqueID>  (48) 
48

>  <SMILES>  (48) 
CC(=O)Nc1ccc(Sc2ccc(N)cc2S(=O)(=O)[N-]c2ccc(C)cc2C)cc1

>  <Energy>  (48) 
61.642985838040104

>  <Genealogy>  (48) 
CC(=O)Nc1ccc(Sc2ccc(N)cc2S(=O)(=O)[N-]c2ccc(C)cc2C)cc1 (protonated)
CC(=O)Nc1ccc(Sc2ccc(N)cc2S(=O)(=O)[N-]c2ccc(C)cc2C)cc1 (3D coordinates assigned)
CC(=O)Nc1ccc(Sc2ccc(N)cc2S(=O)(=O)[N-]c2ccc(C)cc2C)cc1 (optimized conformer: 61.642985838040104 kcal/mol)

>  <smiles>  (48) 
CC(=O)Nc1ccc(Sc2ccc(N)cc2S(=O)(=O)Nc2ccc(C)cc2C)cc1

>  <score_type>  (48) 
oracle

>  <origin>  (48) 
adgpu

>  <m_score__min__energy>  (48) 
-10.640000000000001

>  <m_primary>  (48) 
energy

$$$$
48:0
     RDKit          3D

 41 42  0  0  0  0  0  0  0  0999 V2000
   -1.0270   24.1650  -30.3670 H   0  0  0  0  0  0  0  0  0  0  0  0
   -0.8650   23.1700  -30.4480 O   0  0  0  0  0  0  0  0  0  0  0  0
   -1.2590   22.2550  -29.4690 C   0  0  0  0  0  0  0  0  0  0  0  0
   -2.1130   21.2090  -29.8410 C   0  0  0  0  0  0  0  0  0  0  0  0
   -2.4595   21.1312  -30.8821 H   0  0  0  0  0  0  0  0  0  0  0  0
   -2.5280   20.2640  -28.9000 C   0  0  0  0  0  0  0  0  0  0  0  0
   -3.1932   19.4420  -29.2030 H   0  0  0  0  0  0  0  0  0  0  0  0
   -2.0990   20.3620  -27.5750 C   0  0  0  0  0  0  0  0  0  0  0  0
   -2.6810   19.0780  -26.2850 Br  0  0  0  0  0  0  0  0  0  0  0  0
   -1.2520   21.4040  -27.1900 C   0  0  0  0  0  0  0  0  0  0  0  0
   -0.9283   21.4852  -26.1419 H   0  0  0  0  0  0  0  0  0  0  0  0
   -0.8100   22.3500  -28.1320 C   0  0  0  0  0  0  0  0  0  0  0  0
    0.0410   23.4800  -27.6960 C   0  0  0  0  0  0  0  0  0  0  0  0
    1.0822   23.2573  -27.4199 H   0  0  0  0  0  0  0  0  0  0  0  0
   -0.3650   24.7560  -27.6130 C   0  0  0  0  0  0  0  0  0  0  0  0
    0.4001   25.5199  -27.4103 H   0  0  0  0  0  0  0  0  0  0  0  0
   -1.7620   25.2150  -27.7730 C   0  0  0  0  0  0  0  0  0  0  0  0
   -2.4090   25.6410  -26.7800 O   0  0  0  0  0  0  0  0  0  0  0  0
   -2.3660   25.2970  -29.0700 N   0  0  0  0  0  0  0  0  0  0  0  0
   -3.5460   24.6040  -29.5000 C   0  0  0  0  0  0  0  0  0  0  0  0
   -4.0570   23.5030  -28.7880 C   0  0  0  0  0  0  0  0  0  0  0  0
   -3.5352   23.1410  -27.8899 H   0  0  0  0  0  0  0  0  0  0  0  0
   -5.2250   22.8680  -29.2180 C   0  0  0  0  0  0  0  0  0  0  0  0
   -5.6115   21.9988  -28.6657 H   0  0  0  0  0  0  0  0  0  0  0  0
   -5.9060   23.3350  -30.3510 C   0  0  0  0  0  0  0  0  0  0  0  0
   -7.3700   22.5290  -30.9130 S   0  0  0  0  0  0  0  0  0  0  0  0
   -8.3030   22.2950  -29.7570 O   0  0  0  0  0  0  0  0  0  0  0  0
   -8.0570   23.4230  -31.9080 O   0  0  0  0  0  0  0  0  0  0  0  0
   -6.9550   21.0110  -31.6700 N   0  0  0  0  0  0  0  0  0  0  0  0
   -8.1440   20.4490  -32.3230 C   0  0  0  0  0  0  0  0  0  0  0  0
   -8.8579   20.1116  -31.5572 H   0  0  0  0  0  0  0  0  0  0  0  0
   -8.6162   21.2192  -32.9505 H   0  0  0  0  0  0  0  0  0  0  0  0
   -7.8486   19.5952  -32.9505 H   0  0  0  0  0  0  0  0  0  0  0  0
   -5.8950   21.2360  -32.6600 C   0  0  0  0  0  0  0  0  0  0  0  0
   -4.9459   21.4375  -32.1417 H   0  0  0  0  0  0  0  0  0  0  0  0
   -5.7858   20.3410  -33.2901 H   0  0  0  0  0  0  0  0  0  0  0  0
   -6.1588   22.0982  -33.2901 H   0  0  0  0  0  0  0  0  0  0  0  0
   -5.4100   24.4440  -31.0470 C   0  0  0  0  0  0  0  0  0  0  0  0
   -5.9414   24.8161  -31.9354 H   0  0  0  0  0  0  0  0  0  0  0  0
   -4.2420   25.0800  -30.6170 C   0  0  0  0  0  0  0  0  0  0  0  0
   -3.8674   25.9603  -31.1600 H   0  0  0  0  0  0  0  0  0  0  0  0
  1  2  1  0
  2  3  1  0
  3  4  2  0
  4  5  1  0
  4  6  1  0
  6  7  1  0
  6  8  2  0
  8  9  1  0
  8 10  1  0
 10 11  1  0
 10 12  2  0
 12 13  1  0
 13 14  1  0
 13 15  2  0
 15 16  1  0
 15 17  1  0
 17 18  2  0
 17 19  1  0
 19 20  1  0
 20 21  2  0
 21 22  1  0
 21 23  1  0
 23 24  1  0
 23 25  2  0
 25 26  1  0
 26 27  2  0
 26 28  2  0
 26 29  1  0
 29 30  1  0
 30 31  1  0
 30 32  1  0
 30 33  1  0
 29 34  1  0
 34 35  1  0
 34 36  1  0
 34 37  1  0
 25 38  1  0
 38 39  1  0
 38 40  2  0
 40 41  1  0
 12  3  1  0
 40 20  1  0
M  CHG  1  19  -1
M  END
>  <UniqueID>  (49) 
49

>  <SMILES>  (49) 
CN(C)S(=O)(=O)c1ccc([N-]C(=O)/C=C\c2cc(Br)ccc2O)cc1

>  <Energy>  (49) 
51.55602718390001

>  <Genealogy>  (49) 
CN(C)S(=O)(=O)c1ccc([N-]C(=O)C=Cc2cc(Br)ccc2O)cc1 (protonated)
CN(C)S(=O)(=O)c1ccc([N-]C(=O)/C=C\c2cc(Br)ccc2O)cc1 (cis-trans isomerization)
CN(C)S(=O)(=O)c1ccc([N-]C(=O)/C=C\c2cc(Br)ccc2O)cc1 (3D coordinates assigned)
CN(C)S(=O)(=O)c1ccc([N-]C(=O)/C=C\c2cc(Br)ccc2O)cc1 (optimized conformer: 51.55602718390001 kcal/mol)

>  <smiles>  (49) 
CN(C)S(=O)(=O)c1ccc(NC(=O)C=Cc2cc(Br)ccc2O)cc1

>  <score_type>  (49) 
oracle

>  <origin>  (49) 
adgpu

>  <m_score__min__energy>  (49) 
-11.16

>  <m_primary>  (49) 
energy

$$$$
