0:0
     RDKit          3D

 32 33  0  0  0  0  0  0  0  0999 V2000
   -4.0569   19.8938  -30.3518 H   0  0  0  0  0  0  0  0  0  0  0  0
   -4.3450   20.8360  -30.8410 C   0  0  0  0  0  0  0  0  0  0  0  0
   -5.3250   20.8010  -31.7600 C   0  0  0  0  0  0  0  0  0  0  0  0
   -5.6126   21.7431  -32.2497 H   0  0  0  0  0  0  0  0  0  0  0  0
   -6.0400   19.5610  -32.1500 C   0  0  0  0  0  0  0  0  0  0  0  0
   -5.3740   18.6340  -32.9680 C   0  0  0  0  0  0  0  0  0  0  0  0
   -4.3438   18.8369  -33.2959 H   0  0  0  0  0  0  0  0  0  0  0  0
   -6.0100   17.4550  -33.3690 C   0  0  0  0  0  0  0  0  0  0  0  0
   -5.4753   16.7314  -34.0018 H   0  0  0  0  0  0  0  0  0  0  0  0
   -7.3200   17.1940  -32.9690 C   0  0  0  0  0  0  0  0  0  0  0  0
   -7.8145   16.2628  -33.2826 H   0  0  0  0  0  0  0  0  0  0  0  0
   -8.0080   18.1160  -32.1680 C   0  0  0  0  0  0  0  0  0  0  0  0
   -9.3570   17.8550  -31.7720 N   0  0  0  0  0  0  0  0  0  0  0  0
  -10.1560   18.0900  -32.4030 H   0  0  0  0  0  0  0  0  0  0  0  0
   -9.5700   17.4220  -30.8450 H   0  0  0  0  0  0  0  0  0  0  0  0
   -7.3700   19.2980  -31.7640 C   0  0  0  0  0  0  0  0  0  0  0  0
   -7.9116   20.0252  -31.1413 H   0  0  0  0  0  0  0  0  0  0  0  0
   -3.6300   22.0770  -30.4500 C   0  0  0  0  0  0  0  0  0  0  0  0
   -2.3540   22.0590  -29.8520 C   0  0  0  0  0  0  0  0  0  0  0  0
   -1.8488   21.0992  -29.6687 H   0  0  0  0  0  0  0  0  0  0  0  0
   -1.7280   23.2540  -29.4910 C   0  0  0  0  0  0  0  0  0  0  0  0
   -0.7281   23.2309  -29.0331 H   0  0  0  0  0  0  0  0  0  0  0  0
   -2.3640   24.4780  -29.7080 C   0  0  0  0  0  0  0  0  0  0  0  0
   -1.7250   25.6570  -29.3440 O   0  0  0  0  0  0  0  0  0  0  0  0
   -3.6390   24.5190  -30.2860 C   0  0  0  0  0  0  0  0  0  0  0  0
   -4.2450   25.7710  -30.4810 O   0  0  0  0  0  0  0  0  0  0  0  0
   -5.6480   26.0040  -30.4210 C   0  0  0  0  0  0  0  0  0  0  0  0
   -5.9663   26.0569  -29.3694 H   0  0  0  0  0  0  0  0  0  0  0  0
   -5.8838   26.9536  -30.9236 H   0  0  0  0  0  0  0  0  0  0  0  0
   -6.1781   25.1816  -30.9236 H   0  0  0  0  0  0  0  0  0  0  0  0
   -4.2690   23.3130  -30.6490 C   0  0  0  0  0  0  0  0  0  0  0  0
   -5.2746   23.3386  -31.0942 H   0  0  0  0  0  0  0  0  0  0  0  0
  1  2  1  0
  2  3  2  0
  3  4  1  0
  3  5  1  0
  5  6  2  0
  6  7  1  0
  6  8  1  0
  8  9  1  0
  8 10  2  0
 10 11  1  0
 10 12  1  0
 12 13  1  0
 13 14  1  0
 13 15  1  0
 12 16  2  0
 16 17  1  0
  2 18  1  0
 18 19  2  0
 19 20  1  0
 19 21  1  0
 21 22  1  0
 21 23  2  0
 23 24  1  0
 23 25  1  0
 25 26  1  0
 26 27  1  0
 27 28  1  0
 27 29  1  0
 27 30  1  0
 25 31  2  0
 31 32  1  0
 16  5  1  0
 31 18  1  0
M  CHG  1  24  -1
M  END
>  <UniqueID>  (1) 
1

>  <SMILES>  (1) 
COc1cc(/C=C/c2cccc(N)c2)ccc1[O-]

>  <Energy>  (1) 
36.395103389966614

>  <Genealogy>  (1) 
COc1cc(C=Cc2cccc(N)c2)ccc1[O-] (protonated)
COc1cc(/C=C/c2cccc(N)c2)ccc1[O-] (cis-trans isomerization)
COc1cc(/C=C/c2cccc(N)c2)ccc1[O-] (3D coordinates assigned)
COc1cc(/C=C/c2cccc(N)c2)ccc1[O-] (optimized conformer: 36.395103389966614 kcal/mol)

>  <smiles>  (1) 
COc1cc(C=Cc2cccc(N)c2)ccc1O

>  <score_type>  (1) 
oracle

>  <origin>  (1) 
adgpu

>  <m_score__min__energy>  (1) 
-9.7200000000000006

>  <m_primary>  (1) 
energy

$$$$
1:0
     RDKit          3D

 58 61  0  0  0  0  0  0  0  0999 V2000
   -9.2540   21.0010  -32.0870 C   0  0  0  0  0  0  0  0  0  0  0  0
   -7.9260   21.6730  -31.8560 C   0  0  0  0  0  0  0  0  0  0  0  0
   -7.9300   23.0530  -31.5990 C   0  0  0  0  0  0  0  0  0  0  0  0
   -6.7430   23.7470  -31.3910 C   0  0  0  0  0  0  0  0  0  0  0  0
   -5.5140   23.0840  -31.4870 C   0  0  0  0  0  0  0  0  0  0  0  0
   -4.2590   23.7680  -31.3120 N   0  0  0  0  0  0  0  0  0  0  0  0
   -3.9600   24.8940  -30.4780 C   0  0  0  0  0  0  0  0  0  0  0  0
   -4.6990   25.9120  -30.4870 O   0  0  0  0  0  0  0  0  0  0  0  0
   -2.7460   24.9300  -29.7190 N   0  0  0  0  0  0  0  0  0  0  0  0
   -2.0370   23.8020  -29.1830 C   0  0  0  0  0  0  0  0  0  0  0  0
   -1.6390   23.8340  -27.8410 C   0  0  0  0  0  0  0  0  0  0  0  0
   -0.9520   22.7530  -27.2780 C   0  0  0  0  0  0  0  0  0  0  0  0
   -0.6670   21.6250  -28.0500 C   0  0  0  0  0  0  0  0  0  0  0  0
   -1.0800   21.5680  -29.3880 C   0  0  0  0  0  0  0  0  0  0  0  0
   -0.6420   20.1840  -30.3880 S   0  0  0  0  0  0  0  0  0  0  0  0
   -0.7200   18.9270  -29.5660 O   0  0  0  0  0  0  0  0  0  0  0  0
    0.7700   20.3430  -30.8760 O   0  0  0  0  0  0  0  0  0  0  0  0
   -1.7560   20.0740  -31.7230 N   0  0  0  0  0  0  0  0  0  0  0  0
   -1.4670   21.0770  -32.7470 C   0  0  0  0  0  0  0  0  0  0  0  0
   -1.9830   20.5140  -34.0590 C   0  0  0  0  0  0  0  0  0  0  0  0
   -2.0250   19.0070  -33.8570 C   0  0  0  0  0  0  0  0  0  0  0  0
   -1.6530   18.7800  -32.3970 C   0  0  0  0  0  0  0  0  0  0  0  0
   -1.7860   22.6460  -29.9460 C   0  0  0  0  0  0  0  0  0  0  0  0
   -5.4840   21.7030  -31.7230 C   0  0  0  0  0  0  0  0  0  0  0  0
   -4.2290   21.0990  -31.8570 O   0  0  0  0  0  0  0  0  0  0  0  0
   -6.6930   20.9650  -31.8480 C   0  0  0  0  0  0  0  0  0  0  0  0
   -6.6270   19.1820  -31.9640 S   0  0  0  0  0  0  0  0  0  0  0  0
   -5.3720   18.7140  -31.2790 O   0  0  0  0  0  0  0  0  0  0  0  0
   -7.7730   18.5500  -31.2220 O   0  0  0  0  0  0  0  0  0  0  0  0
   -6.5930   18.5720  -33.6640 C   0  0  0  0  0  0  0  0  0  0  0  0
   -6.3260   17.0730  -33.8260 C   0  0  0  0  0  0  0  0  0  0  0  0
   -5.0460   17.3850  -34.5870 C   0  0  0  0  0  0  0  0  0  0  0  0
   -5.3020   18.8790  -34.4220 C   0  0  0  0  0  0  0  0  0  0  0  0
   -9.7192   20.7656  -31.1184 H   0  0  0  0  0  0  0  0  0  0  0  0
   -9.9119   21.6747  -32.6556 H   0  0  0  0  0  0  0  0  0  0  0  0
   -9.1008   20.0719  -32.6556 H   0  0  0  0  0  0  0  0  0  0  0  0
   -8.8871   23.5939  -31.5616 H   0  0  0  0  0  0  0  0  0  0  0  0
   -6.7700   24.8200  -31.1504 H   0  0  0  0  0  0  0  0  0  0  0  0
   -1.8682   24.7158  -27.2246 H   0  0  0  0  0  0  0  0  0  0  0  0
   -0.6358   22.7918  -26.2251 H   0  0  0  0  0  0  0  0  0  0  0  0
   -0.1180   20.7806  -27.6077 H   0  0  0  0  0  0  0  0  0  0  0  0
   -1.9803   22.0207  -32.5103 H   0  0  0  0  0  0  0  0  0  0  0  0
   -0.3893   21.2905  -32.8020 H   0  0  0  0  0  0  0  0  0  0  0  0
   -2.9890   20.9023  -34.2763 H   0  0  0  0  0  0  0  0  0  0  0  0
   -1.3435   20.7974  -34.9079 H   0  0  0  0  0  0  0  0  0  0  0  0
   -3.0343   18.6200  -34.0609 H   0  0  0  0  0  0  0  0  0  0  0  0
   -1.3372   18.4852  -34.5386 H   0  0  0  0  0  0  0  0  0  0  0  0
   -2.3458   18.0590  -31.9384 H   0  0  0  0  0  0  0  0  0  0  0  0
   -0.6351   18.3722  -32.3102 H   0  0  0  0  0  0  0  0  0  0  0  0
   -2.1446   22.5868  -30.9842 H   0  0  0  0  0  0  0  0  0  0  0  0
   -3.9200   20.3170  -31.3000 H   0  0  0  0  0  0  0  0  0  0  0  0
   -7.5545   18.9953  -33.9901 H   0  0  0  0  0  0  0  0  0  0  0  0
   -6.1661   16.5400  -32.8772 H   0  0  0  0  0  0  0  0  0  0  0  0
   -7.0899   16.4152  -34.2663 H   0  0  0  0  0  0  0  0  0  0  0  0
   -4.1314   17.0298  -34.0897 H   0  0  0  0  0  0  0  0  0  0  0  0
   -4.8784   16.9589  -35.5872 H   0  0  0  0  0  0  0  0  0  0  0  0
   -4.5422   19.4016  -33.8223 H   0  0  0  0  0  0  0  0  0  0  0  0
   -5.3150   19.5425  -35.2992 H   0  0  0  0  0  0  0  0  0  0  0  0
  1  2  1  0
  2  3  2  0
  3  4  1  0
  4  5  2  0
  5  6  1  0
  6  7  1  0
  7  8  2  0
  7  9  1  0
  9 10  1  0
 10 11  2  0
 11 12  1  0
 12 13  2  0
 13 14  1  0
 14 15  1  0
 15 16  2  0
 15 17  2  0
 15 18  1  0
 18 19  1  0
 19 20  1  0
 20 21  1  0
 21 22  1  0
 14 23  2  0
  5 24  1  0
 24 25  1  0
 24 26  2  0
 26 27  1  0
 27 28  2  0
 27 29  2  0
 27 30  1  0
 30 31  1  0
 31 32  1  0
 32 33  1  0
 26  2  1  0
 33 30  1  0
 23 10  1  0
 22 18  1  0
  1 34  1  0
  1 35  1  0
  1 36  1  0
  3 37  1  0
  4 38  1  0
 11 39  1  0
 12 40  1  0
 13 41  1  0
 19 42  1  0
 19 43  1  0
 20 44  1  0
 20 45  1  0
 21 46  1  0
 21 47  1  0
 22 48  1  0
 22 49  1  0
 23 50  1  0
 25 51  1  0
 30 52  1  0
 31 53  1  0
 31 54  1  0
 32 55  1  0
 32 56  1  0
 33 57  1  0
 33 58  1  0
M  CHG  2   6  -1   9  -1
M  END
>  <UniqueID>  (2) 
2

>  <SMILES>  (2) 
Cc1ccc([N-]C(=O)[N-]c2cccc(S(=O)(=O)N3CCCC3)c2)c(O)c1S(=O)(=O)C1CCC1

>  <Energy>  (2) 
134.07701111553789

>  <Genealogy>  (2) 
Cc1ccc([N-]C(=O)[N-]c2cccc(S(=O)(=O)N3CCCC3)c2)c(O)c1S(=O)(=O)C1CCC1 (protonated)
Cc1ccc([N-]C(=O)[N-]c2cccc(S(=O)(=O)N3CCCC3)c2)c(O)c1S(=O)(=O)C1CCC1 (3D coordinates assigned)
Cc1ccc([N-]C(=O)[N-]c2cccc(S(=O)(=O)N3CCCC3)c2)c(O)c1S(=O)(=O)C1CCC1 (nonaromatic ring conformer: 134.07701111553789 kcal/mol)

>  <smiles>  (2) 
Cc1ccc(NC(=O)Nc2cccc(S(=O)(=O)N3CCCC3)c2)c(O)c1S(=O)(=O)C1CCC1

>  <score_type>  (2) 
oracle

>  <origin>  (2) 
adgpu

>  <m_score__min__energy>  (2) 
-13.460000000000001

>  <m_primary>  (2) 
energy

$$$$
2:0
     RDKit          3D

 42 44  0  0  0  0  0  0  0  0999 V2000
    1.1008   19.1778  -34.2319 H   0  0  0  0  0  0  0  0  0  0  0  0
    1.1390   20.1870  -34.6680 C   0  0  0  0  0  0  0  0  0  0  0  0
    2.2170   20.7100  -35.8500 S   0  0  0  0  0  0  0  0  0  0  0  0
    1.5640   22.2580  -35.8880 C   0  0  0  0  0  0  0  0  0  0  0  0
    1.9830   23.1900  -36.6890 N   0  0  0  0  0  0  0  0  0  0  0  0
    1.4600   24.5250  -36.7740 C   0  0  0  0  0  0  0  0  0  0  0  0
    1.0540   25.0000  -37.8680 O   0  0  0  0  0  0  0  0  0  0  0  0
    1.4470   25.3870  -35.5540 C   0  0  0  0  0  0  0  0  0  0  0  0
    1.4566   24.7517  -34.6561 H   0  0  0  0  0  0  0  0  0  0  0  0
    2.3355   26.0356  -35.5538 H   0  0  0  0  0  0  0  0  0  0  0  0
    0.5394   26.0085  -35.5538 H   0  0  0  0  0  0  0  0  0  0  0  0
    0.5400   22.4060  -35.0160 N   0  0  0  0  0  0  0  0  0  0  0  0
    0.3020   21.2530  -34.3360 C   0  0  0  0  0  0  0  0  0  0  0  0
   -0.7870   21.1560  -33.3490 C   0  0  0  0  0  0  0  0  0  0  0  0
   -0.6750   21.7530  -32.2450 O   0  0  0  0  0  0  0  0  0  0  0  0
   -1.9730   20.3970  -33.6140 N   0  0  0  0  0  0  0  0  0  0  0  0
   -3.2990   20.7780  -33.2090 C   0  0  0  0  0  0  0  0  0  0  0  0
   -4.3820   19.9550  -33.5450 C   0  0  0  0  0  0  0  0  0  0  0  0
   -4.2146   19.0485  -34.1452 H   0  0  0  0  0  0  0  0  0  0  0  0
   -5.6760   20.2800  -33.1210 C   0  0  0  0  0  0  0  0  0  0  0  0
   -6.5222   19.6321  -33.3932 H   0  0  0  0  0  0  0  0  0  0  0  0
   -5.8940   21.4270  -32.3520 C   0  0  0  0  0  0  0  0  0  0  0  0
   -6.9112   21.6746  -32.0143 H   0  0  0  0  0  0  0  0  0  0  0  0
   -4.8210   22.2640  -32.0090 C   0  0  0  0  0  0  0  0  0  0  0  0
   -5.0720   23.4180  -31.1940 N   0  0  0  0  0  0  0  0  0  0  0  0
   -4.0970   24.0790  -30.3700 C   0  0  0  0  0  0  0  0  0  0  0  0
   -3.8670   25.3090  -30.5330 O   0  0  0  0  0  0  0  0  0  0  0  0
   -3.3410   23.3030  -29.3540 C   0  0  0  0  0  0  0  0  0  0  0  0
   -3.8380   22.0450  -28.9620 C   0  0  0  0  0  0  0  0  0  0  0  0
   -4.8063   21.6971  -29.3510 H   0  0  0  0  0  0  0  0  0  0  0  0
   -3.1130   21.2330  -28.0830 C   0  0  0  0  0  0  0  0  0  0  0  0
   -3.5227   20.2606  -27.7720 H   0  0  0  0  0  0  0  0  0  0  0  0
   -1.8780   21.6490  -27.6010 C   0  0  0  0  0  0  0  0  0  0  0  0
   -1.2934   20.9915  -26.9408 H   0  0  0  0  0  0  0  0  0  0  0  0
   -1.3820   22.9030  -27.9570 C   0  0  0  0  0  0  0  0  0  0  0  0
   -0.4067   23.2308  -27.5680 H   0  0  0  0  0  0  0  0  0  0  0  0
   -2.1110   23.7540  -28.8060 C   0  0  0  0  0  0  0  0  0  0  0  0
   -1.6120   25.0790  -29.0450 N   0  0  0  0  0  0  0  0  0  0  0  0
   -1.9910   25.6800  -29.8090 H   0  0  0  0  0  0  0  0  0  0  0  0
   -0.9570   25.5260  -28.3700 H   0  0  0  0  0  0  0  0  0  0  0  0
   -3.5200   21.9200  -32.4190 C   0  0  0  0  0  0  0  0  0  0  0  0
   -2.6690   22.5493  -32.1192 H   0  0  0  0  0  0  0  0  0  0  0  0
  1  2  1  0
  2  3  1  0
  3  4  1  0
  4  5  2  0
  5  6  1  0
  6  7  2  0
  6  8  1  0
  8  9  1  0
  8 10  1  0
  8 11  1  0
  4 12  1  0
 12 13  1  0
 13 14  1  0
 14 15  2  0
 14 16  1  0
 16 17  1  0
 17 18  2  0
 18 19  1  0
 18 20  1  0
 20 21  1  0
 20 22  2  0
 22 23  1  0
 22 24  1  0
 24 25  1  0
 25 26  1  0
 26 27  2  0
 26 28  1  0
 28 29  2  0
 29 30  1  0
 29 31  1  0
 31 32  1  0
 31 33  2  0
 33 34  1  0
 33 35  1  0
 35 36  1  0
 35 37  2  0
 37 38  1  0
 38 39  1  0
 38 40  1  0
 24 41  2  0
 41 42  1  0
 13  2  2  0
 41 17  1  0
 37 28  1  0
M  CHG  3  12  -1  16  -1  25  -1
M  END
>  <UniqueID>  (3) 
3

>  <SMILES>  (3) 
CC(=O)/N=c1\[n-]c(C(=O)[N-]c2cccc([N-]C(=O)c3ccccc3N)c2)cs1

>  <Energy>  (3) 
88.45957770410376

>  <Genealogy>  (3) 
CC(=O)N=c1[n-]c(C(=O)[N-]c2cccc([N-]C(=O)c3ccccc3N)c2)cs1 (protonated)
CC(=O)/N=c1\[n-]c(C(=O)[N-]c2cccc([N-]C(=O)c3ccccc3N)c2)cs1 (cis-trans isomerization)
CC(=O)/N=c1\[n-]c(C(=O)[N-]c2cccc([N-]C(=O)c3ccccc3N)c2)cs1 (3D coordinates assigned)
CC(=O)/N=c1\[n-]c(C(=O)[N-]c2cccc([N-]C(=O)c3ccccc3N)c2)cs1 (optimized conformer: 88.45957770410376 kcal/mol)

>  <smiles>  (3) 
CC(=O)N=c1[nH]c(C(=O)Nc2cccc(NC(=O)c3ccccc3N)c2)cs1

>  <score_type>  (3) 
oracle

>  <origin>  (3) 
adgpu

>  <m_score__min__energy>  (3) 
-10.6

>  <m_primary>  (3) 
energy

$$$$
3:0
     RDKit          3D

 54 57  0  0  0  0  0  0  0  0999 V2000
   -9.2380   21.2170  -32.5940 O   0  0  0  0  0  0  0  0  0  0  0  0
   -8.2730   20.6270  -31.5990 S   0  0  0  0  0  0  0  0  0  0  0  0
   -8.9110   19.4120  -30.9730 O   0  0  0  0  0  0  0  0  0  0  0  0
   -7.9520   21.8050  -30.3570 N   0  0  0  0  0  0  0  0  0  0  0  0
   -6.9190   22.7950  -30.4130 C   0  0  0  0  0  0  0  0  0  0  0  0
   -5.9070   22.7660  -29.4400 C   0  0  0  0  0  0  0  0  0  0  0  0
   -4.8890   23.7250  -29.4560 C   0  0  0  0  0  0  0  0  0  0  0  0
   -4.8640   24.7040  -30.4590 C   0  0  0  0  0  0  0  0  0  0  0  0
   -3.8590   25.6650  -30.4660 O   0  0  0  0  0  0  0  0  0  0  0  0
   -5.8510   24.7170  -31.4570 C   0  0  0  0  0  0  0  0  0  0  0  0
   -6.8670   23.7550  -31.4440 C   0  0  0  0  0  0  0  0  0  0  0  0
   -6.8090   20.1510  -32.4620 C   0  0  0  0  0  0  0  0  0  0  0  0
   -6.8200   19.0530  -33.3340 C   0  0  0  0  0  0  0  0  0  0  0  0
   -5.6430   18.6560  -33.9730 C   0  0  0  0  0  0  0  0  0  0  0  0
   -4.4500   19.3500  -33.7450 C   0  0  0  0  0  0  0  0  0  0  0  0
   -4.4290   20.4630  -32.8910 C   0  0  0  0  0  0  0  0  0  0  0  0
   -3.1860   21.1390  -32.6380 N   0  0  0  0  0  0  0  0  0  0  0  0
   -2.5840   21.2620  -31.3380 C   0  0  0  0  0  0  0  0  0  0  0  0
   -3.2290   20.7760  -30.1870 C   0  0  0  0  0  0  0  0  0  0  0  0
   -2.6440   20.9360  -28.9280 C   0  0  0  0  0  0  0  0  0  0  0  0
   -1.4150   21.5980  -28.8000 C   0  0  0  0  0  0  0  0  0  0  0  0
   -0.6850   21.8280  -27.2100 S   0  0  0  0  0  0  0  0  0  0  0  0
    0.8070   21.8520  -27.3700 O   0  0  0  0  0  0  0  0  0  0  0  0
   -1.0410   20.6680  -26.3250 O   0  0  0  0  0  0  0  0  0  0  0  0
   -1.2140   23.3360  -26.4960 N   0  0  0  0  0  0  0  0  0  0  0  0
   -0.0740   24.1990  -26.1280 C   0  0  0  0  0  0  0  0  0  0  0  0
    0.5980   24.8430  -27.3670 C   0  0  0  0  0  0  0  0  0  0  0  0
   -0.2280   24.8570  -28.5210 O   0  0  0  0  0  0  0  0  0  0  0  0
   -1.5510   25.1870  -28.1720 C   0  0  0  0  0  0  0  0  0  0  0  0
   -2.1870   24.0390  -27.3640 C   0  0  0  0  0  0  0  0  0  0  0  0
   -0.7810   22.1060  -29.9420 C   0  0  0  0  0  0  0  0  0  0  0  0
   -1.3650   21.9430  -31.2030 C   0  0  0  0  0  0  0  0  0  0  0  0
   -5.6140   20.8540  -32.2430 C   0  0  0  0  0  0  0  0  0  0  0  0
   -5.9149   21.9871  -28.6633 H   0  0  0  0  0  0  0  0  0  0  0  0
   -4.1080   23.7110  -28.6815 H   0  0  0  0  0  0  0  0  0  0  0  0
   -5.8258   25.4816  -32.2474 H   0  0  0  0  0  0  0  0  0  0  0  0
   -7.6265   23.7478  -32.2397 H   0  0  0  0  0  0  0  0  0  0  0  0
   -7.7559   18.5040  -33.5150 H   0  0  0  0  0  0  0  0  0  0  0  0
   -5.6543   17.7950  -34.6576 H   0  0  0  0  0  0  0  0  0  0  0  0
   -3.5232   19.0213  -34.2380 H   0  0  0  0  0  0  0  0  0  0  0  0
   -2.6990   21.5860  -33.4500 H   0  0  0  0  0  0  0  0  0  0  0  0
   -4.1998   20.2668  -30.2781 H   0  0  0  0  0  0  0  0  0  0  0  0
   -3.1496   20.5412  -28.0344 H   0  0  0  0  0  0  0  0  0  0  0  0
   -0.4352   24.9991  -25.4652 H   0  0  0  0  0  0  0  0  0  0  0  0
    0.6763   23.5706  -25.6259 H   0  0  0  0  0  0  0  0  0  0  0  0
    0.8640   25.8808  -27.1177 H   0  0  0  0  0  0  0  0  0  0  0  0
    1.4791   24.2307  -27.6096 H   0  0  0  0  0  0  0  0  0  0  0  0
   -1.5490   26.1031  -27.5631 H   0  0  0  0  0  0  0  0  0  0  0  0
   -2.1359   25.3490  -29.0894 H   0  0  0  0  0  0  0  0  0  0  0  0
   -2.9848   24.4553  -26.7313 H   0  0  0  0  0  0  0  0  0  0  0  0
   -2.5766   23.3049  -28.0847 H   0  0  0  0  0  0  0  0  0  0  0  0
    0.1789   22.6346  -29.8467 H   0  0  0  0  0  0  0  0  0  0  0  0
   -0.8653   22.3513  -32.0938 H   0  0  0  0  0  0  0  0  0  0  0  0
   -5.6045   21.7163  -31.5601 H   0  0  0  0  0  0  0  0  0  0  0  0
  1  2  2  0
  2  3  2  0
  2  4  1  0
  4  5  1  0
  5  6  2  0
  6  7  1  0
  7  8  2  0
  8  9  1  0
  8 10  1  0
 10 11  2  0
  2 12  1  0
 12 13  2  0
 13 14  1  0
 14 15  2  0
 15 16  1  0
 16 17  1  0
 17 18  1  0
 18 19  2  0
 19 20  1  0
 20 21  2  0
 21 22  1  0
 22 23  2  0
 22 24  2  0
 22 25  1  0
 25 26  1  0
 26 27  1  0
 27 28  1  0
 28 29  1  0
 29 30  1  0
 21 31  1  0
 31 32  2  0
 16 33  2  0
 11  5  1  0
 33 12  1  0
 32 18  1  0
 30 25  1  0
  6 34  1  0
  7 35  1  0
 10 36  1  0
 11 37  1  0
 13 38  1  0
 14 39  1  0
 15 40  1  0
 17 41  1  0
 19 42  1  0
 20 43  1  0
 26 44  1  0
 26 45  1  0
 27 46  1  0
 27 47  1  0
 29 48  1  0
 29 49  1  0
 30 50  1  0
 30 51  1  0
 31 52  1  0
 32 53  1  0
 33 54  1  0
M  CHG  2   4  -1   9  -1
M  END
>  <UniqueID>  (4) 
4

>  <SMILES>  (4) 
O=S(=O)([N-]c1ccc([O-])cc1)c1cccc(Nc2ccc(S(=O)(=O)N3CCOCC3)cc2)c1

>  <Energy>  (4) 
81.50449010585066

>  <Genealogy>  (4) 
O=S(=O)([N-]c1ccc([O-])cc1)c1cccc(Nc2ccc(S(=O)(=O)N3CCOCC3)cc2)c1 (protonated)
O=S(=O)([N-]c1ccc([O-])cc1)c1cccc(Nc2ccc(S(=O)(=O)N3CCOCC3)cc2)c1 (3D coordinates assigned)
O=S(=O)([N-]c1ccc([O-])cc1)c1cccc(Nc2ccc(S(=O)(=O)N3CCOCC3)cc2)c1 (nonaromatic ring conformer: 81.50449010585066 kcal/mol)

>  <smiles>  (4) 
O=S(=O)(Nc1ccc(O)cc1)c1cccc(Nc2ccc(S(=O)(=O)N3CCOCC3)cc2)c1

>  <score_type>  (4) 
oracle

>  <origin>  (4) 
adgpu

>  <m_score__min__energy>  (4) 
-13.68

>  <m_primary>  (4) 
energy

$$$$
4:0
     RDKit          3D

 37 39  0  0  0  0  0  0  0  0999 V2000
   -9.1090   19.4780  -32.3210 C   0  0  0  0  0  0  0  0  0  0  0  0
   -8.1880   20.6680  -32.2540 C   0  0  0  0  0  0  0  0  0  0  0  0
   -8.6550   21.8700  -31.6980 C   0  0  0  0  0  0  0  0  0  0  0  0
   -7.8200   22.9850  -31.6170 C   0  0  0  0  0  0  0  0  0  0  0  0
   -6.5060   22.9260  -32.0850 C   0  0  0  0  0  0  0  0  0  0  0  0
   -5.6840   24.0950  -31.9690 N   0  0  0  0  0  0  0  0  0  0  0  0
   -4.9320   24.6490  -30.5060 S   0  0  0  0  0  0  0  0  0  0  0  0
   -5.9710   25.2920  -29.6330 O   0  0  0  0  0  0  0  0  0  0  0  0
   -3.8810   25.6680  -30.8510 O   0  0  0  0  0  0  0  0  0  0  0  0
   -4.2220   23.2900  -29.6410 C   0  0  0  0  0  0  0  0  0  0  0  0
   -3.6860   22.2040  -30.3440 C   0  0  0  0  0  0  0  0  0  0  0  0
   -3.1380   21.1200  -29.6550 C   0  0  0  0  0  0  0  0  0  0  0  0
   -3.1150   21.1040  -28.2460 C   0  0  0  0  0  0  0  0  0  0  0  0
   -2.5560   19.9920  -27.5170 N   0  0  0  0  0  0  0  0  0  0  0  0
   -1.3050   19.4960  -27.5540 C   0  0  0  0  0  0  0  0  0  0  0  0
   -1.2050   18.4490  -26.7150 N   0  0  0  0  0  0  0  0  0  0  0  0
   -2.4080   18.3180  -26.1740 N   0  0  0  0  0  0  0  0  0  0  0  0
   -3.2220   19.2440  -26.6540 N   0  0  0  0  0  0  0  0  0  0  0  0
   -3.6510   22.2030  -27.5500 C   0  0  0  0  0  0  0  0  0  0  0  0
   -4.1980   23.2870  -28.2420 C   0  0  0  0  0  0  0  0  0  0  0  0
   -6.0300   21.7290  -32.6460 C   0  0  0  0  0  0  0  0  0  0  0  0
   -6.8570   20.5940  -32.7270 C   0  0  0  0  0  0  0  0  0  0  0  0
   -6.3120   19.3250  -33.3320 C   0  0  0  0  0  0  0  0  0  0  0  0
   -9.3614   19.1518  -31.3012 H   0  0  0  0  0  0  0  0  0  0  0  0
  -10.0294   19.7563  -32.8553 H   0  0  0  0  0  0  0  0  0  0  0  0
   -8.6088   18.6568  -32.8553 H   0  0  0  0  0  0  0  0  0  0  0  0
   -9.6873   21.9331  -31.3233 H   0  0  0  0  0  0  0  0  0  0  0  0
   -8.2009   23.9199  -31.1800 H   0  0  0  0  0  0  0  0  0  0  0  0
   -3.6967   22.2048  -31.4439 H   0  0  0  0  0  0  0  0  0  0  0  0
   -2.7207   20.2714  -30.2169 H   0  0  0  0  0  0  0  0  0  0  0  0
   -0.4873   19.8879  -28.1767 H   0  0  0  0  0  0  0  0  0  0  0  0
   -3.6394   22.2091  -26.4501 H   0  0  0  0  0  0  0  0  0  0  0  0
   -4.6111   24.1408  -27.6849 H   0  0  0  0  0  0  0  0  0  0  0  0
   -4.9990   21.6789  -33.0262 H   0  0  0  0  0  0  0  0  0  0  0  0
   -6.0153   18.6340  -32.5292 H   0  0  0  0  0  0  0  0  0  0  0  0
   -7.0868   18.8532  -33.9541 H   0  0  0  0  0  0  0  0  0  0  0  0
   -5.4363   19.5620  -33.9541 H   0  0  0  0  0  0  0  0  0  0  0  0
  1  2  1  0
  2  3  2  0
  3  4  1  0
  4  5  2  0
  5  6  1  0
  6  7  1  0
  7  8  2  0
  7  9  2  0
  7 10  1  0
 10 11  2  0
 11 12  1  0
 12 13  2  0
 13 14  1  0
 14 15  1  0
 15 16  2  0
 16 17  1  0
 17 18  2  0
 13 19  1  0
 19 20  2  0
  5 21  1  0
 21 22  2  0
 22 23  1  0
 22  2  1  0
 20 10  1  0
 18 14  1  0
  1 24  1  0
  1 25  1  0
  1 26  1  0
  3 27  1  0
  4 28  1  0
 11 29  1  0
 12 30  1  0
 15 31  1  0
 19 32  1  0
 20 33  1  0
 21 34  1  0
 23 35  1  0
 23 36  1  0
 23 37  1  0
M  CHG  1   6  -1
M  END
>  <UniqueID>  (5) 
5

>  <SMILES>  (5) 
Cc1ccc([N-]S(=O)(=O)c2ccc(-n3cnnn3)cc2)cc1C

>  <Energy>  (5) 
84.0985632134542

>  <Genealogy>  (5) 
Cc1ccc([N-]S(=O)(=O)c2ccc(-n3cnnn3)cc2)cc1C (protonated)
Cc1ccc([N-]S(=O)(=O)c2ccc(-n3cnnn3)cc2)cc1C (3D coordinates assigned)
Cc1ccc([N-]S(=O)(=O)c2ccc(-n3cnnn3)cc2)cc1C (optimized conformer: 84.0985632134542 kcal/mol)

>  <smiles>  (5) 
Cc1ccc(NS(=O)(=O)c2ccc(-n3cnnn3)cc2)cc1C

>  <score_type>  (5) 
oracle

>  <origin>  (5) 
adgpu

>  <m_score__min__energy>  (5) 
-9.8399999999999999

>  <m_primary>  (5) 
energy

$$$$
5:0
     RDKit          3D

 43 45  0  0  0  0  0  0  0  0999 V2000
    0.4540   22.7280  -27.3350 C   0  0  0  0  0  0  0  0  0  0  0  0
   -0.6720   22.8550  -28.3290 C   0  0  0  0  0  0  0  0  0  0  0  0
   -1.0780   21.7000  -29.0150 C   0  0  0  0  0  0  0  0  0  0  0  0
   -2.1170   21.7450  -29.9390 C   0  0  0  0  0  0  0  0  0  0  0  0
   -2.7940   22.9440  -30.1850 C   0  0  0  0  0  0  0  0  0  0  0  0
   -3.8470   23.0070  -31.1610 N   0  0  0  0  0  0  0  0  0  0  0  0
   -4.4100   21.8520  -31.8060 C   0  0  0  0  0  0  0  0  0  0  0  0
   -3.9230   20.7080  -31.6070 O   0  0  0  0  0  0  0  0  0  0  0  0
   -5.5140   21.9810  -32.7110 N   0  0  0  0  0  0  0  0  0  0  0  0
   -6.8710   21.6090  -32.4360 C   0  0  0  0  0  0  0  0  0  0  0  0
   -7.8060   22.5400  -31.9500 C   0  0  0  0  0  0  0  0  0  0  0  0
   -9.1140   22.1380  -31.6610 C   0  0  0  0  0  0  0  0  0  0  0  0
   -9.4920   20.8050  -31.8380 C   0  0  0  0  0  0  0  0  0  0  0  0
   -8.5600   19.8690  -32.2960 C   0  0  0  0  0  0  0  0  0  0  0  0
   -8.9240   18.5720  -32.4550 F   0  0  0  0  0  0  0  0  0  0  0  0
   -7.2510   20.2680  -32.5850 C   0  0  0  0  0  0  0  0  0  0  0  0
   -2.4000   24.1110  -29.5120 C   0  0  0  0  0  0  0  0  0  0  0  0
   -3.0790   25.2970  -29.7770 O   0  0  0  0  0  0  0  0  0  0  0  0
   -1.3470   24.0850  -28.5700 C   0  0  0  0  0  0  0  0  0  0  0  0
   -0.8850   25.5970  -27.7380 S   0  0  0  0  0  0  0  0  0  0  0  0
   -1.2410   26.7880  -28.5820 O   0  0  0  0  0  0  0  0  0  0  0  0
    0.6060   25.6250  -27.5500 O   0  0  0  0  0  0  0  0  0  0  0  0
   -1.6690   25.7880  -26.1270 C   0  0  0  0  0  0  0  0  0  0  0  0
   -1.2750   27.0700  -25.3990 C   0  0  0  0  0  0  0  0  0  0  0  0
   -0.6530   26.2460  -24.2820 C   0  0  0  0  0  0  0  0  0  0  0  0
   -1.0480   24.9640  -25.0000 C   0  0  0  0  0  0  0  0  0  0  0  0
    0.0483   22.7738  -26.3136 H   0  0  0  0  0  0  0  0  0  0  0  0
    0.9670   21.7663  -27.4830 H   0  0  0  0  0  0  0  0  0  0  0  0
    1.1684   23.5513  -27.4830 H   0  0  0  0  0  0  0  0  0  0  0  0
   -0.5674   20.7455  -28.8193 H   0  0  0  0  0  0  0  0  0  0  0  0
   -2.4079   20.8321  -30.4794 H   0  0  0  0  0  0  0  0  0  0  0  0
   -4.2660   23.9440  -31.3600 H   0  0  0  0  0  0  0  0  0  0  0  0
   -7.5078   23.5876  -31.7967 H   0  0  0  0  0  0  0  0  0  0  0  0
   -9.8460   22.8725  -31.2939 H   0  0  0  0  0  0  0  0  0  0  0  0
  -10.5230   20.4917  -31.6170 H   0  0  0  0  0  0  0  0  0  0  0  0
   -6.5163   19.5260  -32.9308 H   0  0  0  0  0  0  0  0  0  0  0  0
   -2.7101   25.6036  -26.4304 H   0  0  0  0  0  0  0  0  0  0  0  0
   -0.5565   27.6957  -25.9488 H   0  0  0  0  0  0  0  0  0  0  0  0
   -2.0316   27.8352  -25.1708 H   0  0  0  0  0  0  0  0  0  0  0  0
    0.4331   26.3834  -24.1751 H   0  0  0  0  0  0  0  0  0  0  0  0
   -0.9535   26.4117  -23.2369 H   0  0  0  0  0  0  0  0  0  0  0  0
   -0.1954   24.3440  -25.3140 H   0  0  0  0  0  0  0  0  0  0  0  0
   -1.6389   24.1945  -24.4816 H   0  0  0  0  0  0  0  0  0  0  0  0
  1  2  1  0
  2  3  2  0
  3  4  1  0
  4  5  2  0
  5  6  1  0
  6  7  1  0
  7  8  2  0
  7  9  1  0
  9 10  1  0
 10 11  2  0
 11 12  1  0
 12 13  2  0
 13 14  1  0
 14 15  1  0
 14 16  2  0
  5 17  1  0
 17 18  1  0
 17 19  2  0
 19 20  1  0
 20 21  2  0
 20 22  2  0
 20 23  1  0
 23 24  1  0
 24 25  1  0
 25 26  1  0
 19  2  1  0
 26 23  1  0
 16 10  1  0
  1 27  1  0
  1 28  1  0
  1 29  1  0
  3 30  1  0
  4 31  1  0
  6 32  1  0
 11 33  1  0
 12 34  1  0
 13 35  1  0
 16 36  1  0
 23 37  1  0
 24 38  1  0
 24 39  1  0
 25 40  1  0
 25 41  1  0
 26 42  1  0
 26 43  1  0
M  CHG  2   9  -1  18  -1
M  END
>  <UniqueID>  (6) 
6

>  <SMILES>  (6) 
Cc1ccc(NC(=O)[N-]c2cccc(F)c2)c([O-])c1S(=O)(=O)C1CCC1

>  <Energy>  (6) 
115.50231296282328

>  <Genealogy>  (6) 
Cc1ccc(NC(=O)[N-]c2cccc(F)c2)c([O-])c1S(=O)(=O)C1CCC1 (protonated)
Cc1ccc(NC(=O)[N-]c2cccc(F)c2)c([O-])c1S(=O)(=O)C1CCC1 (3D coordinates assigned)
Cc1ccc(NC(=O)[N-]c2cccc(F)c2)c([O-])c1S(=O)(=O)C1CCC1 (nonaromatic ring conformer: 115.50231296282328 kcal/mol)

>  <smiles>  (6) 
Cc1ccc(NC(=O)Nc2cccc(F)c2)c(O)c1S(=O)(=O)C1CCC1

>  <score_type>  (6) 
oracle

>  <origin>  (6) 
adgpu

>  <m_score__min__energy>  (6) 
-12.470000000000001

>  <m_primary>  (6) 
energy

$$$$
6:0
     RDKit          3D

 38 40  0  0  0  0  0  0  0  0999 V2000
   -2.5360   20.1250  -27.9410 O   0  0  0  0  0  0  0  0  0  0  0  0
   -2.1670   20.7020  -29.0010 C   0  0  0  0  0  0  0  0  0  0  0  0
   -1.9610   19.9410  -30.2000 N   0  0  0  0  0  0  0  0  0  0  0  0
   -1.3720   20.4080  -31.4230 C   0  0  0  0  0  0  0  0  0  0  0  0
    0.0240   20.4130  -31.5370 C   0  0  0  0  0  0  0  0  0  0  0  0
    0.6400   20.8830  -32.7000 C   0  0  0  0  0  0  0  0  0  0  0  0
   -0.1350   21.3730  -33.7590 C   0  0  0  0  0  0  0  0  0  0  0  0
    0.6510   21.9600  -35.2200 S   0  0  0  0  0  0  0  0  0  0  0  0
    0.5210   20.9380  -36.3140 O   0  0  0  0  0  0  0  0  0  0  0  0
    2.1040   22.2120  -34.9290 O   0  0  0  0  0  0  0  0  0  0  0  0
   -0.1170   23.4330  -35.7250 N   0  0  0  0  0  0  0  0  0  0  0  0
    0.4840   24.3680  -36.3940 C   0  0  0  0  0  0  0  0  0  0  0  0
    1.7940   24.2450  -36.7490 N   0  0  0  0  0  0  0  0  0  0  0  0
    2.4240   25.2220  -37.4510 C   0  0  0  0  0  0  0  0  0  0  0  0
    1.7270   26.3730  -37.8200 C   0  0  0  0  0  0  0  0  0  0  0  0
    0.3870   26.4850  -37.4500 C   0  0  0  0  0  0  0  0  0  0  0  0
   -0.2070   25.4860  -36.7470 N   0  0  0  0  0  0  0  0  0  0  0  0
   -1.5320   21.3880  -33.6440 C   0  0  0  0  0  0  0  0  0  0  0  0
   -2.1480   20.9180  -32.4800 C   0  0  0  0  0  0  0  0  0  0  0  0
   -1.8980   22.1590  -28.9920 C   0  0  0  0  0  0  0  0  0  0  0  0
   -0.7160   22.6640  -28.4200 C   0  0  0  0  0  0  0  0  0  0  0  0
   -0.4610   24.0390  -28.4070 C   0  0  0  0  0  0  0  0  0  0  0  0
    0.7140   24.5110  -27.8340 O   0  0  0  0  0  0  0  0  0  0  0  0
   -1.3870   24.9320  -28.9700 C   0  0  0  0  0  0  0  0  0  0  0  0
   -1.1520   26.3070  -28.9690 O   0  0  0  0  0  0  0  0  0  0  0  0
   -2.5670   24.4370  -29.5420 C   0  0  0  0  0  0  0  0  0  0  0  0
   -3.4900   25.3120  -30.1000 O   0  0  0  0  0  0  0  0  0  0  0  0
   -2.8210   23.0620  -29.5530 C   0  0  0  0  0  0  0  0  0  0  0  0
    0.6406   20.0439  -30.7042 H   0  0  0  0  0  0  0  0  0  0  0  0
    1.7367   20.8681  -32.7841 H   0  0  0  0  0  0  0  0  0  0  0  0
    3.4822   25.1061  -37.7283 H   0  0  0  0  0  0  0  0  0  0  0  0
    2.2227   27.1732  -38.3893 H   0  0  0  0  0  0  0  0  0  0  0  0
   -0.1879   27.3809  -37.7270 H   0  0  0  0  0  0  0  0  0  0  0  0
   -2.1459   21.7709  -34.4725 H   0  0  0  0  0  0  0  0  0  0  0  0
   -3.2440   20.9471  -32.3903 H   0  0  0  0  0  0  0  0  0  0  0  0
    0.0149   21.9704  -27.9786 H   0  0  0  0  0  0  0  0  0  0  0  0
   -1.2400   26.8680  -29.8070 H   0  0  0  0  0  0  0  0  0  0  0  0
   -3.7499   22.6826  -30.0038 H   0  0  0  0  0  0  0  0  0  0  0  0
  1  2  2  0
  2  3  1  0
  3  4  1  0
  4  5  2  0
  5  6  1  0
  6  7  2  0
  7  8  1  0
  8  9  2  0
  8 10  2  0
  8 11  1  0
 11 12  2  3
 12 13  1  0
 13 14  2  0
 14 15  1  0
 15 16  2  0
 16 17  1  0
  7 18  1  0
 18 19  2  0
  2 20  1  0
 20 21  2  0
 21 22  1  0
 22 23  1  0
 22 24  2  0
 24 25  1  0
 24 26  1  0
 26 27  1  0
 26 28  2  0
 19  4  1  0
 28 20  1  0
 17 12  1  0
  5 29  1  0
  6 30  1  0
 14 31  1  0
 15 32  1  0
 16 33  1  0
 18 34  1  0
 19 35  1  0
 21 36  1  0
 25 37  1  0
 28 38  1  0
M  CHG  4   3  -1  17  -1  23  -1  27  -1
M  END
>  <UniqueID>  (7) 
7

>  <SMILES>  (7) 
O=C([N-]c1ccc(S(=O)(=O)N=c2nccc[n-]2)cc1)c1cc([O-])c(O)c([O-])c1

>  <Energy>  (7) 
50.969667444178036

>  <Genealogy>  (7) 
O=C([N-]c1ccc(S(=O)(=O)N=c2nccc[n-]2)cc1)c1cc([O-])c(O)c([O-])c1 (protonated)
O=C([N-]c1ccc(S(=O)(=O)N=c2nccc[n-]2)cc1)c1cc([O-])c(O)c([O-])c1 (3D coordinates assigned)
O=C([N-]c1ccc(S(=O)(=O)N=c2nccc[n-]2)cc1)c1cc([O-])c(O)c([O-])c1 (optimized conformer: 50.969667444178036 kcal/mol)

>  <smiles>  (7) 
O=C(Nc1ccc(S(=O)(=O)N=c2nccc[nH]2)cc1)c1cc(O)c(O)c(O)c1

>  <score_type>  (7) 
oracle

>  <origin>  (7) 
adgpu

>  <m_score__min__energy>  (7) 
-12.81

>  <m_primary>  (7) 
energy

$$$$
7:0
     RDKit          3D

 55 58  0  0  0  0  0  0  0  0999 V2000
   -1.5330   21.7640  -26.5790 C   0  0  0  0  0  0  0  0  0  0  0  0
   -2.1290   22.7570  -27.5400 C   0  0  0  0  0  0  0  0  0  0  0  0
   -3.3430   22.4300  -28.1650 C   0  0  0  0  0  0  0  0  0  0  0  0
   -3.9220   23.2930  -29.0910 C   0  0  0  0  0  0  0  0  0  0  0  0
   -3.3020   24.4990  -29.4170 C   0  0  0  0  0  0  0  0  0  0  0  0
   -3.8690   25.2980  -30.4660 N   0  0  0  0  0  0  0  0  0  0  0  0
   -5.2280   25.2510  -30.9300 C   0  0  0  0  0  0  0  0  0  0  0  0
   -6.0830   25.9880  -30.3750 O   0  0  0  0  0  0  0  0  0  0  0  0
   -5.6440   24.4010  -32.0110 N   0  0  0  0  0  0  0  0  0  0  0  0
   -6.0620   23.0360  -31.8900 C   0  0  0  0  0  0  0  0  0  0  0  0
   -5.1290   21.9940  -31.7720 C   0  0  0  0  0  0  0  0  0  0  0  0
   -5.5570   20.6650  -31.7920 C   0  0  0  0  0  0  0  0  0  0  0  0
   -6.9190   20.3640  -31.9110 C   0  0  0  0  0  0  0  0  0  0  0  0
   -7.4350   18.6830  -31.9990 S   0  0  0  0  0  0  0  0  0  0  0  0
   -8.9220   18.6330  -31.7760 O   0  0  0  0  0  0  0  0  0  0  0  0
   -6.7610   17.8860  -30.9150 O   0  0  0  0  0  0  0  0  0  0  0  0
   -7.0360   18.0420  -33.5780 N   0  0  0  0  0  0  0  0  0  0  0  0
   -6.1110   18.9310  -34.3170 C   0  0  0  0  0  0  0  0  0  0  0  0
   -4.6470   18.4590  -34.2450 C   0  0  0  0  0  0  0  0  0  0  0  0
   -4.3970   17.8270  -33.0090 O   0  0  0  0  0  0  0  0  0  0  0  0
   -5.0890   16.5920  -32.9420 C   0  0  0  0  0  0  0  0  0  0  0  0
   -6.5340   16.6600  -33.4920 C   0  0  0  0  0  0  0  0  0  0  0  0
   -7.8560   21.4050  -31.9580 C   0  0  0  0  0  0  0  0  0  0  0  0
   -7.4290   22.7360  -31.9360 C   0  0  0  0  0  0  0  0  0  0  0  0
   -2.1250   24.8790  -28.7470 C   0  0  0  0  0  0  0  0  0  0  0  0
   -1.5940   26.1450  -28.9700 O   0  0  0  0  0  0  0  0  0  0  0  0
   -1.4920   23.9870  -27.8530 C   0  0  0  0  0  0  0  0  0  0  0  0
    0.0770   24.4330  -27.1400 S   0  0  0  0  0  0  0  0  0  0  0  0
    0.7050   23.2400  -26.4720 O   0  0  0  0  0  0  0  0  0  0  0  0
    1.0200   24.8960  -28.2140 O   0  0  0  0  0  0  0  0  0  0  0  0
   -0.1780   25.7770  -25.9830 C   0  0  0  0  0  0  0  0  0  0  0  0
   -0.6580   25.3220  -24.6140 C   0  0  0  0  0  0  0  0  0  0  0  0
   -1.6150   26.0350  -25.5540 C   0  0  0  0  0  0  0  0  0  0  0  0
   -1.7286   22.0899  -25.5468 H   0  0  0  0  0  0  0  0  0  0  0  0
   -1.9875   20.7759  -26.7439 H   0  0  0  0  0  0  0  0  0  0  0  0
   -0.4473   21.7003  -26.7439 H   0  0  0  0  0  0  0  0  0  0  0  0
   -3.8423   21.4809  -27.9201 H   0  0  0  0  0  0  0  0  0  0  0  0
   -4.8750   23.0220  -29.5689 H   0  0  0  0  0  0  0  0  0  0  0  0
   -4.0589   22.2247  -31.6636 H   0  0  0  0  0  0  0  0  0  0  0  0
   -4.8210   19.8513  -31.7139 H   0  0  0  0  0  0  0  0  0  0  0  0
   -6.4195   18.9605  -35.3724 H   0  0  0  0  0  0  0  0  0  0  0  0
   -6.1624   19.9255  -33.8497 H   0  0  0  0  0  0  0  0  0  0  0  0
   -4.4544   17.7478  -35.0618 H   0  0  0  0  0  0  0  0  0  0  0  0
   -3.9844   19.3317  -34.3413 H   0  0  0  0  0  0  0  0  0  0  0  0
   -4.5290   15.8476  -33.5271 H   0  0  0  0  0  0  0  0  0  0  0  0
   -5.1614   16.3205  -31.8785 H   0  0  0  0  0  0  0  0  0  0  0  0
   -6.5509   16.2145  -34.4976 H   0  0  0  0  0  0  0  0  0  0  0  0
   -7.1844   16.1088  -32.7969 H   0  0  0  0  0  0  0  0  0  0  0  0
   -8.9302   21.1743  -32.0123 H   0  0  0  0  0  0  0  0  0  0  0  0
   -8.1688   23.5498  -31.9549 H   0  0  0  0  0  0  0  0  0  0  0  0
    0.6307   26.4136  -26.3712 H   0  0  0  0  0  0  0  0  0  0  0  0
   -0.7888   24.2499  -24.4056 H   0  0  0  0  0  0  0  0  0  0  0  0
   -0.3210   25.4823  -23.5793 H   0  0  0  0  0  0  0  0  0  0  0  0
   -2.4383   25.4791  -26.0264 H   0  0  0  0  0  0  0  0  0  0  0  0
   -2.2574   26.9250  -25.4820 H   0  0  0  0  0  0  0  0  0  0  0  0
  1  2  1  0
  2  3  2  0
  3  4  1  0
  4  5  2  0
  5  6  1  0
  6  7  1  0
  7  8  2  0
  7  9  1  0
  9 10  1  0
 10 11  2  0
 11 12  1  0
 12 13  2  0
 13 14  1  0
 14 15  2  0
 14 16  2  0
 14 17  1  0
 17 18  1  0
 18 19  1  0
 19 20  1  0
 20 21  1  0
 21 22  1  0
 13 23  1  0
 23 24  2  0
  5 25  1  0
 25 26  1  0
 25 27  2  0
 27 28  1  0
 28 29  2  0
 28 30  2  0
 28 31  1  0
 31 32  1  0
 32 33  1  0
 27  2  1  0
 33 31  1  0
 24 10  1  0
 22 17  1  0
  1 34  1  0
  1 35  1  0
  1 36  1  0
  3 37  1  0
  4 38  1  0
 11 39  1  0
 12 40  1  0
 18 41  1  0
 18 42  1  0
 19 43  1  0
 19 44  1  0
 21 45  1  0
 21 46  1  0
 22 47  1  0
 22 48  1  0
 23 49  1  0
 24 50  1  0
 31 51  1  0
 32 52  1  0
 32 53  1  0
 33 54  1  0
 33 55  1  0
M  CHG  3   6  -1   9  -1  26  -1
M  END
>  <UniqueID>  (8) 
8

>  <SMILES>  (8) 
Cc1ccc([N-]C(=O)[N-]c2ccc(S(=O)(=O)N3CCOCC3)cc2)c([O-])c1S(=O)(=O)C1CC1

>  <Energy>  (8) 
341.60293468288756

>  <Genealogy>  (8) 
Cc1ccc([N-]C(=O)[N-]c2ccc(S(=O)(=O)N3CCOCC3)cc2)c([O-])c1S(=O)(=O)C1CC1 (protonated)
Cc1ccc([N-]C(=O)[N-]c2ccc(S(=O)(=O)N3CCOCC3)cc2)c([O-])c1S(=O)(=O)C1CC1 (3D coordinates assigned)
Cc1ccc([N-]C(=O)[N-]c2ccc(S(=O)(=O)N3CCOCC3)cc2)c([O-])c1S(=O)(=O)C1CC1 (nonaromatic ring conformer: 341.60293468288756 kcal/mol)

>  <smiles>  (8) 
Cc1ccc(NC(=O)Nc2ccc(S(=O)(=O)N3CCOCC3)cc2)c(O)c1S(=O)(=O)C1CC1

>  <score_type>  (8) 
oracle

>  <origin>  (8) 
adgpu

>  <m_score__min__energy>  (8) 
-16.629999999999999

>  <m_primary>  (8) 
energy

$$$$
8:0
     RDKit          3D

 43 45  0  0  1  0  0  0  0  0999 V2000
    0.6720   18.7590  -28.9060 C   0  0  0  0  0  0  0  0  0  0  0  0
   -0.5040   19.1610  -28.0850 C   0  0  0  0  0  0  0  0  0  0  0  0
   -1.1170   20.4140  -28.1890 C   0  0  0  0  0  0  0  0  0  0  0  0
   -2.1440   20.3610  -27.2660 C   0  0  0  0  0  0  0  0  0  0  0  0
   -2.9450   21.3830  -27.0900 N   0  0  0  0  0  0  0  0  0  0  0  0
   -2.7350   22.5720  -27.8780 C   0  0  0  0  0  0  0  0  0  0  0  0
   -1.5650   23.2710  -27.6330 C   0  0  0  0  0  0  0  0  0  0  0  0
   -1.3570   24.4230  -28.3950 C   0  0  0  0  0  0  0  0  0  0  0  0
   -2.2780   24.7920  -29.3080 N   0  0  0  0  0  0  0  0  0  0  0  0
   -3.4040   24.0860  -29.5180 C   0  0  0  0  0  0  0  0  0  0  0  0
   -4.2110   24.5370  -30.4180 N   0  0  0  0  0  0  0  0  0  0  0  0
   -5.4040   23.8500  -30.6890 C   0  0  0  0  0  0  0  0  0  0  0  0
   -6.1450   23.1490  -29.7730 C   0  0  0  0  0  0  0  0  0  0  0  0
   -7.3250   22.4860  -30.1070 C   0  0  0  0  0  0  0  0  0  0  0  0
   -7.7780   22.5300  -31.4170 C   0  0  0  0  0  0  0  0  0  0  0  0
   -9.0170   21.8500  -31.8280 C   0  0  0  0  0  0  0  0  0  0  0  0
   -8.7590   20.1150  -32.1640 S   0  0  0  0  0  0  0  0  0  0  0  0
   -7.1660   19.8470  -32.9200 C   0  0  0  0  0  0  0  0  0  0  0  0
   -8.7410   19.3540  -30.8470 O   0  0  0  0  0  0  0  0  0  0  0  0
   -9.7960   19.6050  -33.0880 O   0  0  0  0  0  0  0  0  0  0  0  0
   -7.0410   23.2340  -32.3480 C   0  0  0  0  0  0  0  0  0  0  0  0
   -5.8740   23.8840  -31.9990 C   0  0  0  0  0  0  0  0  0  0  0  0
   -3.6360   22.9710  -28.8020 N   0  0  0  0  0  0  0  0  0  0  0  0
   -2.1630   19.1720  -26.6450 N   0  0  0  0  0  0  0  0  0  0  0  0
   -1.1650   18.4620  -27.1540 N   0  0  0  0  0  0  0  0  0  0  0  0
    1.5024   18.4751  -28.2428 H   0  0  0  0  0  0  0  0  0  0  0  0
    0.4005   17.9026  -29.5408 H   0  0  0  0  0  0  0  0  0  0  0  0
    0.9816   19.6024  -29.5408 H   0  0  0  0  0  0  0  0  0  0  0  0
   -0.8446   21.2484  -28.8520 H   0  0  0  0  0  0  0  0  0  0  0  0
   -0.8379   22.9367  -26.8783 H   0  0  0  0  0  0  0  0  0  0  0  0
   -0.4478   25.0252  -28.2512 H   0  0  0  0  0  0  0  0  0  0  0  0
   -2.0780   25.6690  -29.8590 H   0  0  0  0  0  0  0  0  0  0  0  0
   -5.7939   23.1080  -28.7313 H   0  0  0  0  0  0  0  0  0  0  0  0
   -7.8898   21.9347  -29.3408 H   0  0  0  0  0  0  0  0  0  0  0  0
   -9.7583   21.9476  -31.0212 H   0  0  0  0  0  0  0  0  0  0  0  0
   -9.3686   22.3238  -32.7564 H   0  0  0  0  0  0  0  0  0  0  0  0
   -6.4050   19.7190  -32.1361 H   0  0  0  0  0  0  0  0  0  0  0  0
   -7.2043   18.9427  -33.5451 H   0  0  0  0  0  0  0  0  0  0  0  0
   -6.9062   20.7141  -33.5451 H   0  0  0  0  0  0  0  0  0  0  0  0
   -7.3909   23.2780  -33.3899 H   0  0  0  0  0  0  0  0  0  0  0  0
   -5.3089   24.4352  -32.7650 H   0  0  0  0  0  0  0  0  0  0  0  0
   -2.8360   18.8900  -25.9140 H   0  0  0  0  0  0  0  0  0  0  0  0
   -0.9070   17.4930  -26.8840 H   0  0  0  0  0  0  0  0  0  0  0  0
  1  2  1  0
  2  3  2  0
  3  4  1  0
  4  5  2  0
  5  6  1  0
  6  7  1  0
  7  8  2  0
  8  9  1  0
  9 10  1  0
 10 11  2  0
 11 12  1  0
 12 13  2  0
 13 14  1  0
 14 15  2  0
 15 16  1  0
 16 17  1  0
 17 18  1  0
 17 19  2  0
 17 20  2  0
 15 21  1  0
 21 22  2  0
 10 23  1  0
  4 24  1  0
 24 25  1  0
 25  2  1  0
 23  6  2  0
 22 12  1  0
  1 26  1  0
  1 27  1  0
  1 28  1  0
  3 29  1  0
  7 30  1  0
  8 31  1  0
  9 32  1  0
 13 33  1  0
 14 34  1  0
 16 35  1  0
 16 36  1  0
 18 37  1  0
 18 38  1  0
 18 39  1  0
 21 40  1  0
 22 41  1  0
 24 42  1  0
 25 43  1  0
M  END
>  <smiles>  (9) 
Cc1cc(=Nc2cc[nH]c(=Nc3ccc(CS(C)(=O)=O)cc3)n2)[nH][nH]1

>  <score_type>  (9) 
oracle

>  <origin>  (9) 
adgpu

>  <m_score__min__energy>  (9) 
-9.2300000000000004

>  <m_primary>  (9) 
energy

$$$$
9:0
     RDKit          3D

 45 48  0  0  0  0  0  0  0  0999 V2000
   -1.2650   25.7610  -28.9620 N   0  0  0  0  0  0  0  0  0  0  0  0
   -1.7220   24.4330  -29.2170 C   0  0  0  0  0  0  0  0  0  0  0  0
   -0.8810   23.4970  -29.2810 O   0  0  0  0  0  0  0  0  0  0  0  0
   -3.1650   24.1560  -29.4060 C   0  0  0  0  0  0  0  0  0  0  0  0
   -3.9480   24.9720  -30.2430 C   0  0  0  0  0  0  0  0  0  0  0  0
   -5.3100   24.7070  -30.4200 C   0  0  0  0  0  0  0  0  0  0  0  0
   -5.9110   23.6120  -29.7750 C   0  0  0  0  0  0  0  0  0  0  0  0
   -7.3080   23.3180  -29.9130 N   0  0  0  0  0  0  0  0  0  0  0  0
   -7.9300   22.6010  -30.9860 C   0  0  0  0  0  0  0  0  0  0  0  0
   -9.0410   22.0280  -30.8220 O   0  0  0  0  0  0  0  0  0  0  0  0
   -7.2810   22.5770  -32.3360 C   0  0  0  0  0  0  0  0  0  0  0  0
   -6.4020   21.3900  -32.4710 N   0  0  0  0  0  0  0  0  0  0  0  0
   -5.0490   21.5830  -32.6020 C   0  0  0  0  0  0  0  0  0  0  0  0
   -4.5720   22.7530  -32.6130 O   0  0  0  0  0  0  0  0  0  0  0  0
   -4.1770   20.4880  -32.7310 C   0  0  0  0  0  0  0  0  0  0  0  0
   -2.7170   20.7300  -32.8800 C   0  0  0  0  0  0  0  0  0  0  0  0
   -1.9470   21.6060  -32.1340 C   0  0  0  0  0  0  0  0  0  0  0  0
   -0.6610   21.4740  -32.6110 C   0  0  0  0  0  0  0  0  0  0  0  0
   -0.7200   20.5280  -33.6130 C   0  0  0  0  0  0  0  0  0  0  0  0
   -1.9550   20.1020  -33.7470 O   0  0  0  0  0  0  0  0  0  0  0  0
   -4.6720   19.2160  -32.6850 N   0  0  0  0  0  0  0  0  0  0  0  0
   -3.7610   18.1720  -32.6400 O   0  0  0  0  0  0  0  0  0  0  0  0
   -6.0260   18.9970  -32.5950 C   0  0  0  0  0  0  0  0  0  0  0  0
   -6.5680   17.6920  -32.6660 C   0  0  0  0  0  0  0  0  0  0  0  0
   -7.9360   17.4770  -32.5230 C   0  0  0  0  0  0  0  0  0  0  0  0
   -8.7940   18.5480  -32.3180 C   0  0  0  0  0  0  0  0  0  0  0  0
   -8.2950   19.8490  -32.2850 C   0  0  0  0  0  0  0  0  0  0  0  0
   -6.9100   20.1060  -32.4500 C   0  0  0  0  0  0  0  0  0  0  0  0
   -5.1390   22.8160  -28.9230 C   0  0  0  0  0  0  0  0  0  0  0  0
   -3.7770   23.0770  -28.7440 C   0  0  0  0  0  0  0  0  0  0  0  0
   -1.1070   26.4350  -29.7430 H   0  0  0  0  0  0  0  0  0  0  0  0
   -3.4857   25.8246  -30.7620 H   0  0  0  0  0  0  0  0  0  0  0  0
   -5.9143   25.3592  -31.0676 H   0  0  0  0  0  0  0  0  0  0  0  0
   -8.0604   22.5398  -33.1113 H   0  0  0  0  0  0  0  0  0  0  0  0
   -6.6714   23.4851  -32.4529 H   0  0  0  0  0  0  0  0  0  0  0  0
   -2.2908   22.2701  -31.3273 H   0  0  0  0  0  0  0  0  0  0  0  0
    0.2320   22.0139  -32.2631 H   0  0  0  0  0  0  0  0  0  0  0  0
    0.1374   20.1827  -34.2094 H   0  0  0  0  0  0  0  0  0  0  0  0
   -2.8190   18.2310  -33.0000 H   0  0  0  0  0  0  0  0  0  0  0  0
   -5.8992   16.8355  -32.8365 H   0  0  0  0  0  0  0  0  0  0  0  0
   -8.3382   16.4544  -32.5727 H   0  0  0  0  0  0  0  0  0  0  0  0
   -9.8708   18.3698  -32.1812 H   0  0  0  0  0  0  0  0  0  0  0  0
   -8.9865   20.6900  -32.1285 H   0  0  0  0  0  0  0  0  0  0  0  0
   -5.6077   21.9765  -28.3885 H   0  0  0  0  0  0  0  0  0  0  0  0
   -3.1802   22.4337  -28.0807 H   0  0  0  0  0  0  0  0  0  0  0  0
  1  2  1  0
  2  3  2  0
  2  4  1  0
  4  5  2  0
  5  6  1  0
  6  7  2  0
  7  8  1  0
  8  9  1  0
  9 10  2  0
  9 11  1  0
 11 12  1  0
 12 13  1  0
 13 14  2  0
 13 15  1  0
 15 16  1  0
 16 17  2  0
 17 18  1  0
 18 19  2  0
 19 20  1  0
 15 21  2  0
 21 22  1  0
 21 23  1  0
 23 24  2  0
 24 25  1  0
 25 26  2  0
 26 27  1  0
 27 28  2  0
  7 29  1  0
 29 30  2  0
 30  4  1  0
 28 12  1  0
 20 16  1  0
 28 23  1  0
  1 31  1  0
  5 32  1  0
  6 33  1  0
 11 34  1  0
 11 35  1  0
 17 36  1  0
 18 37  1  0
 19 38  1  0
 22 39  1  0
 24 40  1  0
 25 41  1  0
 26 42  1  0
 27 43  1  0
 29 44  1  0
 30 45  1  0
M  CHG  3   1  -1   8  -1  21   1
M  END
>  <UniqueID>  (10) 
9

>  <SMILES>  (10) 
[NH-]C(=O)c1ccc([N-]C(=O)Cn2c(=O)c(-c3ccco3)[n+](O)c3ccccc32)cc1

>  <Energy>  (10) 
100.8153754646764

>  <Genealogy>  (10) 
[NH-]C(=O)c1ccc([N-]C(=O)Cn2c(=O)c(-c3ccco3)[n+](O)c3ccccc32)cc1 (protonated)
[NH-]C(=O)c1ccc([N-]C(=O)Cn2c(=O)c(-c3ccco3)[n+](O)c3ccccc32)cc1 (3D coordinates assigned)
[NH-]C(=O)c1ccc([N-]C(=O)Cn2c(=O)c(-c3ccco3)[n+](O)c3ccccc32)cc1 (optimized conformer: 100.8153754646764 kcal/mol)

>  <smiles>  (10) 
NC(=O)c1ccc(NC(=O)Cn2c(=O)c(-c3ccco3)[n+]([O-])c3ccccc32)cc1

>  <score_type>  (10) 
oracle

>  <origin>  (10) 
adgpu

>  <m_score__min__energy>  (10) 
-10.279999999999999

>  <m_primary>  (10) 
energy

$$$$
10:0
     RDKit          3D

 41 43  0  0  0  0  0  0  0  0999 V2000
   -1.1640   26.3250  -28.9560 N   0  0  0  0  0  0  0  0  0  0  0  0
   -0.8290   24.8740  -28.0740 S   0  0  0  0  0  0  0  0  0  0  0  0
   -1.5120   24.9480  -26.7380 O   0  0  0  0  0  0  0  0  0  0  0  0
    0.6570   24.7660  -27.8750 O   0  0  0  0  0  0  0  0  0  0  0  0
   -1.4130   23.4550  -28.9530 C   0  0  0  0  0  0  0  0  0  0  0  0
   -0.7380   22.2310  -28.8280 C   0  0  0  0  0  0  0  0  0  0  0  0
   -1.1860   21.1040  -29.5190 C   0  0  0  0  0  0  0  0  0  0  0  0
   -2.3010   21.1920  -30.3520 C   0  0  0  0  0  0  0  0  0  0  0  0
   -2.9790   22.4050  -30.4890 C   0  0  0  0  0  0  0  0  0  0  0  0
   -2.5530   23.5440  -29.7800 C   0  0  0  0  0  0  0  0  0  0  0  0
   -3.2180   24.8090  -29.9360 N   0  0  0  0  0  0  0  0  0  0  0  0
   -4.5910   25.0060  -30.2840 C   0  0  0  0  0  0  0  0  0  0  0  0
   -5.3730   25.6140  -29.5030 O   0  0  0  0  0  0  0  0  0  0  0  0
   -5.0530   24.5670  -31.5660 N   0  0  0  0  0  0  0  0  0  0  0  0
   -5.8920   23.4240  -31.7710 C   0  0  0  0  0  0  0  0  0  0  0  0
   -7.1920   23.4600  -31.2620 C   0  0  0  0  0  0  0  0  0  0  0  0
   -8.0350   22.3610  -31.4040 C   0  0  0  0  0  0  0  0  0  0  0  0
   -7.5920   21.2060  -32.0520 C   0  0  0  0  0  0  0  0  0  0  0  0
   -8.7360   19.8760  -32.2130 Cl  0  0  0  0  0  0  0  0  0  0  0  0
   -6.2840   21.1490  -32.5840 C   0  0  0  0  0  0  0  0  0  0  0  0
   -5.7200   19.6920  -33.4310 S   0  0  0  0  0  0  0  0  0  0  0  0
   -4.2740   19.8500  -33.8090 O   0  0  0  0  0  0  0  0  0  0  0  0
   -6.5030   19.4780  -34.6980 O   0  0  0  0  0  0  0  0  0  0  0  0
   -5.8930   18.2930  -32.3270 C   0  0  0  0  0  0  0  0  0  0  0  0
   -6.8090   17.1940  -32.8430 C   0  0  0  0  0  0  0  0  0  0  0  0
   -5.3020   16.9880  -32.8330 C   0  0  0  0  0  0  0  0  0  0  0  0
   -5.4500   22.2860  -32.4880 C   0  0  0  0  0  0  0  0  0  0  0  0
   -4.2160   22.2900  -33.1410 O   0  0  0  0  0  0  0  0  0  0  0  0
   -1.2390   26.0610  -29.9630 H   0  0  0  0  0  0  0  0  0  0  0  0
    0.1493   22.1593  -28.1817 H   0  0  0  0  0  0  0  0  0  0  0  0
   -0.6589   20.1451  -29.4064 H   0  0  0  0  0  0  0  0  0  0  0  0
   -2.6469   20.3044  -30.9020 H   0  0  0  0  0  0  0  0  0  0  0  0
   -3.8517   22.4709  -31.1553 H   0  0  0  0  0  0  0  0  0  0  0  0
   -7.5521   24.3621  -30.7458 H   0  0  0  0  0  0  0  0  0  0  0  0
   -9.0583   22.4029  -31.0025 H   0  0  0  0  0  0  0  0  0  0  0  0
   -5.8087   18.8715  -31.3952 H   0  0  0  0  0  0  0  0  0  0  0  0
   -7.4455   16.6340  -32.1421 H   0  0  0  0  0  0  0  0  0  0  0  0
   -7.5977   17.1333  -33.6073 H   0  0  0  0  0  0  0  0  0  0  0  0
   -4.8486   16.2786  -32.1251 H   0  0  0  0  0  0  0  0  0  0  0  0
   -4.5493   16.7162  -33.5876 H   0  0  0  0  0  0  0  0  0  0  0  0
   -4.0980   21.9960  -34.1030 H   0  0  0  0  0  0  0  0  0  0  0  0
  1  2  1  0
  2  3  2  0
  2  4  2  0
  2  5  1  0
  5  6  2  0
  6  7  1  0
  7  8  2  0
  8  9  1  0
  9 10  2  0
 10 11  1  0
 11 12  1  0
 12 13  2  0
 12 14  1  0
 14 15  1  0
 15 16  2  0
 16 17  1  0
 17 18  2  0
 18 19  1  0
 18 20  1  0
 20 21  1  0
 21 22  2  0
 21 23  2  0
 21 24  1  0
 24 25  1  0
 25 26  1  0
 20 27  2  0
 27 28  1  0
 10  5  1  0
 27 15  1  0
 26 24  1  0
  1 29  1  0
  6 30  1  0
  7 31  1  0
  8 32  1  0
  9 33  1  0
 16 34  1  0
 17 35  1  0
 24 36  1  0
 25 37  1  0
 25 38  1  0
 26 39  1  0
 26 40  1  0
 28 41  1  0
M  CHG  3   1  -1  11  -1  14  -1
M  END
>  <UniqueID>  (11) 
10

>  <SMILES>  (11) 
[NH-]S(=O)(=O)c1ccccc1[N-]C(=O)[N-]c1ccc(Cl)c(S(=O)(=O)C2CC2)c1O

>  <Energy>  (11) 
319.67076690893407

>  <Genealogy>  (11) 
[NH-]S(=O)(=O)c1ccccc1[N-]C(=O)[N-]c1ccc(Cl)c(S(=O)(=O)C2CC2)c1O (protonated)
[NH-]S(=O)(=O)c1ccccc1[N-]C(=O)[N-]c1ccc(Cl)c(S(=O)(=O)C2CC2)c1O (3D coordinates assigned)
[NH-]S(=O)(=O)c1ccccc1[N-]C(=O)[N-]c1ccc(Cl)c(S(=O)(=O)C2CC2)c1O (nonaromatic ring conformer: 319.67076690893407 kcal/mol)

>  <smiles>  (11) 
NS(=O)(=O)c1ccccc1NC(=O)Nc1ccc(Cl)c(S(=O)(=O)C2CC2)c1O

>  <score_type>  (11) 
oracle

>  <origin>  (11) 
adgpu

>  <m_score__min__energy>  (11) 
-14.35

>  <m_primary>  (11) 
energy

$$$$
11:0
     RDKit          3D

 58 60  0  0  0  0  0  0  0  0999 V2000
   -6.2010   16.5060  -33.8600 C   0  0  0  0  0  0  0  0  0  0  0  0
   -6.9330   17.7210  -33.7260 O   0  0  0  0  0  0  0  0  0  0  0  0
   -6.3750   18.9470  -33.3340 C   0  0  0  0  0  0  0  0  0  0  0  0
   -5.0100   19.2380  -33.5170 C   0  0  0  0  0  0  0  0  0  0  0  0
   -4.4900   20.4710  -33.1170 C   0  0  0  0  0  0  0  0  0  0  0  0
   -5.3250   21.4380  -32.5410 C   0  0  0  0  0  0  0  0  0  0  0  0
   -4.7660   22.7680  -32.1050 C   0  0  0  0  0  0  0  0  0  0  0  0
   -3.9880   22.6340  -30.8570 N   0  0  0  0  0  0  0  0  0  0  0  0
   -2.5950   22.2870  -31.1670 C   0  0  0  0  0  0  0  0  0  0  0  0
   -4.0300   24.1140  -29.9210 S   0  0  0  0  0  0  0  0  0  0  0  0
   -3.8760   25.2950  -30.8380 O   0  0  0  0  0  0  0  0  0  0  0  0
   -5.3620   24.2370  -29.2350 O   0  0  0  0  0  0  0  0  0  0  0  0
   -2.7550   24.1540  -28.7000 C   0  0  0  0  0  0  0  0  0  0  0  0
   -2.8890   23.4120  -27.5180 C   0  0  0  0  0  0  0  0  0  0  0  0
   -1.8730   23.4300  -26.5570 C   0  0  0  0  0  0  0  0  0  0  0  0
   -0.7180   24.1960  -26.7660 C   0  0  0  0  0  0  0  0  0  0  0  0
    0.5810   24.2080  -25.5750 S   0  0  0  0  0  0  0  0  0  0  0  0
    1.8860   24.5160  -26.2560 O   0  0  0  0  0  0  0  0  0  0  0  0
    0.6750   22.8380  -24.9610 O   0  0  0  0  0  0  0  0  0  0  0  0
    0.2270   25.4000  -24.3400 N   0  0  0  0  0  0  0  0  0  0  0  0
   -1.1530   25.9310  -24.4670 C   0  0  0  0  0  0  0  0  0  0  0  0
   -1.2040   27.2830  -25.2040 C   0  0  0  0  0  0  0  0  0  0  0  0
   -0.1770   27.3590  -26.1650 O   0  0  0  0  0  0  0  0  0  0  0  0
    1.0860   27.4410  -25.5260 C   0  0  0  0  0  0  0  0  0  0  0  0
    1.2360   26.4780  -24.3230 C   0  0  0  0  0  0  0  0  0  0  0  0
   -0.5870   24.9410  -27.9440 C   0  0  0  0  0  0  0  0  0  0  0  0
   -1.6010   24.9240  -28.9050 C   0  0  0  0  0  0  0  0  0  0  0  0
   -6.6820   21.1450  -32.3410 C   0  0  0  0  0  0  0  0  0  0  0  0
   -7.2150   19.9030  -32.7410 C   0  0  0  0  0  0  0  0  0  0  0  0
   -8.5710   19.5840  -32.5680 O   0  0  0  0  0  0  0  0  0  0  0  0
   -9.0590   18.5980  -31.6640 C   0  0  0  0  0  0  0  0  0  0  0  0
   -5.9623   16.1098  -32.8620 H   0  0  0  0  0  0  0  0  0  0  0  0
   -6.8071   15.7716  -34.4107 H   0  0  0  0  0  0  0  0  0  0  0  0
   -5.2685   16.6986  -34.4107 H   0  0  0  0  0  0  0  0  0  0  0  0
   -4.3487   18.4896  -33.9780 H   0  0  0  0  0  0  0  0  0  0  0  0
   -3.4197   20.6842  -33.2548 H   0  0  0  0  0  0  0  0  0  0  0  0
   -4.1104   23.1592  -32.8969 H   0  0  0  0  0  0  0  0  0  0  0  0
   -5.6042   23.4564  -31.9221 H   0  0  0  0  0  0  0  0  0  0  0  0
   -2.0348   22.1475  -30.2307 H   0  0  0  0  0  0  0  0  0  0  0  0
   -2.5705   21.3553  -31.7513 H   0  0  0  0  0  0  0  0  0  0  0  0
   -2.1363   23.0983  -31.7513 H   0  0  0  0  0  0  0  0  0  0  0  0
   -3.7960   22.8139  -27.3459 H   0  0  0  0  0  0  0  0  0  0  0  0
   -1.9807   22.8411  -25.6342 H   0  0  0  0  0  0  0  0  0  0  0  0
    0.2940   24.8950  -23.4250 H   0  0  0  0  0  0  0  0  0  0  0  0
   -1.7603   25.2030  -25.0248 H   0  0  0  0  0  0  0  0  0  0  0  0
   -1.5422   26.0915  -23.4508 H   0  0  0  0  0  0  0  0  0  0  0  0
   -2.1776   27.3856  -25.7055 H   0  0  0  0  0  0  0  0  0  0  0  0
   -1.0677   28.0929  -24.4722 H   0  0  0  0  0  0  0  0  0  0  0  0
    1.8653   27.1996  -26.2639 H   0  0  0  0  0  0  0  0  0  0  0  0
    1.1832   28.4642  -25.1341 H   0  0  0  0  0  0  0  0  0  0  0  0
    2.2381   26.0254  -24.3548 H   0  0  0  0  0  0  0  0  0  0  0  0
    1.0888   27.0627  -23.4030 H   0  0  0  0  0  0  0  0  0  0  0  0
    0.3183   25.5424  -28.1137 H   0  0  0  0  0  0  0  0  0  0  0  0
   -1.4938   25.5166  -29.8255 H   0  0  0  0  0  0  0  0  0  0  0  0
   -7.3365   21.8916  -31.8675 H   0  0  0  0  0  0  0  0  0  0  0  0
   -8.8926   18.9342  -30.6299 H   0  0  0  0  0  0  0  0  0  0  0  0
  -10.1356   18.4474  -31.8319 H   0  0  0  0  0  0  0  0  0  0  0  0
   -8.5257   17.6507  -31.8319 H   0  0  0  0  0  0  0  0  0  0  0  0
  1  2  1  0
  2  3  1  0
  3  4  2  0
  4  5  1  0
  5  6  2  0
  6  7  1  0
  7  8  1  0
  8  9  1  0
  8 10  1  0
 10 11  2  0
 10 12  2  0
 10 13  1  0
 13 14  2  0
 14 15  1  0
 15 16  2  0
 16 17  1  0
 17 18  2  0
 17 19  2  0
 17 20  1  0
 20 21  1  0
 21 22  1  0
 22 23  1  0
 23 24  1  0
 24 25  1  0
 16 26  1  0
 26 27  2  0
  6 28  1  0
 28 29  2  0
 29 30  1  0
 30 31  1  0
 29  3  1  0
 27 13  1  0
 25 20  1  0
  1 32  1  0
  1 33  1  0
  1 34  1  0
  4 35  1  0
  5 36  1  0
  7 37  1  0
  7 38  1  0
  9 39  1  0
  9 40  1  0
  9 41  1  0
 14 42  1  0
 15 43  1  0
 20 44  1  0
 21 45  1  0
 21 46  1  0
 22 47  1  0
 22 48  1  0
 24 49  1  0
 24 50  1  0
 25 51  1  0
 25 52  1  0
 26 53  1  0
 27 54  1  0
 28 55  1  0
 31 56  1  0
 31 57  1  0
 31 58  1  0
M  CHG  1  20   1
M  END
>  <UniqueID>  (12) 
11

>  <SMILES>  (12) 
COc1ccc(CN(C)S(=O)(=O)c2ccc(S(=O)(=O)[NH+]3CCOCC3)cc2)cc1OC

>  <Energy>  (12) 
66.19399074151967

>  <Genealogy>  (12) 
COc1ccc(CN(C)S(=O)(=O)c2ccc(S(=O)(=O)[NH+]3CCOCC3)cc2)cc1OC (protonated)
COc1ccc(CN(C)S(=O)(=O)c2ccc(S(=O)(=O)[NH+]3CCOCC3)cc2)cc1OC (3D coordinates assigned)
COc1ccc(CN(C)S(=O)(=O)c2ccc(S(=O)(=O)[NH+]3CCOCC3)cc2)cc1OC (nonaromatic ring conformer: 66.19399074151967 kcal/mol)

>  <smiles>  (12) 
COc1ccc(CN(C)S(=O)(=O)c2ccc(S(=O)(=O)N3CCOCC3)cc2)cc1OC

>  <score_type>  (12) 
oracle

>  <origin>  (12) 
adgpu

>  <m_score__min__energy>  (12) 
-8.8599999999999994

>  <m_primary>  (12) 
energy

$$$$
12:0
     RDKit          3D

 40 42  0  0  0  0  0  0  0  0999 V2000
   -1.4120   25.6640  -29.3430 N   0  0  0  0  0  0  0  0  0  0  0  0
   -0.8640   24.7410  -27.9890 S   0  0  0  0  0  0  0  0  0  0  0  0
    0.6150   24.5060  -28.1260 O   0  0  0  0  0  0  0  0  0  0  0  0
   -1.1240   25.5000  -26.7170 O   0  0  0  0  0  0  0  0  0  0  0  0
   -1.7310   23.2020  -27.9410 C   0  0  0  0  0  0  0  0  0  0  0  0
   -1.0320   22.0160  -27.6660 C   0  0  0  0  0  0  0  0  0  0  0  0
   -1.7030   20.7920  -27.6370 C   0  0  0  0  0  0  0  0  0  0  0  0
   -3.0750   20.7410  -27.8800 C   0  0  0  0  0  0  0  0  0  0  0  0
   -3.7840   21.9140  -28.1500 C   0  0  0  0  0  0  0  0  0  0  0  0
   -3.1200   23.1560  -28.1870 C   0  0  0  0  0  0  0  0  0  0  0  0
   -3.8240   24.3750  -28.4670 N   0  0  0  0  0  0  0  0  0  0  0  0
   -4.7360   24.7010  -29.9060 S   0  0  0  0  0  0  0  0  0  0  0  0
   -6.0000   25.4250  -29.5330 O   0  0  0  0  0  0  0  0  0  0  0  0
   -3.9230   25.5740  -30.8180 O   0  0  0  0  0  0  0  0  0  0  0  0
   -5.1040   23.1940  -30.7380 C   0  0  0  0  0  0  0  0  0  0  0  0
   -6.4020   22.6700  -30.7190 C   0  0  0  0  0  0  0  0  0  0  0  0
   -6.6850   21.4660  -31.3680 C   0  0  0  0  0  0  0  0  0  0  0  0
   -5.6720   20.7670  -32.0510 C   0  0  0  0  0  0  0  0  0  0  0  0
   -5.9710   19.4850  -32.7380 C   0  0  0  0  0  0  0  0  0  0  0  0
   -6.8630   18.5570  -32.1670 C   0  0  0  0  0  0  0  0  0  0  0  0
   -7.1390   17.3490  -32.8150 C   0  0  0  0  0  0  0  0  0  0  0  0
   -6.5340   17.0550  -34.0380 C   0  0  0  0  0  0  0  0  0  0  0  0
   -5.6480   17.9670  -34.6160 C   0  0  0  0  0  0  0  0  0  0  0  0
   -5.3660   19.1750  -33.9720 C   0  0  0  0  0  0  0  0  0  0  0  0
   -4.3720   21.3030  -32.0710 C   0  0  0  0  0  0  0  0  0  0  0  0
   -4.0920   22.5070  -31.4200 C   0  0  0  0  0  0  0  0  0  0  0  0
   -2.4560   25.6770  -29.3010 H   0  0  0  0  0  0  0  0  0  0  0  0
    0.0502   22.0513  -27.4723 H   0  0  0  0  0  0  0  0  0  0  0  0
   -1.1485   19.8666  -27.4221 H   0  0  0  0  0  0  0  0  0  0  0  0
   -3.6004   19.7748  -27.8591 H   0  0  0  0  0  0  0  0  0  0  0  0
   -4.8674   21.8676  -28.3348 H   0  0  0  0  0  0  0  0  0  0  0  0
   -7.2024   23.2087  -30.1907 H   0  0  0  0  0  0  0  0  0  0  0  0
   -7.7074   21.0609  -31.3452 H   0  0  0  0  0  0  0  0  0  0  0  0
   -7.3458   18.7838  -31.2050 H   0  0  0  0  0  0  0  0  0  0  0  0
   -7.8346   16.6287  -32.3598 H   0  0  0  0  0  0  0  0  0  0  0  0
   -6.7550   16.1050  -34.5466 H   0  0  0  0  0  0  0  0  0  0  0  0
   -5.1714   17.7342  -35.5796 H   0  0  0  0  0  0  0  0  0  0  0  0
   -4.6667   19.8888  -34.4319 H   0  0  0  0  0  0  0  0  0  0  0  0
   -3.5699   20.7705  -32.6030 H   0  0  0  0  0  0  0  0  0  0  0  0
   -3.0717   22.9174  -31.4432 H   0  0  0  0  0  0  0  0  0  0  0  0
  1  2  1  0
  2  3  2  0
  2  4  2  0
  2  5  1  0
  5  6  2  0
  6  7  1  0
  7  8  2  0
  8  9  1  0
  9 10  2  0
 10 11  1  0
 11 12  1  0
 12 13  2  0
 12 14  2  0
 12 15  1  0
 15 16  2  0
 16 17  1  0
 17 18  2  0
 18 19  1  0
 19 20  2  0
 20 21  1  0
 21 22  2  0
 22 23  1  0
 23 24  2  0
 18 25  1  0
 25 26  2  0
 10  5  1  0
 26 15  1  0
 24 19  1  0
  1 27  1  0
  6 28  1  0
  7 29  1  0
  8 30  1  0
  9 31  1  0
 16 32  1  0
 17 33  1  0
 20 34  1  0
 21 35  1  0
 22 36  1  0
 23 37  1  0
 24 38  1  0
 25 39  1  0
 26 40  1  0
M  CHG  2   1  -1  11  -1
M  END
>  <UniqueID>  (13) 
12

>  <SMILES>  (13) 
[NH-]S(=O)(=O)c1ccccc1[N-]S(=O)(=O)c1ccc(-c2ccccc2)cc1

>  <Energy>  (13) 
51.68954044933773

>  <Genealogy>  (13) 
[NH-]S(=O)(=O)c1ccccc1[N-]S(=O)(=O)c1ccc(-c2ccccc2)cc1 (protonated)
[NH-]S(=O)(=O)c1ccccc1[N-]S(=O)(=O)c1ccc(-c2ccccc2)cc1 (3D coordinates assigned)
[NH-]S(=O)(=O)c1ccccc1[N-]S(=O)(=O)c1ccc(-c2ccccc2)cc1 (optimized conformer: 51.68954044933773 kcal/mol)

>  <smiles>  (13) 
NS(=O)(=O)c1ccccc1NS(=O)(=O)c1ccc(-c2ccccc2)cc1

>  <score_type>  (13) 
oracle

>  <origin>  (13) 
adgpu

>  <m_score__min__energy>  (13) 
-13.16

>  <m_primary>  (13) 
energy

$$$$
13:0
     RDKit          3D

 44 46  0  0  0  0  0  0  0  0999 V2000
   -8.5820   20.1850  -32.0310 C   0  0  0  0  0  0  0  0  0  0  0  0
   -8.1870   18.8180  -32.1230 O   0  0  0  0  0  0  0  0  0  0  0  0
   -7.0400   18.3700  -32.7970 C   0  0  0  0  0  0  0  0  0  0  0  0
   -6.4710   17.1560  -32.4000 C   0  0  0  0  0  0  0  0  0  0  0  0
   -5.3260   16.6650  -33.0370 C   0  0  0  0  0  0  0  0  0  0  0  0
   -4.7330   17.3900  -34.0850 C   0  0  0  0  0  0  0  0  0  0  0  0
   -3.5610   16.9240  -34.7690 N   0  0  0  0  0  0  0  0  0  0  0  0
   -1.9410   17.0190  -34.1540 S   0  0  0  0  0  0  0  0  0  0  0  0
   -1.7310   15.9270  -33.1400 O   0  0  0  0  0  0  0  0  0  0  0  0
   -0.9710   16.8180  -35.2850 O   0  0  0  0  0  0  0  0  0  0  0  0
   -1.6650   18.6060  -33.4420 C   0  0  0  0  0  0  0  0  0  0  0  0
   -0.3960   19.1950  -33.4760 C   0  0  0  0  0  0  0  0  0  0  0  0
   -0.1850   20.4390  -32.8800 C   0  0  0  0  0  0  0  0  0  0  0  0
   -1.2410   21.1110  -32.2560 C   0  0  0  0  0  0  0  0  0  0  0  0
   -0.9820   22.2810  -31.6230 F   0  0  0  0  0  0  0  0  0  0  0  0
   -2.5320   20.5430  -32.2400 C   0  0  0  0  0  0  0  0  0  0  0  0
   -3.6810   21.2290  -31.6050 C   0  0  0  0  0  0  0  0  0  0  0  0
   -4.6570   20.5380  -31.2030 O   0  0  0  0  0  0  0  0  0  0  0  0
   -3.7010   22.6600  -31.4560 N   0  0  0  0  0  0  0  0  0  0  0  0
   -4.8410   23.3900  -30.9720 C   0  0  0  0  0  0  0  0  0  0  0  0
   -6.1300   22.8280  -31.0150 C   0  0  0  0  0  0  0  0  0  0  0  0
   -7.2350   23.5620  -30.5730 C   0  0  0  0  0  0  0  0  0  0  0  0
   -7.0660   24.8640  -30.0930 C   0  0  0  0  0  0  0  0  0  0  0  0
   -5.7920   25.4370  -30.0610 C   0  0  0  0  0  0  0  0  0  0  0  0
   -4.6810   24.7080  -30.5030 C   0  0  0  0  0  0  0  0  0  0  0  0
   -3.4210   25.2930  -30.4640 O   0  0  0  0  0  0  0  0  0  0  0  0
   -2.7270   19.2780  -32.8220 C   0  0  0  0  0  0  0  0  0  0  0  0
   -5.3010   18.6050  -34.4820 C   0  0  0  0  0  0  0  0  0  0  0  0
   -6.4480   19.0950  -33.8480 C   0  0  0  0  0  0  0  0  0  0  0  0
   -8.6650   20.4722  -30.9724 H   0  0  0  0  0  0  0  0  0  0  0  0
   -7.8300   20.8180  -32.5248 H   0  0  0  0  0  0  0  0  0  0  0  0
   -9.5557   20.3193  -32.5248 H   0  0  0  0  0  0  0  0  0  0  0  0
   -6.9274   16.5821  -31.5800 H   0  0  0  0  0  0  0  0  0  0  0  0
   -4.8883   15.7081  -32.7164 H   0  0  0  0  0  0  0  0  0  0  0  0
    0.4368   18.6763  -33.9735 H   0  0  0  0  0  0  0  0  0  0  0  0
    0.8166   20.8932  -32.9011 H   0  0  0  0  0  0  0  0  0  0  0  0
   -2.8360   23.2090  -31.6670 H   0  0  0  0  0  0  0  0  0  0  0  0
   -6.2692   21.8063  -31.3981 H   0  0  0  0  0  0  0  0  0  0  0  0
   -8.2392   23.1140  -30.6030 H   0  0  0  0  0  0  0  0  0  0  0  0
   -7.9360   25.4375  -29.7405 H   0  0  0  0  0  0  0  0  0  0  0  0
   -5.6614   26.4634  -29.6876 H   0  0  0  0  0  0  0  0  0  0  0  0
   -3.7226   18.8114  -32.7903 H   0  0  0  0  0  0  0  0  0  0  0  0
   -4.8420   19.1802  -35.2996 H   0  0  0  0  0  0  0  0  0  0  0  0
   -6.8883   20.0496  -34.1719 H   0  0  0  0  0  0  0  0  0  0  0  0
  1  2  1  0
  2  3  1  0
  3  4  2  0
  4  5  1  0
  5  6  2  0
  6  7  1  0
  7  8  1  0
  8  9  2  0
  8 10  2  0
  8 11  1  0
 11 12  2  0
 12 13  1  0
 13 14  2  0
 14 15  1  0
 14 16  1  0
 16 17  1  0
 17 18  2  0
 17 19  1  0
 19 20  1  0
 20 21  2  0
 21 22  1  0
 22 23  2  0
 23 24  1  0
 24 25  2  0
 25 26  1  0
 16 27  2  0
  6 28  1  0
 28 29  2  0
 29  3  1  0
 27 11  1  0
 25 20  1  0
  1 30  1  0
  1 31  1  0
  1 32  1  0
  4 33  1  0
  5 34  1  0
 12 35  1  0
 13 36  1  0
 19 37  1  0
 21 38  1  0
 22 39  1  0
 23 40  1  0
 24 41  1  0
 27 42  1  0
 28 43  1  0
 29 44  1  0
M  CHG  2   7  -1  26  -1
M  END
>  <UniqueID>  (14) 
13

>  <SMILES>  (14) 
COc1ccc([N-]S(=O)(=O)c2ccc(F)c(C(=O)Nc3ccccc3[O-])c2)cc1

>  <Energy>  (14) 
58.37001509023357

>  <Genealogy>  (14) 
COc1ccc([N-]S(=O)(=O)c2ccc(F)c(C(=O)Nc3ccccc3[O-])c2)cc1 (protonated)
COc1ccc([N-]S(=O)(=O)c2ccc(F)c(C(=O)Nc3ccccc3[O-])c2)cc1 (3D coordinates assigned)
COc1ccc([N-]S(=O)(=O)c2ccc(F)c(C(=O)Nc3ccccc3[O-])c2)cc1 (optimized conformer: 58.37001509023357 kcal/mol)

>  <smiles>  (14) 
COc1ccc(NS(=O)(=O)c2ccc(F)c(C(=O)Nc3ccccc3O)c2)cc1

>  <score_type>  (14) 
oracle

>  <origin>  (14) 
adgpu

>  <m_score__min__energy>  (14) 
-11.82

>  <m_primary>  (14) 
energy

$$$$
14:0
     RDKit          3D

 68 71  0  0  0  0  0  0  0  0999 V2000
   -5.9850   23.0020  -32.3480 C   0  0  0  0  0  0  0  0  0  0  0  0
   -5.6860   22.5480  -30.9210 C   0  0  0  0  0  0  0  0  0  0  0  0
   -4.2830   22.1310  -30.7790 N   0  0  0  0  0  0  0  0  0  0  0  0
   -3.6840   21.2170  -31.7180 C   0  0  0  0  0  0  0  0  0  0  0  0
   -4.3970   20.1630  -32.1930 N   0  0  0  0  0  0  0  0  0  0  0  0
   -3.8560   19.3040  -33.0960 C   0  0  0  0  0  0  0  0  0  0  0  0
   -4.6260   18.1960  -33.6130 N   0  0  0  0  0  0  0  0  0  0  0  0
   -4.4680   17.7810  -35.0190 C   0  0  0  0  0  0  0  0  0  0  0  0
   -5.6450   17.5840  -32.7360 C   0  0  0  0  0  0  0  0  0  0  0  0
   -6.8410   18.4700  -32.4870 C   0  0  0  0  0  0  0  0  0  0  0  0
   -7.7720   18.1400  -31.4870 C   0  0  0  0  0  0  0  0  0  0  0  0
   -8.9010   18.9400  -31.2850 C   0  0  0  0  0  0  0  0  0  0  0  0
   -9.1120   20.0680  -32.0820 C   0  0  0  0  0  0  0  0  0  0  0  0
   -8.1930   20.4000  -33.0820 C   0  0  0  0  0  0  0  0  0  0  0  0
   -7.0610   19.6060  -33.2860 C   0  0  0  0  0  0  0  0  0  0  0  0
   -2.5800   19.5100  -33.5180 N   0  0  0  0  0  0  0  0  0  0  0  0
   -1.8500   20.5580  -33.0490 C   0  0  0  0  0  0  0  0  0  0  0  0
   -0.4890   20.7600  -33.4850 N   0  0  0  0  0  0  0  0  0  0  0  0
    0.6390   20.4250  -32.5990 C   0  0  0  0  0  0  0  0  0  0  0  0
    1.8690   19.9160  -33.3870 C   0  0  0  0  0  0  0  0  0  0  0  0
    1.8950   20.3340  -34.8030 N   0  0  0  0  0  0  0  0  0  0  0  0
    1.2530   21.6360  -35.0110 C   0  0  0  0  0  0  0  0  0  0  0  0
   -0.2450   21.5280  -34.7150 C   0  0  0  0  0  0  0  0  0  0  0  0
   -2.4130   21.4110  -32.1540 N   0  0  0  0  0  0  0  0  0  0  0  0
   -3.4920   22.6650  -29.7040 C   0  0  0  0  0  0  0  0  0  0  0  0
   -2.9580   21.8040  -28.7330 C   0  0  0  0  0  0  0  0  0  0  0  0
   -2.1700   22.3120  -27.6830 C   0  0  0  0  0  0  0  0  0  0  0  0
   -1.6070   21.4890  -26.6960 O   0  0  0  0  0  0  0  0  0  0  0  0
   -1.8380   20.0870  -26.5910 C   0  0  0  0  0  0  0  0  0  0  0  0
   -1.9330   23.6890  -27.6130 C   0  0  0  0  0  0  0  0  0  0  0  0
   -2.4780   24.5540  -28.5610 C   0  0  0  0  0  0  0  0  0  0  0  0
   -3.2600   24.0500  -29.6190 C   0  0  0  0  0  0  0  0  0  0  0  0
   -3.8240   24.8890  -30.5930 O   0  0  0  0  0  0  0  0  0  0  0  0
   -5.0740   25.5570  -30.4550 C   0  0  0  0  0  0  0  0  0  0  0  0
   -6.5898   23.9204  -32.3214 H   0  0  0  0  0  0  0  0  0  0  0  0
   -5.0402   23.2003  -32.8752 H   0  0  0  0  0  0  0  0  0  0  0  0
   -6.5404   22.2123  -32.8752 H   0  0  0  0  0  0  0  0  0  0  0  0
   -5.8845   23.3809  -30.2304 H   0  0  0  0  0  0  0  0  0  0  0  0
   -6.3306   21.6880  -30.6866 H   0  0  0  0  0  0  0  0  0  0  0  0
   -4.0768   16.7536  -35.0563 H   0  0  0  0  0  0  0  0  0  0  0  0
   -5.4440   17.8203  -35.5248 H   0  0  0  0  0  0  0  0  0  0  0  0
   -3.7653   18.4595  -35.5248 H   0  0  0  0  0  0  0  0  0  0  0  0
   -5.9942   16.6530  -33.2063 H   0  0  0  0  0  0  0  0  0  0  0  0
   -5.1667   17.4076  -31.7613 H   0  0  0  0  0  0  0  0  0  0  0  0
   -7.6120   17.2496  -30.8613 H   0  0  0  0  0  0  0  0  0  0  0  0
   -9.6240   18.6809  -30.4975 H   0  0  0  0  0  0  0  0  0  0  0  0
  -10.0015   20.6951  -31.9226 H   0  0  0  0  0  0  0  0  0  0  0  0
   -8.3612   21.2878  -33.7094 H   0  0  0  0  0  0  0  0  0  0  0  0
   -6.3402   19.8705  -34.0737 H   0  0  0  0  0  0  0  0  0  0  0  0
    0.9266   21.3250  -32.0358 H   0  0  0  0  0  0  0  0  0  0  0  0
    0.3120   19.6191  -31.9255 H   0  0  0  0  0  0  0  0  0  0  0  0
    2.7759   20.3001  -32.8971 H   0  0  0  0  0  0  0  0  0  0  0  0
    1.8154   18.8173  -33.3823 H   0  0  0  0  0  0  0  0  0  0  0  0
    2.8900   20.3940  -35.1220 H   0  0  0  0  0  0  0  0  0  0  0  0
    1.4150   19.6110  -35.3900 H   0  0  0  0  0  0  0  0  0  0  0  0
    1.7059   22.3784  -34.3374 H   0  0  0  0  0  0  0  0  0  0  0  0
    1.3954   21.9486  -36.0560 H   0  0  0  0  0  0  0  0  0  0  0  0
   -0.6611   22.5392  -34.5953 H   0  0  0  0  0  0  0  0  0  0  0  0
   -0.7295   21.0065  -35.5536 H   0  0  0  0  0  0  0  0  0  0  0  0
   -3.1567   20.7238  -28.7929 H   0  0  0  0  0  0  0  0  0  0  0  0
   -1.8850   19.8016  -25.5297 H   0  0  0  0  0  0  0  0  0  0  0  0
   -2.7899   19.8345  -27.0811 H   0  0  0  0  0  0  0  0  0  0  0  0
   -1.0175   19.5425  -27.0811 H   0  0  0  0  0  0  0  0  0  0  0  0
   -1.3102   24.0935  -26.8015 H   0  0  0  0  0  0  0  0  0  0  0  0
   -2.2964   25.6361  -28.4824 H   0  0  0  0  0  0  0  0  0  0  0  0
   -5.3072   25.6816  -29.3873 H   0  0  0  0  0  0  0  0  0  0  0  0
   -5.0169   26.5448  -30.9356 H   0  0  0  0  0  0  0  0  0  0  0  0
   -5.8635   24.9606  -30.9356 H   0  0  0  0  0  0  0  0  0  0  0  0
  1  2  1  0
  2  3  1  0
  3  4  1  0
  4  5  2  0
  5  6  1  0
  6  7  1  0
  7  8  1  0
  7  9  1  0
  9 10  1  0
 10 11  2  0
 11 12  1  0
 12 13  2  0
 13 14  1  0
 14 15  2  0
  6 16  2  0
 16 17  1  0
 17 18  1  0
 18 19  1  0
 19 20  1  0
 20 21  1  0
 21 22  1  0
 22 23  1  0
 17 24  2  0
  3 25  1  0
 25 26  2  0
 26 27  1  0
 27 28  1  0
 28 29  1  0
 27 30  2  0
 30 31  1  0
 31 32  2  0
 32 33  1  0
 33 34  1  0
 24  4  1  0
 32 25  1  0
 15 10  1  0
 23 18  1  0
  1 35  1  0
  1 36  1  0
  1 37  1  0
  2 38  1  0
  2 39  1  0
  8 40  1  0
  8 41  1  0
  8 42  1  0
  9 43  1  0
  9 44  1  0
 11 45  1  0
 12 46  1  0
 13 47  1  0
 14 48  1  0
 15 49  1  0
 19 50  1  0
 19 51  1  0
 20 52  1  0
 20 53  1  0
 21 54  1  0
 21 55  1  0
 22 56  1  0
 22 57  1  0
 23 58  1  0
 23 59  1  0
 26 60  1  0
 29 61  1  0
 29 62  1  0
 29 63  1  0
 30 64  1  0
 31 65  1  0
 34 66  1  0
 34 67  1  0
 34 68  1  0
M  CHG  1  21   1
M  END
>  <UniqueID>  (15) 
14

>  <SMILES>  (15) 
CCN(c1nc(N(C)Cc2ccccc2)nc(N2CC[NH2+]CC2)n1)c1cc(OC)ccc1OC

>  <Energy>  (15) 
78.61338296976609

>  <Genealogy>  (15) 
CCN(c1nc(N(C)Cc2ccccc2)nc(N2CC[NH2+]CC2)n1)c1cc(OC)ccc1OC (protonated)
CCN(c1nc(N(C)Cc2ccccc2)nc(N2CC[NH2+]CC2)n1)c1cc(OC)ccc1OC (3D coordinates assigned)
CCN(c1nc(N(C)Cc2ccccc2)nc(N2CC[NH2+]CC2)n1)c1cc(OC)ccc1OC (nonaromatic ring conformer: 78.61338296976609 kcal/mol)

>  <smiles>  (15) 
CCN(c1nc(N(C)Cc2ccccc2)nc(N2CCNCC2)n1)c1cc(OC)ccc1OC

>  <score_type>  (15) 
oracle

>  <origin>  (15) 
adgpu

>  <m_score__min__energy>  (15) 
-8.1999999999999993

>  <m_primary>  (15) 
energy

$$$$
15:0
     RDKit          3D

 39 41  0  0  0  0  0  0  0  0999 V2000
   -4.4310   23.7870  -28.7430 O   0  0  0  0  0  0  0  0  0  0  0  0
   -3.9050   24.5050  -29.6340 C   0  0  0  0  0  0  0  0  0  0  0  0
   -2.7490   25.2950  -29.3420 N   0  0  0  0  0  0  0  0  0  0  0  0
   -1.5810   24.8470  -28.6410 C   0  0  0  0  0  0  0  0  0  0  0  0
   -1.5600   24.9120  -27.2440 C   0  0  0  0  0  0  0  0  0  0  0  0
   -0.4520   24.4430  -26.5360 C   0  0  0  0  0  0  0  0  0  0  0  0
    0.6250   23.8950  -27.2390 C   0  0  0  0  0  0  0  0  0  0  0  0
    1.6320   23.4660  -26.6180 O   0  0  0  0  0  0  0  0  0  0  0  0
    0.5820   23.8150  -28.5940 N   0  0  0  0  0  0  0  0  0  0  0  0
   -0.4840   24.2700  -29.3050 C   0  0  0  0  0  0  0  0  0  0  0  0
   -4.4730   24.5720  -30.9440 N   0  0  0  0  0  0  0  0  0  0  0  0
   -5.4000   23.6260  -31.4900 C   0  0  0  0  0  0  0  0  0  0  0  0
   -6.7830   23.8680  -31.4410 C   0  0  0  0  0  0  0  0  0  0  0  0
   -7.6830   22.8970  -31.8880 C   0  0  0  0  0  0  0  0  0  0  0  0
   -7.2120   21.6750  -32.3730 C   0  0  0  0  0  0  0  0  0  0  0  0
   -5.8380   21.4240  -32.4240 C   0  0  0  0  0  0  0  0  0  0  0  0
   -4.9240   22.4000  -32.0070 C   0  0  0  0  0  0  0  0  0  0  0  0
   -3.5510   22.1200  -32.1060 O   0  0  0  0  0  0  0  0  0  0  0  0
   -2.7640   21.6320  -31.0520 C   0  0  0  0  0  0  0  0  0  0  0  0
   -1.3700   21.5040  -31.1700 C   0  0  0  0  0  0  0  0  0  0  0  0
   -0.6050   21.0740  -30.0830 C   0  0  0  0  0  0  0  0  0  0  0  0
   -1.2240   20.7260  -28.8710 C   0  0  0  0  0  0  0  0  0  0  0  0
   -0.3880   20.3420  -27.6760 C   0  0  0  0  0  0  0  0  0  0  0  0
   -0.7770   21.0520  -26.5540 F   0  0  0  0  0  0  0  0  0  0  0  0
   -0.5230   18.9930  -27.4030 F   0  0  0  0  0  0  0  0  0  0  0  0
    0.9400   20.6160  -27.9450 F   0  0  0  0  0  0  0  0  0  0  0  0
   -2.6230   20.8340  -28.7650 C   0  0  0  0  0  0  0  0  0  0  0  0
   -3.3860   21.2670  -29.8530 C   0  0  0  0  0  0  0  0  0  0  0  0
   -2.4190   25.3339  -26.7016 H   0  0  0  0  0  0  0  0  0  0  0  0
   -0.4267   24.5039  -25.4380 H   0  0  0  0  0  0  0  0  0  0  0  0
   -0.4882   24.1865  -30.4018 H   0  0  0  0  0  0  0  0  0  0  0  0
   -7.1586   24.8249  -31.0495 H   0  0  0  0  0  0  0  0  0  0  0  0
   -8.7645   23.0955  -31.8578 H   0  0  0  0  0  0  0  0  0  0  0  0
   -7.9234   20.9090  -32.7153 H   0  0  0  0  0  0  0  0  0  0  0  0
   -5.4724   20.4546  -32.7937 H   0  0  0  0  0  0  0  0  0  0  0  0
   -0.8778   21.7438  -32.1241 H   0  0  0  0  0  0  0  0  0  0  0  0
    0.4890   21.0075  -30.1768 H   0  0  0  0  0  0  0  0  0  0  0  0
   -3.1200   20.5756  -27.8183 H   0  0  0  0  0  0  0  0  0  0  0  0
   -4.4812   21.3211  -29.7662 H   0  0  0  0  0  0  0  0  0  0  0  0
  1  2  2  0
  2  3  1  0
  3  4  1  0
  4  5  1  0
  5  6  2  0
  6  7  1  0
  7  8  2  0
  7  9  1  0
  9 10  1  0
  2 11  1  0
 11 12  1  0
 12 13  2  0
 13 14  1  0
 14 15  2  0
 15 16  1  0
 16 17  2  0
 17 18  1  0
 18 19  1  0
 19 20  2  0
 20 21  1  0
 21 22  2  0
 22 23  1  0
 23 24  1  0
 23 25  1  0
 23 26  1  0
 22 27  1  0
 27 28  2  0
 10  4  2  0
 17 12  1  0
 28 19  1  0
  5 29  1  0
  6 30  1  0
 10 31  1  0
 13 32  1  0
 14 33  1  0
 15 34  1  0
 16 35  1  0
 20 36  1  0
 21 37  1  0
 27 38  1  0
 28 39  1  0
M  CHG  3   3  -1   9  -1  11  -1
M  END
>  <UniqueID>  (16) 
15

>  <SMILES>  (16) 
O=C([N-]c1ccc(=O)[n-]c1)[N-]c1ccccc1Oc1ccc(C(F)(F)F)cc1

>  <Energy>  (16) 
57.253103726081804

>  <Genealogy>  (16) 
O=C([N-]c1ccc(=O)[n-]c1)[N-]c1ccccc1Oc1ccc(C(F)(F)F)cc1 (protonated)
O=C([N-]c1ccc(=O)[n-]c1)[N-]c1ccccc1Oc1ccc(C(F)(F)F)cc1 (3D coordinates assigned)
O=C([N-]c1ccc(=O)[n-]c1)[N-]c1ccccc1Oc1ccc(C(F)(F)F)cc1 (optimized conformer: 57.253103726081804 kcal/mol)

>  <smiles>  (16) 
O=C(Nc1ccc(=O)[nH]c1)Nc1ccccc1Oc1ccc(C(F)(F)F)cc1

>  <score_type>  (16) 
oracle

>  <origin>  (16) 
adgpu

>  <m_score__min__energy>  (16) 
-10.380000000000001

>  <m_primary>  (16) 
energy

$$$$
16:0
     RDKit          3D

 28 30  0  0  0  0  0  0  0  0999 V2000
   -5.1730   22.2760  -30.4260 O   0  0  0  0  0  0  0  0  0  0  0  0
   -4.5550   21.4050  -31.0970 C   0  0  0  0  0  0  0  0  0  0  0  0
   -3.1190   21.3310  -31.0470 N   0  0  0  0  0  0  0  0  0  0  0  0
   -2.2910   22.2240  -30.2830 C   0  0  0  0  0  0  0  0  0  0  0  0
   -1.0260   21.7730  -29.8300 C   0  0  0  0  0  0  0  0  0  0  0  0
   -0.1770   22.6260  -29.1000 C   0  0  0  0  0  0  0  0  0  0  0  0
   -0.6150   23.9240  -28.8570 C   0  0  0  0  0  0  0  0  0  0  0  0
    0.0310   24.8980  -28.2020 N   0  0  0  0  0  0  0  0  0  0  0  0
   -0.8480   25.9300  -28.2890 C   0  0  0  0  0  0  0  0  0  0  0  0
   -0.6140   27.0590  -27.7870 O   0  0  0  0  0  0  0  0  0  0  0  0
   -1.9960   25.6570  -28.9600 N   0  0  0  0  0  0  0  0  0  0  0  0
   -1.8190   24.3730  -29.3070 C   0  0  0  0  0  0  0  0  0  0  0  0
   -2.6880   23.5600  -30.0310 C   0  0  0  0  0  0  0  0  0  0  0  0
   -5.3320   20.4680  -31.9380 C   0  0  0  0  0  0  0  0  0  0  0  0
   -6.7280   20.4130  -31.7890 C   0  0  0  0  0  0  0  0  0  0  0  0
   -7.4920   19.5450  -32.5760 C   0  0  0  0  0  0  0  0  0  0  0  0
   -9.2350   19.4980  -32.3900 Cl  0  0  0  0  0  0  0  0  0  0  0  0
   -6.8660   18.7170  -33.5110 C   0  0  0  0  0  0  0  0  0  0  0  0
   -5.4760   18.7450  -33.6550 C   0  0  0  0  0  0  0  0  0  0  0  0
   -4.7110   17.6770  -34.8210 Cl  0  0  0  0  0  0  0  0  0  0  0  0
   -4.7040   19.6100  -32.8640 C   0  0  0  0  0  0  0  0  0  0  0  0
   -3.3170   19.5870  -32.9830 O   0  0  0  0  0  0  0  0  0  0  0  0
   -2.6400   20.5550  -31.5560 H   0  0  0  0  0  0  0  0  0  0  0  0
   -0.7041   20.7447  -30.0514 H   0  0  0  0  0  0  0  0  0  0  0  0
    0.8002   22.2780  -28.7339 H   0  0  0  0  0  0  0  0  0  0  0  0
   -3.6523   23.9436  -30.3956 H   0  0  0  0  0  0  0  0  0  0  0  0
   -7.2238   21.0573  -31.0480 H   0  0  0  0  0  0  0  0  0  0  0  0
   -7.4686   18.0412  -34.1356 H   0  0  0  0  0  0  0  0  0  0  0  0
  1  2  2  0
  2  3  1  0
  3  4  1  0
  4  5  2  0
  5  6  1  0
  6  7  2  0
  7  8  1  0
  8  9  1  0
  9 10  2  0
  9 11  1  0
 11 12  1  0
 12 13  2  0
  2 14  1  0
 14 15  2  0
 15 16  1  0
 16 17  1  0
 16 18  2  0
 18 19  1  0
 19 20  1  0
 19 21  2  0
 21 22  1  0
 13  4  1  0
 21 14  1  0
 12  7  1  0
  3 23  1  0
  5 24  1  0
  6 25  1  0
 13 26  1  0
 15 27  1  0
 18 28  1  0
M  CHG  3   8  -1  11  -1  22  -1
M  END
>  <UniqueID>  (17) 
16

>  <SMILES>  (17) 
O=C(Nc1ccc2[n-]c(=O)[n-]c2c1)c1cc(Cl)cc(Cl)c1[O-]

>  <Energy>  (17) 
75.49219838097113

>  <Genealogy>  (17) 
O=C(Nc1ccc2[n-]c(=O)[n-]c2c1)c1cc(Cl)cc(Cl)c1[O-] (protonated)
O=C(Nc1ccc2[n-]c(=O)[n-]c2c1)c1cc(Cl)cc(Cl)c1[O-] (3D coordinates assigned)
O=C(Nc1ccc2[n-]c(=O)[n-]c2c1)c1cc(Cl)cc(Cl)c1[O-] (optimized conformer: 75.49219838097113 kcal/mol)

>  <smiles>  (17) 
O=C(Nc1ccc2[nH]c(=O)[nH]c2c1)c1cc(Cl)cc(Cl)c1O

>  <score_type>  (17) 
oracle

>  <origin>  (17) 
adgpu

>  <m_score__min__energy>  (17) 
-9.8900000000000006

>  <m_primary>  (17) 
energy

$$$$
17:0
     RDKit          3D

 46 48  0  0  0  0  0  0  0  0999 V2000
   -3.9970   25.4920  -30.6150 N   0  0  0  0  0  0  0  0  0  0  0  0
   -5.3880   25.1790  -30.6220 C   0  0  0  0  0  0  0  0  0  0  0  0
   -6.2050   25.9990  -30.1190 O   0  0  0  0  0  0  0  0  0  0  0  0
   -5.8720   23.9080  -31.2090 C   0  0  0  0  0  0  0  0  0  0  0  0
   -7.2210   23.5270  -31.0810 C   0  0  0  0  0  0  0  0  0  0  0  0
   -7.6720   22.3250  -31.6290 C   0  0  0  0  0  0  0  0  0  0  0  0
   -6.7890   21.4900  -32.3160 C   0  0  0  0  0  0  0  0  0  0  0  0
   -5.4430   21.8570  -32.4660 C   0  0  0  0  0  0  0  0  0  0  0  0
   -4.4850   20.9400  -33.1710 C   0  0  0  0  0  0  0  0  0  0  0  0
   -3.7820   19.7600  -31.9730 S   0  0  0  0  0  0  0  0  0  0  0  0
   -3.0190   21.0420  -30.9780 C   0  0  0  0  0  0  0  0  0  0  0  0
   -1.8430   21.6620  -31.4160 C   0  0  0  0  0  0  0  0  0  0  0  0
   -1.2460   22.6610  -30.6400 C   0  0  0  0  0  0  0  0  0  0  0  0
   -1.8240   23.0460  -29.4210 C   0  0  0  0  0  0  0  0  0  0  0  0
   -1.0790   24.2900  -28.4240 S   0  0  0  0  0  0  0  0  0  0  0  0
    0.4190   24.1710  -28.4920 O   0  0  0  0  0  0  0  0  0  0  0  0
   -1.4880   25.6360  -28.9540 O   0  0  0  0  0  0  0  0  0  0  0  0
   -1.6220   24.1000  -26.7700 N   0  0  0  0  0  0  0  0  0  0  0  0
   -0.5150   23.7120  -25.8630 C   0  0  0  0  0  0  0  0  0  0  0  0
   -0.2170   24.7610  -24.7780 C   0  0  0  0  0  0  0  0  0  0  0  0
   -0.2030   26.1100  -25.3490 N   0  0  0  0  0  0  0  0  0  0  0  0
   -1.4920   26.4780  -25.9670 C   0  0  0  0  0  0  0  0  0  0  0  0
   -2.3920   25.2710  -26.3090 C   0  0  0  0  0  0  0  0  0  0  0  0
   -3.0070   22.4280  -28.9900 C   0  0  0  0  0  0  0  0  0  0  0  0
   -3.6020   21.4290  -29.7670 C   0  0  0  0  0  0  0  0  0  0  0  0
   -4.9870   23.0590  -31.9020 C   0  0  0  0  0  0  0  0  0  0  0  0
   -3.4920   25.6750  -29.7190 H   0  0  0  0  0  0  0  0  0  0  0  0
   -7.9248   24.1811  -30.5454 H   0  0  0  0  0  0  0  0  0  0  0  0
   -8.7273   22.0346  -31.5191 H   0  0  0  0  0  0  0  0  0  0  0  0
   -7.1495   20.5416  -32.7410 H   0  0  0  0  0  0  0  0  0  0  0  0
   -5.0181   20.3885  -33.9595 H   0  0  0  0  0  0  0  0  0  0  0  0
   -3.6748   21.5319  -33.6218 H   0  0  0  0  0  0  0  0  0  0  0  0
   -1.3877   21.3632  -32.3717 H   0  0  0  0  0  0  0  0  0  0  0  0
   -0.3213   23.1458  -30.9863 H   0  0  0  0  0  0  0  0  0  0  0  0
   -0.7841   22.7666  -25.3692 H   0  0  0  0  0  0  0  0  0  0  0  0
    0.3911   23.6164  -26.4794 H   0  0  0  0  0  0  0  0  0  0  0  0
   -0.9933   24.7064  -24.0006 H   0  0  0  0  0  0  0  0  0  0  0  0
    0.7725   24.5505  -24.3461 H   0  0  0  0  0  0  0  0  0  0  0  0
    0.5520   26.1550  -26.0730 H   0  0  0  0  0  0  0  0  0  0  0  0
   -2.0374   27.1290  -25.2679 H   0  0  0  0  0  0  0  0  0  0  0  0
   -1.2574   26.9794  -26.9176 H   0  0  0  0  0  0  0  0  0  0  0  0
   -2.9583   24.9880  -25.4094 H   0  0  0  0  0  0  0  0  0  0  0  0
   -3.0583   25.5750  -27.1298 H   0  0  0  0  0  0  0  0  0  0  0  0
   -3.4681   22.7300  -28.0381 H   0  0  0  0  0  0  0  0  0  0  0  0
   -4.5298   20.9469  -29.4253 H   0  0  0  0  0  0  0  0  0  0  0  0
   -3.9284   23.3406  -32.0022 H   0  0  0  0  0  0  0  0  0  0  0  0
  1  2  1  0
  2  3  2  0
  2  4  1  0
  4  5  2  0
  5  6  1  0
  6  7  2  0
  7  8  1  0
  8  9  1  0
  9 10  1  0
 10 11  1  0
 11 12  2  0
 12 13  1  0
 13 14  2  0
 14 15  1  0
 15 16  2  0
 15 17  2  0
 15 18  1  0
 18 19  1  0
 19 20  1  0
 20 21  1  0
 21 22  1  0
 22 23  1  0
 14 24  1  0
 24 25  2  0
  8 26  2  0
 26  4  1  0
 25 11  1  0
 23 18  1  0
  1 27  1  0
  5 28  1  0
  6 29  1  0
  7 30  1  0
  9 31  1  0
  9 32  1  0
 12 33  1  0
 13 34  1  0
 19 35  1  0
 19 36  1  0
 20 37  1  0
 20 38  1  0
 21 39  1  0
 22 40  1  0
 22 41  1  0
 23 42  1  0
 23 43  1  0
 24 44  1  0
 25 45  1  0
 26 46  1  0
M  CHG  1   1  -1
M  END
>  <UniqueID>  (18) 
17

>  <SMILES>  (18) 
[NH-]C(=O)c1cccc(CSc2ccc(S(=O)(=O)N3CCNCC3)cc2)c1

>  <Energy>  (18) 
52.63244700834395

>  <Genealogy>  (18) 
[NH-]C(=O)c1cccc(CSc2ccc(S(=O)(=O)N3CCNCC3)cc2)c1 (protonated)
[NH-]C(=O)c1cccc(CSc2ccc(S(=O)(=O)N3CCNCC3)cc2)c1 (3D coordinates assigned)
[NH-]C(=O)c1cccc(CSc2ccc(S(=O)(=O)N3CCNCC3)cc2)c1 (nonaromatic ring conformer: 52.63244700834395 kcal/mol)

>  <smiles>  (18) 
NC(=O)c1cccc(CSc2ccc(S(=O)(=O)N3CCNCC3)cc2)c1

>  <score_type>  (18) 
oracle

>  <origin>  (18) 
adgpu

>  <m_score__min__energy>  (18) 
-11.380000000000001

>  <m_primary>  (18) 
energy

$$$$
18:0
     RDKit          3D

 49 51  0  0  0  0  0  0  0  0999 V2000
   -6.2430   25.6750  -29.9150 C   0  0  0  0  0  0  0  0  0  0  0  0
   -5.8800   24.3920  -30.6110 C   0  0  0  0  0  0  0  0  0  0  0  0
   -6.8900   23.5070  -31.0190 C   0  0  0  0  0  0  0  0  0  0  0  0
   -6.5660   22.3030  -31.6470 C   0  0  0  0  0  0  0  0  0  0  0  0
   -5.2280   21.9680  -31.8790 C   0  0  0  0  0  0  0  0  0  0  0  0
   -4.8290   20.4560  -32.6920 S   0  0  0  0  0  0  0  0  0  0  0  0
   -3.7430   20.7000  -33.7030 O   0  0  0  0  0  0  0  0  0  0  0  0
   -4.3160   19.4830  -31.6650 O   0  0  0  0  0  0  0  0  0  0  0  0
   -6.2640   19.8170  -33.4680 N   0  0  0  0  0  0  0  0  0  0  0  0
   -5.9250   18.7450  -34.4490 C   0  0  0  0  0  0  0  0  0  0  0  0
   -6.4900   17.3590  -34.0880 C   0  0  0  0  0  0  0  0  0  0  0  0
   -6.2810   17.0610  -32.6060 C   0  0  0  0  0  0  0  0  0  0  0  0
   -6.9180   18.1370  -31.7090 C   0  0  0  0  0  0  0  0  0  0  0  0
   -7.2850   19.4250  -32.4710 C   0  0  0  0  0  0  0  0  0  0  0  0
   -4.2140   22.8490  -31.4820 C   0  0  0  0  0  0  0  0  0  0  0  0
   -4.5280   24.0510  -30.8230 C   0  0  0  0  0  0  0  0  0  0  0  0
   -3.4940   24.9540  -30.3990 N   0  0  0  0  0  0  0  0  0  0  0  0
   -2.4880   24.6790  -29.4160 C   0  0  0  0  0  0  0  0  0  0  0  0
   -1.5890   25.5350  -29.2140 O   0  0  0  0  0  0  0  0  0  0  0  0
   -2.4980   23.4390  -28.6120 C   0  0  0  0  0  0  0  0  0  0  0  0
   -1.7720   22.2840  -28.8390 C   0  0  0  0  0  0  0  0  0  0  0  0
   -0.8240   22.0300  -29.9650 C   0  0  0  0  0  0  0  0  0  0  0  0
   -2.0520   21.3810  -27.8780 N   0  0  0  0  0  0  0  0  0  0  0  0
   -2.9110   21.9360  -27.0730 O   0  0  0  0  0  0  0  0  0  0  0  0
   -3.2050   23.1580  -27.4530 C   0  0  0  0  0  0  0  0  0  0  0  0
   -4.1490   24.0500  -26.7140 C   0  0  0  0  0  0  0  0  0  0  0  0
   -6.2008   25.5260  -28.8260 H   0  0  0  0  0  0  0  0  0  0  0  0
   -5.5326   26.4632  -30.2050 H   0  0  0  0  0  0  0  0  0  0  0  0
   -7.2610   25.9741  -30.2050 H   0  0  0  0  0  0  0  0  0  0  0  0
   -7.9449   23.7640  -30.8426 H   0  0  0  0  0  0  0  0  0  0  0  0
   -7.3655   21.6156  -31.9604 H   0  0  0  0  0  0  0  0  0  0  0  0
   -6.6680   20.6190  -34.0060 H   0  0  0  0  0  0  0  0  0  0  0  0
   -6.3262   19.0362  -35.4309 H   0  0  0  0  0  0  0  0  0  0  0  0
   -4.8291   18.6501  -34.4481 H   0  0  0  0  0  0  0  0  0  0  0  0
   -7.5667   17.3383  -34.3122 H   0  0  0  0  0  0  0  0  0  0  0  0
   -5.9624   16.5967  -34.6800 H   0  0  0  0  0  0  0  0  0  0  0  0
   -6.7360   16.0874  -32.3714 H   0  0  0  0  0  0  0  0  0  0  0  0
   -5.1987   17.0505  -32.4097 H   0  0  0  0  0  0  0  0  0  0  0  0
   -7.8338   17.7223  -31.2625 H   0  0  0  0  0  0  0  0  0  0  0  0
   -6.1729   18.4097  -30.9471 H   0  0  0  0  0  0  0  0  0  0  0  0
   -8.2403   19.2640  -32.9921 H   0  0  0  0  0  0  0  0  0  0  0  0
   -7.3525   20.2370  -31.7320 H   0  0  0  0  0  0  0  0  0  0  0  0
   -3.1628   22.5985  -31.6875 H   0  0  0  0  0  0  0  0  0  0  0  0
    0.1639   21.7653  -29.5600 H   0  0  0  0  0  0  0  0  0  0  0  0
   -1.2013   21.2013  -30.5821 H   0  0  0  0  0  0  0  0  0  0  0  0
   -0.7364   22.9364  -30.5821 H   0  0  0  0  0  0  0  0  0  0  0  0
   -4.0078   23.9166  -25.6313 H   0  0  0  0  0  0  0  0  0  0  0  0
   -3.9502   25.0978  -26.9834 H   0  0  0  0  0  0  0  0  0  0  0  0
   -5.1839   23.7922  -26.9834 H   0  0  0  0  0  0  0  0  0  0  0  0
  1  2  1  0
  2  3  2  0
  3  4  1  0
  4  5  2  0
  5  6  1  0
  6  7  2  0
  6  8  2  0
  6  9  1  0
  9 10  1  0
 10 11  1  0
 11 12  1  0
 12 13  1  0
 13 14  1  0
  5 15  1  0
 15 16  2  0
 16 17  1  0
 17 18  1  0
 18 19  2  0
 18 20  1  0
 20 21  1  0
 21 22  1  0
 21 23  2  0
 23 24  1  0
 24 25  1  0
 25 26  1  0
 16  2  1  0
 25 20  2  0
 14  9  1  0
  1 27  1  0
  1 28  1  0
  1 29  1  0
  3 30  1  0
  4 31  1  0
  9 32  1  0
 10 33  1  0
 10 34  1  0
 11 35  1  0
 11 36  1  0
 12 37  1  0
 12 38  1  0
 13 39  1  0
 13 40  1  0
 14 41  1  0
 14 42  1  0
 15 43  1  0
 22 44  1  0
 22 45  1  0
 22 46  1  0
 26 47  1  0
 26 48  1  0
 26 49  1  0
M  CHG  2   9   1  17  -1
M  END
>  <UniqueID>  (19) 
18

>  <SMILES>  (19) 
Cc1ccc(S(=O)(=O)[NH+]2CCCCC2)cc1[N-]C(=O)c1c(C)noc1C

>  <Energy>  (19) 
90.80046201364975

>  <Genealogy>  (19) 
Cc1ccc(S(=O)(=O)[NH+]2CCCCC2)cc1[N-]C(=O)c1c(C)noc1C (protonated)
Cc1ccc(S(=O)(=O)[NH+]2CCCCC2)cc1[N-]C(=O)c1c(C)noc1C (3D coordinates assigned)
Cc1ccc(S(=O)(=O)[NH+]2CCCCC2)cc1[N-]C(=O)c1c(C)noc1C (nonaromatic ring conformer: 90.80046201364975 kcal/mol)

>  <smiles>  (19) 
Cc1ccc(S(=O)(=O)N2CCCCC2)cc1NC(=O)c1c(C)noc1C

>  <score_type>  (19) 
oracle

>  <origin>  (19) 
adgpu

>  <m_score__min__energy>  (19) 
-10.4

>  <m_primary>  (19) 
energy

$$$$
19:0
     RDKit          3D

 27 28  0  0  0  0  0  0  0  0999 V2000
   -4.2570   25.4070  -31.1040 O   0  0  0  0  0  0  0  0  0  0  0  0
   -5.2680   24.9320  -30.0960 S   0  0  0  0  0  0  0  0  0  0  0  0
   -6.2540   26.0370  -29.8380 O   0  0  0  0  0  0  0  0  0  0  0  0
   -4.4520   24.5370  -28.6170 N   0  0  0  0  0  0  0  0  0  0  0  0
   -3.2450   23.7520  -28.5510 C   0  0  0  0  0  0  0  0  0  0  0  0
   -3.2660   22.4040  -28.1390 C   0  0  0  0  0  0  0  0  0  0  0  0
   -2.0820   21.6630  -28.0790 C   0  0  0  0  0  0  0  0  0  0  0  0
   -0.8670   22.2510  -28.4330 C   0  0  0  0  0  0  0  0  0  0  0  0
   -0.8330   23.5830  -28.8500 C   0  0  0  0  0  0  0  0  0  0  0  0
   -2.0120   24.3330  -28.9120 C   0  0  0  0  0  0  0  0  0  0  0  0
   -1.9500   25.6590  -29.3260 O   0  0  0  0  0  0  0  0  0  0  0  0
   -6.1390   23.5270  -30.7000 C   0  0  0  0  0  0  0  0  0  0  0  0
   -5.6780   22.8590  -31.8430 C   0  0  0  0  0  0  0  0  0  0  0  0
   -6.3720   21.7490  -32.3360 C   0  0  0  0  0  0  0  0  0  0  0  0
   -7.5270   21.3000  -31.6870 C   0  0  0  0  0  0  0  0  0  0  0  0
   -8.4760   19.7850  -32.3620 Br  0  0  0  0  0  0  0  0  0  0  0  0
   -7.9860   21.9610  -30.5430 C   0  0  0  0  0  0  0  0  0  0  0  0
   -7.2940   23.0710  -30.0490 C   0  0  0  0  0  0  0  0  0  0  0  0
   -4.9250   24.8280  -27.7320 H   0  0  0  0  0  0  0  0  0  0  0  0
   -4.2204   21.9320  -27.8629 H   0  0  0  0  0  0  0  0  0  0  0  0
   -2.1083   20.6131  -27.7517 H   0  0  0  0  0  0  0  0  0  0  0  0
    0.0630   21.6657  -28.3836 H   0  0  0  0  0  0  0  0  0  0  0  0
    0.1251   24.0446  -29.1310 H   0  0  0  0  0  0  0  0  0  0  0  0
   -4.7684   23.2085  -32.3534 H   0  0  0  0  0  0  0  0  0  0  0  0
   -6.0092   21.2288  -33.2348 H   0  0  0  0  0  0  0  0  0  0  0  0
   -8.8930   21.6070  -30.0311 H   0  0  0  0  0  0  0  0  0  0  0  0
   -7.6564   23.5875  -29.1479 H   0  0  0  0  0  0  0  0  0  0  0  0
  1  2  2  0
  2  3  2  0
  2  4  1  0
  4  5  1  0
  5  6  2  0
  6  7  1  0
  7  8  2  0
  8  9  1  0
  9 10  2  0
 10 11  1  0
  2 12  1  0
 12 13  2  0
 13 14  1  0
 14 15  2  0
 15 16  1  0
 15 17  1  0
 17 18  2  0
 10  5  1  0
 18 12  1  0
  4 19  1  0
  6 20  1  0
  7 21  1  0
  8 22  1  0
  9 23  1  0
 13 24  1  0
 14 25  1  0
 17 26  1  0
 18 27  1  0
M  CHG  1  11  -1
M  END
>  <UniqueID>  (20) 
19

>  <SMILES>  (20) 
O=S(=O)(Nc1ccccc1[O-])c1ccc(Br)cc1

>  <Energy>  (20) 
31.08115229860399

>  <Genealogy>  (20) 
O=S(=O)(Nc1ccccc1[O-])c1ccc(Br)cc1 (protonated)
O=S(=O)(Nc1ccccc1[O-])c1ccc(Br)cc1 (3D coordinates assigned)
O=S(=O)(Nc1ccccc1[O-])c1ccc(Br)cc1 (optimized conformer: 31.08115229860399 kcal/mol)

>  <smiles>  (20) 
O=S(=O)(Nc1ccccc1O)c1ccc(Br)cc1

>  <score_type>  (20) 
oracle

>  <origin>  (20) 
adgpu

>  <m_score__min__energy>  (20) 
-11.720000000000001

>  <m_primary>  (20) 
energy

$$$$
20:0
     RDKit          3D

 47 50  0  0  0  0  0  0  0  0999 V2000
    1.6020   14.6570  -27.6840 N   0  0  0  0  0  0  0  0  0  0  0  0
    1.2750   15.8930  -27.8780 C   0  0  0  0  0  0  0  0  0  0  0  0
    0.2520   16.4640  -27.2160 N   0  0  0  0  0  0  0  0  0  0  0  0
   -0.0770   17.7670  -27.4340 C   0  0  0  0  0  0  0  0  0  0  0  0
    0.6250   18.5300  -28.3330 C   0  0  0  0  0  0  0  0  0  0  0  0
    1.6680   17.9420  -29.0050 C   0  0  0  0  0  0  0  0  0  0  0  0
    2.4110   18.5310  -29.8660 N   0  0  0  0  0  0  0  0  0  0  0  0
    1.9670   16.6330  -28.7590 N   0  0  0  0  0  0  0  0  0  0  0  0
    0.2690   19.9380  -28.5730 C   0  0  0  0  0  0  0  0  0  0  0  0
   -1.0610   20.2560  -28.0880 N   0  0  0  0  0  0  0  0  0  0  0  0
   -1.5870   21.5540  -28.4260 C   0  0  0  0  0  0  0  0  0  0  0  0
   -0.7710   22.6430  -28.6420 C   0  0  0  0  0  0  0  0  0  0  0  0
   -1.2690   23.8860  -28.9700 C   0  0  0  0  0  0  0  0  0  0  0  0
   -2.6310   24.0300  -29.0800 C   0  0  0  0  0  0  0  0  0  0  0  0
   -3.1130   25.2990  -29.4120 O   0  0  0  0  0  0  0  0  0  0  0  0
   -3.5170   22.9650  -28.8730 C   0  0  0  0  0  0  0  0  0  0  0  0
   -4.9110   23.1900  -28.9970 N   0  0  0  0  0  0  0  0  0  0  0  0
   -5.6800   23.6870  -30.4550 S   0  0  0  0  0  0  0  0  0  0  0  0
   -4.7930   24.6760  -31.1750 O   0  0  0  0  0  0  0  0  0  0  0  0
   -7.0340   24.3150  -30.1650 O   0  0  0  0  0  0  0  0  0  0  0  0
   -5.9620   22.3590  -31.5520 C   0  0  0  0  0  0  0  0  0  0  0  0
   -7.1840   21.8090  -31.8080 C   0  0  0  0  0  0  0  0  0  0  0  0
   -7.3360   20.7560  -32.6820 C   0  0  0  0  0  0  0  0  0  0  0  0
   -6.2600   20.2060  -33.3440 C   0  0  0  0  0  0  0  0  0  0  0  0
   -5.0110   20.7480  -33.1000 C   0  0  0  0  0  0  0  0  0  0  0  0
   -4.8710   21.8120  -32.2140 C   0  0  0  0  0  0  0  0  0  0  0  0
   -2.9470   21.7630  -28.5520 C   0  0  0  0  0  0  0  0  0  0  0  0
   -1.8710   19.3580  -27.3010 C   0  0  0  0  0  0  0  0  0  0  0  0
   -1.1330   18.3000  -26.7290 O   0  0  0  0  0  0  0  0  0  0  0  0
    1.0740   14.0740  -27.0050 H   0  0  0  0  0  0  0  0  0  0  0  0
   -0.2750   15.8730  -26.5340 H   0  0  0  0  0  0  0  0  0  0  0  0
    2.2200   19.5300  -30.0800 H   0  0  0  0  0  0  0  0  0  0  0  0
    2.7710   16.1690  -29.2730 H   0  0  0  0  0  0  0  0  0  0  0  0
    0.9975   20.5808  -28.0571 H   0  0  0  0  0  0  0  0  0  0  0  0
    0.2830   20.1101  -29.6594 H   0  0  0  0  0  0  0  0  0  0  0  0
    0.3177   22.5160  -28.5493 H   0  0  0  0  0  0  0  0  0  0  0  0
   -0.5948   24.7386  -29.1389 H   0  0  0  0  0  0  0  0  0  0  0  0
   -3.9790   25.6330  -28.9740 H   0  0  0  0  0  0  0  0  0  0  0  0
   -5.5090   23.0370  -28.1300 H   0  0  0  0  0  0  0  0  0  0  0  0
   -8.0715   22.2177  -31.3027 H   0  0  0  0  0  0  0  0  0  0  0  0
   -8.3409   20.3438  -32.8560 H   0  0  0  0  0  0  0  0  0  0  0  0
   -6.3897   19.3656  -34.0418 H   0  0  0  0  0  0  0  0  0  0  0  0
   -4.1260   20.3369  -33.6077 H   0  0  0  0  0  0  0  0  0  0  0  0
   -3.8699   22.2306  -32.0335 H   0  0  0  0  0  0  0  0  0  0  0  0
   -3.6160   20.9063  -28.3831 H   0  0  0  0  0  0  0  0  0  0  0  0
   -2.3435   19.9327  -26.4908 H   0  0  0  0  0  0  0  0  0  0  0  0
   -2.6137   18.9100  -27.9775 H   0  0  0  0  0  0  0  0  0  0  0  0
  1  2  2  3
  2  3  1  0
  3  4  1  0
  4  5  2  0
  5  6  1  0
  6  7  2  3
  6  8  1  0
  5  9  1  0
  9 10  1  0
 10 11  1  0
 11 12  2  0
 12 13  1  0
 13 14  2  0
 14 15  1  0
 14 16  1  0
 16 17  1  0
 17 18  1  0
 18 19  2  0
 18 20  2  0
 18 21  1  0
 21 22  2  0
 22 23  1  0
 23 24  2  0
 24 25  1  0
 25 26  2  0
 16 27  2  0
 10 28  1  0
 28 29  1  0
  8  2  1  0
 27 11  1  0
 29  4  1  0
 26 21  1  0
  1 30  1  0
  3 31  1  0
  7 32  1  0
  8 33  1  0
  9 34  1  0
  9 35  1  0
 12 36  1  0
 13 37  1  0
 15 38  1  0
 17 39  1  0
 22 40  1  0
 23 41  1  0
 24 42  1  0
 25 43  1  0
 26 44  1  0
 27 45  1  0
 28 46  1  0
 28 47  1  0
M  END
>  <smiles>  (21) 
N=c1[nH]c2c(c(=N)[nH]1)CN(c1ccc(O)c(NS(=O)(=O)c3ccccc3)c1)CO2

>  <score_type>  (21) 
oracle

>  <origin>  (21) 
adgpu

>  <m_score__min__energy>  (21) 
-10.210000000000001

>  <m_primary>  (21) 
energy

$$$$
21:0
     RDKit          3D

 52 55  0  0  0  0  0  0  0  0999 V2000
   -5.3380   26.5010  -30.2940 O   0  0  0  0  0  0  0  0  0  0  0  0
   -4.9580   25.3170  -30.4960 C   0  0  0  0  0  0  0  0  0  0  0  0
   -3.5540   25.0250  -30.4680 N   0  0  0  0  0  0  0  0  0  0  0  0
   -2.8900   24.2790  -29.4360 C   0  0  0  0  0  0  0  0  0  0  0  0
   -1.9570   24.9240  -28.6170 C   0  0  0  0  0  0  0  0  0  0  0  0
   -1.2410   24.2010  -27.6590 C   0  0  0  0  0  0  0  0  0  0  0  0
   -1.4690   22.8280  -27.4960 C   0  0  0  0  0  0  0  0  0  0  0  0
   -0.4980   21.9130  -26.3480 S   0  0  0  0  0  0  0  0  0  0  0  0
   -1.3100   20.8230  -25.7050 O   0  0  0  0  0  0  0  0  0  0  0  0
   -0.0080   22.8440  -25.2750 O   0  0  0  0  0  0  0  0  0  0  0  0
    0.8650   21.2100  -27.1590 N   0  0  0  0  0  0  0  0  0  0  0  0
    0.8280   20.1020  -27.8360 C   0  0  0  0  0  0  0  0  0  0  0  0
    1.9190   19.6020  -28.4540 N   0  0  0  0  0  0  0  0  0  0  0  0
    1.6400   18.4400  -29.1010 C   0  0  0  0  0  0  0  0  0  0  0  0
    0.3220   18.0080  -29.0010 C   0  0  0  0  0  0  0  0  0  0  0  0
   -0.5260   19.1210  -28.0660 S   0  0  0  0  0  0  0  0  0  0  0  0
   -2.4380   22.1890  -28.2800 C   0  0  0  0  0  0  0  0  0  0  0  0
   -3.1520   22.9110  -29.2380 C   0  0  0  0  0  0  0  0  0  0  0  0
   -5.9630   24.2670  -30.7790 C   0  0  0  0  0  0  0  0  0  0  0  0
   -6.4950   24.1180  -32.0700 C   0  0  0  0  0  0  0  0  0  0  0  0
   -7.3670   23.0660  -32.3580 C   0  0  0  0  0  0  0  0  0  0  0  0
   -7.7290   22.1570  -31.3560 C   0  0  0  0  0  0  0  0  0  0  0  0
   -8.7350   20.7730  -31.7680 S   0  0  0  0  0  0  0  0  0  0  0  0
  -10.0280   21.2720  -32.3530 O   0  0  0  0  0  0  0  0  0  0  0  0
   -9.0410   19.9680  -30.5340 O   0  0  0  0  0  0  0  0  0  0  0  0
   -7.9050   19.7730  -32.9370 N   0  0  0  0  0  0  0  0  0  0  0  0
   -7.9940   18.3360  -32.5730 C   0  0  0  0  0  0  0  0  0  0  0  0
   -6.6550   17.7860  -32.0500 C   0  0  0  0  0  0  0  0  0  0  0  0
   -5.5960   17.9270  -32.9850 O   0  0  0  0  0  0  0  0  0  0  0  0
   -5.6470   19.1370  -33.7340 C   0  0  0  0  0  0  0  0  0  0  0  0
   -6.5140   20.2400  -33.1030 C   0  0  0  0  0  0  0  0  0  0  0  0
   -7.2350   22.3270  -30.0560 C   0  0  0  0  0  0  0  0  0  0  0  0
   -6.3630   23.3810  -29.7660 C   0  0  0  0  0  0  0  0  0  0  0  0
   -1.7862   26.0050  -28.7276 H   0  0  0  0  0  0  0  0  0  0  0  0
   -0.4960   24.7114  -27.0309 H   0  0  0  0  0  0  0  0  0  0  0  0
    2.4023   17.8811  -29.6636 H   0  0  0  0  0  0  0  0  0  0  0  0
   -0.0943   17.0964  -29.4546 H   0  0  0  0  0  0  0  0  0  0  0  0
   -2.6368   21.1161  -28.1406 H   0  0  0  0  0  0  0  0  0  0  0  0
   -3.9227   22.4082  -29.8406 H   0  0  0  0  0  0  0  0  0  0  0  0
   -6.2232   24.8344  -32.8593 H   0  0  0  0  0  0  0  0  0  0  0  0
   -7.7707   22.9510  -33.3748 H   0  0  0  0  0  0  0  0  0  0  0  0
   -8.4000   19.9070  -33.8490 H   0  0  0  0  0  0  0  0  0  0  0  0
   -8.7569   18.2153  -31.7898 H   0  0  0  0  0  0  0  0  0  0  0  0
   -8.2597   17.7732  -33.4800 H   0  0  0  0  0  0  0  0  0  0  0  0
   -6.3871   18.3294  -31.1319 H   0  0  0  0  0  0  0  0  0  0  0  0
   -6.7902   16.7102  -31.8647 H   0  0  0  0  0  0  0  0  0  0  0  0
   -4.6215   19.5218  -33.8359 H   0  0  0  0  0  0  0  0  0  0  0  0
   -6.1103   18.8883  -34.7002 H   0  0  0  0  0  0  0  0  0  0  0  0
   -6.1015   20.5059  -32.1185 H   0  0  0  0  0  0  0  0  0  0  0  0
   -6.5102   21.1181  -33.7655 H   0  0  0  0  0  0  0  0  0  0  0  0
   -7.5342   21.6287  -29.2605 H   0  0  0  0  0  0  0  0  0  0  0  0
   -5.9891   23.5164  -28.7404 H   0  0  0  0  0  0  0  0  0  0  0  0
  1  2  2  0
  2  3  1  0
  3  4  1  0
  4  5  2  0
  5  6  1  0
  6  7  2  0
  7  8  1  0
  8  9  2  0
  8 10  2  0
  8 11  1  0
 11 12  2  3
 12 13  1  0
 13 14  1  0
 14 15  2  0
 15 16  1  0
  7 17  1  0
 17 18  2  0
  2 19  1  0
 19 20  2  0
 20 21  1  0
 21 22  2  0
 22 23  1  0
 23 24  2  0
 23 25  2  0
 23 26  1  0
 26 27  1  0
 27 28  1  0
 28 29  1  0
 29 30  1  0
 30 31  1  0
 22 32  1  0
 32 33  2  0
 18  4  1  0
 33 19  1  0
 16 12  1  0
 31 26  1  0
  5 34  1  0
  6 35  1  0
 14 36  1  0
 15 37  1  0
 17 38  1  0
 18 39  1  0
 20 40  1  0
 21 41  1  0
 26 42  1  0
 27 43  1  0
 27 44  1  0
 28 45  1  0
 28 46  1  0
 30 47  1  0
 30 48  1  0
 31 49  1  0
 31 50  1  0
 32 51  1  0
 33 52  1  0
M  CHG  3   3  -1  13  -1  26   1
M  END
>  <UniqueID>  (22) 
20

>  <SMILES>  (22) 
O=C([N-]c1ccc(S(=O)(=O)N=c2[n-]ccs2)cc1)c1ccc(S(=O)(=O)[NH+]2CCOCC2)cc1

>  <Energy>  (22) 
104.74647730322512

>  <Genealogy>  (22) 
O=C([N-]c1ccc(S(=O)(=O)N=c2[n-]ccs2)cc1)c1ccc(S(=O)(=O)[NH+]2CCOCC2)cc1 (protonated)
O=C([N-]c1ccc(S(=O)(=O)N=c2[n-]ccs2)cc1)c1ccc(S(=O)(=O)[NH+]2CCOCC2)cc1 (3D coordinates assigned)
O=C([N-]c1ccc(S(=O)(=O)N=c2[n-]ccs2)cc1)c1ccc(S(=O)(=O)[NH+]2CCOCC2)cc1 (nonaromatic ring conformer: 104.74647730322512 kcal/mol)

>  <smiles>  (22) 
O=C(Nc1ccc(S(=O)(=O)N=c2[nH]ccs2)cc1)c1ccc(S(=O)(=O)N2CCOCC2)cc1

>  <score_type>  (22) 
oracle

>  <origin>  (22) 
adgpu

>  <m_score__min__energy>  (22) 
-12.369999999999999

>  <m_primary>  (22) 
energy

$$$$
22:0
     RDKit          3D

 55 57  0  0  0  0  0  0  0  0999 V2000
   -4.1970   24.9200  -26.5130 C   0  0  0  0  0  0  0  0  0  0  0  0
   -2.8540   24.3850  -27.0060 C   0  0  0  0  0  0  0  0  0  0  0  0
   -3.0010   23.7510  -28.3140 N   0  0  0  0  0  0  0  0  0  0  0  0
   -2.5620   22.4080  -28.5670 C   0  0  0  0  0  0  0  0  0  0  0  0
   -2.1000   21.7090  -27.6250 O   0  0  0  0  0  0  0  0  0  0  0  0
   -2.6350   21.8350  -29.9280 C   0  0  0  0  0  0  0  0  0  0  0  0
   -2.2330   20.5060  -30.1440 C   0  0  0  0  0  0  0  0  0  0  0  0
   -2.1870   19.9850  -31.4400 C   0  0  0  0  0  0  0  0  0  0  0  0
   -2.5350   20.7840  -32.5300 C   0  0  0  0  0  0  0  0  0  0  0  0
   -2.9530   22.1020  -32.3270 C   0  0  0  0  0  0  0  0  0  0  0  0
   -3.0300   22.6270  -31.0310 C   0  0  0  0  0  0  0  0  0  0  0  0
   -3.5370   23.9550  -30.8490 N   0  0  0  0  0  0  0  0  0  0  0  0
   -4.9320   24.2650  -30.9480 C   0  0  0  0  0  0  0  0  0  0  0  0
   -5.2920   25.4500  -31.1920 O   0  0  0  0  0  0  0  0  0  0  0  0
   -5.9480   23.2020  -30.7970 C   0  0  0  0  0  0  0  0  0  0  0  0
   -6.9690   23.3200  -29.8380 C   0  0  0  0  0  0  0  0  0  0  0  0
   -7.9750   22.3530  -29.7550 C   0  0  0  0  0  0  0  0  0  0  0  0
   -7.9820   21.2700  -30.6360 C   0  0  0  0  0  0  0  0  0  0  0  0
   -6.9710   21.1390  -31.5970 C   0  0  0  0  0  0  0  0  0  0  0  0
   -7.0430   19.8370  -32.7810 S   0  0  0  0  0  0  0  0  0  0  0  0
   -6.9000   20.4210  -34.1590 O   0  0  0  0  0  0  0  0  0  0  0  0
   -8.3730   19.1420  -32.6910 O   0  0  0  0  0  0  0  0  0  0  0  0
   -5.7490   18.7000  -32.4870 N   0  0  0  0  0  0  0  0  0  0  0  0
   -6.2950   17.4510  -31.9130 C   0  0  0  0  0  0  0  0  0  0  0  0
   -5.3140   16.2840  -32.0850 C   0  0  0  0  0  0  0  0  0  0  0  0
   -5.0120   16.0080  -33.5120 N   0  0  0  0  0  0  0  0  0  0  0  0
   -5.7360   14.8210  -33.9950 C   0  0  0  0  0  0  0  0  0  0  0  0
   -5.2620   17.1620  -34.4080 C   0  0  0  0  0  0  0  0  0  0  0  0
   -4.9370   18.4910  -33.7100 C   0  0  0  0  0  0  0  0  0  0  0  0
   -5.9510   22.0980  -31.6660 C   0  0  0  0  0  0  0  0  0  0  0  0
   -4.2084   24.9245  -25.4131 H   0  0  0  0  0  0  0  0  0  0  0  0
   -4.3425   25.9448  -26.8854 H   0  0  0  0  0  0  0  0  0  0  0  0
   -5.0073   24.2760  -26.8854 H   0  0  0  0  0  0  0  0  0  0  0  0
   -2.1406   25.2184  -27.0865 H   0  0  0  0  0  0  0  0  0  0  0  0
   -2.4860   23.6365  -26.2888 H   0  0  0  0  0  0  0  0  0  0  0  0
   -3.4320   24.3050  -29.0890 H   0  0  0  0  0  0  0  0  0  0  0  0
   -1.9532   19.8728  -29.2891 H   0  0  0  0  0  0  0  0  0  0  0  0
   -1.8757   18.9424  -31.6013 H   0  0  0  0  0  0  0  0  0  0  0  0
   -2.4802   20.3759  -33.5500 H   0  0  0  0  0  0  0  0  0  0  0  0
   -3.2227   22.7298  -33.1890 H   0  0  0  0  0  0  0  0  0  0  0  0
   -6.9763   24.1777  -29.1493 H   0  0  0  0  0  0  0  0  0  0  0  0
   -8.7633   22.4456  -28.9934 H   0  0  0  0  0  0  0  0  0  0  0  0
   -8.7827   20.5182  -30.5755 H   0  0  0  0  0  0  0  0  0  0  0  0
   -6.4866   17.6031  -30.8406 H   0  0  0  0  0  0  0  0  0  0  0  0
   -7.2265   17.2030  -32.4430 H   0  0  0  0  0  0  0  0  0  0  0  0
   -4.3760   16.5309  -31.5662 H   0  0  0  0  0  0  0  0  0  0  0  0
   -5.7831   15.3844  -31.6600 H   0  0  0  0  0  0  0  0  0  0  0  0
   -6.0936   14.2348  -33.1357 H   0  0  0  0  0  0  0  0  0  0  0  0
   -6.5945   15.1383  -34.6052 H   0  0  0  0  0  0  0  0  0  0  0  0
   -5.0610   14.2029  -34.6052 H   0  0  0  0  0  0  0  0  0  0  0  0
   -4.6307   17.0638  -35.3034 H   0  0  0  0  0  0  0  0  0  0  0  0
   -6.3275   17.1649  -34.6815 H   0  0  0  0  0  0  0  0  0  0  0  0
   -3.8727   18.4931  -33.4321 H   0  0  0  0  0  0  0  0  0  0  0  0
   -5.1717   19.3048  -34.4118 H   0  0  0  0  0  0  0  0  0  0  0  0
   -5.1459   21.9852  -32.4070 H   0  0  0  0  0  0  0  0  0  0  0  0
  1  2  1  0
  2  3  1  0
  3  4  1  0
  4  5  2  0
  4  6  1  0
  6  7  2  0
  7  8  1  0
  8  9  2  0
  9 10  1  0
 10 11  2  0
 11 12  1  0
 12 13  1  0
 13 14  2  0
 13 15  1  0
 15 16  2  0
 16 17  1  0
 17 18  2  0
 18 19  1  0
 19 20  1  0
 20 21  2  0
 20 22  2  0
 20 23  1  0
 23 24  1  0
 24 25  1  0
 25 26  1  0
 26 27  1  0
 26 28  1  0
 28 29  1  0
 19 30  2  0
 11  6  1  0
 30 15  1  0
 29 23  1  0
  1 31  1  0
  1 32  1  0
  1 33  1  0
  2 34  1  0
  2 35  1  0
  3 36  1  0
  7 37  1  0
  8 38  1  0
  9 39  1  0
 10 40  1  0
 16 41  1  0
 17 42  1  0
 18 43  1  0
 24 44  1  0
 24 45  1  0
 25 46  1  0
 25 47  1  0
 27 48  1  0
 27 49  1  0
 27 50  1  0
 28 51  1  0
 28 52  1  0
 29 53  1  0
 29 54  1  0
 30 55  1  0
M  CHG  1  12  -1
M  END
>  <UniqueID>  (23) 
21

>  <SMILES>  (23) 
CCNC(=O)c1ccccc1[N-]C(=O)c1cccc(S(=O)(=O)N2CCN(C)CC2)c1

>  <Energy>  (23) 
71.15308740905408

>  <Genealogy>  (23) 
CCNC(=O)c1ccccc1[N-]C(=O)c1cccc(S(=O)(=O)N2CCN(C)CC2)c1 (protonated)
CCNC(=O)c1ccccc1[N-]C(=O)c1cccc(S(=O)(=O)N2CCN(C)CC2)c1 (3D coordinates assigned)
CCNC(=O)c1ccccc1[N-]C(=O)c1cccc(S(=O)(=O)N2CCN(C)CC2)c1 (nonaromatic ring conformer: 71.15308740905408 kcal/mol)

>  <smiles>  (23) 
CCNC(=O)c1ccccc1NC(=O)c1cccc(S(=O)(=O)N2CCN(C)CC2)c1

>  <score_type>  (23) 
oracle

>  <origin>  (23) 
adgpu

>  <m_score__min__energy>  (23) 
-10.140000000000001

>  <m_primary>  (23) 
energy

$$$$
23:0
     RDKit          3D

 65 68  0  0  0  0  0  0  0  0999 V2000
   -6.0700   19.3120  -34.1100 C   0  0  0  0  0  0  0  0  0  0  0  0
   -4.6500   18.8920  -33.8650 C   0  0  0  0  0  0  0  0  0  0  0  0
   -4.3440   17.5430  -33.6330 C   0  0  0  0  0  0  0  0  0  0  0  0
   -3.0250   17.1510  -33.3570 C   0  0  0  0  0  0  0  0  0  0  0  0
   -2.6950   15.7000  -33.1590 C   0  0  0  0  0  0  0  0  0  0  0  0
   -2.0080   18.1140  -33.3390 C   0  0  0  0  0  0  0  0  0  0  0  0
   -2.3040   19.4630  -33.5780 C   0  0  0  0  0  0  0  0  0  0  0  0
   -1.0190   20.6690  -33.6100 S   0  0  0  0  0  0  0  0  0  0  0  0
   -0.8160   21.0910  -35.0380 O   0  0  0  0  0  0  0  0  0  0  0  0
   -1.4030   21.8740  -32.8000 O   0  0  0  0  0  0  0  0  0  0  0  0
    0.4830   19.9940  -32.9500 C   0  0  0  0  0  0  0  0  0  0  0  0
    1.5040   19.6150  -33.8370 C   0  0  0  0  0  0  0  0  0  0  0  0
    2.6820   19.0360  -33.3610 C   0  0  0  0  0  0  0  0  0  0  0  0
    2.8530   18.8220  -31.9940 C   0  0  0  0  0  0  0  0  0  0  0  0
    1.8510   19.1960  -31.0970 C   0  0  0  0  0  0  0  0  0  0  0  0
    0.6700   19.7940  -31.5600 C   0  0  0  0  0  0  0  0  0  0  0  0
   -0.3470   20.1840  -30.5720 C   0  0  0  0  0  0  0  0  0  0  0  0
   -0.9230   19.2890  -29.8970 O   0  0  0  0  0  0  0  0  0  0  0  0
   -0.6750   21.5680  -30.3830 N   0  0  0  0  0  0  0  0  0  0  0  0
   -1.8380   21.9940  -29.6570 C   0  0  0  0  0  0  0  0  0  0  0  0
   -2.7050   22.9140  -30.2590 C   0  0  0  0  0  0  0  0  0  0  0  0
   -3.8870   23.3080  -29.6220 C   0  0  0  0  0  0  0  0  0  0  0  0
   -4.9800   24.4480  -30.4080 S   0  0  0  0  0  0  0  0  0  0  0  0
   -6.0170   24.8950  -29.4160 O   0  0  0  0  0  0  0  0  0  0  0  0
   -4.2030   25.6600  -30.8410 O   0  0  0  0  0  0  0  0  0  0  0  0
   -5.7760   23.7490  -31.8020 N   0  0  0  0  0  0  0  0  0  0  0  0
   -7.2520   23.7080  -31.6630 C   0  0  0  0  0  0  0  0  0  0  0  0
   -7.8630   22.3410  -31.9830 C   0  0  0  0  0  0  0  0  0  0  0  0
   -7.1200   21.2540  -31.2140 C   0  0  0  0  0  0  0  0  0  0  0  0
   -5.6250   21.2300  -31.5650 C   0  0  0  0  0  0  0  0  0  0  0  0
   -5.1260   22.5070  -32.2710 C   0  0  0  0  0  0  0  0  0  0  0  0
   -4.2050   22.7710  -28.3690 C   0  0  0  0  0  0  0  0  0  0  0  0
   -3.3240   21.8920  -27.7360 C   0  0  0  0  0  0  0  0  0  0  0  0
   -2.1260   21.5140  -28.3590 C   0  0  0  0  0  0  0  0  0  0  0  0
   -1.1910   20.7000  -27.6390 N   0  0  0  0  0  0  0  0  0  0  0  0
   -3.6290   19.8510  -33.8140 C   0  0  0  0  0  0  0  0  0  0  0  0
   -6.5792   19.4626  -33.1467 H   0  0  0  0  0  0  0  0  0  0  0  0
   -6.0810   20.2519  -34.6814 H   0  0  0  0  0  0  0  0  0  0  0  0
   -6.5905   18.5293  -34.6814 H   0  0  0  0  0  0  0  0  0  0  0  0
   -5.1428   16.7876  -33.6676 H   0  0  0  0  0  0  0  0  0  0  0  0
   -2.6447   15.4790  -32.0826 H   0  0  0  0  0  0  0  0  0  0  0  0
   -3.4750   15.0797  -33.6247 H   0  0  0  0  0  0  0  0  0  0  0  0
   -1.7234   15.4781  -33.6247 H   0  0  0  0  0  0  0  0  0  0  0  0
   -0.9706   17.8097  -33.1360 H   0  0  0  0  0  0  0  0  0  0  0  0
    1.3742   19.7759  -34.9174 H   0  0  0  0  0  0  0  0  0  0  0  0
    3.4763   18.7483  -34.0655 H   0  0  0  0  0  0  0  0  0  0  0  0
    3.7784   18.3580  -31.6220 H   0  0  0  0  0  0  0  0  0  0  0  0
    1.9886   19.0205  -30.0198 H   0  0  0  0  0  0  0  0  0  0  0  0
   -0.2010   22.2690  -30.9970 H   0  0  0  0  0  0  0  0  0  0  0  0
   -2.4539   23.3322  -31.2449 H   0  0  0  0  0  0  0  0  0  0  0  0
   -7.5105   23.9698  -30.6264 H   0  0  0  0  0  0  0  0  0  0  0  0
   -7.6633   24.4222  -32.3915 H   0  0  0  0  0  0  0  0  0  0  0  0
   -8.9233   22.3366  -31.6900 H   0  0  0  0  0  0  0  0  0  0  0  0
   -7.7776   22.1472  -33.0624 H   0  0  0  0  0  0  0  0  0  0  0  0
   -7.2299   21.4418  -30.1357 H   0  0  0  0  0  0  0  0  0  0  0  0
   -7.5527   20.2814  -31.4912 H   0  0  0  0  0  0  0  0  0  0  0  0
   -5.0531   21.1035  -30.6339 H   0  0  0  0  0  0  0  0  0  0  0  0
   -5.4767   20.3982  -32.2694 H   0  0  0  0  0  0  0  0  0  0  0  0
   -4.0435   22.5970  -32.0977 H   0  0  0  0  0  0  0  0  0  0  0  0
   -5.3782   22.3997  -33.3363 H   0  0  0  0  0  0  0  0  0  0  0  0
   -5.1527   23.0426  -27.8811 H   0  0  0  0  0  0  0  0  0  0  0  0
   -3.5715   21.4931  -26.7412 H   0  0  0  0  0  0  0  0  0  0  0  0
   -0.7700   19.8540  -28.0840 H   0  0  0  0  0  0  0  0  0  0  0  0
   -0.9740   20.8780  -26.6330 H   0  0  0  0  0  0  0  0  0  0  0  0
   -3.8697   20.9143  -33.9601 H   0  0  0  0  0  0  0  0  0  0  0  0
  1  2  1  0
  2  3  2  0
  3  4  1  0
  4  5  1  0
  4  6  2  0
  6  7  1  0
  7  8  1  0
  8  9  2  0
  8 10  2  0
  8 11  1  0
 11 12  2  0
 12 13  1  0
 13 14  2  0
 14 15  1  0
 15 16  2  0
 16 17  1  0
 17 18  2  0
 17 19  1  0
 19 20  1  0
 20 21  2  0
 21 22  1  0
 22 23  1  0
 23 24  2  0
 23 25  2  0
 23 26  1  0
 26 27  1  0
 27 28  1  0
 28 29  1  0
 29 30  1  0
 30 31  1  0
 22 32  2  0
 32 33  1  0
 33 34  2  0
 34 35  1  0
  7 36  2  0
 36  2  1  0
 16 11  1  0
 34 20  1  0
 31 26  1  0
  1 37  1  0
  1 38  1  0
  1 39  1  0
  3 40  1  0
  5 41  1  0
  5 42  1  0
  5 43  1  0
  6 44  1  0
 12 45  1  0
 13 46  1  0
 14 47  1  0
 15 48  1  0
 19 49  1  0
 21 50  1  0
 27 51  1  0
 27 52  1  0
 28 53  1  0
 28 54  1  0
 29 55  1  0
 29 56  1  0
 30 57  1  0
 30 58  1  0
 31 59  1  0
 31 60  1  0
 32 61  1  0
 33 62  1  0
 35 63  1  0
 35 64  1  0
 36 65  1  0
M  END
>  <UniqueID>  (24) 
22

>  <SMILES>  (24) 
Cc1cc(C)cc(S(=O)(=O)c2ccccc2C(=O)Nc2cc(S(=O)(=O)N3CCCCC3)ccc2N)c1

>  <Energy>  (24) 
83.70562914499054

>  <Genealogy>  (24) 
Cc1cc(C)cc(S(=O)(=O)c2ccccc2C(=O)Nc2cc(S(=O)(=O)N3CCCCC3)ccc2N)c1 (3D coordinates assigned)
Cc1cc(C)cc(S(=O)(=O)c2ccccc2C(=O)Nc2cc(S(=O)(=O)N3CCCCC3)ccc2N)c1 (nonaromatic ring conformer: 83.70562914499054 kcal/mol)

>  <smiles>  (24) 
Cc1cc(C)cc(S(=O)(=O)c2ccccc2C(=O)Nc2cc(S(=O)(=O)N3CCCCC3)ccc2N)c1

>  <score_type>  (24) 
oracle

>  <origin>  (24) 
adgpu

>  <m_score__min__energy>  (24) 
-11.710000000000001

>  <m_primary>  (24) 
energy

$$$$
24:0
     RDKit          3D

 45 47  0  0  0  0  0  0  0  0999 V2000
    0.6530   22.3880  -27.3470 C   0  0  0  0  0  0  0  0  0  0  0  0
   -0.4100   23.0400  -28.1820 C   0  0  0  0  0  0  0  0  0  0  0  0
   -0.8220   24.3460  -27.8920 C   0  0  0  0  0  0  0  0  0  0  0  0
   -1.8360   24.9500  -28.6410 C   0  0  0  0  0  0  0  0  0  0  0  0
   -2.4650   24.2490  -29.6860 C   0  0  0  0  0  0  0  0  0  0  0  0
   -3.5040   24.8530  -30.4730 N   0  0  0  0  0  0  0  0  0  0  0  0
   -5.1660   25.0060  -30.0000 S   0  0  0  0  0  0  0  0  0  0  0  0
   -5.2600   24.9390  -28.5000 O   0  0  0  0  0  0  0  0  0  0  0  0
   -5.6900   26.3350  -30.4650 O   0  0  0  0  0  0  0  0  0  0  0  0
   -6.1190   23.7270  -30.7470 C   0  0  0  0  0  0  0  0  0  0  0  0
   -7.2530   23.2140  -30.1020 C   0  0  0  0  0  0  0  0  0  0  0  0
   -7.9960   22.1890  -30.6960 C   0  0  0  0  0  0  0  0  0  0  0  0
   -7.6250   21.6790  -31.9460 C   0  0  0  0  0  0  0  0  0  0  0  0
   -8.4030   20.6180  -32.5210 N   0  0  0  0  0  0  0  0  0  0  0  0
   -8.1830   19.2130  -32.3310 C   0  0  0  0  0  0  0  0  0  0  0  0
   -8.9690   18.5780  -31.5770 O   0  0  0  0  0  0  0  0  0  0  0  0
   -7.0980   18.4850  -33.0310 C   0  0  0  0  0  0  0  0  0  0  0  0
   -6.8730   17.1170  -32.7900 C   0  0  0  0  0  0  0  0  0  0  0  0
   -5.8450   16.4400  -33.4520 C   0  0  0  0  0  0  0  0  0  0  0  0
   -5.0240   17.1230  -34.3530 C   0  0  0  0  0  0  0  0  0  0  0  0
   -5.2270   18.4860  -34.5880 C   0  0  0  0  0  0  0  0  0  0  0  0
   -6.2550   19.1670  -33.9270 C   0  0  0  0  0  0  0  0  0  0  0  0
   -6.4770   22.1820  -32.5830 C   0  0  0  0  0  0  0  0  0  0  0  0
   -5.7330   23.2060  -31.9880 C   0  0  0  0  0  0  0  0  0  0  0  0
   -2.0650   22.9260  -29.9690 C   0  0  0  0  0  0  0  0  0  0  0  0
   -2.7230   22.1550  -31.0810 C   0  0  0  0  0  0  0  0  0  0  0  0
   -1.0420   22.3300  -29.2130 C   0  0  0  0  0  0  0  0  0  0  0  0
    0.4208   22.5304  -26.2812 H   0  0  0  0  0  0  0  0  0  0  0  0
    0.6891   21.3123  -27.5739 H   0  0  0  0  0  0  0  0  0  0  0  0
    1.6282   22.8435  -27.5739 H   0  0  0  0  0  0  0  0  0  0  0  0
   -0.3451   24.9001  -27.0701 H   0  0  0  0  0  0  0  0  0  0  0  0
   -2.1443   25.9807  -28.4117 H   0  0  0  0  0  0  0  0  0  0  0  0
   -7.5592   23.6188  -29.1261 H   0  0  0  0  0  0  0  0  0  0  0  0
   -8.8767   21.7812  -30.1783 H   0  0  0  0  0  0  0  0  0  0  0  0
   -7.5109   16.5764  -32.0753 H   0  0  0  0  0  0  0  0  0  0  0  0
   -5.6821   15.3686  -33.2635 H   0  0  0  0  0  0  0  0  0  0  0  0
   -4.2182   16.5884  -34.8772 H   0  0  0  0  0  0  0  0  0  0  0  0
   -4.5773   19.0241  -35.2939 H   0  0  0  0  0  0  0  0  0  0  0  0
   -6.4048   20.2415  -34.1090 H   0  0  0  0  0  0  0  0  0  0  0  0
   -6.1628   21.7687  -33.5528 H   0  0  0  0  0  0  0  0  0  0  0  0
   -4.8421   23.6032  -32.4964 H   0  0  0  0  0  0  0  0  0  0  0  0
   -3.3809   21.3841  -30.6533 H   0  0  0  0  0  0  0  0  0  0  0  0
   -3.3177   22.8417  -31.7013 H   0  0  0  0  0  0  0  0  0  0  0  0
   -1.9514   21.6756  -31.7013 H   0  0  0  0  0  0  0  0  0  0  0  0
   -0.7339   21.2969  -29.4317 H   0  0  0  0  0  0  0  0  0  0  0  0
  1  2  1  0
  2  3  2  0
  3  4  1  0
  4  5  2  0
  5  6  1  0
  6  7  1  0
  7  8  2  0
  7  9  2  0
  7 10  1  0
 10 11  2  0
 11 12  1  0
 12 13  2  0
 13 14  1  0
 14 15  1  0
 15 16  2  0
 15 17  1  0
 17 18  2  0
 18 19  1  0
 19 20  2  0
 20 21  1  0
 21 22  2  0
 13 23  1  0
 23 24  2  0
  5 25  1  0
 25 26  1  0
 25 27  2  0
 27  2  1  0
 24 10  1  0
 22 17  1  0
  1 28  1  0
  1 29  1  0
  1 30  1  0
  3 31  1  0
  4 32  1  0
 11 33  1  0
 12 34  1  0
 18 35  1  0
 19 36  1  0
 20 37  1  0
 21 38  1  0
 22 39  1  0
 23 40  1  0
 24 41  1  0
 26 42  1  0
 26 43  1  0
 26 44  1  0
 27 45  1  0
M  CHG  2   6  -1  14  -1
M  END
>  <UniqueID>  (25) 
23

>  <SMILES>  (25) 
Cc1ccc([N-]S(=O)(=O)c2ccc([N-]C(=O)c3ccccc3)cc2)c(C)c1

>  <Energy>  (25) 
56.68852162923481

>  <Genealogy>  (25) 
Cc1ccc([N-]S(=O)(=O)c2ccc([N-]C(=O)c3ccccc3)cc2)c(C)c1 (protonated)
Cc1ccc([N-]S(=O)(=O)c2ccc([N-]C(=O)c3ccccc3)cc2)c(C)c1 (3D coordinates assigned)
Cc1ccc([N-]S(=O)(=O)c2ccc([N-]C(=O)c3ccccc3)cc2)c(C)c1 (optimized conformer: 56.68852162923481 kcal/mol)

>  <smiles>  (25) 
Cc1ccc(NS(=O)(=O)c2ccc(NC(=O)c3ccccc3)cc2)c(C)c1

>  <score_type>  (25) 
oracle

>  <origin>  (25) 
adgpu

>  <m_score__min__energy>  (25) 
-11.51

>  <m_primary>  (25) 
energy

$$$$
25:0
     RDKit          3D

 46 48  0  0  0  0  0  0  0  0999 V2000
    0.9490   20.2680  -33.4180 C   0  0  0  0  0  0  0  0  0  0  0  0
   -0.2310   20.9730  -34.0170 C   0  0  0  0  0  0  0  0  0  0  0  0
   -0.0450   22.0380  -34.6630 O   0  0  0  0  0  0  0  0  0  0  0  0
   -1.5610   20.4520  -33.9040 N   0  0  0  0  0  0  0  0  0  0  0  0
   -2.2430   20.1400  -32.6510 C   0  0  0  0  0  0  0  0  0  0  0  0
   -2.1180   21.2800  -31.6760 C   0  0  0  0  0  0  0  0  0  0  0  0
   -1.1190   21.2610  -30.6950 C   0  0  0  0  0  0  0  0  0  0  0  0
   -1.0010   22.3130  -29.7830 C   0  0  0  0  0  0  0  0  0  0  0  0
   -1.8800   23.4100  -29.8330 C   0  0  0  0  0  0  0  0  0  0  0  0
   -1.7490   24.4870  -28.8180 C   0  0  0  0  0  0  0  0  0  0  0  0
   -2.0910   24.3550  -27.5160 N   0  0  0  0  0  0  0  0  0  0  0  0
   -1.7710   25.5710  -27.0420 C   0  0  0  0  0  0  0  0  0  0  0  0
   -1.9230   25.9120  -25.8400 O   0  0  0  0  0  0  0  0  0  0  0  0
   -1.2860   26.3580  -27.9670 O   0  0  0  0  0  0  0  0  0  0  0  0
   -1.2560   25.7170  -29.0940 N   0  0  0  0  0  0  0  0  0  0  0  0
   -2.8920   23.4260  -30.8220 C   0  0  0  0  0  0  0  0  0  0  0  0
   -3.8460   24.4880  -30.8800 N   0  0  0  0  0  0  0  0  0  0  0  0
   -5.3030   24.4010  -29.9510 S   0  0  0  0  0  0  0  0  0  0  0  0
   -5.8960   25.7750  -29.7930 O   0  0  0  0  0  0  0  0  0  0  0  0
   -4.9980   23.8430  -28.5900 O   0  0  0  0  0  0  0  0  0  0  0  0
   -6.4210   23.3300  -30.7860 C   0  0  0  0  0  0  0  0  0  0  0  0
   -7.6690   23.8030  -31.2190 C   0  0  0  0  0  0  0  0  0  0  0  0
   -8.5130   22.9730  -31.9620 C   0  0  0  0  0  0  0  0  0  0  0  0
   -8.1110   21.6760  -32.2900 C   0  0  0  0  0  0  0  0  0  0  0  0
   -6.8580   21.1990  -31.8740 C   0  0  0  0  0  0  0  0  0  0  0  0
   -6.3490   19.5740  -32.3220 S   0  0  0  0  0  0  0  0  0  0  0  0
   -7.6630   18.4250  -31.9840 C   0  0  0  0  0  0  0  0  0  0  0  0
   -6.0090   19.5440  -33.7860 O   0  0  0  0  0  0  0  0  0  0  0  0
   -5.1330   19.1720  -31.5350 O   0  0  0  0  0  0  0  0  0  0  0  0
   -6.0180   22.0270  -31.1160 C   0  0  0  0  0  0  0  0  0  0  0  0
   -3.0080   22.3610  -31.7250 C   0  0  0  0  0  0  0  0  0  0  0  0
    0.8819   20.3081  -32.3208 H   0  0  0  0  0  0  0  0  0  0  0  0
    0.9547   19.2183  -33.7469 H   0  0  0  0  0  0  0  0  0  0  0  0
    1.8760   20.7604  -33.7469 H   0  0  0  0  0  0  0  0  0  0  0  0
   -3.3079   19.9561  -32.8562 H   0  0  0  0  0  0  0  0  0  0  0  0
   -1.7781   19.2461  -32.2097 H   0  0  0  0  0  0  0  0  0  0  0  0
   -0.4220   20.4117  -30.6419 H   0  0  0  0  0  0  0  0  0  0  0  0
   -0.2118   22.2830  -29.0173 H   0  0  0  0  0  0  0  0  0  0  0  0
   -7.9834   24.8281  -30.9734 H   0  0  0  0  0  0  0  0  0  0  0  0
   -9.4962   23.3420  -32.2893 H   0  0  0  0  0  0  0  0  0  0  0  0
   -8.7782   21.0267  -32.8759 H   0  0  0  0  0  0  0  0  0  0  0  0
   -7.7856   18.3178  -30.8961 H   0  0  0  0  0  0  0  0  0  0  0  0
   -8.5994   18.7993  -32.4234 H   0  0  0  0  0  0  0  0  0  0  0  0
   -7.4170   17.4470  -32.4234 H   0  0  0  0  0  0  0  0  0  0  0  0
   -5.0397   21.6539  -30.7788 H   0  0  0  0  0  0  0  0  0  0  0  0
   -3.8069   22.3737  -32.4810 H   0  0  0  0  0  0  0  0  0  0  0  0
  1  2  1  0
  2  3  2  0
  2  4  1  0
  4  5  1  0
  5  6  1  0
  6  7  2  0
  7  8  1  0
  8  9  2  0
  9 10  1  0
 10 11  2  0
 11 12  1  0
 12 13  2  0
 12 14  1  0
 14 15  1  0
  9 16  1  0
 16 17  1  0
 17 18  1  0
 18 19  2  0
 18 20  2  0
 18 21  1  0
 21 22  2  0
 22 23  1  0
 23 24  2  0
 24 25  1  0
 25 26  1  0
 26 27  1  0
 26 28  2  0
 26 29  2  0
 25 30  2  0
 16 31  2  0
 31  6  1  0
 15 10  1  0
 30 21  1  0
  1 32  1  0
  1 33  1  0
  1 34  1  0
  5 35  1  0
  5 36  1  0
  7 37  1  0
  8 38  1  0
 22 39  1  0
 23 40  1  0
 24 41  1  0
 27 42  1  0
 27 43  1  0
 27 44  1  0
 30 45  1  0
 31 46  1  0
M  CHG  3   4  -1  15  -1  17  -1
M  END
>  <UniqueID>  (26) 
24

>  <SMILES>  (26) 
CC(=O)[N-]Cc1ccc(-c2nc(=O)o[n-]2)c([N-]S(=O)(=O)c2cccc(S(C)(=O)=O)c2)c1

>  <Energy>  (26) 
84.42585622600046

>  <Genealogy>  (26) 
CC(=O)[N-]Cc1ccc(-c2nc(=O)o[n-]2)c([N-]S(=O)(=O)c2cccc(S(C)(=O)=O)c2)c1 (protonated)
CC(=O)[N-]Cc1ccc(-c2nc(=O)o[n-]2)c([N-]S(=O)(=O)c2cccc(S(C)(=O)=O)c2)c1 (3D coordinates assigned)
CC(=O)[N-]Cc1ccc(-c2nc(=O)o[n-]2)c([N-]S(=O)(=O)c2cccc(S(C)(=O)=O)c2)c1 (optimized conformer: 84.42585622600046 kcal/mol)

>  <smiles>  (26) 
CC(=O)NCc1ccc(-c2nc(=O)o[nH]2)c(NS(=O)(=O)c2cccc(S(C)(=O)=O)c2)c1

>  <score_type>  (26) 
oracle

>  <origin>  (26) 
adgpu

>  <m_score__min__energy>  (26) 
-11.82

>  <m_primary>  (26) 
energy

$$$$
26:0
     RDKit          3D

 45 48  0  0  0  0  0  0  0  0999 V2000
   -6.1140   18.9000  -35.5680 O   0  0  0  0  0  0  0  0  0  0  0  0
   -6.0810   18.2690  -34.2040 S   0  0  0  0  0  0  0  0  0  0  0  0
   -6.5920   16.8600  -34.3160 O   0  0  0  0  0  0  0  0  0  0  0  0
   -7.0910   19.1660  -33.0760 C   0  0  0  0  0  0  0  0  0  0  0  0
   -7.9850   18.4770  -32.2460 C   0  0  0  0  0  0  0  0  0  0  0  0
   -8.7460   19.1740  -31.3040 C   0  0  0  0  0  0  0  0  0  0  0  0
   -8.6130   20.5580  -31.1800 C   0  0  0  0  0  0  0  0  0  0  0  0
   -7.7230   21.2570  -32.0080 C   0  0  0  0  0  0  0  0  0  0  0  0
   -7.5130   22.9940  -31.8050 S   0  0  0  0  0  0  0  0  0  0  0  0
   -6.5660   23.5170  -32.8500 O   0  0  0  0  0  0  0  0  0  0  0  0
   -8.8480   23.6600  -32.0040 O   0  0  0  0  0  0  0  0  0  0  0  0
   -6.9200   23.3530  -30.1960 N   0  0  0  0  0  0  0  0  0  0  0  0
   -5.6420   22.6750  -29.9150 C   0  0  0  0  0  0  0  0  0  0  0  0
   -4.4510   23.3390  -30.6510 C   0  0  0  0  0  0  0  0  0  0  0  0
   -4.7210   24.6570  -31.0940 O   0  0  0  0  0  0  0  0  0  0  0  0
   -5.4220   25.3720  -30.1010 C   0  0  0  0  0  0  0  0  0  0  0  0
   -6.8490   24.8110  -29.9480 C   0  0  0  0  0  0  0  0  0  0  0  0
   -6.9660   20.5580  -32.9590 C   0  0  0  0  0  0  0  0  0  0  0  0
   -4.4320   18.2620  -33.6040 C   0  0  0  0  0  0  0  0  0  0  0  0
   -3.6780   17.1470  -33.2600 C   0  0  0  0  0  0  0  0  0  0  0  0
   -2.4730   17.5280  -32.7760 N   0  0  0  0  0  0  0  0  0  0  0  0
   -2.4670   18.8730  -32.8090 C   0  0  0  0  0  0  0  0  0  0  0  0
   -1.4460   19.7250  -32.3910 C   0  0  0  0  0  0  0  0  0  0  0  0
   -1.6610   21.1120  -32.4980 C   0  0  0  0  0  0  0  0  0  0  0  0
   -2.8780   21.6100  -33.0140 C   0  0  0  0  0  0  0  0  0  0  0  0
   -3.8900   20.7260  -33.4290 C   0  0  0  0  0  0  0  0  0  0  0  0
   -3.6490   19.3570  -33.3090 C   0  0  0  0  0  0  0  0  0  0  0  0
   -8.0880   17.3855  -32.3361 H   0  0  0  0  0  0  0  0  0  0  0  0
   -9.4517   18.6307  -30.6584 H   0  0  0  0  0  0  0  0  0  0  0  0
   -9.2077   21.1015  -30.4311 H   0  0  0  0  0  0  0  0  0  0  0  0
   -5.4531   22.7107  -28.8319 H   0  0  0  0  0  0  0  0  0  0  0  0
   -5.7244   21.6385  -30.2740 H   0  0  0  0  0  0  0  0  0  0  0  0
   -3.5926   23.3722  -29.9639 H   0  0  0  0  0  0  0  0  0  0  0  0
   -4.2474   22.7334  -31.5464 H   0  0  0  0  0  0  0  0  0  0  0  0
   -4.8903   25.2787  -29.1426 H   0  0  0  0  0  0  0  0  0  0  0  0
   -5.4822   26.4300  -30.3959 H   0  0  0  0  0  0  0  0  0  0  0  0
   -7.1978   25.0111  -28.9241 H   0  0  0  0  0  0  0  0  0  0  0  0
   -7.4828   25.3066  -30.6981 H   0  0  0  0  0  0  0  0  0  0  0  0
   -6.2718   21.1032  -33.6154 H   0  0  0  0  0  0  0  0  0  0  0  0
   -4.0124   16.1044  -33.3658 H   0  0  0  0  0  0  0  0  0  0  0  0
   -1.7100   16.9020  -32.4350 H   0  0  0  0  0  0  0  0  0  0  0  0
   -0.5024   19.3262  -31.9903 H   0  0  0  0  0  0  0  0  0  0  0  0
   -0.8760   21.8128  -32.1776 H   0  0  0  0  0  0  0  0  0  0  0  0
   -3.0351   22.6959  -33.0917 H   0  0  0  0  0  0  0  0  0  0  0  0
   -4.8408   21.1017  -33.8351 H   0  0  0  0  0  0  0  0  0  0  0  0
  1  2  2  0
  2  3  2  0
  2  4  1  0
  4  5  2  0
  5  6  1  0
  6  7  2  0
  7  8  1  0
  8  9  1  0
  9 10  2  0
  9 11  2  0
  9 12  1  0
 12 13  1  0
 13 14  1  0
 14 15  1  0
 15 16  1  0
 16 17  1  0
  8 18  2  0
  2 19  1  0
 19 20  2  0
 20 21  1  0
 21 22  1  0
 22 23  2  0
 23 24  1  0
 24 25  2  0
 25 26  1  0
 26 27  2  0
 18  4  1  0
 27 19  1  0
 17 12  1  0
 27 22  1  0
  5 28  1  0
  6 29  1  0
  7 30  1  0
 13 31  1  0
 13 32  1  0
 14 33  1  0
 14 34  1  0
 16 35  1  0
 16 36  1  0
 17 37  1  0
 17 38  1  0
 18 39  1  0
 20 40  1  0
 21 41  1  0
 23 42  1  0
 24 43  1  0
 25 44  1  0
 26 45  1  0
M  END
>  <UniqueID>  (27) 
25

>  <SMILES>  (27) 
O=S(=O)(c1cccc(S(=O)(=O)N2CCOCC2)c1)c1c[nH]c2ccccc12

>  <Energy>  (27) 
91.83198445318767

>  <Genealogy>  (27) 
O=S(=O)(c1cccc(S(=O)(=O)N2CCOCC2)c1)c1c[nH]c2ccccc12 (3D coordinates assigned)
O=S(=O)(c1cccc(S(=O)(=O)N2CCOCC2)c1)c1c[nH]c2ccccc12 (nonaromatic ring conformer: 91.83198445318767 kcal/mol)

>  <smiles>  (27) 
O=S(=O)(c1cccc(S(=O)(=O)N2CCOCC2)c1)c1c[nH]c2ccccc12

>  <score_type>  (27) 
oracle

>  <origin>  (27) 
adgpu

>  <m_score__min__energy>  (27) 
-10.449999999999999

>  <m_primary>  (27) 
energy

$$$$
27:0
     RDKit          3D

 53 56  0  0  0  0  0  0  0  0999 V2000
   -0.8030   27.0690  -23.3430 C   0  0  0  0  0  0  0  0  0  0  0  0
   -0.6390   27.2630  -24.8210 C   0  0  0  0  0  0  0  0  0  0  0  0
   -0.5970   28.5560  -25.3600 C   0  0  0  0  0  0  0  0  0  0  0  0
   -0.4940   28.7210  -26.7420 C   0  0  0  0  0  0  0  0  0  0  0  0
   -0.4600   27.6350  -27.5580 N   0  0  0  0  0  0  0  0  0  0  0  0
   -0.5220   26.3650  -27.0730 C   0  0  0  0  0  0  0  0  0  0  0  0
   -0.4730   25.2980  -27.9830 O   0  0  0  0  0  0  0  0  0  0  0  0
   -0.8710   23.9810  -27.7080 C   0  0  0  0  0  0  0  0  0  0  0  0
   -0.0980   23.2270  -26.8180 C   0  0  0  0  0  0  0  0  0  0  0  0
   -0.4510   21.9130  -26.5070 C   0  0  0  0  0  0  0  0  0  0  0  0
   -1.5760   21.3200  -27.0980 C   0  0  0  0  0  0  0  0  0  0  0  0
   -1.9700   19.9150  -26.7110 C   0  0  0  0  0  0  0  0  0  0  0  0
   -1.9930   19.7940  -25.3320 F   0  0  0  0  0  0  0  0  0  0  0  0
   -3.2310   19.6420  -27.2080 F   0  0  0  0  0  0  0  0  0  0  0  0
   -1.0780   18.9800  -27.2130 F   0  0  0  0  0  0  0  0  0  0  0  0
   -2.3500   22.0710  -28.0000 C   0  0  0  0  0  0  0  0  0  0  0  0
   -1.9880   23.3900  -28.3350 C   0  0  0  0  0  0  0  0  0  0  0  0
   -2.7620   24.1550  -29.2730 N   0  0  0  0  0  0  0  0  0  0  0  0
   -3.1400   23.7320  -30.5870 C   0  0  0  0  0  0  0  0  0  0  0  0
   -2.3650   22.9750  -31.2310 O   0  0  0  0  0  0  0  0  0  0  0  0
   -4.3790   24.1720  -31.1610 N   0  0  0  0  0  0  0  0  0  0  0  0
   -5.5710   23.3850  -31.3110 C   0  0  0  0  0  0  0  0  0  0  0  0
   -6.7950   24.0040  -31.0680 C   0  0  0  0  0  0  0  0  0  0  0  0
   -7.9850   23.3150  -31.2630 C   0  0  0  0  0  0  0  0  0  0  0  0
   -7.9730   21.9690  -31.6370 C   0  0  0  0  0  0  0  0  0  0  0  0
   -9.5400   21.2220  -31.9480 Cl  0  0  0  0  0  0  0  0  0  0  0  0
   -6.7420   21.2810  -31.7830 C   0  0  0  0  0  0  0  0  0  0  0  0
   -6.7060   19.5240  -32.0910 S   0  0  0  0  0  0  0  0  0  0  0  0
   -5.6140   18.8850  -31.2810 O   0  0  0  0  0  0  0  0  0  0  0  0
   -7.9950   18.8750  -31.6770 O   0  0  0  0  0  0  0  0  0  0  0  0
   -6.3840   19.2560  -33.8360 C   0  0  0  0  0  0  0  0  0  0  0  0
   -4.9630   18.8220  -34.1600 C   0  0  0  0  0  0  0  0  0  0  0  0
   -6.0990   17.8110  -34.2190 C   0  0  0  0  0  0  0  0  0  0  0  0
   -5.5320   22.0160  -31.6590 C   0  0  0  0  0  0  0  0  0  0  0  0
   -4.2880   21.4170  -31.8680 O   0  0  0  0  0  0  0  0  0  0  0  0
   -0.6030   26.1590  -25.6840 C   0  0  0  0  0  0  0  0  0  0  0  0
   -0.1832   27.8021  -22.8060 H   0  0  0  0  0  0  0  0  0  0  0  0
   -1.8589   27.2111  -23.0695 H   0  0  0  0  0  0  0  0  0  0  0  0
   -0.4871   26.0515  -23.0695 H   0  0  0  0  0  0  0  0  0  0  0  0
   -0.6448   29.4339  -24.6990 H   0  0  0  0  0  0  0  0  0  0  0  0
   -0.4402   29.7322  -27.1716 H   0  0  0  0  0  0  0  0  0  0  0  0
    0.7962   23.6741  -26.3592 H   0  0  0  0  0  0  0  0  0  0  0  0
    0.1576   21.3384  -25.7932 H   0  0  0  0  0  0  0  0  0  0  0  0
   -3.2487   21.6231  -28.4492 H   0  0  0  0  0  0  0  0  0  0  0  0
   -6.8192   25.0468  -30.7189 H   0  0  0  0  0  0  0  0  0  0  0  0
   -8.9449   23.8334  -31.1218 H   0  0  0  0  0  0  0  0  0  0  0  0
   -7.0639   20.0393  -34.2023 H   0  0  0  0  0  0  0  0  0  0  0  0
   -4.4819   19.1634  -35.0884 H   0  0  0  0  0  0  0  0  0  0  0  0
   -3.9957   18.8753  -33.6390 H   0  0  0  0  0  0  0  0  0  0  0  0
   -6.4393   17.4219  -35.1900 H   0  0  0  0  0  0  0  0  0  0  0  0
   -6.2933   16.8311  -33.7584 H   0  0  0  0  0  0  0  0  0  0  0  0
   -3.4110   21.9210  -31.8570 H   0  0  0  0  0  0  0  0  0  0  0  0
   -0.6379   25.1375  -25.2773 H   0  0  0  0  0  0  0  0  0  0  0  0
  1  2  1  0
  2  3  2  0
  3  4  1  0
  4  5  2  0
  5  6  1  0
  6  7  1  0
  7  8  1  0
  8  9  2  0
  9 10  1  0
 10 11  2  0
 11 12  1  0
 12 13  1  0
 12 14  1  0
 12 15  1  0
 11 16  1  0
 16 17  2  0
 17 18  1  0
 18 19  1  0
 19 20  2  0
 19 21  1  0
 21 22  1  0
 22 23  2  0
 23 24  1  0
 24 25  2  0
 25 26  1  0
 25 27  1  0
 27 28  1  0
 28 29  2  0
 28 30  2  0
 28 31  1  0
 31 32  1  0
 32 33  1  0
 27 34  2  0
 34 35  1  0
  6 36  2  0
 36  2  1  0
 17  8  1  0
 34 22  1  0
 33 31  1  0
  1 37  1  0
  1 38  1  0
  1 39  1  0
  3 40  1  0
  4 41  1  0
  9 42  1  0
 10 43  1  0
 16 44  1  0
 23 45  1  0
 24 46  1  0
 31 47  1  0
 32 48  1  0
 32 49  1  0
 33 50  1  0
 33 51  1  0
 35 52  1  0
 36 53  1  0
M  CHG  2  18  -1  21  -1
M  END
>  <UniqueID>  (28) 
26

>  <SMILES>  (28) 
Cc1ccnc(Oc2ccc(C(F)(F)F)cc2[N-]C(=O)[N-]c2ccc(Cl)c(S(=O)(=O)C3CC3)c2O)c1

>  <Energy>  (28) 
344.11007189538924

>  <Genealogy>  (28) 
Cc1ccnc(Oc2ccc(C(F)(F)F)cc2[N-]C(=O)[N-]c2ccc(Cl)c(S(=O)(=O)C3CC3)c2O)c1 (protonated)
Cc1ccnc(Oc2ccc(C(F)(F)F)cc2[N-]C(=O)[N-]c2ccc(Cl)c(S(=O)(=O)C3CC3)c2O)c1 (3D coordinates assigned)
Cc1ccnc(Oc2ccc(C(F)(F)F)cc2[N-]C(=O)[N-]c2ccc(Cl)c(S(=O)(=O)C3CC3)c2O)c1 (nonaromatic ring conformer: 344.11007189538924 kcal/mol)

>  <smiles>  (28) 
Cc1ccnc(Oc2ccc(C(F)(F)F)cc2NC(=O)Nc2ccc(Cl)c(S(=O)(=O)C3CC3)c2O)c1

>  <score_type>  (28) 
oracle

>  <origin>  (28) 
adgpu

>  <m_score__min__energy>  (28) 
-13.06

>  <m_primary>  (28) 
energy

$$$$
28:0
     RDKit          3D

 52 54  0  0  0  0  0  0  0  0999 V2000
   -6.2610   18.9380  -33.5550 C   0  0  0  0  0  0  0  0  0  0  0  0
   -7.0840   19.7120  -32.6170 N   0  0  0  0  0  0  0  0  0  0  0  0
   -8.3920   19.1760  -32.2170 C   0  0  0  0  0  0  0  0  0  0  0  0
   -6.6070   20.9790  -32.0830 C   0  0  0  0  0  0  0  0  0  0  0  0
   -5.2310   21.2940  -32.0810 C   0  0  0  0  0  0  0  0  0  0  0  0
   -4.7710   22.5020  -31.5480 C   0  0  0  0  0  0  0  0  0  0  0  0
   -5.6730   23.4220  -31.0030 C   0  0  0  0  0  0  0  0  0  0  0  0
   -5.0920   24.9060  -30.2520 S   0  0  0  0  0  0  0  0  0  0  0  0
   -4.0240   25.5450  -31.0980 O   0  0  0  0  0  0  0  0  0  0  0  0
   -6.2430   25.8610  -30.1090 O   0  0  0  0  0  0  0  0  0  0  0  0
   -4.4360   24.5610  -28.6840 N   0  0  0  0  0  0  0  0  0  0  0  0
   -3.2010   23.8680  -28.4380 C   0  0  0  0  0  0  0  0  0  0  0  0
   -3.1740   22.5140  -28.0550 C   0  0  0  0  0  0  0  0  0  0  0  0
   -1.9570   21.8820  -27.7650 C   0  0  0  0  0  0  0  0  0  0  0  0
   -1.9270   20.2050  -27.2240 S   0  0  0  0  0  0  0  0  0  0  0  0
   -3.3250   19.7450  -26.9190 O   0  0  0  0  0  0  0  0  0  0  0  0
   -1.1110   20.1270  -25.9630 O   0  0  0  0  0  0  0  0  0  0  0  0
   -1.2100   19.2060  -28.4710 N   0  0  0  0  0  0  0  0  0  0  0  0
   -0.5710   17.9870  -27.9130 C   0  0  0  0  0  0  0  0  0  0  0  0
    0.9520   17.9210  -28.1220 C   0  0  0  0  0  0  0  0  0  0  0  0
    1.5900   19.2810  -27.8400 C   0  0  0  0  0  0  0  0  0  0  0  0
    0.9970   20.3870  -28.7290 C   0  0  0  0  0  0  0  0  0  0  0  0
   -0.3460   19.9930  -29.3740 C   0  0  0  0  0  0  0  0  0  0  0  0
   -0.7590   22.5920  -27.9000 C   0  0  0  0  0  0  0  0  0  0  0  0
   -0.7760   23.9290  -28.3040 C   0  0  0  0  0  0  0  0  0  0  0  0
   -1.9920   24.5660  -28.5670 C   0  0  0  0  0  0  0  0  0  0  0  0
   -1.9940   25.9020  -28.9510 O   0  0  0  0  0  0  0  0  0  0  0  0
   -7.0410   23.1320  -31.0120 C   0  0  0  0  0  0  0  0  0  0  0  0
   -7.5050   21.9260  -31.5450 C   0  0  0  0  0  0  0  0  0  0  0  0
   -5.5729   18.2909  -32.9913 H   0  0  0  0  0  0  0  0  0  0  0  0
   -6.9121   18.3174  -34.1882 H   0  0  0  0  0  0  0  0  0  0  0  0
   -5.6815   19.6259  -34.1882 H   0  0  0  0  0  0  0  0  0  0  0  0
   -8.4572   19.1493  -31.1193 H   0  0  0  0  0  0  0  0  0  0  0  0
   -9.1897   19.8198  -32.6161 H   0  0  0  0  0  0  0  0  0  0  0  0
   -8.5086   18.1576  -32.6161 H   0  0  0  0  0  0  0  0  0  0  0  0
   -4.5104   20.5790  -32.5048 H   0  0  0  0  0  0  0  0  0  0  0  0
   -3.6949   22.7300  -31.5573 H   0  0  0  0  0  0  0  0  0  0  0  0
   -4.1144   21.9479  -27.9828 H   0  0  0  0  0  0  0  0  0  0  0  0
   -0.7725   17.9559  -26.8321 H   0  0  0  0  0  0  0  0  0  0  0  0
   -1.0013   17.1299  -28.4517 H   0  0  0  0  0  0  0  0  0  0  0  0
    1.3791   17.1721  -27.4389 H   0  0  0  0  0  0  0  0  0  0  0  0
    1.1562   17.6417  -29.1662 H   0  0  0  0  0  0  0  0  0  0  0  0
    1.4190   19.5424  -26.7853 H   0  0  0  0  0  0  0  0  0  0  0  0
    2.6651   19.2059  -28.0602 H   0  0  0  0  0  0  0  0  0  0  0  0
    0.8388   21.2840  -28.1122 H   0  0  0  0  0  0  0  0  0  0  0  0
    1.7112   20.5678  -29.5458 H   0  0  0  0  0  0  0  0  0  0  0  0
   -0.8808   20.9110  -29.6592 H   0  0  0  0  0  0  0  0  0  0  0  0
   -0.1200   19.3622  -30.2463 H   0  0  0  0  0  0  0  0  0  0  0  0
    0.1994   22.0957  -27.6873 H   0  0  0  0  0  0  0  0  0  0  0  0
    0.1688   24.4813  -28.4153 H   0  0  0  0  0  0  0  0  0  0  0  0
   -7.7563   23.8574  -30.5971 H   0  0  0  0  0  0  0  0  0  0  0  0
   -8.5840   21.7121  -31.5452 H   0  0  0  0  0  0  0  0  0  0  0  0
  1  2  1  0
  2  3  1  0
  2  4  1  0
  4  5  2  0
  5  6  1  0
  6  7  2  0
  7  8  1  0
  8  9  2  0
  8 10  2  0
  8 11  1  0
 11 12  1  0
 12 13  2  0
 13 14  1  0
 14 15  1  0
 15 16  2  0
 15 17  2  0
 15 18  1  0
 18 19  1  0
 19 20  1  0
 20 21  1  0
 21 22  1  0
 22 23  1  0
 14 24  2  0
 24 25  1  0
 25 26  2  0
 26 27  1  0
  7 28  1  0
 28 29  2  0
 29  4  1  0
 26 12  1  0
 23 18  1  0
  1 30  1  0
  1 31  1  0
  1 32  1  0
  3 33  1  0
  3 34  1  0
  3 35  1  0
  5 36  1  0
  6 37  1  0
 13 38  1  0
 19 39  1  0
 19 40  1  0
 20 41  1  0
 20 42  1  0
 21 43  1  0
 21 44  1  0
 22 45  1  0
 22 46  1  0
 23 47  1  0
 23 48  1  0
 24 49  1  0
 25 50  1  0
 28 51  1  0
 29 52  1  0
M  CHG  2  11  -1  27  -1
M  END
>  <UniqueID>  (29) 
27

>  <SMILES>  (29) 
CN(C)c1ccc(S(=O)(=O)[N-]c2cc(S(=O)(=O)N3CCCCC3)ccc2[O-])cc1

>  <Energy>  (29) 
63.86595679174058

>  <Genealogy>  (29) 
CN(C)c1ccc(S(=O)(=O)[N-]c2cc(S(=O)(=O)N3CCCCC3)ccc2[O-])cc1 (protonated)
CN(C)c1ccc(S(=O)(=O)[N-]c2cc(S(=O)(=O)N3CCCCC3)ccc2[O-])cc1 (3D coordinates assigned)
CN(C)c1ccc(S(=O)(=O)[N-]c2cc(S(=O)(=O)N3CCCCC3)ccc2[O-])cc1 (nonaromatic ring conformer: 63.86595679174058 kcal/mol)

>  <smiles>  (29) 
CN(C)c1ccc(S(=O)(=O)Nc2cc(S(=O)(=O)N3CCCCC3)ccc2O)cc1

>  <score_type>  (29) 
oracle

>  <origin>  (29) 
adgpu

>  <m_score__min__energy>  (29) 
-13.880000000000001

>  <m_primary>  (29) 
energy

$$$$
29:0
     RDKit          3D

 32 34  0  0  0  0  0  0  0  0999 V2000
   -6.7131   15.9423  -34.7482 H   0  0  0  0  0  0  0  0  0  0  0  0
   -6.4920   16.8930  -34.2410 C   0  0  0  0  0  0  0  0  0  0  0  0
   -7.0500   17.1640  -33.0310 N   0  0  0  0  0  0  0  0  0  0  0  0
   -6.8000   18.3260  -32.3720 C   0  0  0  0  0  0  0  0  0  0  0  0
   -7.2672   18.5106  -31.3934 H   0  0  0  0  0  0  0  0  0  0  0  0
   -5.9480   19.2940  -32.9330 C   0  0  0  0  0  0  0  0  0  0  0  0
   -5.6690   20.5690  -32.2230 C   0  0  0  0  0  0  0  0  0  0  0  0
   -6.7180   21.3150  -31.6540 C   0  0  0  0  0  0  0  0  0  0  0  0
   -7.7534   20.9530  -31.7370 H   0  0  0  0  0  0  0  0  0  0  0  0
   -6.4530   22.5130  -30.9840 C   0  0  0  0  0  0  0  0  0  0  0  0
   -7.2806   23.0889  -30.5443 H   0  0  0  0  0  0  0  0  0  0  0  0
   -5.1400   22.9830  -30.8700 C   0  0  0  0  0  0  0  0  0  0  0  0
   -4.8130   24.4880  -30.0160 S   0  0  0  0  0  0  0  0  0  0  0  0
   -3.9320   25.3840  -30.8400 O   0  0  0  0  0  0  0  0  0  0  0  0
   -6.1160   25.1900  -29.7520 O   0  0  0  0  0  0  0  0  0  0  0  0
   -4.0300   24.1580  -28.5030 N   0  0  0  0  0  0  0  0  0  0  0  0
   -2.8450   24.5760  -28.1790 C   0  0  0  0  0  0  0  0  0  0  0  0
   -2.1100   24.2280  -26.7120 S   0  0  0  0  0  0  0  0  0  0  0  0
   -0.7060   25.0780  -27.0950 C   0  0  0  0  0  0  0  0  0  0  0  0
    0.1769   25.1902  -26.4486 H   0  0  0  0  0  0  0  0  0  0  0  0
   -0.8570   25.6130  -28.3700 C   0  0  0  0  0  0  0  0  0  0  0  0
   -0.0761   26.2162  -28.8562 H   0  0  0  0  0  0  0  0  0  0  0  0
   -2.0460   25.3320  -28.9690 N   0  0  0  0  0  0  0  0  0  0  0  0
   -2.2870   25.6740  -29.9240 H   0  0  0  0  0  0  0  0  0  0  0  0
   -4.0910   22.2500  -31.4400 C   0  0  0  0  0  0  0  0  0  0  0  0
   -3.0578   22.6188  -31.3592 H   0  0  0  0  0  0  0  0  0  0  0  0
   -4.3520   21.0520  -32.1110 C   0  0  0  0  0  0  0  0  0  0  0  0
   -3.5220   20.4826  -32.5547 H   0  0  0  0  0  0  0  0  0  0  0  0
   -5.3690   19.0240  -34.1850 C   0  0  0  0  0  0  0  0  0  0  0  0
   -4.7009   19.7633  -34.6509 H   0  0  0  0  0  0  0  0  0  0  0  0
   -5.6390   17.8210  -34.8390 C   0  0  0  0  0  0  0  0  0  0  0  0
   -5.1834   17.6065  -35.8170 H   0  0  0  0  0  0  0  0  0  0  0  0
  1  2  1  0
  2  3  2  0
  3  4  1  0
  4  5  1  0
  4  6  2  0
  6  7  1  0
  7  8  2  0
  8  9  1  0
  8 10  1  0
 10 11  1  0
 10 12  2  0
 12 13  1  0
 13 14  2  0
 13 15  2  0
 13 16  1  0
 16 17  2  0
 17 18  1  0
 18 19  1  0
 19 20  1  0
 19 21  2  0
 21 22  1  0
 21 23  1  0
 23 24  1  0
 12 25  1  0
 25 26  1  0
 25 27  2  0
 27 28  1  0
  6 29  1  0
 29 30  1  0
 29 31  2  0
 31 32  1  0
 31  2  1  0
 27  7  1  0
 23 17  1  0
M  END
>  <UniqueID>  (30) 
28

>  <SMILES>  (30) 
O=S(=O)(/N=c1\[nH]ccs1)c1ccc(-c2cccnc2)cc1

>  <Energy>  (30) 
73.95396805255682

>  <Genealogy>  (30) 
O=S(=O)(/N=c1\[nH]ccs1)c1ccc(-c2cccnc2)cc1 (cis-trans isomerization)
O=S(=O)(/N=c1\[nH]ccs1)c1ccc(-c2cccnc2)cc1 (3D coordinates assigned)
O=S(=O)(/N=c1\[nH]ccs1)c1ccc(-c2cccnc2)cc1 (optimized conformer: 73.95396805255682 kcal/mol)

>  <smiles>  (30) 
O=S(=O)(N=c1[nH]ccs1)c1ccc(-c2cccnc2)cc1

>  <score_type>  (30) 
oracle

>  <origin>  (30) 
adgpu

>  <m_score__min__energy>  (30) 
-8.9000000000000004

>  <m_primary>  (30) 
energy

$$$$
30:0
     RDKit          3D

 33 35  0  0  0  0  0  0  0  0999 V2000
   -1.2400   26.1020  -28.9700 N   0  0  0  0  0  0  0  0  0  0  0  0
   -0.6250   24.8280  -27.9790 S   0  0  0  0  0  0  0  0  0  0  0  0
   -0.9860   25.0950  -26.5450 O   0  0  0  0  0  0  0  0  0  0  0  0
    0.8720   24.7730  -28.0980 O   0  0  0  0  0  0  0  0  0  0  0  0
   -1.3160   23.2940  -28.4980 C   0  0  0  0  0  0  0  0  0  0  0  0
   -1.4340   22.2260  -27.5980 C   0  0  0  0  0  0  0  0  0  0  0  0
   -1.9910   21.0140  -28.0160 C   0  0  0  0  0  0  0  0  0  0  0  0
   -2.4400   20.8650  -29.3300 C   0  0  0  0  0  0  0  0  0  0  0  0
   -2.3370   21.9310  -30.2380 C   0  0  0  0  0  0  0  0  0  0  0  0
   -2.7900   21.7740  -31.5950 N   0  0  0  0  0  0  0  0  0  0  0  0
   -3.8880   22.3090  -32.1840 C   0  0  0  0  0  0  0  0  0  0  0  0
   -4.9540   23.0540  -31.4810 C   0  0  0  0  0  0  0  0  0  0  0  0
   -4.6380   24.2620  -30.8320 C   0  0  0  0  0  0  0  0  0  0  0  0
   -5.6240   24.9800  -30.1530 C   0  0  0  0  0  0  0  0  0  0  0  0
   -6.9340   24.5010  -30.1090 C   0  0  0  0  0  0  0  0  0  0  0  0
   -7.2610   23.3020  -30.7460 C   0  0  0  0  0  0  0  0  0  0  0  0
   -6.2810   22.5730  -31.4310 C   0  0  0  0  0  0  0  0  0  0  0  0
   -6.8220   20.9690  -32.3340 Br  0  0  0  0  0  0  0  0  0  0  0  0
   -3.9350   22.0130  -33.5000 N   0  0  0  0  0  0  0  0  0  0  0  0
   -2.8560   21.2940  -33.7610 N   0  0  0  0  0  0  0  0  0  0  0  0
   -2.1680   21.1480  -32.6180 C   0  0  0  0  0  0  0  0  0  0  0  0
   -0.7080   20.4060  -32.5270 S   0  0  0  0  0  0  0  0  0  0  0  0
   -1.7730   23.1440  -29.8150 C   0  0  0  0  0  0  0  0  0  0  0  0
   -1.5600   25.6660  -29.8640 H   0  0  0  0  0  0  0  0  0  0  0  0
   -1.0875   22.3419  -26.5604 H   0  0  0  0  0  0  0  0  0  0  0  0
   -2.0758   20.1759  -27.3086 H   0  0  0  0  0  0  0  0  0  0  0  0
   -2.8760   19.9088  -29.6549 H   0  0  0  0  0  0  0  0  0  0  0  0
   -3.6066   24.6433  -30.8599 H   0  0  0  0  0  0  0  0  0  0  0  0
   -5.3679   25.9251  -29.6517 H   0  0  0  0  0  0  0  0  0  0  0  0
   -7.7091   25.0679  -29.5725 H   0  0  0  0  0  0  0  0  0  0  0  0
   -8.2948   22.9279  -30.7094 H   0  0  0  0  0  0  0  0  0  0  0  0
   -2.5980   20.9300  -34.7050 H   0  0  0  0  0  0  0  0  0  0  0  0
   -1.6888   23.9830  -30.5214 H   0  0  0  0  0  0  0  0  0  0  0  0
  1  2  1  0
  2  3  2  0
  2  4  2  0
  2  5  1  0
  5  6  2  0
  6  7  1  0
  7  8  2  0
  8  9  1  0
  9 10  1  0
 10 11  1  0
 11 12  1  0
 12 13  2  0
 13 14  1  0
 14 15  2  0
 15 16  1  0
 16 17  2  0
 17 18  1  0
 11 19  2  0
 19 20  1  0
 20 21  1  0
 21 22  2  0
  9 23  2  0
 23  5  1  0
 21 10  1  0
 17 12  1  0
  1 24  1  0
  6 25  1  0
  7 26  1  0
  8 27  1  0
 13 28  1  0
 14 29  1  0
 15 30  1  0
 16 31  1  0
 20 32  1  0
 23 33  1  0
M  CHG  1   1  -1
M  END
>  <UniqueID>  (31) 
29

>  <SMILES>  (31) 
[NH-]S(=O)(=O)c1cccc(-n2c(-c3ccccc3Br)n[nH]c2=S)c1

>  <Energy>  (31) 
83.31960143505327

>  <Genealogy>  (31) 
[NH-]S(=O)(=O)c1cccc(-n2c(-c3ccccc3Br)n[nH]c2=S)c1 (protonated)
[NH-]S(=O)(=O)c1cccc(-n2c(-c3ccccc3Br)n[nH]c2=S)c1 (3D coordinates assigned)
[NH-]S(=O)(=O)c1cccc(-n2c(-c3ccccc3Br)n[nH]c2=S)c1 (optimized conformer: 83.31960143505327 kcal/mol)

>  <smiles>  (31) 
NS(=O)(=O)c1cccc(-n2c(-c3ccccc3Br)n[nH]c2=S)c1

>  <score_type>  (31) 
oracle

>  <origin>  (31) 
adgpu

>  <m_score__min__energy>  (31) 
-11

>  <m_primary>  (31) 
energy

$$$$
31:0
     RDKit          3D

 51 54  0  0  0  0  0  0  0  0999 V2000
   -1.7500   14.5770  -32.4240 N   0  0  0  0  0  0  0  0  0  0  0  0
   -2.4880   13.5750  -33.2080 C   0  0  0  0  0  0  0  0  0  0  0  0
   -3.6190   12.9400  -32.3670 C   0  0  0  0  0  0  0  0  0  0  0  0
   -4.7180   13.9620  -32.0320 C   0  0  0  0  0  0  0  0  0  0  0  0
   -4.9670   14.8720  -33.1610 N   0  0  0  0  0  0  0  0  0  0  0  0
   -5.5580   16.1630  -32.9220 C   0  0  0  0  0  0  0  0  0  0  0  0
   -5.7240   16.6370  -31.6120 C   0  0  0  0  0  0  0  0  0  0  0  0
   -6.2660   17.9040  -31.3790 C   0  0  0  0  0  0  0  0  0  0  0  0
   -6.6500   18.7290  -32.4520 C   0  0  0  0  0  0  0  0  0  0  0  0
   -7.1870   20.0890  -32.1810 C   0  0  0  0  0  0  0  0  0  0  0  0
   -8.5560   20.3910  -32.2820 C   0  0  0  0  0  0  0  0  0  0  0  0
   -8.9810   21.6590  -32.0510 N   0  0  0  0  0  0  0  0  0  0  0  0
   -8.1160   22.6480  -31.7070 C   0  0  0  0  0  0  0  0  0  0  0  0
   -6.7480   22.3580  -31.5700 C   0  0  0  0  0  0  0  0  0  0  0  0
   -5.7820   23.3650  -31.1890 N   0  0  0  0  0  0  0  0  0  0  0  0
   -4.3500   23.0300  -31.2140 C   0  0  0  0  0  0  0  0  0  0  0  0
   -3.5730   23.9210  -30.2420 C   0  0  0  0  0  0  0  0  0  0  0  0
   -3.8670   25.2840  -30.4680 O   0  0  0  0  0  0  0  0  0  0  0  0
   -5.2190   25.5330  -30.1410 C   0  0  0  0  0  0  0  0  0  0  0  0
   -6.1610   24.7840  -31.0890 C   0  0  0  0  0  0  0  0  0  0  0  0
   -6.3330   21.0850  -31.8190 N   0  0  0  0  0  0  0  0  0  0  0  0
   -6.4710   18.2540  -33.7660 C   0  0  0  0  0  0  0  0  0  0  0  0
   -5.9330   16.9850  -33.9960 C   0  0  0  0  0  0  0  0  0  0  0  0
   -4.5370   14.4710  -34.5070 C   0  0  0  0  0  0  0  0  0  0  0  0
   -3.0260   14.1930  -34.5300 C   0  0  0  0  0  0  0  0  0  0  0  0
   -1.4440   14.1830  -31.5060 H   0  0  0  0  0  0  0  0  0  0  0  0
   -0.9110   14.9050  -32.9550 H   0  0  0  0  0  0  0  0  0  0  0  0
   -2.3650   15.4050  -32.2480 H   0  0  0  0  0  0  0  0  0  0  0  0
   -1.7924   12.7682  -33.4823 H   0  0  0  0  0  0  0  0  0  0  0  0
   -4.0643   12.1107  -32.9361 H   0  0  0  0  0  0  0  0  0  0  0  0
   -3.1847   12.5801  -31.4226 H   0  0  0  0  0  0  0  0  0  0  0  0
   -5.6473   13.4234  -31.7948 H   0  0  0  0  0  0  0  0  0  0  0  0
   -4.3835   14.5607  -31.1720 H   0  0  0  0  0  0  0  0  0  0  0  0
   -5.4252   16.0065  -30.7616 H   0  0  0  0  0  0  0  0  0  0  0  0
   -6.3937   18.2598  -30.3460 H   0  0  0  0  0  0  0  0  0  0  0  0
   -9.2783   19.6047  -32.5466 H   0  0  0  0  0  0  0  0  0  0  0  0
   -8.4844   23.6704  -31.5366 H   0  0  0  0  0  0  0  0  0  0  0  0
   -4.2196   21.9773  -30.9230 H   0  0  0  0  0  0  0  0  0  0  0  0
   -3.9646   23.1933  -32.2313 H   0  0  0  0  0  0  0  0  0  0  0  0
   -3.8510   23.6581  -29.2107 H   0  0  0  0  0  0  0  0  0  0  0  0
   -2.4963   23.7612  -30.4004 H   0  0  0  0  0  0  0  0  0  0  0  0
   -5.4068   25.1994  -29.1098 H   0  0  0  0  0  0  0  0  0  0  0  0
   -5.4097   26.6120  -30.2383 H   0  0  0  0  0  0  0  0  0  0  0  0
   -7.1899   24.8564  -30.7067 H   0  0  0  0  0  0  0  0  0  0  0  0
   -6.0909   25.2390  -32.0880 H   0  0  0  0  0  0  0  0  0  0  0  0
   -6.7572   18.8875  -34.6185 H   0  0  0  0  0  0  0  0  0  0  0  0
   -5.8023   16.6272  -35.0279 H   0  0  0  0  0  0  0  0  0  0  0  0
   -5.0771   13.5595  -34.8028 H   0  0  0  0  0  0  0  0  0  0  0  0
   -4.7586   15.2884  -35.2090 H   0  0  0  0  0  0  0  0  0  0  0  0
   -2.8131   13.4945  -35.3527 H   0  0  0  0  0  0  0  0  0  0  0  0
   -2.5212   15.1612  -34.6631 H   0  0  0  0  0  0  0  0  0  0  0  0
  1  2  1  0
  2  3  1  0
  3  4  1  0
  4  5  1  0
  5  6  1  0
  6  7  2  0
  7  8  1  0
  8  9  2  0
  9 10  1  0
 10 11  2  0
 11 12  1  0
 12 13  2  0
 13 14  1  0
 14 15  1  0
 15 16  1  0
 16 17  1  0
 17 18  1  0
 18 19  1  0
 19 20  1  0
 14 21  2  0
  9 22  1  0
 22 23  2  0
  5 24  1  0
 24 25  1  0
 25  2  1  0
 23  6  1  0
 21 10  1  0
 20 15  1  0
  1 26  1  0
  1 27  1  0
  1 28  1  0
  2 29  1  0
  3 30  1  0
  3 31  1  0
  4 32  1  0
  4 33  1  0
  7 34  1  0
  8 35  1  0
 11 36  1  0
 13 37  1  0
 16 38  1  0
 16 39  1  0
 17 40  1  0
 17 41  1  0
 19 42  1  0
 19 43  1  0
 20 44  1  0
 20 45  1  0
 22 46  1  0
 23 47  1  0
 24 48  1  0
 24 49  1  0
 25 50  1  0
 25 51  1  0
M  CHG  1   1   1
M  END
>  <UniqueID>  (32) 
30

>  <SMILES>  (32) 
[NH3+]C1CCN(c2ccc(-c3cncc(N4CCOCC4)n3)cc2)CC1

>  <Energy>  (32) 
69.08454536959792

>  <Genealogy>  (32) 
[NH3+]C1CCN(c2ccc(-c3cncc(N4CCOCC4)n3)cc2)CC1 (protonated)
[NH3+]C1CCN(c2ccc(-c3cncc(N4CCOCC4)n3)cc2)CC1 (3D coordinates assigned)
[NH3+]C1CCN(c2ccc(-c3cncc(N4CCOCC4)n3)cc2)CC1 (nonaromatic ring conformer: 69.08454536959792 kcal/mol)

>  <smiles>  (32) 
NC1CCN(c2ccc(-c3cncc(N4CCOCC4)n3)cc2)CC1

>  <score_type>  (32) 
oracle

>  <origin>  (32) 
adgpu

>  <m_score__min__energy>  (32) 
-8.0399999999999991

>  <m_primary>  (32) 
energy

$$$$
32:0
     RDKit          3D

 66 71  0  0  0  0  0  0  0  0999 V2000
   -1.6180   18.5290  -27.1230 C   0  0  0  0  0  0  0  0  0  0  0  0
   -1.5170   20.0080  -27.3940 C   0  0  0  0  0  0  0  0  0  0  0  0
   -2.6330   20.8240  -27.1330 C   0  0  0  0  0  0  0  0  0  0  0  0
   -2.5890   22.1930  -27.3940 C   0  0  0  0  0  0  0  0  0  0  0  0
   -1.4340   22.7720  -27.9280 C   0  0  0  0  0  0  0  0  0  0  0  0
   -1.4110   24.4910  -28.3210 S   0  0  0  0  0  0  0  0  0  0  0  0
   -1.9330   25.2820  -27.1550 O   0  0  0  0  0  0  0  0  0  0  0  0
    0.0050   24.9170  -28.5920 O   0  0  0  0  0  0  0  0  0  0  0  0
   -2.3790   24.8250  -29.7200 N   0  0  0  0  0  0  0  0  0  0  0  0
   -3.1720   23.8160  -30.3540 C   0  0  0  0  0  0  0  0  0  0  0  0
   -2.5570   22.6740  -30.8780 C   0  0  0  0  0  0  0  0  0  0  0  0
   -3.3190   21.6550  -31.4480 C   0  0  0  0  0  0  0  0  0  0  0  0
   -4.7140   21.7690  -31.5270 C   0  0  0  0  0  0  0  0  0  0  0  0
   -5.4860   20.6960  -32.0900 N   0  0  0  0  0  0  0  0  0  0  0  0
   -6.9500   20.6410  -32.0690 C   0  0  0  0  0  0  0  0  0  0  0  0
   -7.3530   19.5560  -33.0990 C   0  0  0  0  0  0  0  0  0  0  0  0
   -6.0460   19.0780  -33.6280 C   0  0  0  0  0  0  0  0  0  0  0  0
   -5.8120   18.0850  -34.5790 C   0  0  0  0  0  0  0  0  0  0  0  0
   -4.4830   17.7820  -34.9190 C   0  0  0  0  0  0  0  0  0  0  0  0
   -3.4190   18.4670  -34.3010 C   0  0  0  0  0  0  0  0  0  0  0  0
   -3.6810   19.4610  -33.3460 C   0  0  0  0  0  0  0  0  0  0  0  0
   -5.0140   19.7520  -33.0370 C   0  0  0  0  0  0  0  0  0  0  0  0
   -5.3420   22.9340  -31.0540 C   0  0  0  0  0  0  0  0  0  0  0  0
   -6.6950   23.0660  -31.1330 N   0  0  0  0  0  0  0  0  0  0  0  0
   -7.3410   24.1690  -30.6750 C   0  0  0  0  0  0  0  0  0  0  0  0
   -6.6200   25.2110  -30.0910 C   0  0  0  0  0  0  0  0  0  0  0  0
   -5.2330   25.1090  -29.9830 C   0  0  0  0  0  0  0  0  0  0  0  0
   -4.5700   23.9670  -30.4660 C   0  0  0  0  0  0  0  0  0  0  0  0
   -0.3210   21.9700  -28.2040 C   0  0  0  0  0  0  0  0  0  0  0  0
   -0.3490   20.5890  -27.9450 C   0  0  0  0  0  0  0  0  0  0  0  0
    1.0950   19.6240  -28.2980 S   0  0  0  0  0  0  0  0  0  0  0  0
    1.0980   18.3680  -27.4680 O   0  0  0  0  0  0  0  0  0  0  0  0
    2.3200   20.4260  -27.9500 O   0  0  0  0  0  0  0  0  0  0  0  0
    1.1190   19.2000  -29.9930 N   0  0  0  0  0  0  0  0  0  0  0  0
    0.7030   17.7950  -30.1660 C   0  0  0  0  0  0  0  0  0  0  0  0
    0.2490   17.5410  -31.6130 C   0  0  0  0  0  0  0  0  0  0  0  0
   -0.8470   18.3470  -32.0310 O   0  0  0  0  0  0  0  0  0  0  0  0
   -1.0200   19.5280  -31.2610 C   0  0  0  0  0  0  0  0  0  0  0  0
    0.3100   20.1470  -30.7950 C   0  0  0  0  0  0  0  0  0  0  0  0
   -1.6299   18.3552  -26.0369 H   0  0  0  0  0  0  0  0  0  0  0  0
   -2.5450   18.1373  -27.5672 H   0  0  0  0  0  0  0  0  0  0  0  0
   -0.7529   18.0149  -27.5672 H   0  0  0  0  0  0  0  0  0  0  0  0
   -3.5492   20.3776  -26.7190 H   0  0  0  0  0  0  0  0  0  0  0  0
   -3.4668   22.8201  -27.1788 H   0  0  0  0  0  0  0  0  0  0  0  0
   -1.4618   22.5791  -30.8400 H   0  0  0  0  0  0  0  0  0  0  0  0
   -2.8219   20.7549  -31.8386 H   0  0  0  0  0  0  0  0  0  0  0  0
   -7.3075   20.3666  -31.0656 H   0  0  0  0  0  0  0  0  0  0  0  0
   -7.3928   21.6166  -32.3183 H   0  0  0  0  0  0  0  0  0  0  0  0
   -7.9037   18.7373  -32.6128 H   0  0  0  0  0  0  0  0  0  0  0  0
   -8.0202   19.9382  -33.8857 H   0  0  0  0  0  0  0  0  0  0  0  0
   -6.6492   17.5511  -35.0522 H   0  0  0  0  0  0  0  0  0  0  0  0
   -4.2727   17.0069  -35.6707 H   0  0  0  0  0  0  0  0  0  0  0  0
   -2.3802   18.2222  -34.5676 H   0  0  0  0  0  0  0  0  0  0  0  0
   -2.8581   19.9985  -32.8522 H   0  0  0  0  0  0  0  0  0  0  0  0
   -8.4350   24.2412  -30.7646 H   0  0  0  0  0  0  0  0  0  0  0  0
   -7.1410   26.1055  -29.7188 H   0  0  0  0  0  0  0  0  0  0  0  0
   -4.6570   25.9233  -29.5192 H   0  0  0  0  0  0  0  0  0  0  0  0
    0.5859   22.4255  -28.6284 H   0  0  0  0  0  0  0  0  0  0  0  0
    1.5513   17.1350  -29.9318 H   0  0  0  0  0  0  0  0  0  0  0  0
   -0.1380   17.5874  -29.4881 H   0  0  0  0  0  0  0  0  0  0  0  0
    1.0993   17.7415  -32.2815 H   0  0  0  0  0  0  0  0  0  0  0  0
   -0.0919   16.4961  -31.6583 H   0  0  0  0  0  0  0  0  0  0  0  0
   -1.5554   20.2691  -31.8727 H   0  0  0  0  0  0  0  0  0  0  0  0
   -1.5858   19.2509  -30.3593 H   0  0  0  0  0  0  0  0  0  0  0  0
    0.8902   20.4468  -31.6801 H   0  0  0  0  0  0  0  0  0  0  0  0
    0.0742   21.0123  -30.1580 H   0  0  0  0  0  0  0  0  0  0  0  0
  1  2  1  0
  2  3  2  0
  3  4  1  0
  4  5  2  0
  5  6  1  0
  6  7  2  0
  6  8  2  0
  6  9  1  0
  9 10  1  0
 10 11  2  0
 11 12  1  0
 12 13  2  0
 13 14  1  0
 14 15  1  0
 15 16  1  0
 16 17  1  0
 17 18  2  0
 18 19  1  0
 19 20  2  0
 20 21  1  0
 21 22  2  0
 13 23  1  0
 23 24  2  0
 24 25  1  0
 25 26  2  0
 26 27  1  0
 27 28  2  0
  5 29  1  0
 29 30  2  0
 30 31  1  0
 31 32  2  0
 31 33  2  0
 31 34  1  0
 34 35  1  0
 35 36  1  0
 36 37  1  0
 37 38  1  0
 38 39  1  0
 30  2  1  0
 39 34  1  0
 28 10  1  0
 22 14  1  0
 28 23  1  0
 22 17  1  0
  1 40  1  0
  1 41  1  0
  1 42  1  0
  3 43  1  0
  4 44  1  0
 11 45  1  0
 12 46  1  0
 15 47  1  0
 15 48  1  0
 16 49  1  0
 16 50  1  0
 18 51  1  0
 19 52  1  0
 20 53  1  0
 21 54  1  0
 25 55  1  0
 26 56  1  0
 27 57  1  0
 29 58  1  0
 35 59  1  0
 35 60  1  0
 36 61  1  0
 36 62  1  0
 38 63  1  0
 38 64  1  0
 39 65  1  0
 39 66  1  0
M  CHG  1   9  -1
M  END
>  <UniqueID>  (33) 
31

>  <SMILES>  (33) 
Cc1ccc(S(=O)(=O)[N-]c2ccc(N3CCc4ccccc43)c3ncccc23)cc1S(=O)(=O)N1CCOCC1

>  <Energy>  (33) 
118.53459135978892

>  <Genealogy>  (33) 
Cc1ccc(S(=O)(=O)[N-]c2ccc(N3CCc4ccccc43)c3ncccc23)cc1S(=O)(=O)N1CCOCC1 (protonated)
Cc1ccc(S(=O)(=O)[N-]c2ccc(N3CCc4ccccc43)c3ncccc23)cc1S(=O)(=O)N1CCOCC1 (3D coordinates assigned)
Cc1ccc(S(=O)(=O)[N-]c2ccc(N3CCc4ccccc43)c3ncccc23)cc1S(=O)(=O)N1CCOCC1 (nonaromatic ring conformer: 118.53459135978892 kcal/mol)

>  <smiles>  (33) 
Cc1ccc(S(=O)(=O)Nc2ccc(N3CCc4ccccc43)c3ncccc23)cc1S(=O)(=O)N1CCOCC1

>  <score_type>  (33) 
oracle

>  <origin>  (33) 
adgpu

>  <m_score__min__energy>  (33) 
-12.43

>  <m_primary>  (33) 
energy

$$$$
33:0
     RDKit          3D

 56 59  0  0  0  0  0  0  0  0999 V2000
   -9.5430   20.7240  -32.0780 C   0  0  0  0  0  0  0  0  0  0  0  0
   -8.2470   21.4840  -31.9500 C   0  0  0  0  0  0  0  0  0  0  0  0
   -8.3070   22.8800  -31.8200 C   0  0  0  0  0  0  0  0  0  0  0  0
   -7.1430   23.6330  -31.7010 C   0  0  0  0  0  0  0  0  0  0  0  0
   -5.8940   23.0140  -31.7170 C   0  0  0  0  0  0  0  0  0  0  0  0
   -4.7280   23.8420  -31.6240 N   0  0  0  0  0  0  0  0  0  0  0  0
   -4.6430   25.0290  -30.8270 C   0  0  0  0  0  0  0  0  0  0  0  0
   -5.5770   25.8740  -30.8490 O   0  0  0  0  0  0  0  0  0  0  0  0
   -3.4870   25.2890  -30.0250 N   0  0  0  0  0  0  0  0  0  0  0  0
   -2.8490   24.3630  -29.1340 C   0  0  0  0  0  0  0  0  0  0  0  0
   -3.4740   23.1710  -28.7290 C   0  0  0  0  0  0  0  0  0  0  0  0
   -2.8280   22.3050  -27.8440 C   0  0  0  0  0  0  0  0  0  0  0  0
   -1.5660   22.6280  -27.3400 C   0  0  0  0  0  0  0  0  0  0  0  0
   -0.9470   23.8320  -27.7080 C   0  0  0  0  0  0  0  0  0  0  0  0
    0.6330   24.2580  -27.0450 S   0  0  0  0  0  0  0  0  0  0  0  0
    1.2020   23.0720  -26.3190 O   0  0  0  0  0  0  0  0  0  0  0  0
    1.5660   24.6050  -28.1720 O   0  0  0  0  0  0  0  0  0  0  0  0
    0.5270   25.6120  -25.9430 N   0  0  0  0  0  0  0  0  0  0  0  0
    0.3280   26.8700  -26.6860 C   0  0  0  0  0  0  0  0  0  0  0  0
   -0.2640   27.9540  -25.7700 C   0  0  0  0  0  0  0  0  0  0  0  0
   -1.5270   27.6140  -25.2120 O   0  0  0  0  0  0  0  0  0  0  0  0
   -1.7710   26.2150  -25.1500 C   0  0  0  0  0  0  0  0  0  0  0  0
   -0.4970   25.3870  -24.8980 C   0  0  0  0  0  0  0  0  0  0  0  0
   -1.5950   24.6950  -28.6040 C   0  0  0  0  0  0  0  0  0  0  0  0
   -5.8090   21.6080  -31.8010 C   0  0  0  0  0  0  0  0  0  0  0  0
   -4.5770   20.9620  -31.6700 O   0  0  0  0  0  0  0  0  0  0  0  0
   -6.9830   20.8370  -31.9730 C   0  0  0  0  0  0  0  0  0  0  0  0
   -6.8620   19.0650  -32.1450 S   0  0  0  0  0  0  0  0  0  0  0  0
   -8.1430   18.4090  -31.7090 O   0  0  0  0  0  0  0  0  0  0  0  0
   -5.7730   18.5520  -31.2460 O   0  0  0  0  0  0  0  0  0  0  0  0
   -6.5020   18.5490  -33.8270 C   0  0  0  0  0  0  0  0  0  0  0  0
   -5.0230   18.5860  -34.1740 C   0  0  0  0  0  0  0  0  0  0  0  0
   -5.7270   17.2510  -34.0030 C   0  0  0  0  0  0  0  0  0  0  0  0
   -9.9341   20.4947  -31.0758 H   0  0  0  0  0  0  0  0  0  0  0  0
  -10.2745   21.3362  -32.6258 H   0  0  0  0  0  0  0  0  0  0  0  0
   -9.3659   19.7867  -32.6258 H   0  0  0  0  0  0  0  0  0  0  0  0
   -9.2846   23.3843  -31.8121 H   0  0  0  0  0  0  0  0  0  0  0  0
   -7.2089   24.7257  -31.5934 H   0  0  0  0  0  0  0  0  0  0  0  0
   -4.4747   22.9195  -29.1101 H   0  0  0  0  0  0  0  0  0  0  0  0
   -3.3146   21.3656  -27.5429 H   0  0  0  0  0  0  0  0  0  0  0  0
   -1.0562   21.9366  -26.6529 H   0  0  0  0  0  0  0  0  0  0  0  0
    1.2965   27.2162  -27.0760 H   0  0  0  0  0  0  0  0  0  0  0  0
   -0.3724   26.6850  -27.5137 H   0  0  0  0  0  0  0  0  0  0  0  0
    0.4415   28.1329  -24.9452 H   0  0  0  0  0  0  0  0  0  0  0  0
   -0.4218   28.8461  -26.3939 H   0  0  0  0  0  0  0  0  0  0  0  0
   -2.4818   26.0200  -24.3334 H   0  0  0  0  0  0  0  0  0  0  0  0
   -2.1710   25.9095  -26.1281 H   0  0  0  0  0  0  0  0  0  0  0  0
   -0.0765   25.6707  -23.9219 H   0  0  0  0  0  0  0  0  0  0  0  0
   -0.7743   24.3227  -24.9179 H   0  0  0  0  0  0  0  0  0  0  0  0
   -1.1143   25.6412  -28.8933 H   0  0  0  0  0  0  0  0  0  0  0  0
   -4.4670   20.0710  -31.2080 H   0  0  0  0  0  0  0  0  0  0  0  0
   -7.4344   18.9426  -34.2580 H   0  0  0  0  0  0  0  0  0  0  0  0
   -4.7009   18.9135  -35.1735 H   0  0  0  0  0  0  0  0  0  0  0  0
   -4.1327   19.0573  -33.7322 H   0  0  0  0  0  0  0  0  0  0  0  0
   -5.9153   16.6123  -34.8785 H   0  0  0  0  0  0  0  0  0  0  0  0
   -5.5583   16.3558  -33.3864 H   0  0  0  0  0  0  0  0  0  0  0  0
  1  2  1  0
  2  3  2  0
  3  4  1  0
  4  5  2  0
  5  6  1  0
  6  7  1  0
  7  8  2  0
  7  9  1  0
  9 10  1  0
 10 11  2  0
 11 12  1  0
 12 13  2  0
 13 14  1  0
 14 15  1  0
 15 16  2  0
 15 17  2  0
 15 18  1  0
 18 19  1  0
 19 20  1  0
 20 21  1  0
 21 22  1  0
 22 23  1  0
 14 24  2  0
  5 25  1  0
 25 26  1  0
 25 27  2  0
 27 28  1  0
 28 29  2  0
 28 30  2  0
 28 31  1  0
 31 32  1  0
 32 33  1  0
 27  2  1  0
 33 31  1  0
 24 10  1  0
 23 18  1  0
  1 34  1  0
  1 35  1  0
  1 36  1  0
  3 37  1  0
  4 38  1  0
 11 39  1  0
 12 40  1  0
 13 41  1  0
 19 42  1  0
 19 43  1  0
 20 44  1  0
 20 45  1  0
 22 46  1  0
 22 47  1  0
 23 48  1  0
 23 49  1  0
 24 50  1  0
 26 51  1  0
 31 52  1  0
 32 53  1  0
 32 54  1  0
 33 55  1  0
 33 56  1  0
M  CHG  2   6  -1   9  -1
M  END
>  <UniqueID>  (34) 
32

>  <SMILES>  (34) 
Cc1ccc([N-]C(=O)[N-]c2cccc(S(=O)(=O)N3CCOCC3)c2)c(O)c1S(=O)(=O)C1CC1

>  <Energy>  (34) 
346.71855454507806

>  <Genealogy>  (34) 
Cc1ccc([N-]C(=O)[N-]c2cccc(S(=O)(=O)N3CCOCC3)c2)c(O)c1S(=O)(=O)C1CC1 (protonated)
Cc1ccc([N-]C(=O)[N-]c2cccc(S(=O)(=O)N3CCOCC3)c2)c(O)c1S(=O)(=O)C1CC1 (3D coordinates assigned)
Cc1ccc([N-]C(=O)[N-]c2cccc(S(=O)(=O)N3CCOCC3)c2)c(O)c1S(=O)(=O)C1CC1 (nonaromatic ring conformer: 346.71855454507806 kcal/mol)

>  <smiles>  (34) 
Cc1ccc(NC(=O)Nc2cccc(S(=O)(=O)N3CCOCC3)c2)c(O)c1S(=O)(=O)C1CC1

>  <score_type>  (34) 
oracle

>  <origin>  (34) 
adgpu

>  <m_score__min__energy>  (34) 
-13.85

>  <m_primary>  (34) 
energy

$$$$
34:0
     RDKit          3D

 47 50  0  0  0  0  0  0  0  0999 V2000
   -5.4900   24.9820  -31.2760 O   0  0  0  0  0  0  0  0  0  0  0  0
   -4.5690   24.0530  -30.5320 S   0  0  0  0  0  0  0  0  0  0  0  0
   -5.2760   23.4770  -29.3370 O   0  0  0  0  0  0  0  0  0  0  0  0
   -3.1630   24.9200  -29.9980 N   0  0  0  0  0  0  0  0  0  0  0  0
   -2.3840   24.5060  -29.0470 C   0  0  0  0  0  0  0  0  0  0  0  0
   -2.5700   23.3550  -28.3610 N   0  0  0  0  0  0  0  0  0  0  0  0
   -1.6070   23.1820  -27.4130 C   0  0  0  0  0  0  0  0  0  0  0  0
   -0.6590   24.1970  -27.3450 C   0  0  0  0  0  0  0  0  0  0  0  0
   -1.0350   25.3490  -28.5160 S   0  0  0  0  0  0  0  0  0  0  0  0
   -4.0760   22.7460  -31.6020 C   0  0  0  0  0  0  0  0  0  0  0  0
   -2.8180   22.1470  -31.4550 C   0  0  0  0  0  0  0  0  0  0  0  0
   -2.4380   21.0920  -32.2890 C   0  0  0  0  0  0  0  0  0  0  0  0
   -3.3220   20.6110  -33.2710 C   0  0  0  0  0  0  0  0  0  0  0  0
   -2.9810   19.5400  -34.1130 O   0  0  0  0  0  0  0  0  0  0  0  0
   -3.0200   18.1850  -33.7480 C   0  0  0  0  0  0  0  0  0  0  0  0
   -1.8570   17.3900  -33.7590 C   0  0  0  0  0  0  0  0  0  0  0  0
   -1.9180   16.0420  -33.3980 C   0  0  0  0  0  0  0  0  0  0  0  0
   -3.1320   15.4810  -33.0010 C   0  0  0  0  0  0  0  0  0  0  0  0
   -4.2880   16.2650  -32.9630 C   0  0  0  0  0  0  0  0  0  0  0  0
   -4.2400   17.6180  -33.3400 C   0  0  0  0  0  0  0  0  0  0  0  0
   -5.4130   18.4410  -33.2910 N   0  0  0  0  0  0  0  0  0  0  0  0
   -6.7360   18.1730  -32.2000 S   0  0  0  0  0  0  0  0  0  0  0  0
   -7.6080   17.0790  -32.7530 O   0  0  0  0  0  0  0  0  0  0  0  0
   -6.1900   17.7140  -30.8740 O   0  0  0  0  0  0  0  0  0  0  0  0
   -7.7180   19.6210  -31.9850 C   0  0  0  0  0  0  0  0  0  0  0  0
   -7.2000   20.7300  -31.2990 C   0  0  0  0  0  0  0  0  0  0  0  0
   -7.9830   21.8760  -31.1210 C   0  0  0  0  0  0  0  0  0  0  0  0
   -9.2890   21.9170  -31.6240 C   0  0  0  0  0  0  0  0  0  0  0  0
   -9.8110   20.8140  -32.3070 C   0  0  0  0  0  0  0  0  0  0  0  0
   -9.0290   19.6690  -32.4900 C   0  0  0  0  0  0  0  0  0  0  0  0
   -4.5610   21.2400  -33.4430 C   0  0  0  0  0  0  0  0  0  0  0  0
   -4.9400   22.2980  -32.6100 C   0  0  0  0  0  0  0  0  0  0  0  0
   -1.5813   22.3043  -26.7504 H   0  0  0  0  0  0  0  0  0  0  0  0
    0.1901   24.2405  -26.6471 H   0  0  0  0  0  0  0  0  0  0  0  0
   -2.1265   22.5087  -30.6798 H   0  0  0  0  0  0  0  0  0  0  0  0
   -1.4433   20.6360  -32.1768 H   0  0  0  0  0  0  0  0  0  0  0  0
   -0.8946   17.8337  -34.0538 H   0  0  0  0  0  0  0  0  0  0  0  0
   -1.0091   15.4230  -33.4267 H   0  0  0  0  0  0  0  0  0  0  0  0
   -3.1793   14.4193  -32.7173 H   0  0  0  0  0  0  0  0  0  0  0  0
   -5.2400   15.8211  -32.6365 H   0  0  0  0  0  0  0  0  0  0  0  0
   -6.1754   20.6984  -30.9000 H   0  0  0  0  0  0  0  0  0  0  0  0
   -7.5724   22.7449  -30.5858 H   0  0  0  0  0  0  0  0  0  0  0  0
   -9.9048   22.8173  -31.4819 H   0  0  0  0  0  0  0  0  0  0  0  0
  -10.8376   20.8470  -32.7007 H   0  0  0  0  0  0  0  0  0  0  0  0
   -9.4408   18.8039  -33.0304 H   0  0  0  0  0  0  0  0  0  0  0  0
   -5.2407   20.9001  -34.2382 H   0  0  0  0  0  0  0  0  0  0  0  0
   -5.9194   22.7798  -32.7468 H   0  0  0  0  0  0  0  0  0  0  0  0
  1  2  2  0
  2  3  2  0
  2  4  1  0
  4  5  2  3
  5  6  1  0
  6  7  1  0
  7  8  2  0
  8  9  1  0
  2 10  1  0
 10 11  2  0
 11 12  1  0
 12 13  2  0
 13 14  1  0
 14 15  1  0
 15 16  2  0
 16 17  1  0
 17 18  2  0
 18 19  1  0
 19 20  2  0
 20 21  1  0
 21 22  1  0
 22 23  2  0
 22 24  2  0
 22 25  1  0
 25 26  2  0
 26 27  1  0
 27 28  2  0
 28 29  1  0
 29 30  2  0
 13 31  1  0
 31 32  2  0
  9  5  1  0
 32 10  1  0
 20 15  1  0
 30 25  1  0
  7 33  1  0
  8 34  1  0
 11 35  1  0
 12 36  1  0
 16 37  1  0
 17 38  1  0
 18 39  1  0
 19 40  1  0
 26 41  1  0
 27 42  1  0
 28 43  1  0
 29 44  1  0
 30 45  1  0
 31 46  1  0
 32 47  1  0
M  CHG  2   6  -1  21  -1
M  END
>  <UniqueID>  (35) 
33

>  <SMILES>  (35) 
O=S(=O)(N=c1[n-]ccs1)c1ccc(Oc2ccccc2[N-]S(=O)(=O)c2ccccc2)cc1

>  <Energy>  (35) 
99.82805805791016

>  <Genealogy>  (35) 
O=S(=O)(N=c1[n-]ccs1)c1ccc(Oc2ccccc2[N-]S(=O)(=O)c2ccccc2)cc1 (protonated)
O=S(=O)(N=c1[n-]ccs1)c1ccc(Oc2ccccc2[N-]S(=O)(=O)c2ccccc2)cc1 (3D coordinates assigned)
O=S(=O)(N=c1[n-]ccs1)c1ccc(Oc2ccccc2[N-]S(=O)(=O)c2ccccc2)cc1 (optimized conformer: 99.82805805791016 kcal/mol)

>  <smiles>  (35) 
O=S(=O)(N=c1[nH]ccs1)c1ccc(Oc2ccccc2NS(=O)(=O)c2ccccc2)cc1

>  <score_type>  (35) 
oracle

>  <origin>  (35) 
adgpu

>  <m_score__min__energy>  (35) 
-11.140000000000001

>  <m_primary>  (35) 
energy

$$$$
35:0
     RDKit          3D

 33 34  0  0  0  0  0  0  0  0999 V2000
   -4.2210   19.2310  -33.2510 C   0  0  0  0  0  0  0  0  0  0  0  0
   -5.6260   19.2910  -33.7750 C   0  0  0  0  0  0  0  0  0  0  0  0
   -5.8610   18.8100  -34.9170 O   0  0  0  0  0  0  0  0  0  0  0  0
   -6.7300   19.9020  -32.9890 C   0  0  0  0  0  0  0  0  0  0  0  0
   -8.0320   19.3760  -33.0730 C   0  0  0  0  0  0  0  0  0  0  0  0
   -9.0720   19.9330  -32.3260 C   0  0  0  0  0  0  0  0  0  0  0  0
   -8.8310   21.0200  -31.4820 C   0  0  0  0  0  0  0  0  0  0  0  0
   -9.8770   21.5590  -30.7420 O   0  0  0  0  0  0  0  0  0  0  0  0
   -7.5440   21.5630  -31.3820 C   0  0  0  0  0  0  0  0  0  0  0  0
   -7.3250   22.6710  -30.4950 N   0  0  0  0  0  0  0  0  0  0  0  0
   -6.1520   23.9260  -30.7400 S   0  0  0  0  0  0  0  0  0  0  0  0
   -5.7090   23.8900  -32.1760 O   0  0  0  0  0  0  0  0  0  0  0  0
   -6.7880   25.2580  -30.4560 O   0  0  0  0  0  0  0  0  0  0  0  0
   -4.7950   23.6910  -29.6300 C   0  0  0  0  0  0  0  0  0  0  0  0
   -4.9050   22.7070  -28.6420 C   0  0  0  0  0  0  0  0  0  0  0  0
   -3.8400   22.4510  -27.7800 C   0  0  0  0  0  0  0  0  0  0  0  0
   -2.6530   23.1740  -27.8950 C   0  0  0  0  0  0  0  0  0  0  0  0
   -2.5150   24.1750  -28.8730 C   0  0  0  0  0  0  0  0  0  0  0  0
   -1.2350   24.9230  -28.9670 C   0  0  0  0  0  0  0  0  0  0  0  0
   -0.1300   24.3200  -29.0070 O   0  0  0  0  0  0  0  0  0  0  0  0
   -1.2370   26.3130  -29.0110 O   0  0  0  0  0  0  0  0  0  0  0  0
   -3.6030   24.4370  -29.7420 C   0  0  0  0  0  0  0  0  0  0  0  0
   -3.5030   25.4340  -30.7070 O   0  0  0  0  0  0  0  0  0  0  0  0
   -6.5000   21.0060  -32.1450 C   0  0  0  0  0  0  0  0  0  0  0  0
   -4.2395   19.2318  -32.1512 H   0  0  0  0  0  0  0  0  0  0  0  0
   -3.7351   18.3113  -33.6089 H   0  0  0  0  0  0  0  0  0  0  0  0
   -3.6585   20.1059  -33.6089 H   0  0  0  0  0  0  0  0  0  0  0  0
   -8.2325   18.5188  -33.7326 H   0  0  0  0  0  0  0  0  0  0  0  0
  -10.0861   19.5138  -32.4024 H   0  0  0  0  0  0  0  0  0  0  0  0
   -5.8375   22.1318  -28.5447 H   0  0  0  0  0  0  0  0  0  0  0  0
   -3.9362   21.6755  -27.0058 H   0  0  0  0  0  0  0  0  0  0  0  0
   -1.8164   22.9591  -27.2139 H   0  0  0  0  0  0  0  0  0  0  0  0
   -5.4908   21.4390  -32.0811 H   0  0  0  0  0  0  0  0  0  0  0  0
  1  2  1  0
  2  3  2  0
  2  4  1  0
  4  5  2  0
  5  6  1  0
  6  7  2  0
  7  8  1  0
  7  9  1  0
  9 10  1  0
 10 11  1  0
 11 12  2  0
 11 13  2  0
 11 14  1  0
 14 15  2  0
 15 16  1  0
 16 17  2  0
 17 18  1  0
 18 19  1  0
 19 20  2  0
 19 21  1  0
 18 22  2  0
 22 23  1  0
  9 24  2  0
 24  4  1  0
 22 14  1  0
  1 25  1  0
  1 26  1  0
  1 27  1  0
  5 28  1  0
  6 29  1  0
 15 30  1  0
 16 31  1  0
 17 32  1  0
 24 33  1  0
M  CHG  4   8  -1  10  -1  21  -1  23  -1
M  END
>  <UniqueID>  (36) 
34

>  <SMILES>  (36) 
CC(=O)c1ccc([O-])c([N-]S(=O)(=O)c2cccc(C(=O)[O-])c2[O-])c1

>  <Energy>  (36) 
40.512331800003786

>  <Genealogy>  (36) 
CC(=O)c1ccc([O-])c([N-]S(=O)(=O)c2cccc(C(=O)[O-])c2[O-])c1 (protonated)
CC(=O)c1ccc([O-])c([N-]S(=O)(=O)c2cccc(C(=O)[O-])c2[O-])c1 (3D coordinates assigned)
CC(=O)c1ccc([O-])c([N-]S(=O)(=O)c2cccc(C(=O)[O-])c2[O-])c1 (optimized conformer: 40.512331800003786 kcal/mol)

>  <smiles>  (36) 
CC(=O)c1ccc(O)c(NS(=O)(=O)c2cccc(C(=O)O)c2O)c1

>  <score_type>  (36) 
oracle

>  <origin>  (36) 
adgpu

>  <m_score__min__energy>  (36) 
-13.67

>  <m_primary>  (36) 
energy

$$$$
36:0
     RDKit          3D

 48 50  0  0  0  0  0  0  0  0999 V2000
   -9.0570   19.9150  -31.9560 C   0  0  0  0  0  0  0  0  0  0  0  0
   -8.0760   21.0490  -31.9410 C   0  0  0  0  0  0  0  0  0  0  0  0
   -6.7400   20.8460  -32.3240 C   0  0  0  0  0  0  0  0  0  0  0  0
   -5.8390   21.9140  -32.3320 C   0  0  0  0  0  0  0  0  0  0  0  0
   -6.2600   23.2030  -31.9540 C   0  0  0  0  0  0  0  0  0  0  0  0
   -5.3730   24.3300  -31.9690 N   0  0  0  0  0  0  0  0  0  0  0  0
   -5.0660   25.1880  -30.8650 C   0  0  0  0  0  0  0  0  0  0  0  0
   -5.9730   25.8550  -30.2980 O   0  0  0  0  0  0  0  0  0  0  0  0
   -3.7100   25.2740  -30.4130 N   0  0  0  0  0  0  0  0  0  0  0  0
   -3.0740   24.4210  -29.4490 C   0  0  0  0  0  0  0  0  0  0  0  0
   -3.6830   23.2460  -28.9970 C   0  0  0  0  0  0  0  0  0  0  0  0
   -3.0600   22.4570  -28.0330 C   0  0  0  0  0  0  0  0  0  0  0  0
   -1.8100   22.8150  -27.5030 C   0  0  0  0  0  0  0  0  0  0  0  0
   -1.2360   21.9400  -26.4190 C   0  0  0  0  0  0  0  0  0  0  0  0
   -1.1780   24.0090  -27.9500 C   0  0  0  0  0  0  0  0  0  0  0  0
    0.4000   24.5620  -27.3100 S   0  0  0  0  0  0  0  0  0  0  0  0
    1.4420   24.5460  -28.3930 O   0  0  0  0  0  0  0  0  0  0  0  0
    0.8590   23.5820  -26.2660 O   0  0  0  0  0  0  0  0  0  0  0  0
    0.3640   26.1590  -26.5810 N   0  0  0  0  0  0  0  0  0  0  0  0
   -0.9660   26.7910  -26.5760 C   0  0  0  0  0  0  0  0  0  0  0  0
   -1.7700   26.4300  -25.3200 C   0  0  0  0  0  0  0  0  0  0  0  0
   -1.0410   26.7590  -24.1580 O   0  0  0  0  0  0  0  0  0  0  0  0
    0.1180   25.9560  -24.0950 C   0  0  0  0  0  0  0  0  0  0  0  0
    1.0540   26.2430  -25.2800 C   0  0  0  0  0  0  0  0  0  0  0  0
   -1.8430   24.8140  -28.9050 C   0  0  0  0  0  0  0  0  0  0  0  0
   -1.2820   26.0110  -29.3350 O   0  0  0  0  0  0  0  0  0  0  0  0
   -7.6030   23.4080  -31.6120 C   0  0  0  0  0  0  0  0  0  0  0  0
   -8.5050   22.3410  -31.6010 C   0  0  0  0  0  0  0  0  0  0  0  0
   -9.3037   19.6299  -30.9226 H   0  0  0  0  0  0  0  0  0  0  0  0
   -9.9727   20.2292  -32.4782 H   0  0  0  0  0  0  0  0  0  0  0  0
   -8.6142   19.0540  -32.4782 H   0  0  0  0  0  0  0  0  0  0  0  0
   -6.4015   19.8418  -32.6190 H   0  0  0  0  0  0  0  0  0  0  0  0
   -4.7950   21.7466  -32.6353 H   0  0  0  0  0  0  0  0  0  0  0  0
   -4.6588   22.9434  -29.4048 H   0  0  0  0  0  0  0  0  0  0  0  0
   -3.5547   21.5395  -27.6816 H   0  0  0  0  0  0  0  0  0  0  0  0
   -1.5056   22.3509  -25.4349 H   0  0  0  0  0  0  0  0  0  0  0  0
   -1.6427   20.9225  -26.5154 H   0  0  0  0  0  0  0  0  0  0  0  0
   -0.1407   21.9078  -26.5154 H   0  0  0  0  0  0  0  0  0  0  0  0
   -0.8403   27.8831  -26.6153 H   0  0  0  0  0  0  0  0  0  0  0  0
   -1.5204   26.4222  -27.4516 H   0  0  0  0  0  0  0  0  0  0  0  0
   -2.7178   26.9883  -25.3235 H   0  0  0  0  0  0  0  0  0  0  0  0
   -1.9686   25.3481  -25.3222 H   0  0  0  0  0  0  0  0  0  0  0  0
    0.6512   26.1675  -23.1564 H   0  0  0  0  0  0  0  0  0  0  0  0
   -0.1857   24.8996  -24.1370 H   0  0  0  0  0  0  0  0  0  0  0  0
    1.4674   27.2559  -25.1652 H   0  0  0  0  0  0  0  0  0  0  0  0
    1.8451   25.4787  -25.2724 H   0  0  0  0  0  0  0  0  0  0  0  0
   -7.9505   24.4182  -31.3497 H   0  0  0  0  0  0  0  0  0  0  0  0
   -9.5555   22.5145  -31.3247 H   0  0  0  0  0  0  0  0  0  0  0  0
  1  2  1  0
  2  3  2  0
  3  4  1  0
  4  5  2  0
  5  6  1  0
  6  7  1  0
  7  8  2  0
  7  9  1  0
  9 10  1  0
 10 11  2  0
 11 12  1  0
 12 13  2  0
 13 14  1  0
 13 15  1  0
 15 16  1  0
 16 17  2  0
 16 18  2  0
 16 19  1  0
 19 20  1  0
 20 21  1  0
 21 22  1  0
 22 23  1  0
 23 24  1  0
 15 25  2  0
 25 26  1  0
  5 27  1  0
 27 28  2  0
 28  2  1  0
 25 10  1  0
 24 19  1  0
  1 29  1  0
  1 30  1  0
  1 31  1  0
  3 32  1  0
  4 33  1  0
 11 34  1  0
 12 35  1  0
 14 36  1  0
 14 37  1  0
 14 38  1  0
 20 39  1  0
 20 40  1  0
 21 41  1  0
 21 42  1  0
 23 43  1  0
 23 44  1  0
 24 45  1  0
 24 46  1  0
 27 47  1  0
 28 48  1  0
M  CHG  3   6  -1   9  -1  26  -1
M  END
>  <UniqueID>  (37) 
35

>  <SMILES>  (37) 
Cc1ccc([N-]C(=O)[N-]c2ccc(C)c(S(=O)(=O)N3CCOCC3)c2[O-])cc1

>  <Energy>  (37) 
66.63937592956012

>  <Genealogy>  (37) 
Cc1ccc([N-]C(=O)[N-]c2ccc(C)c(S(=O)(=O)N3CCOCC3)c2[O-])cc1 (protonated)
Cc1ccc([N-]C(=O)[N-]c2ccc(C)c(S(=O)(=O)N3CCOCC3)c2[O-])cc1 (3D coordinates assigned)
Cc1ccc([N-]C(=O)[N-]c2ccc(C)c(S(=O)(=O)N3CCOCC3)c2[O-])cc1 (nonaromatic ring conformer: 66.63937592956012 kcal/mol)

>  <smiles>  (37) 
Cc1ccc(NC(=O)Nc2ccc(C)c(S(=O)(=O)N3CCOCC3)c2O)cc1

>  <score_type>  (37) 
oracle

>  <origin>  (37) 
adgpu

>  <m_score__min__energy>  (37) 
-15.17

>  <m_primary>  (37) 
energy

$$$$
37:0
     RDKit          3D

 51 54  0  0  0  0  0  0  0  0999 V2000
   -1.2010   20.4360  -34.4100 C   0  0  0  0  0  0  0  0  0  0  0  0
   -2.5610   20.7900  -34.0220 N   0  0  0  0  0  0  0  0  0  0  0  0
   -3.4250   19.8500  -33.3670 C   0  0  0  0  0  0  0  0  0  0  0  0
   -3.0080   18.6860  -33.1140 O   0  0  0  0  0  0  0  0  0  0  0  0
   -4.7980   20.2230  -32.9840 C   0  0  0  0  0  0  0  0  0  0  0  0
   -5.9370   19.4460  -33.2100 C   0  0  0  0  0  0  0  0  0  0  0  0
   -7.0980   20.0600  -32.7370 C   0  0  0  0  0  0  0  0  0  0  0  0
   -8.3470   19.5360  -32.8230 N   0  0  0  0  0  0  0  0  0  0  0  0
   -9.4160   20.2280  -32.3290 C   0  0  0  0  0  0  0  0  0  0  0  0
   -9.2340   21.4880  -31.7250 C   0  0  0  0  0  0  0  0  0  0  0  0
   -7.9390   22.0340  -31.6160 C   0  0  0  0  0  0  0  0  0  0  0  0
   -7.6900   23.2900  -31.0440 O   0  0  0  0  0  0  0  0  0  0  0  0
   -6.4480   23.7330  -30.5690 C   0  0  0  0  0  0  0  0  0  0  0  0
   -5.7950   24.7650  -31.2510 C   0  0  0  0  0  0  0  0  0  0  0  0
   -4.5480   25.2230  -30.8160 C   0  0  0  0  0  0  0  0  0  0  0  0
   -3.9210   24.6360  -29.7110 C   0  0  0  0  0  0  0  0  0  0  0  0
   -2.6510   25.1520  -29.2880 N   0  0  0  0  0  0  0  0  0  0  0  0
   -1.4870   24.3910  -28.9380 C   0  0  0  0  0  0  0  0  0  0  0  0
   -0.3450   24.9250  -28.9820 O   0  0  0  0  0  0  0  0  0  0  0  0
   -1.6110   22.9730  -28.5160 C   0  0  0  0  0  0  0  0  0  0  0  0
   -1.5450   22.6810  -27.1420 C   0  0  0  0  0  0  0  0  0  0  0  0
   -1.6180   21.3670  -26.6830 C   0  0  0  0  0  0  0  0  0  0  0  0
   -1.7470   20.3090  -27.5890 C   0  0  0  0  0  0  0  0  0  0  0  0
   -1.8540   18.8970  -27.0920 C   0  0  0  0  0  0  0  0  0  0  0  0
   -1.8500   20.5840  -28.9580 C   0  0  0  0  0  0  0  0  0  0  0  0
   -1.7950   21.9050  -29.4370 C   0  0  0  0  0  0  0  0  0  0  0  0
   -1.9500   22.1370  -30.9180 C   0  0  0  0  0  0  0  0  0  0  0  0
   -4.5750   23.6000  -29.0220 C   0  0  0  0  0  0  0  0  0  0  0  0
   -5.8230   23.1430  -29.4560 C   0  0  0  0  0  0  0  0  0  0  0  0
   -6.8860   21.2940  -32.1480 C   0  0  0  0  0  0  0  0  0  0  0  0
   -5.2490   21.6590  -32.1990 S   0  0  0  0  0  0  0  0  0  0  0  0
   -0.5918   20.2774  -33.5079 H   0  0  0  0  0  0  0  0  0  0  0  0
   -1.2187   19.5125  -35.0074 H   0  0  0  0  0  0  0  0  0  0  0  0
   -0.7663   21.2509  -35.0074 H   0  0  0  0  0  0  0  0  0  0  0  0
   -2.8990   21.7550  -34.2310 H   0  0  0  0  0  0  0  0  0  0  0  0
   -5.9207   18.4633  -33.7039 H   0  0  0  0  0  0  0  0  0  0  0  0
  -10.4260   19.7987  -32.4032 H   0  0  0  0  0  0  0  0  0  0  0  0
  -10.1009   22.0445  -31.3393 H   0  0  0  0  0  0  0  0  0  0  0  0
   -6.2658   25.2191  -32.1354 H   0  0  0  0  0  0  0  0  0  0  0  0
   -4.0556   26.0514  -31.3464 H   0  0  0  0  0  0  0  0  0  0  0  0
   -1.4341   23.5021  -26.4185 H   0  0  0  0  0  0  0  0  0  0  0  0
   -1.5740   21.1610  -25.6034 H   0  0  0  0  0  0  0  0  0  0  0  0
   -1.8542   18.8945  -25.9920 H   0  0  0  0  0  0  0  0  0  0  0  0
   -2.7887   18.4486  -27.4599 H   0  0  0  0  0  0  0  0  0  0  0  0
   -0.9975   18.3129  -27.4599 H   0  0  0  0  0  0  0  0  0  0  0  0
   -1.9758   19.7545  -29.6694 H   0  0  0  0  0  0  0  0  0  0  0  0
   -2.5539   23.0409  -31.0863 H   0  0  0  0  0  0  0  0  0  0  0  0
   -0.9578   22.2687  -31.3743 H   0  0  0  0  0  0  0  0  0  0  0  0
   -2.4514   21.2708  -31.3743 H   0  0  0  0  0  0  0  0  0  0  0  0
   -4.1030   23.1470  -28.1377 H   0  0  0  0  0  0  0  0  0  0  0  0
   -6.3186   22.3176  -28.9240 H   0  0  0  0  0  0  0  0  0  0  0  0
  1  2  1  0
  2  3  1  0
  3  4  2  0
  3  5  1  0
  5  6  2  0
  6  7  1  0
  7  8  2  0
  8  9  1  0
  9 10  2  0
 10 11  1  0
 11 12  1  0
 12 13  1  0
 13 14  2  0
 14 15  1  0
 15 16  2  0
 16 17  1  0
 17 18  1  0
 18 19  2  0
 18 20  1  0
 20 21  2  0
 21 22  1  0
 22 23  2  0
 23 24  1  0
 23 25  1  0
 25 26  2  0
 26 27  1  0
 16 28  1  0
 28 29  2  0
 11 30  2  0
 30 31  1  0
 31  5  1  0
 30  7  1  0
 29 13  1  0
 26 20  1  0
  1 32  1  0
  1 33  1  0
  1 34  1  0
  2 35  1  0
  6 36  1  0
  9 37  1  0
 10 38  1  0
 14 39  1  0
 15 40  1  0
 21 41  1  0
 22 42  1  0
 24 43  1  0
 24 44  1  0
 24 45  1  0
 25 46  1  0
 27 47  1  0
 27 48  1  0
 27 49  1  0
 28 50  1  0
 29 51  1  0
M  CHG  1  17  -1
M  END
>  <UniqueID>  (38) 
36

>  <SMILES>  (38) 
CNC(=O)c1cc2nccc(Oc3ccc([N-]C(=O)c4ccc(C)cc4C)cc3)c2s1

>  <Energy>  (38) 
98.18100748776418

>  <Genealogy>  (38) 
CNC(=O)c1cc2nccc(Oc3ccc([N-]C(=O)c4ccc(C)cc4C)cc3)c2s1 (protonated)
CNC(=O)c1cc2nccc(Oc3ccc([N-]C(=O)c4ccc(C)cc4C)cc3)c2s1 (3D coordinates assigned)
CNC(=O)c1cc2nccc(Oc3ccc([N-]C(=O)c4ccc(C)cc4C)cc3)c2s1 (optimized conformer: 98.18100748776418 kcal/mol)

>  <smiles>  (38) 
CNC(=O)c1cc2nccc(Oc3ccc(NC(=O)c4ccc(C)cc4C)cc3)c2s1

>  <score_type>  (38) 
oracle

>  <origin>  (38) 
adgpu

>  <m_score__min__energy>  (38) 
-11.84

>  <m_primary>  (38) 
energy

$$$$
38:0
     RDKit          3D

 39 42  0  0  0  0  0  0  0  0999 V2000
   -2.0540   24.0390  -27.1460 C   0  0  0  0  0  0  0  0  0  0  0  0
   -1.6230   24.6760  -28.4320 C   0  0  0  0  0  0  0  0  0  0  0  0
   -0.4020   24.6630  -28.7390 O   0  0  0  0  0  0  0  0  0  0  0  0
   -2.5600   25.2640  -29.3440 N   0  0  0  0  0  0  0  0  0  0  0  0
   -3.7650   24.6630  -29.8390 C   0  0  0  0  0  0  0  0  0  0  0  0
   -3.8730   23.2680  -29.8450 C   0  0  0  0  0  0  0  0  0  0  0  0
   -5.0210   22.6480  -30.3470 C   0  0  0  0  0  0  0  0  0  0  0  0
   -6.0750   23.4170  -30.8690 C   0  0  0  0  0  0  0  0  0  0  0  0
   -7.2890   22.7630  -31.4010 C   0  0  0  0  0  0  0  0  0  0  0  0
   -7.4410   21.4250  -31.4950 N   0  0  0  0  0  0  0  0  0  0  0  0
   -8.6730   21.3290  -32.0290 C   0  0  0  0  0  0  0  0  0  0  0  0
   -9.4650   19.7710  -32.4190 S   0  0  0  0  0  0  0  0  0  0  0  0
   -8.2920   18.7610  -31.4520 C   0  0  0  0  0  0  0  0  0  0  0  0
   -7.1980   18.2370  -32.3240 C   0  0  0  0  0  0  0  0  0  0  0  0
   -6.7970   16.9410  -32.3140 N   0  0  0  0  0  0  0  0  0  0  0  0
   -5.8130   16.7330  -33.2260 C   0  0  0  0  0  0  0  0  0  0  0  0
   -5.1960   15.5020  -33.4520 C   0  0  0  0  0  0  0  0  0  0  0  0
   -4.1910   15.4200  -34.4320 C   0  0  0  0  0  0  0  0  0  0  0  0
   -3.8170   16.5620  -35.1690 C   0  0  0  0  0  0  0  0  0  0  0  0
   -4.4460   17.7950  -34.9330 C   0  0  0  0  0  0  0  0  0  0  0  0
   -5.4370   17.8490  -33.9570 C   0  0  0  0  0  0  0  0  0  0  0  0
   -6.3540   19.1650  -33.4650 S   0  0  0  0  0  0  0  0  0  0  0  0
   -9.2430   22.5260  -32.2460 N   0  0  0  0  0  0  0  0  0  0  0  0
   -8.3680   23.4330  -31.8500 N   0  0  0  0  0  0  0  0  0  0  0  0
   -5.9510   24.8170  -30.8910 C   0  0  0  0  0  0  0  0  0  0  0  0
   -4.8020   25.4350  -30.3880 C   0  0  0  0  0  0  0  0  0  0  0  0
   -1.6607   24.6203  -26.2990 H   0  0  0  0  0  0  0  0  0  0  0  0
   -3.1527   24.0178  -27.0975 H   0  0  0  0  0  0  0  0  0  0  0  0
   -1.6650   23.0112  -27.0975 H   0  0  0  0  0  0  0  0  0  0  0  0
   -3.0487   22.6548  -29.4519 H   0  0  0  0  0  0  0  0  0  0  0  0
   -5.0998   21.5509  -30.3333 H   0  0  0  0  0  0  0  0  0  0  0  0
   -7.8532   19.3810  -30.6563 H   0  0  0  0  0  0  0  0  0  0  0  0
   -8.8354   17.9087  -31.0180 H   0  0  0  0  0  0  0  0  0  0  0  0
   -5.4901   14.6130  -32.8747 H   0  0  0  0  0  0  0  0  0  0  0  0
   -3.6933   14.4582  -34.6249 H   0  0  0  0  0  0  0  0  0  0  0  0
   -3.0287   16.4868  -35.9325 H   0  0  0  0  0  0  0  0  0  0  0  0
   -4.1637   18.6924  -35.5030 H   0  0  0  0  0  0  0  0  0  0  0  0
   -6.7636   25.4307  -31.3069 H   0  0  0  0  0  0  0  0  0  0  0  0
   -4.7098   26.5306  -30.4224 H   0  0  0  0  0  0  0  0  0  0  0  0
  1  2  1  0
  2  3  2  0
  2  4  1  0
  4  5  1  0
  5  6  2  0
  6  7  1  0
  7  8  2  0
  8  9  1  0
  9 10  2  0
 10 11  1  0
 11 12  1  0
 12 13  1  0
 13 14  1  0
 14 15  2  0
 15 16  1  0
 16 17  2  0
 17 18  1  0
 18 19  2  0
 19 20  1  0
 20 21  2  0
 21 22  1  0
 11 23  2  0
 23 24  1  0
  8 25  1  0
 25 26  2  0
 26  5  1  0
 24  9  1  0
 22 14  1  0
 21 16  1  0
  1 27  1  0
  1 28  1  0
  1 29  1  0
  6 30  1  0
  7 31  1  0
 13 32  1  0
 13 33  1  0
 17 34  1  0
 18 35  1  0
 19 36  1  0
 20 37  1  0
 25 38  1  0
 26 39  1  0
M  CHG  2   4  -1  24  -1
M  END
>  <UniqueID>  (39) 
37

>  <SMILES>  (39) 
CC(=O)[N-]c1ccc(-c2nc(SCc3nc4ccccc4s3)n[n-]2)cc1

>  <Energy>  (39) 
108.23018047979768

>  <Genealogy>  (39) 
CC(=O)[N-]c1ccc(-c2nc(SCc3nc4ccccc4s3)n[n-]2)cc1 (protonated)
CC(=O)[N-]c1ccc(-c2nc(SCc3nc4ccccc4s3)n[n-]2)cc1 (3D coordinates assigned)
CC(=O)[N-]c1ccc(-c2nc(SCc3nc4ccccc4s3)n[n-]2)cc1 (optimized conformer: 108.23018047979768 kcal/mol)

>  <smiles>  (39) 
CC(=O)Nc1ccc(-c2nc(SCc3nc4ccccc4s3)n[nH]2)cc1

>  <score_type>  (39) 
oracle

>  <origin>  (39) 
adgpu

>  <m_score__min__energy>  (39) 
-11

>  <m_primary>  (39) 
energy

$$$$
39:0
     RDKit          3D

 68 73  0  0  0  0  0  0  0  0999 V2000
    0.7860   16.9980  -30.6550 C   0  0  0  0  0  0  0  0  0  0  0  0
    1.0080   18.2220  -31.3540 O   0  0  0  0  0  0  0  0  0  0  0  0
   -0.0090   19.0360  -31.8780 C   0  0  0  0  0  0  0  0  0  0  0  0
    0.1340   20.4300  -32.0160 C   0  0  0  0  0  0  0  0  0  0  0  0
   -0.9080   21.1940  -32.5550 C   0  0  0  0  0  0  0  0  0  0  0  0
   -2.1040   20.5760  -32.9610 C   0  0  0  0  0  0  0  0  0  0  0  0
   -3.2650   21.4000  -33.4570 C   0  0  0  0  0  0  0  0  0  0  0  0
   -4.4250   21.1970  -32.5690 N   0  0  0  0  0  0  0  0  0  0  0  0
   -5.6240   20.5830  -33.1020 C   0  0  0  0  0  0  0  0  0  0  0  0
   -5.5120   19.7720  -34.0600 O   0  0  0  0  0  0  0  0  0  0  0  0
   -7.0000   20.8660  -32.5850 C   0  0  0  0  0  0  0  0  0  0  0  0
   -7.9900   19.8710  -32.7240 C   0  0  0  0  0  0  0  0  0  0  0  0
   -9.2790   20.0730  -32.2330 C   0  0  0  0  0  0  0  0  0  0  0  0
   -9.6090   21.2710  -31.6020 C   0  0  0  0  0  0  0  0  0  0  0  0
   -8.6580   22.2880  -31.4920 C   0  0  0  0  0  0  0  0  0  0  0  0
   -7.3650   22.1040  -32.0030 C   0  0  0  0  0  0  0  0  0  0  0  0
   -6.2600   23.5130  -31.9970 S   0  0  0  0  0  0  0  0  0  0  0  0
   -5.1830   22.7420  -30.8050 C   0  0  0  0  0  0  0  0  0  0  0  0
   -5.1220   23.2180  -29.4950 C   0  0  0  0  0  0  0  0  0  0  0  0
   -4.1750   22.7080  -28.6050 C   0  0  0  0  0  0  0  0  0  0  0  0
   -3.2530   21.7300  -29.0340 C   0  0  0  0  0  0  0  0  0  0  0  0
   -2.1560   21.2680  -28.1400 C   0  0  0  0  0  0  0  0  0  0  0  0
   -2.4540   20.6240  -27.0960 O   0  0  0  0  0  0  0  0  0  0  0  0
   -0.7590   21.4660  -28.5040 N   0  0  0  0  0  0  0  0  0  0  0  0
   -0.5570   22.5660  -29.4620 C   0  0  0  0  0  0  0  0  0  0  0  0
   -0.7340   23.9770  -28.8680 C   0  0  0  0  0  0  0  0  0  0  0  0
   -0.4710   24.0990  -27.4210 N   0  0  0  0  0  0  0  0  0  0  0  0
   -0.6680   25.3840  -26.7640 C   0  0  0  0  0  0  0  0  0  0  0  0
   -1.1490   25.4820  -25.4400 C   0  0  0  0  0  0  0  0  0  0  0  0
   -1.2850   26.7370  -24.8410 C   0  0  0  0  0  0  0  0  0  0  0  0
   -0.9530   27.8880  -25.5580 C   0  0  0  0  0  0  0  0  0  0  0  0
   -0.4880   27.7670  -26.8660 C   0  0  0  0  0  0  0  0  0  0  0  0
   -0.3590   26.5370  -27.4300 N   0  0  0  0  0  0  0  0  0  0  0  0
   -0.2040   22.9340  -26.5540 C   0  0  0  0  0  0  0  0  0  0  0  0
    0.1020   21.6470  -27.3230 C   0  0  0  0  0  0  0  0  0  0  0  0
   -3.3820   21.1960  -30.3310 C   0  0  0  0  0  0  0  0  0  0  0  0
   -4.3480   21.6960  -31.2210 C   0  0  0  0  0  0  0  0  0  0  0  0
   -2.2500   19.1930  -32.8010 C   0  0  0  0  0  0  0  0  0  0  0  0
   -1.2070   18.4290  -32.2720 C   0  0  0  0  0  0  0  0  0  0  0  0
    0.8196   17.1834  -29.5713 H   0  0  0  0  0  0  0  0  0  0  0  0
   -0.2001   16.5938  -30.9274 H   0  0  0  0  0  0  0  0  0  0  0  0
    1.5673   16.2732  -30.9274 H   0  0  0  0  0  0  0  0  0  0  0  0
    1.0667   20.9199  -31.6995 H   0  0  0  0  0  0  0  0  0  0  0  0
   -0.7906   22.2825  -32.6614 H   0  0  0  0  0  0  0  0  0  0  0  0
   -2.9857   22.4640  -33.4584 H   0  0  0  0  0  0  0  0  0  0  0  0
   -3.5261   21.0888  -34.4792 H   0  0  0  0  0  0  0  0  0  0  0  0
   -7.7420   18.9241  -33.2259 H   0  0  0  0  0  0  0  0  0  0  0  0
  -10.0379   19.2845  -32.3439 H   0  0  0  0  0  0  0  0  0  0  0  0
  -10.6188   21.4157  -31.1904 H   0  0  0  0  0  0  0  0  0  0  0  0
   -8.9241   23.2366  -31.0028 H   0  0  0  0  0  0  0  0  0  0  0  0
   -5.8226   23.9980  -29.1622 H   0  0  0  0  0  0  0  0  0  0  0  0
   -4.1476   23.0696  -27.5665 H   0  0  0  0  0  0  0  0  0  0  0  0
   -0.4150   20.6150  -28.9950 H   0  0  0  0  0  0  0  0  0  0  0  0
    0.4645   22.4884  -29.8626 H   0  0  0  0  0  0  0  0  0  0  0  0
   -1.3335   22.4535  -30.2330 H   0  0  0  0  0  0  0  0  0  0  0  0
   -0.0460   24.6544  -29.3950 H   0  0  0  0  0  0  0  0  0  0  0  0
   -1.7965   24.2281  -29.0022 H   0  0  0  0  0  0  0  0  0  0  0  0
   -1.4160   24.5726  -24.8816 H   0  0  0  0  0  0  0  0  0  0  0  0
   -1.6526   26.8179  -23.8074 H   0  0  0  0  0  0  0  0  0  0  0  0
   -1.0574   28.8804  -25.0951 H   0  0  0  0  0  0  0  0  0  0  0  0
   -0.2254   28.6666  -27.4420 H   0  0  0  0  0  0  0  0  0  0  0  0
    0.6594   23.1689  -25.9141 H   0  0  0  0  0  0  0  0  0  0  0  0
   -1.1208   22.7499  -25.9747 H   0  0  0  0  0  0  0  0  0  0  0  0
    1.1505   21.6771  -27.6544 H   0  0  0  0  0  0  0  0  0  0  0  0
   -0.0887   20.8034  -26.6433 H   0  0  0  0  0  0  0  0  0  0  0  0
   -2.7192   20.3784  -30.6509 H   0  0  0  0  0  0  0  0  0  0  0  0
   -3.1915   18.7050  -33.0935 H   0  0  0  0  0  0  0  0  0  0  0  0
   -1.3283   17.3410  -32.1642 H   0  0  0  0  0  0  0  0  0  0  0  0
  1  2  1  0
  2  3  1  0
  3  4  2  0
  4  5  1  0
  5  6  2  0
  6  7  1  0
  7  8  1  0
  8  9  1  0
  9 10  2  0
  9 11  1  0
 11 12  2  0
 12 13  1  0
 13 14  2  0
 14 15  1  0
 15 16  2  0
 16 17  1  0
 17 18  1  0
 18 19  2  0
 19 20  1  0
 20 21  2  0
 21 22  1  0
 22 23  2  0
 22 24  1  0
 24 25  1  0
 25 26  1  0
 26 27  1  0
 27 28  1  0
 28 29  2  0
 29 30  1  0
 30 31  2  0
 31 32  1  0
 32 33  2  0
 27 34  1  0
 34 35  1  0
 21 36  1  0
 36 37  2  0
  6 38  1  0
 38 39  2  0
 39  3  1  0
 37  8  1  0
 16 11  1  0
 37 18  1  0
 35 24  1  0
 33 28  1  0
  1 40  1  0
  1 41  1  0
  1 42  1  0
  4 43  1  0
  5 44  1  0
  7 45  1  0
  7 46  1  0
 12 47  1  0
 13 48  1  0
 14 49  1  0
 15 50  1  0
 19 51  1  0
 20 52  1  0
 24 53  1  0
 25 54  1  0
 25 55  1  0
 26 56  1  0
 26 57  1  0
 29 58  1  0
 30 59  1  0
 31 60  1  0
 32 61  1  0
 34 62  1  0
 34 63  1  0
 35 64  1  0
 35 65  1  0
 36 66  1  0
 38 67  1  0
 39 68  1  0
M  CHG  1  24   1
M  END
>  <UniqueID>  (40) 
38

>  <SMILES>  (40) 
COc1ccc(CN2C(=O)c3ccccc3Sc3ccc(C(=O)[NH+]4CCN(c5ccccn5)CC4)cc32)cc1

>  <Energy>  (40) 
104.33275663801172

>  <Genealogy>  (40) 
COc1ccc(CN2C(=O)c3ccccc3Sc3ccc(C(=O)[NH+]4CCN(c5ccccn5)CC4)cc32)cc1 (protonated)
COc1ccc(CN2C(=O)c3ccccc3Sc3ccc(C(=O)[NH+]4CCN(c5ccccn5)CC4)cc32)cc1 (3D coordinates assigned)
COc1ccc(CN2C(=O)c3ccccc3Sc3ccc(C(=O)[NH+]4CCN(c5ccccn5)CC4)cc32)cc1 (nonaromatic ring conformer: 104.33275663801172 kcal/mol)

>  <smiles>  (40) 
COc1ccc(CN2C(=O)c3ccccc3Sc3ccc(C(=O)N4CCN(c5ccccn5)CC4)cc32)cc1

>  <score_type>  (40) 
oracle

>  <origin>  (40) 
adgpu

>  <m_score__min__energy>  (40) 
-9.4299999999999997

>  <m_primary>  (40) 
energy

$$$$
40:0
     RDKit          3D

 24 25  0  0  0  0  0  0  0  0999 V2000
   -9.5170   18.6560  -32.7070 O   0  0  0  0  0  0  0  0  0  0  0  0
   -8.9620   19.7340  -32.3580 C   0  0  0  0  0  0  0  0  0  0  0  0
   -9.7780   20.8630  -32.3430 C   0  0  0  0  0  0  0  0  0  0  0  0
   -9.4650   22.1730  -32.0130 C   0  0  0  0  0  0  0  0  0  0  0  0
   -8.2510   22.7060  -31.6090 C   0  0  0  0  0  0  0  0  0  0  0  0
   -7.0260   22.0620  -31.4230 C   0  0  0  0  0  0  0  0  0  0  0  0
   -5.8870   22.9090  -30.9760 C   0  0  0  0  0  0  0  0  0  0  0  0
   -4.5800   22.3850  -30.9390 C   0  0  0  0  0  0  0  0  0  0  0  0
   -3.5120   23.1820  -30.5190 C   0  0  0  0  0  0  0  0  0  0  0  0
   -3.7340   24.5070  -30.1330 C   0  0  0  0  0  0  0  0  0  0  0  0
   -2.6700   25.2980  -29.7160 O   0  0  0  0  0  0  0  0  0  0  0  0
   -5.0280   25.0360  -30.1670 C   0  0  0  0  0  0  0  0  0  0  0  0
   -6.1000   24.2430  -30.5860 C   0  0  0  0  0  0  0  0  0  0  0  0
   -6.7640   20.6990  -31.6140 C   0  0  0  0  0  0  0  0  0  0  0  0
   -7.6040   19.6650  -32.0270 C   0  0  0  0  0  0  0  0  0  0  0  0
   -7.0060   18.4090  -32.1160 O   0  0  0  0  0  0  0  0  0  0  0  0
  -10.8241   20.6899  -32.6359 H   0  0  0  0  0  0  0  0  0  0  0  0
  -10.2968   22.8896  -32.0815 H   0  0  0  0  0  0  0  0  0  0  0  0
   -8.2528   23.7872  -31.4066 H   0  0  0  0  0  0  0  0  0  0  0  0
   -4.3993   21.3432  -31.2423 H   0  0  0  0  0  0  0  0  0  0  0  0
   -2.4941   22.7658  -30.4920 H   0  0  0  0  0  0  0  0  0  0  0  0
   -5.2027   26.0787  -29.8633 H   0  0  0  0  0  0  0  0  0  0  0  0
   -7.1156   24.6647  -30.6108 H   0  0  0  0  0  0  0  0  0  0  0  0
   -5.7278   20.3951  -31.4042 H   0  0  0  0  0  0  0  0  0  0  0  0
  1  2  2  0
  2  3  1  0
  3  4  2  0
  4  5  1  0
  5  6  2  0
  6  7  1  0
  7  8  2  0
  8  9  1  0
  9 10  2  0
 10 11  1  0
 10 12  1  0
 12 13  2  0
  6 14  1  0
 14 15  2  0
 15 16  1  0
 15  2  1  0
 13  7  1  0
  3 17  1  0
  4 18  1  0
  5 19  1  0
  8 20  1  0
  9 21  1  0
 12 22  1  0
 13 23  1  0
 14 24  1  0
M  CHG  2  11  -1  16  -1
M  END
>  <UniqueID>  (41) 
39

>  <SMILES>  (41) 
O=c1cccc(-c2ccc([O-])cc2)cc1[O-]

>  <Energy>  (41) 
51.10195665673255

>  <Genealogy>  (41) 
O=c1cccc(-c2ccc([O-])cc2)cc1[O-] (protonated)
O=c1cccc(-c2ccc([O-])cc2)cc1[O-] (3D coordinates assigned)
O=c1cccc(-c2ccc([O-])cc2)cc1[O-] (optimized conformer: 51.10195665673255 kcal/mol)

>  <smiles>  (41) 
O=c1cccc(-c2ccc(O)cc2)cc1O

>  <score_type>  (41) 
oracle

>  <origin>  (41) 
adgpu

>  <m_score__min__energy>  (41) 
-9.8200000000000003

>  <m_primary>  (41) 
energy

$$$$
41:0
     RDKit          3D

 57 60  0  0  0  0  0  0  0  0999 V2000
   -6.8710   14.8940  -34.2140 C   0  0  0  0  0  0  0  0  0  0  0  0
   -5.5330   15.3790  -34.2570 O   0  0  0  0  0  0  0  0  0  0  0  0
   -5.1720   16.7240  -34.0790 C   0  0  0  0  0  0  0  0  0  0  0  0
   -3.8870   17.2070  -34.3930 C   0  0  0  0  0  0  0  0  0  0  0  0
   -3.5790   18.5540  -34.2020 C   0  0  0  0  0  0  0  0  0  0  0  0
   -4.5390   19.4310  -33.6920 C   0  0  0  0  0  0  0  0  0  0  0  0
   -5.8260   18.9660  -33.3600 C   0  0  0  0  0  0  0  0  0  0  0  0
   -6.8660   19.8810  -32.8250 C   0  0  0  0  0  0  0  0  0  0  0  0
   -8.1500   19.4330  -32.4880 C   0  0  0  0  0  0  0  0  0  0  0  0
   -9.0850   20.3410  -32.0030 C   0  0  0  0  0  0  0  0  0  0  0  0
   -8.7310   21.6830  -31.8670 C   0  0  0  0  0  0  0  0  0  0  0  0
   -9.5830   22.5100  -31.4380 O   0  0  0  0  0  0  0  0  0  0  0  0
   -7.4690   22.0870  -32.2090 N   0  0  0  0  0  0  0  0  0  0  0  0
   -7.0730   23.4960  -32.1310 C   0  0  0  0  0  0  0  0  0  0  0  0
   -5.7250   23.6120  -31.4880 C   0  0  0  0  0  0  0  0  0  0  0  0
   -5.1940   24.7480  -31.3580 O   0  0  0  0  0  0  0  0  0  0  0  0
   -5.0620   22.4340  -31.0060 N   0  0  0  0  0  0  0  0  0  0  0  0
   -3.6560   22.3700  -30.7160 C   0  0  0  0  0  0  0  0  0  0  0  0
   -2.8670   21.3970  -31.3470 C   0  0  0  0  0  0  0  0  0  0  0  0
   -1.4920   21.3330  -31.1000 C   0  0  0  0  0  0  0  0  0  0  0  0
   -0.8920   22.2490  -30.2350 C   0  0  0  0  0  0  0  0  0  0  0  0
   -1.6640   23.2420  -29.6160 C   0  0  0  0  0  0  0  0  0  0  0  0
   -0.9200   24.4330  -28.5530 S   0  0  0  0  0  0  0  0  0  0  0  0
    0.5720   24.2450  -28.6000 O   0  0  0  0  0  0  0  0  0  0  0  0
   -1.2490   25.8250  -29.0190 O   0  0  0  0  0  0  0  0  0  0  0  0
   -1.5000   24.1930  -26.9180 N   0  0  0  0  0  0  0  0  0  0  0  0
   -0.3970   24.3150  -25.9590 C   0  0  0  0  0  0  0  0  0  0  0  0
    0.1620   22.9220  -25.7000 C   0  0  0  0  0  0  0  0  0  0  0  0
   -0.8910   21.9590  -26.2110 C   0  0  0  0  0  0  0  0  0  0  0  0
   -2.0170   22.8300  -26.7510 C   0  0  0  0  0  0  0  0  0  0  0  0
   -3.0410   23.3040  -29.8630 C   0  0  0  0  0  0  0  0  0  0  0  0
   -6.5800   21.2050  -32.6780 N   0  0  0  0  0  0  0  0  0  0  0  0
   -6.1300   17.6080  -33.5680 C   0  0  0  0  0  0  0  0  0  0  0  0
   -7.1861   14.7798  -33.1663 H   0  0  0  0  0  0  0  0  0  0  0  0
   -7.5364   15.6081  -34.7212 H   0  0  0  0  0  0  0  0  0  0  0  0
   -6.9242   13.9194  -34.7212 H   0  0  0  0  0  0  0  0  0  0  0  0
   -3.1245   16.5206  -34.7898 H   0  0  0  0  0  0  0  0  0  0  0  0
   -2.5755   18.9272  -34.4542 H   0  0  0  0  0  0  0  0  0  0  0  0
   -4.2879   20.4923  -33.5487 H   0  0  0  0  0  0  0  0  0  0  0  0
   -8.4162   18.3722  -32.6060 H   0  0  0  0  0  0  0  0  0  0  0  0
  -10.0954   20.0035  -31.7289 H   0  0  0  0  0  0  0  0  0  0  0  0
   -7.0310   23.9197  -33.1452 H   0  0  0  0  0  0  0  0  0  0  0  0
   -7.8103   24.0465  -31.5282 H   0  0  0  0  0  0  0  0  0  0  0  0
   -5.6450   21.5870  -30.8160 H   0  0  0  0  0  0  0  0  0  0  0  0
   -3.3323   20.6804  -32.0399 H   0  0  0  0  0  0  0  0  0  0  0  0
   -0.8821   20.5589  -31.5886 H   0  0  0  0  0  0  0  0  0  0  0  0
    0.1888   22.1918  -30.0385 H   0  0  0  0  0  0  0  0  0  0  0  0
    0.3898   24.9608  -26.3761 H   0  0  0  0  0  0  0  0  0  0  0  0
   -0.7563   24.7618  -25.0202 H   0  0  0  0  0  0  0  0  0  0  0  0
    1.1078   22.7806  -26.2435 H   0  0  0  0  0  0  0  0  0  0  0  0
    0.3771   22.7615  -24.6332 H   0  0  0  0  0  0  0  0  0  0  0  0
   -0.4774   21.3272  -27.0108 H   0  0  0  0  0  0  0  0  0  0  0  0
   -1.2441   21.2842  -25.4173 H   0  0  0  0  0  0  0  0  0  0  0  0
   -2.3580   22.4393  -27.7211 H   0  0  0  0  0  0  0  0  0  0  0  0
   -2.8677   22.8282  -26.0536 H   0  0  0  0  0  0  0  0  0  0  0  0
   -3.6463   24.0891  -29.3863 H   0  0  0  0  0  0  0  0  0  0  0  0
   -7.1360   17.2351  -33.3254 H   0  0  0  0  0  0  0  0  0  0  0  0
  1  2  1  0
  2  3  1  0
  3  4  2  0
  4  5  1  0
  5  6  2  0
  6  7  1  0
  7  8  1  0
  8  9  1  0
  9 10  2  0
 10 11  1  0
 11 12  2  0
 11 13  1  0
 13 14  1  0
 14 15  1  0
 15 16  2  0
 15 17  1  0
 17 18  1  0
 18 19  2  0
 19 20  1  0
 20 21  2  0
 21 22  1  0
 22 23  1  0
 23 24  2  0
 23 25  2  0
 23 26  1  0
 26 27  1  0
 27 28  1  0
 28 29  1  0
 29 30  1  0
 22 31  2  0
 13 32  1  0
  7 33  2  0
 33  3  1  0
 32  8  2  0
 31 18  1  0
 30 26  1  0
  1 34  1  0
  1 35  1  0
  1 36  1  0
  4 37  1  0
  5 38  1  0
  6 39  1  0
  9 40  1  0
 10 41  1  0
 14 42  1  0
 14 43  1  0
 17 44  1  0
 19 45  1  0
 20 46  1  0
 21 47  1  0
 27 48  1  0
 27 49  1  0
 28 50  1  0
 28 51  1  0
 29 52  1  0
 29 53  1  0
 30 54  1  0
 30 55  1  0
 31 56  1  0
 33 57  1  0
M  END
>  <UniqueID>  (42) 
40

>  <SMILES>  (42) 
COc1cccc(-c2ccc(=O)n(CC(=O)Nc3cccc(S(=O)(=O)N4CCCC4)c3)n2)c1

>  <Energy>  (42) 
67.03238921747682

>  <Genealogy>  (42) 
COc1cccc(-c2ccc(=O)n(CC(=O)Nc3cccc(S(=O)(=O)N4CCCC4)c3)n2)c1 (3D coordinates assigned)
COc1cccc(-c2ccc(=O)n(CC(=O)Nc3cccc(S(=O)(=O)N4CCCC4)c3)n2)c1 (nonaromatic ring conformer: 67.03238921747682 kcal/mol)

>  <smiles>  (42) 
COc1cccc(-c2ccc(=O)n(CC(=O)Nc3cccc(S(=O)(=O)N4CCCC4)c3)n2)c1

>  <score_type>  (42) 
oracle

>  <origin>  (42) 
adgpu

>  <m_score__min__energy>  (42) 
-10.880000000000001

>  <m_primary>  (42) 
energy

$$$$
42:0
     RDKit          3D

 58 61  0  0  0  0  0  0  0  0999 V2000
   -4.4980   18.6280  -34.2320 C   0  0  0  0  0  0  0  0  0  0  0  0
   -3.7380   19.4370  -33.2130 C   0  0  0  0  0  0  0  0  0  0  0  0
   -2.3680   19.1840  -33.0340 C   0  0  0  0  0  0  0  0  0  0  0  0
   -1.6240   19.9110  -32.1030 C   0  0  0  0  0  0  0  0  0  0  0  0
   -2.2390   20.8940  -31.3190 C   0  0  0  0  0  0  0  0  0  0  0  0
   -1.4620   21.6270  -30.3580 N   0  0  0  0  0  0  0  0  0  0  0  0
   -0.5910   20.9980  -29.4040 C   0  0  0  0  0  0  0  0  0  0  0  0
   -0.2330   19.7990  -29.5600 O   0  0  0  0  0  0  0  0  0  0  0  0
   -0.1040   21.7660  -28.2110 C   0  0  0  0  0  0  0  0  0  0  0  0
   -1.2670   22.3680  -27.4090 C   0  0  0  0  0  0  0  0  0  0  0  0
   -2.2140   23.0950  -28.2840 N   0  0  0  0  0  0  0  0  0  0  0  0
   -1.8150   24.2310  -28.9480 C   0  0  0  0  0  0  0  0  0  0  0  0
   -0.6270   24.6480  -28.8640 O   0  0  0  0  0  0  0  0  0  0  0  0
   -2.6970   24.9290  -29.7070 N   0  0  0  0  0  0  0  0  0  0  0  0
   -3.9870   24.5380  -29.8380 C   0  0  0  0  0  0  0  0  0  0  0  0
   -4.8710   25.2880  -30.6240 C   0  0  0  0  0  0  0  0  0  0  0  0
   -6.2040   24.8850  -30.7580 C   0  0  0  0  0  0  0  0  0  0  0  0
   -6.6570   23.7300  -30.1130 C   0  0  0  0  0  0  0  0  0  0  0  0
   -5.7780   22.9730  -29.3280 C   0  0  0  0  0  0  0  0  0  0  0  0
   -4.4350   23.3750  -29.1830 C   0  0  0  0  0  0  0  0  0  0  0  0
   -3.5110   22.6530  -28.4080 C   0  0  0  0  0  0  0  0  0  0  0  0
   -3.8780   21.5930  -27.8290 O   0  0  0  0  0  0  0  0  0  0  0  0
   -3.5960   21.1840  -31.5230 C   0  0  0  0  0  0  0  0  0  0  0  0
   -4.3510   20.4770  -32.4700 C   0  0  0  0  0  0  0  0  0  0  0  0
   -6.0650   20.8910  -32.6660 S   0  0  0  0  0  0  0  0  0  0  0  0
   -6.2240   22.3870  -32.6890 O   0  0  0  0  0  0  0  0  0  0  0  0
   -6.5510   20.3550  -33.9840 O   0  0  0  0  0  0  0  0  0  0  0  0
   -7.0250   20.2040  -31.3690 N   0  0  0  0  0  0  0  0  0  0  0  0
   -8.2160   21.0210  -31.0640 C   0  0  0  0  0  0  0  0  0  0  0  0
   -9.3020   20.9200  -32.1510 C   0  0  0  0  0  0  0  0  0  0  0  0
   -9.4720   19.4920  -32.7020 C   0  0  0  0  0  0  0  0  0  0  0  0
   -8.8090   18.4480  -31.8040 C   0  0  0  0  0  0  0  0  0  0  0  0
   -7.3160   18.7660  -31.6000 C   0  0  0  0  0  0  0  0  0  0  0  0
   -5.1631   17.9200  -33.7160 H   0  0  0  0  0  0  0  0  0  0  0  0
   -5.0974   19.3017  -34.8620 H   0  0  0  0  0  0  0  0  0  0  0  0
   -3.7882   18.0718  -34.8620 H   0  0  0  0  0  0  0  0  0  0  0  0
   -1.8759   18.4044  -33.6341 H   0  0  0  0  0  0  0  0  0  0  0  0
   -0.5489   19.7103  -31.9849 H   0  0  0  0  0  0  0  0  0  0  0  0
   -1.4860   22.6700  -30.3960 H   0  0  0  0  0  0  0  0  0  0  0  0
    0.4653   21.0876  -27.5586 H   0  0  0  0  0  0  0  0  0  0  0  0
    0.5284   22.5915  -28.5697 H   0  0  0  0  0  0  0  0  0  0  0  0
   -1.8051   21.5567  -26.8969 H   0  0  0  0  0  0  0  0  0  0  0  0
   -0.8510   23.0827  -26.6837 H   0  0  0  0  0  0  0  0  0  0  0  0
   -4.5169   26.1947  -31.1364 H   0  0  0  0  0  0  0  0  0  0  0  0
   -6.8974   25.4782  -31.3723 H   0  0  0  0  0  0  0  0  0  0  0  0
   -7.7054   23.4154  -30.2223 H   0  0  0  0  0  0  0  0  0  0  0  0
   -6.1364   22.0634  -28.8239 H   0  0  0  0  0  0  0  0  0  0  0  0
   -4.0752   21.9779  -30.9313 H   0  0  0  0  0  0  0  0  0  0  0  0
   -8.6416   20.6794  -30.1089 H   0  0  0  0  0  0  0  0  0  0  0  0
   -7.8936   22.0715  -31.0140 H   0  0  0  0  0  0  0  0  0  0  0  0
  -10.2603   21.2457  -31.7202 H   0  0  0  0  0  0  0  0  0  0  0  0
   -8.9891   21.5605  -32.9888 H   0  0  0  0  0  0  0  0  0  0  0  0
  -10.5459   19.2657  -32.7763 H   0  0  0  0  0  0  0  0  0  0  0  0
   -8.9866   19.4488  -33.6881 H   0  0  0  0  0  0  0  0  0  0  0  0
   -9.3127   18.4422  -30.8261 H   0  0  0  0  0  0  0  0  0  0  0  0
   -8.8955   17.4635  -32.2870 H   0  0  0  0  0  0  0  0  0  0  0  0
   -6.9583   18.1975  -30.7289 H   0  0  0  0  0  0  0  0  0  0  0  0
   -6.8033   18.4859  -32.5320 H   0  0  0  0  0  0  0  0  0  0  0  0
  1  2  1  0
  2  3  2  0
  3  4  1  0
  4  5  2  0
  5  6  1  0
  6  7  1  0
  7  8  2  0
  7  9  1  0
  9 10  1  0
 10 11  1  0
 11 12  1  0
 12 13  2  0
 12 14  1  0
 14 15  1  0
 15 16  2  0
 16 17  1  0
 17 18  2  0
 18 19  1  0
 19 20  2  0
 20 21  1  0
 21 22  2  0
  5 23  1  0
 23 24  2  0
 24 25  1  0
 25 26  2  0
 25 27  2  0
 25 28  1  0
 28 29  1  0
 29 30  1  0
 30 31  1  0
 31 32  1  0
 32 33  1  0
 24  2  1  0
 33 28  1  0
 21 11  1  0
 20 15  1  0
  1 34  1  0
  1 35  1  0
  1 36  1  0
  3 37  1  0
  4 38  1  0
  6 39  1  0
  9 40  1  0
  9 41  1  0
 10 42  1  0
 10 43  1  0
 16 44  1  0
 17 45  1  0
 18 46  1  0
 19 47  1  0
 23 48  1  0
 29 49  1  0
 29 50  1  0
 30 51  1  0
 30 52  1  0
 31 53  1  0
 31 54  1  0
 32 55  1  0
 32 56  1  0
 33 57  1  0
 33 58  1  0
M  CHG  1  14  -1
M  END
>  <UniqueID>  (43) 
41

>  <SMILES>  (43) 
Cc1ccc(NC(=O)CCn2c(=O)[n-]c3ccccc3c2=O)cc1S(=O)(=O)N1CCCCC1

>  <Energy>  (43) 
75.18298972054237

>  <Genealogy>  (43) 
Cc1ccc(NC(=O)CCn2c(=O)[n-]c3ccccc3c2=O)cc1S(=O)(=O)N1CCCCC1 (protonated)
Cc1ccc(NC(=O)CCn2c(=O)[n-]c3ccccc3c2=O)cc1S(=O)(=O)N1CCCCC1 (3D coordinates assigned)
Cc1ccc(NC(=O)CCn2c(=O)[n-]c3ccccc3c2=O)cc1S(=O)(=O)N1CCCCC1 (nonaromatic ring conformer: 75.18298972054237 kcal/mol)

>  <smiles>  (43) 
Cc1ccc(NC(=O)CCn2c(=O)[nH]c3ccccc3c2=O)cc1S(=O)(=O)N1CCCCC1

>  <score_type>  (43) 
oracle

>  <origin>  (43) 
adgpu

>  <m_score__min__energy>  (43) 
-11.369999999999999

>  <m_primary>  (43) 
energy

$$$$
43:0
     RDKit          3D

 31 33  0  0  0  0  0  0  0  0999 V2000
   -5.7490   14.2870  -34.1980 C   0  0  0  0  0  0  0  0  0  0  0  0
   -6.6140   15.3560  -34.5680 O   0  0  0  0  0  0  0  0  0  0  0  0
   -6.5120   16.6630  -34.0700 C   0  0  0  0  0  0  0  0  0  0  0  0
   -7.1720   16.9750  -32.8770 C   0  0  0  0  0  0  0  0  0  0  0  0
   -7.1030   18.2620  -32.3370 C   0  0  0  0  0  0  0  0  0  0  0  0
   -6.3670   19.2700  -32.9870 C   0  0  0  0  0  0  0  0  0  0  0  0
   -6.2780   20.6450  -32.4350 C   0  0  0  0  0  0  0  0  0  0  0  0
   -5.1460   21.1660  -31.9160 N   0  0  0  0  0  0  0  0  0  0  0  0
   -5.5400   22.4040  -31.5530 C   0  0  0  0  0  0  0  0  0  0  0  0
   -4.6540   23.3900  -30.9250 C   0  0  0  0  0  0  0  0  0  0  0  0
   -3.7060   23.1300  -29.9580 C   0  0  0  0  0  0  0  0  0  0  0  0
   -3.1500   24.3670  -29.7060 C   0  0  0  0  0  0  0  0  0  0  0  0
   -2.1080   24.6660  -28.6750 C   0  0  0  0  0  0  0  0  0  0  0  0
   -2.6730   24.6560  -27.4140 F   0  0  0  0  0  0  0  0  0  0  0  0
   -1.5550   25.9110  -28.9100 F   0  0  0  0  0  0  0  0  0  0  0  0
   -1.1140   23.7070  -28.7360 F   0  0  0  0  0  0  0  0  0  0  0  0
   -3.7520   25.3030  -30.4660 N   0  0  0  0  0  0  0  0  0  0  0  0
   -4.6660   24.7050  -31.2160 N   0  0  0  0  0  0  0  0  0  0  0  0
   -6.8360   22.6380  -31.8280 N   0  0  0  0  0  0  0  0  0  0  0  0
   -7.2920   21.5300  -32.3810 N   0  0  0  0  0  0  0  0  0  0  0  0
   -5.7030   18.9540  -34.1870 C   0  0  0  0  0  0  0  0  0  0  0  0
   -5.7740   17.6670  -34.7250 C   0  0  0  0  0  0  0  0  0  0  0  0
   -5.6958   14.2212  -33.1013 H   0  0  0  0  0  0  0  0  0  0  0  0
   -6.1397   13.3421  -34.6035 H   0  0  0  0  0  0  0  0  0  0  0  0
   -4.7433   14.4720  -34.6035 H   0  0  0  0  0  0  0  0  0  0  0  0
   -7.7523   16.1981  -32.3577 H   0  0  0  0  0  0  0  0  0  0  0  0
   -7.6277   18.4888  -31.3972 H   0  0  0  0  0  0  0  0  0  0  0  0
   -3.4529   22.1641  -29.4965 H   0  0  0  0  0  0  0  0  0  0  0  0
   -8.2750   21.4070  -32.7060 H   0  0  0  0  0  0  0  0  0  0  0  0
   -5.1215   19.7294  -34.7071 H   0  0  0  0  0  0  0  0  0  0  0  0
   -5.2508   17.4369  -35.6649 H   0  0  0  0  0  0  0  0  0  0  0  0
  1  2  1  0
  2  3  1  0
  3  4  2  0
  4  5  1  0
  5  6  2  0
  6  7  1  0
  7  8  2  0
  8  9  1  0
  9 10  1  0
 10 11  1  0
 11 12  2  0
 12 13  1  0
 13 14  1  0
 13 15  1  0
 13 16  1  0
 12 17  1  0
 17 18  1  0
  9 19  2  0
 19 20  1  0
  6 21  1  0
 21 22  2  0
 22  3  1  0
 20  7  1  0
 18 10  2  0
  1 23  1  0
  1 24  1  0
  1 25  1  0
  4 26  1  0
  5 27  1  0
 11 28  1  0
 20 29  1  0
 21 30  1  0
 22 31  1  0
M  CHG  1  17  -1
M  END
>  <UniqueID>  (44) 
42

>  <SMILES>  (44) 
COc1ccc(-c2nc(-c3cc(C(F)(F)F)[n-]n3)n[nH]2)cc1

>  <Energy>  (44) 
94.22610723425136

>  <Genealogy>  (44) 
COc1ccc(-c2nc(-c3cc(C(F)(F)F)[n-]n3)n[nH]2)cc1 (protonated)
COc1ccc(-c2nc(-c3cc(C(F)(F)F)[n-]n3)n[nH]2)cc1 (3D coordinates assigned)
COc1ccc(-c2nc(-c3cc(C(F)(F)F)[n-]n3)n[nH]2)cc1 (optimized conformer: 94.22610723425136 kcal/mol)

>  <smiles>  (44) 
COc1ccc(-c2nc(-c3cc(C(F)(F)F)[nH]n3)n[nH]2)cc1

>  <score_type>  (44) 
oracle

>  <origin>  (44) 
adgpu

>  <m_score__min__energy>  (44) 
-8.5800000000000001

>  <m_primary>  (44) 
energy

$$$$
44:0
     RDKit          3D

 52 55  0  0  0  0  0  0  0  0999 V2000
   -5.4780   26.0530  -30.8600 O   0  0  0  0  0  0  0  0  0  0  0  0
   -4.8420   24.9640  -30.8420 C   0  0  0  0  0  0  0  0  0  0  0  0
   -3.4730   24.9490  -30.4150 N   0  0  0  0  0  0  0  0  0  0  0  0
   -2.9130   24.1710  -29.3470 C   0  0  0  0  0  0  0  0  0  0  0  0
   -3.5540   23.0260  -28.8420 C   0  0  0  0  0  0  0  0  0  0  0  0
   -2.9630   22.2850  -27.8150 C   0  0  0  0  0  0  0  0  0  0  0  0
   -1.7240   22.6670  -27.2980 C   0  0  0  0  0  0  0  0  0  0  0  0
   -1.0570   23.7850  -27.8170 C   0  0  0  0  0  0  0  0  0  0  0  0
    0.5300   24.2430  -27.1940 S   0  0  0  0  0  0  0  0  0  0  0  0
    1.4640   24.4770  -28.3500 O   0  0  0  0  0  0  0  0  0  0  0  0
    1.0830   23.1120  -26.3730 O   0  0  0  0  0  0  0  0  0  0  0  0
    0.4460   25.6900  -26.2140 N   0  0  0  0  0  0  0  0  0  0  0  0
    0.6030   25.3430  -24.7800 C   0  0  0  0  0  0  0  0  0  0  0  0
    0.1080   26.4730  -23.8710 C   0  0  0  0  0  0  0  0  0  0  0  0
   -1.3950   26.7340  -24.0790 C   0  0  0  0  0  0  0  0  0  0  0  0
   -1.8840   26.3110  -25.4750 C   0  0  0  0  0  0  0  0  0  0  0  0
   -0.7760   26.4840  -26.5250 C   0  0  0  0  0  0  0  0  0  0  0  0
   -1.6580   24.5320  -28.8420 C   0  0  0  0  0  0  0  0  0  0  0  0
   -5.5040   23.7160  -31.3180 C   0  0  0  0  0  0  0  0  0  0  0  0
   -4.7330   22.7280  -31.9540 C   0  0  0  0  0  0  0  0  0  0  0  0
   -5.3050   21.5810  -32.3990 N   0  0  0  0  0  0  0  0  0  0  0  0
   -6.6320   21.3240  -32.2580 C   0  0  0  0  0  0  0  0  0  0  0  0
   -7.1770   20.1110  -32.7380 C   0  0  0  0  0  0  0  0  0  0  0  0
   -6.2920   19.0880  -33.4160 C   0  0  0  0  0  0  0  0  0  0  0  0
   -6.9130   17.8520  -33.3930 F   0  0  0  0  0  0  0  0  0  0  0  0
   -6.0750   19.4610  -34.7300 F   0  0  0  0  0  0  0  0  0  0  0  0
   -5.0640   18.9710  -32.7880 F   0  0  0  0  0  0  0  0  0  0  0  0
   -8.5550   19.8730  -32.5770 C   0  0  0  0  0  0  0  0  0  0  0  0
   -9.3710   20.8160  -31.9540 C   0  0  0  0  0  0  0  0  0  0  0  0
   -8.8340   22.0130  -31.4810 C   0  0  0  0  0  0  0  0  0  0  0  0
   -7.4620   22.2800  -31.6260 C   0  0  0  0  0  0  0  0  0  0  0  0
   -6.8900   23.4820  -31.1570 C   0  0  0  0  0  0  0  0  0  0  0  0
   -7.6230   24.3420  -30.5930 O   0  0  0  0  0  0  0  0  0  0  0  0
   -4.5235   22.7125  -29.2565 H   0  0  0  0  0  0  0  0  0  0  0  0
   -3.4755   21.3985  -27.4131 H   0  0  0  0  0  0  0  0  0  0  0  0
   -1.2695   22.0885  -26.4803 H   0  0  0  0  0  0  0  0  0  0  0  0
    1.2740   26.2710  -26.4870 H   0  0  0  0  0  0  0  0  0  0  0  0
    0.0230   24.4329  -24.5670 H   0  0  0  0  0  0  0  0  0  0  0  0
    1.6724   25.1820  -24.5791 H   0  0  0  0  0  0  0  0  0  0  0  0
    0.2820   26.1923  -22.8218 H   0  0  0  0  0  0  0  0  0  0  0  0
    0.6599   27.3907  -24.1225 H   0  0  0  0  0  0  0  0  0  0  0  0
   -1.9584   26.1681  -23.3225 H   0  0  0  0  0  0  0  0  0  0  0  0
   -1.5602   27.8173  -23.9835 H   0  0  0  0  0  0  0  0  0  0  0  0
   -2.1880   25.2543  -25.4443 H   0  0  0  0  0  0  0  0  0  0  0  0
   -2.7343   26.9499  -25.7558 H   0  0  0  0  0  0  0  0  0  0  0  0
   -1.1649   26.1616  -27.5022 H   0  0  0  0  0  0  0  0  0  0  0  0
   -0.4879   27.5456  -26.5294 H   0  0  0  0  0  0  0  0  0  0  0  0
   -1.1378   25.4099  -29.2527 H   0  0  0  0  0  0  0  0  0  0  0  0
   -3.6533   22.8864  -32.0926 H   0  0  0  0  0  0  0  0  0  0  0  0
   -8.9922   18.9337  -32.9464 H   0  0  0  0  0  0  0  0  0  0  0  0
  -10.4458   20.6146  -31.8347 H   0  0  0  0  0  0  0  0  0  0  0  0
   -9.4871   22.7511  -30.9924 H   0  0  0  0  0  0  0  0  0  0  0  0
  1  2  2  0
  2  3  1  0
  3  4  1  0
  4  5  2  0
  5  6  1  0
  6  7  2  0
  7  8  1  0
  8  9  1  0
  9 10  2  0
  9 11  2  0
  9 12  1  0
 12 13  1  0
 13 14  1  0
 14 15  1  0
 15 16  1  0
 16 17  1  0
  8 18  2  0
  2 19  1  0
 19 20  2  0
 20 21  1  0
 21 22  1  0
 22 23  2  0
 23 24  1  0
 24 25  1  0
 24 26  1  0
 24 27  1  0
 23 28  1  0
 28 29  2  0
 29 30  1  0
 30 31  2  0
 31 32  1  0
 32 33  2  0
 18  4  1  0
 32 19  1  0
 17 12  1  0
 31 22  1  0
  5 34  1  0
  6 35  1  0
  7 36  1  0
 12 37  1  0
 13 38  1  0
 13 39  1  0
 14 40  1  0
 14 41  1  0
 15 42  1  0
 15 43  1  0
 16 44  1  0
 16 45  1  0
 17 46  1  0
 17 47  1  0
 18 48  1  0
 20 49  1  0
 28 50  1  0
 29 51  1  0
 30 52  1  0
M  CHG  3   3  -1  12   1  21  -1
M  END
>  <UniqueID>  (45) 
43

>  <SMILES>  (45) 
O=C([N-]c1cccc(S(=O)(=O)[NH+]2CCCCC2)c1)c1c[n-]c2c(C(F)(F)F)cccc2c1=O

>  <Energy>  (45) 
73.15359677467667

>  <Genealogy>  (45) 
O=C([N-]c1cccc(S(=O)(=O)[NH+]2CCCCC2)c1)c1c[n-]c2c(C(F)(F)F)cccc2c1=O (protonated)
O=C([N-]c1cccc(S(=O)(=O)[NH+]2CCCCC2)c1)c1c[n-]c2c(C(F)(F)F)cccc2c1=O (3D coordinates assigned)
O=C([N-]c1cccc(S(=O)(=O)[NH+]2CCCCC2)c1)c1c[n-]c2c(C(F)(F)F)cccc2c1=O (nonaromatic ring conformer: 73.15359677467667 kcal/mol)

>  <smiles>  (45) 
O=C(Nc1cccc(S(=O)(=O)N2CCCCC2)c1)c1c[nH]c2c(C(F)(F)F)cccc2c1=O

>  <score_type>  (45) 
oracle

>  <origin>  (45) 
adgpu

>  <m_score__min__energy>  (45) 
-11.77

>  <m_primary>  (45) 
energy

$$$$
45:0
     RDKit          3D

 29 30  0  0  0  0  0  0  0  0999 V2000
   -7.2340   17.2650  -32.7040 C   0  0  0  0  0  0  0  0  0  0  0  0
   -6.6860   18.6680  -32.7020 C   0  0  0  0  0  0  0  0  0  0  0  0
   -5.3240   18.8750  -32.9730 C   0  0  0  0  0  0  0  0  0  0  0  0
   -4.7890   20.1640  -32.9810 C   0  0  0  0  0  0  0  0  0  0  0  0
   -5.6050   21.2740  -32.7350 C   0  0  0  0  0  0  0  0  0  0  0  0
   -5.0220   22.5880  -32.7250 N   0  0  0  0  0  0  0  0  0  0  0  0
   -5.0070   23.4510  -31.5770 C   0  0  0  0  0  0  0  0  0  0  0  0
   -6.2110   23.8960  -31.0200 C   0  0  0  0  0  0  0  0  0  0  0  0
   -6.1650   24.7100  -29.8870 C   0  0  0  0  0  0  0  0  0  0  0  0
   -7.2360   25.1300  -29.3710 O   0  0  0  0  0  0  0  0  0  0  0  0
   -4.9650   25.0500  -29.3410 N   0  0  0  0  0  0  0  0  0  0  0  0
   -3.8030   24.5980  -29.8870 C   0  0  0  0  0  0  0  0  0  0  0  0
   -2.6980   24.9120  -29.3720 O   0  0  0  0  0  0  0  0  0  0  0  0
   -3.8320   23.8060  -30.9880 N   0  0  0  0  0  0  0  0  0  0  0  0
   -6.9630   21.0750  -32.4400 C   0  0  0  0  0  0  0  0  0  0  0  0
   -7.5170   19.7820  -32.4360 C   0  0  0  0  0  0  0  0  0  0  0  0
   -8.9800   19.6070  -32.1170 C   0  0  0  0  0  0  0  0  0  0  0  0
   -7.3679   16.9222  -31.6674 H   0  0  0  0  0  0  0  0  0  0  0  0
   -8.2037   17.2509  -33.2230 H   0  0  0  0  0  0  0  0  0  0  0  0
   -6.5306   16.5973  -33.2230 H   0  0  0  0  0  0  0  0  0  0  0  0
   -4.6726   18.0133  -33.1809 H   0  0  0  0  0  0  0  0  0  0  0  0
   -3.7173   20.3086  -33.1823 H   0  0  0  0  0  0  0  0  0  0  0  0
   -4.6650   22.9710  -33.6310 H   0  0  0  0  0  0  0  0  0  0  0  0
   -7.1749   23.6100  -31.4662 H   0  0  0  0  0  0  0  0  0  0  0  0
   -4.9370   25.6600  -28.4930 H   0  0  0  0  0  0  0  0  0  0  0  0
   -7.6015   21.9405  -32.2092 H   0  0  0  0  0  0  0  0  0  0  0  0
   -9.1179   19.5905  -31.0258 H   0  0  0  0  0  0  0  0  0  0  0  0
   -9.5514   20.4432  -32.5462 H   0  0  0  0  0  0  0  0  0  0  0  0
   -9.3381   18.6596  -32.5462 H   0  0  0  0  0  0  0  0  0  0  0  0
  1  2  1  0
  2  3  2  0
  3  4  1  0
  4  5  2  0
  5  6  1  0
  6  7  1  0
  7  8  2  0
  8  9  1  0
  9 10  2  0
  9 11  1  0
 11 12  1  0
 12 13  2  0
 12 14  1  0
  5 15  1  0
 15 16  2  0
 16 17  1  0
 16  2  1  0
 14  7  1  0
  1 18  1  0
  1 19  1  0
  1 20  1  0
  3 21  1  0
  4 22  1  0
  6 23  1  0
  8 24  1  0
 11 25  1  0
 15 26  1  0
 17 27  1  0
 17 28  1  0
 17 29  1  0
M  CHG  1  14  -1
M  END
>  <UniqueID>  (46) 
44

>  <SMILES>  (46) 
Cc1ccc(Nc2cc(=O)[nH]c(=O)[n-]2)cc1C

>  <Energy>  (46) 
34.28843437435635

>  <Genealogy>  (46) 
Cc1ccc(Nc2cc(=O)[nH]c(=O)[n-]2)cc1C (protonated)
Cc1ccc(Nc2cc(=O)[nH]c(=O)[n-]2)cc1C (3D coordinates assigned)
Cc1ccc(Nc2cc(=O)[nH]c(=O)[n-]2)cc1C (optimized conformer: 34.28843437435635 kcal/mol)

>  <smiles>  (46) 
Cc1ccc(Nc2cc(=O)[nH]c(=O)[nH]2)cc1C

>  <score_type>  (46) 
oracle

>  <origin>  (46) 
adgpu

>  <m_score__min__energy>  (46) 
-8.4199999999999999

>  <m_primary>  (46) 
energy

$$$$
46:0
     RDKit          3D

 49 52  0  0  0  0  0  0  0  0999 V2000
   -3.8300   25.3050  -30.4420 N   0  0  0  0  0  0  0  0  0  0  0  0
   -4.2980   23.6800  -30.0670 S   0  0  0  0  0  0  0  0  0  0  0  0
   -5.7950   23.5580  -30.1230 O   0  0  0  0  0  0  0  0  0  0  0  0
   -3.8240   23.3400  -28.6810 O   0  0  0  0  0  0  0  0  0  0  0  0
   -3.5880   22.5810  -31.2440 C   0  0  0  0  0  0  0  0  0  0  0  0
   -4.1020   22.5110  -32.5420 C   0  0  0  0  0  0  0  0  0  0  0  0
   -3.5570   21.6110  -33.4610 C   0  0  0  0  0  0  0  0  0  0  0  0
   -2.5140   20.7650  -33.0620 C   0  0  0  0  0  0  0  0  0  0  0  0
   -1.9290   19.7540  -34.0050 C   0  0  0  0  0  0  0  0  0  0  0  0
   -2.1860   18.4310  -33.5330 O   0  0  0  0  0  0  0  0  0  0  0  0
   -3.4570   17.9090  -33.2410 C   0  0  0  0  0  0  0  0  0  0  0  0
   -4.5720   18.7350  -33.0210 C   0  0  0  0  0  0  0  0  0  0  0  0
   -5.8270   18.1810  -32.7100 C   0  0  0  0  0  0  0  0  0  0  0  0
   -7.0050   19.0600  -32.4980 C   0  0  0  0  0  0  0  0  0  0  0  0
   -6.8390   20.4310  -32.2340 C   0  0  0  0  0  0  0  0  0  0  0  0
   -7.9520   21.2510  -32.0260 C   0  0  0  0  0  0  0  0  0  0  0  0
   -9.2380   20.7130  -32.0690 C   0  0  0  0  0  0  0  0  0  0  0  0
   -9.4150   19.3530  -32.3260 C   0  0  0  0  0  0  0  0  0  0  0  0
   -8.3070   18.5280  -32.5390 C   0  0  0  0  0  0  0  0  0  0  0  0
   -5.9550   16.7860  -32.6240 C   0  0  0  0  0  0  0  0  0  0  0  0
   -4.8570   15.9450  -32.8630 C   0  0  0  0  0  0  0  0  0  0  0  0
   -5.0300   14.4740  -32.7760 C   0  0  0  0  0  0  0  0  0  0  0  0
   -5.6130   13.7680  -33.8390 C   0  0  0  0  0  0  0  0  0  0  0  0
   -5.7860   12.3840  -33.7520 C   0  0  0  0  0  0  0  0  0  0  0  0
   -5.3720   11.6930  -32.6090 C   0  0  0  0  0  0  0  0  0  0  0  0
   -4.7780   12.3830  -31.5550 C   0  0  0  0  0  0  0  0  0  0  0  0
   -4.6070   13.7670  -31.6360 C   0  0  0  0  0  0  0  0  0  0  0  0
   -3.6050   16.5170  -33.1690 C   0  0  0  0  0  0  0  0  0  0  0  0
   -2.4920   15.7070  -33.3710 O   0  0  0  0  0  0  0  0  0  0  0  0
   -2.0320   20.8510  -31.7910 N   0  0  0  0  0  0  0  0  0  0  0  0
   -2.5340   21.7350  -30.8870 C   0  0  0  0  0  0  0  0  0  0  0  0
   -2.8230   25.2860  -30.7100 H   0  0  0  0  0  0  0  0  0  0  0  0
   -4.9354   23.1644  -32.8397 H   0  0  0  0  0  0  0  0  0  0  0  0
   -3.9437   21.5669  -34.4898 H   0  0  0  0  0  0  0  0  0  0  0  0
   -2.3829   19.8794  -34.9991 H   0  0  0  0  0  0  0  0  0  0  0  0
   -0.8415   19.9079  -34.0658 H   0  0  0  0  0  0  0  0  0  0  0  0
   -4.4623   19.8272  -33.0928 H   0  0  0  0  0  0  0  0  0  0  0  0
   -5.8274   20.8609  -32.1909 H   0  0  0  0  0  0  0  0  0  0  0  0
   -7.8130   22.3240  -31.8278 H   0  0  0  0  0  0  0  0  0  0  0  0
  -10.1116   21.3599  -31.9005 H   0  0  0  0  0  0  0  0  0  0  0  0
  -10.4294   18.9289  -32.3611 H   0  0  0  0  0  0  0  0  0  0  0  0
   -8.4537   17.4565  -32.7399 H   0  0  0  0  0  0  0  0  0  0  0  0
   -6.9294   16.3457  -32.3657 H   0  0  0  0  0  0  0  0  0  0  0  0
   -5.9348   14.3053  -34.7433 H   0  0  0  0  0  0  0  0  0  0  0  0
   -6.2495   11.8362  -34.5857 H   0  0  0  0  0  0  0  0  0  0  0  0
   -5.5155   10.6044  -32.5423 H   0  0  0  0  0  0  0  0  0  0  0  0
   -4.4438   11.8385  -30.6595 H   0  0  0  0  0  0  0  0  0  0  0  0
   -4.1377   14.3084  -30.8014 H   0  0  0  0  0  0  0  0  0  0  0  0
   -2.1098   21.7842  -29.8733 H   0  0  0  0  0  0  0  0  0  0  0  0
  1  2  1  0
  2  3  2  0
  2  4  2  0
  2  5  1  0
  5  6  2  0
  6  7  1  0
  7  8  2  0
  8  9  1  0
  9 10  1  0
 10 11  1  0
 11 12  2  0
 12 13  1  0
 13 14  1  0
 14 15  2  0
 15 16  1  0
 16 17  2  0
 17 18  1  0
 18 19  2  0
 13 20  2  0
 20 21  1  0
 21 22  1  0
 22 23  2  0
 23 24  1  0
 24 25  2  0
 25 26  1  0
 26 27  2  0
 21 28  2  0
 28 29  1  0
  8 30  1  0
 30 31  2  0
 31  5  1  0
 28 11  1  0
 19 14  1  0
 27 22  1  0
  1 32  1  0
  6 33  1  0
  7 34  1  0
  9 35  1  0
  9 36  1  0
 12 37  1  0
 15 38  1  0
 16 39  1  0
 17 40  1  0
 18 41  1  0
 19 42  1  0
 20 43  1  0
 23 44  1  0
 24 45  1  0
 25 46  1  0
 26 47  1  0
 27 48  1  0
 31 49  1  0
M  CHG  2   1  -1  29  -1
M  END
>  <UniqueID>  (47) 
45

>  <SMILES>  (47) 
[NH-]S(=O)(=O)c1ccc(COc2cc(-c3ccccc3)cc(-c3ccccc3)c2[O-])nc1

>  <Energy>  (47) 
66.27547309334439

>  <Genealogy>  (47) 
[NH-]S(=O)(=O)c1ccc(COc2cc(-c3ccccc3)cc(-c3ccccc3)c2[O-])nc1 (protonated)
[NH-]S(=O)(=O)c1ccc(COc2cc(-c3ccccc3)cc(-c3ccccc3)c2[O-])nc1 (3D coordinates assigned)
[NH-]S(=O)(=O)c1ccc(COc2cc(-c3ccccc3)cc(-c3ccccc3)c2[O-])nc1 (optimized conformer: 66.27547309334439 kcal/mol)

>  <smiles>  (47) 
NS(=O)(=O)c1ccc(COc2cc(-c3ccccc3)cc(-c3ccccc3)c2O)nc1

>  <score_type>  (47) 
oracle

>  <origin>  (47) 
adgpu

>  <m_score__min__energy>  (47) 
-12.51

>  <m_primary>  (47) 
energy

$$$$
47:0
     RDKit          3D

 42 45  0  0  0  0  0  0  0  0999 V2000
   -3.6510   22.2370  -32.0980 C   0  0  0  0  0  0  0  0  0  0  0  0
   -5.0150   22.5510  -31.5570 C   0  0  0  0  0  0  0  0  0  0  0  0
   -6.0400   21.7280  -31.9140 N   0  0  0  0  0  0  0  0  0  0  0  0
   -7.3210   21.9250  -31.5020 C   0  0  0  0  0  0  0  0  0  0  0  0
   -8.4050   20.9890  -31.9460 C   0  0  0  0  0  0  0  0  0  0  0  0
   -9.5470   21.7060  -32.2540 F   0  0  0  0  0  0  0  0  0  0  0  0
   -7.9870   20.2960  -33.0680 F   0  0  0  0  0  0  0  0  0  0  0  0
   -8.7050   20.0820  -30.9450 F   0  0  0  0  0  0  0  0  0  0  0  0
   -7.6190   23.0220  -30.6900 C   0  0  0  0  0  0  0  0  0  0  0  0
   -6.5980   23.8850  -30.2980 C   0  0  0  0  0  0  0  0  0  0  0  0
   -5.2720   23.6640  -30.7130 C   0  0  0  0  0  0  0  0  0  0  0  0
   -4.2140   24.6030  -30.2510 C   0  0  0  0  0  0  0  0  0  0  0  0
   -3.9810   25.6690  -30.8820 O   0  0  0  0  0  0  0  0  0  0  0  0
   -3.4720   24.3030  -29.0610 N   0  0  0  0  0  0  0  0  0  0  0  0
   -2.7050   23.1170  -28.8040 C   0  0  0  0  0  0  0  0  0  0  0  0
   -3.1450   22.1230  -27.9140 C   0  0  0  0  0  0  0  0  0  0  0  0
   -2.3580   20.9930  -27.6730 C   0  0  0  0  0  0  0  0  0  0  0  0
   -1.1110   20.8420  -28.3050 C   0  0  0  0  0  0  0  0  0  0  0  0
   -0.2690   19.6480  -28.0580 C   0  0  0  0  0  0  0  0  0  0  0  0
    1.0560   19.6010  -28.3540 N   0  0  0  0  0  0  0  0  0  0  0  0
    1.5930   18.3970  -28.0320 C   0  0  0  0  0  0  0  0  0  0  0  0
    2.9330   18.0540  -28.2210 C   0  0  0  0  0  0  0  0  0  0  0  0
    3.3620   16.7700  -27.8430 C   0  0  0  0  0  0  0  0  0  0  0  0
    2.4520   15.8490  -27.2850 C   0  0  0  0  0  0  0  0  0  0  0  0
    1.1070   16.2040  -27.0990 C   0  0  0  0  0  0  0  0  0  0  0  0
    0.7090   17.4830  -27.4820 C   0  0  0  0  0  0  0  0  0  0  0  0
   -0.8100   18.1850  -27.3850 S   0  0  0  0  0  0  0  0  0  0  0  0
   -0.6660   21.8530  -29.1750 C   0  0  0  0  0  0  0  0  0  0  0  0
   -1.4530   22.9810  -29.4130 C   0  0  0  0  0  0  0  0  0  0  0  0
   -2.9533   22.0764  -31.2628 H   0  0  0  0  0  0  0  0  0  0  0  0
   -3.7014   21.3270  -32.7139 H   0  0  0  0  0  0  0  0  0  0  0  0
   -3.2984   23.0775  -32.7139 H   0  0  0  0  0  0  0  0  0  0  0  0
   -8.6533   23.2032  -30.3622 H   0  0  0  0  0  0  0  0  0  0  0  0
   -6.8310   24.7482  -29.6573 H   0  0  0  0  0  0  0  0  0  0  0  0
   -4.1134   22.2344  -27.4043 H   0  0  0  0  0  0  0  0  0  0  0  0
   -2.7173   20.2153  -26.9830 H   0  0  0  0  0  0  0  0  0  0  0  0
    3.6398   18.7750  -28.6575 H   0  0  0  0  0  0  0  0  0  0  0  0
    4.4143   16.4819  -27.9834 H   0  0  0  0  0  0  0  0  0  0  0  0
    2.7982   14.8464  -26.9937 H   0  0  0  0  0  0  0  0  0  0  0  0
    0.3886   15.4937  -26.6639 H   0  0  0  0  0  0  0  0  0  0  0  0
    0.3103   21.7542  -29.6721 H   0  0  0  0  0  0  0  0  0  0  0  0
   -1.0854   23.7701  -30.0855 H   0  0  0  0  0  0  0  0  0  0  0  0
  1  2  1  0
  2  3  2  0
  3  4  1  0
  4  5  1  0
  5  6  1  0
  5  7  1  0
  5  8  1  0
  4  9  2  0
  9 10  1  0
 10 11  2  0
 11 12  1  0
 12 13  2  0
 12 14  1  0
 14 15  1  0
 15 16  2  0
 16 17  1  0
 17 18  2  0
 18 19  1  0
 19 20  2  0
 20 21  1  0
 21 22  2  0
 22 23  1  0
 23 24  2  0
 24 25  1  0
 25 26  2  0
 26 27  1  0
 18 28  1  0
 28 29  2  0
 11  2  1  0
 29 15  1  0
 27 19  1  0
 26 21  1  0
  1 30  1  0
  1 31  1  0
  1 32  1  0
  9 33  1  0
 10 34  1  0
 16 35  1  0
 17 36  1  0
 22 37  1  0
 23 38  1  0
 24 39  1  0
 25 40  1  0
 28 41  1  0
 29 42  1  0
M  CHG  1  14  -1
M  END
>  <UniqueID>  (48) 
46

>  <SMILES>  (48) 
Cc1nc(C(F)(F)F)ccc1C(=O)[N-]c1ccc(-c2nc3ccccc3s2)cc1

>  <Energy>  (48) 
89.43344432004426

>  <Genealogy>  (48) 
Cc1nc(C(F)(F)F)ccc1C(=O)[N-]c1ccc(-c2nc3ccccc3s2)cc1 (protonated)
Cc1nc(C(F)(F)F)ccc1C(=O)[N-]c1ccc(-c2nc3ccccc3s2)cc1 (3D coordinates assigned)
Cc1nc(C(F)(F)F)ccc1C(=O)[N-]c1ccc(-c2nc3ccccc3s2)cc1 (optimized conformer: 89.43344432004426 kcal/mol)

>  <smiles>  (48) 
Cc1nc(C(F)(F)F)ccc1C(=O)Nc1ccc(-c2nc3ccccc3s2)cc1

>  <score_type>  (48) 
oracle

>  <origin>  (48) 
adgpu

>  <m_score__min__energy>  (48) 
-10.09

>  <m_primary>  (48) 
energy

$$$$
48:0
     RDKit          3D

 46 48  0  0  0  0  0  0  0  0999 V2000
   -8.8050   22.2560  -31.5930 C   0  0  0  0  0  0  0  0  0  0  0  0
   -7.5230   22.9840  -31.3140 C   0  0  0  0  0  0  0  0  0  0  0  0
   -6.5760   23.1800  -32.3310 C   0  0  0  0  0  0  0  0  0  0  0  0
   -5.3720   23.8400  -32.0590 C   0  0  0  0  0  0  0  0  0  0  0  0
   -5.0940   24.3030  -30.7590 C   0  0  0  0  0  0  0  0  0  0  0  0
   -3.8760   24.9910  -30.4380 N   0  0  0  0  0  0  0  0  0  0  0  0
   -2.6150   24.3650  -29.4220 S   0  0  0  0  0  0  0  0  0  0  0  0
   -3.1670   24.1400  -28.0400 O   0  0  0  0  0  0  0  0  0  0  0  0
   -1.5040   25.3730  -29.3400 O   0  0  0  0  0  0  0  0  0  0  0  0
   -1.9770   22.8780  -30.1300 C   0  0  0  0  0  0  0  0  0  0  0  0
   -2.7290   22.2420  -31.1300 C   0  0  0  0  0  0  0  0  0  0  0  0
   -2.2530   21.0770  -31.7470 C   0  0  0  0  0  0  0  0  0  0  0  0
   -3.1770   20.3220  -33.0500 S   0  0  0  0  0  0  0  0  0  0  0  0
   -2.2300   19.6390  -33.9980 O   0  0  0  0  0  0  0  0  0  0  0  0
   -3.8970   21.3960  -33.8180 O   0  0  0  0  0  0  0  0  0  0  0  0
   -4.3440   19.1590  -32.4530 N   0  0  0  0  0  0  0  0  0  0  0  0
   -4.4380   17.9530  -33.3060 C   0  0  0  0  0  0  0  0  0  0  0  0
   -5.6880   17.9480  -34.2020 C   0  0  0  0  0  0  0  0  0  0  0  0
   -6.0510   19.2670  -34.5460 O   0  0  0  0  0  0  0  0  0  0  0  0
   -6.5530   19.9330  -33.4020 C   0  0  0  0  0  0  0  0  0  0  0  0
   -5.6530   19.7730  -32.1510 C   0  0  0  0  0  0  0  0  0  0  0  0
   -1.0340   20.5280  -31.3390 C   0  0  0  0  0  0  0  0  0  0  0  0
   -0.2830   21.1470  -30.3360 C   0  0  0  0  0  0  0  0  0  0  0  0
   -0.7430   22.3260  -29.7310 C   0  0  0  0  0  0  0  0  0  0  0  0
    0.0240   22.9390  -28.7410 O   0  0  0  0  0  0  0  0  0  0  0  0
   -6.0310   24.0850  -29.7410 C   0  0  0  0  0  0  0  0  0  0  0  0
   -7.2370   23.4280  -30.0140 C   0  0  0  0  0  0  0  0  0  0  0  0
   -9.2860   21.9829  -30.6422 H   0  0  0  0  0  0  0  0  0  0  0  0
   -9.4779   22.9067  -32.1707 H   0  0  0  0  0  0  0  0  0  0  0  0
   -8.5909   21.3447  -32.1707 H   0  0  0  0  0  0  0  0  0  0  0  0
   -6.7810   22.8129  -33.3475 H   0  0  0  0  0  0  0  0  0  0  0  0
   -4.6398   23.9976  -32.8646 H   0  0  0  0  0  0  0  0  0  0  0  0
   -3.7000   22.6614  -31.4320 H   0  0  0  0  0  0  0  0  0  0  0  0
   -3.5460   17.9072  -33.9481 H   0  0  0  0  0  0  0  0  0  0  0  0
   -4.5078   17.0817  -32.6382 H   0  0  0  0  0  0  0  0  0  0  0  0
   -5.4743   17.3798  -35.1193 H   0  0  0  0  0  0  0  0  0  0  0  0
   -6.5189   17.4806  -33.6532 H   0  0  0  0  0  0  0  0  0  0  0  0
   -6.6408   21.0048  -33.6333 H   0  0  0  0  0  0  0  0  0  0  0  0
   -7.5252   19.4777  -33.1623 H   0  0  0  0  0  0  0  0  0  0  0  0
   -5.4806   20.7678  -31.7144 H   0  0  0  0  0  0  0  0  0  0  0  0
   -6.1767   19.1022  -31.4541 H   0  0  0  0  0  0  0  0  0  0  0  0
   -0.6643   19.6049  -31.8093 H   0  0  0  0  0  0  0  0  0  0  0  0
    0.6742   20.7072  -30.0192 H   0  0  0  0  0  0  0  0  0  0  0  0
   -0.1690   23.8860  -28.4280 H   0  0  0  0  0  0  0  0  0  0  0  0
   -5.8178   24.4325  -28.7193 H   0  0  0  0  0  0  0  0  0  0  0  0
   -7.9636   23.2591  -29.2056 H   0  0  0  0  0  0  0  0  0  0  0  0
  1  2  1  0
  2  3  2  0
  3  4  1  0
  4  5  2  0
  5  6  1  0
  6  7  1  0
  7  8  2  0
  7  9  2  0
  7 10  1  0
 10 11  2  0
 11 12  1  0
 12 13  1  0
 13 14  2  0
 13 15  2  0
 13 16  1  0
 16 17  1  0
 17 18  1  0
 18 19  1  0
 19 20  1  0
 20 21  1  0
 12 22  2  0
 22 23  1  0
 23 24  2  0
 24 25  1  0
  5 26  1  0
 26 27  2  0
 27  2  1  0
 24 10  1  0
 21 16  1  0
  1 28  1  0
  1 29  1  0
  1 30  1  0
  3 31  1  0
  4 32  1  0
 11 33  1  0
 17 34  1  0
 17 35  1  0
 18 36  1  0
 18 37  1  0
 20 38  1  0
 20 39  1  0
 21 40  1  0
 21 41  1  0
 22 42  1  0
 23 43  1  0
 25 44  1  0
 26 45  1  0
 27 46  1  0
M  CHG  1   6  -1
M  END
>  <UniqueID>  (49) 
47

>  <SMILES>  (49) 
Cc1ccc([N-]S(=O)(=O)c2cc(S(=O)(=O)N3CCOCC3)ccc2O)cc1

>  <Energy>  (49) 
60.65293928149041

>  <Genealogy>  (49) 
Cc1ccc([N-]S(=O)(=O)c2cc(S(=O)(=O)N3CCOCC3)ccc2O)cc1 (protonated)
Cc1ccc([N-]S(=O)(=O)c2cc(S(=O)(=O)N3CCOCC3)ccc2O)cc1 (3D coordinates assigned)
Cc1ccc([N-]S(=O)(=O)c2cc(S(=O)(=O)N3CCOCC3)ccc2O)cc1 (nonaromatic ring conformer: 60.65293928149041 kcal/mol)

>  <smiles>  (49) 
Cc1ccc(NS(=O)(=O)c2cc(S(=O)(=O)N3CCOCC3)ccc2O)cc1

>  <score_type>  (49) 
oracle

>  <origin>  (49) 
adgpu

>  <m_score__min__energy>  (49) 
-10.94

>  <m_primary>  (49) 
energy

$$$$
49:0
     RDKit          3D

 54 57  0  0  0  0  0  0  0  0999 V2000
   -8.8180   23.6390  -31.9460 O   0  0  0  0  0  0  0  0  0  0  0  0
   -7.8400   22.6040  -31.4650 S   0  0  0  0  0  0  0  0  0  0  0  0
   -8.4520   21.8680  -30.3060 O   0  0  0  0  0  0  0  0  0  0  0  0
   -7.5120   21.4890  -32.7490 N   0  0  0  0  0  0  0  0  0  0  0  0
   -7.0380   20.1460  -32.5740 C   0  0  0  0  0  0  0  0  0  0  0  0
   -7.7700   19.2780  -31.7580 C   0  0  0  0  0  0  0  0  0  0  0  0
   -7.3400   17.9640  -31.5550 C   0  0  0  0  0  0  0  0  0  0  0  0
   -6.1700   17.5040  -32.1670 C   0  0  0  0  0  0  0  0  0  0  0  0
   -5.7540   16.1940  -31.9480 O   0  0  0  0  0  0  0  0  0  0  0  0
   -5.4230   18.3640  -32.9890 C   0  0  0  0  0  0  0  0  0  0  0  0
   -3.9310   17.8020  -33.7530 S   0  0  0  0  0  0  0  0  0  0  0  0
   -4.0090   17.9810  -35.2460 O   0  0  0  0  0  0  0  0  0  0  0  0
   -3.7500   16.3380  -33.4500 O   0  0  0  0  0  0  0  0  0  0  0  0
   -2.5780   18.7120  -33.1300 N   0  0  0  0  0  0  0  0  0  0  0  0
   -3.0380   19.8980  -32.3640 C   0  0  0  0  0  0  0  0  0  0  0  0
   -2.8260   21.2220  -33.1100 C   0  0  0  0  0  0  0  0  0  0  0  0
   -1.3460   21.4200  -33.4810 C   0  0  0  0  0  0  0  0  0  0  0  0
   -0.6320   20.0950  -33.8100 C   0  0  0  0  0  0  0  0  0  0  0  0
   -1.6330   19.0110  -34.2260 C   0  0  0  0  0  0  0  0  0  0  0  0
   -5.8610   19.6820  -33.1850 C   0  0  0  0  0  0  0  0  0  0  0  0
   -6.3450   23.4090  -30.9940 C   0  0  0  0  0  0  0  0  0  0  0  0
   -6.2600   24.8050  -30.9570 C   0  0  0  0  0  0  0  0  0  0  0  0
   -5.0810   25.4240  -30.5350 C   0  0  0  0  0  0  0  0  0  0  0  0
   -3.9770   24.6550  -30.1500 C   0  0  0  0  0  0  0  0  0  0  0  0
   -2.8290   25.2990  -29.7000 O   0  0  0  0  0  0  0  0  0  0  0  0
   -4.0450   23.2470  -30.1990 C   0  0  0  0  0  0  0  0  0  0  0  0
   -2.8850   22.4030  -29.8130 C   0  0  0  0  0  0  0  0  0  0  0  0
   -3.0450   21.3380  -28.9090 C   0  0  0  0  0  0  0  0  0  0  0  0
   -1.9450   20.5640  -28.5280 C   0  0  0  0  0  0  0  0  0  0  0  0
   -0.6760   20.8480  -29.0420 C   0  0  0  0  0  0  0  0  0  0  0  0
   -0.5060   21.9070  -29.9350 C   0  0  0  0  0  0  0  0  0  0  0  0
   -1.6030   22.6820  -30.3220 C   0  0  0  0  0  0  0  0  0  0  0  0
   -5.2400   22.6360  -30.6170 C   0  0  0  0  0  0  0  0  0  0  0  0
   -8.6912   19.6321  -31.2722 H   0  0  0  0  0  0  0  0  0  0  0  0
   -7.9239   17.2893  -30.9116 H   0  0  0  0  0  0  0  0  0  0  0  0
   -4.1118   19.7834  -32.1545 H   0  0  0  0  0  0  0  0  0  0  0  0
   -2.4385   19.9435  -31.4428 H   0  0  0  0  0  0  0  0  0  0  0  0
   -3.4290   21.2162  -34.0300 H   0  0  0  0  0  0  0  0  0  0  0  0
   -3.1334   22.0469  -32.4504 H   0  0  0  0  0  0  0  0  0  0  0  0
   -1.2889   22.0781  -34.3605 H   0  0  0  0  0  0  0  0  0  0  0  0
   -0.8414   21.8611  -32.6087 H   0  0  0  0  0  0  0  0  0  0  0  0
    0.0758   20.2646  -34.6348 H   0  0  0  0  0  0  0  0  0  0  0  0
   -0.1038   19.7521  -32.9081 H   0  0  0  0  0  0  0  0  0  0  0  0
   -2.1982   19.3609  -35.1024 H   0  0  0  0  0  0  0  0  0  0  0  0
   -1.0754   18.0939  -34.4670 H   0  0  0  0  0  0  0  0  0  0  0  0
   -5.2764   20.3600  -33.8243 H   0  0  0  0  0  0  0  0  0  0  0  0
   -7.1228   25.4160  -31.2607 H   0  0  0  0  0  0  0  0  0  0  0  0
   -5.0200   26.5219  -30.5051 H   0  0  0  0  0  0  0  0  0  0  0  0
   -4.0408   21.1127  -28.4995 H   0  0  0  0  0  0  0  0  0  0  0  0
   -2.0779   19.7303  -27.8228 H   0  0  0  0  0  0  0  0  0  0  0  0
    0.1882   20.2368  -28.7426 H   0  0  0  0  0  0  0  0  0  0  0  0
    0.4935   22.1323  -30.3352 H   0  0  0  0  0  0  0  0  0  0  0  0
   -1.4635   23.5140  -31.0279 H   0  0  0  0  0  0  0  0  0  0  0  0
   -5.3078   21.5385  -30.6483 H   0  0  0  0  0  0  0  0  0  0  0  0
  1  2  2  0
  2  3  2  0
  2  4  1  0
  4  5  1  0
  5  6  2  0
  6  7  1  0
  7  8  2  0
  8  9  1  0
  8 10  1  0
 10 11  1  0
 11 12  2  0
 11 13  2  0
 11 14  1  0
 14 15  1  0
 15 16  1  0
 16 17  1  0
 17 18  1  0
 18 19  1  0
 10 20  2  0
  2 21  1  0
 21 22  2  0
 22 23  1  0
 23 24  2  0
 24 25  1  0
 24 26  1  0
 26 27  1  0
 27 28  2  0
 28 29  1  0
 29 30  2  0
 30 31  1  0
 31 32  2  0
 26 33  2  0
 20  5  1  0
 33 21  1  0
 19 14  1  0
 32 27  1  0
  6 34  1  0
  7 35  1  0
 15 36  1  0
 15 37  1  0
 16 38  1  0
 16 39  1  0
 17 40  1  0
 17 41  1  0
 18 42  1  0
 18 43  1  0
 19 44  1  0
 19 45  1  0
 20 46  1  0
 22 47  1  0
 23 48  1  0
 28 49  1  0
 29 50  1  0
 30 51  1  0
 31 52  1  0
 32 53  1  0
 33 54  1  0
M  CHG  3   4  -1   9  -1  25  -1
M  END
>  <UniqueID>  (50) 
48

>  <SMILES>  (50) 
O=S(=O)([N-]c1ccc([O-])c(S(=O)(=O)N2CCCCC2)c1)c1ccc([O-])c(-c2ccccc2)c1

>  <Energy>  (50) 
72.63843768607755

>  <Genealogy>  (50) 
O=S(=O)([N-]c1ccc([O-])c(S(=O)(=O)N2CCCCC2)c1)c1ccc([O-])c(-c2ccccc2)c1 (protonated)
O=S(=O)([N-]c1ccc([O-])c(S(=O)(=O)N2CCCCC2)c1)c1ccc([O-])c(-c2ccccc2)c1 (3D coordinates assigned)
O=S(=O)([N-]c1ccc([O-])c(S(=O)(=O)N2CCCCC2)c1)c1ccc([O-])c(-c2ccccc2)c1 (nonaromatic ring conformer: 72.63843768607755 kcal/mol)

>  <smiles>  (50) 
O=S(=O)(Nc1ccc(O)c(S(=O)(=O)N2CCCCC2)c1)c1ccc(O)c(-c2ccccc2)c1

>  <score_type>  (50) 
oracle

>  <origin>  (50) 
adgpu

>  <m_score__min__energy>  (50) 
-13.449999999999999

>  <m_primary>  (50) 
energy

$$$$
