0:0
     RDKit          3D

 40 42  0  0  0  0  0  0  0  0999 V2000
   -9.6330   21.0420  -32.0260 C   0  0  0  0  0  0  0  0  0  0  0  0
   -8.5240   20.3750  -31.2200 C   0  0  0  0  0  0  0  0  0  0  0  0
   -7.4200   19.8830  -32.1250 C   0  0  0  0  0  0  0  0  0  0  0  0
   -7.4580   18.5570  -32.5920 C   0  0  0  0  0  0  0  0  0  0  0  0
   -6.4890   18.0900  -33.4820 C   0  0  0  0  0  0  0  0  0  0  0  0
   -5.4780   18.9420  -33.9290 C   0  0  0  0  0  0  0  0  0  0  0  0
   -5.4340   20.2650  -33.4860 C   0  0  0  0  0  0  0  0  0  0  0  0
   -6.3940   20.7430  -32.5830 C   0  0  0  0  0  0  0  0  0  0  0  0
   -6.3220   22.1070  -32.1520 N   0  0  0  0  0  0  0  0  0  0  0  0
   -7.3220   22.9670  -32.2500 N   0  0  0  0  0  0  0  0  0  0  0  0
   -6.9580   24.1530  -31.7850 N   0  0  0  0  0  0  0  0  0  0  0  0
   -5.6770   24.0430  -31.3760 C   0  0  0  0  0  0  0  0  0  0  0  0
   -4.9190   25.1480  -30.7640 C   0  0  0  0  0  0  0  0  0  0  0  0
   -5.5210   26.2140  -30.4740 O   0  0  0  0  0  0  0  0  0  0  0  0
   -3.5130   25.0520  -30.4990 N   0  0  0  0  0  0  0  0  0  0  0  0
   -2.9150   24.4830  -29.3250 C   0  0  0  0  0  0  0  0  0  0  0  0
   -1.6410   24.9160  -28.9360 C   0  0  0  0  0  0  0  0  0  0  0  0
   -1.0260   24.3730  -27.8030 C   0  0  0  0  0  0  0  0  0  0  0  0
   -1.6880   23.4060  -27.0430 C   0  0  0  0  0  0  0  0  0  0  0  0
   -2.9690   22.9860  -27.4080 C   0  0  0  0  0  0  0  0  0  0  0  0
   -3.5880   23.5280  -28.5390 C   0  0  0  0  0  0  0  0  0  0  0  0
   -5.2580   22.7490  -31.6350 C   0  0  0  0  0  0  0  0  0  0  0  0
   -3.8880   22.1600  -31.4610 C   0  0  0  0  0  0  0  0  0  0  0  0
  -10.3696   21.4850  -31.3395 H   0  0  0  0  0  0  0  0  0  0  0  0
   -9.2019   21.8308  -32.6600 H   0  0  0  0  0  0  0  0  0  0  0  0
  -10.1277   20.2915  -32.6600 H   0  0  0  0  0  0  0  0  0  0  0  0
   -8.1083   21.1035  -30.5083 H   0  0  0  0  0  0  0  0  0  0  0  0
   -8.9490   19.5133  -30.6844 H   0  0  0  0  0  0  0  0  0  0  0  0
   -8.2579   17.8822  -32.2532 H   0  0  0  0  0  0  0  0  0  0  0  0
   -6.5225   17.0477  -33.8319 H   0  0  0  0  0  0  0  0  0  0  0  0
   -4.7160   18.5710  -34.6303 H   0  0  0  0  0  0  0  0  0  0  0  0
   -4.6413   20.9365  -33.8476 H   0  0  0  0  0  0  0  0  0  0  0  0
   -1.1216   25.6868  -29.5243 H   0  0  0  0  0  0  0  0  0  0  0  0
   -0.0199   24.7079  -27.5103 H   0  0  0  0  0  0  0  0  0  0  0  0
   -1.2001   22.9749  -26.1564 H   0  0  0  0  0  0  0  0  0  0  0  0
   -3.4915   22.2284  -26.8055 H   0  0  0  0  0  0  0  0  0  0  0  0
   -4.6033   23.2074  -28.8153 H   0  0  0  0  0  0  0  0  0  0  0  0
   -3.6638   22.0636  -30.3884 H   0  0  0  0  0  0  0  0  0  0  0  0
   -3.8529   21.1673  -31.9336 H   0  0  0  0  0  0  0  0  0  0  0  0
   -3.1435   22.8175  -31.9336 H   0  0  0  0  0  0  0  0  0  0  0  0
  1  2  1  0
  2  3  1  0
  3  4  2  0
  4  5  1  0
  5  6  2  0
  6  7  1  0
  7  8  2  0
  8  9  1  0
  9 10  1  0
 10 11  2  0
 11 12  1  0
 12 13  1  0
 13 14  2  0
 13 15  1  0
 15 16  1  0
 16 17  2  0
 17 18  1  0
 18 19  2  0
 19 20  1  0
 20 21  2  0
 12 22  2  0
 22 23  1  0
  8  3  1  0
 22  9  1  0
 21 16  1  0
  1 24  1  0
  1 25  1  0
  1 26  1  0
  2 27  1  0
  2 28  1  0
  4 29  1  0
  5 30  1  0
  6 31  1  0
  7 32  1  0
 17 33  1  0
 18 34  1  0
 19 35  1  0
 20 36  1  0
 21 37  1  0
 23 38  1  0
 23 39  1  0
 23 40  1  0
M  CHG  1  15  -1
M  END
>  <UniqueID>  (1) 
1

>  <SMILES>  (1) 
CCc1ccccc1-n1nnc(C(=O)[N-]c2ccccc2)c1C

>  <Energy>  (1) 
86.38430536376778

>  <Genealogy>  (1) 
CCc1ccccc1-n1nnc(C(=O)[N-]c2ccccc2)c1C (protonated)
CCc1ccccc1-n1nnc(C(=O)[N-]c2ccccc2)c1C (3D coordinates assigned)
CCc1ccccc1-n1nnc(C(=O)[N-]c2ccccc2)c1C (optimized conformer: 86.38430536376778 kcal/mol)

>  <smiles>  (1) 
CCc1ccccc1-n1nnc(C(=O)Nc2ccccc2)c1C

>  <score_type>  (1) 
oracle

>  <origin>  (1) 
adgpu

>  <m_score__min__energy>  (1) 
-10.539999999999999

>  <m_primary>  (1) 
energy

$$$$
1:0
     RDKit          3D

 34 35  0  0  0  0  0  0  0  0999 V2000
   -2.7910   18.7640  -26.3060 C   0  0  0  0  0  0  0  0  0  0  0  0
   -2.0440   19.3130  -27.3870 O   0  0  0  0  0  0  0  0  0  0  0  0
   -2.2050   20.6160  -27.8810 C   0  0  0  0  0  0  0  0  0  0  0  0
   -3.3130   21.4170  -27.5490 C   0  0  0  0  0  0  0  0  0  0  0  0
   -3.4280   22.7110  -28.0670 C   0  0  0  0  0  0  0  0  0  0  0  0
   -2.4420   23.2300  -28.9240 C   0  0  0  0  0  0  0  0  0  0  0  0
   -2.5660   24.6000  -29.4730 C   0  0  0  0  0  0  0  0  0  0  0  0
   -3.4350   24.8480  -30.3530 O   0  0  0  0  0  0  0  0  0  0  0  0
   -1.7350   25.6550  -28.9660 N   0  0  0  0  0  0  0  0  0  0  0  0
   -1.4040   25.8990  -27.5910 C   0  0  0  0  0  0  0  0  0  0  0  0
   -2.2730   25.4300  -26.5990 C   0  0  0  0  0  0  0  0  0  0  0  0
   -1.9800   25.6280  -25.2470 C   0  0  0  0  0  0  0  0  0  0  0  0
   -0.7950   26.2780  -24.8680 C   0  0  0  0  0  0  0  0  0  0  0  0
   -0.4950   26.5220  -23.4110 C   0  0  0  0  0  0  0  0  0  0  0  0
    0.6280   27.4430  -23.2530 N   0  0  0  0  0  0  0  0  0  0  0  0
    0.0830   26.7390  -25.8590 C   0  0  0  0  0  0  0  0  0  0  0  0
   -0.2110   26.5420  -27.2120 C   0  0  0  0  0  0  0  0  0  0  0  0
   -1.3370   22.4240  -29.2530 C   0  0  0  0  0  0  0  0  0  0  0  0
   -1.2230   21.1310  -28.7350 C   0  0  0  0  0  0  0  0  0  0  0  0
   -2.3490   19.0889  -25.3525 H   0  0  0  0  0  0  0  0  0  0  0  0
   -3.8324   19.1133  -26.3652 H   0  0  0  0  0  0  0  0  0  0  0  0
   -2.7686   17.6658  -26.3652 H   0  0  0  0  0  0  0  0  0  0  0  0
   -4.0920   21.0239  -26.8793 H   0  0  0  0  0  0  0  0  0  0  0  0
   -4.2985   23.3287  -27.8012 H   0  0  0  0  0  0  0  0  0  0  0  0
   -3.1940   24.9013  -26.8859 H   0  0  0  0  0  0  0  0  0  0  0  0
   -2.6807   25.2731  -24.4769 H   0  0  0  0  0  0  0  0  0  0  0  0
   -1.3843   26.9535  -22.9283 H   0  0  0  0  0  0  0  0  0  0  0  0
   -0.2289   25.5626  -22.9433 H   0  0  0  0  0  0  0  0  0  0  0  0
    1.3200   27.0200  -22.5920 H   0  0  0  0  0  0  0  0  0  0  0  0
    0.2780   28.3300  -22.8220 H   0  0  0  0  0  0  0  0  0  0  0  0
    1.0086   27.2587  -25.5707 H   0  0  0  0  0  0  0  0  0  0  0  0
    0.4925   26.8908  -27.9824 H   0  0  0  0  0  0  0  0  0  0  0  0
   -0.5568   22.8144  -29.9230 H   0  0  0  0  0  0  0  0  0  0  0  0
   -0.3533   20.5122  -29.0010 H   0  0  0  0  0  0  0  0  0  0  0  0
  1  2  1  0
  2  3  1  0
  3  4  2  0
  4  5  1  0
  5  6  2  0
  6  7  1  0
  7  8  2  0
  7  9  1  0
  9 10  1  0
 10 11  2  0
 11 12  1  0
 12 13  2  0
 13 14  1  0
 14 15  1  0
 13 16  1  0
 16 17  2  0
  6 18  1  0
 18 19  2  0
 19  3  1  0
 17 10  1  0
  1 20  1  0
  1 21  1  0
  1 22  1  0
  4 23  1  0
  5 24  1  0
 11 25  1  0
 12 26  1  0
 14 27  1  0
 14 28  1  0
 15 29  1  0
 15 30  1  0
 16 31  1  0
 17 32  1  0
 18 33  1  0
 19 34  1  0
M  CHG  1   9  -1
M  END
>  <UniqueID>  (2) 
2

>  <SMILES>  (2) 
COc1ccc(C(=O)[N-]c2ccc(CN)cc2)cc1

>  <Energy>  (2) 
36.794252798507394

>  <Genealogy>  (2) 
COc1ccc(C(=O)[N-]c2ccc(CN)cc2)cc1 (protonated)
COc1ccc(C(=O)[N-]c2ccc(CN)cc2)cc1 (3D coordinates assigned)
COc1ccc(C(=O)[N-]c2ccc(CN)cc2)cc1 (optimized conformer: 36.794252798507394 kcal/mol)

>  <smiles>  (2) 
COc1ccc(C(=O)Nc2ccc(CN)cc2)cc1

>  <score_type>  (2) 
oracle

>  <origin>  (2) 
adgpu

>  <m_score__min__energy>  (2) 
-8.1199999999999992

>  <m_primary>  (2) 
energy

$$$$
2:0
     RDKit          3D

 28 29  0  0  0  0  0  0  0  0999 V2000
   -3.8980   25.6740  -30.6790 O   0  0  0  0  0  0  0  0  0  0  0  0
   -3.3220   24.4910  -30.2300 C   0  0  0  0  0  0  0  0  0  0  0  0
   -3.7900   23.2640  -30.7110 C   0  0  0  0  0  0  0  0  0  0  0  0
   -3.2120   22.0610  -30.2720 C   0  0  0  0  0  0  0  0  0  0  0  0
   -3.7240   20.7430  -30.7900 C   0  0  0  0  0  0  0  0  0  0  0  0
   -4.5290   20.9380  -31.9970 N   0  0  0  0  0  0  0  0  0  0  0  0
   -5.9650   21.0730  -32.0060 C   0  0  0  0  0  0  0  0  0  0  0  0
   -6.5930   22.3340  -32.0330 C   0  0  0  0  0  0  0  0  0  0  0  0
   -7.9890   22.4270  -32.0380 C   0  0  0  0  0  0  0  0  0  0  0  0
   -8.7700   21.2690  -32.0200 C   0  0  0  0  0  0  0  0  0  0  0  0
   -8.1570   20.0130  -32.0010 C   0  0  0  0  0  0  0  0  0  0  0  0
   -9.1370   18.5590  -31.9810 Cl  0  0  0  0  0  0  0  0  0  0  0  0
   -6.7610   19.9160  -31.9960 C   0  0  0  0  0  0  0  0  0  0  0  0
   -2.1730   22.1030  -29.3280 C   0  0  0  0  0  0  0  0  0  0  0  0
   -1.7050   23.3300  -28.8470 C   0  0  0  0  0  0  0  0  0  0  0  0
   -2.2770   24.5270  -29.2970 C   0  0  0  0  0  0  0  0  0  0  0  0
   -1.8150   25.7540  -28.8220 O   0  0  0  0  0  0  0  0  0  0  0  0
   -4.6157   23.2406  -31.4375 H   0  0  0  0  0  0  0  0  0  0  0  0
   -2.8697   20.0920  -31.0272 H   0  0  0  0  0  0  0  0  0  0  0  0
   -4.3539   20.2799  -30.0162 H   0  0  0  0  0  0  0  0  0  0  0  0
   -4.0240   20.9360  -32.9120 H   0  0  0  0  0  0  0  0  0  0  0  0
   -5.9831   23.2493  -32.0502 H   0  0  0  0  0  0  0  0  0  0  0  0
   -8.4729   23.4147  -32.0561 H   0  0  0  0  0  0  0  0  0  0  0  0
   -9.8673   21.3456  -32.0208 H   0  0  0  0  0  0  0  0  0  0  0  0
   -6.2831   18.9253  -31.9841 H   0  0  0  0  0  0  0  0  0  0  0  0
   -1.7251   21.1661  -28.9651 H   0  0  0  0  0  0  0  0  0  0  0  0
   -0.8857   23.3552  -28.1135 H   0  0  0  0  0  0  0  0  0  0  0  0
   -2.3460   26.6080  -28.9550 H   0  0  0  0  0  0  0  0  0  0  0  0
  1  2  1  0
  2  3  2  0
  3  4  1  0
  4  5  1  0
  5  6  1  0
  6  7  1  0
  7  8  2  0
  8  9  1  0
  9 10  2  0
 10 11  1  0
 11 12  1  0
 11 13  2  0
  4 14  2  0
 14 15  1  0
 15 16  2  0
 16 17  1  0
 16  2  1  0
 13  7  1  0
  3 18  1  0
  5 19  1  0
  5 20  1  0
  6 21  1  0
  8 22  1  0
  9 23  1  0
 10 24  1  0
 13 25  1  0
 14 26  1  0
 15 27  1  0
 17 28  1  0
M  CHG  1   1  -1
M  END
>  <UniqueID>  (3) 
3

>  <SMILES>  (3) 
[O-]c1cc(CNc2cccc(Cl)c2)ccc1O

>  <Energy>  (3) 
27.649822722119726

>  <Genealogy>  (3) 
[O-]c1cc(CNc2cccc(Cl)c2)ccc1O (protonated)
[O-]c1cc(CNc2cccc(Cl)c2)ccc1O (3D coordinates assigned)
[O-]c1cc(CNc2cccc(Cl)c2)ccc1O (optimized conformer: 27.649822722119726 kcal/mol)

>  <smiles>  (3) 
Oc1ccc(CNc2cccc(Cl)c2)cc1O

>  <score_type>  (3) 
oracle

>  <origin>  (3) 
adgpu

>  <m_score__min__energy>  (3) 
-10.18

>  <m_primary>  (3) 
energy

$$$$
3:0
     RDKit          3D

 25 26  0  0  0  0  0  0  0  0999 V2000
   -5.8948   16.7368  -30.9948 H   0  0  0  0  0  0  0  0  0  0  0  0
   -5.9580   17.2240  -31.9790 C   0  0  0  0  0  0  0  0  0  0  0  0
   -6.4660   18.4800  -32.0830 N   0  0  0  0  0  0  0  0  0  0  0  0
   -6.5610   19.1220  -33.2840 C   0  0  0  0  0  0  0  0  0  0  0  0
   -7.0450   20.3240  -33.3610 N   0  0  0  0  0  0  0  0  0  0  0  0
   -7.6040   21.2280  -31.9900 S   0  0  0  0  0  0  0  0  0  0  0  0
   -8.8890   21.9210  -32.3440 O   0  0  0  0  0  0  0  0  0  0  0  0
   -7.8550   20.2810  -30.8500 O   0  0  0  0  0  0  0  0  0  0  0  0
   -6.4070   22.4390  -31.5390 C   0  0  0  0  0  0  0  0  0  0  0  0
   -5.0760   22.2880  -31.9460 C   0  0  0  0  0  0  0  0  0  0  0  0
   -4.7831   21.4177  -32.5516 H   0  0  0  0  0  0  0  0  0  0  0  0
   -4.1180   23.2400  -31.5850 C   0  0  0  0  0  0  0  0  0  0  0  0
   -3.0729   23.1152  -31.9048 H   0  0  0  0  0  0  0  0  0  0  0  0
   -4.4850   24.3510  -30.8180 C   0  0  0  0  0  0  0  0  0  0  0  0
   -3.5260   25.2910  -30.4640 O   0  0  0  0  0  0  0  0  0  0  0  0
   -5.8180   24.5090  -30.4120 C   0  0  0  0  0  0  0  0  0  0  0  0
   -6.3000   25.8990  -29.4510 Cl  0  0  0  0  0  0  0  0  0  0  0  0
   -6.7770   23.5550  -30.7740 C   0  0  0  0  0  0  0  0  0  0  0  0
   -7.8230   23.6811  -30.4577 H   0  0  0  0  0  0  0  0  0  0  0  0
   -6.1290   18.4760  -34.4480 C   0  0  0  0  0  0  0  0  0  0  0  0
   -6.2021   18.9808  -35.4226 H   0  0  0  0  0  0  0  0  0  0  0  0
   -5.6040   17.1840  -34.3610 C   0  0  0  0  0  0  0  0  0  0  0  0
   -5.2606   16.6666  -35.2689 H   0  0  0  0  0  0  0  0  0  0  0  0
   -5.5160   16.5510  -33.1200 C   0  0  0  0  0  0  0  0  0  0  0  0
   -5.1035   15.5343  -33.0418 H   0  0  0  0  0  0  0  0  0  0  0  0
  1  2  1  0
  2  3  1  0
  3  4  1  0
  4  5  2  0
  5  6  1  0
  6  7  2  0
  6  8  2  0
  6  9  1  0
  9 10  2  0
 10 11  1  0
 10 12  1  0
 12 13  1  0
 12 14  2  0
 14 15  1  0
 14 16  1  0
 16 17  1  0
 16 18  2  0
 18 19  1  0
  4 20  1  0
 20 21  1  0
 20 22  2  0
 22 23  1  0
 22 24  1  0
 24 25  1  0
 24  2  2  0
 18  9  1  0
M  CHG  2   3  -1  15  -1
M  END
>  <UniqueID>  (4) 
4

>  <SMILES>  (4) 
O=S(=O)(/N=c1/cccc[n-]1)c1ccc([O-])c(Cl)c1

>  <Energy>  (4) 
29.906830089487237

>  <Genealogy>  (4) 
O=S(=O)(N=c1cccc[n-]1)c1ccc([O-])c(Cl)c1 (protonated)
O=S(=O)(/N=c1/cccc[n-]1)c1ccc([O-])c(Cl)c1 (cis-trans isomerization)
O=S(=O)(/N=c1/cccc[n-]1)c1ccc([O-])c(Cl)c1 (3D coordinates assigned)
O=S(=O)(/N=c1/cccc[n-]1)c1ccc([O-])c(Cl)c1 (optimized conformer: 29.906830089487237 kcal/mol)

>  <smiles>  (4) 
O=S(=O)(N=c1cccc[nH]1)c1ccc(O)c(Cl)c1

>  <score_type>  (4) 
oracle

>  <origin>  (4) 
adgpu

>  <m_score__min__energy>  (4) 
-10.390000000000001

>  <m_primary>  (4) 
energy

$$$$
4:0
     RDKit          3D

 31 33  0  0  1  0  0  0  0  0999 V2000
   -3.7000   21.8660  -31.1540 C   0  0  0  0  0  0  0  0  0  0  0  0
   -5.1090   22.4160  -30.9890 C   0  0  0  0  0  0  0  0  0  0  0  0
   -5.2730   23.6490  -30.3710 C   0  0  0  0  0  0  0  0  0  0  0  0
   -4.3020   24.5880  -29.8320 C   0  0  0  0  0  0  0  0  0  0  0  0
   -3.8120   24.5500  -28.6990 O   0  0  0  0  0  0  0  0  0  0  0  0
   -3.8820   25.6290  -30.6650 O   0  0  0  0  0  0  0  0  0  0  0  0
   -7.0500   23.9340  -30.3530 S   0  0  0  0  0  0  0  0  0  0  0  0
   -7.4290   22.3810  -31.1770 C   0  0  0  0  0  0  0  0  0  0  0  0
   -8.6300   21.8520  -31.5390 N   0  0  0  0  0  0  0  0  0  0  0  0
   -8.6880   20.6620  -32.1590 C   0  0  0  0  0  0  0  0  0  0  0  0
   -7.5210   20.0490  -32.3880 N   0  0  0  0  0  0  0  0  0  0  0  0
   -6.3180   20.5300  -32.0500 C   0  0  0  0  0  0  0  0  0  0  0  0
   -5.2980   19.8200  -32.3500 N   0  0  0  0  0  0  0  0  0  0  0  0
   -5.3850   18.5650  -33.0140 C   0  0  0  0  0  0  0  0  0  0  0  0
   -5.8150   18.4340  -34.3230 C   0  0  0  0  0  0  0  0  0  0  0  0
   -5.8980   17.2140  -34.9650 C   0  0  0  0  0  0  0  0  0  0  0  0
   -5.5460   16.0630  -34.3100 C   0  0  0  0  0  0  0  0  0  0  0  0
   -5.1070   16.1600  -32.9870 C   0  0  0  0  0  0  0  0  0  0  0  0
   -4.6220   14.5500  -32.0910 Br  0  0  0  0  0  0  0  0  0  0  0  0
   -5.0300   17.3950  -32.3560 C   0  0  0  0  0  0  0  0  0  0  0  0
   -6.2160   21.7790  -31.3970 C   0  0  0  0  0  0  0  0  0  0  0  0
   -3.2557   21.6926  -30.1628 H   0  0  0  0  0  0  0  0  0  0  0  0
   -3.7394   20.9172  -31.7092 H   0  0  0  0  0  0  0  0  0  0  0  0
   -3.0862   22.5906  -31.7092 H   0  0  0  0  0  0  0  0  0  0  0  0
   -4.2240   25.6530  -31.6300 H   0  0  0  0  0  0  0  0  0  0  0  0
   -9.4780   22.3890  -31.3250 H   0  0  0  0  0  0  0  0  0  0  0  0
   -9.6457   20.2144  -32.4629 H   0  0  0  0  0  0  0  0  0  0  0  0
   -6.1030   19.3404  -34.8757 H   0  0  0  0  0  0  0  0  0  0  0  0
   -6.2482   17.1661  -36.0067 H   0  0  0  0  0  0  0  0  0  0  0  0
   -5.6075   15.0868  -34.8133 H   0  0  0  0  0  0  0  0  0  0  0  0
   -4.6808   17.4472  -31.3142 H   0  0  0  0  0  0  0  0  0  0  0  0
  1  2  1  0
  2  3  2  0
  3  4  1  0
  4  5  2  0
  4  6  1  0
  3  7  1  0
  7  8  1  0
  8  9  1  0
  9 10  1  0
 10 11  2  0
 11 12  1  0
 12 13  2  0
 13 14  1  0
 14 15  2  0
 15 16  1  0
 16 17  2  0
 17 18  1  0
 18 19  1  0
 18 20  2  0
 12 21  1  0
 21  2  1  0
 21  8  2  0
 20 14  1  0
  1 22  1  0
  1 23  1  0
  1 24  1  0
  6 25  1  0
  9 26  1  0
 10 27  1  0
 15 28  1  0
 16 29  1  0
 17 30  1  0
 20 31  1  0
M  END
>  <smiles>  (5) 
Cc1c(C(=O)O)sc2[nH]cnc(=Nc3cccc(Br)c3)c12

>  <score_type>  (5) 
oracle

>  <origin>  (5) 
adgpu

>  <m_score__min__energy>  (5) 
-8.6400000000000006

>  <m_primary>  (5) 
energy

$$$$
5:0
     RDKit          3D

 40 42  0  0  1  0  0  0  0  0999 V2000
   -0.8470   25.5520  -26.5770 C   0  0  0  0  0  0  0  0  0  0  0  0
   -1.6850   25.6380  -27.7480 N   0  0  0  0  0  0  0  0  0  0  0  0
   -2.0000   24.5680  -28.4060 C   0  0  0  0  0  0  0  0  0  0  0  0
   -1.5580   23.3400  -28.0150 N   0  0  0  0  0  0  0  0  0  0  0  0
   -1.8730   22.2170  -28.6820 C   0  0  0  0  0  0  0  0  0  0  0  0
   -1.3950   20.9090  -28.2560 C   0  0  0  0  0  0  0  0  0  0  0  0
   -0.2130   20.3810  -28.7300 C   0  0  0  0  0  0  0  0  0  0  0  0
    0.2510   19.1240  -28.3230 C   0  0  0  0  0  0  0  0  0  0  0  0
   -0.4640   18.3600  -27.4270 C   0  0  0  0  0  0  0  0  0  0  0  0
   -0.0660   17.1390  -26.9980 F   0  0  0  0  0  0  0  0  0  0  0  0
   -1.6460   18.8800  -26.9490 C   0  0  0  0  0  0  0  0  0  0  0  0
   -2.3630   18.1420  -26.0670 F   0  0  0  0  0  0  0  0  0  0  0  0
   -2.1040   20.1380  -27.3600 C   0  0  0  0  0  0  0  0  0  0  0  0
   -2.6770   22.3670  -29.7940 C   0  0  0  0  0  0  0  0  0  0  0  0
   -3.1170   23.6320  -30.1720 C   0  0  0  0  0  0  0  0  0  0  0  0
   -3.8740   23.7670  -31.2230 N   0  0  0  0  0  0  0  0  0  0  0  0
   -4.2590   22.6150  -31.9930 C   0  0  0  0  0  0  0  0  0  0  0  0
   -5.7410   22.5110  -31.8870 C   0  0  0  0  0  0  0  0  0  0  0  0
   -6.4740   23.5820  -31.4100 C   0  0  0  0  0  0  0  0  0  0  0  0
   -7.8470   23.4730  -31.3180 C   0  0  0  0  0  0  0  0  0  0  0  0
   -8.4570   22.2940  -31.7040 C   0  0  0  0  0  0  0  0  0  0  0  0
   -7.7470   21.2140  -32.1820 C   0  0  0  0  0  0  0  0  0  0  0  0
   -6.3610   21.3420  -32.2690 C   0  0  0  0  0  0  0  0  0  0  0  0
   -2.7840   24.7380  -29.4850 N   0  0  0  0  0  0  0  0  0  0  0  0
   -1.4715   25.6161  -25.6737 H   0  0  0  0  0  0  0  0  0  0  0  0
   -0.3069   24.5937  -26.5822 H   0  0  0  0  0  0  0  0  0  0  0  0
   -0.1236   26.3806  -26.5822 H   0  0  0  0  0  0  0  0  0  0  0  0
   -0.9580   23.3460  -27.1620 H   0  0  0  0  0  0  0  0  0  0  0  0
    0.3825   20.9636  -29.4483 H   0  0  0  0  0  0  0  0  0  0  0  0
    1.2006   18.7409  -28.7248 H   0  0  0  0  0  0  0  0  0  0  0  0
   -3.0536   20.5205  -26.9576 H   0  0  0  0  0  0  0  0  0  0  0  0
   -2.9704   21.4851  -30.3824 H   0  0  0  0  0  0  0  0  0  0  0  0
   -3.9614   22.7438  -33.0441 H   0  0  0  0  0  0  0  0  0  0  0  0
   -3.7687   21.7044  -31.6184 H   0  0  0  0  0  0  0  0  0  0  0  0
   -5.9685   24.5108  -31.1071 H   0  0  0  0  0  0  0  0  0  0  0  0
   -8.4483   24.3139  -30.9422 H   0  0  0  0  0  0  0  0  0  0  0  0
   -9.5514   22.2149  -31.6266 H   0  0  0  0  0  0  0  0  0  0  0  0
   -8.2544   20.2858  -32.4836 H   0  0  0  0  0  0  0  0  0  0  0  0
   -5.7581   20.5026  -32.6457 H   0  0  0  0  0  0  0  0  0  0  0  0
   -3.1230   25.6780  -29.7840 H   0  0  0  0  0  0  0  0  0  0  0  0
  1  2  1  0
  2  3  2  0
  3  4  1  0
  4  5  1  0
  5  6  1  0
  6  7  2  0
  7  8  1  0
  8  9  2  0
  9 10  1  0
  9 11  1  0
 11 12  1  0
 11 13  2  0
  5 14  2  0
 14 15  1  0
 15 16  2  0
 16 17  1  0
 17 18  1  0
 18 19  2  0
 19 20  1  0
 20 21  2  0
 21 22  1  0
 22 23  2  0
 15 24  1  0
 24  3  1  0
 13  6  1  0
 23 18  1  0
  1 25  1  0
  1 26  1  0
  1 27  1  0
  4 28  1  0
  7 29  1  0
  8 30  1  0
 13 31  1  0
 14 32  1  0
 17 33  1  0
 17 34  1  0
 19 35  1  0
 20 36  1  0
 21 37  1  0
 22 38  1  0
 23 39  1  0
 24 40  1  0
M  END
>  <smiles>  (6) 
CN=c1[nH]c(-c2ccc(F)c(F)c2)cc(=NCc2ccccc2)[nH]1

>  <score_type>  (6) 
oracle

>  <origin>  (6) 
adgpu

>  <m_score__min__energy>  (6) 
-7.96

>  <m_primary>  (6) 
energy

$$$$
6:0
     RDKit          3D

 25 25  0  0  0  0  0  0  0  0999 V2000
   -3.0420   21.0660  -33.4470 C   0  0  0  0  0  0  0  0  0  0  0  0
   -4.1370   20.9320  -32.5440 O   0  0  0  0  0  0  0  0  0  0  0  0
   -4.7380   21.9980  -31.8560 C   0  0  0  0  0  0  0  0  0  0  0  0
   -3.9820   23.0650  -31.3300 C   0  0  0  0  0  0  0  0  0  0  0  0
   -4.6040   24.1180  -30.6450 C   0  0  0  0  0  0  0  0  0  0  0  0
   -3.8030   25.1850  -30.1210 N   0  0  0  0  0  0  0  0  0  0  0  0
   -6.0030   24.1110  -30.4900 C   0  0  0  0  0  0  0  0  0  0  0  0
   -6.8500   25.4120  -29.6610 Cl  0  0  0  0  0  0  0  0  0  0  0  0
   -6.7550   23.0550  -31.0120 C   0  0  0  0  0  0  0  0  0  0  0  0
   -6.1340   21.9880  -31.6810 C   0  0  0  0  0  0  0  0  0  0  0  0
   -6.9140   20.9160  -32.2390 N   0  0  0  0  0  0  0  0  0  0  0  0
   -8.2870   20.6670  -31.8990 C   0  0  0  0  0  0  0  0  0  0  0  0
   -9.0670   19.6420  -32.6580 C   0  0  0  0  0  0  0  0  0  0  0  0
   -8.8210   21.2450  -30.9140 O   0  0  0  0  0  0  0  0  0  0  0  0
   -2.1083   21.1803  -32.8767 H   0  0  0  0  0  0  0  0  0  0  0  0
   -2.9773   20.1691  -34.0805 H   0  0  0  0  0  0  0  0  0  0  0  0
   -3.1955   21.9521  -34.0805 H   0  0  0  0  0  0  0  0  0  0  0  0
   -2.8896   23.0715  -31.4587 H   0  0  0  0  0  0  0  0  0  0  0  0
   -3.8870   25.5060  -29.1330 H   0  0  0  0  0  0  0  0  0  0  0  0
   -3.1050   25.6720  -30.7280 H   0  0  0  0  0  0  0  0  0  0  0  0
   -7.8490   23.0598  -30.8971 H   0  0  0  0  0  0  0  0  0  0  0  0
   -6.4420   20.2340  -32.8740 H   0  0  0  0  0  0  0  0  0  0  0  0
   -9.5771   18.9716  -31.9507 H   0  0  0  0  0  0  0  0  0  0  0  0
   -9.8136   20.1440  -33.2909 H   0  0  0  0  0  0  0  0  0  0  0  0
   -8.3841   19.0562  -33.2909 H   0  0  0  0  0  0  0  0  0  0  0  0
  1  2  1  0
  2  3  1  0
  3  4  2  0
  4  5  1  0
  5  6  1  0
  5  7  2  0
  7  8  1  0
  7  9  1  0
  9 10  2  0
 10 11  1  0
 11 12  1  0
 12 13  1  0
 12 14  2  0
 10  3  1  0
  1 15  1  0
  1 16  1  0
  1 17  1  0
  4 18  1  0
  6 19  1  0
  6 20  1  0
  9 21  1  0
 11 22  1  0
 13 23  1  0
 13 24  1  0
 13 25  1  0
M  END
>  <UniqueID>  (7) 
5

>  <SMILES>  (7) 
COc1cc(N)c(Cl)cc1NC(C)=O

>  <Energy>  (7) 
25.14214636431819

>  <Genealogy>  (7) 
COc1cc(N)c(Cl)cc1NC(C)=O (3D coordinates assigned)
COc1cc(N)c(Cl)cc1NC(C)=O (optimized conformer: 25.14214636431819 kcal/mol)

>  <smiles>  (7) 
COc1cc(N)c(Cl)cc1NC(C)=O

>  <score_type>  (7) 
oracle

>  <origin>  (7) 
adgpu

>  <m_score__min__energy>  (7) 
-5.7000000000000002

>  <m_primary>  (7) 
energy

$$$$
7:0
     RDKit          3D

 42 45  0  0  0  0  0  0  0  0999 V2000
   -8.9090   20.2880  -32.3120 C   0  0  0  0  0  0  0  0  0  0  0  0
   -8.0960   21.4310  -31.7790 C   0  0  0  0  0  0  0  0  0  0  0  0
   -8.2600   21.8550  -30.4520 C   0  0  0  0  0  0  0  0  0  0  0  0
   -7.4760   22.8950  -29.9430 C   0  0  0  0  0  0  0  0  0  0  0  0
   -6.5100   23.5100  -30.7500 C   0  0  0  0  0  0  0  0  0  0  0  0
   -5.5180   24.8120  -30.1040 S   0  0  0  0  0  0  0  0  0  0  0  0
   -6.3510   25.6660  -29.1910 O   0  0  0  0  0  0  0  0  0  0  0  0
   -4.9880   25.6680  -31.2200 O   0  0  0  0  0  0  0  0  0  0  0  0
   -4.1820   24.1580  -29.2130 N   0  0  0  0  0  0  0  0  0  0  0  0
   -3.1420   23.3780  -29.8270 C   0  0  0  0  0  0  0  0  0  0  0  0
   -3.4570   22.4920  -30.8730 C   0  0  0  0  0  0  0  0  0  0  0  0
   -2.4840   21.6540  -31.4170 C   0  0  0  0  0  0  0  0  0  0  0  0
   -1.1820   21.6780  -30.9190 C   0  0  0  0  0  0  0  0  0  0  0  0
    0.0370   20.6160  -31.5990 Cl  0  0  0  0  0  0  0  0  0  0  0  0
   -0.8470   22.5560  -29.8850 C   0  0  0  0  0  0  0  0  0  0  0  0
   -1.8110   23.4220  -29.3350 C   0  0  0  0  0  0  0  0  0  0  0  0
   -1.3820   24.3880  -28.2960 C   0  0  0  0  0  0  0  0  0  0  0  0
   -2.1950   24.8080  -27.2880 N   0  0  0  0  0  0  0  0  0  0  0  0
   -1.4240   25.6880  -26.6340 C   0  0  0  0  0  0  0  0  0  0  0  0
   -1.7490   26.4310  -25.5020 C   0  0  0  0  0  0  0  0  0  0  0  0
   -0.7710   27.3050  -24.9920 C   0  0  0  0  0  0  0  0  0  0  0  0
    0.4900   27.4130  -25.6220 C   0  0  0  0  0  0  0  0  0  0  0  0
    0.7810   26.6470  -26.7670 C   0  0  0  0  0  0  0  0  0  0  0  0
   -0.2110   25.7920  -27.2410 C   0  0  0  0  0  0  0  0  0  0  0  0
   -0.1570   24.9800  -28.3070 N   0  0  0  0  0  0  0  0  0  0  0  0
   -6.3360   23.0790  -32.0720 C   0  0  0  0  0  0  0  0  0  0  0  0
   -7.1200   22.0390  -32.5830 C   0  0  0  0  0  0  0  0  0  0  0  0
   -9.3212   19.7085  -31.4728 H   0  0  0  0  0  0  0  0  0  0  0  0
   -9.7328   20.6794  -32.9270 H   0  0  0  0  0  0  0  0  0  0  0  0
   -8.2690   19.6382  -32.9270 H   0  0  0  0  0  0  0  0  0  0  0  0
   -9.0081   21.3676  -29.8094 H   0  0  0  0  0  0  0  0  0  0  0  0
   -7.6182   23.2314  -28.9054 H   0  0  0  0  0  0  0  0  0  0  0  0
   -4.1480   24.3540  -28.1880 H   0  0  0  0  0  0  0  0  0  0  0  0
   -4.4836   22.4597  -31.2668 H   0  0  0  0  0  0  0  0  0  0  0  0
   -2.7443   20.9728  -32.2405 H   0  0  0  0  0  0  0  0  0  0  0  0
    0.1819   22.5707  -29.4962 H   0  0  0  0  0  0  0  0  0  0  0  0
   -2.7351   26.3381  -25.0235 H   0  0  0  0  0  0  0  0  0  0  0  0
   -0.9890   27.9076  -24.0980 H   0  0  0  0  0  0  0  0  0  0  0  0
    1.2477   28.0990  -25.2155 H   0  0  0  0  0  0  0  0  0  0  0  0
    1.7569   26.7212  -27.2692 H   0  0  0  0  0  0  0  0  0  0  0  0
   -5.5803   23.5601  -32.7103 H   0  0  0  0  0  0  0  0  0  0  0  0
   -6.9709   21.6971  -33.6178 H   0  0  0  0  0  0  0  0  0  0  0  0
  1  2  1  0
  2  3  2  0
  3  4  1  0
  4  5  2  0
  5  6  1  0
  6  7  2  0
  6  8  2  0
  6  9  1  0
  9 10  1  0
 10 11  2  0
 11 12  1  0
 12 13  2  0
 13 14  1  0
 13 15  1  0
 15 16  2  0
 16 17  1  0
 17 18  2  0
 18 19  1  0
 19 20  2  0
 20 21  1  0
 21 22  2  0
 22 23  1  0
 23 24  2  0
 24 25  1  0
  5 26  1  0
 26 27  2  0
 27  2  1  0
 16 10  1  0
 25 17  1  0
 24 19  1  0
  1 28  1  0
  1 29  1  0
  1 30  1  0
  3 31  1  0
  4 32  1  0
  9 33  1  0
 11 34  1  0
 12 35  1  0
 15 36  1  0
 20 37  1  0
 21 38  1  0
 22 39  1  0
 23 40  1  0
 26 41  1  0
 27 42  1  0
M  CHG  1  25  -1
M  END
>  <UniqueID>  (8) 
6

>  <SMILES>  (8) 
Cc1ccc(S(=O)(=O)Nc2ccc(Cl)cc2-c2nc3ccccc3[n-]2)cc1

>  <Energy>  (8) 
89.04415703718641

>  <Genealogy>  (8) 
Cc1ccc(S(=O)(=O)Nc2ccc(Cl)cc2-c2nc3ccccc3[n-]2)cc1 (protonated)
Cc1ccc(S(=O)(=O)Nc2ccc(Cl)cc2-c2nc3ccccc3[n-]2)cc1 (3D coordinates assigned)
Cc1ccc(S(=O)(=O)Nc2ccc(Cl)cc2-c2nc3ccccc3[n-]2)cc1 (optimized conformer: 89.04415703718641 kcal/mol)

>  <smiles>  (8) 
Cc1ccc(S(=O)(=O)Nc2ccc(Cl)cc2-c2nc3ccccc3[nH]2)cc1

>  <score_type>  (8) 
oracle

>  <origin>  (8) 
adgpu

>  <m_score__min__energy>  (8) 
-10.43

>  <m_primary>  (8) 
energy

$$$$
8:0
     RDKit          3D

 45 47  0  0  0  0  0  0  0  0999 V2000
   -0.2661   22.1125  -26.1032 H   0  0  0  0  0  0  0  0  0  0  0  0
   -0.6710   22.7360  -26.9140 C   0  0  0  0  0  0  0  0  0  0  0  0
   -1.5500   22.1810  -27.8460 C   0  0  0  0  0  0  0  0  0  0  0  0
   -1.8512   21.1269  -27.7561 H   0  0  0  0  0  0  0  0  0  0  0  0
   -2.0510   22.9660  -28.8990 C   0  0  0  0  0  0  0  0  0  0  0  0
   -3.0010   22.4340  -29.8350 N   0  0  0  0  0  0  0  0  0  0  0  0
   -4.1390   22.9580  -30.2040 C   0  0  0  0  0  0  0  0  0  0  0  0
   -4.6720   24.1100  -29.5900 C   0  0  0  0  0  0  0  0  0  0  0  0
   -4.1216   24.6058  -28.7768 H   0  0  0  0  0  0  0  0  0  0  0  0
   -5.9020   24.6210  -30.0170 C   0  0  0  0  0  0  0  0  0  0  0  0
   -6.5020   25.8180  -29.3380 C   0  0  0  0  0  0  0  0  0  0  0  0
   -6.4384   25.6910  -28.2472 H   0  0  0  0  0  0  0  0  0  0  0  0
   -5.9507   26.7225  -29.6346 H   0  0  0  0  0  0  0  0  0  0  0  0
   -7.5566   25.9175  -29.6346 H   0  0  0  0  0  0  0  0  0  0  0  0
   -6.6060   23.9600  -31.0280 C   0  0  0  0  0  0  0  0  0  0  0  0
   -7.5872   24.3357  -31.3537 H   0  0  0  0  0  0  0  0  0  0  0  0
   -6.0580   22.8190  -31.6240 C   0  0  0  0  0  0  0  0  0  0  0  0
   -6.7940   22.1380  -32.6550 N   0  0  0  0  0  0  0  0  0  0  0  0
   -6.9390   22.6360  -33.5630 H   0  0  0  0  0  0  0  0  0  0  0  0
   -7.2970   20.7960  -32.5240 C   0  0  0  0  0  0  0  0  0  0  0  0
   -6.5280   19.7070  -32.9710 C   0  0  0  0  0  0  0  0  0  0  0  0
   -5.5272   19.8829  -33.3923 H   0  0  0  0  0  0  0  0  0  0  0  0
   -7.0230   18.4050  -32.8850 C   0  0  0  0  0  0  0  0  0  0  0  0
   -6.4078   17.5594  -33.2265 H   0  0  0  0  0  0  0  0  0  0  0  0
   -8.2980   18.1750  -32.3660 C   0  0  0  0  0  0  0  0  0  0  0  0
   -8.6867   17.1481  -32.2996 H   0  0  0  0  0  0  0  0  0  0  0  0
   -9.0810   19.2460  -31.9310 C   0  0  0  0  0  0  0  0  0  0  0  0
  -10.0886   19.0588  -31.5314 H   0  0  0  0  0  0  0  0  0  0  0  0
   -8.5910   20.5620  -32.0000 C   0  0  0  0  0  0  0  0  0  0  0  0
   -9.4550   21.7000  -31.5280 C   0  0  0  0  0  0  0  0  0  0  0  0
   -9.4688   21.7182  -30.4282 H   0  0  0  0  0  0  0  0  0  0  0  0
   -9.0486   22.6499  -31.9054 H   0  0  0  0  0  0  0  0  0  0  0  0
  -10.4792   21.5637  -31.9054 H   0  0  0  0  0  0  0  0  0  0  0  0
   -4.8570   22.3370  -31.1860 N   0  0  0  0  0  0  0  0  0  0  0  0
   -4.4760   21.4560  -31.5990 H   0  0  0  0  0  0  0  0  0  0  0  0
   -1.7090   24.3220  -28.9680 C   0  0  0  0  0  0  0  0  0  0  0  0
   -2.1371   24.9506  -29.7627 H   0  0  0  0  0  0  0  0  0  0  0  0
   -0.8280   24.8880  -28.0370 C   0  0  0  0  0  0  0  0  0  0  0  0
   -0.5040   26.2460  -28.1680 O   0  0  0  0  0  0  0  0  0  0  0  0
   -0.4940   27.1770  -27.0910 C   0  0  0  0  0  0  0  0  0  0  0  0
   -0.4999   26.6323  -26.1354 H   0  0  0  0  0  0  0  0  0  0  0  0
    0.4109   27.7994  -27.1527 H   0  0  0  0  0  0  0  0  0  0  0  0
   -1.3853   27.8187  -27.1527 H   0  0  0  0  0  0  0  0  0  0  0  0
   -0.3040   24.0810  -27.0080 C   0  0  0  0  0  0  0  0  0  0  0  0
    0.3960   24.5109  -26.2765 H   0  0  0  0  0  0  0  0  0  0  0  0
  1  2  1  0
  2  3  2  0
  3  4  1  0
  3  5  1  0
  5  6  1  0
  6  7  2  0
  7  8  1  0
  8  9  1  0
  8 10  2  0
 10 11  1  0
 11 12  1  0
 11 13  1  0
 11 14  1  0
 10 15  1  0
 15 16  1  0
 15 17  2  0
 17 18  1  0
 18 19  1  0
 18 20  1  0
 20 21  2  0
 21 22  1  0
 21 23  1  0
 23 24  1  0
 23 25  2  0
 25 26  1  0
 25 27  1  0
 27 28  1  0
 27 29  2  0
 29 30  1  0
 30 31  1  0
 30 32  1  0
 30 33  1  0
 17 34  1  0
 34 35  1  0
  5 36  2  0
 36 37  1  0
 36 38  1  0
 38 39  1  0
 39 40  1  0
 40 41  1  0
 40 42  1  0
 40 43  1  0
 38 44  2  0
 44 45  1  0
 44  2  1  0
 34  7  1  0
 29 20  1  0
M  END
>  <UniqueID>  (9) 
7

>  <SMILES>  (9) 
COc1cccc(/N=c2\cc(C)cc(Nc3ccccc3C)[nH]2)c1

>  <Energy>  (9) 
61.084966813845504

>  <Genealogy>  (9) 
COc1cccc(/N=c2\cc(C)cc(Nc3ccccc3C)[nH]2)c1 (cis-trans isomerization)
COc1cccc(/N=c2\cc(C)cc(Nc3ccccc3C)[nH]2)c1 (3D coordinates assigned)
COc1cccc(/N=c2\cc(C)cc(Nc3ccccc3C)[nH]2)c1 (optimized conformer: 61.084966813845504 kcal/mol)

>  <smiles>  (9) 
COc1cccc(N=c2cc(C)cc(Nc3ccccc3C)[nH]2)c1

>  <score_type>  (9) 
oracle

>  <origin>  (9) 
adgpu

>  <m_score__min__energy>  (9) 
-8.4700000000000006

>  <m_primary>  (9) 
energy

$$$$
9:0
     RDKit          3D

 41 43  0  0  0  0  0  0  0  0999 V2000
   -3.8720   20.7530  -31.1240 O   0  0  0  0  0  0  0  0  0  0  0  0
   -4.5650   21.1890  -32.0830 C   0  0  0  0  0  0  0  0  0  0  0  0
   -3.9260   21.5630  -33.3120 N   0  0  0  0  0  0  0  0  0  0  0  0
   -2.4700   21.5020  -33.4610 C   0  0  0  0  0  0  0  0  0  0  0  0
   -2.0220   20.1860  -34.1310 C   0  0  0  0  0  0  0  0  0  0  0  0
   -2.7690   18.9810  -33.5140 C   0  0  0  0  0  0  0  0  0  0  0  0
   -1.9940   17.6550  -33.6790 C   0  0  0  0  0  0  0  0  0  0  0  0
   -1.1220   17.6790  -34.8590 N   0  0  0  0  0  0  0  0  0  0  0  0
   -0.0530   18.6890  -34.7340 C   0  0  0  0  0  0  0  0  0  0  0  0
   -0.5010   19.9810  -34.0140 C   0  0  0  0  0  0  0  0  0  0  0  0
   -6.0350   21.3180  -31.9310 C   0  0  0  0  0  0  0  0  0  0  0  0
   -6.5490   22.4590  -31.2930 C   0  0  0  0  0  0  0  0  0  0  0  0
   -7.9210   22.6020  -31.0870 C   0  0  0  0  0  0  0  0  0  0  0  0
   -8.8000   21.6100  -31.5170 C   0  0  0  0  0  0  0  0  0  0  0  0
   -8.3150   20.4670  -32.1590 C   0  0  0  0  0  0  0  0  0  0  0  0
   -9.4850   19.2780  -32.7280 Cl  0  0  0  0  0  0  0  0  0  0  0  0
   -6.9280   20.3100  -32.3760 C   0  0  0  0  0  0  0  0  0  0  0  0
   -6.4340   19.1240  -33.1050 C   0  0  0  0  0  0  0  0  0  0  0  0
   -6.0760   19.0760  -34.7480 S   0  0  0  0  0  0  0  0  0  0  0  0
   -5.6320   17.4550  -34.7960 C   0  0  0  0  0  0  0  0  0  0  0  0
   -5.7610   16.9280  -33.5170 C   0  0  0  0  0  0  0  0  0  0  0  0
   -6.2100   17.8570  -32.5710 C   0  0  0  0  0  0  0  0  0  0  0  0
   -6.4330   17.4510  -30.8770 Cl  0  0  0  0  0  0  0  0  0  0  0  0
   -4.5210   21.8280  -34.1280 H   0  0  0  0  0  0  0  0  0  0  0  0
   -2.1388   22.3486  -34.0803 H   0  0  0  0  0  0  0  0  0  0  0  0
   -2.0194   21.5484  -32.4586 H   0  0  0  0  0  0  0  0  0  0  0  0
   -2.2743   20.2562  -35.1994 H   0  0  0  0  0  0  0  0  0  0  0  0
   -2.9183   19.1708  -32.4408 H   0  0  0  0  0  0  0  0  0  0  0  0
   -3.7271   18.8755  -34.0440 H   0  0  0  0  0  0  0  0  0  0  0  0
   -1.3773   17.4887  -32.7834 H   0  0  0  0  0  0  0  0  0  0  0  0
   -2.7258   16.8442  -33.8099 H   0  0  0  0  0  0  0  0  0  0  0  0
   -1.7020   17.8930  -35.7040 H   0  0  0  0  0  0  0  0  0  0  0  0
    0.7790   18.2459  -34.1669 H   0  0  0  0  0  0  0  0  0  0  0  0
    0.2405   18.9748  -35.7549 H   0  0  0  0  0  0  0  0  0  0  0  0
   -0.2293   19.9114  -32.9504 H   0  0  0  0  0  0  0  0  0  0  0  0
    0.0027   20.8361  -34.4884 H   0  0  0  0  0  0  0  0  0  0  0  0
   -5.8623   23.2479  -30.9523 H   0  0  0  0  0  0  0  0  0  0  0  0
   -8.3099   23.4997  -30.5841 H   0  0  0  0  0  0  0  0  0  0  0  0
   -9.8810   21.7270  -31.3504 H   0  0  0  0  0  0  0  0  0  0  0  0
   -5.2966   16.9055  -35.6879 H   0  0  0  0  0  0  0  0  0  0  0  0
   -5.5321   15.8805  -33.2711 H   0  0  0  0  0  0  0  0  0  0  0  0
  1  2  2  0
  2  3  1  0
  3  4  1  0
  4  5  1  0
  5  6  1  0
  6  7  1  0
  7  8  1  0
  8  9  1  0
  9 10  1  0
  2 11  1  0
 11 12  2  0
 12 13  1  0
 13 14  2  0
 14 15  1  0
 15 16  1  0
 15 17  2  0
 17 18  1  0
 18 19  1  0
 19 20  1  0
 20 21  2  0
 21 22  1  0
 22 23  1  0
 10  5  1  0
 17 11  1  0
 22 18  2  0
  3 24  1  0
  4 25  1  0
  4 26  1  0
  5 27  1  0
  6 28  1  0
  6 29  1  0
  7 30  1  0
  7 31  1  0
  8 32  1  0
  9 33  1  0
  9 34  1  0
 10 35  1  0
 10 36  1  0
 12 37  1  0
 13 38  1  0
 14 39  1  0
 20 40  1  0
 21 41  1  0
M  END
>  <UniqueID>  (10) 
8

>  <SMILES>  (10) 
O=C(NCC1CCNCC1)c1cccc(Cl)c1-c1sccc1Cl

>  <Energy>  (10) 
81.66865900778903

>  <Genealogy>  (10) 
O=C(NCC1CCNCC1)c1cccc(Cl)c1-c1sccc1Cl (3D coordinates assigned)
O=C(NCC1CCNCC1)c1cccc(Cl)c1-c1sccc1Cl (nonaromatic ring conformer: 81.66865900778903 kcal/mol)

>  <smiles>  (10) 
O=C(NCC1CCNCC1)c1cccc(Cl)c1-c1sccc1Cl

>  <score_type>  (10) 
oracle

>  <origin>  (10) 
adgpu

>  <m_score__min__energy>  (10) 
-8.4499999999999993

>  <m_primary>  (10) 
energy

$$$$
10:0
     RDKit          3D

 28 29  0  0  0  0  0  0  0  0999 V2000
   -3.0570   18.9460  -27.0140 O   0  0  0  0  0  0  0  0  0  0  0  0
   -2.2230   19.8650  -26.8810 N   0  0  0  0  0  0  0  0  0  0  0  0
   -1.6210   20.0400  -25.6560 O   0  0  0  0  0  0  0  0  0  0  0  0
   -1.8940   20.7240  -27.9880 C   0  0  0  0  0  0  0  0  0  0  0  0
   -1.1620   20.2330  -29.0850 C   0  0  0  0  0  0  0  0  0  0  0  0
   -0.8490   21.0700  -30.1580 C   0  0  0  0  0  0  0  0  0  0  0  0
   -1.2550   22.4050  -30.1490 C   0  0  0  0  0  0  0  0  0  0  0  0
   -1.9790   22.9130  -29.0630 C   0  0  0  0  0  0  0  0  0  0  0  0
   -2.4790   24.6010  -29.0520 S   0  0  0  0  0  0  0  0  0  0  0  0
   -3.2350   24.8750  -27.7830 O   0  0  0  0  0  0  0  0  0  0  0  0
   -1.2840   25.5100  -29.1160 O   0  0  0  0  0  0  0  0  0  0  0  0
   -3.5100   24.9260  -30.4080 N   0  0  0  0  0  0  0  0  0  0  0  0
   -4.7230   24.2250  -30.7100 C   0  0  0  0  0  0  0  0  0  0  0  0
   -5.9310   24.7270  -30.2070 C   0  0  0  0  0  0  0  0  0  0  0  0
   -7.1360   24.0710  -30.4710 C   0  0  0  0  0  0  0  0  0  0  0  0
   -7.1440   22.9050  -31.2410 C   0  0  0  0  0  0  0  0  0  0  0  0
   -8.7920   22.0070  -31.6000 Br  0  0  0  0  0  0  0  0  0  0  0  0
   -5.9450   22.3960  -31.7490 C   0  0  0  0  0  0  0  0  0  0  0  0
   -4.7380   23.0510  -31.4870 C   0  0  0  0  0  0  0  0  0  0  0  0
   -2.3000   22.0720  -27.9880 C   0  0  0  0  0  0  0  0  0  0  0  0
   -0.8343   19.1830  -29.0973 H   0  0  0  0  0  0  0  0  0  0  0  0
   -0.2805   20.6757  -31.0132 H   0  0  0  0  0  0  0  0  0  0  0  0
   -1.0058   23.0600  -30.9969 H   0  0  0  0  0  0  0  0  0  0  0  0
   -5.9304   25.6443  -29.5999 H   0  0  0  0  0  0  0  0  0  0  0  0
   -8.0792   24.4728  -30.0724 H   0  0  0  0  0  0  0  0  0  0  0  0
   -5.9514   21.4786  -32.3559 H   0  0  0  0  0  0  0  0  0  0  0  0
   -3.7969   22.6478  -31.8892 H   0  0  0  0  0  0  0  0  0  0  0  0
   -2.8738   22.4688  -27.1376 H   0  0  0  0  0  0  0  0  0  0  0  0
  1  2  2  0
  2  3  1  0
  2  4  1  0
  4  5  2  0
  5  6  1  0
  6  7  2  0
  7  8  1  0
  8  9  1  0
  9 10  2  0
  9 11  2  0
  9 12  1  0
 12 13  1  0
 13 14  2  0
 14 15  1  0
 15 16  2  0
 16 17  1  0
 16 18  1  0
 18 19  2  0
  8 20  2  0
 20  4  1  0
 19 13  1  0
  5 21  1  0
  6 22  1  0
  7 23  1  0
 14 24  1  0
 15 25  1  0
 18 26  1  0
 19 27  1  0
 20 28  1  0
M  CHG  3   2   1   3  -1  12  -1
M  END
>  <UniqueID>  (11) 
9

>  <SMILES>  (11) 
O=[N+]([O-])c1cccc(S(=O)(=O)[N-]c2ccc(Br)cc2)c1

>  <Energy>  (11) 
32.83995922782844

>  <Genealogy>  (11) 
O=[N+]([O-])c1cccc(S(=O)(=O)[N-]c2ccc(Br)cc2)c1 (protonated)
O=[N+]([O-])c1cccc(S(=O)(=O)[N-]c2ccc(Br)cc2)c1 (3D coordinates assigned)
O=[N+]([O-])c1cccc(S(=O)(=O)[N-]c2ccc(Br)cc2)c1 (optimized conformer: 32.83995922782844 kcal/mol)

>  <smiles>  (11) 
O=[N+]([O-])c1cccc(S(=O)(=O)Nc2ccc(Br)cc2)c1

>  <score_type>  (11) 
oracle

>  <origin>  (11) 
adgpu

>  <m_score__min__energy>  (11) 
-9.1300000000000008

>  <m_primary>  (11) 
energy

$$$$
11:0
     RDKit          3D

 34 36  0  0  0  0  0  0  0  0999 V2000
   -6.3780   18.6290  -33.5180 C   0  0  0  0  0  0  0  0  0  0  0  0
   -6.8110   19.9670  -33.7370 O   0  0  0  0  0  0  0  0  0  0  0  0
   -7.0780   20.8900  -32.7140 C   0  0  0  0  0  0  0  0  0  0  0  0
   -8.3460   21.0100  -32.1190 C   0  0  0  0  0  0  0  0  0  0  0  0
   -8.5600   21.9440  -31.1040 C   0  0  0  0  0  0  0  0  0  0  0  0
   -7.5170   22.7680  -30.6730 C   0  0  0  0  0  0  0  0  0  0  0  0
   -6.2410   22.6640  -31.2560 C   0  0  0  0  0  0  0  0  0  0  0  0
   -5.1190   23.5290  -30.8140 C   0  0  0  0  0  0  0  0  0  0  0  0
   -4.0840   23.1840  -29.9620 C   0  0  0  0  0  0  0  0  0  0  0  0
   -3.3190   24.3290  -29.8810 C   0  0  0  0  0  0  0  0  0  0  0  0
   -2.1070   24.5000  -29.0540 C   0  0  0  0  0  0  0  0  0  0  0  0
   -1.6050   25.6520  -28.9470 O   0  0  0  0  0  0  0  0  0  0  0  0
   -1.4510   23.3620  -28.3690 C   0  0  0  0  0  0  0  0  0  0  0  0
   -0.7550   22.3990  -29.1230 C   0  0  0  0  0  0  0  0  0  0  0  0
   -0.1220   21.3250  -28.4910 C   0  0  0  0  0  0  0  0  0  0  0  0
   -0.1650   21.2080  -27.1000 C   0  0  0  0  0  0  0  0  0  0  0  0
   -0.8380   22.1660  -26.3390 C   0  0  0  0  0  0  0  0  0  0  0  0
   -1.4740   23.2410  -26.9660 C   0  0  0  0  0  0  0  0  0  0  0  0
   -3.8760   25.3010  -30.6310 N   0  0  0  0  0  0  0  0  0  0  0  0
   -4.9670   24.8120  -31.2010 N   0  0  0  0  0  0  0  0  0  0  0  0
   -6.0360   21.7180  -32.2780 C   0  0  0  0  0  0  0  0  0  0  0  0
   -6.3156   18.4361  -32.4368 H   0  0  0  0  0  0  0  0  0  0  0  0
   -7.0964   17.9319  -33.9740 H   0  0  0  0  0  0  0  0  0  0  0  0
   -5.3874   18.4849  -33.9740 H   0  0  0  0  0  0  0  0  0  0  0  0
   -9.1722   20.3658  -32.4544 H   0  0  0  0  0  0  0  0  0  0  0  0
   -9.5541   22.0318  -30.6414 H   0  0  0  0  0  0  0  0  0  0  0  0
   -7.6947   23.5021  -29.8733 H   0  0  0  0  0  0  0  0  0  0  0  0
   -3.9113   22.2185  -29.4639 H   0  0  0  0  0  0  0  0  0  0  0  0
   -0.7088   22.4922  -30.2181 H   0  0  0  0  0  0  0  0  0  0  0  0
    0.4105   20.5713  -29.0897 H   0  0  0  0  0  0  0  0  0  0  0  0
    0.3314   20.3610  -26.6038 H   0  0  0  0  0  0  0  0  0  0  0  0
   -0.8677   22.0743  -25.2432 H   0  0  0  0  0  0  0  0  0  0  0  0
   -1.9954   23.9968  -26.3603 H   0  0  0  0  0  0  0  0  0  0  0  0
   -5.0424   21.6277  -32.7412 H   0  0  0  0  0  0  0  0  0  0  0  0
  1  2  1  0
  2  3  1  0
  3  4  2  0
  4  5  1  0
  5  6  2  0
  6  7  1  0
  7  8  1  0
  8  9  1  0
  9 10  2  0
 10 11  1  0
 11 12  2  0
 11 13  1  0
 13 14  2  0
 14 15  1  0
 15 16  2  0
 16 17  1  0
 17 18  2  0
 10 19  1  0
 19 20  1  0
  7 21  2  0
 21  3  1  0
 20  8  2  0
 18 13  1  0
  1 22  1  0
  1 23  1  0
  1 24  1  0
  4 25  1  0
  5 26  1  0
  6 27  1  0
  9 28  1  0
 14 29  1  0
 15 30  1  0
 16 31  1  0
 17 32  1  0
 18 33  1  0
 21 34  1  0
M  CHG  1  19  -1
M  END
>  <UniqueID>  (12) 
10

>  <SMILES>  (12) 
COc1cccc(-c2cc(C(=O)c3ccccc3)[n-]n2)c1

>  <Energy>  (12) 
70.66857647952914

>  <Genealogy>  (12) 
COc1cccc(-c2cc(C(=O)c3ccccc3)[n-]n2)c1 (protonated)
COc1cccc(-c2cc(C(=O)c3ccccc3)[n-]n2)c1 (3D coordinates assigned)
COc1cccc(-c2cc(C(=O)c3ccccc3)[n-]n2)c1 (optimized conformer: 70.66857647952914 kcal/mol)

>  <smiles>  (12) 
COc1cccc(-c2cc(C(=O)c3ccccc3)[nH]n2)c1

>  <score_type>  (12) 
oracle

>  <origin>  (12) 
adgpu

>  <m_score__min__energy>  (12) 
-10.109999999999999

>  <m_primary>  (12) 
energy

$$$$
12:0
     RDKit          3D

 36 38  0  0  0  0  0  0  0  0999 V2000
   -8.9680   23.0720  -31.9770 C   0  0  0  0  0  0  0  0  0  0  0  0
   -7.5060   23.1130  -31.6810 C   0  0  0  0  0  0  0  0  0  0  0  0
   -6.8700   24.0420  -30.8820 C   0  0  0  0  0  0  0  0  0  0  0  0
   -5.5570   23.6130  -30.8390 C   0  0  0  0  0  0  0  0  0  0  0  0
   -4.5040   24.2330  -30.0080 C   0  0  0  0  0  0  0  0  0  0  0  0
   -3.8580   25.2130  -30.4700 O   0  0  0  0  0  0  0  0  0  0  0  0
   -4.2700   23.7920  -28.6610 N   0  0  0  0  0  0  0  0  0  0  0  0
   -3.2170   24.3250  -27.8430 C   0  0  0  0  0  0  0  0  0  0  0  0
   -3.5420   24.9260  -26.6140 C   0  0  0  0  0  0  0  0  0  0  0  0
   -4.8370   25.0190  -26.2210 F   0  0  0  0  0  0  0  0  0  0  0  0
   -2.5380   25.4500  -25.7960 C   0  0  0  0  0  0  0  0  0  0  0  0
   -1.2010   25.3670  -26.1880 C   0  0  0  0  0  0  0  0  0  0  0  0
   -0.8620   24.7510  -27.3950 C   0  0  0  0  0  0  0  0  0  0  0  0
   -1.8600   24.2220  -28.2230 C   0  0  0  0  0  0  0  0  0  0  0  0
   -1.3650   23.3760  -29.6830 Cl  0  0  0  0  0  0  0  0  0  0  0  0
   -5.4450   22.4890  -31.5890 N   0  0  0  0  0  0  0  0  0  0  0  0
   -4.2550   21.7500  -31.9040 C   0  0  0  0  0  0  0  0  0  0  0  0
   -3.7790   21.7170  -33.2240 C   0  0  0  0  0  0  0  0  0  0  0  0
   -2.6170   21.0070  -33.5370 C   0  0  0  0  0  0  0  0  0  0  0  0
   -1.9150   20.3360  -32.5310 C   0  0  0  0  0  0  0  0  0  0  0  0
   -2.3700   20.3830  -31.2100 C   0  0  0  0  0  0  0  0  0  0  0  0
   -3.5310   21.0940  -30.8950 C   0  0  0  0  0  0  0  0  0  0  0  0
   -6.6300   22.1750  -32.0900 N   0  0  0  0  0  0  0  0  0  0  0  0
   -9.5329   23.0562  -31.0332 H   0  0  0  0  0  0  0  0  0  0  0  0
   -9.2496   23.9626  -32.5580 H   0  0  0  0  0  0  0  0  0  0  0  0
   -9.1992   22.1670  -32.5580 H   0  0  0  0  0  0  0  0  0  0  0  0
   -7.3086   24.9233  -30.3912 H   0  0  0  0  0  0  0  0  0  0  0  0
   -5.0310   23.2600  -28.1820 H   0  0  0  0  0  0  0  0  0  0  0  0
   -2.8016   25.9288  -24.8414 H   0  0  0  0  0  0  0  0  0  0  0  0
   -0.4132   25.7873  -25.5456 H   0  0  0  0  0  0  0  0  0  0  0  0
    0.1936   24.6811  -27.6965 H   0  0  0  0  0  0  0  0  0  0  0  0
   -4.3233   22.2526  -34.0158 H   0  0  0  0  0  0  0  0  0  0  0  0
   -2.2544   20.9759  -34.5750 H   0  0  0  0  0  0  0  0  0  0  0  0
   -1.0044   19.7710  -32.7791 H   0  0  0  0  0  0  0  0  0  0  0  0
   -1.8138   19.8600  -30.4181 H   0  0  0  0  0  0  0  0  0  0  0  0
   -3.8793   21.1401  -29.8526 H   0  0  0  0  0  0  0  0  0  0  0  0
  1  2  1  0
  2  3  1  0
  3  4  2  0
  4  5  1  0
  5  6  2  0
  5  7  1  0
  7  8  1  0
  8  9  2  0
  9 10  1  0
  9 11  1  0
 11 12  2  0
 12 13  1  0
 13 14  2  0
 14 15  1  0
  4 16  1  0
 16 17  1  0
 17 18  2  0
 18 19  1  0
 19 20  2  0
 20 21  1  0
 21 22  2  0
 16 23  1  0
 23  2  2  0
 14  8  1  0
 22 17  1  0
  1 24  1  0
  1 25  1  0
  1 26  1  0
  3 27  1  0
  7 28  1  0
 11 29  1  0
 12 30  1  0
 13 31  1  0
 18 32  1  0
 19 33  1  0
 20 34  1  0
 21 35  1  0
 22 36  1  0
M  END
>  <UniqueID>  (13) 
11

>  <SMILES>  (13) 
Cc1cc(C(=O)Nc2c(F)cccc2Cl)n(-c2ccccc2)n1

>  <Energy>  (13) 
80.0423418726936

>  <Genealogy>  (13) 
Cc1cc(C(=O)Nc2c(F)cccc2Cl)n(-c2ccccc2)n1 (3D coordinates assigned)
Cc1cc(C(=O)Nc2c(F)cccc2Cl)n(-c2ccccc2)n1 (optimized conformer: 80.0423418726936 kcal/mol)

>  <smiles>  (13) 
Cc1cc(C(=O)Nc2c(F)cccc2Cl)n(-c2ccccc2)n1

>  <score_type>  (13) 
oracle

>  <origin>  (13) 
adgpu

>  <m_score__min__energy>  (13) 
-7.8799999999999999

>  <m_primary>  (13) 
energy

$$$$
13:0
     RDKit          3D

 29 31  0  0  0  0  0  0  0  0999 V2000
  -10.0460   20.9530  -32.1250 F   0  0  0  0  0  0  0  0  0  0  0  0
   -8.8990   21.5880  -31.7820 C   0  0  0  0  0  0  0  0  0  0  0  0
   -8.7840   22.9690  -31.9650 C   0  0  0  0  0  0  0  0  0  0  0  0
   -7.6000   23.6260  -31.6120 C   0  0  0  0  0  0  0  0  0  0  0  0
   -6.5230   22.9040  -31.0740 C   0  0  0  0  0  0  0  0  0  0  0  0
   -5.3010   23.5760  -30.7210 N   0  0  0  0  0  0  0  0  0  0  0  0
   -4.0270   23.2550  -31.0600 C   0  0  0  0  0  0  0  0  0  0  0  0
   -3.5970   22.0120  -31.7380 C   0  0  0  0  0  0  0  0  0  0  0  0
   -2.5280   21.2670  -31.2140 C   0  0  0  0  0  0  0  0  0  0  0  0
   -2.1170   20.0850  -31.8390 C   0  0  0  0  0  0  0  0  0  0  0  0
   -2.7780   19.6320  -32.9830 C   0  0  0  0  0  0  0  0  0  0  0  0
   -3.8550   20.3550  -33.5010 C   0  0  0  0  0  0  0  0  0  0  0  0
   -4.2700   21.5360  -32.8790 C   0  0  0  0  0  0  0  0  0  0  0  0
   -3.1580   24.2180  -30.6800 N   0  0  0  0  0  0  0  0  0  0  0  0
   -3.8780   25.1590  -30.0910 N   0  0  0  0  0  0  0  0  0  0  0  0
   -5.1640   24.7760  -30.1150 C   0  0  0  0  0  0  0  0  0  0  0  0
   -6.3990   25.7200  -29.5930 S   0  0  0  0  0  0  0  0  0  0  0  0
   -6.6460   21.5180  -30.8920 C   0  0  0  0  0  0  0  0  0  0  0  0
   -7.8300   20.8630  -31.2460 C   0  0  0  0  0  0  0  0  0  0  0  0
   -9.6246   23.5396  -32.3867 H   0  0  0  0  0  0  0  0  0  0  0  0
   -7.5128   24.7129  -31.7567 H   0  0  0  0  0  0  0  0  0  0  0  0
   -2.0112   21.6148  -30.3074 H   0  0  0  0  0  0  0  0  0  0  0  0
   -1.2724   19.5117  -31.4291 H   0  0  0  0  0  0  0  0  0  0  0  0
   -2.4501   18.7051  -33.4764 H   0  0  0  0  0  0  0  0  0  0  0  0
   -4.3772   19.9946  -34.3995 H   0  0  0  0  0  0  0  0  0  0  0  0
   -5.1263   22.0959  -33.2830 H   0  0  0  0  0  0  0  0  0  0  0  0
   -3.4900   26.0500  -29.7070 H   0  0  0  0  0  0  0  0  0  0  0  0
   -5.8079   20.9445  -30.4693 H   0  0  0  0  0  0  0  0  0  0  0  0
   -7.9205   19.7761  -31.1026 H   0  0  0  0  0  0  0  0  0  0  0  0
  1  2  1  0
  2  3  2  0
  3  4  1  0
  4  5  2  0
  5  6  1  0
  6  7  1  0
  7  8  1  0
  8  9  2  0
  9 10  1  0
 10 11  2  0
 11 12  1  0
 12 13  2  0
  7 14  2  0
 14 15  1  0
 15 16  1  0
 16 17  2  0
  5 18  1  0
 18 19  2  0
 19  2  1  0
 16  6  1  0
 13  8  1  0
  3 20  1  0
  4 21  1  0
  9 22  1  0
 10 23  1  0
 11 24  1  0
 12 25  1  0
 13 26  1  0
 15 27  1  0
 18 28  1  0
 19 29  1  0
M  END
>  <UniqueID>  (14) 
12

>  <SMILES>  (14) 
Fc1ccc(-n2c(-c3ccccc3)n[nH]c2=S)cc1

>  <Energy>  (14) 
78.12050577018077

>  <Genealogy>  (14) 
Fc1ccc(-n2c(-c3ccccc3)n[nH]c2=S)cc1 (3D coordinates assigned)
Fc1ccc(-n2c(-c3ccccc3)n[nH]c2=S)cc1 (optimized conformer: 78.12050577018077 kcal/mol)

>  <smiles>  (14) 
Fc1ccc(-n2c(-c3ccccc3)n[nH]c2=S)cc1

>  <score_type>  (14) 
oracle

>  <origin>  (14) 
adgpu

>  <m_score__min__energy>  (14) 
-7.3799999999999999

>  <m_primary>  (14) 
energy

$$$$
14:0
     RDKit          3D

 25 26  0  0  0  0  0  0  0  0999 V2000
   -3.8080   24.2380  -28.2340 O   0  0  0  0  0  0  0  0  0  0  0  0
   -2.9180   24.5240  -29.4090 S   0  0  0  0  0  0  0  0  0  0  0  0
   -1.8160   25.4430  -28.9600 O   0  0  0  0  0  0  0  0  0  0  0  0
   -3.8540   25.2960  -30.6580 N   0  0  0  0  0  0  0  0  0  0  0  0
   -5.2860   25.2740  -30.3510 C   0  0  0  0  0  0  0  0  0  0  0  0
   -5.9230   24.0010  -30.8230 C   0  0  0  0  0  0  0  0  0  0  0  0
   -7.0820   23.5080  -30.2050 C   0  0  0  0  0  0  0  0  0  0  0  0
   -7.6620   22.3300  -30.6790 C   0  0  0  0  0  0  0  0  0  0  0  0
   -7.0880   21.6580  -31.7590 C   0  0  0  0  0  0  0  0  0  0  0  0
   -5.9340   22.1770  -32.3510 C   0  0  0  0  0  0  0  0  0  0  0  0
   -5.3820   23.3260  -31.8750 N   0  0  0  0  0  0  0  0  0  0  0  0
   -2.2270   23.0120  -29.9740 C   0  0  0  0  0  0  0  0  0  0  0  0
   -2.8370   22.1230  -30.8440 C   0  0  0  0  0  0  0  0  0  0  0  0
   -2.0340   21.0160  -31.1410 C   0  0  0  0  0  0  0  0  0  0  0  0
   -0.7970   21.0380  -30.5080 C   0  0  0  0  0  0  0  0  0  0  0  0
   -0.6990   22.4370  -29.5790 S   0  0  0  0  0  0  0  0  0  0  0  0
   -5.4209   25.3606  -29.2627 H   0  0  0  0  0  0  0  0  0  0  0  0
   -5.7662   26.1167  -30.8699 H   0  0  0  0  0  0  0  0  0  0  0  0
   -7.5293   24.0445  -29.3552 H   0  0  0  0  0  0  0  0  0  0  0  0
   -8.5699   21.9322  -30.2020 H   0  0  0  0  0  0  0  0  0  0  0  0
   -7.5392   20.7299  -32.1399 H   0  0  0  0  0  0  0  0  0  0  0  0
   -5.4713   21.6565  -33.2025 H   0  0  0  0  0  0  0  0  0  0  0  0
   -3.8455   22.2715  -31.2574 H   0  0  0  0  0  0  0  0  0  0  0  0
   -2.3520   20.2047  -31.8124 H   0  0  0  0  0  0  0  0  0  0  0  0
   -0.0143   20.2704  -30.5990 H   0  0  0  0  0  0  0  0  0  0  0  0
  1  2  2  0
  2  3  2  0
  2  4  1  0
  4  5  1  0
  5  6  1  0
  6  7  2  0
  7  8  1  0
  8  9  2  0
  9 10  1  0
 10 11  2  0
  2 12  1  0
 12 13  2  0
 13 14  1  0
 14 15  2  0
 15 16  1  0
 11  6  1  0
 16 12  1  0
  5 17  1  0
  5 18  1  0
  7 19  1  0
  8 20  1  0
  9 21  1  0
 10 22  1  0
 13 23  1  0
 14 24  1  0
 15 25  1  0
M  CHG  1   4  -1
M  END
>  <UniqueID>  (15) 
13

>  <SMILES>  (15) 
O=S(=O)([N-]Cc1ccccn1)c1cccs1

>  <Energy>  (15) 
50.452556996561654

>  <Genealogy>  (15) 
O=S(=O)([N-]Cc1ccccn1)c1cccs1 (protonated)
O=S(=O)([N-]Cc1ccccn1)c1cccs1 (3D coordinates assigned)
O=S(=O)([N-]Cc1ccccn1)c1cccs1 (optimized conformer: 50.452556996561654 kcal/mol)

>  <smiles>  (15) 
O=S(=O)(NCc1ccccn1)c1cccs1

>  <score_type>  (15) 
oracle

>  <origin>  (15) 
adgpu

>  <m_score__min__energy>  (15) 
-7.9500000000000002

>  <m_primary>  (15) 
energy

$$$$
15:0
     RDKit          3D

 54 58  0  0  0  0  0  0  0  0999 V2000
    2.8371   13.5126  -32.5127 H   0  0  0  0  0  0  0  0  0  0  0  0
    2.4420   14.3920  -31.9830 C   0  0  0  0  0  0  0  0  0  0  0  0
    1.1390   14.4230  -31.5960 N   0  0  0  0  0  0  0  0  0  0  0  0
    0.6100   15.4960  -30.9500 C   0  0  0  0  0  0  0  0  0  0  0  0
   -0.4465   15.4855  -30.6439 H   0  0  0  0  0  0  0  0  0  0  0  0
    1.4090   16.6190  -30.6720 C   0  0  0  0  0  0  0  0  0  0  0  0
    0.8640   17.7930  -29.9540 C   0  0  0  0  0  0  0  0  0  0  0  0
    0.2030   18.7370  -30.6760 N   0  0  0  0  0  0  0  0  0  0  0  0
   -0.2860   19.8480  -30.1250 N   0  0  0  0  0  0  0  0  0  0  0  0
   -0.7420   20.5370  -30.7610 H   0  0  0  0  0  0  0  0  0  0  0  0
   -0.1440   20.0960  -28.7890 C   0  0  0  0  0  0  0  0  0  0  0  0
   -0.6010   21.1830  -28.2300 N   0  0  0  0  0  0  0  0  0  0  0  0
   -1.4150   22.1950  -28.8410 C   0  0  0  0  0  0  0  0  0  0  0  0
   -1.1440   23.5430  -28.5750 C   0  0  0  0  0  0  0  0  0  0  0  0
   -0.2909   23.8138  -27.9355 H   0  0  0  0  0  0  0  0  0  0  0  0
   -1.9520   24.5460  -29.1180 C   0  0  0  0  0  0  0  0  0  0  0  0
   -1.7270   25.6023  -28.9092 H   0  0  0  0  0  0  0  0  0  0  0  0
   -3.0460   24.2140  -29.9260 C   0  0  0  0  0  0  0  0  0  0  0  0
   -3.8590   25.2680  -30.4630 N   0  0  0  0  0  0  0  0  0  0  0  0
   -5.2900   25.3420  -30.4100 C   0  0  0  0  0  0  0  0  0  0  0  0
   -5.8250   26.4420  -30.1080 O   0  0  0  0  0  0  0  0  0  0  0  0
   -6.1510   24.1830  -30.7490 C   0  0  0  0  0  0  0  0  0  0  0  0
   -6.2870   23.7740  -32.0880 C   0  0  0  0  0  0  0  0  0  0  0  0
   -5.7532   24.3162  -32.8824 H   0  0  0  0  0  0  0  0  0  0  0  0
   -7.0970   22.6820  -32.4150 C   0  0  0  0  0  0  0  0  0  0  0  0
   -7.2060   22.3738  -33.4653 H   0  0  0  0  0  0  0  0  0  0  0  0
   -7.7680   21.9820  -31.4090 C   0  0  0  0  0  0  0  0  0  0  0  0
   -8.4074   21.1252  -31.6680 H   0  0  0  0  0  0  0  0  0  0  0  0
   -7.6270   22.3700  -30.0740 C   0  0  0  0  0  0  0  0  0  0  0  0
   -8.1537   21.8167  -29.2825 H   0  0  0  0  0  0  0  0  0  0  0  0
   -6.8170   23.4610  -29.7430 C   0  0  0  0  0  0  0  0  0  0  0  0
   -6.7003   23.7559  -28.6897 H   0  0  0  0  0  0  0  0  0  0  0  0
   -3.3560   22.8600  -30.1430 C   0  0  0  0  0  0  0  0  0  0  0  0
   -4.2379   22.5887  -30.7419 H   0  0  0  0  0  0  0  0  0  0  0  0
   -2.5470   21.8570  -29.6000 C   0  0  0  0  0  0  0  0  0  0  0  0
   -2.7983   20.7994  -29.7680 H   0  0  0  0  0  0  0  0  0  0  0  0
    0.5390   19.1720  -27.9980 C   0  0  0  0  0  0  0  0  0  0  0  0
    0.6895   19.3714  -26.9267 H   0  0  0  0  0  0  0  0  0  0  0  0
    1.0330   17.9920  -28.5650 C   0  0  0  0  0  0  0  0  0  0  0  0
    1.6540   16.9760  -27.6800 C   0  0  0  0  0  0  0  0  0  0  0  0
    2.8810   17.2410  -27.0490 C   0  0  0  0  0  0  0  0  0  0  0  0
    3.3846   18.2049  -27.2141 H   0  0  0  0  0  0  0  0  0  0  0  0
    3.4650   16.2850  -26.2120 C   0  0  0  0  0  0  0  0  0  0  0  0
    4.4280   16.4968  -25.7245 H   0  0  0  0  0  0  0  0  0  0  0  0
    2.8270   15.0610  -25.9940 C   0  0  0  0  0  0  0  0  0  0  0  0
    3.2901   14.3084  -25.3389 H   0  0  0  0  0  0  0  0  0  0  0  0
    1.6010   14.7930  -26.6080 C   0  0  0  0  0  0  0  0  0  0  0  0
    1.0980   13.8305  -26.4327 H   0  0  0  0  0  0  0  0  0  0  0  0
    1.0120   15.7460  -27.4450 C   0  0  0  0  0  0  0  0  0  0  0  0
    0.0435   15.5334  -27.9213 H   0  0  0  0  0  0  0  0  0  0  0  0
    2.7610   16.5880  -31.0440 C   0  0  0  0  0  0  0  0  0  0  0  0
    3.4146   17.4417  -30.8118 H   0  0  0  0  0  0  0  0  0  0  0  0
    3.2780   15.4740  -31.7090 C   0  0  0  0  0  0  0  0  0  0  0  0
    4.3347   15.4503  -32.0138 H   0  0  0  0  0  0  0  0  0  0  0  0
  1  2  1  0
  2  3  2  0
  3  4  1  0
  4  5  1  0
  4  6  2  0
  6  7  1  0
  7  8  2  0
  8  9  1  0
  9 10  1  0
  9 11  1  0
 11 12  2  0
 12 13  1  0
 13 14  2  0
 14 15  1  0
 14 16  1  0
 16 17  1  0
 16 18  2  0
 18 19  1  0
 19 20  1  0
 20 21  2  0
 20 22  1  0
 22 23  2  0
 23 24  1  0
 23 25  1  0
 25 26  1  0
 25 27  2  0
 27 28  1  0
 27 29  1  0
 29 30  1  0
 29 31  2  0
 31 32  1  0
 18 33  1  0
 33 34  1  0
 33 35  2  0
 35 36  1  0
 11 37  1  0
 37 38  1  0
 37 39  2  0
 39 40  1  0
 40 41  2  0
 41 42  1  0
 41 43  1  0
 43 44  1  0
 43 45  2  0
 45 46  1  0
 45 47  1  0
 47 48  1  0
 47 49  2  0
 49 50  1  0
  6 51  1  0
 51 52  1  0
 51 53  2  0
 53 54  1  0
 53  2  1  0
 39  7  1  0
 49 40  1  0
 35 13  1  0
 31 22  1  0
M  CHG  1  19  -1
M  END
>  <UniqueID>  (16) 
14

>  <SMILES>  (16) 
O=C([N-]c1ccc(/N=c2/cc(-c3ccccc3)c(-c3cccnc3)n[nH]2)cc1)c1ccccc1

>  <Energy>  (16) 
90.53892730788016

>  <Genealogy>  (16) 
O=C([N-]c1ccc(N=c2cc(-c3ccccc3)c(-c3cccnc3)n[nH]2)cc1)c1ccccc1 (protonated)
O=C([N-]c1ccc(/N=c2/cc(-c3ccccc3)c(-c3cccnc3)n[nH]2)cc1)c1ccccc1 (cis-trans isomerization)
O=C([N-]c1ccc(/N=c2/cc(-c3ccccc3)c(-c3cccnc3)n[nH]2)cc1)c1ccccc1 (3D coordinates assigned)
O=C([N-]c1ccc(/N=c2/cc(-c3ccccc3)c(-c3cccnc3)n[nH]2)cc1)c1ccccc1 (optimized conformer: 90.53892730788016 kcal/mol)

>  <smiles>  (16) 
O=C(Nc1ccc(N=c2cc(-c3ccccc3)c(-c3cccnc3)n[nH]2)cc1)c1ccccc1

>  <score_type>  (16) 
oracle

>  <origin>  (16) 
adgpu

>  <m_score__min__energy>  (16) 
-9.6500000000000004

>  <m_primary>  (16) 
energy

$$$$
16:0
     RDKit          3D

 39 41  0  0  0  0  0  0  0  0999 V2000
    2.1820   25.8760  -26.8290 C   0  0  0  0  0  0  0  0  0  0  0  0
    1.2870   25.2840  -27.7640 O   0  0  0  0  0  0  0  0  0  0  0  0
   -0.0970   25.1580  -27.5670 C   0  0  0  0  0  0  0  0  0  0  0  0
   -0.6010   25.3490  -26.2760 C   0  0  0  0  0  0  0  0  0  0  0  0
   -1.9690   25.2340  -26.0270 C   0  0  0  0  0  0  0  0  0  0  0  0
   -2.8490   24.9260  -27.0660 C   0  0  0  0  0  0  0  0  0  0  0  0
   -2.3680   24.7300  -28.3720 C   0  0  0  0  0  0  0  0  0  0  0  0
   -3.3200   24.4040  -29.4580 C   0  0  0  0  0  0  0  0  0  0  0  0
   -3.8920   23.1750  -29.7390 C   0  0  0  0  0  0  0  0  0  0  0  0
   -4.6890   23.4310  -30.8390 C   0  0  0  0  0  0  0  0  0  0  0  0
   -5.5260   22.4630  -31.5690 C   0  0  0  0  0  0  0  0  0  0  0  0
   -5.1880   22.1240  -32.7360 O   0  0  0  0  0  0  0  0  0  0  0  0
   -6.7280   21.9330  -30.9840 N   0  0  0  0  0  0  0  0  0  0  0  0
   -7.4380   20.8040  -31.5270 C   0  0  0  0  0  0  0  0  0  0  0  0
   -6.8190   19.5430  -31.5830 C   0  0  0  0  0  0  0  0  0  0  0  0
   -7.5110   18.4330  -32.0740 C   0  0  0  0  0  0  0  0  0  0  0  0
   -8.8310   18.5660  -32.5020 C   0  0  0  0  0  0  0  0  0  0  0  0
   -9.4650   19.8090  -32.4410 C   0  0  0  0  0  0  0  0  0  0  0  0
   -8.7790   20.9370  -31.9600 C   0  0  0  0  0  0  0  0  0  0  0  0
   -9.4870   22.2640  -31.9050 C   0  0  0  0  0  0  0  0  0  0  0  0
   -4.5840   24.7300  -31.1790 N   0  0  0  0  0  0  0  0  0  0  0  0
   -3.7620   25.2780  -30.3340 O   0  0  0  0  0  0  0  0  0  0  0  0
   -0.9860   24.8480  -28.6160 C   0  0  0  0  0  0  0  0  0  0  0  0
    1.8443   25.6526  -25.8062 H   0  0  0  0  0  0  0  0  0  0  0  0
    3.1922   25.4673  -26.9791 H   0  0  0  0  0  0  0  0  0  0  0  0
    2.2012   26.9655  -26.9791 H   0  0  0  0  0  0  0  0  0  0  0  0
    0.0858   25.5915  -25.4517 H   0  0  0  0  0  0  0  0  0  0  0  0
   -2.3555   25.3866  -25.0085 H   0  0  0  0  0  0  0  0  0  0  0  0
   -3.9260   24.8361  -26.8612 H   0  0  0  0  0  0  0  0  0  0  0  0
   -3.7467   22.2206  -29.2117 H   0  0  0  0  0  0  0  0  0  0  0  0
   -7.1450   22.4340  -30.1690 H   0  0  0  0  0  0  0  0  0  0  0  0
   -5.7810   19.4293  -31.2373 H   0  0  0  0  0  0  0  0  0  0  0  0
   -7.0137   17.4531  -32.1229 H   0  0  0  0  0  0  0  0  0  0  0  0
   -9.3740   17.6908  -32.8883 H   0  0  0  0  0  0  0  0  0  0  0  0
  -10.5095   19.9057  -32.7721 H   0  0  0  0  0  0  0  0  0  0  0  0
   -9.6416   22.5538  -30.8552 H   0  0  0  0  0  0  0  0  0  0  0  0
   -8.8760   23.0268  -32.4098 H   0  0  0  0  0  0  0  0  0  0  0  0
  -10.4608   22.1812  -32.4098 H   0  0  0  0  0  0  0  0  0  0  0  0
   -0.5971   24.6970  -29.6338 H   0  0  0  0  0  0  0  0  0  0  0  0
  1  2  1  0
  2  3  1  0
  3  4  2  0
  4  5  1  0
  5  6  2  0
  6  7  1  0
  7  8  1  0
  8  9  2  0
  9 10  1  0
 10 11  1  0
 11 12  2  0
 11 13  1  0
 13 14  1  0
 14 15  2  0
 15 16  1  0
 16 17  2  0
 17 18  1  0
 18 19  2  0
 19 20  1  0
 10 21  2  0
 21 22  1  0
  7 23  2  0
 23  3  1  0
 22  8  1  0
 19 14  1  0
  1 24  1  0
  1 25  1  0
  1 26  1  0
  4 27  1  0
  5 28  1  0
  6 29  1  0
  9 30  1  0
 13 31  1  0
 15 32  1  0
 16 33  1  0
 17 34  1  0
 18 35  1  0
 20 36  1  0
 20 37  1  0
 20 38  1  0
 23 39  1  0
M  END
>  <UniqueID>  (17) 
15

>  <SMILES>  (17) 
COc1cccc(-c2cc(C(=O)Nc3ccccc3C)no2)c1

>  <Energy>  (17) 
75.8087609601175

>  <Genealogy>  (17) 
COc1cccc(-c2cc(C(=O)Nc3ccccc3C)no2)c1 (3D coordinates assigned)
COc1cccc(-c2cc(C(=O)Nc3ccccc3C)no2)c1 (optimized conformer: 75.8087609601175 kcal/mol)

>  <smiles>  (17) 
COc1cccc(-c2cc(C(=O)Nc3ccccc3C)no2)c1

>  <score_type>  (17) 
oracle

>  <origin>  (17) 
adgpu

>  <m_score__min__energy>  (17) 
-9.3200000000000003

>  <m_primary>  (17) 
energy

$$$$
17:0
     RDKit          3D

 35 37  0  0  0  0  0  0  0  0999 V2000
   -9.3905   23.1411  -31.5995 H   0  0  0  0  0  0  0  0  0  0  0  0
   -9.0300   22.1070  -31.7030 C   0  0  0  0  0  0  0  0  0  0  0  0
   -9.7950   21.0450  -32.0190 N   0  0  0  0  0  0  0  0  0  0  0  0
   -9.0070   19.9840  -32.0640 N   0  0  0  0  0  0  0  0  0  0  0  0
   -9.4820   18.6300  -32.3160 C   0  0  0  0  0  0  0  0  0  0  0  0
   -9.6609   18.1199  -31.3580 H   0  0  0  0  0  0  0  0  0  0  0  0
  -10.4194   18.6712  -32.8902 H   0  0  0  0  0  0  0  0  0  0  0  0
   -8.7244   18.0765  -32.8902 H   0  0  0  0  0  0  0  0  0  0  0  0
   -7.7440   20.3310  -31.7600 C   0  0  0  0  0  0  0  0  0  0  0  0
   -6.8826   19.6491  -31.7052 H   0  0  0  0  0  0  0  0  0  0  0  0
   -7.7160   21.6950  -31.5280 C   0  0  0  0  0  0  0  0  0  0  0  0
   -6.5410   22.5290  -31.1610 C   0  0  0  0  0  0  0  0  0  0  0  0
   -6.7160   23.8370  -30.6820 C   0  0  0  0  0  0  0  0  0  0  0  0
   -7.7309   24.2487  -30.5800 H   0  0  0  0  0  0  0  0  0  0  0  0
   -5.6140   24.6200  -30.3340 C   0  0  0  0  0  0  0  0  0  0  0  0
   -5.7676   25.6484  -29.9750 H   0  0  0  0  0  0  0  0  0  0  0  0
   -4.3120   24.1070  -30.4380 C   0  0  0  0  0  0  0  0  0  0  0  0
   -3.1710   24.9210  -30.1190 N   0  0  0  0  0  0  0  0  0  0  0  0
   -2.5110   24.9180  -28.9970 C   0  0  0  0  0  0  0  0  0  0  0  0
   -1.4690   25.7450  -28.7770 N   0  0  0  0  0  0  0  0  0  0  0  0
   -0.9090   25.5350  -27.5550 C   0  0  0  0  0  0  0  0  0  0  0  0
    0.2870   26.3030  -27.0940 C   0  0  0  0  0  0  0  0  0  0  0  0
    0.3112   26.3186  -25.9944 H   0  0  0  0  0  0  0  0  0  0  0  0
    1.2004   25.8222  -27.4741 H   0  0  0  0  0  0  0  0  0  0  0  0
    0.2298   27.3336  -27.4741 H   0  0  0  0  0  0  0  0  0  0  0  0
   -1.4850   24.5130  -26.8040 C   0  0  0  0  0  0  0  0  0  0  0  0
   -1.1666   24.1871  -25.8028 H   0  0  0  0  0  0  0  0  0  0  0  0
   -2.7540   23.8650  -27.6990 S   0  0  0  0  0  0  0  0  0  0  0  0
   -4.1200   22.8100  -30.9530 C   0  0  0  0  0  0  0  0  0  0  0  0
   -2.7320   22.2510  -31.1040 C   0  0  0  0  0  0  0  0  0  0  0  0
   -2.2970   22.0758  -30.1090 H   0  0  0  0  0  0  0  0  0  0  0  0
   -2.7774   21.3010  -31.6567 H   0  0  0  0  0  0  0  0  0  0  0  0
   -2.1064   22.9673  -31.6567 H   0  0  0  0  0  0  0  0  0  0  0  0
   -5.2340   22.0260  -31.2970 C   0  0  0  0  0  0  0  0  0  0  0  0
   -5.0823   21.0052  -31.6778 H   0  0  0  0  0  0  0  0  0  0  0  0
  1  2  1  0
  2  3  2  0
  3  4  1  0
  4  5  1  0
  5  6  1  0
  5  7  1  0
  5  8  1  0
  4  9  1  0
  9 10  1  0
  9 11  2  0
 11 12  1  0
 12 13  2  0
 13 14  1  0
 13 15  1  0
 15 16  1  0
 15 17  2  0
 17 18  1  0
 18 19  2  0
 19 20  1  0
 20 21  1  0
 21 22  1  0
 22 23  1  0
 22 24  1  0
 22 25  1  0
 21 26  2  0
 26 27  1  0
 26 28  1  0
 17 29  1  0
 29 30  1  0
 30 31  1  0
 30 32  1  0
 30 33  1  0
 29 34  2  0
 34 35  1  0
 11  2  1  0
 34 12  1  0
 28 19  1  0
M  CHG  1  20  -1
M  END
>  <UniqueID>  (18) 
16

>  <SMILES>  (18) 
Cc1cs/c(=N\c2ccc(-c3cnn(C)c3)cc2C)[n-]1

>  <Energy>  (18) 
103.81945976124155

>  <Genealogy>  (18) 
Cc1csc(=Nc2ccc(-c3cnn(C)c3)cc2C)[n-]1 (protonated)
Cc1cs/c(=N\c2ccc(-c3cnn(C)c3)cc2C)[n-]1 (cis-trans isomerization)
Cc1cs/c(=N\c2ccc(-c3cnn(C)c3)cc2C)[n-]1 (3D coordinates assigned)
Cc1cs/c(=N\c2ccc(-c3cnn(C)c3)cc2C)[n-]1 (optimized conformer: 103.81945976124155 kcal/mol)

>  <smiles>  (18) 
Cc1csc(=Nc2ccc(-c3cnn(C)c3)cc2C)[nH]1

>  <score_type>  (18) 
oracle

>  <origin>  (18) 
adgpu

>  <m_score__min__energy>  (18) 
-9.8300000000000001

>  <m_primary>  (18) 
energy

$$$$
18:0
     RDKit          3D

 31 33  0  0  0  0  0  0  0  0999 V2000
   -4.2460   25.6090  -30.5190 N   0  0  0  0  0  0  0  0  0  0  0  0
   -3.4030   24.6480  -29.8740 C   0  0  0  0  0  0  0  0  0  0  0  0
   -2.2280   25.0720  -29.3360 N   0  0  0  0  0  0  0  0  0  0  0  0
   -1.3510   24.2240  -28.7420 C   0  0  0  0  0  0  0  0  0  0  0  0
   -0.1920   24.7070  -28.2210 N   0  0  0  0  0  0  0  0  0  0  0  0
    0.7160   23.8940  -27.6200 C   0  0  0  0  0  0  0  0  0  0  0  0
    0.4730   22.5220  -27.5240 C   0  0  0  0  0  0  0  0  0  0  0  0
   -0.7090   21.9960  -28.0490 C   0  0  0  0  0  0  0  0  0  0  0  0
   -1.6410   22.8460  -28.6680 C   0  0  0  0  0  0  0  0  0  0  0  0
   -2.8490   22.3740  -29.2110 C   0  0  0  0  0  0  0  0  0  0  0  0
   -3.1370   21.1470  -29.1420 O   0  0  0  0  0  0  0  0  0  0  0  0
   -3.7460   23.2770  -29.8180 C   0  0  0  0  0  0  0  0  0  0  0  0
   -5.0330   22.7850  -30.3620 C   0  0  0  0  0  0  0  0  0  0  0  0
   -5.0500   21.9140  -31.4610 C   0  0  0  0  0  0  0  0  0  0  0  0
   -6.2630   21.4390  -31.9660 C   0  0  0  0  0  0  0  0  0  0  0  0
   -7.4810   21.8380  -31.3880 C   0  0  0  0  0  0  0  0  0  0  0  0
   -8.7860   21.2860  -31.9020 C   0  0  0  0  0  0  0  0  0  0  0  0
   -9.5870   22.3290  -32.3280 F   0  0  0  0  0  0  0  0  0  0  0  0
   -8.5680   20.4230  -32.9630 F   0  0  0  0  0  0  0  0  0  0  0  0
   -9.4480   20.5870  -30.9070 F   0  0  0  0  0  0  0  0  0  0  0  0
   -7.4580   22.6830  -30.2650 C   0  0  0  0  0  0  0  0  0  0  0  0
   -6.2440   23.1580  -29.7610 C   0  0  0  0  0  0  0  0  0  0  0  0
   -4.9190   26.2060  -29.9900 H   0  0  0  0  0  0  0  0  0  0  0  0
   -4.2410   25.6880  -31.5600 H   0  0  0  0  0  0  0  0  0  0  0  0
    1.6441   24.3173  -27.2084 H   0  0  0  0  0  0  0  0  0  0  0  0
    1.2067   21.8614  -27.0389 H   0  0  0  0  0  0  0  0  0  0  0  0
   -0.9105   20.9169  -27.9781 H   0  0  0  0  0  0  0  0  0  0  0  0
   -4.1036   21.6033  -31.9277 H   0  0  0  0  0  0  0  0  0  0  0  0
   -6.2651   20.7480  -32.8219 H   0  0  0  0  0  0  0  0  0  0  0  0
   -8.4017   22.9724  -29.7796 H   0  0  0  0  0  0  0  0  0  0  0  0
   -6.2384   23.8278  -28.8885 H   0  0  0  0  0  0  0  0  0  0  0  0
  1  2  1  0
  2  3  1  0
  3  4  1  0
  4  5  2  0
  5  6  1  0
  6  7  2  0
  7  8  1  0
  8  9  2  0
  9 10  1  0
 10 11  2  0
 10 12  1  0
 12 13  1  0
 13 14  2  0
 14 15  1  0
 15 16  2  0
 16 17  1  0
 17 18  1  0
 17 19  1  0
 17 20  1  0
 16 21  1  0
 21 22  2  0
 12  2  2  0
 22 13  1  0
  9  4  1  0
  1 23  1  0
  1 24  1  0
  6 25  1  0
  7 26  1  0
  8 27  1  0
 14 28  1  0
 15 29  1  0
 21 30  1  0
 22 31  1  0
M  CHG  1   3  -1
M  END
>  <UniqueID>  (19) 
17

>  <SMILES>  (19) 
Nc1[n-]c2ncccc2c(=O)c1-c1ccc(C(F)(F)F)cc1

>  <Energy>  (19) 
47.76229595058785

>  <Genealogy>  (19) 
Nc1[n-]c2ncccc2c(=O)c1-c1ccc(C(F)(F)F)cc1 (protonated)
Nc1[n-]c2ncccc2c(=O)c1-c1ccc(C(F)(F)F)cc1 (3D coordinates assigned)
Nc1[n-]c2ncccc2c(=O)c1-c1ccc(C(F)(F)F)cc1 (optimized conformer: 47.76229595058785 kcal/mol)

>  <smiles>  (19) 
Nc1[nH]c2ncccc2c(=O)c1-c1ccc(C(F)(F)F)cc1

>  <score_type>  (19) 
oracle

>  <origin>  (19) 
adgpu

>  <m_score__min__energy>  (19) 
-8.9700000000000006

>  <m_primary>  (19) 
energy

$$$$
19:0
     RDKit          3D

 35 38  0  0  0  0  0  0  0  0999 V2000
   -0.9602   26.5732  -28.4046 H   0  0  0  0  0  0  0  0  0  0  0  0
   -1.2470   25.5370  -28.6370 C   0  0  0  0  0  0  0  0  0  0  0  0
   -2.3850   25.2920  -29.3290 N   0  0  0  0  0  0  0  0  0  0  0  0
   -2.7540   24.0370  -29.6870 C   0  0  0  0  0  0  0  0  0  0  0  0
   -3.9060   23.8680  -30.4650 C   0  0  0  0  0  0  0  0  0  0  0  0
   -4.5537   24.7302  -30.6818 H   0  0  0  0  0  0  0  0  0  0  0  0
   -4.2330   22.6090  -30.9650 C   0  0  0  0  0  0  0  0  0  0  0  0
   -3.4120   21.5130  -30.6880 C   0  0  0  0  0  0  0  0  0  0  0  0
   -2.2590   21.6710  -29.9160 C   0  0  0  0  0  0  0  0  0  0  0  0
   -1.5841   20.8157  -29.7642 H   0  0  0  0  0  0  0  0  0  0  0  0
   -1.9500   22.9200  -29.3270 C   0  0  0  0  0  0  0  0  0  0  0  0
   -0.8210   23.1480  -28.4750 C   0  0  0  0  0  0  0  0  0  0  0  0
   -0.1380   22.2020  -27.8740 N   0  0  0  0  0  0  0  0  0  0  0  0
   -0.4590   20.8220  -27.6590 C   0  0  0  0  0  0  0  0  0  0  0  0
    0.4790   19.8380  -27.9960 C   0  0  0  0  0  0  0  0  0  0  0  0
    1.4345   20.1269  -28.4582 H   0  0  0  0  0  0  0  0  0  0  0  0
    0.2050   18.4900  -27.7470 C   0  0  0  0  0  0  0  0  0  0  0  0
    0.9368   17.7193  -28.0306 H   0  0  0  0  0  0  0  0  0  0  0  0
   -0.9980   18.1200  -27.1380 C   0  0  0  0  0  0  0  0  0  0  0  0
   -1.2166   17.0579  -26.9531 H   0  0  0  0  0  0  0  0  0  0  0  0
   -1.9230   19.0990  -26.7640 C   0  0  0  0  0  0  0  0  0  0  0  0
   -3.4250   18.6380  -25.9830 Cl  0  0  0  0  0  0  0  0  0  0  0  0
   -1.6490   20.4500  -27.0080 C   0  0  0  0  0  0  0  0  0  0  0  0
   -2.3655   21.2218  -26.6901 H   0  0  0  0  0  0  0  0  0  0  0  0
   -0.4360   24.4810  -28.2170 C   0  0  0  0  0  0  0  0  0  0  0  0
    0.7430   24.7860  -27.4380 C   0  0  0  0  0  0  0  0  0  0  0  0
    1.6860   25.0290  -26.8130 N   0  0  0  0  0  0  0  0  0  0  0  0
   -3.7570   20.2600  -31.2040 O   0  0  0  0  0  0  0  0  0  0  0  0
   -5.0590   20.0160  -31.7430 C   0  0  0  0  0  0  0  0  0  0  0  0
   -5.0184   19.1416  -32.4092 H   0  0  0  0  0  0  0  0  0  0  0  0
   -5.7598   19.8264  -30.9166 H   0  0  0  0  0  0  0  0  0  0  0  0
   -5.5410   21.2370  -32.5380 C   0  0  0  0  0  0  0  0  0  0  0  0
   -4.9624   21.3146  -33.4703 H   0  0  0  0  0  0  0  0  0  0  0  0
   -6.6100   21.1158  -32.7673 H   0  0  0  0  0  0  0  0  0  0  0  0
   -5.3620   22.4300  -31.7710 O   0  0  0  0  0  0  0  0  0  0  0  0
  1  2  1  0
  2  3  1  0
  3  4  1  0
  4  5  2  0
  5  6  1  0
  5  7  1  0
  7  8  2  0
  8  9  1  0
  9 10  1  0
  9 11  2  0
 11 12  1  0
 12 13  2  0
 13 14  1  0
 14 15  2  0
 15 16  1  0
 15 17  1  0
 17 18  1  0
 17 19  2  0
 19 20  1  0
 19 21  1  0
 21 22  1  0
 21 23  2  0
 23 24  1  0
 12 25  1  0
 25 26  1  0
 26 27  3  0
  8 28  1  0
 28 29  1  0
 29 30  1  0
 29 31  1  0
 29 32  1  0
 32 33  1  0
 32 34  1  0
 32 35  1  0
 25  2  2  0
 11  4  1  0
 23 14  1  0
 35  7  1  0
M  CHG  1   3  -1
M  END
>  <UniqueID>  (20) 
18

>  <SMILES>  (20) 
N#Cc1c[n-]c2cc3c(cc2/c1=N\c1cccc(Cl)c1)OCCO3

>  <Energy>  (20) 
64.1537817051705

>  <Genealogy>  (20) 
N#Cc1c[n-]c2cc3c(cc2c1=Nc1cccc(Cl)c1)OCCO3 (protonated)
N#Cc1c[n-]c2cc3c(cc2/c1=N\c1cccc(Cl)c1)OCCO3 (cis-trans isomerization)
N#Cc1c[n-]c2cc3c(cc2/c1=N\c1cccc(Cl)c1)OCCO3 (3D coordinates assigned)
N#Cc1c[n-]c2cc3c(cc2/c1=N\c1cccc(Cl)c1)OCCO3 (nonaromatic ring conformer: 64.1537817051705 kcal/mol)

>  <smiles>  (20) 
N#Cc1c[nH]c2cc3c(cc2c1=Nc1cccc(Cl)c1)OCCO3

>  <score_type>  (20) 
oracle

>  <origin>  (20) 
adgpu

>  <m_score__min__energy>  (20) 
-8.8499999999999996

>  <m_primary>  (20) 
energy

$$$$
20:0
     RDKit          3D

 50 53  0  0  0  0  0  0  0  0999 V2000
   -3.8540   25.1080  -30.4350 O   0  0  0  0  0  0  0  0  0  0  0  0
   -4.6030   24.3580  -29.7510 C   0  0  0  0  0  0  0  0  0  0  0  0
   -4.2810   24.1240  -28.3710 N   0  0  0  0  0  0  0  0  0  0  0  0
   -2.9540   24.3360  -27.8660 C   0  0  0  0  0  0  0  0  0  0  0  0
   -2.7490   25.2900  -26.8580 C   0  0  0  0  0  0  0  0  0  0  0  0
   -1.4580   25.5590  -26.3920 C   0  0  0  0  0  0  0  0  0  0  0  0
   -1.2110   26.7610  -25.1400 Cl  0  0  0  0  0  0  0  0  0  0  0  0
   -0.3650   24.8700  -26.9230 C   0  0  0  0  0  0  0  0  0  0  0  0
   -0.5610   23.8970  -27.9070 C   0  0  0  0  0  0  0  0  0  0  0  0
   -1.8530   23.6130  -28.3750 C   0  0  0  0  0  0  0  0  0  0  0  0
   -2.0530   22.5360  -29.3040 N   0  0  0  0  0  0  0  0  0  0  0  0
   -1.6750   22.6630  -30.7000 C   0  0  0  0  0  0  0  0  0  0  0  0
   -2.7620   22.0550  -31.5890 C   0  0  0  0  0  0  0  0  0  0  0  0
   -3.5050   20.9160  -30.9950 N   0  0  0  0  0  0  0  0  0  0  0  0
   -4.5900   20.3120  -31.7690 C   0  0  0  0  0  0  0  0  0  0  0  0
   -4.8640   20.7200  -33.0990 C   0  0  0  0  0  0  0  0  0  0  0  0
   -5.8710   20.1080  -33.8500 C   0  0  0  0  0  0  0  0  0  0  0  0
   -6.6340   19.0820  -33.2980 C   0  0  0  0  0  0  0  0  0  0  0  0
   -6.3980   18.6700  -31.9890 C   0  0  0  0  0  0  0  0  0  0  0  0
   -5.3920   19.2750  -31.2300 C   0  0  0  0  0  0  0  0  0  0  0  0
   -3.2780   20.4350  -29.6090 C   0  0  0  0  0  0  0  0  0  0  0  0
   -2.1980   21.1750  -28.8190 C   0  0  0  0  0  0  0  0  0  0  0  0
   -5.8000   23.7470  -30.3880 C   0  0  0  0  0  0  0  0  0  0  0  0
   -6.6360   22.8580  -29.6840 C   0  0  0  0  0  0  0  0  0  0  0  0
   -7.7290   22.2570  -30.3170 C   0  0  0  0  0  0  0  0  0  0  0  0
   -8.0040   22.5360  -31.6570 C   0  0  0  0  0  0  0  0  0  0  0  0
   -9.0560   21.9420  -32.2700 F   0  0  0  0  0  0  0  0  0  0  0  0
   -7.1850   23.4150  -32.3670 C   0  0  0  0  0  0  0  0  0  0  0  0
   -6.0910   24.0170  -31.7400 C   0  0  0  0  0  0  0  0  0  0  0  0
   -5.0590   24.0300  -27.6810 H   0  0  0  0  0  0  0  0  0  0  0  0
   -3.6080   25.8292  -26.4320 H   0  0  0  0  0  0  0  0  0  0  0  0
    0.6512   25.0935  -26.5662 H   0  0  0  0  0  0  0  0  0  0  0  0
    0.3018   23.3512  -28.3166 H   0  0  0  0  0  0  0  0  0  0  0  0
   -1.5521   23.7272  -30.9496 H   0  0  0  0  0  0  0  0  0  0  0  0
   -0.7275   22.1306  -30.8695 H   0  0  0  0  0  0  0  0  0  0  0  0
   -3.4877   22.8465  -31.8275 H   0  0  0  0  0  0  0  0  0  0  0  0
   -2.2427   21.6519  -32.4710 H   0  0  0  0  0  0  0  0  0  0  0  0
   -4.2735   21.5325  -33.5475 H   0  0  0  0  0  0  0  0  0  0  0  0
   -6.0619   20.4381  -34.8818 H   0  0  0  0  0  0  0  0  0  0  0  0
   -7.4213   18.5982  -33.8947 H   0  0  0  0  0  0  0  0  0  0  0  0
   -7.0058   17.8650  -31.5503 H   0  0  0  0  0  0  0  0  0  0  0  0
   -5.2198   18.9404  -30.1964 H   0  0  0  0  0  0  0  0  0  0  0  0
   -4.2254   20.5314  -29.0584 H   0  0  0  0  0  0  0  0  0  0  0  0
   -2.9218   19.3988  -29.7057 H   0  0  0  0  0  0  0  0  0  0  0  0
   -2.4794   21.1980  -27.7559 H   0  0  0  0  0  0  0  0  0  0  0  0
   -1.2408   20.6485  -28.9476 H   0  0  0  0  0  0  0  0  0  0  0  0
   -6.4274   22.6346  -28.6273 H   0  0  0  0  0  0  0  0  0  0  0  0
   -8.3734   21.5629  -29.7576 H   0  0  0  0  0  0  0  0  0  0  0  0
   -7.4012   23.6345  -33.4230 H   0  0  0  0  0  0  0  0  0  0  0  0
   -5.4507   24.7084  -32.3074 H   0  0  0  0  0  0  0  0  0  0  0  0
  1  2  2  0
  2  3  1  0
  3  4  1  0
  4  5  2  0
  5  6  1  0
  6  7  1  0
  6  8  2  0
  8  9  1  0
  9 10  2  0
 10 11  1  0
 11 12  1  0
 12 13  1  0
 13 14  1  0
 14 15  1  0
 15 16  2  0
 16 17  1  0
 17 18  2  0
 18 19  1  0
 19 20  2  0
 14 21  1  0
 21 22  1  0
  2 23  1  0
 23 24  2  0
 24 25  1  0
 25 26  2  0
 26 27  1  0
 26 28  1  0
 28 29  2  0
 10  4  1  0
 22 11  1  0
 29 23  1  0
 20 15  1  0
  3 30  1  0
  5 31  1  0
  8 32  1  0
  9 33  1  0
 12 34  1  0
 12 35  1  0
 13 36  1  0
 13 37  1  0
 16 38  1  0
 17 39  1  0
 18 40  1  0
 19 41  1  0
 20 42  1  0
 21 43  1  0
 21 44  1  0
 22 45  1  0
 22 46  1  0
 24 47  1  0
 25 48  1  0
 28 49  1  0
 29 50  1  0
M  END
>  <UniqueID>  (21) 
19

>  <SMILES>  (21) 
O=C(Nc1cc(Cl)ccc1N1CCN(c2ccccc2)CC1)c1ccc(F)cc1

>  <Energy>  (21) 
69.09912341367261

>  <Genealogy>  (21) 
O=C(Nc1cc(Cl)ccc1N1CCN(c2ccccc2)CC1)c1ccc(F)cc1 (3D coordinates assigned)
O=C(Nc1cc(Cl)ccc1N1CCN(c2ccccc2)CC1)c1ccc(F)cc1 (nonaromatic ring conformer: 69.09912341367261 kcal/mol)

>  <smiles>  (21) 
O=C(Nc1cc(Cl)ccc1N1CCN(c2ccccc2)CC1)c1ccc(F)cc1

>  <score_type>  (21) 
oracle

>  <origin>  (21) 
adgpu

>  <m_score__min__energy>  (21) 
-9.1300000000000008

>  <m_primary>  (21) 
energy

$$$$
21:0
     RDKit          3D

 31 31  0  0  0  0  0  0  0  0999 V2000
   -5.3969   26.5993  -30.9515 H   0  0  0  0  0  0  0  0  0  0  0  0
   -5.0690   25.5600  -30.8020 C   0  0  0  0  0  0  0  0  0  0  0  0
   -3.8650   25.3060  -30.2280 N   0  0  0  0  0  0  0  0  0  0  0  0
   -3.4210   24.0340  -30.0220 C   0  0  0  0  0  0  0  0  0  0  0  0
   -2.2690   23.8120  -29.4630 N   0  0  0  0  0  0  0  0  0  0  0  0
   -1.3620   24.8650  -29.0170 C   0  0  0  0  0  0  0  0  0  0  0  0
   -1.3410   24.8894  -27.9175 H   0  0  0  0  0  0  0  0  0  0  0  0
   -0.3502   24.6634  -29.3987 H   0  0  0  0  0  0  0  0  0  0  0  0
   -1.7112   25.8357  -29.3987 H   0  0  0  0  0  0  0  0  0  0  0  0
   -4.2180   22.9500  -30.4110 C   0  0  0  0  0  0  0  0  0  0  0  0
   -3.8690   21.9205  -30.2423 H   0  0  0  0  0  0  0  0  0  0  0  0
   -5.4660   23.1810  -31.0180 C   0  0  0  0  0  0  0  0  0  0  0  0
   -6.3350   22.0560  -31.4320 C   0  0  0  0  0  0  0  0  0  0  0  0
   -7.2720   21.6840  -30.6710 O   0  0  0  0  0  0  0  0  0  0  0  0
   -6.1410   21.3930  -32.6920 N   0  0  0  0  0  0  0  0  0  0  0  0
   -5.5620   21.8640  -33.4250 H   0  0  0  0  0  0  0  0  0  0  0  0
   -6.7900   20.1160  -33.0130 C   0  0  1  0  0  0  0  0  0  0  0  0
   -6.6523   19.9127  -34.0852 H   0  0  0  0  0  0  0  0  0  0  0  0
   -6.1330   18.9660  -32.2380 C   0  0  0  0  0  0  0  0  0  0  0  0
   -6.2358   19.1460  -31.1577 H   0  0  0  0  0  0  0  0  0  0  0  0
   -6.6260   18.0183  -32.5004 H   0  0  0  0  0  0  0  0  0  0  0  0
   -5.0663   18.9093  -32.5004 H   0  0  0  0  0  0  0  0  0  0  0  0
   -8.3120   20.1910  -32.7540 C   0  0  0  0  0  0  0  0  0  0  0  0
   -8.8275   20.2383  -33.7246 H   0  0  0  0  0  0  0  0  0  0  0  0
   -8.4898   21.0863  -32.1401 H   0  0  0  0  0  0  0  0  0  0  0  0
   -8.8630   18.9960  -31.9720 C   0  0  0  0  0  0  0  0  0  0  0  0
   -8.7731   19.1909  -30.8931 H   0  0  0  0  0  0  0  0  0  0  0  0
   -9.9215   18.8453  -32.2305 H   0  0  0  0  0  0  0  0  0  0  0  0
   -8.2903   18.0931  -32.2305 H   0  0  0  0  0  0  0  0  0  0  0  0
   -5.8920   24.5060  -31.2030 C   0  0  0  0  0  0  0  0  0  0  0  0
   -6.8701   24.7127  -31.6620 H   0  0  0  0  0  0  0  0  0  0  0  0
  1  2  1  0
  2  3  1  0
  3  4  1  0
  4  5  2  0
  5  6  1  0
  6  7  1  0
  6  8  1  0
  6  9  1  0
  4 10  1  0
 10 11  1  0
 10 12  2  0
 12 13  1  0
 13 14  2  0
 13 15  1  0
 15 16  1  0
 15 17  1  0
 17 18  1  6
 17 19  1  0
 19 20  1  0
 19 21  1  0
 19 22  1  0
 17 23  1  0
 23 24  1  0
 23 25  1  0
 23 26  1  0
 26 27  1  0
 26 28  1  0
 26 29  1  0
 12 30  1  0
 30 31  1  0
 30  2  2  0
M  CHG  1   3  -1
M  END
>  <UniqueID>  (22) 
20

>  <SMILES>  (22) 
CC[C@H](C)NC(=O)c1cc[n-]/c(=N\C)c1

>  <Energy>  (22) 
23.965614648259155

>  <Genealogy>  (22) 
CCC(C)NC(=O)c1cc[n-]c(=NC)c1 (protonated)
CC[C@H](C)NC(=O)c1cc[n-]c(=NC)c1 (chirality)
CC[C@H](C)NC(=O)c1cc[n-]/c(=N\C)c1 (cis-trans isomerization)
CC[C@H](C)NC(=O)c1cc[n-]/c(=N\C)c1 (3D coordinates assigned)
CC[C@H](C)NC(=O)c1cc[n-]/c(=N\C)c1 (optimized conformer: 23.965614648259155 kcal/mol)

>  <smiles>  (22) 
CCC(C)NC(=O)c1cc[nH]c(=NC)c1

>  <score_type>  (22) 
oracle

>  <origin>  (22) 
adgpu

>  <m_score__min__energy>  (22) 
-7.4299999999999997

>  <m_primary>  (22) 
energy

$$$$
22:0
     RDKit          3D

 29 32  0  0  0  0  0  0  0  0999 V2000
   -3.5050   25.3010  -30.6160 O   0  0  0  0  0  0  0  0  0  0  0  0
   -3.0960   24.1710  -29.9080 C   0  0  0  0  0  0  0  0  0  0  0  0
   -2.3270   24.2370  -28.7260 C   0  0  0  0  0  0  0  0  0  0  0  0
   -1.8540   25.3820  -28.0720 C   0  0  0  0  0  0  0  0  0  0  0  0
   -1.1200   25.0860  -26.9230 C   0  0  0  0  0  0  0  0  0  0  0  0
   -1.0510   23.4070  -26.7100 S   0  0  0  0  0  0  0  0  0  0  0  0
   -1.9540   23.0540  -28.0740 C   0  0  0  0  0  0  0  0  0  0  0  0
   -2.2970   21.8170  -28.5280 N   0  0  0  0  0  0  0  0  0  0  0  0
   -3.0410   21.7640  -29.6660 C   0  0  0  0  0  0  0  0  0  0  0  0
   -3.5060   20.6620  -30.3410 C   0  0  0  0  0  0  0  0  0  0  0  0
   -4.2000   21.1890  -31.4350 C   0  0  0  0  0  0  0  0  0  0  0  0
   -4.8520   20.3820  -32.4890 C   0  0  0  0  0  0  0  0  0  0  0  0
   -4.0830   19.4490  -33.2080 C   0  0  0  0  0  0  0  0  0  0  0  0
   -4.6610   18.6840  -34.2230 C   0  0  0  0  0  0  0  0  0  0  0  0
   -6.0130   18.8350  -34.5280 C   0  0  0  0  0  0  0  0  0  0  0  0
   -6.7940   19.7450  -33.8130 C   0  0  0  0  0  0  0  0  0  0  0  0
   -6.2260   20.5180  -32.7920 C   0  0  0  0  0  0  0  0  0  0  0  0
   -7.2900   21.5740  -31.8680 Cl  0  0  0  0  0  0  0  0  0  0  0  0
   -4.1480   22.5460  -31.4380 N   0  0  0  0  0  0  0  0  0  0  0  0
   -3.4400   22.8870  -30.3490 C   0  0  0  0  0  0  0  0  0  0  0  0
   -3.2460   25.4580  -31.5820 H   0  0  0  0  0  0  0  0  0  0  0  0
   -2.0415   26.4062  -28.4268 H   0  0  0  0  0  0  0  0  0  0  0  0
   -0.6570   25.8293  -26.2573 H   0  0  0  0  0  0  0  0  0  0  0  0
   -3.3644   19.6029  -30.0799 H   0  0  0  0  0  0  0  0  0  0  0  0
   -3.0170   19.3210  -32.9685 H   0  0  0  0  0  0  0  0  0  0  0  0
   -4.0489   17.9614  -34.7826 H   0  0  0  0  0  0  0  0  0  0  0  0
   -6.4649   18.2366  -35.3328 H   0  0  0  0  0  0  0  0  0  0  0  0
   -7.8618   19.8557  -34.0528 H   0  0  0  0  0  0  0  0  0  0  0  0
   -4.5360   23.1950  -32.1590 H   0  0  0  0  0  0  0  0  0  0  0  0
  1  2  1  0
  2  3  2  0
  3  4  1  0
  4  5  2  0
  5  6  1  0
  6  7  1  0
  7  8  2  0
  8  9  1  0
  9 10  1  0
 10 11  2  0
 11 12  1  0
 12 13  2  0
 13 14  1  0
 14 15  2  0
 15 16  1  0
 16 17  2  0
 17 18  1  0
 11 19  1  0
 19 20  1  0
 20  2  1  0
  7  3  1  0
 20  9  2  0
 17 12  1  0
  1 21  1  0
  4 22  1  0
  5 23  1  0
 10 24  1  0
 13 25  1  0
 14 26  1  0
 15 27  1  0
 16 28  1  0
 19 29  1  0
M  END
>  <UniqueID>  (23) 
21

>  <SMILES>  (23) 
Oc1c2ccsc2nc2cc(-c3ccccc3Cl)[nH]c12

>  <Energy>  (23) 
106.5639013753713

>  <Genealogy>  (23) 
Oc1c2ccsc2nc2cc(-c3ccccc3Cl)[nH]c12 (3D coordinates assigned)
Oc1c2ccsc2nc2cc(-c3ccccc3Cl)[nH]c12 (optimized conformer: 106.5639013753713 kcal/mol)

>  <smiles>  (23) 
Oc1c2ccsc2nc2cc(-c3ccccc3Cl)[nH]c12

>  <score_type>  (23) 
oracle

>  <origin>  (23) 
adgpu

>  <m_score__min__energy>  (23) 
-8.0199999999999996

>  <m_primary>  (23) 
energy

$$$$
23:0
     RDKit          3D

 35 37  0  0  0  0  0  0  0  0999 V2000
   -5.5430   26.2670  -31.0580 H   0  0  0  0  0  0  0  0  0  0  0  0
   -4.7050   26.0530  -30.4710 N   0  0  0  0  0  0  0  0  0  0  0  0
   -4.1520   24.8850  -30.4840 C   0  0  0  0  0  0  0  0  0  0  0  0
   -4.6520   23.8980  -31.2710 N   0  0  0  0  0  0  0  0  0  0  0  0
   -4.0700   22.6700  -31.2880 C   0  0  0  0  0  0  0  0  0  0  0  0
   -4.6150   21.5920  -32.1520 C   0  0  0  0  0  0  0  0  0  0  0  0
   -6.0040   21.4470  -32.3280 C   0  0  0  0  0  0  0  0  0  0  0  0
   -6.6935   22.1383  -31.8213 H   0  0  0  0  0  0  0  0  0  0  0  0
   -6.5140   20.4310  -33.1420 C   0  0  0  0  0  0  0  0  0  0  0  0
   -7.6014   20.3266  -33.2715 H   0  0  0  0  0  0  0  0  0  0  0  0
   -5.6460   19.5460  -33.7930 C   0  0  0  0  0  0  0  0  0  0  0  0
   -6.1450   18.5310  -34.6060 O   0  0  0  0  0  0  0  0  0  0  0  0
   -6.7720   18.7300  -35.3760 H   0  0  0  0  0  0  0  0  0  0  0  0
   -4.2650   19.6830  -33.6250 C   0  0  0  0  0  0  0  0  0  0  0  0
   -3.5802   18.9902  -34.1359 H   0  0  0  0  0  0  0  0  0  0  0  0
   -3.7500   20.6960  -32.8110 C   0  0  0  0  0  0  0  0  0  0  0  0
   -2.6618   20.7943  -32.6840 H   0  0  0  0  0  0  0  0  0  0  0  0
   -2.9810   22.4400  -30.5060 N   0  0  0  0  0  0  0  0  0  0  0  0
   -2.4810   23.4180  -29.7090 C   0  0  0  0  0  0  0  0  0  0  0  0
   -1.4230   23.1720  -28.9910 N   0  0  0  0  0  0  0  0  0  0  0  0
   -0.7860   24.0620  -28.0590 C   0  0  0  0  0  0  0  0  0  0  0  0
    0.6120   24.1020  -28.0190 C   0  0  0  0  0  0  0  0  0  0  0  0
    1.1966   23.4822  -28.7148 H   0  0  0  0  0  0  0  0  0  0  0  0
    1.2710   24.9250  -27.1000 C   0  0  0  0  0  0  0  0  0  0  0  0
    2.3703   24.9603  -27.0845 H   0  0  0  0  0  0  0  0  0  0  0  0
    0.5360   25.7020  -26.2020 C   0  0  0  0  0  0  0  0  0  0  0  0
    1.0583   26.3475  -25.4805 H   0  0  0  0  0  0  0  0  0  0  0  0
   -0.8660   25.6620  -26.2170 C   0  0  0  0  0  0  0  0  0  0  0  0
   -1.6540   26.4460  -25.2110 C   0  0  0  0  0  0  0  0  0  0  0  0
   -1.3534   26.1469  -24.1960 H   0  0  0  0  0  0  0  0  0  0  0  0
   -1.4599   27.5199  -25.3494 H   0  0  0  0  0  0  0  0  0  0  0  0
   -2.7269   26.2465  -25.3494 H   0  0  0  0  0  0  0  0  0  0  0  0
   -1.5240   24.8210  -27.1290 C   0  0  0  0  0  0  0  0  0  0  0  0
   -2.6219   24.7543  -27.1173 H   0  0  0  0  0  0  0  0  0  0  0  0
   -3.0660   24.6450  -29.7090 N   0  0  0  0  0  0  0  0  0  0  0  0
  1  2  1  0
  2  3  2  0
  3  4  1  0
  4  5  2  0
  5  6  1  0
  6  7  2  0
  7  8  1  0
  7  9  1  0
  9 10  1  0
  9 11  2  0
 11 12  1  0
 12 13  1  0
 11 14  1  0
 14 15  1  0
 14 16  2  0
 16 17  1  0
  5 18  1  0
 18 19  1  0
 19 20  2  0
 20 21  1  0
 21 22  2  0
 22 23  1  0
 22 24  1  0
 24 25  1  0
 24 26  2  0
 26 27  1  0
 26 28  1  0
 28 29  1  0
 29 30  1  0
 29 31  1  0
 29 32  1  0
 28 33  2  0
 33 34  1  0
 19 35  1  0
 35  3  1  0
 16  6  1  0
 33 21  1  0
M  CHG  2  18  -1  35  -1
M  END
>  <UniqueID>  (24) 
22

>  <SMILES>  (24) 
[H]/N=c1\nc(-c2ccc(O)cc2)[n-]/c(=N/c2cccc(C)c2)[n-]1

>  <Energy>  (24) 
44.63571402064096

>  <Genealogy>  (24) 
Cc1cccc(N=c2[n-]c(-c3ccc(O)cc3)nc(=N)[n-]2)c1 (protonated)
[H]/N=c1\nc(-c2ccc(O)cc2)[n-]/c(=N/c2cccc(C)c2)[n-]1 (cis-trans isomerization)
[H]/N=c1\nc(-c2ccc(O)cc2)[n-]/c(=N/c2cccc(C)c2)[n-]1 (3D coordinates assigned)
[H]/N=c1\nc(-c2ccc(O)cc2)[n-]/c(=N/c2cccc(C)c2)[n-]1 (optimized conformer: 44.63571402064096 kcal/mol)

>  <smiles>  (24) 
Cc1cccc(N=c2[nH]c(-c3ccc(O)cc3)nc(=N)[nH]2)c1

>  <score_type>  (24) 
oracle

>  <origin>  (24) 
adgpu

>  <m_score__min__energy>  (24) 
-8.8100000000000005

>  <m_primary>  (24) 
energy

$$$$
24:0
     RDKit          3D

 38 39  0  0  0  0  0  0  0  0999 V2000
   -6.5080   25.2860  -29.5820 C   0  0  0  0  0  0  0  0  0  0  0  0
   -5.4200   25.7720  -30.5340 C   0  0  0  0  0  0  0  0  0  0  0  0
   -4.1090   25.2600  -30.1310 N   0  0  0  0  0  0  0  0  0  0  0  0
   -3.7120   23.8790  -30.2590 C   0  0  0  0  0  0  0  0  0  0  0  0
   -4.5120   22.9850  -30.9940 C   0  0  0  0  0  0  0  0  0  0  0  0
   -4.1100   21.6570  -31.1970 C   0  0  0  0  0  0  0  0  0  0  0  0
   -4.9550   20.7370  -31.9910 C   0  0  0  0  0  0  0  0  0  0  0  0
   -6.2870   20.5190  -31.5970 C   0  0  0  0  0  0  0  0  0  0  0  0
   -7.1190   19.6600  -32.3270 C   0  0  0  0  0  0  0  0  0  0  0  0
   -8.5580   19.4670  -31.9200 C   0  0  0  0  0  0  0  0  0  0  0  0
   -9.4400   19.4890  -33.0840 N   0  0  0  0  0  0  0  0  0  0  0  0
   -6.6200   19.0260  -33.4740 C   0  0  0  0  0  0  0  0  0  0  0  0
   -5.2950   19.2250  -33.8670 C   0  0  0  0  0  0  0  0  0  0  0  0
   -4.4560   20.0710  -33.1330 C   0  0  0  0  0  0  0  0  0  0  0  0
   -2.7770   20.2260  -33.6410 Cl  0  0  0  0  0  0  0  0  0  0  0  0
   -2.8820   21.2260  -30.6840 C   0  0  0  0  0  0  0  0  0  0  0  0
   -2.0790   22.0980  -29.9490 C   0  0  0  0  0  0  0  0  0  0  0  0
   -2.4850   23.4230  -29.7110 C   0  0  0  0  0  0  0  0  0  0  0  0
   -1.6340   24.2810  -28.8520 C   0  0  0  0  0  0  0  0  0  0  0  0
   -1.5570   25.6850  -29.0920 N   0  0  0  0  0  0  0  0  0  0  0  0
   -0.9430   23.7780  -27.9260 O   0  0  0  0  0  0  0  0  0  0  0  0
   -6.1785   25.4332  -28.5429 H   0  0  0  0  0  0  0  0  0  0  0  0
   -7.4314   25.8572  -29.7583 H   0  0  0  0  0  0  0  0  0  0  0  0
   -6.6988   24.2171  -29.7583 H   0  0  0  0  0  0  0  0  0  0  0  0
   -5.6474   25.4201  -31.5511 H   0  0  0  0  0  0  0  0  0  0  0  0
   -5.3927   26.8713  -30.5060 H   0  0  0  0  0  0  0  0  0  0  0  0
   -3.4350   25.9440  -29.7210 H   0  0  0  0  0  0  0  0  0  0  0  0
   -5.4666   23.3328  -31.4155 H   0  0  0  0  0  0  0  0  0  0  0  0
   -6.6804   21.0288  -30.7052 H   0  0  0  0  0  0  0  0  0  0  0  0
   -8.6604   18.4979  -31.4097 H   0  0  0  0  0  0  0  0  0  0  0  0
   -8.8449   20.2893  -31.2481 H   0  0  0  0  0  0  0  0  0  0  0  0
   -8.9850   20.0480  -33.8420 H   0  0  0  0  0  0  0  0  0  0  0  0
   -9.5560   18.5100  -33.4370 H   0  0  0  0  0  0  0  0  0  0  0  0
   -7.2747   18.3697  -34.0661 H   0  0  0  0  0  0  0  0  0  0  0  0
   -4.9078   18.7130  -34.7602 H   0  0  0  0  0  0  0  0  0  0  0  0
   -2.5477   20.1932  -30.8613 H   0  0  0  0  0  0  0  0  0  0  0  0
   -1.1164   21.7449  -29.5507 H   0  0  0  0  0  0  0  0  0  0  0  0
   -1.1910   26.0560  -29.9970 H   0  0  0  0  0  0  0  0  0  0  0  0
  1  2  1  0
  2  3  1  0
  3  4  1  0
  4  5  2  0
  5  6  1  0
  6  7  1  0
  7  8  2  0
  8  9  1  0
  9 10  1  0
 10 11  1  0
  9 12  2  0
 12 13  1  0
 13 14  2  0
 14 15  1  0
  6 16  2  0
 16 17  1  0
 17 18  2  0
 18 19  1  0
 19 20  1  0
 19 21  2  0
 18  4  1  0
 14  7  1  0
  1 22  1  0
  1 23  1  0
  1 24  1  0
  2 25  1  0
  2 26  1  0
  3 27  1  0
  5 28  1  0
  8 29  1  0
 10 30  1  0
 10 31  1  0
 11 32  1  0
 11 33  1  0
 12 34  1  0
 13 35  1  0
 16 36  1  0
 17 37  1  0
 20 38  1  0
M  CHG  1  20  -1
M  END
>  <UniqueID>  (25) 
23

>  <SMILES>  (25) 
CCNc1cc(-c2cc(CN)ccc2Cl)ccc1C([NH-])=O

>  <Energy>  (25) 
46.53484908591006

>  <Genealogy>  (25) 
CCNc1cc(-c2cc(CN)ccc2Cl)ccc1C([NH-])=O (protonated)
CCNc1cc(-c2cc(CN)ccc2Cl)ccc1C([NH-])=O (3D coordinates assigned)
CCNc1cc(-c2cc(CN)ccc2Cl)ccc1C([NH-])=O (optimized conformer: 46.53484908591006 kcal/mol)

>  <smiles>  (25) 
CCNc1cc(-c2cc(CN)ccc2Cl)ccc1C(N)=O

>  <score_type>  (25) 
oracle

>  <origin>  (25) 
adgpu

>  <m_score__min__energy>  (25) 
-11.01

>  <m_primary>  (25) 
energy

$$$$
25:0
     RDKit          3D

 43 45  0  0  0  0  0  0  0  0999 V2000
   -4.2250   24.1650  -27.7820 C   0  0  0  0  0  0  0  0  0  0  0  0
   -4.4300   23.6480  -29.1700 C   0  0  0  0  0  0  0  0  0  0  0  0
   -5.6880   23.7170  -29.7730 C   0  0  0  0  0  0  0  0  0  0  0  0
   -5.8400   23.1980  -31.0620 C   0  0  0  0  0  0  0  0  0  0  0  0
   -7.1860   23.1750  -31.7230 C   0  0  0  0  0  0  0  0  0  0  0  0
   -7.2270   22.1630  -32.7290 O   0  0  0  0  0  0  0  0  0  0  0  0
   -7.5250   20.8240  -32.4420 C   0  0  0  0  0  0  0  0  0  0  0  0
   -8.7340   20.5080  -31.7880 C   0  0  0  0  0  0  0  0  0  0  0  0
   -9.7170   21.5810  -31.4100 C   0  0  0  0  0  0  0  0  0  0  0  0
   -9.0690   19.1640  -31.5620 C   0  0  0  0  0  0  0  0  0  0  0  0
   -8.1960   18.1460  -31.9440 C   0  0  0  0  0  0  0  0  0  0  0  0
   -6.9780   18.4560  -32.5490 C   0  0  0  0  0  0  0  0  0  0  0  0
   -6.6220   19.7920  -32.7860 C   0  0  0  0  0  0  0  0  0  0  0  0
   -5.2960   20.0880  -33.4300 C   0  0  0  0  0  0  0  0  0  0  0  0
   -4.7780   22.6210  -31.6840 N   0  0  0  0  0  0  0  0  0  0  0  0
   -3.5570   22.5580  -31.0860 C   0  0  0  0  0  0  0  0  0  0  0  0
   -2.4280   21.9170  -31.7960 C   0  0  0  0  0  0  0  0  0  0  0  0
   -2.4520   21.5130  -33.1170 C   0  0  0  0  0  0  0  0  0  0  0  0
   -1.2010   20.9750  -33.3420 C   0  0  0  0  0  0  0  0  0  0  0  0
   -0.4650   21.0530  -32.2170 N   0  0  0  0  0  0  0  0  0  0  0  0
   -1.2100   21.6230  -31.2830 N   0  0  0  0  0  0  0  0  0  0  0  0
   -0.7270   21.8660  -29.9270 C   0  0  0  0  0  0  0  0  0  0  0  0
   -3.3970   23.0670  -29.8360 N   0  0  0  0  0  0  0  0  0  0  0  0
   -4.5296   23.3969  -27.0559 H   0  0  0  0  0  0  0  0  0  0  0  0
   -3.1624   24.4082  -27.6345 H   0  0  0  0  0  0  0  0  0  0  0  0
   -4.8322   25.0703  -27.6345 H   0  0  0  0  0  0  0  0  0  0  0  0
   -6.5403   24.1698  -29.2452 H   0  0  0  0  0  0  0  0  0  0  0  0
   -7.9578   22.9669  -30.9673 H   0  0  0  0  0  0  0  0  0  0  0  0
   -7.3711   24.1528  -32.1916 H   0  0  0  0  0  0  0  0  0  0  0  0
   -9.7806   21.6504  -30.3140 H   0  0  0  0  0  0  0  0  0  0  0  0
   -9.3825   22.5455  -31.8197 H   0  0  0  0  0  0  0  0  0  0  0  0
  -10.7070   21.3321  -31.8197 H   0  0  0  0  0  0  0  0  0  0  0  0
  -10.0256   18.9122  -31.0808 H   0  0  0  0  0  0  0  0  0  0  0  0
   -8.4687   17.0950  -31.7677 H   0  0  0  0  0  0  0  0  0  0  0  0
   -6.2921   17.6475  -32.8422 H   0  0  0  0  0  0  0  0  0  0  0  0
   -4.5391   20.2570  -32.6499 H   0  0  0  0  0  0  0  0  0  0  0  0
   -4.9937   19.2352  -34.0556 H   0  0  0  0  0  0  0  0  0  0  0  0
   -5.3851   20.9884  -34.0556 H   0  0  0  0  0  0  0  0  0  0  0  0
   -3.2839   21.6007  -33.8313 H   0  0  0  0  0  0  0  0  0  0  0  0
   -0.8574   20.5474  -34.2955 H   0  0  0  0  0  0  0  0  0  0  0  0
   -1.4662   21.4941  -29.2023 H   0  0  0  0  0  0  0  0  0  0  0  0
    0.2283   21.3412  -29.7785 H   0  0  0  0  0  0  0  0  0  0  0  0
   -0.5791   22.9458  -29.7785 H   0  0  0  0  0  0  0  0  0  0  0  0
  1  2  1  0
  2  3  2  0
  3  4  1  0
  4  5  1  0
  5  6  1  0
  6  7  1  0
  7  8  2  0
  8  9  1  0
  8 10  1  0
 10 11  2  0
 11 12  1  0
 12 13  2  0
 13 14  1  0
  4 15  2  0
 15 16  1  0
 16 17  1  0
 17 18  2  0
 18 19  1  0
 19 20  2  0
 20 21  1  0
 21 22  1  0
 16 23  2  0
 23  2  1  0
 13  7  1  0
 21 17  1  0
  1 24  1  0
  1 25  1  0
  1 26  1  0
  3 27  1  0
  5 28  1  0
  5 29  1  0
  9 30  1  0
  9 31  1  0
  9 32  1  0
 10 33  1  0
 11 34  1  0
 12 35  1  0
 14 36  1  0
 14 37  1  0
 14 38  1  0
 18 39  1  0
 19 40  1  0
 22 41  1  0
 22 42  1  0
 22 43  1  0
M  END
>  <UniqueID>  (26) 
24

>  <SMILES>  (26) 
Cc1cc(COc2c(C)cccc2C)nc(-c2ccnn2C)n1

>  <Energy>  (26) 
77.42296842788284

>  <Genealogy>  (26) 
Cc1cc(COc2c(C)cccc2C)nc(-c2ccnn2C)n1 (3D coordinates assigned)
Cc1cc(COc2c(C)cccc2C)nc(-c2ccnn2C)n1 (optimized conformer: 77.42296842788284 kcal/mol)

>  <smiles>  (26) 
Cc1cc(COc2c(C)cccc2C)nc(-c2ccnn2C)n1

>  <score_type>  (26) 
oracle

>  <origin>  (26) 
adgpu

>  <m_score__min__energy>  (26) 
-8.1799999999999997

>  <m_primary>  (26) 
energy

$$$$
26:0
     RDKit          3D

 31 33  0  0  0  0  0  0  0  0999 V2000
   -3.8820   25.2650  -30.5040 O   0  0  0  0  0  0  0  0  0  0  0  0
   -4.7460   24.3820  -30.7610 C   0  0  0  0  0  0  0  0  0  0  0  0
   -6.0850   24.7510  -30.8660 C   0  0  0  0  0  0  0  0  0  0  0  0
   -7.0370   23.7900  -31.1890 C   0  0  0  0  0  0  0  0  0  0  0  0
   -6.6320   22.4670  -31.4030 C   0  0  0  0  0  0  0  0  0  0  0  0
   -7.5940   21.3950  -31.7700 C   0  0  0  0  0  0  0  0  0  0  0  0
   -8.9510   21.7130  -31.9670 C   0  0  0  0  0  0  0  0  0  0  0  0
   -9.8690   20.7190  -32.3180 C   0  0  0  0  0  0  0  0  0  0  0  0
   -9.4440   19.3990  -32.4850 C   0  0  0  0  0  0  0  0  0  0  0  0
   -8.0990   19.0710  -32.3030 C   0  0  0  0  0  0  0  0  0  0  0  0
   -7.6850   17.7920  -32.4770 F   0  0  0  0  0  0  0  0  0  0  0  0
   -7.1760   20.0620  -31.9500 C   0  0  0  0  0  0  0  0  0  0  0  0
   -5.3080   22.1650  -31.2870 N   0  0  0  0  0  0  0  0  0  0  0  0
   -4.3840   23.0760  -30.9650 N   0  0  0  0  0  0  0  0  0  0  0  0
   -3.0140   22.6420  -30.8680 C   0  0  0  0  0  0  0  0  0  0  0  0
   -2.2610   22.8780  -29.7020 C   0  0  0  0  0  0  0  0  0  0  0  0
   -0.9400   22.4290  -29.6110 C   0  0  0  0  0  0  0  0  0  0  0  0
   -0.3620   21.7320  -30.6760 C   0  0  0  0  0  0  0  0  0  0  0  0
   -1.1060   21.4780  -31.8310 C   0  0  0  0  0  0  0  0  0  0  0  0
   -0.3830   20.5940  -33.1630 Cl  0  0  0  0  0  0  0  0  0  0  0  0
   -2.4290   21.9250  -31.9260 C   0  0  0  0  0  0  0  0  0  0  0  0
   -6.3872   25.7947  -30.6947 H   0  0  0  0  0  0  0  0  0  0  0  0
   -8.0981   24.0667  -31.2755 H   0  0  0  0  0  0  0  0  0  0  0  0
   -9.2916   22.7516  -31.8438 H   0  0  0  0  0  0  0  0  0  0  0  0
  -10.9285   20.9769  -32.4630 H   0  0  0  0  0  0  0  0  0  0  0  0
  -10.1685   18.6182  -32.7598 H   0  0  0  0  0  0  0  0  0  0  0  0
   -6.1170   19.7982  -31.8122 H   0  0  0  0  0  0  0  0  0  0  0  0
   -2.7144   23.4185  -28.8581 H   0  0  0  0  0  0  0  0  0  0  0  0
   -0.3549   22.6245  -28.7003 H   0  0  0  0  0  0  0  0  0  0  0  0
    0.6789   21.3834  -30.6047 H   0  0  0  0  0  0  0  0  0  0  0  0
   -3.0140   21.7141  -32.8334 H   0  0  0  0  0  0  0  0  0  0  0  0
  1  2  2  0
  2  3  1  0
  3  4  2  0
  4  5  1  0
  5  6  1  0
  6  7  2  0
  7  8  1  0
  8  9  2  0
  9 10  1  0
 10 11  1  0
 10 12  2  0
  5 13  2  0
 13 14  1  0
 14 15  1  0
 15 16  2  0
 16 17  1  0
 17 18  2  0
 18 19  1  0
 19 20  1  0
 19 21  2  0
 14  2  1  0
 21 15  1  0
 12  6  1  0
  3 22  1  0
  4 23  1  0
  7 24  1  0
  8 25  1  0
  9 26  1  0
 12 27  1  0
 16 28  1  0
 17 29  1  0
 18 30  1  0
 21 31  1  0
M  END
>  <UniqueID>  (27) 
25

>  <SMILES>  (27) 
O=c1ccc(-c2cccc(F)c2)nn1-c1cccc(Cl)c1

>  <Energy>  (27) 
45.586613248873334

>  <Genealogy>  (27) 
O=c1ccc(-c2cccc(F)c2)nn1-c1cccc(Cl)c1 (3D coordinates assigned)
O=c1ccc(-c2cccc(F)c2)nn1-c1cccc(Cl)c1 (optimized conformer: 45.586613248873334 kcal/mol)

>  <smiles>  (27) 
O=c1ccc(-c2cccc(F)c2)nn1-c1cccc(Cl)c1

>  <score_type>  (27) 
oracle

>  <origin>  (27) 
adgpu

>  <m_score__min__energy>  (27) 
-8.2899999999999991

>  <m_primary>  (27) 
energy

$$$$
27:0
     RDKit          3D

 44 46  0  0  0  0  0  0  0  0999 V2000
   -3.2510   20.5600  -33.1050 C   0  0  0  0  0  0  0  0  0  0  0  0
   -4.7250   20.7410  -33.4560 C   0  0  0  0  0  0  0  0  0  0  0  0
   -5.4720   19.4350  -33.3390 C   0  0  0  0  0  0  0  0  0  0  0  0
   -4.8270   18.2500  -33.7360 C   0  0  0  0  0  0  0  0  0  0  0  0
   -5.4800   17.0200  -33.6430 C   0  0  0  0  0  0  0  0  0  0  0  0
   -6.7780   16.9540  -33.1420 C   0  0  0  0  0  0  0  0  0  0  0  0
   -7.4300   18.1160  -32.7310 C   0  0  0  0  0  0  0  0  0  0  0  0
   -6.7930   19.3690  -32.8260 C   0  0  0  0  0  0  0  0  0  0  0  0
   -7.4610   20.5540  -32.3540 N   0  0  0  0  0  0  0  0  0  0  0  0
   -8.8860   20.6600  -32.2180 C   0  0  0  0  0  0  0  0  0  0  0  0
   -9.6440   19.7850  -32.7160 O   0  0  0  0  0  0  0  0  0  0  0  0
   -9.4900   21.8460  -31.5270 C   0  0  0  0  0  0  0  0  0  0  0  0
   -8.9840   23.4100  -32.3240 S   0  0  0  0  0  0  0  0  0  0  0  0
   -7.3450   23.4330  -31.5990 C   0  0  0  0  0  0  0  0  0  0  0  0
   -7.1850   23.4320  -30.2140 C   0  0  0  0  0  0  0  0  0  0  0  0
   -5.9000   23.4640  -29.6780 C   0  0  0  0  0  0  0  0  0  0  0  0
   -4.7940   23.4780  -30.5410 C   0  0  0  0  0  0  0  0  0  0  0  0
   -3.3980   23.5180  -30.0300 C   0  0  0  0  0  0  0  0  0  0  0  0
   -2.4380   22.5710  -30.4400 C   0  0  0  0  0  0  0  0  0  0  0  0
   -1.1290   22.6310  -29.9500 C   0  0  0  0  0  0  0  0  0  0  0  0
   -0.7610   23.6360  -29.0540 C   0  0  0  0  0  0  0  0  0  0  0  0
   -1.6990   24.5880  -28.6490 C   0  0  0  0  0  0  0  0  0  0  0  0
   -3.0080   24.5340  -29.1360 C   0  0  0  0  0  0  0  0  0  0  0  0
   -5.0150   23.4740  -31.8840 N   0  0  0  0  0  0  0  0  0  0  0  0
   -6.2470   23.4500  -32.3970 N   0  0  0  0  0  0  0  0  0  0  0  0
   -3.1336   20.5456  -32.0114 H   0  0  0  0  0  0  0  0  0  0  0  0
   -2.8879   19.6105  -33.5253 H   0  0  0  0  0  0  0  0  0  0  0  0
   -2.6690   21.3934  -33.5253 H   0  0  0  0  0  0  0  0  0  0  0  0
   -5.1715   21.4739  -32.7679 H   0  0  0  0  0  0  0  0  0  0  0  0
   -4.7974   21.0948  -34.4950 H   0  0  0  0  0  0  0  0  0  0  0  0
   -3.7984   18.2929  -34.1234 H   0  0  0  0  0  0  0  0  0  0  0  0
   -4.9687   16.1011  -33.9659 H   0  0  0  0  0  0  0  0  0  0  0  0
   -7.2899   15.9830  -33.0704 H   0  0  0  0  0  0  0  0  0  0  0  0
   -8.4519   18.0537  -32.3286 H   0  0  0  0  0  0  0  0  0  0  0  0
   -6.8890   21.3960  -32.1200 H   0  0  0  0  0  0  0  0  0  0  0  0
  -10.5862   21.7629  -31.5655 H   0  0  0  0  0  0  0  0  0  0  0  0
   -9.1361   21.8575  -30.4856 H   0  0  0  0  0  0  0  0  0  0  0  0
   -8.0634   23.4062  -29.5524 H   0  0  0  0  0  0  0  0  0  0  0  0
   -5.7536   23.4782  -28.5879 H   0  0  0  0  0  0  0  0  0  0  0  0
   -2.7199   21.7795  -31.1500 H   0  0  0  0  0  0  0  0  0  0  0  0
   -0.3880   21.8844  -30.2716 H   0  0  0  0  0  0  0  0  0  0  0  0
    0.2678   23.6781  -28.6669 H   0  0  0  0  0  0  0  0  0  0  0  0
   -1.4072   25.3817  -27.9455 H   0  0  0  0  0  0  0  0  0  0  0  0
   -3.7397   25.2914  -28.8184 H   0  0  0  0  0  0  0  0  0  0  0  0
  1  2  1  0
  2  3  1  0
  3  4  2  0
  4  5  1  0
  5  6  2  0
  6  7  1  0
  7  8  2  0
  8  9  1  0
  9 10  1  0
 10 11  2  0
 10 12  1  0
 12 13  1  0
 13 14  1  0
 14 15  2  0
 15 16  1  0
 16 17  2  0
 17 18  1  0
 18 19  2  0
 19 20  1  0
 20 21  2  0
 21 22  1  0
 22 23  2  0
 17 24  1  0
 24 25  2  0
  8  3  1  0
 25 14  1  0
 23 18  1  0
  1 26  1  0
  1 27  1  0
  1 28  1  0
  2 29  1  0
  2 30  1  0
  4 31  1  0
  5 32  1  0
  6 33  1  0
  7 34  1  0
  9 35  1  0
 12 36  1  0
 12 37  1  0
 15 38  1  0
 16 39  1  0
 19 40  1  0
 20 41  1  0
 21 42  1  0
 22 43  1  0
 23 44  1  0
M  END
>  <UniqueID>  (28) 
26

>  <SMILES>  (28) 
CCc1ccccc1NC(=O)CSc1ccc(-c2ccccc2)nn1

>  <Energy>  (28) 
47.325023718042594

>  <Genealogy>  (28) 
CCc1ccccc1NC(=O)CSc1ccc(-c2ccccc2)nn1 (3D coordinates assigned)
CCc1ccccc1NC(=O)CSc1ccc(-c2ccccc2)nn1 (optimized conformer: 47.325023718042594 kcal/mol)

>  <smiles>  (28) 
CCc1ccccc1NC(=O)CSc1ccc(-c2ccccc2)nn1

>  <score_type>  (28) 
oracle

>  <origin>  (28) 
adgpu

>  <m_score__min__energy>  (28) 
-9.0899999999999999

>  <m_primary>  (28) 
energy

$$$$
28:0
     RDKit          3D

 46 48  0  0  0  0  0  0  0  0999 V2000
   -4.7770   15.6090  -34.4000 C   0  0  0  0  0  0  0  0  0  0  0  0
   -5.7470   16.3830  -33.6370 N   0  0  0  0  0  0  0  0  0  0  0  0
   -5.9960   17.7680  -33.9200 C   0  0  0  0  0  0  0  0  0  0  0  0
   -5.3930   18.3270  -34.8780 O   0  0  0  0  0  0  0  0  0  0  0  0
   -6.9530   18.5450  -33.0990 C   0  0  0  0  0  0  0  0  0  0  0  0
   -6.9000   19.9480  -33.0590 C   0  0  0  0  0  0  0  0  0  0  0  0
   -7.8240   20.6580  -32.2730 C   0  0  0  0  0  0  0  0  0  0  0  0
   -7.8030   22.0570  -32.1840 O   0  0  0  0  0  0  0  0  0  0  0  0
   -6.7240   22.8250  -31.7220 C   0  0  0  0  0  0  0  0  0  0  0  0
   -5.4090   22.3270  -31.7070 C   0  0  0  0  0  0  0  0  0  0  0  0
   -4.3560   23.1280  -31.2540 C   0  0  0  0  0  0  0  0  0  0  0  0
   -4.5990   24.4470  -30.8340 C   0  0  0  0  0  0  0  0  0  0  0  0
   -3.5500   25.2880  -30.3320 N   0  0  0  0  0  0  0  0  0  0  0  0
   -2.5890   24.9240  -29.3360 C   0  0  0  0  0  0  0  0  0  0  0  0
   -1.4740   25.5120  -29.3240 O   0  0  0  0  0  0  0  0  0  0  0  0
   -2.8480   23.8390  -28.4370 N   0  0  0  0  0  0  0  0  0  0  0  0
   -2.2730   22.5260  -28.4980 C   0  0  0  0  0  0  0  0  0  0  0  0
   -1.2250   22.2120  -29.3830 C   0  0  0  0  0  0  0  0  0  0  0  0
   -0.6770   20.9280  -29.3930 C   0  0  0  0  0  0  0  0  0  0  0  0
   -1.1580   19.9490  -28.5180 C   0  0  0  0  0  0  0  0  0  0  0  0
   -2.1940   20.2540  -27.6220 C   0  0  0  0  0  0  0  0  0  0  0  0
   -2.6970   19.2220  -26.6560 C   0  0  0  0  0  0  0  0  0  0  0  0
   -2.7340   21.5490  -27.6050 C   0  0  0  0  0  0  0  0  0  0  0  0
   -5.9110   24.9370  -30.8450 C   0  0  0  0  0  0  0  0  0  0  0  0
   -6.9630   24.1390  -31.3030 C   0  0  0  0  0  0  0  0  0  0  0  0
   -8.7620   19.9490  -31.5190 C   0  0  0  0  0  0  0  0  0  0  0  0
   -8.7870   18.5560  -31.5830 C   0  0  0  0  0  0  0  0  0  0  0  0
   -7.8940   17.8930  -32.3630 N   0  0  0  0  0  0  0  0  0  0  0  0
   -4.1083   15.0754  -33.7086 H   0  0  0  0  0  0  0  0  0  0  0  0
   -5.3053   14.8815  -35.0338 H   0  0  0  0  0  0  0  0  0  0  0  0
   -4.1850   16.2856  -35.0338 H   0  0  0  0  0  0  0  0  0  0  0  0
   -6.2600   15.9070  -32.8610 H   0  0  0  0  0  0  0  0  0  0  0  0
   -6.1387   20.4888  -33.6403 H   0  0  0  0  0  0  0  0  0  0  0  0
   -5.2077   21.3025  -32.0532 H   0  0  0  0  0  0  0  0  0  0  0  0
   -3.3332   22.7240  -31.2263 H   0  0  0  0  0  0  0  0  0  0  0  0
   -0.8367   22.9798  -30.0684 H   0  0  0  0  0  0  0  0  0  0  0  0
    0.1367   20.6854  -30.0923 H   0  0  0  0  0  0  0  0  0  0  0  0
   -0.7237   18.9385  -28.5321 H   0  0  0  0  0  0  0  0  0  0  0  0
   -2.5274   19.5700  -25.6264 H   0  0  0  0  0  0  0  0  0  0  0  0
   -3.7735   19.0632  -26.8167 H   0  0  0  0  0  0  0  0  0  0  0  0
   -2.1588   18.2762  -26.8167 H   0  0  0  0  0  0  0  0  0  0  0  0
   -3.5263   21.7997  -26.8843 H   0  0  0  0  0  0  0  0  0  0  0  0
   -6.1151   25.9581  -30.4903 H   0  0  0  0  0  0  0  0  0  0  0  0
   -7.9845   24.5458  -31.3344 H   0  0  0  0  0  0  0  0  0  0  0  0
   -9.4769   20.4862  -30.8784 H   0  0  0  0  0  0  0  0  0  0  0  0
   -9.5313   17.9931  -31.0007 H   0  0  0  0  0  0  0  0  0  0  0  0
  1  2  1  0
  2  3  1  0
  3  4  2  0
  3  5  1  0
  5  6  2  0
  6  7  1  0
  7  8  1  0
  8  9  1  0
  9 10  2  0
 10 11  1  0
 11 12  2  0
 12 13  1  0
 13 14  1  0
 14 15  2  0
 14 16  1  0
 16 17  1  0
 17 18  2  0
 18 19  1  0
 19 20  2  0
 20 21  1  0
 21 22  1  0
 21 23  2  0
 12 24  1  0
 24 25  2  0
  7 26  2  0
 26 27  1  0
 27 28  2  0
 28  5  1  0
 25  9  1  0
 23 17  1  0
  1 29  1  0
  1 30  1  0
  1 31  1  0
  2 32  1  0
  6 33  1  0
 10 34  1  0
 11 35  1  0
 18 36  1  0
 19 37  1  0
 20 38  1  0
 22 39  1  0
 22 40  1  0
 22 41  1  0
 23 42  1  0
 24 43  1  0
 25 44  1  0
 26 45  1  0
 27 46  1  0
M  CHG  2  13  -1  16  -1
M  END
>  <UniqueID>  (29) 
27

>  <SMILES>  (29) 
CNC(=O)c1cc(Oc2ccc([N-]C(=O)[N-]c3cccc(C)c3)cc2)ccn1

>  <Energy>  (29) 
58.74607733706636

>  <Genealogy>  (29) 
CNC(=O)c1cc(Oc2ccc([N-]C(=O)[N-]c3cccc(C)c3)cc2)ccn1 (protonated)
CNC(=O)c1cc(Oc2ccc([N-]C(=O)[N-]c3cccc(C)c3)cc2)ccn1 (3D coordinates assigned)
CNC(=O)c1cc(Oc2ccc([N-]C(=O)[N-]c3cccc(C)c3)cc2)ccn1 (optimized conformer: 58.74607733706636 kcal/mol)

>  <smiles>  (29) 
CNC(=O)c1cc(Oc2ccc(NC(=O)Nc3cccc(C)c3)cc2)ccn1

>  <score_type>  (29) 
oracle

>  <origin>  (29) 
adgpu

>  <m_score__min__energy>  (29) 
-12.1

>  <m_primary>  (29) 
energy

$$$$
29:0
     RDKit          3D

 50 53  0  0  0  0  0  0  0  0999 V2000
   -1.2120   27.2760  -25.0460 C   0  0  0  0  0  0  0  0  0  0  0  0
   -1.5880   26.2760  -26.0990 C   0  0  0  0  0  0  0  0  0  0  0  0
   -2.7150   25.4580  -25.9260 C   0  0  0  0  0  0  0  0  0  0  0  0
   -3.0870   24.5500  -26.9230 C   0  0  0  0  0  0  0  0  0  0  0  0
   -2.3540   24.4690  -28.1200 C   0  0  0  0  0  0  0  0  0  0  0  0
   -2.7010   23.5280  -29.1500 N   0  0  0  0  0  0  0  0  0  0  0  0
   -3.5440   23.8380  -30.2740 C   0  0  0  0  0  0  0  0  0  0  0  0
   -3.8620   25.0330  -30.5190 O   0  0  0  0  0  0  0  0  0  0  0  0
   -3.9850   22.7660  -31.1930 C   0  0  0  0  0  0  0  0  0  0  0  0
   -3.0080   22.0360  -31.8850 C   0  0  0  0  0  0  0  0  0  0  0  0
   -3.3810   21.0400  -32.8030 C   0  0  0  0  0  0  0  0  0  0  0  0
   -2.3690   20.2590  -33.5580 C   0  0  0  0  0  0  0  0  0  0  0  0
   -2.5480   18.8780  -33.7390 C   0  0  0  0  0  0  0  0  0  0  0  0
   -1.6030   18.1250  -34.4370 C   0  0  0  0  0  0  0  0  0  0  0  0
   -0.4520   18.7290  -34.9640 C   0  0  0  0  0  0  0  0  0  0  0  0
    0.5450   17.8880  -35.7160 C   0  0  0  0  0  0  0  0  0  0  0  0
   -0.2570   20.1190  -34.7890 C   0  0  0  0  0  0  0  0  0  0  0  0
    0.9710   20.8080  -35.3240 C   0  0  0  0  0  0  0  0  0  0  0  0
   -1.2120   20.8680  -34.0780 C   0  0  0  0  0  0  0  0  0  0  0  0
   -4.7020   20.8070  -33.0250 N   0  0  0  0  0  0  0  0  0  0  0  0
   -5.6840   21.4830  -32.3750 C   0  0  0  0  0  0  0  0  0  0  0  0
   -7.0230   21.1780  -32.6410 C   0  0  0  0  0  0  0  0  0  0  0  0
   -8.0440   21.8430  -31.9610 C   0  0  0  0  0  0  0  0  0  0  0  0
   -7.7310   22.8130  -31.0060 C   0  0  0  0  0  0  0  0  0  0  0  0
   -6.3980   23.1290  -30.7330 C   0  0  0  0  0  0  0  0  0  0  0  0
   -5.3520   22.4800  -31.4260 C   0  0  0  0  0  0  0  0  0  0  0  0
   -1.2250   25.2840  -28.2860 C   0  0  0  0  0  0  0  0  0  0  0  0
   -0.8530   26.1920  -27.2900 C   0  0  0  0  0  0  0  0  0  0  0  0
   -1.3763   26.8390  -24.0500 H   0  0  0  0  0  0  0  0  0  0  0  0
   -0.1513   27.5451  -25.1579 H   0  0  0  0  0  0  0  0  0  0  0  0
   -1.8327   28.1772  -25.1579 H   0  0  0  0  0  0  0  0  0  0  0  0
   -3.3083   25.5311  -25.0026 H   0  0  0  0  0  0  0  0  0  0  0  0
   -3.9579   23.8957  -26.7696 H   0  0  0  0  0  0  0  0  0  0  0  0
   -2.2670   22.5780  -29.1040 H   0  0  0  0  0  0  0  0  0  0  0  0
   -1.9426   22.2445  -31.7079 H   0  0  0  0  0  0  0  0  0  0  0  0
   -3.4411   18.3854  -33.3269 H   0  0  0  0  0  0  0  0  0  0  0  0
   -1.7625   17.0455  -34.5755 H   0  0  0  0  0  0  0  0  0  0  0  0
    1.1837   17.3492  -35.0007 H   0  0  0  0  0  0  0  0  0  0  0  0
    0.0107   17.1637  -36.3484 H   0  0  0  0  0  0  0  0  0  0  0  0
    1.1689   18.5367  -36.3484 H   0  0  0  0  0  0  0  0  0  0  0  0
    1.5912   21.1560  -34.4848 H   0  0  0  0  0  0  0  0  0  0  0  0
    1.5488   20.1023  -35.9390 H   0  0  0  0  0  0  0  0  0  0  0  0
    0.6698   21.6689  -35.9390 H   0  0  0  0  0  0  0  0  0  0  0  0
   -1.0520   21.9457  -33.9263 H   0  0  0  0  0  0  0  0  0  0  0  0
   -7.2720   20.4110  -33.3891 H   0  0  0  0  0  0  0  0  0  0  0  0
   -9.0956   21.6033  -32.1771 H   0  0  0  0  0  0  0  0  0  0  0  0
   -8.5379   23.3305  -30.4664 H   0  0  0  0  0  0  0  0  0  0  0  0
   -6.1612   23.8884  -29.9732 H   0  0  0  0  0  0  0  0  0  0  0  0
   -0.6277   25.2084  -29.2066 H   0  0  0  0  0  0  0  0  0  0  0  0
    0.0203   26.8434  -27.4415 H   0  0  0  0  0  0  0  0  0  0  0  0
  1  2  1  0
  2  3  2  0
  3  4  1  0
  4  5  2  0
  5  6  1  0
  6  7  1  0
  7  8  2  0
  7  9  1  0
  9 10  2  0
 10 11  1  0
 11 12  1  0
 12 13  2  0
 13 14  1  0
 14 15  2  0
 15 16  1  0
 15 17  1  0
 17 18  1  0
 17 19  2  0
 11 20  2  0
 20 21  1  0
 21 22  2  0
 22 23  1  0
 23 24  2  0
 24 25  1  0
 25 26  2  0
  5 27  1  0
 27 28  2  0
 28  2  1  0
 26  9  1  0
 19 12  1  0
 26 21  1  0
  1 29  1  0
  1 30  1  0
  1 31  1  0
  3 32  1  0
  4 33  1  0
  6 34  1  0
 10 35  1  0
 13 36  1  0
 14 37  1  0
 16 38  1  0
 16 39  1  0
 16 40  1  0
 18 41  1  0
 18 42  1  0
 18 43  1  0
 19 44  1  0
 22 45  1  0
 23 46  1  0
 24 47  1  0
 25 48  1  0
 27 49  1  0
 28 50  1  0
M  END
>  <UniqueID>  (30) 
28

>  <SMILES>  (30) 
Cc1ccc(NC(=O)c2cc(-c3ccc(C)c(C)c3)nc3ccccc23)cc1

>  <Energy>  (30) 
71.54358430190507

>  <Genealogy>  (30) 
Cc1ccc(NC(=O)c2cc(-c3ccc(C)c(C)c3)nc3ccccc23)cc1 (3D coordinates assigned)
Cc1ccc(NC(=O)c2cc(-c3ccc(C)c(C)c3)nc3ccccc23)cc1 (optimized conformer: 71.54358430190507 kcal/mol)

>  <smiles>  (30) 
Cc1ccc(NC(=O)c2cc(-c3ccc(C)c(C)c3)nc3ccccc23)cc1

>  <score_type>  (30) 
oracle

>  <origin>  (30) 
adgpu

>  <m_score__min__energy>  (30) 
-9.4600000000000009

>  <m_primary>  (30) 
energy

$$$$
30:0
     RDKit          3D

 34 36  0  0  0  0  0  0  0  0999 V2000
   -7.2080   19.2817  -31.6931 H   0  0  0  0  0  0  0  0  0  0  0  0
   -6.4600   19.3920  -32.4920 C   0  0  0  0  0  0  0  0  0  0  0  0
   -5.8870   20.5420  -32.6890 N   0  0  0  0  0  0  0  0  0  0  0  0
   -6.1310   21.7560  -31.9570 C   0  0  0  0  0  0  0  0  0  0  0  0
   -7.4240   22.2320  -31.6820 C   0  0  0  0  0  0  0  0  0  0  0  0
   -8.3012   21.6660  -32.0285 H   0  0  0  0  0  0  0  0  0  0  0  0
   -7.6000   23.4200  -30.9710 C   0  0  0  0  0  0  0  0  0  0  0  0
   -8.6174   23.7805  -30.7588 H   0  0  0  0  0  0  0  0  0  0  0  0
   -6.4940   24.1610  -30.5230 C   0  0  0  0  0  0  0  0  0  0  0  0
   -6.7380   25.4130  -29.7230 C   0  0  0  0  0  0  0  0  0  0  0  0
   -6.6920   25.1770  -28.6496 H   0  0  0  0  0  0  0  0  0  0  0  0
   -5.9686   26.1601  -29.9675 H   0  0  0  0  0  0  0  0  0  0  0  0
   -7.7317   25.8165  -29.9675 H   0  0  0  0  0  0  0  0  0  0  0  0
   -5.1860   23.7140  -30.8350 C   0  0  0  0  0  0  0  0  0  0  0  0
   -4.0180   24.4620  -30.4500 N   0  0  0  0  0  0  0  0  0  0  0  0
   -3.8700   25.6390  -30.8440 O   0  0  0  0  0  0  0  0  0  0  0  0
   -3.1420   23.9640  -29.5140 O   0  0  0  0  0  0  0  0  0  0  0  0
   -5.0270   22.5070  -31.5400 C   0  0  0  0  0  0  0  0  0  0  0  0
   -4.0132   22.1462  -31.7681 H   0  0  0  0  0  0  0  0  0  0  0  0
   -6.1120   18.2410  -33.3320 C   0  0  0  0  0  0  0  0  0  0  0  0
   -6.4790   16.9750  -33.0490 N   0  0  0  0  0  0  0  0  0  0  0  0
   -5.9580   16.2540  -34.0660 C   0  0  0  0  0  0  0  0  0  0  0  0
   -6.1090   14.7960  -34.1780 C   0  0  0  0  0  0  0  0  0  0  0  0
   -4.9250   13.6570  -33.8160 S   0  0  0  0  0  0  0  0  0  0  0  0
   -5.8500   12.3030  -34.1900 C   0  0  0  0  0  0  0  0  0  0  0  0
   -5.5193   11.2564  -34.1178 H   0  0  0  0  0  0  0  0  0  0  0  0
   -7.1040   12.7340  -34.6060 C   0  0  0  0  0  0  0  0  0  0  0  0
   -7.9059   12.0457  -34.9114 H   0  0  0  0  0  0  0  0  0  0  0  0
   -7.2510   14.1260  -34.6000 C   0  0  0  0  0  0  0  0  0  0  0  0
   -8.1774   14.6381  -34.8992 H   0  0  0  0  0  0  0  0  0  0  0  0
   -5.2890   17.0090  -34.9600 N   0  0  0  0  0  0  0  0  0  0  0  0
   -4.8000   16.6940  -35.8270 H   0  0  0  0  0  0  0  0  0  0  0  0
   -5.3830   18.2680  -34.5030 C   0  0  0  0  0  0  0  0  0  0  0  0
   -4.9545   19.1628  -34.9782 H   0  0  0  0  0  0  0  0  0  0  0  0
  1  2  1  0
  2  3  2  0
  3  4  1  0
  4  5  2  0
  5  6  1  0
  5  7  1  0
  7  8  1  0
  7  9  2  0
  9 10  1  0
 10 11  1  0
 10 12  1  0
 10 13  1  0
  9 14  1  0
 14 15  1  0
 15 16  2  0
 15 17  1  0
 14 18  2  0
 18 19  1  0
  2 20  1  0
 20 21  1  0
 21 22  2  0
 22 23  1  0
 23 24  1  0
 24 25  1  0
 25 26  1  0
 25 27  2  0
 27 28  1  0
 27 29  1  0
 29 30  1  0
 22 31  1  0
 31 32  1  0
 31 33  1  0
 33 34  1  0
 18  4  1  0
 33 20  2  0
 29 23  2  0
M  CHG  2  15   1  17  -1
M  END
>  <UniqueID>  (31) 
29

>  <SMILES>  (31) 
Cc1ccc(/N=C/c2c[nH]c(-c3cccs3)n2)cc1[N+](=O)[O-]

>  <Energy>  (31) 
96.7360555944632

>  <Genealogy>  (31) 
Cc1ccc(/N=C/c2c[nH]c(-c3cccs3)n2)cc1[N+](=O)[O-] (cis-trans isomerization)
Cc1ccc(/N=C/c2c[nH]c(-c3cccs3)n2)cc1[N+](=O)[O-] (3D coordinates assigned)
Cc1ccc(/N=C/c2c[nH]c(-c3cccs3)n2)cc1[N+](=O)[O-] (optimized conformer: 96.7360555944632 kcal/mol)

>  <smiles>  (31) 
Cc1ccc(N=Cc2c[nH]c(-c3cccs3)n2)cc1[N+](=O)[O-]

>  <score_type>  (31) 
oracle

>  <origin>  (31) 
adgpu

>  <m_score__min__energy>  (31) 
-7.7599999999999998

>  <m_primary>  (31) 
energy

$$$$
31:0
     RDKit          3D

 38 40  0  0  0  0  0  0  0  0999 V2000
   -6.8270   16.7260  -33.7430 C   0  0  0  0  0  0  0  0  0  0  0  0
   -6.7940   18.0950  -33.1320 C   0  0  0  0  0  0  0  0  0  0  0  0
   -7.8050   18.5000  -32.2490 C   0  0  0  0  0  0  0  0  0  0  0  0
   -7.7930   19.7890  -31.7070 C   0  0  0  0  0  0  0  0  0  0  0  0
   -6.7890   20.6990  -32.0600 C   0  0  0  0  0  0  0  0  0  0  0  0
   -6.8030   22.0040  -31.4630 N   0  0  0  0  0  0  0  0  0  0  0  0
   -5.8740   23.0700  -31.7120 C   0  0  0  0  0  0  0  0  0  0  0  0
   -6.0430   23.8290  -32.7050 O   0  0  0  0  0  0  0  0  0  0  0  0
   -4.7500   23.3070  -30.7670 C   0  0  0  0  0  0  0  0  0  0  0  0
   -4.1270   22.2190  -30.1310 C   0  0  0  0  0  0  0  0  0  0  0  0
   -3.0710   22.4220  -29.2430 C   0  0  0  0  0  0  0  0  0  0  0  0
   -2.6220   23.7240  -28.9920 C   0  0  0  0  0  0  0  0  0  0  0  0
   -1.5220   23.9770  -28.0380 C   0  0  0  0  0  0  0  0  0  0  0  0
   -1.2040   22.9920  -27.0830 C   0  0  0  0  0  0  0  0  0  0  0  0
   -0.2090   23.2210  -26.1290 C   0  0  0  0  0  0  0  0  0  0  0  0
    0.4780   24.4350  -26.1140 C   0  0  0  0  0  0  0  0  0  0  0  0
    0.1820   25.4180  -27.0590 C   0  0  0  0  0  0  0  0  0  0  0  0
   -0.8020   25.1980  -28.0310 C   0  0  0  0  0  0  0  0  0  0  0  0
   -1.0170   26.1930  -28.9870 O   0  0  0  0  0  0  0  0  0  0  0  0
   -3.2360   24.7710  -29.6080 N   0  0  0  0  0  0  0  0  0  0  0  0
   -4.2680   24.6050  -30.4780 C   0  0  0  0  0  0  0  0  0  0  0  0
   -4.7800   25.6230  -31.0130 O   0  0  0  0  0  0  0  0  0  0  0  0
   -5.7710   20.2910  -32.9410 C   0  0  0  0  0  0  0  0  0  0  0  0
   -5.7820   19.0010  -33.4820 C   0  0  0  0  0  0  0  0  0  0  0  0
   -6.8453   15.9688  -32.9453 H   0  0  0  0  0  0  0  0  0  0  0  0
   -7.7279   16.6241  -34.3660 H   0  0  0  0  0  0  0  0  0  0  0  0
   -5.9321   16.5808  -34.3660 H   0  0  0  0  0  0  0  0  0  0  0  0
   -8.6110   17.8008  -31.9815 H   0  0  0  0  0  0  0  0  0  0  0  0
   -8.5782   20.0904  -30.9980 H   0  0  0  0  0  0  0  0  0  0  0  0
   -4.4763   21.1963  -30.3360 H   0  0  0  0  0  0  0  0  0  0  0  0
   -2.5945   21.5655  -28.7436 H   0  0  0  0  0  0  0  0  0  0  0  0
   -1.7438   22.0336  -27.0881 H   0  0  0  0  0  0  0  0  0  0  0  0
    0.0327   22.4435  -25.3894 H   0  0  0  0  0  0  0  0  0  0  0  0
    1.2541   24.6176  -25.3562 H   0  0  0  0  0  0  0  0  0  0  0  0
    0.7261   26.3738  -27.0404 H   0  0  0  0  0  0  0  0  0  0  0  0
   -1.6110   26.0670  -29.7950 H   0  0  0  0  0  0  0  0  0  0  0  0
   -4.9631   20.9891  -33.2055 H   0  0  0  0  0  0  0  0  0  0  0  0
   -4.9932   18.6957  -34.1853 H   0  0  0  0  0  0  0  0  0  0  0  0
  1  2  1  0
  2  3  2  0
  3  4  1  0
  4  5  2  0
  5  6  1  0
  6  7  1  0
  7  8  2  0
  7  9  1  0
  9 10  2  0
 10 11  1  0
 11 12  2  0
 12 13  1  0
 13 14  2  0
 14 15  1  0
 15 16  2  0
 16 17  1  0
 17 18  2  0
 18 19  1  0
 12 20  1  0
 20 21  1  0
 21 22  2  0
  5 23  1  0
 23 24  2  0
 24  2  1  0
 21  9  1  0
 18 13  1  0
  1 25  1  0
  1 26  1  0
  1 27  1  0
  3 28  1  0
  4 29  1  0
 10 30  1  0
 11 31  1  0
 14 32  1  0
 15 33  1  0
 16 34  1  0
 17 35  1  0
 19 36  1  0
 23 37  1  0
 24 38  1  0
M  CHG  2   6  -1  20  -1
M  END
>  <UniqueID>  (32) 
30

>  <SMILES>  (32) 
Cc1ccc([N-]C(=O)c2ccc(-c3ccccc3O)[n-]c2=O)cc1

>  <Energy>  (32) 
54.038504258306126

>  <Genealogy>  (32) 
Cc1ccc([N-]C(=O)c2ccc(-c3ccccc3O)[n-]c2=O)cc1 (protonated)
Cc1ccc([N-]C(=O)c2ccc(-c3ccccc3O)[n-]c2=O)cc1 (3D coordinates assigned)
Cc1ccc([N-]C(=O)c2ccc(-c3ccccc3O)[n-]c2=O)cc1 (optimized conformer: 54.038504258306126 kcal/mol)

>  <smiles>  (32) 
Cc1ccc(NC(=O)c2ccc(-c3ccccc3O)[nH]c2=O)cc1

>  <score_type>  (32) 
oracle

>  <origin>  (32) 
adgpu

>  <m_score__min__energy>  (32) 
-10.92

>  <m_primary>  (32) 
energy

$$$$
32:0
     RDKit          3D

 19 20  0  0  0  0  0  0  0  0999 V2000
   -2.6550   24.4560  -30.8890 H   0  0  0  0  0  0  0  0  0  0  0  0
   -3.4840   24.9150  -30.4590 N   0  0  0  0  0  0  0  0  0  0  0  0
   -4.7190   24.5200  -30.5570 C   0  0  0  0  0  0  0  0  0  0  0  0
   -5.0990   23.3620  -31.2980 C   0  0  0  0  0  0  0  0  0  0  0  0
   -4.1790   22.5390  -31.9900 C   0  0  0  0  0  0  0  0  0  0  0  0
   -3.1069   22.7844  -31.9702 H   0  0  0  0  0  0  0  0  0  0  0  0
   -4.6190   21.4180  -32.6980 C   0  0  0  0  0  0  0  0  0  0  0  0
   -3.8918   20.7887  -33.2320 H   0  0  0  0  0  0  0  0  0  0  0  0
   -5.9730   21.0920  -32.7320 C   0  0  0  0  0  0  0  0  0  0  0  0
   -6.3110   20.2068  -33.2907 H   0  0  0  0  0  0  0  0  0  0  0  0
   -6.9000   21.8860  -32.0590 C   0  0  0  0  0  0  0  0  0  0  0  0
   -7.9681   21.6248  -32.0892 H   0  0  0  0  0  0  0  0  0  0  0  0
   -6.4780   23.0170  -31.3430 C   0  0  0  0  0  0  0  0  0  0  0  0
   -7.4170   23.8040  -30.6720 C   0  0  0  0  0  0  0  0  0  0  0  0
   -8.4842   23.5393  -30.7032 H   0  0  0  0  0  0  0  0  0  0  0  0
   -6.9950   24.9230  -29.9650 C   0  0  0  0  0  0  0  0  0  0  0  0
   -7.7322   25.5459  -29.4373 H   0  0  0  0  0  0  0  0  0  0  0  0
   -5.6780   25.2530  -29.9210 N   0  0  0  0  0  0  0  0  0  0  0  0
   -5.4010   26.1030  -29.3780 H   0  0  0  0  0  0  0  0  0  0  0  0
  1  2  1  0
  2  3  2  0
  3  4  1  0
  4  5  2  0
  5  6  1  0
  5  7  1  0
  7  8  1  0
  7  9  2  0
  9 10  1  0
  9 11  1  0
 11 12  1  0
 11 13  2  0
 13 14  1  0
 14 15  1  0
 14 16  2  0
 16 17  1  0
 16 18  1  0
 18 19  1  0
 18  3  1  0
 13  4  1  0
M  END
>  <UniqueID>  (33) 
31

>  <SMILES>  (33) 
[H]/N=c1/[nH]ccc2ccccc12

>  <Energy>  (33) 
27.982050518377243

>  <Genealogy>  (33) 
[H]/N=c1/[nH]ccc2ccccc12 (cis-trans isomerization)
[H]/N=c1/[nH]ccc2ccccc12 (3D coordinates assigned)
[H]/N=c1/[nH]ccc2ccccc12 (optimized conformer: 27.982050518377243 kcal/mol)

>  <smiles>  (33) 
N=c1[nH]ccc2ccccc12

>  <score_type>  (33) 
oracle

>  <origin>  (33) 
adgpu

>  <m_score__min__energy>  (33) 
-5.46

>  <m_primary>  (33) 
energy

$$$$
33:0
     RDKit          3D

 37 40  0  0  0  0  0  0  0  0999 V2000
   -5.6900   25.3300  -30.0480 Cl  0  0  0  0  0  0  0  0  0  0  0  0
   -4.7810   23.9950  -30.7520 C   0  0  0  0  0  0  0  0  0  0  0  0
   -5.3630   23.3060  -31.8230 C   0  0  0  0  0  0  0  0  0  0  0  0
   -4.6750   22.2730  -32.4560 C   0  0  0  0  0  0  0  0  0  0  0  0
   -3.3980   21.9170  -32.0240 C   0  0  0  0  0  0  0  0  0  0  0  0
   -2.7980   22.5930  -30.9550 C   0  0  0  0  0  0  0  0  0  0  0  0
   -1.2080   22.0410  -30.4300 Cl  0  0  0  0  0  0  0  0  0  0  0  0
   -3.4860   23.6440  -30.3050 C   0  0  0  0  0  0  0  0  0  0  0  0
   -2.8600   24.3650  -29.1730 C   0  0  0  0  0  0  0  0  0  0  0  0
   -1.8720   25.2860  -29.3390 N   0  0  0  0  0  0  0  0  0  0  0  0
   -1.6150   25.6710  -28.0820 C   0  0  0  0  0  0  0  0  0  0  0  0
   -0.6780   26.6080  -27.6540 C   0  0  0  0  0  0  0  0  0  0  0  0
   -0.5730   26.8540  -26.2640 C   0  0  0  0  0  0  0  0  0  0  0  0
    0.3710   27.8200  -25.7640 N   0  0  0  0  0  0  0  0  0  0  0  0
    1.1600   27.5350  -24.5580 C   0  0  0  0  0  0  0  0  0  0  0  0
    1.3940   28.8150  -23.7230 C   0  0  0  0  0  0  0  0  0  0  0  0
    0.9720   30.0050  -24.3690 O   0  0  0  0  0  0  0  0  0  0  0  0
    1.4490   30.0320  -25.6960 C   0  0  0  0  0  0  0  0  0  0  0  0
    0.6570   29.0330  -26.5410 C   0  0  0  0  0  0  0  0  0  0  0  0
   -1.4240   26.1570  -25.3650 C   0  0  0  0  0  0  0  0  0  0  0  0
   -2.3580   25.2170  -25.8400 C   0  0  0  0  0  0  0  0  0  0  0  0
   -2.4180   25.0040  -27.2130 C   0  0  0  0  0  0  0  0  0  0  0  0
   -3.2240   24.1640  -27.8780 N   0  0  0  0  0  0  0  0  0  0  0  0
   -6.3706   23.5823  -32.1671 H   0  0  0  0  0  0  0  0  0  0  0  0
   -5.1396   21.7378  -33.2973 H   0  0  0  0  0  0  0  0  0  0  0  0
   -2.8588   21.1002  -32.5261 H   0  0  0  0  0  0  0  0  0  0  0  0
   -0.0391   27.1406  -28.3739 H   0  0  0  0  0  0  0  0  0  0  0  0
    0.6208   26.7997  -23.9428 H   0  0  0  0  0  0  0  0  0  0  0  0
    2.1385   27.1402  -24.8691 H   0  0  0  0  0  0  0  0  0  0  0  0
    0.8400   28.7184  -22.7776 H   0  0  0  0  0  0  0  0  0  0  0  0
    2.4795   28.9023  -23.5679 H   0  0  0  0  0  0  0  0  0  0  0  0
    1.3242   31.0433  -26.1103 H   0  0  0  0  0  0  0  0  0  0  0  0
    2.5149   29.7604  -25.7089 H   0  0  0  0  0  0  0  0  0  0  0  0
   -0.2909   29.4946  -26.8546 H   0  0  0  0  0  0  0  0  0  0  0  0
    1.2539   28.7594  -27.4235 H   0  0  0  0  0  0  0  0  0  0  0  0
   -1.3522   26.3541  -24.2852 H   0  0  0  0  0  0  0  0  0  0  0  0
   -3.0171   24.6703  -25.1496 H   0  0  0  0  0  0  0  0  0  0  0  0
  1  2  1  0
  2  3  2  0
  3  4  1  0
  4  5  2  0
  5  6  1  0
  6  7  1  0
  6  8  2  0
  8  9  1  0
  9 10  2  0
 10 11  1  0
 11 12  2  0
 12 13  1  0
 13 14  1  0
 14 15  1  0
 15 16  1  0
 16 17  1  0
 17 18  1  0
 18 19  1  0
 13 20  2  0
 20 21  1  0
 21 22  2  0
 22 23  1  0
  8  2  1  0
 23  9  1  0
 22 11  1  0
 19 14  1  0
  3 24  1  0
  4 25  1  0
  5 26  1  0
 12 27  1  0
 15 28  1  0
 15 29  1  0
 16 30  1  0
 16 31  1  0
 18 32  1  0
 18 33  1  0
 19 34  1  0
 19 35  1  0
 20 36  1  0
 21 37  1  0
M  CHG  1  23  -1
M  END
>  <UniqueID>  (34) 
32

>  <SMILES>  (34) 
Clc1cccc(Cl)c1-c1nc2cc(N3CCOCC3)ccc2[n-]1

>  <Energy>  (34) 
93.45496546558712

>  <Genealogy>  (34) 
Clc1cccc(Cl)c1-c1nc2cc(N3CCOCC3)ccc2[n-]1 (protonated)
Clc1cccc(Cl)c1-c1nc2cc(N3CCOCC3)ccc2[n-]1 (3D coordinates assigned)
Clc1cccc(Cl)c1-c1nc2cc(N3CCOCC3)ccc2[n-]1 (nonaromatic ring conformer: 93.45496546558712 kcal/mol)

>  <smiles>  (34) 
Clc1cccc(Cl)c1-c1nc2cc(N3CCOCC3)ccc2[nH]1

>  <score_type>  (34) 
oracle

>  <origin>  (34) 
adgpu

>  <m_score__min__energy>  (34) 
-8.0899999999999999

>  <m_primary>  (34) 
energy

$$$$
34:0
     RDKit          3D

 33 34  0  0  0  0  0  0  0  0999 V2000
   -9.7710   21.6860  -31.9090 C   0  0  0  0  0  0  0  0  0  0  0  0
   -8.8390   22.1990  -30.8510 C   0  0  0  0  0  0  0  0  0  0  0  0
   -9.0630   21.9310  -29.6770 O   0  0  0  0  0  0  0  0  0  0  0  0
   -7.6790   22.9920  -31.2130 N   0  0  1  0  0  0  0  0  0  0  0  0
   -6.6290   22.8510  -30.1680 C   0  0  0  0  0  0  0  0  0  0  0  0
   -5.2430   23.1520  -30.6870 C   0  0  0  0  0  0  0  0  0  0  0  0
   -4.2770   23.8610  -29.8250 C   0  0  0  0  0  0  0  0  0  0  0  0
   -3.6200   24.8480  -30.2530 O   0  0  0  0  0  0  0  0  0  0  0  0
   -4.8880   22.6670  -31.8820 C   0  0  0  0  0  0  0  0  0  0  0  0
   -5.9040   21.9520  -32.7320 C   0  0  1  0  0  0  0  0  0  0  0  0
   -6.0350   20.4590  -32.4450 C   0  0  0  0  0  0  0  0  0  0  0  0
   -4.9220   19.6150  -32.2360 C   0  0  0  0  0  0  0  0  0  0  0  0
   -5.1020   18.2540  -31.9700 C   0  0  0  0  0  0  0  0  0  0  0  0
   -6.3880   17.7130  -31.9220 C   0  0  0  0  0  0  0  0  0  0  0  0
   -7.4960   18.5290  -32.1450 C   0  0  0  0  0  0  0  0  0  0  0  0
   -7.3230   19.8910  -32.4110 C   0  0  0  0  0  0  0  0  0  0  0  0
   -7.2550   22.6960  -32.6160 C   0  0  0  0  0  0  0  0  0  0  0  0
  -10.6394   21.2080  -31.4322 H   0  0  0  0  0  0  0  0  0  0  0  0
  -10.1115   22.5238  -32.5352 H   0  0  0  0  0  0  0  0  0  0  0  0
   -9.2453   20.9501  -32.5352 H   0  0  0  0  0  0  0  0  0  0  0  0
   -7.9720   23.9990  -31.1980 H   0  0  0  0  0  0  0  0  0  0  0  0
   -6.8553   23.5463  -29.3462 H   0  0  0  0  0  0  0  0  0  0  0  0
   -6.6362   21.8042  -29.8302 H   0  0  0  0  0  0  0  0  0  0  0  0
   -4.1276   23.5216  -28.7894 H   0  0  0  0  0  0  0  0  0  0  0  0
   -3.8562   22.7903  -32.2427 H   0  0  0  0  0  0  0  0  0  0  0  0
   -5.5467   21.9801  -33.7720 H   0  0  0  0  0  0  0  0  0  0  0  0
   -3.9051   20.0317  -32.2829 H   0  0  0  0  0  0  0  0  0  0  0  0
   -4.2282   17.6082  -31.7982 H   0  0  0  0  0  0  0  0  0  0  0  0
   -6.5270   16.6430  -31.7082 H   0  0  0  0  0  0  0  0  0  0  0  0
   -8.5086   18.1006  -32.1117 H   0  0  0  0  0  0  0  0  0  0  0  0
   -8.2025   20.5254  -32.5956 H   0  0  0  0  0  0  0  0  0  0  0  0
   -7.1703   23.6494  -33.1581 H   0  0  0  0  0  0  0  0  0  0  0  0
   -8.0187   22.0276  -33.0402 H   0  0  0  0  0  0  0  0  0  0  0  0
  1  2  1  0
  2  3  2  0
  2  4  1  0
  4  5  1  0
  5  6  1  0
  6  7  1  0
  7  8  2  0
  6  9  2  0
  9 10  1  0
 10 11  1  0
 11 12  2  0
 12 13  1  0
 13 14  2  0
 14 15  1  0
 15 16  2  0
 10 17  1  0
 17  4  1  0
 16 11  1  0
  1 18  1  0
  1 19  1  0
  1 20  1  0
  4 21  1  6
  5 22  1  0
  5 23  1  0
  7 24  1  0
  9 25  1  0
 10 26  1  6
 12 27  1  0
 13 28  1  0
 14 29  1  0
 15 30  1  0
 16 31  1  0
 17 32  1  0
 17 33  1  0
M  CHG  1   4   1
M  END
>  <UniqueID>  (35) 
33

>  <SMILES>  (35) 
CC(=O)[N@H+]1CC(C=O)=C[C@@H](c2ccccc2)C1

>  <Energy>  (35) 
44.867411939378734

>  <Genealogy>  (35) 
CC(=O)[NH+]1CC(C=O)=CC(c2ccccc2)C1 (protonated)
CC(=O)[N@H+]1CC(C=O)=C[C@@H](c2ccccc2)C1 (chirality)
CC(=O)[N@H+]1CC(C=O)=C[C@@H](c2ccccc2)C1 (3D coordinates assigned)
CC(=O)[N@H+]1CC(C=O)=C[C@@H](c2ccccc2)C1 (nonaromatic ring conformer: 44.867411939378734 kcal/mol)

>  <smiles>  (35) 
CC(=O)N1CC(C=O)=CC(c2ccccc2)C1

>  <score_type>  (35) 
oracle

>  <origin>  (35) 
adgpu

>  <m_score__min__energy>  (35) 
-5.7699999999999996

>  <m_primary>  (35) 
energy

$$$$
35:0
     RDKit          3D

 32 33  0  0  0  0  0  0  0  0999 V2000
   -1.1414   23.2531  -26.7986 H   0  0  0  0  0  0  0  0  0  0  0  0
   -1.7870   23.6020  -27.6180 C   0  0  0  0  0  0  0  0  0  0  0  0
   -1.5460   24.8400  -28.2300 C   0  0  0  0  0  0  0  0  0  0  0  0
   -0.4960   25.7050  -27.7730 N   0  0  0  0  0  0  0  0  0  0  0  0
   -0.4380   26.3560  -26.6440 C   0  0  0  0  0  0  0  0  0  0  0  0
   -1.3850   26.1880  -25.6130 C   0  0  0  0  0  0  0  0  0  0  0  0
   -2.2256   25.4903  -25.7419 H   0  0  0  0  0  0  0  0  0  0  0  0
   -1.2490   26.9130  -24.4270 C   0  0  0  0  0  0  0  0  0  0  0  0
   -1.9905   26.7916  -23.6236 H   0  0  0  0  0  0  0  0  0  0  0  0
   -0.2050   27.7680  -24.2600 N   0  0  0  0  0  0  0  0  0  0  0  0
   -0.1170   28.3020  -23.3670 H   0  0  0  0  0  0  0  0  0  0  0  0
    0.7340   27.9350  -25.2310 C   0  0  0  0  0  0  0  0  0  0  0  0
    1.5722   28.6288  -25.0694 H   0  0  0  0  0  0  0  0  0  0  0  0
    0.6370   27.2290  -26.4310 C   0  0  0  0  0  0  0  0  0  0  0  0
    1.4039   27.3578  -27.2090 H   0  0  0  0  0  0  0  0  0  0  0  0
   -2.3900   25.2800  -29.2020 N   0  0  0  0  0  0  0  0  0  0  0  0
   -3.4430   24.5430  -29.6510 C   0  0  0  0  0  0  0  0  0  0  0  0
   -4.1880   25.0420  -30.5980 N   0  0  0  0  0  0  0  0  0  0  0  0
   -5.3730   24.4420  -31.2180 C   0  0  0  0  0  0  0  0  0  0  0  0
   -5.7163   25.0779  -32.0473 H   0  0  0  0  0  0  0  0  0  0  0  0
   -6.4750   24.3260  -30.1660 C   0  0  0  0  0  0  0  0  0  0  0  0
   -6.0293   24.3729  -29.1614 H   0  0  0  0  0  0  0  0  0  0  0  0
   -7.1885   25.1540  -30.2896 H   0  0  0  0  0  0  0  0  0  0  0  0
   -7.0005   23.3676  -30.2896 H   0  0  0  0  0  0  0  0  0  0  0  0
   -5.0350   23.0570  -31.7830 C   0  0  0  0  0  0  0  0  0  0  0  0
   -4.8636   22.3546  -30.9540 H   0  0  0  0  0  0  0  0  0  0  0  0
   -5.8720   22.6985  -32.4002 H   0  0  0  0  0  0  0  0  0  0  0  0
   -4.1269   23.1244  -32.4002 H   0  0  0  0  0  0  0  0  0  0  0  0
   -3.6840   23.2770  -29.0790 C   0  0  0  0  0  0  0  0  0  0  0  0
   -4.5202   22.6573  -29.4350 H   0  0  0  0  0  0  0  0  0  0  0  0
   -2.8520   22.8170  -28.0570 C   0  0  0  0  0  0  0  0  0  0  0  0
   -3.0368   21.8346  -27.5978 H   0  0  0  0  0  0  0  0  0  0  0  0
  1  2  1  0
  2  3  2  0
  3  4  1  0
  4  5  2  3
  5  6  1  0
  6  7  1  0
  6  8  2  0
  8  9  1  0
  8 10  1  0
 10 11  1  0
 10 12  1  0
 12 13  1  0
 12 14  2  0
 14 15  1  0
  3 16  1  0
 16 17  1  0
 17 18  2  0
 18 19  1  0
 19 20  1  0
 19 21  1  0
 21 22  1  0
 21 23  1  0
 21 24  1  0
 19 25  1  0
 25 26  1  0
 25 27  1  0
 25 28  1  0
 17 29  1  0
 29 30  1  0
 29 31  2  0
 31 32  1  0
 31  2  1  0
 14  5  1  0
M  CHG  1  16  -1
M  END
>  <UniqueID>  (36) 
34

>  <SMILES>  (36) 
CC(C)/N=c1\cccc(N=c2cc[nH]cc2)[n-]1

>  <Energy>  (36) 
40.41663032621327

>  <Genealogy>  (36) 
CC(C)N=c1cccc(N=c2cc[nH]cc2)[n-]1 (protonated)
CC(C)/N=c1\cccc(N=c2cc[nH]cc2)[n-]1 (cis-trans isomerization)
CC(C)/N=c1\cccc(N=c2cc[nH]cc2)[n-]1 (3D coordinates assigned)
CC(C)/N=c1\cccc(N=c2cc[nH]cc2)[n-]1 (optimized conformer: 40.41663032621327 kcal/mol)

>  <smiles>  (36) 
CC(C)N=c1cccc(N=c2cc[nH]cc2)[nH]1

>  <score_type>  (36) 
oracle

>  <origin>  (36) 
adgpu

>  <m_score__min__energy>  (36) 
-8.1799999999999997

>  <m_primary>  (36) 
energy

$$$$
36:0
     RDKit          3D

 34 36  0  0  0  0  0  0  0  0999 V2000
   -1.5810   16.4680  -34.2090 C   0  0  0  0  0  0  0  0  0  0  0  0
   -3.0260   15.5560  -34.7020 S   0  0  0  0  0  0  0  0  0  0  0  0
   -2.9870   14.1840  -34.0890 O   0  0  0  0  0  0  0  0  0  0  0  0
   -3.0460   15.4150  -36.1990 O   0  0  0  0  0  0  0  0  0  0  0  0
   -4.4670   16.4130  -34.1660 C   0  0  0  0  0  0  0  0  0  0  0  0
   -5.7180   15.7830  -34.2080 C   0  0  0  0  0  0  0  0  0  0  0  0
   -6.8570   16.4580  -33.7660 C   0  0  0  0  0  0  0  0  0  0  0  0
   -6.7550   17.7620  -33.2740 C   0  0  0  0  0  0  0  0  0  0  0  0
   -5.5060   18.4060  -33.2180 C   0  0  0  0  0  0  0  0  0  0  0  0
   -5.3940   19.7910  -32.6920 C   0  0  0  0  0  0  0  0  0  0  0  0
   -4.1410   20.4180  -32.5910 C   0  0  0  0  0  0  0  0  0  0  0  0
   -4.0340   21.7210  -32.0960 C   0  0  0  0  0  0  0  0  0  0  0  0
   -5.1810   22.4270  -31.6880 C   0  0  0  0  0  0  0  0  0  0  0  0
   -5.0880   23.8090  -31.1580 C   0  0  0  0  0  0  0  0  0  0  0  0
   -6.1360   24.6450  -30.8140 C   0  0  0  0  0  0  0  0  0  0  0  0
   -5.5240   25.8010  -30.3840 C   0  0  0  0  0  0  0  0  0  0  0  0
   -4.1880   25.6600  -30.4680 N   0  0  0  0  0  0  0  0  0  0  0  0
   -3.9230   24.4510  -30.9380 N   0  0  0  0  0  0  0  0  0  0  0  0
   -6.4340   21.7980  -31.7870 C   0  0  0  0  0  0  0  0  0  0  0  0
   -6.5390   20.4960  -32.2840 C   0  0  0  0  0  0  0  0  0  0  0  0
   -4.3630   17.7180  -33.6660 C   0  0  0  0  0  0  0  0  0  0  0  0
   -1.5262   16.5026  -33.1109 H   0  0  0  0  0  0  0  0  0  0  0  0
   -0.6822   15.9732  -34.6056 H   0  0  0  0  0  0  0  0  0  0  0  0
   -1.6409   17.4923  -34.6056 H   0  0  0  0  0  0  0  0  0  0  0  0
   -5.8025   14.7549  -34.5899 H   0  0  0  0  0  0  0  0  0  0  0  0
   -7.8380   15.9619  -33.8051 H   0  0  0  0  0  0  0  0  0  0  0  0
   -7.6572   18.2880  -32.9284 H   0  0  0  0  0  0  0  0  0  0  0  0
   -3.2351   19.8784  -32.9045 H   0  0  0  0  0  0  0  0  0  0  0  0
   -3.0455   22.1982  -32.0249 H   0  0  0  0  0  0  0  0  0  0  0  0
   -7.2140   24.4337  -30.8712 H   0  0  0  0  0  0  0  0  0  0  0  0
   -6.0462   26.7009  -30.0269 H   0  0  0  0  0  0  0  0  0  0  0  0
   -7.3401   22.3353  -31.4705 H   0  0  0  0  0  0  0  0  0  0  0  0
   -7.5273   20.0186  -32.3565 H   0  0  0  0  0  0  0  0  0  0  0  0
   -3.3795   18.2088  -33.6233 H   0  0  0  0  0  0  0  0  0  0  0  0
  1  2  1  0
  2  3  2  0
  2  4  2  0
  2  5  1  0
  5  6  2  0
  6  7  1  0
  7  8  2  0
  8  9  1  0
  9 10  1  0
 10 11  2  0
 11 12  1  0
 12 13  2  0
 13 14  1  0
 14 15  1  0
 15 16  2  0
 16 17  1  0
 17 18  1  0
 13 19  1  0
 19 20  2  0
  9 21  2  0
 21  5  1  0
 20 10  1  0
 18 14  2  0
  1 22  1  0
  1 23  1  0
  1 24  1  0
  6 25  1  0
  7 26  1  0
  8 27  1  0
 11 28  1  0
 12 29  1  0
 15 30  1  0
 16 31  1  0
 19 32  1  0
 20 33  1  0
 21 34  1  0
M  CHG  1  17  -1
M  END
>  <UniqueID>  (37) 
35

>  <SMILES>  (37) 
CS(=O)(=O)c1cccc(-c2ccc(-c3cc[n-]n3)cc2)c1

>  <Energy>  (37) 
69.61903553708692

>  <Genealogy>  (37) 
CS(=O)(=O)c1cccc(-c2ccc(-c3cc[n-]n3)cc2)c1 (protonated)
CS(=O)(=O)c1cccc(-c2ccc(-c3cc[n-]n3)cc2)c1 (3D coordinates assigned)
CS(=O)(=O)c1cccc(-c2ccc(-c3cc[n-]n3)cc2)c1 (optimized conformer: 69.61903553708692 kcal/mol)

>  <smiles>  (37) 
CS(=O)(=O)c1cccc(-c2ccc(-c3cc[nH]n3)cc2)c1

>  <score_type>  (37) 
oracle

>  <origin>  (37) 
adgpu

>  <m_score__min__energy>  (37) 
-9.4299999999999997

>  <m_primary>  (37) 
energy

$$$$
37:0
     RDKit          3D

 35 38  0  0  1  0  0  0  0  0999 V2000
   -6.9580   16.2680  -33.7180 F   0  0  0  0  0  0  0  0  0  0  0  0
   -6.8010   17.5320  -33.2490 C   0  0  0  0  0  0  0  0  0  0  0  0
   -5.8030   18.3700  -33.7140 C   0  0  0  0  0  0  0  0  0  0  0  0
   -5.6130   19.6460  -33.2700 C   0  0  0  0  0  0  0  0  0  0  0  0
   -6.4510   20.1520  -32.3030 C   0  0  0  0  0  0  0  0  0  0  0  0
   -6.2250   21.5040  -31.8530 C   0  0  0  0  0  0  0  0  0  0  0  0
   -4.9980   22.0460  -31.3280 C   0  0  0  0  0  0  0  0  0  0  0  0
   -5.0440   23.3190  -30.9830 C   0  0  0  0  0  0  0  0  0  0  0  0
   -4.0130   24.1250  -30.4420 C   0  0  0  0  0  0  0  0  0  0  0  0
   -2.8540   23.7290  -30.2020 N   0  0  0  0  0  0  0  0  0  0  0  0
   -2.3120   22.4820  -30.3890 C   0  0  0  0  0  0  0  0  0  0  0  0
   -2.0190   21.6730  -29.2790 C   0  0  0  0  0  0  0  0  0  0  0  0
   -1.4180   20.4400  -29.4580 C   0  0  0  0  0  0  0  0  0  0  0  0
   -1.1000   19.9980  -30.7310 C   0  0  0  0  0  0  0  0  0  0  0  0
   -0.5100   18.7940  -30.9400 F   0  0  0  0  0  0  0  0  0  0  0  0
   -1.3940   20.8020  -31.8120 C   0  0  0  0  0  0  0  0  0  0  0  0
   -0.9970   20.2560  -33.4470 Cl  0  0  0  0  0  0  0  0  0  0  0  0
   -1.9950   22.0430  -31.6860 C   0  0  0  0  0  0  0  0  0  0  0  0
   -4.2600   25.4370  -30.1470 N   0  0  0  0  0  0  0  0  0  0  0  0
   -5.4270   26.0530  -30.3270 C   0  0  0  0  0  0  0  0  0  0  0  0
   -6.4240   25.3030  -30.8420 N   0  0  0  0  0  0  0  0  0  0  0  0
   -6.2280   24.0030  -31.1490 C   0  0  0  0  0  0  0  0  0  0  0  0
   -7.4050   22.8030  -31.8450 S   0  0  0  0  0  0  0  0  0  0  0  0
   -7.4420   19.3510  -31.8270 C   0  0  0  0  0  0  0  0  0  0  0  0
   -7.6450   18.0450  -32.2750 C   0  0  0  0  0  0  0  0  0  0  0  0
   -5.1224   17.9846  -34.4875 H   0  0  0  0  0  0  0  0  0  0  0  0
   -4.7997   20.2628  -33.6801 H   0  0  0  0  0  0  0  0  0  0  0  0
   -4.0857   21.4407  -31.2220 H   0  0  0  0  0  0  0  0  0  0  0  0
   -2.2679   22.0205  -28.2654 H   0  0  0  0  0  0  0  0  0  0  0  0
   -1.1920   19.8086  -28.5861 H   0  0  0  0  0  0  0  0  0  0  0  0
   -2.2161   22.6621  -32.5679 H   0  0  0  0  0  0  0  0  0  0  0  0
   -3.4860   26.0430  -29.7420 H   0  0  0  0  0  0  0  0  0  0  0  0
   -5.5702   27.1130  -30.0705 H   0  0  0  0  0  0  0  0  0  0  0  0
   -8.1142   19.7510  -31.0535 H   0  0  0  0  0  0  0  0  0  0  0  0
   -8.4605   17.4327  -31.8627 H   0  0  0  0  0  0  0  0  0  0  0  0
  1  2  1  0
  2  3  2  0
  3  4  1  0
  4  5  2  0
  5  6  1  0
  6  7  2  0
  7  8  1  0
  8  9  1  0
  9 10  2  0
 10 11  1  0
 11 12  2  0
 12 13  1  0
 13 14  2  0
 14 15  1  0
 14 16  1  0
 16 17  1  0
 16 18  2  0
  9 19  1  0
 19 20  1  0
 20 21  2  0
 21 22  1  0
 22 23  1  0
  5 24  1  0
 24 25  2  0
 25  2  1  0
 23  6  1  0
 22  8  2  0
 18 11  1  0
  3 26  1  0
  4 27  1  0
  7 28  1  0
 12 29  1  0
 13 30  1  0
 18 31  1  0
 19 32  1  0
 20 33  1  0
 24 34  1  0
 25 35  1  0
M  END
>  <smiles>  (38) 
Fc1ccc(-c2cc3c(=Nc4ccc(F)c(Cl)c4)[nH]cnc3s2)cc1

>  <score_type>  (38) 
oracle

>  <origin>  (38) 
adgpu

>  <m_score__min__energy>  (38) 
-8.6099999999999994

>  <m_primary>  (38) 
energy

$$$$
38:0
     RDKit          3D

 35 37  0  0  0  0  0  0  0  0999 V2000
   -5.7020   13.2630  -34.6030 C   0  0  0  0  0  0  0  0  0  0  0  0
   -5.5470   14.6910  -34.3550 N   0  0  0  0  0  0  0  0  0  0  0  0
   -6.5050   15.5180  -33.9000 C   0  0  0  0  0  0  0  0  0  0  0  0
   -5.9440   16.7710  -33.7250 C   0  0  0  0  0  0  0  0  0  0  0  0
   -6.6130   18.0060  -33.2380 C   0  0  0  0  0  0  0  0  0  0  0  0
   -6.3070   19.2570  -33.8020 C   0  0  0  0  0  0  0  0  0  0  0  0
   -6.9370   20.4170  -33.3420 C   0  0  0  0  0  0  0  0  0  0  0  0
   -7.8870   20.3520  -32.3120 C   0  0  0  0  0  0  0  0  0  0  0  0
   -8.5320   21.6210  -31.8130 C   0  0  0  0  0  0  0  0  0  0  0  0
   -7.5040   22.5920  -31.4020 N   0  0  0  0  0  0  0  0  0  0  0  0
   -6.7390   23.2010  -32.3570 C   0  0  0  0  0  0  0  0  0  0  0  0
   -5.7420   24.1030  -31.9980 C   0  0  0  0  0  0  0  0  0  0  0  0
   -5.5380   24.3670  -30.6470 C   0  0  0  0  0  0  0  0  0  0  0  0
   -4.6420   25.1790  -30.2930 O   0  0  0  0  0  0  0  0  0  0  0  0
   -6.3050   23.7480  -29.7130 N   0  0  0  0  0  0  0  0  0  0  0  0
   -7.2790   22.8670  -30.0750 C   0  0  0  0  0  0  0  0  0  0  0  0
   -7.9690   22.3080  -29.1780 O   0  0  0  0  0  0  0  0  0  0  0  0
   -8.1950   19.1050  -31.7440 C   0  0  0  0  0  0  0  0  0  0  0  0
   -9.1140   19.0030  -30.7490 F   0  0  0  0  0  0  0  0  0  0  0  0
   -7.5650   17.9450  -32.2050 C   0  0  0  0  0  0  0  0  0  0  0  0
   -4.6140   16.6130  -34.0920 C   0  0  0  0  0  0  0  0  0  0  0  0
   -4.3980   15.3370  -34.4640 N   0  0  0  0  0  0  0  0  0  0  0  0
   -5.7600   12.7284  -33.6434 H   0  0  0  0  0  0  0  0  0  0  0  0
   -6.6244   13.0884  -35.1764 H   0  0  0  0  0  0  0  0  0  0  0  0
   -4.8386   12.8946  -35.1764 H   0  0  0  0  0  0  0  0  0  0  0  0
   -7.5522   15.2459  -33.7015 H   0  0  0  0  0  0  0  0  0  0  0  0
   -5.5657   19.3235  -34.6120 H   0  0  0  0  0  0  0  0  0  0  0  0
   -6.6856   21.3890  -33.7915 H   0  0  0  0  0  0  0  0  0  0  0  0
   -9.1423   22.0578  -32.6171 H   0  0  0  0  0  0  0  0  0  0  0  0
   -9.1647   21.3824  -30.9454 H   0  0  0  0  0  0  0  0  0  0  0  0
   -6.9131   22.9760  -33.4196 H   0  0  0  0  0  0  0  0  0  0  0  0
   -5.1282   24.5968  -32.7658 H   0  0  0  0  0  0  0  0  0  0  0  0
   -6.1450   23.9500  -28.6990 H   0  0  0  0  0  0  0  0  0  0  0  0
   -7.8170   16.9737  -31.7544 H   0  0  0  0  0  0  0  0  0  0  0  0
   -3.8538   17.4080  -34.0806 H   0  0  0  0  0  0  0  0  0  0  0  0
  1  2  1  0
  2  3  1  0
  3  4  2  0
  4  5  1  0
  5  6  2  0
  6  7  1  0
  7  8  2  0
  8  9  1  0
  9 10  1  0
 10 11  1  0
 11 12  2  0
 12 13  1  0
 13 14  2  0
 13 15  1  0
 15 16  1  0
 16 17  2  0
  8 18  1  0
 18 19  1  0
 18 20  2  0
  4 21  1  0
 21 22  2  0
 22  2  1  0
 20  5  1  0
 16 10  1  0
  1 23  1  0
  1 24  1  0
  1 25  1  0
  3 26  1  0
  6 27  1  0
  7 28  1  0
  9 29  1  0
  9 30  1  0
 11 31  1  0
 12 32  1  0
 15 33  1  0
 20 34  1  0
 21 35  1  0
M  END
>  <UniqueID>  (39) 
36

>  <SMILES>  (39) 
Cn1cc(-c2ccc(Cn3ccc(=O)[nH]c3=O)c(F)c2)cn1

>  <Energy>  (39) 
70.906176815197

>  <Genealogy>  (39) 
Cn1cc(-c2ccc(Cn3ccc(=O)[nH]c3=O)c(F)c2)cn1 (3D coordinates assigned)
Cn1cc(-c2ccc(Cn3ccc(=O)[nH]c3=O)c(F)c2)cn1 (optimized conformer: 70.906176815197 kcal/mol)

>  <smiles>  (39) 
Cn1cc(-c2ccc(Cn3ccc(=O)[nH]c3=O)c(F)c2)cn1

>  <score_type>  (39) 
oracle

>  <origin>  (39) 
adgpu

>  <m_score__min__energy>  (39) 
-7.9100000000000001

>  <m_primary>  (39) 
energy

$$$$
39:0
     RDKit          3D

 28 30  0  0  0  0  0  0  0  0999 V2000
   -4.2320   25.6890  -30.7000 O   0  0  0  0  0  0  0  0  0  0  0  0
   -4.3440   24.4460  -30.5280 C   0  0  0  0  0  0  0  0  0  0  0  0
   -5.4460   23.7840  -31.0690 C   0  0  0  0  0  0  0  0  0  0  0  0
   -5.5810   22.3980  -30.8810 C   0  0  0  0  0  0  0  0  0  0  0  0
   -6.7340   21.6410  -31.4330 C   0  0  0  0  0  0  0  0  0  0  0  0
   -8.0440   22.0650  -31.1410 C   0  0  0  0  0  0  0  0  0  0  0  0
   -9.1460   21.3640  -31.6410 C   0  0  0  0  0  0  0  0  0  0  0  0
   -8.9540   20.2270  -32.4280 C   0  0  0  0  0  0  0  0  0  0  0  0
   -7.6610   19.7870  -32.7130 C   0  0  0  0  0  0  0  0  0  0  0  0
   -6.5540   20.4840  -32.2180 C   0  0  0  0  0  0  0  0  0  0  0  0
   -4.6620   21.7400  -30.1780 O   0  0  0  0  0  0  0  0  0  0  0  0
   -3.5940   22.3250  -29.6430 C   0  0  0  0  0  0  0  0  0  0  0  0
   -2.6780   21.5510  -28.9220 C   0  0  0  0  0  0  0  0  0  0  0  0
   -2.8910   20.2180  -28.7800 F   0  0  0  0  0  0  0  0  0  0  0  0
   -1.5460   22.1480  -28.3510 C   0  0  0  0  0  0  0  0  0  0  0  0
   -0.6230   21.3910  -27.6310 O   0  0  0  0  0  0  0  0  0  0  0  0
   -1.3330   23.5200  -28.5020 C   0  0  0  0  0  0  0  0  0  0  0  0
   -2.2390   24.3090  -29.2180 C   0  0  0  0  0  0  0  0  0  0  0  0
   -1.9860   25.6710  -29.3420 O   0  0  0  0  0  0  0  0  0  0  0  0
   -3.3850   23.7160  -29.7980 C   0  0  0  0  0  0  0  0  0  0  0  0
   -6.2035   24.3425  -31.6384 H   0  0  0  0  0  0  0  0  0  0  0  0
   -8.2023   22.9551  -30.5143 H   0  0  0  0  0  0  0  0  0  0  0  0
  -10.1655   21.7090  -31.4139 H   0  0  0  0  0  0  0  0  0  0  0  0
   -9.8216   19.6783  -32.8232 H   0  0  0  0  0  0  0  0  0  0  0  0
   -7.5116   18.8883  -33.3295 H   0  0  0  0  0  0  0  0  0  0  0  0
   -5.5378   20.1276  -32.4424 H   0  0  0  0  0  0  0  0  0  0  0  0
   -0.7300   20.3910  -27.5070 H   0  0  0  0  0  0  0  0  0  0  0  0
   -0.4430   23.9851  -28.0529 H   0  0  0  0  0  0  0  0  0  0  0  0
  1  2  2  0
  2  3  1  0
  3  4  2  0
  4  5  1  0
  5  6  2  0
  6  7  1  0
  7  8  2  0
  8  9  1  0
  9 10  2  0
  4 11  1  0
 11 12  1  0
 12 13  2  0
 13 14  1  0
 13 15  1  0
 15 16  1  0
 15 17  2  0
 17 18  1  0
 18 19  1  0
 18 20  2  0
 20  2  1  0
 10  5  1  0
 20 12  1  0
  3 21  1  0
  6 22  1  0
  7 23  1  0
  8 24  1  0
  9 25  1  0
 10 26  1  0
 16 27  1  0
 17 28  1  0
M  CHG  1  19  -1
M  END
>  <UniqueID>  (40) 
37

>  <SMILES>  (40) 
O=c1cc(-c2ccccc2)oc2c(F)c(O)cc([O-])c12

>  <Energy>  (40) 
41.57211624385757

>  <Genealogy>  (40) 
O=c1cc(-c2ccccc2)oc2c(F)c(O)cc([O-])c12 (protonated)
O=c1cc(-c2ccccc2)oc2c(F)c(O)cc([O-])c12 (3D coordinates assigned)
O=c1cc(-c2ccccc2)oc2c(F)c(O)cc([O-])c12 (optimized conformer: 41.57211624385757 kcal/mol)

>  <smiles>  (40) 
O=c1cc(-c2ccccc2)oc2c(F)c(O)cc(O)c12

>  <score_type>  (40) 
oracle

>  <origin>  (40) 
adgpu

>  <m_score__min__energy>  (40) 
-10.15

>  <m_primary>  (40) 
energy

$$$$
40:0
     RDKit          3D

 28 29  0  0  0  0  0  0  0  0999 V2000
   -1.6041   21.9060  -26.3162 H   0  0  0  0  0  0  0  0  0  0  0  0
   -2.0860   22.4280  -27.1560 C   0  0  0  0  0  0  0  0  0  0  0  0
   -3.1260   21.8150  -27.8500 C   0  0  0  0  0  0  0  0  0  0  0  0
   -3.4662   20.8111  -27.5560 H   0  0  0  0  0  0  0  0  0  0  0  0
   -3.7370   22.4730  -28.9180 C   0  0  0  0  0  0  0  0  0  0  0  0
   -4.5591   21.9817  -29.4591 H   0  0  0  0  0  0  0  0  0  0  0  0
   -3.3150   23.7590  -29.3130 C   0  0  0  0  0  0  0  0  0  0  0  0
   -3.9900   24.4180  -30.4650 C   0  0  0  0  0  0  0  0  0  0  0  0
   -4.1210   25.6740  -30.4660 O   0  0  0  0  0  0  0  0  0  0  0  0
   -4.5040   23.6330  -31.5540 N   0  0  0  0  0  0  0  0  0  0  0  0
   -5.6510   23.0210  -31.6270 C   0  0  0  0  0  0  0  0  0  0  0  0
   -6.8640   22.9950  -30.4480 S   0  0  0  0  0  0  0  0  0  0  0  0
   -7.8310   22.0210  -31.4300 C   0  0  0  0  0  0  0  0  0  0  0  0
   -9.2150   21.5820  -31.0940 C   0  0  0  0  0  0  0  0  0  0  0  0
   -9.3326   21.5447  -30.0009 H   0  0  0  0  0  0  0  0  0  0  0  0
   -9.9385   22.2948  -31.5165 H   0  0  0  0  0  0  0  0  0  0  0  0
   -9.3954   20.5825  -31.5165 H   0  0  0  0  0  0  0  0  0  0  0  0
   -7.2320   21.7650  -32.6140 N   0  0  0  0  0  0  0  0  0  0  0  0
   -6.0220   22.3130  -32.7150 N   0  0  0  0  0  0  0  0  0  0  0  0
   -5.4290   22.2020  -33.5680 H   0  0  0  0  0  0  0  0  0  0  0  0
   -2.2610   24.3850  -28.5980 C   0  0  0  0  0  0  0  0  0  0  0  0
   -1.8470   25.6780  -28.9600 O   0  0  0  0  0  0  0  0  0  0  0  0
   -0.9070   26.4650  -28.2360 C   0  0  0  0  0  0  0  0  0  0  0  0
   -1.0693   26.3291  -27.1566 H   0  0  0  0  0  0  0  0  0  0  0  0
    0.1138   26.1483  -28.4960 H   0  0  0  0  0  0  0  0  0  0  0  0
   -1.0393   27.5256  -28.4960 H   0  0  0  0  0  0  0  0  0  0  0  0
   -1.6540   23.7020  -27.5230 C   0  0  0  0  0  0  0  0  0  0  0  0
   -0.8321   24.1791  -26.9691 H   0  0  0  0  0  0  0  0  0  0  0  0
  1  2  1  0
  2  3  2  0
  3  4  1  0
  3  5  1  0
  5  6  1  0
  5  7  2  0
  7  8  1  0
  8  9  2  0
  8 10  1  0
 10 11  2  0
 11 12  1  0
 12 13  1  0
 13 14  1  0
 14 15  1  0
 14 16  1  0
 14 17  1  0
 13 18  2  0
 18 19  1  0
 19 20  1  0
  7 21  1  0
 21 22  1  0
 22 23  1  0
 23 24  1  0
 23 25  1  0
 23 26  1  0
 21 27  2  0
 27 28  1  0
 27  2  1  0
 19 11  1  0
M  END
>  <UniqueID>  (41) 
38

>  <SMILES>  (41) 
COc1ccccc1C(=O)/N=c1/[nH]nc(C)s1

>  <Energy>  (41) 
66.46478198142918

>  <Genealogy>  (41) 
COc1ccccc1C(=O)/N=c1/[nH]nc(C)s1 (cis-trans isomerization)
COc1ccccc1C(=O)/N=c1/[nH]nc(C)s1 (3D coordinates assigned)
COc1ccccc1C(=O)/N=c1/[nH]nc(C)s1 (optimized conformer: 66.46478198142918 kcal/mol)

>  <smiles>  (41) 
COc1ccccc1C(=O)N=c1[nH]nc(C)s1

>  <score_type>  (41) 
oracle

>  <origin>  (41) 
adgpu

>  <m_score__min__energy>  (41) 
-7.25

>  <m_primary>  (41) 
energy

$$$$
41:0
     RDKit          3D

 35 37  0  0  1  0  0  0  0  0999 V2000
   -8.4230   18.9060  -32.1280 Cl  0  0  0  0  0  0  0  0  0  0  0  0
   -7.9200   20.5870  -32.0370 C   0  0  0  0  0  0  0  0  0  0  0  0
   -8.9060   21.5460  -31.9580 C   0  0  0  0  0  0  0  0  0  0  0  0
   -8.5590   22.8570  -31.8860 C   0  0  0  0  0  0  0  0  0  0  0  0
   -7.2180   23.2260  -31.8930 C   0  0  0  0  0  0  0  0  0  0  0  0
   -6.2130   22.2720  -31.9720 C   0  0  0  0  0  0  0  0  0  0  0  0
   -4.7620   22.6770  -31.9780 C   0  0  0  0  0  0  0  0  0  0  0  0
   -4.6640   23.7990  -31.0570 N   0  0  0  0  0  0  0  0  0  0  0  0
   -4.0860   23.5710  -29.9240 C   0  0  0  0  0  0  0  0  0  0  0  0
   -3.5780   22.3300  -29.5800 C   0  0  0  0  0  0  0  0  0  0  0  0
   -2.9780   22.1730  -28.3510 C   0  0  0  0  0  0  0  0  0  0  0  0
   -2.4100   20.9110  -27.8890 C   0  0  0  0  0  0  0  0  0  0  0  0
   -1.1170   20.6130  -28.2680 C   0  0  0  0  0  0  0  0  0  0  0  0
   -0.4860   19.4290  -27.8740 C   0  0  0  0  0  0  0  0  0  0  0  0
   -1.1860   18.5290  -27.0780 C   0  0  0  0  0  0  0  0  0  0  0  0
   -2.4790   18.8490  -26.7110 C   0  0  0  0  0  0  0  0  0  0  0  0
   -3.0970   20.0140  -27.0990 C   0  0  0  0  0  0  0  0  0  0  0  0
   -2.9040   23.2300  -27.5230 N   0  0  0  0  0  0  0  0  0  0  0  0
   -3.4020   24.4570  -27.8550 C   0  0  0  0  0  0  0  0  0  0  0  0
   -3.9880   24.6050  -29.0580 N   0  0  0  0  0  0  0  0  0  0  0  0
   -6.5660   20.9240  -32.0460 C   0  0  0  0  0  0  0  0  0  0  0  0
   -9.9660   21.2521  -31.9533 H   0  0  0  0  0  0  0  0  0  0  0  0
   -9.3402   23.6288  -31.8220 H   0  0  0  0  0  0  0  0  0  0  0  0
   -6.9496   24.2912  -31.8350 H   0  0  0  0  0  0  0  0  0  0  0  0
   -4.1297   21.8441  -31.6368 H   0  0  0  0  0  0  0  0  0  0  0  0
   -4.4199   22.9486  -32.9875 H   0  0  0  0  0  0  0  0  0  0  0  0
   -3.6526   21.4828  -30.2776 H   0  0  0  0  0  0  0  0  0  0  0  0
   -0.5669   21.3274  -28.8981 H   0  0  0  0  0  0  0  0  0  0  0  0
    0.5459   19.2133  -28.1882 H   0  0  0  0  0  0  0  0  0  0  0  0
   -0.7225   17.5871  -26.7492 H   0  0  0  0  0  0  0  0  0  0  0  0
   -3.0379   18.1411  -26.0813 H   0  0  0  0  0  0  0  0  0  0  0  0
   -4.1285   20.2282  -26.7826 H   0  0  0  0  0  0  0  0  0  0  0  0
   -3.3263   25.3037  -27.1569 H   0  0  0  0  0  0  0  0  0  0  0  0
   -4.3770   25.5610  -29.3160 H   0  0  0  0  0  0  0  0  0  0  0  0
   -5.7933   20.1437  -32.1101 H   0  0  0  0  0  0  0  0  0  0  0  0
  1  2  1  0
  2  3  2  0
  3  4  1  0
  4  5  2  0
  5  6  1  0
  6  7  1  0
  7  8  1  0
  8  9  2  0
  9 10  1  0
 10 11  2  0
 11 12  1  0
 12 13  2  0
 13 14  1  0
 14 15  2  0
 15 16  1  0
 16 17  2  0
 11 18  1  0
 18 19  2  0
 19 20  1  0
  6 21  2  0
 21  2  1  0
 20  9  1  0
 17 12  1  0
  3 22  1  0
  4 23  1  0
  5 24  1  0
  7 25  1  0
  7 26  1  0
 10 27  1  0
 13 28  1  0
 14 29  1  0
 15 30  1  0
 16 31  1  0
 17 32  1  0
 19 33  1  0
 20 34  1  0
 21 35  1  0
M  END
>  <smiles>  (42) 
Clc1cccc(CN=c2cc(-c3ccccc3)nc[nH]2)c1

>  <score_type>  (42) 
oracle

>  <origin>  (42) 
adgpu

>  <m_score__min__energy>  (42) 
-8.5500000000000007

>  <m_primary>  (42) 
energy

$$$$
42:0
     RDKit          3D

 44 47  0  0  0  0  0  0  0  0999 V2000
   -7.2500   21.7310  -32.1270 O   0  0  0  0  0  0  0  0  0  0  0  0
   -5.9930   21.7490  -32.0350 C   0  0  0  0  0  0  0  0  0  0  0  0
   -5.2090   20.7170  -32.6570 N   0  0  0  0  0  0  0  0  0  0  0  0
   -5.7430   19.4500  -33.0780 C   0  0  0  0  0  0  0  0  0  0  0  0
   -6.6240   18.7180  -32.2620 C   0  0  0  0  0  0  0  0  0  0  0  0
   -7.1090   17.4760  -32.6820 C   0  0  0  0  0  0  0  0  0  0  0  0
   -6.7060   16.9340  -33.9080 C   0  0  0  0  0  0  0  0  0  0  0  0
   -7.2270   15.6920  -34.2990 O   0  0  0  0  0  0  0  0  0  0  0  0
   -6.5540   14.4640  -34.2120 C   0  0  0  0  0  0  0  0  0  0  0  0
   -5.2950   14.4280  -33.5990 C   0  0  0  0  0  0  0  0  0  0  0  0
   -4.5910   13.2240  -33.5020 C   0  0  0  0  0  0  0  0  0  0  0  0
   -5.1350   12.0500  -34.0290 C   0  0  0  0  0  0  0  0  0  0  0  0
   -6.3780   12.0820  -34.6660 C   0  0  0  0  0  0  0  0  0  0  0  0
   -7.0860   13.2830  -34.7640 C   0  0  0  0  0  0  0  0  0  0  0  0
   -5.8270   17.6640  -34.7260 C   0  0  0  0  0  0  0  0  0  0  0  0
   -5.3410   18.9060  -34.3060 C   0  0  0  0  0  0  0  0  0  0  0  0
   -5.3410   22.8580  -31.3190 C   0  0  0  0  0  0  0  0  0  0  0  0
   -5.4540   24.2050  -31.5990 C   0  0  0  0  0  0  0  0  0  0  0  0
   -4.7340   24.9050  -30.7010 N   0  0  0  0  0  0  0  0  0  0  0  0
   -4.1690   24.0450  -29.8650 N   0  0  0  0  0  0  0  0  0  0  0  0
   -3.3360   24.4430  -28.7560 C   0  0  0  0  0  0  0  0  0  0  0  0
   -3.8870   24.5500  -27.4660 C   0  0  0  0  0  0  0  0  0  0  0  0
   -3.0910   24.9320  -26.3810 C   0  0  0  0  0  0  0  0  0  0  0  0
   -1.7360   25.2160  -26.5740 C   0  0  0  0  0  0  0  0  0  0  0  0
   -0.9650   25.5850  -25.5210 F   0  0  0  0  0  0  0  0  0  0  0  0
   -1.1790   25.1260  -27.8510 C   0  0  0  0  0  0  0  0  0  0  0  0
   -1.9710   24.7430  -28.9380 C   0  0  0  0  0  0  0  0  0  0  0  0
   -4.5220   22.7870  -30.2090 C   0  0  0  0  0  0  0  0  0  0  0  0
   -4.2180   20.9330  -32.9070 H   0  0  0  0  0  0  0  0  0  0  0  0
   -6.9331   19.1250  -31.2879 H   0  0  0  0  0  0  0  0  0  0  0  0
   -7.8125   16.9206  -32.0444 H   0  0  0  0  0  0  0  0  0  0  0  0
   -4.8580   15.3517  -33.1919 H   0  0  0  0  0  0  0  0  0  0  0  0
   -3.6074   13.2010  -33.0101 H   0  0  0  0  0  0  0  0  0  0  0  0
   -4.5851   11.1013  -33.9425 H   0  0  0  0  0  0  0  0  0  0  0  0
   -6.8004   11.1597  -35.0914 H   0  0  0  0  0  0  0  0  0  0  0  0
   -8.0607   13.3057  -35.2733 H   0  0  0  0  0  0  0  0  0  0  0  0
   -5.5200   17.2567  -35.7006 H   0  0  0  0  0  0  0  0  0  0  0  0
   -4.6375   19.4607  -34.9443 H   0  0  0  0  0  0  0  0  0  0  0  0
   -6.0388   24.6379  -32.4240 H   0  0  0  0  0  0  0  0  0  0  0  0
   -4.9536   24.3313  -27.3091 H   0  0  0  0  0  0  0  0  0  0  0  0
   -3.5313   25.0089  -25.3759 H   0  0  0  0  0  0  0  0  0  0  0  0
   -0.1143   25.3570  -28.0025 H   0  0  0  0  0  0  0  0  0  0  0  0
   -1.5258   24.6754  -29.9416 H   0  0  0  0  0  0  0  0  0  0  0  0
   -4.2111   21.8659  -29.6943 H   0  0  0  0  0  0  0  0  0  0  0  0
  1  2  2  0
  2  3  1  0
  3  4  1  0
  4  5  2  0
  5  6  1  0
  6  7  2  0
  7  8  1  0
  8  9  1  0
  9 10  2  0
 10 11  1  0
 11 12  2  0
 12 13  1  0
 13 14  2  0
  7 15  1  0
 15 16  2  0
  2 17  1  0
 17 18  1  0
 18 19  2  0
 19 20  1  0
 20 21  1  0
 21 22  2  0
 22 23  1  0
 23 24  2  0
 24 25  1  0
 24 26  1  0
 26 27  2  0
 20 28  1  0
 16  4  1  0
 28 17  2  0
 14  9  1  0
 27 21  1  0
  3 29  1  0
  5 30  1  0
  6 31  1  0
 10 32  1  0
 11 33  1  0
 12 34  1  0
 13 35  1  0
 14 36  1  0
 15 37  1  0
 16 38  1  0
 18 39  1  0
 22 40  1  0
 23 41  1  0
 26 42  1  0
 27 43  1  0
 28 44  1  0
M  END
>  <UniqueID>  (43) 
39

>  <SMILES>  (43) 
O=C(Nc1ccc(Oc2ccccc2)cc1)c1cnn(-c2ccc(F)cc2)c1

>  <Energy>  (43) 
91.43165870199934

>  <Genealogy>  (43) 
O=C(Nc1ccc(Oc2ccccc2)cc1)c1cnn(-c2ccc(F)cc2)c1 (3D coordinates assigned)
O=C(Nc1ccc(Oc2ccccc2)cc1)c1cnn(-c2ccc(F)cc2)c1 (optimized conformer: 91.43165870199934 kcal/mol)

>  <smiles>  (43) 
O=C(Nc1ccc(Oc2ccccc2)cc1)c1cnn(-c2ccc(F)cc2)c1

>  <score_type>  (43) 
oracle

>  <origin>  (43) 
adgpu

>  <m_score__min__energy>  (43) 
-8.6799999999999997

>  <m_primary>  (43) 
energy

$$$$
43:0
     RDKit          3D

 54 57  0  0  0  0  0  0  0  0999 V2000
   -1.5690   26.3090  -24.8760 C   0  0  0  0  0  0  0  0  0  0  0  0
   -2.7490   25.7160  -25.4100 O   0  0  0  0  0  0  0  0  0  0  0  0
   -2.7780   24.9000  -26.5510 C   0  0  0  0  0  0  0  0  0  0  0  0
   -1.5740   24.6380  -27.2130 C   0  0  0  0  0  0  0  0  0  0  0  0
   -1.5510   23.8330  -28.3550 C   0  0  0  0  0  0  0  0  0  0  0  0
   -2.7380   23.2710  -28.8570 C   0  0  0  0  0  0  0  0  0  0  0  0
   -2.7150   22.4140  -30.0700 C   0  0  0  0  0  0  0  0  0  0  0  0
   -1.9110   21.2640  -30.1150 C   0  0  0  0  0  0  0  0  0  0  0  0
   -1.8890   20.4580  -31.2540 C   0  0  0  0  0  0  0  0  0  0  0  0
   -2.6820   20.7790  -32.3700 C   0  0  0  0  0  0  0  0  0  0  0  0
   -2.6590   19.9900  -33.5310 O   0  0  0  0  0  0  0  0  0  0  0  0
   -3.0500   18.6450  -33.6130 C   0  0  0  0  0  0  0  0  0  0  0  0
   -2.0970   17.6100  -33.6170 C   0  0  0  0  0  0  0  0  0  0  0  0
   -2.5010   16.2750  -33.6710 C   0  0  0  0  0  0  0  0  0  0  0  0
   -3.8590   15.9590  -33.7110 C   0  0  0  0  0  0  0  0  0  0  0  0
   -4.8170   16.9750  -33.6910 C   0  0  0  0  0  0  0  0  0  0  0  0
   -4.4250   18.3270  -33.6310 C   0  0  0  0  0  0  0  0  0  0  0  0
   -5.4030   19.3880  -33.6050 N   0  0  0  0  0  0  0  0  0  0  0  0
   -6.8420   19.1770  -33.4430 C   0  0  0  0  0  0  0  0  0  0  0  0
   -7.4300   20.2160  -32.5250 C   0  0  0  0  0  0  0  0  0  0  0  0
   -8.8220   20.3280  -32.3680 C   0  0  0  0  0  0  0  0  0  0  0  0
   -9.3580   21.2920  -31.5090 C   0  0  0  0  0  0  0  0  0  0  0  0
   -8.5110   22.1540  -30.8050 C   0  0  0  0  0  0  0  0  0  0  0  0
   -7.1260   22.0540  -30.9620 C   0  0  0  0  0  0  0  0  0  0  0  0
   -6.5860   21.0910  -31.8200 C   0  0  0  0  0  0  0  0  0  0  0  0
   -3.4760   21.9390  -32.3410 C   0  0  0  0  0  0  0  0  0  0  0  0
   -4.2790   22.3000  -33.4710 N   0  0  0  0  0  0  0  0  0  0  0  0
   -3.4930   22.7450  -31.1930 C   0  0  0  0  0  0  0  0  0  0  0  0
   -3.9480   23.5330  -28.1890 C   0  0  0  0  0  0  0  0  0  0  0  0
   -3.9700   24.3400  -27.0480 C   0  0  0  0  0  0  0  0  0  0  0  0
   -1.6126   26.2871  -23.7771 H   0  0  0  0  0  0  0  0  0  0  0  0
   -0.6883   25.7464  -25.2193 H   0  0  0  0  0  0  0  0  0  0  0  0
   -1.4949   27.3514  -25.2193 H   0  0  0  0  0  0  0  0  0  0  0  0
   -0.6369   25.0695  -26.8313 H   0  0  0  0  0  0  0  0  0  0  0  0
   -0.5964   23.6374  -28.8654 H   0  0  0  0  0  0  0  0  0  0  0  0
   -1.2932   20.9960  -29.2452 H   0  0  0  0  0  0  0  0  0  0  0  0
   -1.2468   19.5653  -31.2790 H   0  0  0  0  0  0  0  0  0  0  0  0
   -1.0253   17.8547  -33.5773 H   0  0  0  0  0  0  0  0  0  0  0  0
   -1.7488   15.4725  -33.6820 H   0  0  0  0  0  0  0  0  0  0  0  0
   -4.1762   14.9068  -33.7584 H   0  0  0  0  0  0  0  0  0  0  0  0
   -5.8860   16.7177  -33.7223 H   0  0  0  0  0  0  0  0  0  0  0  0
   -5.0750   20.3800  -33.6350 H   0  0  0  0  0  0  0  0  0  0  0  0
   -7.3304   19.2454  -34.4263 H   0  0  0  0  0  0  0  0  0  0  0  0
   -7.0074   18.1819  -33.0044 H   0  0  0  0  0  0  0  0  0  0  0  0
   -9.4921   19.6549  -32.9229 H   0  0  0  0  0  0  0  0  0  0  0  0
  -10.4482   21.3727  -31.3866 H   0  0  0  0  0  0  0  0  0  0  0  0
   -8.9348   22.9103  -30.1280 H   0  0  0  0  0  0  0  0  0  0  0  0
   -6.4600   22.7335  -30.4101 H   0  0  0  0  0  0  0  0  0  0  0  0
   -5.4954   21.0180  -31.9437 H   0  0  0  0  0  0  0  0  0  0  0  0
   -4.9180   23.1250  -33.4450 H   0  0  0  0  0  0  0  0  0  0  0  0
   -4.2400   21.7390  -34.3520 H   0  0  0  0  0  0  0  0  0  0  0  0
   -4.1226   23.6467  -31.1713 H   0  0  0  0  0  0  0  0  0  0  0  0
   -4.8850   23.0990  -28.5679 H   0  0  0  0  0  0  0  0  0  0  0  0
   -4.9232   24.5384  -26.5361 H   0  0  0  0  0  0  0  0  0  0  0  0
  1  2  1  0
  2  3  1  0
  3  4  2  0
  4  5  1  0
  5  6  2  0
  6  7  1  0
  7  8  2  0
  8  9  1  0
  9 10  2  0
 10 11  1  0
 11 12  1  0
 12 13  2  0
 13 14  1  0
 14 15  2  0
 15 16  1  0
 16 17  2  0
 17 18  1  0
 18 19  1  0
 19 20  1  0
 20 21  2  0
 21 22  1  0
 22 23  2  0
 23 24  1  0
 24 25  2  0
 10 26  1  0
 26 27  1  0
 26 28  2  0
  6 29  1  0
 29 30  2  0
 30  3  1  0
 28  7  1  0
 17 12  1  0
 25 20  1  0
  1 31  1  0
  1 32  1  0
  1 33  1  0
  4 34  1  0
  5 35  1  0
  8 36  1  0
  9 37  1  0
 13 38  1  0
 14 39  1  0
 15 40  1  0
 16 41  1  0
 18 42  1  0
 19 43  1  0
 19 44  1  0
 21 45  1  0
 22 46  1  0
 23 47  1  0
 24 48  1  0
 25 49  1  0
 27 50  1  0
 27 51  1  0
 28 52  1  0
 29 53  1  0
 30 54  1  0
M  END
>  <UniqueID>  (44) 
40

>  <SMILES>  (44) 
COc1ccc(-c2ccc(Oc3ccccc3NCc3ccccc3)c(N)c2)cc1

>  <Energy>  (44) 
69.10370758956383

>  <Genealogy>  (44) 
COc1ccc(-c2ccc(Oc3ccccc3NCc3ccccc3)c(N)c2)cc1 (3D coordinates assigned)
COc1ccc(-c2ccc(Oc3ccccc3NCc3ccccc3)c(N)c2)cc1 (optimized conformer: 69.10370758956383 kcal/mol)

>  <smiles>  (44) 
COc1ccc(-c2ccc(Oc3ccccc3NCc3ccccc3)c(N)c2)cc1

>  <score_type>  (44) 
oracle

>  <origin>  (44) 
adgpu

>  <m_score__min__energy>  (44) 
-8.6500000000000004

>  <m_primary>  (44) 
energy

$$$$
44:0
     RDKit          3D

 45 48  0  0  0  0  0  0  0  0999 V2000
   -5.0890   23.5950  -28.9510 O   0  0  0  0  0  0  0  0  0  0  0  0
   -4.8230   24.4410  -29.8470 C   0  0  0  0  0  0  0  0  0  0  0  0
   -5.9050   24.9110  -30.7620 C   0  0  0  0  0  0  0  0  0  0  0  0
   -6.9990   23.5270  -31.2280 S   0  0  0  0  0  0  0  0  0  0  0  0
   -5.6950   22.5250  -31.9510 C   0  0  0  0  0  0  0  0  0  0  0  0
   -4.5590   23.0450  -32.4490 N   0  0  0  0  0  0  0  0  0  0  0  0
   -3.9010   22.0520  -33.0250 N   0  0  0  0  0  0  0  0  0  0  0  0
   -4.6470   20.9380  -32.8740 C   0  0  0  0  0  0  0  0  0  0  0  0
   -4.2790   19.6340  -33.4720 C   0  0  0  0  0  0  0  0  0  0  0  0
   -5.2010   18.9570  -34.2880 C   0  0  0  0  0  0  0  0  0  0  0  0
   -4.8680   17.7260  -34.8600 C   0  0  0  0  0  0  0  0  0  0  0  0
   -3.6090   17.1640  -34.6330 C   0  0  0  0  0  0  0  0  0  0  0  0
   -3.1920   15.6200  -35.3530 Cl  0  0  0  0  0  0  0  0  0  0  0  0
   -2.6770   17.8400  -33.8390 C   0  0  0  0  0  0  0  0  0  0  0  0
   -3.0080   19.0720  -33.2650 C   0  0  0  0  0  0  0  0  0  0  0  0
   -5.7810   21.2010  -32.1870 N   0  0  0  0  0  0  0  0  0  0  0  0
   -6.9590   20.3910  -32.0880 C   0  0  0  0  0  0  0  0  0  0  0  0
   -8.2160   20.9260  -32.4040 C   0  0  0  0  0  0  0  0  0  0  0  0
   -9.3620   20.1330  -32.3010 C   0  0  0  0  0  0  0  0  0  0  0  0
   -9.2600   18.8040  -31.8820 C   0  0  0  0  0  0  0  0  0  0  0  0
   -8.0090   18.2670  -31.5600 C   0  0  0  0  0  0  0  0  0  0  0  0
   -6.8610   19.0590  -31.6590 C   0  0  0  0  0  0  0  0  0  0  0  0
   -3.5170   25.0230  -29.9500 N   0  0  0  0  0  0  0  0  0  0  0  0
   -2.3110   24.5420  -29.3410 C   0  0  0  0  0  0  0  0  0  0  0  0
   -1.7680   23.2790  -29.6430 C   0  0  0  0  0  0  0  0  0  0  0  0
   -0.5870   22.8550  -29.0250 C   0  0  0  0  0  0  0  0  0  0  0  0
    0.0660   23.6880  -28.1130 C   0  0  0  0  0  0  0  0  0  0  0  0
    1.2100   23.2740  -27.5150 F   0  0  0  0  0  0  0  0  0  0  0  0
   -0.4540   24.9530  -27.8270 C   0  0  0  0  0  0  0  0  0  0  0  0
   -1.6320   25.3820  -28.4460 C   0  0  0  0  0  0  0  0  0  0  0  0
   -6.4981   25.6849  -30.2528 H   0  0  0  0  0  0  0  0  0  0  0  0
   -5.4452   25.3216  -31.6731 H   0  0  0  0  0  0  0  0  0  0  0  0
   -6.1905   19.3984  -34.4777 H   0  0  0  0  0  0  0  0  0  0  0  0
   -5.5988   17.1983  -35.4904 H   0  0  0  0  0  0  0  0  0  0  0  0
   -1.6827   17.4025  -33.6657 H   0  0  0  0  0  0  0  0  0  0  0  0
   -2.2689   19.6039  -32.6479 H   0  0  0  0  0  0  0  0  0  0  0  0
   -8.3002   21.9721  -32.7336 H   0  0  0  0  0  0  0  0  0  0  0  0
  -10.3464   20.5559  -32.5503 H   0  0  0  0  0  0  0  0  0  0  0  0
  -10.1628   18.1803  -31.8054 H   0  0  0  0  0  0  0  0  0  0  0  0
   -7.9285   17.2212  -31.2288 H   0  0  0  0  0  0  0  0  0  0  0  0
   -5.8789   18.6367  -31.3999 H   0  0  0  0  0  0  0  0  0  0  0  0
   -2.2739   22.6235  -30.3671 H   0  0  0  0  0  0  0  0  0  0  0  0
   -0.1714   21.8634  -29.2576 H   0  0  0  0  0  0  0  0  0  0  0  0
    0.0638   25.6118  -27.1144 H   0  0  0  0  0  0  0  0  0  0  0  0
   -2.0289   26.3848  -28.2297 H   0  0  0  0  0  0  0  0  0  0  0  0
  1  2  2  0
  2  3  1  0
  3  4  1  0
  4  5  1  0
  5  6  2  0
  6  7  1  0
  7  8  2  0
  8  9  1  0
  9 10  2  0
 10 11  1  0
 11 12  2  0
 12 13  1  0
 12 14  1  0
 14 15  2  0
  8 16  1  0
 16 17  1  0
 17 18  2  0
 18 19  1  0
 19 20  2  0
 20 21  1  0
 21 22  2  0
  2 23  1  0
 23 24  1  0
 24 25  2  0
 25 26  1  0
 26 27  2  0
 27 28  1  0
 27 29  1  0
 29 30  2  0
 16  5  1  0
 22 17  1  0
 30 24  1  0
 15  9  1  0
  3 31  1  0
  3 32  1  0
 10 33  1  0
 11 34  1  0
 14 35  1  0
 15 36  1  0
 18 37  1  0
 19 38  1  0
 20 39  1  0
 21 40  1  0
 22 41  1  0
 25 42  1  0
 26 43  1  0
 29 44  1  0
 30 45  1  0
M  CHG  1  23  -1
M  END
>  <UniqueID>  (45) 
41

>  <SMILES>  (45) 
O=C(CSc1nnc(-c2ccc(Cl)cc2)n1-c1ccccc1)[N-]c1ccc(F)cc1

>  <Energy>  (45) 
92.4279215183919

>  <Genealogy>  (45) 
O=C(CSc1nnc(-c2ccc(Cl)cc2)n1-c1ccccc1)[N-]c1ccc(F)cc1 (protonated)
O=C(CSc1nnc(-c2ccc(Cl)cc2)n1-c1ccccc1)[N-]c1ccc(F)cc1 (3D coordinates assigned)
O=C(CSc1nnc(-c2ccc(Cl)cc2)n1-c1ccccc1)[N-]c1ccc(F)cc1 (optimized conformer: 92.4279215183919 kcal/mol)

>  <smiles>  (45) 
O=C(CSc1nnc(-c2ccc(Cl)cc2)n1-c1ccccc1)Nc1ccc(F)cc1

>  <score_type>  (45) 
oracle

>  <origin>  (45) 
adgpu

>  <m_score__min__energy>  (45) 
-11.550000000000001

>  <m_primary>  (45) 
energy

$$$$
45:0
     RDKit          3D

 41 43  0  0  0  0  0  0  0  0999 V2000
   -3.3750   22.2060  -31.6960 O   0  0  0  0  0  0  0  0  0  0  0  0
   -4.2420   23.0390  -31.3110 C   0  0  0  0  0  0  0  0  0  0  0  0
   -3.8320   24.2930  -30.7460 N   0  0  0  0  0  0  0  0  0  0  0  0
   -3.4400   24.5330  -29.3860 C   0  0  0  0  0  0  0  0  0  0  0  0
   -2.1240   24.8910  -29.0400 C   0  0  0  0  0  0  0  0  0  0  0  0
   -1.7790   25.0910  -27.6990 C   0  0  0  0  0  0  0  0  0  0  0  0
   -2.7380   24.9240  -26.6960 C   0  0  0  0  0  0  0  0  0  0  0  0
   -2.4010   25.1180  -25.3970 F   0  0  0  0  0  0  0  0  0  0  0  0
   -4.0400   24.5450  -27.0320 C   0  0  0  0  0  0  0  0  0  0  0  0
   -4.3870   24.3440  -28.3710 C   0  0  0  0  0  0  0  0  0  0  0  0
   -5.6810   22.7430  -31.4940 C   0  0  0  0  0  0  0  0  0  0  0  0
   -6.6350   23.7760  -31.4360 C   0  0  0  0  0  0  0  0  0  0  0  0
   -7.9940   23.4950  -31.6000 C   0  0  0  0  0  0  0  0  0  0  0  0
   -8.4180   22.1840  -31.8280 C   0  0  0  0  0  0  0  0  0  0  0  0
   -7.4820   21.1450  -31.8980 C   0  0  0  0  0  0  0  0  0  0  0  0
   -8.0260   19.4900  -32.1600 S   0  0  0  0  0  0  0  0  0  0  0  0
   -8.4560   18.9040  -30.8440 O   0  0  0  0  0  0  0  0  0  0  0  0
   -9.2060   19.4840  -33.0930 O   0  0  0  0  0  0  0  0  0  0  0  0
   -6.7220   18.5390  -32.8260 N   0  0  0  0  0  0  0  0  0  0  0  0
   -6.2410   19.1480  -34.0790 C   0  0  0  0  0  0  0  0  0  0  0  0
   -5.3150   18.1810  -34.8440 C   0  0  0  0  0  0  0  0  0  0  0  0
   -4.9100   17.1090  -34.0160 O   0  0  0  0  0  0  0  0  0  0  0  0
   -6.0350   16.3210  -33.6670 C   0  0  0  0  0  0  0  0  0  0  0  0
   -7.1820   17.1640  -33.0720 C   0  0  0  0  0  0  0  0  0  0  0  0
   -6.1190   21.4250  -31.7260 C   0  0  0  0  0  0  0  0  0  0  0  0
   -1.3644   25.0140  -29.8260 H   0  0  0  0  0  0  0  0  0  0  0  0
   -0.7514   25.3801  -27.4336 H   0  0  0  0  0  0  0  0  0  0  0  0
   -4.7927   24.4047  -26.2422 H   0  0  0  0  0  0  0  0  0  0  0  0
   -5.4106   24.0353  -28.6296 H   0  0  0  0  0  0  0  0  0  0  0  0
   -6.3087   24.8117  -31.2604 H   0  0  0  0  0  0  0  0  0  0  0  0
   -8.7322   24.3090  -31.5494 H   0  0  0  0  0  0  0  0  0  0  0  0
   -9.4892   21.9673  -31.9528 H   0  0  0  0  0  0  0  0  0  0  0  0
   -7.1049   19.3959  -34.7132 H   0  0  0  0  0  0  0  0  0  0  0  0
   -5.6715   20.0559  -33.8311 H   0  0  0  0  0  0  0  0  0  0  0  0
   -5.8539   17.7796  -35.7149 H   0  0  0  0  0  0  0  0  0  0  0  0
   -4.4201   18.7331  -35.1669 H   0  0  0  0  0  0  0  0  0  0  0  0
   -6.4028   15.8111  -34.5696 H   0  0  0  0  0  0  0  0  0  0  0  0
   -5.7150   15.6010  -32.8994 H   0  0  0  0  0  0  0  0  0  0  0  0
   -8.0245   17.1830  -33.7790 H   0  0  0  0  0  0  0  0  0  0  0  0
   -7.5029   16.7155  -32.1202 H   0  0  0  0  0  0  0  0  0  0  0  0
   -5.3848   20.6072  -31.7727 H   0  0  0  0  0  0  0  0  0  0  0  0
  1  2  2  0
  2  3  1  0
  3  4  1  0
  4  5  2  0
  5  6  1  0
  6  7  2  0
  7  8  1  0
  7  9  1  0
  9 10  2  0
  2 11  1  0
 11 12  2  0
 12 13  1  0
 13 14  2  0
 14 15  1  0
 15 16  1  0
 16 17  2  0
 16 18  2  0
 16 19  1  0
 19 20  1  0
 20 21  1  0
 21 22  1  0
 22 23  1  0
 23 24  1  0
 15 25  2  0
 10  4  1  0
 25 11  1  0
 24 19  1  0
  5 26  1  0
  6 27  1  0
  9 28  1  0
 10 29  1  0
 12 30  1  0
 13 31  1  0
 14 32  1  0
 20 33  1  0
 20 34  1  0
 21 35  1  0
 21 36  1  0
 23 37  1  0
 23 38  1  0
 24 39  1  0
 24 40  1  0
 25 41  1  0
M  CHG  1   3  -1
M  END
>  <UniqueID>  (46) 
42

>  <SMILES>  (46) 
O=C([N-]c1ccc(F)cc1)c1cccc(S(=O)(=O)N2CCOCC2)c1

>  <Energy>  (46) 
53.97768936902569

>  <Genealogy>  (46) 
O=C([N-]c1ccc(F)cc1)c1cccc(S(=O)(=O)N2CCOCC2)c1 (protonated)
O=C([N-]c1ccc(F)cc1)c1cccc(S(=O)(=O)N2CCOCC2)c1 (3D coordinates assigned)
O=C([N-]c1ccc(F)cc1)c1cccc(S(=O)(=O)N2CCOCC2)c1 (nonaromatic ring conformer: 53.97768936902569 kcal/mol)

>  <smiles>  (46) 
O=C(Nc1ccc(F)cc1)c1cccc(S(=O)(=O)N2CCOCC2)c1

>  <score_type>  (46) 
oracle

>  <origin>  (46) 
adgpu

>  <m_score__min__energy>  (46) 
-9.9499999999999993

>  <m_primary>  (46) 
energy

$$$$
46:0
     RDKit          3D

 36 38  0  0  0  0  0  0  0  0999 V2000
   -8.9990   22.8720  -31.9740 C   0  0  0  0  0  0  0  0  0  0  0  0
   -7.5450   23.0430  -31.6900 C   0  0  0  0  0  0  0  0  0  0  0  0
   -6.9880   24.0210  -30.8900 C   0  0  0  0  0  0  0  0  0  0  0  0
   -5.6420   23.7100  -30.8560 C   0  0  0  0  0  0  0  0  0  0  0  0
   -4.6380   24.3990  -30.0180 C   0  0  0  0  0  0  0  0  0  0  0  0
   -3.9080   25.2950  -30.5210 O   0  0  0  0  0  0  0  0  0  0  0  0
   -4.4910   24.0470  -28.6330 N   0  0  0  0  0  0  0  0  0  0  0  0
   -3.4010   24.5010  -27.8160 C   0  0  0  0  0  0  0  0  0  0  0  0
   -2.1060   24.5620  -28.3590 C   0  0  0  0  0  0  0  0  0  0  0  0
   -1.8780   24.1640  -29.6360 F   0  0  0  0  0  0  0  0  0  0  0  0
   -1.0370   25.0160  -27.5800 C   0  0  0  0  0  0  0  0  0  0  0  0
   -1.2520   25.4260  -26.2620 C   0  0  0  0  0  0  0  0  0  0  0  0
   -2.5400   25.3930  -25.7230 C   0  0  0  0  0  0  0  0  0  0  0  0
   -3.6150   24.9400  -26.4940 C   0  0  0  0  0  0  0  0  0  0  0  0
   -4.8650   24.9730  -25.9670 F   0  0  0  0  0  0  0  0  0  0  0  0
   -5.4380   22.5980  -31.6050 N   0  0  0  0  0  0  0  0  0  0  0  0
   -4.1920   21.9430  -31.8990 C   0  0  0  0  0  0  0  0  0  0  0  0
   -3.8500   21.6590  -33.2310 C   0  0  0  0  0  0  0  0  0  0  0  0
   -2.6260   21.0520  -33.5290 C   0  0  0  0  0  0  0  0  0  0  0  0
   -1.7310   20.7400  -32.5030 C   0  0  0  0  0  0  0  0  0  0  0  0
   -2.0540   21.0410  -31.1770 C   0  0  0  0  0  0  0  0  0  0  0  0
   -3.2770   21.6470  -30.8750 C   0  0  0  0  0  0  0  0  0  0  0  0
   -6.5930   22.1830  -32.1000 N   0  0  0  0  0  0  0  0  0  0  0  0
   -9.5526   22.8069  -31.0257 H   0  0  0  0  0  0  0  0  0  0  0  0
   -9.3633   23.7335  -32.5529 H   0  0  0  0  0  0  0  0  0  0  0  0
   -9.1535   21.9495  -32.5529 H   0  0  0  0  0  0  0  0  0  0  0  0
   -7.4998   24.8580  -30.3925 H   0  0  0  0  0  0  0  0  0  0  0  0
   -5.2870   23.5570  -28.1630 H   0  0  0  0  0  0  0  0  0  0  0  0
   -0.0236   25.0504  -28.0065 H   0  0  0  0  0  0  0  0  0  0  0  0
   -0.4076   25.7745  -25.6492 H   0  0  0  0  0  0  0  0  0  0  0  0
   -2.7094   25.7246  -24.6880 H   0  0  0  0  0  0  0  0  0  0  0  0
   -4.5471   21.9148  -34.0425 H   0  0  0  0  0  0  0  0  0  0  0  0
   -2.3677   20.8199  -34.5727 H   0  0  0  0  0  0  0  0  0  0  0  0
   -0.7713   20.2570  -32.7388 H   0  0  0  0  0  0  0  0  0  0  0  0
   -1.3455   20.8009  -30.3705 H   0  0  0  0  0  0  0  0  0  0  0  0
   -3.5238   21.8930  -29.8316 H   0  0  0  0  0  0  0  0  0  0  0  0
  1  2  1  0
  2  3  1  0
  3  4  2  0
  4  5  1  0
  5  6  2  0
  5  7  1  0
  7  8  1  0
  8  9  2  0
  9 10  1  0
  9 11  1  0
 11 12  2  0
 12 13  1  0
 13 14  2  0
 14 15  1  0
  4 16  1  0
 16 17  1  0
 17 18  2  0
 18 19  1  0
 19 20  2  0
 20 21  1  0
 21 22  2  0
 16 23  1  0
 23  2  2  0
 14  8  1  0
 22 17  1  0
  1 24  1  0
  1 25  1  0
  1 26  1  0
  3 27  1  0
  7 28  1  0
 11 29  1  0
 12 30  1  0
 13 31  1  0
 18 32  1  0
 19 33  1  0
 20 34  1  0
 21 35  1  0
 22 36  1  0
M  END
>  <UniqueID>  (47) 
43

>  <SMILES>  (47) 
Cc1cc(C(=O)Nc2c(F)cccc2F)n(-c2ccccc2)n1

>  <Energy>  (47) 
79.14754582940633

>  <Genealogy>  (47) 
Cc1cc(C(=O)Nc2c(F)cccc2F)n(-c2ccccc2)n1 (3D coordinates assigned)
Cc1cc(C(=O)Nc2c(F)cccc2F)n(-c2ccccc2)n1 (optimized conformer: 79.14754582940633 kcal/mol)

>  <smiles>  (47) 
Cc1cc(C(=O)Nc2c(F)cccc2F)n(-c2ccccc2)n1

>  <score_type>  (47) 
oracle

>  <origin>  (47) 
adgpu

>  <m_score__min__energy>  (47) 
-7.9900000000000002

>  <m_primary>  (47) 
energy

$$$$
47:0
     RDKit          3D

 43 45  0  0  0  0  0  0  0  0999 V2000
   -6.3780   24.5130  -29.6810 N   0  0  0  0  0  0  0  0  0  0  0  0
   -6.4220   23.3700  -30.5450 C   0  0  0  0  0  0  0  0  0  0  0  0
   -7.6590   22.9540  -31.0650 C   0  0  0  0  0  0  0  0  0  0  0  0
   -7.7250   21.9060  -31.9840 C   0  0  0  0  0  0  0  0  0  0  0  0
   -6.5560   21.2680  -32.4040 C   0  0  0  0  0  0  0  0  0  0  0  0
   -5.3200   21.6640  -31.8870 C   0  0  0  0  0  0  0  0  0  0  0  0
   -5.2430   22.6920  -30.9370 C   0  0  0  0  0  0  0  0  0  0  0  0
   -3.9580   23.0340  -30.4060 N   0  0  0  0  0  0  0  0  0  0  0  0
   -3.5680   24.3610  -30.0350 C   0  0  0  0  0  0  0  0  0  0  0  0
   -3.8370   25.3280  -30.8000 O   0  0  0  0  0  0  0  0  0  0  0  0
   -2.8550   24.6000  -28.7590 C   0  0  0  0  0  0  0  0  0  0  0  0
   -1.4930   24.9480  -28.7560 C   0  0  0  0  0  0  0  0  0  0  0  0
   -0.8360   25.2280  -27.5540 C   0  0  0  0  0  0  0  0  0  0  0  0
   -1.5300   25.1760  -26.3370 C   0  0  0  0  0  0  0  0  0  0  0  0
   -0.8480   25.5860  -25.0540 C   0  0  0  0  0  0  0  0  0  0  0  0
    0.1140   24.5720  -24.5820 N   0  0  0  0  0  0  0  0  0  0  0  0
   -0.4810   23.2310  -24.4090 C   0  0  0  0  0  0  0  0  0  0  0  0
   -0.3750   22.3980  -25.6570 C   0  0  0  0  0  0  0  0  0  0  0  0
   -1.1850   21.3290  -25.9840 C   0  0  0  0  0  0  0  0  0  0  0  0
   -0.7190   20.8690  -27.1960 C   0  0  0  0  0  0  0  0  0  0  0  0
    0.3350   21.6900  -27.5390 C   0  0  0  0  0  0  0  0  0  0  0  0
    0.5120   22.5960  -26.6040 O   0  0  0  0  0  0  0  0  0  0  0  0
   -2.8810   24.7950  -26.3330 C   0  0  0  0  0  0  0  0  0  0  0  0
   -3.5380   24.5120  -27.5340 C   0  0  0  0  0  0  0  0  0  0  0  0
   -5.8210   25.3560  -29.9450 H   0  0  0  0  0  0  0  0  0  0  0  0
   -6.8130   24.5020  -28.7330 H   0  0  0  0  0  0  0  0  0  0  0  0
   -8.5828   23.4584  -30.7452 H   0  0  0  0  0  0  0  0  0  0  0  0
   -8.6995   21.5819  -32.3782 H   0  0  0  0  0  0  0  0  0  0  0  0
   -6.6083   20.4538  -33.1418 H   0  0  0  0  0  0  0  0  0  0  0  0
   -4.4006   21.1655  -32.2278 H   0  0  0  0  0  0  0  0  0  0  0  0
   -0.9404   25.0004  -29.7057 H   0  0  0  0  0  0  0  0  0  0  0  0
    0.2321   25.4907  -27.5633 H   0  0  0  0  0  0  0  0  0  0  0  0
   -0.3108   26.5305  -25.2252 H   0  0  0  0  0  0  0  0  0  0  0  0
   -1.6235   25.6989  -24.2821 H   0  0  0  0  0  0  0  0  0  0  0  0
    0.5820   24.8900  -23.7000 H   0  0  0  0  0  0  0  0  0  0  0  0
    0.8630   24.4930  -25.3090 H   0  0  0  0  0  0  0  0  0  0  0  0
    0.0430   22.7135  -23.5919 H   0  0  0  0  0  0  0  0  0  0  0  0
   -1.5488   23.3620  -24.1796 H   0  0  0  0  0  0  0  0  0  0  0  0
   -2.0262   20.9285  -25.3993 H   0  0  0  0  0  0  0  0  0  0  0  0
   -1.1090   20.0182  -27.7739 H   0  0  0  0  0  0  0  0  0  0  0  0
    0.9360   21.5999  -28.4559 H   0  0  0  0  0  0  0  0  0  0  0  0
   -3.4254   24.7188  -25.3802 H   0  0  0  0  0  0  0  0  0  0  0  0
   -4.5979   24.2181  -27.5201 H   0  0  0  0  0  0  0  0  0  0  0  0
  1  2  1  0
  2  3  2  0
  3  4  1  0
  4  5  2  0
  5  6  1  0
  6  7  2  0
  7  8  1  0
  8  9  1  0
  9 10  2  0
  9 11  1  0
 11 12  2  0
 12 13  1  0
 13 14  2  0
 14 15  1  0
 15 16  1  0
 16 17  1  0
 17 18  1  0
 18 19  2  0
 19 20  1  0
 20 21  2  0
 21 22  1  0
 14 23  1  0
 23 24  2  0
  7  2  1  0
 24 11  1  0
 22 18  1  0
  1 25  1  0
  1 26  1  0
  3 27  1  0
  4 28  1  0
  5 29  1  0
  6 30  1  0
 12 31  1  0
 13 32  1  0
 15 33  1  0
 15 34  1  0
 16 35  1  0
 16 36  1  0
 17 37  1  0
 17 38  1  0
 19 39  1  0
 20 40  1  0
 21 41  1  0
 23 42  1  0
 24 43  1  0
M  CHG  2   8  -1  16   1
M  END
>  <UniqueID>  (48) 
44

>  <SMILES>  (48) 
Nc1ccccc1[N-]C(=O)c1ccc(C[NH2+]Cc2ccco2)cc1

>  <Energy>  (48) 
76.26700152643663

>  <Genealogy>  (48) 
Nc1ccccc1[N-]C(=O)c1ccc(C[NH2+]Cc2ccco2)cc1 (protonated)
Nc1ccccc1[N-]C(=O)c1ccc(C[NH2+]Cc2ccco2)cc1 (3D coordinates assigned)
Nc1ccccc1[N-]C(=O)c1ccc(C[NH2+]Cc2ccco2)cc1 (optimized conformer: 76.26700152643663 kcal/mol)

>  <smiles>  (48) 
Nc1ccccc1NC(=O)c1ccc(CNCc2ccco2)cc1

>  <score_type>  (48) 
oracle

>  <origin>  (48) 
adgpu

>  <m_score__min__energy>  (48) 
-9.4399999999999995

>  <m_primary>  (48) 
energy

$$$$
48:0
     RDKit          3D

 33 35  0  0  0  0  0  0  0  0999 V2000
   -3.8650   23.1060  -31.8380 O   0  0  0  0  0  0  0  0  0  0  0  0
   -4.9250   23.5200  -31.2890 C   0  0  0  0  0  0  0  0  0  0  0  0
   -4.9760   24.8380  -30.8120 C   0  0  0  0  0  0  0  0  0  0  0  0
   -3.8620   25.6680  -30.9280 O   0  0  0  0  0  0  0  0  0  0  0  0
   -6.1530   25.3070  -30.2260 C   0  0  0  0  0  0  0  0  0  0  0  0
   -7.2590   24.4680  -30.1230 C   0  0  0  0  0  0  0  0  0  0  0  0
   -7.1750   23.1610  -30.6050 C   0  0  0  0  0  0  0  0  0  0  0  0
   -6.0190   22.6980  -31.1740 N   0  0  0  0  0  0  0  0  0  0  0  0
   -5.9770   21.3370  -31.6480 C   0  0  0  0  0  0  0  0  0  0  0  0
   -4.7630   20.6330  -31.6810 C   0  0  0  0  0  0  0  0  0  0  0  0
   -4.7230   19.3110  -32.1340 C   0  0  0  0  0  0  0  0  0  0  0  0
   -5.9000   18.6660  -32.5580 C   0  0  0  0  0  0  0  0  0  0  0  0
   -5.8580   17.2610  -33.0390 C   0  0  0  0  0  0  0  0  0  0  0  0
   -4.7790   16.4210  -32.6990 C   0  0  0  0  0  0  0  0  0  0  0  0
   -4.7420   15.0990  -33.1530 C   0  0  0  0  0  0  0  0  0  0  0  0
   -5.7770   14.5990  -33.9490 C   0  0  0  0  0  0  0  0  0  0  0  0
   -5.7270   12.9400  -34.5150 Cl  0  0  0  0  0  0  0  0  0  0  0  0
   -6.8520   15.4240  -34.2910 C   0  0  0  0  0  0  0  0  0  0  0  0
   -6.8940   16.7470  -33.8410 C   0  0  0  0  0  0  0  0  0  0  0  0
   -7.1150   19.3730  -32.5180 C   0  0  0  0  0  0  0  0  0  0  0  0
   -7.1520   20.6950  -32.0650 C   0  0  0  0  0  0  0  0  0  0  0  0
   -3.1280   25.4790  -31.6010 H   0  0  0  0  0  0  0  0  0  0  0  0
   -6.2064   26.3380  -29.8462 H   0  0  0  0  0  0  0  0  0  0  0  0
   -8.1909   24.8320  -29.6658 H   0  0  0  0  0  0  0  0  0  0  0  0
   -8.0473   22.4954  -30.5269 H   0  0  0  0  0  0  0  0  0  0  0  0
   -3.8370   21.1248  -31.3482 H   0  0  0  0  0  0  0  0  0  0  0  0
   -3.7649   18.7711  -32.1592 H   0  0  0  0  0  0  0  0  0  0  0  0
   -3.9612   16.8074  -32.0729 H   0  0  0  0  0  0  0  0  0  0  0  0
   -3.8958   14.4502  -32.8830 H   0  0  0  0  0  0  0  0  0  0  0  0
   -7.6675   15.0312  -34.9161 H   0  0  0  0  0  0  0  0  0  0  0  0
   -7.7427   17.3907  -34.1157 H   0  0  0  0  0  0  0  0  0  0  0  0
   -8.0432   18.8821  -32.8456 H   0  0  0  0  0  0  0  0  0  0  0  0
   -8.1096   21.2355  -32.0354 H   0  0  0  0  0  0  0  0  0  0  0  0
  1  2  2  0
  2  3  1  0
  3  4  1  0
  3  5  2  0
  5  6  1  0
  6  7  2  0
  7  8  1  0
  8  9  1  0
  9 10  2  0
 10 11  1  0
 11 12  2  0
 12 13  1  0
 13 14  2  0
 14 15  1  0
 15 16  2  0
 16 17  1  0
 16 18  1  0
 18 19  2  0
 12 20  1  0
 20 21  2  0
  8  2  1  0
 21  9  1  0
 19 13  1  0
  4 22  1  0
  5 23  1  0
  6 24  1  0
  7 25  1  0
 10 26  1  0
 11 27  1  0
 14 28  1  0
 15 29  1  0
 18 30  1  0
 19 31  1  0
 20 32  1  0
 21 33  1  0
M  END
>  <UniqueID>  (49) 
45

>  <SMILES>  (49) 
O=c1c(O)cccn1-c1ccc(-c2ccc(Cl)cc2)cc1

>  <Energy>  (49) 
50.0122626288178

>  <Genealogy>  (49) 
O=c1c(O)cccn1-c1ccc(-c2ccc(Cl)cc2)cc1 (3D coordinates assigned)
O=c1c(O)cccn1-c1ccc(-c2ccc(Cl)cc2)cc1 (optimized conformer: 50.0122626288178 kcal/mol)

>  <smiles>  (49) 
O=c1c(O)cccn1-c1ccc(-c2ccc(Cl)cc2)cc1

>  <score_type>  (49) 
oracle

>  <origin>  (49) 
adgpu

>  <m_score__min__energy>  (49) 
-8.75

>  <m_primary>  (49) 
energy

$$$$
