0:0
     RDKit          3D

 49 52  0  0  0  0  0  0  0  0999 V2000
   -6.5760   12.0040  -34.4330 C   0  0  0  0  0  0  0  0  0  0  0  0
   -6.0520   13.2910  -33.8710 C   0  0  0  0  0  0  0  0  0  0  0  0
   -5.0120   13.2730  -32.9040 C   0  0  0  0  0  0  0  0  0  0  0  0
   -4.5360   14.4740  -32.3410 C   0  0  0  0  0  0  0  0  0  0  0  0
   -5.1320   15.6590  -32.7580 C   0  0  0  0  0  0  0  0  0  0  0  0
   -4.8730   16.8830  -32.3850 O   0  0  0  0  0  0  0  0  0  0  0  0
   -5.7120   17.6510  -33.0620 C   0  0  0  0  0  0  0  0  0  0  0  0
   -5.7510   19.1220  -32.9310 C   0  0  0  0  0  0  0  0  0  0  0  0
   -4.5960   19.8830  -33.1730 C   0  0  0  0  0  0  0  0  0  0  0  0
   -4.6250   21.2740  -33.0460 C   0  0  0  0  0  0  0  0  0  0  0  0
   -5.8090   21.9320  -32.6670 C   0  0  0  0  0  0  0  0  0  0  0  0
   -5.8690   23.3610  -32.5180 N   0  0  0  0  0  0  0  0  0  0  0  0
   -5.7420   24.1750  -30.9920 S   0  0  0  0  0  0  0  0  0  0  0  0
   -6.9920   23.9340  -30.1920 O   0  0  0  0  0  0  0  0  0  0  0  0
   -5.5960   25.6530  -31.2270 O   0  0  0  0  0  0  0  0  0  0  0  0
   -4.3670   23.5360  -30.0950 C   0  0  0  0  0  0  0  0  0  0  0  0
   -4.2360   22.1560  -29.9290 C   0  0  0  0  0  0  0  0  0  0  0  0
   -3.1440   21.6310  -29.2380 C   0  0  0  0  0  0  0  0  0  0  0  0
   -2.1630   22.4800  -28.6980 C   0  0  0  0  0  0  0  0  0  0  0  0
   -0.9970   21.8680  -27.9660 C   0  0  0  0  0  0  0  0  0  0  0  0
   -2.2780   23.8800  -28.8870 C   0  0  0  0  0  0  0  0  0  0  0  0
   -1.0600   25.0100  -28.2690 S   0  0  0  0  0  0  0  0  0  0  0  0
    0.5340   24.4190  -28.5840 N   0  0  0  0  0  0  0  0  0  0  0  0
   -1.2270   26.3410  -28.9440 O   0  0  0  0  0  0  0  0  0  0  0  0
   -1.2170   25.1750  -26.7840 O   0  0  0  0  0  0  0  0  0  0  0  0
   -3.3920   24.3940  -29.5710 C   0  0  0  0  0  0  0  0  0  0  0  0
   -6.9650   21.1710  -32.4380 C   0  0  0  0  0  0  0  0  0  0  0  0
   -6.9370   19.7790  -32.5650 C   0  0  0  0  0  0  0  0  0  0  0  0
   -6.5350   16.9500  -33.8900 N   0  0  0  0  0  0  0  0  0  0  0  0
   -6.1390   15.6840  -33.6730 C   0  0  0  0  0  0  0  0  0  0  0  0
   -6.6360   14.5210  -34.2520 C   0  0  0  0  0  0  0  0  0  0  0  0
   -6.8508   11.3290  -33.6090 H   0  0  0  0  0  0  0  0  0  0  0  0
   -7.4627   12.2079  -35.0512 H   0  0  0  0  0  0  0  0  0  0  0  0
   -5.7990   11.5306  -35.0512 H   0  0  0  0  0  0  0  0  0  0  0  0
   -4.5743   12.3133  -32.5918 H   0  0  0  0  0  0  0  0  0  0  0  0
   -3.7235   14.4740  -31.5995 H   0  0  0  0  0  0  0  0  0  0  0  0
   -3.6619   19.3805  -33.4646 H   0  0  0  0  0  0  0  0  0  0  0  0
   -3.7148   21.8592  -33.2439 H   0  0  0  0  0  0  0  0  0  0  0  0
   -6.1140   23.9480  -33.3480 H   0  0  0  0  0  0  0  0  0  0  0  0
   -4.9973   21.4797  -30.3450 H   0  0  0  0  0  0  0  0  0  0  0  0
   -3.0498   20.5420  -29.1146 H   0  0  0  0  0  0  0  0  0  0  0  0
   -1.1594   21.9532  -26.8814 H   0  0  0  0  0  0  0  0  0  0  0  0
   -0.9076   20.8067  -28.2411 H   0  0  0  0  0  0  0  0  0  0  0  0
   -0.0727   22.3972  -28.2411 H   0  0  0  0  0  0  0  0  0  0  0  0
    0.5770   24.1800  -29.6000 H   0  0  0  0  0  0  0  0  0  0  0  0
   -3.4997   25.4815  -29.6964 H   0  0  0  0  0  0  0  0  0  0  0  0
   -7.9018   21.6739  -32.1560 H   0  0  0  0  0  0  0  0  0  0  0  0
   -7.8498   19.1946  -32.3770 H   0  0  0  0  0  0  0  0  0  0  0  0
   -7.4572   14.5571  -34.9830 H   0  0  0  0  0  0  0  0  0  0  0  0
  1  2  1  0
  2  3  2  0
  3  4  1  0
  4  5  2  0
  5  6  1  0
  6  7  1  0
  7  8  1  0
  8  9  2  0
  9 10  1  0
 10 11  2  0
 11 12  1  0
 12 13  1  0
 13 14  2  0
 13 15  2  0
 13 16  1  0
 16 17  2  0
 17 18  1  0
 18 19  2  0
 19 20  1  0
 19 21  1  0
 21 22  1  0
 22 23  1  0
 22 24  2  0
 22 25  2  0
 21 26  2  0
 11 27  1  0
 27 28  2  0
  7 29  2  0
 29 30  1  0
 30 31  2  0
 31  2  1  0
 30  5  1  0
 28  8  1  0
 26 16  1  0
  1 32  1  0
  1 33  1  0
  1 34  1  0
  3 35  1  0
  4 36  1  0
  9 37  1  0
 10 38  1  0
 12 39  1  0
 17 40  1  0
 18 41  1  0
 20 42  1  0
 20 43  1  0
 20 44  1  0
 23 45  1  0
 26 46  1  0
 27 47  1  0
 28 48  1  0
 31 49  1  0
M  CHG  1  23  -1
M  END
>  <UniqueID>  (1) 
1

>  <SMILES>  (1) 
Cc1ccc2oc(-c3ccc(NS(=O)(=O)c4ccc(C)c(S([NH-])(=O)=O)c4)cc3)nc2c1

>  <Energy>  (1) 
93.93610356980008

>  <Genealogy>  (1) 
Cc1ccc2oc(-c3ccc(NS(=O)(=O)c4ccc(C)c(S([NH-])(=O)=O)c4)cc3)nc2c1 (protonated)
Cc1ccc2oc(-c3ccc(NS(=O)(=O)c4ccc(C)c(S([NH-])(=O)=O)c4)cc3)nc2c1 (3D coordinates assigned)
Cc1ccc2oc(-c3ccc(NS(=O)(=O)c4ccc(C)c(S([NH-])(=O)=O)c4)cc3)nc2c1 (optimized conformer: 93.93610356980008 kcal/mol)

>  <smiles>  (1) 
Cc1ccc2oc(-c3ccc(NS(=O)(=O)c4ccc(C)c(S(N)(=O)=O)c4)cc3)nc2c1

>  <score_type>  (1) 
oracle

>  <origin>  (1) 
adgpu

>  <m_score__min__energy>  (1) 
-11.74

>  <m_primary>  (1) 
energy

$$$$
1:0
     RDKit          3D

 44 46  0  0  0  0  0  0  0  0999 V2000
   -9.3150   18.5290  -32.3130 C   0  0  0  0  0  0  0  0  0  0  0  0
   -7.9330   19.1090  -32.3840 C   0  0  0  0  0  0  0  0  0  0  0  0
   -6.9880   18.7960  -31.3900 C   0  0  0  0  0  0  0  0  0  0  0  0
   -5.7020   19.3400  -31.4370 C   0  0  0  0  0  0  0  0  0  0  0  0
   -5.3510   20.2110  -32.4780 C   0  0  0  0  0  0  0  0  0  0  0  0
   -3.7760   20.9880  -32.5160 S   0  0  0  0  0  0  0  0  0  0  0  0
   -3.1500   20.7330  -33.8580 O   0  0  0  0  0  0  0  0  0  0  0  0
   -2.8800   20.4270  -31.4420 O   0  0  0  0  0  0  0  0  0  0  0  0
   -3.9700   22.7020  -32.2980 N   0  0  0  0  0  0  0  0  0  0  0  0
   -4.9980   23.2830  -31.4910 C   0  0  0  0  0  0  0  0  0  0  0  0
   -6.3260   22.8590  -31.6110 C   0  0  0  0  0  0  0  0  0  0  0  0
   -7.3380   23.4940  -30.8840 C   0  0  0  0  0  0  0  0  0  0  0  0
   -7.0310   24.5620  -30.0390 C   0  0  0  0  0  0  0  0  0  0  0  0
   -5.7100   24.9840  -29.9040 C   0  0  0  0  0  0  0  0  0  0  0  0
   -4.6850   24.3350  -30.6030 C   0  0  0  0  0  0  0  0  0  0  0  0
   -3.3740   24.7940  -30.4400 O   0  0  0  0  0  0  0  0  0  0  0  0
   -2.4140   24.1910  -29.6170 C   0  0  0  0  0  0  0  0  0  0  0  0
   -2.4950   22.8080  -29.3950 C   0  0  0  0  0  0  0  0  0  0  0  0
   -1.5520   22.1600  -28.5900 C   0  0  0  0  0  0  0  0  0  0  0  0
   -1.6710   20.6900  -28.3460 C   0  0  0  0  0  0  0  0  0  0  0  0
   -0.5170   22.9040  -28.0020 C   0  0  0  0  0  0  0  0  0  0  0  0
   -0.4100   24.2810  -28.2340 C   0  0  0  0  0  0  0  0  0  0  0  0
    0.6500   24.9880  -27.6560 O   0  0  0  0  0  0  0  0  0  0  0  0
   -1.3550   24.9310  -29.0460 C   0  0  0  0  0  0  0  0  0  0  0  0
   -1.2270   26.2970  -29.2990 O   0  0  0  0  0  0  0  0  0  0  0  0
   -6.2960   20.5320  -33.4660 C   0  0  0  0  0  0  0  0  0  0  0  0
   -7.5810   19.9830  -33.4230 C   0  0  0  0  0  0  0  0  0  0  0  0
   -9.6075   18.4063  -31.2597 H   0  0  0  0  0  0  0  0  0  0  0  0
  -10.0229   19.2059  -32.8136 H   0  0  0  0  0  0  0  0  0  0  0  0
   -9.3278   17.5496  -32.8136 H   0  0  0  0  0  0  0  0  0  0  0  0
   -7.2638   18.1176  -30.5692 H   0  0  0  0  0  0  0  0  0  0  0  0
   -4.9668   19.0856  -30.6593 H   0  0  0  0  0  0  0  0  0  0  0  0
   -6.5752   22.0223  -32.2803 H   0  0  0  0  0  0  0  0  0  0  0  0
   -8.3789   23.1509  -30.9783 H   0  0  0  0  0  0  0  0  0  0  0  0
   -7.8311   25.0698  -29.4804 H   0  0  0  0  0  0  0  0  0  0  0  0
   -5.4711   25.8315  -29.2448 H   0  0  0  0  0  0  0  0  0  0  0  0
   -3.3071   22.2282  -29.8580 H   0  0  0  0  0  0  0  0  0  0  0  0
   -1.6865   20.4982  -27.2630 H   0  0  0  0  0  0  0  0  0  0  0  0
   -2.6022   20.3175  -28.7977 H   0  0  0  0  0  0  0  0  0  0  0  0
   -0.8118   20.1726  -28.7977 H   0  0  0  0  0  0  0  0  0  0  0  0
    0.2159   22.4014  -27.3538 H   0  0  0  0  0  0  0  0  0  0  0  0
    0.7460   25.9980  -27.7570 H   0  0  0  0  0  0  0  0  0  0  0  0
   -6.0232   21.2203  -34.2795 H   0  0  0  0  0  0  0  0  0  0  0  0
   -8.3147   20.2360  -34.2026 H   0  0  0  0  0  0  0  0  0  0  0  0
  1  2  1  0
  2  3  2  0
  3  4  1  0
  4  5  2  0
  5  6  1  0
  6  7  2  0
  6  8  2  0
  6  9  1  0
  9 10  1  0
 10 11  2  0
 11 12  1  0
 12 13  2  0
 13 14  1  0
 14 15  2  0
 15 16  1  0
 16 17  1  0
 17 18  2  0
 18 19  1  0
 19 20  1  0
 19 21  2  0
 21 22  1  0
 22 23  1  0
 22 24  2  0
 24 25  1  0
  5 26  1  0
 26 27  2  0
 27  2  1  0
 15 10  1  0
 24 17  1  0
  1 28  1  0
  1 29  1  0
  1 30  1  0
  3 31  1  0
  4 32  1  0
 11 33  1  0
 12 34  1  0
 13 35  1  0
 14 36  1  0
 18 37  1  0
 20 38  1  0
 20 39  1  0
 20 40  1  0
 21 41  1  0
 23 42  1  0
 26 43  1  0
 27 44  1  0
M  CHG  2   9  -1  25  -1
M  END
>  <UniqueID>  (2) 
2

>  <SMILES>  (2) 
Cc1ccc(S(=O)(=O)[N-]c2ccccc2Oc2cc(C)cc(O)c2[O-])cc1

>  <Energy>  (2) 
59.78095811129405

>  <Genealogy>  (2) 
Cc1ccc(S(=O)(=O)[N-]c2ccccc2Oc2cc(C)cc(O)c2[O-])cc1 (protonated)
Cc1ccc(S(=O)(=O)[N-]c2ccccc2Oc2cc(C)cc(O)c2[O-])cc1 (3D coordinates assigned)
Cc1ccc(S(=O)(=O)[N-]c2ccccc2Oc2cc(C)cc(O)c2[O-])cc1 (optimized conformer: 59.78095811129405 kcal/mol)

>  <smiles>  (2) 
Cc1ccc(S(=O)(=O)Nc2ccccc2Oc2cc(C)cc(O)c2O)cc1

>  <score_type>  (2) 
oracle

>  <origin>  (2) 
adgpu

>  <m_score__min__energy>  (2) 
-12.699999999999999

>  <m_primary>  (2) 
energy

$$$$
2:0
     RDKit          3D

 46 48  0  0  0  0  0  0  0  0999 V2000
   -1.9670   27.5330  -37.7280 C   0  0  0  0  0  0  0  0  0  0  0  0
   -1.0040   27.0210  -36.6620 C   0  0  0  0  0  0  0  0  0  0  0  0
   -0.1370   25.9530  -37.2970 C   0  0  0  0  0  0  0  0  0  0  0  0
   -0.1400   24.7370  -36.5350 N   0  0  0  0  0  0  0  0  0  0  0  0
    1.0240   23.9430  -36.3270 C   0  0  0  0  0  0  0  0  0  0  0  0
    2.1120   24.3210  -36.8360 O   0  0  0  0  0  0  0  0  0  0  0  0
    0.9460   22.7080  -35.5350 C   0  0  0  0  0  0  0  0  0  0  0  0
    2.0990   21.9740  -35.3500 C   0  0  0  0  0  0  0  0  0  0  0  0
    2.0400   20.8220  -34.6140 C   0  0  0  0  0  0  0  0  0  0  0  0
    3.0900   20.0910  -34.4060 N   0  0  0  0  0  0  0  0  0  0  0  0
    0.8570   20.4480  -34.0960 N   0  0  0  0  0  0  0  0  0  0  0  0
   -0.2800   21.1450  -34.2610 C   0  0  0  0  0  0  0  0  0  0  0  0
   -1.5620   20.7580  -33.7120 C   0  0  0  0  0  0  0  0  0  0  0  0
   -2.2410   19.6270  -34.1810 C   0  0  0  0  0  0  0  0  0  0  0  0
   -3.4580   19.2400  -33.6770 C   0  0  0  0  0  0  0  0  0  0  0  0
   -4.0660   19.9600  -32.6750 C   0  0  0  0  0  0  0  0  0  0  0  0
   -5.6490   19.4410  -32.0320 S   0  0  0  0  0  0  0  0  0  0  0  0
   -6.7510   20.8510  -32.0100 C   0  0  0  0  0  0  0  0  0  0  0  0
   -6.2770   22.1480  -32.1000 C   0  0  0  0  0  0  0  0  0  0  0  0
   -7.1060   23.2520  -32.0870 C   0  0  0  0  0  0  0  0  0  0  0  0
   -8.4700   23.0280  -31.9760 C   0  0  0  0  0  0  0  0  0  0  0  0
   -8.9370   21.7330  -31.8870 C   0  0  0  0  0  0  0  0  0  0  0  0
   -8.1210   20.6290  -31.9000 C   0  0  0  0  0  0  0  0  0  0  0  0
   -3.4240   21.0770  -32.1930 C   0  0  0  0  0  0  0  0  0  0  0  0
   -2.2010   21.4560  -32.7090 C   0  0  0  0  0  0  0  0  0  0  0  0
   -0.2040   22.2740  -34.9870 N   0  0  0  0  0  0  0  0  0  0  0  0
   -2.8386   27.9964  -37.2426 H   0  0  0  0  0  0  0  0  0  0  0  0
   -1.4569   28.2790  -38.3551 H   0  0  0  0  0  0  0  0  0  0  0  0
   -2.3001   26.6929  -38.3551 H   0  0  0  0  0  0  0  0  0  0  0  0
   -0.3747   27.8467  -36.2983 H   0  0  0  0  0  0  0  0  0  0  0  0
   -1.5602   26.6073  -35.8079 H   0  0  0  0  0  0  0  0  0  0  0  0
   -0.5174   25.7405  -38.3070 H   0  0  0  0  0  0  0  0  0  0  0  0
    0.8958   26.3298  -37.3328 H   0  0  0  0  0  0  0  0  0  0  0  0
   -1.0290   24.3670  -36.0820 H   0  0  0  0  0  0  0  0  0  0  0  0
    3.0510   22.3094  -35.7873 H   0  0  0  0  0  0  0  0  0  0  0  0
    3.0600   19.2100  -33.8470 H   0  0  0  0  0  0  0  0  0  0  0  0
    0.8400   19.5720  -33.5430 H   0  0  0  0  0  0  0  0  0  0  0  0
   -1.7833   19.0273  -34.9815 H   0  0  0  0  0  0  0  0  0  0  0  0
   -3.9527   18.3436  -34.0792 H   0  0  0  0  0  0  0  0  0  0  0  0
   -5.1918   22.3064  -32.1857 H   0  0  0  0  0  0  0  0  0  0  0  0
   -6.6996   24.2714  -32.1619 H   0  0  0  0  0  0  0  0  0  0  0  0
   -9.1725   23.8743  -31.9591 H   0  0  0  0  0  0  0  0  0  0  0  0
  -10.0224   21.5764  -31.8009 H   0  0  0  0  0  0  0  0  0  0  0  0
   -8.5325   19.6115  -31.8266 H   0  0  0  0  0  0  0  0  0  0  0  0
   -3.8877   21.6715  -31.3920 H   0  0  0  0  0  0  0  0  0  0  0  0
   -1.7146   22.3547  -32.3020 H   0  0  0  0  0  0  0  0  0  0  0  0
  1  2  1  0
  2  3  1  0
  3  4  1  0
  4  5  1  0
  5  6  2  0
  5  7  1  0
  7  8  2  0
  8  9  1  0
  9 10  2  3
  9 11  1  0
 11 12  1  0
 12 13  1  0
 13 14  2  0
 14 15  1  0
 15 16  2  0
 16 17  1  0
 17 18  1  0
 18 19  2  0
 19 20  1  0
 20 21  2  0
 21 22  1  0
 22 23  2  0
 16 24  1  0
 24 25  2  0
 12 26  2  0
 26  7  1  0
 25 13  1  0
 23 18  1  0
  1 27  1  0
  1 28  1  0
  1 29  1  0
  2 30  1  0
  2 31  1  0
  3 32  1  0
  3 33  1  0
  4 34  1  0
  8 35  1  0
 10 36  1  0
 11 37  1  0
 14 38  1  0
 15 39  1  0
 19 40  1  0
 20 41  1  0
 21 42  1  0
 22 43  1  0
 23 44  1  0
 24 45  1  0
 25 46  1  0
M  END
>  <smiles>  (3) 
CCCNC(=O)c1cc(=N)[nH]c(-c2ccc(Sc3ccccc3)cc2)n1

>  <score_type>  (3) 
oracle

>  <origin>  (3) 
adgpu

>  <m_score__min__energy>  (3) 
-8.8399999999999999

>  <m_primary>  (3) 
energy

$$$$
3:0
     RDKit          3D

 60 63  0  0  0  0  0  0  0  0999 V2000
   -4.5560   22.3810  -32.7120 C   0  0  0  0  0  0  0  0  0  0  0  0
   -3.9510   21.3670  -31.9140 O   0  0  0  0  0  0  0  0  0  0  0  0
   -2.6630   20.8390  -32.1020 C   0  0  0  0  0  0  0  0  0  0  0  0
   -1.5430   21.5620  -31.6380 C   0  0  0  0  0  0  0  0  0  0  0  0
   -0.2540   21.0700  -31.7940 C   0  0  0  0  0  0  0  0  0  0  0  0
   -0.0510   19.8460  -32.4120 C   0  0  0  0  0  0  0  0  0  0  0  0
   -1.1350   19.1080  -32.8830 C   0  0  0  0  0  0  0  0  0  0  0  0
   -2.4730   19.5730  -32.7550 C   0  0  0  0  0  0  0  0  0  0  0  0
   -3.5840   18.7550  -33.2770 N   0  0  0  0  0  0  0  0  0  0  0  0
   -3.5450   17.2910  -33.0430 C   0  0  0  0  0  0  0  0  0  0  0  0
   -4.7000   16.4950  -33.6630 C   0  0  0  0  0  0  0  0  0  0  0  0
   -5.9740   17.2190  -33.6180 N   0  0  0  0  0  0  0  0  0  0  0  0
   -6.4530   17.4520  -32.2370 C   0  0  0  0  0  0  0  0  0  0  0  0
   -7.3640   18.6500  -32.1890 C   0  0  0  0  0  0  0  0  0  0  0  0
   -8.6730   18.5680  -32.6830 C   0  0  0  0  0  0  0  0  0  0  0  0
   -9.5240   19.6710  -32.6040 C   0  0  0  0  0  0  0  0  0  0  0  0
   -9.0750   20.8650  -32.0330 C   0  0  0  0  0  0  0  0  0  0  0  0
   -7.7620   20.9700  -31.5390 C   0  0  0  0  0  0  0  0  0  0  0  0
   -7.3020   22.2420  -30.9290 C   0  0  0  0  0  0  0  0  0  0  0  0
   -8.0220   23.2730  -31.0370 O   0  0  0  0  0  0  0  0  0  0  0  0
   -6.0460   22.3220  -30.2350 N   0  0  0  0  0  0  0  0  0  0  0  0
   -5.6070   23.5380  -29.5530 C   0  0  0  0  0  0  0  0  0  0  0  0
   -4.1690   23.4070  -29.1210 C   0  0  0  0  0  0  0  0  0  0  0  0
   -3.8100   22.3810  -28.2290 C   0  0  0  0  0  0  0  0  0  0  0  0
   -2.4830   22.2270  -27.8240 C   0  0  0  0  0  0  0  0  0  0  0  0
   -1.4980   23.0930  -28.3060 C   0  0  0  0  0  0  0  0  0  0  0  0
   -1.8420   24.1150  -29.1940 C   0  0  0  0  0  0  0  0  0  0  0  0
   -3.1700   24.2770  -29.6040 C   0  0  0  0  0  0  0  0  0  0  0  0
   -3.4840   25.3020  -30.4900 O   0  0  0  0  0  0  0  0  0  0  0  0
   -6.9150   19.8490  -31.6110 C   0  0  0  0  0  0  0  0  0  0  0  0
   -5.8500   18.4430  -34.4180 C   0  0  0  0  0  0  0  0  0  0  0  0
   -4.7600   19.3990  -33.9070 C   0  0  0  0  0  0  0  0  0  0  0  0
   -5.0092   23.1406  -32.0581 H   0  0  0  0  0  0  0  0  0  0  0  0
   -3.7916   22.8527  -33.3469 H   0  0  0  0  0  0  0  0  0  0  0  0
   -5.3342   21.9324  -33.3469 H   0  0  0  0  0  0  0  0  0  0  0  0
   -1.6941   22.5330  -31.1438 H   0  0  0  0  0  0  0  0  0  0  0  0
    0.6052   21.6510  -31.4275 H   0  0  0  0  0  0  0  0  0  0  0  0
    0.9704   19.4555  -32.5311 H   0  0  0  0  0  0  0  0  0  0  0  0
   -0.9506   18.1379  -33.3677 H   0  0  0  0  0  0  0  0  0  0  0  0
   -2.6038   16.9053  -33.4617 H   0  0  0  0  0  0  0  0  0  0  0  0
   -3.6330   17.1554  -31.9549 H   0  0  0  0  0  0  0  0  0  0  0  0
   -4.4548   16.2791  -34.7134 H   0  0  0  0  0  0  0  0  0  0  0  0
   -4.8209   15.5727  -33.0758 H   0  0  0  0  0  0  0  0  0  0  0  0
   -7.0033   16.5649  -31.8904 H   0  0  0  0  0  0  0  0  0  0  0  0
   -5.5857   17.6388  -31.5867 H   0  0  0  0  0  0  0  0  0  0  0  0
   -9.0308   17.6309  -33.1345 H   0  0  0  0  0  0  0  0  0  0  0  0
  -10.5508   19.6006  -32.9921 H   0  0  0  0  0  0  0  0  0  0  0  0
   -9.7531   21.7288  -31.9694 H   0  0  0  0  0  0  0  0  0  0  0  0
   -5.3830   21.5170  -30.2630 H   0  0  0  0  0  0  0  0  0  0  0  0
   -5.7033   24.3930  -30.2383 H   0  0  0  0  0  0  0  0  0  0  0  0
   -6.2344   23.6949  -28.6632 H   0  0  0  0  0  0  0  0  0  0  0  0
   -4.5804   21.6947  -27.8476 H   0  0  0  0  0  0  0  0  0  0  0  0
   -2.2123   21.4226  -27.1243 H   0  0  0  0  0  0  0  0  0  0  0  0
   -0.4526   22.9701  -27.9865 H   0  0  0  0  0  0  0  0  0  0  0  0
   -1.0653   24.7956  -29.5727 H   0  0  0  0  0  0  0  0  0  0  0  0
   -5.8922   19.9120  -31.2112 H   0  0  0  0  0  0  0  0  0  0  0  0
   -5.6081   18.1599  -35.4531 H   0  0  0  0  0  0  0  0  0  0  0  0
   -6.8093   18.9764  -34.3460 H   0  0  0  0  0  0  0  0  0  0  0  0
   -4.4029   19.9921  -34.7618 H   0  0  0  0  0  0  0  0  0  0  0  0
   -5.2338   19.9978  -33.1152 H   0  0  0  0  0  0  0  0  0  0  0  0
  1  2  1  0
  2  3  1  0
  3  4  2  0
  4  5  1  0
  5  6  2  0
  6  7  1  0
  7  8  2  0
  8  9  1  0
  9 10  1  0
 10 11  1  0
 11 12  1  0
 12 13  1  0
 13 14  1  0
 14 15  2  0
 15 16  1  0
 16 17  2  0
 17 18  1  0
 18 19  1  0
 19 20  2  0
 19 21  1  0
 21 22  1  0
 22 23  1  0
 23 24  2  0
 24 25  1  0
 25 26  2  0
 26 27  1  0
 27 28  2  0
 28 29  1  0
 18 30  2  0
 12 31  1  0
 31 32  1  0
  8  3  1  0
 32  9  1  0
 30 14  1  0
 28 23  1  0
  1 33  1  0
  1 34  1  0
  1 35  1  0
  4 36  1  0
  5 37  1  0
  6 38  1  0
  7 39  1  0
 10 40  1  0
 10 41  1  0
 11 42  1  0
 11 43  1  0
 13 44  1  0
 13 45  1  0
 15 46  1  0
 16 47  1  0
 17 48  1  0
 21 49  1  0
 22 50  1  0
 22 51  1  0
 24 52  1  0
 25 53  1  0
 26 54  1  0
 27 55  1  0
 30 56  1  0
 31 57  1  0
 31 58  1  0
 32 59  1  0
 32 60  1  0
M  CHG  1  29  -1
M  END
>  <UniqueID>  (4) 
3

>  <SMILES>  (4) 
COc1ccccc1N1CCN(Cc2cccc(C(=O)NCc3ccccc3[O-])c2)CC1

>  <Energy>  (4) 
81.05094921492805

>  <Genealogy>  (4) 
COc1ccccc1N1CCN(Cc2cccc(C(=O)NCc3ccccc3[O-])c2)CC1 (protonated)
COc1ccccc1N1CCN(Cc2cccc(C(=O)NCc3ccccc3[O-])c2)CC1 (3D coordinates assigned)
COc1ccccc1N1CCN(Cc2cccc(C(=O)NCc3ccccc3[O-])c2)CC1 (nonaromatic ring conformer: 81.05094921492805 kcal/mol)

>  <smiles>  (4) 
COc1ccccc1N1CCN(Cc2cccc(C(=O)NCc3ccccc3O)c2)CC1

>  <score_type>  (4) 
oracle

>  <origin>  (4) 
adgpu

>  <m_score__min__energy>  (4) 
-12.58

>  <m_primary>  (4) 
energy

$$$$
4:0
     RDKit          3D

 37 39  0  0  0  0  0  0  0  0999 V2000
   -2.5940   22.9090  -27.7930 O   0  0  0  0  0  0  0  0  0  0  0  0
   -2.6010   24.1190  -28.1480 C   0  0  0  0  0  0  0  0  0  0  0  0
   -3.2680   24.5020  -29.3590 N   0  0  0  0  0  0  0  0  0  0  0  0
   -4.4500   23.9060  -29.9120 C   0  0  0  0  0  0  0  0  0  0  0  0
   -4.3620   22.6190  -30.4560 C   0  0  0  0  0  0  0  0  0  0  0  0
   -5.4850   22.0100  -31.0230 C   0  0  0  0  0  0  0  0  0  0  0  0
   -6.7090   22.6920  -31.0720 C   0  0  0  0  0  0  0  0  0  0  0  0
   -8.1260   21.9210  -31.7730 S   0  0  0  0  0  0  0  0  0  0  0  0
   -9.0350   22.9680  -32.3520 O   0  0  0  0  0  0  0  0  0  0  0  0
   -8.8640   21.1620  -30.7060 O   0  0  0  0  0  0  0  0  0  0  0  0
   -7.6120   20.8310  -33.0210 N   0  0  0  0  0  0  0  0  0  0  0  0
   -7.2090   19.6180  -32.8000 C   0  0  0  0  0  0  0  0  0  0  0  0
   -7.1650   19.1140  -31.5350 N   0  0  0  0  0  0  0  0  0  0  0  0
   -6.7430   17.8440  -31.3020 C   0  0  0  0  0  0  0  0  0  0  0  0
   -6.3480   17.0370  -32.3660 C   0  0  0  0  0  0  0  0  0  0  0  0
   -6.3980   17.5660  -33.6550 C   0  0  0  0  0  0  0  0  0  0  0  0
   -6.8260   18.8410  -33.8480 N   0  0  0  0  0  0  0  0  0  0  0  0
   -6.7980   23.9870  -30.5440 C   0  0  0  0  0  0  0  0  0  0  0  0
   -5.6750   24.5960  -29.9760 C   0  0  0  0  0  0  0  0  0  0  0  0
   -1.8760   25.1410  -27.3460 C   0  0  0  0  0  0  0  0  0  0  0  0
   -1.8290   25.0220  -25.9430 C   0  0  0  0  0  0  0  0  0  0  0  0
   -1.1540   25.9690  -25.1680 C   0  0  0  0  0  0  0  0  0  0  0  0
   -0.5150   27.0470  -25.7780 C   0  0  0  0  0  0  0  0  0  0  0  0
   -0.5480   27.1820  -27.1670 C   0  0  0  0  0  0  0  0  0  0  0  0
   -1.2200   26.2400  -27.9540 C   0  0  0  0  0  0  0  0  0  0  0  0
   -1.2260   26.4100  -29.3350 O   0  0  0  0  0  0  0  0  0  0  0  0
   -3.4016   22.0830  -30.4370 H   0  0  0  0  0  0  0  0  0  0  0  0
   -5.4082   20.9919  -31.4323 H   0  0  0  0  0  0  0  0  0  0  0  0
   -6.7133   17.4535  -30.2741 H   0  0  0  0  0  0  0  0  0  0  0  0
   -6.0046   16.0063  -32.1935 H   0  0  0  0  0  0  0  0  0  0  0  0
   -6.0913   16.9519  -34.5146 H   0  0  0  0  0  0  0  0  0  0  0  0
   -7.7559   24.5269  -30.5766 H   0  0  0  0  0  0  0  0  0  0  0  0
   -5.7492   25.6186  -29.5775 H   0  0  0  0  0  0  0  0  0  0  0  0
   -2.3292   24.1742  -25.4521 H   0  0  0  0  0  0  0  0  0  0  0  0
   -1.1270   25.8633  -24.0734 H   0  0  0  0  0  0  0  0  0  0  0  0
    0.0150   27.7910  -25.1652 H   0  0  0  0  0  0  0  0  0  0  0  0
   -0.0428   28.0338  -27.6457 H   0  0  0  0  0  0  0  0  0  0  0  0
  1  2  2  0
  2  3  1  0
  3  4  1  0
  4  5  2  0
  5  6  1  0
  6  7  2  0
  7  8  1  0
  8  9  2  0
  8 10  2  0
  8 11  1  0
 11 12  2  3
 12 13  1  0
 13 14  2  0
 14 15  1  0
 15 16  2  0
 16 17  1  0
  7 18  1  0
 18 19  2  0
  2 20  1  0
 20 21  2  0
 21 22  1  0
 22 23  2  0
 23 24  1  0
 24 25  2  0
 25 26  1  0
 19  4  1  0
 25 20  1  0
 17 12  1  0
  5 27  1  0
  6 28  1  0
 14 29  1  0
 15 30  1  0
 16 31  1  0
 18 32  1  0
 19 33  1  0
 21 34  1  0
 22 35  1  0
 23 36  1  0
 24 37  1  0
M  CHG  3   3  -1  17  -1  26  -1
M  END
>  <UniqueID>  (5) 
4

>  <SMILES>  (5) 
O=C([N-]c1ccc(S(=O)(=O)N=c2nccc[n-]2)cc1)c1ccccc1[O-]

>  <Energy>  (5) 
51.17461577746602

>  <Genealogy>  (5) 
O=C([N-]c1ccc(S(=O)(=O)N=c2nccc[n-]2)cc1)c1ccccc1[O-] (protonated)
O=C([N-]c1ccc(S(=O)(=O)N=c2nccc[n-]2)cc1)c1ccccc1[O-] (3D coordinates assigned)
O=C([N-]c1ccc(S(=O)(=O)N=c2nccc[n-]2)cc1)c1ccccc1[O-] (optimized conformer: 51.17461577746602 kcal/mol)

>  <smiles>  (5) 
O=C(Nc1ccc(S(=O)(=O)N=c2nccc[nH]2)cc1)c1ccccc1O

>  <score_type>  (5) 
oracle

>  <origin>  (5) 
adgpu

>  <m_score__min__energy>  (5) 
-13.07

>  <m_primary>  (5) 
energy

$$$$
5:0
     RDKit          3D

 43 45  0  0  0  0  0  0  0  0999 V2000
   -4.6530   25.4520  -28.0530 H   0  0  0  0  0  0  0  0  0  0  0  0
   -4.5430   24.4810  -27.7850 O   0  0  0  0  0  0  0  0  0  0  0  0
   -3.5870   23.6550  -28.3740 C   0  0  0  0  0  0  0  0  0  0  0  0
   -3.3210   22.4050  -27.8060 C   0  0  0  0  0  0  0  0  0  0  0  0
   -3.8705   22.0837  -26.9089 H   0  0  0  0  0  0  0  0  0  0  0  0
   -2.3610   21.5620  -28.3720 C   0  0  0  0  0  0  0  0  0  0  0  0
   -2.1701   20.5740  -27.9277 H   0  0  0  0  0  0  0  0  0  0  0  0
   -1.6400   21.9690  -29.5030 C   0  0  0  0  0  0  0  0  0  0  0  0
   -0.6200   21.0620  -30.0760 C   0  0  0  0  0  0  0  0  0  0  0  0
    0.1619   20.6875  -29.3989 H   0  0  0  0  0  0  0  0  0  0  0  0
   -0.5730   20.6600  -31.3560 C   0  0  0  0  0  0  0  0  0  0  0  0
    0.1811   19.9039  -31.6199 H   0  0  0  0  0  0  0  0  0  0  0  0
   -1.4520   21.1500  -32.4420 C   0  0  0  0  0  0  0  0  0  0  0  0
   -0.9230   21.7820  -33.3940 O   0  0  0  0  0  0  0  0  0  0  0  0
   -2.9240   20.9680  -32.4270 C   0  0  0  0  0  0  0  0  0  0  0  0
   -3.4760   19.7460  -32.0060 C   0  0  0  0  0  0  0  0  0  0  0  0
   -2.8134   18.9135  -31.7270 H   0  0  0  0  0  0  0  0  0  0  0  0
   -4.8630   19.5830  -31.9400 C   0  0  0  0  0  0  0  0  0  0  0  0
   -5.2859   18.6254  -31.6021 H   0  0  0  0  0  0  0  0  0  0  0  0
   -5.7170   20.6330  -32.3020 C   0  0  0  0  0  0  0  0  0  0  0  0
   -7.1420   20.4740  -32.2070 N   0  0  0  0  0  0  0  0  0  0  0  0
   -7.8550   19.3730  -32.5380 C   0  0  0  0  0  0  0  0  0  0  0  0
   -7.2720   18.0980  -33.0660 C   0  0  0  0  0  0  0  0  0  0  0  0
   -6.9773   17.4535  -32.2247 H   0  0  0  0  0  0  0  0  0  0  0  0
   -8.0221   17.5787  -33.6805 H   0  0  0  0  0  0  0  0  0  0  0  0
   -6.3885   18.3256  -33.6805 H   0  0  0  0  0  0  0  0  0  0  0  0
   -9.2010   19.5920  -32.3120 C   0  0  0  0  0  0  0  0  0  0  0  0
  -10.0207   18.8775  -32.4781 H   0  0  0  0  0  0  0  0  0  0  0  0
   -9.3150   20.8830  -31.8370 C   0  0  0  0  0  0  0  0  0  0  0  0
  -10.2446   21.4026  -31.5617 H   0  0  0  0  0  0  0  0  0  0  0  0
   -8.0330   21.3950  -31.7750 C   0  0  0  0  0  0  0  0  0  0  0  0
   -7.6880   22.7810  -31.3220 C   0  0  0  0  0  0  0  0  0  0  0  0
   -7.6793   22.8159  -30.2226 H   0  0  0  0  0  0  0  0  0  0  0  0
   -6.6942   23.0553  -31.7054 H   0  0  0  0  0  0  0  0  0  0  0  0
   -8.4373   23.4892  -31.7054 H   0  0  0  0  0  0  0  0  0  0  0  0
   -5.1710   21.8430  -32.7500 C   0  0  0  0  0  0  0  0  0  0  0  0
   -5.8362   22.6668  -33.0480 H   0  0  0  0  0  0  0  0  0  0  0  0
   -3.7850   22.0080  -32.8200 C   0  0  0  0  0  0  0  0  0  0  0  0
   -3.3651   22.9570  -33.1847 H   0  0  0  0  0  0  0  0  0  0  0  0
   -1.9300   23.2120  -30.0930 C   0  0  0  0  0  0  0  0  0  0  0  0
   -1.4004   23.5207  -31.0064 H   0  0  0  0  0  0  0  0  0  0  0  0
   -2.8880   24.0580  -29.5250 C   0  0  0  0  0  0  0  0  0  0  0  0
   -3.1440   25.2930  -30.1090 O   0  0  0  0  0  0  0  0  0  0  0  0
  1  2  1  0
  2  3  1  0
  3  4  2  0
  4  5  1  0
  4  6  1  0
  6  7  1  0
  6  8  2  0
  8  9  1  0
  9 10  1  0
  9 11  2  0
 11 12  1  0
 11 13  1  0
 13 14  2  0
 13 15  1  0
 15 16  2  0
 16 17  1  0
 16 18  1  0
 18 19  1  0
 18 20  2  0
 20 21  1  0
 21 22  1  0
 22 23  1  0
 23 24  1  0
 23 25  1  0
 23 26  1  0
 22 27  2  0
 27 28  1  0
 27 29  1  0
 29 30  1  0
 29 31  2  0
 31 32  1  0
 32 33  1  0
 32 34  1  0
 32 35  1  0
 20 36  1  0
 36 37  1  0
 36 38  2  0
 38 39  1  0
  8 40  1  0
 40 41  1  0
 40 42  2  0
 42 43  1  0
 42  3  1  0
 38 15  1  0
 31 21  1  0
M  CHG  1  43  -1
M  END
>  <UniqueID>  (6) 
5

>  <SMILES>  (6) 
Cc1ccc(C)n1-c1ccc(C(=O)/C=C\c2ccc(O)c([O-])c2)cc1

>  <Energy>  (6) 
84.24015202369607

>  <Genealogy>  (6) 
Cc1ccc(C)n1-c1ccc(C(=O)C=Cc2ccc(O)c([O-])c2)cc1 (protonated)
Cc1ccc(C)n1-c1ccc(C(=O)/C=C\c2ccc(O)c([O-])c2)cc1 (cis-trans isomerization)
Cc1ccc(C)n1-c1ccc(C(=O)/C=C\c2ccc(O)c([O-])c2)cc1 (3D coordinates assigned)
Cc1ccc(C)n1-c1ccc(C(=O)/C=C\c2ccc(O)c([O-])c2)cc1 (optimized conformer: 84.24015202369607 kcal/mol)

>  <smiles>  (6) 
Cc1ccc(C)n1-c1ccc(C(=O)C=Cc2ccc(O)c(O)c2)cc1

>  <score_type>  (6) 
oracle

>  <origin>  (6) 
adgpu

>  <m_score__min__energy>  (6) 
-11.42

>  <m_primary>  (6) 
energy

$$$$
6:0
     RDKit          3D

 22 22  0  0  0  0  0  0  0  0999 V2000
   -6.3750   16.9940  -33.9620 C   0  0  0  0  0  0  0  0  0  0  0  0
   -5.6790   18.6580  -34.2050 S   0  0  0  0  0  0  0  0  0  0  0  0
   -6.8590   19.4360  -33.1060 C   0  0  0  0  0  0  0  0  0  0  0  0
   -7.7920   18.6620  -32.4090 C   0  0  0  0  0  0  0  0  0  0  0  0
   -8.6970   19.2930  -31.5520 C   0  0  0  0  0  0  0  0  0  0  0  0
   -8.6630   20.6800  -31.4050 C   0  0  0  0  0  0  0  0  0  0  0  0
   -7.7200   21.4220  -32.1250 C   0  0  0  0  0  0  0  0  0  0  0  0
   -7.6330   23.1660  -31.9430 S   0  0  0  0  0  0  0  0  0  0  0  0
   -9.0210   23.7420  -31.9700 O   0  0  0  0  0  0  0  0  0  0  0  0
   -6.8440   23.7520  -33.0810 O   0  0  0  0  0  0  0  0  0  0  0  0
   -6.8440   23.5760  -30.3990 C   0  0  0  0  0  0  0  0  0  0  0  0
   -5.5960   24.3020  -30.6500 C   0  0  0  0  0  0  0  0  0  0  0  0
   -4.6100   24.8740  -30.8500 N   0  0  0  0  0  0  0  0  0  0  0  0
   -6.8450   20.7870  -32.9520 N   0  0  0  0  0  0  0  0  0  0  0  0
   -6.4618   16.7865  -32.8852 H   0  0  0  0  0  0  0  0  0  0  0  0
   -7.3705   16.9415  -34.4269 H   0  0  0  0  0  0  0  0  0  0  0  0
   -5.7134   16.2483  -34.4269 H   0  0  0  0  0  0  0  0  0  0  0  0
   -7.8131   17.5693  -32.5340 H   0  0  0  0  0  0  0  0  0  0  0  0
   -9.4348   18.6976  -30.9943 H   0  0  0  0  0  0  0  0  0  0  0  0
   -9.3700   21.1849  -30.7303 H   0  0  0  0  0  0  0  0  0  0  0  0
   -7.5185   24.2071  -29.8017 H   0  0  0  0  0  0  0  0  0  0  0  0
   -6.6181   22.6487  -29.8521 H   0  0  0  0  0  0  0  0  0  0  0  0
  1  2  1  0
  2  3  1  0
  3  4  2  0
  4  5  1  0
  5  6  2  0
  6  7  1  0
  7  8  1  0
  8  9  2  0
  8 10  2  0
  8 11  1  0
 11 12  1  0
 12 13  3  0
  7 14  2  0
 14  3  1  0
  1 15  1  0
  1 16  1  0
  1 17  1  0
  4 18  1  0
  5 19  1  0
  6 20  1  0
 11 21  1  0
 11 22  1  0
M  END
>  <UniqueID>  (7) 
6

>  <SMILES>  (7) 
CSc1cccc(S(=O)(=O)CC#N)n1

>  <Energy>  (7) 
12.013127265337733

>  <Genealogy>  (7) 
CSc1cccc(S(=O)(=O)CC#N)n1 (3D coordinates assigned)
CSc1cccc(S(=O)(=O)CC#N)n1 (optimized conformer: 12.013127265337733 kcal/mol)

>  <smiles>  (7) 
CSc1cccc(S(=O)(=O)CC#N)n1

>  <score_type>  (7) 
oracle

>  <origin>  (7) 
adgpu

>  <m_score__min__energy>  (7) 
-6.6200000000000001

>  <m_primary>  (7) 
energy

$$$$
7:0
     RDKit          3D

 47 50  0  0  1  0  0  0  0  0999 V2000
   -3.8260   17.0550  -35.0030 C   0  0  0  0  0  0  0  0  0  0  0  0
   -3.7230   18.4120  -34.6320 O   0  0  0  0  0  0  0  0  0  0  0  0
   -4.7150   18.9770  -33.8460 C   0  0  0  0  0  0  0  0  0  0  0  0
   -5.8570   18.2510  -33.6480 C   0  0  0  0  0  0  0  0  0  0  0  0
   -6.8370   18.8030  -32.8740 C   0  0  0  0  0  0  0  0  0  0  0  0
   -7.9560   18.1010  -32.6770 N   0  0  0  0  0  0  0  0  0  0  0  0
   -8.9430   18.6010  -31.9250 C   0  0  0  0  0  0  0  0  0  0  0  0
   -8.7590   19.8150  -31.3890 N   0  0  0  0  0  0  0  0  0  0  0  0
   -7.6380   20.5520  -31.5670 C   0  0  0  0  0  0  0  0  0  0  0  0
   -7.5380   21.6380  -31.0040 N   0  0  0  0  0  0  0  0  0  0  0  0
   -6.5990   22.6190  -30.9440 C   0  0  0  0  0  0  0  0  0  0  0  0
   -6.6750   23.8040  -31.7140 C   0  0  0  0  0  0  0  0  0  0  0  0
   -5.7400   24.7560  -31.4400 C   0  0  0  0  0  0  0  0  0  0  0  0
   -4.7500   24.6460  -30.4900 C   0  0  0  0  0  0  0  0  0  0  0  0
   -3.8640   25.6770  -30.3090 F   0  0  0  0  0  0  0  0  0  0  0  0
   -4.6770   23.5090  -29.7540 C   0  0  0  0  0  0  0  0  0  0  0  0
   -3.4160   23.3700  -28.5460 Cl  0  0  0  0  0  0  0  0  0  0  0  0
   -5.5760   22.5110  -29.9670 C   0  0  0  0  0  0  0  0  0  0  0  0
   -6.6110   20.0690  -32.3350 C   0  0  0  0  0  0  0  0  0  0  0  0
   -5.4620   20.7810  -32.5480 C   0  0  0  0  0  0  0  0  0  0  0  0
   -4.4610   20.2130  -33.3390 C   0  0  0  0  0  0  0  0  0  0  0  0
   -3.2210   20.8150  -33.6120 N   0  0  0  0  0  0  0  0  0  0  0  0
   -1.9430   21.0450  -32.5210 S   0  0  0  0  0  0  0  0  0  0  0  0
   -0.8730   21.9020  -33.1520 O   0  0  0  0  0  0  0  0  0  0  0  0
   -2.5150   21.7540  -31.3020 O   0  0  0  0  0  0  0  0  0  0  0  0
   -1.1950   19.5570  -32.0280 C   0  0  0  0  0  0  0  0  0  0  0  0
   -0.4680   19.5340  -30.8460 C   0  0  0  0  0  0  0  0  0  0  0  0
    0.1170   18.3650  -30.4240 C   0  0  0  0  0  0  0  0  0  0  0  0
   -0.0560   17.2400  -31.2260 C   0  0  0  0  0  0  0  0  0  0  0  0
    0.4980   16.0610  -30.8590 F   0  0  0  0  0  0  0  0  0  0  0  0
   -0.7790   17.2720  -32.3990 C   0  0  0  0  0  0  0  0  0  0  0  0
   -0.9280   16.1660  -33.1540 F   0  0  0  0  0  0  0  0  0  0  0  0
   -1.3650   18.4420  -32.8220 C   0  0  0  0  0  0  0  0  0  0  0  0
   -3.8734   16.4303  -34.0989 H   0  0  0  0  0  0  0  0  0  0  0  0
   -4.7380   16.9062  -35.5997 H   0  0  0  0  0  0  0  0  0  0  0  0
   -2.9469   16.7703  -35.5997 H   0  0  0  0  0  0  0  0  0  0  0  0
   -5.9819   17.2549  -34.0976 H   0  0  0  0  0  0  0  0  0  0  0  0
   -9.8712   18.0363  -31.7531 H   0  0  0  0  0  0  0  0  0  0  0  0
   -9.5420   20.1860  -30.8060 H   0  0  0  0  0  0  0  0  0  0  0  0
   -7.4435   23.9478  -32.4878 H   0  0  0  0  0  0  0  0  0  0  0  0
   -5.7793   25.6870  -32.0246 H   0  0  0  0  0  0  0  0  0  0  0  0
   -5.5080   21.5934  -29.3642 H   0  0  0  0  0  0  0  0  0  0  0  0
   -5.3296   21.7794  -32.1056 H   0  0  0  0  0  0  0  0  0  0  0  0
   -3.0910   21.1550  -34.6170 H   0  0  0  0  0  0  0  0  0  0  0  0
   -0.3604   20.4508  -30.2478 H   0  0  0  0  0  0  0  0  0  0  0  0
    0.6981   18.3195  -29.4911 H   0  0  0  0  0  0  0  0  0  0  0  0
   -1.9455   18.4868  -33.7553 H   0  0  0  0  0  0  0  0  0  0  0  0
  1  2  1  0
  2  3  1  0
  3  4  2  0
  4  5  1  0
  5  6  1  0
  6  7  2  0
  7  8  1  0
  8  9  1  0
  9 10  2  0
 10 11  1  0
 11 12  2  0
 12 13  1  0
 13 14  2  0
 14 15  1  0
 14 16  1  0
 16 17  1  0
 16 18  2  0
  9 19  1  0
 19 20  1  0
 20 21  2  0
 21 22  1  0
 22 23  1  0
 23 24  2  0
 23 25  2  0
 23 26  1  0
 26 27  2  0
 27 28  1  0
 28 29  2  0
 29 30  1  0
 29 31  1  0
 31 32  1  0
 31 33  2  0
 21  3  1  0
 33 26  1  0
 19  5  2  0
 18 11  1  0
  1 34  1  0
  1 35  1  0
  1 36  1  0
  4 37  1  0
  7 38  1  0
  8 39  1  0
 12 40  1  0
 13 41  1  0
 18 42  1  0
 20 43  1  0
 22 44  1  0
 27 45  1  0
 28 46  1  0
 33 47  1  0
M  END
>  <smiles>  (8) 
COc1cc2nc[nH]c(=Nc3ccc(F)c(Cl)c3)c2cc1NS(=O)(=O)c1ccc(F)c(F)c1

>  <score_type>  (8) 
oracle

>  <origin>  (8) 
adgpu

>  <m_score__min__energy>  (8) 
-9.4700000000000006

>  <m_primary>  (8) 
energy

$$$$
8:0
     RDKit          3D

 69 73  0  0  0  0  0  0  0  0999 V2000
   -1.7080   26.4640  -24.1530 O   0  0  0  0  0  0  0  0  0  0  0  0
   -0.5120   26.1970  -23.8590 C   0  0  0  0  0  0  0  0  0  0  0  0
    0.2630   27.1320  -22.9820 C   0  0  0  0  0  0  0  0  0  0  0  0
    0.6840   28.3470  -23.7690 C   0  0  0  0  0  0  0  0  0  0  0  0
    0.0230   28.6800  -24.9640 C   0  0  0  0  0  0  0  0  0  0  0  0
    0.3800   29.8340  -25.6710 C   0  0  0  0  0  0  0  0  0  0  0  0
    1.3970   30.6620  -25.1920 C   0  0  0  0  0  0  0  0  0  0  0  0
    2.0530   30.3440  -23.9990 C   0  0  0  0  0  0  0  0  0  0  0  0
    1.6950   29.1940  -23.2850 C   0  0  0  0  0  0  0  0  0  0  0  0
    0.0920   24.9840  -24.3330 N   0  0  0  0  0  0  0  0  0  0  0  0
   -0.2820   24.3890  -25.5820 C   0  0  0  0  0  0  0  0  0  0  0  0
   -0.1770   25.1270  -26.7670 C   0  0  0  0  0  0  0  0  0  0  0  0
   -0.5200   24.5420  -27.9890 C   0  0  0  0  0  0  0  0  0  0  0  0
   -0.9960   23.2260  -28.0390 C   0  0  0  0  0  0  0  0  0  0  0  0
   -1.3030   22.6730  -29.2860 O   0  0  0  0  0  0  0  0  0  0  0  0
   -2.5960   22.6190  -29.8260 C   0  0  0  0  0  0  0  0  0  0  0  0
   -3.6540   23.3970  -29.3200 C   0  0  0  0  0  0  0  0  0  0  0  0
   -4.9350   23.2830  -29.8660 C   0  0  0  0  0  0  0  0  0  0  0  0
   -5.1720   22.4040  -30.9330 C   0  0  0  0  0  0  0  0  0  0  0  0
   -6.7990   22.2210  -31.5900 S   0  0  0  0  0  0  0  0  0  0  0  0
   -7.6090   23.4370  -31.2350 O   0  0  0  0  0  0  0  0  0  0  0  0
   -6.7170   22.1470  -33.0910 O   0  0  0  0  0  0  0  0  0  0  0  0
   -7.6060   20.7920  -30.9730 N   0  0  0  0  0  0  0  0  0  0  0  0
   -7.1140   19.5440  -31.5950 C   0  0  0  0  0  0  0  0  0  0  0  0
   -8.0480   19.0100  -32.6950 C   0  0  0  0  0  0  0  0  0  0  0  0
   -8.7780   20.0610  -33.2820 O   0  0  0  0  0  0  0  0  0  0  0  0
   -9.7110   20.5660  -32.3490 C   0  0  0  0  0  0  0  0  0  0  0  0
   -9.0750   20.9200  -30.9840 C   0  0  0  0  0  0  0  0  0  0  0  0
   -4.1100   21.6610  -31.4640 C   0  0  0  0  0  0  0  0  0  0  0  0
   -2.8310   21.7680  -30.9120 C   0  0  0  0  0  0  0  0  0  0  0  0
   -1.1300   22.4820  -26.8480 C   0  0  0  0  0  0  0  0  0  0  0  0
   -1.6940   20.8050  -26.8550 S   0  0  0  0  0  0  0  0  0  0  0  0
   -3.0390   20.7120  -27.5170 O   0  0  0  0  0  0  0  0  0  0  0  0
   -1.8070   20.3040  -25.4440 O   0  0  0  0  0  0  0  0  0  0  0  0
   -0.5620   19.7880  -27.7470 C   0  0  0  0  0  0  0  0  0  0  0  0
    0.3680   20.3770  -28.6200 C   0  0  0  0  0  0  0  0  0  0  0  0
    1.3240   19.5860  -29.2630 C   0  0  0  0  0  0  0  0  0  0  0  0
    1.3580   18.2070  -29.0400 C   0  0  0  0  0  0  0  0  0  0  0  0
    0.4340   17.6150  -28.1740 C   0  0  0  0  0  0  0  0  0  0  0  0
   -0.5220   18.4020  -27.5270 C   0  0  0  0  0  0  0  0  0  0  0  0
   -0.7820   23.0790  -25.6270 C   0  0  0  0  0  0  0  0  0  0  0  0
   -0.3675   27.4458  -22.1370 H   0  0  0  0  0  0  0  0  0  0  0  0
    1.1593   26.6161  -22.6071 H   0  0  0  0  0  0  0  0  0  0  0  0
   -0.7787   28.0305  -25.3454 H   0  0  0  0  0  0  0  0  0  0  0  0
   -0.1414   30.0890  -26.6054 H   0  0  0  0  0  0  0  0  0  0  0  0
    1.6820   31.5642  -25.7530 H   0  0  0  0  0  0  0  0  0  0  0  0
    2.8520   30.9986  -23.6206 H   0  0  0  0  0  0  0  0  0  0  0  0
    2.2071   28.9529  -22.3418 H   0  0  0  0  0  0  0  0  0  0  0  0
    0.7930   24.5010  -23.7280 H   0  0  0  0  0  0  0  0  0  0  0  0
    0.1758   26.1684  -26.7362 H   0  0  0  0  0  0  0  0  0  0  0  0
   -0.4152   25.1200  -28.9190 H   0  0  0  0  0  0  0  0  0  0  0  0
   -3.4717   24.0974  -28.4916 H   0  0  0  0  0  0  0  0  0  0  0  0
   -5.7604   23.8846  -29.4577 H   0  0  0  0  0  0  0  0  0  0  0  0
   -6.1264   19.7393  -32.0384 H   0  0  0  0  0  0  0  0  0  0  0  0
   -7.0665   18.7799  -30.8051 H   0  0  0  0  0  0  0  0  0  0  0  0
   -7.4460   18.5120  -33.4694 H   0  0  0  0  0  0  0  0  0  0  0  0
   -8.7545   18.2978  -32.2438 H   0  0  0  0  0  0  0  0  0  0  0  0
  -10.1682   21.4745  -32.7681 H   0  0  0  0  0  0  0  0  0  0  0  0
  -10.4545   19.7756  -32.1688 H   0  0  0  0  0  0  0  0  0  0  0  0
   -9.3366   21.9593  -30.7362 H   0  0  0  0  0  0  0  0  0  0  0  0
   -9.4693   20.2056  -30.2463 H   0  0  0  0  0  0  0  0  0  0  0  0
   -4.2836   20.9908  -32.3188 H   0  0  0  0  0  0  0  0  0  0  0  0
   -2.0030   21.1794  -31.3338 H   0  0  0  0  0  0  0  0  0  0  0  0
    0.3436   21.4623  -28.7976 H   0  0  0  0  0  0  0  0  0  0  0  0
    2.0510   20.0498  -29.9459 H   0  0  0  0  0  0  0  0  0  0  0  0
    2.1124   17.5868  -29.5463 H   0  0  0  0  0  0  0  0  0  0  0  0
    0.4596   16.5289  -28.0019 H   0  0  0  0  0  0  0  0  0  0  0  0
   -1.2456   17.9343  -26.8431 H   0  0  0  0  0  0  0  0  0  0  0  0
   -0.9029   22.5121  -24.6921 H   0  0  0  0  0  0  0  0  0  0  0  0
  1  2  2  0
  2  3  1  0
  3  4  1  0
  4  5  2  0
  5  6  1  0
  6  7  2  0
  7  8  1  0
  8  9  2  0
  2 10  1  0
 10 11  1  0
 11 12  2  0
 12 13  1  0
 13 14  2  0
 14 15  1  0
 15 16  1  0
 16 17  2  0
 17 18  1  0
 18 19  2  0
 19 20  1  0
 20 21  2  0
 20 22  2  0
 20 23  1  0
 23 24  1  0
 24 25  1  0
 25 26  1  0
 26 27  1  0
 27 28  1  0
 19 29  1  0
 29 30  2  0
 14 31  1  0
 31 32  1  0
 32 33  2  0
 32 34  2  0
 32 35  1  0
 35 36  2  0
 36 37  1  0
 37 38  2  0
 38 39  1  0
 39 40  2  0
 31 41  2  0
  9  4  1  0
 41 11  1  0
 30 16  1  0
 40 35  1  0
 28 23  1  0
  3 42  1  0
  3 43  1  0
  5 44  1  0
  6 45  1  0
  7 46  1  0
  8 47  1  0
  9 48  1  0
 10 49  1  0
 12 50  1  0
 13 51  1  0
 17 52  1  0
 18 53  1  0
 24 54  1  0
 24 55  1  0
 25 56  1  0
 25 57  1  0
 27 58  1  0
 27 59  1  0
 28 60  1  0
 28 61  1  0
 29 62  1  0
 30 63  1  0
 36 64  1  0
 37 65  1  0
 38 66  1  0
 39 67  1  0
 40 68  1  0
 41 69  1  0
M  END
>  <UniqueID>  (9) 
7

>  <SMILES>  (9) 
O=C(Cc1ccccc1)Nc1ccc(Oc2ccc(S(=O)(=O)N3CCOCC3)cc2)c(S(=O)(=O)c2ccccc2)c1

>  <Energy>  (9) 
95.54210695526463

>  <Genealogy>  (9) 
O=C(Cc1ccccc1)Nc1ccc(Oc2ccc(S(=O)(=O)N3CCOCC3)cc2)c(S(=O)(=O)c2ccccc2)c1 (3D coordinates assigned)
O=C(Cc1ccccc1)Nc1ccc(Oc2ccc(S(=O)(=O)N3CCOCC3)cc2)c(S(=O)(=O)c2ccccc2)c1 (nonaromatic ring conformer: 95.54210695526463 kcal/mol)

>  <smiles>  (9) 
O=C(Cc1ccccc1)Nc1ccc(Oc2ccc(S(=O)(=O)N3CCOCC3)cc2)c(S(=O)(=O)c2ccccc2)c1

>  <score_type>  (9) 
oracle

>  <origin>  (9) 
adgpu

>  <m_score__min__energy>  (9) 
-11.640000000000001

>  <m_primary>  (9) 
energy

$$$$
9:0
     RDKit          3D

 44 46  0  0  0  0  0  0  0  0999 V2000
    0.9870   22.2980  -35.6820 C   0  0  0  0  0  0  0  0  0  0  0  0
    0.8010   21.9100  -34.3240 O   0  0  0  0  0  0  0  0  0  0  0  0
   -0.3580   21.2930  -33.8290 C   0  0  0  0  0  0  0  0  0  0  0  0
   -1.1550   20.4400  -34.6150 C   0  0  0  0  0  0  0  0  0  0  0  0
   -2.3030   19.8520  -34.0770 C   0  0  0  0  0  0  0  0  0  0  0  0
   -2.6730   20.1080  -32.7440 C   0  0  0  0  0  0  0  0  0  0  0  0
   -3.8460   19.5310  -32.1530 N   0  0  0  0  0  0  0  0  0  0  0  0
   -5.4650   20.1110  -32.3750 S   0  0  0  0  0  0  0  0  0  0  0  0
   -6.4270   19.1370  -31.7570 O   0  0  0  0  0  0  0  0  0  0  0  0
   -5.7520   20.2150  -33.8470 O   0  0  0  0  0  0  0  0  0  0  0  0
   -5.6530   21.6740  -31.5870 C   0  0  0  0  0  0  0  0  0  0  0  0
   -6.9140   22.0780  -31.1370 C   0  0  0  0  0  0  0  0  0  0  0  0
   -7.0700   23.3060  -30.4910 C   0  0  0  0  0  0  0  0  0  0  0  0
   -5.9670   24.1470  -30.3030 C   0  0  0  0  0  0  0  0  0  0  0  0
   -6.1990   25.6900  -29.4930 Cl  0  0  0  0  0  0  0  0  0  0  0  0
   -4.7010   23.7660  -30.7750 C   0  0  0  0  0  0  0  0  0  0  0  0
   -3.5790   24.6380  -30.5680 N   0  0  0  0  0  0  0  0  0  0  0  0
   -2.6560   24.5900  -29.4710 C   0  0  0  0  0  0  0  0  0  0  0  0
   -2.2810   25.6720  -28.9480 O   0  0  0  0  0  0  0  0  0  0  0  0
   -2.0570   23.3160  -29.0140 C   0  0  0  0  0  0  0  0  0  0  0  0
   -2.8920   22.1990  -28.8310 C   0  0  0  0  0  0  0  0  0  0  0  0
   -2.3580   20.9720  -28.4290 C   0  0  0  0  0  0  0  0  0  0  0  0
   -0.9870   20.8450  -28.2100 C   0  0  0  0  0  0  0  0  0  0  0  0
   -0.1460   21.9460  -28.3810 C   0  0  0  0  0  0  0  0  0  0  0  0
   -0.6680   23.1860  -28.7690 C   0  0  0  0  0  0  0  0  0  0  0  0
    0.2110   24.2660  -28.8730 O   0  0  0  0  0  0  0  0  0  0  0  0
   -4.5470   22.5130  -31.3960 C   0  0  0  0  0  0  0  0  0  0  0  0
   -1.8750   20.9510  -31.9640 C   0  0  0  0  0  0  0  0  0  0  0  0
   -0.7270   21.5390  -32.5020 C   0  0  0  0  0  0  0  0  0  0  0  0
    1.4622   23.2894  -35.7183 H   0  0  0  0  0  0  0  0  0  0  0  0
    1.6311   21.5639  -36.1882 H   0  0  0  0  0  0  0  0  0  0  0  0
    0.0113   22.3404  -36.1882 H   0  0  0  0  0  0  0  0  0  0  0  0
   -0.8729   20.2350  -35.6583 H   0  0  0  0  0  0  0  0  0  0  0  0
   -2.9199   19.1862  -34.6984 H   0  0  0  0  0  0  0  0  0  0  0  0
   -7.7861   21.4260  -31.2925 H   0  0  0  0  0  0  0  0  0  0  0  0
   -8.0622   23.6133  -30.1289 H   0  0  0  0  0  0  0  0  0  0  0  0
   -3.9740   22.2922  -29.0058 H   0  0  0  0  0  0  0  0  0  0  0  0
   -3.0200   20.1053  -28.2852 H   0  0  0  0  0  0  0  0  0  0  0  0
   -0.5674   19.8759  -27.9020 H   0  0  0  0  0  0  0  0  0  0  0  0
    0.9352   21.8386  -28.2096 H   0  0  0  0  0  0  0  0  0  0  0  0
   -0.0980   25.2210  -28.9970 H   0  0  0  0  0  0  0  0  0  0  0  0
   -3.5514   22.1897  -31.7340 H   0  0  0  0  0  0  0  0  0  0  0  0
   -2.1531   21.1528  -30.9190 H   0  0  0  0  0  0  0  0  0  0  0  0
   -0.1087   22.2004  -31.8773 H   0  0  0  0  0  0  0  0  0  0  0  0
  1  2  1  0
  2  3  1  0
  3  4  2  0
  4  5  1  0
  5  6  2  0
  6  7  1  0
  7  8  1  0
  8  9  2  0
  8 10  2  0
  8 11  1  0
 11 12  2  0
 12 13  1  0
 13 14  2  0
 14 15  1  0
 14 16  1  0
 16 17  1  0
 17 18  1  0
 18 19  2  0
 18 20  1  0
 20 21  2  0
 21 22  1  0
 22 23  2  0
 23 24  1  0
 24 25  2  0
 25 26  1  0
 16 27  2  0
  6 28  1  0
 28 29  2  0
 29  3  1  0
 27 11  1  0
 25 20  1  0
  1 30  1  0
  1 31  1  0
  1 32  1  0
  4 33  1  0
  5 34  1  0
 12 35  1  0
 13 36  1  0
 21 37  1  0
 22 38  1  0
 23 39  1  0
 24 40  1  0
 26 41  1  0
 27 42  1  0
 28 43  1  0
 29 44  1  0
M  CHG  2   7  -1  17  -1
M  END
>  <UniqueID>  (10) 
8

>  <SMILES>  (10) 
COc1ccc([N-]S(=O)(=O)c2ccc(Cl)c([N-]C(=O)c3ccccc3O)c2)cc1

>  <Energy>  (10) 
58.40508831806072

>  <Genealogy>  (10) 
COc1ccc([N-]S(=O)(=O)c2ccc(Cl)c([N-]C(=O)c3ccccc3O)c2)cc1 (protonated)
COc1ccc([N-]S(=O)(=O)c2ccc(Cl)c([N-]C(=O)c3ccccc3O)c2)cc1 (3D coordinates assigned)
COc1ccc([N-]S(=O)(=O)c2ccc(Cl)c([N-]C(=O)c3ccccc3O)c2)cc1 (optimized conformer: 58.40508831806072 kcal/mol)

>  <smiles>  (10) 
COc1ccc(NS(=O)(=O)c2ccc(Cl)c(NC(=O)c3ccccc3O)c2)cc1

>  <score_type>  (10) 
oracle

>  <origin>  (10) 
adgpu

>  <m_score__min__energy>  (10) 
-10.56

>  <m_primary>  (10) 
energy

$$$$
10:0
     RDKit          3D

 50 53  0  0  0  0  0  0  0  0999 V2000
   -4.2170   22.2860  -33.5530 O   0  0  0  0  0  0  0  0  0  0  0  0
   -4.3830   22.2430  -32.0590 S   0  0  0  0  0  0  0  0  0  0  0  0
   -3.9260   23.5540  -31.4800 O   0  0  0  0  0  0  0  0  0  0  0  0
   -6.0920   22.0040  -31.7010 C   0  0  0  0  0  0  0  0  0  0  0  0
   -6.9390   21.3820  -32.6310 C   0  0  0  0  0  0  0  0  0  0  0  0
   -8.2980   21.2170  -32.3420 C   0  0  0  0  0  0  0  0  0  0  0  0
   -8.8170   21.6760  -31.1270 C   0  0  0  0  0  0  0  0  0  0  0  0
   -7.9780   22.3020  -30.2010 C   0  0  0  0  0  0  0  0  0  0  0  0
   -6.6200   22.4680  -30.4870 C   0  0  0  0  0  0  0  0  0  0  0  0
   -3.4590   20.9200  -31.3810 N   0  0  1  0  0  0  0  0  0  0  0  0
   -3.3440   19.7730  -32.3180 C   0  0  0  0  0  0  0  0  0  0  0  0
   -4.6470   19.0540  -32.6170 C   0  0  0  0  0  0  0  0  0  0  0  0
   -5.5380   18.7360  -31.5780 C   0  0  0  0  0  0  0  0  0  0  0  0
   -6.7440   18.0840  -31.8520 C   0  0  0  0  0  0  0  0  0  0  0  0
   -7.0840   17.7640  -33.1680 C   0  0  0  0  0  0  0  0  0  0  0  0
   -6.2250   18.1110  -34.2130 C   0  0  0  0  0  0  0  0  0  0  0  0
   -5.0190   18.7630  -33.9420 C   0  0  0  0  0  0  0  0  0  0  0  0
   -2.1630   21.4220  -30.8680 C   0  0  0  0  0  0  0  0  0  0  0  0
   -2.3140   22.3910  -29.7120 C   0  0  0  0  0  0  0  0  0  0  0  0
   -3.3510   22.2160  -28.7750 C   0  0  0  0  0  0  0  0  0  0  0  0
   -3.4760   23.0820  -27.6840 C   0  0  0  0  0  0  0  0  0  0  0  0
   -2.5500   24.1110  -27.5020 C   0  0  0  0  0  0  0  0  0  0  0  0
   -1.5090   24.2890  -28.4200 C   0  0  0  0  0  0  0  0  0  0  0  0
   -1.3710   23.4160  -29.5040 C   0  0  0  0  0  0  0  0  0  0  0  0
   -0.6100   25.3430  -28.2330 O   0  0  0  0  0  0  0  0  0  0  0  0
   -0.8900   26.3950  -27.3060 C   0  0  0  0  0  0  0  0  0  0  0  0
   -1.5540   25.8270  -26.0440 C   0  0  0  0  0  0  0  0  0  0  0  0
   -2.6400   24.9690  -26.4010 O   0  0  0  0  0  0  0  0  0  0  0  0
   -6.5338   21.0236  -33.5888 H   0  0  0  0  0  0  0  0  0  0  0  0
   -8.9590   20.7257  -33.0712 H   0  0  0  0  0  0  0  0  0  0  0  0
   -9.8853   21.5443  -30.9003 H   0  0  0  0  0  0  0  0  0  0  0  0
   -8.3868   22.6644  -29.2462 H   0  0  0  0  0  0  0  0  0  0  0  0
   -5.9630   22.9642  -29.7576 H   0  0  0  0  0  0  0  0  0  0  0  0
   -4.0310   20.5870  -30.5720 H   0  0  0  0  0  0  0  0  0  0  0  0
   -2.9359   20.1484  -33.2680 H   0  0  0  0  0  0  0  0  0  0  0  0
   -2.6938   19.0366  -31.8231 H   0  0  0  0  0  0  0  0  0  0  0  0
   -5.2847   19.0021  -30.5412 H   0  0  0  0  0  0  0  0  0  0  0  0
   -7.4261   17.8227  -31.0296 H   0  0  0  0  0  0  0  0  0  0  0  0
   -8.0270   17.2394  -33.3813 H   0  0  0  0  0  0  0  0  0  0  0  0
   -6.4981   17.8707  -35.2511 H   0  0  0  0  0  0  0  0  0  0  0  0
   -4.3557   19.0508  -34.7710 H   0  0  0  0  0  0  0  0  0  0  0  0
   -1.5649   20.5634  -30.5288 H   0  0  0  0  0  0  0  0  0  0  0  0
   -1.6747   21.9665  -31.6896 H   0  0  0  0  0  0  0  0  0  0  0  0
   -4.0682   21.3917  -28.9024 H   0  0  0  0  0  0  0  0  0  0  0  0
   -4.3028   22.9526  -26.9701 H   0  0  0  0  0  0  0  0  0  0  0  0
   -0.5236   23.5304  -30.1959 H   0  0  0  0  0  0  0  0  0  0  0  0
    0.0500   26.8945  -27.0285 H   0  0  0  0  0  0  0  0  0  0  0  0
   -1.5737   27.1163  -27.7775 H   0  0  0  0  0  0  0  0  0  0  0  0
   -0.8116   25.2535  -25.4696 H   0  0  0  0  0  0  0  0  0  0  0  0
   -1.9388   26.6588  -25.4356 H   0  0  0  0  0  0  0  0  0  0  0  0
  1  2  2  0
  2  3  2  0
  2  4  1  0
  4  5  2  0
  5  6  1  0
  6  7  2  0
  7  8  1  0
  8  9  2  0
  2 10  1  0
 10 11  1  0
 11 12  1  0
 12 13  2  0
 13 14  1  0
 14 15  2  0
 15 16  1  0
 16 17  2  0
 10 18  1  0
 18 19  1  0
 19 20  2  0
 20 21  1  0
 21 22  2  0
 22 23  1  0
 23 24  2  0
 23 25  1  0
 25 26  1  0
 26 27  1  0
 27 28  1  0
  9  4  1  0
 17 12  1  0
 24 19  1  0
 28 22  1  0
  5 29  1  0
  6 30  1  0
  7 31  1  0
  8 32  1  0
  9 33  1  0
 10 34  1  1
 11 35  1  0
 11 36  1  0
 13 37  1  0
 14 38  1  0
 15 39  1  0
 16 40  1  0
 17 41  1  0
 18 42  1  0
 18 43  1  0
 20 44  1  0
 21 45  1  0
 24 46  1  0
 26 47  1  0
 26 48  1  0
 27 49  1  0
 27 50  1  0
M  CHG  1  10   1
M  END
>  <UniqueID>  (11) 
9

>  <SMILES>  (11) 
O=S(=O)(c1ccccc1)[N@@H+](Cc1ccccc1)Cc1ccc2c(c1)OCCO2

>  <Energy>  (11) 
58.66328843166407

>  <Genealogy>  (11) 
O=S(=O)(c1ccccc1)[NH+](Cc1ccccc1)Cc1ccc2c(c1)OCCO2 (protonated)
O=S(=O)(c1ccccc1)[N@@H+](Cc1ccccc1)Cc1ccc2c(c1)OCCO2 (chirality)
O=S(=O)(c1ccccc1)[N@@H+](Cc1ccccc1)Cc1ccc2c(c1)OCCO2 (3D coordinates assigned)
O=S(=O)(c1ccccc1)[N@@H+](Cc1ccccc1)Cc1ccc2c(c1)OCCO2 (nonaromatic ring conformer: 58.66328843166407 kcal/mol)

>  <smiles>  (11) 
O=S(=O)(c1ccccc1)N(Cc1ccccc1)Cc1ccc2c(c1)OCCO2

>  <score_type>  (11) 
oracle

>  <origin>  (11) 
adgpu

>  <m_score__min__energy>  (11) 
-8.3499999999999996

>  <m_primary>  (11) 
energy

$$$$
11:0
     RDKit          3D

 41 43  0  0  1  0  0  0  0  0999 V2000
   -1.7270   20.6030  -30.7140 N   0  0  0  0  0  0  0  0  0  0  0  0
   -2.4580   20.1740  -31.5220 C   0  0  0  0  0  0  0  0  0  0  0  0
   -3.3460   19.6390  -32.5180 C   0  0  0  0  0  0  0  0  0  0  0  0
   -2.7960   19.0580  -33.6660 C   0  0  0  0  0  0  0  0  0  0  0  0
   -3.6420   18.5610  -34.5930 N   0  0  0  0  0  0  0  0  0  0  0  0
   -4.9810   18.5980  -34.4570 C   0  0  0  0  0  0  0  0  0  0  0  0
   -5.7410   18.1050  -35.3770 N   0  0  0  0  0  0  0  0  0  0  0  0
   -5.5070   19.1740  -33.3170 C   0  0  0  0  0  0  0  0  0  0  0  0
   -6.9440   19.1930  -33.2130 N   0  0  0  0  0  0  0  0  0  0  0  0
   -7.5640   20.1020  -32.5500 C   0  0  0  0  0  0  0  0  0  0  0  0
   -8.9420   20.0760  -32.4800 C   0  0  0  0  0  0  0  0  0  0  0  0
   -9.5490   21.0810  -31.7520 C   0  0  0  0  0  0  0  0  0  0  0  0
   -8.7800   22.0320  -31.1470 N   0  0  0  0  0  0  0  0  0  0  0  0
   -7.4400   22.0050  -31.2510 C   0  0  0  0  0  0  0  0  0  0  0  0
   -6.6620   23.0090  -30.6100 N   0  0  0  0  0  0  0  0  0  0  0  0
   -6.8090   24.4070  -30.9520 C   0  0  0  0  0  0  0  0  0  0  0  0
   -6.3000   25.2140  -29.7660 C   0  0  0  0  0  0  0  0  0  0  0  0
   -4.7970   25.0020  -29.7070 C   0  0  0  0  0  0  0  0  0  0  0  0
   -4.2190   25.6870  -30.8430 N   0  0  0  0  0  0  0  0  0  0  0  0
   -4.4740   23.5330  -29.8310 C   0  0  0  0  0  0  0  0  0  0  0  0
   -5.6950   22.6680  -29.5940 C   0  0  0  0  0  0  0  0  0  0  0  0
   -6.8120   21.0420  -31.9510 N   0  0  0  0  0  0  0  0  0  0  0  0
   -4.7100   19.7070  -32.3200 C   0  0  0  0  0  0  0  0  0  0  0  0
   -1.7065   19.0078  -33.8088 H   0  0  0  0  0  0  0  0  0  0  0  0
   -3.2370   18.1220  -35.4620 H   0  0  0  0  0  0  0  0  0  0  0  0
   -6.7870   18.1370  -35.2650 H   0  0  0  0  0  0  0  0  0  0  0  0
   -9.5294   19.2920  -32.9803 H   0  0  0  0  0  0  0  0  0  0  0  0
  -10.6447   21.1143  -31.6607 H   0  0  0  0  0  0  0  0  0  0  0  0
   -9.3090   22.7520  -30.6190 H   0  0  0  0  0  0  0  0  0  0  0  0
   -6.2167   24.6402  -31.8491 H   0  0  0  0  0  0  0  0  0  0  0  0
   -7.8602   24.6488  -31.1678 H   0  0  0  0  0  0  0  0  0  0  0  0
   -6.5271   26.2809  -29.9079 H   0  0  0  0  0  0  0  0  0  0  0  0
   -6.7822   24.8913  -28.8315 H   0  0  0  0  0  0  0  0  0  0  0  0
   -4.4013   25.3813  -28.7533 H   0  0  0  0  0  0  0  0  0  0  0  0
   -3.1750   25.6730  -30.8150 H   0  0  0  0  0  0  0  0  0  0  0  0
   -4.5300   25.3170  -31.7470 H   0  0  0  0  0  0  0  0  0  0  0  0
   -4.0893   23.3369  -30.8427 H   0  0  0  0  0  0  0  0  0  0  0  0
   -3.7229   23.2818  -29.0677 H   0  0  0  0  0  0  0  0  0  0  0  0
   -5.4247   21.6046  -29.6724 H   0  0  0  0  0  0  0  0  0  0  0  0
   -6.1069   22.8402  -28.5887 H   0  0  0  0  0  0  0  0  0  0  0  0
   -5.1412   20.1616  -31.4159 H   0  0  0  0  0  0  0  0  0  0  0  0
  1  2  3  0
  2  3  1  0
  3  4  2  0
  4  5  1  0
  5  6  1  0
  6  7  2  3
  6  8  1  0
  8  9  1  0
  9 10  2  0
 10 11  1  0
 11 12  2  0
 12 13  1  0
 13 14  1  0
 14 15  1  0
 15 16  1  0
 16 17  1  0
 17 18  1  0
 18 19  1  0
 18 20  1  0
 20 21  1  0
 14 22  2  0
  8 23  2  0
 23  3  1  0
 22 10  1  0
 21 15  1  0
  4 24  1  0
  5 25  1  0
  7 26  1  0
 11 27  1  0
 12 28  1  0
 13 29  1  0
 16 30  1  0
 16 31  1  0
 17 32  1  0
 17 33  1  0
 18 34  1  0
 19 35  1  0
 19 36  1  0
 20 37  1  0
 20 38  1  0
 21 39  1  0
 21 40  1  0
 23 41  1  0
M  END
>  <smiles>  (12) 
N#Cc1c[nH]c(=N)c(N=c2cc[nH]c(N3CCC(N)CC3)n2)c1

>  <score_type>  (12) 
oracle

>  <origin>  (12) 
adgpu

>  <m_score__min__energy>  (12) 
-8.5600000000000005

>  <m_primary>  (12) 
energy

$$$$
12:0
     RDKit          3D

 37 39  0  0  0  0  0  0  0  0999 V2000
   -8.0990   19.1180  -32.3770 C   0  0  0  0  0  0  0  0  0  0  0  0
   -7.8410   20.3820  -32.9800 O   0  0  0  0  0  0  0  0  0  0  0  0
   -7.2450   21.4710  -32.3240 C   0  0  0  0  0  0  0  0  0  0  0  0
   -8.0040   22.5320  -31.7940 C   0  0  0  0  0  0  0  0  0  0  0  0
   -7.3750   23.5930  -31.1420 C   0  0  0  0  0  0  0  0  0  0  0  0
   -5.9820   23.6130  -31.0100 C   0  0  0  0  0  0  0  0  0  0  0  0
   -5.1910   24.9400  -30.1630 S   0  0  0  0  0  0  0  0  0  0  0  0
   -5.4340   24.8420  -28.6830 O   0  0  0  0  0  0  0  0  0  0  0  0
   -5.7490   26.2400  -30.6680 O   0  0  0  0  0  0  0  0  0  0  0  0
   -3.4830   24.9040  -30.4570 N   0  0  0  0  0  0  0  0  0  0  0  0
   -2.5180   24.2390  -29.6300 C   0  0  0  0  0  0  0  0  0  0  0  0
   -2.7890   22.9140  -29.2100 C   0  0  0  0  0  0  0  0  0  0  0  0
   -1.8820   22.2180  -28.3890 C   0  0  0  0  0  0  0  0  0  0  0  0
   -0.7180   22.8800  -28.0110 C   0  0  0  0  0  0  0  0  0  0  0  0
    0.2840   22.4290  -27.2450 N   0  0  0  0  0  0  0  0  0  0  0  0
    1.1440   23.4740  -27.2100 C   0  0  0  0  0  0  0  0  0  0  0  0
    2.2330   23.4400  -26.5780 O   0  0  0  0  0  0  0  0  0  0  0  0
    0.7380   24.5620  -27.9130 N   0  0  0  0  0  0  0  0  0  0  0  0
   -0.4450   24.1550  -28.4100 C   0  0  0  0  0  0  0  0  0  0  0  0
   -1.3170   24.8730  -29.2240 C   0  0  0  0  0  0  0  0  0  0  0  0
   -5.2210   22.5680  -31.5460 C   0  0  0  0  0  0  0  0  0  0  0  0
   -5.8460   21.4890  -32.1970 C   0  0  0  0  0  0  0  0  0  0  0  0
   -5.1150   20.4160  -32.7320 O   0  0  0  0  0  0  0  0  0  0  0  0
   -3.7420   20.4830  -33.1050 C   0  0  0  0  0  0  0  0  0  0  0  0
   -8.0776   19.2228  -31.2822 H   0  0  0  0  0  0  0  0  0  0  0  0
   -9.0893   18.7570  -32.6915 H   0  0  0  0  0  0  0  0  0  0  0  0
   -7.3293   18.3978  -32.6915 H   0  0  0  0  0  0  0  0  0  0  0  0
   -9.0994   22.5243  -31.8946 H   0  0  0  0  0  0  0  0  0  0  0  0
   -7.9763   24.4169  -30.7302 H   0  0  0  0  0  0  0  0  0  0  0  0
   -3.7199   22.4226  -29.5294 H   0  0  0  0  0  0  0  0  0  0  0  0
   -2.0858   21.1888  -28.0585 H   0  0  0  0  0  0  0  0  0  0  0  0
    0.3800   21.4960  -26.7870 H   0  0  0  0  0  0  0  0  0  0  0  0
   -1.0815   25.8994  -29.5419 H   0  0  0  0  0  0  0  0  0  0  0  0
   -4.1248   22.5906  -31.4575 H   0  0  0  0  0  0  0  0  0  0  0  0
   -3.1173   20.5135  -32.2001 H   0  0  0  0  0  0  0  0  0  0  0  0
   -3.4804   19.5966  -33.7015 H   0  0  0  0  0  0  0  0  0  0  0  0
   -3.5680   21.3907  -33.7015 H   0  0  0  0  0  0  0  0  0  0  0  0
  1  2  1  0
  2  3  1  0
  3  4  2  0
  4  5  1  0
  5  6  2  0
  6  7  1  0
  7  8  2  0
  7  9  2  0
  7 10  1  0
 10 11  1  0
 11 12  2  0
 12 13  1  0
 13 14  2  0
 14 15  1  0
 15 16  1  0
 16 17  2  0
 16 18  1  0
 18 19  1  0
 19 20  2  0
  6 21  1  0
 21 22  2  0
 22 23  1  0
 23 24  1  0
 22  3  1  0
 20 11  1  0
 19 14  1  0
  1 25  1  0
  1 26  1  0
  1 27  1  0
  4 28  1  0
  5 29  1  0
 12 30  1  0
 13 31  1  0
 15 32  1  0
 20 33  1  0
 21 34  1  0
 24 35  1  0
 24 36  1  0
 24 37  1  0
M  CHG  2  10  -1  18  -1
M  END
>  <UniqueID>  (13) 
10

>  <SMILES>  (13) 
COc1ccc(S(=O)(=O)[N-]c2ccc3[nH]c(=O)[n-]c3c2)cc1OC

>  <Energy>  (13) 
77.99086211363804

>  <Genealogy>  (13) 
COc1ccc(S(=O)(=O)[N-]c2ccc3[nH]c(=O)[n-]c3c2)cc1OC (protonated)
COc1ccc(S(=O)(=O)[N-]c2ccc3[nH]c(=O)[n-]c3c2)cc1OC (3D coordinates assigned)
COc1ccc(S(=O)(=O)[N-]c2ccc3[nH]c(=O)[n-]c3c2)cc1OC (optimized conformer: 77.99086211363804 kcal/mol)

>  <smiles>  (13) 
COc1ccc(S(=O)(=O)Nc2ccc3[nH]c(=O)[nH]c3c2)cc1OC

>  <score_type>  (13) 
oracle

>  <origin>  (13) 
adgpu

>  <m_score__min__energy>  (13) 
-9.0700000000000003

>  <m_primary>  (13) 
energy

$$$$
13:0
     RDKit          3D

 56 59  0  0  0  0  0  0  0  0999 V2000
   -0.1930   20.1540  -35.4430 O   0  0  0  0  0  0  0  0  0  0  0  0
   -0.4590   19.8080  -34.2620 C   0  0  0  0  0  0  0  0  0  0  0  0
    0.6250   19.5630  -33.3530 N   0  0  0  0  0  0  0  0  0  0  0  0
    0.4940   19.1580  -31.9830 C   0  0  0  0  0  0  0  0  0  0  0  0
    1.1520   18.0010  -31.5530 C   0  0  0  0  0  0  0  0  0  0  0  0
    1.0330   17.5740  -30.2270 C   0  0  0  0  0  0  0  0  0  0  0  0
    0.2730   18.3130  -29.3170 C   0  0  0  0  0  0  0  0  0  0  0  0
   -0.3530   19.5060  -29.7210 C   0  0  0  0  0  0  0  0  0  0  0  0
   -1.1480   20.2830  -28.8080 N   0  0  0  0  0  0  0  0  0  0  0  0
   -1.2920   21.7120  -28.8660 C   0  0  0  0  0  0  0  0  0  0  0  0
   -0.4770   22.5190  -28.0660 C   0  0  0  0  0  0  0  0  0  0  0  0
   -0.6150   23.9070  -28.0910 C   0  0  0  0  0  0  0  0  0  0  0  0
   -1.5780   24.5140  -28.9020 C   0  0  0  0  0  0  0  0  0  0  0  0
   -1.6080   25.9100  -28.9400 O   0  0  0  0  0  0  0  0  0  0  0  0
   -2.4570   23.7070  -29.6700 C   0  0  0  0  0  0  0  0  0  0  0  0
   -3.5750   24.2690  -30.4610 C   0  0  0  0  0  0  0  0  0  0  0  0
   -4.2290   23.5470  -31.2610 O   0  0  0  0  0  0  0  0  0  0  0  0
   -3.8690   25.6260  -30.3810 O   0  0  0  0  0  0  0  0  0  0  0  0
   -2.2920   22.3100  -29.6500 C   0  0  0  0  0  0  0  0  0  0  0  0
   -0.2440   19.9170  -31.0580 C   0  0  0  0  0  0  0  0  0  0  0  0
   -1.8720   19.6250  -33.8580 C   0  0  0  0  0  0  0  0  0  0  0  0
   -2.5740   20.6590  -33.2150 C   0  0  0  0  0  0  0  0  0  0  0  0
   -3.9160   20.4910  -32.8670 C   0  0  0  0  0  0  0  0  0  0  0  0
   -4.5780   19.2920  -33.1620 C   0  0  0  0  0  0  0  0  0  0  0  0
   -6.2770   19.0900  -32.7350 S   0  0  0  0  0  0  0  0  0  0  0  0
   -6.3700   18.7070  -31.2840 O   0  0  0  0  0  0  0  0  0  0  0  0
   -6.8480   17.9570  -33.5430 O   0  0  0  0  0  0  0  0  0  0  0  0
   -7.2320   20.5300  -33.0130 N   0  0  0  0  0  0  0  0  0  0  0  0
   -6.6470   21.7480  -32.4170 C   0  0  0  0  0  0  0  0  0  0  0  0
   -7.1640   22.0190  -30.9970 C   0  0  0  0  0  0  0  0  0  0  0  0
   -8.5740   22.0200  -30.9740 O   0  0  0  0  0  0  0  0  0  0  0  0
   -9.0400   20.7260  -31.2870 C   0  0  0  0  0  0  0  0  0  0  0  0
   -8.6690   20.3510  -32.7280 C   0  0  0  0  0  0  0  0  0  0  0  0
   -3.8710   18.2440  -33.7670 C   0  0  0  0  0  0  0  0  0  0  0  0
   -2.5270   18.4080  -34.1110 C   0  0  0  0  0  0  0  0  0  0  0  0
    1.7656   17.4247  -32.2610 H   0  0  0  0  0  0  0  0  0  0  0  0
    1.5390   16.6539  -29.8994 H   0  0  0  0  0  0  0  0  0  0  0  0
    0.1638   17.9606  -28.2807 H   0  0  0  0  0  0  0  0  0  0  0  0
   -1.6530   19.7760  -28.0480 H   0  0  0  0  0  0  0  0  0  0  0  0
    0.2777   22.0565  -27.4129 H   0  0  0  0  0  0  0  0  0  0  0  0
    0.0411   24.5304  -27.4658 H   0  0  0  0  0  0  0  0  0  0  0  0
   -2.4620   26.4510  -28.9590 H   0  0  0  0  0  0  0  0  0  0  0  0
   -2.9558   21.6770  -30.2572 H   0  0  0  0  0  0  0  0  0  0  0  0
   -0.7408   20.8421  -31.3857 H   0  0  0  0  0  0  0  0  0  0  0  0
   -2.0636   21.6058  -32.9846 H   0  0  0  0  0  0  0  0  0  0  0  0
   -4.4557   21.3038  -32.3590 H   0  0  0  0  0  0  0  0  0  0  0  0
   -5.5540   21.6304  -32.3773 H   0  0  0  0  0  0  0  0  0  0  0  0
   -6.9414   22.6007  -33.0465 H   0  0  0  0  0  0  0  0  0  0  0  0
   -6.7920   21.2350  -30.3210 H   0  0  0  0  0  0  0  0  0  0  0  0
   -6.8033   23.0055  -30.6705 H   0  0  0  0  0  0  0  0  0  0  0  0
   -8.5845   20.0011  -30.5963 H   0  0  0  0  0  0  0  0  0  0  0  0
  -10.1354   20.7105  -31.1878 H   0  0  0  0  0  0  0  0  0  0  0  0
   -8.9319   19.2961  -32.8956 H   0  0  0  0  0  0  0  0  0  0  0  0
   -9.2260   21.0216  -33.3989 H   0  0  0  0  0  0  0  0  0  0  0  0
   -4.3763   17.2886  -33.9718 H   0  0  0  0  0  0  0  0  0  0  0  0
   -1.9783   17.5795  -34.5827 H   0  0  0  0  0  0  0  0  0  0  0  0
  1  2  2  0
  2  3  1  0
  3  4  1  0
  4  5  2  0
  5  6  1  0
  6  7  2  0
  7  8  1  0
  8  9  1  0
  9 10  1  0
 10 11  2  0
 11 12  1  0
 12 13  2  0
 13 14  1  0
 13 15  1  0
 15 16  1  0
 16 17  2  0
 16 18  1  0
 15 19  2  0
  8 20  2  0
  2 21  1  0
 21 22  2  0
 22 23  1  0
 23 24  2  0
 24 25  1  0
 25 26  2  0
 25 27  2  0
 25 28  1  0
 28 29  1  0
 29 30  1  0
 30 31  1  0
 31 32  1  0
 32 33  1  0
 24 34  1  0
 34 35  2  0
 20  4  1  0
 35 21  1  0
 19 10  1  0
 33 28  1  0
  5 36  1  0
  6 37  1  0
  7 38  1  0
  9 39  1  0
 11 40  1  0
 12 41  1  0
 14 42  1  0
 19 43  1  0
 20 44  1  0
 22 45  1  0
 23 46  1  0
 29 47  1  0
 29 48  1  0
 30 49  1  0
 30 50  1  0
 32 51  1  0
 32 52  1  0
 33 53  1  0
 33 54  1  0
 34 55  1  0
 35 56  1  0
M  CHG  2   3  -1  18  -1
M  END
>  <UniqueID>  (14) 
11

>  <SMILES>  (14) 
O=C([N-]c1cccc(Nc2ccc(O)c(C(=O)[O-])c2)c1)c1ccc(S(=O)(=O)N2CCOCC2)cc1

>  <Energy>  (14) 
80.0347905985462

>  <Genealogy>  (14) 
O=C([N-]c1cccc(Nc2ccc(O)c(C(=O)[O-])c2)c1)c1ccc(S(=O)(=O)N2CCOCC2)cc1 (protonated)
O=C([N-]c1cccc(Nc2ccc(O)c(C(=O)[O-])c2)c1)c1ccc(S(=O)(=O)N2CCOCC2)cc1 (3D coordinates assigned)
O=C([N-]c1cccc(Nc2ccc(O)c(C(=O)[O-])c2)c1)c1ccc(S(=O)(=O)N2CCOCC2)cc1 (nonaromatic ring conformer: 80.0347905985462 kcal/mol)

>  <smiles>  (14) 
O=C(Nc1cccc(Nc2ccc(O)c(C(=O)O)c2)c1)c1ccc(S(=O)(=O)N2CCOCC2)cc1

>  <score_type>  (14) 
oracle

>  <origin>  (14) 
adgpu

>  <m_score__min__energy>  (14) 
-12.35

>  <m_primary>  (14) 
energy

$$$$
14:0
     RDKit          3D

 29 31  0  0  0  0  0  0  0  0999 V2000
   -5.4688   22.8679  -32.0221 H   0  0  0  0  0  0  0  0  0  0  0  0
   -6.1340   23.4250  -31.3460 C   0  0  0  0  0  0  0  0  0  0  0  0
   -5.6550   24.6910  -30.7640 C   0  0  0  0  0  0  0  0  0  0  0  0
   -6.5010   25.5780  -30.4770 O   0  0  0  0  0  0  0  0  0  0  0  0
   -4.2500   24.8980  -30.5320 N   0  0  0  0  0  0  0  0  0  0  0  0
   -3.5870   24.6920  -29.4310 C   0  0  0  0  0  0  0  0  0  0  0  0
   -2.2620   24.9280  -29.3440 N   0  0  0  0  0  0  0  0  0  0  0  0
   -1.7730   24.6440  -28.1050 C   0  0  0  0  0  0  0  0  0  0  0  0
   -0.3480   24.8280  -27.7800 C   0  0  0  0  0  0  0  0  0  0  0  0
    0.7160   24.0520  -28.1990 C   0  0  0  0  0  0  0  0  0  0  0  0
    0.6422   23.1679  -28.8493 H   0  0  0  0  0  0  0  0  0  0  0  0
    1.8300   24.5370  -27.6980 O   0  0  0  0  0  0  0  0  0  0  0  0
    1.5470   25.5940  -26.9710 C   0  0  0  0  0  0  0  0  0  0  0  0
    2.2844   26.2050  -26.4297 H   0  0  0  0  0  0  0  0  0  0  0  0
    0.1870   25.8230  -26.9880 C   0  0  0  0  0  0  0  0  0  0  0  0
   -0.3575   26.6305  -26.4767 H   0  0  0  0  0  0  0  0  0  0  0  0
   -2.7190   24.1760  -27.1920 C   0  0  0  0  0  0  0  0  0  0  0  0
   -2.5249   23.8935  -26.1468 H   0  0  0  0  0  0  0  0  0  0  0  0
   -4.2090   24.1200  -27.9720 S   0  0  0  0  0  0  0  0  0  0  0  0
   -7.3470   22.9280  -31.0830 C   0  0  0  0  0  0  0  0  0  0  0  0
   -8.0186   23.4796  -30.4086 H   0  0  0  0  0  0  0  0  0  0  0  0
   -7.8050   21.6610  -31.6740 C   0  0  0  0  0  0  0  0  0  0  0  0
   -7.0330   20.8110  -32.3120 O   0  0  0  0  0  0  0  0  0  0  0  0
   -7.7680   19.7950  -32.7050 C   0  0  0  0  0  0  0  0  0  0  0  0
   -7.3967   18.9240  -33.2650 H   0  0  0  0  0  0  0  0  0  0  0  0
   -9.0760   19.9860  -32.3090 C   0  0  0  0  0  0  0  0  0  0  0  0
   -9.9262   19.3115  -32.4884 H   0  0  0  0  0  0  0  0  0  0  0  0
   -9.1020   21.1930  -31.6430 C   0  0  0  0  0  0  0  0  0  0  0  0
   -9.9744   21.6805  -31.1833 H   0  0  0  0  0  0  0  0  0  0  0  0
  1  2  1  0
  2  3  1  0
  3  4  2  0
  3  5  1  0
  5  6  2  0
  6  7  1  0
  7  8  1  0
  8  9  1  0
  9 10  2  0
 10 11  1  0
 10 12  1  0
 12 13  1  0
 13 14  1  0
 13 15  2  0
 15 16  1  0
  8 17  2  0
 17 18  1  0
 17 19  1  0
  2 20  2  0
 20 21  1  0
 20 22  1  0
 22 23  1  0
 23 24  1  0
 24 25  1  0
 24 26  2  0
 26 27  1  0
 26 28  1  0
 28 29  1  0
 19  6  1  0
 28 22  2  0
 15  9  1  0
M  CHG  1   7  -1
M  END
>  <UniqueID>  (15) 
12

>  <SMILES>  (15) 
O=C(/C=C/c1ccco1)/N=c1/[n-]c(-c2ccoc2)cs1

>  <Energy>  (15) 
114.22091865075986

>  <Genealogy>  (15) 
O=C(C=Cc1ccco1)N=c1[n-]c(-c2ccoc2)cs1 (protonated)
O=C(/C=C/c1ccco1)/N=c1/[n-]c(-c2ccoc2)cs1 (cis-trans isomerization)
O=C(/C=C/c1ccco1)/N=c1/[n-]c(-c2ccoc2)cs1 (3D coordinates assigned)
O=C(/C=C/c1ccco1)/N=c1/[n-]c(-c2ccoc2)cs1 (optimized conformer: 114.22091865075986 kcal/mol)

>  <smiles>  (15) 
O=C(C=Cc1ccco1)N=c1[nH]c(-c2ccoc2)cs1

>  <score_type>  (15) 
oracle

>  <origin>  (15) 
adgpu

>  <m_score__min__energy>  (15) 
-8.4399999999999995

>  <m_primary>  (15) 
energy

$$$$
15:0
     RDKit          3D

 38 40  0  0  0  0  0  0  0  0999 V2000
   -6.7980   17.1010  -33.0890 C   0  0  0  0  0  0  0  0  0  0  0  0
   -7.2560   18.4830  -32.6990 C   0  0  0  0  0  0  0  0  0  0  0  0
   -8.5550   18.6470  -32.1900 C   0  0  0  0  0  0  0  0  0  0  0  0
   -9.0160   19.9070  -31.8170 C   0  0  0  0  0  0  0  0  0  0  0  0
   -8.1940   21.0210  -31.9550 C   0  0  0  0  0  0  0  0  0  0  0  0
   -6.8940   20.8920  -32.4730 C   0  0  0  0  0  0  0  0  0  0  0  0
   -6.0530   22.0470  -32.6180 N   0  0  0  0  0  0  0  0  0  0  0  0
   -6.1400   23.2560  -31.8510 C   0  0  0  0  0  0  0  0  0  0  0  0
   -7.2400   23.8650  -31.8000 O   0  0  0  0  0  0  0  0  0  0  0  0
   -4.9990   23.7710  -31.0710 C   0  0  0  0  0  0  0  0  0  0  0  0
   -4.2840   23.0920  -30.1060 C   0  0  0  0  0  0  0  0  0  0  0  0
   -3.3540   24.0130  -29.6680 C   0  0  0  0  0  0  0  0  0  0  0  0
   -2.3660   23.8070  -28.5850 C   0  0  0  0  0  0  0  0  0  0  0  0
   -2.4070   22.6090  -27.8480 C   0  0  0  0  0  0  0  0  0  0  0  0
   -1.5360   22.4020  -26.7750 C   0  0  0  0  0  0  0  0  0  0  0  0
   -0.6150   23.3870  -26.4240 C   0  0  0  0  0  0  0  0  0  0  0  0
   -0.5500   24.5750  -27.1540 C   0  0  0  0  0  0  0  0  0  0  0  0
   -1.4030   24.7900  -28.2440 C   0  0  0  0  0  0  0  0  0  0  0  0
   -1.2390   25.9670  -28.9750 O   0  0  0  0  0  0  0  0  0  0  0  0
   -3.5350   25.1800  -30.3190 N   0  0  0  0  0  0  0  0  0  0  0  0
   -4.5360   25.0320  -31.1750 N   0  0  0  0  0  0  0  0  0  0  0  0
   -6.3980   19.6080  -32.8040 C   0  0  0  0  0  0  0  0  0  0  0  0
   -4.9970   19.4570  -33.3510 C   0  0  0  0  0  0  0  0  0  0  0  0
   -6.6022   16.5101  -32.1821 H   0  0  0  0  0  0  0  0  0  0  0  0
   -7.5813   16.6096  -33.6848 H   0  0  0  0  0  0  0  0  0  0  0  0
   -5.8762   17.1747  -33.6848 H   0  0  0  0  0  0  0  0  0  0  0  0
   -9.2139   17.7724  -32.0851 H   0  0  0  0  0  0  0  0  0  0  0  0
  -10.0324   20.0218  -31.4123 H   0  0  0  0  0  0  0  0  0  0  0  0
   -8.5652   22.0123  -31.6558 H   0  0  0  0  0  0  0  0  0  0  0  0
   -4.4231   22.0557  -29.7645 H   0  0  0  0  0  0  0  0  0  0  0  0
   -3.1320   21.8275  -28.1192 H   0  0  0  0  0  0  0  0  0  0  0  0
   -1.5775   21.4609  -26.2071 H   0  0  0  0  0  0  0  0  0  0  0  0
    0.0613   23.2283  -25.5711 H   0  0  0  0  0  0  0  0  0  0  0  0
    0.1779   25.3495  -26.8706 H   0  0  0  0  0  0  0  0  0  0  0  0
   -1.6070   26.0990  -29.9070 H   0  0  0  0  0  0  0  0  0  0  0  0
   -4.2840   19.3802  -32.5169 H   0  0  0  0  0  0  0  0  0  0  0  0
   -4.9400   18.5475  -33.9671 H   0  0  0  0  0  0  0  0  0  0  0  0
   -4.7475   20.3335  -33.9671 H   0  0  0  0  0  0  0  0  0  0  0  0
  1  2  1  0
  2  3  2  0
  3  4  1  0
  4  5  2  0
  5  6  1  0
  6  7  1  0
  7  8  1  0
  8  9  2  0
  8 10  1  0
 10 11  1  0
 11 12  2  0
 12 13  1  0
 13 14  2  0
 14 15  1  0
 15 16  2  0
 16 17  1  0
 17 18  2  0
 18 19  1  0
 12 20  1  0
 20 21  1  0
  6 22  2  0
 22 23  1  0
 22  2  1  0
 21 10  2  0
 18 13  1  0
  1 24  1  0
  1 25  1  0
  1 26  1  0
  3 27  1  0
  4 28  1  0
  5 29  1  0
 11 30  1  0
 14 31  1  0
 15 32  1  0
 16 33  1  0
 17 34  1  0
 19 35  1  0
 23 36  1  0
 23 37  1  0
 23 38  1  0
M  CHG  2   7  -1  20  -1
M  END
>  <UniqueID>  (16) 
13

>  <SMILES>  (16) 
Cc1cccc([N-]C(=O)c2cc(-c3ccccc3O)[n-]n2)c1C

>  <Energy>  (16) 
82.2633638283629

>  <Genealogy>  (16) 
Cc1cccc([N-]C(=O)c2cc(-c3ccccc3O)[n-]n2)c1C (protonated)
Cc1cccc([N-]C(=O)c2cc(-c3ccccc3O)[n-]n2)c1C (3D coordinates assigned)
Cc1cccc([N-]C(=O)c2cc(-c3ccccc3O)[n-]n2)c1C (optimized conformer: 82.2633638283629 kcal/mol)

>  <smiles>  (16) 
Cc1cccc(NC(=O)c2cc(-c3ccccc3O)[nH]n2)c1C

>  <score_type>  (16) 
oracle

>  <origin>  (16) 
adgpu

>  <m_score__min__energy>  (16) 
-11.84

>  <m_primary>  (16) 
energy

$$$$
16:0
     RDKit          3D

 45 47  0  0  0  0  0  0  0  0999 V2000
   -6.9510   15.0280  -34.2330 C   0  0  0  0  0  0  0  0  0  0  0  0
   -6.9140   16.4510  -34.1930 O   0  0  0  0  0  0  0  0  0  0  0  0
   -5.7460   17.2150  -34.0300 C   0  0  0  0  0  0  0  0  0  0  0  0
   -4.5750   16.9450  -34.7640 C   0  0  0  0  0  0  0  0  0  0  0  0
   -3.4220   17.7070  -34.5640 C   0  0  0  0  0  0  0  0  0  0  0  0
   -3.4100   18.7410  -33.6250 C   0  0  0  0  0  0  0  0  0  0  0  0
   -2.2290   19.4740  -33.4400 O   0  0  0  0  0  0  0  0  0  0  0  0
   -2.0750   20.4810  -32.4770 C   0  0  0  0  0  0  0  0  0  0  0  0
   -2.8260   21.6550  -32.6030 C   0  0  0  0  0  0  0  0  0  0  0  0
   -2.7450   22.6520  -31.6290 C   0  0  0  0  0  0  0  0  0  0  0  0
   -1.8900   22.4980  -30.5310 C   0  0  0  0  0  0  0  0  0  0  0  0
   -1.8640   23.7270  -29.2710 S   0  0  0  0  0  0  0  0  0  0  0  0
   -2.1170   23.1210  -27.9190 O   0  0  0  0  0  0  0  0  0  0  0  0
   -0.5120   24.3830  -29.2600 O   0  0  0  0  0  0  0  0  0  0  0  0
   -3.0760   24.9230  -29.6030 N   0  0  0  0  0  0  0  0  0  0  0  0
   -4.4590   24.6230  -29.8300 C   0  0  0  0  0  0  0  0  0  0  0  0
   -5.0080   23.3800  -29.4890 C   0  0  0  0  0  0  0  0  0  0  0  0
   -6.3620   23.2770  -29.7730 C   0  0  0  0  0  0  0  0  0  0  0  0
   -6.8660   24.7310  -30.4490 S   0  0  0  0  0  0  0  0  0  0  0  0
   -5.3760   25.5070  -30.3960 C   0  0  0  0  0  0  0  0  0  0  0  0
   -1.0940   21.3490  -30.4270 C   0  0  0  0  0  0  0  0  0  0  0  0
   -1.1820   20.3390  -31.3930 C   0  0  0  0  0  0  0  0  0  0  0  0
   -0.3430   19.1730  -31.2680 C   0  0  0  0  0  0  0  0  0  0  0  0
    0.3300   18.2370  -31.1670 N   0  0  0  0  0  0  0  0  0  0  0  0
   -4.5840   19.0320  -32.9060 C   0  0  0  0  0  0  0  0  0  0  0  0
   -5.7490   18.2770  -33.1050 C   0  0  0  0  0  0  0  0  0  0  0  0
   -7.1970   18.6500  -32.1660 S   0  0  0  0  0  0  0  0  0  0  0  0
   -7.2040   20.3780  -31.7420 C   0  0  0  0  0  0  0  0  0  0  0  0
   -7.2200   17.8170  -30.9150 O   0  0  0  0  0  0  0  0  0  0  0  0
   -8.4300   18.3390  -32.9710 O   0  0  0  0  0  0  0  0  0  0  0  0
   -6.9613   14.6325  -33.2066 H   0  0  0  0  0  0  0  0  0  0  0  0
   -7.8580   14.6995  -34.7616 H   0  0  0  0  0  0  0  0  0  0  0  0
   -6.0623   14.6528  -34.7616 H   0  0  0  0  0  0  0  0  0  0  0  0
   -4.5684   16.1278  -35.5003 H   0  0  0  0  0  0  0  0  0  0  0  0
   -2.5166   17.4914  -35.1502 H   0  0  0  0  0  0  0  0  0  0  0  0
   -3.4836   21.7931  -33.4739 H   0  0  0  0  0  0  0  0  0  0  0  0
   -3.3553   23.5621  -31.7246 H   0  0  0  0  0  0  0  0  0  0  0  0
   -4.4222   22.5646  -29.0396 H   0  0  0  0  0  0  0  0  0  0  0  0
   -6.9955   22.3970  -29.5880 H   0  0  0  0  0  0  0  0  0  0  0  0
   -5.1630   26.5282  -30.7450 H   0  0  0  0  0  0  0  0  0  0  0  0
   -0.3971   21.2402  -29.5829 H   0  0  0  0  0  0  0  0  0  0  0  0
   -4.5881   19.8594  -32.1811 H   0  0  0  0  0  0  0  0  0  0  0  0
   -7.2044   20.4870  -30.6474 H   0  0  0  0  0  0  0  0  0  0  0  0
   -6.3078   20.8613  -32.1582 H   0  0  0  0  0  0  0  0  0  0  0  0
   -8.1041   20.8540  -32.1582 H   0  0  0  0  0  0  0  0  0  0  0  0
  1  2  1  0
  2  3  1  0
  3  4  2  0
  4  5  1  0
  5  6  2  0
  6  7  1  0
  7  8  1  0
  8  9  2  0
  9 10  1  0
 10 11  2  0
 11 12  1  0
 12 13  2  0
 12 14  2  0
 12 15  1  0
 15 16  1  0
 16 17  1  0
 17 18  2  0
 18 19  1  0
 19 20  1  0
 11 21  1  0
 21 22  2  0
 22 23  1  0
 23 24  3  0
  6 25  1  0
 25 26  2  0
 26 27  1  0
 27 28  1  0
 27 29  2  0
 27 30  2  0
 26  3  1  0
 22  8  1  0
 20 16  2  0
  1 31  1  0
  1 32  1  0
  1 33  1  0
  4 34  1  0
  5 35  1  0
  9 36  1  0
 10 37  1  0
 17 38  1  0
 18 39  1  0
 20 40  1  0
 21 41  1  0
 25 42  1  0
 28 43  1  0
 28 44  1  0
 28 45  1  0
M  CHG  1  15  -1
M  END
>  <UniqueID>  (17) 
14

>  <SMILES>  (17) 
COc1ccc(Oc2ccc(S(=O)(=O)[N-]c3ccsc3)cc2C#N)cc1S(C)(=O)=O

>  <Energy>  (17) 
79.54496178527926

>  <Genealogy>  (17) 
COc1ccc(Oc2ccc(S(=O)(=O)[N-]c3ccsc3)cc2C#N)cc1S(C)(=O)=O (protonated)
COc1ccc(Oc2ccc(S(=O)(=O)[N-]c3ccsc3)cc2C#N)cc1S(C)(=O)=O (3D coordinates assigned)
COc1ccc(Oc2ccc(S(=O)(=O)[N-]c3ccsc3)cc2C#N)cc1S(C)(=O)=O (optimized conformer: 79.54496178527926 kcal/mol)

>  <smiles>  (17) 
COc1ccc(Oc2ccc(S(=O)(=O)Nc3ccsc3)cc2C#N)cc1S(C)(=O)=O

>  <score_type>  (17) 
oracle

>  <origin>  (17) 
adgpu

>  <m_score__min__energy>  (17) 
-10.300000000000001

>  <m_primary>  (17) 
energy

$$$$
17:0
     RDKit          3D

 58 62  0  0  0  0  0  0  0  0999 V2000
   -1.2540   25.5770  -28.5580 C   0  0  0  0  0  0  0  0  0  0  0  0
   -0.1400   24.6380  -28.5930 N   0  0  0  0  0  0  0  0  0  0  0  0
   -0.2360   23.2160  -28.4180 C   0  0  0  0  0  0  0  0  0  0  0  0
    0.2170   22.7110  -27.3560 O   0  0  0  0  0  0  0  0  0  0  0  0
   -0.9020   22.3330  -29.4010 C   0  0  0  0  0  0  0  0  0  0  0  0
   -0.5710   20.9690  -29.4420 C   0  0  0  0  0  0  0  0  0  0  0  0
   -1.2020   20.1160  -30.3480 C   0  0  0  0  0  0  0  0  0  0  0  0
   -2.1540   20.6170  -31.2370 C   0  0  0  0  0  0  0  0  0  0  0  0
   -2.4800   21.9850  -31.2270 C   0  0  0  0  0  0  0  0  0  0  0  0
   -3.4060   22.5360  -32.1250 O   0  0  0  0  0  0  0  0  0  0  0  0
   -4.7080   22.9280  -31.7930 C   0  0  0  0  0  0  0  0  0  0  0  0
   -4.9090   24.1320  -31.1950 N   0  0  0  0  0  0  0  0  0  0  0  0
   -6.1560   24.5400  -30.8480 C   0  0  0  0  0  0  0  0  0  0  0  0
   -7.2550   23.7160  -31.0970 C   0  0  0  0  0  0  0  0  0  0  0  0
   -7.0340   22.4690  -31.6950 C   0  0  0  0  0  0  0  0  0  0  0  0
   -8.1570   21.5550  -31.9910 C   0  0  0  0  0  0  0  0  0  0  0  0
   -9.5060   21.8420  -31.8670 C   0  0  0  0  0  0  0  0  0  0  0  0
  -10.2290   20.8110  -32.3440 N   0  0  0  0  0  0  0  0  0  0  0  0
   -9.3880   19.8810  -32.7650 N   0  0  0  0  0  0  0  0  0  0  0  0
   -8.1210   20.2900  -32.5660 C   0  0  0  0  0  0  0  0  0  0  0  0
   -6.9350   19.4500  -32.8520 C   0  0  0  0  0  0  0  0  0  0  0  0
   -6.1230   19.7090  -33.9690 C   0  0  0  0  0  0  0  0  0  0  0  0
   -4.9820   18.9390  -34.2060 C   0  0  0  0  0  0  0  0  0  0  0  0
   -4.6280   17.9060  -33.3320 C   0  0  0  0  0  0  0  0  0  0  0  0
   -3.4590   17.1770  -33.5890 O   0  0  0  0  0  0  0  0  0  0  0  0
   -2.1470   17.6680  -33.5080 C   0  0  0  0  0  0  0  0  0  0  0  0
   -1.7490   18.8520  -34.1530 C   0  0  0  0  0  0  0  0  0  0  0  0
   -0.4470   19.3360  -34.0040 C   0  0  0  0  0  0  0  0  0  0  0  0
    0.4750   18.6580  -33.1890 C   0  0  0  0  0  0  0  0  0  0  0  0
    1.8930   19.1570  -33.0650 C   0  0  0  0  0  0  0  0  0  0  0  0
    1.9960   20.3910  -33.6800 F   0  0  0  0  0  0  0  0  0  0  0  0
    2.7770   18.2790  -33.6670 F   0  0  0  0  0  0  0  0  0  0  0  0
    2.2490   19.2850  -31.7330 F   0  0  0  0  0  0  0  0  0  0  0  0
    0.0800   17.4640  -32.5610 C   0  0  0  0  0  0  0  0  0  0  0  0
   -1.2250   16.9840  -32.7100 C   0  0  0  0  0  0  0  0  0  0  0  0
   -5.4190   17.6660  -32.1950 C   0  0  0  0  0  0  0  0  0  0  0  0
   -6.5660   18.4310  -31.9600 C   0  0  0  0  0  0  0  0  0  0  0  0
   -5.7680   22.1090  -32.0310 N   0  0  0  0  0  0  0  0  0  0  0  0
   -1.8320   22.8380  -30.3250 C   0  0  0  0  0  0  0  0  0  0  0  0
   -1.5152   25.7972  -27.5124 H   0  0  0  0  0  0  0  0  0  0  0  0
   -0.9649   26.5080  -29.0676 H   0  0  0  0  0  0  0  0  0  0  0  0
   -2.1226   25.1345  -29.0676 H   0  0  0  0  0  0  0  0  0  0  0  0
    0.1905   20.5705  -28.7555 H   0  0  0  0  0  0  0  0  0  0  0  0
   -0.9484   19.0457  -30.3616 H   0  0  0  0  0  0  0  0  0  0  0  0
   -2.6508   19.9400  -31.9475 H   0  0  0  0  0  0  0  0  0  0  0  0
   -6.3008   25.5203  -30.3704 H   0  0  0  0  0  0  0  0  0  0  0  0
   -8.2719   24.0389  -30.8295 H   0  0  0  0  0  0  0  0  0  0  0  0
   -9.9223   22.7683  -31.4445 H   0  0  0  0  0  0  0  0  0  0  0  0
   -9.6880   18.9630  -33.1630 H   0  0  0  0  0  0  0  0  0  0  0  0
   -6.3873   20.5226  -34.6606 H   0  0  0  0  0  0  0  0  0  0  0  0
   -4.3569   19.1467  -35.0870 H   0  0  0  0  0  0  0  0  0  0  0  0
   -2.4676   19.4010  -34.7792 H   0  0  0  0  0  0  0  0  0  0  0  0
   -0.1417   20.2537  -34.5281 H   0  0  0  0  0  0  0  0  0  0  0  0
    0.8019   16.9038  -31.9486 H   0  0  0  0  0  0  0  0  0  0  0  0
   -1.5286   16.0606  -32.1951 H   0  0  0  0  0  0  0  0  0  0  0  0
   -5.1347   16.8733  -31.4873 H   0  0  0  0  0  0  0  0  0  0  0  0
   -7.1826   18.2329  -31.0709 H   0  0  0  0  0  0  0  0  0  0  0  0
   -2.0536   23.9153  -30.3401 H   0  0  0  0  0  0  0  0  0  0  0  0
  1  2  1  0
  2  3  1  0
  3  4  2  0
  3  5  1  0
  5  6  2  0
  6  7  1  0
  7  8  2  0
  8  9  1  0
  9 10  1  0
 10 11  1  0
 11 12  2  0
 12 13  1  0
 13 14  2  0
 14 15  1  0
 15 16  1  0
 16 17  1  0
 17 18  2  0
 18 19  1  0
 19 20  1  0
 20 21  1  0
 21 22  2  0
 22 23  1  0
 23 24  2  0
 24 25  1  0
 25 26  1  0
 26 27  2  0
 27 28  1  0
 28 29  2  0
 29 30  1  0
 30 31  1  0
 30 32  1  0
 30 33  1  0
 29 34  1  0
 34 35  2  0
 24 36  1  0
 36 37  2  0
 15 38  2  0
  9 39  2  0
 39  5  1  0
 38 11  1  0
 20 16  2  0
 37 21  1  0
 35 26  1  0
  1 40  1  0
  1 41  1  0
  1 42  1  0
  6 43  1  0
  7 44  1  0
  8 45  1  0
 13 46  1  0
 14 47  1  0
 17 48  1  0
 19 49  1  0
 22 50  1  0
 23 51  1  0
 27 52  1  0
 28 53  1  0
 34 54  1  0
 35 55  1  0
 36 56  1  0
 37 57  1  0
 39 58  1  0
M  CHG  1   2  -1
M  END
>  <UniqueID>  (18) 
15

>  <SMILES>  (18) 
C[N-]C(=O)c1cccc(Oc2nccc(-c3cn[nH]c3-c3ccc(Oc4ccc(C(F)(F)F)cc4)cc3)n2)c1

>  <Energy>  (18) 
111.01381281641561

>  <Genealogy>  (18) 
C[N-]C(=O)c1cccc(Oc2nccc(-c3cn[nH]c3-c3ccc(Oc4ccc(C(F)(F)F)cc4)cc3)n2)c1 (protonated)
C[N-]C(=O)c1cccc(Oc2nccc(-c3cn[nH]c3-c3ccc(Oc4ccc(C(F)(F)F)cc4)cc3)n2)c1 (3D coordinates assigned)
C[N-]C(=O)c1cccc(Oc2nccc(-c3cn[nH]c3-c3ccc(Oc4ccc(C(F)(F)F)cc4)cc3)n2)c1 (optimized conformer: 111.01381281641561 kcal/mol)

>  <smiles>  (18) 
CNC(=O)c1cccc(Oc2nccc(-c3cn[nH]c3-c3ccc(Oc4ccc(C(F)(F)F)cc4)cc3)n2)c1

>  <score_type>  (18) 
oracle

>  <origin>  (18) 
adgpu

>  <m_score__min__energy>  (18) 
-11.039999999999999

>  <m_primary>  (18) 
energy

$$$$
18:0
     RDKit          3D

 30 32  0  0  0  0  0  0  0  0999 V2000
   -2.9404   24.4472  -28.3747 H   0  0  0  0  0  0  0  0  0  0  0  0
   -3.7960   24.1890  -29.0160 C   0  0  0  0  0  0  0  0  0  0  0  0
   -4.2360   24.9770  -30.4350 S   0  0  0  0  0  0  0  0  0  0  0  0
   -5.5670   24.0080  -30.7760 C   0  0  0  0  0  0  0  0  0  0  0  0
   -6.4820   24.1730  -31.9510 C   0  0  0  0  0  0  0  0  0  0  0  0
   -6.0091   23.7327  -32.8412 H   0  0  0  0  0  0  0  0  0  0  0  0
   -6.6661   25.2462  -32.1072 H   0  0  0  0  0  0  0  0  0  0  0  0
   -7.7610   23.5080  -31.7090 N   0  0  0  0  0  0  0  0  0  0  0  0
   -8.0080   22.2490  -31.9180 C   0  0  0  0  0  0  0  0  0  0  0  0
   -9.4890   21.5300  -31.5990 S   0  0  0  0  0  0  0  0  0  0  0  0
   -8.9770   20.0070  -32.1050 C   0  0  0  0  0  0  0  0  0  0  0  0
   -9.5884   19.0926  -32.1139 H   0  0  0  0  0  0  0  0  0  0  0  0
   -7.6420   20.1030  -32.5120 C   0  0  0  0  0  0  0  0  0  0  0  0
   -6.8560   18.9460  -33.0070 C   0  0  0  0  0  0  0  0  0  0  0  0
   -6.1070   19.0490  -34.1940 C   0  0  0  0  0  0  0  0  0  0  0  0
   -6.1061   19.9927  -34.7591 H   0  0  0  0  0  0  0  0  0  0  0  0
   -5.3640   17.9600  -34.6600 C   0  0  0  0  0  0  0  0  0  0  0  0
   -4.7811   18.0506  -35.5885 H   0  0  0  0  0  0  0  0  0  0  0  0
   -5.3600   16.7580  -33.9500 C   0  0  0  0  0  0  0  0  0  0  0  0
   -4.4290   15.3930  -34.5380 Cl  0  0  0  0  0  0  0  0  0  0  0  0
   -6.0980   16.6440  -32.7680 C   0  0  0  0  0  0  0  0  0  0  0  0
   -6.0938   15.6975  -32.2075 H   0  0  0  0  0  0  0  0  0  0  0  0
   -6.8410   17.7300  -32.2970 C   0  0  0  0  0  0  0  0  0  0  0  0
   -7.4180   17.6342  -31.3654 H   0  0  0  0  0  0  0  0  0  0  0  0
   -7.1150   21.3570  -32.4090 N   0  0  0  0  0  0  0  0  0  0  0  0
   -6.1450   21.5990  -32.7030 H   0  0  0  0  0  0  0  0  0  0  0  0
   -5.6930   23.0560  -29.7720 C   0  0  0  0  0  0  0  0  0  0  0  0
   -6.4926   22.3010  -29.7493 H   0  0  0  0  0  0  0  0  0  0  0  0
   -4.6980   23.1560  -28.7920 C   0  0  0  0  0  0  0  0  0  0  0  0
   -4.6362   22.4803  -27.9262 H   0  0  0  0  0  0  0  0  0  0  0  0
  1  2  1  0
  2  3  1  0
  3  4  1  0
  4  5  1  0
  5  6  1  0
  5  7  1  0
  5  8  1  0
  8  9  2  0
  9 10  1  0
 10 11  1  0
 11 12  1  0
 11 13  2  0
 13 14  1  0
 14 15  2  0
 15 16  1  0
 15 17  1  0
 17 18  1  0
 17 19  2  0
 19 20  1  0
 19 21  1  0
 21 22  1  0
 21 23  2  0
 23 24  1  0
 13 25  1  0
 25 26  1  0
  4 27  2  0
 27 28  1  0
 27 29  1  0
 29 30  1  0
 29  2  2  0
 25  9  1  0
 23 14  1  0
M  END
>  <UniqueID>  (19) 
16

>  <SMILES>  (19) 
Clc1ccc(-c2cs/c(=N/Cc3cccs3)[nH]2)cc1

>  <Energy>  (19) 
89.91660527445833

>  <Genealogy>  (19) 
Clc1ccc(-c2cs/c(=N/Cc3cccs3)[nH]2)cc1 (cis-trans isomerization)
Clc1ccc(-c2cs/c(=N/Cc3cccs3)[nH]2)cc1 (3D coordinates assigned)
Clc1ccc(-c2cs/c(=N/Cc3cccs3)[nH]2)cc1 (optimized conformer: 89.91660527445833 kcal/mol)

>  <smiles>  (19) 
Clc1ccc(-c2csc(=NCc3cccs3)[nH]2)cc1

>  <score_type>  (19) 
oracle

>  <origin>  (19) 
adgpu

>  <m_score__min__energy>  (19) 
-7.5499999999999998

>  <m_primary>  (19) 
energy

$$$$
19:0
     RDKit          3D

 51 53  0  0  0  0  0  0  0  0999 V2000
   -1.3070   26.7860  -23.3730 N   0  0  0  0  0  0  0  0  0  0  0  0
   -0.5960   26.3310  -24.5290 C   0  0  0  0  0  0  0  0  0  0  0  0
    0.7120   25.7690  -24.3550 N   0  0  0  0  0  0  0  0  0  0  0  0
   -1.1480   26.4390  -25.7060 N   0  0  0  0  0  0  0  0  0  0  0  0
   -0.4210   25.9170  -27.1960 S   0  0  0  0  0  0  0  0  0  0  0  0
   -1.1540   26.5450  -28.3490 O   0  0  0  0  0  0  0  0  0  0  0  0
    1.0100   26.3740  -27.2240 O   0  0  0  0  0  0  0  0  0  0  0  0
   -0.4470   24.1620  -27.3420 C   0  0  0  0  0  0  0  0  0  0  0  0
    0.6830   23.4170  -26.9830 C   0  0  0  0  0  0  0  0  0  0  0  0
    0.6750   22.0240  -27.0950 C   0  0  0  0  0  0  0  0  0  0  0  0
   -0.4650   21.3570  -27.5750 C   0  0  0  0  0  0  0  0  0  0  0  0
   -0.5080   19.9310  -27.7340 N   0  0  0  0  0  0  0  0  0  0  0  0
    0.1200   19.0420  -29.0840 S   0  0  0  0  0  0  0  0  0  0  0  0
   -0.4000   17.6320  -29.0600 O   0  0  0  0  0  0  0  0  0  0  0  0
    1.6180   18.9910  -28.9800 O   0  0  0  0  0  0  0  0  0  0  0  0
   -0.3200   19.8560  -30.5830 C   0  0  0  0  0  0  0  0  0  0  0  0
    0.6090   19.9180  -31.6280 C   0  0  0  0  0  0  0  0  0  0  0  0
    0.2900   20.5810  -32.8140 C   0  0  0  0  0  0  0  0  0  0  0  0
    1.2310   20.6440  -33.8380 O   0  0  0  0  0  0  0  0  0  0  0  0
   -0.9630   21.1950  -32.9700 C   0  0  0  0  0  0  0  0  0  0  0  0
   -1.2080   21.9080  -34.1460 O   0  0  0  0  0  0  0  0  0  0  0  0
   -1.9210   21.1050  -31.9300 C   0  0  0  0  0  0  0  0  0  0  0  0
   -3.2810   21.6750  -32.0630 C   0  0  0  0  0  0  0  0  0  0  0  0
   -4.2060   20.9530  -32.5230 O   0  0  0  0  0  0  0  0  0  0  0  0
   -3.5850   23.0200  -31.6680 N   0  0  0  0  0  0  0  0  0  0  0  0
   -4.8070   23.4610  -31.0530 C   0  0  0  0  0  0  0  0  0  0  0  0
   -5.8800   22.5760  -30.8380 C   0  0  0  0  0  0  0  0  0  0  0  0
   -7.0510   23.0260  -30.2180 C   0  0  0  0  0  0  0  0  0  0  0  0
   -7.1540   24.3550  -29.7990 C   0  0  0  0  0  0  0  0  0  0  0  0
   -6.0840   25.2360  -29.9920 C   0  0  0  0  0  0  0  0  0  0  0  0
   -4.9100   24.7900  -30.6100 C   0  0  0  0  0  0  0  0  0  0  0  0
   -3.8520   25.6750  -30.7970 O   0  0  0  0  0  0  0  0  0  0  0  0
   -1.5780   20.4490  -30.7360 C   0  0  0  0  0  0  0  0  0  0  0  0
   -1.6040   22.1040  -27.9060 C   0  0  0  0  0  0  0  0  0  0  0  0
   -1.5980   23.4970  -27.7870 C   0  0  0  0  0  0  0  0  0  0  0  0
   -2.2740   27.1700  -23.4550 H   0  0  0  0  0  0  0  0  0  0  0  0
   -0.8740   26.7240  -22.4270 H   0  0  0  0  0  0  0  0  0  0  0  0
    1.2930   25.4210  -25.1470 H   0  0  0  0  0  0  0  0  0  0  0  0
    1.0920   25.6400  -23.3900 H   0  0  0  0  0  0  0  0  0  0  0  0
   -2.1030   26.8530  -25.7800 H   0  0  0  0  0  0  0  0  0  0  0  0
    1.5816   23.9309  -26.6109 H   0  0  0  0  0  0  0  0  0  0  0  0
    1.5656   21.4467  -26.8060 H   0  0  0  0  0  0  0  0  0  0  0  0
    1.5943   19.4424  -31.5141 H   0  0  0  0  0  0  0  0  0  0  0  0
   -0.6600   21.7860  -34.9910 H   0  0  0  0  0  0  0  0  0  0  0  0
   -5.7978   21.5269  -31.1584 H   0  0  0  0  0  0  0  0  0  0  0  0
   -7.8908   22.3332  -30.0604 H   0  0  0  0  0  0  0  0  0  0  0  0
   -8.0772   24.7091  -29.3169 H   0  0  0  0  0  0  0  0  0  0  0  0
   -6.1657   26.2807  -29.6575 H   0  0  0  0  0  0  0  0  0  0  0  0
   -2.3060   20.4011  -29.9128 H   0  0  0  0  0  0  0  0  0  0  0  0
   -2.5092   21.5904  -28.2620 H   0  0  0  0  0  0  0  0  0  0  0  0
   -2.4994   24.0730  -28.0434 H   0  0  0  0  0  0  0  0  0  0  0  0
  1  2  1  0
  2  3  1  0
  2  4  2  3
  4  5  1  0
  5  6  2  0
  5  7  2  0
  5  8  1  0
  8  9  2  0
  9 10  1  0
 10 11  2  0
 11 12  1  0
 12 13  1  0
 13 14  2  0
 13 15  2  0
 13 16  1  0
 16 17  2  0
 17 18  1  0
 18 19  1  0
 18 20  2  0
 20 21  1  0
 20 22  1  0
 22 23  1  0
 23 24  2  0
 23 25  1  0
 25 26  1  0
 26 27  2  0
 27 28  1  0
 28 29  2  0
 29 30  1  0
 30 31  2  0
 31 32  1  0
 22 33  2  0
 11 34  1  0
 34 35  2  0
 35  8  1  0
 33 16  1  0
 31 26  1  0
  1 36  1  0
  1 37  1  0
  3 38  1  0
  3 39  1  0
  4 40  1  0
  9 41  1  0
 10 42  1  0
 17 43  1  0
 21 44  1  0
 27 45  1  0
 28 46  1  0
 29 47  1  0
 30 48  1  0
 33 49  1  0
 34 50  1  0
 35 51  1  0
M  CHG  5   4   1  12  -1  19  -1  25  -1  32  -1
M  END
>  <UniqueID>  (20) 
17

>  <SMILES>  (20) 
NC(N)=[NH+]S(=O)(=O)c1ccc([N-]S(=O)(=O)c2cc([O-])c(O)c(C(=O)[N-]c3ccccc3[O-])c2)cc1

>  <Energy>  (20) 
68.99827134149831

>  <Genealogy>  (20) 
NC(N)=[NH+]S(=O)(=O)c1ccc([N-]S(=O)(=O)c2cc([O-])c(O)c(C(=O)[N-]c3ccccc3[O-])c2)cc1 (protonated)
NC(N)=[NH+]S(=O)(=O)c1ccc([N-]S(=O)(=O)c2cc([O-])c(O)c(C(=O)[N-]c3ccccc3[O-])c2)cc1 (3D coordinates assigned)
NC(N)=[NH+]S(=O)(=O)c1ccc([N-]S(=O)(=O)c2cc([O-])c(O)c(C(=O)[N-]c3ccccc3[O-])c2)cc1 (optimized conformer: 68.99827134149831 kcal/mol)

>  <smiles>  (20) 
NC(N)=NS(=O)(=O)c1ccc(NS(=O)(=O)c2cc(O)c(O)c(C(=O)Nc3ccccc3O)c2)cc1

>  <score_type>  (20) 
oracle

>  <origin>  (20) 
adgpu

>  <m_score__min__energy>  (20) 
-12.5

>  <m_primary>  (20) 
energy

$$$$
20:0
     RDKit          3D

 43 45  0  0  0  0  0  0  0  0999 V2000
   -2.5470   15.8510  -33.8010 C   0  0  0  0  0  0  0  0  0  0  0  0
   -3.5180   14.9730  -34.4450 N   0  0  0  0  0  0  0  0  0  0  0  0
   -4.9820   14.9330  -33.5120 S   0  0  0  0  0  0  0  0  0  0  0  0
   -5.9470   13.9750  -34.1510 O   0  0  0  0  0  0  0  0  0  0  0  0
   -4.6850   14.4480  -32.1190 O   0  0  0  0  0  0  0  0  0  0  0  0
   -5.7160   16.5340  -33.4550 C   0  0  0  0  0  0  0  0  0  0  0  0
   -6.4740   16.9320  -32.3450 C   0  0  0  0  0  0  0  0  0  0  0  0
   -7.0380   18.2100  -32.3020 C   0  0  0  0  0  0  0  0  0  0  0  0
   -6.8600   19.1000  -33.3670 C   0  0  0  0  0  0  0  0  0  0  0  0
   -7.4310   20.3790  -33.2790 O   0  0  0  0  0  0  0  0  0  0  0  0
   -6.9180   21.4460  -32.5270 C   0  0  0  0  0  0  0  0  0  0  0  0
   -7.7490   22.4360  -31.9800 C   0  0  0  0  0  0  0  0  0  0  0  0
   -7.2020   23.4790  -31.2290 C   0  0  0  0  0  0  0  0  0  0  0  0
   -5.8200   23.5470  -31.0040 C   0  0  0  0  0  0  0  0  0  0  0  0
   -5.1570   24.9000  -30.0750 S   0  0  0  0  0  0  0  0  0  0  0  0
   -6.1460   26.0310  -30.0940 O   0  0  0  0  0  0  0  0  0  0  0  0
   -3.8630   25.3800  -30.6710 O   0  0  0  0  0  0  0  0  0  0  0  0
   -4.8750   24.4100  -28.4350 N   0  0  0  0  0  0  0  0  0  0  0  0
   -3.6790   23.7420  -28.0130 C   0  0  0  0  0  0  0  0  0  0  0  0
   -3.6120   22.3490  -27.8800 C   0  0  0  0  0  0  0  0  0  0  0  0
   -2.3690   21.8900  -27.4650 C   0  0  0  0  0  0  0  0  0  0  0  0
   -1.3640   23.2220  -27.2630 S   0  0  0  0  0  0  0  0  0  0  0  0
   -2.4880   24.3930  -27.6970 C   0  0  0  0  0  0  0  0  0  0  0  0
   -4.9850   22.5370  -31.5300 C   0  0  0  0  0  0  0  0  0  0  0  0
   -3.5590   22.5480  -31.3100 C   0  0  0  0  0  0  0  0  0  0  0  0
   -2.4150   22.5570  -31.1360 N   0  0  0  0  0  0  0  0  0  0  0  0
   -5.5420   21.4920  -32.2800 C   0  0  0  0  0  0  0  0  0  0  0  0
   -6.0790   18.7080  -34.4690 C   0  0  0  0  0  0  0  0  0  0  0  0
   -5.5140   17.4300  -34.5110 C   0  0  0  0  0  0  0  0  0  0  0  0
   -2.6425   15.7646  -32.7086 H   0  0  0  0  0  0  0  0  0  0  0  0
   -1.5308   15.5590  -34.1044 H   0  0  0  0  0  0  0  0  0  0  0  0
   -2.7356   16.8914  -34.1044 H   0  0  0  0  0  0  0  0  0  0  0  0
   -6.6252   16.2369  -31.5060 H   0  0  0  0  0  0  0  0  0  0  0  0
   -7.6259   18.5184  -31.4249 H   0  0  0  0  0  0  0  0  0  0  0  0
   -8.8358   22.3903  -32.1434 H   0  0  0  0  0  0  0  0  0  0  0  0
   -7.8613   24.2537  -30.8105 H   0  0  0  0  0  0  0  0  0  0  0  0
   -5.6460   24.5540  -27.7460 H   0  0  0  0  0  0  0  0  0  0  0  0
   -4.4628   21.6825  -28.0848 H   0  0  0  0  0  0  0  0  0  0  0  0
   -2.0908   20.8390  -27.2978 H   0  0  0  0  0  0  0  0  0  0  0  0
   -2.3148   25.4789  -27.7264 H   0  0  0  0  0  0  0  0  0  0  0  0
   -4.8905   20.7002  -32.6783 H   0  0  0  0  0  0  0  0  0  0  0  0
   -5.9123   19.4090  -35.3002 H   0  0  0  0  0  0  0  0  0  0  0  0
   -4.9081   17.1273  -35.3777 H   0  0  0  0  0  0  0  0  0  0  0  0
  1  2  1  0
  2  3  1  0
  3  4  2  0
  3  5  2  0
  3  6  1  0
  6  7  2  0
  7  8  1  0
  8  9  2  0
  9 10  1  0
 10 11  1  0
 11 12  2  0
 12 13  1  0
 13 14  2  0
 14 15  1  0
 15 16  2  0
 15 17  2  0
 15 18  1  0
 18 19  1  0
 19 20  1  0
 20 21  2  0
 21 22  1  0
 22 23  1  0
 14 24  1  0
 24 25  1  0
 25 26  3  0
 24 27  2  0
  9 28  1  0
 28 29  2  0
 29  6  1  0
 27 11  1  0
 23 19  2  0
  1 30  1  0
  1 31  1  0
  1 32  1  0
  7 33  1  0
  8 34  1  0
 12 35  1  0
 13 36  1  0
 18 37  1  0
 20 38  1  0
 21 39  1  0
 23 40  1  0
 27 41  1  0
 28 42  1  0
 29 43  1  0
M  CHG  1   2  -1
M  END
>  <UniqueID>  (21) 
18

>  <SMILES>  (21) 
C[N-]S(=O)(=O)c1ccc(Oc2ccc(S(=O)(=O)Nc3ccsc3)c(C#N)c2)cc1

>  <Energy>  (21) 
77.4019937291459

>  <Genealogy>  (21) 
C[N-]S(=O)(=O)c1ccc(Oc2ccc(S(=O)(=O)Nc3ccsc3)c(C#N)c2)cc1 (protonated)
C[N-]S(=O)(=O)c1ccc(Oc2ccc(S(=O)(=O)Nc3ccsc3)c(C#N)c2)cc1 (3D coordinates assigned)
C[N-]S(=O)(=O)c1ccc(Oc2ccc(S(=O)(=O)Nc3ccsc3)c(C#N)c2)cc1 (optimized conformer: 77.4019937291459 kcal/mol)

>  <smiles>  (21) 
CNS(=O)(=O)c1ccc(Oc2ccc(S(=O)(=O)Nc3ccsc3)c(C#N)c2)cc1

>  <score_type>  (21) 
oracle

>  <origin>  (21) 
adgpu

>  <m_score__min__energy>  (21) 
-9.5999999999999996

>  <m_primary>  (21) 
energy

$$$$
21:0
     RDKit          3D

 51 53  0  0  0  0  0  0  0  0999 V2000
   -7.9460   21.9070  -31.4560 C   0  0  0  0  0  0  0  0  0  0  0  0
   -6.7500   22.7800  -31.1840 C   0  0  0  0  0  0  0  0  0  0  0  0
   -6.9660   24.0250  -30.5750 C   0  0  0  0  0  0  0  0  0  0  0  0
   -5.8980   24.8550  -30.2520 C   0  0  0  0  0  0  0  0  0  0  0  0
   -4.5880   24.4640  -30.5260 C   0  0  0  0  0  0  0  0  0  0  0  0
   -3.5220   25.2910  -30.0380 N   0  0  0  0  0  0  0  0  0  0  0  0
   -2.3500   24.8330  -29.3440 C   0  0  0  0  0  0  0  0  0  0  0  0
   -1.8850   25.5350  -28.4080 O   0  0  0  0  0  0  0  0  0  0  0  0
   -1.6690   23.6230  -29.7060 N   0  0  0  0  0  0  0  0  0  0  0  0
   -1.7630   22.3690  -29.0180 C   0  0  0  0  0  0  0  0  0  0  0  0
   -2.9420   22.0550  -28.3320 C   0  0  0  0  0  0  0  0  0  0  0  0
   -3.0400   20.8610  -27.6100 C   0  0  0  0  0  0  0  0  0  0  0  0
   -1.9670   19.9640  -27.5910 C   0  0  0  0  0  0  0  0  0  0  0  0
   -2.0610   18.8100  -26.8870 F   0  0  0  0  0  0  0  0  0  0  0  0
   -0.8000   20.2570  -28.3040 C   0  0  0  0  0  0  0  0  0  0  0  0
   -0.6990   21.4510  -29.0230 C   0  0  0  0  0  0  0  0  0  0  0  0
   -4.3510   23.2550  -31.2150 C   0  0  0  0  0  0  0  0  0  0  0  0
   -3.0680   22.9290  -31.6590 O   0  0  0  0  0  0  0  0  0  0  0  0
   -5.4230   22.3720  -31.4860 C   0  0  0  0  0  0  0  0  0  0  0  0
   -5.0800   20.7870  -32.2240 S   0  0  0  0  0  0  0  0  0  0  0  0
   -5.6640   19.6860  -31.3820 O   0  0  0  0  0  0  0  0  0  0  0  0
   -5.7160   20.7010  -33.5820 O   0  0  0  0  0  0  0  0  0  0  0  0
   -3.3070   20.5450  -32.3740 C   0  0  0  0  0  0  0  0  0  0  0  0
   -2.9520   19.0560  -32.3040 C   0  0  0  0  0  0  0  0  0  0  0  0
   -1.4240   18.8530  -32.3690 C   0  0  0  0  0  0  0  0  0  0  0  0
   -0.7260   19.7730  -33.3040 N   0  0  0  0  0  0  0  0  0  0  0  0
    0.0910   20.7780  -32.6020 C   0  0  0  0  0  0  0  0  0  0  0  0
   -1.6150   20.3890  -34.3100 C   0  0  0  0  0  0  0  0  0  0  0  0
   -2.7730   21.1860  -33.6750 C   0  0  0  0  0  0  0  0  0  0  0  0
   -8.3886   21.5839  -30.5022 H   0  0  0  0  0  0  0  0  0  0  0  0
   -8.6911   22.4751  -32.0323 H   0  0  0  0  0  0  0  0  0  0  0  0
   -7.6321   21.0242  -32.0323 H   0  0  0  0  0  0  0  0  0  0  0  0
   -7.9929   24.3488  -30.3501 H   0  0  0  0  0  0  0  0  0  0  0  0
   -6.0883   25.8284  -29.7763 H   0  0  0  0  0  0  0  0  0  0  0  0
   -3.7944   22.7496  -28.3608 H   0  0  0  0  0  0  0  0  0  0  0  0
   -3.9616   20.6273  -27.0568 H   0  0  0  0  0  0  0  0  0  0  0  0
    0.0397   19.5464  -28.2988 H   0  0  0  0  0  0  0  0  0  0  0  0
    0.2148   21.6727  -29.5938 H   0  0  0  0  0  0  0  0  0  0  0  0
   -2.2270   23.2450  -31.1930 H   0  0  0  0  0  0  0  0  0  0  0  0
   -2.8188   21.0475  -31.5259 H   0  0  0  0  0  0  0  0  0  0  0  0
   -3.3313   18.6389  -31.3594 H   0  0  0  0  0  0  0  0  0  0  0  0
   -3.4124   18.5433  -33.1614 H   0  0  0  0  0  0  0  0  0  0  0  0
   -1.0123   19.0083  -31.3608 H   0  0  0  0  0  0  0  0  0  0  0  0
   -1.2566   17.8331  -32.7456 H   0  0  0  0  0  0  0  0  0  0  0  0
   -0.0174   20.6447  -31.5155 H   0  0  0  0  0  0  0  0  0  0  0  0
    1.1471   20.6533  -32.8832 H   0  0  0  0  0  0  0  0  0  0  0  0
   -0.2467   21.7864  -32.8832 H   0  0  0  0  0  0  0  0  0  0  0  0
   -1.0197   21.0712  -34.9347 H   0  0  0  0  0  0  0  0  0  0  0  0
   -2.0584   19.5756  -34.9031 H   0  0  0  0  0  0  0  0  0  0  0  0
   -2.4151   22.2003  -33.4445 H   0  0  0  0  0  0  0  0  0  0  0  0
   -3.6005   21.1966  -34.3996 H   0  0  0  0  0  0  0  0  0  0  0  0
  1  2  1  0
  2  3  2  0
  3  4  1  0
  4  5  2  0
  5  6  1  0
  6  7  1  0
  7  8  2  0
  7  9  1  0
  9 10  1  0
 10 11  2  0
 11 12  1  0
 12 13  2  0
 13 14  1  0
 13 15  1  0
 15 16  2  0
  5 17  1  0
 17 18  1  0
 17 19  2  0
 19 20  1  0
 20 21  2  0
 20 22  2  0
 20 23  1  0
 23 24  1  0
 24 25  1  0
 25 26  1  0
 26 27  1  0
 26 28  1  0
 28 29  1  0
 19  2  1  0
 29 23  1  0
 16 10  1  0
  1 30  1  0
  1 31  1  0
  1 32  1  0
  3 33  1  0
  4 34  1  0
 11 35  1  0
 12 36  1  0
 15 37  1  0
 16 38  1  0
 18 39  1  0
 23 40  1  0
 24 41  1  0
 24 42  1  0
 25 43  1  0
 25 44  1  0
 27 45  1  0
 27 46  1  0
 27 47  1  0
 28 48  1  0
 28 49  1  0
 29 50  1  0
 29 51  1  0
M  CHG  2   6  -1   9  -1
M  END
>  <UniqueID>  (22) 
19

>  <SMILES>  (22) 
Cc1ccc([N-]C(=O)[N-]c2ccc(F)cc2)c(O)c1S(=O)(=O)C1CCN(C)CC1

>  <Energy>  (22) 
70.1710064426912

>  <Genealogy>  (22) 
Cc1ccc([N-]C(=O)[N-]c2ccc(F)cc2)c(O)c1S(=O)(=O)C1CCN(C)CC1 (protonated)
Cc1ccc([N-]C(=O)[N-]c2ccc(F)cc2)c(O)c1S(=O)(=O)C1CCN(C)CC1 (3D coordinates assigned)
Cc1ccc([N-]C(=O)[N-]c2ccc(F)cc2)c(O)c1S(=O)(=O)C1CCN(C)CC1 (nonaromatic ring conformer: 70.1710064426912 kcal/mol)

>  <smiles>  (22) 
Cc1ccc(NC(=O)Nc2ccc(F)cc2)c(O)c1S(=O)(=O)C1CCN(C)CC1

>  <score_type>  (22) 
oracle

>  <origin>  (22) 
adgpu

>  <m_score__min__energy>  (22) 
-12.300000000000001

>  <m_primary>  (22) 
energy

$$$$
22:0
     RDKit          3D

 57 60  0  0  1  0  0  0  0  0999 V2000
   -9.1870   18.6260  -32.2820 C   0  0  0  0  0  0  0  0  0  0  0  0
   -8.6280   19.7330  -33.0190 N   0  0  0  0  0  0  0  0  0  0  0  0
   -8.2080   21.0570  -31.9900 S   0  0  0  0  0  0  0  0  0  0  0  0
   -9.0360   22.2330  -32.3890 O   0  0  0  0  0  0  0  0  0  0  0  0
   -8.5160   20.6550  -30.5770 O   0  0  0  0  0  0  0  0  0  0  0  0
   -6.4880   21.3450  -32.2000 C   0  0  0  0  0  0  0  0  0  0  0  0
   -5.7400   20.5020  -32.9970 C   0  0  0  0  0  0  0  0  0  0  0  0
   -4.3810   20.7820  -33.1240 C   0  0  0  0  0  0  0  0  0  0  0  0
   -3.7960   21.8620  -32.4800 C   0  0  0  0  0  0  0  0  0  0  0  0
   -4.6000   22.6730  -31.6930 C   0  0  0  0  0  0  0  0  0  0  0  0
   -4.0770   23.8010  -30.9990 N   0  0  0  0  0  0  0  0  0  0  0  0
   -3.0380   23.6710  -30.2570 C   0  0  0  0  0  0  0  0  0  0  0  0
   -2.3940   22.5030  -30.0910 N   0  0  0  0  0  0  0  0  0  0  0  0
   -1.3010   22.4390  -29.2930 C   0  0  0  0  0  0  0  0  0  0  0  0
   -0.6180   21.2070  -29.1150 N   0  0  0  0  0  0  0  0  0  0  0  0
   -1.0810   20.2850  -28.3260 C   0  0  0  0  0  0  0  0  0  0  0  0
   -2.2430   20.3650  -27.5840 C   0  0  0  0  0  0  0  0  0  0  0  0
   -2.3270   19.1700  -26.9090 C   0  0  0  0  0  0  0  0  0  0  0  0
   -3.4260   18.8120  -25.9830 C   0  0  0  0  0  0  0  0  0  0  0  0
   -1.2560   18.4140  -27.2390 N   0  0  0  0  0  0  0  0  0  0  0  0
   -0.4910   19.0830  -28.1020 N   0  0  0  0  0  0  0  0  0  0  0  0
   -0.8210   23.5510  -28.6340 C   0  0  0  0  0  0  0  0  0  0  0  0
   -1.4940   24.7330  -28.8180 C   0  0  0  0  0  0  0  0  0  0  0  0
   -1.1330   25.8300  -28.2520 N   0  0  0  0  0  0  0  0  0  0  0  0
    0.0240   25.8780  -27.3750 C   0  0  0  0  0  0  0  0  0  0  0  0
   -0.2230   27.1110  -26.5410 C   0  0  0  0  0  0  0  0  0  0  0  0
   -0.5290   26.9970  -25.1900 C   0  0  0  0  0  0  0  0  0  0  0  0
   -0.7630   28.0930  -24.3860 C   0  0  0  0  0  0  0  0  0  0  0  0
   -0.6930   29.3430  -24.9350 C   0  0  0  0  0  0  0  0  0  0  0  0
   -0.3900   29.4570  -26.2650 C   0  0  0  0  0  0  0  0  0  0  0  0
   -0.1550   28.3550  -27.0760 C   0  0  0  0  0  0  0  0  0  0  0  0
   -2.5790   24.7640  -29.6200 N   0  0  0  0  0  0  0  0  0  0  0  0
   -5.9500   22.4260  -31.5430 C   0  0  0  0  0  0  0  0  0  0  0  0
   -9.0903   18.8176  -31.2031 H   0  0  0  0  0  0  0  0  0  0  0  0
  -10.2502   18.5130  -32.5404 H   0  0  0  0  0  0  0  0  0  0  0  0
   -8.6468   17.7033  -32.5404 H   0  0  0  0  0  0  0  0  0  0  0  0
   -9.2940   20.0070  -33.7540 H   0  0  0  0  0  0  0  0  0  0  0  0
   -6.1981   19.6441  -33.5109 H   0  0  0  0  0  0  0  0  0  0  0  0
   -3.7559   20.1295  -33.7513 H   0  0  0  0  0  0  0  0  0  0  0  0
   -2.7215   22.0701  -32.5906 H   0  0  0  0  0  0  0  0  0  0  0  0
   -2.7670   21.6580  -30.5990 H   0  0  0  0  0  0  0  0  0  0  0  0
   -2.9509   21.2059  -27.5419 H   0  0  0  0  0  0  0  0  0  0  0  0
   -3.0815   18.9242  -24.9444 H   0  0  0  0  0  0  0  0  0  0  0  0
   -4.2845   19.4769  -26.1584 H   0  0  0  0  0  0  0  0  0  0  0  0
   -3.7282   17.7690  -26.1584 H   0  0  0  0  0  0  0  0  0  0  0  0
   -1.0900   17.4580  -26.8560 H   0  0  0  0  0  0  0  0  0  0  0  0
    0.3850   18.6950  -28.4910 H   0  0  0  0  0  0  0  0  0  0  0  0
    0.0663   23.4931  -27.9864 H   0  0  0  0  0  0  0  0  0  0  0  0
    0.0770   24.9791  -26.7432 H   0  0  0  0  0  0  0  0  0  0  0  0
    0.9776   25.9126  -27.9222 H   0  0  0  0  0  0  0  0  0  0  0  0
   -0.5868   25.9930  -24.7444 H   0  0  0  0  0  0  0  0  0  0  0  0
   -1.0021   27.9633  -23.3202 H   0  0  0  0  0  0  0  0  0  0  0  0
   -0.8761   30.2375  -24.3215 H   0  0  0  0  0  0  0  0  0  0  0  0
   -0.3303   30.4617  -26.7088 H   0  0  0  0  0  0  0  0  0  0  0  0
    0.0838   28.4896  -28.1413 H   0  0  0  0  0  0  0  0  0  0  0  0
   -3.0860   25.6810  -29.7520 H   0  0  0  0  0  0  0  0  0  0  0  0
   -6.5775   23.0759  -30.9154 H   0  0  0  0  0  0  0  0  0  0  0  0
  1  2  1  0
  2  3  1  0
  3  4  2  0
  3  5  2  0
  3  6  1  0
  6  7  2  0
  7  8  1  0
  8  9  2  0
  9 10  1  0
 10 11  1  0
 11 12  2  0
 12 13  1  0
 13 14  1  0
 14 15  1  0
 15 16  2  0
 16 17  1  0
 17 18  2  0
 18 19  1  0
 18 20  1  0
 20 21  1  0
 14 22  2  0
 22 23  1  0
 23 24  2  0
 24 25  1  0
 25 26  1  0
 26 27  2  0
 27 28  1  0
 28 29  2  0
 29 30  1  0
 30 31  2  0
 23 32  1  0
 10 33  2  0
 33  6  1  0
 32 12  1  0
 21 16  1  0
 31 26  1  0
  1 34  1  0
  1 35  1  0
  1 36  1  0
  2 37  1  0
  7 38  1  0
  8 39  1  0
  9 40  1  0
 13 41  1  0
 17 42  1  0
 19 43  1  0
 19 44  1  0
 19 45  1  0
 20 46  1  0
 21 47  1  0
 22 48  1  0
 25 49  1  0
 25 50  1  0
 27 51  1  0
 28 52  1  0
 29 53  1  0
 30 54  1  0
 31 55  1  0
 32 56  1  0
 33 57  1  0
M  END
>  <smiles>  (23) 
CNS(=O)(=O)c1cccc(N=c2[nH]c(N=c3cc(C)[nH][nH]3)cc(=NCc3ccccc3)[nH]2)c1

>  <score_type>  (23) 
oracle

>  <origin>  (23) 
adgpu

>  <m_score__min__energy>  (23) 
-11.23

>  <m_primary>  (23) 
energy

$$$$
23:0
     RDKit          3D

 61 64  0  0  0  0  0  0  0  0999 V2000
   -1.9110   17.2190  -33.4590 C   0  0  0  0  0  0  0  0  0  0  0  0
   -2.5930   18.5450  -33.2980 C   0  0  0  0  0  0  0  0  0  0  0  0
   -3.9860   18.6490  -33.4340 C   0  0  0  0  0  0  0  0  0  0  0  0
   -4.6120   19.8950  -33.3410 C   0  0  0  0  0  0  0  0  0  0  0  0
   -3.8530   21.0560  -33.1390 C   0  0  0  0  0  0  0  0  0  0  0  0
   -4.5080   22.3340  -33.0930 N   0  0  0  0  0  0  0  0  0  0  0  0
   -5.4980   22.6910  -32.1130 C   0  0  0  0  0  0  0  0  0  0  0  0
   -6.8260   22.2820  -32.3110 C   0  0  0  0  0  0  0  0  0  0  0  0
   -7.8200   22.6330  -31.3940 C   0  0  0  0  0  0  0  0  0  0  0  0
   -7.5010   23.4160  -30.2810 C   0  0  0  0  0  0  0  0  0  0  0  0
   -6.1890   23.8470  -30.0830 C   0  0  0  0  0  0  0  0  0  0  0  0
   -5.1740   23.4830  -30.9850 C   0  0  0  0  0  0  0  0  0  0  0  0
   -3.8490   24.0130  -30.8190 N   0  0  0  0  0  0  0  0  0  0  0  0
   -2.8570   23.4620  -29.9320 C   0  0  0  0  0  0  0  0  0  0  0  0
   -2.8500   22.0780  -29.7100 C   0  0  0  0  0  0  0  0  0  0  0  0
   -1.9390   21.5060  -28.8230 C   0  0  0  0  0  0  0  0  0  0  0  0
   -1.0260   22.3100  -28.1400 C   0  0  0  0  0  0  0  0  0  0  0  0
   -1.0140   23.6970  -28.3400 C   0  0  0  0  0  0  0  0  0  0  0  0
   -0.0560   24.5250  -27.5750 C   0  0  0  0  0  0  0  0  0  0  0  0
    1.1500   24.5370  -27.9430 O   0  0  0  0  0  0  0  0  0  0  0  0
   -0.4660   25.3270  -26.4410 N   0  0  0  0  0  0  0  0  0  0  0  0
   -0.1130   24.8360  -25.0930 C   0  0  0  0  0  0  0  0  0  0  0  0
   -0.4950   25.7990  -23.9550 C   0  0  0  0  0  0  0  0  0  0  0  0
    0.3650   27.0750  -23.9290 C   0  0  0  0  0  0  0  0  0  0  0  0
   -0.1730   28.1460  -24.7960 N   0  0  0  0  0  0  0  0  0  0  0  0
    0.5330   29.4090  -24.5230 C   0  0  0  0  0  0  0  0  0  0  0  0
   -0.0600   27.7990  -26.2290 C   0  0  0  0  0  0  0  0  0  0  0  0
   -1.0360   26.6750  -26.6390 C   0  0  0  0  0  0  0  0  0  0  0  0
   -1.9480   24.2790  -29.2190 C   0  0  0  0  0  0  0  0  0  0  0  0
   -2.0010   25.6620  -29.3400 O   0  0  0  0  0  0  0  0  0  0  0  0
   -2.4610   20.9500  -32.9840 C   0  0  0  0  0  0  0  0  0  0  0  0
   -1.8340   19.7050  -33.0790 C   0  0  0  0  0  0  0  0  0  0  0  0
   -1.6933   16.7958  -32.4673 H   0  0  0  0  0  0  0  0  0  0  0  0
   -2.5684   16.5335  -34.0139 H   0  0  0  0  0  0  0  0  0  0  0  0
   -0.9710   17.3551  -34.0139 H   0  0  0  0  0  0  0  0  0  0  0  0
   -4.5876   17.7460  -33.6146 H   0  0  0  0  0  0  0  0  0  0  0  0
   -5.7064   19.9650  -33.4268 H   0  0  0  0  0  0  0  0  0  0  0  0
   -4.2790   23.0320  -33.8350 H   0  0  0  0  0  0  0  0  0  0  0  0
   -7.0861   21.6807  -33.1946 H   0  0  0  0  0  0  0  0  0  0  0  0
   -8.8546   22.2928  -31.5481 H   0  0  0  0  0  0  0  0  0  0  0  0
   -8.2850   23.6926  -29.5607 H   0  0  0  0  0  0  0  0  0  0  0  0
   -5.9468   24.4767  -29.2142 H   0  0  0  0  0  0  0  0  0  0  0  0
   -3.6270   24.9100  -31.3050 H   0  0  0  0  0  0  0  0  0  0  0  0
   -3.5698   21.4373  -30.2404 H   0  0  0  0  0  0  0  0  0  0  0  0
   -1.9401   20.4180  -28.6613 H   0  0  0  0  0  0  0  0  0  0  0  0
   -0.3112   21.8524  -27.4402 H   0  0  0  0  0  0  0  0  0  0  0  0
   -0.6320   23.8806  -24.9262 H   0  0  0  0  0  0  0  0  0  0  0  0
    0.9820   24.7338  -25.0687 H   0  0  0  0  0  0  0  0  0  0  0  0
   -1.5484   26.0894  -24.0811 H   0  0  0  0  0  0  0  0  0  0  0  0
   -0.3243   25.2693  -23.0062 H   0  0  0  0  0  0  0  0  0  0  0  0
    0.4089   27.4484  -22.8952 H   0  0  0  0  0  0  0  0  0  0  0  0
    1.3625   26.8102  -24.3096 H   0  0  0  0  0  0  0  0  0  0  0  0
    0.6150   29.5557  -23.4359 H   0  0  0  0  0  0  0  0  0  0  0  0
    1.5397   29.3692  -24.9646 H   0  0  0  0  0  0  0  0  0  0  0  0
   -0.0283   30.2457  -24.9646 H   0  0  0  0  0  0  0  0  0  0  0  0
   -0.2804   28.6947  -26.8282 H   0  0  0  0  0  0  0  0  0  0  0  0
    0.9634   27.4375  -26.4078 H   0  0  0  0  0  0  0  0  0  0  0  0
   -1.9497   26.7635  -26.0330 H   0  0  0  0  0  0  0  0  0  0  0  0
   -1.2475   26.7927  -27.7120 H   0  0  0  0  0  0  0  0  0  0  0  0
   -1.8618   21.8512  -32.7869 H   0  0  0  0  0  0  0  0  0  0  0  0
   -0.7406   19.6337  -32.9817 H   0  0  0  0  0  0  0  0  0  0  0  0
  1  2  1  0
  2  3  2  0
  3  4  1  0
  4  5  2  0
  5  6  1  0
  6  7  1  0
  7  8  2  0
  8  9  1  0
  9 10  2  0
 10 11  1  0
 11 12  2  0
 12 13  1  0
 13 14  1  0
 14 15  2  0
 15 16  1  0
 16 17  2  0
 17 18  1  0
 18 19  1  0
 19 20  2  0
 19 21  1  0
 21 22  1  0
 22 23  1  0
 23 24  1  0
 24 25  1  0
 25 26  1  0
 25 27  1  0
 27 28  1  0
 18 29  2  0
 29 30  1  0
  5 31  1  0
 31 32  2  0
 32  2  1  0
 12  7  1  0
 29 14  1  0
 28 21  1  0
  1 33  1  0
  1 34  1  0
  1 35  1  0
  3 36  1  0
  4 37  1  0
  6 38  1  0
  8 39  1  0
  9 40  1  0
 10 41  1  0
 11 42  1  0
 13 43  1  0
 15 44  1  0
 16 45  1  0
 17 46  1  0
 22 47  1  0
 22 48  1  0
 23 49  1  0
 23 50  1  0
 24 51  1  0
 24 52  1  0
 26 53  1  0
 26 54  1  0
 26 55  1  0
 27 56  1  0
 27 57  1  0
 28 58  1  0
 28 59  1  0
 31 60  1  0
 32 61  1  0
M  CHG  1  30  -1
M  END
>  <UniqueID>  (24) 
20

>  <SMILES>  (24) 
Cc1ccc(Nc2ccccc2Nc2cccc(C(=O)N3CCCN(C)CC3)c2[O-])cc1

>  <Energy>  (24) 
87.68333306899675

>  <Genealogy>  (24) 
Cc1ccc(Nc2ccccc2Nc2cccc(C(=O)N3CCCN(C)CC3)c2[O-])cc1 (protonated)
Cc1ccc(Nc2ccccc2Nc2cccc(C(=O)N3CCCN(C)CC3)c2[O-])cc1 (3D coordinates assigned)
Cc1ccc(Nc2ccccc2Nc2cccc(C(=O)N3CCCN(C)CC3)c2[O-])cc1 (nonaromatic ring conformer: 87.68333306899675 kcal/mol)

>  <smiles>  (24) 
Cc1ccc(Nc2ccccc2Nc2cccc(C(=O)N3CCCN(C)CC3)c2O)cc1

>  <score_type>  (24) 
oracle

>  <origin>  (24) 
adgpu

>  <m_score__min__energy>  (24) 
-11.220000000000001

>  <m_primary>  (24) 
energy

$$$$
24:0
     RDKit          3D

 47 49  0  0  0  0  0  0  0  0999 V2000
   -3.0010   23.9580  -28.1320 C   0  0  0  0  0  0  0  0  0  0  0  0
   -2.6540   24.8310  -29.3010 C   0  0  0  0  0  0  0  0  0  0  0  0
   -1.5970   25.5140  -29.2580 O   0  0  0  0  0  0  0  0  0  0  0  0
   -3.4990   24.9350  -30.4530 N   0  0  0  0  0  0  0  0  0  0  0  0
   -4.6860   24.1750  -30.7070 C   0  0  0  0  0  0  0  0  0  0  0  0
   -5.9420   24.7940  -30.8330 C   0  0  0  0  0  0  0  0  0  0  0  0
   -7.0760   24.0290  -31.1120 C   0  0  0  0  0  0  0  0  0  0  0  0
   -6.9720   22.6370  -31.2520 C   0  0  0  0  0  0  0  0  0  0  0  0
   -8.3420   21.6970  -31.8360 S   0  0  0  0  0  0  0  0  0  0  0  0
   -8.8860   20.8610  -30.7100 O   0  0  0  0  0  0  0  0  0  0  0  0
   -9.4330   22.6000  -32.3410 O   0  0  0  0  0  0  0  0  0  0  0  0
   -7.7900   20.6660  -33.1140 N   0  0  0  0  0  0  0  0  0  0  0  0
   -6.7650   19.7120  -32.8320 C   0  0  0  0  0  0  0  0  0  0  0  0
   -6.9380   18.4000  -32.4220 C   0  0  0  0  0  0  0  0  0  0  0  0
   -8.2080   17.7980  -31.9020 C   0  0  0  0  0  0  0  0  0  0  0  0
   -5.7820   17.7250  -32.6360 N   0  0  0  0  0  0  0  0  0  0  0  0
   -5.5610   16.2960  -32.3900 C   0  0  0  0  0  0  0  0  0  0  0  0
   -4.8840   18.5640  -33.1510 N   0  0  0  0  0  0  0  0  0  0  0  0
   -3.5590   18.2120  -33.5870 C   0  0  0  0  0  0  0  0  0  0  0  0
   -3.3760   17.2640  -34.6090 C   0  0  0  0  0  0  0  0  0  0  0  0
   -2.0870   16.9050  -35.0140 C   0  0  0  0  0  0  0  0  0  0  0  0
   -0.9730   17.5000  -34.4130 C   0  0  0  0  0  0  0  0  0  0  0  0
   -1.1470   18.4520  -33.4050 C   0  0  0  0  0  0  0  0  0  0  0  0
   -2.4350   18.8100  -32.9930 C   0  0  0  0  0  0  0  0  0  0  0  0
   -5.4700   19.7690  -33.2960 C   0  0  0  0  0  0  0  0  0  0  0  0
   -4.9220   20.7740  -33.8250 O   0  0  0  0  0  0  0  0  0  0  0  0
   -5.7300   22.0160  -31.0740 C   0  0  0  0  0  0  0  0  0  0  0  0
   -4.5960   22.7800  -30.7880 C   0  0  0  0  0  0  0  0  0  0  0  0
   -2.7872   24.4958  -27.1965 H   0  0  0  0  0  0  0  0  0  0  0  0
   -4.0698   23.7007  -28.1710 H   0  0  0  0  0  0  0  0  0  0  0  0
   -2.4005   23.0372  -28.1710 H   0  0  0  0  0  0  0  0  0  0  0  0
   -6.0314   25.8836  -30.7115 H   0  0  0  0  0  0  0  0  0  0  0  0
   -8.0544   24.5194  -31.2224 H   0  0  0  0  0  0  0  0  0  0  0  0
   -8.4650   20.4520  -33.8830 H   0  0  0  0  0  0  0  0  0  0  0  0
   -8.1936   17.8048  -30.8021 H   0  0  0  0  0  0  0  0  0  0  0  0
   -9.0660   18.3852  -32.2611 H   0  0  0  0  0  0  0  0  0  0  0  0
   -8.2966   16.7620  -32.2611 H   0  0  0  0  0  0  0  0  0  0  0  0
   -5.5323   16.1107  -31.3061 H   0  0  0  0  0  0  0  0  0  0  0  0
   -6.3801   15.7156  -32.8397 H   0  0  0  0  0  0  0  0  0  0  0  0
   -4.6049   15.9901  -32.8397 H   0  0  0  0  0  0  0  0  0  0  0  0
   -4.2503   16.8030  -35.0918 H   0  0  0  0  0  0  0  0  0  0  0  0
   -1.9488   16.1541  -35.8059 H   0  0  0  0  0  0  0  0  0  0  0  0
    0.0407   17.2184  -34.7340 H   0  0  0  0  0  0  0  0  0  0  0  0
   -0.2699   18.9206  -32.9348 H   0  0  0  0  0  0  0  0  0  0  0  0
   -2.5682   19.5621  -32.2014 H   0  0  0  0  0  0  0  0  0  0  0  0
   -5.6468   20.9225  -31.1597 H   0  0  0  0  0  0  0  0  0  0  0  0
   -3.6280   22.2835  -30.6257 H   0  0  0  0  0  0  0  0  0  0  0  0
  1  2  1  0
  2  3  2  0
  2  4  1  0
  4  5  1  0
  5  6  2  0
  6  7  1  0
  7  8  2  0
  8  9  1  0
  9 10  2  0
  9 11  2  0
  9 12  1  0
 12 13  1  0
 13 14  2  0
 14 15  1  0
 14 16  1  0
 16 17  1  0
 16 18  1  0
 18 19  1  0
 19 20  2  0
 20 21  1  0
 21 22  2  0
 22 23  1  0
 23 24  2  0
 18 25  1  0
 25 26  2  0
  8 27  1  0
 27 28  2  0
 28  5  1  0
 25 13  1  0
 24 19  1  0
  1 29  1  0
  1 30  1  0
  1 31  1  0
  6 32  1  0
  7 33  1  0
 12 34  1  0
 15 35  1  0
 15 36  1  0
 15 37  1  0
 17 38  1  0
 17 39  1  0
 17 40  1  0
 20 41  1  0
 21 42  1  0
 22 43  1  0
 23 44  1  0
 24 45  1  0
 27 46  1  0
 28 47  1  0
M  CHG  1   4  -1
M  END
>  <UniqueID>  (25) 
21

>  <SMILES>  (25) 
CC(=O)[N-]c1ccc(S(=O)(=O)Nc2c(C)n(C)n(-c3ccccc3)c2=O)cc1

>  <Energy>  (25) 
96.50497618440649

>  <Genealogy>  (25) 
CC(=O)[N-]c1ccc(S(=O)(=O)Nc2c(C)n(C)n(-c3ccccc3)c2=O)cc1 (protonated)
CC(=O)[N-]c1ccc(S(=O)(=O)Nc2c(C)n(C)n(-c3ccccc3)c2=O)cc1 (3D coordinates assigned)
CC(=O)[N-]c1ccc(S(=O)(=O)Nc2c(C)n(C)n(-c3ccccc3)c2=O)cc1 (optimized conformer: 96.50497618440649 kcal/mol)

>  <smiles>  (25) 
CC(=O)Nc1ccc(S(=O)(=O)Nc2c(C)n(C)n(-c3ccccc3)c2=O)cc1

>  <score_type>  (25) 
oracle

>  <origin>  (25) 
adgpu

>  <m_score__min__energy>  (25) 
-10.74

>  <m_primary>  (25) 
energy

$$$$
25:0
     RDKit          3D

 55 58  0  0  0  0  0  0  0  0999 V2000
   -4.1100   22.5750  -27.6210 O   0  0  0  0  0  0  0  0  0  0  0  0
   -3.9680   23.5210  -28.4430 C   0  0  0  0  0  0  0  0  0  0  0  0
   -3.0510   24.5870  -28.1420 N   0  0  0  0  0  0  0  0  0  0  0  0
   -2.1270   24.5240  -27.0450 C   0  0  0  0  0  0  0  0  0  0  0  0
   -2.1580   25.5410  -26.0780 C   0  0  0  0  0  0  0  0  0  0  0  0
   -1.3070   25.4970  -24.9720 C   0  0  0  0  0  0  0  0  0  0  0  0
   -0.4050   24.4410  -24.8260 C   0  0  0  0  0  0  0  0  0  0  0  0
   -0.3420   23.4370  -25.7940 C   0  0  0  0  0  0  0  0  0  0  0  0
   -1.1900   23.4700  -26.9140 C   0  0  0  0  0  0  0  0  0  0  0  0
   -1.0270   22.4750  -27.9410 N   0  0  0  0  0  0  0  0  0  0  0  0
   -0.5530   22.8550  -29.2780 C   0  0  0  0  0  0  0  0  0  0  0  0
   -1.4960   22.3090  -30.3740 C   0  0  0  0  0  0  0  0  0  0  0  0
   -2.4200   21.3340  -29.9140 O   0  0  0  0  0  0  0  0  0  0  0  0
   -1.7850   20.4180  -29.0470 C   0  0  0  0  0  0  0  0  0  0  0  0
   -1.4980   21.1050  -27.7110 C   0  0  0  0  0  0  0  0  0  0  0  0
   -4.8030   23.5470  -29.6720 C   0  0  0  0  0  0  0  0  0  0  0  0
   -5.6740   22.4710  -29.9280 C   0  0  0  0  0  0  0  0  0  0  0  0
   -6.4840   22.4600  -31.0720 C   0  0  0  0  0  0  0  0  0  0  0  0
   -7.6030   21.1300  -31.3640 S   0  0  0  0  0  0  0  0  0  0  0  0
   -8.6940   21.1940  -30.3320 O   0  0  0  0  0  0  0  0  0  0  0  0
   -8.2300   21.2830  -32.7220 O   0  0  0  0  0  0  0  0  0  0  0  0
   -6.7780   19.5900  -31.2340 N   0  0  0  0  0  0  0  0  0  0  0  0
   -5.3580   19.6890  -31.6230 C   0  0  0  0  0  0  0  0  0  0  0  0
   -5.1800   19.8290  -33.1540 C   0  0  0  0  0  0  0  0  0  0  0  0
   -6.3180   19.4300  -33.8980 O   0  0  0  0  0  0  0  0  0  0  0  0
   -6.8650   18.2480  -33.3600 C   0  0  0  0  0  0  0  0  0  0  0  0
   -7.4860   18.5250  -31.9780 C   0  0  0  0  0  0  0  0  0  0  0  0
   -6.4280   23.5300  -31.9700 C   0  0  0  0  0  0  0  0  0  0  0  0
   -5.5580   24.5950  -31.7370 C   0  0  0  0  0  0  0  0  0  0  0  0
   -4.7400   24.6080  -30.6030 C   0  0  0  0  0  0  0  0  0  0  0  0
   -3.8600   25.6710  -30.4310 O   0  0  0  0  0  0  0  0  0  0  0  0
   -3.2440   25.5270  -28.5560 H   0  0  0  0  0  0  0  0  0  0  0  0
   -2.8594   26.3806  -26.1927 H   0  0  0  0  0  0  0  0  0  0  0  0
   -1.3471   26.2944  -24.2154 H   0  0  0  0  0  0  0  0  0  0  0  0
    0.2562   24.4002  -23.9479 H   0  0  0  0  0  0  0  0  0  0  0  0
    0.3776   22.6130  -25.6790 H   0  0  0  0  0  0  0  0  0  0  0  0
   -0.5162   23.9521  -29.3486 H   0  0  0  0  0  0  0  0  0  0  0  0
    0.4483   22.4260  -29.4306 H   0  0  0  0  0  0  0  0  0  0  0  0
   -2.0645   23.1530  -30.7918 H   0  0  0  0  0  0  0  0  0  0  0  0
   -0.8587   21.8130  -31.1209 H   0  0  0  0  0  0  0  0  0  0  0  0
   -2.4426   19.5519  -28.8814 H   0  0  0  0  0  0  0  0  0  0  0  0
   -0.8410   20.0771  -29.4972 H   0  0  0  0  0  0  0  0  0  0  0  0
   -2.4193   21.1327  -27.1106 H   0  0  0  0  0  0  0  0  0  0  0  0
   -0.7198   20.5413  -27.1755 H   0  0  0  0  0  0  0  0  0  0  0  0
   -5.7195   21.6288  -29.2218 H   0  0  0  0  0  0  0  0  0  0  0  0
   -4.9170   20.5696  -31.1330 H   0  0  0  0  0  0  0  0  0  0  0  0
   -4.8560   18.7624  -31.3079 H   0  0  0  0  0  0  0  0  0  0  0  0
   -4.9668   20.8833  -33.3840 H   0  0  0  0  0  0  0  0  0  0  0  0
   -4.3554   19.1614  -33.4444 H   0  0  0  0  0  0  0  0  0  0  0  0
   -7.6435   17.8676  -34.0376 H   0  0  0  0  0  0  0  0  0  0  0  0
   -6.0640   17.5024  -33.2486 H   0  0  0  0  0  0  0  0  0  0  0  0
   -8.5332   18.8310  -32.1183 H   0  0  0  0  0  0  0  0  0  0  0  0
   -7.4065   17.6001  -31.3879 H   0  0  0  0  0  0  0  0  0  0  0  0
   -7.0714   23.5320  -32.8622 H   0  0  0  0  0  0  0  0  0  0  0  0
   -5.5150   25.4310  -32.4507 H   0  0  0  0  0  0  0  0  0  0  0  0
  1  2  2  0
  2  3  1  0
  3  4  1  0
  4  5  2  0
  5  6  1  0
  6  7  2  0
  7  8  1  0
  8  9  2  0
  9 10  1  0
 10 11  1  0
 11 12  1  0
 12 13  1  0
 13 14  1  0
 14 15  1  0
  2 16  1  0
 16 17  2  0
 17 18  1  0
 18 19  1  0
 19 20  2  0
 19 21  2  0
 19 22  1  0
 22 23  1  0
 23 24  1  0
 24 25  1  0
 25 26  1  0
 26 27  1  0
 18 28  2  0
 28 29  1  0
 29 30  2  0
 30 31  1  0
  9  4  1  0
 15 10  1  0
 30 16  1  0
 27 22  1  0
  3 32  1  0
  5 33  1  0
  6 34  1  0
  7 35  1  0
  8 36  1  0
 11 37  1  0
 11 38  1  0
 12 39  1  0
 12 40  1  0
 14 41  1  0
 14 42  1  0
 15 43  1  0
 15 44  1  0
 17 45  1  0
 23 46  1  0
 23 47  1  0
 24 48  1  0
 24 49  1  0
 26 50  1  0
 26 51  1  0
 27 52  1  0
 27 53  1  0
 28 54  1  0
 29 55  1  0
M  CHG  1  31  -1
M  END
>  <UniqueID>  (26) 
22

>  <SMILES>  (26) 
O=C(Nc1ccccc1N1CCOCC1)c1cc(S(=O)(=O)N2CCOCC2)ccc1[O-]

>  <Energy>  (26) 
88.35664467768527

>  <Genealogy>  (26) 
O=C(Nc1ccccc1N1CCOCC1)c1cc(S(=O)(=O)N2CCOCC2)ccc1[O-] (protonated)
O=C(Nc1ccccc1N1CCOCC1)c1cc(S(=O)(=O)N2CCOCC2)ccc1[O-] (3D coordinates assigned)
O=C(Nc1ccccc1N1CCOCC1)c1cc(S(=O)(=O)N2CCOCC2)ccc1[O-] (nonaromatic ring conformer: 88.35664467768527 kcal/mol)

>  <smiles>  (26) 
O=C(Nc1ccccc1N1CCOCC1)c1cc(S(=O)(=O)N2CCOCC2)ccc1O

>  <score_type>  (26) 
oracle

>  <origin>  (26) 
adgpu

>  <m_score__min__energy>  (26) 
-11.75

>  <m_primary>  (26) 
energy

$$$$
26:0
     RDKit          3D

 42 44  0  0  0  0  0  0  0  0999 V2000
   -9.1630   21.7150  -31.5640 C   0  0  0  0  0  0  0  0  0  0  0  0
   -7.8620   21.7270  -32.1390 O   0  0  0  0  0  0  0  0  0  0  0  0
   -6.8060   22.5490  -31.7120 C   0  0  0  0  0  0  0  0  0  0  0  0
   -7.0390   23.8400  -31.2000 C   0  0  0  0  0  0  0  0  0  0  0  0
   -5.9740   24.6370  -30.7790 C   0  0  0  0  0  0  0  0  0  0  0  0
   -4.6600   24.1530  -30.8400 C   0  0  0  0  0  0  0  0  0  0  0  0
   -3.5430   24.9570  -30.4350 N   0  0  0  0  0  0  0  0  0  0  0  0
   -2.6450   24.6630  -29.3570 C   0  0  0  0  0  0  0  0  0  0  0  0
   -1.8820   25.5720  -28.9380 O   0  0  0  0  0  0  0  0  0  0  0  0
   -2.5430   23.3100  -28.7760 C   0  0  0  0  0  0  0  0  0  0  0  0
   -1.4900   22.4220  -28.9750 C   0  0  0  0  0  0  0  0  0  0  0  0
   -1.6800   21.1860  -28.3460 C   0  0  0  0  0  0  0  0  0  0  0  0
   -2.8840   21.0870  -27.6610 C   0  0  0  0  0  0  0  0  0  0  0  0
   -3.7130   22.5380  -27.8420 S   0  0  0  0  0  0  0  0  0  0  0  0
   -4.4210   22.8820  -31.3690 C   0  0  0  0  0  0  0  0  0  0  0  0
   -5.4820   22.0730  -31.8050 C   0  0  0  0  0  0  0  0  0  0  0  0
   -5.1200   20.4720  -32.4750 S   0  0  0  0  0  0  0  0  0  0  0  0
   -3.9950   20.6050  -33.4640 O   0  0  0  0  0  0  0  0  0  0  0  0
   -4.6540   19.5550  -31.3770 O   0  0  0  0  0  0  0  0  0  0  0  0
   -6.5030   19.7620  -33.2830 N   0  0  0  0  0  0  0  0  0  0  0  0
   -6.1040   18.9430  -34.4350 C   0  0  0  0  0  0  0  0  0  0  0  0
   -6.0510   17.4910  -33.9810 C   0  0  0  0  0  0  0  0  0  0  0  0
   -6.7960   17.4430  -32.6600 C   0  0  0  0  0  0  0  0  0  0  0  0
   -7.2530   18.8700  -32.3890 C   0  0  0  0  0  0  0  0  0  0  0  0
   -9.0791   21.7158  -30.4672 H   0  0  0  0  0  0  0  0  0  0  0  0
   -9.7162   22.6081  -31.8901 H   0  0  0  0  0  0  0  0  0  0  0  0
   -9.6997   20.8119  -31.8901 H   0  0  0  0  0  0  0  0  0  0  0  0
   -8.0680   24.2228  -31.1315 H   0  0  0  0  0  0  0  0  0  0  0  0
   -6.1666   25.6505  -30.3972 H   0  0  0  0  0  0  0  0  0  0  0  0
   -0.5966   22.6672  -29.5680 H   0  0  0  0  0  0  0  0  0  0  0  0
   -0.9443   20.3694  -28.3902 H   0  0  0  0  0  0  0  0  0  0  0  0
   -3.2347   20.2101  -27.0971 H   0  0  0  0  0  0  0  0  0  0  0  0
   -3.3883   22.5107  -31.4447 H   0  0  0  0  0  0  0  0  0  0  0  0
   -7.1210   20.5450  -33.6030 H   0  0  0  0  0  0  0  0  0  0  0  0
   -6.8393   19.0546  -35.2455 H   0  0  0  0  0  0  0  0  0  0  0  0
   -5.1209   19.2631  -34.8105 H   0  0  0  0  0  0  0  0  0  0  0  0
   -6.5405   16.8404  -34.7206 H   0  0  0  0  0  0  0  0  0  0  0  0
   -5.0147   17.1379  -33.8742 H   0  0  0  0  0  0  0  0  0  0  0  0
   -7.6634   16.7705  -32.7337 H   0  0  0  0  0  0  0  0  0  0  0  0
   -6.1580   17.0615  -31.8492 H   0  0  0  0  0  0  0  0  0  0  0  0
   -8.3309   18.9614  -32.5882 H   0  0  0  0  0  0  0  0  0  0  0  0
   -7.0692   19.1380  -31.3381 H   0  0  0  0  0  0  0  0  0  0  0  0
  1  2  1  0
  2  3  1  0
  3  4  2  0
  4  5  1  0
  5  6  2  0
  6  7  1  0
  7  8  1  0
  8  9  2  0
  8 10  1  0
 10 11  2  0
 11 12  1  0
 12 13  2  0
 13 14  1  0
  6 15  1  0
 15 16  2  0
 16 17  1  0
 17 18  2  0
 17 19  2  0
 17 20  1  0
 20 21  1  0
 21 22  1  0
 22 23  1  0
 23 24  1  0
 16  3  1  0
 24 20  1  0
 14 10  1  0
  1 25  1  0
  1 26  1  0
  1 27  1  0
  4 28  1  0
  5 29  1  0
 11 30  1  0
 12 31  1  0
 13 32  1  0
 15 33  1  0
 20 34  1  0
 21 35  1  0
 21 36  1  0
 22 37  1  0
 22 38  1  0
 23 39  1  0
 23 40  1  0
 24 41  1  0
 24 42  1  0
M  CHG  2   7  -1  20   1
M  END
>  <UniqueID>  (27) 
23

>  <SMILES>  (27) 
COc1ccc([N-]C(=O)c2cccs2)cc1S(=O)(=O)[NH+]1CCCC1

>  <Energy>  (27) 
74.81631780031734

>  <Genealogy>  (27) 
COc1ccc([N-]C(=O)c2cccs2)cc1S(=O)(=O)[NH+]1CCCC1 (protonated)
COc1ccc([N-]C(=O)c2cccs2)cc1S(=O)(=O)[NH+]1CCCC1 (3D coordinates assigned)
COc1ccc([N-]C(=O)c2cccs2)cc1S(=O)(=O)[NH+]1CCCC1 (nonaromatic ring conformer: 74.81631780031734 kcal/mol)

>  <smiles>  (27) 
COc1ccc(NC(=O)c2cccs2)cc1S(=O)(=O)N1CCCC1

>  <score_type>  (27) 
oracle

>  <origin>  (27) 
adgpu

>  <m_score__min__energy>  (27) 
-9.3399999999999999

>  <m_primary>  (27) 
energy

$$$$
27:0
     RDKit          3D

 47 49  0  0  0  0  0  0  0  0999 V2000
    0.1100   17.0050  -35.6010 C   0  0  0  0  0  0  0  0  0  0  0  0
   -1.0830   16.1710  -35.8010 N   0  0  0  0  0  0  0  0  0  0  0  0
   -1.0250   15.0740  -36.7750 C   0  0  0  0  0  0  0  0  0  0  0  0
   -2.2980   16.4260  -35.0450 C   0  0  0  0  0  0  0  0  0  0  0  0
   -3.5170   16.7000  -35.7020 C   0  0  0  0  0  0  0  0  0  0  0  0
   -4.6830   16.9470  -34.9730 C   0  0  0  0  0  0  0  0  0  0  0  0
   -4.6610   16.9240  -33.5750 C   0  0  0  0  0  0  0  0  0  0  0  0
   -6.1340   17.2670  -32.6730 S   0  0  0  0  0  0  0  0  0  0  0  0
   -6.1130   16.5690  -31.3420 O   0  0  0  0  0  0  0  0  0  0  0  0
   -7.3140   16.7650  -33.4570 O   0  0  0  0  0  0  0  0  0  0  0  0
   -6.2530   19.0030  -32.4130 C   0  0  0  0  0  0  0  0  0  0  0  0
   -7.2920   19.5430  -31.6410 C   0  0  0  0  0  0  0  0  0  0  0  0
   -7.3810   20.9260  -31.4540 C   0  0  0  0  0  0  0  0  0  0  0  0
   -6.4290   21.7820  -32.0210 C   0  0  0  0  0  0  0  0  0  0  0  0
   -6.5610   23.1970  -31.8210 N   0  0  0  0  0  0  0  0  0  0  0  0
   -6.1720   23.9280  -30.6510 C   0  0  0  0  0  0  0  0  0  0  0  0
   -7.0100   24.7010  -30.1170 O   0  0  0  0  0  0  0  0  0  0  0  0
   -4.8420   23.7480  -30.0200 C   0  0  0  0  0  0  0  0  0  0  0  0
   -4.5000   22.5110  -29.4470 C   0  0  0  0  0  0  0  0  0  0  0  0
   -3.2510   22.3270  -28.8490 C   0  0  0  0  0  0  0  0  0  0  0  0
   -2.3270   23.3750  -28.8050 C   0  0  0  0  0  0  0  0  0  0  0  0
   -1.0890   23.1630  -28.2010 O   0  0  0  0  0  0  0  0  0  0  0  0
   -2.6590   24.6180  -29.3660 C   0  0  0  0  0  0  0  0  0  0  0  0
   -1.7490   25.6680  -29.3280 O   0  0  0  0  0  0  0  0  0  0  0  0
   -3.9110   24.8060  -29.9700 C   0  0  0  0  0  0  0  0  0  0  0  0
   -4.2140   26.0430  -30.5330 O   0  0  0  0  0  0  0  0  0  0  0  0
   -5.4020   21.2400  -32.8150 C   0  0  0  0  0  0  0  0  0  0  0  0
   -5.3130   19.8580  -33.0010 C   0  0  0  0  0  0  0  0  0  0  0  0
   -3.4610   16.6590  -32.9090 C   0  0  0  0  0  0  0  0  0  0  0  0
   -2.2920   16.4100  -33.6340 C   0  0  0  0  0  0  0  0  0  0  0  0
    0.2920   17.1322  -34.5237 H   0  0  0  0  0  0  0  0  0  0  0  0
    0.9802   16.5175  -36.0648 H   0  0  0  0  0  0  0  0  0  0  0  0
   -0.0490   17.9897  -36.0648 H   0  0  0  0  0  0  0  0  0  0  0  0
   -0.9742   14.1130  -36.2423 H   0  0  0  0  0  0  0  0  0  0  0  0
   -1.9256   15.0961  -37.4063 H   0  0  0  0  0  0  0  0  0  0  0  0
   -0.1318   15.1910  -37.4063 H   0  0  0  0  0  0  0  0  0  0  0  0
   -3.5493   16.7193  -36.8014 H   0  0  0  0  0  0  0  0  0  0  0  0
   -5.6236   17.1608  -35.5017 H   0  0  0  0  0  0  0  0  0  0  0  0
   -8.0380   18.8776  -31.1819 H   0  0  0  0  0  0  0  0  0  0  0  0
   -8.2048   21.3444  -30.8572 H   0  0  0  0  0  0  0  0  0  0  0  0
   -5.2216   21.6811  -29.4696 H   0  0  0  0  0  0  0  0  0  0  0  0
   -2.9931   21.3518  -28.4102 H   0  0  0  0  0  0  0  0  0  0  0  0
   -0.3860   23.8900  -28.1450 H   0  0  0  0  0  0  0  0  0  0  0  0
   -4.6670   21.9059  -33.2907 H   0  0  0  0  0  0  0  0  0  0  0  0
   -4.5001   19.4395  -33.6126 H   0  0  0  0  0  0  0  0  0  0  0  0
   -3.4364   16.6463  -31.8093 H   0  0  0  0  0  0  0  0  0  0  0  0
   -1.3552   16.1988  -33.0975 H   0  0  0  0  0  0  0  0  0  0  0  0
  1  2  1  0
  2  3  1  0
  2  4  1  0
  4  5  2  0
  5  6  1  0
  6  7  2  0
  7  8  1  0
  8  9  2  0
  8 10  2  0
  8 11  1  0
 11 12  2  0
 12 13  1  0
 13 14  2  0
 14 15  1  0
 15 16  1  0
 16 17  2  0
 16 18  1  0
 18 19  2  0
 19 20  1  0
 20 21  2  0
 21 22  1  0
 21 23  1  0
 23 24  1  0
 23 25  2  0
 25 26  1  0
 14 27  1  0
 27 28  2  0
  7 29  1  0
 29 30  2  0
 30  4  1  0
 28 11  1  0
 25 18  1  0
  1 31  1  0
  1 32  1  0
  1 33  1  0
  3 34  1  0
  3 35  1  0
  3 36  1  0
  5 37  1  0
  6 38  1  0
 12 39  1  0
 13 40  1  0
 19 41  1  0
 20 42  1  0
 22 43  1  0
 27 44  1  0
 28 45  1  0
 29 46  1  0
 30 47  1  0
M  CHG  3  15  -1  24  -1  26  -1
M  END
>  <UniqueID>  (28) 
24

>  <SMILES>  (28) 
CN(C)c1ccc(S(=O)(=O)c2ccc([N-]C(=O)c3ccc(O)c([O-])c3[O-])cc2)cc1

>  <Energy>  (28) 
61.549867550336295

>  <Genealogy>  (28) 
CN(C)c1ccc(S(=O)(=O)c2ccc([N-]C(=O)c3ccc(O)c([O-])c3[O-])cc2)cc1 (protonated)
CN(C)c1ccc(S(=O)(=O)c2ccc([N-]C(=O)c3ccc(O)c([O-])c3[O-])cc2)cc1 (3D coordinates assigned)
CN(C)c1ccc(S(=O)(=O)c2ccc([N-]C(=O)c3ccc(O)c([O-])c3[O-])cc2)cc1 (optimized conformer: 61.549867550336295 kcal/mol)

>  <smiles>  (28) 
CN(C)c1ccc(S(=O)(=O)c2ccc(NC(=O)c3ccc(O)c(O)c3O)cc2)cc1

>  <score_type>  (28) 
oracle

>  <origin>  (28) 
adgpu

>  <m_score__min__energy>  (28) 
-14.01

>  <m_primary>  (28) 
energy

$$$$
28:0
     RDKit          3D

 37 39  0  0  0  0  0  0  0  0999 V2000
   -4.1410   22.6130  -27.8990 C   0  0  0  0  0  0  0  0  0  0  0  0
   -4.6050   23.5750  -28.9630 C   0  0  0  0  0  0  0  0  0  0  0  0
   -5.9570   23.5730  -29.3450 C   0  0  0  0  0  0  0  0  0  0  0  0
   -6.4190   24.4730  -30.3040 C   0  0  0  0  0  0  0  0  0  0  0  0
   -5.5230   25.3670  -30.8900 C   0  0  0  0  0  0  0  0  0  0  0  0
   -4.2130   25.3470  -30.5330 N   0  0  0  0  0  0  0  0  0  0  0  0
   -3.7220   24.4840  -29.5990 C   0  0  0  0  0  0  0  0  0  0  0  0
   -2.2740   24.5390  -29.2920 C   0  0  0  0  0  0  0  0  0  0  0  0
   -1.7470   25.6330  -28.9590 O   0  0  0  0  0  0  0  0  0  0  0  0
   -1.4680   23.3530  -29.2660 N   0  0  0  0  0  0  0  0  0  0  0  0
   -1.5110   22.2950  -30.2310 C   0  0  0  0  0  0  0  0  0  0  0  0
   -0.4320   21.5550  -30.6670 C   0  0  0  0  0  0  0  0  0  0  0  0
   -0.8530   20.6950  -31.6180 N   0  0  0  0  0  0  0  0  0  0  0  0
   -2.1520   20.8930  -31.7860 N   0  0  0  0  0  0  0  0  0  0  0  0
   -3.1300   20.0110  -32.9060 S   0  0  0  0  0  0  0  0  0  0  0  0
   -2.7290   20.3610  -34.3130 O   0  0  0  0  0  0  0  0  0  0  0  0
   -2.9250   18.5360  -32.7000 O   0  0  0  0  0  0  0  0  0  0  0  0
   -4.8220   20.4260  -32.6550 C   0  0  0  0  0  0  0  0  0  0  0  0
   -5.2240   21.7680  -32.6050 C   0  0  0  0  0  0  0  0  0  0  0  0
   -6.5660   22.0920  -32.3810 C   0  0  0  0  0  0  0  0  0  0  0  0
   -7.5120   21.0790  -32.1970 C   0  0  0  0  0  0  0  0  0  0  0  0
   -7.1150   19.7380  -32.2340 C   0  0  0  0  0  0  0  0  0  0  0  0
   -8.2950   18.4640  -31.9890 Cl  0  0  0  0  0  0  0  0  0  0  0  0
   -5.7720   19.4120  -32.4620 C   0  0  0  0  0  0  0  0  0  0  0  0
   -2.5940   21.8640  -30.9670 C   0  0  0  0  0  0  0  0  0  0  0  0
   -4.3461   23.0383  -26.9055 H   0  0  0  0  0  0  0  0  0  0  0  0
   -4.6781   21.6592  -28.0076 H   0  0  0  0  0  0  0  0  0  0  0  0
   -3.0602   22.4396  -28.0076 H   0  0  0  0  0  0  0  0  0  0  0  0
   -6.6545   22.8576  -28.8850 H   0  0  0  0  0  0  0  0  0  0  0  0
   -7.4796   24.4781  -30.5957 H   0  0  0  0  0  0  0  0  0  0  0  0
   -5.8775   26.0881  -31.6412 H   0  0  0  0  0  0  0  0  0  0  0  0
    0.6007   21.6500  -30.3003 H   0  0  0  0  0  0  0  0  0  0  0  0
   -4.4820   22.5684  -32.7423 H   0  0  0  0  0  0  0  0  0  0  0  0
   -6.8780   23.1464  -32.3495 H   0  0  0  0  0  0  0  0  0  0  0  0
   -8.5673   21.3362  -32.0233 H   0  0  0  0  0  0  0  0  0  0  0  0
   -5.4611   18.3572  -32.4898 H   0  0  0  0  0  0  0  0  0  0  0  0
   -3.6245   22.2425  -30.8976 H   0  0  0  0  0  0  0  0  0  0  0  0
  1  2  1  0
  2  3  2  0
  3  4  1  0
  4  5  2  0
  5  6  1  0
  6  7  2  0
  7  8  1  0
  8  9  2  0
  8 10  1  0
 10 11  1  0
 11 12  1  0
 12 13  2  0
 13 14  1  0
 14 15  1  0
 15 16  2  0
 15 17  2  0
 15 18  1  0
 18 19  2  0
 19 20  1  0
 20 21  2  0
 21 22  1  0
 22 23  1  0
 22 24  2  0
 14 25  1  0
  7  2  1  0
 25 11  2  0
 24 18  1  0
  1 26  1  0
  1 27  1  0
  1 28  1  0
  3 29  1  0
  4 30  1  0
  5 31  1  0
 12 32  1  0
 19 33  1  0
 20 34  1  0
 21 35  1  0
 24 36  1  0
 25 37  1  0
M  CHG  1  10  -1
M  END
>  <UniqueID>  (29) 
25

>  <SMILES>  (29) 
Cc1cccnc1C(=O)[N-]c1cnn(S(=O)(=O)c2cccc(Cl)c2)c1

>  <Energy>  (29) 
79.20757770202057

>  <Genealogy>  (29) 
Cc1cccnc1C(=O)[N-]c1cnn(S(=O)(=O)c2cccc(Cl)c2)c1 (protonated)
Cc1cccnc1C(=O)[N-]c1cnn(S(=O)(=O)c2cccc(Cl)c2)c1 (3D coordinates assigned)
Cc1cccnc1C(=O)[N-]c1cnn(S(=O)(=O)c2cccc(Cl)c2)c1 (optimized conformer: 79.20757770202057 kcal/mol)

>  <smiles>  (29) 
Cc1cccnc1C(=O)Nc1cnn(S(=O)(=O)c2cccc(Cl)c2)c1

>  <score_type>  (29) 
oracle

>  <origin>  (29) 
adgpu

>  <m_score__min__energy>  (29) 
-10.81

>  <m_primary>  (29) 
energy

$$$$
29:0
     RDKit          3D

 32 35  0  0  0  0  0  0  0  0999 V2000
   -6.8600   25.2090  -30.0820 C   0  0  0  0  0  0  0  0  0  0  0  0
   -5.7540   24.3870  -30.6640 C   0  0  0  0  0  0  0  0  0  0  0  0
   -4.4650   24.7830  -30.5960 N   0  0  0  0  0  0  0  0  0  0  0  0
   -3.7280   23.8480  -31.1770 N   0  0  0  0  0  0  0  0  0  0  0  0
   -4.5820   22.8970  -31.5970 C   0  0  0  0  0  0  0  0  0  0  0  0
   -4.2430   21.7010  -32.2430 C   0  0  0  0  0  0  0  0  0  0  0  0
   -2.8490   21.3380  -32.5920 C   0  0  0  0  0  0  0  0  0  0  0  0
   -1.8260   21.5120  -31.6430 C   0  0  0  0  0  0  0  0  0  0  0  0
   -0.5070   21.1620  -31.9490 C   0  0  0  0  0  0  0  0  0  0  0  0
   -0.1980   20.6240  -33.2010 C   0  0  0  0  0  0  0  0  0  0  0  0
    1.0800   20.2830  -33.4960 F   0  0  0  0  0  0  0  0  0  0  0  0
   -1.2090   20.4290  -34.1460 C   0  0  0  0  0  0  0  0  0  0  0  0
   -2.5290   20.7800  -33.8430 C   0  0  0  0  0  0  0  0  0  0  0  0
   -5.2540   20.8360  -32.5330 N   0  0  0  0  0  0  0  0  0  0  0  0
   -6.5560   21.1110  -32.2350 C   0  0  0  0  0  0  0  0  0  0  0  0
   -7.5520   20.1880  -32.5650 C   0  0  0  0  0  0  0  0  0  0  0  0
   -8.8880   20.4620  -32.2690 C   0  0  0  0  0  0  0  0  0  0  0  0
   -9.2340   21.6610  -31.6420 C   0  0  0  0  0  0  0  0  0  0  0  0
   -8.2490   22.5960  -31.3040 C   0  0  0  0  0  0  0  0  0  0  0  0
   -6.8940   22.3340  -31.5930 C   0  0  0  0  0  0  0  0  0  0  0  0
   -5.8620   23.1870  -31.2910 N   0  0  0  0  0  0  0  0  0  0  0  0
   -6.8072   25.1698  -28.9840 H   0  0  0  0  0  0  0  0  0  0  0  0
   -6.7573   26.2517  -30.4170 H   0  0  0  0  0  0  0  0  0  0  0  0
   -7.8288   24.8100  -30.4170 H   0  0  0  0  0  0  0  0  0  0  0  0
   -2.0650   21.9265  -30.6525 H   0  0  0  0  0  0  0  0  0  0  0  0
    0.2880   21.3104  -31.2033 H   0  0  0  0  0  0  0  0  0  0  0  0
   -0.9667   19.9991  -35.1291 H   0  0  0  0  0  0  0  0  0  0  0  0
   -3.3220   20.6185  -34.5881 H   0  0  0  0  0  0  0  0  0  0  0  0
   -7.2823   19.2431  -33.0593 H   0  0  0  0  0  0  0  0  0  0  0  0
   -9.6693   19.7329  -32.5298 H   0  0  0  0  0  0  0  0  0  0  0  0
  -10.2888   21.8721  -31.4121 H   0  0  0  0  0  0  0  0  0  0  0  0
   -8.5326   23.5378  -30.8116 H   0  0  0  0  0  0  0  0  0  0  0  0
  1  2  1  0
  2  3  2  0
  3  4  1  0
  4  5  2  0
  5  6  1  0
  6  7  1  0
  7  8  2  0
  8  9  1  0
  9 10  2  0
 10 11  1  0
 10 12  1  0
 12 13  2  0
  6 14  2  0
 14 15  1  0
 15 16  2  0
 16 17  1  0
 17 18  2  0
 18 19  1  0
 19 20  2  0
 20 21  1  0
 21  2  1  0
 21  5  1  0
 13  7  1  0
 20 15  1  0
  1 22  1  0
  1 23  1  0
  1 24  1  0
  8 25  1  0
  9 26  1  0
 12 27  1  0
 13 28  1  0
 16 29  1  0
 17 30  1  0
 18 31  1  0
 19 32  1  0
M  END
>  <UniqueID>  (30) 
26

>  <SMILES>  (30) 
Cc1nnc2c(-c3ccc(F)cc3)nc3ccccc3n12

>  <Energy>  (30) 
90.55749336569698

>  <Genealogy>  (30) 
Cc1nnc2c(-c3ccc(F)cc3)nc3ccccc3n12 (3D coordinates assigned)
Cc1nnc2c(-c3ccc(F)cc3)nc3ccccc3n12 (optimized conformer: 90.55749336569698 kcal/mol)

>  <smiles>  (30) 
Cc1nnc2c(-c3ccc(F)cc3)nc3ccccc3n12

>  <score_type>  (30) 
oracle

>  <origin>  (30) 
adgpu

>  <m_score__min__energy>  (30) 
-8.4700000000000006

>  <m_primary>  (30) 
energy

$$$$
30:0
     RDKit          3D

 45 47  0  0  0  0  0  0  0  0999 V2000
    0.0230   29.2960  -24.7690 C   0  0  0  0  0  0  0  0  0  0  0  0
    0.7380   28.0870  -24.6490 O   0  0  0  0  0  0  0  0  0  0  0  0
    0.5860   27.5810  -23.3390 C   0  0  0  0  0  0  0  0  0  0  0  0
   -0.5110   26.5200  -23.3250 C   0  0  0  0  0  0  0  0  0  0  0  0
   -1.0460   26.3170  -24.6710 N   0  0  0  0  0  0  0  0  0  0  0  0
   -1.2250   25.0100  -25.2440 C   0  0  0  0  0  0  0  0  0  0  0  0
   -0.8580   23.9890  -24.5970 O   0  0  0  0  0  0  0  0  0  0  0  0
   -1.8170   24.8390  -26.5920 C   0  0  0  0  0  0  0  0  0  0  0  0
   -1.0040   24.9430  -27.7350 C   0  0  0  0  0  0  0  0  0  0  0  0
   -1.5500   24.7840  -29.0110 C   0  0  0  0  0  0  0  0  0  0  0  0
   -2.9220   24.5260  -29.1680 C   0  0  0  0  0  0  0  0  0  0  0  0
   -3.5060   24.3380  -30.4640 N   0  0  0  0  0  0  0  0  0  0  0  0
   -4.8810   24.5670  -30.7900 C   0  0  0  0  0  0  0  0  0  0  0  0
   -5.2880   25.7530  -30.9120 O   0  0  0  0  0  0  0  0  0  0  0  0
   -5.7840   23.4750  -31.0270 N   0  0  0  0  0  0  0  0  0  0  0  0
   -5.3680   22.1670  -31.5420 C   0  0  0  0  0  0  0  0  0  0  0  0
   -6.6560   21.5060  -31.8590 C   0  0  0  0  0  0  0  0  0  0  0  0
   -6.8570   20.2230  -32.3730 C   0  0  0  0  0  0  0  0  0  0  0  0
   -8.1750   19.7910  -32.5960 C   0  0  0  0  0  0  0  0  0  0  0  0
   -9.2600   20.6400  -32.3050 C   0  0  0  0  0  0  0  0  0  0  0  0
   -9.0330   21.9260  -31.7880 C   0  0  0  0  0  0  0  0  0  0  0  0
   -7.7150   22.3350  -31.5730 C   0  0  0  0  0  0  0  0  0  0  0  0
   -7.2400   23.6360  -31.0470 C   0  0  0  0  0  0  0  0  0  0  0  0
   -3.7270   24.3850  -28.0330 C   0  0  0  0  0  0  0  0  0  0  0  0
   -3.1830   24.5440  -26.7550 C   0  0  0  0  0  0  0  0  0  0  0  0
   -0.2079   29.6864  -23.7669 H   0  0  0  0  0  0  0  0  0  0  0  0
    0.6326   30.0297  -25.3169 H   0  0  0  0  0  0  0  0  0  0  0  0
   -0.9136   29.1153  -25.3169 H   0  0  0  0  0  0  0  0  0  0  0  0
    1.5339   27.1321  -23.0075 H   0  0  0  0  0  0  0  0  0  0  0  0
    0.3101   28.4012  -22.6599 H   0  0  0  0  0  0  0  0  0  0  0  0
   -0.0929   25.5722  -22.9551 H   0  0  0  0  0  0  0  0  0  0  0  0
   -1.3245   26.8588  -22.6667 H   0  0  0  0  0  0  0  0  0  0  0  0
   -1.1470   27.1610  -25.2780 H   0  0  0  0  0  0  0  0  0  0  0  0
    0.0703   25.1512  -27.6233 H   0  0  0  0  0  0  0  0  0  0  0  0
   -0.9026   24.8612  -29.8970 H   0  0  0  0  0  0  0  0  0  0  0  0
   -4.7479   22.2767  -32.4439 H   0  0  0  0  0  0  0  0  0  0  0  0
   -4.7532   21.5973  -30.8297 H   0  0  0  0  0  0  0  0  0  0  0  0
   -6.0036   19.5664  -32.5979 H   0  0  0  0  0  0  0  0  0  0  0  0
   -8.3603   18.7847  -32.9999 H   0  0  0  0  0  0  0  0  0  0  0  0
  -10.2891   20.2948  -32.4832 H   0  0  0  0  0  0  0  0  0  0  0  0
   -9.8744   22.5960  -31.5576 H   0  0  0  0  0  0  0  0  0  0  0  0
   -7.5368   24.4620  -31.7100 H   0  0  0  0  0  0  0  0  0  0  0  0
   -7.6611   23.8835  -30.0614 H   0  0  0  0  0  0  0  0  0  0  0  0
   -4.7950   24.1475  -28.1466 H   0  0  0  0  0  0  0  0  0  0  0  0
   -3.8278   24.4377  -25.8702 H   0  0  0  0  0  0  0  0  0  0  0  0
  1  2  1  0
  2  3  1  0
  3  4  1  0
  4  5  1  0
  5  6  1  0
  6  7  2  0
  6  8  1  0
  8  9  2  0
  9 10  1  0
 10 11  2  0
 11 12  1  0
 12 13  1  0
 13 14  2  0
 13 15  1  0
 15 16  1  0
 16 17  1  0
 17 18  2  0
 18 19  1  0
 19 20  2  0
 20 21  1  0
 21 22  2  0
 22 23  1  0
 11 24  1  0
 24 25  2  0
 25  8  1  0
 23 15  1  0
 22 17  1  0
  1 26  1  0
  1 27  1  0
  1 28  1  0
  3 29  1  0
  3 30  1  0
  4 31  1  0
  4 32  1  0
  5 33  1  0
  9 34  1  0
 10 35  1  0
 16 36  1  0
 16 37  1  0
 18 38  1  0
 19 39  1  0
 20 40  1  0
 21 41  1  0
 23 42  1  0
 23 43  1  0
 24 44  1  0
 25 45  1  0
M  CHG  1  12  -1
M  END
>  <UniqueID>  (31) 
27

>  <SMILES>  (31) 
COCCNC(=O)c1ccc([N-]C(=O)N2Cc3ccccc3C2)cc1

>  <Energy>  (31) 
61.36653911178062

>  <Genealogy>  (31) 
COCCNC(=O)c1ccc([N-]C(=O)N2Cc3ccccc3C2)cc1 (protonated)
COCCNC(=O)c1ccc([N-]C(=O)N2Cc3ccccc3C2)cc1 (3D coordinates assigned)
COCCNC(=O)c1ccc([N-]C(=O)N2Cc3ccccc3C2)cc1 (nonaromatic ring conformer: 61.36653911178062 kcal/mol)

>  <smiles>  (31) 
COCCNC(=O)c1ccc(NC(=O)N2Cc3ccccc3C2)cc1

>  <score_type>  (31) 
oracle

>  <origin>  (31) 
adgpu

>  <m_score__min__energy>  (31) 
-9.3599999999999994

>  <m_primary>  (31) 
energy

$$$$
31:0
     RDKit          3D

 34 36  0  0  0  0  0  0  0  0999 V2000
   -1.4180   19.7244  -27.6394 H   0  0  0  0  0  0  0  0  0  0  0  0
   -1.6390   20.7470  -27.9790 C   0  0  0  0  0  0  0  0  0  0  0  0
   -0.7810   21.3840  -28.8180 N   0  0  0  0  0  0  0  0  0  0  0  0
   -1.0190   22.6480  -29.2630 C   0  0  0  0  0  0  0  0  0  0  0  0
   -0.3027   23.1332  -29.9424 H   0  0  0  0  0  0  0  0  0  0  0  0
   -2.1770   23.3370  -28.8580 C   0  0  0  0  0  0  0  0  0  0  0  0
   -2.4460   24.7130  -29.3340 C   0  0  0  0  0  0  0  0  0  0  0  0
   -1.7010   25.6620  -28.9660 O   0  0  0  0  0  0  0  0  0  0  0  0
   -3.5200   24.9570  -30.2540 N   0  0  0  0  0  0  0  0  0  0  0  0
   -4.6720   24.1270  -30.4630 C   0  0  0  0  0  0  0  0  0  0  0  0
   -5.9270   24.6070  -30.0650 C   0  0  0  0  0  0  0  0  0  0  0  0
   -6.0076   25.5959  -29.5900 H   0  0  0  0  0  0  0  0  0  0  0  0
   -7.0770   23.8390  -30.2670 C   0  0  0  0  0  0  0  0  0  0  0  0
   -8.0545   24.2174  -29.9333 H   0  0  0  0  0  0  0  0  0  0  0  0
   -6.9890   22.5890  -30.8930 C   0  0  0  0  0  0  0  0  0  0  0  0
   -8.4350   21.6150  -31.1370 S   0  0  0  0  0  0  0  0  0  0  0  0
   -9.4040   21.8670  -30.0150 O   0  0  0  0  0  0  0  0  0  0  0  0
   -9.0790   21.9940  -32.4410 O   0  0  0  0  0  0  0  0  0  0  0  0
   -7.9840   19.9410  -31.1630 N   0  0  0  0  0  0  0  0  0  0  0  0
   -7.3490   19.3710  -32.1410 C   0  0  0  0  0  0  0  0  0  0  0  0
   -7.0180   18.0630  -32.1190 N   0  0  0  0  0  0  0  0  0  0  0  0
   -6.3610   17.6940  -33.2500 C   0  0  0  0  0  0  0  0  0  0  0  0
   -6.0093   16.6654  -33.4181 H   0  0  0  0  0  0  0  0  0  0  0  0
   -6.1650   18.7100  -34.1800 C   0  0  0  0  0  0  0  0  0  0  0  0
   -5.6569   18.6078  -35.1503 H   0  0  0  0  0  0  0  0  0  0  0  0
   -6.8400   20.1220  -33.5630 S   0  0  0  0  0  0  0  0  0  0  0  0
   -5.7390   22.1110  -31.3080 C   0  0  0  0  0  0  0  0  0  0  0  0
   -5.6630   21.1279  -31.7957 H   0  0  0  0  0  0  0  0  0  0  0  0
   -4.5880   22.8780  -31.1050 C   0  0  0  0  0  0  0  0  0  0  0  0
   -3.6125   22.5034  -31.4487 H   0  0  0  0  0  0  0  0  0  0  0  0
   -3.0690   22.6860  -27.9880 C   0  0  0  0  0  0  0  0  0  0  0  0
   -3.9818   23.2004  -27.6530 H   0  0  0  0  0  0  0  0  0  0  0  0
   -2.8000   21.3890  -27.5480 C   0  0  0  0  0  0  0  0  0  0  0  0
   -3.4971   20.8778  -26.8677 H   0  0  0  0  0  0  0  0  0  0  0  0
  1  2  1  0
  2  3  2  0
  3  4  1  0
  4  5  1  0
  4  6  2  0
  6  7  1  0
  7  8  2  0
  7  9  1  0
  9 10  1  0
 10 11  2  0
 11 12  1  0
 11 13  1  0
 13 14  1  0
 13 15  2  0
 15 16  1  0
 16 17  2  0
 16 18  2  0
 16 19  1  0
 19 20  2  0
 20 21  1  0
 21 22  1  0
 22 23  1  0
 22 24  2  0
 24 25  1  0
 24 26  1  0
 15 27  1  0
 27 28  1  0
 27 29  2  0
 29 30  1  0
  6 31  1  0
 31 32  1  0
 31 33  2  0
 33 34  1  0
 33  2  1  0
 29 10  1  0
 26 20  1  0
M  CHG  2   9  -1  21  -1
M  END
>  <UniqueID>  (32) 
28

>  <SMILES>  (32) 
O=C([N-]c1ccc(S(=O)(=O)/N=c2/[n-]ccs2)cc1)c1cccnc1

>  <Energy>  (32) 
76.43029207104254

>  <Genealogy>  (32) 
O=C([N-]c1ccc(S(=O)(=O)N=c2[n-]ccs2)cc1)c1cccnc1 (protonated)
O=C([N-]c1ccc(S(=O)(=O)/N=c2/[n-]ccs2)cc1)c1cccnc1 (cis-trans isomerization)
O=C([N-]c1ccc(S(=O)(=O)/N=c2/[n-]ccs2)cc1)c1cccnc1 (3D coordinates assigned)
O=C([N-]c1ccc(S(=O)(=O)/N=c2/[n-]ccs2)cc1)c1cccnc1 (optimized conformer: 76.43029207104254 kcal/mol)

>  <smiles>  (32) 
O=C(Nc1ccc(S(=O)(=O)N=c2[nH]ccs2)cc1)c1cccnc1

>  <score_type>  (32) 
oracle

>  <origin>  (32) 
adgpu

>  <m_score__min__energy>  (32) 
-9.9800000000000004

>  <m_primary>  (32) 
energy

$$$$
32:0
     RDKit          3D

 52 55  0  0  0  0  0  0  0  0999 V2000
   -0.1570   29.6470  -24.8480 C   0  0  0  0  0  0  0  0  0  0  0  0
   -0.6190   28.2860  -25.1660 N   0  0  0  0  0  0  0  0  0  0  0  0
    0.2720   27.6250  -26.1530 C   0  0  0  0  0  0  0  0  0  0  0  0
    1.2790   26.6690  -25.4890 C   0  0  0  0  0  0  0  0  0  0  0  0
    0.6220   25.6310  -24.6580 N   0  0  0  0  0  0  0  0  0  0  0  0
    0.5940   24.0780  -25.4590 S   0  0  0  0  0  0  0  0  0  0  0  0
    0.2700   23.0030  -24.4590 O   0  0  0  0  0  0  0  0  0  0  0  0
    1.9570   23.7900  -26.0270 O   0  0  0  0  0  0  0  0  0  0  0  0
   -0.5970   24.0360  -26.7620 C   0  0  0  0  0  0  0  0  0  0  0  0
   -1.6140   23.0720  -26.7590 C   0  0  0  0  0  0  0  0  0  0  0  0
   -2.5620   23.0440  -27.7850 C   0  0  0  0  0  0  0  0  0  0  0  0
   -2.5030   23.9720  -28.8390 C   0  0  0  0  0  0  0  0  0  0  0  0
   -3.5130   23.9270  -29.9230 C   0  0  0  0  0  0  0  0  0  0  0  0
   -4.4090   24.9180  -30.2700 C   0  0  0  0  0  0  0  0  0  0  0  0
   -5.1470   24.4990  -31.3120 N   0  0  0  0  0  0  0  0  0  0  0  0
   -4.6850   23.2570  -31.5640 C   0  0  0  0  0  0  0  0  0  0  0  0
   -5.1970   22.3950  -32.6790 C   0  0  1  0  0  0  0  0  0  0  0  0
   -4.3040   21.3370  -32.9110 O   0  0  0  0  0  0  0  0  0  0  0  0
   -6.5660   21.8550  -32.3320 C   0  0  0  0  0  0  0  0  0  0  0  0
   -7.5950   22.7240  -31.9230 C   0  0  0  0  0  0  0  0  0  0  0  0
   -8.8590   22.2200  -31.6010 C   0  0  0  0  0  0  0  0  0  0  0  0
   -9.1050   20.8460  -31.6830 C   0  0  0  0  0  0  0  0  0  0  0  0
   -8.0900   19.9770  -32.0920 C   0  0  0  0  0  0  0  0  0  0  0  0
   -6.8270   20.4770  -32.4190 C   0  0  0  0  0  0  0  0  0  0  0  0
   -3.6810   22.8740  -30.7460 N   0  0  0  0  0  0  0  0  0  0  0  0
   -1.4760   24.9340  -28.8380 C   0  0  0  0  0  0  0  0  0  0  0  0
   -0.5330   24.9640  -27.8080 C   0  0  0  0  0  0  0  0  0  0  0  0
   -0.7320   26.0000  -24.1960 C   0  0  0  0  0  0  0  0  0  0  0  0
   -0.8220   27.5040  -23.9250 C   0  0  0  0  0  0  0  0  0  0  0  0
   -0.1139   29.7739  -23.7562 H   0  0  0  0  0  0  0  0  0  0  0  0
    0.8446   29.8034  -25.2751 H   0  0  0  0  0  0  0  0  0  0  0  0
   -0.8564   30.3808  -25.2751 H   0  0  0  0  0  0  0  0  0  0  0  0
   -0.3469   27.0512  -26.8585 H   0  0  0  0  0  0  0  0  0  0  0  0
    0.8452   28.4115  -26.6657 H   0  0  0  0  0  0  0  0  0  0  0  0
    1.8633   26.1710  -26.2768 H   0  0  0  0  0  0  0  0  0  0  0  0
    1.9186   27.2695  -24.8254 H   0  0  0  0  0  0  0  0  0  0  0  0
   -1.6662   22.3339  -25.9451 H   0  0  0  0  0  0  0  0  0  0  0  0
   -3.3617   22.2889  -27.7677 H   0  0  0  0  0  0  0  0  0  0  0  0
   -4.5038   25.8947  -29.7730 H   0  0  0  0  0  0  0  0  0  0  0  0
   -5.2787   23.0014  -33.5931 H   0  0  0  0  0  0  0  0  0  0  0  0
   -3.6420   21.3520  -32.1700 H   0  0  0  0  0  0  0  0  0  0  0  0
   -7.4038   23.8052  -31.8563 H   0  0  0  0  0  0  0  0  0  0  0  0
   -9.6595   22.9042  -31.2833 H   0  0  0  0  0  0  0  0  0  0  0  0
  -10.0980   20.4490  -31.4254 H   0  0  0  0  0  0  0  0  0  0  0  0
   -8.2859   18.8965  -32.1567 H   0  0  0  0  0  0  0  0  0  0  0  0
   -6.0335   19.7889  -32.7460 H   0  0  0  0  0  0  0  0  0  0  0  0
   -1.4153   25.6682  -29.6549 H   0  0  0  0  0  0  0  0  0  0  0  0
    0.2647   25.7214  -27.8189 H   0  0  0  0  0  0  0  0  0  0  0  0
   -1.4640   25.7286  -24.9709 H   0  0  0  0  0  0  0  0  0  0  0  0
   -0.9456   25.4597  -23.2620 H   0  0  0  0  0  0  0  0  0  0  0  0
   -1.8157   27.7354  -23.5138 H   0  0  0  0  0  0  0  0  0  0  0  0
   -0.0324   27.7763  -23.2092 H   0  0  0  0  0  0  0  0  0  0  0  0
  1  2  1  0
  2  3  1  0
  3  4  1  0
  4  5  1  0
  5  6  1  0
  6  7  2  0
  6  8  2  0
  6  9  1  0
  9 10  2  0
 10 11  1  0
 11 12  2  0
 12 13  1  0
 13 14  2  0
 14 15  1  0
 15 16  1  0
 16 17  1  0
 17 18  1  0
 17 19  1  0
 19 20  2  0
 20 21  1  0
 21 22  2  0
 22 23  1  0
 23 24  2  0
 16 25  2  0
 12 26  1  0
 26 27  2  0
  5 28  1  0
 28 29  1  0
 29  2  1  0
 27  9  1  0
 25 13  1  0
 24 19  1  0
  1 30  1  0
  1 31  1  0
  1 32  1  0
  3 33  1  0
  3 34  1  0
  4 35  1  0
  4 36  1  0
 10 37  1  0
 11 38  1  0
 14 39  1  0
 17 40  1  6
 18 41  1  0
 20 42  1  0
 21 43  1  0
 22 44  1  0
 23 45  1  0
 24 46  1  0
 26 47  1  0
 27 48  1  0
 28 49  1  0
 28 50  1  0
 29 51  1  0
 29 52  1  0
M  CHG  1  15  -1
M  END
>  <UniqueID>  (33) 
29

>  <SMILES>  (33) 
CN1CCN(S(=O)(=O)c2ccc(-c3c[n-]c([C@@H](O)c4ccccc4)n3)cc2)CC1

>  <Energy>  (33) 
93.45041895012467

>  <Genealogy>  (33) 
CN1CCN(S(=O)(=O)c2ccc(-c3c[n-]c(C(O)c4ccccc4)n3)cc2)CC1 (protonated)
CN1CCN(S(=O)(=O)c2ccc(-c3c[n-]c([C@@H](O)c4ccccc4)n3)cc2)CC1 (chirality)
CN1CCN(S(=O)(=O)c2ccc(-c3c[n-]c([C@@H](O)c4ccccc4)n3)cc2)CC1 (3D coordinates assigned)
CN1CCN(S(=O)(=O)c2ccc(-c3c[n-]c([C@@H](O)c4ccccc4)n3)cc2)CC1 (nonaromatic ring conformer: 93.45041895012467 kcal/mol)

>  <smiles>  (33) 
CN1CCN(S(=O)(=O)c2ccc(-c3c[nH]c(C(O)c4ccccc4)n3)cc2)CC1

>  <score_type>  (33) 
oracle

>  <origin>  (33) 
adgpu

>  <m_score__min__energy>  (33) 
-10.800000000000001

>  <m_primary>  (33) 
energy

$$$$
33:0
     RDKit          3D

 48 50  0  0  0  0  0  0  0  0999 V2000
   -1.5850   25.3680  -29.1300 N   0  0  0  0  0  0  0  0  0  0  0  0
   -3.0030   24.4850  -29.5700 S   0  0  0  0  0  0  0  0  0  0  0  0
   -3.8400   25.3150  -30.5030 O   0  0  0  0  0  0  0  0  0  0  0  0
   -3.8100   24.1840  -28.3380 O   0  0  0  0  0  0  0  0  0  0  0  0
   -2.5400   22.9840  -30.3670 C   0  0  0  0  0  0  0  0  0  0  0  0
   -3.2010   22.5750  -31.5310 C   0  0  0  0  0  0  0  0  0  0  0  0
   -2.8280   21.3910  -32.1740 C   0  0  0  0  0  0  0  0  0  0  0  0
   -1.7920   20.6000  -31.6540 C   0  0  0  0  0  0  0  0  0  0  0  0
   -1.3690   19.3390  -32.3570 C   0  0  0  0  0  0  0  0  0  0  0  0
   -1.9340   19.3140  -33.7070 N   0  0  0  0  0  0  0  0  0  0  0  0
   -2.9850   17.9410  -33.8790 S   0  0  0  0  0  0  0  0  0  0  0  0
   -2.9730   17.4880  -35.3130 O   0  0  0  0  0  0  0  0  0  0  0  0
   -2.4920   16.8110  -33.0200 O   0  0  0  0  0  0  0  0  0  0  0  0
   -4.6330   18.3700  -33.4250 C   0  0  0  0  0  0  0  0  0  0  0  0
   -5.4250   17.4720  -32.6960 C   0  0  0  0  0  0  0  0  0  0  0  0
   -6.7200   17.8310  -32.3090 C   0  0  0  0  0  0  0  0  0  0  0  0
   -7.2330   19.0910  -32.6480 C   0  0  0  0  0  0  0  0  0  0  0  0
   -8.8670   19.5510  -32.1800 S   0  0  0  0  0  0  0  0  0  0  0  0
   -9.1230   19.0700  -30.7800 O   0  0  0  0  0  0  0  0  0  0  0  0
   -9.8830   18.9350  -33.1010 O   0  0  0  0  0  0  0  0  0  0  0  0
   -9.0280   21.2770  -32.2280 N   0  0  0  0  0  0  0  0  0  0  0  0
   -8.0850   22.2100  -31.6830 C   0  0  0  0  0  0  0  0  0  0  0  0
   -7.8460   22.1930  -30.3030 C   0  0  0  0  0  0  0  0  0  0  0  0
   -6.9300   23.0820  -29.7310 C   0  0  0  0  0  0  0  0  0  0  0  0
   -6.2460   23.9950  -30.5360 C   0  0  0  0  0  0  0  0  0  0  0  0
   -6.4780   24.0230  -31.9140 C   0  0  0  0  0  0  0  0  0  0  0  0
   -7.3960   23.1380  -32.4890 C   0  0  0  0  0  0  0  0  0  0  0  0
   -6.4380   19.9900  -33.3710 C   0  0  0  0  0  0  0  0  0  0  0  0
   -5.1430   19.6330  -33.7550 C   0  0  0  0  0  0  0  0  0  0  0  0
   -1.1160   21.0230  -30.4980 C   0  0  0  0  0  0  0  0  0  0  0  0
   -1.4900   22.2080  -29.8570 C   0  0  0  0  0  0  0  0  0  0  0  0
   -1.2370   25.8370  -29.9950 H   0  0  0  0  0  0  0  0  0  0  0  0
   -4.0172   23.1876  -31.9415 H   0  0  0  0  0  0  0  0  0  0  0  0
   -3.3486   21.0782  -33.0911 H   0  0  0  0  0  0  0  0  0  0  0  0
   -0.2713   19.3056  -32.4193 H   0  0  0  0  0  0  0  0  0  0  0  0
   -1.7335   18.4676  -31.7932 H   0  0  0  0  0  0  0  0  0  0  0  0
   -2.5290   20.1660  -33.8270 H   0  0  0  0  0  0  0  0  0  0  0  0
   -5.0268   16.4823  -32.4277 H   0  0  0  0  0  0  0  0  0  0  0  0
   -7.3378   17.1230  -31.7371 H   0  0  0  0  0  0  0  0  0  0  0  0
   -8.3824   21.4755  -29.6646 H   0  0  0  0  0  0  0  0  0  0  0  0
   -6.7484   23.0618  -28.6463 H   0  0  0  0  0  0  0  0  0  0  0  0
   -5.5244   24.6924  -30.0856 H   0  0  0  0  0  0  0  0  0  0  0  0
   -5.9378   24.7421  -32.5473 H   0  0  0  0  0  0  0  0  0  0  0  0
   -7.5805   23.1665  -33.5730 H   0  0  0  0  0  0  0  0  0  0  0  0
   -6.8350   20.9807  -33.6373 H   0  0  0  0  0  0  0  0  0  0  0  0
   -4.5219   20.3453  -34.3180 H   0  0  0  0  0  0  0  0  0  0  0  0
   -0.2891   20.4197  -30.0953 H   0  0  0  0  0  0  0  0  0  0  0  0
   -0.9588   22.5322  -28.9500 H   0  0  0  0  0  0  0  0  0  0  0  0
  1  2  1  0
  2  3  2  0
  2  4  2  0
  2  5  1  0
  5  6  2  0
  6  7  1  0
  7  8  2  0
  8  9  1  0
  9 10  1  0
 10 11  1  0
 11 12  2  0
 11 13  2  0
 11 14  1  0
 14 15  2  0
 15 16  1  0
 16 17  2  0
 17 18  1  0
 18 19  2  0
 18 20  2  0
 18 21  1  0
 21 22  1  0
 22 23  2  0
 23 24  1  0
 24 25  2  0
 25 26  1  0
 26 27  2  0
 17 28  1  0
 28 29  2  0
  8 30  1  0
 30 31  2  0
 31  5  1  0
 29 14  1  0
 27 22  1  0
  1 32  1  0
  6 33  1  0
  7 34  1  0
  9 35  1  0
  9 36  1  0
 10 37  1  0
 15 38  1  0
 16 39  1  0
 23 40  1  0
 24 41  1  0
 25 42  1  0
 26 43  1  0
 27 44  1  0
 28 45  1  0
 29 46  1  0
 30 47  1  0
 31 48  1  0
M  CHG  2   1  -1  21  -1
M  END
>  <UniqueID>  (34) 
30

>  <SMILES>  (34) 
[NH-]S(=O)(=O)c1ccc(CNS(=O)(=O)c2ccc(S(=O)(=O)[N-]c3ccccc3)cc2)cc1

>  <Energy>  (34) 
50.23979581687555

>  <Genealogy>  (34) 
[NH-]S(=O)(=O)c1ccc(CNS(=O)(=O)c2ccc(S(=O)(=O)[N-]c3ccccc3)cc2)cc1 (protonated)
[NH-]S(=O)(=O)c1ccc(CNS(=O)(=O)c2ccc(S(=O)(=O)[N-]c3ccccc3)cc2)cc1 (3D coordinates assigned)
[NH-]S(=O)(=O)c1ccc(CNS(=O)(=O)c2ccc(S(=O)(=O)[N-]c3ccccc3)cc2)cc1 (optimized conformer: 50.23979581687555 kcal/mol)

>  <smiles>  (34) 
NS(=O)(=O)c1ccc(CNS(=O)(=O)c2ccc(S(=O)(=O)Nc3ccccc3)cc2)cc1

>  <score_type>  (34) 
oracle

>  <origin>  (34) 
adgpu

>  <m_score__min__energy>  (34) 
-12.35

>  <m_primary>  (34) 
energy

$$$$
34:0
     RDKit          3D

 42 44  0  0  0  0  0  0  0  0999 V2000
   -3.8650   25.5700  -30.7780 N   0  0  0  0  0  0  0  0  0  0  0  0
   -5.1760   24.9200  -29.8560 S   0  0  0  0  0  0  0  0  0  0  0  0
   -4.6590   24.4500  -28.5240 O   0  0  0  0  0  0  0  0  0  0  0  0
   -6.1990   26.0010  -29.6450 O   0  0  0  0  0  0  0  0  0  0  0  0
   -5.9180   23.5630  -30.7050 C   0  0  0  0  0  0  0  0  0  0  0  0
   -7.2960   23.3290  -30.5890 C   0  0  0  0  0  0  0  0  0  0  0  0
   -7.8900   22.2590  -31.2610 C   0  0  0  0  0  0  0  0  0  0  0  0
   -7.1120   21.4110  -32.0510 C   0  0  0  0  0  0  0  0  0  0  0  0
   -5.7400   21.6380  -32.1800 C   0  0  0  0  0  0  0  0  0  0  0  0
   -5.1340   22.7260  -31.5230 C   0  0  0  0  0  0  0  0  0  0  0  0
   -3.7550   22.9650  -31.6270 O   0  0  0  0  0  0  0  0  0  0  0  0
   -2.7380   22.0640  -31.2790 C   0  0  0  0  0  0  0  0  0  0  0  0
   -2.4320   20.9580  -32.0940 C   0  0  0  0  0  0  0  0  0  0  0  0
   -1.3950   20.0900  -31.7480 C   0  0  0  0  0  0  0  0  0  0  0  0
   -0.6520   20.3180  -30.5920 C   0  0  0  0  0  0  0  0  0  0  0  0
   -0.9330   21.4200  -29.7820 C   0  0  0  0  0  0  0  0  0  0  0  0
   -1.9690   22.3110  -30.1230 C   0  0  0  0  0  0  0  0  0  0  0  0
   -2.2640   23.4570  -29.3020 N   0  0  0  0  0  0  0  0  0  0  0  0
   -1.0410   24.5080  -28.6640 S   0  0  0  0  0  0  0  0  0  0  0  0
    0.2690   24.2140  -29.3400 O   0  0  0  0  0  0  0  0  0  0  0  0
   -1.4250   25.9350  -28.9380 O   0  0  0  0  0  0  0  0  0  0  0  0
   -0.8560   24.2310  -26.9340 C   0  0  0  0  0  0  0  0  0  0  0  0
   -0.5380   22.9490  -26.4650 C   0  0  0  0  0  0  0  0  0  0  0  0
   -0.4060   22.7170  -25.0920 C   0  0  0  0  0  0  0  0  0  0  0  0
   -0.5860   23.7640  -24.1840 C   0  0  0  0  0  0  0  0  0  0  0  0
   -0.8970   25.0460  -24.6490 C   0  0  0  0  0  0  0  0  0  0  0  0
   -1.0310   25.2810  -26.0210 C   0  0  0  0  0  0  0  0  0  0  0  0
   -2.9820   25.2590  -30.3150 H   0  0  0  0  0  0  0  0  0  0  0  0
   -7.9125   23.9925  -29.9648 H   0  0  0  0  0  0  0  0  0  0  0  0
   -8.9720   22.0841  -31.1678 H   0  0  0  0  0  0  0  0  0  0  0  0
   -7.5800   20.5631  -32.5725 H   0  0  0  0  0  0  0  0  0  0  0  0
   -5.1296   20.9633  -32.7981 H   0  0  0  0  0  0  0  0  0  0  0  0
   -3.0139   20.7764  -33.0097 H   0  0  0  0  0  0  0  0  0  0  0  0
   -1.1645   19.2258  -32.3883 H   0  0  0  0  0  0  0  0  0  0  0  0
    0.1588   19.6276  -30.3164 H   0  0  0  0  0  0  0  0  0  0  0  0
   -0.3411   21.5935  -28.8712 H   0  0  0  0  0  0  0  0  0  0  0  0
   -3.2540   23.7650  -29.1830 H   0  0  0  0  0  0  0  0  0  0  0  0
   -0.3920   22.1240  -27.1778 H   0  0  0  0  0  0  0  0  0  0  0  0
   -0.1602   21.7091  -24.7264 H   0  0  0  0  0  0  0  0  0  0  0  0
   -0.4832   23.5800  -23.1044 H   0  0  0  0  0  0  0  0  0  0  0  0
   -1.0364   25.8706  -23.9344 H   0  0  0  0  0  0  0  0  0  0  0  0
   -1.2739   26.2904  -26.3844 H   0  0  0  0  0  0  0  0  0  0  0  0
  1  2  1  0
  2  3  2  0
  2  4  2  0
  2  5  1  0
  5  6  2  0
  6  7  1  0
  7  8  2  0
  8  9  1  0
  9 10  2  0
 10 11  1  0
 11 12  1  0
 12 13  2  0
 13 14  1  0
 14 15  2  0
 15 16  1  0
 16 17  2  0
 17 18  1  0
 18 19  1  0
 19 20  2  0
 19 21  2  0
 19 22  1  0
 22 23  2  0
 23 24  1  0
 24 25  2  0
 25 26  1  0
 26 27  2  0
 10  5  1  0
 17 12  1  0
 27 22  1  0
  1 28  1  0
  6 29  1  0
  7 30  1  0
  8 31  1  0
  9 32  1  0
 13 33  1  0
 14 34  1  0
 15 35  1  0
 16 36  1  0
 18 37  1  0
 23 38  1  0
 24 39  1  0
 25 40  1  0
 26 41  1  0
 27 42  1  0
M  CHG  1   1  -1
M  END
>  <UniqueID>  (35) 
31

>  <SMILES>  (35) 
[NH-]S(=O)(=O)c1ccccc1Oc1ccccc1NS(=O)(=O)c1ccccc1

>  <Energy>  (35) 
54.48556315429006

>  <Genealogy>  (35) 
[NH-]S(=O)(=O)c1ccccc1Oc1ccccc1NS(=O)(=O)c1ccccc1 (protonated)
[NH-]S(=O)(=O)c1ccccc1Oc1ccccc1NS(=O)(=O)c1ccccc1 (3D coordinates assigned)
[NH-]S(=O)(=O)c1ccccc1Oc1ccccc1NS(=O)(=O)c1ccccc1 (optimized conformer: 54.48556315429006 kcal/mol)

>  <smiles>  (35) 
NS(=O)(=O)c1ccccc1Oc1ccccc1NS(=O)(=O)c1ccccc1

>  <score_type>  (35) 
oracle

>  <origin>  (35) 
adgpu

>  <m_score__min__energy>  (35) 
-11.279999999999999

>  <m_primary>  (35) 
energy

$$$$
35:0
     RDKit          3D

 24 26  0  0  0  0  0  0  0  0999 V2000
   -8.4050   23.1220  -31.7760 C   0  0  0  0  0  0  0  0  0  0  0  0
   -8.8910   21.9470  -32.0380 N   0  0  0  0  0  0  0  0  0  0  0  0
   -8.2600   20.6620  -32.0210 C   0  0  0  0  0  0  0  0  0  0  0  0
   -9.0910   19.5430  -31.8670 C   0  0  0  0  0  0  0  0  0  0  0  0
   -8.5750   18.2490  -31.9690 C   0  0  0  0  0  0  0  0  0  0  0  0
   -7.2250   18.0610  -32.2550 C   0  0  0  0  0  0  0  0  0  0  0  0
   -6.3900   19.1650  -32.4300 C   0  0  0  0  0  0  0  0  0  0  0  0
   -6.8900   20.4690  -32.3010 C   0  0  0  0  0  0  0  0  0  0  0  0
   -5.9910   21.5180  -32.4870 O   0  0  0  0  0  0  0  0  0  0  0  0
   -5.9120   22.6480  -31.6760 C   0  0  0  0  0  0  0  0  0  0  0  0
   -4.6350   23.0620  -31.2760 C   0  0  0  0  0  0  0  0  0  0  0  0
   -4.4710   24.1840  -30.4620 C   0  0  0  0  0  0  0  0  0  0  0  0
   -5.5860   24.9130  -30.0540 C   0  0  0  0  0  0  0  0  0  0  0  0
   -6.8620   24.5270  -30.4680 C   0  0  0  0  0  0  0  0  0  0  0  0
   -7.0430   23.3890  -31.2760 C   0  0  0  0  0  0  0  0  0  0  0  0
   -9.0621   23.9888  -31.9401 H   0  0  0  0  0  0  0  0  0  0  0  0
  -10.1625   19.6860  -31.6634 H   0  0  0  0  0  0  0  0  0  0  0  0
   -9.2337   17.3801  -31.8237 H   0  0  0  0  0  0  0  0  0  0  0  0
   -6.8174   17.0431  -32.3428 H   0  0  0  0  0  0  0  0  0  0  0  0
   -5.3280   19.0110  -32.6718 H   0  0  0  0  0  0  0  0  0  0  0  0
   -3.7515   22.4965  -31.6071 H   0  0  0  0  0  0  0  0  0  0  0  0
   -3.4641   24.4918  -30.1435 H   0  0  0  0  0  0  0  0  0  0  0  0
   -5.4608   25.7927  -29.4056 H   0  0  0  0  0  0  0  0  0  0  0  0
   -7.7361   25.1191  -30.1592 H   0  0  0  0  0  0  0  0  0  0  0  0
  1  2  2  0
  2  3  1  0
  3  4  2  0
  4  5  1  0
  5  6  2  0
  6  7  1  0
  7  8  2  0
  8  9  1  0
  9 10  1  0
 10 11  2  0
 11 12  1  0
 12 13  2  0
 13 14  1  0
 14 15  2  0
 15  1  1  0
  8  3  1  0
 15 10  1  0
  1 16  1  0
  4 17  1  0
  5 18  1  0
  6 19  1  0
  7 20  1  0
 11 21  1  0
 12 22  1  0
 13 23  1  0
 14 24  1  0
M  END
>  <UniqueID>  (36) 
32

>  <SMILES>  (36) 
C1=Nc2ccccc2Oc2ccccc21

>  <Energy>  (36) 
49.08503168050567

>  <Genealogy>  (36) 
C1=Nc2ccccc2Oc2ccccc21 (3D coordinates assigned)
C1=Nc2ccccc2Oc2ccccc21 (nonaromatic ring conformer: 49.08503168050567 kcal/mol)

>  <smiles>  (36) 
C1=Nc2ccccc2Oc2ccccc21

>  <score_type>  (36) 
oracle

>  <origin>  (36) 
adgpu

>  <m_score__min__energy>  (36) 
-6.7599999999999998

>  <m_primary>  (36) 
energy

$$$$
36:0
     RDKit          3D

 39 41  0  0  0  0  0  0  0  0999 V2000
   -2.7000   23.3100  -29.6420 H   0  0  0  0  0  0  0  0  0  0  0  0
   -3.6190   23.1490  -29.2460 O   0  0  0  0  0  0  0  0  0  0  0  0
   -4.7810   23.4630  -29.9480 C   0  0  0  0  0  0  0  0  0  0  0  0
   -5.8310   22.5370  -30.0370 C   0  0  0  0  0  0  0  0  0  0  0  0
   -5.7350   21.5554  -29.5499 H   0  0  0  0  0  0  0  0  0  0  0  0
   -7.0060   22.8530  -30.7440 C   0  0  0  0  0  0  0  0  0  0  0  0
   -8.1170   21.8760  -30.8350 C   0  0  0  0  0  0  0  0  0  0  0  0
   -9.0410   21.8940  -29.9770 O   0  0  0  0  0  0  0  0  0  0  0  0
   -8.1670   20.9470  -31.9280 N   0  0  0  0  0  0  0  0  0  0  0  0
   -7.1010   20.0990  -32.3820 C   0  0  0  0  0  0  0  0  0  0  0  0
   -7.4100   18.7980  -32.7940 C   0  0  0  0  0  0  0  0  0  0  0  0
   -8.4494   18.4414  -32.7443 H   0  0  0  0  0  0  0  0  0  0  0  0
   -6.4070   17.9490  -33.2680 C   0  0  0  0  0  0  0  0  0  0  0  0
   -6.6574   16.9242  -33.5797 H   0  0  0  0  0  0  0  0  0  0  0  0
   -5.0880   18.3980  -33.3470 C   0  0  0  0  0  0  0  0  0  0  0  0
   -4.3000   17.7254  -33.7166 H   0  0  0  0  0  0  0  0  0  0  0  0
   -4.7660   19.7050  -32.9560 C   0  0  0  0  0  0  0  0  0  0  0  0
   -3.1100   20.2820  -33.1130 S   0  0  0  0  0  0  0  0  0  0  0  0
   -2.4020   19.5650  -34.2300 O   0  0  0  0  0  0  0  0  0  0  0  0
   -3.1270   21.7520  -33.4260 O   0  0  0  0  0  0  0  0  0  0  0  0
   -2.2590   20.0260  -31.6270 N   0  0  0  0  0  0  0  0  0  0  0  0
   -1.7670   21.0030  -30.9310 C   0  0  0  0  0  0  0  0  0  0  0  0
   -1.8510   22.2740  -31.2530 O   0  0  0  0  0  0  0  0  0  0  0  0
   -1.2550   23.0130  -30.3610 N   0  0  0  0  0  0  0  0  0  0  0  0
   -0.7680   22.1780  -29.4180 C   0  0  0  0  0  0  0  0  0  0  0  0
    0.0160   22.6240  -28.2290 C   0  0  0  0  0  0  0  0  0  0  0  0
   -0.5096   22.3250  -27.3101 H   0  0  0  0  0  0  0  0  0  0  0  0
    1.0118   22.1572  -28.2503 H   0  0  0  0  0  0  0  0  0  0  0  0
    0.1236   23.7185  -28.2503 H   0  0  0  0  0  0  0  0  0  0  0  0
   -1.0750   20.8740  -29.7530 C   0  0  0  0  0  0  0  0  0  0  0  0
   -0.6660   19.4030  -28.8890 Cl  0  0  0  0  0  0  0  0  0  0  0  0
   -5.7750   20.5570  -32.4840 C   0  0  0  0  0  0  0  0  0  0  0  0
   -5.5282   21.5885  -32.1921 H   0  0  0  0  0  0  0  0  0  0  0  0
   -7.1100   24.1130  -31.3630 C   0  0  0  0  0  0  0  0  0  0  0  0
   -8.0212   24.3739  -31.9213 H   0  0  0  0  0  0  0  0  0  0  0  0
   -6.0630   25.0350  -31.2730 C   0  0  0  0  0  0  0  0  0  0  0  0
   -6.1543   26.0176  -31.7590 H   0  0  0  0  0  0  0  0  0  0  0  0
   -4.9000   24.7120  -30.5670 C   0  0  0  0  0  0  0  0  0  0  0  0
   -3.8650   25.6350  -30.4850 O   0  0  0  0  0  0  0  0  0  0  0  0
  1  2  1  0
  2  3  1  0
  3  4  2  0
  4  5  1  0
  4  6  1  0
  6  7  1  0
  7  8  2  0
  7  9  1  0
  9 10  1  0
 10 11  2  0
 11 12  1  0
 11 13  1  0
 13 14  1  0
 13 15  2  0
 15 16  1  0
 15 17  1  0
 17 18  1  0
 18 19  2  0
 18 20  2  0
 18 21  1  0
 21 22  2  0
 22 23  1  0
 23 24  1  0
 24 25  1  0
 25 26  1  0
 26 27  1  0
 26 28  1  0
 26 29  1  0
 25 30  2  0
 30 31  1  0
 17 32  2  0
 32 33  1  0
  6 34  2  0
 34 35  1  0
 34 36  1  0
 36 37  1  0
 36 38  2  0
 38 39  1  0
 38  3  1  0
 32 10  1  0
 30 22  1  0
M  CHG  3   9  -1  24  -1  39  -1
M  END
>  <UniqueID>  (37) 
33

>  <SMILES>  (37) 
Cc1[n-]o/c(=N\S(=O)(=O)c2cccc([N-]C(=O)c3ccc([O-])c(O)c3)c2)c1Cl

>  <Energy>  (37) 
79.40917272023964

>  <Genealogy>  (37) 
Cc1[n-]oc(=NS(=O)(=O)c2cccc([N-]C(=O)c3ccc([O-])c(O)c3)c2)c1Cl (protonated)
Cc1[n-]o/c(=N\S(=O)(=O)c2cccc([N-]C(=O)c3ccc([O-])c(O)c3)c2)c1Cl (cis-trans isomerization)
Cc1[n-]o/c(=N\S(=O)(=O)c2cccc([N-]C(=O)c3ccc([O-])c(O)c3)c2)c1Cl (3D coordinates assigned)
Cc1[n-]o/c(=N\S(=O)(=O)c2cccc([N-]C(=O)c3ccc([O-])c(O)c3)c2)c1Cl (optimized conformer: 79.40917272023964 kcal/mol)

>  <smiles>  (37) 
Cc1[nH]oc(=NS(=O)(=O)c2cccc(NC(=O)c3ccc(O)c(O)c3)c2)c1Cl

>  <score_type>  (37) 
oracle

>  <origin>  (37) 
adgpu

>  <m_score__min__energy>  (37) 
-12.83

>  <m_primary>  (37) 
energy

$$$$
37:0
     RDKit          3D

 41 43  0  0  0  0  0  0  0  0999 V2000
   -3.9470   25.6710  -30.9360 O   0  0  0  0  0  0  0  0  0  0  0  0
   -4.4930   24.7380  -30.2900 C   0  0  0  0  0  0  0  0  0  0  0  0
   -5.8880   24.4830  -30.5020 N   0  0  0  0  0  0  0  0  0  0  0  0
   -6.4610   23.2420  -30.9390 C   0  0  0  0  0  0  0  0  0  0  0  0
   -7.6270   22.7780  -30.3200 C   0  0  0  0  0  0  0  0  0  0  0  0
   -8.2010   21.5650  -30.7130 C   0  0  0  0  0  0  0  0  0  0  0  0
   -7.6210   20.8100  -31.7430 C   0  0  0  0  0  0  0  0  0  0  0  0
   -8.3210   19.2620  -32.2160 S   0  0  0  0  0  0  0  0  0  0  0  0
   -9.4590   19.5050  -33.1680 O   0  0  0  0  0  0  0  0  0  0  0  0
   -8.8740   18.5730  -30.9980 O   0  0  0  0  0  0  0  0  0  0  0  0
   -7.1430   18.2250  -32.9820 N   0  0  0  0  0  0  0  0  0  0  0  0
   -6.1340   17.7820  -32.0050 C   0  0  0  0  0  0  0  0  0  0  0  0
   -4.9580   17.0770  -32.7150 C   0  0  0  0  0  0  0  0  0  0  0  0
   -5.2820   16.7800  -34.0600 O   0  0  0  0  0  0  0  0  0  0  0  0
   -5.4770   17.9830  -34.7850 C   0  0  0  0  0  0  0  0  0  0  0  0
   -6.4930   18.9230  -34.1020 C   0  0  0  0  0  0  0  0  0  0  0  0
   -6.4750   21.2930  -32.3900 C   0  0  0  0  0  0  0  0  0  0  0  0
   -5.9010   22.5030  -31.9960 C   0  0  0  0  0  0  0  0  0  0  0  0
   -3.7020   23.9840  -29.2870 C   0  0  0  0  0  0  0  0  0  0  0  0
   -4.1990   22.7740  -28.7650 C   0  0  0  0  0  0  0  0  0  0  0  0
   -3.4620   22.0540  -27.8210 C   0  0  0  0  0  0  0  0  0  0  0  0
   -2.2280   22.5350  -27.3800 C   0  0  0  0  0  0  0  0  0  0  0  0
   -1.7290   23.7400  -27.8810 C   0  0  0  0  0  0  0  0  0  0  0  0
   -2.4580   24.4650  -28.8300 C   0  0  0  0  0  0  0  0  0  0  0  0
   -1.9280   25.6540  -29.3230 O   0  0  0  0  0  0  0  0  0  0  0  0
   -8.0946   23.3707  -29.5199 H   0  0  0  0  0  0  0  0  0  0  0  0
   -9.1107   21.2016  -30.2126 H   0  0  0  0  0  0  0  0  0  0  0  0
   -5.7530   18.6569  -31.4578 H   0  0  0  0  0  0  0  0  0  0  0  0
   -6.6040   17.0711  -31.3095 H   0  0  0  0  0  0  0  0  0  0  0  0
   -4.0779   17.7365  -32.6943 H   0  0  0  0  0  0  0  0  0  0  0  0
   -4.7458   16.1343  -32.1894 H   0  0  0  0  0  0  0  0  0  0  0  0
   -4.5127   18.5056  -34.8683 H   0  0  0  0  0  0  0  0  0  0  0  0
   -5.8780   17.7174  -35.7743 H   0  0  0  0  0  0  0  0  0  0  0  0
   -5.9695   19.8131  -33.7231 H   0  0  0  0  0  0  0  0  0  0  0  0
   -7.2567   19.2255  -34.8337 H   0  0  0  0  0  0  0  0  0  0  0  0
   -6.0260   20.7159  -33.2119 H   0  0  0  0  0  0  0  0  0  0  0  0
   -5.0070   22.8798  -32.5145 H   0  0  0  0  0  0  0  0  0  0  0  0
   -5.1741   22.3931  -29.1027 H   0  0  0  0  0  0  0  0  0  0  0  0
   -3.8551   21.1062  -27.4246 H   0  0  0  0  0  0  0  0  0  0  0  0
   -1.6487   21.9655  -26.6383 H   0  0  0  0  0  0  0  0  0  0  0  0
   -0.7591   24.1203  -27.5279 H   0  0  0  0  0  0  0  0  0  0  0  0
  1  2  2  0
  2  3  1  0
  3  4  1  0
  4  5  2  0
  5  6  1  0
  6  7  2  0
  7  8  1  0
  8  9  2  0
  8 10  2  0
  8 11  1  0
 11 12  1  0
 12 13  1  0
 13 14  1  0
 14 15  1  0
 15 16  1  0
  7 17  1  0
 17 18  2  0
  2 19  1  0
 19 20  2  0
 20 21  1  0
 21 22  2  0
 22 23  1  0
 23 24  2  0
 24 25  1  0
 18  4  1  0
 24 19  1  0
 16 11  1  0
  5 26  1  0
  6 27  1  0
 12 28  1  0
 12 29  1  0
 13 30  1  0
 13 31  1  0
 15 32  1  0
 15 33  1  0
 16 34  1  0
 16 35  1  0
 17 36  1  0
 18 37  1  0
 20 38  1  0
 21 39  1  0
 22 40  1  0
 23 41  1  0
M  CHG  2   3  -1  25  -1
M  END
>  <UniqueID>  (38) 
34

>  <SMILES>  (38) 
O=C([N-]c1ccc(S(=O)(=O)N2CCOCC2)cc1)c1ccccc1[O-]

>  <Energy>  (38) 
57.41289886835368

>  <Genealogy>  (38) 
O=C([N-]c1ccc(S(=O)(=O)N2CCOCC2)cc1)c1ccccc1[O-] (protonated)
O=C([N-]c1ccc(S(=O)(=O)N2CCOCC2)cc1)c1ccccc1[O-] (3D coordinates assigned)
O=C([N-]c1ccc(S(=O)(=O)N2CCOCC2)cc1)c1ccccc1[O-] (nonaromatic ring conformer: 57.41289886835368 kcal/mol)

>  <smiles>  (38) 
O=C(Nc1ccc(S(=O)(=O)N2CCOCC2)cc1)c1ccccc1O

>  <score_type>  (38) 
oracle

>  <origin>  (38) 
adgpu

>  <m_score__min__energy>  (38) 
-13.300000000000001

>  <m_primary>  (38) 
energy

$$$$
38:0
     RDKit          3D

 28 29  0  0  0  0  0  0  0  0999 V2000
   -1.5830   25.4680  -29.1790 O   0  0  0  0  0  0  0  0  0  0  0  0
   -2.6860   24.8660  -29.2770 C   0  0  0  0  0  0  0  0  0  0  0  0
   -3.1620   24.0070  -28.1510 C   0  0  0  0  0  0  0  0  0  0  0  0
   -1.9500   22.6900  -27.7840 S   0  0  0  0  0  0  0  0  0  0  0  0
   -1.2460   23.5170  -26.3570 C   0  0  0  0  0  0  0  0  0  0  0  0
   -1.6130   24.8290  -26.0510 C   0  0  0  0  0  0  0  0  0  0  0  0
   -1.0650   25.4260  -24.9160 C   0  0  0  0  0  0  0  0  0  0  0  0
   -1.3890   26.6030  -24.6050 O   0  0  0  0  0  0  0  0  0  0  0  0
   -0.1810   24.7340  -24.1440 N   0  0  0  0  0  0  0  0  0  0  0  0
    0.1760   23.4620  -24.4680 C   0  0  0  0  0  0  0  0  0  0  0  0
   -0.3550   22.8620  -25.5660 N   0  0  0  0  0  0  0  0  0  0  0  0
   -3.4890   24.9870  -30.4580 N   0  0  0  0  0  0  0  0  0  0  0  0
   -4.7030   24.2810  -30.7440 C   0  0  0  0  0  0  0  0  0  0  0  0
   -5.9140   24.8130  -30.2780 C   0  0  0  0  0  0  0  0  0  0  0  0
   -7.1250   24.1760  -30.5670 C   0  0  0  0  0  0  0  0  0  0  0  0
   -7.1380   23.0090  -31.3370 C   0  0  0  0  0  0  0  0  0  0  0  0
   -8.6580   22.2160  -31.7040 Cl  0  0  0  0  0  0  0  0  0  0  0  0
   -5.9380   22.4840  -31.8260 C   0  0  0  0  0  0  0  0  0  0  0  0
   -4.7250   23.1170  -31.5370 C   0  0  0  0  0  0  0  0  0  0  0  0
   -3.3000   24.6302  -27.2551 H   0  0  0  0  0  0  0  0  0  0  0  0
   -4.1142   23.5394  -28.4419 H   0  0  0  0  0  0  0  0  0  0  0  0
   -2.3185   25.3793  -26.6908 H   0  0  0  0  0  0  0  0  0  0  0  0
    0.2320   25.1800  -23.2950 H   0  0  0  0  0  0  0  0  0  0  0  0
    0.8963   22.9175  -23.8398 H   0  0  0  0  0  0  0  0  0  0  0  0
   -5.9113   25.7372  -29.6814 H   0  0  0  0  0  0  0  0  0  0  0  0
   -8.0692   24.5939  -30.1878 H   0  0  0  0  0  0  0  0  0  0  0  0
   -5.9480   21.5710  -32.4394 H   0  0  0  0  0  0  0  0  0  0  0  0
   -3.7843   22.7043  -31.9305 H   0  0  0  0  0  0  0  0  0  0  0  0
  1  2  2  0
  2  3  1  0
  3  4  1  0
  4  5  1  0
  5  6  2  0
  6  7  1  0
  7  8  2  0
  7  9  1  0
  9 10  1  0
 10 11  2  0
  2 12  1  0
 12 13  1  0
 13 14  2  0
 14 15  1  0
 15 16  2  0
 16 17  1  0
 16 18  1  0
 18 19  2  0
 11  5  1  0
 19 13  1  0
  3 20  1  0
  3 21  1  0
  6 22  1  0
  9 23  1  0
 10 24  1  0
 14 25  1  0
 15 26  1  0
 18 27  1  0
 19 28  1  0
M  CHG  1  12  -1
M  END
>  <UniqueID>  (39) 
35

>  <SMILES>  (39) 
O=C(CSc1cc(=O)[nH]cn1)[N-]c1ccc(Cl)cc1

>  <Energy>  (39) 
26.275704099345315

>  <Genealogy>  (39) 
O=C(CSc1cc(=O)[nH]cn1)[N-]c1ccc(Cl)cc1 (protonated)
O=C(CSc1cc(=O)[nH]cn1)[N-]c1ccc(Cl)cc1 (3D coordinates assigned)
O=C(CSc1cc(=O)[nH]cn1)[N-]c1ccc(Cl)cc1 (optimized conformer: 26.275704099345315 kcal/mol)

>  <smiles>  (39) 
O=C(CSc1cc(=O)[nH]cn1)Nc1ccc(Cl)cc1

>  <score_type>  (39) 
oracle

>  <origin>  (39) 
adgpu

>  <m_score__min__energy>  (39) 
-8.7400000000000002

>  <m_primary>  (39) 
energy

$$$$
39:0
     RDKit          3D

 42 45  0  0  0  0  0  0  0  0999 V2000
   -6.8270   15.9240  -34.0750 C   0  0  0  0  0  0  0  0  0  0  0  0
   -6.2460   17.2840  -33.7950 C   0  0  0  0  0  0  0  0  0  0  0  0
   -5.0270   17.6640  -34.4200 C   0  0  0  0  0  0  0  0  0  0  0  0
   -4.4570   18.9270  -34.1840 C   0  0  0  0  0  0  0  0  0  0  0  0
   -5.1260   19.7870  -33.3220 C   0  0  0  0  0  0  0  0  0  0  0  0
   -4.7640   21.0270  -32.9550 N   0  0  0  0  0  0  0  0  0  0  0  0
   -5.7740   21.3810  -32.1140 C   0  0  0  0  0  0  0  0  0  0  0  0
   -5.8450   22.6880  -31.4290 C   0  0  0  0  0  0  0  0  0  0  0  0
   -7.0870   23.2510  -31.0870 C   0  0  0  0  0  0  0  0  0  0  0  0
   -7.1450   24.4820  -30.4310 C   0  0  0  0  0  0  0  0  0  0  0  0
   -5.9700   25.1670  -30.1160 C   0  0  0  0  0  0  0  0  0  0  0  0
   -4.7210   24.6280  -30.4710 C   0  0  0  0  0  0  0  0  0  0  0  0
   -3.4940   25.2980  -30.1490 N   0  0  0  0  0  0  0  0  0  0  0  0
   -2.4340   24.7770  -29.3340 C   0  0  0  0  0  0  0  0  0  0  0  0
   -1.5570   25.5730  -28.9070 O   0  0  0  0  0  0  0  0  0  0  0  0
   -2.3740   23.3500  -28.9380 C   0  0  0  0  0  0  0  0  0  0  0  0
   -3.1620   22.8580  -27.8830 C   0  0  0  0  0  0  0  0  0  0  0  0
   -3.0780   21.5100  -27.5290 C   0  0  0  0  0  0  0  0  0  0  0  0
   -2.2320   20.6800  -28.1960 N   0  0  0  0  0  0  0  0  0  0  0  0
   -1.4490   21.1290  -29.2120 C   0  0  0  0  0  0  0  0  0  0  0  0
   -1.5000   22.4710  -29.5970 C   0  0  0  0  0  0  0  0  0  0  0  0
   -4.6660   23.3830  -31.1080 C   0  0  0  0  0  0  0  0  0  0  0  0
   -6.6880   20.4350  -31.9720 O   0  0  0  0  0  0  0  0  0  0  0  0
   -6.2950   19.4380  -32.7200 C   0  0  0  0  0  0  0  0  0  0  0  0
   -6.9050   18.1960  -32.9240 C   0  0  0  0  0  0  0  0  0  0  0  0
   -8.1960   17.8520  -32.2310 C   0  0  0  0  0  0  0  0  0  0  0  0
   -7.0443   15.4153  -33.1242 H   0  0  0  0  0  0  0  0  0  0  0  0
   -7.7566   16.0342  -34.6527 H   0  0  0  0  0  0  0  0  0  0  0  0
   -6.1047   15.3286  -34.6527 H   0  0  0  0  0  0  0  0  0  0  0  0
   -4.5227   16.9596  -35.0979 H   0  0  0  0  0  0  0  0  0  0  0  0
   -3.5136   19.2243  -34.6653 H   0  0  0  0  0  0  0  0  0  0  0  0
   -8.0169   22.7194  -31.3373 H   0  0  0  0  0  0  0  0  0  0  0  0
   -8.1201   24.9138  -30.1613 H   0  0  0  0  0  0  0  0  0  0  0  0
   -6.0216   26.1310  -29.5887 H   0  0  0  0  0  0  0  0  0  0  0  0
   -3.8411   23.5313  -27.3393 H   0  0  0  0  0  0  0  0  0  0  0  0
   -3.6975   21.1184  -26.7087 H   0  0  0  0  0  0  0  0  0  0  0  0
   -0.7735   20.4341  -29.7324 H   0  0  0  0  0  0  0  0  0  0  0  0
   -0.8586   22.8370  -30.4123 H   0  0  0  0  0  0  0  0  0  0  0  0
   -3.6896   22.9436  -31.3602 H   0  0  0  0  0  0  0  0  0  0  0  0
   -8.0491   17.8911  -31.1416 H   0  0  0  0  0  0  0  0  0  0  0  0
   -8.9725   18.5746  -32.5225 H   0  0  0  0  0  0  0  0  0  0  0  0
   -8.5100   16.8389  -32.5225 H   0  0  0  0  0  0  0  0  0  0  0  0
  1  2  1  0
  2  3  2  0
  3  4  1  0
  4  5  2  0
  5  6  1  0
  6  7  2  0
  7  8  1  0
  8  9  2  0
  9 10  1  0
 10 11  2  0
 11 12  1  0
 12 13  1  0
 13 14  1  0
 14 15  2  0
 14 16  1  0
 16 17  2  0
 17 18  1  0
 18 19  2  0
 19 20  1  0
 20 21  2  0
 12 22  2  0
  7 23  1  0
 23 24  1  0
 24 25  2  0
 25 26  1  0
 25  2  1  0
 24  5  1  0
 22  8  1  0
 21 16  1  0
  1 27  1  0
  1 28  1  0
  1 29  1  0
  3 30  1  0
  4 31  1  0
  9 32  1  0
 10 33  1  0
 11 34  1  0
 17 35  1  0
 18 36  1  0
 20 37  1  0
 21 38  1  0
 22 39  1  0
 26 40  1  0
 26 41  1  0
 26 42  1  0
M  CHG  1  13  -1
M  END
>  <UniqueID>  (40) 
36

>  <SMILES>  (40) 
Cc1ccc2nc(-c3cccc([N-]C(=O)c4ccncc4)c3)oc2c1C

>  <Energy>  (40) 
91.50301436994451

>  <Genealogy>  (40) 
Cc1ccc2nc(-c3cccc([N-]C(=O)c4ccncc4)c3)oc2c1C (protonated)
Cc1ccc2nc(-c3cccc([N-]C(=O)c4ccncc4)c3)oc2c1C (3D coordinates assigned)
Cc1ccc2nc(-c3cccc([N-]C(=O)c4ccncc4)c3)oc2c1C (optimized conformer: 91.50301436994451 kcal/mol)

>  <smiles>  (40) 
Cc1ccc2nc(-c3cccc(NC(=O)c4ccncc4)c3)oc2c1C

>  <score_type>  (40) 
oracle

>  <origin>  (40) 
adgpu

>  <m_score__min__energy>  (40) 
-10.82

>  <m_primary>  (40) 
energy

$$$$
40:0
     RDKit          3D

 51 54  0  0  0  0  0  0  0  0999 V2000
   -2.9200   16.7790  -34.5130 C   0  0  0  0  0  0  0  0  0  0  0  0
   -3.0550   15.7190  -33.4670 C   0  0  0  0  0  0  0  0  0  0  0  0
   -2.0090   15.1550  -32.8290 N   0  0  0  0  0  0  0  0  0  0  0  0
   -2.4980   14.2760  -32.0010 O   0  0  0  0  0  0  0  0  0  0  0  0
   -3.8090   14.2390  -32.0640 C   0  0  0  0  0  0  0  0  0  0  0  0
   -4.6680   13.3180  -31.2600 C   0  0  0  0  0  0  0  0  0  0  0  0
   -4.2310   15.1650  -32.9980 C   0  0  0  0  0  0  0  0  0  0  0  0
   -5.6350   15.4170  -33.4770 C   0  0  0  0  0  0  0  0  0  0  0  0
   -5.8580   16.8490  -33.6550 N   0  0  0  0  0  0  0  0  0  0  0  0
   -6.3390   17.6960  -32.7250 C   0  0  0  0  0  0  0  0  0  0  0  0
   -6.3790   18.9530  -33.2880 C   0  0  0  0  0  0  0  0  0  0  0  0
   -6.7780   20.1770  -32.6490 N   0  0  0  0  0  0  0  0  0  0  0  0
   -6.1560   21.4500  -32.7460 C   0  0  0  0  0  0  0  0  0  0  0  0
   -5.0710   21.6540  -33.3520 O   0  0  0  0  0  0  0  0  0  0  0  0
   -6.8930   22.4800  -32.0900 N   0  0  0  0  0  0  0  0  0  0  0  0
   -6.4600   23.8750  -31.9560 C   0  0  0  0  0  0  0  0  0  0  0  0
   -5.2080   23.9680  -31.1230 C   0  0  0  0  0  0  0  0  0  0  0  0
   -4.6140   22.8120  -30.5940 C   0  0  0  0  0  0  0  0  0  0  0  0
   -3.4650   22.9120  -29.8070 C   0  0  0  0  0  0  0  0  0  0  0  0
   -2.9160   24.1730  -29.5550 C   0  0  0  0  0  0  0  0  0  0  0  0
   -1.8780   24.2830  -28.8490 O   0  0  0  0  0  0  0  0  0  0  0  0
   -3.5020   25.2850  -30.0720 N   0  0  0  0  0  0  0  0  0  0  0  0
   -4.6240   25.2120  -30.8410 C   0  0  0  0  0  0  0  0  0  0  0  0
   -8.0690   21.8650  -31.4530 C   0  0  0  0  0  0  0  0  0  0  0  0
   -9.3700   22.4720  -31.9970 C   0  0  0  0  0  0  0  0  0  0  0  0
   -7.9860   21.9850  -29.9230 C   0  0  0  0  0  0  0  0  0  0  0  0
   -7.9460   20.4210  -31.8700 C   0  0  0  0  0  0  0  0  0  0  0  0
   -8.7620   19.5180  -31.5370 O   0  0  0  0  0  0  0  0  0  0  0  0
   -5.9090   18.7990  -34.5800 C   0  0  0  0  0  0  0  0  0  0  0  0
   -5.5950   17.5030  -34.7770 N   0  0  0  0  0  0  0  0  0  0  0  0
   -2.7952   17.7586  -34.0284 H   0  0  0  0  0  0  0  0  0  0  0  0
   -2.0418   16.5656  -35.1401 H   0  0  0  0  0  0  0  0  0  0  0  0
   -3.8237   16.7926  -35.1401 H   0  0  0  0  0  0  0  0  0  0  0  0
   -4.4982   13.5001  -30.1886 H   0  0  0  0  0  0  0  0  0  0  0  0
   -5.7259   13.5005  -31.4998 H   0  0  0  0  0  0  0  0  0  0  0  0
   -4.4123   12.2753  -31.4998 H   0  0  0  0  0  0  0  0  0  0  0  0
   -5.7889   14.9032  -34.4374 H   0  0  0  0  0  0  0  0  0  0  0  0
   -6.3438   15.0339  -32.7281 H   0  0  0  0  0  0  0  0  0  0  0  0
   -6.6445   17.4322  -31.7017 H   0  0  0  0  0  0  0  0  0  0  0  0
   -6.2598   24.2882  -32.9556 H   0  0  0  0  0  0  0  0  0  0  0  0
   -7.2580   24.4461  -31.4588 H   0  0  0  0  0  0  0  0  0  0  0  0
   -5.0544   21.8252  -30.7997 H   0  0  0  0  0  0  0  0  0  0  0  0
   -2.9967   22.0084  -29.3897 H   0  0  0  0  0  0  0  0  0  0  0  0
   -5.0739   26.1320  -31.2424 H   0  0  0  0  0  0  0  0  0  0  0  0
  -10.0137   22.7723  -31.1571 H   0  0  0  0  0  0  0  0  0  0  0  0
   -9.1345   23.3532  -32.6118 H   0  0  0  0  0  0  0  0  0  0  0  0
   -9.8940   21.7254  -32.6118 H   0  0  0  0  0  0  0  0  0  0  0  0
   -8.5535   21.1645  -29.4595 H   0  0  0  0  0  0  0  0  0  0  0  0
   -6.9339   21.9273  -29.6072 H   0  0  0  0  0  0  0  0  0  0  0  0
   -8.4112   22.9491  -29.6072 H   0  0  0  0  0  0  0  0  0  0  0  0
   -5.8081   19.6024  -35.3245 H   0  0  0  0  0  0  0  0  0  0  0  0
  1  2  1  0
  2  3  2  0
  3  4  1  0
  4  5  1  0
  5  6  1  0
  5  7  2  0
  7  8  1  0
  8  9  1  0
  9 10  1  0
 10 11  2  0
 11 12  1  0
 12 13  1  0
 13 14  2  0
 13 15  1  0
 15 16  1  0
 16 17  1  0
 17 18  1  0
 18 19  2  0
 19 20  1  0
 20 21  2  0
 20 22  1  0
 22 23  1  0
 15 24  1  0
 24 25  1  0
 24 26  1  0
 24 27  1  0
 27 28  2  0
 11 29  1  0
 29 30  2  0
  7  2  1  0
 30  9  1  0
 27 12  1  0
 23 17  2  0
  1 31  1  0
  1 32  1  0
  1 33  1  0
  6 34  1  0
  6 35  1  0
  6 36  1  0
  8 37  1  0
  8 38  1  0
 10 39  1  0
 16 40  1  0
 16 41  1  0
 18 42  1  0
 19 43  1  0
 23 44  1  0
 25 45  1  0
 25 46  1  0
 25 47  1  0
 26 48  1  0
 26 49  1  0
 26 50  1  0
 29 51  1  0
M  CHG  1  22  -1
M  END
>  <UniqueID>  (41) 
37

>  <SMILES>  (41) 
Cc1noc(C)c1Cn1cc(N2C(=O)N(Cc3ccc(=O)[n-]c3)C(C)(C)C2=O)cn1

>  <Energy>  (41) 
128.30077525169642

>  <Genealogy>  (41) 
Cc1noc(C)c1Cn1cc(N2C(=O)N(Cc3ccc(=O)[n-]c3)C(C)(C)C2=O)cn1 (protonated)
Cc1noc(C)c1Cn1cc(N2C(=O)N(Cc3ccc(=O)[n-]c3)C(C)(C)C2=O)cn1 (3D coordinates assigned)
Cc1noc(C)c1Cn1cc(N2C(=O)N(Cc3ccc(=O)[n-]c3)C(C)(C)C2=O)cn1 (nonaromatic ring conformer: 128.30077525169642 kcal/mol)

>  <smiles>  (41) 
Cc1noc(C)c1Cn1cc(N2C(=O)N(Cc3ccc(=O)[nH]c3)C(C)(C)C2=O)cn1

>  <score_type>  (41) 
oracle

>  <origin>  (41) 
adgpu

>  <m_score__min__energy>  (41) 
-10.609999999999999

>  <m_primary>  (41) 
energy

$$$$
41:0
     RDKit          3D

 51 53  0  0  0  0  0  0  0  0999 V2000
    0.5250   27.5500  -23.6230 C   0  0  0  0  0  0  0  0  0  0  0  0
   -0.5390   26.4920  -23.3160 C   0  0  0  0  0  0  0  0  0  0  0  0
   -1.6390   26.5000  -24.2960 N   0  0  0  0  0  0  0  0  0  0  0  0
   -1.2270   27.0230  -25.6090 C   0  0  0  0  0  0  0  0  0  0  0  0
   -1.6110   26.0590  -26.7000 C   0  0  0  0  0  0  0  0  0  0  0  0
   -2.6700   25.1570  -26.5190 C   0  0  0  0  0  0  0  0  0  0  0  0
   -3.0170   24.2620  -27.5360 C   0  0  0  0  0  0  0  0  0  0  0  0
   -2.3030   24.2500  -28.7500 C   0  0  0  0  0  0  0  0  0  0  0  0
   -2.6390   23.2700  -29.8130 C   0  0  0  0  0  0  0  0  0  0  0  0
   -1.6690   22.3610  -30.2710 C   0  0  0  0  0  0  0  0  0  0  0  0
   -1.9850   21.4300  -31.2620 C   0  0  0  0  0  0  0  0  0  0  0  0
   -3.2700   21.3930  -31.8160 C   0  0  0  0  0  0  0  0  0  0  0  0
   -3.6430   20.1910  -33.0480 S   0  0  0  0  0  0  0  0  0  0  0  0
   -2.6620   20.2500  -34.1880 O   0  0  0  0  0  0  0  0  0  0  0  0
   -3.5730   18.8250  -32.4270 O   0  0  0  0  0  0  0  0  0  0  0  0
   -5.2530   20.4640  -33.6360 N   0  0  0  0  0  0  0  0  0  0  0  0
   -6.4610   20.1170  -32.9390 C   0  0  0  0  0  0  0  0  0  0  0  0
   -7.2090   21.0850  -32.2390 C   0  0  0  0  0  0  0  0  0  0  0  0
   -8.3740   20.7230  -31.5610 C   0  0  0  0  0  0  0  0  0  0  0  0
   -8.8120   19.3990  -31.5790 C   0  0  0  0  0  0  0  0  0  0  0  0
   -8.0890   18.4280  -32.2830 C   0  0  0  0  0  0  0  0  0  0  0  0
   -6.9090   18.7770  -32.9590 C   0  0  0  0  0  0  0  0  0  0  0  0
   -5.9690   17.5190  -33.7760 S   0  0  0  0  0  0  0  0  0  0  0  0
   -4.9920   18.2300  -35.0130 N   0  0  0  0  0  0  0  0  0  0  0  0
   -6.9010   16.5100  -34.3860 O   0  0  0  0  0  0  0  0  0  0  0  0
   -5.0680   16.8220  -32.7950 O   0  0  0  0  0  0  0  0  0  0  0  0
   -4.2420   22.2910  -31.3630 C   0  0  0  0  0  0  0  0  0  0  0  0
   -3.9310   23.2250  -30.3680 C   0  0  0  0  0  0  0  0  0  0  0  0
   -1.2520   25.1670  -28.9340 C   0  0  0  0  0  0  0  0  0  0  0  0
   -0.9140   26.0680  -27.9190 C   0  0  0  0  0  0  0  0  0  0  0  0
    0.9271   27.9499  -22.6805 H   0  0  0  0  0  0  0  0  0  0  0  0
    1.3393   27.0931  -24.2045 H   0  0  0  0  0  0  0  0  0  0  0  0
    0.0727   28.3669  -24.2045 H   0  0  0  0  0  0  0  0  0  0  0  0
   -0.0639   25.4999  -23.3265 H   0  0  0  0  0  0  0  0  0  0  0  0
   -0.9672   26.7238  -22.3296 H   0  0  0  0  0  0  0  0  0  0  0  0
   -2.4300   27.0810  -23.9310 H   0  0  0  0  0  0  0  0  0  0  0  0
   -1.7231   27.9885  -25.7868 H   0  0  0  0  0  0  0  0  0  0  0  0
   -0.1348   27.1535  -25.6152 H   0  0  0  0  0  0  0  0  0  0  0  0
   -3.2303   25.1537  -25.5724 H   0  0  0  0  0  0  0  0  0  0  0  0
   -3.8530   23.5628  -27.3868 H   0  0  0  0  0  0  0  0  0  0  0  0
   -0.6548   22.3836  -29.8458 H   0  0  0  0  0  0  0  0  0  0  0  0
   -1.2193   20.7209  -31.6098 H   0  0  0  0  0  0  0  0  0  0  0  0
   -6.8725   22.1322  -32.2270 H   0  0  0  0  0  0  0  0  0  0  0  0
   -8.9479   21.4835  -31.0113 H   0  0  0  0  0  0  0  0  0  0  0  0
   -9.7277   19.1167  -31.0388 H   0  0  0  0  0  0  0  0  0  0  0  0
   -8.4469   17.3881  -32.3064 H   0  0  0  0  0  0  0  0  0  0  0  0
   -4.2340   18.7670  -34.5330 H   0  0  0  0  0  0  0  0  0  0  0  0
   -5.2551   22.2631  -31.7905 H   0  0  0  0  0  0  0  0  0  0  0  0
   -4.7013   23.9279  -30.0179 H   0  0  0  0  0  0  0  0  0  0  0  0
   -0.6930   25.1754  -29.8813 H   0  0  0  0  0  0  0  0  0  0  0  0
   -0.0974   26.7879  -28.0766 H   0  0  0  0  0  0  0  0  0  0  0  0
  1  2  1  0
  2  3  1  0
  3  4  1  0
  4  5  1  0
  5  6  2  0
  6  7  1  0
  7  8  2  0
  8  9  1  0
  9 10  2  0
 10 11  1  0
 11 12  2  0
 12 13  1  0
 13 14  2  0
 13 15  2  0
 13 16  1  0
 16 17  1  0
 17 18  2  0
 18 19  1  0
 19 20  2  0
 20 21  1  0
 21 22  2  0
 22 23  1  0
 23 24  1  0
 23 25  2  0
 23 26  2  0
 12 27  1  0
 27 28  2  0
  8 29  1  0
 29 30  2  0
 30  5  1  0
 28  9  1  0
 22 17  1  0
  1 31  1  0
  1 32  1  0
  1 33  1  0
  2 34  1  0
  2 35  1  0
  3 36  1  0
  4 37  1  0
  4 38  1  0
  6 39  1  0
  7 40  1  0
 10 41  1  0
 11 42  1  0
 18 43  1  0
 19 44  1  0
 20 45  1  0
 21 46  1  0
 24 47  1  0
 27 48  1  0
 28 49  1  0
 29 50  1  0
 30 51  1  0
M  CHG  2  16  -1  24  -1
M  END
>  <UniqueID>  (42) 
38

>  <SMILES>  (42) 
CCNCc1ccc(-c2ccc(S(=O)(=O)[N-]c3ccccc3S([NH-])(=O)=O)cc2)cc1

>  <Energy>  (42) 
61.031855268620376

>  <Genealogy>  (42) 
CCNCc1ccc(-c2ccc(S(=O)(=O)[N-]c3ccccc3S([NH-])(=O)=O)cc2)cc1 (protonated)
CCNCc1ccc(-c2ccc(S(=O)(=O)[N-]c3ccccc3S([NH-])(=O)=O)cc2)cc1 (3D coordinates assigned)
CCNCc1ccc(-c2ccc(S(=O)(=O)[N-]c3ccccc3S([NH-])(=O)=O)cc2)cc1 (optimized conformer: 61.031855268620376 kcal/mol)

>  <smiles>  (42) 
CCNCc1ccc(-c2ccc(S(=O)(=O)Nc3ccccc3S(N)(=O)=O)cc2)cc1

>  <score_type>  (42) 
oracle

>  <origin>  (42) 
adgpu

>  <m_score__min__energy>  (42) 
-13.02

>  <m_primary>  (42) 
energy

$$$$
42:0
     RDKit          3D

 46 48  0  0  0  0  0  0  0  0999 V2000
   -5.2660   25.2820  -31.5380 O   0  0  0  0  0  0  0  0  0  0  0  0
   -5.6490   24.0150  -30.8230 S   0  0  0  0  0  0  0  0  0  0  0  0
   -6.8870   24.2820  -30.0150 O   0  0  0  0  0  0  0  0  0  0  0  0
   -5.9820   22.7650  -31.9820 N   0  0  0  0  0  0  0  0  0  0  0  0
   -7.4130   22.4530  -31.9790 C   0  0  0  0  0  0  0  0  0  0  0  0
   -7.6050   20.9690  -32.1230 C   0  0  0  0  0  0  0  0  0  0  0  0
   -8.8890   20.4080  -32.0180 C   0  0  0  0  0  0  0  0  0  0  0  0
   -9.0620   19.0240  -32.1170 C   0  0  0  0  0  0  0  0  0  0  0  0
   -7.9570   18.1910  -32.3120 C   0  0  0  0  0  0  0  0  0  0  0  0
   -6.6750   18.7400  -32.4010 C   0  0  0  0  0  0  0  0  0  0  0  0
   -6.4960   20.1240  -32.3010 C   0  0  0  0  0  0  0  0  0  0  0  0
   -4.3490   23.5190  -29.7400 C   0  0  0  0  0  0  0  0  0  0  0  0
   -4.2980   22.2010  -29.2670 C   0  0  0  0  0  0  0  0  0  0  0  0
   -3.2590   21.7990  -28.4230 C   0  0  0  0  0  0  0  0  0  0  0  0
   -2.2650   22.7080  -28.0510 C   0  0  0  0  0  0  0  0  0  0  0  0
   -2.3040   24.0270  -28.5260 C   0  0  0  0  0  0  0  0  0  0  0  0
   -1.0480   25.1780  -28.0610 S   0  0  0  0  0  0  0  0  0  0  0  0
    0.3010   24.5450  -28.2580 O   0  0  0  0  0  0  0  0  0  0  0  0
   -1.1310   26.3830  -28.9560 O   0  0  0  0  0  0  0  0  0  0  0  0
   -1.2130   25.6830  -26.3970 N   0  0  0  0  0  0  0  0  0  0  0  0
   -0.3540   24.8740  -25.5230 C   0  0  0  0  0  0  0  0  0  0  0  0
   -0.5340   25.3140  -24.0550 C   0  0  0  0  0  0  0  0  0  0  0  0
   -1.3170   26.4910  -23.9390 O   0  0  0  0  0  0  0  0  0  0  0  0
   -0.7860   27.5050  -24.7680 C   0  0  0  0  0  0  0  0  0  0  0  0
   -0.8800   27.1110  -26.2570 C   0  0  0  0  0  0  0  0  0  0  0  0
   -3.3460   24.4270  -29.3730 C   0  0  0  0  0  0  0  0  0  0  0  0
   -5.7350   23.1510  -32.9220 H   0  0  0  0  0  0  0  0  0  0  0  0
   -7.8593   22.7898  -31.0317 H   0  0  0  0  0  0  0  0  0  0  0  0
   -7.9013   22.9681  -32.8193 H   0  0  0  0  0  0  0  0  0  0  0  0
   -9.7606   21.0595  -31.8575 H   0  0  0  0  0  0  0  0  0  0  0  0
  -10.0699   18.5900  -32.0412 H   0  0  0  0  0  0  0  0  0  0  0  0
   -8.0964   17.1031  -32.3954 H   0  0  0  0  0  0  0  0  0  0  0  0
   -5.8054   18.0831  -32.5499 H   0  0  0  0  0  0  0  0  0  0  0  0
   -5.4845   20.5520  -32.3618 H   0  0  0  0  0  0  0  0  0  0  0  0
   -5.0768   21.4817  -29.5604 H   0  0  0  0  0  0  0  0  0  0  0  0
   -3.2236   20.7645  -28.0507 H   0  0  0  0  0  0  0  0  0  0  0  0
   -1.4505   22.3884  -27.3844 H   0  0  0  0  0  0  0  0  0  0  0  0
   -0.6288   23.8135  -25.6220 H   0  0  0  0  0  0  0  0  0  0  0  0
    0.6966   25.0154  -25.8168 H   0  0  0  0  0  0  0  0  0  0  0  0
   -1.0294   24.5033  -23.5007 H   0  0  0  0  0  0  0  0  0  0  0  0
    0.4629   25.5305  -23.6435 H   0  0  0  0  0  0  0  0  0  0  0  0
   -1.3516   28.4344  -24.6059 H   0  0  0  0  0  0  0  0  0  0  0  0
    0.2739   27.6475  -24.5105 H   0  0  0  0  0  0  0  0  0  0  0  0
   -1.6625   27.7136  -26.7414 H   0  0  0  0  0  0  0  0  0  0  0  0
    0.0937   27.2958  -26.7342 H   0  0  0  0  0  0  0  0  0  0  0  0
   -3.3772   25.4592  -29.7521 H   0  0  0  0  0  0  0  0  0  0  0  0
  1  2  2  0
  2  3  2  0
  2  4  1  0
  4  5  1  0
  5  6  1  0
  6  7  2  0
  7  8  1  0
  8  9  2  0
  9 10  1  0
 10 11  2  0
  2 12  1  0
 12 13  2  0
 13 14  1  0
 14 15  2  0
 15 16  1  0
 16 17  1  0
 17 18  2  0
 17 19  2  0
 17 20  1  0
 20 21  1  0
 21 22  1  0
 22 23  1  0
 23 24  1  0
 24 25  1  0
 16 26  2  0
 11  6  1  0
 26 12  1  0
 25 20  1  0
  4 27  1  0
  5 28  1  0
  5 29  1  0
  7 30  1  0
  8 31  1  0
  9 32  1  0
 10 33  1  0
 11 34  1  0
 13 35  1  0
 14 36  1  0
 15 37  1  0
 21 38  1  0
 21 39  1  0
 22 40  1  0
 22 41  1  0
 24 42  1  0
 24 43  1  0
 25 44  1  0
 25 45  1  0
 26 46  1  0
M  END
>  <UniqueID>  (43) 
39

>  <SMILES>  (43) 
O=S(=O)(NCc1ccccc1)c1cccc(S(=O)(=O)N2CCOCC2)c1

>  <Energy>  (43) 
50.8832115040642

>  <Genealogy>  (43) 
O=S(=O)(NCc1ccccc1)c1cccc(S(=O)(=O)N2CCOCC2)c1 (3D coordinates assigned)
O=S(=O)(NCc1ccccc1)c1cccc(S(=O)(=O)N2CCOCC2)c1 (nonaromatic ring conformer: 50.8832115040642 kcal/mol)

>  <smiles>  (43) 
O=S(=O)(NCc1ccccc1)c1cccc(S(=O)(=O)N2CCOCC2)c1

>  <score_type>  (43) 
oracle

>  <origin>  (43) 
adgpu

>  <m_score__min__energy>  (43) 
-9.9100000000000001

>  <m_primary>  (43) 
energy

$$$$
43:0
     RDKit          3D

 59 63  0  0  0  0  0  0  0  0999 V2000
   -5.5740   25.7770  -29.7900 O   0  0  0  0  0  0  0  0  0  0  0  0
   -4.9110   24.8980  -30.4050 C   0  0  0  0  0  0  0  0  0  0  0  0
   -3.4790   24.9050  -30.3600 N   0  0  0  0  0  0  0  0  0  0  0  0
   -2.6470   24.6160  -29.2280 C   0  0  0  0  0  0  0  0  0  0  0  0
   -3.2490   24.5020  -27.9700 C   0  0  0  0  0  0  0  0  0  0  0  0
   -2.4820   24.1980  -26.8430 C   0  0  0  0  0  0  0  0  0  0  0  0
   -1.0980   23.9980  -26.9570 C   0  0  0  0  0  0  0  0  0  0  0  0
   -0.1330   23.6100  -25.5220 S   0  0  0  0  0  0  0  0  0  0  0  0
   -0.8440   22.5290  -24.7560 O   0  0  0  0  0  0  0  0  0  0  0  0
    1.2120   23.0990  -25.9570 O   0  0  0  0  0  0  0  0  0  0  0  0
    0.0810   25.0210  -24.5010 N   0  0  0  0  0  0  0  0  0  0  0  0
   -1.1680   25.8330  -24.4200 C   0  0  0  0  0  0  0  0  0  0  0  0
   -1.0220   27.2660  -24.9550 C   0  0  0  0  0  0  0  0  0  0  0  0
   -0.2900   27.2570  -26.2940 C   0  0  0  0  0  0  0  0  0  0  0  0
    1.1010   26.6130  -26.1800 C   0  0  0  0  0  0  0  0  0  0  0  0
    1.2880   25.7860  -24.8920 C   0  0  0  0  0  0  0  0  0  0  0  0
   -0.4980   24.0700  -28.2260 C   0  0  0  0  0  0  0  0  0  0  0  0
    0.8260   23.8240  -28.3860 F   0  0  0  0  0  0  0  0  0  0  0  0
   -1.2680   24.3740  -29.3540 C   0  0  0  0  0  0  0  0  0  0  0  0
   -5.6240   23.8150  -31.1040 C   0  0  0  0  0  0  0  0  0  0  0  0
   -6.9550   23.8220  -31.4820 C   0  0  0  0  0  0  0  0  0  0  0  0
   -7.2870   22.6200  -31.9930 N   0  0  0  0  0  0  0  0  0  0  0  0
   -6.2120   21.8480  -31.9640 N   0  0  0  0  0  0  0  0  0  0  0  0
   -6.2020   20.5000  -32.4650 C   0  0  0  0  0  0  0  0  0  0  0  0
   -5.3350   20.1210  -33.5070 C   0  0  0  0  0  0  0  0  0  0  0  0
   -5.3490   18.8110  -33.9950 C   0  0  0  0  0  0  0  0  0  0  0  0
   -6.2330   17.8720  -33.4550 C   0  0  0  0  0  0  0  0  0  0  0  0
   -7.1100   18.2440  -32.4330 C   0  0  0  0  0  0  0  0  0  0  0  0
   -7.1000   19.5540  -31.9440 C   0  0  0  0  0  0  0  0  0  0  0  0
   -5.1810   22.5430  -31.4340 C   0  0  0  0  0  0  0  0  0  0  0  0
   -3.8820   22.0000  -31.1630 N   0  0  0  0  0  0  0  0  0  0  0  0
   -2.8560   21.9150  -32.0310 C   0  0  0  0  0  0  0  0  0  0  0  0
   -1.7790   21.3090  -31.4180 C   0  0  0  0  0  0  0  0  0  0  0  0
   -2.1760   21.0070  -30.1290 C   0  0  0  0  0  0  0  0  0  0  0  0
   -3.4800   21.4430  -30.0050 C   0  0  0  0  0  0  0  0  0  0  0  0
   -4.3338   24.6528  -27.8679 H   0  0  0  0  0  0  0  0  0  0  0  0
   -2.9665   24.1148  -25.8590 H   0  0  0  0  0  0  0  0  0  0  0  0
    0.2830   24.6500  -23.5430 H   0  0  0  0  0  0  0  0  0  0  0  0
   -1.9489   25.3243  -25.0042 H   0  0  0  0  0  0  0  0  0  0  0  0
   -1.4220   25.9177  -23.3531 H   0  0  0  0  0  0  0  0  0  0  0  0
   -2.0207   27.7069  -25.0899 H   0  0  0  0  0  0  0  0  0  0  0  0
   -0.4429   27.8611  -24.2335 H   0  0  0  0  0  0  0  0  0  0  0  0
   -0.8870   26.6884  -27.0223 H   0  0  0  0  0  0  0  0  0  0  0  0
   -0.1584   28.2997  -26.6186 H   0  0  0  0  0  0  0  0  0  0  0  0
    1.2505   25.9501  -27.0450 H   0  0  0  0  0  0  0  0  0  0  0  0
    1.8365   27.4305  -26.1513 H   0  0  0  0  0  0  0  0  0  0  0  0
    2.1137   25.0767  -25.0504 H   0  0  0  0  0  0  0  0  0  0  0  0
    1.4986   26.4963  -24.0789 H   0  0  0  0  0  0  0  0  0  0  0  0
   -0.7919   24.4239  -30.3444 H   0  0  0  0  0  0  0  0  0  0  0  0
   -7.6381   24.6782  -31.3808 H   0  0  0  0  0  0  0  0  0  0  0  0
   -4.6432   20.8589  -33.9393 H   0  0  0  0  0  0  0  0  0  0  0  0
   -4.6639   18.5188  -34.8045 H   0  0  0  0  0  0  0  0  0  0  0  0
   -6.2380   16.8397  -33.8350 H   0  0  0  0  0  0  0  0  0  0  0  0
   -7.8089   17.5058  -32.0127 H   0  0  0  0  0  0  0  0  0  0  0  0
   -7.7995   19.8453  -31.1466 H   0  0  0  0  0  0  0  0  0  0  0  0
   -2.8740   22.2741  -33.0706 H   0  0  0  0  0  0  0  0  0  0  0  0
   -0.7958   21.1057  -31.8675 H   0  0  0  0  0  0  0  0  0  0  0  0
   -1.5709   20.5151  -29.3532 H   0  0  0  0  0  0  0  0  0  0  0  0
   -4.0963   21.3496  -29.0987 H   0  0  0  0  0  0  0  0  0  0  0  0
  1  2  2  0
  2  3  1  0
  3  4  1  0
  4  5  2  0
  5  6  1  0
  6  7  2  0
  7  8  1  0
  8  9  2  0
  8 10  2  0
  8 11  1  0
 11 12  1  0
 12 13  1  0
 13 14  1  0
 14 15  1  0
 15 16  1  0
  7 17  1  0
 17 18  1  0
 17 19  2  0
  2 20  1  0
 20 21  1  0
 21 22  2  0
 22 23  1  0
 23 24  1  0
 24 25  2  0
 25 26  1  0
 26 27  2  0
 27 28  1  0
 28 29  2  0
 23 30  1  0
 30 31  1  0
 31 32  1  0
 32 33  2  0
 33 34  1  0
 34 35  2  0
 19  4  1  0
 30 20  2  0
 35 31  1  0
 16 11  1  0
 29 24  1  0
  5 36  1  0
  6 37  1  0
 11 38  1  0
 12 39  1  0
 12 40  1  0
 13 41  1  0
 13 42  1  0
 14 43  1  0
 14 44  1  0
 15 45  1  0
 15 46  1  0
 16 47  1  0
 16 48  1  0
 19 49  1  0
 21 50  1  0
 25 51  1  0
 26 52  1  0
 27 53  1  0
 28 54  1  0
 29 55  1  0
 32 56  1  0
 33 57  1  0
 34 58  1  0
 35 59  1  0
M  CHG  2   3  -1  11   1
M  END
>  <UniqueID>  (44) 
40

>  <SMILES>  (44) 
O=C([N-]c1ccc(S(=O)(=O)[NH+]2CCCCC2)c(F)c1)c1cnn(-c2ccccc2)c1-n1cccc1

>  <Energy>  (44) 
142.02061305110942

>  <Genealogy>  (44) 
O=C([N-]c1ccc(S(=O)(=O)[NH+]2CCCCC2)c(F)c1)c1cnn(-c2ccccc2)c1-n1cccc1 (protonated)
O=C([N-]c1ccc(S(=O)(=O)[NH+]2CCCCC2)c(F)c1)c1cnn(-c2ccccc2)c1-n1cccc1 (3D coordinates assigned)
O=C([N-]c1ccc(S(=O)(=O)[NH+]2CCCCC2)c(F)c1)c1cnn(-c2ccccc2)c1-n1cccc1 (nonaromatic ring conformer: 142.02061305110942 kcal/mol)

>  <smiles>  (44) 
O=C(Nc1ccc(S(=O)(=O)N2CCCCC2)c(F)c1)c1cnn(-c2ccccc2)c1-n1cccc1

>  <score_type>  (44) 
oracle

>  <origin>  (44) 
adgpu

>  <m_score__min__energy>  (44) 
-12.31

>  <m_primary>  (44) 
energy

$$$$
44:0
     RDKit          3D

 28 29  0  0  0  0  0  0  0  0999 V2000
   -2.4040   20.2350  -27.4250 C   0  0  0  0  0  0  0  0  0  0  0  0
   -2.2140   21.6690  -27.8220 C   0  0  0  0  0  0  0  0  0  0  0  0
   -1.2640   22.4630  -27.1680 C   0  0  0  0  0  0  0  0  0  0  0  0
   -1.0640   23.7870  -27.5610 C   0  0  0  0  0  0  0  0  0  0  0  0
   -1.8020   24.3370  -28.6140 C   0  0  0  0  0  0  0  0  0  0  0  0
   -1.5950   25.6830  -28.9270 O   0  0  0  0  0  0  0  0  0  0  0  0
   -2.7430   23.5360  -29.3050 C   0  0  0  0  0  0  0  0  0  0  0  0
   -3.5030   24.0480  -30.4700 C   0  0  0  0  0  0  0  0  0  0  0  0
   -3.6790   25.2870  -30.6010 O   0  0  0  0  0  0  0  0  0  0  0  0
   -3.9730   23.1730  -31.5050 N   0  0  0  0  0  0  0  0  0  0  0  0
   -5.3270   22.7280  -31.6630 C   0  0  0  0  0  0  0  0  0  0  0  0
   -6.3570   23.4730  -31.0800 C   0  0  0  0  0  0  0  0  0  0  0  0
   -7.6840   23.0750  -31.2360 C   0  0  0  0  0  0  0  0  0  0  0  0
   -7.9700   21.9180  -31.9600 C   0  0  0  0  0  0  0  0  0  0  0  0
   -6.9590   21.1800  -32.4890 N   0  0  0  0  0  0  0  0  0  0  0  0
   -5.6540   21.5460  -32.3600 C   0  0  0  0  0  0  0  0  0  0  0  0
   -4.4200   20.4700  -32.9950 Cl  0  0  0  0  0  0  0  0  0  0  0  0
   -2.9310   22.2020  -28.9020 C   0  0  0  0  0  0  0  0  0  0  0  0
   -2.4144   20.1566  -26.3278 H   0  0  0  0  0  0  0  0  0  0  0  0
   -3.3588   19.8664  -27.8280 H   0  0  0  0  0  0  0  0  0  0  0  0
   -1.5781   19.6304  -27.8280 H   0  0  0  0  0  0  0  0  0  0  0  0
   -0.6732   22.0416  -26.3414 H   0  0  0  0  0  0  0  0  0  0  0  0
   -0.3188   24.4040  -27.0376 H   0  0  0  0  0  0  0  0  0  0  0  0
   -1.6340   26.0450  -29.8700 H   0  0  0  0  0  0  0  0  0  0  0  0
   -6.1196   24.3751  -30.4970 H   0  0  0  0  0  0  0  0  0  0  0  0
   -8.4975   23.6678  -30.7923 H   0  0  0  0  0  0  0  0  0  0  0  0
   -9.0141   21.6027  -32.1029 H   0  0  0  0  0  0  0  0  0  0  0  0
   -3.6503   21.5683  -29.4415 H   0  0  0  0  0  0  0  0  0  0  0  0
  1  2  1  0
  2  3  2  0
  3  4  1  0
  4  5  2  0
  5  6  1  0
  5  7  1  0
  7  8  1  0
  8  9  2  0
  8 10  1  0
 10 11  1  0
 11 12  2  0
 12 13  1  0
 13 14  2  0
 14 15  1  0
 15 16  2  0
 16 17  1  0
  7 18  2  0
 18  2  1  0
 16 11  1  0
  1 19  1  0
  1 20  1  0
  1 21  1  0
  3 22  1  0
  4 23  1  0
  6 24  1  0
 12 25  1  0
 13 26  1  0
 14 27  1  0
 18 28  1  0
M  CHG  1  10  -1
M  END
>  <UniqueID>  (45) 
41

>  <SMILES>  (45) 
Cc1ccc(O)c(C(=O)[N-]c2cccnc2Cl)c1

>  <Energy>  (45) 
40.876877824919994

>  <Genealogy>  (45) 
Cc1ccc(O)c(C(=O)[N-]c2cccnc2Cl)c1 (protonated)
Cc1ccc(O)c(C(=O)[N-]c2cccnc2Cl)c1 (3D coordinates assigned)
Cc1ccc(O)c(C(=O)[N-]c2cccnc2Cl)c1 (optimized conformer: 40.876877824919994 kcal/mol)

>  <smiles>  (45) 
Cc1ccc(O)c(C(=O)Nc2cccnc2Cl)c1

>  <score_type>  (45) 
oracle

>  <origin>  (45) 
adgpu

>  <m_score__min__energy>  (45) 
-8.6999999999999993

>  <m_primary>  (45) 
energy

$$$$
45:0
     RDKit          3D

 44 46  0  0  0  0  0  0  0  0999 V2000
   -0.5190   18.4780  -33.1680 C   0  0  0  0  0  0  0  0  0  0  0  0
   -1.5780   18.8010  -32.2730 O   0  0  0  0  0  0  0  0  0  0  0  0
   -1.5780   19.9010  -31.4000 C   0  0  0  0  0  0  0  0  0  0  0  0
   -0.7340   19.9580  -30.2750 C   0  0  0  0  0  0  0  0  0  0  0  0
   -0.7540   21.0690  -29.4300 C   0  0  0  0  0  0  0  0  0  0  0  0
   -1.6070   22.1500  -29.7020 C   0  0  0  0  0  0  0  0  0  0  0  0
   -1.6640   23.2980  -28.8440 N   0  0  0  0  0  0  0  0  0  0  0  0
   -2.2830   24.5530  -29.1550 C   0  0  0  0  0  0  0  0  0  0  0  0
   -1.6330   25.6140  -28.9720 O   0  0  0  0  0  0  0  0  0  0  0  0
   -3.6770   24.6440  -29.6240 C   0  0  0  0  0  0  0  0  0  0  0  0
   -4.7910   24.0860  -29.0220 C   0  0  0  0  0  0  0  0  0  0  0  0
   -5.8620   24.4540  -29.8060 C   0  0  0  0  0  0  0  0  0  0  0  0
   -5.3430   25.2180  -30.8310 C   0  0  0  0  0  0  0  0  0  0  0  0
   -4.0400   25.3160  -30.6930 O   0  0  0  0  0  0  0  0  0  0  0  0
   -2.4670   22.0860  -30.8040 C   0  0  0  0  0  0  0  0  0  0  0  0
   -2.4530   20.9720  -31.6560 C   0  0  0  0  0  0  0  0  0  0  0  0
   -3.5410   20.9120  -33.0450 S   0  0  0  0  0  0  0  0  0  0  0  0
   -4.0990   22.2750  -33.3480 O   0  0  0  0  0  0  0  0  0  0  0  0
   -2.7600   20.4250  -34.2330 O   0  0  0  0  0  0  0  0  0  0  0  0
   -4.8570   19.8280  -32.6980 N   0  0  0  0  0  0  0  0  0  0  0  0
   -4.6170   18.3850  -32.7200 C   0  0  0  0  0  0  0  0  0  0  0  0
   -6.1660   20.3410  -32.3950 C   0  0  0  0  0  0  0  0  0  0  0  0
   -6.3090   21.5550  -31.7040 C   0  0  0  0  0  0  0  0  0  0  0  0
   -7.5820   22.0540  -31.4080 C   0  0  0  0  0  0  0  0  0  0  0  0
   -8.7200   21.3430  -31.7970 C   0  0  0  0  0  0  0  0  0  0  0  0
   -8.5880   20.1320  -32.4820 C   0  0  0  0  0  0  0  0  0  0  0  0
   -7.3170   19.6300  -32.7780 C   0  0  0  0  0  0  0  0  0  0  0  0
    0.3774   18.2046  -32.5920 H   0  0  0  0  0  0  0  0  0  0  0  0
   -0.8201   17.6308  -33.8018 H   0  0  0  0  0  0  0  0  0  0  0  0
   -0.2960   19.3490  -33.8018 H   0  0  0  0  0  0  0  0  0  0  0  0
   -0.0536   19.1208  -30.0601 H   0  0  0  0  0  0  0  0  0  0  0  0
   -0.0984   21.0974  -28.5472 H   0  0  0  0  0  0  0  0  0  0  0  0
   -4.8160   23.4754  -28.1074 H   0  0  0  0  0  0  0  0  0  0  0  0
   -6.9184   24.1916  -29.6470 H   0  0  0  0  0  0  0  0  0  0  0  0
   -5.9307   25.6755  -31.6406 H   0  0  0  0  0  0  0  0  0  0  0  0
   -3.1600   22.9166  -31.0038 H   0  0  0  0  0  0  0  0  0  0  0  0
   -4.5543   18.0080  -31.6885 H   0  0  0  0  0  0  0  0  0  0  0  0
   -5.4441   17.8837  -33.2440 H   0  0  0  0  0  0  0  0  0  0  0  0
   -3.6722   18.1784  -33.2440 H   0  0  0  0  0  0  0  0  0  0  0  0
   -5.4155   22.1166  -31.3938 H   0  0  0  0  0  0  0  0  0  0  0  0
   -7.6870   23.0069  -30.8686 H   0  0  0  0  0  0  0  0  0  0  0  0
   -9.7204   21.7366  -31.5640 H   0  0  0  0  0  0  0  0  0  0  0  0
   -9.4846   19.5734  -32.7885 H   0  0  0  0  0  0  0  0  0  0  0  0
   -7.2171   18.6741  -33.3131 H   0  0  0  0  0  0  0  0  0  0  0  0
  1  2  1  0
  2  3  1  0
  3  4  2  0
  4  5  1  0
  5  6  2  0
  6  7  1  0
  7  8  1  0
  8  9  2  0
  8 10  1  0
 10 11  2  0
 11 12  1  0
 12 13  2  0
 13 14  1  0
  6 15  1  0
 15 16  2  0
 16 17  1  0
 17 18  2  0
 17 19  2  0
 17 20  1  0
 20 21  1  0
 20 22  1  0
 22 23  2  0
 23 24  1  0
 24 25  2  0
 25 26  1  0
 26 27  2  0
 16  3  1  0
 27 22  1  0
 14 10  1  0
  1 28  1  0
  1 29  1  0
  1 30  1  0
  4 31  1  0
  5 32  1  0
 11 33  1  0
 12 34  1  0
 13 35  1  0
 15 36  1  0
 21 37  1  0
 21 38  1  0
 21 39  1  0
 23 40  1  0
 24 41  1  0
 25 42  1  0
 26 43  1  0
 27 44  1  0
M  CHG  1   7  -1
M  END
>  <UniqueID>  (46) 
42

>  <SMILES>  (46) 
COc1ccc([N-]C(=O)c2ccco2)cc1S(=O)(=O)N(C)c1ccccc1

>  <Energy>  (46) 
80.83403239521898

>  <Genealogy>  (46) 
COc1ccc([N-]C(=O)c2ccco2)cc1S(=O)(=O)N(C)c1ccccc1 (protonated)
COc1ccc([N-]C(=O)c2ccco2)cc1S(=O)(=O)N(C)c1ccccc1 (3D coordinates assigned)
COc1ccc([N-]C(=O)c2ccco2)cc1S(=O)(=O)N(C)c1ccccc1 (optimized conformer: 80.83403239521898 kcal/mol)

>  <smiles>  (46) 
COc1ccc(NC(=O)c2ccco2)cc1S(=O)(=O)N(C)c1ccccc1

>  <score_type>  (46) 
oracle

>  <origin>  (46) 
adgpu

>  <m_score__min__energy>  (46) 
-9.6899999999999995

>  <m_primary>  (46) 
energy

$$$$
46:0
     RDKit          3D

 47 49  0  0  0  0  0  0  0  0999 V2000
    0.2460   27.2570  -22.8900 C   0  0  0  0  0  0  0  0  0  0  0  0
    0.0080   26.7510  -24.2750 C   0  0  0  0  0  0  0  0  0  0  0  0
    0.9930   26.4090  -24.9840 O   0  0  0  0  0  0  0  0  0  0  0  0
   -1.3210   26.7490  -24.8160 N   0  0  0  0  0  0  0  0  0  0  0  0
   -1.6810   26.1240  -26.0610 C   0  0  0  0  0  0  0  0  0  0  0  0
   -2.7890   25.2650  -26.1060 C   0  0  0  0  0  0  0  0  0  0  0  0
   -3.1560   24.6420  -27.3030 C   0  0  0  0  0  0  0  0  0  0  0  0
   -2.4210   24.8680  -28.4710 C   0  0  0  0  0  0  0  0  0  0  0  0
   -2.8340   24.2290  -29.6890 N   0  0  0  0  0  0  0  0  0  0  0  0
   -4.0280   24.5240  -30.4270 C   0  0  0  0  0  0  0  0  0  0  0  0
   -4.1930   25.6900  -30.8730 O   0  0  0  0  0  0  0  0  0  0  0  0
   -5.0490   23.4890  -30.7060 C   0  0  0  0  0  0  0  0  0  0  0  0
   -4.8940   22.6180  -31.7950 C   0  0  0  0  0  0  0  0  0  0  0  0
   -5.8930   21.6900  -32.1050 C   0  0  0  0  0  0  0  0  0  0  0  0
   -7.0560   21.6170  -31.3260 C   0  0  0  0  0  0  0  0  0  0  0  0
   -8.3500   20.4940  -31.7580 S   0  0  0  0  0  0  0  0  0  0  0  0
   -9.3030   21.1810  -32.6960 O   0  0  0  0  0  0  0  0  0  0  0  0
   -9.1090   20.1170  -30.5160 O   0  0  0  0  0  0  0  0  0  0  0  0
   -7.7500   19.0390  -32.5220 N   0  0  0  0  0  0  0  0  0  0  0  0
   -6.8590   19.3330  -33.6420 C   0  0  0  0  0  0  0  0  0  0  0  0
   -5.9430   18.1270  -33.7910 C   0  0  0  0  0  0  0  0  0  0  0  0
   -6.0190   17.3960  -32.4600 C   0  0  0  0  0  0  0  0  0  0  0  0
   -6.9650   18.2200  -31.6010 C   0  0  0  0  0  0  0  0  0  0  0  0
   -7.1880   22.4480  -30.2060 C   0  0  0  0  0  0  0  0  0  0  0  0
   -6.1930   23.3780  -29.8970 C   0  0  0  0  0  0  0  0  0  0  0  0
   -1.2740   25.6800  -28.4170 C   0  0  0  0  0  0  0  0  0  0  0  0
   -0.9100   26.3060  -27.2230 C   0  0  0  0  0  0  0  0  0  0  0  0
   -0.1049   26.5110  -22.1617 H   0  0  0  0  0  0  0  0  0  0  0  0
    1.3218   27.4341  -22.7441 H   0  0  0  0  0  0  0  0  0  0  0  0
   -0.3036   28.1986  -22.7441 H   0  0  0  0  0  0  0  0  0  0  0  0
   -2.0500   27.3080  -24.3170 H   0  0  0  0  0  0  0  0  0  0  0  0
   -3.3737   25.0800  -25.1928 H   0  0  0  0  0  0  0  0  0  0  0  0
   -4.0272   23.9708  -27.3259 H   0  0  0  0  0  0  0  0  0  0  0  0
   -3.9819   22.6654  -32.4081 H   0  0  0  0  0  0  0  0  0  0  0  0
   -5.7657   21.0145  -32.9637 H   0  0  0  0  0  0  0  0  0  0  0  0
   -7.4421   19.4838  -34.5625 H   0  0  0  0  0  0  0  0  0  0  0  0
   -6.2819   20.2519  -33.4616 H   0  0  0  0  0  0  0  0  0  0  0  0
   -6.2916   17.4774  -34.6074 H   0  0  0  0  0  0  0  0  0  0  0  0
   -4.9126   18.4235  -34.0368 H   0  0  0  0  0  0  0  0  0  0  0  0
   -6.4142   16.3792  -32.6012 H   0  0  0  0  0  0  0  0  0  0  0  0
   -5.0284   17.2914  -31.9933 H   0  0  0  0  0  0  0  0  0  0  0  0
   -7.6262   17.5590  -31.0215 H   0  0  0  0  0  0  0  0  0  0  0  0
   -6.4116   18.8445  -30.8843 H   0  0  0  0  0  0  0  0  0  0  0  0
   -8.0796   22.3676  -29.5668 H   0  0  0  0  0  0  0  0  0  0  0  0
   -6.3052   24.0270  -29.0160 H   0  0  0  0  0  0  0  0  0  0  0  0
   -0.6610   25.8226  -29.3192 H   0  0  0  0  0  0  0  0  0  0  0  0
   -0.0152   26.9450  -27.1912 H   0  0  0  0  0  0  0  0  0  0  0  0
  1  2  1  0
  2  3  2  0
  2  4  1  0
  4  5  1  0
  5  6  2  0
  6  7  1  0
  7  8  2  0
  8  9  1  0
  9 10  1  0
 10 11  2  0
 10 12  1  0
 12 13  2  0
 13 14  1  0
 14 15  2  0
 15 16  1  0
 16 17  2  0
 16 18  2  0
 16 19  1  0
 19 20  1  0
 20 21  1  0
 21 22  1  0
 22 23  1  0
 15 24  1  0
 24 25  2  0
  8 26  1  0
 26 27  2  0
 27  5  1  0
 25 12  1  0
 23 19  1  0
  1 28  1  0
  1 29  1  0
  1 30  1  0
  4 31  1  0
  6 32  1  0
  7 33  1  0
 13 34  1  0
 14 35  1  0
 20 36  1  0
 20 37  1  0
 21 38  1  0
 21 39  1  0
 22 40  1  0
 22 41  1  0
 23 42  1  0
 23 43  1  0
 24 44  1  0
 25 45  1  0
 26 46  1  0
 27 47  1  0
M  CHG  1   9  -1
M  END
>  <UniqueID>  (47) 
43

>  <SMILES>  (47) 
CC(=O)Nc1ccc([N-]C(=O)c2ccc(S(=O)(=O)N3CCCC3)cc2)cc1

>  <Energy>  (47) 
56.643593045783824

>  <Genealogy>  (47) 
CC(=O)Nc1ccc([N-]C(=O)c2ccc(S(=O)(=O)N3CCCC3)cc2)cc1 (protonated)
CC(=O)Nc1ccc([N-]C(=O)c2ccc(S(=O)(=O)N3CCCC3)cc2)cc1 (3D coordinates assigned)
CC(=O)Nc1ccc([N-]C(=O)c2ccc(S(=O)(=O)N3CCCC3)cc2)cc1 (nonaromatic ring conformer: 56.643593045783824 kcal/mol)

>  <smiles>  (47) 
CC(=O)Nc1ccc(NC(=O)c2ccc(S(=O)(=O)N3CCCC3)cc2)cc1

>  <score_type>  (47) 
oracle

>  <origin>  (47) 
adgpu

>  <m_score__min__energy>  (47) 
-11.279999999999999

>  <m_primary>  (47) 
energy

$$$$
47:0
     RDKit          3D

 50 52  0  0  1  0  0  0  0  0999 V2000
   -2.9550   20.6930  -29.3850 C   0  0  0  0  0  0  0  0  0  0  0  0
   -3.7490   20.6400  -30.5430 O   0  0  0  0  0  0  0  0  0  0  0  0
   -4.6740   21.6030  -30.9170 C   0  0  0  0  0  0  0  0  0  0  0  0
   -5.9110   21.1920  -31.3640 C   0  0  0  0  0  0  0  0  0  0  0  0
   -6.8950   22.0510  -31.7580 C   0  0  0  0  0  0  0  0  0  0  0  0
   -8.0080   21.5970  -32.1620 N   0  0  0  0  0  0  0  0  0  0  0  0
   -8.4200   19.9470  -32.2690 S   0  0  0  0  0  0  0  0  0  0  0  0
   -9.6430   19.8000  -33.1050 O   0  0  0  0  0  0  0  0  0  0  0  0
   -8.6950   19.3240  -30.9080 O   0  0  0  0  0  0  0  0  0  0  0  0
   -7.0760   19.0230  -32.9310 C   0  0  0  0  0  0  0  0  0  0  0  0
   -6.4720   19.3540  -34.1260 C   0  0  0  0  0  0  0  0  0  0  0  0
   -5.4050   18.5750  -34.5960 C   0  0  0  0  0  0  0  0  0  0  0  0
   -4.9520   17.4830  -33.8800 C   0  0  0  0  0  0  0  0  0  0  0  0
   -3.8710   16.6830  -34.3500 N   0  0  0  0  0  0  0  0  0  0  0  0
   -2.6830   17.3420  -34.8950 C   0  0  0  0  0  0  0  0  0  0  0  0
   -2.0730   18.1890  -33.8570 C   0  0  0  0  0  0  0  0  0  0  0  0
   -2.4160   19.5380  -33.7510 C   0  0  0  0  0  0  0  0  0  0  0  0
   -1.8490   20.3330  -32.7890 C   0  0  0  0  0  0  0  0  0  0  0  0
   -2.2500   21.6670  -32.7550 O   0  0  0  0  0  0  0  0  0  0  0  0
   -0.9320   19.8430  -31.9010 C   0  0  0  0  0  0  0  0  0  0  0  0
   -0.5950   18.4990  -32.0130 C   0  0  0  0  0  0  0  0  0  0  0  0
   -1.1410   17.6680  -32.9630 C   0  0  0  0  0  0  0  0  0  0  0  0
   -0.7560   16.3570  -33.0060 O   0  0  0  0  0  0  0  0  0  0  0  0
   -5.5560   17.1460  -32.6770 C   0  0  0  0  0  0  0  0  0  0  0  0
   -6.6040   17.9200  -32.2260 C   0  0  0  0  0  0  0  0  0  0  0  0
   -6.6100   23.3810  -31.6940 N   0  0  0  0  0  0  0  0  0  0  0  0
   -5.3990   23.8190  -31.2570 C   0  0  0  0  0  0  0  0  0  0  0  0
   -5.1550   25.1840  -31.2090 O   0  0  0  0  0  0  0  0  0  0  0  0
   -5.7390   25.9110  -30.1420 C   0  0  0  0  0  0  0  0  0  0  0  0
   -4.4460   22.9210  -30.8750 N   0  0  0  0  0  0  0  0  0  0  0  0
   -3.6006   20.6499  -28.4954 H   0  0  0  0  0  0  0  0  0  0  0  0
   -2.2616   19.8391  -29.3765 H   0  0  0  0  0  0  0  0  0  0  0  0
   -2.3812   21.6314  -29.3765 H   0  0  0  0  0  0  0  0  0  0  0  0
   -6.1163   20.1121  -31.4054 H   0  0  0  0  0  0  0  0  0  0  0  0
   -6.8239   20.2207  -34.7047 H   0  0  0  0  0  0  0  0  0  0  0  0
   -4.9213   18.8369  -35.5486 H   0  0  0  0  0  0  0  0  0  0  0  0
   -3.9120   15.6630  -34.3120 H   0  0  0  0  0  0  0  0  0  0  0  0
   -1.9582   16.5812  -35.2203 H   0  0  0  0  0  0  0  0  0  0  0  0
   -2.9708   17.9650  -35.7547 H   0  0  0  0  0  0  0  0  0  0  0  0
   -3.1502   19.9683  -34.4480 H   0  0  0  0  0  0  0  0  0  0  0  0
   -2.8100   21.9650  -31.9590 H   0  0  0  0  0  0  0  0  0  0  0  0
   -0.4801   20.4851  -31.1306 H   0  0  0  0  0  0  0  0  0  0  0  0
    0.1413   18.0816  -31.3104 H   0  0  0  0  0  0  0  0  0  0  0  0
    0.0080   15.9440  -32.5150 H   0  0  0  0  0  0  0  0  0  0  0  0
   -5.2062   16.2801  -32.0958 H   0  0  0  0  0  0  0  0  0  0  0  0
   -7.0852   17.6556  -31.2728 H   0  0  0  0  0  0  0  0  0  0  0  0
   -7.3420   24.0860  -31.9890 H   0  0  0  0  0  0  0  0  0  0  0  0
   -5.4011   25.4903  -29.1834 H   0  0  0  0  0  0  0  0  0  0  0  0
   -5.4344   26.9660  -30.2071 H   0  0  0  0  0  0  0  0  0  0  0  0
   -6.8348   25.8410  -30.2071 H   0  0  0  0  0  0  0  0  0  0  0  0
  1  2  1  0
  2  3  1  0
  3  4  2  0
  4  5  1  0
  5  6  2  0
  6  7  1  0
  7  8  2  0
  7  9  2  0
  7 10  1  0
 10 11  2  0
 11 12  1  0
 12 13  2  0
 13 14  1  0
 14 15  1  0
 15 16  1  0
 16 17  2  0
 17 18  1  0
 18 19  1  0
 18 20  2  0
 20 21  1  0
 21 22  2  0
 22 23  1  0
 13 24  1  0
 24 25  2  0
  5 26  1  0
 26 27  1  0
 27 28  1  0
 28 29  1  0
 27 30  2  0
 30  3  1  0
 25 10  1  0
 22 16  1  0
  1 31  1  0
  1 32  1  0
  1 33  1  0
  4 34  1  0
 11 35  1  0
 12 36  1  0
 14 37  1  0
 15 38  1  0
 15 39  1  0
 17 40  1  0
 19 41  1  0
 20 42  1  0
 21 43  1  0
 23 44  1  0
 24 45  1  0
 25 46  1  0
 26 47  1  0
 29 48  1  0
 29 49  1  0
 29 50  1  0
M  END
>  <smiles>  (48) 
COc1cc(=NS(=O)(=O)c2ccc(NCc3cc(O)ccc3O)cc2)[nH]c(OC)n1

>  <score_type>  (48) 
oracle

>  <origin>  (48) 
adgpu

>  <m_score__min__energy>  (48) 
-8.8000000000000007

>  <m_primary>  (48) 
energy

$$$$
48:0
     RDKit          3D

 48 50  0  0  0  0  0  0  0  0999 V2000
   -9.3900   20.0150  -32.3530 C   0  0  0  0  0  0  0  0  0  0  0  0
   -8.9760   21.2190  -31.7140 O   0  0  0  0  0  0  0  0  0  0  0  0
   -7.6440   21.6480  -31.6200 C   0  0  0  0  0  0  0  0  0  0  0  0
   -6.7120   21.1340  -32.5310 C   0  0  0  0  0  0  0  0  0  0  0  0
   -5.3740   21.5310  -32.4780 C   0  0  0  0  0  0  0  0  0  0  0  0
   -4.9510   22.4450  -31.5110 C   0  0  0  0  0  0  0  0  0  0  0  0
   -5.8660   22.9640  -30.5820 C   0  0  0  0  0  0  0  0  0  0  0  0
   -5.4180   23.9790  -29.5660 C   0  0  0  0  0  0  0  0  0  0  0  0
   -4.5650   25.0150  -30.2240 C   0  0  0  0  0  0  0  0  0  0  0  0
   -5.1070   25.9600  -30.8570 O   0  0  0  0  0  0  0  0  0  0  0  0
   -3.1390   24.9240  -30.1210 N   0  0  0  0  0  0  0  0  0  0  0  0
   -2.3930   24.5990  -28.9380 C   0  0  0  0  0  0  0  0  0  0  0  0
   -1.5030   25.5490  -28.4240 C   0  0  0  0  0  0  0  0  0  0  0  0
   -0.7760   25.2840  -27.2610 C   0  0  0  0  0  0  0  0  0  0  0  0
   -0.9470   24.0680  -26.5860 C   0  0  0  0  0  0  0  0  0  0  0  0
   -0.0430   23.7380  -25.1110 S   0  0  0  0  0  0  0  0  0  0  0  0
    1.4190   23.6480  -25.4490 O   0  0  0  0  0  0  0  0  0  0  0  0
   -0.4860   22.4370  -24.5010 O   0  0  0  0  0  0  0  0  0  0  0  0
   -0.2820   25.0130  -23.9570 N   0  0  0  0  0  0  0  0  0  0  0  0
    0.3970   26.1240  -23.9620 C   0  0  0  0  0  0  0  0  0  0  0  0
    0.2050   27.1960  -22.9590 C   0  0  0  0  0  0  0  0  0  0  0  0
    1.2870   28.2250  -23.3180 C   0  0  0  0  0  0  0  0  0  0  0  0
    2.0060   27.7160  -24.5820 C   0  0  0  0  0  0  0  0  0  0  0  0
    1.4120   26.4330  -24.8970 N   0  0  0  0  0  0  0  0  0  0  0  0
   -1.8500   23.1210  -27.0870 C   0  0  0  0  0  0  0  0  0  0  0  0
   -2.5750   23.3860  -28.2510 C   0  0  0  0  0  0  0  0  0  0  0  0
   -7.2150   22.5730  -30.6470 C   0  0  0  0  0  0  0  0  0  0  0  0
   -9.6478   19.2652  -31.5906 H   0  0  0  0  0  0  0  0  0  0  0  0
  -10.2703   20.2171  -32.9809 H   0  0  0  0  0  0  0  0  0  0  0  0
   -8.5716   19.6330  -32.9809 H   0  0  0  0  0  0  0  0  0  0  0  0
   -7.0367   20.4117  -33.2944 H   0  0  0  0  0  0  0  0  0  0  0  0
   -4.6516   21.1225  -33.2000 H   0  0  0  0  0  0  0  0  0  0  0  0
   -3.8974   22.7593  -31.4772 H   0  0  0  0  0  0  0  0  0  0  0  0
   -6.2997   24.4622  -29.1198 H   0  0  0  0  0  0  0  0  0  0  0  0
   -4.8344   23.4738  -28.7823 H   0  0  0  0  0  0  0  0  0  0  0  0
   -1.3750   26.5120  -28.9399 H   0  0  0  0  0  0  0  0  0  0  0  0
   -0.0677   26.0315  -26.8742 H   0  0  0  0  0  0  0  0  0  0  0  0
   -1.0020   24.8590  -23.2150 H   0  0  0  0  0  0  0  0  0  0  0  0
   -0.7993   27.6368  -23.0427 H   0  0  0  0  0  0  0  0  0  0  0  0
    0.2876   26.8326  -21.9241 H   0  0  0  0  0  0  0  0  0  0  0  0
    0.8245   29.2031  -23.5167 H   0  0  0  0  0  0  0  0  0  0  0  0
    1.9990   28.3453  -22.4882 H   0  0  0  0  0  0  0  0  0  0  0  0
    1.8573   28.4195  -25.4144 H   0  0  0  0  0  0  0  0  0  0  0  0
    3.0898   27.6258  -24.4172 H   0  0  0  0  0  0  0  0  0  0  0  0
    1.7040   25.8480  -25.7110 H   0  0  0  0  0  0  0  0  0  0  0  0
   -1.9885   22.1647  -26.5613 H   0  0  0  0  0  0  0  0  0  0  0  0
   -3.2911   22.6428  -28.6316 H   0  0  0  0  0  0  0  0  0  0  0  0
   -7.9403   22.9918  -29.9338 H   0  0  0  0  0  0  0  0  0  0  0  0
  1  2  1  0
  2  3  1  0
  3  4  2  0
  4  5  1  0
  5  6  2  0
  6  7  1  0
  7  8  1  0
  8  9  1  0
  9 10  2  0
  9 11  1  0
 11 12  1  0
 12 13  2  0
 13 14  1  0
 14 15  2  0
 15 16  1  0
 16 17  2  0
 16 18  2  0
 16 19  1  0
 19 20  2  3
 20 21  1  0
 21 22  1  0
 22 23  1  0
 23 24  1  0
 15 25  1  0
 25 26  2  0
  7 27  2  0
 27  3  1  0
 26 12  1  0
 24 20  1  0
  1 28  1  0
  1 29  1  0
  1 30  1  0
  4 31  1  0
  5 32  1  0
  6 33  1  0
  8 34  1  0
  8 35  1  0
 13 36  1  0
 14 37  1  0
 19 38  1  0
 21 39  1  0
 21 40  1  0
 22 41  1  0
 22 42  1  0
 23 43  1  0
 23 44  1  0
 24 45  1  0
 25 46  1  0
 26 47  1  0
 27 48  1  0
M  CHG  2  11  -1  19   1
M  END
>  <UniqueID>  (49) 
44

>  <SMILES>  (49) 
COc1cccc(CC(=O)[N-]c2ccc(S(=O)(=O)[NH+]=C3CCCN3)cc2)c1

>  <Energy>  (49) 
57.45023989548004

>  <Genealogy>  (49) 
COc1cccc(CC(=O)[N-]c2ccc(S(=O)(=O)[NH+]=C3CCCN3)cc2)c1 (protonated)
COc1cccc(CC(=O)[N-]c2ccc(S(=O)(=O)[NH+]=C3CCCN3)cc2)c1 (3D coordinates assigned)
COc1cccc(CC(=O)[N-]c2ccc(S(=O)(=O)[NH+]=C3CCCN3)cc2)c1 (nonaromatic ring conformer: 57.45023989548004 kcal/mol)

>  <smiles>  (49) 
COc1cccc(CC(=O)Nc2ccc(S(=O)(=O)N=C3CCCN3)cc2)c1

>  <score_type>  (49) 
oracle

>  <origin>  (49) 
adgpu

>  <m_score__min__energy>  (49) 
-10.609999999999999

>  <m_primary>  (49) 
energy

$$$$
49:0
     RDKit          3D

 40 42  0  0  0  0  0  0  0  0999 V2000
   -8.2670   22.2340  -30.5150 C   0  0  0  0  0  0  0  0  0  0  0  0
   -7.0170   23.0540  -30.5050 C   0  0  0  0  0  0  0  0  0  0  0  0
   -7.0770   24.4400  -30.6780 C   0  0  0  0  0  0  0  0  0  0  0  0
   -5.8970   25.1820  -30.6610 C   0  0  0  0  0  0  0  0  0  0  0  0
   -4.6720   24.5410  -30.4650 C   0  0  0  0  0  0  0  0  0  0  0  0
   -3.5010   25.2920  -30.4700 O   0  0  0  0  0  0  0  0  0  0  0  0
   -4.6440   23.1450  -30.2770 C   0  0  0  0  0  0  0  0  0  0  0  0
   -3.3480   22.3930  -30.0730 C   0  0  0  0  0  0  0  0  0  0  0  0
   -2.8380   21.7380  -31.2980 N   0  0  0  0  0  0  0  0  0  0  0  0
   -3.3070   22.3040  -32.5840 C   0  0  0  0  0  0  0  0  0  0  0  0
   -4.5990   21.6440  -33.1020 C   0  0  0  0  0  0  0  0  0  0  0  0
   -4.7230   20.2660  -32.6160 N   0  0  0  0  0  0  0  0  0  0  0  0
   -6.0220   19.6780  -32.3870 C   0  0  0  0  0  0  0  0  0  0  0  0
   -6.1410   18.4610  -31.6950 C   0  0  0  0  0  0  0  0  0  0  0  0
   -7.4020   17.8860  -31.5160 C   0  0  0  0  0  0  0  0  0  0  0  0
   -8.5080   18.4990  -32.0130 N   0  0  0  0  0  0  0  0  0  0  0  0
   -8.4270   19.6750  -32.6890 C   0  0  0  0  0  0  0  0  0  0  0  0
   -7.1860   20.2840  -32.8890 C   0  0  0  0  0  0  0  0  0  0  0  0
   -3.4840   19.5380  -32.3400 C   0  0  0  0  0  0  0  0  0  0  0  0
   -2.7040   20.2610  -31.2360 C   0  0  0  0  0  0  0  0  0  0  0  0
   -5.8120   22.4490  -30.3240 N   0  0  0  0  0  0  0  0  0  0  0  0
   -8.5794   22.0291  -29.4804 H   0  0  0  0  0  0  0  0  0  0  0  0
   -9.0633   22.7858  -31.0360 H   0  0  0  0  0  0  0  0  0  0  0  0
   -8.0780   21.2838  -31.0360 H   0  0  0  0  0  0  0  0  0  0  0  0
   -8.0456   24.9400  -30.8260 H   0  0  0  0  0  0  0  0  0  0  0  0
   -5.9309   26.2724  -30.8020 H   0  0  0  0  0  0  0  0  0  0  0  0
   -2.5872   23.1034  -29.7172 H   0  0  0  0  0  0  0  0  0  0  0  0
   -3.5523   21.5947  -29.3444 H   0  0  0  0  0  0  0  0  0  0  0  0
   -3.4949   23.3789  -32.4451 H   0  0  0  0  0  0  0  0  0  0  0  0
   -2.5213   22.1150  -33.3303 H   0  0  0  0  0  0  0  0  0  0  0  0
   -5.4643   22.2267  -32.7530 H   0  0  0  0  0  0  0  0  0  0  0  0
   -4.5628   21.6234  -34.2012 H   0  0  0  0  0  0  0  0  0  0  0  0
   -5.2452   17.9629  -31.2958 H   0  0  0  0  0  0  0  0  0  0  0  0
   -7.4994   16.9351  -30.9716 H   0  0  0  0  0  0  0  0  0  0  0  0
   -9.3402   20.1481  -33.0793 H   0  0  0  0  0  0  0  0  0  0  0  0
   -7.1202   21.2350  -33.4378 H   0  0  0  0  0  0  0  0  0  0  0  0
   -3.7242   18.5163  -32.0108 H   0  0  0  0  0  0  0  0  0  0  0  0
   -2.8725   19.4937  -33.2533 H   0  0  0  0  0  0  0  0  0  0  0  0
   -3.0779   19.9165  -30.2605 H   0  0  0  0  0  0  0  0  0  0  0  0
   -1.6395   20.0227  -31.3775 H   0  0  0  0  0  0  0  0  0  0  0  0
  1  2  1  0
  2  3  2  0
  3  4  1  0
  4  5  2  0
  5  6  1  0
  5  7  1  0
  7  8  1  0
  8  9  1  0
  9 10  1  0
 10 11  1  0
 11 12  1  0
 12 13  1  0
 13 14  2  0
 14 15  1  0
 15 16  2  0
 16 17  1  0
 17 18  2  0
 12 19  1  0
 19 20  1  0
  7 21  2  0
 21  2  1  0
 20  9  1  0
 18 13  1  0
  1 22  1  0
  1 23  1  0
  1 24  1  0
  3 25  1  0
  4 26  1  0
  8 27  1  0
  8 28  1  0
 10 29  1  0
 10 30  1  0
 11 31  1  0
 11 32  1  0
 14 33  1  0
 15 34  1  0
 17 35  1  0
 18 36  1  0
 19 37  1  0
 19 38  1  0
 20 39  1  0
 20 40  1  0
M  CHG  1   6  -1
M  END
>  <UniqueID>  (50) 
45

>  <SMILES>  (50) 
Cc1ccc([O-])c(CN2CCN(c3ccncc3)CC2)n1

>  <Energy>  (50) 
55.542558322154925

>  <Genealogy>  (50) 
Cc1ccc([O-])c(CN2CCN(c3ccncc3)CC2)n1 (protonated)
Cc1ccc([O-])c(CN2CCN(c3ccncc3)CC2)n1 (3D coordinates assigned)
Cc1ccc([O-])c(CN2CCN(c3ccncc3)CC2)n1 (nonaromatic ring conformer: 55.542558322154925 kcal/mol)

>  <smiles>  (50) 
Cc1ccc(O)c(CN2CCN(c3ccncc3)CC2)n1

>  <score_type>  (50) 
oracle

>  <origin>  (50) 
adgpu

>  <m_score__min__energy>  (50) 
-10.539999999999999

>  <m_primary>  (50) 
energy

$$$$
