0:0
     RDKit          3D

 44 45  0  0  0  0  0  0  0  0999 V2000
   -5.2160   18.5580  -33.9060 C   0  0  0  0  0  0  0  0  0  0  0  0
   -6.5020   18.0800  -33.1900 C   0  0  0  0  0  0  0  0  0  0  0  0
   -6.1790   17.9770  -31.6800 C   0  0  0  0  0  0  0  0  0  0  0  0
   -6.8580   16.6800  -33.7390 C   0  0  0  0  0  0  0  0  0  0  0  0
   -7.5810   19.0780  -33.4580 N   0  0  0  0  0  0  0  0  0  0  0  0
   -8.0870   19.8690  -32.3110 C   0  0  0  0  0  0  0  0  0  0  0  0
   -7.3330   21.1570  -32.0840 C   0  0  0  0  0  0  0  0  0  0  0  0
   -6.0070   21.2950  -32.5230 C   0  0  0  0  0  0  0  0  0  0  0  0
   -5.3100   22.4870  -32.3060 C   0  0  0  0  0  0  0  0  0  0  0  0
   -5.9360   23.5680  -31.6580 C   0  0  0  0  0  0  0  0  0  0  0  0
   -5.2750   24.7790  -31.3950 O   0  0  0  0  0  0  0  0  0  0  0  0
   -4.9790   25.2910  -30.0950 C   0  0  0  0  0  0  0  0  0  0  0  0
   -4.0820   24.3460  -29.3400 C   0  0  0  0  0  0  0  0  0  0  0  0
   -2.6890   24.5300  -29.3410 C   0  0  0  0  0  0  0  0  0  0  0  0
   -1.8630   23.6490  -28.6350 C   0  0  0  0  0  0  0  0  0  0  0  0
   -2.4200   22.5860  -27.9200 C   0  0  0  0  0  0  0  0  0  0  0  0
   -3.8060   22.4040  -27.9050 C   0  0  0  0  0  0  0  0  0  0  0  0
   -4.6350   23.2830  -28.6080 C   0  0  0  0  0  0  0  0  0  0  0  0
   -7.2700   23.4410  -31.2550 C   0  0  0  0  0  0  0  0  0  0  0  0
   -7.9670   22.2490  -31.4700 C   0  0  0  0  0  0  0  0  0  0  0  0
   -4.4615   18.8384  -33.1562 H   0  0  0  0  0  0  0  0  0  0  0  0
   -4.8233   17.7458  -34.5354 H   0  0  0  0  0  0  0  0  0  0  0  0
   -5.4491   19.4295  -34.5354 H   0  0  0  0  0  0  0  0  0  0  0  0
   -7.0665   18.2600  -31.0951 H   0  0  0  0  0  0  0  0  0  0  0  0
   -5.8933   16.9432  -31.4358 H   0  0  0  0  0  0  0  0  0  0  0  0
   -5.3476   18.6546  -31.4358 H   0  0  0  0  0  0  0  0  0  0  0  0
   -7.0333   15.9908  -32.8998 H   0  0  0  0  0  0  0  0  0  0  0  0
   -7.7675   16.7477  -34.3540 H   0  0  0  0  0  0  0  0  0  0  0  0
   -6.0266   16.3050  -34.3540 H   0  0  0  0  0  0  0  0  0  0  0  0
   -7.2790   19.7280  -34.2210 H   0  0  0  0  0  0  0  0  0  0  0  0
   -8.4120   18.5650  -33.8360 H   0  0  0  0  0  0  0  0  0  0  0  0
   -9.1435   20.1128  -32.4961 H   0  0  0  0  0  0  0  0  0  0  0  0
   -7.9508   19.2530  -31.4099 H   0  0  0  0  0  0  0  0  0  0  0  0
   -5.5132   20.4597  -33.0411 H   0  0  0  0  0  0  0  0  0  0  0  0
   -4.2672   22.5805  -32.6434 H   0  0  0  0  0  0  0  0  0  0  0  0
   -4.4748   26.2633  -30.1965 H   0  0  0  0  0  0  0  0  0  0  0  0
   -5.9206   25.4045  -29.5378 H   0  0  0  0  0  0  0  0  0  0  0  0
   -2.2469   25.3690  -29.8984 H   0  0  0  0  0  0  0  0  0  0  0  0
   -0.7726   23.7936  -28.6429 H   0  0  0  0  0  0  0  0  0  0  0  0
   -1.7681   21.8923  -27.3689 H   0  0  0  0  0  0  0  0  0  0  0  0
   -4.2445   21.5685  -27.3396 H   0  0  0  0  0  0  0  0  0  0  0  0
   -5.7256   23.1413  -28.5876 H   0  0  0  0  0  0  0  0  0  0  0  0
   -7.7744   24.2867  -30.7647 H   0  0  0  0  0  0  0  0  0  0  0  0
   -9.0181   22.1658  -31.1565 H   0  0  0  0  0  0  0  0  0  0  0  0
  1  2  1  0
  2  3  1  0
  2  4  1  0
  2  5  1  0
  5  6  1  0
  6  7  1  0
  7  8  2  0
  8  9  1  0
  9 10  2  0
 10 11  1  0
 11 12  1  0
 12 13  1  0
 13 14  2  0
 14 15  1  0
 15 16  2  0
 16 17  1  0
 17 18  2  0
 10 19  1  0
 19 20  2  0
 20  7  1  0
 18 13  1  0
  1 21  1  0
  1 22  1  0
  1 23  1  0
  3 24  1  0
  3 25  1  0
  3 26  1  0
  4 27  1  0
  4 28  1  0
  4 29  1  0
  5 30  1  0
  5 31  1  0
  6 32  1  0
  6 33  1  0
  8 34  1  0
  9 35  1  0
 12 36  1  0
 12 37  1  0
 14 38  1  0
 15 39  1  0
 16 40  1  0
 17 41  1  0
 18 42  1  0
 19 43  1  0
 20 44  1  0
M  CHG  1   5   1
M  END
>  <UniqueID>  (1) 
1

>  <SMILES>  (1) 
CC(C)(C)[NH2+]Cc1ccc(OCc2ccccc2)cc1

>  <Energy>  (1) 
46.25072216385082

>  <Genealogy>  (1) 
CC(C)(C)[NH2+]Cc1ccc(OCc2ccccc2)cc1 (protonated)
CC(C)(C)[NH2+]Cc1ccc(OCc2ccccc2)cc1 (3D coordinates assigned)
CC(C)(C)[NH2+]Cc1ccc(OCc2ccccc2)cc1 (optimized conformer: 46.25072216385082 kcal/mol)

>  <smiles>  (1) 
CC(C)(C)NCc1ccc(OCc2ccccc2)cc1

>  <score_type>  (1) 
oracle

>  <origin>  (1) 
adgpu

>  <m_score__min__energy>  (1) 
-7.46

>  <m_primary>  (1) 
energy

$$$$
1:0
     RDKit          3D

 35 37  0  0  0  0  0  0  0  0999 V2000
   -9.3570   21.5300  -31.9200 C   0  0  0  0  0  0  0  0  0  0  0  0
   -8.3060   22.4600  -31.3180 C   0  0  0  0  0  0  0  0  0  0  0  0
   -7.2630   22.9110  -32.3490 C   0  0  0  0  0  0  0  0  0  0  0  0
   -5.8510   22.7740  -31.8190 C   0  0  0  0  0  0  0  0  0  0  0  0
   -5.2680   23.8900  -31.3050 N   0  0  0  0  0  0  0  0  0  0  0  0
   -3.9950   23.8910  -30.8430 C   0  0  0  0  0  0  0  0  0  0  0  0
   -3.5090   24.9550  -30.3740 O   0  0  0  0  0  0  0  0  0  0  0  0
   -3.2410   22.7150  -30.8970 C   0  0  0  0  0  0  0  0  0  0  0  0
   -1.9150   22.6480  -30.4370 C   0  0  0  0  0  0  0  0  0  0  0  0
   -1.2140   21.4440  -30.5110 C   0  0  0  0  0  0  0  0  0  0  0  0
   -1.8430   20.3180  -31.0430 C   0  0  0  0  0  0  0  0  0  0  0  0
   -3.1260   20.3970  -31.4840 N   0  0  0  0  0  0  0  0  0  0  0  0
   -3.8440   21.5570  -31.4310 C   0  0  0  0  0  0  0  0  0  0  0  0
   -5.1380   21.5970  -31.8850 N   0  0  0  0  0  0  0  0  0  0  0  0
   -5.7320   20.3920  -32.4050 C   0  0  0  0  0  0  0  0  0  0  0  0
   -5.4630   19.9830  -33.7210 C   0  0  0  0  0  0  0  0  0  0  0  0
   -6.0300   18.8060  -34.2190 C   0  0  0  0  0  0  0  0  0  0  0  0
   -6.8560   18.0270  -33.4040 C   0  0  0  0  0  0  0  0  0  0  0  0
   -7.1150   18.4220  -32.0880 C   0  0  0  0  0  0  0  0  0  0  0  0
   -6.5510   19.5990  -31.5860 C   0  0  0  0  0  0  0  0  0  0  0  0
   -9.9155   21.0358  -31.1114 H   0  0  0  0  0  0  0  0  0  0  0  0
  -10.0515   22.1148  -32.5411 H   0  0  0  0  0  0  0  0  0  0  0  0
   -8.8611   20.7695  -32.5411 H   0  0  0  0  0  0  0  0  0  0  0  0
   -8.8115   23.3499  -30.9147 H   0  0  0  0  0  0  0  0  0  0  0  0
   -7.7785   21.9033  -30.5295 H   0  0  0  0  0  0  0  0  0  0  0  0
   -7.3654   22.2924  -33.2528 H   0  0  0  0  0  0  0  0  0  0  0  0
   -7.4419   23.9729  -32.5736 H   0  0  0  0  0  0  0  0  0  0  0  0
   -1.4306   23.5430  -30.0194 H   0  0  0  0  0  0  0  0  0  0  0  0
   -0.1755   21.3831  -30.1534 H   0  0  0  0  0  0  0  0  0  0  0  0
   -1.2991   19.3639  -31.1056 H   0  0  0  0  0  0  0  0  0  0  0  0
   -4.8053   20.5894  -34.3610 H   0  0  0  0  0  0  0  0  0  0  0  0
   -5.8257   18.4927  -35.2535 H   0  0  0  0  0  0  0  0  0  0  0  0
   -7.3027   17.1023  -33.7982 H   0  0  0  0  0  0  0  0  0  0  0  0
   -7.7630   17.8063  -31.4469 H   0  0  0  0  0  0  0  0  0  0  0  0
   -6.7494   19.9039  -30.5479 H   0  0  0  0  0  0  0  0  0  0  0  0
  1  2  1  0
  2  3  1  0
  3  4  1  0
  4  5  2  0
  5  6  1  0
  6  7  2  0
  6  8  1  0
  8  9  2  0
  9 10  1  0
 10 11  2  0
 11 12  1  0
 12 13  2  0
 13 14  1  0
 14 15  1  0
 15 16  2  0
 16 17  1  0
 17 18  2  0
 18 19  1  0
 19 20  2  0
 14  4  1  0
 20 15  1  0
 13  8  1  0
  1 21  1  0
  1 22  1  0
  1 23  1  0
  2 24  1  0
  2 25  1  0
  3 26  1  0
  3 27  1  0
  9 28  1  0
 10 29  1  0
 11 30  1  0
 16 31  1  0
 17 32  1  0
 18 33  1  0
 19 34  1  0
 20 35  1  0
M  END
>  <UniqueID>  (2) 
2

>  <SMILES>  (2) 
CCCc1nc(=O)c2cccnc2n1-c1ccccc1

>  <Energy>  (2) 
47.99498052305357

>  <Genealogy>  (2) 
CCCc1nc(=O)c2cccnc2n1-c1ccccc1 (3D coordinates assigned)
CCCc1nc(=O)c2cccnc2n1-c1ccccc1 (optimized conformer: 47.99498052305357 kcal/mol)

>  <smiles>  (2) 
CCCc1nc(=O)c2cccnc2n1-c1ccccc1

>  <score_type>  (2) 
oracle

>  <origin>  (2) 
adgpu

>  <m_score__min__energy>  (2) 
-7.6100000000000003

>  <m_primary>  (2) 
energy

$$$$
2:0
     RDKit          3D

 36 38  0  0  0  0  0  0  0  0999 V2000
   -5.2680   17.5570  -34.8940 H   0  0  0  0  0  0  0  0  0  0  0  0
   -6.1220   18.0500  -34.5460 N   0  0  0  0  0  0  0  0  0  0  0  0
   -6.0610   19.1510  -33.8620 C   0  0  0  0  0  0  0  0  0  0  0  0
   -4.8230   19.7340  -33.5570 C   0  0  0  0  0  0  0  0  0  0  0  0
   -3.8892   19.2627  -33.8975 H   0  0  0  0  0  0  0  0  0  0  0  0
   -4.7850   20.9170  -32.8180 C   0  0  0  0  0  0  0  0  0  0  0  0
   -3.8177   21.3814  -32.5757 H   0  0  0  0  0  0  0  0  0  0  0  0
   -5.9770   21.5160  -32.3830 C   0  0  0  0  0  0  0  0  0  0  0  0
   -5.9550   22.7780  -31.6050 C   0  0  0  0  0  0  0  0  0  0  0  0
   -7.1630   23.3730  -31.2030 C   0  0  0  0  0  0  0  0  0  0  0  0
   -8.1203   22.9009  -31.4689 H   0  0  0  0  0  0  0  0  0  0  0  0
   -7.1550   24.5600  -30.4680 C   0  0  0  0  0  0  0  0  0  0  0  0
   -8.1054   25.0156  -30.1532 H   0  0  0  0  0  0  0  0  0  0  0  0
   -5.9460   25.1710  -30.1310 C   0  0  0  0  0  0  0  0  0  0  0  0
   -5.9468   26.1036  -29.5476 H   0  0  0  0  0  0  0  0  0  0  0  0
   -4.7270   24.5980  -30.5350 C   0  0  0  0  0  0  0  0  0  0  0  0
   -3.4910   25.1690  -30.1990 O   0  0  0  0  0  0  0  0  0  0  0  0
   -2.6890   24.7840  -29.1160 C   0  0  0  0  0  0  0  0  0  0  0  0
   -1.4500   25.3190  -28.9310 N   0  0  0  0  0  0  0  0  0  0  0  0
   -0.6490   24.9390  -27.9010 C   0  0  0  0  0  0  0  0  0  0  0  0
    0.3382   25.4074  -27.7747 H   0  0  0  0  0  0  0  0  0  0  0  0
   -1.0740   23.9520  -26.9970 C   0  0  0  0  0  0  0  0  0  0  0  0
   -0.2170   23.5610  -25.8210 C   0  0  0  0  0  0  0  0  0  0  0  0
   -0.6000   22.3110  -25.3740 F   0  0  0  0  0  0  0  0  0  0  0  0
   -0.3600   24.4720  -24.7890 F   0  0  0  0  0  0  0  0  0  0  0  0
    1.1180   23.5220  -26.1830 F   0  0  0  0  0  0  0  0  0  0  0  0
   -2.3560   23.4030  -27.1660 C   0  0  0  0  0  0  0  0  0  0  0  0
   -2.7289   22.6512  -26.4548 H   0  0  0  0  0  0  0  0  0  0  0  0
   -3.1580   23.8090  -28.2340 C   0  0  0  0  0  0  0  0  0  0  0  0
   -4.1531   23.3635  -28.3796 H   0  0  0  0  0  0  0  0  0  0  0  0
   -4.7360   23.3950  -31.2550 C   0  0  0  0  0  0  0  0  0  0  0  0
   -3.5520   22.8190  -31.5890 F   0  0  0  0  0  0  0  0  0  0  0  0
   -7.1950   20.9010  -32.7160 C   0  0  0  0  0  0  0  0  0  0  0  0
   -8.1426   21.3559  -32.3918 H   0  0  0  0  0  0  0  0  0  0  0  0
   -7.2120   19.7460  -33.4370 N   0  0  0  0  0  0  0  0  0  0  0  0
   -8.1350   19.3110  -33.6640 H   0  0  0  0  0  0  0  0  0  0  0  0
  1  2  1  0
  2  3  2  0
  3  4  1  0
  4  5  1  0
  4  6  2  0
  6  7  1  0
  6  8  1  0
  8  9  1  0
  9 10  2  0
 10 11  1  0
 10 12  1  0
 12 13  1  0
 12 14  2  0
 14 15  1  0
 14 16  1  0
 16 17  1  0
 17 18  1  0
 18 19  2  0
 19 20  1  0
 20 21  1  0
 20 22  2  0
 22 23  1  0
 23 24  1  0
 23 25  1  0
 23 26  1  0
 22 27  1  0
 27 28  1  0
 27 29  2  0
 29 30  1  0
 16 31  2  0
 31 32  1  0
  8 33  2  0
 33 34  1  0
 33 35  1  0
 35 36  1  0
 35  3  1  0
 31  9  1  0
 29 18  1  0
M  END
>  <UniqueID>  (3) 
3

>  <SMILES>  (3) 
[H]/N=c1\ccc(-c2cccc(Oc3ccc(C(F)(F)F)cn3)c2F)c[nH]1

>  <Energy>  (3) 
51.93524608597867

>  <Genealogy>  (3) 
[H]/N=c1\ccc(-c2cccc(Oc3ccc(C(F)(F)F)cn3)c2F)c[nH]1 (cis-trans isomerization)
[H]/N=c1\ccc(-c2cccc(Oc3ccc(C(F)(F)F)cn3)c2F)c[nH]1 (3D coordinates assigned)
[H]/N=c1\ccc(-c2cccc(Oc3ccc(C(F)(F)F)cn3)c2F)c[nH]1 (optimized conformer: 51.93524608597867 kcal/mol)

>  <smiles>  (3) 
N=c1ccc(-c2cccc(Oc3ccc(C(F)(F)F)cn3)c2F)c[nH]1

>  <score_type>  (3) 
oracle

>  <origin>  (3) 
adgpu

>  <m_score__min__energy>  (3) 
-8.0099999999999998

>  <m_primary>  (3) 
energy

$$$$
3:0
     RDKit          3D

 41 42  0  0  0  0  0  0  0  0999 V2000
   -2.9280   25.1250  -26.5290 C   0  0  0  0  0  0  0  0  0  0  0  0
   -1.5110   25.6780  -26.2650 C   0  0  0  0  0  0  0  0  0  0  0  0
   -1.6090   26.7960  -25.2060 C   0  0  0  0  0  0  0  0  0  0  0  0
   -0.6190   24.5420  -25.7270 C   0  0  0  0  0  0  0  0  0  0  0  0
   -0.8830   26.2230  -27.5390 C   0  0  0  0  0  0  0  0  0  0  0  0
    0.0530   27.0650  -27.4680 O   0  0  0  0  0  0  0  0  0  0  0  0
   -1.2340   25.6980  -28.8220 N   0  0  0  0  0  0  0  0  0  0  0  0
   -1.4830   24.3160  -29.1320 C   0  0  0  0  0  0  0  0  0  0  0  0
   -0.5780   23.3660  -28.6350 C   0  0  0  0  0  0  0  0  0  0  0  0
   -0.7790   22.0010  -28.8650 C   0  0  0  0  0  0  0  0  0  0  0  0
    0.3410   20.8230  -28.2040 Cl  0  0  0  0  0  0  0  0  0  0  0  0
   -1.8740   21.5760  -29.6150 C   0  0  0  0  0  0  0  0  0  0  0  0
   -2.7690   22.5110  -30.1410 C   0  0  0  0  0  0  0  0  0  0  0  0
   -2.5900   23.8870  -29.9060 C   0  0  0  0  0  0  0  0  0  0  0  0
   -3.4930   24.8530  -30.4630 N   0  0  0  0  0  0  0  0  0  0  0  0
   -5.1880   24.9730  -30.1180 S   0  0  0  0  0  0  0  0  0  0  0  0
   -5.7200   26.2420  -30.7200 O   0  0  0  0  0  0  0  0  0  0  0  0
   -5.3830   25.0190  -28.6290 O   0  0  0  0  0  0  0  0  0  0  0  0
   -6.0460   23.6050  -30.8160 C   0  0  0  0  0  0  0  0  0  0  0  0
   -7.2320   23.1400  -30.2300 C   0  0  0  0  0  0  0  0  0  0  0  0
   -7.9130   22.0520  -30.7890 C   0  0  0  0  0  0  0  0  0  0  0  0
   -7.4120   21.4290  -31.9360 C   0  0  0  0  0  0  0  0  0  0  0  0
   -6.2320   21.8900  -32.5240 C   0  0  0  0  0  0  0  0  0  0  0  0
   -5.5500   22.9780  -31.9680 C   0  0  0  0  0  0  0  0  0  0  0  0
   -3.4298   24.9292  -25.5699 H   0  0  0  0  0  0  0  0  0  0  0  0
   -3.5085   25.8626  -27.1026 H   0  0  0  0  0  0  0  0  0  0  0  0
   -2.8554   24.1892  -27.1026 H   0  0  0  0  0  0  0  0  0  0  0  0
   -1.5701   26.3526  -24.2001 H   0  0  0  0  0  0  0  0  0  0  0  0
   -0.7686   27.4946  -25.3315 H   0  0  0  0  0  0  0  0  0  0  0  0
   -2.5581   27.3378  -25.3315 H   0  0  0  0  0  0  0  0  0  0  0  0
   -0.6304   24.5565  -24.6272 H   0  0  0  0  0  0  0  0  0  0  0  0
   -1.0014   23.5747  -26.0849 H   0  0  0  0  0  0  0  0  0  0  0  0
    0.4114   24.6841  -26.0849 H   0  0  0  0  0  0  0  0  0  0  0  0
    0.2982   23.6979  -28.0588 H   0  0  0  0  0  0  0  0  0  0  0  0
   -2.0339   20.5024  -29.7932 H   0  0  0  0  0  0  0  0  0  0  0  0
   -3.6221   22.1682  -30.7449 H   0  0  0  0  0  0  0  0  0  0  0  0
   -7.6282   23.6312  -29.3290 H   0  0  0  0  0  0  0  0  0  0  0  0
   -8.8418   21.6875  -30.3260 H   0  0  0  0  0  0  0  0  0  0  0  0
   -7.9478   20.5749  -32.3758 H   0  0  0  0  0  0  0  0  0  0  0  0
   -5.8383   21.3972  -33.4252 H   0  0  0  0  0  0  0  0  0  0  0  0
   -4.6232   23.3421  -32.4354 H   0  0  0  0  0  0  0  0  0  0  0  0
  1  2  1  0
  2  3  1  0
  2  4  1  0
  2  5  1  0
  5  6  2  0
  5  7  1  0
  7  8  1  0
  8  9  2  0
  9 10  1  0
 10 11  1  0
 10 12  2  0
 12 13  1  0
 13 14  2  0
 14 15  1  0
 15 16  1  0
 16 17  2  0
 16 18  2  0
 16 19  1  0
 19 20  2  0
 20 21  1  0
 21 22  2  0
 22 23  1  0
 23 24  2  0
 14  8  1  0
 24 19  1  0
  1 25  1  0
  1 26  1  0
  1 27  1  0
  3 28  1  0
  3 29  1  0
  3 30  1  0
  4 31  1  0
  4 32  1  0
  4 33  1  0
  9 34  1  0
 12 35  1  0
 13 36  1  0
 20 37  1  0
 21 38  1  0
 22 39  1  0
 23 40  1  0
 24 41  1  0
M  CHG  2   7  -1  15  -1
M  END
>  <UniqueID>  (4) 
4

>  <SMILES>  (4) 
CC(C)(C)C(=O)[N-]c1cc(Cl)ccc1[N-]S(=O)(=O)c1ccccc1

>  <Energy>  (4) 
50.61078353120885

>  <Genealogy>  (4) 
CC(C)(C)C(=O)[N-]c1cc(Cl)ccc1[N-]S(=O)(=O)c1ccccc1 (protonated)
CC(C)(C)C(=O)[N-]c1cc(Cl)ccc1[N-]S(=O)(=O)c1ccccc1 (3D coordinates assigned)
CC(C)(C)C(=O)[N-]c1cc(Cl)ccc1[N-]S(=O)(=O)c1ccccc1 (optimized conformer: 50.61078353120885 kcal/mol)

>  <smiles>  (4) 
CC(C)(C)C(=O)Nc1cc(Cl)ccc1NS(=O)(=O)c1ccccc1

>  <score_type>  (4) 
oracle

>  <origin>  (4) 
adgpu

>  <m_score__min__energy>  (4) 
-11.039999999999999

>  <m_primary>  (4) 
energy

$$$$
4:0
     RDKit          3D

 51 52  0  0  0  0  0  0  0  0999 V2000
   -3.9620   17.1610  -34.8790 C   0  0  0  0  0  0  0  0  0  0  0  0
   -5.3000   16.6920  -34.3100 C   0  0  0  0  0  0  0  0  0  0  0  0
   -5.4960   17.0640  -32.8570 C   0  0  0  0  0  0  0  0  0  0  0  0
   -5.1630   16.2860  -31.9710 O   0  0  0  0  0  0  0  0  0  0  0  0
   -6.0990   18.3380  -32.5150 N   0  0  0  0  0  0  0  0  0  0  0  0
   -7.2360   18.1370  -31.5820 C   0  0  0  0  0  0  0  0  0  0  0  0
   -8.2590   19.2970  -31.5940 C   0  0  0  0  0  0  0  0  0  0  0  0
   -7.6840   20.5380  -32.1350 N   0  0  0  0  0  0  0  0  0  0  0  0
   -8.1000   21.8090  -31.5920 C   0  0  0  0  0  0  0  0  0  0  0  0
   -9.1550   21.8850  -30.9060 O   0  0  0  0  0  0  0  0  0  0  0  0
   -7.3070   23.0640  -31.8290 C   0  0  0  0  0  0  0  0  0  0  0  0
   -5.9090   22.9030  -31.3840 N   0  0  0  0  0  0  0  0  0  0  0  0
   -4.9620   22.7910  -32.5170 C   0  0  0  0  0  0  0  0  0  0  0  0
   -3.9130   21.7080  -32.3430 C   0  0  0  0  0  0  0  0  0  0  0  0
   -3.3500   21.4570  -31.0800 C   0  0  0  0  0  0  0  0  0  0  0  0
   -2.3890   20.4530  -30.9200 C   0  0  0  0  0  0  0  0  0  0  0  0
   -1.9710   19.7020  -32.0200 C   0  0  0  0  0  0  0  0  0  0  0  0
   -2.5070   19.9580  -33.2840 C   0  0  0  0  0  0  0  0  0  0  0  0
   -3.4690   20.9590  -33.4490 C   0  0  0  0  0  0  0  0  0  0  0  0
   -5.4240   24.1420  -30.2400 S   0  0  0  0  0  0  0  0  0  0  0  0
   -6.8330   25.1070  -29.7310 C   0  0  0  0  0  0  0  0  0  0  0  0
   -4.8480   23.5030  -29.0070 O   0  0  0  0  0  0  0  0  0  0  0  0
   -4.3950   25.0520  -30.8510 O   0  0  0  0  0  0  0  0  0  0  0  0
   -6.9030   20.4920  -33.3800 C   0  0  0  0  0  0  0  0  0  0  0  0
   -6.5130   19.0540  -33.7360 C   0  0  0  0  0  0  0  0  0  0  0  0
   -3.2764   17.4013  -34.0531 H   0  0  0  0  0  0  0  0  0  0  0  0
   -3.5260   16.3621  -35.4968 H   0  0  0  0  0  0  0  0  0  0  0  0
   -4.1202   18.0573  -35.4968 H   0  0  0  0  0  0  0  0  0  0  0  0
   -6.1091   17.1481  -34.8993 H   0  0  0  0  0  0  0  0  0  0  0  0
   -5.3121   15.5937  -34.3695 H   0  0  0  0  0  0  0  0  0  0  0  0
   -5.3800   18.9210  -32.0240 H   0  0  0  0  0  0  0  0  0  0  0  0
   -7.7575   17.2104  -31.8638 H   0  0  0  0  0  0  0  0  0  0  0  0
   -6.8155   18.0881  -30.5667 H   0  0  0  0  0  0  0  0  0  0  0  0
   -9.1189   19.0048  -32.2146 H   0  0  0  0  0  0  0  0  0  0  0  0
   -8.5633   19.4903  -30.5547 H   0  0  0  0  0  0  0  0  0  0  0  0
   -7.3169   23.2973  -32.9039 H   0  0  0  0  0  0  0  0  0  0  0  0
   -7.7651   23.8803  -31.2512 H   0  0  0  0  0  0  0  0  0  0  0  0
   -5.5378   22.5710  -33.4281 H   0  0  0  0  0  0  0  0  0  0  0  0
   -4.4231   23.7481  -32.5758 H   0  0  0  0  0  0  0  0  0  0  0  0
   -3.6669   22.0537  -30.2119 H   0  0  0  0  0  0  0  0  0  0  0  0
   -1.9620   20.2550  -29.9258 H   0  0  0  0  0  0  0  0  0  0  0  0
   -1.2197   18.9089  -31.8913 H   0  0  0  0  0  0  0  0  0  0  0  0
   -2.1716   19.3708  -34.1516 H   0  0  0  0  0  0  0  0  0  0  0  0
   -3.8811   21.1623  -34.4484 H   0  0  0  0  0  0  0  0  0  0  0  0
   -6.8785   25.1382  -28.6324 H   0  0  0  0  0  0  0  0  0  0  0  0
   -6.7376   26.1303  -30.1232 H   0  0  0  0  0  0  0  0  0  0  0  0
   -7.7526   24.6482  -30.1232 H   0  0  0  0  0  0  0  0  0  0  0  0
   -7.5062   20.9132  -34.1978 H   0  0  0  0  0  0  0  0  0  0  0  0
   -5.9828   21.0772  -33.2359 H   0  0  0  0  0  0  0  0  0  0  0  0
   -7.3757   18.5414  -34.1865 H   0  0  0  0  0  0  0  0  0  0  0  0
   -5.6784   19.0681  -34.4524 H   0  0  0  0  0  0  0  0  0  0  0  0
  1  2  1  0
  2  3  1  0
  3  4  2  0
  3  5  1  0
  5  6  1  0
  6  7  1  0
  7  8  1  0
  8  9  1  0
  9 10  2  0
  9 11  1  0
 11 12  1  0
 12 13  1  0
 13 14  1  0
 14 15  2  0
 15 16  1  0
 16 17  2  0
 17 18  1  0
 18 19  2  0
 12 20  1  0
 20 21  1  0
 20 22  2  0
 20 23  2  0
  8 24  1  0
 24 25  1  0
 25  5  1  0
 19 14  1  0
  1 26  1  0
  1 27  1  0
  1 28  1  0
  2 29  1  0
  2 30  1  0
  5 31  1  0
  6 32  1  0
  6 33  1  0
  7 34  1  0
  7 35  1  0
 11 36  1  0
 11 37  1  0
 13 38  1  0
 13 39  1  0
 15 40  1  0
 16 41  1  0
 17 42  1  0
 18 43  1  0
 19 44  1  0
 21 45  1  0
 21 46  1  0
 21 47  1  0
 24 48  1  0
 24 49  1  0
 25 50  1  0
 25 51  1  0
M  CHG  1   5   1
M  END
>  <UniqueID>  (5) 
5

>  <SMILES>  (5) 
CCC(=O)[NH+]1CCN(C(=O)CN(Cc2ccccc2)S(C)(=O)=O)CC1

>  <Energy>  (5) 
51.19853567657483

>  <Genealogy>  (5) 
CCC(=O)[NH+]1CCN(C(=O)CN(Cc2ccccc2)S(C)(=O)=O)CC1 (protonated)
CCC(=O)[NH+]1CCN(C(=O)CN(Cc2ccccc2)S(C)(=O)=O)CC1 (3D coordinates assigned)
CCC(=O)[NH+]1CCN(C(=O)CN(Cc2ccccc2)S(C)(=O)=O)CC1 (nonaromatic ring conformer: 51.19853567657483 kcal/mol)

>  <smiles>  (5) 
CCC(=O)N1CCN(C(=O)CN(Cc2ccccc2)S(C)(=O)=O)CC1

>  <score_type>  (5) 
oracle

>  <origin>  (5) 
adgpu

>  <m_score__min__energy>  (5) 
-8.4600000000000009

>  <m_primary>  (5) 
energy

$$$$
5:0
     RDKit          3D

 30 32  0  0  0  0  0  0  0  0999 V2000
   -5.3640   13.1620  -33.8820 C   0  0  0  0  0  0  0  0  0  0  0  0
   -5.6040   14.6120  -33.5790 C   0  0  0  0  0  0  0  0  0  0  0  0
   -6.6130   15.3170  -34.2500 C   0  0  0  0  0  0  0  0  0  0  0  0
   -6.8620   16.6580  -33.9420 C   0  0  0  0  0  0  0  0  0  0  0  0
   -6.1140   17.3100  -32.9470 C   0  0  0  0  0  0  0  0  0  0  0  0
   -6.3780   18.7280  -32.6200 C   0  0  0  0  0  0  0  0  0  0  0  0
   -7.6000   19.2920  -32.6580 N   0  0  0  0  0  0  0  0  0  0  0  0
   -7.4460   20.5580  -32.3090 N   0  0  0  0  0  0  0  0  0  0  0  0
   -6.1340   20.7350  -32.0650 C   0  0  0  0  0  0  0  0  0  0  0  0
   -5.5400   22.0220  -31.6430 C   0  0  0  0  0  0  0  0  0  0  0  0
   -4.1920   22.0890  -31.2450 C   0  0  0  0  0  0  0  0  0  0  0  0
   -3.6320   23.3070  -30.8460 C   0  0  0  0  0  0  0  0  0  0  0  0
   -4.4100   24.4690  -30.8420 C   0  0  0  0  0  0  0  0  0  0  0  0
   -3.8520   25.6770  -30.4450 O   0  0  0  0  0  0  0  0  0  0  0  0
   -5.7500   24.4120  -31.2350 C   0  0  0  0  0  0  0  0  0  0  0  0
   -6.3140   23.1970  -31.6350 C   0  0  0  0  0  0  0  0  0  0  0  0
   -5.4220   19.6050  -32.2510 N   0  0  0  0  0  0  0  0  0  0  0  0
   -5.1170   16.5950  -32.2630 C   0  0  0  0  0  0  0  0  0  0  0  0
   -4.8680   15.2540  -32.5720 C   0  0  0  0  0  0  0  0  0  0  0  0
   -5.2712   12.6011  -32.9403 H   0  0  0  0  0  0  0  0  0  0  0  0
   -6.2085   12.7643  -34.4639 H   0  0  0  0  0  0  0  0  0  0  0  0
   -4.4364   13.0577  -34.4639 H   0  0  0  0  0  0  0  0  0  0  0  0
   -7.2118   14.8127  -35.0227 H   0  0  0  0  0  0  0  0  0  0  0  0
   -7.6483   17.2060  -34.4819 H   0  0  0  0  0  0  0  0  0  0  0  0
   -3.5751   21.1783  -31.2477 H   0  0  0  0  0  0  0  0  0  0  0  0
   -2.5778   23.3509  -30.5348 H   0  0  0  0  0  0  0  0  0  0  0  0
   -6.3625   25.3257  -31.2296 H   0  0  0  0  0  0  0  0  0  0  0  0
   -7.3687   23.1594  -31.9452 H   0  0  0  0  0  0  0  0  0  0  0  0
   -4.5280   17.0933  -31.4789 H   0  0  0  0  0  0  0  0  0  0  0  0
   -4.0919   14.7004  -32.0232 H   0  0  0  0  0  0  0  0  0  0  0  0
  1  2  1  0
  2  3  2  0
  3  4  1  0
  4  5  2  0
  5  6  1  0
  6  7  2  0
  7  8  1  0
  8  9  1  0
  9 10  1  0
 10 11  2  0
 11 12  1  0
 12 13  2  0
 13 14  1  0
 13 15  1  0
 15 16  2  0
  9 17  2  0
  5 18  1  0
 18 19  2  0
 19  2  1  0
 17  6  1  0
 16 10  1  0
  1 20  1  0
  1 21  1  0
  1 22  1  0
  3 23  1  0
  4 24  1  0
 11 25  1  0
 12 26  1  0
 15 27  1  0
 16 28  1  0
 18 29  1  0
 19 30  1  0
M  CHG  2   8  -1  14  -1
M  END
>  <UniqueID>  (6) 
6

>  <SMILES>  (6) 
Cc1ccc(-c2n[n-]c(-c3ccc([O-])cc3)n2)cc1

>  <Energy>  (6) 
64.91141922449097

>  <Genealogy>  (6) 
Cc1ccc(-c2n[n-]c(-c3ccc([O-])cc3)n2)cc1 (protonated)
Cc1ccc(-c2n[n-]c(-c3ccc([O-])cc3)n2)cc1 (3D coordinates assigned)
Cc1ccc(-c2n[n-]c(-c3ccc([O-])cc3)n2)cc1 (optimized conformer: 64.91141922449097 kcal/mol)

>  <smiles>  (6) 
Cc1ccc(-c2n[nH]c(-c3ccc(O)cc3)n2)cc1

>  <score_type>  (6) 
oracle

>  <origin>  (6) 
adgpu

>  <m_score__min__energy>  (6) 
-9.5299999999999994

>  <m_primary>  (6) 
energy

$$$$
6:0
     RDKit          3D

 52 55  0  0  0  0  0  0  0  0999 V2000
   -4.9780   24.5020  -28.5920 N   0  0  0  0  0  0  0  0  0  0  0  0
   -5.0080   24.5340  -30.3200 S   0  0  0  0  0  0  0  0  0  0  0  0
   -6.2970   25.1480  -30.7890 O   0  0  0  0  0  0  0  0  0  0  0  0
   -3.8660   25.3720  -30.8250 O   0  0  0  0  0  0  0  0  0  0  0  0
   -4.8660   22.8950  -30.9450 C   0  0  0  0  0  0  0  0  0  0  0  0
   -4.0320   21.9660  -30.3060 C   0  0  0  0  0  0  0  0  0  0  0  0
   -3.9290   20.6610  -30.7950 C   0  0  0  0  0  0  0  0  0  0  0  0
   -4.6660   20.2680  -31.9210 C   0  0  0  0  0  0  0  0  0  0  0  0
   -4.5590   18.9280  -32.4270 N   0  0  0  0  0  0  0  0  0  0  0  0
   -5.4570   17.9270  -32.3100 C   0  0  0  0  0  0  0  0  0  0  0  0
   -6.7590   18.0000  -31.5600 C   0  0  0  0  0  0  0  0  0  0  0  0
   -7.9690   18.2080  -32.4870 C   0  0  0  0  0  0  0  0  0  0  0  0
   -8.5170   19.6420  -32.4740 C   0  0  0  0  0  0  0  0  0  0  0  0
   -9.8820   19.6400  -32.6990 F   0  0  0  0  0  0  0  0  0  0  0  0
   -8.2510   20.2510  -31.2610 F   0  0  0  0  0  0  0  0  0  0  0  0
   -7.9060   20.3690  -33.4800 F   0  0  0  0  0  0  0  0  0  0  0  0
   -5.1090   16.8670  -33.0660 N   0  0  0  0  0  0  0  0  0  0  0  0
   -3.9760   17.1800  -33.6780 N   0  0  0  0  0  0  0  0  0  0  0  0
   -3.6460   18.4280  -33.2920 C   0  0  0  0  0  0  0  0  0  0  0  0
   -2.4370   19.1280  -33.7790 C   0  0  0  0  0  0  0  0  0  0  0  0
   -2.3420   20.5220  -33.6510 C   0  0  0  0  0  0  0  0  0  0  0  0
   -1.2080   21.1990  -34.1070 C   0  0  0  0  0  0  0  0  0  0  0  0
   -0.1510   20.4970  -34.7120 C   0  0  0  0  0  0  0  0  0  0  0  0
    1.0560   21.2160  -35.1950 C   0  0  0  0  0  0  0  0  0  0  0  0
    2.3030   20.5650  -35.2470 C   0  0  0  0  0  0  0  0  0  0  0  0
    3.4370   21.2420  -35.7030 C   0  0  0  0  0  0  0  0  0  0  0  0
    3.3420   22.5740  -36.1100 C   0  0  0  0  0  0  0  0  0  0  0  0
    2.1110   23.2330  -36.0640 C   0  0  0  0  0  0  0  0  0  0  0  0
    1.9930   24.9090  -36.5700 Cl  0  0  0  0  0  0  0  0  0  0  0  0
    0.9720   22.5590  -35.6080 C   0  0  0  0  0  0  0  0  0  0  0  0
   -0.2590   19.1030  -34.8600 C   0  0  0  0  0  0  0  0  0  0  0  0
   -1.3940   18.4260  -34.4030 C   0  0  0  0  0  0  0  0  0  0  0  0
   -5.5030   21.1970  -32.5570 C   0  0  0  0  0  0  0  0  0  0  0  0
   -5.6050   22.5030  -32.0690 C   0  0  0  0  0  0  0  0  0  0  0  0
   -5.9340   24.2230  -28.2760 H   0  0  0  0  0  0  0  0  0  0  0  0
   -4.8300   25.4850  -28.2720 H   0  0  0  0  0  0  0  0  0  0  0  0
   -3.4572   22.2655  -29.4172 H   0  0  0  0  0  0  0  0  0  0  0  0
   -3.2669   19.9391  -30.2944 H   0  0  0  0  0  0  0  0  0  0  0  0
   -6.8984   17.0604  -31.0053 H   0  0  0  0  0  0  0  0  0  0  0  0
   -6.7050   18.8673  -30.8856 H   0  0  0  0  0  0  0  0  0  0  0  0
   -7.6652   17.9616  -33.5151 H   0  0  0  0  0  0  0  0  0  0  0  0
   -8.7726   17.5534  -32.1185 H   0  0  0  0  0  0  0  0  0  0  0  0
   -3.1657   21.0856  -33.1886 H   0  0  0  0  0  0  0  0  0  0  0  0
   -1.1418   22.2909  -33.9916 H   0  0  0  0  0  0  0  0  0  0  0  0
    2.3853   19.5160  -34.9264 H   0  0  0  0  0  0  0  0  0  0  0  0
    4.4068   20.7243  -35.7414 H   0  0  0  0  0  0  0  0  0  0  0  0
    4.2368   23.1049  -36.4671 H   0  0  0  0  0  0  0  0  0  0  0  0
    0.0051   23.0823  -35.5722 H   0  0  0  0  0  0  0  0  0  0  0  0
    0.5558   18.5404  -35.3391 H   0  0  0  0  0  0  0  0  0  0  0  0
   -1.4699   17.3364  -34.5334 H   0  0  0  0  0  0  0  0  0  0  0  0
   -6.0813   20.8966  -33.4432 H   0  0  0  0  0  0  0  0  0  0  0  0
   -6.2674   23.2250  -32.5689 H   0  0  0  0  0  0  0  0  0  0  0  0
  1  2  1  0
  2  3  2  0
  2  4  2  0
  2  5  1  0
  5  6  2  0
  6  7  1  0
  7  8  2  0
  8  9  1  0
  9 10  1  0
 10 11  1  0
 11 12  1  0
 12 13  1  0
 13 14  1  0
 13 15  1  0
 13 16  1  0
 10 17  2  0
 17 18  1  0
 18 19  2  0
 19 20  1  0
 20 21  2  0
 21 22  1  0
 22 23  2  0
 23 24  1  0
 24 25  2  0
 25 26  1  0
 26 27  2  0
 27 28  1  0
 28 29  1  0
 28 30  2  0
 23 31  1  0
 31 32  2  0
  8 33  1  0
 33 34  2  0
 34  5  1  0
 19  9  1  0
 32 20  1  0
 30 24  1  0
  1 35  1  0
  1 36  1  0
  6 37  1  0
  7 38  1  0
 11 39  1  0
 11 40  1  0
 12 41  1  0
 12 42  1  0
 21 43  1  0
 22 44  1  0
 25 45  1  0
 26 46  1  0
 27 47  1  0
 30 48  1  0
 31 49  1  0
 32 50  1  0
 33 51  1  0
 34 52  1  0
M  END
>  <UniqueID>  (7) 
7

>  <SMILES>  (7) 
NS(=O)(=O)c1ccc(-n2c(CCC(F)(F)F)nnc2-c2ccc(-c3cccc(Cl)c3)cc2)cc1

>  <Energy>  (7) 
99.60900031473099

>  <Genealogy>  (7) 
NS(=O)(=O)c1ccc(-n2c(CCC(F)(F)F)nnc2-c2ccc(-c3cccc(Cl)c3)cc2)cc1 (3D coordinates assigned)
NS(=O)(=O)c1ccc(-n2c(CCC(F)(F)F)nnc2-c2ccc(-c3cccc(Cl)c3)cc2)cc1 (optimized conformer: 99.60900031473099 kcal/mol)

>  <smiles>  (7) 
NS(=O)(=O)c1ccc(-n2c(CCC(F)(F)F)nnc2-c2ccc(-c3cccc(Cl)c3)cc2)cc1

>  <score_type>  (7) 
oracle

>  <origin>  (7) 
adgpu

>  <m_score__min__energy>  (7) 
-10.31

>  <m_primary>  (7) 
energy

$$$$
7:0
     RDKit          3D

 41 45  0  0  0  0  0  0  0  0999 V2000
    1.7530   20.1720  -33.8210 Cl  0  0  0  0  0  0  0  0  0  0  0  0
    0.2110   20.6940  -33.1670 C   0  0  0  0  0  0  0  0  0  0  0  0
   -0.8570   20.9710  -34.0270 C   0  0  0  0  0  0  0  0  0  0  0  0
   -2.0860   21.3850  -33.5070 C   0  0  0  0  0  0  0  0  0  0  0  0
   -2.2520   21.5440  -32.1210 C   0  0  0  0  0  0  0  0  0  0  0  0
   -3.5520   21.9560  -31.5560 C   0  0  0  0  0  0  0  0  0  0  0  0
   -4.7290   21.4890  -32.0190 N   0  0  0  0  0  0  0  0  0  0  0  0
   -5.7040   22.0810  -31.3440 N   0  0  0  0  0  0  0  0  0  0  0  0
   -7.1040   21.8210  -31.5800 C   0  0  0  0  0  0  0  0  0  0  0  0
   -7.5700   20.4940  -31.6500 C   0  0  0  0  0  0  0  0  0  0  0  0
   -8.9230   20.2260  -31.8770 C   0  0  0  0  0  0  0  0  0  0  0  0
   -9.8290   21.2770  -32.0310 C   0  0  0  0  0  0  0  0  0  0  0  0
   -9.3830   22.5980  -31.9580 C   0  0  0  0  0  0  0  0  0  0  0  0
   -8.0310   22.8720  -31.7340 C   0  0  0  0  0  0  0  0  0  0  0  0
   -5.1690   22.9340  -30.4430 C   0  0  0  0  0  0  0  0  0  0  0  0
   -3.7950   22.8750  -30.5420 C   0  0  0  0  0  0  0  0  0  0  0  0
   -2.8390   23.5650  -29.6570 C   0  0  0  0  0  0  0  0  0  0  0  0
   -1.9340   22.8920  -28.8980 N   0  0  0  0  0  0  0  0  0  0  0  0
   -1.2620   23.8840  -28.2950 C   0  0  0  0  0  0  0  0  0  0  0  0
   -0.2100   23.7750  -27.3910 C   0  0  0  0  0  0  0  0  0  0  0  0
    0.3440   24.9680  -26.8880 C   0  0  0  0  0  0  0  0  0  0  0  0
   -0.1630   26.2210  -27.3010 C   0  0  0  0  0  0  0  0  0  0  0  0
   -1.2280   26.2910  -28.2190 C   0  0  0  0  0  0  0  0  0  0  0  0
   -1.7510   25.0900  -28.6930 C   0  0  0  0  0  0  0  0  0  0  0  0
   -2.7520   24.9180  -29.5670 N   0  0  0  0  0  0  0  0  0  0  0  0
   -1.1840   21.2410  -31.2630 C   0  0  0  0  0  0  0  0  0  0  0  0
    0.0450   20.8260  -31.7850 C   0  0  0  0  0  0  0  0  0  0  0  0
   -0.7291   20.8627  -35.1142 H   0  0  0  0  0  0  0  0  0  0  0  0
   -2.9275   21.5874  -34.1859 H   0  0  0  0  0  0  0  0  0  0  0  0
   -6.8629   19.6607  -31.5249 H   0  0  0  0  0  0  0  0  0  0  0  0
   -9.2745   19.1852  -31.9344 H   0  0  0  0  0  0  0  0  0  0  0  0
  -10.8934   21.0645  -32.2097 H   0  0  0  0  0  0  0  0  0  0  0  0
  -10.0978   23.4255  -32.0771 H   0  0  0  0  0  0  0  0  0  0  0  0
   -7.6876   23.9155  -31.6774 H   0  0  0  0  0  0  0  0  0  0  0  0
   -5.7353   23.5697  -29.7465 H   0  0  0  0  0  0  0  0  0  0  0  0
    0.1751   22.7925  -27.0804 H   0  0  0  0  0  0  0  0  0  0  0  0
    1.1759   24.9244  -26.1697 H   0  0  0  0  0  0  0  0  0  0  0  0
    0.2772   27.1471  -26.9027 H   0  0  0  0  0  0  0  0  0  0  0  0
   -1.6325   27.2589  -28.5500 H   0  0  0  0  0  0  0  0  0  0  0  0
   -1.3142   21.3304  -30.1744 H   0  0  0  0  0  0  0  0  0  0  0  0
    0.8824   20.6031  -31.1074 H   0  0  0  0  0  0  0  0  0  0  0  0
  1  2  1  0
  2  3  2  0
  3  4  1  0
  4  5  2  0
  5  6  1  0
  6  7  2  0
  7  8  1  0
  8  9  1  0
  9 10  2  0
 10 11  1  0
 11 12  2  0
 12 13  1  0
 13 14  2  0
  8 15  1  0
 15 16  2  0
 16 17  1  0
 17 18  2  0
 18 19  1  0
 19 20  2  0
 20 21  1  0
 21 22  2  0
 22 23  1  0
 23 24  2  0
 24 25  1  0
  5 26  1  0
 26 27  2  0
 27  2  1  0
 16  6  1  0
 25 17  1  0
 14  9  1  0
 24 19  1  0
  3 28  1  0
  4 29  1  0
 10 30  1  0
 11 31  1  0
 12 32  1  0
 13 33  1  0
 14 34  1  0
 15 35  1  0
 20 36  1  0
 21 37  1  0
 22 38  1  0
 23 39  1  0
 26 40  1  0
 27 41  1  0
M  CHG  1  25  -1
M  END
>  <UniqueID>  (8) 
8

>  <SMILES>  (8) 
Clc1ccc(-c2nn(-c3ccccc3)cc2-c2nc3ccccc3[n-]2)cc1

>  <Energy>  (8) 
120.64148041674682

>  <Genealogy>  (8) 
Clc1ccc(-c2nn(-c3ccccc3)cc2-c2nc3ccccc3[n-]2)cc1 (protonated)
Clc1ccc(-c2nn(-c3ccccc3)cc2-c2nc3ccccc3[n-]2)cc1 (3D coordinates assigned)
Clc1ccc(-c2nn(-c3ccccc3)cc2-c2nc3ccccc3[n-]2)cc1 (optimized conformer: 120.64148041674682 kcal/mol)

>  <smiles>  (8) 
Clc1ccc(-c2nn(-c3ccccc3)cc2-c2nc3ccccc3[nH]2)cc1

>  <score_type>  (8) 
oracle

>  <origin>  (8) 
adgpu

>  <m_score__min__energy>  (8) 
-9.4000000000000004

>  <m_primary>  (8) 
energy

$$$$
8:0
     RDKit          3D

 45 47  0  0  0  0  0  0  0  0999 V2000
   -1.1710   26.3200  -28.2030 C   0  0  0  0  0  0  0  0  0  0  0  0
   -1.9890   25.4090  -28.9310 O   0  0  0  0  0  0  0  0  0  0  0  0
   -2.2050   24.0690  -28.5700 C   0  0  0  0  0  0  0  0  0  0  0  0
   -1.1370   23.1610  -28.4220 C   0  0  0  0  0  0  0  0  0  0  0  0
   -1.3800   21.8360  -28.0550 C   0  0  0  0  0  0  0  0  0  0  0  0
   -2.6860   21.4010  -27.8360 C   0  0  0  0  0  0  0  0  0  0  0  0
   -3.7540   22.2870  -27.9830 C   0  0  0  0  0  0  0  0  0  0  0  0
   -3.5270   23.6300  -28.3420 C   0  0  0  0  0  0  0  0  0  0  0  0
   -4.6230   24.5530  -28.4890 N   0  0  0  0  0  0  0  0  0  0  0  0
   -5.3060   24.9930  -30.0220 S   0  0  0  0  0  0  0  0  0  0  0  0
   -4.2510   25.6650  -30.8570 O   0  0  0  0  0  0  0  0  0  0  0  0
   -6.4410   25.9510  -29.8050 O   0  0  0  0  0  0  0  0  0  0  0  0
   -5.9270   23.5570  -30.8310 C   0  0  0  0  0  0  0  0  0  0  0  0
   -5.1290   22.8870  -31.7620 C   0  0  0  0  0  0  0  0  0  0  0  0
   -5.6130   21.7560  -32.4220 C   0  0  0  0  0  0  0  0  0  0  0  0
   -6.9040   21.2640  -32.1500 C   0  0  0  0  0  0  0  0  0  0  0  0
   -7.7270   21.9760  -31.2500 C   0  0  0  0  0  0  0  0  0  0  0  0
   -7.2250   23.0990  -30.5750 C   0  0  0  0  0  0  0  0  0  0  0  0
   -9.1330   21.5130  -30.9950 C   0  0  0  0  0  0  0  0  0  0  0  0
   -9.7160   20.8880  -32.2630 C   0  0  0  0  0  0  0  0  0  0  0  0
   -8.8440   19.7200  -32.7290 C   0  0  0  0  0  0  0  0  0  0  0  0
   -7.4210   20.0860  -32.8230 N   0  0  0  0  0  0  0  0  0  0  0  0
   -6.5420   19.1100  -33.4120 C   0  0  0  0  0  0  0  0  0  0  0  0
   -6.1800   17.8520  -32.6840 C   0  0  0  0  0  0  0  0  0  0  0  0
   -6.1080   19.2860  -34.5810 O   0  0  0  0  0  0  0  0  0  0  0  0
   -1.3146   26.1601  -27.1242 H   0  0  0  0  0  0  0  0  0  0  0  0
   -0.1151   26.1516  -28.4613 H   0  0  0  0  0  0  0  0  0  0  0  0
   -1.4517   27.3517  -28.4613 H   0  0  0  0  0  0  0  0  0  0  0  0
   -0.1048   23.4987  -28.5969 H   0  0  0  0  0  0  0  0  0  0  0  0
   -0.5403   21.1350  -27.9386 H   0  0  0  0  0  0  0  0  0  0  0  0
   -2.8752   20.3568  -27.5466 H   0  0  0  0  0  0  0  0  0  0  0  0
   -4.7823   21.9335  -27.8170 H   0  0  0  0  0  0  0  0  0  0  0  0
   -5.1190   24.9050  -27.6400 H   0  0  0  0  0  0  0  0  0  0  0  0
   -4.1139   23.2527  -31.9760 H   0  0  0  0  0  0  0  0  0  0  0  0
   -4.9797   21.2443  -33.1617 H   0  0  0  0  0  0  0  0  0  0  0  0
   -7.8548   23.6225  -29.8406 H   0  0  0  0  0  0  0  0  0  0  0  0
   -9.1295   20.7649  -30.1886 H   0  0  0  0  0  0  0  0  0  0  0  0
   -9.7494   22.3754  -30.7013 H   0  0  0  0  0  0  0  0  0  0  0  0
  -10.7316   20.5213  -32.0529 H   0  0  0  0  0  0  0  0  0  0  0  0
   -9.7468   21.6499  -33.0558 H   0  0  0  0  0  0  0  0  0  0  0  0
   -8.9495   18.8922  -32.0123 H   0  0  0  0  0  0  0  0  0  0  0  0
   -9.1828   19.4279  -33.7339 H   0  0  0  0  0  0  0  0  0  0  0  0
   -6.2308   18.0284  -31.5994 H   0  0  0  0  0  0  0  0  0  0  0  0
   -6.8848   17.0535  -32.9590 H   0  0  0  0  0  0  0  0  0  0  0  0
   -5.1586   17.5502  -32.9590 H   0  0  0  0  0  0  0  0  0  0  0  0
  1  2  1  0
  2  3  1  0
  3  4  2  0
  4  5  1  0
  5  6  2  0
  6  7  1  0
  7  8  2  0
  8  9  1  0
  9 10  1  0
 10 11  2  0
 10 12  2  0
 10 13  1  0
 13 14  2  0
 14 15  1  0
 15 16  2  0
 16 17  1  0
 17 18  2  0
 17 19  1  0
 19 20  1  0
 20 21  1  0
 21 22  1  0
 22 23  1  0
 23 24  1  0
 23 25  2  0
  8  3  1  0
 18 13  1  0
 22 16  1  0
  1 26  1  0
  1 27  1  0
  1 28  1  0
  4 29  1  0
  5 30  1  0
  6 31  1  0
  7 32  1  0
  9 33  1  0
 14 34  1  0
 15 35  1  0
 18 36  1  0
 19 37  1  0
 19 38  1  0
 20 39  1  0
 20 40  1  0
 21 41  1  0
 21 42  1  0
 24 43  1  0
 24 44  1  0
 24 45  1  0
M  END
>  <UniqueID>  (9) 
9

>  <SMILES>  (9) 
COc1ccccc1NS(=O)(=O)c1ccc2c(c1)CCCN2C(C)=O

>  <Energy>  (9) 
54.70542418442249

>  <Genealogy>  (9) 
COc1ccccc1NS(=O)(=O)c1ccc2c(c1)CCCN2C(C)=O (3D coordinates assigned)
COc1ccccc1NS(=O)(=O)c1ccc2c(c1)CCCN2C(C)=O (nonaromatic ring conformer: 54.70542418442249 kcal/mol)

>  <smiles>  (9) 
COc1ccccc1NS(=O)(=O)c1ccc2c(c1)CCCN2C(C)=O

>  <score_type>  (9) 
oracle

>  <origin>  (9) 
adgpu

>  <m_score__min__energy>  (9) 
-10.56

>  <m_primary>  (9) 
energy

$$$$
9:0
     RDKit          3D

 43 45  0  0  0  0  0  0  0  0999 V2000
    1.2040   20.4470  -34.1410 C   0  0  0  0  0  0  0  0  0  0  0  0
   -0.2730   20.2440  -33.9750 C   0  0  0  0  0  0  0  0  0  0  0  0
   -0.8540   18.9990  -34.2610 C   0  0  0  0  0  0  0  0  0  0  0  0
   -2.2260   18.8050  -34.0790 C   0  0  0  0  0  0  0  0  0  0  0  0
   -3.0290   19.8470  -33.5990 C   0  0  0  0  0  0  0  0  0  0  0  0
   -4.7530   19.5780  -33.3650 S   0  0  0  0  0  0  0  0  0  0  0  0
   -4.9450   18.7040  -32.1590 O   0  0  0  0  0  0  0  0  0  0  0  0
   -5.3600   18.9000  -34.5610 O   0  0  0  0  0  0  0  0  0  0  0  0
   -5.5450   21.0990  -33.1070 N   0  0  0  0  0  0  0  0  0  0  0  0
   -6.7600   21.2310  -32.3490 C   0  0  0  0  0  0  0  0  0  0  0  0
   -7.8340   20.3430  -32.5520 C   0  0  0  0  0  0  0  0  0  0  0  0
   -9.0010   20.4550  -31.7940 C   0  0  0  0  0  0  0  0  0  0  0  0
   -9.1110   21.4480  -30.8210 C   0  0  0  0  0  0  0  0  0  0  0  0
   -8.0550   22.3350  -30.6060 C   0  0  0  0  0  0  0  0  0  0  0  0
   -6.8810   22.2370  -31.3650 C   0  0  0  0  0  0  0  0  0  0  0  0
   -5.8450   23.2060  -31.1600 N   0  0  0  0  0  0  0  0  0  0  0  0
   -4.4650   22.7720  -30.9540 C   0  0  0  0  0  0  0  0  0  0  0  0
   -3.7490   23.7640  -30.0340 C   0  0  0  0  0  0  0  0  0  0  0  0
   -3.9010   25.0900  -30.5100 O   0  0  0  0  0  0  0  0  0  0  0  0
   -5.2650   25.4710  -30.4520 C   0  0  0  0  0  0  0  0  0  0  0  0
   -6.1090   24.6240  -31.4090 C   0  0  0  0  0  0  0  0  0  0  0  0
   -2.4480   21.0850  -33.2940 C   0  0  0  0  0  0  0  0  0  0  0  0
   -1.0750   21.2820  -33.4760 C   0  0  0  0  0  0  0  0  0  0  0  0
    1.6787   20.5122  -33.1509 H   0  0  0  0  0  0  0  0  0  0  0  0
    1.6305   19.5990  -34.6969 H   0  0  0  0  0  0  0  0  0  0  0  0
    1.3859   21.3786  -34.6969 H   0  0  0  0  0  0  0  0  0  0  0  0
   -0.2276   18.1733  -34.6296 H   0  0  0  0  0  0  0  0  0  0  0  0
   -2.6771   17.8296  -34.3138 H   0  0  0  0  0  0  0  0  0  0  0  0
   -5.1680   21.9200  -33.6310 H   0  0  0  0  0  0  0  0  0  0  0  0
   -7.7527   19.5543  -33.3144 H   0  0  0  0  0  0  0  0  0  0  0  0
   -9.8353   19.7587  -31.9645 H   0  0  0  0  0  0  0  0  0  0  0  0
  -10.0303   21.5322  -30.2228 H   0  0  0  0  0  0  0  0  0  0  0  0
   -8.1448   23.1156  -29.8362 H   0  0  0  0  0  0  0  0  0  0  0  0
   -4.4599   21.7739  -30.4916 H   0  0  0  0  0  0  0  0  0  0  0  0
   -3.9456   22.7305  -31.9228 H   0  0  0  0  0  0  0  0  0  0  0  0
   -4.1769   23.6922  -29.0232 H   0  0  0  0  0  0  0  0  0  0  0  0
   -2.6773   23.5167  -30.0140 H   0  0  0  0  0  0  0  0  0  0  0  0
   -5.6348   25.3313  -29.4255 H   0  0  0  0  0  0  0  0  0  0  0  0
   -5.3485   26.5267  -30.7495 H   0  0  0  0  0  0  0  0  0  0  0  0
   -7.1758   24.8341  -31.2423 H   0  0  0  0  0  0  0  0  0  0  0  0
   -5.8472   24.8708  -32.4485 H   0  0  0  0  0  0  0  0  0  0  0  0
   -3.0734   21.9045  -32.9103 H   0  0  0  0  0  0  0  0  0  0  0  0
   -0.6227   22.2534  -33.2273 H   0  0  0  0  0  0  0  0  0  0  0  0
  1  2  1  0
  2  3  2  0
  3  4  1  0
  4  5  2  0
  5  6  1  0
  6  7  2  0
  6  8  2  0
  6  9  1  0
  9 10  1  0
 10 11  2  0
 11 12  1  0
 12 13  2  0
 13 14  1  0
 14 15  2  0
 15 16  1  0
 16 17  1  0
 17 18  1  0
 18 19  1  0
 19 20  1  0
 20 21  1  0
  5 22  1  0
 22 23  2  0
 23  2  1  0
 15 10  1  0
 21 16  1  0
  1 24  1  0
  1 25  1  0
  1 26  1  0
  3 27  1  0
  4 28  1  0
  9 29  1  0
 11 30  1  0
 12 31  1  0
 13 32  1  0
 14 33  1  0
 17 34  1  0
 17 35  1  0
 18 36  1  0
 18 37  1  0
 20 38  1  0
 20 39  1  0
 21 40  1  0
 21 41  1  0
 22 42  1  0
 23 43  1  0
M  END
>  <UniqueID>  (10) 
10

>  <SMILES>  (10) 
Cc1ccc(S(=O)(=O)Nc2ccccc2N2CCOCC2)cc1

>  <Energy>  (10) 
53.04609746879937

>  <Genealogy>  (10) 
Cc1ccc(S(=O)(=O)Nc2ccccc2N2CCOCC2)cc1 (3D coordinates assigned)
Cc1ccc(S(=O)(=O)Nc2ccccc2N2CCOCC2)cc1 (nonaromatic ring conformer: 53.04609746879937 kcal/mol)

>  <smiles>  (10) 
Cc1ccc(S(=O)(=O)Nc2ccccc2N2CCOCC2)cc1

>  <score_type>  (10) 
oracle

>  <origin>  (10) 
adgpu

>  <m_score__min__energy>  (10) 
-8.9299999999999997

>  <m_primary>  (10) 
energy

$$$$
10:0
     RDKit          3D

 51 54  0  0  1  0  0  0  0  0999 V2000
   -9.4580   18.1810  -31.6810 O   0  0  0  0  0  0  0  0  0  0  0  0
   -8.1960   18.4650  -32.2390 C   0  0  0  0  0  0  0  0  0  0  0  0
   -7.4390   17.4170  -32.7420 C   0  0  0  0  0  0  0  0  0  0  0  0
   -6.1940   17.6020  -33.3120 C   0  0  0  0  0  0  0  0  0  0  0  0
   -5.7100   18.9060  -33.3700 C   0  0  0  0  0  0  0  0  0  0  0  0
   -4.4380   19.2230  -33.9230 N   0  0  0  0  0  0  0  0  0  0  0  0
   -3.6370   19.9490  -33.2220 C   0  0  0  0  0  0  0  0  0  0  0  0
   -2.4370   20.2200  -33.7980 N   0  0  0  0  0  0  0  0  0  0  0  0
   -1.5220   20.9690  -33.1550 C   0  0  0  0  0  0  0  0  0  0  0  0
   -1.8130   21.4660  -31.8960 C   0  0  0  0  0  0  0  0  0  0  0  0
   -3.0540   21.1800  -31.3110 C   0  0  0  0  0  0  0  0  0  0  0  0
   -3.3780   21.6090  -30.1530 N   0  0  0  0  0  0  0  0  0  0  0  0
   -2.4740   22.4100  -29.3930 C   0  0  0  0  0  0  0  0  0  0  0  0
   -2.3260   23.7720  -29.6560 C   0  0  0  0  0  0  0  0  0  0  0  0
   -1.4380   24.5130  -28.8940 C   0  0  0  0  0  0  0  0  0  0  0  0
   -0.7120   23.9040  -27.8850 C   0  0  0  0  0  0  0  0  0  0  0  0
   -0.8530   22.5570  -27.6180 C   0  0  0  0  0  0  0  0  0  0  0  0
   -1.7380   21.8220  -28.3790 C   0  0  0  0  0  0  0  0  0  0  0  0
   -1.9370   20.1090  -28.0640 Cl  0  0  0  0  0  0  0  0  0  0  0  0
   -3.9300   20.4240  -32.0010 N   0  0  0  0  0  0  0  0  0  0  0  0
   -6.4500   19.9590  -32.8740 C   0  0  0  0  0  0  0  0  0  0  0  0
   -7.7100   19.7650  -32.2960 C   0  0  0  0  0  0  0  0  0  0  0  0
   -8.3850   20.9350  -31.7510 C   0  0  0  0  0  0  0  0  0  0  0  0
   -7.4720   21.9690  -31.3430 N   0  0  0  0  0  0  0  0  0  0  0  0
   -7.6130   22.4000  -30.0160 C   0  0  0  0  0  0  0  0  0  0  0  0
   -6.3210   23.0970  -29.5280 C   0  0  0  0  0  0  0  0  0  0  0  0
   -5.9280   24.4220  -30.6790 S   0  0  0  0  0  0  0  0  0  0  0  0
   -6.2900   23.8030  -32.3560 C   0  0  0  0  0  0  0  0  0  0  0  0
   -7.6380   23.1290  -32.2440 C   0  0  0  0  0  0  0  0  0  0  0  0
   -9.5220   17.6510  -30.8370 H   0  0  0  0  0  0  0  0  0  0  0  0
   -7.8466   16.3969  -32.6847 H   0  0  0  0  0  0  0  0  0  0  0  0
   -5.6105   16.7555  -33.7031 H   0  0  0  0  0  0  0  0  0  0  0  0
   -2.2130   19.8380  -34.7640 H   0  0  0  0  0  0  0  0  0  0  0  0
   -0.5514   21.1844  -33.6257 H   0  0  0  0  0  0  0  0  0  0  0  0
   -1.0757   22.0807  -31.3589 H   0  0  0  0  0  0  0  0  0  0  0  0
   -2.9069   24.2511  -30.4579 H   0  0  0  0  0  0  0  0  0  0  0  0
   -1.3094   25.5875  -29.0910 H   0  0  0  0  0  0  0  0  0  0  0  0
   -0.0109   24.5035  -27.2858 H   0  0  0  0  0  0  0  0  0  0  0  0
   -0.2718   22.0798  -26.8152 H   0  0  0  0  0  0  0  0  0  0  0  0
   -4.8460   20.2130  -31.5680 H   0  0  0  0  0  0  0  0  0  0  0  0
   -6.0393   20.9777  -32.9342 H   0  0  0  0  0  0  0  0  0  0  0  0
   -9.0562   21.3433  -32.5209 H   0  0  0  0  0  0  0  0  0  0  0  0
   -8.9371   20.6106  -30.8566 H   0  0  0  0  0  0  0  0  0  0  0  0
   -8.4516   23.1091  -29.9537 H   0  0  0  0  0  0  0  0  0  0  0  0
   -7.8056   21.5248  -29.3781 H   0  0  0  0  0  0  0  0  0  0  0  0
   -6.4794   23.5125  -28.5219 H   0  0  0  0  0  0  0  0  0  0  0  0
   -5.4930   22.3742  -29.4836 H   0  0  0  0  0  0  0  0  0  0  0  0
   -6.3328   24.6352  -33.0740 H   0  0  0  0  0  0  0  0  0  0  0  0
   -5.5130   23.1134  -32.7176 H   0  0  0  0  0  0  0  0  0  0  0  0
   -8.3760   23.8291  -31.8253 H   0  0  0  0  0  0  0  0  0  0  0  0
   -7.9978   22.8078  -33.2326 H   0  0  0  0  0  0  0  0  0  0  0  0
  1  2  1  0
  2  3  2  0
  3  4  1  0
  4  5  2  0
  5  6  1  0
  6  7  2  0
  7  8  1  0
  8  9  1  0
  9 10  2  0
 10 11  1  0
 11 12  2  0
 12 13  1  0
 13 14  2  0
 14 15  1  0
 15 16  2  0
 16 17  1  0
 17 18  2  0
 18 19  1  0
 11 20  1  0
  5 21  1  0
 21 22  2  0
 22 23  1  0
 23 24  1  0
 24 25  1  0
 25 26  1  0
 26 27  1  0
 27 28  1  0
 28 29  1  0
 22  2  1  0
 29 24  1  0
 20  7  1  0
 18 13  1  0
  1 30  1  0
  3 31  1  0
  4 32  1  0
  8 33  1  0
  9 34  1  0
 10 35  1  0
 14 36  1  0
 15 37  1  0
 16 38  1  0
 17 39  1  0
 20 40  1  0
 21 41  1  0
 23 42  1  0
 23 43  1  0
 25 44  1  0
 25 45  1  0
 26 46  1  0
 26 47  1  0
 28 48  1  0
 28 49  1  0
 29 50  1  0
 29 51  1  0
M  END
>  <smiles>  (11) 
Oc1ccc(N=c2[nH]ccc(=Nc3ccccc3Cl)[nH]2)cc1CN1CCSCC1

>  <score_type>  (11) 
oracle

>  <origin>  (11) 
adgpu

>  <m_score__min__energy>  (11) 
-10.02

>  <m_primary>  (11) 
energy

$$$$
11:0
     RDKit          3D

 43 47  0  0  0  0  0  0  0  0999 V2000
   -0.4270   19.0840  -34.9070 C   0  0  0  0  0  0  0  0  0  0  0  0
   -0.1050   20.4260  -34.6960 C   0  0  0  0  0  0  0  0  0  0  0  0
   -0.8740   21.2040  -33.8260 C   0  0  0  0  0  0  0  0  0  0  0  0
   -1.9830   20.6470  -33.1580 C   0  0  0  0  0  0  0  0  0  0  0  0
   -2.7820   21.4860  -32.2280 C   0  0  0  0  0  0  0  0  0  0  0  0
   -2.1820   22.2260  -31.1950 C   0  0  0  0  0  0  0  0  0  0  0  0
   -2.9760   23.0090  -30.3420 C   0  0  0  0  0  0  0  0  0  0  0  0
   -2.3570   23.7970  -29.2460 C   0  0  0  0  0  0  0  0  0  0  0  0
   -3.1020   24.1710  -28.1150 C   0  0  0  0  0  0  0  0  0  0  0  0
   -2.5060   24.9130  -27.0950 C   0  0  0  0  0  0  0  0  0  0  0  0
   -1.1650   25.2770  -27.2070 C   0  0  0  0  0  0  0  0  0  0  0  0
   -0.4500   24.9100  -28.3040 N   0  0  0  0  0  0  0  0  0  0  0  0
   -1.0070   24.1900  -29.3140 C   0  0  0  0  0  0  0  0  0  0  0  0
   -4.3660   23.0330  -30.5390 C   0  0  0  0  0  0  0  0  0  0  0  0
   -4.9390   22.2760  -31.5720 C   0  0  0  0  0  0  0  0  0  0  0  0
   -6.4060   22.2520  -31.7770 C   0  0  0  0  0  0  0  0  0  0  0  0
   -7.1860   23.4160  -31.7770 C   0  0  0  0  0  0  0  0  0  0  0  0
   -8.8100   23.0060  -31.9680 S   0  0  0  0  0  0  0  0  0  0  0  0
   -8.5450   21.3550  -32.0620 C   0  0  0  0  0  0  0  0  0  0  0  0
   -9.4930   20.3490  -32.2430 C   0  0  0  0  0  0  0  0  0  0  0  0
   -9.0470   19.0230  -32.3180 C   0  0  0  0  0  0  0  0  0  0  0  0
   -7.6750   18.7300  -32.2210 C   0  0  0  0  0  0  0  0  0  0  0  0
   -6.7360   19.7580  -32.0400 C   0  0  0  0  0  0  0  0  0  0  0  0
   -7.1860   21.0860  -31.9470 C   0  0  0  0  0  0  0  0  0  0  0  0
   -4.1340   21.5280  -32.3720 N   0  0  0  0  0  0  0  0  0  0  0  0
   -2.2880   19.2870  -33.3700 C   0  0  0  0  0  0  0  0  0  0  0  0
   -1.5150   18.5150  -34.2430 C   0  0  0  0  0  0  0  0  0  0  0  0
    0.1765   18.4752  -35.5963 H   0  0  0  0  0  0  0  0  0  0  0  0
    0.7558   20.8721  -35.2156 H   0  0  0  0  0  0  0  0  0  0  0  0
   -0.6116   22.2595  -33.6613 H   0  0  0  0  0  0  0  0  0  0  0  0
   -1.0915   22.1918  -31.0549 H   0  0  0  0  0  0  0  0  0  0  0  0
   -4.1590   23.8777  -28.0335 H   0  0  0  0  0  0  0  0  0  0  0  0
   -3.0890   25.2082  -26.2102 H   0  0  0  0  0  0  0  0  0  0  0  0
   -0.6851   25.8612  -26.4079 H   0  0  0  0  0  0  0  0  0  0  0  0
   -0.3998   23.9133  -30.1885 H   0  0  0  0  0  0  0  0  0  0  0  0
   -5.0047   23.6443  -29.8845 H   0  0  0  0  0  0  0  0  0  0  0  0
   -6.7983   24.4397  -31.6690 H   0  0  0  0  0  0  0  0  0  0  0  0
  -10.5632   20.5900  -32.3248 H   0  0  0  0  0  0  0  0  0  0  0  0
   -9.7730   18.2077  -32.4533 H   0  0  0  0  0  0  0  0  0  0  0  0
   -7.3345   17.6862  -32.2875 H   0  0  0  0  0  0  0  0  0  0  0  0
   -5.6627   19.5270  -31.9719 H   0  0  0  0  0  0  0  0  0  0  0  0
   -3.1398   18.8300  -32.8451 H   0  0  0  0  0  0  0  0  0  0  0  0
   -1.7651   17.4564  -34.4069 H   0  0  0  0  0  0  0  0  0  0  0  0
  1  2  2  0
  2  3  1  0
  3  4  2  0
  4  5  1  0
  5  6  2  0
  6  7  1  0
  7  8  1  0
  8  9  2  0
  9 10  1  0
 10 11  2  0
 11 12  1  0
 12 13  2  0
  7 14  2  0
 14 15  1  0
 15 16  1  0
 16 17  2  0
 17 18  1  0
 18 19  1  0
 19 20  2  0
 20 21  1  0
 21 22  2  0
 22 23  1  0
 23 24  2  0
 15 25  2  0
  4 26  1  0
 26 27  2  0
 27  1  1  0
 25  5  1  0
 13  8  1  0
 24 16  1  0
 24 19  1  0
  1 28  1  0
  2 29  1  0
  3 30  1  0
  6 31  1  0
  9 32  1  0
 10 33  1  0
 11 34  1  0
 13 35  1  0
 14 36  1  0
 17 37  1  0
 20 38  1  0
 21 39  1  0
 22 40  1  0
 23 41  1  0
 26 42  1  0
 27 43  1  0
M  END
>  <UniqueID>  (12) 
11

>  <SMILES>  (12) 
c1ccc(-c2cc(-c3cccnc3)cc(-c3csc4ccccc34)n2)cc1

>  <Energy>  (12) 
95.57497517419232

>  <Genealogy>  (12) 
c1ccc(-c2cc(-c3cccnc3)cc(-c3csc4ccccc34)n2)cc1 (3D coordinates assigned)
c1ccc(-c2cc(-c3cccnc3)cc(-c3csc4ccccc34)n2)cc1 (optimized conformer: 95.57497517419232 kcal/mol)

>  <smiles>  (12) 
c1ccc(-c2cc(-c3cccnc3)cc(-c3csc4ccccc34)n2)cc1

>  <score_type>  (12) 
oracle

>  <origin>  (12) 
adgpu

>  <m_score__min__energy>  (12) 
-9.6400000000000006

>  <m_primary>  (12) 
energy

$$$$
12:0
     RDKit          3D

 53 56  0  0  0  0  0  0  0  0999 V2000
   -3.0111   25.9603  -25.9417 H   0  0  0  0  0  0  0  0  0  0  0  0
   -2.2600   25.6250  -26.6720 C   0  0  0  0  0  0  0  0  0  0  0  0
   -2.4650   24.4020  -27.8070 S   0  0  0  0  0  0  0  0  0  0  0  0
   -0.9090   24.5810  -28.4350 C   0  0  0  0  0  0  0  0  0  0  0  0
   -0.3690   23.8610  -29.3720 N   0  0  0  0  0  0  0  0  0  0  0  0
   -1.0180   22.8430  -30.1500 C   0  0  0  0  0  0  0  0  0  0  0  0
   -2.3450   22.9850  -30.5920 C   0  0  0  0  0  0  0  0  0  0  0  0
   -2.9212   23.8799  -30.3142 H   0  0  0  0  0  0  0  0  0  0  0  0
   -2.9360   21.9960  -31.3820 C   0  0  0  0  0  0  0  0  0  0  0  0
   -3.9755   22.1141  -31.7219 H   0  0  0  0  0  0  0  0  0  0  0  0
   -2.2060   20.8500  -31.7440 C   0  0  0  0  0  0  0  0  0  0  0  0
   -2.7730   19.8330  -32.5800 N   0  0  0  0  0  0  0  0  0  0  0  0
   -4.1710   19.6070  -32.7940 C   0  0  0  0  0  0  0  0  0  0  0  0
   -4.5540   19.2230  -33.9310 O   0  0  0  0  0  0  0  0  0  0  0  0
   -5.1190   19.7860  -31.7260 N   0  0  0  0  0  0  0  0  0  0  0  0
   -4.7710   20.1290  -30.8030 H   0  0  0  0  0  0  0  0  0  0  0  0
   -6.5380   19.6160  -31.8720 C   0  0  0  0  0  0  0  0  0  0  0  0
   -7.0510   18.3390  -32.1420 C   0  0  0  0  0  0  0  0  0  0  0  0
   -6.3679   17.4800  -32.2157 H   0  0  0  0  0  0  0  0  0  0  0  0
   -8.4240   18.1510  -32.3180 C   0  0  0  0  0  0  0  0  0  0  0  0
   -8.8185   17.1439  -32.5186 H   0  0  0  0  0  0  0  0  0  0  0  0
   -9.2970   19.2380  -32.2400 C   0  0  0  0  0  0  0  0  0  0  0  0
  -10.3769   19.0853  -32.3829 H   0  0  0  0  0  0  0  0  0  0  0  0
   -8.8010   20.5240  -31.9800 C   0  0  0  0  0  0  0  0  0  0  0  0
   -9.7300   21.7010  -31.9570 C   0  0  0  0  0  0  0  0  0  0  0  0
   -9.9473   21.9763  -30.9144 H   0  0  0  0  0  0  0  0  0  0  0  0
   -9.2571   22.5515  -32.4699 H   0  0  0  0  0  0  0  0  0  0  0  0
  -10.6671   21.4386  -32.4699 H   0  0  0  0  0  0  0  0  0  0  0  0
   -7.4190   20.7130  -31.8190 C   0  0  0  0  0  0  0  0  0  0  0  0
   -7.0220   21.7249  -31.6503 H   0  0  0  0  0  0  0  0  0  0  0  0
   -0.8660   20.7400  -31.3550 C   0  0  0  0  0  0  0  0  0  0  0  0
   -0.2739   19.8689  -31.6722 H   0  0  0  0  0  0  0  0  0  0  0  0
   -0.2760   21.7320  -30.5650 C   0  0  0  0  0  0  0  0  0  0  0  0
    0.7789   21.6379  -30.2679 H   0  0  0  0  0  0  0  0  0  0  0  0
   -0.2210   25.5420  -27.7840 N   0  0  0  0  0  0  0  0  0  0  0  0
   -0.9720   26.1410  -26.8170 C   0  0  0  0  0  0  0  0  0  0  0  0
   -0.4080   27.1970  -25.9500 C   0  0  0  0  0  0  0  0  0  0  0  0
   -0.1200   28.4440  -26.5290 C   0  0  0  0  0  0  0  0  0  0  0  0
   -0.3403   28.6123  -27.5935 H   0  0  0  0  0  0  0  0  0  0  0  0
    0.4420   29.4720  -25.7710 C   0  0  0  0  0  0  0  0  0  0  0  0
    0.6738   30.4377  -26.2439 H   0  0  0  0  0  0  0  0  0  0  0  0
    0.7120   29.2790  -24.4110 C   0  0  0  0  0  0  0  0  0  0  0  0
    1.3630   30.3670  -23.6090 C   0  0  0  0  0  0  0  0  0  0  0  0
    1.2374   30.1572  -22.5365 H   0  0  0  0  0  0  0  0  0  0  0  0
    2.4352   30.4096  -23.8512 H   0  0  0  0  0  0  0  0  0  0  0  0
    0.8937   31.3319  -23.8512 H   0  0  0  0  0  0  0  0  0  0  0  0
    0.4260   28.0400  -23.8200 C   0  0  0  0  0  0  0  0  0  0  0  0
    0.6625   27.8775  -22.7581 H   0  0  0  0  0  0  0  0  0  0  0  0
   -0.1590   27.0030  -24.5670 C   0  0  0  0  0  0  0  0  0  0  0  0
   -0.4980   25.7140  -23.8630 C   0  0  0  0  0  0  0  0  0  0  0  0
   -0.4573   25.8689  -22.7747 H   0  0  0  0  0  0  0  0  0  0  0  0
   -1.5107   25.3947  -24.1503 H   0  0  0  0  0  0  0  0  0  0  0  0
    0.2265   24.9378  -24.1503 H   0  0  0  0  0  0  0  0  0  0  0  0
  1  2  1  0
  2  3  1  0
  3  4  1  0
  4  5  2  0
  5  6  1  0
  6  7  2  0
  7  8  1  0
  7  9  1  0
  9 10  1  0
  9 11  2  0
 11 12  1  0
 12 13  1  0
 13 14  2  0
 13 15  1  0
 15 16  1  0
 15 17  1  0
 17 18  2  0
 18 19  1  0
 18 20  1  0
 20 21  1  0
 20 22  2  0
 22 23  1  0
 22 24  1  0
 24 25  1  0
 25 26  1  0
 25 27  1  0
 25 28  1  0
 24 29  2  0
 29 30  1  0
 11 31  1  0
 31 32  1  0
 31 33  2  0
 33 34  1  0
  4 35  1  0
 35 36  1  0
 36 37  1  0
 37 38  2  0
 38 39  1  0
 38 40  1  0
 40 41  1  0
 40 42  2  0
 42 43  1  0
 43 44  1  0
 43 45  1  0
 43 46  1  0
 42 47  1  0
 47 48  1  0
 47 49  2  0
 49 50  1  0
 50 51  1  0
 50 52  1  0
 50 53  1  0
 36  2  2  0
 49 37  1  0
 33  6  1  0
 29 17  1  0
M  CHG  2  12  -1  35  -1
M  END
>  <UniqueID>  (13) 
12

>  <SMILES>  (13) 
Cc1cccc(NC(=O)[N-]c2ccc(/N=c3/[n-]c(-c4ccc(C)cc4C)cs3)cc2)c1

>  <Energy>  (13) 
107.37322527969006

>  <Genealogy>  (13) 
Cc1cccc(NC(=O)[N-]c2ccc(N=c3[n-]c(-c4ccc(C)cc4C)cs3)cc2)c1 (protonated)
Cc1cccc(NC(=O)[N-]c2ccc(/N=c3/[n-]c(-c4ccc(C)cc4C)cs3)cc2)c1 (cis-trans isomerization)
Cc1cccc(NC(=O)[N-]c2ccc(/N=c3/[n-]c(-c4ccc(C)cc4C)cs3)cc2)c1 (3D coordinates assigned)
Cc1cccc(NC(=O)[N-]c2ccc(/N=c3/[n-]c(-c4ccc(C)cc4C)cs3)cc2)c1 (optimized conformer: 107.37322527969006 kcal/mol)

>  <smiles>  (13) 
Cc1cccc(NC(=O)Nc2ccc(N=c3[nH]c(-c4ccc(C)cc4C)cs3)cc2)c1

>  <score_type>  (13) 
oracle

>  <origin>  (13) 
adgpu

>  <m_score__min__energy>  (13) 
-11.210000000000001

>  <m_primary>  (13) 
energy

$$$$
13:0
     RDKit          3D

 36 38  0  0  0  0  0  0  0  0999 V2000
   -8.6640   18.5590  -31.3890 C   0  0  0  0  0  0  0  0  0  0  0  0
   -8.3090   18.9650  -32.7050 O   0  0  0  0  0  0  0  0  0  0  0  0
   -6.9740   19.1560  -33.0730 C   0  0  0  0  0  0  0  0  0  0  0  0
   -6.2350   18.0710  -33.5760 C   0  0  0  0  0  0  0  0  0  0  0  0
   -6.8590   16.7100  -33.7160 C   0  0  0  0  0  0  0  0  0  0  0  0
   -4.8830   18.2550  -33.8800 C   0  0  0  0  0  0  0  0  0  0  0  0
   -4.3060   19.4710  -33.7140 N   0  0  0  0  0  0  0  0  0  0  0  0
   -4.9950   20.5540  -33.2660 C   0  0  0  0  0  0  0  0  0  0  0  0
   -4.2370   21.8460  -33.0880 C   0  0  0  0  0  0  0  0  0  0  0  0
   -4.1100   22.1780  -31.6700 N   0  0  0  0  0  0  0  0  0  0  0  0
   -3.4350   21.4900  -30.7140 C   0  0  0  0  0  0  0  0  0  0  0  0
   -3.4850   22.0810  -29.4870 N   0  0  0  0  0  0  0  0  0  0  0  0
   -4.2220   23.1850  -29.7200 C   0  0  0  0  0  0  0  0  0  0  0  0
   -4.6130   24.1900  -28.8410 C   0  0  0  0  0  0  0  0  0  0  0  0
   -4.1910   24.1530  -27.2580 S   0  0  0  0  0  0  0  0  0  0  0  0
   -5.3680   25.2160  -29.3440 N   0  0  0  0  0  0  0  0  0  0  0  0
   -5.7230   25.2530  -30.6700 C   0  0  0  0  0  0  0  0  0  0  0  0
   -5.3330   24.2590  -31.5230 N   0  0  0  0  0  0  0  0  0  0  0  0
   -4.5880   23.2460  -31.0190 C   0  0  0  0  0  0  0  0  0  0  0  0
   -6.3700   20.4260  -32.9490 C   0  0  0  0  0  0  0  0  0  0  0  0
   -7.1700   21.5960  -32.4260 C   0  0  0  0  0  0  0  0  0  0  0  0
   -8.1239   19.1767  -30.6565 H   0  0  0  0  0  0  0  0  0  0  0  0
   -9.7475   18.6843  -31.2464 H   0  0  0  0  0  0  0  0  0  0  0  0
   -8.3952   17.5019  -31.2464 H   0  0  0  0  0  0  0  0  0  0  0  0
   -7.0514   16.2904  -32.7175 H   0  0  0  0  0  0  0  0  0  0  0  0
   -7.8075   16.7963  -34.2664 H   0  0  0  0  0  0  0  0  0  0  0  0
   -6.1746   16.0477  -34.2664 H   0  0  0  0  0  0  0  0  0  0  0  0
   -4.2854   17.4110  -34.2549 H   0  0  0  0  0  0  0  0  0  0  0  0
   -3.2334   21.7393  -33.5254 H   0  0  0  0  0  0  0  0  0  0  0  0
   -4.7888   22.6528  -33.5926 H   0  0  0  0  0  0  0  0  0  0  0  0
   -2.9006   20.5488  -30.9103 H   0  0  0  0  0  0  0  0  0  0  0  0
   -5.6820   25.9910  -28.7170 H   0  0  0  0  0  0  0  0  0  0  0  0
   -6.3269   26.0905  -31.0492 H   0  0  0  0  0  0  0  0  0  0  0  0
   -7.1615   21.5836  -31.3261 H   0  0  0  0  0  0  0  0  0  0  0  0
   -6.7241   22.5351  -32.7855 H   0  0  0  0  0  0  0  0  0  0  0  0
   -8.2069   21.5212  -32.7855 H   0  0  0  0  0  0  0  0  0  0  0  0
  1  2  1  0
  2  3  1  0
  3  4  2  0
  4  5  1  0
  4  6  1  0
  6  7  2  0
  7  8  1  0
  8  9  1  0
  9 10  1  0
 10 11  1  0
 11 12  2  0
 12 13  1  0
 13 14  1  0
 14 15  2  0
 14 16  1  0
 16 17  1  0
 17 18  2  0
 18 19  1  0
  8 20  2  0
 20 21  1  0
 20  3  1  0
 19 10  1  0
 19 13  2  0
  1 22  1  0
  1 23  1  0
  1 24  1  0
  5 25  1  0
  5 26  1  0
  5 27  1  0
  6 28  1  0
  9 29  1  0
  9 30  1  0
 11 31  1  0
 16 32  1  0
 17 33  1  0
 21 34  1  0
 21 35  1  0
 21 36  1  0
M  END
>  <UniqueID>  (14) 
13

>  <SMILES>  (14) 
COc1c(C)cnc(Cn2cnc3c(=S)[nH]cnc32)c1C

>  <Energy>  (14) 
85.57095938767007

>  <Genealogy>  (14) 
COc1c(C)cnc(Cn2cnc3c(=S)[nH]cnc32)c1C (3D coordinates assigned)
COc1c(C)cnc(Cn2cnc3c(=S)[nH]cnc32)c1C (optimized conformer: 85.57095938767007 kcal/mol)

>  <smiles>  (14) 
COc1c(C)cnc(Cn2cnc3c(=S)[nH]cnc32)c1C

>  <score_type>  (14) 
oracle

>  <origin>  (14) 
adgpu

>  <m_score__min__energy>  (14) 
-7.1200000000000001

>  <m_primary>  (14) 
energy

$$$$
14:0
     RDKit          3D

 47 50  0  0  0  0  0  0  0  0999 V2000
   -6.8630   25.1300  -29.7480 C   0  0  0  0  0  0  0  0  0  0  0  0
   -5.5800   24.5960  -30.2880 C   0  0  0  0  0  0  0  0  0  0  0  0
   -5.4530   23.3840  -30.8600 N   0  0  0  0  0  0  0  0  0  0  0  0
   -4.1420   23.3800  -31.1860 C   0  0  0  0  0  0  0  0  0  0  0  0
   -3.4660   22.2510  -31.8620 C   0  0  0  0  0  0  0  0  0  0  0  0
   -4.1460   21.4870  -32.8250 C   0  0  0  0  0  0  0  0  0  0  0  0
   -3.5040   20.4240  -33.4670 C   0  0  0  0  0  0  0  0  0  0  0  0
   -2.1760   20.1100  -33.1550 C   0  0  0  0  0  0  0  0  0  0  0  0
   -1.3690   18.7780  -33.9740 S   0  0  0  0  0  0  0  0  0  0  0  0
   -0.4730   18.0700  -32.9980 O   0  0  0  0  0  0  0  0  0  0  0  0
   -0.5360   19.2880  -35.1170 O   0  0  0  0  0  0  0  0  0  0  0  0
   -2.5450   17.6570  -34.5860 N   0  0  0  0  0  0  0  0  0  0  0  0
   -3.1290   16.6000  -33.7970 C   0  0  0  0  0  0  0  0  0  0  0  0
   -2.3140   15.6220  -33.1950 C   0  0  0  0  0  0  0  0  0  0  0  0
   -2.8780   14.5630  -32.4810 C   0  0  0  0  0  0  0  0  0  0  0  0
   -4.2630   14.4600  -32.3590 C   0  0  0  0  0  0  0  0  0  0  0  0
   -4.9670   13.1280  -31.4620 Cl  0  0  0  0  0  0  0  0  0  0  0  0
   -5.0880   15.4200  -32.9470 C   0  0  0  0  0  0  0  0  0  0  0  0
   -4.5370   16.4930  -33.6680 C   0  0  0  0  0  0  0  0  0  0  0  0
   -5.4490   17.5190  -34.2240 C   0  0  0  0  0  0  0  0  0  0  0  0
   -5.3460   17.8230  -35.4430 O   0  0  0  0  0  0  0  0  0  0  0  0
   -6.4500   18.2210  -33.3780 C   0  0  0  0  0  0  0  0  0  0  0  0
   -6.6730   19.6050  -33.5120 C   0  0  0  0  0  0  0  0  0  0  0  0
   -7.6160   20.2520  -32.7080 C   0  0  0  0  0  0  0  0  0  0  0  0
   -8.3430   19.5300  -31.7600 C   0  0  0  0  0  0  0  0  0  0  0  0
   -8.1200   18.1600  -31.6060 C   0  0  0  0  0  0  0  0  0  0  0  0
   -7.1770   17.5070  -32.4070 C   0  0  0  0  0  0  0  0  0  0  0  0
   -1.4960   20.8620  -32.1900 C   0  0  0  0  0  0  0  0  0  0  0  0
   -2.1350   21.9270  -31.5480 C   0  0  0  0  0  0  0  0  0  0  0  0
   -3.5230   24.5250  -30.8340 N   0  0  0  0  0  0  0  0  0  0  0  0
   -4.4470   25.2510  -30.2840 O   0  0  0  0  0  0  0  0  0  0  0  0
   -6.8317   25.1170  -28.6485 H   0  0  0  0  0  0  0  0  0  0  0  0
   -7.0068   26.1627  -30.0985 H   0  0  0  0  0  0  0  0  0  0  0  0
   -7.6970   24.5043  -30.0985 H   0  0  0  0  0  0  0  0  0  0  0  0
   -5.1900   21.7267  -33.0754 H   0  0  0  0  0  0  0  0  0  0  0  0
   -4.0445   19.8320  -34.2203 H   0  0  0  0  0  0  0  0  0  0  0  0
   -2.8280   17.7820  -35.5820 H   0  0  0  0  0  0  0  0  0  0  0  0
   -1.2203   15.6932  -33.2884 H   0  0  0  0  0  0  0  0  0  0  0  0
   -2.2282   13.8084  -32.0138 H   0  0  0  0  0  0  0  0  0  0  0  0
   -6.1800   15.3359  -32.8451 H   0  0  0  0  0  0  0  0  0  0  0  0
   -6.1012   20.1810  -34.2545 H   0  0  0  0  0  0  0  0  0  0  0  0
   -7.7855   21.3328  -32.8227 H   0  0  0  0  0  0  0  0  0  0  0  0
   -9.0909   20.0397  -31.1348 H   0  0  0  0  0  0  0  0  0  0  0  0
   -8.6871   17.5930  -30.8531 H   0  0  0  0  0  0  0  0  0  0  0  0
   -7.0026   16.4287  -32.2771 H   0  0  0  0  0  0  0  0  0  0  0  0
   -0.4549   20.6141  -31.9358 H   0  0  0  0  0  0  0  0  0  0  0  0
   -1.5928   22.5148  -30.7927 H   0  0  0  0  0  0  0  0  0  0  0  0
  1  2  1  0
  2  3  2  0
  3  4  1  0
  4  5  1  0
  5  6  2  0
  6  7  1  0
  7  8  2  0
  8  9  1  0
  9 10  2  0
  9 11  2  0
  9 12  1  0
 12 13  1  0
 13 14  2  0
 14 15  1  0
 15 16  2  0
 16 17  1  0
 16 18  1  0
 18 19  2  0
 19 20  1  0
 20 21  2  0
 20 22  1  0
 22 23  2  0
 23 24  1  0
 24 25  2  0
 25 26  1  0
 26 27  2  0
  8 28  1  0
 28 29  2  0
  4 30  2  0
 30 31  1  0
 31  2  1  0
 29  5  1  0
 19 13  1  0
 27 22  1  0
  1 32  1  0
  1 33  1  0
  1 34  1  0
  6 35  1  0
  7 36  1  0
 12 37  1  0
 14 38  1  0
 15 39  1  0
 18 40  1  0
 23 41  1  0
 24 42  1  0
 25 43  1  0
 26 44  1  0
 27 45  1  0
 28 46  1  0
 29 47  1  0
M  END
>  <UniqueID>  (15) 
14

>  <SMILES>  (15) 
Cc1nc(-c2ccc(S(=O)(=O)Nc3ccc(Cl)cc3C(=O)c3ccccc3)cc2)no1

>  <Energy>  (15) 
95.42543897777671

>  <Genealogy>  (15) 
Cc1nc(-c2ccc(S(=O)(=O)Nc3ccc(Cl)cc3C(=O)c3ccccc3)cc2)no1 (3D coordinates assigned)
Cc1nc(-c2ccc(S(=O)(=O)Nc3ccc(Cl)cc3C(=O)c3ccccc3)cc2)no1 (optimized conformer: 95.42543897777671 kcal/mol)

>  <smiles>  (15) 
Cc1nc(-c2ccc(S(=O)(=O)Nc3ccc(Cl)cc3C(=O)c3ccccc3)cc2)no1

>  <score_type>  (15) 
oracle

>  <origin>  (15) 
adgpu

>  <m_score__min__energy>  (15) 
-11.800000000000001

>  <m_primary>  (15) 
energy

$$$$
15:0
     RDKit          3D

 42 44  0  0  0  0  0  0  0  0999 V2000
   -8.6760   18.9230  -32.2910 C   0  0  0  0  0  0  0  0  0  0  0  0
   -7.4940   17.9650  -32.1870 C   0  0  0  0  0  0  0  0  0  0  0  0
   -6.3840   18.4450  -32.9450 O   0  0  0  0  0  0  0  0  0  0  0  0
   -5.5360   19.5010  -32.5730 C   0  0  0  0  0  0  0  0  0  0  0  0
   -5.1260   19.7200  -31.2430 C   0  0  0  0  0  0  0  0  0  0  0  0
   -4.2780   20.7870  -30.9330 C   0  0  0  0  0  0  0  0  0  0  0  0
   -3.8220   21.6460  -31.9380 C   0  0  0  0  0  0  0  0  0  0  0  0
   -2.9760   22.7080  -31.5830 O   0  0  0  0  0  0  0  0  0  0  0  0
   -2.6350   23.0600  -30.2690 C   0  0  0  0  0  0  0  0  0  0  0  0
   -1.8290   22.1830  -29.5330 C   0  0  0  0  0  0  0  0  0  0  0  0
   -1.4690   22.4880  -28.2190 C   0  0  0  0  0  0  0  0  0  0  0  0
   -1.9080   23.6750  -27.6310 C   0  0  0  0  0  0  0  0  0  0  0  0
   -2.6920   24.5690  -28.3630 C   0  0  0  0  0  0  0  0  0  0  0  0
   -3.0400   24.2850  -29.6960 C   0  0  0  0  0  0  0  0  0  0  0  0
   -3.8050   25.2170  -30.4770 N   0  0  0  0  0  0  0  0  0  0  0  0
   -5.2330   25.3390  -30.4950 C   0  0  0  0  0  0  0  0  0  0  0  0
   -5.7460   26.4480  -30.1880 O   0  0  0  0  0  0  0  0  0  0  0  0
   -6.1160   24.1900  -30.8060 C   0  0  0  0  0  0  0  0  0  0  0  0
   -6.7100   23.4320  -29.7830 C   0  0  0  0  0  0  0  0  0  0  0  0
   -7.5420   22.3580  -30.1000 C   0  0  0  0  0  0  0  0  0  0  0  0
   -7.7860   22.0540  -31.4400 C   0  0  0  0  0  0  0  0  0  0  0  0
   -7.2200   22.8030  -32.4220 N   0  0  0  0  0  0  0  0  0  0  0  0
   -6.4040   23.8540  -32.1390 C   0  0  0  0  0  0  0  0  0  0  0  0
   -4.2480   21.4430  -33.2620 C   0  0  0  0  0  0  0  0  0  0  0  0
   -5.0940   20.3760  -33.5730 C   0  0  0  0  0  0  0  0  0  0  0  0
   -9.0151   19.1979  -31.2813 H   0  0  0  0  0  0  0  0  0  0  0  0
   -8.3672   19.8288  -32.8333 H   0  0  0  0  0  0  0  0  0  0  0  0
   -9.4982   18.4333  -32.8333 H   0  0  0  0  0  0  0  0  0  0  0  0
   -7.1970   17.8720  -31.1320 H   0  0  0  0  0  0  0  0  0  0  0  0
   -7.7973   16.9863  -32.5872 H   0  0  0  0  0  0  0  0  0  0  0  0
   -5.4749   19.0482  -30.4449 H   0  0  0  0  0  0  0  0  0  0  0  0
   -3.9670   20.9523  -29.8909 H   0  0  0  0  0  0  0  0  0  0  0  0
   -1.4772   21.2478  -29.9930 H   0  0  0  0  0  0  0  0  0  0  0  0
   -0.8385   21.7918  -27.6465 H   0  0  0  0  0  0  0  0  0  0  0  0
   -1.6363   23.9064  -26.5905 H   0  0  0  0  0  0  0  0  0  0  0  0
   -3.0397   25.5014  -27.8942 H   0  0  0  0  0  0  0  0  0  0  0  0
   -6.5186   23.6859  -28.7299 H   0  0  0  0  0  0  0  0  0  0  0  0
   -8.0012   21.7567  -29.3016 H   0  0  0  0  0  0  0  0  0  0  0  0
   -8.4373   21.2070  -31.7014 H   0  0  0  0  0  0  0  0  0  0  0  0
   -5.9674   24.4438  -32.9585 H   0  0  0  0  0  0  0  0  0  0  0  0
   -3.9139   22.1269  -34.0561 H   0  0  0  0  0  0  0  0  0  0  0  0
   -5.4161   20.2215  -34.6134 H   0  0  0  0  0  0  0  0  0  0  0  0
  1  2  1  0
  2  3  1  0
  3  4  1  0
  4  5  2  0
  5  6  1  0
  6  7  2  0
  7  8  1  0
  8  9  1  0
  9 10  2  0
 10 11  1  0
 11 12  2  0
 12 13  1  0
 13 14  2  0
 14 15  1  0
 15 16  1  0
 16 17  2  0
 16 18  1  0
 18 19  2  0
 19 20  1  0
 20 21  2  0
 21 22  1  0
 22 23  2  0
  7 24  1  0
 24 25  2  0
 25  4  1  0
 14  9  1  0
 23 18  1  0
  1 26  1  0
  1 27  1  0
  1 28  1  0
  2 29  1  0
  2 30  1  0
  5 31  1  0
  6 32  1  0
 10 33  1  0
 11 34  1  0
 12 35  1  0
 13 36  1  0
 19 37  1  0
 20 38  1  0
 21 39  1  0
 23 40  1  0
 24 41  1  0
 25 42  1  0
M  CHG  1  15  -1
M  END
>  <UniqueID>  (16) 
15

>  <SMILES>  (16) 
CCOc1ccc(Oc2ccccc2[N-]C(=O)c2cccnc2)cc1

>  <Energy>  (16) 
58.06833059049014

>  <Genealogy>  (16) 
CCOc1ccc(Oc2ccccc2[N-]C(=O)c2cccnc2)cc1 (protonated)
CCOc1ccc(Oc2ccccc2[N-]C(=O)c2cccnc2)cc1 (3D coordinates assigned)
CCOc1ccc(Oc2ccccc2[N-]C(=O)c2cccnc2)cc1 (optimized conformer: 58.06833059049014 kcal/mol)

>  <smiles>  (16) 
CCOc1ccc(Oc2ccccc2NC(=O)c2cccnc2)cc1

>  <score_type>  (16) 
oracle

>  <origin>  (16) 
adgpu

>  <m_score__min__energy>  (16) 
-8.9700000000000006

>  <m_primary>  (16) 
energy

$$$$
16:0
     RDKit          3D

 44 45  0  0  0  0  0  0  0  0999 V2000
   -2.4630   25.6130  -25.7520 C   0  0  0  0  0  0  0  0  0  0  0  0
   -1.2480   26.3070  -26.3720 C   0  0  0  0  0  0  0  0  0  0  0  0
   -0.5590   25.4230  -27.4170 C   0  0  0  0  0  0  0  0  0  0  0  0
   -1.5620   25.2860  -28.9370 S   0  0  0  0  0  0  0  0  0  0  0  0
   -2.1930   23.6540  -28.5160 C   0  0  0  0  0  0  0  0  0  0  0  0
   -1.2850   22.5990  -28.3550 C   0  0  0  0  0  0  0  0  0  0  0  0
   -1.7430   21.3150  -28.0520 C   0  0  0  0  0  0  0  0  0  0  0  0
   -3.1100   21.0790  -27.8970 C   0  0  0  0  0  0  0  0  0  0  0  0
   -4.0230   22.1260  -28.0470 C   0  0  0  0  0  0  0  0  0  0  0  0
   -3.5780   23.4180  -28.3720 C   0  0  0  0  0  0  0  0  0  0  0  0
   -4.5180   24.4950  -28.4840 N   0  0  0  0  0  0  0  0  0  0  0  0
   -5.2590   24.9350  -29.9900 S   0  0  0  0  0  0  0  0  0  0  0  0
   -6.4120   25.8770  -29.7760 O   0  0  0  0  0  0  0  0  0  0  0  0
   -4.2410   25.6600  -30.8290 O   0  0  0  0  0  0  0  0  0  0  0  0
   -5.7690   23.4670  -30.8430 C   0  0  0  0  0  0  0  0  0  0  0  0
   -7.1320   23.1340  -30.8100 C   0  0  0  0  0  0  0  0  0  0  0  0
   -7.6200   21.9920  -31.4610 C   0  0  0  0  0  0  0  0  0  0  0  0
   -9.0900   21.6840  -31.4100 C   0  0  0  0  0  0  0  0  0  0  0  0
   -6.7190   21.1540  -32.1540 C   0  0  0  0  0  0  0  0  0  0  0  0
   -7.1620   19.9700  -32.8340 N   0  0  0  0  0  0  0  0  0  0  0  0
   -5.3600   21.4880  -32.1960 C   0  0  0  0  0  0  0  0  0  0  0  0
   -4.8750   22.6450  -31.5680 C   0  0  0  0  0  0  0  0  0  0  0  0
   -3.4890   22.9810  -31.7330 N   0  0  0  0  0  0  0  0  0  0  0  0
   -2.3893   25.6551  -24.6553 H   0  0  0  0  0  0  0  0  0  0  0  0
   -3.3820   26.1224  -26.0775 H   0  0  0  0  0  0  0  0  0  0  0  0
   -2.4910   24.5627  -26.0775 H   0  0  0  0  0  0  0  0  0  0  0  0
   -1.5782   27.2382  -26.8555 H   0  0  0  0  0  0  0  0  0  0  0  0
   -0.5253   26.5131  -25.5687 H   0  0  0  0  0  0  0  0  0  0  0  0
    0.4171   25.8624  -27.6704 H   0  0  0  0  0  0  0  0  0  0  0  0
   -0.4344   24.4162  -26.9918 H   0  0  0  0  0  0  0  0  0  0  0  0
   -0.2064   22.7830  -28.4678 H   0  0  0  0  0  0  0  0  0  0  0  0
   -1.0260   20.4890  -27.9354 H   0  0  0  0  0  0  0  0  0  0  0  0
   -3.4690   20.0674  -27.6564 H   0  0  0  0  0  0  0  0  0  0  0  0
   -5.0979   21.9371  -27.9096 H   0  0  0  0  0  0  0  0  0  0  0  0
   -4.5730   25.1980  -27.7140 H   0  0  0  0  0  0  0  0  0  0  0  0
   -7.8318   23.7822  -30.2622 H   0  0  0  0  0  0  0  0  0  0  0  0
   -9.4142   21.6161  -30.3611 H   0  0  0  0  0  0  0  0  0  0  0  0
   -9.6501   22.4843  -31.9158 H   0  0  0  0  0  0  0  0  0  0  0  0
   -9.2817   20.7262  -31.9158 H   0  0  0  0  0  0  0  0  0  0  0  0
   -7.6770   20.0400  -33.7450 H   0  0  0  0  0  0  0  0  0  0  0  0
   -6.9840   19.0130  -32.4560 H   0  0  0  0  0  0  0  0  0  0  0  0
   -4.6592   20.8307  -32.7316 H   0  0  0  0  0  0  0  0  0  0  0  0
   -3.1360   23.9470  -31.5920 H   0  0  0  0  0  0  0  0  0  0  0  0
   -2.8260   22.2970  -32.1680 H   0  0  0  0  0  0  0  0  0  0  0  0
  1  2  1  0
  2  3  1  0
  3  4  1  0
  4  5  1  0
  5  6  2  0
  6  7  1  0
  7  8  2  0
  8  9  1  0
  9 10  2  0
 10 11  1  0
 11 12  1  0
 12 13  2  0
 12 14  2  0
 12 15  1  0
 15 16  2  0
 16 17  1  0
 17 18  1  0
 17 19  2  0
 19 20  1  0
 19 21  1  0
 21 22  2  0
 22 23  1  0
 10  5  1  0
 22 15  1  0
  1 24  1  0
  1 25  1  0
  1 26  1  0
  2 27  1  0
  2 28  1  0
  3 29  1  0
  3 30  1  0
  6 31  1  0
  7 32  1  0
  8 33  1  0
  9 34  1  0
 11 35  1  0
 16 36  1  0
 18 37  1  0
 18 38  1  0
 18 39  1  0
 20 40  1  0
 20 41  1  0
 21 42  1  0
 23 43  1  0
 23 44  1  0
M  END
>  <UniqueID>  (17) 
16

>  <SMILES>  (17) 
CCCSc1ccccc1NS(=O)(=O)c1cc(C)c(N)cc1N

>  <Energy>  (17) 
42.12020061613415

>  <Genealogy>  (17) 
CCCSc1ccccc1NS(=O)(=O)c1cc(C)c(N)cc1N (3D coordinates assigned)
CCCSc1ccccc1NS(=O)(=O)c1cc(C)c(N)cc1N (optimized conformer: 42.12020061613415 kcal/mol)

>  <smiles>  (17) 
CCCSc1ccccc1NS(=O)(=O)c1cc(C)c(N)cc1N

>  <score_type>  (17) 
oracle

>  <origin>  (17) 
adgpu

>  <m_score__min__energy>  (17) 
-9.0099999999999998

>  <m_primary>  (17) 
energy

$$$$
17:0
     RDKit          3D

 47 50  0  0  0  0  0  0  0  0999 V2000
   -3.0030   18.3050  -25.6790 C   0  0  0  0  0  0  0  0  0  0  0  0
   -2.1330   19.4210  -26.1520 C   0  0  0  0  0  0  0  0  0  0  0  0
   -1.8240   19.6990  -27.4690 C   0  0  0  0  0  0  0  0  0  0  0  0
   -1.0720   20.8570  -27.4030 C   0  0  0  0  0  0  0  0  0  0  0  0
   -0.4580   21.5650  -28.5840 C   0  0  0  0  0  0  0  0  0  0  0  0
   -1.1610   22.8260  -28.8840 N   0  0  0  0  0  0  0  0  0  0  0  0
   -0.5240   24.0890  -28.5920 C   0  0  0  0  0  0  0  0  0  0  0  0
    0.7160   24.1540  -28.3730 O   0  0  0  0  0  0  0  0  0  0  0  0
   -1.3530   25.3320  -28.4770 C   0  0  0  0  0  0  0  0  0  0  0  0
   -2.4690   25.2880  -29.3620 O   0  0  0  0  0  0  0  0  0  0  0  0
   -3.1060   24.0970  -29.7220 C   0  0  0  0  0  0  0  0  0  0  0  0
   -4.3580   24.1570  -30.3410 C   0  0  0  0  0  0  0  0  0  0  0  0
   -5.0120   22.9840  -30.7300 C   0  0  0  0  0  0  0  0  0  0  0  0
   -6.5780   23.0680  -31.5270 S   0  0  0  0  0  0  0  0  0  0  0  0
   -6.4680   23.8760  -32.7890 O   0  0  0  0  0  0  0  0  0  0  0  0
   -7.5760   23.7420  -30.6260 O   0  0  0  0  0  0  0  0  0  0  0  0
   -7.1170   21.4360  -31.9030 C   0  0  0  0  0  0  0  0  0  0  0  0
   -6.3890   20.6420  -32.8010 C   0  0  0  0  0  0  0  0  0  0  0  0
   -6.8070   19.3390  -33.0840 C   0  0  0  0  0  0  0  0  0  0  0  0
   -7.9500   18.8210  -32.4670 C   0  0  0  0  0  0  0  0  0  0  0  0
   -8.6730   19.6050  -31.5640 C   0  0  0  0  0  0  0  0  0  0  0  0
   -8.2570   20.9090  -31.2790 C   0  0  0  0  0  0  0  0  0  0  0  0
   -4.3920   21.7480  -30.5240 C   0  0  0  0  0  0  0  0  0  0  0  0
   -3.1360   21.6800  -29.9160 C   0  0  0  0  0  0  0  0  0  0  0  0
   -2.4790   22.8540  -29.4910 C   0  0  0  0  0  0  0  0  0  0  0  0
   -0.9410   21.2120  -26.1060 N   0  0  0  0  0  0  0  0  0  0  0  0
   -0.2410   22.3750  -25.5730 C   0  0  0  0  0  0  0  0  0  0  0  0
   -1.6030   20.3560  -25.3420 N   0  0  0  0  0  0  0  0  0  0  0  0
   -3.0147   18.2900  -24.5792 H   0  0  0  0  0  0  0  0  0  0  0  0
   -4.0262   18.4533  -26.0546 H   0  0  0  0  0  0  0  0  0  0  0  0
   -2.6095   17.3489  -26.0546 H   0  0  0  0  0  0  0  0  0  0  0  0
   -2.1107   19.1294  -28.3653 H   0  0  0  0  0  0  0  0  0  0  0  0
    0.5954   21.7879  -28.3589 H   0  0  0  0  0  0  0  0  0  0  0  0
   -0.5403   20.9070  -29.4616 H   0  0  0  0  0  0  0  0  0  0  0  0
   -1.7176   25.4263  -27.4435 H   0  0  0  0  0  0  0  0  0  0  0  0
   -0.7272   26.1955  -28.7465 H   0  0  0  0  0  0  0  0  0  0  0  0
   -4.8315   25.1330  -30.5231 H   0  0  0  0  0  0  0  0  0  0  0  0
   -5.4868   21.0459  -33.2837 H   0  0  0  0  0  0  0  0  0  0  0  0
   -6.2366   18.7204  -33.7925 H   0  0  0  0  0  0  0  0  0  0  0  0
   -8.2801   17.7962  -32.6925 H   0  0  0  0  0  0  0  0  0  0  0  0
   -9.5704   19.1957  -31.0769 H   0  0  0  0  0  0  0  0  0  0  0  0
   -8.8248   21.5226  -30.5641 H   0  0  0  0  0  0  0  0  0  0  0  0
   -4.8961   20.8236  -30.8425 H   0  0  0  0  0  0  0  0  0  0  0  0
   -2.6548   20.7021  -29.7673 H   0  0  0  0  0  0  0  0  0  0  0  0
   -0.2605   22.3427  -24.4736 H   0  0  0  0  0  0  0  0  0  0  0  0
    0.8022   22.3666  -25.9217 H   0  0  0  0  0  0  0  0  0  0  0  0
   -0.7368   23.2930  -25.9217 H   0  0  0  0  0  0  0  0  0  0  0  0
  1  2  1  0
  2  3  1  0
  3  4  2  0
  4  5  1  0
  5  6  1  0
  6  7  1  0
  7  8  2  0
  7  9  1  0
  9 10  1  0
 10 11  1  0
 11 12  2  0
 12 13  1  0
 13 14  1  0
 14 15  2  0
 14 16  2  0
 14 17  1  0
 17 18  2  0
 18 19  1  0
 19 20  2  0
 20 21  1  0
 21 22  2  0
 13 23  2  0
 23 24  1  0
 24 25  2  0
  4 26  1  0
 26 27  1  0
 26 28  1  0
 28  2  2  0
 25  6  1  0
 25 11  1  0
 22 17  1  0
  1 29  1  0
  1 30  1  0
  1 31  1  0
  3 32  1  0
  5 33  1  0
  5 34  1  0
  9 35  1  0
  9 36  1  0
 12 37  1  0
 18 38  1  0
 19 39  1  0
 20 40  1  0
 21 41  1  0
 22 42  1  0
 23 43  1  0
 24 44  1  0
 27 45  1  0
 27 46  1  0
 27 47  1  0
M  END
>  <UniqueID>  (18) 
17

>  <SMILES>  (18) 
Cc1cc(CN2C(=O)COc3cc(S(=O)(=O)c4ccccc4)ccc32)n(C)n1

>  <Energy>  (18) 
84.53833655263993

>  <Genealogy>  (18) 
Cc1cc(CN2C(=O)COc3cc(S(=O)(=O)c4ccccc4)ccc32)n(C)n1 (3D coordinates assigned)
Cc1cc(CN2C(=O)COc3cc(S(=O)(=O)c4ccccc4)ccc32)n(C)n1 (nonaromatic ring conformer: 84.53833655263993 kcal/mol)

>  <smiles>  (18) 
Cc1cc(CN2C(=O)COc3cc(S(=O)(=O)c4ccccc4)ccc32)n(C)n1

>  <score_type>  (18) 
oracle

>  <origin>  (18) 
adgpu

>  <m_score__min__energy>  (18) 
-10.130000000000001

>  <m_primary>  (18) 
energy

$$$$
18:0
     RDKit          3D

 36 37  0  0  0  0  0  0  0  0999 V2000
   -1.6640   23.7360  -29.3190 C   0  0  0  0  0  0  0  0  0  0  0  0
   -2.5090   24.9200  -29.3030 N   0  0  0  0  0  0  0  0  0  0  0  0
   -3.8520   24.9150  -29.7970 C   0  0  0  0  0  0  0  0  0  0  0  0
   -4.1080   25.3480  -30.9530 O   0  0  0  0  0  0  0  0  0  0  0  0
   -4.9520   24.3680  -28.9440 C   0  0  0  0  0  0  0  0  0  0  0  0
   -6.5640   24.5640  -29.7750 S   0  0  0  0  0  0  0  0  0  0  0  0
   -6.2590   23.2810  -30.9860 C   0  0  0  0  0  0  0  0  0  0  0  0
   -5.4900   23.4540  -32.0760 N   0  0  0  0  0  0  0  0  0  0  0  0
   -5.5070   22.2980  -32.7120 N   0  0  0  0  0  0  0  0  0  0  0  0
   -6.2760   21.4480  -32.0030 C   0  0  0  0  0  0  0  0  0  0  0  0
   -6.5840   20.0530  -32.3950 C   0  0  0  0  0  0  0  0  0  0  0  0
   -7.6870   19.4210  -31.8000 C   0  0  0  0  0  0  0  0  0  0  0  0
   -8.0270   18.1180  -32.1460 C   0  0  0  0  0  0  0  0  0  0  0  0
   -7.2720   17.4230  -33.0850 C   0  0  0  0  0  0  0  0  0  0  0  0
   -6.1460   18.0190  -33.6860 C   0  0  0  0  0  0  0  0  0  0  0  0
   -5.3810   17.3140  -34.6290 O   0  0  0  0  0  0  0  0  0  0  0  0
   -4.0400   16.8740  -34.4320 C   0  0  0  0  0  0  0  0  0  0  0  0
   -5.7850   19.3470  -33.3260 C   0  0  0  0  0  0  0  0  0  0  0  0
   -4.6430   19.9980  -33.8320 O   0  0  0  0  0  0  0  0  0  0  0  0
   -3.3700   20.1020  -33.2040 C   0  0  0  0  0  0  0  0  0  0  0  0
   -6.7830   22.0400  -30.9030 N   0  0  0  0  0  0  0  0  0  0  0  0
   -1.4444   23.4283  -28.2860 H   0  0  0  0  0  0  0  0  0  0  0  0
   -2.1854   22.9205  -29.8415 H   0  0  0  0  0  0  0  0  0  0  0  0
   -0.7233   23.9639  -29.8415 H   0  0  0  0  0  0  0  0  0  0  0  0
   -4.7684   23.2995  -28.7580 H   0  0  0  0  0  0  0  0  0  0  0  0
   -4.9728   24.9208  -27.9932 H   0  0  0  0  0  0  0  0  0  0  0  0
   -5.0330   22.1230  -33.6240 H   0  0  0  0  0  0  0  0  0  0  0  0
   -8.2877   19.9613  -31.0535 H   0  0  0  0  0  0  0  0  0  0  0  0
   -8.8961   17.6350  -31.6755 H   0  0  0  0  0  0  0  0  0  0  0  0
   -7.5572   16.3971  -33.3612 H   0  0  0  0  0  0  0  0  0  0  0  0
   -3.8312   16.8055  -33.3542 H   0  0  0  0  0  0  0  0  0  0  0  0
   -3.9068   15.8851  -34.8949 H   0  0  0  0  0  0  0  0  0  0  0  0
   -3.3468   17.5918  -34.8949 H   0  0  0  0  0  0  0  0  0  0  0  0
   -3.4981   20.0915  -32.1115 H   0  0  0  0  0  0  0  0  0  0  0  0
   -2.7409   19.2523  -33.5075 H   0  0  0  0  0  0  0  0  0  0  0  0
   -2.8871   21.0426  -33.5075 H   0  0  0  0  0  0  0  0  0  0  0  0
  1  2  1  0
  2  3  1  0
  3  4  2  0
  3  5  1  0
  5  6  1  0
  6  7  1  0
  7  8  2  0
  8  9  1  0
  9 10  1  0
 10 11  1  0
 11 12  2  0
 12 13  1  0
 13 14  2  0
 14 15  1  0
 15 16  1  0
 16 17  1  0
 15 18  2  0
 18 19  1  0
 19 20  1  0
 10 21  2  0
 21  7  1  0
 18 11  1  0
  1 22  1  0
  1 23  1  0
  1 24  1  0
  5 25  1  0
  5 26  1  0
  9 27  1  0
 12 28  1  0
 13 29  1  0
 14 30  1  0
 17 31  1  0
 17 32  1  0
 17 33  1  0
 20 34  1  0
 20 35  1  0
 20 36  1  0
M  CHG  1   2  -1
M  END
>  <UniqueID>  (19) 
18

>  <SMILES>  (19) 
C[N-]C(=O)CSc1n[nH]c(-c2cccc(OC)c2OC)n1

>  <Energy>  (19) 
67.10429845233863

>  <Genealogy>  (19) 
C[N-]C(=O)CSc1n[nH]c(-c2cccc(OC)c2OC)n1 (protonated)
C[N-]C(=O)CSc1n[nH]c(-c2cccc(OC)c2OC)n1 (3D coordinates assigned)
C[N-]C(=O)CSc1n[nH]c(-c2cccc(OC)c2OC)n1 (optimized conformer: 67.10429845233863 kcal/mol)

>  <smiles>  (19) 
CNC(=O)CSc1n[nH]c(-c2cccc(OC)c2OC)n1

>  <score_type>  (19) 
oracle

>  <origin>  (19) 
adgpu

>  <m_score__min__energy>  (19) 
-9.1899999999999995

>  <m_primary>  (19) 
energy

$$$$
19:0
     RDKit          3D

 52 54  0  0  0  0  0  0  0  0999 V2000
   -2.9960   18.3230  -33.6710 C   0  0  0  0  0  0  0  0  0  0  0  0
   -3.1710   19.7320  -33.7910 O   0  0  0  0  0  0  0  0  0  0  0  0
   -2.7800   20.6670  -32.8200 C   0  0  0  0  0  0  0  0  0  0  0  0
   -1.5170   20.6170  -32.1980 C   0  0  0  0  0  0  0  0  0  0  0  0
   -1.1620   21.5640  -31.2350 C   0  0  0  0  0  0  0  0  0  0  0  0
   -2.0640   22.5800  -30.8740 C   0  0  0  0  0  0  0  0  0  0  0  0
   -1.7460   23.5480  -29.8560 N   0  0  0  0  0  0  0  0  0  0  0  0
   -2.3840   23.5730  -28.5370 C   0  0  0  0  0  0  0  0  0  0  0  0
   -1.6110   24.4600  -27.5940 C   0  0  0  0  0  0  0  0  0  0  0  0
   -1.4780   24.0900  -26.2440 C   0  0  0  0  0  0  0  0  0  0  0  0
   -0.8080   24.9280  -25.3410 C   0  0  0  0  0  0  0  0  0  0  0  0
   -0.6680   24.5630  -24.0040 O   0  0  0  0  0  0  0  0  0  0  0  0
   -0.2770   26.1420  -25.7840 C   0  0  0  0  0  0  0  0  0  0  0  0
   -0.4150   26.5230  -27.1200 C   0  0  0  0  0  0  0  0  0  0  0  0
   -1.0860   25.6930  -28.0250 C   0  0  0  0  0  0  0  0  0  0  0  0
   -1.2330   26.1030  -29.3450 O   0  0  0  0  0  0  0  0  0  0  0  0
   -3.3120   22.6420  -31.5130 C   0  0  0  0  0  0  0  0  0  0  0  0
   -3.6800   21.6860  -32.4770 C   0  0  0  0  0  0  0  0  0  0  0  0
   -4.9430   21.6970  -33.0940 O   0  0  0  0  0  0  0  0  0  0  0  0
   -6.1600   22.0510  -32.4420 C   0  0  0  0  0  0  0  0  0  0  0  0
   -7.0620   20.8440  -32.3920 C   0  0  0  0  0  0  0  0  0  0  0  0
   -6.5400   19.5900  -32.7600 C   0  0  0  0  0  0  0  0  0  0  0  0
   -7.3430   18.4420  -32.7390 C   0  0  0  0  0  0  0  0  0  0  0  0
   -6.7520   17.1050  -33.0800 C   0  0  0  0  0  0  0  0  0  0  0  0
   -8.6790   18.5450  -32.3300 C   0  0  0  0  0  0  0  0  0  0  0  0
   -9.2170   19.7840  -31.9810 C   0  0  0  0  0  0  0  0  0  0  0  0
   -8.4260   20.9450  -32.0190 C   0  0  0  0  0  0  0  0  0  0  0  0
   -9.0450   22.2680  -31.6500 C   0  0  0  0  0  0  0  0  0  0  0  0
   -2.9617   18.0471  -32.6067 H   0  0  0  0  0  0  0  0  0  0  0  0
   -3.8369   17.8064  -34.1568 H   0  0  0  0  0  0  0  0  0  0  0  0
   -2.0543   18.0278  -34.1568 H   0  0  0  0  0  0  0  0  0  0  0  0
   -0.8045   19.8254  -32.4732 H   0  0  0  0  0  0  0  0  0  0  0  0
   -0.1725   21.5147  -30.7570 H   0  0  0  0  0  0  0  0  0  0  0  0
   -1.0620   24.3050  -30.0930 H   0  0  0  0  0  0  0  0  0  0  0  0
   -3.4094   23.9583  -28.6379 H   0  0  0  0  0  0  0  0  0  0  0  0
   -2.4016   22.5510  -28.1306 H   0  0  0  0  0  0  0  0  0  0  0  0
   -1.9021   23.1373  -25.8940 H   0  0  0  0  0  0  0  0  0  0  0  0
    0.2320   24.5850  -23.5410 H   0  0  0  0  0  0  0  0  0  0  0  0
    0.2514   26.7996  -25.0780 H   0  0  0  0  0  0  0  0  0  0  0  0
    0.0056   27.4799  -27.4628 H   0  0  0  0  0  0  0  0  0  0  0  0
   -4.0127   23.4501  -31.2562 H   0  0  0  0  0  0  0  0  0  0  0  0
   -5.9440   22.3921  -31.4188 H   0  0  0  0  0  0  0  0  0  0  0  0
   -6.6556   22.8613  -32.9968 H   0  0  0  0  0  0  0  0  0  0  0  0
   -5.4871   19.5100  -33.0684 H   0  0  0  0  0  0  0  0  0  0  0  0
   -6.5124   16.5629  -32.1533 H   0  0  0  0  0  0  0  0  0  0  0  0
   -7.4767   16.5230  -33.6683 H   0  0  0  0  0  0  0  0  0  0  0  0
   -5.8338   17.2493  -33.6683 H   0  0  0  0  0  0  0  0  0  0  0  0
   -9.3076   17.6435  -32.2838 H   0  0  0  0  0  0  0  0  0  0  0  0
  -10.2708   19.8529  -31.6730 H   0  0  0  0  0  0  0  0  0  0  0  0
   -9.0880   22.3599  -30.5547 H   0  0  0  0  0  0  0  0  0  0  0  0
   -8.4360   23.0857  -32.0629 H   0  0  0  0  0  0  0  0  0  0  0  0
  -10.0630   22.3244  -32.0629 H   0  0  0  0  0  0  0  0  0  0  0  0
  1  2  1  0
  2  3  1  0
  3  4  2  0
  4  5  1  0
  5  6  2  0
  6  7  1  0
  7  8  1  0
  8  9  1  0
  9 10  2  0
 10 11  1  0
 11 12  1  0
 11 13  2  0
 13 14  1  0
 14 15  2  0
 15 16  1  0
  6 17  1  0
 17 18  2  0
 18 19  1  0
 19 20  1  0
 20 21  1  0
 21 22  2  0
 22 23  1  0
 23 24  1  0
 23 25  2  0
 25 26  1  0
 26 27  2  0
 27 28  1  0
 18  3  1  0
 27 21  1  0
 15  9  1  0
  1 29  1  0
  1 30  1  0
  1 31  1  0
  4 32  1  0
  5 33  1  0
  7 34  1  0
  8 35  1  0
  8 36  1  0
 10 37  1  0
 12 38  1  0
 13 39  1  0
 14 40  1  0
 17 41  1  0
 20 42  1  0
 20 43  1  0
 22 44  1  0
 24 45  1  0
 24 46  1  0
 24 47  1  0
 25 48  1  0
 26 49  1  0
 28 50  1  0
 28 51  1  0
 28 52  1  0
M  CHG  1  16  -1
M  END
>  <UniqueID>  (20) 
19

>  <SMILES>  (20) 
COc1ccc(NCc2cc(O)ccc2[O-])cc1OCc1cc(C)ccc1C

>  <Energy>  (20) 
55.36179838778013

>  <Genealogy>  (20) 
COc1ccc(NCc2cc(O)ccc2[O-])cc1OCc1cc(C)ccc1C (protonated)
COc1ccc(NCc2cc(O)ccc2[O-])cc1OCc1cc(C)ccc1C (3D coordinates assigned)
COc1ccc(NCc2cc(O)ccc2[O-])cc1OCc1cc(C)ccc1C (optimized conformer: 55.36179838778013 kcal/mol)

>  <smiles>  (20) 
COc1ccc(NCc2cc(O)ccc2O)cc1OCc1cc(C)ccc1C

>  <score_type>  (20) 
oracle

>  <origin>  (20) 
adgpu

>  <m_score__min__energy>  (20) 
-12.359999999999999

>  <m_primary>  (20) 
energy

$$$$
20:0
     RDKit          3D

 64 68  0  0  0  0  0  0  0  0999 V2000
    0.6120   23.1370  -24.4240 C   0  0  0  0  0  0  0  0  0  0  0  0
    1.4320   24.2630  -24.5660 O   0  0  0  0  0  0  0  0  0  0  0  0
    0.9760   25.5460  -24.4830 C   0  0  0  0  0  0  0  0  0  0  0  0
    1.2090   26.3470  -23.4130 N   0  0  0  0  0  0  0  0  0  0  0  0
    0.7430   27.6180  -23.3590 C   0  0  0  0  0  0  0  0  0  0  0  0
    1.0060   28.3200  -22.3050 N   0  0  0  0  0  0  0  0  0  0  0  0
    0.0190   28.1590  -24.3710 N   0  0  0  0  0  0  0  0  0  0  0  0
   -0.2380   27.4020  -25.4560 C   0  0  0  0  0  0  0  0  0  0  0  0
   -0.9310   27.9010  -26.4390 N   0  0  0  0  0  0  0  0  0  0  0  0
    0.2440   26.0880  -25.5100 C   0  0  0  0  0  0  0  0  0  0  0  0
   -0.0950   25.3550  -26.7320 C   0  0  0  0  0  0  0  0  0  0  0  0
   -1.2860   25.1280  -27.2910 N   0  0  0  0  0  0  0  0  0  0  0  0
   -1.1570   24.4060  -28.4210 C   0  0  0  0  0  0  0  0  0  0  0  0
   -2.2260   23.9650  -29.3090 C   0  0  0  0  0  0  0  0  0  0  0  0
   -3.4710   24.5470  -29.2210 C   0  0  0  0  0  0  0  0  0  0  0  0
   -4.4830   24.1220  -30.0650 C   0  0  0  0  0  0  0  0  0  0  0  0
   -4.3360   23.1400  -31.0070 C   0  0  0  0  0  0  0  0  0  0  0  0
   -5.2380   22.6520  -31.8720 O   0  0  0  0  0  0  0  0  0  0  0  0
   -6.5640   22.3850  -31.7190 C   0  0  0  0  0  0  0  0  0  0  0  0
   -6.9460   21.0150  -32.0550 C   0  0  0  0  0  0  0  0  0  0  0  0
   -6.1160   19.9930  -32.4280 C   0  0  0  0  0  0  0  0  0  0  0  0
   -6.5300   18.7100  -32.7040 C   0  0  0  0  0  0  0  0  0  0  0  0
   -5.5790   17.7300  -33.0750 N   0  0  0  0  0  0  0  0  0  0  0  0
   -5.9760   16.3530  -33.4310 C   0  0  0  0  0  0  0  0  0  0  0  0
   -4.8790   15.7170  -34.2630 C   0  0  0  0  0  0  0  0  0  0  0  0
   -4.2690   16.6120  -35.1100 O   0  0  0  0  0  0  0  0  0  0  0  0
   -3.7300   17.7330  -34.5630 C   0  0  0  0  0  0  0  0  0  0  0  0
   -4.1450   17.9740  -33.1360 C   0  0  0  0  0  0  0  0  0  0  0  0
   -7.8730   18.4420  -32.5960 C   0  0  0  0  0  0  0  0  0  0  0  0
   -8.7790   19.4300  -32.2230 C   0  0  0  0  0  0  0  0  0  0  0  0
   -8.3080   20.6960  -31.9580 C   0  0  0  0  0  0  0  0  0  0  0  0
   -9.4870   21.9050  -31.4910 Cl  0  0  0  0  0  0  0  0  0  0  0  0
   -3.0430   22.5680  -31.0660 C   0  0  0  0  0  0  0  0  0  0  0  0
   -2.6930   21.2930  -32.2220 Cl  0  0  0  0  0  0  0  0  0  0  0  0
   -2.0350   22.9860  -30.2310 C   0  0  0  0  0  0  0  0  0  0  0  0
    0.1610   24.1820  -28.5610 N   0  0  0  0  0  0  0  0  0  0  0  0
    0.8160   24.7540  -27.5390 N   0  0  0  0  0  0  0  0  0  0  0  0
    2.2490   24.6850  -27.4120 C   0  0  0  0  0  0  0  0  0  0  0  0
    0.4592   22.9272  -23.3551 H   0  0  0  0  0  0  0  0  0  0  0  0
   -0.3597   23.3283  -24.9027 H   0  0  0  0  0  0  0  0  0  0  0  0
    1.0923   22.2709  -24.9027 H   0  0  0  0  0  0  0  0  0  0  0  0
    1.7570   25.9970  -22.6010 H   0  0  0  0  0  0  0  0  0  0  0  0
    0.6560   29.3010  -22.2450 H   0  0  0  0  0  0  0  0  0  0  0  0
   -0.3360   29.1470  -24.3160 H   0  0  0  0  0  0  0  0  0  0  0  0
   -1.1670   27.3840  -27.2980 H   0  0  0  0  0  0  0  0  0  0  0  0
   -3.6600   25.3433  -28.4860 H   0  0  0  0  0  0  0  0  0  0  0  0
   -5.4674   24.6041  -29.9726 H   0  0  0  0  0  0  0  0  0  0  0  0
   -6.8333   22.5696  -30.6686 H   0  0  0  0  0  0  0  0  0  0  0  0
   -7.0997   23.0416  -32.4204 H   0  0  0  0  0  0  0  0  0  0  0  0
   -5.0415   20.2126  -32.5133 H   0  0  0  0  0  0  0  0  0  0  0  0
   -6.1295   15.7656  -32.5137 H   0  0  0  0  0  0  0  0  0  0  0  0
   -6.9118   16.3759  -34.0087 H   0  0  0  0  0  0  0  0  0  0  0  0
   -4.1196   15.3005  -33.5849 H   0  0  0  0  0  0  0  0  0  0  0  0
   -5.3429   14.9358  -34.8831 H   0  0  0  0  0  0  0  0  0  0  0  0
   -2.6343   17.6417  -34.5946 H   0  0  0  0  0  0  0  0  0  0  0  0
   -4.0992   18.5856  -35.1519 H   0  0  0  0  0  0  0  0  0  0  0  0
   -3.6134   17.2842  -32.4641 H   0  0  0  0  0  0  0  0  0  0  0  0
   -3.9024   18.9991  -32.8192 H   0  0  0  0  0  0  0  0  0  0  0  0
   -8.2392   17.4268  -32.8085 H   0  0  0  0  0  0  0  0  0  0  0  0
   -9.8523   19.2035  -32.1414 H   0  0  0  0  0  0  0  0  0  0  0  0
   -1.0446   22.5141  -30.3115 H   0  0  0  0  0  0  0  0  0  0  0  0
    2.5225   24.6718  -26.3466 H   0  0  0  0  0  0  0  0  0  0  0  0
    2.6163   23.7681  -27.8962 H   0  0  0  0  0  0  0  0  0  0  0  0
    2.7027   25.5623  -27.8962 H   0  0  0  0  0  0  0  0  0  0  0  0
  1  2  1  0
  2  3  1  0
  3  4  1  0
  4  5  1  0
  5  6  2  3
  5  7  1  0
  7  8  1  0
  8  9  2  3
  8 10  1  0
 10 11  1  0
 11 12  2  0
 12 13  1  0
 13 14  1  0
 14 15  2  0
 15 16  1  0
 16 17  2  0
 17 18  1  0
 18 19  1  0
 19 20  1  0
 20 21  2  0
 21 22  1  0
 22 23  1  0
 23 24  1  0
 24 25  1  0
 25 26  1  0
 26 27  1  0
 27 28  1  0
 22 29  2  0
 29 30  1  0
 30 31  2  0
 31 32  1  0
 17 33  1  0
 33 34  1  0
 33 35  2  0
 13 36  2  0
 36 37  1  0
 37 38  1  0
 10  3  2  0
 37 11  1  0
 35 14  1  0
 31 20  1  0
 28 23  1  0
  1 39  1  0
  1 40  1  0
  1 41  1  0
  4 42  1  0
  6 43  1  0
  7 44  1  0
  9 45  1  0
 15 46  1  0
 16 47  1  0
 19 48  1  0
 19 49  1  0
 21 50  1  0
 24 51  1  0
 24 52  1  0
 25 53  1  0
 25 54  1  0
 27 55  1  0
 27 56  1  0
 28 57  1  0
 28 58  1  0
 29 59  1  0
 30 60  1  0
 35 61  1  0
 38 62  1  0
 38 63  1  0
 38 64  1  0
M  END
>  <smiles>  (21) 
COc1[nH]c(=N)[nH]c(=N)c1-c1nc(-c2ccc(OCc3cc(N4CCOCC4)ccc3Cl)c(Cl)c2)nn1C

>  <score_type>  (21) 
oracle

>  <origin>  (21) 
adgpu

>  <m_score__min__energy>  (21) 
-10.77

>  <m_primary>  (21) 
energy

$$$$
21:0
     RDKit          3D

 47 48  0  0  0  0  0  0  0  0999 V2000
   -4.1910   24.6880  -26.6630 C   0  0  0  0  0  0  0  0  0  0  0  0
   -3.3370   24.5270  -27.9190 C   0  0  0  0  0  0  0  0  0  0  0  0
   -3.9900   23.6120  -28.8760 N   0  0  0  0  0  0  0  0  0  0  0  0
   -3.0090   22.9140  -29.7350 C   0  0  0  0  0  0  0  0  0  0  0  0
   -3.1670   21.4050  -29.5930 C   0  0  0  0  0  0  0  0  0  0  0  0
   -5.1470   24.4980  -29.8490 S   0  0  0  0  0  0  0  0  0  0  0  0
   -5.8840   25.4920  -28.9950 O   0  0  0  0  0  0  0  0  0  0  0  0
   -4.4130   25.2620  -30.9170 O   0  0  0  0  0  0  0  0  0  0  0  0
   -6.3130   23.4150  -30.6180 C   0  0  0  0  0  0  0  0  0  0  0  0
   -6.2930   23.2320  -32.0070 C   0  0  0  0  0  0  0  0  0  0  0  0
   -7.2330   22.4010  -32.6230 C   0  0  0  0  0  0  0  0  0  0  0  0
   -8.2110   21.7410  -31.8540 C   0  0  0  0  0  0  0  0  0  0  0  0
   -9.1840   20.9040  -32.4240 O   0  0  0  0  0  0  0  0  0  0  0  0
   -9.0630   19.4900  -32.5830 C   0  0  0  0  0  0  0  0  0  0  0  0
   -7.6180   19.1030  -32.6330 C   0  0  0  0  0  0  0  0  0  0  0  0
   -7.0910   18.5190  -31.6460 O   0  0  0  0  0  0  0  0  0  0  0  0
   -6.8510   19.3650  -33.8120 N   0  0  0  0  0  0  0  0  0  0  0  0
   -5.6840   18.5660  -34.1690 C   0  0  0  0  0  0  0  0  0  0  0  0
   -4.4410   19.3220  -33.8310 C   0  0  0  0  0  0  0  0  0  0  0  0
   -4.3800   20.4900  -33.0960 C   0  0  0  0  0  0  0  0  0  0  0  0
   -3.0390   20.7930  -32.9990 C   0  0  0  0  0  0  0  0  0  0  0  0
   -2.3670   19.7950  -33.6780 C   0  0  0  0  0  0  0  0  0  0  0  0
   -3.2300   18.9310  -34.1600 O   0  0  0  0  0  0  0  0  0  0  0  0
   -8.2240   21.9260  -30.4670 C   0  0  0  0  0  0  0  0  0  0  0  0
   -7.2830   22.7560  -29.8500 C   0  0  0  0  0  0  0  0  0  0  0  0
   -3.5579   24.5687  -25.7714 H   0  0  0  0  0  0  0  0  0  0  0  0
   -4.6487   25.6882  -26.6565 H   0  0  0  0  0  0  0  0  0  0  0  0
   -4.9815   23.9231  -26.6565 H   0  0  0  0  0  0  0  0  0  0  0  0
   -3.2021   25.5103  -28.3932 H   0  0  0  0  0  0  0  0  0  0  0  0
   -2.3617   24.1058  -27.6338 H   0  0  0  0  0  0  0  0  0  0  0  0
   -3.1759   23.1999  -30.7840 H   0  0  0  0  0  0  0  0  0  0  0  0
   -1.9928   23.1998  -29.4257 H   0  0  0  0  0  0  0  0  0  0  0  0
   -3.1950   21.1380  -28.5263 H   0  0  0  0  0  0  0  0  0  0  0  0
   -4.1033   21.0874  -30.0751 H   0  0  0  0  0  0  0  0  0  0  0  0
   -2.3168   20.9003  -30.0751 H   0  0  0  0  0  0  0  0  0  0  0  0
   -5.5338   23.7449  -32.6157 H   0  0  0  0  0  0  0  0  0  0  0  0
   -7.2088   22.2618  -33.7139 H   0  0  0  0  0  0  0  0  0  0  0  0
   -9.5463   18.9851  -31.7336 H   0  0  0  0  0  0  0  0  0  0  0  0
   -9.5505   19.1889  -33.5220 H   0  0  0  0  0  0  0  0  0  0  0  0
   -7.2830   19.9500  -34.5660 H   0  0  0  0  0  0  0  0  0  0  0  0
   -5.7018   17.6199  -33.6081 H   0  0  0  0  0  0  0  0  0  0  0  0
   -5.7016   18.3528  -35.2480 H   0  0  0  0  0  0  0  0  0  0  0  0
   -5.2234   21.0582  -32.6767 H   0  0  0  0  0  0  0  0  0  0  0  0
   -2.5930   21.6566  -32.4840 H   0  0  0  0  0  0  0  0  0  0  0  0
   -1.2751   19.7336  -33.7967 H   0  0  0  0  0  0  0  0  0  0  0  0
   -8.9818   21.4135  -29.8562 H   0  0  0  0  0  0  0  0  0  0  0  0
   -7.3039   22.8922  -28.7587 H   0  0  0  0  0  0  0  0  0  0  0  0
  1  2  1  0
  2  3  1  0
  3  4  1  0
  4  5  1  0
  3  6  1  0
  6  7  2  0
  6  8  2  0
  6  9  1  0
  9 10  2  0
 10 11  1  0
 11 12  2  0
 12 13  1  0
 13 14  1  0
 14 15  1  0
 15 16  2  0
 15 17  1  0
 17 18  1  0
 18 19  1  0
 19 20  2  0
 20 21  1  0
 21 22  2  0
 22 23  1  0
 12 24  1  0
 24 25  2  0
 25  9  1  0
 23 19  1  0
  1 26  1  0
  1 27  1  0
  1 28  1  0
  2 29  1  0
  2 30  1  0
  4 31  1  0
  4 32  1  0
  5 33  1  0
  5 34  1  0
  5 35  1  0
 10 36  1  0
 11 37  1  0
 14 38  1  0
 14 39  1  0
 17 40  1  0
 18 41  1  0
 18 42  1  0
 20 43  1  0
 21 44  1  0
 22 45  1  0
 24 46  1  0
 25 47  1  0
M  END
>  <UniqueID>  (22) 
20

>  <SMILES>  (22) 
CCN(CC)S(=O)(=O)c1ccc(OCC(=O)NCc2ccco2)cc1

>  <Energy>  (22) 
61.93871021492768

>  <Genealogy>  (22) 
CCN(CC)S(=O)(=O)c1ccc(OCC(=O)NCc2ccco2)cc1 (3D coordinates assigned)
CCN(CC)S(=O)(=O)c1ccc(OCC(=O)NCc2ccco2)cc1 (optimized conformer: 61.93871021492768 kcal/mol)

>  <smiles>  (22) 
CCN(CC)S(=O)(=O)c1ccc(OCC(=O)NCc2ccco2)cc1

>  <score_type>  (22) 
oracle

>  <origin>  (22) 
adgpu

>  <m_score__min__energy>  (22) 
-8.3599999999999994

>  <m_primary>  (22) 
energy

$$$$
22:0
     RDKit          3D

 50 53  0  0  0  0  0  0  0  0999 V2000
   -0.1050   26.9750  -23.0570 C   0  0  0  0  0  0  0  0  0  0  0  0
   -1.1150   27.1040  -24.2040 C   0  0  0  0  0  0  0  0  0  0  0  0
   -0.8200   28.3380  -25.0640 C   0  0  0  0  0  0  0  0  0  0  0  0
   -1.1500   25.8440  -25.0490 C   0  0  0  0  0  0  0  0  0  0  0  0
   -0.4490   24.7010  -24.6310 C   0  0  0  0  0  0  0  0  0  0  0  0
   -0.4880   23.5310  -25.3900 C   0  0  0  0  0  0  0  0  0  0  0  0
   -1.2180   23.4890  -26.5790 C   0  0  0  0  0  0  0  0  0  0  0  0
   -1.9150   24.6230  -27.0280 C   0  0  0  0  0  0  0  0  0  0  0  0
   -2.6860   24.5560  -28.2930 C   0  0  0  0  0  0  0  0  0  0  0  0
   -2.2090   25.0970  -29.3270 O   0  0  0  0  0  0  0  0  0  0  0  0
   -3.9580   23.8810  -28.3550 N   0  0  0  0  0  0  0  0  0  0  0  0
   -4.7860   23.8380  -29.5300 C   0  0  0  0  0  0  0  0  0  0  0  0
   -5.3190   25.0100  -30.0920 C   0  0  0  0  0  0  0  0  0  0  0  0
   -6.1400   24.9390  -31.2200 C   0  0  0  0  0  0  0  0  0  0  0  0
   -6.4470   23.7010  -31.7890 C   0  0  0  0  0  0  0  0  0  0  0  0
   -5.9450   22.5140  -31.2260 C   0  0  0  0  0  0  0  0  0  0  0  0
   -6.2830   21.1960  -31.8210 C   0  0  0  0  0  0  0  0  0  0  0  0
   -7.5310   20.5980  -31.5680 C   0  0  0  0  0  0  0  0  0  0  0  0
   -7.8540   19.3580  -32.1250 C   0  0  0  0  0  0  0  0  0  0  0  0
   -6.9350   18.6970  -32.9440 C   0  0  0  0  0  0  0  0  0  0  0  0
   -7.2480   17.4890  -33.4870 N   0  0  0  0  0  0  0  0  0  0  0  0
   -6.3780   16.8170  -34.2870 C   0  0  0  0  0  0  0  0  0  0  0  0
   -5.1230   17.3620  -34.5720 C   0  0  0  0  0  0  0  0  0  0  0  0
   -4.7710   18.6000  -34.0290 C   0  0  0  0  0  0  0  0  0  0  0  0
   -5.6790   19.2830  -33.2070 C   0  0  0  0  0  0  0  0  0  0  0  0
   -5.3590   20.5270  -32.6470 C   0  0  0  0  0  0  0  0  0  0  0  0
   -5.1200   22.5960  -30.0890 C   0  0  0  0  0  0  0  0  0  0  0  0
   -1.8860   25.7940  -26.2500 C   0  0  0  0  0  0  0  0  0  0  0  0
   -0.6329   27.0424  -22.0943 H   0  0  0  0  0  0  0  0  0  0  0  0
    0.4073   26.0041  -23.1270 H   0  0  0  0  0  0  0  0  0  0  0  0
    0.6349   27.7859  -23.1270 H   0  0  0  0  0  0  0  0  0  0  0  0
   -2.1120   27.2357  -23.7584 H   0  0  0  0  0  0  0  0  0  0  0  0
   -0.6141   29.1991  -24.4113 H   0  0  0  0  0  0  0  0  0  0  0  0
    0.0565   28.1414  -25.6990 H   0  0  0  0  0  0  0  0  0  0  0  0
   -1.6906   28.5591  -25.6990 H   0  0  0  0  0  0  0  0  0  0  0  0
    0.1347   24.7284  -23.6990 H   0  0  0  0  0  0  0  0  0  0  0  0
    0.0583   22.6387  -25.0503 H   0  0  0  0  0  0  0  0  0  0  0  0
   -1.2477   22.5610  -27.1688 H   0  0  0  0  0  0  0  0  0  0  0  0
   -4.2890   23.3410  -27.5260 H   0  0  0  0  0  0  0  0  0  0  0  0
   -5.0890   25.9871  -29.6422 H   0  0  0  0  0  0  0  0  0  0  0  0
   -6.5460   25.8611  -31.6615 H   0  0  0  0  0  0  0  0  0  0  0  0
   -7.0856   23.6541  -32.6834 H   0  0  0  0  0  0  0  0  0  0  0  0
   -8.2603   21.1122  -30.9248 H   0  0  0  0  0  0  0  0  0  0  0  0
   -8.8332   18.9015  -31.9184 H   0  0  0  0  0  0  0  0  0  0  0  0
   -6.6624   15.8425  -34.7107 H   0  0  0  0  0  0  0  0  0  0  0  0
   -4.4176   16.8201  -35.2191 H   0  0  0  0  0  0  0  0  0  0  0  0
   -3.7852   19.0375  -34.2454 H   0  0  0  0  0  0  0  0  0  0  0  0
   -4.3800   20.9839  -32.8538 H   0  0  0  0  0  0  0  0  0  0  0  0
   -4.7319   21.6735  -29.6325 H   0  0  0  0  0  0  0  0  0  0  0  0
   -2.4443   26.6815  -26.5826 H   0  0  0  0  0  0  0  0  0  0  0  0
  1  2  1  0
  2  3  1  0
  2  4  1  0
  4  5  2  0
  5  6  1  0
  6  7  2  0
  7  8  1  0
  8  9  1  0
  9 10  2  0
  9 11  1  0
 11 12  1  0
 12 13  2  0
 13 14  1  0
 14 15  2  0
 15 16  1  0
 16 17  1  0
 17 18  2  0
 18 19  1  0
 19 20  2  0
 20 21  1  0
 21 22  2  0
 22 23  1  0
 23 24  2  0
 24 25  1  0
 25 26  2  0
 16 27  2  0
  8 28  2  0
 28  4  1  0
 27 12  1  0
 26 17  1  0
 25 20  1  0
  1 29  1  0
  1 30  1  0
  1 31  1  0
  2 32  1  0
  3 33  1  0
  3 34  1  0
  3 35  1  0
  5 36  1  0
  6 37  1  0
  7 38  1  0
 11 39  1  0
 13 40  1  0
 14 41  1  0
 15 42  1  0
 18 43  1  0
 19 44  1  0
 22 45  1  0
 23 46  1  0
 24 47  1  0
 26 48  1  0
 27 49  1  0
 28 50  1  0
M  END
>  <UniqueID>  (23) 
21

>  <SMILES>  (23) 
CC(C)c1cccc(C(=O)Nc2cccc(-c3ccc4ncccc4c3)c2)c1

>  <Energy>  (23) 
66.4551898616699

>  <Genealogy>  (23) 
CC(C)c1cccc(C(=O)Nc2cccc(-c3ccc4ncccc4c3)c2)c1 (3D coordinates assigned)
CC(C)c1cccc(C(=O)Nc2cccc(-c3ccc4ncccc4c3)c2)c1 (optimized conformer: 66.4551898616699 kcal/mol)

>  <smiles>  (23) 
CC(C)c1cccc(C(=O)Nc2cccc(-c3ccc4ncccc4c3)c2)c1

>  <score_type>  (23) 
oracle

>  <origin>  (23) 
adgpu

>  <m_score__min__energy>  (23) 
-10.380000000000001

>  <m_primary>  (23) 
energy

$$$$
23:0
     RDKit          3D

 58 60  0  0  0  0  0  0  0  0999 V2000
   -0.8620   21.3690  -27.3250 C   0  0  0  0  0  0  0  0  0  0  0  0
   -1.5850   22.4330  -28.1030 C   0  0  0  0  0  0  0  0  0  0  0  0
   -2.5500   22.0250  -29.0420 C   0  0  0  0  0  0  0  0  0  0  0  0
   -3.2300   22.9590  -29.8230 C   0  0  0  0  0  0  0  0  0  0  0  0
   -2.9770   24.3210  -29.6660 C   0  0  0  0  0  0  0  0  0  0  0  0
   -3.7010   25.2690  -30.4600 N   0  0  0  0  0  0  0  0  0  0  0  0
   -5.1300   25.2930  -30.5690 C   0  0  0  0  0  0  0  0  0  0  0  0
   -5.7380   26.3900  -30.4370 O   0  0  0  0  0  0  0  0  0  0  0  0
   -5.8920   24.0720  -30.9080 C   0  0  0  0  0  0  0  0  0  0  0  0
   -5.7690   23.4780  -32.1730 C   0  0  0  0  0  0  0  0  0  0  0  0
   -6.4940   22.3230  -32.4830 C   0  0  0  0  0  0  0  0  0  0  0  0
   -7.3260   21.7320  -31.5220 C   0  0  0  0  0  0  0  0  0  0  0  0
   -8.2120   20.2590  -31.9090 S   0  0  0  0  0  0  0  0  0  0  0  0
   -9.0850   19.8840  -30.7430 O   0  0  0  0  0  0  0  0  0  0  0  0
   -9.1100   20.4900  -33.0970 O   0  0  0  0  0  0  0  0  0  0  0  0
   -7.1040   18.9600  -32.2580 N   0  0  0  0  0  0  0  0  0  0  0  0
   -7.6310   17.5990  -32.3610 C   0  0  0  0  0  0  0  0  0  0  0  0
   -5.7110   19.2320  -32.5350 C   0  0  0  0  0  0  0  0  0  0  0  0
   -4.8790   19.8050  -31.5530 C   0  0  0  0  0  0  0  0  0  0  0  0
   -3.5320   20.0620  -31.8220 C   0  0  0  0  0  0  0  0  0  0  0  0
   -2.9990   19.7600  -33.0790 C   0  0  0  0  0  0  0  0  0  0  0  0
   -3.8110   19.1940  -34.0620 C   0  0  0  0  0  0  0  0  0  0  0  0
   -5.1590   18.9380  -33.7970 C   0  0  0  0  0  0  0  0  0  0  0  0
   -7.4330   22.3130  -30.2530 C   0  0  0  0  0  0  0  0  0  0  0  0
   -6.7300   23.4780  -29.9490 C   0  0  0  0  0  0  0  0  0  0  0  0
   -1.9960   24.7410  -28.7590 C   0  0  0  0  0  0  0  0  0  0  0  0
   -1.2800   23.8160  -27.9830 C   0  0  0  0  0  0  0  0  0  0  0  0
   -0.0060   24.4610  -26.9210 S   0  0  0  0  0  0  0  0  0  0  0  0
    0.8540   25.3950  -27.7280 O   0  0  0  0  0  0  0  0  0  0  0  0
    0.8860   23.3600  -26.4160 O   0  0  0  0  0  0  0  0  0  0  0  0
   -0.6680   25.3390  -25.5650 N   0  0  0  0  0  0  0  0  0  0  0  0
   -2.1020   25.5970  -25.7660 C   0  0  0  0  0  0  0  0  0  0  0  0
   -0.4480   24.6050  -24.3110 C   0  0  0  0  0  0  0  0  0  0  0  0
   -0.9873   21.5534  -26.2478 H   0  0  0  0  0  0  0  0  0  0  0  0
   -1.2777   20.3827  -27.5790 H   0  0  0  0  0  0  0  0  0  0  0  0
    0.2080   21.3923  -27.5790 H   0  0  0  0  0  0  0  0  0  0  0  0
   -2.7712   20.9542  -29.1618 H   0  0  0  0  0  0  0  0  0  0  0  0
   -3.9680   22.6202  -30.5650 H   0  0  0  0  0  0  0  0  0  0  0  0
   -5.0995   23.9226  -32.9241 H   0  0  0  0  0  0  0  0  0  0  0  0
   -6.4111   21.8765  -33.4849 H   0  0  0  0  0  0  0  0  0  0  0  0
   -7.7894   17.1898  -31.3523 H   0  0  0  0  0  0  0  0  0  0  0  0
   -8.5874   17.6163  -32.9041 H   0  0  0  0  0  0  0  0  0  0  0  0
   -6.9123   16.9676  -32.9041 H   0  0  0  0  0  0  0  0  0  0  0  0
   -5.2938   20.0525  -30.5647 H   0  0  0  0  0  0  0  0  0  0  0  0
   -2.8905   20.5022  -31.0444 H   0  0  0  0  0  0  0  0  0  0  0  0
   -1.9403   19.9686  -33.2925 H   0  0  0  0  0  0  0  0  0  0  0  0
   -3.3893   18.9487  -35.0479 H   0  0  0  0  0  0  0  0  0  0  0  0
   -5.7952   18.5026  -34.5817 H   0  0  0  0  0  0  0  0  0  0  0  0
   -8.0756   21.8476  -29.4911 H   0  0  0  0  0  0  0  0  0  0  0  0
   -6.8318   23.9345  -28.9534 H   0  0  0  0  0  0  0  0  0  0  0  0
   -1.7828   25.8149  -28.6528 H   0  0  0  0  0  0  0  0  0  0  0  0
   -0.1690   26.2620  -25.5050 H   0  0  0  0  0  0  0  0  0  0  0  0
   -2.5990   25.6864  -24.7887 H   0  0  0  0  0  0  0  0  0  0  0  0
   -2.2307   26.5327  -26.3298 H   0  0  0  0  0  0  0  0  0  0  0  0
   -2.5488   24.7648  -26.3298 H   0  0  0  0  0  0  0  0  0  0  0  0
   -0.6472   25.2696  -23.4574 H   0  0  0  0  0  0  0  0  0  0  0  0
   -1.1264   23.7402  -24.2685 H   0  0  0  0  0  0  0  0  0  0  0  0
    0.5943   24.2559  -24.2685 H   0  0  0  0  0  0  0  0  0  0  0  0
  1  2  1  0
  2  3  2  0
  3  4  1  0
  4  5  2  0
  5  6  1  0
  6  7  1  0
  7  8  2  0
  7  9  1  0
  9 10  2  0
 10 11  1  0
 11 12  2  0
 12 13  1  0
 13 14  2  0
 13 15  2  0
 13 16  1  0
 16 17  1  0
 16 18  1  0
 18 19  2  0
 19 20  1  0
 20 21  2  0
 21 22  1  0
 22 23  2  0
 12 24  1  0
 24 25  2  0
  5 26  1  0
 26 27  2  0
 27 28  1  0
 28 29  2  0
 28 30  2  0
 28 31  1  0
 31 32  1  0
 31 33  1  0
 27  2  1  0
 25  9  1  0
 23 18  1  0
  1 34  1  0
  1 35  1  0
  1 36  1  0
  3 37  1  0
  4 38  1  0
 10 39  1  0
 11 40  1  0
 17 41  1  0
 17 42  1  0
 17 43  1  0
 19 44  1  0
 20 45  1  0
 21 46  1  0
 22 47  1  0
 23 48  1  0
 24 49  1  0
 25 50  1  0
 26 51  1  0
 31 52  1  0
 32 53  1  0
 32 54  1  0
 32 55  1  0
 33 56  1  0
 33 57  1  0
 33 58  1  0
M  CHG  2   6  -1  31   1
M  END
>  <UniqueID>  (24) 
22

>  <SMILES>  (24) 
Cc1ccc([N-]C(=O)c2ccc(S(=O)(=O)N(C)c3ccccc3)cc2)cc1S(=O)(=O)[NH+](C)C

>  <Energy>  (24) 
66.40001049101745

>  <Genealogy>  (24) 
Cc1ccc([N-]C(=O)c2ccc(S(=O)(=O)N(C)c3ccccc3)cc2)cc1S(=O)(=O)[NH+](C)C (protonated)
Cc1ccc([N-]C(=O)c2ccc(S(=O)(=O)N(C)c3ccccc3)cc2)cc1S(=O)(=O)[NH+](C)C (3D coordinates assigned)
Cc1ccc([N-]C(=O)c2ccc(S(=O)(=O)N(C)c3ccccc3)cc2)cc1S(=O)(=O)[NH+](C)C (optimized conformer: 66.40001049101745 kcal/mol)

>  <smiles>  (24) 
Cc1ccc(NC(=O)c2ccc(S(=O)(=O)N(C)c3ccccc3)cc2)cc1S(=O)(=O)N(C)C

>  <score_type>  (24) 
oracle

>  <origin>  (24) 
adgpu

>  <m_score__min__energy>  (24) 
-11.75

>  <m_primary>  (24) 
energy

$$$$
24:0
     RDKit          3D

 51 53  0  0  0  0  0  0  0  0999 V2000
   -3.0930   18.8830  -25.7300 C   0  0  0  0  0  0  0  0  0  0  0  0
   -2.3910   19.4960  -26.9050 C   0  0  0  0  0  0  0  0  0  0  0  0
   -1.2970   18.8460  -27.4930 C   0  0  0  0  0  0  0  0  0  0  0  0
   -0.6190   19.4360  -28.5600 C   0  0  0  0  0  0  0  0  0  0  0  0
   -1.0030   20.6970  -29.0470 C   0  0  0  0  0  0  0  0  0  0  0  0
   -0.2100   21.2770  -30.1860 C   0  0  0  0  0  0  0  0  0  0  0  0
   -2.1000   21.3680  -28.4490 C   0  0  0  0  0  0  0  0  0  0  0  0
   -2.5590   22.6500  -28.9210 N   0  0  0  0  0  0  0  0  0  0  0  0
   -3.4230   22.6790  -30.0780 C   0  0  0  0  0  0  0  0  0  0  0  0
   -3.1260   21.8590  -31.1820 C   0  0  0  0  0  0  0  0  0  0  0  0
   -3.9500   21.8500  -32.3160 C   0  0  0  0  0  0  0  0  0  0  0  0
   -3.6340   20.9410  -33.4670 C   0  0  0  0  0  0  0  0  0  0  0  0
   -5.1080   22.6340  -32.3320 C   0  0  0  0  0  0  0  0  0  0  0  0
   -5.4240   23.4440  -31.2390 C   0  0  0  0  0  0  0  0  0  0  0  0
   -4.5920   23.4770  -30.1070 C   0  0  0  0  0  0  0  0  0  0  0  0
   -4.9580   24.3750  -28.9590 C   0  0  0  0  0  0  0  0  0  0  0  0
   -1.5240   24.0240  -28.6250 S   0  0  0  0  0  0  0  0  0  0  0  0
   -2.2650   25.3010  -28.9220 O   0  0  0  0  0  0  0  0  0  0  0  0
   -0.3310   23.9530  -29.5400 O   0  0  0  0  0  0  0  0  0  0  0  0
   -0.9990   24.0810  -26.9420 C   0  0  0  0  0  0  0  0  0  0  0  0
   -1.5650   24.7730  -25.8860 C   0  0  0  0  0  0  0  0  0  0  0  0
   -2.7680   25.6600  -25.9310 C   0  0  0  0  0  0  0  0  0  0  0  0
   -0.8550   24.5260  -24.7630 N   0  0  0  0  0  0  0  0  0  0  0  0
    0.1180   23.7200  -25.0950 O   0  0  0  0  0  0  0  0  0  0  0  0
    0.0820   23.4290  -26.3770 C   0  0  0  0  0  0  0  0  0  0  0  0
    1.0510   22.5160  -27.0600 C   0  0  0  0  0  0  0  0  0  0  0  0
   -2.7760   20.7570  -27.3780 C   0  0  0  0  0  0  0  0  0  0  0  0
   -2.6526   19.2676  -24.7983 H   0  0  0  0  0  0  0  0  0  0  0  0
   -4.1614   19.1424  -25.7650 H   0  0  0  0  0  0  0  0  0  0  0  0
   -2.9799   17.7894  -25.7650 H   0  0  0  0  0  0  0  0  0  0  0  0
   -0.9718   17.8668  -27.1116 H   0  0  0  0  0  0  0  0  0  0  0  0
    0.2262   18.9079  -29.0256 H   0  0  0  0  0  0  0  0  0  0  0  0
    0.6172   21.8820  -29.7863 H   0  0  0  0  0  0  0  0  0  0  0  0
    0.1966   20.4616  -30.8023 H   0  0  0  0  0  0  0  0  0  0  0  0
   -0.8638   21.9115  -30.8023 H   0  0  0  0  0  0  0  0  0  0  0  0
   -2.2342   21.2156  -31.1549 H   0  0  0  0  0  0  0  0  0  0  0  0
   -3.2955   19.9673  -33.0831 H   0  0  0  0  0  0  0  0  0  0  0  0
   -4.5357   20.7997  -34.0809 H   0  0  0  0  0  0  0  0  0  0  0  0
   -2.8391   21.3895  -34.0809 H   0  0  0  0  0  0  0  0  0  0  0  0
   -5.7723   22.6126  -33.2085 H   0  0  0  0  0  0  0  0  0  0  0  0
   -6.3334   24.0624  -31.2645 H   0  0  0  0  0  0  0  0  0  0  0  0
   -4.7483   23.8604  -28.0097 H   0  0  0  0  0  0  0  0  0  0  0  0
   -4.3651   25.2999  -29.0135 H   0  0  0  0  0  0  0  0  0  0  0  0
   -6.0285   24.6220  -29.0135 H   0  0  0  0  0  0  0  0  0  0  0  0
   -3.0881   25.8960  -24.9054 H   0  0  0  0  0  0  0  0  0  0  0  0
   -2.5174   26.5911  -26.4603 H   0  0  0  0  0  0  0  0  0  0  0  0
   -3.5834   25.1453  -26.4603 H   0  0  0  0  0  0  0  0  0  0  0  0
    1.6330   21.9677  -26.3046 H   0  0  0  0  0  0  0  0  0  0  0  0
    0.5003   21.8009  -27.6887 H   0  0  0  0  0  0  0  0  0  0  0  0
    1.7321   23.1083  -27.6887 H   0  0  0  0  0  0  0  0  0  0  0  0
   -3.6210   21.2778  -26.9039 H   0  0  0  0  0  0  0  0  0  0  0  0
  1  2  1  0
  2  3  2  0
  3  4  1  0
  4  5  2  0
  5  6  1  0
  5  7  1  0
  7  8  1  0
  8  9  1  0
  9 10  2  0
 10 11  1  0
 11 12  1  0
 11 13  2  0
 13 14  1  0
 14 15  2  0
 15 16  1  0
  8 17  1  0
 17 18  2  0
 17 19  2  0
 17 20  1  0
 20 21  1  0
 21 22  1  0
 21 23  2  0
 23 24  1  0
 24 25  1  0
 25 26  1  0
  7 27  2  0
 27  2  1  0
 15  9  1  0
 25 20  2  0
  1 28  1  0
  1 29  1  0
  1 30  1  0
  3 31  1  0
  4 32  1  0
  6 33  1  0
  6 34  1  0
  6 35  1  0
 10 36  1  0
 12 37  1  0
 12 38  1  0
 12 39  1  0
 13 40  1  0
 14 41  1  0
 16 42  1  0
 16 43  1  0
 16 44  1  0
 22 45  1  0
 22 46  1  0
 22 47  1  0
 26 48  1  0
 26 49  1  0
 26 50  1  0
 27 51  1  0
M  END
>  <UniqueID>  (25) 
23

>  <SMILES>  (25) 
Cc1ccc(C)c(N(c2cc(C)ccc2C)S(=O)(=O)c2c(C)noc2C)c1

>  <Energy>  (25) 
93.37670129970402

>  <Genealogy>  (25) 
Cc1ccc(C)c(N(c2cc(C)ccc2C)S(=O)(=O)c2c(C)noc2C)c1 (3D coordinates assigned)
Cc1ccc(C)c(N(c2cc(C)ccc2C)S(=O)(=O)c2c(C)noc2C)c1 (optimized conformer: 93.37670129970402 kcal/mol)

>  <smiles>  (25) 
Cc1ccc(C)c(N(c2cc(C)ccc2C)S(=O)(=O)c2c(C)noc2C)c1

>  <score_type>  (25) 
oracle

>  <origin>  (25) 
adgpu

>  <m_score__min__energy>  (25) 
-8.0700000000000003

>  <m_primary>  (25) 
energy

$$$$
25:0
     RDKit          3D

 34 36  0  0  0  0  0  0  0  0999 V2000
   -2.4520   21.2930  -30.3830 C   0  0  0  0  0  0  0  0  0  0  0  0
   -1.6890   22.3140  -29.6510 C   0  0  0  0  0  0  0  0  0  0  0  0
   -0.4660   22.0220  -29.1500 N   0  0  0  0  0  0  0  0  0  0  0  0
    0.2380   22.9530  -28.4790 C   0  0  0  0  0  0  0  0  0  0  0  0
   -0.2370   24.2050  -28.2770 N   0  0  0  0  0  0  0  0  0  0  0  0
   -1.4530   24.5030  -28.7720 C   0  0  0  0  0  0  0  0  0  0  0  0
   -1.9530   25.6710  -28.6120 N   0  0  0  0  0  0  0  0  0  0  0  0
   -2.2210   23.5820  -29.4720 C   0  0  0  0  0  0  0  0  0  0  0  0
   -3.5280   23.9570  -29.9850 C   0  0  0  0  0  0  0  0  0  0  0  0
   -4.7020   23.3120  -29.6530 C   0  0  0  0  0  0  0  0  0  0  0  0
   -5.7130   23.9370  -30.3200 N   0  0  0  0  0  0  0  0  0  0  0  0
   -7.0880   23.4970  -30.1850 C   0  0  0  0  0  0  0  0  0  0  0  0
   -7.3490   22.3280  -31.0550 C   0  0  0  0  0  0  0  0  0  0  0  0
   -6.3870   21.9130  -31.9720 C   0  0  0  0  0  0  0  0  0  0  0  0
   -6.6870   20.8100  -32.7610 C   0  0  0  0  0  0  0  0  0  0  0  0
   -7.8970   20.1870  -32.6050 C   0  0  0  0  0  0  0  0  0  0  0  0
   -8.8550   20.5910  -31.6990 C   0  0  0  0  0  0  0  0  0  0  0  0
   -8.5610   21.6850  -30.9150 C   0  0  0  0  0  0  0  0  0  0  0  0
   -5.2010   24.9190  -31.0340 N   0  0  0  0  0  0  0  0  0  0  0  0
   -3.8720   24.9410  -30.8380 N   0  0  0  0  0  0  0  0  0  0  0  0
   -2.9515   20.6246  -29.6663 H   0  0  0  0  0  0  0  0  0  0  0  0
   -3.2072   21.7828  -31.0153 H   0  0  0  0  0  0  0  0  0  0  0  0
   -1.7683   20.7075  -31.0153 H   0  0  0  0  0  0  0  0  0  0  0  0
   -0.0210   21.0880  -29.2560 H   0  0  0  0  0  0  0  0  0  0  0  0
    1.2295   22.6886  -28.0827 H   0  0  0  0  0  0  0  0  0  0  0  0
   -1.4830   26.4430  -28.1100 H   0  0  0  0  0  0  0  0  0  0  0  0
   -4.8032   22.4518  -28.9749 H   0  0  0  0  0  0  0  0  0  0  0  0
   -7.2770   23.2177  -29.1380 H   0  0  0  0  0  0  0  0  0  0  0  0
   -7.7544   24.3188  -30.4860 H   0  0  0  0  0  0  0  0  0  0  0  0
   -5.4256   22.4389  -32.0680 H   0  0  0  0  0  0  0  0  0  0  0  0
   -5.9622   20.4414  -33.5018 H   0  0  0  0  0  0  0  0  0  0  0  0
   -8.1170   19.3150  -33.2384 H   0  0  0  0  0  0  0  0  0  0  0  0
   -9.8146   20.0614  -31.6061 H   0  0  0  0  0  0  0  0  0  0  0  0
   -9.2930   22.0457  -30.1773 H   0  0  0  0  0  0  0  0  0  0  0  0
  1  2  1  0
  2  3  1  0
  3  4  1  0
  4  5  2  0
  5  6  1  0
  6  7  2  3
  6  8  1  0
  8  9  1  0
  9 10  2  0
 10 11  1  0
 11 12  1  0
 12 13  1  0
 13 14  2  0
 14 15  1  0
 15 16  2  0
 16 17  1  0
 17 18  2  0
 11 19  1  0
 19 20  2  0
  8  2  2  0
 20  9  1  0
 18 13  1  0
  1 21  1  0
  1 22  1  0
  1 23  1  0
  3 24  1  0
  4 25  1  0
  7 26  1  0
 10 27  1  0
 12 28  1  0
 12 29  1  0
 14 30  1  0
 15 31  1  0
 16 32  1  0
 17 33  1  0
 18 34  1  0
M  END
>  <smiles>  (26) 
Cc1[nH]cnc(=N)c1-c1cn(Cc2ccccc2)nn1

>  <score_type>  (26) 
oracle

>  <origin>  (26) 
adgpu

>  <m_score__min__energy>  (26) 
-7.8399999999999999

>  <m_primary>  (26) 
energy

$$$$
26:0
     RDKit          3D

 38 40  0  0  0  0  0  0  0  0999 V2000
   -0.6611   19.7279  -28.2121 H   0  0  0  0  0  0  0  0  0  0  0  0
   -1.0470   20.7220  -28.4820 C   0  0  0  0  0  0  0  0  0  0  0  0
   -0.3790   21.4950  -29.4330 C   0  0  0  0  0  0  0  0  0  0  0  0
    0.5272   21.1050  -29.9195 H   0  0  0  0  0  0  0  0  0  0  0  0
   -0.8600   22.7640  -29.7680 C   0  0  0  0  0  0  0  0  0  0  0  0
   -0.3345   23.3651  -30.5246 H   0  0  0  0  0  0  0  0  0  0  0  0
   -2.0100   23.2770  -29.1450 C   0  0  0  0  0  0  0  0  0  0  0  0
   -2.4690   24.6370  -29.5050 C   0  0  0  0  0  0  0  0  0  0  0  0
   -1.9140   25.6320  -28.9680 O   0  0  0  0  0  0  0  0  0  0  0  0
   -3.5140   24.8630  -30.4610 N   0  0  0  0  0  0  0  0  0  0  0  0
   -4.7270   24.1070  -30.5920 C   0  0  0  0  0  0  0  0  0  0  0  0
   -4.7080   22.9250  -31.3430 C   0  0  0  0  0  0  0  0  0  0  0  0
   -3.7716   22.5923  -31.8146 H   0  0  0  0  0  0  0  0  0  0  0  0
   -5.8700   22.1660  -31.4970 C   0  0  0  0  0  0  0  0  0  0  0  0
   -5.8412   21.2308  -32.0753 H   0  0  0  0  0  0  0  0  0  0  0  0
   -7.0730   22.5920  -30.9170 C   0  0  0  0  0  0  0  0  0  0  0  0
   -8.5440   21.6460  -31.1130 S   0  0  0  0  0  0  0  0  0  0  0  0
   -9.2060   22.0360  -32.4030 O   0  0  0  0  0  0  0  0  0  0  0  0
   -9.4950   21.9020  -29.9770 O   0  0  0  0  0  0  0  0  0  0  0  0
   -8.1620   19.9540  -31.1600 N   0  0  0  0  0  0  0  0  0  0  0  0
   -7.5110   19.3870  -32.1290 C   0  0  0  0  0  0  0  0  0  0  0  0
   -6.9000   20.0980  -33.5080 S   0  0  0  0  0  0  0  0  0  0  0  0
   -6.2280   18.7600  -34.2310 N   0  0  0  0  0  0  0  0  0  0  0  0
   -6.4880   17.7240  -33.3870 C   0  0  0  0  0  0  0  0  0  0  0  0
   -6.0040   16.3410  -33.6770 C   0  0  0  0  0  0  0  0  0  0  0  0
   -5.8187   15.8115  -32.7308 H   0  0  0  0  0  0  0  0  0  0  0  0
   -6.7662   15.7998  -34.2569 H   0  0  0  0  0  0  0  0  0  0  0  0
   -5.0707   16.3932  -34.2569 H   0  0  0  0  0  0  0  0  0  0  0  0
   -7.1930   18.0420  -32.2030 C   0  0  0  0  0  0  0  0  0  0  0  0
   -7.4580   17.3055  -31.4302 H   0  0  0  0  0  0  0  0  0  0  0  0
   -7.1010   23.7840  -30.1830 C   0  0  0  0  0  0  0  0  0  0  0  0
   -8.0420   24.1233  -29.7255 H   0  0  0  0  0  0  0  0  0  0  0  0
   -5.9380   24.5450  -30.0290 C   0  0  0  0  0  0  0  0  0  0  0  0
   -5.9710   25.4892  -29.4656 H   0  0  0  0  0  0  0  0  0  0  0  0
   -2.6980   22.4800  -28.2020 C   0  0  0  0  0  0  0  0  0  0  0  0
   -4.2160   22.9920  -27.4700 Cl  0  0  0  0  0  0  0  0  0  0  0  0
   -2.2050   21.2100  -27.8730 C   0  0  0  0  0  0  0  0  0  0  0  0
   -2.7334   20.5939  -27.1306 H   0  0  0  0  0  0  0  0  0  0  0  0
  1  2  1  0
  2  3  2  0
  3  4  1  0
  3  5  1  0
  5  6  1  0
  5  7  2  0
  7  8  1  0
  8  9  2  0
  8 10  1  0
 10 11  1  0
 11 12  2  0
 12 13  1  0
 12 14  1  0
 14 15  1  0
 14 16  2  0
 16 17  1  0
 17 18  2  0
 17 19  2  0
 17 20  1  0
 20 21  2  0
 21 22  1  0
 22 23  1  0
 23 24  1  0
 24 25  1  0
 25 26  1  0
 25 27  1  0
 25 28  1  0
 24 29  2  0
 29 30  1  0
 16 31  1  0
 31 32  1  0
 31 33  2  0
 33 34  1  0
  7 35  1  0
 35 36  1  0
 35 37  2  0
 37 38  1  0
 37  2  1  0
 33 11  1  0
 29 21  1  0
M  CHG  2  10  -1  23  -1
M  END
>  <UniqueID>  (27) 
24

>  <SMILES>  (27) 
Cc1c/c(=N/S(=O)(=O)c2ccc([N-]C(=O)c3ccccc3Cl)cc2)s[n-]1

>  <Energy>  (27) 
85.22837857985118

>  <Genealogy>  (27) 
Cc1cc(=NS(=O)(=O)c2ccc([N-]C(=O)c3ccccc3Cl)cc2)s[n-]1 (protonated)
Cc1c/c(=N/S(=O)(=O)c2ccc([N-]C(=O)c3ccccc3Cl)cc2)s[n-]1 (cis-trans isomerization)
Cc1c/c(=N/S(=O)(=O)c2ccc([N-]C(=O)c3ccccc3Cl)cc2)s[n-]1 (3D coordinates assigned)
Cc1c/c(=N/S(=O)(=O)c2ccc([N-]C(=O)c3ccccc3Cl)cc2)s[n-]1 (optimized conformer: 85.22837857985118 kcal/mol)

>  <smiles>  (27) 
Cc1cc(=NS(=O)(=O)c2ccc(NC(=O)c3ccccc3Cl)cc2)s[nH]1

>  <score_type>  (27) 
oracle

>  <origin>  (27) 
adgpu

>  <m_score__min__energy>  (27) 
-10.82

>  <m_primary>  (27) 
energy

$$$$
27:0
     RDKit          3D

 48 50  0  0  0  0  0  0  0  0999 V2000
   -3.9750   17.7990  -34.7310 C   0  0  0  0  0  0  0  0  0  0  0  0
   -5.0870   17.8780  -33.7280 C   0  0  0  0  0  0  0  0  0  0  0  0
   -5.0510   17.0870  -32.5700 C   0  0  0  0  0  0  0  0  0  0  0  0
   -6.0620   17.1990  -31.6130 C   0  0  0  0  0  0  0  0  0  0  0  0
   -7.1100   18.1050  -31.8000 C   0  0  0  0  0  0  0  0  0  0  0  0
   -7.1540   18.9110  -32.9440 C   0  0  0  0  0  0  0  0  0  0  0  0
   -8.2410   19.8360  -33.0890 N   0  0  0  0  0  0  0  0  0  0  0  0
   -8.9110   20.8020  -31.8140 S   0  0  0  0  0  0  0  0  0  0  0  0
  -10.2400   21.3600  -32.2400 O   0  0  0  0  0  0  0  0  0  0  0  0
   -9.0820   19.9460  -30.5890 O   0  0  0  0  0  0  0  0  0  0  0  0
   -7.8160   22.1310  -31.4510 C   0  0  0  0  0  0  0  0  0  0  0  0
   -7.6170   22.5400  -30.1260 C   0  0  0  0  0  0  0  0  0  0  0  0
   -6.7570   23.6050  -29.8390 C   0  0  0  0  0  0  0  0  0  0  0  0
   -6.0770   24.2670  -30.8750 C   0  0  0  0  0  0  0  0  0  0  0  0
   -5.2000   25.4220  -30.5830 C   0  0  0  0  0  0  0  0  0  0  0  0
   -5.7170   26.5530  -30.3780 O   0  0  0  0  0  0  0  0  0  0  0  0
   -3.7760   25.2870  -30.4760 N   0  0  0  0  0  0  0  0  0  0  0  0
   -3.0880   24.5510  -29.4160 C   0  0  0  0  0  0  0  0  0  0  0  0
   -3.5760   23.1010  -29.3670 C   0  0  0  0  0  0  0  0  0  0  0  0
   -3.0610   22.2930  -30.5380 C   0  0  0  0  0  0  0  0  0  0  0  0
   -3.9590   21.9150  -31.5520 C   0  0  0  0  0  0  0  0  0  0  0  0
   -3.5170   21.1830  -32.6570 C   0  0  0  0  0  0  0  0  0  0  0  0
   -2.1720   20.8240  -32.7650 C   0  0  0  0  0  0  0  0  0  0  0  0
   -1.2660   21.2020  -31.7710 C   0  0  0  0  0  0  0  0  0  0  0  0
   -1.6970   21.9400  -30.6610 C   0  0  0  0  0  0  0  0  0  0  0  0
   -0.4950   22.3990  -29.4560 Cl  0  0  0  0  0  0  0  0  0  0  0  0
   -6.2960   23.8670  -32.2040 C   0  0  0  0  0  0  0  0  0  0  0  0
   -7.1590   22.8040  -32.4900 C   0  0  0  0  0  0  0  0  0  0  0  0
   -6.1330   18.7990  -33.9060 C   0  0  0  0  0  0  0  0  0  0  0  0
   -3.0112   17.7305  -34.2053 H   0  0  0  0  0  0  0  0  0  0  0  0
   -4.1127   16.9084  -35.3617 H   0  0  0  0  0  0  0  0  0  0  0  0
   -3.9854   18.7001  -35.3617 H   0  0  0  0  0  0  0  0  0  0  0  0
   -4.2250   16.3772  -32.4154 H   0  0  0  0  0  0  0  0  0  0  0  0
   -6.0335   16.5724  -30.7094 H   0  0  0  0  0  0  0  0  0  0  0  0
   -7.9049   18.1852  -31.0438 H   0  0  0  0  0  0  0  0  0  0  0  0
   -8.1391   22.0216  -29.3082 H   0  0  0  0  0  0  0  0  0  0  0  0
   -6.6123   23.9259  -28.7969 H   0  0  0  0  0  0  0  0  0  0  0  0
   -2.0055   24.5623  -29.6112 H   0  0  0  0  0  0  0  0  0  0  0  0
   -3.3041   25.0321  -28.4507 H   0  0  0  0  0  0  0  0  0  0  0  0
   -3.2236   22.6385  -28.4333 H   0  0  0  0  0  0  0  0  0  0  0  0
   -4.6749   23.1091  -29.4152 H   0  0  0  0  0  0  0  0  0  0  0  0
   -5.0191   22.1982  -31.4745 H   0  0  0  0  0  0  0  0  0  0  0  0
   -4.2291   20.8894  -33.4423 H   0  0  0  0  0  0  0  0  0  0  0  0
   -1.8257   20.2435  -33.6328 H   0  0  0  0  0  0  0  0  0  0  0  0
   -0.2070   20.9182  -31.8605 H   0  0  0  0  0  0  0  0  0  0  0  0
   -5.7858   24.3929  -33.0244 H   0  0  0  0  0  0  0  0  0  0  0  0
   -7.3224   22.4955  -33.5331 H   0  0  0  0  0  0  0  0  0  0  0  0
   -6.1540   19.4362  -34.8024 H   0  0  0  0  0  0  0  0  0  0  0  0
  1  2  1  0
  2  3  2  0
  3  4  1  0
  4  5  2  0
  5  6  1  0
  6  7  1  0
  7  8  1  0
  8  9  2  0
  8 10  2  0
  8 11  1  0
 11 12  2  0
 12 13  1  0
 13 14  2  0
 14 15  1  0
 15 16  2  0
 15 17  1  0
 17 18  1  0
 18 19  1  0
 19 20  1  0
 20 21  2  0
 21 22  1  0
 22 23  2  0
 23 24  1  0
 24 25  2  0
 25 26  1  0
 14 27  1  0
 27 28  2  0
  6 29  2  0
 29  2  1  0
 28 11  1  0
 25 20  1  0
  1 30  1  0
  1 31  1  0
  1 32  1  0
  3 33  1  0
  4 34  1  0
  5 35  1  0
 12 36  1  0
 13 37  1  0
 18 38  1  0
 18 39  1  0
 19 40  1  0
 19 41  1  0
 21 42  1  0
 22 43  1  0
 23 44  1  0
 24 45  1  0
 27 46  1  0
 28 47  1  0
 29 48  1  0
M  CHG  2   7  -1  17  -1
M  END
>  <UniqueID>  (28) 
25

>  <SMILES>  (28) 
Cc1cccc([N-]S(=O)(=O)c2ccc(C(=O)[N-]CCc3ccccc3Cl)cc2)c1

>  <Energy>  (28) 
58.523432370921206

>  <Genealogy>  (28) 
Cc1cccc([N-]S(=O)(=O)c2ccc(C(=O)[N-]CCc3ccccc3Cl)cc2)c1 (protonated)
Cc1cccc([N-]S(=O)(=O)c2ccc(C(=O)[N-]CCc3ccccc3Cl)cc2)c1 (3D coordinates assigned)
Cc1cccc([N-]S(=O)(=O)c2ccc(C(=O)[N-]CCc3ccccc3Cl)cc2)c1 (optimized conformer: 58.523432370921206 kcal/mol)

>  <smiles>  (28) 
Cc1cccc(NS(=O)(=O)c2ccc(C(=O)NCCc3ccccc3Cl)cc2)c1

>  <score_type>  (28) 
oracle

>  <origin>  (28) 
adgpu

>  <m_score__min__energy>  (28) 
-11.640000000000001

>  <m_primary>  (28) 
energy

$$$$
28:0
     RDKit          3D

 38 40  0  0  0  0  0  0  0  0999 V2000
   -7.1700   15.5720  -34.3560 N   0  0  0  0  0  0  0  0  0  0  0  0
   -5.9040   16.6990  -34.0170 S   0  0  0  0  0  0  0  0  0  0  0  0
   -4.8900   16.0490  -33.1180 O   0  0  0  0  0  0  0  0  0  0  0  0
   -5.2260   17.0990  -35.2990 O   0  0  0  0  0  0  0  0  0  0  0  0
   -6.5790   18.1270  -33.2380 C   0  0  0  0  0  0  0  0  0  0  0  0
   -7.5250   18.0020  -32.2110 C   0  0  0  0  0  0  0  0  0  0  0  0
   -8.0560   19.1430  -31.6020 C   0  0  0  0  0  0  0  0  0  0  0  0
   -7.6430   20.4200  -32.0020 C   0  0  0  0  0  0  0  0  0  0  0  0
   -8.2270   21.5630  -31.3600 N   0  0  0  0  0  0  0  0  0  0  0  0
   -7.8530   22.9350  -31.5450 C   0  0  0  0  0  0  0  0  0  0  0  0
   -8.6690   23.7630  -32.0310 O   0  0  0  0  0  0  0  0  0  0  0  0
   -6.4870   23.3680  -31.2160 C   0  0  0  0  0  0  0  0  0  0  0  0
   -6.0390   24.6740  -31.1300 C   0  0  0  0  0  0  0  0  0  0  0  0
   -4.7050   24.5840  -30.7950 C   0  0  0  0  0  0  0  0  0  0  0  0
   -3.8580   25.6750  -30.6440 O   0  0  0  0  0  0  0  0  0  0  0  0
   -4.3210   23.2950  -30.6680 N   0  0  0  0  0  0  0  0  0  0  0  0
   -3.0120   22.7990  -30.3310 C   0  0  0  0  0  0  0  0  0  0  0  0
   -2.4030   23.1690  -29.1200 C   0  0  0  0  0  0  0  0  0  0  0  0
   -1.1300   22.6940  -28.7930 C   0  0  0  0  0  0  0  0  0  0  0  0
   -0.4480   21.8520  -29.6740 C   0  0  0  0  0  0  0  0  0  0  0  0
   -1.0340   21.4860  -30.8890 C   0  0  0  0  0  0  0  0  0  0  0  0
   -0.3380   20.6550  -31.7650 O   0  0  0  0  0  0  0  0  0  0  0  0
   -2.3120   21.9590  -31.2180 C   0  0  0  0  0  0  0  0  0  0  0  0
   -5.4110   22.5440  -30.9320 C   0  0  0  0  0  0  0  0  0  0  0  0
   -6.7150   20.5450  -33.0520 C   0  0  0  0  0  0  0  0  0  0  0  0
   -6.1840   19.4020  -33.6610 C   0  0  0  0  0  0  0  0  0  0  0  0
   -7.4950   15.7600  -35.3310 H   0  0  0  0  0  0  0  0  0  0  0  0
   -7.8504   17.0036  -31.8834 H   0  0  0  0  0  0  0  0  0  0  0  0
   -8.8040   19.0369  -30.8025 H   0  0  0  0  0  0  0  0  0  0  0  0
   -6.6240   25.5909  -31.2943 H   0  0  0  0  0  0  0  0  0  0  0  0
   -2.9319   23.8372  -28.4245 H   0  0  0  0  0  0  0  0  0  0  0  0
   -0.6642   22.9840  -27.8396 H   0  0  0  0  0  0  0  0  0  0  0  0
    0.5519   21.4762  -29.4113 H   0  0  0  0  0  0  0  0  0  0  0  0
    0.4860   20.9770  -32.2590 H   0  0  0  0  0  0  0  0  0  0  0  0
   -2.7710   21.6720  -32.1756 H   0  0  0  0  0  0  0  0  0  0  0  0
   -5.4401   21.4444  -30.9229 H   0  0  0  0  0  0  0  0  0  0  0  0
   -6.4060   21.5434  -33.3952 H   0  0  0  0  0  0  0  0  0  0  0  0
   -5.4527   19.5059  -34.4761 H   0  0  0  0  0  0  0  0  0  0  0  0
  1  2  1  0
  2  3  2  0
  2  4  2  0
  2  5  1  0
  5  6  2  0
  6  7  1  0
  7  8  2  0
  8  9  1  0
  9 10  1  0
 10 11  2  0
 10 12  1  0
 12 13  1  0
 13 14  2  0
 14 15  1  0
 14 16  1  0
 16 17  1  0
 17 18  2  0
 18 19  1  0
 19 20  2  0
 20 21  1  0
 21 22  1  0
 21 23  2  0
 16 24  1  0
  8 25  1  0
 25 26  2  0
 26  5  1  0
 24 12  2  0
 23 17  1  0
  1 27  1  0
  6 28  1  0
  7 29  1  0
 13 30  1  0
 18 31  1  0
 19 32  1  0
 20 33  1  0
 22 34  1  0
 23 35  1  0
 24 36  1  0
 25 37  1  0
 26 38  1  0
M  CHG  3   1  -1   9  -1  15  -1
M  END
>  <UniqueID>  (29) 
26

>  <SMILES>  (29) 
[NH-]S(=O)(=O)c1ccc([N-]C(=O)c2cc([O-])n(-c3cccc(O)c3)c2)cc1

>  <Energy>  (29) 
74.80464966713447

>  <Genealogy>  (29) 
[NH-]S(=O)(=O)c1ccc([N-]C(=O)c2cc([O-])n(-c3cccc(O)c3)c2)cc1 (protonated)
[NH-]S(=O)(=O)c1ccc([N-]C(=O)c2cc([O-])n(-c3cccc(O)c3)c2)cc1 (3D coordinates assigned)
[NH-]S(=O)(=O)c1ccc([N-]C(=O)c2cc([O-])n(-c3cccc(O)c3)c2)cc1 (optimized conformer: 74.80464966713447 kcal/mol)

>  <smiles>  (29) 
NS(=O)(=O)c1ccc(NC(=O)c2cc(O)n(-c3cccc(O)c3)c2)cc1

>  <score_type>  (29) 
oracle

>  <origin>  (29) 
adgpu

>  <m_score__min__energy>  (29) 
-11.24

>  <m_primary>  (29) 
energy

$$$$
29:0
     RDKit          3D

 36 39  0  0  0  0  0  0  0  0999 V2000
   -9.0640   21.8180  -31.4220 C   0  0  0  0  0  0  0  0  0  0  0  0
   -8.0440   22.7660  -31.5320 C   0  0  0  0  0  0  0  0  0  0  0  0
   -6.8450   22.4180  -32.1700 C   0  0  0  0  0  0  0  0  0  0  0  0
   -5.7520   23.4350  -32.3410 C   0  0  0  0  0  0  0  0  0  0  0  0
   -4.7470   23.2610  -31.2980 N   0  0  0  0  0  0  0  0  0  0  0  0
   -4.3080   22.0830  -30.8150 C   0  0  0  0  0  0  0  0  0  0  0  0
   -3.4140   22.3420  -29.7950 C   0  0  0  0  0  0  0  0  0  0  0  0
   -2.6550   21.3300  -29.0350 C   0  0  0  0  0  0  0  0  0  0  0  0
   -1.4440   20.8330  -29.5390 C   0  0  0  0  0  0  0  0  0  0  0  0
   -0.7220   19.8950  -28.7970 C   0  0  0  0  0  0  0  0  0  0  0  0
   -1.1840   19.4800  -27.5880 N   0  0  0  0  0  0  0  0  0  0  0  0
   -2.3450   19.9580  -27.0660 C   0  0  0  0  0  0  0  0  0  0  0  0
   -3.0980   20.8980  -27.7760 C   0  0  0  0  0  0  0  0  0  0  0  0
   -3.3800   23.7310  -29.6990 C   0  0  0  0  0  0  0  0  0  0  0  0
   -2.6760   24.5510  -28.6990 C   0  0  0  0  0  0  0  0  0  0  0  0
   -1.6170   25.3450  -28.9760 N   0  0  0  0  0  0  0  0  0  0  0  0
   -1.1310   25.9530  -27.8610 C   0  0  0  0  0  0  0  0  0  0  0  0
   -1.7920   25.6380  -26.6800 C   0  0  0  0  0  0  0  0  0  0  0  0
   -3.0260   24.5590  -27.0550 S   0  0  0  0  0  0  0  0  0  0  0  0
   -4.2050   24.2610  -30.6230 N   0  0  0  0  0  0  0  0  0  0  0  0
   -6.7050   21.1320  -32.7100 C   0  0  0  0  0  0  0  0  0  0  0  0
   -7.7500   20.2140  -32.5790 C   0  0  0  0  0  0  0  0  0  0  0  0
   -8.8970   20.5720  -31.9420 N   0  0  0  0  0  0  0  0  0  0  0  0
  -10.0040   22.0794  -30.9140 H   0  0  0  0  0  0  0  0  0  0  0  0
   -8.1804   23.7773  -31.1214 H   0  0  0  0  0  0  0  0  0  0  0  0
   -5.2818   23.3034  -33.3267 H   0  0  0  0  0  0  0  0  0  0  0  0
   -6.1811   24.4451  -32.2667 H   0  0  0  0  0  0  0  0  0  0  0  0
   -4.6094   21.0869  -31.1714 H   0  0  0  0  0  0  0  0  0  0  0  0
   -1.0654   21.1795  -30.5119 H   0  0  0  0  0  0  0  0  0  0  0  0
    0.2221   19.4916  -29.1919 H   0  0  0  0  0  0  0  0  0  0  0  0
   -2.6922   19.6047  -26.0839 H   0  0  0  0  0  0  0  0  0  0  0  0
   -4.0310   21.2959  -27.3505 H   0  0  0  0  0  0  0  0  0  0  0  0
   -0.2761   26.6445  -27.8917 H   0  0  0  0  0  0  0  0  0  0  0  0
   -1.5511   26.0252  -25.6790 H   0  0  0  0  0  0  0  0  0  0  0  0
   -5.7798   20.8479  -33.2327 H   0  0  0  0  0  0  0  0  0  0  0  0
   -7.6448   19.1998  -32.9918 H   0  0  0  0  0  0  0  0  0  0  0  0
  1  2  2  0
  2  3  1  0
  3  4  1  0
  4  5  1  0
  5  6  1  0
  6  7  2  0
  7  8  1  0
  8  9  2  0
  9 10  1  0
 10 11  2  0
 11 12  1  0
 12 13  2  0
  7 14  1  0
 14 15  1  0
 15 16  2  0
 16 17  1  0
 17 18  2  0
 18 19  1  0
 14 20  2  0
  3 21  2  0
 21 22  1  0
 22 23  2  0
 23  1  1  0
 20  5  1  0
 13  8  1  0
 19 15  1  0
  1 24  1  0
  2 25  1  0
  4 26  1  0
  4 27  1  0
  6 28  1  0
  9 29  1  0
 10 30  1  0
 12 31  1  0
 13 32  1  0
 17 33  1  0
 18 34  1  0
 21 35  1  0
 22 36  1  0
M  END
>  <UniqueID>  (30) 
27

>  <SMILES>  (30) 
c1cc(Cn2cc(-c3ccncc3)c(-c3nccs3)n2)ccn1

>  <Energy>  (30) 
105.44948720346754

>  <Genealogy>  (30) 
c1cc(Cn2cc(-c3ccncc3)c(-c3nccs3)n2)ccn1 (3D coordinates assigned)
c1cc(Cn2cc(-c3ccncc3)c(-c3nccs3)n2)ccn1 (optimized conformer: 105.44948720346754 kcal/mol)

>  <smiles>  (30) 
c1cc(Cn2cc(-c3ccncc3)c(-c3nccs3)n2)ccn1

>  <score_type>  (30) 
oracle

>  <origin>  (30) 
adgpu

>  <m_score__min__energy>  (30) 
-7.6200000000000001

>  <m_primary>  (30) 
energy

$$$$
30:0
     RDKit          3D

 40 42  0  0  0  0  0  0  0  0999 V2000
   -4.2120   25.6740  -30.5300 N   0  0  0  0  0  0  0  0  0  0  0  0
   -4.1120   23.9650  -30.2880 S   0  0  0  0  0  0  0  0  0  0  0  0
   -2.9100   23.4270  -31.0130 O   0  0  0  0  0  0  0  0  0  0  0  0
   -3.9620   23.6730  -28.8220 O   0  0  0  0  0  0  0  0  0  0  0  0
   -5.5730   23.1990  -30.9050 C   0  0  0  0  0  0  0  0  0  0  0  0
   -6.8230   23.7930  -30.6930 C   0  0  0  0  0  0  0  0  0  0  0  0
   -7.9850   23.1700  -31.1570 C   0  0  0  0  0  0  0  0  0  0  0  0
   -7.9080   21.9530  -31.8440 C   0  0  0  0  0  0  0  0  0  0  0  0
   -9.4070   21.1580  -32.3140 Cl  0  0  0  0  0  0  0  0  0  0  0  0
   -6.6510   21.3600  -32.0790 C   0  0  0  0  0  0  0  0  0  0  0  0
   -6.5320   20.1100  -32.7730 N   0  0  0  0  0  0  0  0  0  0  0  0
   -7.1530   18.9050  -32.3030 C   0  0  0  0  0  0  0  0  0  0  0  0
   -7.9550   18.9360  -31.3320 O   0  0  0  0  0  0  0  0  0  0  0  0
   -6.8190   17.5960  -32.9450 C   0  0  0  0  0  0  0  0  0  0  0  0
   -5.5120   17.6870  -33.5810 N   0  0  0  0  0  0  0  0  0  0  0  0
   -5.1540   16.9990  -34.6510 N   0  0  0  0  0  0  0  0  0  0  0  0
   -3.9400   17.3780  -35.0140 N   0  0  0  0  0  0  0  0  0  0  0  0
   -3.5920   18.3400  -34.1320 C   0  0  0  0  0  0  0  0  0  0  0  0
   -2.2790   19.0230  -34.1260 C   0  0  0  0  0  0  0  0  0  0  0  0
   -1.1880   18.3740  -34.7360 C   0  0  0  0  0  0  0  0  0  0  0  0
    0.0890   18.9350  -34.6940 C   0  0  0  0  0  0  0  0  0  0  0  0
    0.2980   20.1510  -34.0460 C   0  0  0  0  0  0  0  0  0  0  0  0
   -0.7730   20.8200  -33.4530 C   0  0  0  0  0  0  0  0  0  0  0  0
   -2.0690   20.2790  -33.4980 C   0  0  0  0  0  0  0  0  0  0  0  0
   -3.1500   21.0490  -32.9560 N   0  0  0  0  0  0  0  0  0  0  0  0
   -4.5680   18.5390  -33.2240 N   0  0  0  0  0  0  0  0  0  0  0  0
   -5.4930   21.9780  -31.5850 C   0  0  0  0  0  0  0  0  0  0  0  0
   -3.4820   25.9250  -31.2350 H   0  0  0  0  0  0  0  0  0  0  0  0
   -6.8908   24.7527  -30.1598 H   0  0  0  0  0  0  0  0  0  0  0  0
   -8.9647   23.6384  -30.9814 H   0  0  0  0  0  0  0  0  0  0  0  0
   -6.1080   20.1120  -33.7280 H   0  0  0  0  0  0  0  0  0  0  0  0
   -6.8001   16.8063  -32.1795 H   0  0  0  0  0  0  0  0  0  0  0  0
   -7.5794   17.3543  -33.7023 H   0  0  0  0  0  0  0  0  0  0  0  0
   -1.3442   17.4147  -35.2510 H   0  0  0  0  0  0  0  0  0  0  0  0
    0.9324   18.4164  -35.1733 H   0  0  0  0  0  0  0  0  0  0  0  0
    1.3084   20.5837  -34.0021 H   0  0  0  0  0  0  0  0  0  0  0  0
   -0.6012   21.7805  -32.9452 H   0  0  0  0  0  0  0  0  0  0  0  0
   -4.1310   20.6970  -32.9500 H   0  0  0  0  0  0  0  0  0  0  0  0
   -3.0040   22.0470  -32.6860 H   0  0  0  0  0  0  0  0  0  0  0  0
   -4.5138   21.4993  -31.7331 H   0  0  0  0  0  0  0  0  0  0  0  0
  1  2  1  0
  2  3  2  0
  2  4  2  0
  2  5  1  0
  5  6  2  0
  6  7  1  0
  7  8  2  0
  8  9  1  0
  8 10  1  0
 10 11  1  0
 11 12  1  0
 12 13  2  0
 12 14  1  0
 14 15  1  0
 15 16  1  0
 16 17  2  0
 17 18  1  0
 18 19  1  0
 19 20  2  0
 20 21  1  0
 21 22  2  0
 22 23  1  0
 23 24  2  0
 24 25  1  0
 18 26  2  0
 10 27  2  0
 27  5  1  0
 26 15  1  0
 24 19  1  0
  1 28  1  0
  6 29  1  0
  7 30  1  0
 11 31  1  0
 14 32  1  0
 14 33  1  0
 20 34  1  0
 21 35  1  0
 22 36  1  0
 23 37  1  0
 25 38  1  0
 25 39  1  0
 27 40  1  0
M  CHG  1   1  -1
M  END
>  <UniqueID>  (31) 
28

>  <SMILES>  (31) 
[NH-]S(=O)(=O)c1ccc(Cl)c(NC(=O)Cn2nnc(-c3ccccc3N)n2)c1

>  <Energy>  (31) 
88.33809630894105

>  <Genealogy>  (31) 
[NH-]S(=O)(=O)c1ccc(Cl)c(NC(=O)Cn2nnc(-c3ccccc3N)n2)c1 (protonated)
[NH-]S(=O)(=O)c1ccc(Cl)c(NC(=O)Cn2nnc(-c3ccccc3N)n2)c1 (3D coordinates assigned)
[NH-]S(=O)(=O)c1ccc(Cl)c(NC(=O)Cn2nnc(-c3ccccc3N)n2)c1 (optimized conformer: 88.33809630894105 kcal/mol)

>  <smiles>  (31) 
Nc1ccccc1-c1nnn(CC(=O)Nc2cc(S(N)(=O)=O)ccc2Cl)n1

>  <score_type>  (31) 
oracle

>  <origin>  (31) 
adgpu

>  <m_score__min__energy>  (31) 
-11.34

>  <m_primary>  (31) 
energy

$$$$
31:0
     RDKit          3D

 40 42  0  0  0  0  0  0  0  0999 V2000
   -8.7030   18.6090  -31.6080 C   0  0  0  0  0  0  0  0  0  0  0  0
   -7.8230   19.4470  -32.3530 O   0  0  0  0  0  0  0  0  0  0  0  0
   -7.5040   20.7680  -32.0060 C   0  0  0  0  0  0  0  0  0  0  0  0
   -8.5390   21.7090  -31.9550 C   0  0  0  0  0  0  0  0  0  0  0  0
   -8.2720   23.0360  -31.6130 C   0  0  0  0  0  0  0  0  0  0  0  0
   -6.9680   23.4350  -31.3110 C   0  0  0  0  0  0  0  0  0  0  0  0
   -5.9180   22.5010  -31.3460 C   0  0  0  0  0  0  0  0  0  0  0  0
   -4.5690   22.8590  -31.0090 N   0  0  0  0  0  0  0  0  0  0  0  0
   -4.1210   24.0550  -29.8340 S   0  0  0  0  0  0  0  0  0  0  0  0
   -5.3340   24.4280  -29.0300 O   0  0  0  0  0  0  0  0  0  0  0  0
   -3.6190   25.2790  -30.5480 O   0  0  0  0  0  0  0  0  0  0  0  0
   -2.8170   23.4170  -28.8230 C   0  0  0  0  0  0  0  0  0  0  0  0
   -2.9180   22.0920  -28.3750 C   0  0  0  0  0  0  0  0  0  0  0  0
   -1.9390   21.5380  -27.5350 C   0  0  0  0  0  0  0  0  0  0  0  0
   -2.0720   20.1370  -27.0710 C   0  0  0  0  0  0  0  0  0  0  0  0
   -1.0860   19.1710  -26.9950 C   0  0  0  0  0  0  0  0  0  0  0  0
   -1.6770   18.0600  -26.5290 N   0  0  0  0  0  0  0  0  0  0  0  0
   -2.9580   18.3240  -26.3280 N   0  0  0  0  0  0  0  0  0  0  0  0
   -3.2280   19.5810  -26.6490 N   0  0  0  0  0  0  0  0  0  0  0  0
   -0.8470   22.3290  -27.1500 C   0  0  0  0  0  0  0  0  0  0  0  0
   -0.7330   23.6460  -27.5970 C   0  0  0  0  0  0  0  0  0  0  0  0
   -1.7150   24.2070  -28.4340 C   0  0  0  0  0  0  0  0  0  0  0  0
   -1.6280   25.5360  -28.8790 O   0  0  0  0  0  0  0  0  0  0  0  0
   -0.8910   26.5650  -28.2230 C   0  0  0  0  0  0  0  0  0  0  0  0
   -6.1900   21.1740  -31.7040 C   0  0  0  0  0  0  0  0  0  0  0  0
   -8.5368   18.7672  -30.5322 H   0  0  0  0  0  0  0  0  0  0  0  0
   -9.7450   18.8569  -31.8584 H   0  0  0  0  0  0  0  0  0  0  0  0
   -8.5063   17.5561  -31.8584 H   0  0  0  0  0  0  0  0  0  0  0  0
   -9.5694   21.4009  -32.1859 H   0  0  0  0  0  0  0  0  0  0  0  0
   -9.0911   23.7695  -31.5813 H   0  0  0  0  0  0  0  0  0  0  0  0
   -6.7622   24.4824  -31.0452 H   0  0  0  0  0  0  0  0  0  0  0  0
   -3.7762   21.4782  -28.6861 H   0  0  0  0  0  0  0  0  0  0  0  0
   -0.0259   19.2897  -27.2636 H   0  0  0  0  0  0  0  0  0  0  0  0
   -1.2240   17.1360  -26.3510 H   0  0  0  0  0  0  0  0  0  0  0  0
   -0.0740   21.9079  -26.4903 H   0  0  0  0  0  0  0  0  0  0  0  0
    0.1332   24.2516  -27.2920 H   0  0  0  0  0  0  0  0  0  0  0  0
   -0.9793   26.4417  -27.1335 H   0  0  0  0  0  0  0  0  0  0  0  0
    0.1677   26.5007  -28.5147 H   0  0  0  0  0  0  0  0  0  0  0  0
   -1.2927   27.5466  -28.5147 H   0  0  0  0  0  0  0  0  0  0  0  0
   -5.3696   20.4427  -31.7496 H   0  0  0  0  0  0  0  0  0  0  0  0
  1  2  1  0
  2  3  1  0
  3  4  2  0
  4  5  1  0
  5  6  2  0
  6  7  1  0
  7  8  1  0
  8  9  1  0
  9 10  2  0
  9 11  2  0
  9 12  1  0
 12 13  2  0
 13 14  1  0
 14 15  1  0
 15 16  2  0
 16 17  1  0
 17 18  1  0
 18 19  2  0
 14 20  2  0
 20 21  1  0
 21 22  2  0
 22 23  1  0
 23 24  1  0
  7 25  2  0
 25  3  1  0
 22 12  1  0
 19 15  1  0
  1 26  1  0
  1 27  1  0
  1 28  1  0
  4 29  1  0
  5 30  1  0
  6 31  1  0
 13 32  1  0
 16 33  1  0
 17 34  1  0
 20 35  1  0
 21 36  1  0
 24 37  1  0
 24 38  1  0
 24 39  1  0
 25 40  1  0
M  CHG  1   8  -1
M  END
>  <UniqueID>  (32) 
29

>  <SMILES>  (32) 
COc1cccc([N-]S(=O)(=O)c2cc(-c3c[nH]nn3)ccc2OC)c1

>  <Energy>  (32) 
81.3704806642611

>  <Genealogy>  (32) 
COc1cccc([N-]S(=O)(=O)c2cc(-c3c[nH]nn3)ccc2OC)c1 (protonated)
COc1cccc([N-]S(=O)(=O)c2cc(-c3c[nH]nn3)ccc2OC)c1 (3D coordinates assigned)
COc1cccc([N-]S(=O)(=O)c2cc(-c3c[nH]nn3)ccc2OC)c1 (optimized conformer: 81.3704806642611 kcal/mol)

>  <smiles>  (32) 
COc1cccc(NS(=O)(=O)c2cc(-c3c[nH]nn3)ccc2OC)c1

>  <score_type>  (32) 
oracle

>  <origin>  (32) 
adgpu

>  <m_score__min__energy>  (32) 
-9.5099999999999998

>  <m_primary>  (32) 
energy

$$$$
32:0
     RDKit          3D

 48 50  0  0  0  0  0  0  0  0999 V2000
    0.5430   21.8180  -35.2290 C   0  0  0  0  0  0  0  0  0  0  0  0
    0.0600   21.7740  -33.8890 O   0  0  0  0  0  0  0  0  0  0  0  0
   -1.1150   21.1160  -33.4930 C   0  0  0  0  0  0  0  0  0  0  0  0
   -1.5270   19.9960  -34.2240 C   0  0  0  0  0  0  0  0  0  0  0  0
   -2.6870   19.3020  -33.8670 C   0  0  0  0  0  0  0  0  0  0  0  0
   -3.4540   19.7190  -32.7630 C   0  0  0  0  0  0  0  0  0  0  0  0
   -4.6510   19.0370  -32.3590 N   0  0  0  0  0  0  0  0  0  0  0  0
   -6.2220   19.2780  -33.0530 S   0  0  0  0  0  0  0  0  0  0  0  0
   -7.1170   18.1310  -32.6710 O   0  0  0  0  0  0  0  0  0  0  0  0
   -6.1010   19.3150  -34.5500 O   0  0  0  0  0  0  0  0  0  0  0  0
   -6.8840   20.8140  -32.5010 C   0  0  0  0  0  0  0  0  0  0  0  0
   -8.2630   20.9730  -32.3040 C   0  0  0  0  0  0  0  0  0  0  0  0
   -8.7720   22.2010  -31.8740 C   0  0  0  0  0  0  0  0  0  0  0  0
   -7.9100   23.2740  -31.6310 C   0  0  0  0  0  0  0  0  0  0  0  0
   -6.5220   23.1190  -31.8060 C   0  0  0  0  0  0  0  0  0  0  0  0
   -5.6080   24.2040  -31.6050 N   0  0  0  0  0  0  0  0  0  0  0  0
   -4.5110   24.2360  -30.6830 C   0  0  0  0  0  0  0  0  0  0  0  0
   -3.8640   25.3020  -30.5010 O   0  0  0  0  0  0  0  0  0  0  0  0
   -4.2180   23.0630  -29.9080 N   0  0  0  0  0  0  0  0  0  0  0  0
   -3.0100   22.8690  -29.1470 C   0  0  0  0  0  0  0  0  0  0  0  0
   -1.8890   23.7000  -29.3190 C   0  0  0  0  0  0  0  0  0  0  0  0
   -0.7190   23.4650  -28.5930 C   0  0  0  0  0  0  0  0  0  0  0  0
   -0.6490   22.3920  -27.7010 C   0  0  0  0  0  0  0  0  0  0  0  0
   -1.7540   21.5460  -27.5260 C   0  0  0  0  0  0  0  0  0  0  0  0
   -1.6520   20.3610  -26.6120 C   0  0  0  0  0  0  0  0  0  0  0  0
   -2.9250   21.7790  -28.2660 C   0  0  0  0  0  0  0  0  0  0  0  0
   -6.0200   21.8900  -32.2570 C   0  0  0  0  0  0  0  0  0  0  0  0
   -3.0420   20.8400  -32.0330 C   0  0  0  0  0  0  0  0  0  0  0  0
   -1.8850   21.5380  -32.3920 C   0  0  0  0  0  0  0  0  0  0  0  0
    1.6384   21.9178  -35.2208 H   0  0  0  0  0  0  0  0  0  0  0  0
    0.2632   20.8906  -35.7503 H   0  0  0  0  0  0  0  0  0  0  0  0
    0.1002   22.6795  -35.7503 H   0  0  0  0  0  0  0  0  0  0  0  0
   -0.9333   19.6589  -35.0865 H   0  0  0  0  0  0  0  0  0  0  0  0
   -3.0019   18.4254  -34.4521 H   0  0  0  0  0  0  0  0  0  0  0  0
   -8.9450   20.1298  -32.4882 H   0  0  0  0  0  0  0  0  0  0  0  0
   -9.8551   22.3238  -31.7262 H   0  0  0  0  0  0  0  0  0  0  0  0
   -8.3171   24.2416  -31.3023 H   0  0  0  0  0  0  0  0  0  0  0  0
   -4.9570   22.3270  -29.8550 H   0  0  0  0  0  0  0  0  0  0  0  0
   -1.9335   24.5393  -30.0287 H   0  0  0  0  0  0  0  0  0  0  0  0
    0.1499   24.1268  -28.7240 H   0  0  0  0  0  0  0  0  0  0  0  0
    0.2759   22.2100  -27.1340 H   0  0  0  0  0  0  0  0  0  0  0  0
   -1.6813   20.7009  -25.5663 H   0  0  0  0  0  0  0  0  0  0  0  0
   -2.4948   19.6795  -26.7997 H   0  0  0  0  0  0  0  0  0  0  0  0
   -0.7051   19.8336  -26.7997 H   0  0  0  0  0  0  0  0  0  0  0  0
   -3.7839   21.1009  -28.1542 H   0  0  0  0  0  0  0  0  0  0  0  0
   -4.9390   21.7694  -32.4207 H   0  0  0  0  0  0  0  0  0  0  0  0
   -3.6342   21.1750  -31.1686 H   0  0  0  0  0  0  0  0  0  0  0  0
   -1.5750   22.4200  -31.8123 H   0  0  0  0  0  0  0  0  0  0  0  0
  1  2  1  0
  2  3  1  0
  3  4  2  0
  4  5  1  0
  5  6  2  0
  6  7  1  0
  7  8  1  0
  8  9  2  0
  8 10  2  0
  8 11  1  0
 11 12  2  0
 12 13  1  0
 13 14  2  0
 14 15  1  0
 15 16  1  0
 16 17  1  0
 17 18  2  0
 17 19  1  0
 19 20  1  0
 20 21  2  0
 21 22  1  0
 22 23  2  0
 23 24  1  0
 24 25  1  0
 24 26  2  0
 15 27  2  0
  6 28  1  0
 28 29  2  0
 29  3  1  0
 27 11  1  0
 26 20  1  0
  1 30  1  0
  1 31  1  0
  1 32  1  0
  4 33  1  0
  5 34  1  0
 12 35  1  0
 13 36  1  0
 14 37  1  0
 19 38  1  0
 21 39  1  0
 22 40  1  0
 23 41  1  0
 25 42  1  0
 25 43  1  0
 25 44  1  0
 26 45  1  0
 27 46  1  0
 28 47  1  0
 29 48  1  0
M  CHG  2   7  -1  16  -1
M  END
>  <UniqueID>  (33) 
30

>  <SMILES>  (33) 
COc1ccc([N-]S(=O)(=O)c2cccc([N-]C(=O)Nc3cccc(C)c3)c2)cc1

>  <Energy>  (33) 
58.879301862451804

>  <Genealogy>  (33) 
COc1ccc([N-]S(=O)(=O)c2cccc([N-]C(=O)Nc3cccc(C)c3)c2)cc1 (protonated)
COc1ccc([N-]S(=O)(=O)c2cccc([N-]C(=O)Nc3cccc(C)c3)c2)cc1 (3D coordinates assigned)
COc1ccc([N-]S(=O)(=O)c2cccc([N-]C(=O)Nc3cccc(C)c3)c2)cc1 (optimized conformer: 58.879301862451804 kcal/mol)

>  <smiles>  (33) 
COc1ccc(NS(=O)(=O)c2cccc(NC(=O)Nc3cccc(C)c3)c2)cc1

>  <score_type>  (33) 
oracle

>  <origin>  (33) 
adgpu

>  <m_score__min__energy>  (33) 
-10.630000000000001

>  <m_primary>  (33) 
energy

$$$$
33:0
     RDKit          3D

 67 71  0  0  0  0  0  0  0  0999 V2000
   -9.1154   18.0885  -32.2652 H   0  0  0  0  0  0  0  0  0  0  0  0
   -8.3830   18.9070  -32.3250 C   0  0  0  0  0  0  0  0  0  0  0  0
   -8.7130   20.5360  -32.0950 S   0  0  0  0  0  0  0  0  0  0  0  0
   -7.1220   21.0030  -32.3440 C   0  0  0  0  0  0  0  0  0  0  0  0
   -6.6960   22.3710  -32.3340 N   0  0  0  0  0  0  0  0  0  0  0  0
   -7.2750   23.0560  -32.8680 H   0  0  0  0  0  0  0  0  0  0  0  0
   -5.6930   22.8760  -31.4370 C   0  0  0  0  0  0  0  0  0  0  0  0
   -4.3240   22.8250  -31.7620 C   0  0  0  0  0  0  0  0  0  0  0  0
   -4.0079   22.4262  -32.7372 H   0  0  0  0  0  0  0  0  0  0  0  0
   -3.3650   23.2780  -30.8530 C   0  0  0  0  0  0  0  0  0  0  0  0
   -2.2975   23.2314  -31.1142 H   0  0  0  0  0  0  0  0  0  0  0  0
   -3.7570   23.7910  -29.6110 C   0  0  0  0  0  0  0  0  0  0  0  0
   -2.5390   24.3470  -28.4680 S   0  0  0  0  0  0  0  0  0  0  0  0
   -3.1800   24.5240  -27.1210 O   0  0  0  0  0  0  0  0  0  0  0  0
   -1.9590   25.6620  -28.9090 O   0  0  0  0  0  0  0  0  0  0  0  0
   -1.2620   23.1770  -28.3430 N   0  0  0  0  0  0  0  0  0  0  0  0
   -1.4270   21.9550  -27.9340 C   0  0  0  0  0  0  0  0  0  0  0  0
   -0.4130   21.0750  -27.8430 N   0  0  0  0  0  0  0  0  0  0  0  0
   -0.9280   19.9640  -27.4040 O   0  0  0  0  0  0  0  0  0  0  0  0
   -2.2210   20.0870  -27.2040 C   0  0  0  0  0  0  0  0  0  0  0  0
   -3.1100   18.9940  -26.7150 C   0  0  0  0  0  0  0  0  0  0  0  0
   -3.1140   18.9891  -25.6150 H   0  0  0  0  0  0  0  0  0  0  0  0
   -4.1326   19.1601  -27.0846 H   0  0  0  0  0  0  0  0  0  0  0  0
   -2.7391   18.0266  -27.0846 H   0  0  0  0  0  0  0  0  0  0  0  0
   -2.6140   21.3670  -27.5340 C   0  0  0  0  0  0  0  0  0  0  0  0
   -3.6199   21.8100  -27.4902 H   0  0  0  0  0  0  0  0  0  0  0  0
   -5.1180   23.8430  -29.2810 C   0  0  0  0  0  0  0  0  0  0  0  0
   -5.4314   24.2460  -28.3066 H   0  0  0  0  0  0  0  0  0  0  0  0
   -6.0780   23.3840  -30.1870 C   0  0  0  0  0  0  0  0  0  0  0  0
   -7.1440   23.4213  -29.9180 H   0  0  0  0  0  0  0  0  0  0  0  0
   -6.3160   19.9450  -32.6330 N   0  0  0  0  0  0  0  0  0  0  0  0
   -4.9290   20.0940  -33.1100 C   0  0  0  0  0  0  0  0  0  0  0  0
   -4.8066   19.5180  -34.0391 H   0  0  0  0  0  0  0  0  0  0  0  0
   -4.7365   21.1629  -33.2842 H   0  0  0  0  0  0  0  0  0  0  0  0
   -3.9210   19.5860  -32.0720 C   0  0  0  0  0  0  0  0  0  0  0  0
   -4.2486   19.9031  -31.0709 H   0  0  0  0  0  0  0  0  0  0  0  0
   -3.8781   18.4890  -32.1414 H   0  0  0  0  0  0  0  0  0  0  0  0
   -2.5390   20.1300  -32.3300 C   0  0  0  0  0  0  0  0  0  0  0  0
   -2.1460   20.4710  -33.6350 C   0  0  0  0  0  0  0  0  0  0  0  0
   -2.8430   20.3244  -34.4732 H   0  0  0  0  0  0  0  0  0  0  0  0
   -0.8720   20.9960  -33.8720 C   0  0  0  0  0  0  0  0  0  0  0  0
   -0.5667   21.2573  -34.8960 H   0  0  0  0  0  0  0  0  0  0  0  0
    0.0140   21.1890  -32.8080 C   0  0  0  0  0  0  0  0  0  0  0  0
    1.0175   21.5985  -32.9960 H   0  0  0  0  0  0  0  0  0  0  0  0
   -0.3740   20.8620  -31.5050 C   0  0  0  0  0  0  0  0  0  0  0  0
    0.3236   21.0171  -30.6687 H   0  0  0  0  0  0  0  0  0  0  0  0
   -1.6480   20.3380  -31.2640 C   0  0  0  0  0  0  0  0  0  0  0  0
   -1.9532   20.0881  -30.2372 H   0  0  0  0  0  0  0  0  0  0  0  0
   -7.0230   18.7650  -32.6050 C   0  0  0  0  0  0  0  0  0  0  0  0
   -6.4360   17.4330  -32.8640 C   0  0  0  0  0  0  0  0  0  0  0  0
   -6.8530   16.6920  -33.9800 C   0  0  0  0  0  0  0  0  0  0  0  0
   -7.5946   17.1169  -34.6724 H   0  0  0  0  0  0  0  0  0  0  0  0
   -6.3320   15.4180  -34.2170 C   0  0  0  0  0  0  0  0  0  0  0  0
   -6.6525   14.8544  -35.1056 H   0  0  0  0  0  0  0  0  0  0  0  0
   -5.4050   14.8520  -33.3330 C   0  0  0  0  0  0  0  0  0  0  0  0
   -4.9180   13.5650  -33.6210 O   0  0  0  0  0  0  0  0  0  0  0  0
   -4.9890   12.4370  -32.7490 C   0  0  0  0  0  0  0  0  0  0  0  0
   -4.7469   11.5264  -33.3167 H   0  0  0  0  0  0  0  0  0  0  0  0
   -6.0073   12.3724  -32.3380 H   0  0  0  0  0  0  0  0  0  0  0  0
   -4.0030   12.5830  -31.5930 C   0  0  0  0  0  0  0  0  0  0  0  0
   -4.5431   12.5030  -30.6381 H   0  0  0  0  0  0  0  0  0  0  0  0
   -3.2461   11.7871  -31.6539 H   0  0  0  0  0  0  0  0  0  0  0  0
   -3.5092   13.5641  -31.6539 H   0  0  0  0  0  0  0  0  0  0  0  0
   -4.9980   15.5880  -32.2020 C   0  0  0  0  0  0  0  0  0  0  0  0
   -4.2657   15.1579  -31.5029 H   0  0  0  0  0  0  0  0  0  0  0  0
   -5.5220   16.8640  -31.9650 C   0  0  0  0  0  0  0  0  0  0  0  0
   -5.2154   17.4236  -31.0690 H   0  0  0  0  0  0  0  0  0  0  0  0
  1  2  1  0
  2  3  1  0
  3  4  1  0
  4  5  1  0
  5  6  1  0
  5  7  1  0
  7  8  2  0
  8  9  1  0
  8 10  1  0
 10 11  1  0
 10 12  2  0
 12 13  1  0
 13 14  2  0
 13 15  2  0
 13 16  1  0
 16 17  2  0
 17 18  1  0
 18 19  1  0
 19 20  1  0
 20 21  1  0
 21 22  1  0
 21 23  1  0
 21 24  1  0
 20 25  2  0
 25 26  1  0
 12 27  1  0
 27 28  1  0
 27 29  2  0
 29 30  1  0
  4 31  2  0
 31 32  1  0
 32 33  1  0
 32 34  1  0
 32 35  1  0
 35 36  1  0
 35 37  1  0
 35 38  1  0
 38 39  2  0
 39 40  1  0
 39 41  1  0
 41 42  1  0
 41 43  2  0
 43 44  1  0
 43 45  1  0
 45 46  1  0
 45 47  2  0
 47 48  1  0
 31 49  1  0
 49 50  1  0
 50 51  2  0
 51 52  1  0
 51 53  1  0
 53 54  1  0
 53 55  2  0
 55 56  1  0
 56 57  1  0
 57 58  1  0
 57 59  1  0
 57 60  1  0
 60 61  1  0
 60 62  1  0
 60 63  1  0
 55 64  1  0
 64 65  1  0
 64 66  2  0
 66 67  1  0
 49  2  2  0
 66 50  1  0
 29  7  1  0
 47 38  1  0
 25 17  1  0
M  CHG  2  18  -1  31   1
M  END
>  <UniqueID>  (34) 
31

>  <SMILES>  (34) 
CCOc1ccc(-c2csc(Nc3ccc(S(=O)(=O)/N=c4\cc(C)o[n-]4)cc3)[n+]2CCc2ccccc2)cc1

>  <Energy>  (34) 
140.201892414015

>  <Genealogy>  (34) 
CCOc1ccc(-c2csc(Nc3ccc(S(=O)(=O)N=c4cc(C)o[n-]4)cc3)[n+]2CCc2ccccc2)cc1 (protonated)
CCOc1ccc(-c2csc(Nc3ccc(S(=O)(=O)/N=c4\cc(C)o[n-]4)cc3)[n+]2CCc2ccccc2)cc1 (cis-trans isomerization)
CCOc1ccc(-c2csc(Nc3ccc(S(=O)(=O)/N=c4\cc(C)o[n-]4)cc3)[n+]2CCc2ccccc2)cc1 (3D coordinates assigned)
CCOc1ccc(-c2csc(Nc3ccc(S(=O)(=O)/N=c4\cc(C)o[n-]4)cc3)[n+]2CCc2ccccc2)cc1 (optimized conformer: 140.201892414015 kcal/mol)

>  <smiles>  (34) 
CCOc1ccc(-c2csc(Nc3ccc(S(=O)(=O)N=c4cc(C)o[nH]4)cc3)[n+]2CCc2ccccc2)cc1

>  <score_type>  (34) 
oracle

>  <origin>  (34) 
adgpu

>  <m_score__min__energy>  (34) 
-10.92

>  <m_primary>  (34) 
energy

$$$$
34:0
     RDKit          3D

 37 38  0  0  0  0  0  0  0  0999 V2000
   -6.4820   17.0140  -33.7920 C   0  0  0  0  0  0  0  0  0  0  0  0
   -6.4380   18.3300  -34.3360 O   0  0  0  0  0  0  0  0  0  0  0  0
   -6.0340   19.4680  -33.6230 C   0  0  0  0  0  0  0  0  0  0  0  0
   -7.0200   20.2790  -33.0500 C   0  0  0  0  0  0  0  0  0  0  0  0
   -6.6700   21.4230  -32.3280 C   0  0  0  0  0  0  0  0  0  0  0  0
   -5.3180   21.7670  -32.1550 C   0  0  0  0  0  0  0  0  0  0  0  0
   -4.9310   22.9510  -31.4370 N   0  0  0  0  0  0  0  0  0  0  0  0
   -5.8340   24.0100  -31.0830 C   0  0  0  0  0  0  0  0  0  0  0  0
   -7.0790   23.8730  -31.2340 O   0  0  0  0  0  0  0  0  0  0  0  0
   -5.3040   25.2720  -30.4720 C   0  0  0  0  0  0  0  0  0  0  0  0
   -3.8400   25.2900  -30.4920 N   0  0  0  0  0  0  0  0  0  0  0  0
   -3.1730   24.1250  -29.3850 S   0  0  0  0  0  0  0  0  0  0  0  0
   -4.2610   23.2110  -28.8920 O   0  0  0  0  0  0  0  0  0  0  0  0
   -2.1500   23.2950  -30.1060 O   0  0  0  0  0  0  0  0  0  0  0  0
   -2.3910   24.9280  -28.0240 C   0  0  0  0  0  0  0  0  0  0  0  0
   -1.1640   25.5870  -28.1930 C   0  0  0  0  0  0  0  0  0  0  0  0
   -0.5440   26.2050  -27.1020 C   0  0  0  0  0  0  0  0  0  0  0  0
   -1.1430   26.1640  -25.8400 C   0  0  0  0  0  0  0  0  0  0  0  0
   -2.3630   25.5040  -25.6660 C   0  0  0  0  0  0  0  0  0  0  0  0
   -2.9850   24.8850  -26.7550 C   0  0  0  0  0  0  0  0  0  0  0  0
   -4.3310   20.9690  -32.7490 C   0  0  0  0  0  0  0  0  0  0  0  0
   -4.6800   19.8240  -33.4710 C   0  0  0  0  0  0  0  0  0  0  0  0
   -6.4801   17.0711  -32.6935 H   0  0  0  0  0  0  0  0  0  0  0  0
   -7.3976   16.5074  -34.1312 H   0  0  0  0  0  0  0  0  0  0  0  0
   -5.6023   16.4474  -34.1312 H   0  0  0  0  0  0  0  0  0  0  0  0
   -8.0808   20.0134  -33.1691 H   0  0  0  0  0  0  0  0  0  0  0  0
   -7.4562   22.0575  -31.8929 H   0  0  0  0  0  0  0  0  0  0  0  0
   -3.9540   23.0020  -31.0670 H   0  0  0  0  0  0  0  0  0  0  0  0
   -5.6822   26.1338  -31.0415 H   0  0  0  0  0  0  0  0  0  0  0  0
   -5.6409   25.3234  -29.4261 H   0  0  0  0  0  0  0  0  0  0  0  0
   -0.6890   25.6177  -29.1847 H   0  0  0  0  0  0  0  0  0  0  0  0
    0.4164   26.7240  -27.2375 H   0  0  0  0  0  0  0  0  0  0  0  0
   -0.6544   26.6512  -24.9833 H   0  0  0  0  0  0  0  0  0  0  0  0
   -2.8338   25.4715  -24.6724 H   0  0  0  0  0  0  0  0  0  0  0  0
   -3.9431   24.3629  -26.6153 H   0  0  0  0  0  0  0  0  0  0  0  0
   -3.2715   21.2463  -32.6461 H   0  0  0  0  0  0  0  0  0  0  0  0
   -3.8948   19.1993  -33.9217 H   0  0  0  0  0  0  0  0  0  0  0  0
  1  2  1  0
  2  3  1  0
  3  4  2  0
  4  5  1  0
  5  6  2  0
  6  7  1  0
  7  8  1  0
  8  9  2  0
  8 10  1  0
 10 11  1  0
 11 12  1  0
 12 13  2  0
 12 14  2  0
 12 15  1  0
 15 16  2  0
 16 17  1  0
 17 18  2  0
 18 19  1  0
 19 20  2  0
  6 21  1  0
 21 22  2  0
 22  3  1  0
 20 15  1  0
  1 23  1  0
  1 24  1  0
  1 25  1  0
  4 26  1  0
  5 27  1  0
  7 28  1  0
 10 29  1  0
 10 30  1  0
 16 31  1  0
 17 32  1  0
 18 33  1  0
 19 34  1  0
 20 35  1  0
 21 36  1  0
 22 37  1  0
M  CHG  1  11  -1
M  END
>  <UniqueID>  (35) 
32

>  <SMILES>  (35) 
COc1ccc(NC(=O)C[N-]S(=O)(=O)c2ccccc2)cc1

>  <Energy>  (35) 
38.26473194054053

>  <Genealogy>  (35) 
COc1ccc(NC(=O)C[N-]S(=O)(=O)c2ccccc2)cc1 (protonated)
COc1ccc(NC(=O)C[N-]S(=O)(=O)c2ccccc2)cc1 (3D coordinates assigned)
COc1ccc(NC(=O)C[N-]S(=O)(=O)c2ccccc2)cc1 (optimized conformer: 38.26473194054053 kcal/mol)

>  <smiles>  (35) 
COc1ccc(NC(=O)CNS(=O)(=O)c2ccccc2)cc1

>  <score_type>  (35) 
oracle

>  <origin>  (35) 
adgpu

>  <m_score__min__energy>  (35) 
-8.8200000000000003

>  <m_primary>  (35) 
energy

$$$$
35:0
     RDKit          3D

 41 44  0  0  0  0  0  0  0  0999 V2000
   -2.3620   26.4440  -28.9570 H   0  0  0  0  0  0  0  0  0  0  0  0
   -2.0620   25.4430  -28.9700 N   0  0  0  0  0  0  0  0  0  0  0  0
   -2.7450   24.5480  -29.6040 C   0  0  0  0  0  0  0  0  0  0  0  0
   -3.8800   24.8310  -30.2860 N   0  0  0  0  0  0  0  0  0  0  0  0
   -4.3840   23.7050  -30.8520 C   0  0  0  0  0  0  0  0  0  0  0  0
   -5.5450   23.6610  -31.6210 C   0  0  0  0  0  0  0  0  0  0  0  0
   -6.1275   24.5752  -31.8078 H   0  0  0  0  0  0  0  0  0  0  0  0
   -5.9590   22.4280  -32.1540 C   0  0  0  0  0  0  0  0  0  0  0  0
   -6.8726   22.3803  -32.7648 H   0  0  0  0  0  0  0  0  0  0  0  0
   -5.2150   21.2450  -31.9150 C   0  0  0  0  0  0  0  0  0  0  0  0
   -5.6620   19.9480  -32.4830 C   0  0  0  0  0  0  0  0  0  0  0  0
   -5.6360   19.7270  -33.8710 C   0  0  0  0  0  0  0  0  0  0  0  0
   -5.2820   20.5231  -34.5425 H   0  0  0  0  0  0  0  0  0  0  0  0
   -6.0550   18.5070  -34.4060 C   0  0  0  0  0  0  0  0  0  0  0  0
   -6.0331   18.3517  -35.4948 H   0  0  0  0  0  0  0  0  0  0  0  0
   -6.5050   17.4750  -33.5620 C   0  0  0  0  0  0  0  0  0  0  0  0
   -6.9390   16.2010  -34.0790 N   0  0  0  0  0  0  0  0  0  0  0  0
   -7.9070   16.1270  -34.4680 H   0  0  0  0  0  0  0  0  0  0  0  0
   -6.1400   14.9760  -34.0420 C   0  0  0  0  0  0  0  0  0  0  0  0
   -6.3981   14.4040  -33.1386 H   0  0  0  0  0  0  0  0  0  0  0  0
   -6.3578   14.3850  -34.9439 H   0  0  0  0  0  0  0  0  0  0  0  0
   -4.6680   15.2990  -34.0190 C   0  0  0  0  0  0  0  0  0  0  0  0
   -4.1010   16.1140  -35.0130 C   0  0  0  0  0  0  0  0  0  0  0  0
   -4.7346   16.5237  -35.8135 H   0  0  0  0  0  0  0  0  0  0  0  0
   -2.7340   16.4060  -34.9880 C   0  0  0  0  0  0  0  0  0  0  0  0
   -2.2962   17.0500  -35.7649 H   0  0  0  0  0  0  0  0  0  0  0  0
   -1.9230   15.8820  -33.9790 C   0  0  0  0  0  0  0  0  0  0  0  0
   -0.8484   16.1163  -33.9605 H   0  0  0  0  0  0  0  0  0  0  0  0
   -2.4770   15.0580  -32.9900 C   0  0  0  0  0  0  0  0  0  0  0  0
   -1.6780   14.5260  -31.9800 O   0  0  0  0  0  0  0  0  0  0  0  0
   -0.9030   15.0480  -31.5870 H   0  0  0  0  0  0  0  0  0  0  0  0
   -3.8450   14.7650  -33.0140 C   0  0  0  0  0  0  0  0  0  0  0  0
   -4.2783   14.1128  -32.2414 H   0  0  0  0  0  0  0  0  0  0  0  0
   -6.5380   17.6970  -32.1770 C   0  0  0  0  0  0  0  0  0  0  0  0
   -6.8968   16.9024  -31.5063 H   0  0  0  0  0  0  0  0  0  0  0  0
   -6.1190   18.9190  -31.6410 C   0  0  0  0  0  0  0  0  0  0  0  0
   -6.1472   19.0762  -30.5527 H   0  0  0  0  0  0  0  0  0  0  0  0
   -4.0420   21.3140  -31.1310 C   0  0  0  0  0  0  0  0  0  0  0  0
   -3.4465   20.4112  -30.9302 H   0  0  0  0  0  0  0  0  0  0  0  0
   -3.6560   22.5490  -30.6180 C   0  0  0  0  0  0  0  0  0  0  0  0
   -2.3180   22.9130  -29.6690 S   0  0  0  0  0  0  0  0  0  0  0  0
  1  2  1  0
  2  3  2  0
  3  4  1  0
  4  5  1  0
  5  6  2  0
  6  7  1  0
  6  8  1  0
  8  9  1  0
  8 10  2  0
 10 11  1  0
 11 12  2  0
 12 13  1  0
 12 14  1  0
 14 15  1  0
 14 16  2  0
 16 17  1  0
 17 18  1  0
 17 19  1  0
 19 20  1  0
 19 21  1  0
 19 22  1  0
 22 23  2  0
 23 24  1  0
 23 25  1  0
 25 26  1  0
 25 27  2  0
 27 28  1  0
 27 29  1  0
 29 30  1  0
 30 31  1  0
 29 32  2  0
 32 33  1  0
 16 34  1  0
 34 35  1  0
 34 36  2  0
 36 37  1  0
 10 38  1  0
 38 39  1  0
 38 40  2  0
 40 41  1  0
 41  3  1  0
 40  5  1  0
 36 11  1  0
 32 22  1  0
M  CHG  1   4  -1
M  END
>  <UniqueID>  (36) 
33

>  <SMILES>  (36) 
[H]/N=c1\[n-]c2ccc(-c3ccc(NCc4cccc(O)c4)cc3)cc2s1

>  <Energy>  (36) 
84.33497892823331

>  <Genealogy>  (36) 
N=c1[n-]c2ccc(-c3ccc(NCc4cccc(O)c4)cc3)cc2s1 (protonated)
[H]/N=c1\[n-]c2ccc(-c3ccc(NCc4cccc(O)c4)cc3)cc2s1 (cis-trans isomerization)
[H]/N=c1\[n-]c2ccc(-c3ccc(NCc4cccc(O)c4)cc3)cc2s1 (3D coordinates assigned)
[H]/N=c1\[n-]c2ccc(-c3ccc(NCc4cccc(O)c4)cc3)cc2s1 (optimized conformer: 84.33497892823331 kcal/mol)

>  <smiles>  (36) 
N=c1[nH]c2ccc(-c3ccc(NCc4cccc(O)c4)cc3)cc2s1

>  <score_type>  (36) 
oracle

>  <origin>  (36) 
adgpu

>  <m_score__min__energy>  (36) 
-9.2899999999999991

>  <m_primary>  (36) 
energy

$$$$
36:0
     RDKit          3D

 38 40  0  0  0  0  0  0  0  0999 V2000
   -5.8960   18.1880  -35.3250 N   0  0  0  0  0  0  0  0  0  0  0  0
   -5.5770   18.3870  -33.6390 S   0  0  0  0  0  0  0  0  0  0  0  0
   -4.3270   19.2030  -33.4550 O   0  0  0  0  0  0  0  0  0  0  0  0
   -5.3690   17.0390  -33.0080 O   0  0  0  0  0  0  0  0  0  0  0  0
   -6.9370   19.2040  -32.8740 C   0  0  0  0  0  0  0  0  0  0  0  0
   -8.0280   18.4660  -32.3970 C   0  0  0  0  0  0  0  0  0  0  0  0
   -9.1100   19.1200  -31.8010 C   0  0  0  0  0  0  0  0  0  0  0  0
   -9.1100   20.5110  -31.6810 C   0  0  0  0  0  0  0  0  0  0  0  0
   -8.0220   21.2620  -32.1530 C   0  0  0  0  0  0  0  0  0  0  0  0
   -8.0300   22.7620  -32.0270 C   0  0  0  0  0  0  0  0  0  0  0  0
   -6.7720   23.3110  -32.4190 O   0  0  0  0  0  0  0  0  0  0  0  0
   -5.6200   23.3540  -31.6160 C   0  0  0  0  0  0  0  0  0  0  0  0
   -4.5190   22.5790  -31.9980 C   0  0  0  0  0  0  0  0  0  0  0  0
   -3.3440   22.5900  -31.2390 C   0  0  0  0  0  0  0  0  0  0  0  0
   -3.2540   23.3770  -30.0800 C   0  0  0  0  0  0  0  0  0  0  0  0
   -2.0450   23.3900  -29.3000 N   0  0  0  0  0  0  0  0  0  0  0  0
   -1.4190   22.3300  -28.7460 C   0  0  0  0  0  0  0  0  0  0  0  0
   -1.8480   21.0140  -28.8710 O   0  0  0  0  0  0  0  0  0  0  0  0
   -0.2840   22.7230  -28.0650 C   0  0  0  0  0  0  0  0  0  0  0  0
   -0.2070   24.0960  -28.2080 C   0  0  0  0  0  0  0  0  0  0  0  0
   -1.3000   24.4650  -28.9660 C   0  0  0  0  0  0  0  0  0  0  0  0
   -1.6110   25.7730  -29.3180 O   0  0  0  0  0  0  0  0  0  0  0  0
   -4.3600   24.1500  -29.6920 C   0  0  0  0  0  0  0  0  0  0  0  0
   -5.5340   24.1390  -30.4520 C   0  0  0  0  0  0  0  0  0  0  0  0
   -6.9420   20.6020  -32.7630 C   0  0  0  0  0  0  0  0  0  0  0  0
   -6.5640   18.9430  -35.6000 H   0  0  0  0  0  0  0  0  0  0  0  0
   -8.0332   17.3701  -32.4916 H   0  0  0  0  0  0  0  0  0  0  0  0
   -9.9639   18.5371  -31.4254 H   0  0  0  0  0  0  0  0  0  0  0  0
   -9.9661   21.0205  -31.2147 H   0  0  0  0  0  0  0  0  0  0  0  0
   -8.8199   23.1738  -32.6724 H   0  0  0  0  0  0  0  0  0  0  0  0
   -8.2175   23.0262  -30.9758 H   0  0  0  0  0  0  0  0  0  0  0  0
   -4.5781   21.9560  -32.9027 H   0  0  0  0  0  0  0  0  0  0  0  0
   -2.4852   21.9782  -31.5523 H   0  0  0  0  0  0  0  0  0  0  0  0
    0.4172   22.0747  -27.5191 H   0  0  0  0  0  0  0  0  0  0  0  0
    0.5689   24.7604  -27.8000 H   0  0  0  0  0  0  0  0  0  0  0  0
   -4.3027   24.7684  -28.7841 H   0  0  0  0  0  0  0  0  0  0  0  0
   -6.3948   24.7475  -30.1378 H   0  0  0  0  0  0  0  0  0  0  0  0
   -6.0958   21.1850  -33.1556 H   0  0  0  0  0  0  0  0  0  0  0  0
  1  2  1  0
  2  3  2  0
  2  4  2  0
  2  5  1  0
  5  6  2  0
  6  7  1  0
  7  8  2  0
  8  9  1  0
  9 10  1  0
 10 11  1  0
 11 12  1  0
 12 13  2  0
 13 14  1  0
 14 15  2  0
 15 16  1  0
 16 17  1  0
 17 18  1  0
 17 19  2  0
 19 20  1  0
 20 21  2  0
 21 22  1  0
 15 23  1  0
 23 24  2  0
  9 25  2  0
 25  5  1  0
 24 12  1  0
 21 16  1  0
  1 26  1  0
  6 27  1  0
  7 28  1  0
  8 29  1  0
 10 30  1  0
 10 31  1  0
 13 32  1  0
 14 33  1  0
 19 34  1  0
 20 35  1  0
 23 36  1  0
 24 37  1  0
 25 38  1  0
M  CHG  3   1  -1  18  -1  22  -1
M  END
>  <UniqueID>  (37) 
34

>  <SMILES>  (37) 
[NH-]S(=O)(=O)c1cccc(COc2ccc(-n3c([O-])ccc3[O-])cc2)c1

>  <Energy>  (37) 
73.3620797682918

>  <Genealogy>  (37) 
[NH-]S(=O)(=O)c1cccc(COc2ccc(-n3c([O-])ccc3[O-])cc2)c1 (protonated)
[NH-]S(=O)(=O)c1cccc(COc2ccc(-n3c([O-])ccc3[O-])cc2)c1 (3D coordinates assigned)
[NH-]S(=O)(=O)c1cccc(COc2ccc(-n3c([O-])ccc3[O-])cc2)c1 (optimized conformer: 73.3620797682918 kcal/mol)

>  <smiles>  (37) 
NS(=O)(=O)c1cccc(COc2ccc(-n3c(O)ccc3O)cc2)c1

>  <score_type>  (37) 
oracle

>  <origin>  (37) 
adgpu

>  <m_score__min__energy>  (37) 
-12.66

>  <m_primary>  (37) 
energy

$$$$
37:0
     RDKit          3D

 39 42  0  0  0  0  0  0  0  0999 V2000
   -6.1110   16.6010  -33.8090 C   0  0  0  0  0  0  0  0  0  0  0  0
   -6.8310   17.6690  -33.0590 C   0  0  0  0  0  0  0  0  0  0  0  0
   -6.4650   18.9650  -33.0570 N   0  0  0  0  0  0  0  0  0  0  0  0
   -7.4240   19.5110  -32.2760 C   0  0  0  0  0  0  0  0  0  0  0  0
   -7.4890   20.9490  -31.9380 C   0  0  0  0  0  0  0  0  0  0  0  0
   -8.6600   21.6860  -32.1850 C   0  0  0  0  0  0  0  0  0  0  0  0
   -8.7220   23.0430  -31.8580 C   0  0  0  0  0  0  0  0  0  0  0  0
   -7.6180   23.6800  -31.2870 C   0  0  0  0  0  0  0  0  0  0  0  0
   -6.4410   22.9610  -31.0440 C   0  0  0  0  0  0  0  0  0  0  0  0
   -5.0550   23.7600  -30.3010 S   0  0  0  0  0  0  0  0  0  0  0  0
   -4.5690   24.8500  -31.2150 O   0  0  0  0  0  0  0  0  0  0  0  0
   -5.4880   24.3760  -28.9990 O   0  0  0  0  0  0  0  0  0  0  0  0
   -3.7610   22.6330  -30.0070 N   0  0  0  0  0  0  0  0  0  0  0  0
   -3.1760   22.5760  -28.6590 C   0  0  0  0  0  0  0  0  0  0  0  0
   -2.2480   21.4100  -28.4650 C   0  0  0  0  0  0  0  0  0  0  0  0
   -1.8870   21.0960  -27.3000 O   0  0  0  0  0  0  0  0  0  0  0  0
   -1.7260   20.6890  -29.5820 N   0  0  0  0  0  0  0  0  0  0  0  0
   -2.1730   20.9730  -30.9090 C   0  0  0  0  0  0  0  0  0  0  0  0
   -1.6300   20.2910  -32.0040 C   0  0  0  0  0  0  0  0  0  0  0  0
   -2.0910   20.5640  -33.2930 C   0  0  0  0  0  0  0  0  0  0  0  0
   -3.0960   21.5150  -33.4680 C   0  0  0  0  0  0  0  0  0  0  0  0
   -3.6130   22.1660  -32.3920 N   0  0  0  0  0  0  0  0  0  0  0  0
   -3.1800   21.9250  -31.1220 C   0  0  0  0  0  0  0  0  0  0  0  0
   -6.3810   21.5970  -31.3640 C   0  0  0  0  0  0  0  0  0  0  0  0
   -8.3140   18.5960  -31.8410 N   0  0  0  0  0  0  0  0  0  0  0  0
   -7.9140   17.4700  -32.3500 O   0  0  0  0  0  0  0  0  0  0  0  0
   -5.6422   15.9056  -33.0973 H   0  0  0  0  0  0  0  0  0  0  0  0
   -6.8244   16.0526  -34.4416 H   0  0  0  0  0  0  0  0  0  0  0  0
   -5.3350   17.0567  -34.4416 H   0  0  0  0  0  0  0  0  0  0  0  0
   -9.5321   21.1919  -32.6381 H   0  0  0  0  0  0  0  0  0  0  0  0
   -9.6436   23.6117  -32.0510 H   0  0  0  0  0  0  0  0  0  0  0  0
   -7.6730   24.7476  -31.0279 H   0  0  0  0  0  0  0  0  0  0  0  0
   -2.6126   23.5042  -28.4829 H   0  0  0  0  0  0  0  0  0  0  0  0
   -4.0060   22.4550  -27.9474 H   0  0  0  0  0  0  0  0  0  0  0  0
   -1.0200   19.9350  -29.4190 H   0  0  0  0  0  0  0  0  0  0  0  0
   -0.8408   19.5406  -31.8490 H   0  0  0  0  0  0  0  0  0  0  0  0
   -1.6670   20.0358  -34.1597 H   0  0  0  0  0  0  0  0  0  0  0  0
   -3.4709   21.7387  -34.4777 H   0  0  0  0  0  0  0  0  0  0  0  0
   -5.4600   21.0296  -31.1644 H   0  0  0  0  0  0  0  0  0  0  0  0
  1  2  1  0
  2  3  2  0
  3  4  1  0
  4  5  1  0
  5  6  2  0
  6  7  1  0
  7  8  2  0
  8  9  1  0
  9 10  1  0
 10 11  2  0
 10 12  2  0
 10 13  1  0
 13 14  1  0
 14 15  1  0
 15 16  2  0
 15 17  1  0
 17 18  1  0
 18 19  2  0
 19 20  1  0
 20 21  2  0
 21 22  1  0
 22 23  2  0
  9 24  2  0
  4 25  2  0
 25 26  1  0
 26  2  1  0
 24  5  1  0
 23 13  1  0
 23 18  1  0
  1 27  1  0
  1 28  1  0
  1 29  1  0
  6 30  1  0
  7 31  1  0
  8 32  1  0
 14 33  1  0
 14 34  1  0
 17 35  1  0
 19 36  1  0
 20 37  1  0
 21 38  1  0
 24 39  1  0
M  END
>  <UniqueID>  (38) 
35

>  <SMILES>  (38) 
Cc1nc(-c2cccc(S(=O)(=O)N3CC(=O)Nc4cccnc43)c2)no1

>  <Energy>  (38) 
78.80788509027047

>  <Genealogy>  (38) 
Cc1nc(-c2cccc(S(=O)(=O)N3CC(=O)Nc4cccnc43)c2)no1 (3D coordinates assigned)
Cc1nc(-c2cccc(S(=O)(=O)N3CC(=O)Nc4cccnc43)c2)no1 (nonaromatic ring conformer: 78.80788509027047 kcal/mol)

>  <smiles>  (38) 
Cc1nc(-c2cccc(S(=O)(=O)N3CC(=O)Nc4cccnc43)c2)no1

>  <score_type>  (38) 
oracle

>  <origin>  (38) 
adgpu

>  <m_score__min__energy>  (38) 
-9.5600000000000005

>  <m_primary>  (38) 
energy

$$$$
38:0
     RDKit          3D

 37 39  0  0  0  0  0  0  0  0999 V2000
   -5.2073   23.3381  -28.1265 H   0  0  0  0  0  0  0  0  0  0  0  0
   -4.8050   23.8100  -29.0350 C   0  0  0  0  0  0  0  0  0  0  0  0
   -5.3370   23.8000  -30.3090 C   0  0  0  0  0  0  0  0  0  0  0  0
   -6.4750   23.0440  -30.7500 N   0  0  0  0  0  0  0  0  0  0  0  0
   -6.4850   21.8830  -31.3460 C   0  0  0  0  0  0  0  0  0  0  0  0
   -7.6780   21.3960  -31.7810 N   0  0  0  0  0  0  0  0  0  0  0  0
   -7.8000   20.1910  -32.4060 C   0  0  0  0  0  0  0  0  0  0  0  0
   -9.1590   19.7430  -32.8570 C   0  0  0  0  0  0  0  0  0  0  0  0
   -9.7872   19.5359  -31.9781 H   0  0  0  0  0  0  0  0  0  0  0  0
   -9.6243   20.5353  -33.4618 H   0  0  0  0  0  0  0  0  0  0  0  0
   -9.0619   18.8293  -33.4618 H   0  0  0  0  0  0  0  0  0  0  0  0
   -6.6560   19.3990  -32.6110 C   0  0  0  0  0  0  0  0  0  0  0  0
   -6.7310   18.1140  -33.2660 C   0  0  0  0  0  0  0  0  0  0  0  0
   -6.7920   17.0850  -33.7910 N   0  0  0  0  0  0  0  0  0  0  0  0
   -5.4200   19.8640  -32.1550 C   0  0  0  0  0  0  0  0  0  0  0  0
   -4.5170   19.2529  -32.3002 H   0  0  0  0  0  0  0  0  0  0  0  0
   -5.3270   21.1010  -31.5160 C   0  0  0  0  0  0  0  0  0  0  0  0
   -4.3556   21.4625  -31.1477 H   0  0  0  0  0  0  0  0  0  0  0  0
   -4.5230   24.4520  -31.1560 N   0  0  0  0  0  0  0  0  0  0  0  0
   -3.5010   24.9240  -30.4590 N   0  0  0  0  0  0  0  0  0  0  0  0
   -3.6460   24.5540  -29.1710 C   0  0  0  0  0  0  0  0  0  0  0  0
   -2.6690   24.8860  -28.1040 C   0  0  0  0  0  0  0  0  0  0  0  0
   -3.0420   24.8950  -26.7470 C   0  0  0  0  0  0  0  0  0  0  0  0
   -4.0765   24.6505  -26.4640 H   0  0  0  0  0  0  0  0  0  0  0  0
   -2.1090   25.2120  -25.7560 C   0  0  0  0  0  0  0  0  0  0  0  0
   -2.4134   25.2186  -24.6990 H   0  0  0  0  0  0  0  0  0  0  0  0
   -0.7890   25.5210  -26.1030 C   0  0  0  0  0  0  0  0  0  0  0  0
    0.3850   25.9310  -24.8570 S   0  0  0  0  0  0  0  0  0  0  0  0
    1.4710   26.7800  -25.4540 O   0  0  0  0  0  0  0  0  0  0  0  0
   -0.2890   26.6890  -23.7480 O   0  0  0  0  0  0  0  0  0  0  0  0
    1.0760   24.4860  -24.2040 N   0  0  0  0  0  0  0  0  0  0  0  0
    1.7560   24.7770  -23.4660 H   0  0  0  0  0  0  0  0  0  0  0  0
    0.3070   23.9710  -23.7190 H   0  0  0  0  0  0  0  0  0  0  0  0
   -0.4110   25.5240  -27.4500 C   0  0  0  0  0  0  0  0  0  0  0  0
    0.6227   25.7768  -27.7285 H   0  0  0  0  0  0  0  0  0  0  0  0
   -1.3420   25.2070  -28.4430 C   0  0  0  0  0  0  0  0  0  0  0  0
   -1.0343   25.2085  -29.4991 H   0  0  0  0  0  0  0  0  0  0  0  0
  1  2  1  0
  2  3  1  0
  3  4  1  0
  4  5  2  0
  5  6  1  0
  6  7  1  0
  7  8  1  0
  8  9  1  0
  8 10  1  0
  8 11  1  0
  7 12  2  0
 12 13  1  0
 13 14  3  0
 12 15  1  0
 15 16  1  0
 15 17  2  0
 17 18  1  0
  3 19  2  0
 19 20  1  0
 20 21  1  0
 21 22  1  0
 22 23  2  0
 23 24  1  0
 23 25  1  0
 25 26  1  0
 25 27  2  0
 27 28  1  0
 28 29  2  0
 28 30  2  0
 28 31  1  0
 31 32  1  0
 31 33  1  0
 27 34  1  0
 34 35  1  0
 34 36  2  0
 36 37  1  0
 21  2  2  0
 36 22  1  0
 17  5  1  0
M  CHG  2   6  -1  20  -1
M  END
>  <UniqueID>  (39) 
36

>  <SMILES>  (39) 
Cc1[n-]/c(=N/c2cc(-c3ccc(S(N)(=O)=O)cc3)[n-]n2)ccc1C#N

>  <Energy>  (39) 
78.08513514732992

>  <Genealogy>  (39) 
Cc1[n-]c(=Nc2cc(-c3ccc(S(N)(=O)=O)cc3)[n-]n2)ccc1C#N (protonated)
Cc1[n-]/c(=N/c2cc(-c3ccc(S(N)(=O)=O)cc3)[n-]n2)ccc1C#N (cis-trans isomerization)
Cc1[n-]/c(=N/c2cc(-c3ccc(S(N)(=O)=O)cc3)[n-]n2)ccc1C#N (3D coordinates assigned)
Cc1[n-]/c(=N/c2cc(-c3ccc(S(N)(=O)=O)cc3)[n-]n2)ccc1C#N (optimized conformer: 78.08513514732992 kcal/mol)

>  <smiles>  (39) 
Cc1[nH]c(=Nc2cc(-c3ccc(S(N)(=O)=O)cc3)[nH]n2)ccc1C#N

>  <score_type>  (39) 
oracle

>  <origin>  (39) 
adgpu

>  <m_score__min__energy>  (39) 
-11.48

>  <m_primary>  (39) 
energy

$$$$
39:0
     RDKit          3D

 47 50  0  0  0  0  0  0  0  0999 V2000
    2.8467   20.7595  -36.3907 H   0  0  0  0  0  0  0  0  0  0  0  0
    1.8620   20.6740  -35.9080 C   0  0  0  0  0  0  0  0  0  0  0  0
    1.1780   21.7940  -35.5560 N   0  0  0  0  0  0  0  0  0  0  0  0
   -0.0410   21.7320  -34.9570 C   0  0  0  0  0  0  0  0  0  0  0  0
   -0.5650   22.6604  -34.6859 H   0  0  0  0  0  0  0  0  0  0  0  0
   -0.6360   20.4870  -34.6820 C   0  0  0  0  0  0  0  0  0  0  0  0
   -1.9650   20.4050  -34.0310 C   0  0  0  0  0  0  0  0  0  0  0  0
   -2.7060   19.2690  -34.1240 N   0  0  0  0  0  0  0  0  0  0  0  0
   -3.9340   19.1690  -33.5510 C   0  0  0  0  0  0  0  0  0  0  0  0
   -4.7060   17.9070  -33.6760 C   0  0  0  0  0  0  0  0  0  0  0  0
   -6.0970   17.9770  -33.8860 C   0  0  0  0  0  0  0  0  0  0  0  0
   -6.5842   18.9586  -33.9809 H   0  0  0  0  0  0  0  0  0  0  0  0
   -6.8640   16.8140  -33.9750 C   0  0  0  0  0  0  0  0  0  0  0  0
   -7.9490   16.8830  -34.1424 H   0  0  0  0  0  0  0  0  0  0  0  0
   -6.2570   15.5660  -33.8520 C   0  0  0  0  0  0  0  0  0  0  0  0
   -6.8649   14.6514  -33.9142 H   0  0  0  0  0  0  0  0  0  0  0  0
   -4.8790   15.4740  -33.6500 C   0  0  0  0  0  0  0  0  0  0  0  0
   -4.4081   14.4850  -33.5493 H   0  0  0  0  0  0  0  0  0  0  0  0
   -4.0870   16.6330  -33.5740 C   0  0  0  0  0  0  0  0  0  0  0  0
   -2.6010   16.4820  -33.3780 C   0  0  0  0  0  0  0  0  0  0  0  0
   -2.3736   16.4589  -32.3020 H   0  0  0  0  0  0  0  0  0  0  0  0
   -2.2630   15.5449  -33.8444 H   0  0  0  0  0  0  0  0  0  0  0  0
   -2.0814   17.3320  -33.8444 H   0  0  0  0  0  0  0  0  0  0  0  0
   -4.4480   20.2600  -32.8380 C   0  0  0  0  0  0  0  0  0  0  0  0
   -5.4408   20.2024  -32.3679 H   0  0  0  0  0  0  0  0  0  0  0  0
   -3.6760   21.4280  -32.7330 C   0  0  0  0  0  0  0  0  0  0  0  0
   -4.1600   22.6240  -31.9990 C   0  0  0  0  0  0  0  0  0  0  0  0
   -5.4330   23.1680  -32.2460 C   0  0  0  0  0  0  0  0  0  0  0  0
   -6.0850   22.7222  -33.0116 H   0  0  0  0  0  0  0  0  0  0  0  0
   -5.8650   24.2740  -31.5170 C   0  0  0  0  0  0  0  0  0  0  0  0
   -6.8615   24.6999  -31.7059 H   0  0  0  0  0  0  0  0  0  0  0  0
   -5.0600   24.8280  -30.5740 N   0  0  0  0  0  0  0  0  0  0  0  0
   -3.8180   24.3470  -30.3030 C   0  0  0  0  0  0  0  0  0  0  0  0
   -3.1220   24.9420  -29.3730 N   0  0  0  0  0  0  0  0  0  0  0  0
   -1.7670   24.6980  -28.9590 C   0  0  0  0  0  0  0  0  0  0  0  0
   -0.8880   25.5980  -29.0360 O   0  0  0  0  0  0  0  0  0  0  0  0
   -1.4340   23.4120  -28.2820 C   0  0  0  0  0  0  0  0  0  0  0  0
   -1.4702   23.5516  -27.1915 H   0  0  0  0  0  0  0  0  0  0  0  0
   -2.1626   22.6427  -28.5775 H   0  0  0  0  0  0  0  0  0  0  0  0
   -0.4236   23.0929  -28.5775 H   0  0  0  0  0  0  0  0  0  0  0  0
   -3.3550   23.2140  -31.0060 C   0  0  0  0  0  0  0  0  0  0  0  0
   -2.3651   22.7919  -30.7780 H   0  0  0  0  0  0  0  0  0  0  0  0
   -2.4590   21.4670  -33.3410 N   0  0  0  0  0  0  0  0  0  0  0  0
    0.0650   19.3220  -35.0430 C   0  0  0  0  0  0  0  0  0  0  0  0
   -0.3734   18.3336  -34.8407 H   0  0  0  0  0  0  0  0  0  0  0  0
    1.3150   19.4160  -35.6570 C   0  0  0  0  0  0  0  0  0  0  0  0
    1.8638   18.5058  -35.9404 H   0  0  0  0  0  0  0  0  0  0  0  0
  1  2  1  0
  2  3  2  0
  3  4  1  0
  4  5  1  0
  4  6  2  0
  6  7  1  0
  7  8  2  0
  8  9  1  0
  9 10  1  0
 10 11  2  0
 11 12  1  0
 11 13  1  0
 13 14  1  0
 13 15  2  0
 15 16  1  0
 15 17  1  0
 17 18  1  0
 17 19  2  0
 19 20  1  0
 20 21  1  0
 20 22  1  0
 20 23  1  0
  9 24  2  0
 24 25  1  0
 24 26  1  0
 26 27  1  0
 27 28  1  0
 28 29  1  0
 28 30  2  0
 30 31  1  0
 30 32  1  0
 32 33  1  0
 33 34  2  0
 34 35  1  0
 35 36  2  0
 35 37  1  0
 37 38  1  0
 37 39  1  0
 37 40  1  0
 33 41  1  0
 41 42  1  0
 26 43  2  0
  6 44  1  0
 44 45  1  0
 44 46  2  0
 46 47  1  0
 46  2  1  0
 43  7  1  0
 19 10  1  0
 41 27  2  0
M  CHG  1  32  -1
M  END
>  <UniqueID>  (40) 
37

>  <SMILES>  (40) 
CC(=O)/N=c1\cc(-c2cc(-c3ccccc3C)nc(-c3cccnc3)n2)cc[n-]1

>  <Energy>  (40) 
70.40136556007901

>  <Genealogy>  (40) 
CC(=O)N=c1cc(-c2cc(-c3ccccc3C)nc(-c3cccnc3)n2)cc[n-]1 (protonated)
CC(=O)/N=c1\cc(-c2cc(-c3ccccc3C)nc(-c3cccnc3)n2)cc[n-]1 (cis-trans isomerization)
CC(=O)/N=c1\cc(-c2cc(-c3ccccc3C)nc(-c3cccnc3)n2)cc[n-]1 (3D coordinates assigned)
CC(=O)/N=c1\cc(-c2cc(-c3ccccc3C)nc(-c3cccnc3)n2)cc[n-]1 (optimized conformer: 70.40136556007901 kcal/mol)

>  <smiles>  (40) 
CC(=O)N=c1cc(-c2cc(-c3ccccc3C)nc(-c3cccnc3)n2)cc[nH]1

>  <score_type>  (40) 
oracle

>  <origin>  (40) 
adgpu

>  <m_score__min__energy>  (40) 
-10.4

>  <m_primary>  (40) 
energy

$$$$
40:0
     RDKit          3D

 56 59  0  0  0  0  0  0  0  0999 V2000
   -4.6070   24.4780  -28.5060 C   0  0  0  0  0  0  0  0  0  0  0  0
   -5.0320   24.6590  -30.2250 S   0  0  0  0  0  0  0  0  0  0  0  0
   -4.0850   25.6490  -30.8410 O   0  0  0  0  0  0  0  0  0  0  0  0
   -6.4380   25.1730  -30.3510 O   0  0  0  0  0  0  0  0  0  0  0  0
   -4.8890   23.1220  -31.0710 C   0  0  0  0  0  0  0  0  0  0  0  0
   -5.9930   22.2790  -31.2170 C   0  0  0  0  0  0  0  0  0  0  0  0
   -5.8330   21.0640  -31.9090 C   0  0  0  0  0  0  0  0  0  0  0  0
   -6.9250   20.1260  -32.0760 N   0  0  0  0  0  0  0  0  0  0  0  0
   -8.3140   20.6060  -32.1640 C   0  0  0  0  0  0  0  0  0  0  0  0
   -9.2760   19.5130  -32.6390 C   0  0  0  0  0  0  0  0  0  0  0  0
   -9.0410   18.3040  -31.9540 O   0  0  0  0  0  0  0  0  0  0  0  0
   -7.7830   17.8010  -32.3450 C   0  0  0  0  0  0  0  0  0  0  0  0
   -6.6530   18.6980  -31.8330 C   0  0  0  0  0  0  0  0  0  0  0  0
   -4.6030   20.7610  -32.4130 N   0  0  0  0  0  0  0  0  0  0  0  0
   -3.5370   21.5910  -32.2720 C   0  0  0  0  0  0  0  0  0  0  0  0
   -2.2220   21.2300  -32.8520 C   0  0  0  0  0  0  0  0  0  0  0  0
   -1.0290   21.5290  -32.1660 C   0  0  0  0  0  0  0  0  0  0  0  0
    0.2110   21.2100  -32.7240 C   0  0  0  0  0  0  0  0  0  0  0  0
    0.2860   20.5710  -33.9660 C   0  0  0  0  0  0  0  0  0  0  0  0
    1.5780   20.2980  -34.5290 N   0  0  0  0  0  0  0  0  0  0  0  0
    2.2460   21.0940  -35.5150 C   0  0  0  0  0  0  0  0  0  0  0  0
    3.0740   20.5370  -36.2830 O   0  0  0  0  0  0  0  0  0  0  0  0
    1.9460   22.5340  -35.6850 C   0  0  0  0  0  0  0  0  0  0  0  0
    2.9590   23.4980  -35.5480 C   0  0  0  0  0  0  0  0  0  0  0  0
    2.6680   24.8570  -35.6930 C   0  0  0  0  0  0  0  0  0  0  0  0
    1.3560   25.2770  -35.9740 C   0  0  0  0  0  0  0  0  0  0  0  0
    1.0040   26.6280  -36.1200 O   0  0  0  0  0  0  0  0  0  0  0  0
   -0.3090   27.1590  -35.9730 C   0  0  0  0  0  0  0  0  0  0  0  0
   -0.3450   28.4680  -36.4200 F   0  0  0  0  0  0  0  0  0  0  0  0
   -1.2160   26.3940  -36.6820 F   0  0  0  0  0  0  0  0  0  0  0  0
   -0.6530   27.1330  -34.6360 F   0  0  0  0  0  0  0  0  0  0  0  0
    0.3490   24.3150  -36.1110 C   0  0  0  0  0  0  0  0  0  0  0  0
    0.6360   22.9560  -35.9590 C   0  0  0  0  0  0  0  0  0  0  0  0
   -0.9000   20.2750  -34.6610 C   0  0  0  0  0  0  0  0  0  0  0  0
   -2.1410   20.5960  -34.1060 C   0  0  0  0  0  0  0  0  0  0  0  0
   -3.6930   22.7650  -31.6010 N   0  0  0  0  0  0  0  0  0  0  0  0
   -5.4409   24.8332  -27.8828 H   0  0  0  0  0  0  0  0  0  0  0  0
   -4.4106   23.4182  -28.2865 H   0  0  0  0  0  0  0  0  0  0  0  0
   -3.7068   25.0708  -28.2865 H   0  0  0  0  0  0  0  0  0  0  0  0
   -6.9707   22.5599  -30.7983 H   0  0  0  0  0  0  0  0  0  0  0  0
   -8.6331   20.9507  -31.1694 H   0  0  0  0  0  0  0  0  0  0  0  0
   -8.3424   21.4232  -32.8997 H   0  0  0  0  0  0  0  0  0  0  0  0
  -10.3103   19.8375  -32.4524 H   0  0  0  0  0  0  0  0  0  0  0  0
   -9.1141   19.3451  -33.7140 H   0  0  0  0  0  0  0  0  0  0  0  0
   -7.6553   16.7896  -31.9318 H   0  0  0  0  0  0  0  0  0  0  0  0
   -7.7408   17.7752  -33.4439 H   0  0  0  0  0  0  0  0  0  0  0  0
   -6.5361   18.5384  -30.7509 H   0  0  0  0  0  0  0  0  0  0  0  0
   -5.7353   18.4307  -32.3774 H   0  0  0  0  0  0  0  0  0  0  0  0
   -1.0742   22.0182  -31.1818 H   0  0  0  0  0  0  0  0  0  0  0  0
    1.1348   21.4630  -32.1831 H   0  0  0  0  0  0  0  0  0  0  0  0
    3.9884   23.1807  -35.3250 H   0  0  0  0  0  0  0  0  0  0  0  0
    3.4699   25.6024  -35.5867 H   0  0  0  0  0  0  0  0  0  0  0  0
   -0.6790   24.6319  -36.3407 H   0  0  0  0  0  0  0  0  0  0  0  0
   -0.1693   22.2128  -36.0546 H   0  0  0  0  0  0  0  0  0  0  0  0
   -0.8503   19.7884  -35.6463 H   0  0  0  0  0  0  0  0  0  0  0  0
   -3.0630   20.3512  -34.6537 H   0  0  0  0  0  0  0  0  0  0  0  0
  1  2  1  0
  2  3  2  0
  2  4  2  0
  2  5  1  0
  5  6  2  0
  6  7  1  0
  7  8  1  0
  8  9  1  0
  9 10  1  0
 10 11  1  0
 11 12  1  0
 12 13  1  0
  7 14  2  0
 14 15  1  0
 15 16  1  0
 16 17  2  0
 17 18  1  0
 18 19  2  0
 19 20  1  0
 20 21  1  0
 21 22  2  0
 21 23  1  0
 23 24  2  0
 24 25  1  0
 25 26  2  0
 26 27  1  0
 27 28  1  0
 28 29  1  0
 28 30  1  0
 28 31  1  0
 26 32  1  0
 32 33  2  0
 19 34  1  0
 34 35  2  0
 15 36  2  0
 36  5  1  0
 13  8  1  0
 35 16  1  0
 33 23  1  0
  1 37  1  0
  1 38  1  0
  1 39  1  0
  6 40  1  0
  9 41  1  0
  9 42  1  0
 10 43  1  0
 10 44  1  0
 12 45  1  0
 12 46  1  0
 13 47  1  0
 13 48  1  0
 17 49  1  0
 18 50  1  0
 24 51  1  0
 25 52  1  0
 32 53  1  0
 33 54  1  0
 34 55  1  0
 35 56  1  0
M  CHG  1  20  -1
M  END
>  <UniqueID>  (41) 
38

>  <SMILES>  (41) 
CS(=O)(=O)c1cc(N2CCOCC2)nc(-c2ccc([N-]C(=O)c3ccc(OC(F)(F)F)cc3)cc2)n1

>  <Energy>  (41) 
70.22377489879673

>  <Genealogy>  (41) 
CS(=O)(=O)c1cc(N2CCOCC2)nc(-c2ccc([N-]C(=O)c3ccc(OC(F)(F)F)cc3)cc2)n1 (protonated)
CS(=O)(=O)c1cc(N2CCOCC2)nc(-c2ccc([N-]C(=O)c3ccc(OC(F)(F)F)cc3)cc2)n1 (3D coordinates assigned)
CS(=O)(=O)c1cc(N2CCOCC2)nc(-c2ccc([N-]C(=O)c3ccc(OC(F)(F)F)cc3)cc2)n1 (nonaromatic ring conformer: 70.22377489879673 kcal/mol)

>  <smiles>  (41) 
CS(=O)(=O)c1cc(N2CCOCC2)nc(-c2ccc(NC(=O)c3ccc(OC(F)(F)F)cc3)cc2)n1

>  <score_type>  (41) 
oracle

>  <origin>  (41) 
adgpu

>  <m_score__min__energy>  (41) 
-9.6199999999999992

>  <m_primary>  (41) 
energy

$$$$
41:0
     RDKit          3D

 51 53  0  0  0  0  0  0  0  0999 V2000
   -4.2170   16.1680  -32.9960 C   0  0  0  0  0  0  0  0  0  0  0  0
   -5.3230   16.9550  -32.3760 C   0  0  0  0  0  0  0  0  0  0  0  0
   -5.9560   16.6010  -31.2820 O   0  0  0  0  0  0  0  0  0  0  0  0
   -6.8550   17.4830  -30.9520 N   0  0  0  0  0  0  0  0  0  0  0  0
   -6.8190   18.4600  -31.8810 C   0  0  0  0  0  0  0  0  0  0  0  0
   -7.6800   19.6580  -31.8240 C   0  0  0  0  0  0  0  0  0  0  0  0
   -7.2270   20.8460  -31.2230 C   0  0  0  0  0  0  0  0  0  0  0  0
   -8.0630   21.9660  -31.1600 C   0  0  0  0  0  0  0  0  0  0  0  0
   -9.3490   21.9120  -31.7050 C   0  0  0  0  0  0  0  0  0  0  0  0
   -9.7980   20.7410  -32.3210 C   0  0  0  0  0  0  0  0  0  0  0  0
   -8.9650   19.6200  -32.3870 C   0  0  0  0  0  0  0  0  0  0  0  0
   -5.8270   18.1670  -32.8090 C   0  0  0  0  0  0  0  0  0  0  0  0
   -5.3420   18.9780  -33.9830 C   0  0  0  0  0  0  0  0  0  0  0  0
   -4.1290   19.6680  -33.6770 O   0  0  0  0  0  0  0  0  0  0  0  0
   -4.0310   20.8130  -32.8700 C   0  0  0  0  0  0  0  0  0  0  0  0
   -4.9780   21.8280  -33.0460 C   0  0  0  0  0  0  0  0  0  0  0  0
   -4.9610   22.9610  -32.2300 C   0  0  0  0  0  0  0  0  0  0  0  0
   -3.9840   23.1000  -31.2380 C   0  0  0  0  0  0  0  0  0  0  0  0
   -4.0250   24.4950  -30.1640 S   0  0  0  0  0  0  0  0  0  0  0  0
   -4.8340   24.1520  -28.9440 O   0  0  0  0  0  0  0  0  0  0  0  0
   -4.6680   25.6670  -30.8510 O   0  0  0  0  0  0  0  0  0  0  0  0
   -2.4090   24.9070  -29.6830 N   0  0  0  0  0  0  0  0  0  0  0  0
   -2.2070   24.5650  -28.2740 C   0  0  0  0  0  0  0  0  0  0  0  0
   -1.6760   23.1280  -28.1300 C   0  0  0  0  0  0  0  0  0  0  0  0
   -0.4520   23.0680  -27.2080 C   0  0  0  0  0  0  0  0  0  0  0  0
   -2.7750   22.1750  -27.6440 C   0  0  0  0  0  0  0  0  0  0  0  0
   -3.0200   22.0970  -31.0700 C   0  0  0  0  0  0  0  0  0  0  0  0
   -3.0380   20.9610  -31.8840 C   0  0  0  0  0  0  0  0  0  0  0  0
   -3.5942   15.7248  -32.2050 H   0  0  0  0  0  0  0  0  0  0  0  0
   -4.6415   15.3677  -33.6200 H   0  0  0  0  0  0  0  0  0  0  0  0
   -3.6001   16.8313  -33.6200 H   0  0  0  0  0  0  0  0  0  0  0  0
   -6.2123   20.8948  -30.8012 H   0  0  0  0  0  0  0  0  0  0  0  0
   -7.7078   22.8903  -30.6809 H   0  0  0  0  0  0  0  0  0  0  0  0
  -10.0075   22.7913  -31.6490 H   0  0  0  0  0  0  0  0  0  0  0  0
  -10.8081   20.7010  -32.7546 H   0  0  0  0  0  0  0  0  0  0  0  0
   -9.3185   18.7038  -32.8826 H   0  0  0  0  0  0  0  0  0  0  0  0
   -5.1650   18.3042  -34.8343 H   0  0  0  0  0  0  0  0  0  0  0  0
   -6.1116   19.7247  -34.2283 H   0  0  0  0  0  0  0  0  0  0  0  0
   -5.7411   21.7327  -33.8326 H   0  0  0  0  0  0  0  0  0  0  0  0
   -5.7182   23.7469  -32.3675 H   0  0  0  0  0  0  0  0  0  0  0  0
   -1.4800   25.2636  -27.8342 H   0  0  0  0  0  0  0  0  0  0  0  0
   -3.1726   24.6375  -27.7522 H   0  0  0  0  0  0  0  0  0  0  0  0
   -1.3567   22.7967  -29.1291 H   0  0  0  0  0  0  0  0  0  0  0  0
   -0.7821   23.0842  -26.1588 H   0  0  0  0  0  0  0  0  0  0  0  0
    0.1081   22.1413  -27.4019 H   0  0  0  0  0  0  0  0  0  0  0  0
    0.1960   23.9355  -27.4019 H   0  0  0  0  0  0  0  0  0  0  0  0
   -2.7895   22.1625  -26.5442 H   0  0  0  0  0  0  0  0  0  0  0  0
   -3.7503   22.5181  -28.0196 H   0  0  0  0  0  0  0  0  0  0  0  0
   -2.5735   21.1610  -28.0196 H   0  0  0  0  0  0  0  0  0  0  0  0
   -2.2467   22.2040  -30.2951 H   0  0  0  0  0  0  0  0  0  0  0  0
   -2.2739   20.1805  -31.7535 H   0  0  0  0  0  0  0  0  0  0  0  0
  1  2  1  0
  2  3  1  0
  3  4  1  0
  4  5  2  0
  5  6  1  0
  6  7  2  0
  7  8  1  0
  8  9  2  0
  9 10  1  0
 10 11  2  0
  5 12  1  0
 12 13  1  0
 13 14  1  0
 14 15  1  0
 15 16  2  0
 16 17  1  0
 17 18  2  0
 18 19  1  0
 19 20  2  0
 19 21  2  0
 19 22  1  0
 22 23  1  0
 23 24  1  0
 24 25  1  0
 24 26  1  0
 18 27  1  0
 27 28  2  0
 12  2  2  0
 28 15  1  0
 11  6  1  0
  1 29  1  0
  1 30  1  0
  1 31  1  0
  7 32  1  0
  8 33  1  0
  9 34  1  0
 10 35  1  0
 11 36  1  0
 13 37  1  0
 13 38  1  0
 16 39  1  0
 17 40  1  0
 23 41  1  0
 23 42  1  0
 24 43  1  0
 25 44  1  0
 25 45  1  0
 25 46  1  0
 26 47  1  0
 26 48  1  0
 26 49  1  0
 27 50  1  0
 28 51  1  0
M  CHG  1  22  -1
M  END
>  <UniqueID>  (42) 
39

>  <SMILES>  (42) 
Cc1onc(-c2ccccc2)c1COc1ccc(S(=O)(=O)[N-]CC(C)C)cc1

>  <Energy>  (42) 
76.1447495213778

>  <Genealogy>  (42) 
Cc1onc(-c2ccccc2)c1COc1ccc(S(=O)(=O)[N-]CC(C)C)cc1 (protonated)
Cc1onc(-c2ccccc2)c1COc1ccc(S(=O)(=O)[N-]CC(C)C)cc1 (3D coordinates assigned)
Cc1onc(-c2ccccc2)c1COc1ccc(S(=O)(=O)[N-]CC(C)C)cc1 (optimized conformer: 76.1447495213778 kcal/mol)

>  <smiles>  (42) 
Cc1onc(-c2ccccc2)c1COc1ccc(S(=O)(=O)NCC(C)C)cc1

>  <score_type>  (42) 
oracle

>  <origin>  (42) 
adgpu

>  <m_score__min__energy>  (42) 
-10.65

>  <m_primary>  (42) 
energy

$$$$
42:0
     RDKit          3D

 47 50  0  0  0  0  0  0  0  0999 V2000
   -1.6660   23.7410  -26.6120 C   0  0  0  0  0  0  0  0  0  0  0  0
   -1.7440   22.8430  -27.8220 C   0  0  0  0  0  0  0  0  0  0  0  0
   -1.4070   21.4850  -27.6710 C   0  0  0  0  0  0  0  0  0  0  0  0
   -1.5110   20.6020  -28.7500 C   0  0  0  0  0  0  0  0  0  0  0  0
   -1.9460   21.0620  -29.9930 C   0  0  0  0  0  0  0  0  0  0  0  0
   -2.2600   22.4110  -30.1670 C   0  0  0  0  0  0  0  0  0  0  0  0
   -2.1400   23.3210  -29.0990 C   0  0  0  0  0  0  0  0  0  0  0  0
   -2.4570   24.7460  -29.3570 C   0  0  0  0  0  0  0  0  0  0  0  0
   -1.6500   25.6290  -28.9640 O   0  0  0  0  0  0  0  0  0  0  0  0
   -3.6290   25.1600  -30.0730 N   0  0  0  0  0  0  0  0  0  0  0  0
   -4.8040   24.3800  -30.3470 C   0  0  0  0  0  0  0  0  0  0  0  0
   -5.4680   24.5780  -31.5630 C   0  0  0  0  0  0  0  0  0  0  0  0
   -6.6270   23.8550  -31.8650 C   0  0  0  0  0  0  0  0  0  0  0  0
   -7.1340   22.9230  -30.9520 C   0  0  0  0  0  0  0  0  0  0  0  0
   -8.6020   22.0320  -31.3380 S   0  0  0  0  0  0  0  0  0  0  0  0
   -9.4240   21.8670  -30.0900 O   0  0  0  0  0  0  0  0  0  0  0  0
   -9.4280   22.7820  -32.3460 O   0  0  0  0  0  0  0  0  0  0  0  0
   -8.1820   20.4710  -31.9630 N   0  0  0  0  0  0  0  0  0  0  0  0
   -8.9750   19.2650  -31.7380 C   0  0  0  0  0  0  0  0  0  0  0  0
   -8.1490   18.0980  -32.3350 C   0  0  0  0  0  0  0  0  0  0  0  0
   -6.8840   18.7570  -32.7690 C   0  0  0  0  0  0  0  0  0  0  0  0
   -5.7500   18.1600  -33.3190 C   0  0  0  0  0  0  0  0  0  0  0  0
   -4.6490   18.9750  -33.6290 C   0  0  0  0  0  0  0  0  0  0  0  0
   -4.7030   20.3620  -33.3910 C   0  0  0  0  0  0  0  0  0  0  0  0
   -5.8580   20.9390  -32.8350 C   0  0  0  0  0  0  0  0  0  0  0  0
   -6.9370   20.1040  -32.5310 C   0  0  0  0  0  0  0  0  0  0  0  0
   -6.4870   22.7380  -29.7230 C   0  0  0  0  0  0  0  0  0  0  0  0
   -5.3330   23.4680  -29.4150 C   0  0  0  0  0  0  0  0  0  0  0  0
   -1.7190   23.1307  -25.6984 H   0  0  0  0  0  0  0  0  0  0  0  0
   -0.7163   24.2958  -26.6277 H   0  0  0  0  0  0  0  0  0  0  0  0
   -2.5058   24.4512  -26.6277 H   0  0  0  0  0  0  0  0  0  0  0  0
   -1.0587   21.1150  -26.6954 H   0  0  0  0  0  0  0  0  0  0  0  0
   -1.2491   19.5418  -28.6184 H   0  0  0  0  0  0  0  0  0  0  0  0
   -2.0416   20.3618  -30.8360 H   0  0  0  0  0  0  0  0  0  0  0  0
   -2.6049   22.7670  -31.1490 H   0  0  0  0  0  0  0  0  0  0  0  0
   -5.0756   25.3076  -32.2867 H   0  0  0  0  0  0  0  0  0  0  0  0
   -7.1416   24.0195  -32.8232 H   0  0  0  0  0  0  0  0  0  0  0  0
   -9.1364   19.1083  -30.6613 H   0  0  0  0  0  0  0  0  0  0  0  0
   -9.9671   19.3399  -32.2072 H   0  0  0  0  0  0  0  0  0  0  0  0
   -7.9509   17.3271  -31.5757 H   0  0  0  0  0  0  0  0  0  0  0  0
   -8.6674   17.5807  -33.1558 H   0  0  0  0  0  0  0  0  0  0  0  0
   -5.7186   17.0764  -33.5056 H   0  0  0  0  0  0  0  0  0  0  0  0
   -3.7407   18.5281  -34.0595 H   0  0  0  0  0  0  0  0  0  0  0  0
   -3.8391   20.9955  -33.6408 H   0  0  0  0  0  0  0  0  0  0  0  0
   -5.9114   22.0210  -32.6439 H   0  0  0  0  0  0  0  0  0  0  0  0
   -6.8878   22.0156  -28.9967 H   0  0  0  0  0  0  0  0  0  0  0  0
   -4.8386   23.3284  -28.4423 H   0  0  0  0  0  0  0  0  0  0  0  0
  1  2  1  0
  2  3  2  0
  3  4  1  0
  4  5  2  0
  5  6  1  0
  6  7  2  0
  7  8  1  0
  8  9  2  0
  8 10  1  0
 10 11  1  0
 11 12  2  0
 12 13  1  0
 13 14  2  0
 14 15  1  0
 15 16  2  0
 15 17  2  0
 15 18  1  0
 18 19  1  0
 19 20  1  0
 20 21  1  0
 21 22  2  0
 22 23  1  0
 23 24  2  0
 24 25  1  0
 25 26  2  0
 14 27  1  0
 27 28  2  0
  7  2  1  0
 28 11  1  0
 26 18  1  0
 26 21  1  0
  1 29  1  0
  1 30  1  0
  1 31  1  0
  3 32  1  0
  4 33  1  0
  5 34  1  0
  6 35  1  0
 12 36  1  0
 13 37  1  0
 19 38  1  0
 19 39  1  0
 20 40  1  0
 20 41  1  0
 22 42  1  0
 23 43  1  0
 24 44  1  0
 25 45  1  0
 27 46  1  0
 28 47  1  0
M  CHG  1  10  -1
M  END
>  <UniqueID>  (43) 
40

>  <SMILES>  (43) 
Cc1ccccc1C(=O)[N-]c1ccc(S(=O)(=O)N2CCc3ccccc32)cc1

>  <Energy>  (43) 
76.19059806888569

>  <Genealogy>  (43) 
Cc1ccccc1C(=O)[N-]c1ccc(S(=O)(=O)N2CCc3ccccc32)cc1 (protonated)
Cc1ccccc1C(=O)[N-]c1ccc(S(=O)(=O)N2CCc3ccccc32)cc1 (3D coordinates assigned)
Cc1ccccc1C(=O)[N-]c1ccc(S(=O)(=O)N2CCc3ccccc32)cc1 (nonaromatic ring conformer: 76.19059806888569 kcal/mol)

>  <smiles>  (43) 
Cc1ccccc1C(=O)Nc1ccc(S(=O)(=O)N2CCc3ccccc32)cc1

>  <score_type>  (43) 
oracle

>  <origin>  (43) 
adgpu

>  <m_score__min__energy>  (43) 
-11.92

>  <m_primary>  (43) 
energy

$$$$
43:0
     RDKit          3D

 48 51  0  0  0  0  0  0  0  0999 V2000
   -0.7880   20.0340  -28.8840 C   0  0  0  0  0  0  0  0  0  0  0  0
   -0.5080   21.1760  -29.8530 C   0  0  0  0  0  0  0  0  0  0  0  0
   -1.7540   21.6570  -30.4540 N   0  0  0  0  0  0  0  0  0  0  0  0
   -2.6970   22.3820  -29.8300 C   0  0  0  0  0  0  0  0  0  0  0  0
   -3.6760   22.7000  -30.7530 C   0  0  0  0  0  0  0  0  0  0  0  0
   -4.9090   23.4890  -30.5150 C   0  0  0  0  0  0  0  0  0  0  0  0
   -6.1080   23.1270  -31.1550 C   0  0  0  0  0  0  0  0  0  0  0  0
   -7.2680   23.8700  -30.9270 C   0  0  0  0  0  0  0  0  0  0  0  0
   -7.2400   24.9390  -30.0900 N   0  0  0  0  0  0  0  0  0  0  0  0
   -6.1000   25.3160  -29.4550 C   0  0  0  0  0  0  0  0  0  0  0  0
   -4.9150   24.6010  -29.6540 C   0  0  0  0  0  0  0  0  0  0  0  0
   -3.3390   22.1870  -31.9560 N   0  0  0  0  0  0  0  0  0  0  0  0
   -2.1670   21.5520  -31.7390 C   0  0  0  0  0  0  0  0  0  0  0  0
   -1.3940   20.8870  -32.8440 C   0  0  0  0  0  0  0  0  0  0  0  0
   -2.2810   20.5470  -33.9570 N   0  0  0  0  0  0  0  0  0  0  0  0
   -3.2460   19.4760  -33.9280 C   0  0  0  0  0  0  0  0  0  0  0  0
   -2.9410   18.1900  -34.4120 C   0  0  0  0  0  0  0  0  0  0  0  0
   -3.8980   17.1760  -34.3640 C   0  0  0  0  0  0  0  0  0  0  0  0
   -5.1660   17.4250  -33.8340 C   0  0  0  0  0  0  0  0  0  0  0  0
   -5.4940   18.7020  -33.3420 C   0  0  0  0  0  0  0  0  0  0  0  0
   -6.8390   18.9930  -32.7750 C   0  0  0  0  0  0  0  0  0  0  0  0
   -7.7210   18.0200  -32.2930 C   0  0  0  0  0  0  0  0  0  0  0  0
   -9.1120   18.7960  -31.7520 S   0  0  0  0  0  0  0  0  0  0  0  0
   -8.5370   20.3270  -32.1290 C   0  0  0  0  0  0  0  0  0  0  0  0
   -9.3130   21.5900  -31.9740 C   0  0  0  0  0  0  0  0  0  0  0  0
   -7.3080   20.2690  -32.6840 N   0  0  0  0  0  0  0  0  0  0  0  0
   -4.5240   19.7200  -33.4010 C   0  0  0  0  0  0  0  0  0  0  0  0
   -0.6983   20.3998  -27.8505 H   0  0  0  0  0  0  0  0  0  0  0  0
   -1.8062   19.6528  -29.0510 H   0  0  0  0  0  0  0  0  0  0  0  0
   -0.0616   19.2250  -29.0510 H   0  0  0  0  0  0  0  0  0  0  0  0
   -0.0261   22.0019  -29.3093 H   0  0  0  0  0  0  0  0  0  0  0  0
    0.1538   20.8101  -30.6518 H   0  0  0  0  0  0  0  0  0  0  0  0
   -2.6913   22.6723  -28.7690 H   0  0  0  0  0  0  0  0  0  0  0  0
   -6.1318   22.2612  -31.8331 H   0  0  0  0  0  0  0  0  0  0  0  0
   -8.2068   23.5887  -31.4266 H   0  0  0  0  0  0  0  0  0  0  0  0
   -6.1091   26.1863  -28.7823 H   0  0  0  0  0  0  0  0  0  0  0  0
   -3.9920   24.9068  -29.1397 H   0  0  0  0  0  0  0  0  0  0  0  0
   -0.6111   21.5722  -33.2013 H   0  0  0  0  0  0  0  0  0  0  0  0
   -0.9408   19.9632  -32.4552 H   0  0  0  0  0  0  0  0  0  0  0  0
   -2.2140   21.1370  -34.8180 H   0  0  0  0  0  0  0  0  0  0  0  0
   -1.9445   17.9837  -34.8296 H   0  0  0  0  0  0  0  0  0  0  0  0
   -3.6524   16.1741  -34.7460 H   0  0  0  0  0  0  0  0  0  0  0  0
   -5.9128   16.6180  -33.8010 H   0  0  0  0  0  0  0  0  0  0  0  0
   -7.5369   16.9357  -32.2715 H   0  0  0  0  0  0  0  0  0  0  0  0
   -9.4474   21.8088  -30.9044 H   0  0  0  0  0  0  0  0  0  0  0  0
   -8.7669   22.4168  -32.4516 H   0  0  0  0  0  0  0  0  0  0  0  0
  -10.2974   21.4765  -32.4516 H   0  0  0  0  0  0  0  0  0  0  0  0
   -4.7717   20.7246  -33.0276 H   0  0  0  0  0  0  0  0  0  0  0  0
  1  2  1  0
  2  3  1  0
  3  4  1  0
  4  5  2  0
  5  6  1  0
  6  7  2  0
  7  8  1  0
  8  9  2  0
  9 10  1  0
 10 11  2  0
  5 12  1  0
 12 13  2  0
 13 14  1  0
 14 15  1  0
 15 16  1  0
 16 17  2  0
 17 18  1  0
 18 19  2  0
 19 20  1  0
 20 21  1  0
 21 22  2  0
 22 23  1  0
 23 24  1  0
 24 25  1  0
 24 26  2  0
 20 27  2  0
 13  3  1  0
 27 16  1  0
 11  6  1  0
 26 21  1  0
  1 28  1  0
  1 29  1  0
  1 30  1  0
  2 31  1  0
  2 32  1  0
  4 33  1  0
  7 34  1  0
  8 35  1  0
 10 36  1  0
 11 37  1  0
 14 38  1  0
 14 39  1  0
 15 40  1  0
 17 41  1  0
 18 42  1  0
 19 43  1  0
 22 44  1  0
 25 45  1  0
 25 46  1  0
 25 47  1  0
 27 48  1  0
M  END
>  <UniqueID>  (44) 
41

>  <SMILES>  (44) 
CCn1cc(-c2ccncc2)nc1CNc1cccc(-c2csc(C)n2)c1

>  <Energy>  (44) 
109.33265307906522

>  <Genealogy>  (44) 
CCn1cc(-c2ccncc2)nc1CNc1cccc(-c2csc(C)n2)c1 (3D coordinates assigned)
CCn1cc(-c2ccncc2)nc1CNc1cccc(-c2csc(C)n2)c1 (optimized conformer: 109.33265307906522 kcal/mol)

>  <smiles>  (44) 
CCn1cc(-c2ccncc2)nc1CNc1cccc(-c2csc(C)n2)c1

>  <score_type>  (44) 
oracle

>  <origin>  (44) 
adgpu

>  <m_score__min__energy>  (44) 
-8.9299999999999997

>  <m_primary>  (44) 
energy

$$$$
44:0
     RDKit          3D

 39 41  0  0  0  0  0  0  0  0999 V2000
   -0.4613   25.7079  -28.8180 H   0  0  0  0  0  0  0  0  0  0  0  0
   -1.0980   25.7000  -27.9210 C   0  0  0  0  0  0  0  0  0  0  0  0
   -0.7330   26.4560  -26.8040 C   0  0  0  0  0  0  0  0  0  0  0  0
    0.1788   27.0706  -26.8350 H   0  0  0  0  0  0  0  0  0  0  0  0
   -1.5190   26.4370  -25.6460 C   0  0  0  0  0  0  0  0  0  0  0  0
   -1.1130   27.2160  -24.5510 O   0  0  0  0  0  0  0  0  0  0  0  0
   -0.5190   26.6920  -23.3690 C   0  0  0  0  0  0  0  0  0  0  0  0
   -1.0120   27.1269  -22.4871 H   0  0  0  0  0  0  0  0  0  0  0  0
   -0.6370   25.5985  -23.3531 H   0  0  0  0  0  0  0  0  0  0  0  0
    0.5513   26.9455  -23.3531 H   0  0  0  0  0  0  0  0  0  0  0  0
   -2.6790   25.6380  -25.6160 C   0  0  0  0  0  0  0  0  0  0  0  0
   -3.3010   25.6085  -24.7092 H   0  0  0  0  0  0  0  0  0  0  0  0
   -3.0420   24.8830  -26.7340 C   0  0  0  0  0  0  0  0  0  0  0  0
   -3.9381   24.2462  -26.6968 H   0  0  0  0  0  0  0  0  0  0  0  0
   -2.2680   24.9330  -27.9060 C   0  0  0  0  0  0  0  0  0  0  0  0
   -2.5890   24.1270  -29.0490 N   0  0  0  0  0  0  0  0  0  0  0  0
   -3.7510   24.0420  -29.6300 C   0  0  0  0  0  0  0  0  0  0  0  0
   -4.0650   23.0010  -30.9090 S   0  0  0  0  0  0  0  0  0  0  0  0
   -5.6550   23.5370  -31.0860 C   0  0  0  0  0  0  0  0  0  0  0  0
   -6.6230   22.9930  -32.0590 C   0  0  0  0  0  0  0  0  0  0  0  0
   -7.3350   23.7990  -32.7170 O   0  0  0  0  0  0  0  0  0  0  0  0
   -6.7790   21.5410  -32.2970 C   0  0  0  0  0  0  0  0  0  0  0  0
   -7.9730   20.8770  -31.9650 C   0  0  0  0  0  0  0  0  0  0  0  0
   -8.8007   21.4383  -31.5069 H   0  0  0  0  0  0  0  0  0  0  0  0
   -8.1160   19.5080  -32.2130 C   0  0  0  0  0  0  0  0  0  0  0  0
   -9.0558   18.9995  -31.9518 H   0  0  0  0  0  0  0  0  0  0  0  0
   -7.0670   18.7810  -32.7930 C   0  0  0  0  0  0  0  0  0  0  0  0
   -7.2350   17.3210  -33.0950 C   0  0  0  0  0  0  0  0  0  0  0  0
   -7.2999   16.7568  -32.1529 H   0  0  0  0  0  0  0  0  0  0  0  0
   -8.1564   17.1706  -33.6767 H   0  0  0  0  0  0  0  0  0  0  0  0
   -6.3719   16.9652  -33.6767 H   0  0  0  0  0  0  0  0  0  0  0  0
   -5.8880   19.4470  -33.1590 C   0  0  0  0  0  0  0  0  0  0  0  0
   -5.0721   18.8898  -33.6426 H   0  0  0  0  0  0  0  0  0  0  0  0
   -5.7450   20.8160  -32.9120 C   0  0  0  0  0  0  0  0  0  0  0  0
   -4.8159   21.3289  -33.2015 H   0  0  0  0  0  0  0  0  0  0  0  0
   -5.8950   24.5200  -30.1250 C   0  0  0  0  0  0  0  0  0  0  0  0
   -6.8671   25.0237  -30.0191 H   0  0  0  0  0  0  0  0  0  0  0  0
   -4.8300   24.8040  -29.3310 N   0  0  0  0  0  0  0  0  0  0  0  0
   -4.8600   25.5520  -28.6030 H   0  0  0  0  0  0  0  0  0  0  0  0
  1  2  1  0
  2  3  2  0
  3  4  1  0
  3  5  1  0
  5  6  1  0
  6  7  1  0
  7  8  1  0
  7  9  1  0
  7 10  1  0
  5 11  2  0
 11 12  1  0
 11 13  1  0
 13 14  1  0
 13 15  2  0
 15 16  1  0
 16 17  2  0
 17 18  1  0
 18 19  1  0
 19 20  1  0
 20 21  2  0
 20 22  1  0
 22 23  2  0
 23 24  1  0
 23 25  1  0
 25 26  1  0
 25 27  2  0
 27 28  1  0
 28 29  1  0
 28 30  1  0
 28 31  1  0
 27 32  1  0
 32 33  1  0
 32 34  2  0
 34 35  1  0
 19 36  2  0
 36 37  1  0
 36 38  1  0
 38 39  1  0
 15  2  1  0
 38 17  1  0
 34 22  1  0
M  END
>  <UniqueID>  (45) 
42

>  <SMILES>  (45) 
COc1ccc(/N=c2\[nH]cc(C(=O)c3ccc(C)cc3)s2)cc1

>  <Energy>  (45) 
81.89638626558285

>  <Genealogy>  (45) 
COc1ccc(/N=c2\[nH]cc(C(=O)c3ccc(C)cc3)s2)cc1 (cis-trans isomerization)
COc1ccc(/N=c2\[nH]cc(C(=O)c3ccc(C)cc3)s2)cc1 (3D coordinates assigned)
COc1ccc(/N=c2\[nH]cc(C(=O)c3ccc(C)cc3)s2)cc1 (optimized conformer: 81.89638626558285 kcal/mol)

>  <smiles>  (45) 
COc1ccc(N=c2[nH]cc(C(=O)c3ccc(C)cc3)s2)cc1

>  <score_type>  (45) 
oracle

>  <origin>  (45) 
adgpu

>  <m_score__min__energy>  (45) 
-8.3900000000000006

>  <m_primary>  (45) 
energy

$$$$
45:0
     RDKit          3D

 30 32  0  0  0  0  0  0  0  0999 V2000
   -2.1940   24.8010  -28.4690 C   0  0  0  0  0  0  0  0  0  0  0  0
   -3.2690   24.5190  -29.4640 C   0  0  0  0  0  0  0  0  0  0  0  0
   -4.0680   23.3970  -29.5020 C   0  0  0  0  0  0  0  0  0  0  0  0
   -4.8650   23.6130  -30.6090 C   0  0  0  0  0  0  0  0  0  0  0  0
   -5.9110   22.7190  -31.1170 C   0  0  0  0  0  0  0  0  0  0  0  0
   -5.6610   21.4710  -31.5700 N   0  0  0  0  0  0  0  0  0  0  0  0
   -6.7930   20.8320  -31.9820 C   0  0  0  0  0  0  0  0  0  0  0  0
   -6.7290   19.4540  -32.5140 C   0  0  0  0  0  0  0  0  0  0  0  0
   -7.3210   18.3790  -31.8280 C   0  0  0  0  0  0  0  0  0  0  0  0
   -7.2330   17.0800  -32.3380 C   0  0  0  0  0  0  0  0  0  0  0  0
   -6.5450   16.8410  -33.5310 C   0  0  0  0  0  0  0  0  0  0  0  0
   -6.4240   15.0650  -34.2270 Br  0  0  0  0  0  0  0  0  0  0  0  0
   -5.9360   17.9010  -34.2100 C   0  0  0  0  0  0  0  0  0  0  0  0
   -6.0210   19.2000  -33.7010 C   0  0  0  0  0  0  0  0  0  0  0  0
   -7.9600   21.6030  -31.8760 C   0  0  0  0  0  0  0  0  0  0  0  0
   -9.3490   21.2230  -32.2810 C   0  0  0  0  0  0  0  0  0  0  0  0
   -7.5470   23.0950  -31.2170 S   0  0  0  0  0  0  0  0  0  0  0  0
   -4.5410   24.7900  -31.1820 N   0  0  0  0  0  0  0  0  0  0  0  0
   -3.5800   25.3030  -30.4700 O   0  0  0  0  0  0  0  0  0  0  0  0
   -2.5989   24.6948  -27.4518 H   0  0  0  0  0  0  0  0  0  0  0  0
   -1.3673   24.0893  -28.6108 H   0  0  0  0  0  0  0  0  0  0  0  0
   -1.8231   25.8268  -28.6108 H   0  0  0  0  0  0  0  0  0  0  0  0
   -4.0704   22.5369  -28.8162 H   0  0  0  0  0  0  0  0  0  0  0  0
   -7.8565   18.5609  -30.8845 H   0  0  0  0  0  0  0  0  0  0  0  0
   -7.7057   16.2453  -31.7997 H   0  0  0  0  0  0  0  0  0  0  0  0
   -5.3894   17.7123  -35.1458 H   0  0  0  0  0  0  0  0  0  0  0  0
   -5.5306   20.0286  -34.2329 H   0  0  0  0  0  0  0  0  0  0  0  0
   -9.9603   21.0558  -31.3819 H   0  0  0  0  0  0  0  0  0  0  0  0
   -9.7911   22.0332  -32.8794 H   0  0  0  0  0  0  0  0  0  0  0  0
   -9.3170   20.3006  -32.8794 H   0  0  0  0  0  0  0  0  0  0  0  0
  1  2  1  0
  2  3  2  0
  3  4  1  0
  4  5  1  0
  5  6  2  0
  6  7  1  0
  7  8  1  0
  8  9  2  0
  9 10  1  0
 10 11  2  0
 11 12  1  0
 11 13  1  0
 13 14  2  0
  7 15  2  0
 15 16  1  0
 15 17  1  0
  4 18  2  0
 18 19  1  0
 19  2  1  0
 17  5  1  0
 14  8  1  0
  1 20  1  0
  1 21  1  0
  1 22  1  0
  3 23  1  0
  9 24  1  0
 10 25  1  0
 13 26  1  0
 14 27  1  0
 16 28  1  0
 16 29  1  0
 16 30  1  0
M  END
>  <UniqueID>  (46) 
43

>  <SMILES>  (46) 
Cc1cc(-c2nc(-c3ccc(Br)cc3)c(C)s2)no1

>  <Energy>  (46) 
93.80355303429006

>  <Genealogy>  (46) 
Cc1cc(-c2nc(-c3ccc(Br)cc3)c(C)s2)no1 (3D coordinates assigned)
Cc1cc(-c2nc(-c3ccc(Br)cc3)c(C)s2)no1 (optimized conformer: 93.80355303429006 kcal/mol)

>  <smiles>  (46) 
Cc1cc(-c2nc(-c3ccc(Br)cc3)c(C)s2)no1

>  <score_type>  (46) 
oracle

>  <origin>  (46) 
adgpu

>  <m_score__min__energy>  (46) 
-9.3000000000000007

>  <m_primary>  (46) 
energy

$$$$
46:0
     RDKit          3D

 37 38  0  0  0  0  0  0  0  0999 V2000
   -9.0100   18.5530  -31.7360 C   0  0  0  0  0  0  0  0  0  0  0  0
   -8.5980   19.4430  -32.7690 O   0  0  0  0  0  0  0  0  0  0  0  0
   -7.4160   20.2010  -32.7460 C   0  0  0  0  0  0  0  0  0  0  0  0
   -7.3970   21.5280  -32.2830 C   0  0  0  0  0  0  0  0  0  0  0  0
   -6.2080   22.2620  -32.2770 C   0  0  0  0  0  0  0  0  0  0  0  0
   -6.1890   23.6650  -31.7320 C   0  0  0  0  0  0  0  0  0  0  0  0
   -6.4710   23.6730  -29.9260 S   0  0  0  0  0  0  0  0  0  0  0  0
   -4.7330   23.8280  -29.4860 C   0  0  0  0  0  0  0  0  0  0  0  0
   -4.1550   22.9300  -28.5850 C   0  0  0  0  0  0  0  0  0  0  0  0
   -2.8400   23.0340  -28.2720 N   0  0  0  0  0  0  0  0  0  0  0  0
   -2.0670   24.0120  -28.8140 C   0  0  0  0  0  0  0  0  0  0  0  0
   -0.8480   24.0850  -28.5080 O   0  0  0  0  0  0  0  0  0  0  0  0
   -2.6100   24.9080  -29.6820 N   0  0  0  0  0  0  0  0  0  0  0  0
   -3.9260   24.8380  -30.0250 C   0  0  0  0  0  0  0  0  0  0  0  0
   -4.4100   25.6770  -30.8310 O   0  0  0  0  0  0  0  0  0  0  0  0
   -5.0270   21.6640  -32.7290 C   0  0  0  0  0  0  0  0  0  0  0  0
   -5.0160   20.3300  -33.1790 C   0  0  0  0  0  0  0  0  0  0  0  0
   -3.8210   19.7240  -33.6010 O   0  0  0  0  0  0  0  0  0  0  0  0
   -2.5270   20.3090  -33.4950 C   0  0  0  0  0  0  0  0  0  0  0  0
   -6.2300   19.5960  -33.1960 C   0  0  0  0  0  0  0  0  0  0  0  0
   -6.3320   18.2630  -33.6390 O   0  0  0  0  0  0  0  0  0  0  0  0
   -5.7430   17.7110  -34.8120 C   0  0  0  0  0  0  0  0  0  0  0  0
   -8.8001   19.0064  -30.7560 H   0  0  0  0  0  0  0  0  0  0  0  0
  -10.0891   18.3599  -31.8271 H   0  0  0  0  0  0  0  0  0  0  0  0
   -8.4590   17.6053  -31.8271 H   0  0  0  0  0  0  0  0  0  0  0  0
   -8.3264   21.9928  -31.9222 H   0  0  0  0  0  0  0  0  0  0  0  0
   -5.2104   24.1199  -31.9449 H   0  0  0  0  0  0  0  0  0  0  0  0
   -6.9947   24.2381  -32.2141 H   0  0  0  0  0  0  0  0  0  0  0  0
   -4.7674   22.1380  -28.1293 H   0  0  0  0  0  0  0  0  0  0  0  0
   -2.0090   25.6600  -30.0910 H   0  0  0  0  0  0  0  0  0  0  0  0
   -4.0928   22.2448  -32.7329 H   0  0  0  0  0  0  0  0  0  0  0  0
   -2.2642   20.4278  -32.4335 H   0  0  0  0  0  0  0  0  0  0  0  0
   -1.7887   19.6571  -33.9848 H   0  0  0  0  0  0  0  0  0  0  0  0
   -2.5286   21.2939  -33.9848 H   0  0  0  0  0  0  0  0  0  0  0  0
   -4.9680   16.9846  -34.5261 H   0  0  0  0  0  0  0  0  0  0  0  0
   -6.5172   17.2056  -35.4080 H   0  0  0  0  0  0  0  0  0  0  0  0
   -5.2888   18.5163  -35.4080 H   0  0  0  0  0  0  0  0  0  0  0  0
  1  2  1  0
  2  3  1  0
  3  4  2  0
  4  5  1  0
  5  6  1  0
  6  7  1  0
  7  8  1  0
  8  9  2  0
  9 10  1  0
 10 11  1  0
 11 12  2  0
 11 13  1  0
 13 14  1  0
 14 15  2  0
  5 16  2  0
 16 17  1  0
 17 18  1  0
 18 19  1  0
 17 20  2  0
 20 21  1  0
 21 22  1  0
 20  3  1  0
 14  8  1  0
  1 23  1  0
  1 24  1  0
  1 25  1  0
  4 26  1  0
  6 27  1  0
  6 28  1  0
  9 29  1  0
 13 30  1  0
 16 31  1  0
 19 32  1  0
 19 33  1  0
 19 34  1  0
 22 35  1  0
 22 36  1  0
 22 37  1  0
M  CHG  1  10  -1
M  END
>  <UniqueID>  (47) 
44

>  <SMILES>  (47) 
COc1cc(CSc2c[n-]c(=O)[nH]c2=O)cc(OC)c1OC

>  <Energy>  (47) 
34.601918641537665

>  <Genealogy>  (47) 
COc1cc(CSc2c[n-]c(=O)[nH]c2=O)cc(OC)c1OC (protonated)
COc1cc(CSc2c[n-]c(=O)[nH]c2=O)cc(OC)c1OC (3D coordinates assigned)
COc1cc(CSc2c[n-]c(=O)[nH]c2=O)cc(OC)c1OC (optimized conformer: 34.601918641537665 kcal/mol)

>  <smiles>  (47) 
COc1cc(CSc2c[nH]c(=O)[nH]c2=O)cc(OC)c1OC

>  <score_type>  (47) 
oracle

>  <origin>  (47) 
adgpu

>  <m_score__min__energy>  (47) 
-7.8899999999999997

>  <m_primary>  (47) 
energy

$$$$
47:0
     RDKit          3D

 40 42  0  0  0  0  0  0  0  0999 V2000
   -1.7210   20.5410  -27.0810 O   0  0  0  0  0  0  0  0  0  0  0  0
   -1.7800   21.0140  -28.2460 C   0  0  0  0  0  0  0  0  0  0  0  0
   -2.0310   20.1190  -29.3370 N   0  0  0  0  0  0  0  0  0  0  0  0
   -1.9060   20.4290  -30.7330 C   0  0  0  0  0  0  0  0  0  0  0  0
   -0.7370   21.0020  -31.2610 C   0  0  0  0  0  0  0  0  0  0  0  0
   -0.6460   21.2790  -32.6260 C   0  0  0  0  0  0  0  0  0  0  0  0
   -1.7100   20.9730  -33.4780 C   0  0  0  0  0  0  0  0  0  0  0  0
   -2.8750   20.3740  -32.9670 C   0  0  0  0  0  0  0  0  0  0  0  0
   -3.9870   20.0280  -33.8050 N   0  0  0  0  0  0  0  0  0  0  0  0
   -5.6300   19.8730  -33.2720 S   0  0  0  0  0  0  0  0  0  0  0  0
   -6.5120   19.6360  -34.4630 O   0  0  0  0  0  0  0  0  0  0  0  0
   -5.7360   18.6980  -32.3410 O   0  0  0  0  0  0  0  0  0  0  0  0
   -6.1430   21.3540  -32.4680 C   0  0  0  0  0  0  0  0  0  0  0  0
   -7.4650   21.4830  -32.0200 C   0  0  0  0  0  0  0  0  0  0  0  0
   -7.8820   22.6620  -31.3920 C   0  0  0  0  0  0  0  0  0  0  0  0
   -6.9800   23.7140  -31.2090 C   0  0  0  0  0  0  0  0  0  0  0  0
   -5.6600   23.5880  -31.6510 C   0  0  0  0  0  0  0  0  0  0  0  0
   -5.2400   22.4100  -32.2780 C   0  0  0  0  0  0  0  0  0  0  0  0
   -2.9600   20.1000  -31.5960 C   0  0  0  0  0  0  0  0  0  0  0  0
   -1.6430   22.4770  -28.4440 C   0  0  0  0  0  0  0  0  0  0  0  0
   -0.5440   23.1620  -27.8990 C   0  0  0  0  0  0  0  0  0  0  0  0
   -0.4080   24.5420  -28.0780 C   0  0  0  0  0  0  0  0  0  0  0  0
    0.6920   25.2010  -27.5410 O   0  0  0  0  0  0  0  0  0  0  0  0
   -1.3750   25.2590  -28.7940 C   0  0  0  0  0  0  0  0  0  0  0  0
   -1.2210   26.6360  -28.9620 O   0  0  0  0  0  0  0  0  0  0  0  0
   -2.4850   24.5840  -29.3280 C   0  0  0  0  0  0  0  0  0  0  0  0
   -3.4590   25.2790  -30.0360 O   0  0  0  0  0  0  0  0  0  0  0  0
   -2.6180   23.2040  -29.1490 C   0  0  0  0  0  0  0  0  0  0  0  0
    0.1089   21.2330  -30.5969 H   0  0  0  0  0  0  0  0  0  0  0  0
    0.2665   21.7398  -33.0322 H   0  0  0  0  0  0  0  0  0  0  0  0
   -1.6362   21.2013  -34.5515 H   0  0  0  0  0  0  0  0  0  0  0  0
   -8.1760   20.6558  -32.1624 H   0  0  0  0  0  0  0  0  0  0  0  0
   -8.9202   22.7609  -31.0422 H   0  0  0  0  0  0  0  0  0  0  0  0
   -7.3090   24.6412  -30.7170 H   0  0  0  0  0  0  0  0  0  0  0  0
   -4.9506   24.4160  -31.5057 H   0  0  0  0  0  0  0  0  0  0  0  0
   -4.1999   22.3119  -32.6225 H   0  0  0  0  0  0  0  0  0  0  0  0
   -3.8642   19.6212  -31.1922 H   0  0  0  0  0  0  0  0  0  0  0  0
    0.2152   22.6084  -27.3271 H   0  0  0  0  0  0  0  0  0  0  0  0
   -0.4860   27.1550  -28.4980 H   0  0  0  0  0  0  0  0  0  0  0  0
   -3.4933   22.6824  -29.5635 H   0  0  0  0  0  0  0  0  0  0  0  0
  1  2  2  0
  2  3  1  0
  3  4  1  0
  4  5  2  0
  5  6  1  0
  6  7  2  0
  7  8  1  0
  8  9  1  0
  9 10  1  0
 10 11  2  0
 10 12  2  0
 10 13  1  0
 13 14  2  0
 14 15  1  0
 15 16  2  0
 16 17  1  0
 17 18  2  0
  8 19  2  0
  2 20  1  0
 20 21  2  0
 21 22  1  0
 22 23  1  0
 22 24  2  0
 24 25  1  0
 24 26  1  0
 26 27  1  0
 26 28  2  0
 19  4  1  0
 28 20  1  0
 18 13  1  0
  5 29  1  0
  6 30  1  0
  7 31  1  0
 14 32  1  0
 15 33  1  0
 16 34  1  0
 17 35  1  0
 18 36  1  0
 19 37  1  0
 21 38  1  0
 25 39  1  0
 28 40  1  0
M  CHG  4   3  -1   9  -1  23  -1  27  -1
M  END
>  <UniqueID>  (48) 
45

>  <SMILES>  (48) 
O=C([N-]c1cccc([N-]S(=O)(=O)c2ccccc2)c1)c1cc([O-])c(O)c([O-])c1

>  <Energy>  (48) 
53.47346163396302

>  <Genealogy>  (48) 
O=C([N-]c1cccc([N-]S(=O)(=O)c2ccccc2)c1)c1cc([O-])c(O)c([O-])c1 (protonated)
O=C([N-]c1cccc([N-]S(=O)(=O)c2ccccc2)c1)c1cc([O-])c(O)c([O-])c1 (3D coordinates assigned)
O=C([N-]c1cccc([N-]S(=O)(=O)c2ccccc2)c1)c1cc([O-])c(O)c([O-])c1 (optimized conformer: 53.47346163396302 kcal/mol)

>  <smiles>  (48) 
O=C(Nc1cccc(NS(=O)(=O)c2ccccc2)c1)c1cc(O)c(O)c(O)c1

>  <score_type>  (48) 
oracle

>  <origin>  (48) 
adgpu

>  <m_score__min__energy>  (48) 
-12.380000000000001

>  <m_primary>  (48) 
energy

$$$$
48:0
     RDKit          3D

 46 48  0  0  0  0  0  0  0  0999 V2000
   -5.6102   20.9533  -34.1243 H   0  0  0  0  0  0  0  0  0  0  0  0
   -6.0730   20.0370  -33.7290 C   0  0  0  0  0  0  0  0  0  0  0  0
   -5.4830   18.7980  -33.9830 C   0  0  0  0  0  0  0  0  0  0  0  0
   -4.5615   18.7436  -34.5813 H   0  0  0  0  0  0  0  0  0  0  0  0
   -6.0580   17.6220  -33.4800 C   0  0  0  0  0  0  0  0  0  0  0  0
   -5.4360   16.2840  -33.7890 C   0  0  0  0  0  0  0  0  0  0  0  0
   -4.9248   16.3458  -34.7610 H   0  0  0  0  0  0  0  0  0  0  0  0
   -6.2388   15.5322  -33.8093 H   0  0  0  0  0  0  0  0  0  0  0  0
   -4.4180   15.8630  -32.7190 C   0  0  0  0  0  0  0  0  0  0  0  0
   -4.5170   16.5352  -31.8539 H   0  0  0  0  0  0  0  0  0  0  0  0
   -3.4157   15.9265  -33.1676 H   0  0  0  0  0  0  0  0  0  0  0  0
   -4.6260   14.4240  -32.2480 C   0  0  0  0  0  0  0  0  0  0  0  0
   -4.6302   14.3951  -31.1484 H   0  0  0  0  0  0  0  0  0  0  0  0
   -5.5877   14.0491  -32.6283 H   0  0  0  0  0  0  0  0  0  0  0  0
   -3.8099   13.7921  -32.6283 H   0  0  0  0  0  0  0  0  0  0  0  0
   -7.2360   17.7020  -32.7240 C   0  0  0  0  0  0  0  0  0  0  0  0
   -7.6978   16.7820  -32.3362 H   0  0  0  0  0  0  0  0  0  0  0  0
   -7.8320   18.9450  -32.4570 C   0  0  0  0  0  0  0  0  0  0  0  0
   -9.1070   19.0120  -31.6640 C   0  0  0  0  0  0  0  0  0  0  0  0
   -8.8716   18.9996  -30.5896 H   0  0  0  0  0  0  0  0  0  0  0  0
   -9.6441   19.9396  -31.9110 H   0  0  0  0  0  0  0  0  0  0  0  0
   -9.7384   18.1458  -31.9110 H   0  0  0  0  0  0  0  0  0  0  0  0
   -7.2570   20.1230  -32.9700 C   0  0  0  0  0  0  0  0  0  0  0  0
   -7.8870   21.3530  -32.7100 O   0  0  0  0  0  0  0  0  0  0  0  0
   -8.0370   21.9500  -31.4220 C   0  0  0  0  0  0  0  0  0  0  0  0
   -8.8902   22.6440  -31.4429 H   0  0  0  0  0  0  0  0  0  0  0  0
   -8.2096   21.1549  -30.6817 H   0  0  0  0  0  0  0  0  0  0  0  0
   -6.7970   22.7050  -31.0390 C   0  0  0  0  0  0  0  0  0  0  0  0
   -5.3930   21.8650  -30.5830 S   0  0  0  0  0  0  0  0  0  0  0  0
   -4.1870   22.9780  -30.2290 C   0  0  0  0  0  0  0  0  0  0  0  0
   -2.9350   22.7040  -29.8240 N   0  0  0  0  0  0  0  0  0  0  0  0
   -2.4360   23.9600  -29.6950 C   0  0  0  0  0  0  0  0  0  0  0  0
   -1.2210   24.2200  -29.3170 N   0  0  0  0  0  0  0  0  0  0  0  0
   -0.2310   23.2030  -28.9660 C   0  0  0  0  0  0  0  0  0  0  0  0
   -0.2475   22.4067  -29.7247 H   0  0  0  0  0  0  0  0  0  0  0  0
    0.7617   23.6754  -28.9283 H   0  0  0  0  0  0  0  0  0  0  0  0
   -0.5370   22.5980  -27.5990 C   0  0  0  0  0  0  0  0  0  0  0  0
   -0.1912   23.2817  -26.8097 H   0  0  0  0  0  0  0  0  0  0  0  0
   -1.6217   22.4434  -27.5009 H   0  0  0  0  0  0  0  0  0  0  0  0
   -0.0187   21.6327  -27.5009 H   0  0  0  0  0  0  0  0  0  0  0  0
   -3.3220   24.9320  -30.0020 N   0  0  0  0  0  0  0  0  0  0  0  0
   -4.4270   24.2910  -30.3380 N   0  0  0  0  0  0  0  0  0  0  0  0
   -5.6010   24.8730  -30.7280 C   0  0  0  0  0  0  0  0  0  0  0  0
   -5.6750   26.1300  -30.7870 O   0  0  0  0  0  0  0  0  0  0  0  0
   -6.7470   24.1120  -31.0720 C   0  0  0  0  0  0  0  0  0  0  0  0
   -7.6522   24.6537  -31.3837 H   0  0  0  0  0  0  0  0  0  0  0  0
  1  2  1  0
  2  3  2  0
  3  4  1  0
  3  5  1  0
  5  6  1  0
  6  7  1  0
  6  8  1  0
  6  9  1  0
  9 10  1  0
  9 11  1  0
  9 12  1  0
 12 13  1  0
 12 14  1  0
 12 15  1  0
  5 16  2  0
 16 17  1  0
 16 18  1  0
 18 19  1  0
 19 20  1  0
 19 21  1  0
 19 22  1  0
 18 23  2  0
 23 24  1  0
 24 25  1  0
 25 26  1  0
 25 27  1  0
 25 28  1  0
 28 29  1  0
 29 30  1  0
 30 31  2  0
 31 32  1  0
 32 33  2  0
 33 34  1  0
 34 35  1  0
 34 36  1  0
 34 37  1  0
 37 38  1  0
 37 39  1  0
 37 40  1  0
 32 41  1  0
 41 42  1  0
 42 43  1  0
 43 44  2  0
 43 45  1  0
 45 46  1  0
 23  2  1  0
 45 28  2  0
 42 30  1  0
M  CHG  1  41  -1
M  END
>  <UniqueID>  (49) 
46

>  <SMILES>  (49) 
CCCc1ccc(OCc2cc(=O)n3[n-]/c(=N/CC)nc3s2)c(C)c1

>  <Energy>  (49) 
79.05046092481068

>  <Genealogy>  (49) 
CCCc1ccc(OCc2cc(=O)n3[n-]c(=NCC)nc3s2)c(C)c1 (protonated)
CCCc1ccc(OCc2cc(=O)n3[n-]/c(=N/CC)nc3s2)c(C)c1 (cis-trans isomerization)
CCCc1ccc(OCc2cc(=O)n3[n-]/c(=N/CC)nc3s2)c(C)c1 (3D coordinates assigned)
CCCc1ccc(OCc2cc(=O)n3[n-]/c(=N/CC)nc3s2)c(C)c1 (optimized conformer: 79.05046092481068 kcal/mol)

>  <smiles>  (49) 
CCCc1ccc(OCc2cc(=O)n3[nH]c(=NCC)nc3s2)c(C)c1

>  <score_type>  (49) 
oracle

>  <origin>  (49) 
adgpu

>  <m_score__min__energy>  (49) 
-9.1999999999999993

>  <m_primary>  (49) 
energy

$$$$
49:0
     RDKit          3D

 42 44  0  0  0  0  0  0  0  0999 V2000
   -5.7090   17.9330  -34.9560 C   0  0  0  0  0  0  0  0  0  0  0  0
   -6.3190   16.7870  -34.4020 O   0  0  0  0  0  0  0  0  0  0  0  0
   -6.4430   16.9290  -33.0010 C   0  0  0  0  0  0  0  0  0  0  0  0
   -6.9920   18.2780  -32.6600 C   0  0  0  0  0  0  0  0  0  0  0  0
   -6.2340   19.3330  -32.3080 N   0  0  0  0  0  0  0  0  0  0  0  0
   -7.1720   20.2880  -32.1310 C   0  0  0  0  0  0  0  0  0  0  0  0
   -6.8680   21.6780  -31.7270 C   0  0  0  0  0  0  0  0  0  0  0  0
   -7.9060   22.5740  -31.4170 C   0  0  0  0  0  0  0  0  0  0  0  0
   -7.6150   23.8880  -31.0490 C   0  0  0  0  0  0  0  0  0  0  0  0
   -6.2900   24.3230  -30.9750 C   0  0  0  0  0  0  0  0  0  0  0  0
   -5.2390   23.4340  -31.2570 C   0  0  0  0  0  0  0  0  0  0  0  0
   -3.8630   23.8430  -31.2150 N   0  0  0  0  0  0  0  0  0  0  0  0
   -2.9770   23.7500  -30.0920 C   0  0  0  0  0  0  0  0  0  0  0  0
   -2.4280   22.6540  -29.8020 O   0  0  0  0  0  0  0  0  0  0  0  0
   -2.7190   24.9240  -29.3100 N   0  0  0  0  0  0  0  0  0  0  0  0
   -1.7100   25.0120  -28.2900 C   0  0  0  0  0  0  0  0  0  0  0  0
   -0.4550   24.4250  -28.5130 C   0  0  0  0  0  0  0  0  0  0  0  0
    0.5380   24.4860  -27.5320 C   0  0  0  0  0  0  0  0  0  0  0  0
    0.2830   25.1150  -26.3120 C   0  0  0  0  0  0  0  0  0  0  0  0
   -0.9800   25.6690  -26.0550 C   0  0  0  0  0  0  0  0  0  0  0  0
   -1.2510   26.3610  -24.7520 C   0  0  0  0  0  0  0  0  0  0  0  0
   -1.9710   25.6230  -27.0490 C   0  0  0  0  0  0  0  0  0  0  0  0
   -5.5360   22.1230  -31.6520 C   0  0  0  0  0  0  0  0  0  0  0  0
   -8.4200   19.8300  -32.3660 N   0  0  0  0  0  0  0  0  0  0  0  0
   -8.2640   18.5850  -32.6930 O   0  0  0  0  0  0  0  0  0  0  0  0
   -5.3593   18.5900  -34.1460 H   0  0  0  0  0  0  0  0  0  0  0  0
   -4.8533   17.6290  -35.5769 H   0  0  0  0  0  0  0  0  0  0  0  0
   -6.4390   18.4731  -35.5769 H   0  0  0  0  0  0  0  0  0  0  0  0
   -7.1222   16.1536  -32.6168 H   0  0  0  0  0  0  0  0  0  0  0  0
   -5.4490   16.8220  -32.5422 H   0  0  0  0  0  0  0  0  0  0  0  0
   -8.9522   22.2376  -31.4648 H   0  0  0  0  0  0  0  0  0  0  0  0
   -8.4335   24.5850  -30.8159 H   0  0  0  0  0  0  0  0  0  0  0  0
   -6.0687   25.3636  -30.6954 H   0  0  0  0  0  0  0  0  0  0  0  0
   -3.3710   25.7320  -29.4290 H   0  0  0  0  0  0  0  0  0  0  0  0
   -0.2519   23.9139  -29.4656 H   0  0  0  0  0  0  0  0  0  0  0  0
    1.5241   24.0369  -27.7216 H   0  0  0  0  0  0  0  0  0  0  0  0
    1.0743   25.1764  -25.5504 H   0  0  0  0  0  0  0  0  0  0  0  0
   -0.9887   25.6913  -23.9197 H   0  0  0  0  0  0  0  0  0  0  0  0
   -0.6452   27.2771  -24.6904 H   0  0  0  0  0  0  0  0  0  0  0  0
   -2.3178   26.6221  -24.6904 H   0  0  0  0  0  0  0  0  0  0  0  0
   -2.9585   26.0677  -26.8564 H   0  0  0  0  0  0  0  0  0  0  0  0
   -4.7176   21.4335  -31.9065 H   0  0  0  0  0  0  0  0  0  0  0  0
  1  2  1  0
  2  3  1  0
  3  4  1  0
  4  5  2  0
  5  6  1  0
  6  7  1  0
  7  8  2  0
  8  9  1  0
  9 10  2  0
 10 11  1  0
 11 12  1  0
 12 13  1  0
 13 14  2  0
 13 15  1  0
 15 16  1  0
 16 17  2  0
 17 18  1  0
 18 19  2  0
 19 20  1  0
 20 21  1  0
 20 22  2  0
 11 23  2  0
  6 24  2  0
 24 25  1  0
 25  4  1  0
 23  7  1  0
 22 16  1  0
  1 26  1  0
  1 27  1  0
  1 28  1  0
  3 29  1  0
  3 30  1  0
  8 31  1  0
  9 32  1  0
 10 33  1  0
 15 34  1  0
 17 35  1  0
 18 36  1  0
 19 37  1  0
 21 38  1  0
 21 39  1  0
 21 40  1  0
 22 41  1  0
 23 42  1  0
M  CHG  1  12  -1
M  END
>  <UniqueID>  (50) 
47

>  <SMILES>  (50) 
COCc1nc(-c2cccc([N-]C(=O)Nc3cccc(C)c3)c2)no1

>  <Energy>  (50) 
84.42411911538001

>  <Genealogy>  (50) 
COCc1nc(-c2cccc([N-]C(=O)Nc3cccc(C)c3)c2)no1 (protonated)
COCc1nc(-c2cccc([N-]C(=O)Nc3cccc(C)c3)c2)no1 (3D coordinates assigned)
COCc1nc(-c2cccc([N-]C(=O)Nc3cccc(C)c3)c2)no1 (optimized conformer: 84.42411911538001 kcal/mol)

>  <smiles>  (50) 
COCc1nc(-c2cccc(NC(=O)Nc3cccc(C)c3)c2)no1

>  <score_type>  (50) 
oracle

>  <origin>  (50) 
adgpu

>  <m_score__min__energy>  (50) 
-9.7400000000000002

>  <m_primary>  (50) 
energy

$$$$
