0:0
     RDKit          3D

 26 26  0  0  0  0  0  0  0  0999 V2000
   -0.0260   26.4160  -27.3200 C   0  0  0  0  0  0  0  0  0  0  0  0
   -1.3380   25.7380  -27.1740 C   0  0  0  0  0  0  0  0  0  0  0  0
   -1.7700   24.9570  -28.1940 C   0  0  0  0  0  0  0  0  0  0  0  0
   -1.0040   24.7960  -29.3250 F   0  0  0  0  0  0  0  0  0  0  0  0
   -2.9750   24.3250  -28.0930 C   0  0  0  0  0  0  0  0  0  0  0  0
   -3.7490   24.4630  -26.9930 C   0  0  0  0  0  0  0  0  0  0  0  0
   -3.2910   25.2630  -25.9680 C   0  0  0  0  0  0  0  0  0  0  0  0
   -2.1030   25.9350  -25.9720 C   0  0  0  0  0  0  0  0  0  0  0  0
   -1.4830   26.7430  -25.0750 N   0  0  0  0  0  0  0  0  0  0  0  0
   -0.8570   27.5580  -24.1710 C   0  0  0  0  0  0  0  0  0  0  0  0
    0.6050   27.2060  -23.8210 C   0  0  0  0  0  0  0  0  0  0  0  0
    0.8590   27.5480  -22.4490 N   0  0  0  0  0  0  0  0  0  0  0  0
    0.3888   26.6304  -26.3240 H   0  0  0  0  0  0  0  0  0  0  0  0
    0.6652   25.7622  -27.8721 H   0  0  0  0  0  0  0  0  0  0  0  0
   -0.1595   27.3580  -27.8721 H   0  0  0  0  0  0  0  0  0  0  0  0
   -3.3233   23.6914  -28.9220 H   0  0  0  0  0  0  0  0  0  0  0  0
   -4.7192   23.9501  -26.9179 H   0  0  0  0  0  0  0  0  0  0  0  0
   -3.9314   25.3677  -25.0798 H   0  0  0  0  0  0  0  0  0  0  0  0
   -2.6510   26.9810  -24.4370 H   0  0  0  0  0  0  0  0  0  0  0  0
   -0.8659   28.5792  -24.5799 H   0  0  0  0  0  0  0  0  0  0  0  0
   -1.4179   27.4358  -23.2326 H   0  0  0  0  0  0  0  0  0  0  0  0
    0.7689   26.1282  -23.9677 H   0  0  0  0  0  0  0  0  0  0  0  0
    1.2869   27.7701  -24.4743 H   0  0  0  0  0  0  0  0  0  0  0  0
    0.4510   28.5070  -22.2860 H   0  0  0  0  0  0  0  0  0  0  0  0
    0.2990   26.8980  -21.8540 H   0  0  0  0  0  0  0  0  0  0  0  0
    1.8640   27.5080  -22.2320 H   0  0  0  0  0  0  0  0  0  0  0  0
  1  2  1  0
  2  3  2  0
  3  4  1  0
  3  5  1  0
  5  6  2  0
  6  7  1  0
  7  8  2  0
  8  9  1  0
  9 10  1  0
 10 11  1  0
 11 12  1  0
  8  2  1  0
  1 13  1  0
  1 14  1  0
  1 15  1  0
  5 16  1  0
  6 17  1  0
  7 18  1  0
  9 19  1  0
 10 20  1  0
 10 21  1  0
 11 22  1  0
 11 23  1  0
 12 24  1  0
 12 25  1  0
 12 26  1  0
M  CHG  1  12   1
M  END
>  <UniqueID>  (1) 
1

>  <SMILES>  (1) 
Cc1c(F)cccc1NCC[NH3+]

>  <Energy>  (1) 
181.8915584103054

>  <Genealogy>  (1) 
Cc1c(F)cccc1NCC[NH3+] (protonated)
Cc1c(F)cccc1NCC[NH3+] (3D coordinates assigned)
Cc1c(F)cccc1NCC[NH3+] (optimized conformer: 181.8915584103054 kcal/mol)

>  <smiles>  (1) 
Cc1c(F)cccc1NCCN

>  <score_type>  (1) 
oracle

>  <origin>  (1) 
adgpu

>  <m_score__min__energy>  (1) 
-5.2999999999999998

>  <m_primary>  (1) 
energy

$$$$
1:0
     RDKit          3D

 28 29  0  0  0  0  0  0  0  0999 V2000
   -5.4310   25.7480  -30.4750 C   0  0  0  0  0  0  0  0  0  0  0  0
   -5.8810   24.3820  -30.9010 C   0  0  0  0  0  0  0  0  0  0  0  0
   -4.9400   23.4200  -31.2950 C   0  0  0  0  0  0  0  0  0  0  0  0
   -5.3530   22.1340  -31.6560 C   0  0  0  0  0  0  0  0  0  0  0  0
   -6.7150   21.7850  -31.6180 C   0  0  0  0  0  0  0  0  0  0  0  0
   -7.1560   20.4190  -32.0030 C   0  0  0  0  0  0  0  0  0  0  0  0
   -8.3500   19.8840  -31.4870 C   0  0  0  0  0  0  0  0  0  0  0  0
   -8.7560   18.5960  -31.8390 C   0  0  0  0  0  0  0  0  0  0  0  0
   -7.9830   17.8290  -32.7120 C   0  0  0  0  0  0  0  0  0  0  0  0
   -6.8000   18.3510  -33.2610 C   0  0  0  0  0  0  0  0  0  0  0  0
   -5.9360   17.5040  -34.1630 C   0  0  0  0  0  0  0  0  0  0  0  0
   -5.6640   18.1730  -35.3440 F   0  0  0  0  0  0  0  0  0  0  0  0
   -4.7460   17.2230  -33.5190 F   0  0  0  0  0  0  0  0  0  0  0  0
   -6.5720   16.3150  -34.4770 F   0  0  0  0  0  0  0  0  0  0  0  0
   -6.3820   19.6390  -32.8830 C   0  0  0  0  0  0  0  0  0  0  0  0
   -7.6530   22.7490  -31.2050 C   0  0  0  0  0  0  0  0  0  0  0  0
   -7.2370   24.0340  -30.8440 C   0  0  0  0  0  0  0  0  0  0  0  0
   -5.4132   25.8022  -29.3765 H   0  0  0  0  0  0  0  0  0  0  0  0
   -4.4219   25.9408  -30.8681 H   0  0  0  0  0  0  0  0  0  0  0  0
   -6.1280   26.5028  -30.8681 H   0  0  0  0  0  0  0  0  0  0  0  0
   -3.8711   23.6785  -31.3202 H   0  0  0  0  0  0  0  0  0  0  0  0
   -4.6073   21.3897  -31.9721 H   0  0  0  0  0  0  0  0  0  0  0  0
   -8.9672   20.4841  -30.8022 H   0  0  0  0  0  0  0  0  0  0  0  0
   -9.6888   18.1837  -31.4268 H   0  0  0  0  0  0  0  0  0  0  0  0
   -8.3022   16.8089  -32.9719 H   0  0  0  0  0  0  0  0  0  0  0  0
   -5.4386   20.0422  -33.2797 H   0  0  0  0  0  0  0  0  0  0  0  0
   -8.7213   22.4898  -31.1659 H   0  0  0  0  0  0  0  0  0  0  0  0
   -7.9786   24.7761  -30.5133 H   0  0  0  0  0  0  0  0  0  0  0  0
  1  2  1  0
  2  3  2  0
  3  4  1  0
  4  5  2  0
  5  6  1  0
  6  7  2  0
  7  8  1  0
  8  9  2  0
  9 10  1  0
 10 11  1  0
 11 12  1  0
 11 13  1  0
 11 14  1  0
 10 15  2  0
  5 16  1  0
 16 17  2  0
 17  2  1  0
 15  6  1  0
  1 18  1  0
  1 19  1  0
  1 20  1  0
  3 21  1  0
  4 22  1  0
  7 23  1  0
  8 24  1  0
  9 25  1  0
 15 26  1  0
 16 27  1  0
 17 28  1  0
M  END
>  <UniqueID>  (2) 
2

>  <SMILES>  (2) 
Cc1ccc(-c2cccc(C(F)(F)F)c2)cc1

>  <Energy>  (2) 
33.52354525355746

>  <Genealogy>  (2) 
Cc1ccc(-c2cccc(C(F)(F)F)c2)cc1 (3D coordinates assigned)
Cc1ccc(-c2cccc(C(F)(F)F)c2)cc1 (optimized conformer: 33.52354525355746 kcal/mol)

>  <smiles>  (2) 
Cc1ccc(-c2cccc(C(F)(F)F)c2)cc1

>  <score_type>  (2) 
oracle

>  <origin>  (2) 
adgpu

>  <m_score__min__energy>  (2) 
-6.54

>  <m_primary>  (2) 
energy

$$$$
2:0
     RDKit          3D

 29 31  0  0  0  0  0  0  0  0999 V2000
    0.2590   24.4860  -28.3190 O   0  0  0  0  0  0  0  0  0  0  0  0
   -0.8450   24.3100  -28.8950 C   0  0  0  0  0  0  0  0  0  0  0  0
   -1.7370   25.3020  -29.0940 N   0  0  0  0  0  0  0  0  0  0  0  0
   -2.7420   24.6640  -29.7240 C   0  0  0  0  0  0  0  0  0  0  0  0
   -3.9340   25.2920  -30.0760 O   0  0  0  0  0  0  0  0  0  0  0  0
   -2.4180   23.3290  -29.8960 C   0  0  0  0  0  0  0  0  0  0  0  0
   -3.1980   22.2620  -30.5510 C   0  0  0  0  0  0  0  0  0  0  0  0
   -2.5310   21.1670  -31.1180 C   0  0  0  0  0  0  0  0  0  0  0  0
   -3.2490   20.1560  -31.7620 C   0  0  0  0  0  0  0  0  0  0  0  0
   -4.6490   20.2290  -31.8660 C   0  0  0  0  0  0  0  0  0  0  0  0
   -5.4130   19.1550  -32.5510 C   0  0  0  0  0  0  0  0  0  0  0  0
   -5.0580   18.7410  -33.8500 C   0  0  0  0  0  0  0  0  0  0  0  0
   -5.7780   17.7290  -34.4920 C   0  0  0  0  0  0  0  0  0  0  0  0
   -6.8580   17.1210  -33.8490 C   0  0  0  0  0  0  0  0  0  0  0  0
   -7.2200   17.5220  -32.5620 C   0  0  0  0  0  0  0  0  0  0  0  0
   -6.5030   18.5330  -31.9140 C   0  0  0  0  0  0  0  0  0  0  0  0
   -5.3130   21.3410  -31.3200 C   0  0  0  0  0  0  0  0  0  0  0  0
   -4.5940   22.3510  -30.6740 C   0  0  0  0  0  0  0  0  0  0  0  0
   -1.2370   23.1440  -29.3570 O   0  0  0  0  0  0  0  0  0  0  0  0
   -4.6090   25.5890  -29.3840 H   0  0  0  0  0  0  0  0  0  0  0  0
   -1.4346   21.1033  -31.0555 H   0  0  0  0  0  0  0  0  0  0  0  0
   -2.7143   19.2958  -32.1912 H   0  0  0  0  0  0  0  0  0  0  0  0
   -4.2089   19.2170  -34.3624 H   0  0  0  0  0  0  0  0  0  0  0  0
   -5.4930   17.4111  -35.5058 H   0  0  0  0  0  0  0  0  0  0  0  0
   -7.4236   16.3259  -34.3568 H   0  0  0  0  0  0  0  0  0  0  0  0
   -8.0708   17.0420  -32.0564 H   0  0  0  0  0  0  0  0  0  0  0  0
   -6.7930   18.8441  -30.8996 H   0  0  0  0  0  0  0  0  0  0  0  0
   -6.4073   21.4172  -31.4017 H   0  0  0  0  0  0  0  0  0  0  0  0
   -5.1250   23.2206  -30.2596 H   0  0  0  0  0  0  0  0  0  0  0  0
  1  2  2  0
  2  3  1  0
  3  4  1  0
  4  5  1  0
  4  6  2  0
  6  7  1  0
  7  8  2  0
  8  9  1  0
  9 10  2  0
 10 11  1  0
 11 12  2  0
 12 13  1  0
 13 14  2  0
 14 15  1  0
 15 16  2  0
 10 17  1  0
 17 18  2  0
  6 19  1  0
 19  2  1  0
 18  7  1  0
 16 11  1  0
  5 20  1  0
  8 21  1  0
  9 22  1  0
 12 23  1  0
 13 24  1  0
 14 25  1  0
 15 26  1  0
 16 27  1  0
 17 28  1  0
 18 29  1  0
M  CHG  1   3  -1
M  END
>  <UniqueID>  (3) 
3

>  <SMILES>  (3) 
O=c1[n-]c(O)c(-c2ccc(-c3ccccc3)cc2)o1

>  <Energy>  (3) 
72.78084500634382

>  <Genealogy>  (3) 
O=c1[n-]c(O)c(-c2ccc(-c3ccccc3)cc2)o1 (protonated)
O=c1[n-]c(O)c(-c2ccc(-c3ccccc3)cc2)o1 (3D coordinates assigned)
O=c1[n-]c(O)c(-c2ccc(-c3ccccc3)cc2)o1 (optimized conformer: 72.78084500634382 kcal/mol)

>  <smiles>  (3) 
O=c1[nH]c(O)c(-c2ccc(-c3ccccc3)cc2)o1

>  <score_type>  (3) 
oracle

>  <origin>  (3) 
adgpu

>  <m_score__min__energy>  (3) 
-8.8599999999999994

>  <m_primary>  (3) 
energy

$$$$
3:0
     RDKit          3D

 23 24  0  0  0  0  0  0  0  0999 V2000
   -9.8450   19.1450  -32.7070 O   0  0  0  0  0  0  0  0  0  0  0  0
   -8.6130   19.1870  -32.4530 C   0  0  0  0  0  0  0  0  0  0  0  0
   -7.8850   20.3520  -32.6980 C   0  0  0  0  0  0  0  0  0  0  0  0
   -6.5140   20.3590  -32.4180 C   0  0  0  0  0  0  0  0  0  0  0  0
   -5.7510   21.5550  -32.6470 N   0  0  0  0  0  0  0  0  0  0  0  0
   -5.8210   22.7280  -31.8190 C   0  0  0  0  0  0  0  0  0  0  0  0
   -7.0320   23.1300  -31.2230 C   0  0  0  0  0  0  0  0  0  0  0  0
   -7.0700   24.2580  -30.3990 C   0  0  0  0  0  0  0  0  0  0  0  0
   -5.9030   24.9850  -30.1490 C   0  0  0  0  0  0  0  0  0  0  0  0
   -4.6920   24.5790  -30.7190 C   0  0  0  0  0  0  0  0  0  0  0  0
   -3.5290   25.2960  -30.4630 O   0  0  0  0  0  0  0  0  0  0  0  0
   -4.6510   23.4500  -31.5450 C   0  0  0  0  0  0  0  0  0  0  0  0
   -5.9330   19.2460  -31.8800 N   0  0  0  0  0  0  0  0  0  0  0  0
   -6.6640   18.1200  -31.6470 C   0  0  0  0  0  0  0  0  0  0  0  0
   -6.1140   17.0980  -31.1580 O   0  0  0  0  0  0  0  0  0  0  0  0
   -7.9910   18.0970  -31.9360 N   0  0  0  0  0  0  0  0  0  0  0  0
   -8.3792   21.2473  -33.1033 H   0  0  0  0  0  0  0  0  0  0  0  0
   -5.0990   21.5710  -33.4640 H   0  0  0  0  0  0  0  0  0  0  0  0
   -7.9510   22.5541  -31.4067 H   0  0  0  0  0  0  0  0  0  0  0  0
   -8.0211   24.5745  -29.9459 H   0  0  0  0  0  0  0  0  0  0  0  0
   -5.9368   25.8758  -29.5045 H   0  0  0  0  0  0  0  0  0  0  0  0
   -3.6946   23.1271  -31.9820 H   0  0  0  0  0  0  0  0  0  0  0  0
   -4.9220   19.2560  -31.6180 H   0  0  0  0  0  0  0  0  0  0  0  0
  1  2  2  0
  2  3  1  0
  3  4  2  0
  4  5  1  0
  5  6  1  0
  6  7  2  0
  7  8  1  0
  8  9  2  0
  9 10  1  0
 10 11  1  0
 10 12  2  0
  4 13  1  0
 13 14  1  0
 14 15  2  0
 14 16  1  0
 16  2  1  0
 12  6  1  0
  3 17  1  0
  5 18  1  0
  7 19  1  0
  8 20  1  0
  9 21  1  0
 12 22  1  0
 13 23  1  0
M  CHG  2  11  -1  16  -1
M  END
>  <UniqueID>  (4) 
4

>  <SMILES>  (4) 
O=c1cc(Nc2cccc([O-])c2)[nH]c(=O)[n-]1

>  <Energy>  (4) 
29.647000980659353

>  <Genealogy>  (4) 
O=c1cc(Nc2cccc([O-])c2)[nH]c(=O)[n-]1 (protonated)
O=c1cc(Nc2cccc([O-])c2)[nH]c(=O)[n-]1 (3D coordinates assigned)
O=c1cc(Nc2cccc([O-])c2)[nH]c(=O)[n-]1 (optimized conformer: 29.647000980659353 kcal/mol)

>  <smiles>  (4) 
O=c1cc(Nc2cccc(O)c2)[nH]c(=O)[nH]1

>  <score_type>  (4) 
oracle

>  <origin>  (4) 
adgpu

>  <m_score__min__energy>  (4) 
-9.4499999999999993

>  <m_primary>  (4) 
energy

$$$$
4:0
     RDKit          3D

 32 34  0  0  0  0  0  0  0  0999 V2000
   -9.1230   18.5990  -32.3500 C   0  0  0  0  0  0  0  0  0  0  0  0
   -8.3120   19.5880  -33.0540 N   0  0  0  0  0  0  0  0  0  0  0  0
   -7.3190   20.4110  -32.4050 C   0  0  0  0  0  0  0  0  0  0  0  0
   -5.9460   20.1090  -32.5160 C   0  0  0  0  0  0  0  0  0  0  0  0
   -4.9880   20.9060  -31.8850 C   0  0  0  0  0  0  0  0  0  0  0  0
   -5.3780   22.0120  -31.1190 C   0  0  0  0  0  0  0  0  0  0  0  0
   -4.3680   22.8810  -30.4790 C   0  0  0  0  0  0  0  0  0  0  0  0
   -4.3500   24.1950  -30.8250 N   0  0  0  0  0  0  0  0  0  0  0  0
   -3.4560   25.0510  -30.3320 N   0  0  0  0  0  0  0  0  0  0  0  0
   -2.5020   24.6530  -29.4510 C   0  0  0  0  0  0  0  0  0  0  0  0
   -1.6660   25.4940  -29.0180 O   0  0  0  0  0  0  0  0  0  0  0  0
   -2.4630   23.3150  -29.0290 C   0  0  0  0  0  0  0  0  0  0  0  0
   -1.5040   22.8670  -28.1000 C   0  0  0  0  0  0  0  0  0  0  0  0
   -1.5060   21.5400  -27.6700 C   0  0  0  0  0  0  0  0  0  0  0  0
   -2.4660   20.6490  -28.1480 C   0  0  0  0  0  0  0  0  0  0  0  0
   -3.4230   21.0750  -29.0720 C   0  0  0  0  0  0  0  0  0  0  0  0
   -3.4230   22.4070  -29.5400 C   0  0  0  0  0  0  0  0  0  0  0  0
   -6.7370   22.3340  -31.0220 C   0  0  0  0  0  0  0  0  0  0  0  0
   -7.7060   21.5410  -31.6490 C   0  0  0  0  0  0  0  0  0  0  0  0
   -9.3940   22.0060  -31.4650 Cl  0  0  0  0  0  0  0  0  0  0  0  0
   -9.0096   18.7373  -31.2646 H   0  0  0  0  0  0  0  0  0  0  0  0
  -10.1797   18.7268  -32.6275 H   0  0  0  0  0  0  0  0  0  0  0  0
   -8.7907   17.5878  -32.6275 H   0  0  0  0  0  0  0  0  0  0  0  0
   -8.4820   19.6850  -34.0790 H   0  0  0  0  0  0  0  0  0  0  0  0
   -5.6262   19.2370  -33.1054 H   0  0  0  0  0  0  0  0  0  0  0  0
   -3.9202   20.6635  -31.9903 H   0  0  0  0  0  0  0  0  0  0  0  0
   -3.4930   26.0480  -30.6400 H   0  0  0  0  0  0  0  0  0  0  0  0
   -0.7496   23.5670  -27.7115 H   0  0  0  0  0  0  0  0  0  0  0  0
   -0.7477   21.1954  -26.9515 H   0  0  0  0  0  0  0  0  0  0  0  0
   -2.4698   19.6068  -27.7962 H   0  0  0  0  0  0  0  0  0  0  0  0
   -4.1820   20.3677  -29.4376 H   0  0  0  0  0  0  0  0  0  0  0  0
   -7.0469   23.2192  -30.4472 H   0  0  0  0  0  0  0  0  0  0  0  0
  1  2  1  0
  2  3  1  0
  3  4  2  0
  4  5  1  0
  5  6  2  0
  6  7  1  0
  7  8  2  0
  8  9  1  0
  9 10  1  0
 10 11  2  0
 10 12  1  0
 12 13  2  0
 13 14  1  0
 14 15  2  0
 15 16  1  0
 16 17  2  0
  6 18  1  0
 18 19  2  0
 19 20  1  0
 19  3  1  0
 17  7  1  0
 17 12  1  0
  1 21  1  0
  1 22  1  0
  1 23  1  0
  2 24  1  0
  4 25  1  0
  5 26  1  0
  9 27  1  0
 13 28  1  0
 14 29  1  0
 15 30  1  0
 16 31  1  0
 18 32  1  0
M  END
>  <UniqueID>  (5) 
5

>  <SMILES>  (5) 
CNc1ccc(-c2n[nH]c(=O)c3ccccc23)cc1Cl

>  <Energy>  (5) 
48.31064776302954

>  <Genealogy>  (5) 
CNc1ccc(-c2n[nH]c(=O)c3ccccc23)cc1Cl (3D coordinates assigned)
CNc1ccc(-c2n[nH]c(=O)c3ccccc23)cc1Cl (optimized conformer: 48.31064776302954 kcal/mol)

>  <smiles>  (5) 
CNc1ccc(-c2n[nH]c(=O)c3ccccc23)cc1Cl

>  <score_type>  (5) 
oracle

>  <origin>  (5) 
adgpu

>  <m_score__min__energy>  (5) 
-8.3399999999999999

>  <m_primary>  (5) 
energy

$$$$
5:0
     RDKit          3D

 36 38  0  0  0  0  0  0  0  0999 V2000
   -0.2250   25.3460  -27.6050 Cl  0  0  0  0  0  0  0  0  0  0  0  0
   -1.9150   24.8980  -27.7430 C   0  0  0  0  0  0  0  0  0  0  0  0
   -2.7370   24.9130  -26.6130 C   0  0  0  0  0  0  0  0  0  0  0  0
   -4.0820   24.5570  -26.7210 C   0  0  0  0  0  0  0  0  0  0  0  0
   -4.6110   24.1800  -27.9600 C   0  0  0  0  0  0  0  0  0  0  0  0
   -3.7920   24.1550  -29.1030 C   0  0  0  0  0  0  0  0  0  0  0  0
   -4.3380   23.7820  -30.3830 N   0  0  0  0  0  0  0  0  0  0  0  0
   -3.5700   22.9370  -31.3080 C   0  0  0  0  0  0  0  0  0  0  0  0
   -4.4020   21.7090  -31.7000 C   0  0  0  0  0  0  0  0  0  0  0  0
   -5.8010   22.0750  -31.9790 N   0  0  0  0  0  0  0  0  0  0  0  0
   -6.7870   21.0390  -32.1450 C   0  0  0  0  0  0  0  0  0  0  0  0
   -8.1480   21.3080  -31.9120 C   0  0  0  0  0  0  0  0  0  0  0  0
   -9.1030   20.2980  -32.0590 C   0  0  0  0  0  0  0  0  0  0  0  0
   -8.7100   19.0110  -32.4370 C   0  0  0  0  0  0  0  0  0  0  0  0
   -7.3600   18.7310  -32.6650 C   0  0  0  0  0  0  0  0  0  0  0  0
   -6.8670   17.1160  -33.1390 Cl  0  0  0  0  0  0  0  0  0  0  0  0
   -6.4010   19.7400  -32.5170 C   0  0  0  0  0  0  0  0  0  0  0  0
   -6.1880   23.4930  -32.0130 C   0  0  0  0  0  0  0  0  0  0  0  0
   -5.7070   24.1920  -30.7360 C   0  0  0  0  0  0  0  0  0  0  0  0
   -2.4400   24.5230  -28.9850 C   0  0  0  0  0  0  0  0  0  0  0  0
   -2.3232   25.2059  -25.6368 H   0  0  0  0  0  0  0  0  0  0  0  0
   -4.7274   24.5728  -25.8304 H   0  0  0  0  0  0  0  0  0  0  0  0
   -5.6722   23.9019  -28.0406 H   0  0  0  0  0  0  0  0  0  0  0  0
   -3.3229   23.5145  -32.2110 H   0  0  0  0  0  0  0  0  0  0  0  0
   -2.6437   22.6067  -30.8153 H   0  0  0  0  0  0  0  0  0  0  0  0
   -3.9648   21.2531  -32.6006 H   0  0  0  0  0  0  0  0  0  0  0  0
   -4.3906   21.0001  -30.8590 H   0  0  0  0  0  0  0  0  0  0  0  0
   -8.4624   22.3187  -31.6125 H   0  0  0  0  0  0  0  0  0  0  0  0
  -10.1656   20.5164  -31.8769 H   0  0  0  0  0  0  0  0  0  0  0  0
   -9.4635   18.2184  -32.5550 H   0  0  0  0  0  0  0  0  0  0  0  0
   -5.3388   19.5147  -32.6930 H   0  0  0  0  0  0  0  0  0  0  0  0
   -5.7298   23.9759  -32.8887 H   0  0  0  0  0  0  0  0  0  0  0  0
   -7.2833   23.5696  -32.0791 H   0  0  0  0  0  0  0  0  0  0  0  0
   -5.7250   25.2803  -30.8951 H   0  0  0  0  0  0  0  0  0  0  0  0
   -6.3773   23.9072  -29.9117 H   0  0  0  0  0  0  0  0  0  0  0  0
   -1.7916   24.5161  -29.8735 H   0  0  0  0  0  0  0  0  0  0  0  0
  1  2  1  0
  2  3  2  0
  3  4  1  0
  4  5  2  0
  5  6  1  0
  6  7  1  0
  7  8  1  0
  8  9  1  0
  9 10  1  0
 10 11  1  0
 11 12  2  0
 12 13  1  0
 13 14  2  0
 14 15  1  0
 15 16  1  0
 15 17  2  0
 10 18  1  0
 18 19  1  0
  6 20  2  0
 20  2  1  0
 19  7  1  0
 17 11  1  0
  3 21  1  0
  4 22  1  0
  5 23  1  0
  8 24  1  0
  8 25  1  0
  9 26  1  0
  9 27  1  0
 12 28  1  0
 13 29  1  0
 14 30  1  0
 17 31  1  0
 18 32  1  0
 18 33  1  0
 19 34  1  0
 19 35  1  0
 20 36  1  0
M  END
>  <UniqueID>  (6) 
6

>  <SMILES>  (6) 
Clc1cccc(N2CCN(c3cccc(Cl)c3)CC2)c1

>  <Energy>  (6) 
46.429627319410216

>  <Genealogy>  (6) 
Clc1cccc(N2CCN(c3cccc(Cl)c3)CC2)c1 (3D coordinates assigned)
Clc1cccc(N2CCN(c3cccc(Cl)c3)CC2)c1 (nonaromatic ring conformer: 46.429627319410216 kcal/mol)

>  <smiles>  (6) 
Clc1cccc(N2CCN(c3cccc(Cl)c3)CC2)c1

>  <score_type>  (6) 
oracle

>  <origin>  (6) 
adgpu

>  <m_score__min__energy>  (6) 
-7.7999999999999998

>  <m_primary>  (6) 
energy

$$$$
6:0
     RDKit          3D

 57 61  0  0  0  0  0  0  0  0999 V2000
   -7.3362   16.4826  -31.8268 H   0  0  0  0  0  0  0  0  0  0  0  0
   -6.8740   17.0860  -32.6220 C   0  0  0  0  0  0  0  0  0  0  0  0
   -7.0320   18.4370  -32.6290 N   0  0  0  0  0  0  0  0  0  0  0  0
   -6.4730   19.2250  -33.5880 C   0  0  0  0  0  0  0  0  0  0  0  0
   -6.6960   20.6080  -33.5390 O   0  0  0  0  0  0  0  0  0  0  0  0
   -5.9910   21.5180  -32.7390 C   0  0  0  0  0  0  0  0  0  0  0  0
   -6.6450   22.5020  -31.9750 C   0  0  0  0  0  0  0  0  0  0  0  0
   -7.7434   22.5615  -31.9839 H   0  0  0  0  0  0  0  0  0  0  0  0
   -5.9060   23.4040  -31.2050 C   0  0  0  0  0  0  0  0  0  0  0  0
   -6.4263   24.1500  -30.5863 H   0  0  0  0  0  0  0  0  0  0  0  0
   -4.5070   23.3630  -31.2170 C   0  0  0  0  0  0  0  0  0  0  0  0
   -3.7720   24.2660  -30.3750 N   0  0  0  0  0  0  0  0  0  0  0  0
   -2.9800   23.9760  -29.3790 C   0  0  0  0  0  0  0  0  0  0  0  0
   -2.4890   25.0330  -28.6610 N   0  0  0  0  0  0  0  0  0  0  0  0
   -1.6530   24.9860  -27.5930 C   0  0  0  0  0  0  0  0  0  0  0  0
   -1.2160   26.2390  -26.9190 C   0  0  0  0  0  0  0  0  0  0  0  0
   -1.4830   26.4330  -25.5500 C   0  0  0  0  0  0  0  0  0  0  0  0
   -2.0142   25.6541  -24.9833 H   0  0  0  0  0  0  0  0  0  0  0  0
   -1.0800   27.6050  -24.9040 C   0  0  0  0  0  0  0  0  0  0  0  0
   -1.2897   27.7388  -23.8325 H   0  0  0  0  0  0  0  0  0  0  0  0
   -0.4100   28.6110  -25.6140 C   0  0  0  0  0  0  0  0  0  0  0  0
    0.0530   29.8590  -24.9090 C   0  0  0  0  0  0  0  0  0  0  0  0
    0.9406   30.2560  -25.4233 H   0  0  0  0  0  0  0  0  0  0  0  0
    0.2970   29.6065  -23.8665 H   0  0  0  0  0  0  0  0  0  0  0  0
   -1.0440   30.9190  -24.9130 C   0  0  0  0  0  0  0  0  0  0  0  0
   -1.3096   31.1757  -23.8769 H   0  0  0  0  0  0  0  0  0  0  0  0
   -0.6826   31.8187  -25.4325 H   0  0  0  0  0  0  0  0  0  0  0  0
   -1.9308   30.5270  -25.4325 H   0  0  0  0  0  0  0  0  0  0  0  0
   -0.1270   28.4200  -26.9730 C   0  0  0  0  0  0  0  0  0  0  0  0
    0.4156   29.1961  -27.5327 H   0  0  0  0  0  0  0  0  0  0  0  0
   -0.5300   27.2490  -27.6220 C   0  0  0  0  0  0  0  0  0  0  0  0
   -0.3094   27.1151  -28.6913 H   0  0  0  0  0  0  0  0  0  0  0  0
   -1.1470   23.4580  -27.0740 S   0  0  0  0  0  0  0  0  0  0  0  0
   -1.7930   22.2290  -28.0370 C   0  0  0  0  0  0  0  0  0  0  0  0
   -1.4770   20.8040  -27.7670 C   0  0  0  0  0  0  0  0  0  0  0  0
   -2.3190   20.0290  -26.9470 C   0  0  0  0  0  0  0  0  0  0  0  0
   -3.2159   20.4837  -26.5012 H   0  0  0  0  0  0  0  0  0  0  0  0
   -2.0240   18.6860  -26.6950 C   0  0  0  0  0  0  0  0  0  0  0  0
   -2.6866   18.0904  -26.0498 H   0  0  0  0  0  0  0  0  0  0  0  0
   -0.8910   18.0990  -27.2600 C   0  0  0  0  0  0  0  0  0  0  0  0
   -0.6599   17.0425  -27.0588 H   0  0  0  0  0  0  0  0  0  0  0  0
   -0.0510   18.8540  -28.0810 C   0  0  0  0  0  0  0  0  0  0  0  0
    0.8408   18.3901  -28.5277 H   0  0  0  0  0  0  0  0  0  0  0  0
   -0.3400   20.1980  -28.3370 C   0  0  0  0  0  0  0  0  0  0  0  0
    0.3245   20.7857  -28.9874 H   0  0  0  0  0  0  0  0  0  0  0  0
   -2.6220   22.6240  -29.0960 C   0  0  0  0  0  0  0  0  0  0  0  0
   -3.0237   21.8387  -29.7533 H   0  0  0  0  0  0  0  0  0  0  0  0
   -3.8540   22.3710  -31.9670 C   0  0  0  0  0  0  0  0  0  0  0  0
   -2.7563   22.3032  -31.9473 H   0  0  0  0  0  0  0  0  0  0  0  0
   -4.5930   21.4700  -32.7380 C   0  0  0  0  0  0  0  0  0  0  0  0
   -4.0718   20.7178  -33.3484 H   0  0  0  0  0  0  0  0  0  0  0  0
   -5.7300   18.6280  -34.6220 C   0  0  0  0  0  0  0  0  0  0  0  0
   -5.2902   19.2475  -35.4175 H   0  0  0  0  0  0  0  0  0  0  0  0
   -5.5550   17.2440  -34.6310 C   0  0  0  0  0  0  0  0  0  0  0  0
   -4.9685   16.7676  -35.4304 H   0  0  0  0  0  0  0  0  0  0  0  0
   -6.1260   16.4650  -33.6230 C   0  0  0  0  0  0  0  0  0  0  0  0
   -5.9878   15.3737  -33.6179 H   0  0  0  0  0  0  0  0  0  0  0  0
  1  2  1  0
  2  3  2  0
  3  4  1  0
  4  5  1  0
  5  6  1  0
  6  7  2  0
  7  8  1  0
  7  9  1  0
  9 10  1  0
  9 11  2  0
 11 12  1  0
 12 13  2  0
 13 14  1  0
 14 15  2  0
 15 16  1  0
 16 17  2  0
 17 18  1  0
 17 19  1  0
 19 20  1  0
 19 21  2  0
 21 22  1  0
 22 23  1  0
 22 24  1  0
 22 25  1  0
 25 26  1  0
 25 27  1  0
 25 28  1  0
 21 29  1  0
 29 30  1  0
 29 31  2  0
 31 32  1  0
 15 33  1  0
 33 34  1  0
 34 35  1  0
 35 36  2  0
 36 37  1  0
 36 38  1  0
 38 39  1  0
 38 40  2  0
 40 41  1  0
 40 42  1  0
 42 43  1  0
 42 44  2  0
 44 45  1  0
 34 46  2  0
 46 47  1  0
 11 48  1  0
 48 49  1  0
 48 50  2  0
 50 51  1  0
  4 52  2  0
 52 53  1  0
 52 54  1  0
 54 55  1  0
 54 56  2  0
 56 57  1  0
 56  2  1  0
 50  6  1  0
 46 13  1  0
 31 16  1  0
 44 35  1  0
M  END
>  <UniqueID>  (7) 
7

>  <SMILES>  (7) 
CCc1ccc(-c2n/c(=N/c3ccc(Oc4ccccn4)cc3)cc(-c3ccccc3)s2)cc1

>  <Energy>  (7) 
88.57509915194036

>  <Genealogy>  (7) 
CCc1ccc(-c2n/c(=N/c3ccc(Oc4ccccn4)cc3)cc(-c3ccccc3)s2)cc1 (cis-trans isomerization)
CCc1ccc(-c2n/c(=N/c3ccc(Oc4ccccn4)cc3)cc(-c3ccccc3)s2)cc1 (3D coordinates assigned)
CCc1ccc(-c2n/c(=N/c3ccc(Oc4ccccn4)cc3)cc(-c3ccccc3)s2)cc1 (optimized conformer: 88.57509915194036 kcal/mol)

>  <smiles>  (7) 
CCc1ccc(-c2nc(=Nc3ccc(Oc4ccccn4)cc3)cc(-c3ccccc3)s2)cc1

>  <score_type>  (7) 
oracle

>  <origin>  (7) 
adgpu

>  <m_score__min__energy>  (7) 
-10.52

>  <m_primary>  (7) 
energy

$$$$
7:0
     RDKit          3D

 45 48  0  0  0  0  0  0  0  0999 V2000
   -4.0320   22.3460  -27.8690 C   0  0  0  0  0  0  0  0  0  0  0  0
   -2.8310   21.9840  -28.7020 C   0  0  0  0  0  0  0  0  0  0  0  0
   -2.5150   20.6250  -28.8870 C   0  0  0  0  0  0  0  0  0  0  0  0
   -1.4090   20.2510  -29.6520 C   0  0  0  0  0  0  0  0  0  0  0  0
   -0.6040   21.2250  -30.2410 C   0  0  0  0  0  0  0  0  0  0  0  0
   -0.9000   22.5780  -30.0650 C   0  0  0  0  0  0  0  0  0  0  0  0
   -2.0070   22.9740  -29.2940 C   0  0  0  0  0  0  0  0  0  0  0  0
   -2.3370   24.7040  -29.0920 S   0  0  0  0  0  0  0  0  0  0  0  0
   -1.0630   25.4810  -29.2750 O   0  0  0  0  0  0  0  0  0  0  0  0
   -2.8980   24.9420  -27.7180 O   0  0  0  0  0  0  0  0  0  0  0  0
   -3.4900   25.2320  -30.2760 N   0  0  0  0  0  0  0  0  0  0  0  0
   -4.8050   24.6880  -30.4550 C   0  0  0  0  0  0  0  0  0  0  0  0
   -5.8970   25.4110  -29.9630 C   0  0  0  0  0  0  0  0  0  0  0  0
   -7.1940   24.9200  -30.1150 C   0  0  0  0  0  0  0  0  0  0  0  0
   -7.4120   23.7020  -30.7610 C   0  0  0  0  0  0  0  0  0  0  0  0
   -6.3310   22.9570  -31.2650 C   0  0  0  0  0  0  0  0  0  0  0  0
   -6.5810   21.6650  -31.9460 C   0  0  0  0  0  0  0  0  0  0  0  0
   -5.6610   20.6870  -32.2800 C   0  0  0  0  0  0  0  0  0  0  0  0
   -6.3530   19.7010  -32.8840 N   0  0  0  0  0  0  0  0  0  0  0  0
   -5.8450   18.4650  -33.4250 C   0  0  0  0  0  0  0  0  0  0  0  0
   -4.9500   18.4870  -34.5120 C   0  0  0  0  0  0  0  0  0  0  0  0
   -4.4540   17.2960  -35.0480 C   0  0  0  0  0  0  0  0  0  0  0  0
   -4.8430   16.0680  -34.5080 C   0  0  0  0  0  0  0  0  0  0  0  0
   -5.7330   16.0310  -33.4320 C   0  0  0  0  0  0  0  0  0  0  0  0
   -6.2330   17.2200  -32.8910 C   0  0  0  0  0  0  0  0  0  0  0  0
   -7.6280   20.0600  -32.9220 N   0  0  0  0  0  0  0  0  0  0  0  0
   -7.7960   21.2460  -32.3590 N   0  0  0  0  0  0  0  0  0  0  0  0
   -5.0260   23.4600  -31.1070 C   0  0  0  0  0  0  0  0  0  0  0  0
   -3.7751   22.2686  -26.8022 H   0  0  0  0  0  0  0  0  0  0  0  0
   -4.3399   23.3769  -28.0981 H   0  0  0  0  0  0  0  0  0  0  0  0
   -4.8583   21.6570  -28.0981 H   0  0  0  0  0  0  0  0  0  0  0  0
   -3.1451   19.8509  -28.4247 H   0  0  0  0  0  0  0  0  0  0  0  0
   -1.1721   19.1858  -29.7904 H   0  0  0  0  0  0  0  0  0  0  0  0
    0.2656   20.9271  -30.8452 H   0  0  0  0  0  0  0  0  0  0  0  0
   -0.2613   23.3411  -30.5338 H   0  0  0  0  0  0  0  0  0  0  0  0
   -5.7321   26.3719  -29.4535 H   0  0  0  0  0  0  0  0  0  0  0  0
   -8.0471   25.4943  -29.7247 H   0  0  0  0  0  0  0  0  0  0  0  0
   -8.4377   23.3218  -30.8768 H   0  0  0  0  0  0  0  0  0  0  0  0
   -4.5778   20.7099  -32.0899 H   0  0  0  0  0  0  0  0  0  0  0  0
   -4.6388   19.4501  -34.9427 H   0  0  0  0  0  0  0  0  0  0  0  0
   -3.7555   17.3254  -35.8973 H   0  0  0  0  0  0  0  0  0  0  0  0
   -4.4491   15.1314  -34.9294 H   0  0  0  0  0  0  0  0  0  0  0  0
   -6.0416   15.0637  -33.0088 H   0  0  0  0  0  0  0  0  0  0  0  0
   -6.9333   17.1830  -32.0436 H   0  0  0  0  0  0  0  0  0  0  0  0
   -4.1708   22.8883  -31.4966 H   0  0  0  0  0  0  0  0  0  0  0  0
  1  2  1  0
  2  3  2  0
  3  4  1  0
  4  5  2  0
  5  6  1  0
  6  7  2  0
  7  8  1  0
  8  9  2  0
  8 10  2  0
  8 11  1  0
 11 12  1  0
 12 13  2  0
 13 14  1  0
 14 15  2  0
 15 16  1  0
 16 17  1  0
 17 18  2  0
 18 19  1  0
 19 20  1  0
 20 21  2  0
 21 22  1  0
 22 23  2  0
 23 24  1  0
 24 25  2  0
 19 26  1  0
 26 27  2  0
 16 28  2  0
  7  2  1  0
 28 12  1  0
 27 17  1  0
 25 20  1  0
  1 29  1  0
  1 30  1  0
  1 31  1  0
  3 32  1  0
  4 33  1  0
  5 34  1  0
  6 35  1  0
 13 36  1  0
 14 37  1  0
 15 38  1  0
 18 39  1  0
 21 40  1  0
 22 41  1  0
 23 42  1  0
 24 43  1  0
 25 44  1  0
 28 45  1  0
M  CHG  1  11  -1
M  END
>  <UniqueID>  (8) 
8

>  <SMILES>  (8) 
Cc1ccccc1S(=O)(=O)[N-]c1cccc(-c2cn(-c3ccccc3)nn2)c1

>  <Energy>  (8) 
93.9546200210193

>  <Genealogy>  (8) 
Cc1ccccc1S(=O)(=O)[N-]c1cccc(-c2cn(-c3ccccc3)nn2)c1 (protonated)
Cc1ccccc1S(=O)(=O)[N-]c1cccc(-c2cn(-c3ccccc3)nn2)c1 (3D coordinates assigned)
Cc1ccccc1S(=O)(=O)[N-]c1cccc(-c2cn(-c3ccccc3)nn2)c1 (optimized conformer: 93.9546200210193 kcal/mol)

>  <smiles>  (8) 
Cc1ccccc1S(=O)(=O)Nc1cccc(-c2cn(-c3ccccc3)nn2)c1

>  <score_type>  (8) 
oracle

>  <origin>  (8) 
adgpu

>  <m_score__min__energy>  (8) 
-11.279999999999999

>  <m_primary>  (8) 
energy

$$$$
8:0
     RDKit          3D

 22 22  0  0  0  0  0  0  0  0999 V2000
   -6.8570   25.6720  -29.3400 C   0  0  0  0  0  0  0  0  0  0  0  0
   -5.6530   25.7550  -30.2710 C   0  0  0  0  0  0  0  0  0  0  0  0
   -5.4550   24.4570  -30.9920 C   0  0  0  0  0  0  0  0  0  0  0  0
   -4.2860   24.0150  -31.1620 O   0  0  0  0  0  0  0  0  0  0  0  0
   -6.5910   23.7310  -31.4880 N   0  0  0  0  0  0  0  0  0  0  0  0
   -6.5340   22.3820  -31.9840 C   0  0  0  0  0  0  0  0  0  0  0  0
   -5.3350   21.8270  -32.4640 C   0  0  0  0  0  0  0  0  0  0  0  0
   -5.3020   20.5060  -32.9170 C   0  0  0  0  0  0  0  0  0  0  0  0
   -6.4570   19.7170  -32.8850 C   0  0  0  0  0  0  0  0  0  0  0  0
   -6.3590   17.9110  -33.5160 Br  0  0  0  0  0  0  0  0  0  0  0  0
   -7.6540   20.2570  -32.3840 C   0  0  0  0  0  0  0  0  0  0  0  0
   -9.1270   19.3000  -32.3110 Cl  0  0  0  0  0  0  0  0  0  0  0  0
   -7.6850   21.5810  -31.9300 C   0  0  0  0  0  0  0  0  0  0  0  0
   -6.5147   25.6956  -28.2949 H   0  0  0  0  0  0  0  0  0  0  0  0
   -7.5244   26.5263  -29.5266 H   0  0  0  0  0  0  0  0  0  0  0  0
   -7.4008   24.7342  -29.5266 H   0  0  0  0  0  0  0  0  0  0  0  0
   -5.8191   26.5557  -31.0067 H   0  0  0  0  0  0  0  0  0  0  0  0
   -4.7553   25.9692  -29.6724 H   0  0  0  0  0  0  0  0  0  0  0  0
   -7.5000   24.2430  -31.5630 H   0  0  0  0  0  0  0  0  0  0  0  0
   -4.4188   22.4355  -32.4830 H   0  0  0  0  0  0  0  0  0  0  0  0
   -4.3620   20.0834  -33.3013 H   0  0  0  0  0  0  0  0  0  0  0  0
   -8.6202   21.9972  -31.5273 H   0  0  0  0  0  0  0  0  0  0  0  0
  1  2  1  0
  2  3  1  0
  3  4  2  0
  3  5  1  0
  5  6  1  0
  6  7  2  0
  7  8  1  0
  8  9  2  0
  9 10  1  0
  9 11  1  0
 11 12  1  0
 11 13  2  0
 13  6  1  0
  1 14  1  0
  1 15  1  0
  1 16  1  0
  2 17  1  0
  2 18  1  0
  5 19  1  0
  7 20  1  0
  8 21  1  0
 13 22  1  0
M  END
>  <UniqueID>  (9) 
9

>  <SMILES>  (9) 
CCC(=O)Nc1ccc(Br)c(Cl)c1

>  <Energy>  (9) 
20.340737961522052

>  <Genealogy>  (9) 
CCC(=O)Nc1ccc(Br)c(Cl)c1 (3D coordinates assigned)
CCC(=O)Nc1ccc(Br)c(Cl)c1 (optimized conformer: 20.340737961522052 kcal/mol)

>  <smiles>  (9) 
CCC(=O)Nc1ccc(Br)c(Cl)c1

>  <score_type>  (9) 
oracle

>  <origin>  (9) 
adgpu

>  <m_score__min__energy>  (9) 
-6.5899999999999999

>  <m_primary>  (9) 
energy

$$$$
9:0
     RDKit          3D

 46 49  0  0  0  0  0  0  0  0999 V2000
   -9.6534   18.8607  -32.5353 H   0  0  0  0  0  0  0  0  0  0  0  0
   -8.6150   19.1880  -32.3780 C   0  0  0  0  0  0  0  0  0  0  0  0
   -7.5920   18.3230  -32.5940 N   0  0  0  0  0  0  0  0  0  0  0  0
   -6.2990   18.7030  -32.3970 C   0  0  0  0  0  0  0  0  0  0  0  0
   -5.3110   17.8860  -32.6190 N   0  0  0  0  0  0  0  0  0  0  0  0
   -5.3970   16.5000  -32.9920 C   0  0  0  0  0  0  0  0  0  0  0  0
   -6.3410   16.0330  -33.9280 C   0  0  0  0  0  0  0  0  0  0  0  0
   -7.0217   16.7426  -34.4210 H   0  0  0  0  0  0  0  0  0  0  0  0
   -6.4150   14.6700  -34.2320 C   0  0  0  0  0  0  0  0  0  0  0  0
   -7.1438   14.3119  -34.9741 H   0  0  0  0  0  0  0  0  0  0  0  0
   -5.5650   13.7620  -33.5950 C   0  0  0  0  0  0  0  0  0  0  0  0
   -5.6400   12.4410  -33.8890 F   0  0  0  0  0  0  0  0  0  0  0  0
   -4.6480   14.2150  -32.6430 C   0  0  0  0  0  0  0  0  0  0  0  0
   -3.9844   13.4995  -32.1353 H   0  0  0  0  0  0  0  0  0  0  0  0
   -4.5730   15.5770  -32.3350 C   0  0  0  0  0  0  0  0  0  0  0  0
   -3.8621   15.9260  -31.5716 H   0  0  0  0  0  0  0  0  0  0  0  0
   -6.0290   19.9730  -32.0010 N   0  0  0  0  0  0  0  0  0  0  0  0
   -7.0170   20.8830  -31.7760 C   0  0  0  0  0  0  0  0  0  0  0  0
   -6.6510   22.2540  -31.3300 C   0  0  0  0  0  0  0  0  0  0  0  0
   -7.6130   23.2730  -31.2050 C   0  0  0  0  0  0  0  0  0  0  0  0
   -8.6676   23.0599  -31.4342 H   0  0  0  0  0  0  0  0  0  0  0  0
   -7.2380   24.5530  -30.7920 C   0  0  0  0  0  0  0  0  0  0  0  0
   -8.0006   25.3379  -30.6803 H   0  0  0  0  0  0  0  0  0  0  0  0
   -5.8980   24.8410  -30.5200 C   0  0  0  0  0  0  0  0  0  0  0  0
   -5.6110   25.8480  -30.1831 H   0  0  0  0  0  0  0  0  0  0  0  0
   -4.9200   23.8520  -30.6750 C   0  0  0  0  0  0  0  0  0  0  0  0
   -3.5530   24.1770  -30.3890 N   0  0  0  0  0  0  0  0  0  0  0  0
   -3.0410   24.5490  -29.1030 C   0  0  0  0  0  0  0  0  0  0  0  0
   -3.7030   24.2530  -28.0720 O   0  0  0  0  0  0  0  0  0  0  0  0
   -1.8420   25.3300  -28.9910 N   0  0  0  0  0  0  0  0  0  0  0  0
   -1.6030   25.9670  -29.7840 H   0  0  0  0  0  0  0  0  0  0  0  0
   -0.9640   25.3030  -27.8520 C   0  0  0  0  0  0  0  0  0  0  0  0
    0.1990   24.5180  -27.9000 C   0  0  0  0  0  0  0  0  0  0  0  0
    0.4429   23.9582  -28.8150 H   0  0  0  0  0  0  0  0  0  0  0  0
    1.0490   24.4430  -26.7930 C   0  0  0  0  0  0  0  0  0  0  0  0
    1.9631   23.8331  -26.8431 H   0  0  0  0  0  0  0  0  0  0  0  0
    0.7400   25.1410  -25.6230 C   0  0  0  0  0  0  0  0  0  0  0  0
    1.4131   25.0848  -24.7548 H   0  0  0  0  0  0  0  0  0  0  0  0
   -0.4250   25.9110  -25.5560 C   0  0  0  0  0  0  0  0  0  0  0  0
   -0.8250   26.7670  -24.0780 Cl  0  0  0  0  0  0  0  0  0  0  0  0
   -1.2780   25.9890  -26.6630 C   0  0  0  0  0  0  0  0  0  0  0  0
   -2.1980   26.5890  -26.6039 H   0  0  0  0  0  0  0  0  0  0  0  0
   -5.3050   22.5550  -31.0540 C   0  0  0  0  0  0  0  0  0  0  0  0
   -4.5441   21.7649  -31.1359 H   0  0  0  0  0  0  0  0  0  0  0  0
   -8.3520   20.4910  -31.9570 C   0  0  0  0  0  0  0  0  0  0  0  0
   -9.1744   21.1973  -31.7706 H   0  0  0  0  0  0  0  0  0  0  0  0
  1  2  1  0
  2  3  1  0
  3  4  1  0
  4  5  2  0
  5  6  1  0
  6  7  2  0
  7  8  1  0
  7  9  1  0
  9 10  1  0
  9 11  2  0
 11 12  1  0
 11 13  1  0
 13 14  1  0
 13 15  2  0
 15 16  1  0
  4 17  1  0
 17 18  2  0
 18 19  1  0
 19 20  2  0
 20 21  1  0
 20 22  1  0
 22 23  1  0
 22 24  2  0
 24 25  1  0
 24 26  1  0
 26 27  1  0
 27 28  1  0
 28 29  2  0
 28 30  1  0
 30 31  1  0
 30 32  1  0
 32 33  2  0
 33 34  1  0
 33 35  1  0
 35 36  1  0
 35 37  2  0
 37 38  1  0
 37 39  1  0
 39 40  1  0
 39 41  2  0
 41 42  1  0
 26 43  2  0
 43 44  1  0
 18 45  1  0
 45 46  1  0
 45  2  2  0
 15  6  1  0
 43 19  1  0
 41 32  1  0
M  CHG  2   3  -1  27  -1
M  END
>  <UniqueID>  (10) 
10

>  <SMILES>  (10) 
O=C([N-]c1cccc(-c2cc[n-]/c(=N\c3ccc(F)cc3)n2)c1)Nc1cccc(Cl)c1

>  <Energy>  (10) 
68.37765867923366

>  <Genealogy>  (10) 
O=C([N-]c1cccc(-c2cc[n-]c(=Nc3ccc(F)cc3)n2)c1)Nc1cccc(Cl)c1 (protonated)
O=C([N-]c1cccc(-c2cc[n-]/c(=N\c3ccc(F)cc3)n2)c1)Nc1cccc(Cl)c1 (cis-trans isomerization)
O=C([N-]c1cccc(-c2cc[n-]/c(=N\c3ccc(F)cc3)n2)c1)Nc1cccc(Cl)c1 (3D coordinates assigned)
O=C([N-]c1cccc(-c2cc[n-]/c(=N\c3ccc(F)cc3)n2)c1)Nc1cccc(Cl)c1 (optimized conformer: 68.37765867923366 kcal/mol)

>  <smiles>  (10) 
O=C(Nc1cccc(Cl)c1)Nc1cccc(-c2cc[nH]c(=Nc3ccc(F)cc3)n2)c1

>  <score_type>  (10) 
oracle

>  <origin>  (10) 
adgpu

>  <m_score__min__energy>  (10) 
-11.720000000000001

>  <m_primary>  (10) 
energy

$$$$
10:0
     RDKit          3D

 34 36  0  0  0  0  0  0  0  0999 V2000
   -1.8026   20.3293  -31.2010 H   0  0  0  0  0  0  0  0  0  0  0  0
   -2.2870   21.3050  -31.0480 C   0  0  0  0  0  0  0  0  0  0  0  0
   -1.7120   22.2350  -30.2410 N   0  0  0  0  0  0  0  0  0  0  0  0
   -2.2860   23.4480  -30.0340 C   0  0  0  0  0  0  0  0  0  0  0  0
   -1.7987   24.1890  -29.3833 H   0  0  0  0  0  0  0  0  0  0  0  0
   -3.5010   23.7460  -30.6550 C   0  0  0  0  0  0  0  0  0  0  0  0
   -4.0600   24.9050  -30.4640 N   0  0  0  0  0  0  0  0  0  0  0  0
   -5.3250   25.3300  -31.0660 C   0  0  0  0  0  0  0  0  0  0  0  0
   -5.1535   25.5895  -32.1211 H   0  0  0  0  0  0  0  0  0  0  0  0
   -5.7030   26.2035  -30.5146 H   0  0  0  0  0  0  0  0  0  0  0  0
   -6.3490   24.2280  -30.9880 C   0  0  0  0  0  0  0  0  0  0  0  0
   -7.0050   23.7940  -32.1520 C   0  0  0  0  0  0  0  0  0  0  0  0
   -6.7846   24.2740  -33.1169 H   0  0  0  0  0  0  0  0  0  0  0  0
   -7.9370   22.7540  -32.0880 C   0  0  0  0  0  0  0  0  0  0  0  0
   -8.4486   22.4181  -33.0020 H   0  0  0  0  0  0  0  0  0  0  0  0
   -8.2200   22.1400  -30.8640 C   0  0  0  0  0  0  0  0  0  0  0  0
   -8.9535   21.3217  -30.8158 H   0  0  0  0  0  0  0  0  0  0  0  0
   -7.5710   22.5660  -29.7020 C   0  0  0  0  0  0  0  0  0  0  0  0
   -7.7939   22.0822  -28.7396 H   0  0  0  0  0  0  0  0  0  0  0  0
   -6.6390   23.6060  -29.7610 C   0  0  0  0  0  0  0  0  0  0  0  0
   -6.1306   23.9390  -28.8441 H   0  0  0  0  0  0  0  0  0  0  0  0
   -4.0780   22.8120  -31.4590 N   0  0  0  0  0  0  0  0  0  0  0  0
   -3.5050   21.5980  -31.6860 C   0  0  0  0  0  0  0  0  0  0  0  0
   -4.1840   20.6300  -32.5850 C   0  0  0  0  0  0  0  0  0  0  0  0
   -5.5890   20.5850  -32.6920 C   0  0  0  0  0  0  0  0  0  0  0  0
   -6.2041   21.2881  -32.1112 H   0  0  0  0  0  0  0  0  0  0  0  0
   -6.2060   19.6520  -33.5320 C   0  0  0  0  0  0  0  0  0  0  0  0
   -7.3028   19.6266  -33.6120 H   0  0  0  0  0  0  0  0  0  0  0  0
   -5.4330   18.7530  -34.2690 C   0  0  0  0  0  0  0  0  0  0  0  0
   -5.9208   18.0239  -34.9327 H   0  0  0  0  0  0  0  0  0  0  0  0
   -4.0420   18.7790  -34.1640 C   0  0  0  0  0  0  0  0  0  0  0  0
   -3.4344   18.0667  -34.7414 H   0  0  0  0  0  0  0  0  0  0  0  0
   -3.4190   19.7090  -33.3260 C   0  0  0  0  0  0  0  0  0  0  0  0
   -2.3221   19.7212  -33.2450 H   0  0  0  0  0  0  0  0  0  0  0  0
  1  2  1  0
  2  3  1  0
  3  4  2  0
  4  5  1  0
  4  6  1  0
  6  7  2  0
  7  8  1  0
  8  9  1  0
  8 10  1  0
  8 11  1  0
 11 12  2  0
 12 13  1  0
 12 14  1  0
 14 15  1  0
 14 16  2  0
 16 17  1  0
 16 18  1  0
 18 19  1  0
 18 20  2  0
 20 21  1  0
  6 22  1  0
 22 23  1  0
 23 24  1  0
 24 25  2  0
 25 26  1  0
 25 27  1  0
 27 28  1  0
 27 29  2  0
 29 30  1  0
 29 31  1  0
 31 32  1  0
 31 33  2  0
 33 34  1  0
 23  2  2  0
 33 24  1  0
 20 11  1  0
M  CHG  1  22  -1
M  END
>  <UniqueID>  (11) 
11

>  <SMILES>  (11) 
c1ccc(C/N=c2/cncc(-c3ccccc3)[n-]2)cc1

>  <Energy>  (11) 
40.6410394016271

>  <Genealogy>  (11) 
c1ccc(CN=c2cncc(-c3ccccc3)[n-]2)cc1 (protonated)
c1ccc(C/N=c2/cncc(-c3ccccc3)[n-]2)cc1 (cis-trans isomerization)
c1ccc(C/N=c2/cncc(-c3ccccc3)[n-]2)cc1 (3D coordinates assigned)
c1ccc(C/N=c2/cncc(-c3ccccc3)[n-]2)cc1 (optimized conformer: 40.6410394016271 kcal/mol)

>  <smiles>  (11) 
c1ccc(CN=c2cncc(-c3ccccc3)[nH]2)cc1

>  <score_type>  (11) 
oracle

>  <origin>  (11) 
adgpu

>  <m_score__min__energy>  (11) 
-8.1799999999999997

>  <m_primary>  (11) 
energy

$$$$
11:0
     RDKit          3D

 42 44  0  0  0  0  0  0  0  0999 V2000
   -9.1130   18.3360  -31.3100 C   0  0  0  0  0  0  0  0  0  0  0  0
   -7.8780   18.6100  -32.1220 C   0  0  0  0  0  0  0  0  0  0  0  0
   -6.8520   17.6520  -32.1830 C   0  0  0  0  0  0  0  0  0  0  0  0
   -5.7060   17.8900  -32.9440 C   0  0  0  0  0  0  0  0  0  0  0  0
   -5.5700   19.0880  -33.6450 C   0  0  0  0  0  0  0  0  0  0  0  0
   -6.5810   20.0510  -33.5940 C   0  0  0  0  0  0  0  0  0  0  0  0
   -7.7430   19.8240  -32.8310 C   0  0  0  0  0  0  0  0  0  0  0  0
   -8.7970   20.7980  -32.7590 N   0  0  0  0  0  0  0  0  0  0  0  0
   -8.8970   22.0930  -31.6100 S   0  0  0  0  0  0  0  0  0  0  0  0
   -9.4340   21.5590  -30.3120 O   0  0  0  0  0  0  0  0  0  0  0  0
   -9.8420   23.1450  -32.1240 O   0  0  0  0  0  0  0  0  0  0  0  0
   -7.2930   22.7630  -31.3280 C   0  0  0  0  0  0  0  0  0  0  0  0
   -6.2210   21.9020  -31.0640 C   0  0  0  0  0  0  0  0  0  0  0  0
   -4.9420   22.4200  -30.8360 C   0  0  0  0  0  0  0  0  0  0  0  0
   -4.7230   23.8030  -30.8580 C   0  0  0  0  0  0  0  0  0  0  0  0
   -3.3920   24.2920  -30.6340 N   0  0  0  0  0  0  0  0  0  0  0  0
   -2.3030   23.5650  -30.0470 C   0  0  0  0  0  0  0  0  0  0  0  0
   -1.7370   22.6490  -30.7040 O   0  0  0  0  0  0  0  0  0  0  0  0
   -1.8040   23.9090  -28.6900 C   0  0  0  0  0  0  0  0  0  0  0  0
   -1.8300   22.9290  -27.6780 C   0  0  0  0  0  0  0  0  0  0  0  0
   -1.3660   23.2190  -26.3930 C   0  0  0  0  0  0  0  0  0  0  0  0
   -0.8640   24.4860  -26.0990 C   0  0  0  0  0  0  0  0  0  0  0  0
   -0.8300   25.4690  -27.0880 C   0  0  0  0  0  0  0  0  0  0  0  0
   -1.2960   25.1930  -28.3790 C   0  0  0  0  0  0  0  0  0  0  0  0
   -1.2290   26.1980  -29.3370 O   0  0  0  0  0  0  0  0  0  0  0  0
   -5.7960   24.6640  -31.1520 C   0  0  0  0  0  0  0  0  0  0  0  0
   -7.0750   24.1460  -31.3740 C   0  0  0  0  0  0  0  0  0  0  0  0
   -8.8673   18.3905  -30.2392 H   0  0  0  0  0  0  0  0  0  0  0  0
   -9.8822   19.0853  -31.5483 H   0  0  0  0  0  0  0  0  0  0  0  0
   -9.4932   17.3317  -31.5483 H   0  0  0  0  0  0  0  0  0  0  0  0
   -6.9524   16.7080  -31.6273 H   0  0  0  0  0  0  0  0  0  0  0  0
   -4.9100   17.1323  -32.9907 H   0  0  0  0  0  0  0  0  0  0  0  0
   -4.6639   19.2753  -34.2399 H   0  0  0  0  0  0  0  0  0  0  0  0
   -6.4689   20.9918  -34.1529 H   0  0  0  0  0  0  0  0  0  0  0  0
   -6.3852   20.8147  -31.0358 H   0  0  0  0  0  0  0  0  0  0  0  0
   -4.1029   21.7368  -30.6382 H   0  0  0  0  0  0  0  0  0  0  0  0
   -2.2198   21.9251  -27.9023 H   0  0  0  0  0  0  0  0  0  0  0  0
   -1.3967   22.4459  -25.6111 H   0  0  0  0  0  0  0  0  0  0  0  0
   -0.4948   24.7104  -25.0874 H   0  0  0  0  0  0  0  0  0  0  0  0
   -0.4343   26.4679  -26.8520 H   0  0  0  0  0  0  0  0  0  0  0  0
   -5.6277   25.7496  -31.2074 H   0  0  0  0  0  0  0  0  0  0  0  0
   -7.9130   24.8264  -31.5855 H   0  0  0  0  0  0  0  0  0  0  0  0
  1  2  1  0
  2  3  2  0
  3  4  1  0
  4  5  2  0
  5  6  1  0
  6  7  2  0
  7  8  1  0
  8  9  1  0
  9 10  2  0
  9 11  2  0
  9 12  1  0
 12 13  2  0
 13 14  1  0
 14 15  2  0
 15 16  1  0
 16 17  1  0
 17 18  2  0
 17 19  1  0
 19 20  2  0
 20 21  1  0
 21 22  2  0
 22 23  1  0
 23 24  2  0
 24 25  1  0
 15 26  1  0
 26 27  2  0
  7  2  1  0
 27 12  1  0
 24 19  1  0
  1 28  1  0
  1 29  1  0
  1 30  1  0
  3 31  1  0
  4 32  1  0
  5 33  1  0
  6 34  1  0
 13 35  1  0
 14 36  1  0
 20 37  1  0
 21 38  1  0
 22 39  1  0
 23 40  1  0
 26 41  1  0
 27 42  1  0
M  CHG  3   8  -1  16  -1  25  -1
M  END
>  <UniqueID>  (12) 
12

>  <SMILES>  (12) 
Cc1ccccc1[N-]S(=O)(=O)c1ccc([N-]C(=O)c2ccccc2[O-])cc1

>  <Energy>  (12) 
54.686254948623144

>  <Genealogy>  (12) 
Cc1ccccc1[N-]S(=O)(=O)c1ccc([N-]C(=O)c2ccccc2[O-])cc1 (protonated)
Cc1ccccc1[N-]S(=O)(=O)c1ccc([N-]C(=O)c2ccccc2[O-])cc1 (3D coordinates assigned)
Cc1ccccc1[N-]S(=O)(=O)c1ccc([N-]C(=O)c2ccccc2[O-])cc1 (optimized conformer: 54.686254948623144 kcal/mol)

>  <smiles>  (12) 
Cc1ccccc1NS(=O)(=O)c1ccc(NC(=O)c2ccccc2O)cc1

>  <score_type>  (12) 
oracle

>  <origin>  (12) 
adgpu

>  <m_score__min__energy>  (12) 
-13.41

>  <m_primary>  (12) 
energy

$$$$
12:0
     RDKit          3D

 33 34  0  0  0  0  0  0  0  0999 V2000
   -5.8300   24.9210  -29.6430 C   0  0  0  0  0  0  0  0  0  0  0  0
   -4.7890   25.6540  -30.4830 C   0  0  0  0  0  0  0  0  0  0  0  0
   -3.4960   25.0830  -30.2910 O   0  0  0  0  0  0  0  0  0  0  0  0
   -3.2320   23.7100  -30.3840 C   0  0  0  0  0  0  0  0  0  0  0  0
   -3.9920   22.9150  -31.1890 N   0  0  0  0  0  0  0  0  0  0  0  0
   -3.7820   21.5760  -31.3130 C   0  0  0  0  0  0  0  0  0  0  0  0
   -4.6650   20.7830  -32.2050 C   0  0  0  0  0  0  0  0  0  0  0  0
   -6.0450   21.0640  -32.2520 C   0  0  0  0  0  0  0  0  0  0  0  0
   -6.8910   20.3310  -33.0910 C   0  0  0  0  0  0  0  0  0  0  0  0
   -6.3710   19.3170  -33.8990 C   0  0  0  0  0  0  0  0  0  0  0  0
   -5.0040   19.0360  -33.8710 C   0  0  0  0  0  0  0  0  0  0  0  0
   -4.1530   19.7630  -33.0340 C   0  0  0  0  0  0  0  0  0  0  0  0
   -2.7470   20.9800  -30.5730 C   0  0  0  0  0  0  0  0  0  0  0  0
   -1.9490   21.7690  -29.7450 C   0  0  0  0  0  0  0  0  0  0  0  0
   -2.1800   23.1460  -29.6480 C   0  0  0  0  0  0  0  0  0  0  0  0
   -1.1850   24.1450  -28.5850 S   0  0  0  0  0  0  0  0  0  0  0  0
   -1.6520   25.8030  -28.7410 N   0  0  0  0  0  0  0  0  0  0  0  0
    0.2620   23.9910  -28.9580 O   0  0  0  0  0  0  0  0  0  0  0  0
   -1.3620   23.7160  -27.1560 O   0  0  0  0  0  0  0  0  0  0  0  0
   -5.6133   25.0736  -28.5754 H   0  0  0  0  0  0  0  0  0  0  0  0
   -6.8308   25.3147  -29.8739 H   0  0  0  0  0  0  0  0  0  0  0  0
   -5.7967   23.8460  -29.8739 H   0  0  0  0  0  0  0  0  0  0  0  0
   -5.0634   25.5783  -31.5455 H   0  0  0  0  0  0  0  0  0  0  0  0
   -4.7607   26.7086  -30.1714 H   0  0  0  0  0  0  0  0  0  0  0  0
   -6.4603   21.8660  -31.6240 H   0  0  0  0  0  0  0  0  0  0  0  0
   -7.9680   20.5535  -33.1145 H   0  0  0  0  0  0  0  0  0  0  0  0
   -7.0382   18.7405  -34.5567 H   0  0  0  0  0  0  0  0  0  0  0  0
   -4.5951   18.2395  -34.5100 H   0  0  0  0  0  0  0  0  0  0  0  0
   -3.0763   19.5382  -33.0216 H   0  0  0  0  0  0  0  0  0  0  0  0
   -2.5671   19.8973  -30.6463 H   0  0  0  0  0  0  0  0  0  0  0  0
   -1.1353   21.3076  -29.1662 H   0  0  0  0  0  0  0  0  0  0  0  0
   -1.6090   26.0420  -29.7560 H   0  0  0  0  0  0  0  0  0  0  0  0
   -2.6560   25.8640  -28.4590 H   0  0  0  0  0  0  0  0  0  0  0  0
  1  2  1  0
  2  3  1  0
  3  4  1  0
  4  5  2  0
  5  6  1  0
  6  7  1  0
  7  8  2  0
  8  9  1  0
  9 10  2  0
 10 11  1  0
 11 12  2  0
  6 13  2  0
 13 14  1  0
 14 15  2  0
 15 16  1  0
 16 17  1  0
 16 18  2  0
 16 19  2  0
 15  4  1  0
 12  7  1  0
  1 20  1  0
  1 21  1  0
  1 22  1  0
  2 23  1  0
  2 24  1  0
  8 25  1  0
  9 26  1  0
 10 27  1  0
 11 28  1  0
 12 29  1  0
 13 30  1  0
 14 31  1  0
 17 32  1  0
 17 33  1  0
M  END
>  <UniqueID>  (13) 
13

>  <SMILES>  (13) 
CCOc1nc(-c2ccccc2)ccc1S(N)(=O)=O

>  <Energy>  (13) 
32.29715175283618

>  <Genealogy>  (13) 
CCOc1nc(-c2ccccc2)ccc1S(N)(=O)=O (3D coordinates assigned)
CCOc1nc(-c2ccccc2)ccc1S(N)(=O)=O (optimized conformer: 32.29715175283618 kcal/mol)

>  <smiles>  (13) 
CCOc1nc(-c2ccccc2)ccc1S(N)(=O)=O

>  <score_type>  (13) 
oracle

>  <origin>  (13) 
adgpu

>  <m_score__min__energy>  (13) 
-8.2599999999999998

>  <m_primary>  (13) 
energy

$$$$
13:0
     RDKit          3D

 44 46  0  0  0  0  0  0  0  0999 V2000
   -4.2200   24.5800  -26.8200 C   0  0  0  0  0  0  0  0  0  0  0  0
   -2.8010   24.9240  -27.2160 C   0  0  0  0  0  0  0  0  0  0  0  0
   -2.2770   24.5390  -28.4750 C   0  0  0  0  0  0  0  0  0  0  0  0
   -3.1020   23.9040  -29.5280 C   0  0  0  0  0  0  0  0  0  0  0  0
   -4.2420   24.5560  -30.0220 C   0  0  0  0  0  0  0  0  0  0  0  0
   -5.0320   23.9490  -31.0030 C   0  0  0  0  0  0  0  0  0  0  0  0
   -4.7090   22.6760  -31.4880 C   0  0  0  0  0  0  0  0  0  0  0  0
   -5.5170   22.1100  -32.4840 O   0  0  0  0  0  0  0  0  0  0  0  0
   -6.8240   21.6350  -32.2980 C   0  0  0  0  0  0  0  0  0  0  0  0
   -7.8460   22.4510  -31.7780 C   0  0  0  0  0  0  0  0  0  0  0  0
   -9.1400   21.9440  -31.6230 C   0  0  0  0  0  0  0  0  0  0  0  0
   -9.4260   20.6280  -31.9950 C   0  0  0  0  0  0  0  0  0  0  0  0
   -8.4190   19.8190  -32.5290 C   0  0  0  0  0  0  0  0  0  0  0  0
   -7.1240   20.3230  -32.6860 C   0  0  0  0  0  0  0  0  0  0  0  0
   -3.5620   22.0250  -30.9990 C   0  0  0  0  0  0  0  0  0  0  0  0
   -2.7710   22.6310  -30.0190 C   0  0  0  0  0  0  0  0  0  0  0  0
   -0.9270   24.7840  -28.7480 C   0  0  0  0  0  0  0  0  0  0  0  0
   -0.1470   25.4250  -27.8460 N   0  0  0  0  0  0  0  0  0  0  0  0
   -0.6210   25.8670  -26.6510 C   0  0  0  0  0  0  0  0  0  0  0  0
    0.2780   26.5630  -25.7630 N   0  0  0  0  0  0  0  0  0  0  0  0
    0.8770   27.8490  -26.1320 C   0  0  0  0  0  0  0  0  0  0  0  0
    0.6550   25.9310  -24.4970 C   0  0  0  0  0  0  0  0  0  0  0  0
   -1.9660   25.6200  -26.3070 C   0  0  0  0  0  0  0  0  0  0  0  0
   -2.4420   26.0500  -25.0630 O   0  0  0  0  0  0  0  0  0  0  0  0
   -4.3001   24.5606  -25.7231 H   0  0  0  0  0  0  0  0  0  0  0  0
   -4.9074   25.3375  -27.2245 H   0  0  0  0  0  0  0  0  0  0  0  0
   -4.4842   23.5918  -27.2245 H   0  0  0  0  0  0  0  0  0  0  0  0
   -4.5154   25.5490  -29.6358 H   0  0  0  0  0  0  0  0  0  0  0  0
   -5.9139   24.4756  -31.3967 H   0  0  0  0  0  0  0  0  0  0  0  0
   -7.6263   23.4904  -31.4927 H   0  0  0  0  0  0  0  0  0  0  0  0
   -9.9338   22.5822  -31.2076 H   0  0  0  0  0  0  0  0  0  0  0  0
  -10.4431   20.2288  -31.8677 H   0  0  0  0  0  0  0  0  0  0  0  0
   -8.6455   18.7844  -32.8262 H   0  0  0  0  0  0  0  0  0  0  0  0
   -6.3372   19.6860  -33.1163 H   0  0  0  0  0  0  0  0  0  0  0  0
   -3.2863   21.0344  -31.3897 H   0  0  0  0  0  0  0  0  0  0  0  0
   -1.8847   22.1080  -29.6305 H   0  0  0  0  0  0  0  0  0  0  0  0
   -0.4954   24.4529  -29.7041 H   0  0  0  0  0  0  0  0  0  0  0  0
    1.1371   28.4073  -25.2206 H   0  0  0  0  0  0  0  0  0  0  0  0
    1.7859   27.6731  -26.7261 H   0  0  0  0  0  0  0  0  0  0  0  0
    0.1576   28.4316  -26.7261 H   0  0  0  0  0  0  0  0  0  0  0  0
    0.2901   26.5428  -23.6588 H   0  0  0  0  0  0  0  0  0  0  0  0
    0.2077   24.9276  -24.4406 H   0  0  0  0  0  0  0  0  0  0  0  0
    1.7504   25.8479  -24.4406 H   0  0  0  0  0  0  0  0  0  0  0  0
   -2.4340   27.0150  -24.7610 H   0  0  0  0  0  0  0  0  0  0  0  0
  1  2  1  0
  2  3  2  0
  3  4  1  0
  4  5  2  0
  5  6  1  0
  6  7  2  0
  7  8  1  0
  8  9  1  0
  9 10  2  0
 10 11  1  0
 11 12  2  0
 12 13  1  0
 13 14  2  0
  7 15  1  0
 15 16  2  0
  3 17  1  0
 17 18  2  0
 18 19  1  0
 19 20  1  0
 20 21  1  0
 20 22  1  0
 19 23  2  0
 23 24  1  0
 23  2  1  0
 16  4  1  0
 14  9  1  0
  1 25  1  0
  1 26  1  0
  1 27  1  0
  5 28  1  0
  6 29  1  0
 10 30  1  0
 11 31  1  0
 12 32  1  0
 13 33  1  0
 14 34  1  0
 15 35  1  0
 16 36  1  0
 17 37  1  0
 21 38  1  0
 21 39  1  0
 21 40  1  0
 22 41  1  0
 22 42  1  0
 22 43  1  0
 24 44  1  0
M  END
>  <UniqueID>  (14) 
14

>  <SMILES>  (14) 
Cc1c(-c2ccc(Oc3ccccc3)cc2)cnc(N(C)C)c1O

>  <Energy>  (14) 
65.84732027523991

>  <Genealogy>  (14) 
Cc1c(-c2ccc(Oc3ccccc3)cc2)cnc(N(C)C)c1O (3D coordinates assigned)
Cc1c(-c2ccc(Oc3ccccc3)cc2)cnc(N(C)C)c1O (optimized conformer: 65.84732027523991 kcal/mol)

>  <smiles>  (14) 
Cc1c(-c2ccc(Oc3ccccc3)cc2)cnc(N(C)C)c1O

>  <score_type>  (14) 
oracle

>  <origin>  (14) 
adgpu

>  <m_score__min__energy>  (14) 
-7.3499999999999996

>  <m_primary>  (14) 
energy

$$$$
14:0
     RDKit          3D

 35 36  0  0  1  0  0  0  0  0999 V2000
   -2.5510   20.1880  -33.7520 C   0  0  0  0  0  0  0  0  0  0  0  0
   -3.7270   20.8870  -33.4020 O   0  0  0  0  0  0  0  0  0  0  0  0
   -4.9290   20.2510  -33.1210 C   0  0  0  0  0  0  0  0  0  0  0  0
   -5.2570   19.0000  -33.5940 C   0  0  0  0  0  0  0  0  0  0  0  0
   -6.4560   18.3830  -33.3040 C   0  0  0  0  0  0  0  0  0  0  0  0
   -6.7920   17.0140  -33.8330 C   0  0  0  0  0  0  0  0  0  0  0  0
   -7.3820   19.0540  -32.4950 C   0  0  0  0  0  0  0  0  0  0  0  0
   -7.0750   20.3120  -32.0080 C   0  0  0  0  0  0  0  0  0  0  0  0
   -8.0910   20.9790  -31.1560 C   0  0  0  0  0  0  0  0  0  0  0  0
   -5.8620   20.9020  -32.3190 C   0  0  0  0  0  0  0  0  0  0  0  0
   -5.5760   22.1990  -31.8010 N   0  0  0  0  0  0  0  0  0  0  0  0
   -4.4970   22.3490  -31.1070 C   0  0  0  0  0  0  0  0  0  0  0  0
   -3.6350   21.3470  -30.8530 N   0  0  0  0  0  0  0  0  0  0  0  0
   -2.5220   21.5480  -30.1260 C   0  0  0  0  0  0  0  0  0  0  0  0
   -2.2100   22.7660  -29.6130 N   0  0  0  0  0  0  0  0  0  0  0  0
   -3.0650   23.7900  -29.8570 C   0  0  0  0  0  0  0  0  0  0  0  0
   -2.7230   25.0700  -29.3090 N   0  0  0  0  0  0  0  0  0  0  0  0
   -4.2140   23.6140  -30.6000 C   0  0  0  0  0  0  0  0  0  0  0  0
   -5.0730   24.7300  -30.8220 C   0  0  0  0  0  0  0  0  0  0  0  0
   -5.7790   25.6450  -31.0230 N   0  0  0  0  0  0  0  0  0  0  0  0
   -2.0247   19.8752  -32.8381 H   0  0  0  0  0  0  0  0  0  0  0  0
   -2.8150   19.3001  -34.3452 H   0  0  0  0  0  0  0  0  0  0  0  0
   -1.8972   20.8442  -34.3452 H   0  0  0  0  0  0  0  0  0  0  0  0
   -4.5323   18.4705  -34.2299 H   0  0  0  0  0  0  0  0  0  0  0  0
   -6.9607   16.3267  -32.9909 H   0  0  0  0  0  0  0  0  0  0  0  0
   -7.7027   17.0716  -34.4473 H   0  0  0  0  0  0  0  0  0  0  0  0
   -5.9581   16.6435  -34.4473 H   0  0  0  0  0  0  0  0  0  0  0  0
   -8.3458   18.5843  -32.2488 H   0  0  0  0  0  0  0  0  0  0  0  0
   -7.8443   20.8171  -30.0963 H   0  0  0  0  0  0  0  0  0  0  0  0
   -8.0979   22.0579  -31.3701 H   0  0  0  0  0  0  0  0  0  0  0  0
   -9.0837   20.5563  -31.3701 H   0  0  0  0  0  0  0  0  0  0  0  0
   -3.8750   20.4130  -31.2480 H   0  0  0  0  0  0  0  0  0  0  0  0
   -1.8445   20.7013  -29.9414 H   0  0  0  0  0  0  0  0  0  0  0  0
   -1.9900   25.6740  -29.7390 H   0  0  0  0  0  0  0  0  0  0  0  0
   -3.2570   25.3630  -28.4450 H   0  0  0  0  0  0  0  0  0  0  0  0
  1  2  1  0
  2  3  1  0
  3  4  2  0
  4  5  1  0
  5  6  1  0
  5  7  2  0
  7  8  1  0
  8  9  1  0
  8 10  2  0
 10 11  1  0
 11 12  2  0
 12 13  1  0
 13 14  1  0
 14 15  2  0
 15 16  1  0
 16 17  1  0
 16 18  2  0
 18 19  1  0
 19 20  3  0
 10  3  1  0
 18 12  1  0
  1 21  1  0
  1 22  1  0
  1 23  1  0
  4 24  1  0
  6 25  1  0
  6 26  1  0
  6 27  1  0
  7 28  1  0
  9 29  1  0
  9 30  1  0
  9 31  1  0
 13 32  1  0
 14 33  1  0
 17 34  1  0
 17 35  1  0
M  END
>  <smiles>  (15) 
COc1cc(C)cc(C)c1N=c1[nH]cnc(N)c1C#N

>  <score_type>  (15) 
oracle

>  <origin>  (15) 
adgpu

>  <m_score__min__energy>  (15) 
-7.0199999999999996

>  <m_primary>  (15) 
energy

$$$$
15:0
     RDKit          3D

 47 49  0  0  0  0  0  0  0  0999 V2000
   -3.6800   24.5350  -26.9950 C   0  0  0  0  0  0  0  0  0  0  0  0
   -2.7930   23.5830  -27.7460 C   0  0  0  0  0  0  0  0  0  0  0  0
   -2.2450   22.4690  -27.0890 C   0  0  0  0  0  0  0  0  0  0  0  0
   -1.4290   21.5690  -27.7800 C   0  0  0  0  0  0  0  0  0  0  0  0
   -1.1440   21.7790  -29.1310 C   0  0  0  0  0  0  0  0  0  0  0  0
   -0.1060   20.6580  -29.9930 Cl  0  0  0  0  0  0  0  0  0  0  0  0
   -1.6830   22.8840  -29.7960 C   0  0  0  0  0  0  0  0  0  0  0  0
   -2.5290   23.7800  -29.1170 C   0  0  0  0  0  0  0  0  0  0  0  0
   -3.0890   24.9200  -29.7900 N   0  0  0  0  0  0  0  0  0  0  0  0
   -4.3060   24.9400  -30.5490 C   0  0  0  0  0  0  0  0  0  0  0  0
   -4.8800   26.0440  -30.7390 O   0  0  0  0  0  0  0  0  0  0  0  0
   -4.9390   23.6910  -31.0360 C   0  0  0  0  0  0  0  0  0  0  0  0
   -4.1750   22.7600  -31.7520 C   0  0  0  0  0  0  0  0  0  0  0  0
   -4.7380   21.6130  -32.2060 N   0  0  0  0  0  0  0  0  0  0  0  0
   -6.0480   21.3300  -31.9800 C   0  0  0  0  0  0  0  0  0  0  0  0
   -6.6230   20.1040  -32.4800 N   0  0  0  0  0  0  0  0  0  0  0  0
   -7.5940   19.3770  -31.6530 C   0  0  0  0  0  0  0  0  0  0  0  0
   -7.9950   18.0470  -32.3070 C   0  0  0  0  0  0  0  0  0  0  0  0
   -6.8270   17.3480  -32.8870 N   0  0  0  0  0  0  0  0  0  0  0  0
   -5.8880   16.9020  -31.8380 C   0  0  0  0  0  0  0  0  0  0  0  0
   -6.1330   18.1470  -33.9360 C   0  0  0  0  0  0  0  0  0  0  0  0
   -6.4000   19.6660  -33.8630 C   0  0  0  0  0  0  0  0  0  0  0  0
   -6.8090   22.2180  -31.2850 N   0  0  0  0  0  0  0  0  0  0  0  0
   -6.2990   23.3860  -30.8100 C   0  0  0  0  0  0  0  0  0  0  0  0
   -7.2170   24.3170  -30.0750 C   0  0  0  0  0  0  0  0  0  0  0  0
   -3.5431   24.3880  -25.9135 H   0  0  0  0  0  0  0  0  0  0  0  0
   -3.4161   25.5693  -27.2608 H   0  0  0  0  0  0  0  0  0  0  0  0
   -4.7303   24.3447  -27.2608 H   0  0  0  0  0  0  0  0  0  0  0  0
   -2.4596   22.3037  -26.0229 H   0  0  0  0  0  0  0  0  0  0  0  0
   -1.0110   20.6947  -27.2595 H   0  0  0  0  0  0  0  0  0  0  0  0
   -1.4444   23.0541  -30.8563 H   0  0  0  0  0  0  0  0  0  0  0  0
   -3.1113   22.9609  -31.9472 H   0  0  0  0  0  0  0  0  0  0  0  0
   -7.1457   19.1724  -30.6696 H   0  0  0  0  0  0  0  0  0  0  0  0
   -8.4953   19.9985  -31.5467 H   0  0  0  0  0  0  0  0  0  0  0  0
   -8.4557   17.4001  -31.5458 H   0  0  0  0  0  0  0  0  0  0  0  0
   -8.7029   18.2646  -33.1203 H   0  0  0  0  0  0  0  0  0  0  0  0
   -7.1940   16.4770  -33.3420 H   0  0  0  0  0  0  0  0  0  0  0  0
   -6.3203   17.1073  -30.8476 H   0  0  0  0  0  0  0  0  0  0  0  0
   -5.7075   15.8220  -31.9426 H   0  0  0  0  0  0  0  0  0  0  0  0
   -4.9368   17.4445  -31.9426 H   0  0  0  0  0  0  0  0  0  0  0  0
   -5.0502   17.9829  -33.8331 H   0  0  0  0  0  0  0  0  0  0  0  0
   -6.5290   17.8052  -34.9037 H   0  0  0  0  0  0  0  0  0  0  0  0
   -5.5314   20.2023  -34.2727 H   0  0  0  0  0  0  0  0  0  0  0  0
   -7.3057   19.8871  -34.4468 H   0  0  0  0  0  0  0  0  0  0  0  0
   -7.0846   24.1827  -28.9913 H   0  0  0  0  0  0  0  0  0  0  0  0
   -6.9803   25.3561  -30.3473 H   0  0  0  0  0  0  0  0  0  0  0  0
   -8.2594   24.0949  -30.3473 H   0  0  0  0  0  0  0  0  0  0  0  0
  1  2  1  0
  2  3  2  0
  3  4  1  0
  4  5  2  0
  5  6  1  0
  5  7  1  0
  7  8  2  0
  8  9  1  0
  9 10  1  0
 10 11  2  0
 10 12  1  0
 12 13  2  0
 13 14  1  0
 14 15  2  0
 15 16  1  0
 16 17  1  0
 17 18  1  0
 18 19  1  0
 19 20  1  0
 19 21  1  0
 21 22  1  0
 15 23  1  0
 23 24  2  0
 24 25  1  0
  8  2  1  0
 24 12  1  0
 22 16  1  0
  1 26  1  0
  1 27  1  0
  1 28  1  0
  3 29  1  0
  4 30  1  0
  7 31  1  0
 13 32  1  0
 17 33  1  0
 17 34  1  0
 18 35  1  0
 18 36  1  0
 19 37  1  0
 20 38  1  0
 20 39  1  0
 20 40  1  0
 21 41  1  0
 21 42  1  0
 22 43  1  0
 22 44  1  0
 25 45  1  0
 25 46  1  0
 25 47  1  0
M  CHG  2   9  -1  19   1
M  END
>  <UniqueID>  (16) 
15

>  <SMILES>  (16) 
Cc1ccc(Cl)cc1[N-]C(=O)c1cnc(N2CC[NH+](C)CC2)nc1C

>  <Energy>  (16) 
64.38478214366563

>  <Genealogy>  (16) 
Cc1ccc(Cl)cc1[N-]C(=O)c1cnc(N2CC[NH+](C)CC2)nc1C (protonated)
Cc1ccc(Cl)cc1[N-]C(=O)c1cnc(N2CC[NH+](C)CC2)nc1C (3D coordinates assigned)
Cc1ccc(Cl)cc1[N-]C(=O)c1cnc(N2CC[NH+](C)CC2)nc1C (nonaromatic ring conformer: 64.38478214366563 kcal/mol)

>  <smiles>  (16) 
Cc1ccc(Cl)cc1NC(=O)c1cnc(N2CCN(C)CC2)nc1C

>  <score_type>  (16) 
oracle

>  <origin>  (16) 
adgpu

>  <m_score__min__energy>  (16) 
-9.6400000000000006

>  <m_primary>  (16) 
energy

$$$$
16:0
     RDKit          3D

 20 20  0  0  0  0  0  0  0  0999 V2000
   -1.2030   25.9840  -27.8080 C   0  0  0  0  0  0  0  0  0  0  0  0
   -1.9740   25.6740  -28.9660 O   0  0  0  0  0  0  0  0  0  0  0  0
   -2.4150   24.3890  -29.3180 C   0  0  0  0  0  0  0  0  0  0  0  0
   -1.8010   23.2400  -28.7750 C   0  0  0  0  0  0  0  0  0  0  0  0
   -2.2410   21.9650  -29.1270 C   0  0  0  0  0  0  0  0  0  0  0  0
   -3.2960   21.8120  -30.0220 C   0  0  0  0  0  0  0  0  0  0  0  0
   -3.9180   22.9350  -30.5720 C   0  0  0  0  0  0  0  0  0  0  0  0
   -5.3650   22.6750  -31.8000 Br  0  0  0  0  0  0  0  0  0  0  0  0
   -3.4920   24.2310  -30.2320 C   0  0  0  0  0  0  0  0  0  0  0  0
   -4.1730   25.3070  -30.8310 O   0  0  0  0  0  0  0  0  0  0  0  0
   -5.4680   25.7890  -30.4880 C   0  0  0  0  0  0  0  0  0  0  0  0
   -1.7864   25.7494  -26.9055 H   0  0  0  0  0  0  0  0  0  0  0  0
   -0.2787   25.3876  -27.8124 H   0  0  0  0  0  0  0  0  0  0  0  0
   -0.9488   27.0542  -27.8124 H   0  0  0  0  0  0  0  0  0  0  0  0
   -0.9667   23.3518  -28.0668 H   0  0  0  0  0  0  0  0  0  0  0  0
   -1.7534   21.0779  -28.6966 H   0  0  0  0  0  0  0  0  0  0  0  0
   -3.6407   20.8042  -30.2968 H   0  0  0  0  0  0  0  0  0  0  0  0
   -5.5674   25.8260  -29.3931 H   0  0  0  0  0  0  0  0  0  0  0  0
   -5.6053   26.7984  -30.9029 H   0  0  0  0  0  0  0  0  0  0  0  0
   -6.2319   25.1150  -30.9029 H   0  0  0  0  0  0  0  0  0  0  0  0
  1  2  1  0
  2  3  1  0
  3  4  2  0
  4  5  1  0
  5  6  2  0
  6  7  1  0
  7  8  1  0
  7  9  2  0
  9 10  1  0
 10 11  1  0
  9  3  1  0
  1 12  1  0
  1 13  1  0
  1 14  1  0
  4 15  1  0
  5 16  1  0
  6 17  1  0
 11 18  1  0
 11 19  1  0
 11 20  1  0
M  END
>  <UniqueID>  (17) 
16

>  <SMILES>  (17) 
COc1cccc(Br)c1OC

>  <Energy>  (17) 
20.44108955340386

>  <Genealogy>  (17) 
COc1cccc(Br)c1OC (3D coordinates assigned)
COc1cccc(Br)c1OC (optimized conformer: 20.44108955340386 kcal/mol)

>  <smiles>  (17) 
COc1cccc(Br)c1OC

>  <score_type>  (17) 
oracle

>  <origin>  (17) 
adgpu

>  <m_score__min__energy>  (17) 
-5.5099999999999998

>  <m_primary>  (17) 
energy

$$$$
17:0
     RDKit          3D

 36 37  0  0  0  0  0  0  0  0999 V2000
   -5.6890   25.8880  -30.1210 C   0  0  0  0  0  0  0  0  0  0  0  0
   -5.1540   25.2240  -31.3130 N   0  0  0  0  0  0  0  0  0  0  0  0
   -4.9400   23.7870  -31.0890 C   0  0  0  0  0  0  0  0  0  0  0  0
   -6.1210   22.9580  -31.5350 C   0  0  0  0  0  0  0  0  0  0  0  0
   -7.4210   23.4880  -31.4890 C   0  0  0  0  0  0  0  0  0  0  0  0
   -8.5130   22.7070  -31.8750 C   0  0  0  0  0  0  0  0  0  0  0  0
   -8.3180   21.3940  -32.3120 C   0  0  0  0  0  0  0  0  0  0  0  0
   -7.0240   20.8530  -32.3710 C   0  0  0  0  0  0  0  0  0  0  0  0
   -6.8240   19.4570  -32.8210 C   0  0  0  0  0  0  0  0  0  0  0  0
   -5.8420   19.1980  -33.7930 C   0  0  0  0  0  0  0  0  0  0  0  0
   -5.6370   17.9010  -34.2790 C   0  0  0  0  0  0  0  0  0  0  0  0
   -4.5660   17.6340  -35.2950 C   0  0  0  0  0  0  0  0  0  0  0  0
   -6.4010   16.8450  -33.7660 C   0  0  0  0  0  0  0  0  0  0  0  0
   -7.3710   17.0850  -32.7910 C   0  0  0  0  0  0  0  0  0  0  0  0
   -7.5830   18.3820  -32.2960 C   0  0  0  0  0  0  0  0  0  0  0  0
   -8.6260   18.5910  -31.2290 C   0  0  0  0  0  0  0  0  0  0  0  0
   -5.9310   21.6360  -31.9690 C   0  0  0  0  0  0  0  0  0  0  0  0
   -5.2936   25.3973  -29.2194 H   0  0  0  0  0  0  0  0  0  0  0  0
   -5.3881   26.9460  -30.1245 H   0  0  0  0  0  0  0  0  0  0  0  0
   -6.7868   25.8190  -30.1245 H   0  0  0  0  0  0  0  0  0  0  0  0
   -4.2460   25.6790  -31.5690 H   0  0  0  0  0  0  0  0  0  0  0  0
   -4.0508   23.4691  -31.6531 H   0  0  0  0  0  0  0  0  0  0  0  0
   -4.8059   23.6299  -30.0086 H   0  0  0  0  0  0  0  0  0  0  0  0
   -7.5797   24.5216  -31.1478 H   0  0  0  0  0  0  0  0  0  0  0  0
   -9.5290   23.1266  -31.8349 H   0  0  0  0  0  0  0  0  0  0  0  0
   -9.1818   20.7821  -32.6109 H   0  0  0  0  0  0  0  0  0  0  0  0
   -5.2266   20.0251  -34.1768 H   0  0  0  0  0  0  0  0  0  0  0  0
   -3.6227   17.3988  -34.7803 H   0  0  0  0  0  0  0  0  0  0  0  0
   -4.8622   16.7822  -35.9248 H   0  0  0  0  0  0  0  0  0  0  0  0
   -4.4277   18.5252  -35.9248 H   0  0  0  0  0  0  0  0  0  0  0  0
   -6.2359   15.8213  -34.1332 H   0  0  0  0  0  0  0  0  0  0  0  0
   -7.9752   16.2499  -32.4067 H   0  0  0  0  0  0  0  0  0  0  0  0
   -8.1597   18.4976  -30.2371 H   0  0  0  0  0  0  0  0  0  0  0  0
   -9.0634   19.5947  -31.3354 H   0  0  0  0  0  0  0  0  0  0  0  0
   -9.4164   17.8334  -31.3354 H   0  0  0  0  0  0  0  0  0  0  0  0
   -4.9169   21.2107  -31.9941 H   0  0  0  0  0  0  0  0  0  0  0  0
  1  2  1  0
  2  3  1  0
  3  4  1  0
  4  5  2  0
  5  6  1  0
  6  7  2  0
  7  8  1  0
  8  9  1  0
  9 10  2  0
 10 11  1  0
 11 12  1  0
 11 13  2  0
 13 14  1  0
 14 15  2  0
 15 16  1  0
  8 17  2  0
 17  4  1  0
 15  9  1  0
  1 18  1  0
  1 19  1  0
  1 20  1  0
  2 21  1  0
  3 22  1  0
  3 23  1  0
  5 24  1  0
  6 25  1  0
  7 26  1  0
 10 27  1  0
 12 28  1  0
 12 29  1  0
 12 30  1  0
 13 31  1  0
 14 32  1  0
 16 33  1  0
 16 34  1  0
 16 35  1  0
 17 36  1  0
M  END
>  <UniqueID>  (18) 
17

>  <SMILES>  (18) 
CNCc1cccc(-c2cc(C)ccc2C)c1

>  <Energy>  (18) 
41.2938505118902

>  <Genealogy>  (18) 
CNCc1cccc(-c2cc(C)ccc2C)c1 (3D coordinates assigned)
CNCc1cccc(-c2cc(C)ccc2C)c1 (optimized conformer: 41.2938505118902 kcal/mol)

>  <smiles>  (18) 
CNCc1cccc(-c2cc(C)ccc2C)c1

>  <score_type>  (18) 
oracle

>  <origin>  (18) 
adgpu

>  <m_score__min__energy>  (18) 
-8.0399999999999991

>  <m_primary>  (18) 
energy

$$$$
18:0
     RDKit          3D

 32 33  0  0  0  0  0  0  0  0999 V2000
   -2.1650   24.9240  -28.7220 C   0  0  0  0  0  0  0  0  0  0  0  0
   -3.1200   25.2820  -29.7150 O   0  0  0  0  0  0  0  0  0  0  0  0
   -4.1830   24.4640  -30.1250 C   0  0  0  0  0  0  0  0  0  0  0  0
   -5.5270   24.8210  -29.9300 C   0  0  0  0  0  0  0  0  0  0  0  0
   -6.5490   23.9750  -30.3610 C   0  0  0  0  0  0  0  0  0  0  0  0
   -6.2550   22.7620  -31.0020 C   0  0  0  0  0  0  0  0  0  0  0  0
   -7.3730   21.9010  -31.4510 C   0  0  0  0  0  0  0  0  0  0  0  0
   -8.6770   22.4050  -31.5880 C   0  0  0  0  0  0  0  0  0  0  0  0
   -9.7050   21.5530  -31.9940 C   0  0  0  0  0  0  0  0  0  0  0  0
   -9.4350   20.2090  -32.2500 C   0  0  0  0  0  0  0  0  0  0  0  0
   -8.1290   19.7300  -32.0920 C   0  0  0  0  0  0  0  0  0  0  0  0
   -7.8160   18.2890  -32.3390 C   0  0  0  0  0  0  0  0  0  0  0  0
   -7.1430   20.5790  -31.6930 N   0  0  0  0  0  0  0  0  0  0  0  0
   -4.9070   22.3800  -31.1780 C   0  0  0  0  0  0  0  0  0  0  0  0
   -4.6160   21.1340  -31.7590 O   0  0  0  0  0  0  0  0  0  0  0  0
   -4.2040   20.9420  -33.1090 C   0  0  0  0  0  0  0  0  0  0  0  0
   -3.8820   23.2470  -30.7460 C   0  0  0  0  0  0  0  0  0  0  0  0
   -2.5964   25.0857  -27.7232 H   0  0  0  0  0  0  0  0  0  0  0  0
   -1.8955   23.8638  -28.8377 H   0  0  0  0  0  0  0  0  0  0  0  0
   -1.2650   25.5458  -28.8377 H   0  0  0  0  0  0  0  0  0  0  0  0
   -5.7750   25.7717  -29.4353 H   0  0  0  0  0  0  0  0  0  0  0  0
   -7.5980   24.2623  -30.1964 H   0  0  0  0  0  0  0  0  0  0  0  0
   -8.8864   23.4640  -31.3767 H   0  0  0  0  0  0  0  0  0  0  0  0
  -10.7274   21.9412  -32.1120 H   0  0  0  0  0  0  0  0  0  0  0  0
  -10.2399   19.5322  -32.5727 H   0  0  0  0  0  0  0  0  0  0  0  0
   -7.7029   17.7682  -31.3767 H   0  0  0  0  0  0  0  0  0  0  0  0
   -8.6351   17.8287  -32.9110 H   0  0  0  0  0  0  0  0  0  0  0  0
   -6.8797   18.2100  -32.9110 H   0  0  0  0  0  0  0  0  0  0  0  0
   -3.2071   20.4774  -33.1256 H   0  0  0  0  0  0  0  0  0  0  0  0
   -4.9228   20.2861  -33.6220 H   0  0  0  0  0  0  0  0  0  0  0  0
   -4.1640   21.9142  -33.6220 H   0  0  0  0  0  0  0  0  0  0  0  0
   -2.8306   22.9623  -30.8995 H   0  0  0  0  0  0  0  0  0  0  0  0
  1  2  1  0
  2  3  1  0
  3  4  2  0
  4  5  1  0
  5  6  2  0
  6  7  1  0
  7  8  2  0
  8  9  1  0
  9 10  2  0
 10 11  1  0
 11 12  1  0
 11 13  2  0
  6 14  1  0
 14 15  1  0
 15 16  1  0
 14 17  2  0
 17  3  1  0
 13  7  1  0
  1 18  1  0
  1 19  1  0
  1 20  1  0
  4 21  1  0
  5 22  1  0
  8 23  1  0
  9 24  1  0
 10 25  1  0
 12 26  1  0
 12 27  1  0
 12 28  1  0
 16 29  1  0
 16 30  1  0
 16 31  1  0
 17 32  1  0
M  END
>  <UniqueID>  (19) 
18

>  <SMILES>  (19) 
COc1ccc(-c2cccc(C)n2)c(OC)c1

>  <Energy>  (19) 
36.17123093575495

>  <Genealogy>  (19) 
COc1ccc(-c2cccc(C)n2)c(OC)c1 (3D coordinates assigned)
COc1ccc(-c2cccc(C)n2)c(OC)c1 (optimized conformer: 36.17123093575495 kcal/mol)

>  <smiles>  (19) 
COc1ccc(-c2cccc(C)n2)c(OC)c1

>  <score_type>  (19) 
oracle

>  <origin>  (19) 
adgpu

>  <m_score__min__energy>  (19) 
-6.9100000000000001

>  <m_primary>  (19) 
energy

$$$$
19:0
     RDKit          3D

 50 53  0  0  0  0  0  0  0  0999 V2000
   -3.3450   21.3070  -33.0660 O   0  0  0  0  0  0  0  0  0  0  0  0
   -3.2380   22.0420  -32.0450 C   0  0  0  0  0  0  0  0  0  0  0  0
   -1.9990   22.0800  -31.3180 N   0  0  0  0  0  0  0  0  0  0  0  0
   -0.8660   21.2610  -31.6480 C   0  0  0  0  0  0  0  0  0  0  0  0
   -0.3850   21.1960  -32.9670 C   0  0  0  0  0  0  0  0  0  0  0  0
    0.6470   20.3690  -33.2810 N   0  0  0  0  0  0  0  0  0  0  0  0
    1.2410   19.5810  -32.3470 C   0  0  0  0  0  0  0  0  0  0  0  0
    0.7920   19.6000  -31.0270 C   0  0  0  0  0  0  0  0  0  0  0  0
   -0.2680   20.4450  -30.6690 C   0  0  0  0  0  0  0  0  0  0  0  0
   -0.7120   20.4960  -29.3040 N   0  0  0  0  0  0  0  0  0  0  0  0
   -0.9090   21.7930  -28.6450 C   0  0  0  0  0  0  0  0  0  0  0  0
   -2.2420   21.8300  -27.8750 C   0  0  0  0  0  0  0  0  0  0  0  0
   -2.6630   20.4630  -27.2970 C   0  0  0  0  0  0  0  0  0  0  0  0
   -1.4840   19.4930  -27.1690 C   0  0  0  0  0  0  0  0  0  0  0  0
   -0.8510   19.2460  -28.5440 C   0  0  0  0  0  0  0  0  0  0  0  0
   -4.3860   22.8650  -31.5930 C   0  0  0  0  0  0  0  0  0  0  0  0
   -4.1280   23.9720  -30.8420 N   0  0  0  0  0  0  0  0  0  0  0  0
   -5.1130   24.7670  -30.3500 C   0  0  0  0  0  0  0  0  0  0  0  0
   -6.4470   24.4630  -30.6050 C   0  0  0  0  0  0  0  0  0  0  0  0
   -6.7550   23.3450  -31.3750 C   0  0  0  0  0  0  0  0  0  0  0  0
   -5.7310   22.5250  -31.8780 C   0  0  0  0  0  0  0  0  0  0  0  0
   -6.0610   21.4260  -32.7440 N   0  0  0  0  0  0  0  0  0  0  0  0
   -7.1180   20.4860  -32.4770 C   0  0  0  0  0  0  0  0  0  0  0  0
   -8.4550   20.8940  -32.3290 C   0  0  0  0  0  0  0  0  0  0  0  0
   -9.4480   19.9520  -32.0540 C   0  0  0  0  0  0  0  0  0  0  0  0
   -9.0970   18.6080  -31.9170 C   0  0  0  0  0  0  0  0  0  0  0  0
   -7.7980   18.2270  -32.0460 N   0  0  0  0  0  0  0  0  0  0  0  0
   -6.8130   19.1250  -32.3150 C   0  0  0  0  0  0  0  0  0  0  0  0
   -1.8690   22.8210  -30.5940 H   0  0  0  0  0  0  0  0  0  0  0  0
   -0.8459   21.8174  -33.7490 H   0  0  0  0  0  0  0  0  0  0  0  0
    2.0778   18.9267  -32.6327 H   0  0  0  0  0  0  0  0  0  0  0  0
    1.2663   18.9563  -30.2716 H   0  0  0  0  0  0  0  0  0  0  0  0
   -0.0826   21.9664  -27.9401 H   0  0  0  0  0  0  0  0  0  0  0  0
   -0.9311   22.5761  -29.4172 H   0  0  0  0  0  0  0  0  0  0  0  0
   -2.1428   22.5430  -27.0432 H   0  0  0  0  0  0  0  0  0  0  0  0
   -3.0198   22.1284  -28.5934 H   0  0  0  0  0  0  0  0  0  0  0  0
   -3.1000   20.6208  -26.3000 H   0  0  0  0  0  0  0  0  0  0  0  0
   -3.3903   20.0160  -27.9907 H   0  0  0  0  0  0  0  0  0  0  0  0
   -0.7301   19.9242  -26.4939 H   0  0  0  0  0  0  0  0  0  0  0  0
   -1.8474   18.5371  -26.7638 H   0  0  0  0  0  0  0  0  0  0  0  0
    0.1447   18.7997  -28.4044 H   0  0  0  0  0  0  0  0  0  0  0  0
   -1.5073   18.5685  -29.1100 H   0  0  0  0  0  0  0  0  0  0  0  0
   -4.8562   25.6521  -29.7494 H   0  0  0  0  0  0  0  0  0  0  0  0
   -7.2491   25.0992  -30.2025 H   0  0  0  0  0  0  0  0  0  0  0  0
   -7.8059   23.1022  -31.5909 H   0  0  0  0  0  0  0  0  0  0  0  0
   -5.5290   21.3380  -33.6390 H   0  0  0  0  0  0  0  0  0  0  0  0
   -8.7192   21.9570  -32.4300 H   0  0  0  0  0  0  0  0  0  0  0  0
  -10.4968   20.2659  -31.9463 H   0  0  0  0  0  0  0  0  0  0  0  0
   -9.8717   17.8565  -31.7045 H   0  0  0  0  0  0  0  0  0  0  0  0
   -5.7714   18.7833  -32.4062 H   0  0  0  0  0  0  0  0  0  0  0  0
  1  2  2  0
  2  3  1  0
  3  4  1  0
  4  5  2  0
  5  6  1  0
  6  7  2  0
  7  8  1  0
  8  9  2  0
  9 10  1  0
 10 11  1  0
 11 12  1  0
 12 13  1  0
 13 14  1  0
 14 15  1  0
  2 16  1  0
 16 17  2  0
 17 18  1  0
 18 19  2  0
 19 20  1  0
 20 21  2  0
 21 22  1  0
 22 23  1  0
 23 24  2  0
 24 25  1  0
 25 26  2  0
 26 27  1  0
 27 28  2  0
  9  4  1  0
 15 10  1  0
 21 16  1  0
 28 23  1  0
  3 29  1  0
  5 30  1  0
  7 31  1  0
  8 32  1  0
 11 33  1  0
 11 34  1  0
 12 35  1  0
 12 36  1  0
 13 37  1  0
 13 38  1  0
 14 39  1  0
 14 40  1  0
 15 41  1  0
 15 42  1  0
 18 43  1  0
 19 44  1  0
 20 45  1  0
 22 46  1  0
 24 47  1  0
 25 48  1  0
 26 49  1  0
 28 50  1  0
M  END
>  <UniqueID>  (20) 
19

>  <SMILES>  (20) 
O=C(Nc1cnccc1N1CCCCC1)c1ncccc1Nc1cccnc1

>  <Energy>  (20) 
73.10288161188676

>  <Genealogy>  (20) 
O=C(Nc1cnccc1N1CCCCC1)c1ncccc1Nc1cccnc1 (3D coordinates assigned)
O=C(Nc1cnccc1N1CCCCC1)c1ncccc1Nc1cccnc1 (nonaromatic ring conformer: 73.10288161188676 kcal/mol)

>  <smiles>  (20) 
O=C(Nc1cnccc1N1CCCCC1)c1ncccc1Nc1cccnc1

>  <score_type>  (20) 
oracle

>  <origin>  (20) 
adgpu

>  <m_score__min__energy>  (20) 
-8.6600000000000001

>  <m_primary>  (20) 
energy

$$$$
20:0
     RDKit          3D

 32 34  0  0  0  0  0  0  0  0999 V2000
   -9.6760   21.6630  -30.8590 C   0  0  0  0  0  0  0  0  0  0  0  0
   -8.2620   21.6560  -31.3620 C   0  0  0  0  0  0  0  0  0  0  0  0
   -7.8910   20.8000  -32.4090 C   0  0  0  0  0  0  0  0  0  0  0  0
   -6.5820   20.8150  -32.9060 C   0  0  0  0  0  0  0  0  0  0  0  0
   -6.2070   19.9340  -33.9680 N   0  0  0  0  0  0  0  0  0  0  0  0
   -5.6420   21.7010  -32.3620 C   0  0  0  0  0  0  0  0  0  0  0  0
   -6.0040   22.5780  -31.3250 C   0  0  0  0  0  0  0  0  0  0  0  0
   -5.0120   23.5180  -30.7580 C   0  0  0  0  0  0  0  0  0  0  0  0
   -4.8180   24.7700  -31.2140 N   0  0  0  0  0  0  0  0  0  0  0  0
   -3.8650   25.3020  -30.4700 N   0  0  0  0  0  0  0  0  0  0  0  0
   -3.4990   24.3630  -29.5780 C   0  0  0  0  0  0  0  0  0  0  0  0
   -2.4500   24.5600  -28.5550 C   0  0  0  0  0  0  0  0  0  0  0  0
   -1.0900   24.4820  -28.9040 C   0  0  0  0  0  0  0  0  0  0  0  0
   -0.0990   24.6670  -27.9340 C   0  0  0  0  0  0  0  0  0  0  0  0
   -0.4560   24.9330  -26.6100 C   0  0  0  0  0  0  0  0  0  0  0  0
   -1.8040   25.0130  -26.2520 C   0  0  0  0  0  0  0  0  0  0  0  0
   -2.7990   24.8270  -27.2180 C   0  0  0  0  0  0  0  0  0  0  0  0
   -4.2000   23.2200  -29.7250 N   0  0  0  0  0  0  0  0  0  0  0  0
   -7.3210   22.5520  -30.8340 C   0  0  0  0  0  0  0  0  0  0  0  0
   -9.6739   21.6630  -29.7590 H   0  0  0  0  0  0  0  0  0  0  0  0
  -10.1908   22.5637  -31.2247 H   0  0  0  0  0  0  0  0  0  0  0  0
  -10.1997   20.7674  -31.2247 H   0  0  0  0  0  0  0  0  0  0  0  0
   -8.6326   20.1128  -32.8423 H   0  0  0  0  0  0  0  0  0  0  0  0
   -5.2430   19.5360  -34.0190 H   0  0  0  0  0  0  0  0  0  0  0  0
   -6.8910   19.6740  -34.7140 H   0  0  0  0  0  0  0  0  0  0  0  0
   -4.6127   21.7101  -32.7498 H   0  0  0  0  0  0  0  0  0  0  0  0
   -0.8037   24.2743  -29.9456 H   0  0  0  0  0  0  0  0  0  0  0  0
    0.9627   24.6029  -28.2143 H   0  0  0  0  0  0  0  0  0  0  0  0
    0.3246   25.0795  -25.8489 H   0  0  0  0  0  0  0  0  0  0  0  0
   -2.0836   25.2226  -25.2090 H   0  0  0  0  0  0  0  0  0  0  0  0
   -3.8591   24.8898  -26.9311 H   0  0  0  0  0  0  0  0  0  0  0  0
   -7.6161   23.2405  -30.0285 H   0  0  0  0  0  0  0  0  0  0  0  0
  1  2  1  0
  2  3  2  0
  3  4  1  0
  4  5  1  0
  4  6  2  0
  6  7  1  0
  7  8  1  0
  8  9  2  0
  9 10  1  0
 10 11  1  0
 11 12  1  0
 12 13  2  0
 13 14  1  0
 14 15  2  0
 15 16  1  0
 16 17  2  0
 11 18  2  0
  7 19  2  0
 19  2  1  0
 18  8  1  0
 17 12  1  0
  1 20  1  0
  1 21  1  0
  1 22  1  0
  3 23  1  0
  5 24  1  0
  5 25  1  0
  6 26  1  0
 13 27  1  0
 14 28  1  0
 15 29  1  0
 16 30  1  0
 17 31  1  0
 19 32  1  0
M  CHG  1  10  -1
M  END
>  <UniqueID>  (21) 
20

>  <SMILES>  (21) 
Cc1cc(N)cc(-c2n[n-]c(-c3ccccc3)n2)c1

>  <Energy>  (21) 
65.72283839321106

>  <Genealogy>  (21) 
Cc1cc(N)cc(-c2n[n-]c(-c3ccccc3)n2)c1 (protonated)
Cc1cc(N)cc(-c2n[n-]c(-c3ccccc3)n2)c1 (3D coordinates assigned)
Cc1cc(N)cc(-c2n[n-]c(-c3ccccc3)n2)c1 (optimized conformer: 65.72283839321106 kcal/mol)

>  <smiles>  (21) 
Cc1cc(N)cc(-c2n[nH]c(-c3ccccc3)n2)c1

>  <score_type>  (21) 
oracle

>  <origin>  (21) 
adgpu

>  <m_score__min__energy>  (21) 
-8.9199999999999999

>  <m_primary>  (21) 
energy

$$$$
21:0
     RDKit          3D

 57 61  0  0  0  0  0  0  0  0999 V2000
   -2.0430   22.4560  -29.6720 C   0  0  0  0  0  0  0  0  0  0  0  0
   -3.0070   22.4580  -30.7800 N   0  0  0  0  0  0  0  0  0  0  0  0
   -4.2290   23.2240  -30.6720 C   0  0  0  0  0  0  0  0  0  0  0  0
   -4.4280   24.1330  -29.6150 C   0  0  0  0  0  0  0  0  0  0  0  0
   -5.6200   24.8560  -29.5170 C   0  0  0  0  0  0  0  0  0  0  0  0
   -6.6270   24.6820  -30.4710 C   0  0  0  0  0  0  0  0  0  0  0  0
   -6.4420   23.7850  -31.5250 C   0  0  0  0  0  0  0  0  0  0  0  0
   -5.2510   23.0610  -31.6280 C   0  0  0  0  0  0  0  0  0  0  0  0
   -2.8740   21.4980  -31.8470 C   0  0  0  0  0  0  0  0  0  0  0  0
   -1.7630   21.5090  -32.7030 C   0  0  0  0  0  0  0  0  0  0  0  0
   -1.6960   20.5660  -33.7400 C   0  0  0  0  0  0  0  0  0  0  0  0
   -0.5520   20.5220  -34.6870 C   0  0  0  0  0  0  0  0  0  0  0  0
   -0.1960   19.3060  -35.3010 C   0  0  0  0  0  0  0  0  0  0  0  0
    0.8830   19.2460  -36.1880 C   0  0  0  0  0  0  0  0  0  0  0  0
    1.6240   20.3950  -36.4670 C   0  0  0  0  0  0  0  0  0  0  0  0
    1.2910   21.6060  -35.8570 C   0  0  0  0  0  0  0  0  0  0  0  0
    0.2120   21.6730  -34.9700 C   0  0  0  0  0  0  0  0  0  0  0  0
   -2.7230   19.6880  -33.9000 N   0  0  0  0  0  0  0  0  0  0  0  0
   -3.8010   19.6920  -33.0730 C   0  0  0  0  0  0  0  0  0  0  0  0
   -4.8840   18.7750  -33.2940 N   0  0  0  0  0  0  0  0  0  0  0  0
   -5.8690   18.9090  -34.3430 C   0  0  2  0  0  0  0  0  0  0  0  0
   -6.9530   19.8820  -33.8380 C   0  0  0  0  0  0  0  0  0  0  0  0
   -7.6750   19.3500  -32.5270 C   0  0  0  0  0  0  0  0  0  0  0  0
   -6.8240   18.5020  -31.5070 C   0  0  0  0  0  0  0  0  0  0  0  0
   -6.1620   17.1680  -32.0380 C   0  0  0  0  0  0  0  0  0  0  0  0
   -4.8800   17.3870  -32.9270 C   0  0  1  0  0  0  0  0  0  0  0  0
   -4.9210   16.7010  -34.3320 C   0  0  0  0  0  0  0  0  0  0  0  0
   -5.4120   17.8250  -35.3230 C   0  0  0  0  0  0  0  0  0  0  0  0
   -3.8660   20.5940  -32.0600 N   0  0  0  0  0  0  0  0  0  0  0  0
   -2.5847   22.4571  -28.7147 H   0  0  0  0  0  0  0  0  0  0  0  0
   -1.4130   21.5565  -29.7357 H   0  0  0  0  0  0  0  0  0  0  0  0
   -1.4093   23.3528  -29.7357 H   0  0  0  0  0  0  0  0  0  0  0  0
   -3.6396   24.2750  -28.8611 H   0  0  0  0  0  0  0  0  0  0  0  0
   -5.7662   25.5635  -28.6875 H   0  0  0  0  0  0  0  0  0  0  0  0
   -7.5647   25.2515  -30.3914 H   0  0  0  0  0  0  0  0  0  0  0  0
   -7.2347   23.6480  -32.2752 H   0  0  0  0  0  0  0  0  0  0  0  0
   -5.1104   22.3581  -32.4624 H   0  0  0  0  0  0  0  0  0  0  0  0
   -0.9573   22.2448  -32.5637 H   0  0  0  0  0  0  0  0  0  0  0  0
   -0.7720   18.3951  -35.0808 H   0  0  0  0  0  0  0  0  0  0  0  0
    1.1482   18.2917  -36.6666 H   0  0  0  0  0  0  0  0  0  0  0  0
    2.4706   20.3467  -37.1676 H   0  0  0  0  0  0  0  0  0  0  0  0
    1.8790   22.5098  -36.0747 H   0  0  0  0  0  0  0  0  0  0  0  0
   -0.0424   22.6295  -34.4900 H   0  0  0  0  0  0  0  0  0  0  0  0
   -6.4485   19.2639  -35.2080 H   0  0  0  0  0  0  0  0  0  0  0  0
   -6.4827   20.8510  -33.6147 H   0  0  0  0  0  0  0  0  0  0  0  0
   -7.7139   19.9778  -34.6266 H   0  0  0  0  0  0  0  0  0  0  0  0
   -8.0567   20.2276  -31.9846 H   0  0  0  0  0  0  0  0  0  0  0  0
   -8.4377   18.6496  -32.8980 H   0  0  0  0  0  0  0  0  0  0  0  0
   -6.0134   19.1476  -31.1380 H   0  0  0  0  0  0  0  0  0  0  0  0
   -7.5469   18.1718  -30.7465 H   0  0  0  0  0  0  0  0  0  0  0  0
   -5.8780   16.5555  -31.1696 H   0  0  0  0  0  0  0  0  0  0  0  0
   -6.9100   16.6803  -32.6804 H   0  0  0  0  0  0  0  0  0  0  0  0
   -4.0370   16.9977  -32.3372 H   0  0  0  0  0  0  0  0  0  0  0  0
   -3.9202   16.3447  -34.6173 H   0  0  0  0  0  0  0  0  0  0  0  0
   -5.5837   15.8231  -34.3431 H   0  0  0  0  0  0  0  0  0  0  0  0
   -4.5932   18.1817  -35.9651 H   0  0  0  0  0  0  0  0  0  0  0  0
   -6.1907   17.4965  -36.0271 H   0  0  0  0  0  0  0  0  0  0  0  0
  1  2  1  0
  2  3  1  0
  3  4  2  0
  4  5  1  0
  5  6  2  0
  6  7  1  0
  7  8  2  0
  2  9  1  0
  9 10  2  0
 10 11  1  0
 11 12  1  0
 12 13  2  0
 13 14  1  0
 14 15  2  0
 15 16  1  0
 16 17  2  0
 11 18  2  0
 18 19  1  0
 19 20  1  0
 20 21  1  0
 21 22  1  0
 22 23  1  0
 23 24  1  0
 24 25  1  0
 25 26  1  0
 26 27  1  0
 27 28  1  0
 19 29  2  0
  8  3  1  0
 29  9  1  0
 17 12  1  0
 26 20  1  0
 28 21  1  0
  1 30  1  0
  1 31  1  0
  1 32  1  0
  4 33  1  0
  5 34  1  0
  6 35  1  0
  7 36  1  0
  8 37  1  0
 10 38  1  0
 13 39  1  0
 14 40  1  0
 15 41  1  0
 16 42  1  0
 17 43  1  0
 21 44  1  6
 22 45  1  0
 22 46  1  0
 23 47  1  0
 23 48  1  0
 24 49  1  0
 24 50  1  0
 25 51  1  0
 25 52  1  0
 26 53  1  1
 27 54  1  0
 27 55  1  0
 28 56  1  0
 28 57  1  0
M  END
>  <UniqueID>  (22) 
21

>  <SMILES>  (22) 
CN(c1ccccc1)c1cc(-c2ccccc2)nc(N2[C@H]3CCCC[C@H]2CC3)n1

>  <Energy>  (22) 
186.0792045062793

>  <Genealogy>  (22) 
CN(c1ccccc1)c1cc(-c2ccccc2)nc(N2[C@H]3CCCC[C@H]2CC3)n1 (chirality)
CN(c1ccccc1)c1cc(-c2ccccc2)nc(N2[C@H]3CCCC[C@H]2CC3)n1 (3D coordinates assigned)
CN(c1ccccc1)c1cc(-c2ccccc2)nc(N2[C@H]3CCCC[C@H]2CC3)n1 (nonaromatic ring conformer: 186.0792045062793 kcal/mol)

>  <smiles>  (22) 
CN(c1ccccc1)c1cc(-c2ccccc2)nc(N2C3CCCCC2CC3)n1

>  <score_type>  (22) 
oracle

>  <origin>  (22) 
adgpu

>  <m_score__min__energy>  (22) 
-7.7599999999999998

>  <m_primary>  (22) 
energy

$$$$
22:0
     RDKit          3D

 31 33  0  0  0  0  0  0  0  0999 V2000
   -3.8790   16.4210  -35.2470 C   0  0  0  0  0  0  0  0  0  0  0  0
   -4.7060   17.3610  -34.4210 C   0  0  0  0  0  0  0  0  0  0  0  0
   -4.2800   18.6820  -34.2180 C   0  0  0  0  0  0  0  0  0  0  0  0
   -5.0620   19.5730  -33.4790 C   0  0  0  0  0  0  0  0  0  0  0  0
   -6.2900   19.1570  -32.9300 C   0  0  0  0  0  0  0  0  0  0  0  0
   -7.1220   20.0130  -32.1710 C   0  0  0  0  0  0  0  0  0  0  0  0
   -6.7360   21.3980  -31.8180 C   0  0  0  0  0  0  0  0  0  0  0  0
   -7.6530   22.4490  -31.9750 C   0  0  0  0  0  0  0  0  0  0  0  0
   -7.2970   23.7540  -31.6200 C   0  0  0  0  0  0  0  0  0  0  0  0
   -6.0240   24.0180  -31.0980 C   0  0  0  0  0  0  0  0  0  0  0  0
   -5.6590   25.3610  -30.7330 C   0  0  0  0  0  0  0  0  0  0  0  0
   -5.3640   26.4420  -30.4400 N   0  0  0  0  0  0  0  0  0  0  0  0
   -5.1110   22.9710  -30.9260 C   0  0  0  0  0  0  0  0  0  0  0  0
   -5.4660   21.6660  -31.2790 C   0  0  0  0  0  0  0  0  0  0  0  0
   -8.3570   19.5270  -31.7220 C   0  0  0  0  0  0  0  0  0  0  0  0
   -8.7230   18.2090  -32.0090 C   0  0  0  0  0  0  0  0  0  0  0  0
   -9.8260   17.7620  -31.6000 O   0  0  0  0  0  0  0  0  0  0  0  0
   -7.9120   17.4230  -32.7070 O   0  0  0  0  0  0  0  0  0  0  0  0
   -6.7360   17.8350  -33.1720 C   0  0  0  0  0  0  0  0  0  0  0  0
   -5.9440   16.9490  -33.9110 C   0  0  0  0  0  0  0  0  0  0  0  0
   -3.2996   15.7624  -34.5832 H   0  0  0  0  0  0  0  0  0  0  0  0
   -4.5398   15.8123  -35.8818 H   0  0  0  0  0  0  0  0  0  0  0  0
   -3.1911   16.9989  -35.8818 H   0  0  0  0  0  0  0  0  0  0  0  0
   -3.3233   19.0187  -34.6438 H   0  0  0  0  0  0  0  0  0  0  0  0
   -4.7163   20.6059  -33.3251 H   0  0  0  0  0  0  0  0  0  0  0  0
   -8.6557   22.2454  -32.3789 H   0  0  0  0  0  0  0  0  0  0  0  0
   -8.0178   24.5746  -31.7509 H   0  0  0  0  0  0  0  0  0  0  0  0
   -4.1125   23.1756  -30.5123 H   0  0  0  0  0  0  0  0  0  0  0  0
   -4.7482   20.8451  -31.1343 H   0  0  0  0  0  0  0  0  0  0  0  0
   -9.0333   20.1776  -31.1481 H   0  0  0  0  0  0  0  0  0  0  0  0
   -6.2957   15.9227  -34.0925 H   0  0  0  0  0  0  0  0  0  0  0  0
  1  2  1  0
  2  3  2  0
  3  4  1  0
  4  5  2  0
  5  6  1  0
  6  7  1  0
  7  8  2  0
  8  9  1  0
  9 10  2  0
 10 11  1  0
 11 12  3  0
 10 13  1  0
 13 14  2  0
  6 15  2  0
 15 16  1  0
 16 17  2  0
 16 18  1  0
 18 19  1  0
 19 20  2  0
 20  2  1  0
 19  5  1  0
 14  7  1  0
  1 21  1  0
  1 22  1  0
  1 23  1  0
  3 24  1  0
  4 25  1  0
  8 26  1  0
  9 27  1  0
 13 28  1  0
 14 29  1  0
 15 30  1  0
 20 31  1  0
M  END
>  <UniqueID>  (23) 
22

>  <SMILES>  (23) 
Cc1ccc2c(-c3ccc(C#N)cc3)cc(=O)oc2c1

>  <Energy>  (23) 
44.760450866223906

>  <Genealogy>  (23) 
Cc1ccc2c(-c3ccc(C#N)cc3)cc(=O)oc2c1 (3D coordinates assigned)
Cc1ccc2c(-c3ccc(C#N)cc3)cc(=O)oc2c1 (optimized conformer: 44.760450866223906 kcal/mol)

>  <smiles>  (23) 
Cc1ccc2c(-c3ccc(C#N)cc3)cc(=O)oc2c1

>  <score_type>  (23) 
oracle

>  <origin>  (23) 
adgpu

>  <m_score__min__energy>  (23) 
-7.9000000000000004

>  <m_primary>  (23) 
energy

$$$$
23:0
     RDKit          3D

 20 20  0  0  0  0  0  0  0  0999 V2000
   -0.7407   22.5838  -27.3379 H   0  0  0  0  0  0  0  0  0  0  0  0
   -1.4160   23.1480  -27.9980 C   0  0  0  0  0  0  0  0  0  0  0  0
   -2.6790   22.6480  -28.3210 C   0  0  0  0  0  0  0  0  0  0  0  0
   -3.1090   21.3920  -27.7900 N   0  0  0  0  0  0  0  0  0  0  0  0
   -3.9550   21.3320  -27.1820 H   0  0  0  0  0  0  0  0  0  0  0  0
   -2.5840   20.5140  -28.0010 H   0  0  0  0  0  0  0  0  0  0  0  0
   -3.5010   23.3630  -29.1420 N   0  0  0  0  0  0  0  0  0  0  0  0
   -4.4420   22.9650  -29.3560 H   0  0  0  0  0  0  0  0  0  0  0  0
   -3.1030   24.5670  -29.6590 C   0  0  0  0  0  0  0  0  0  0  0  0
   -3.8690   25.2710  -30.4450 N   0  0  0  0  0  0  0  0  0  0  0  0
   -5.2070   24.9250  -30.9240 C   0  0  0  0  0  0  0  0  0  0  0  0
   -5.2530   23.8427  -31.1150 H   0  0  0  0  0  0  0  0  0  0  0  0
   -5.4063   25.4858  -31.8491 H   0  0  0  0  0  0  0  0  0  0  0  0
   -6.2660   25.2960  -29.8890 C   0  0  0  0  0  0  0  0  0  0  0  0
   -5.8568   25.1526  -28.8781 H   0  0  0  0  0  0  0  0  0  0  0  0
   -6.5552   26.3490  -30.0216 H   0  0  0  0  0  0  0  0  0  0  0  0
   -7.1491   24.6537  -30.0216 H   0  0  0  0  0  0  0  0  0  0  0  0
   -1.8750   25.0570  -29.3430 N   0  0  0  0  0  0  0  0  0  0  0  0
   -1.0290   24.3760  -28.5290 C   0  0  0  0  0  0  0  0  0  0  0  0
    0.1020   24.8570  -28.2580 O   0  0  0  0  0  0  0  0  0  0  0  0
  1  2  1  0
  2  3  2  0
  3  4  1  0
  4  5  1  0
  4  6  1  0
  3  7  1  0
  7  8  1  0
  7  9  1  0
  9 10  2  0
 10 11  1  0
 11 12  1  0
 11 13  1  0
 11 14  1  0
 14 15  1  0
 14 16  1  0
 14 17  1  0
  9 18  1  0
 18 19  1  0
 19 20  2  0
 19  2  1  0
M  CHG  1  18  -1
M  END
>  <UniqueID>  (24) 
23

>  <SMILES>  (24) 
CC/N=c1/[n-]c(=O)cc(N)[nH]1

>  <Energy>  (24) 
16.973438997185237

>  <Genealogy>  (24) 
CCN=c1[n-]c(=O)cc(N)[nH]1 (protonated)
CC/N=c1/[n-]c(=O)cc(N)[nH]1 (cis-trans isomerization)
CC/N=c1/[n-]c(=O)cc(N)[nH]1 (3D coordinates assigned)
CC/N=c1/[n-]c(=O)cc(N)[nH]1 (optimized conformer: 16.973438997185237 kcal/mol)

>  <smiles>  (24) 
CCN=c1[nH]c(N)cc(=O)[nH]1

>  <score_type>  (24) 
oracle

>  <origin>  (24) 
adgpu

>  <m_score__min__energy>  (24) 
-5.5800000000000001

>  <m_primary>  (24) 
energy

$$$$
24:0
     RDKit          3D

 31 33  0  0  0  0  0  0  0  0999 V2000
   -7.1280   22.5490  -29.4860 O   0  0  0  0  0  0  0  0  0  0  0  0
   -6.1560   23.2410  -29.8880 C   0  0  0  0  0  0  0  0  0  0  0  0
   -5.1420   23.5340  -29.0360 N   0  0  0  0  0  0  0  0  0  0  0  0
   -4.0840   24.2840  -29.4410 C   0  0  0  0  0  0  0  0  0  0  0  0
   -2.9810   24.6010  -28.5130 C   0  0  0  0  0  0  0  0  0  0  0  0
   -3.0150   24.1930  -27.1680 C   0  0  0  0  0  0  0  0  0  0  0  0
   -1.9500   24.5150  -26.3250 C   0  0  0  0  0  0  0  0  0  0  0  0
   -0.8650   25.2390  -26.8200 C   0  0  0  0  0  0  0  0  0  0  0  0
   -0.8610   25.6290  -28.1600 C   0  0  0  0  0  0  0  0  0  0  0  0
   -1.9070   25.3070  -28.9670 N   0  0  0  0  0  0  0  0  0  0  0  0
   -4.0490   24.7460  -30.7200 N   0  0  0  0  0  0  0  0  0  0  0  0
   -5.0340   24.4720  -31.5760 N   0  0  0  0  0  0  0  0  0  0  0  0
   -6.1020   23.7160  -31.2080 C   0  0  0  0  0  0  0  0  0  0  0  0
   -7.2060   23.4640  -32.1960 C   0  0  0  0  0  0  0  0  0  0  0  0
   -7.5180   21.9930  -32.2660 C   0  0  0  0  0  0  0  0  0  0  0  0
   -6.5450   21.0850  -32.7180 C   0  0  0  0  0  0  0  0  0  0  0  0
   -6.8450   19.7220  -32.8130 C   0  0  0  0  0  0  0  0  0  0  0  0
   -8.1160   19.2580  -32.4640 C   0  0  0  0  0  0  0  0  0  0  0  0
   -9.0920   20.1560  -32.0240 C   0  0  0  0  0  0  0  0  0  0  0  0
   -8.7980   21.5210  -31.9270 C   0  0  0  0  0  0  0  0  0  0  0  0
   -3.8743   23.6244  -26.7829 H   0  0  0  0  0  0  0  0  0  0  0  0
   -1.9662   24.1983  -25.2717 H   0  0  0  0  0  0  0  0  0  0  0  0
   -0.0228   25.4993  -26.1620 H   0  0  0  0  0  0  0  0  0  0  0  0
   -0.0105   26.1977  -28.5639 H   0  0  0  0  0  0  0  0  0  0  0  0
   -8.1067   24.0115  -31.8813 H   0  0  0  0  0  0  0  0  0  0  0  0
   -6.8833   23.8092  -33.1893 H   0  0  0  0  0  0  0  0  0  0  0  0
   -5.5448   21.4472  -32.9978 H   0  0  0  0  0  0  0  0  0  0  0  0
   -6.0791   19.0143  -33.1630 H   0  0  0  0  0  0  0  0  0  0  0  0
   -8.3484   18.1852  -32.5357 H   0  0  0  0  0  0  0  0  0  0  0  0
  -10.0932   19.7895  -31.7534 H   0  0  0  0  0  0  0  0  0  0  0  0
   -9.5701   22.2258  -31.5848 H   0  0  0  0  0  0  0  0  0  0  0  0
  1  2  2  0
  2  3  1  0
  3  4  2  0
  4  5  1  0
  5  6  2  0
  6  7  1  0
  7  8  2  0
  8  9  1  0
  9 10  2  0
  4 11  1  0
 11 12  1  0
 12 13  2  0
 13 14  1  0
 14 15  1  0
 15 16  2  0
 16 17  1  0
 17 18  2  0
 18 19  1  0
 19 20  2  0
 13  2  1  0
 20 15  1  0
 10  5  1  0
  6 21  1  0
  7 22  1  0
  8 23  1  0
  9 24  1  0
 14 25  1  0
 14 26  1  0
 16 27  1  0
 17 28  1  0
 18 29  1  0
 19 30  1  0
 20 31  1  0
M  CHG  1  11  -1
M  END
>  <UniqueID>  (25) 
24

>  <SMILES>  (25) 
O=c1nc(-c2ccccn2)[n-]nc1Cc1ccccc1

>  <Energy>  (25) 
36.35107474671763

>  <Genealogy>  (25) 
O=c1nc(-c2ccccn2)[n-]nc1Cc1ccccc1 (protonated)
O=c1nc(-c2ccccn2)[n-]nc1Cc1ccccc1 (3D coordinates assigned)
O=c1nc(-c2ccccn2)[n-]nc1Cc1ccccc1 (optimized conformer: 36.35107474671763 kcal/mol)

>  <smiles>  (25) 
O=c1nc(-c2ccccn2)[nH]nc1Cc1ccccc1

>  <score_type>  (25) 
oracle

>  <origin>  (25) 
adgpu

>  <m_score__min__energy>  (25) 
-9.1699999999999999

>  <m_primary>  (25) 
energy

$$$$
25:0
     RDKit          3D

 32 33  0  0  0  0  0  0  0  0999 V2000
   -2.5460   19.1600  -26.7200 C   0  0  0  0  0  0  0  0  0  0  0  0
   -2.0180   19.9040  -27.8130 O   0  0  0  0  0  0  0  0  0  0  0  0
   -2.7370   20.8730  -28.5310 C   0  0  0  0  0  0  0  0  0  0  0  0
   -2.7050   20.9490  -29.9370 C   0  0  0  0  0  0  0  0  0  0  0  0
   -3.4410   21.9330  -30.6050 C   0  0  0  0  0  0  0  0  0  0  0  0
   -4.2170   22.8470  -29.8820 C   0  0  0  0  0  0  0  0  0  0  0  0
   -5.1260   24.0970  -30.7240 S   0  0  0  0  0  0  0  0  0  0  0  0
   -6.3490   24.4570  -29.9270 O   0  0  0  0  0  0  0  0  0  0  0  0
   -4.2730   25.3250  -30.8800 O   0  0  0  0  0  0  0  0  0  0  0  0
   -5.6070   23.4860  -32.3290 C   0  0  0  0  0  0  0  0  0  0  0  0
   -6.4660   22.2600  -32.1880 C   0  0  0  0  0  0  0  0  0  0  0  0
   -7.7590   22.3590  -31.6500 C   0  0  0  0  0  0  0  0  0  0  0  0
   -8.5690   21.2240  -31.5500 C   0  0  0  0  0  0  0  0  0  0  0  0
   -8.0960   19.9840  -31.9930 C   0  0  0  0  0  0  0  0  0  0  0  0
   -9.1140   18.5600  -31.8690 Cl  0  0  0  0  0  0  0  0  0  0  0  0
   -6.8140   19.8800  -32.5410 C   0  0  0  0  0  0  0  0  0  0  0  0
   -6.0020   21.0150  -32.6430 C   0  0  0  0  0  0  0  0  0  0  0  0
   -4.2430   22.7780  -28.4830 C   0  0  0  0  0  0  0  0  0  0  0  0
   -3.5100   21.7950  -27.8140 C   0  0  0  0  0  0  0  0  0  0  0  0
   -2.2212   19.6177  -25.7739 H   0  0  0  0  0  0  0  0  0  0  0  0
   -3.6448   19.1635  -26.7708 H   0  0  0  0  0  0  0  0  0  0  0  0
   -2.1799   18.1239  -26.7708 H   0  0  0  0  0  0  0  0  0  0  0  0
   -2.0995   20.2325  -30.5114 H   0  0  0  0  0  0  0  0  0  0  0  0
   -3.4100   21.9891  -31.7031 H   0  0  0  0  0  0  0  0  0  0  0  0
   -6.1732   24.2661  -32.8589 H   0  0  0  0  0  0  0  0  0  0  0  0
   -4.7020   23.2239  -32.8966 H   0  0  0  0  0  0  0  0  0  0  0  0
   -8.1361   23.3333  -31.3059 H   0  0  0  0  0  0  0  0  0  0  0  0
   -9.5793   21.3059  -31.1226 H   0  0  0  0  0  0  0  0  0  0  0  0
   -6.4435   18.9056  -32.8921 H   0  0  0  0  0  0  0  0  0  0  0  0
   -4.9965   20.9318  -33.0812 H   0  0  0  0  0  0  0  0  0  0  0  0
   -4.8426   23.5002  -27.9095 H   0  0  0  0  0  0  0  0  0  0  0  0
   -3.5401   21.7446  -26.7156 H   0  0  0  0  0  0  0  0  0  0  0  0
  1  2  1  0
  2  3  1  0
  3  4  2  0
  4  5  1  0
  5  6  2  0
  6  7  1  0
  7  8  2  0
  7  9  2  0
  7 10  1  0
 10 11  1  0
 11 12  2  0
 12 13  1  0
 13 14  2  0
 14 15  1  0
 14 16  1  0
 16 17  2  0
  6 18  1  0
 18 19  2  0
 19  3  1  0
 17 11  1  0
  1 20  1  0
  1 21  1  0
  1 22  1  0
  4 23  1  0
  5 24  1  0
 10 25  1  0
 10 26  1  0
 12 27  1  0
 13 28  1  0
 16 29  1  0
 17 30  1  0
 18 31  1  0
 19 32  1  0
M  END
>  <UniqueID>  (26) 
25

>  <SMILES>  (26) 
COc1ccc(S(=O)(=O)Cc2ccc(Cl)cc2)cc1

>  <Energy>  (26) 
28.448213895902875

>  <Genealogy>  (26) 
COc1ccc(S(=O)(=O)Cc2ccc(Cl)cc2)cc1 (3D coordinates assigned)
COc1ccc(S(=O)(=O)Cc2ccc(Cl)cc2)cc1 (optimized conformer: 28.448213895902875 kcal/mol)

>  <smiles>  (26) 
COc1ccc(S(=O)(=O)Cc2ccc(Cl)cc2)cc1

>  <score_type>  (26) 
oracle

>  <origin>  (26) 
adgpu

>  <m_score__min__energy>  (26) 
-7.75

>  <m_primary>  (26) 
energy

$$$$
26:0
     RDKit          3D

 48 51  0  0  1  0  0  0  0  0999 V2000
   -0.7850   29.0870  -24.9710 C   0  0  0  0  0  0  0  0  0  0  0  0
   -0.5380   27.6970  -25.4380 C   0  0  0  0  0  0  0  0  0  0  0  0
   -0.4990   27.2320  -26.7580 C   0  0  0  0  0  0  0  0  0  0  0  0
   -0.2380   25.8550  -26.7410 C   0  0  0  0  0  0  0  0  0  0  0  0
   -0.1870   25.0570  -27.8990 N   0  0  0  0  0  0  0  0  0  0  0  0
   -1.0880   24.3710  -28.4430 C   0  0  0  0  0  0  0  0  0  0  0  0
   -0.7950   23.6730  -29.5740 N   0  0  0  0  0  0  0  0  0  0  0  0
   -1.7800   22.9310  -30.1580 C   0  0  0  0  0  0  0  0  0  0  0  0
   -1.4420   22.2920  -31.2280 N   0  0  0  0  0  0  0  0  0  0  0  0
   -2.4370   21.5050  -31.8700 C   0  0  0  0  0  0  0  0  0  0  0  0
   -3.5640   22.0830  -32.4590 C   0  0  0  0  0  0  0  0  0  0  0  0
   -4.5020   21.2630  -33.0720 C   0  0  0  0  0  0  0  0  0  0  0  0
   -4.3390   19.8790  -33.1080 C   0  0  0  0  0  0  0  0  0  0  0  0
   -5.3260   19.1320  -33.7420 O   0  0  0  0  0  0  0  0  0  0  0  0
   -6.5710   19.0320  -33.1280 C   0  0  0  0  0  0  0  0  0  0  0  0
   -7.0010   17.9120  -32.4640 C   0  0  0  0  0  0  0  0  0  0  0  0
   -8.2710   17.9150  -31.8810 C   0  0  0  0  0  0  0  0  0  0  0  0
   -9.0670   19.0350  -31.9820 C   0  0  0  0  0  0  0  0  0  0  0  0
   -8.6480   20.1870  -32.6540 C   0  0  0  0  0  0  0  0  0  0  0  0
   -7.3840   20.1610  -33.2250 C   0  0  0  0  0  0  0  0  0  0  0  0
   -3.2250   19.3160  -32.5260 C   0  0  0  0  0  0  0  0  0  0  0  0
   -2.2790   20.1160  -31.9110 C   0  0  0  0  0  0  0  0  0  0  0  0
   -3.0250   22.8810  -29.6360 N   0  0  0  0  0  0  0  0  0  0  0  0
   -3.2980   23.5800  -28.5110 C   0  0  0  0  0  0  0  0  0  0  0  0
   -2.3400   24.3420  -27.8870 C   0  0  0  0  0  0  0  0  0  0  0  0
   -2.7970   25.2860  -26.3260 Br  0  0  0  0  0  0  0  0  0  0  0  0
   -0.1290   25.5360  -25.4380 N   0  0  0  0  0  0  0  0  0  0  0  0
   -0.3050   26.6120  -24.6840 N   0  0  0  0  0  0  0  0  0  0  0  0
   -0.2560   26.6340  -23.2270 C   0  0  0  0  0  0  0  0  0  0  0  0
   -0.7889   29.1091  -23.8712 H   0  0  0  0  0  0  0  0  0  0  0  0
    0.0099   29.7472  -25.3482 H   0  0  0  0  0  0  0  0  0  0  0  0
   -1.7587   29.4329  -25.3482 H   0  0  0  0  0  0  0  0  0  0  0  0
   -0.6484   27.8454  -27.6588 H   0  0  0  0  0  0  0  0  0  0  0  0
    0.1590   23.7000  -29.9900 H   0  0  0  0  0  0  0  0  0  0  0  0
   -3.7066   23.1735  -32.4375 H   0  0  0  0  0  0  0  0  0  0  0  0
   -5.3905   21.7140  -33.5380 H   0  0  0  0  0  0  0  0  0  0  0  0
   -6.3557   17.0241  -32.3913 H   0  0  0  0  0  0  0  0  0  0  0  0
   -8.6338   17.0265  -31.3435 H   0  0  0  0  0  0  0  0  0  0  0  0
  -10.0646   19.0223  -31.5188 H   0  0  0  0  0  0  0  0  0  0  0  0
   -9.2925   21.0754  -32.7268 H   0  0  0  0  0  0  0  0  0  0  0  0
   -7.0164   21.0467  -33.7639 H   0  0  0  0  0  0  0  0  0  0  0  0
   -3.0869   18.2250  -32.5504 H   0  0  0  0  0  0  0  0  0  0  0  0
   -1.3933   19.6550  -31.4494 H   0  0  0  0  0  0  0  0  0  0  0  0
   -3.7610   22.3090  -30.0950 H   0  0  0  0  0  0  0  0  0  0  0  0
   -4.3114   23.5375  -28.0853 H   0  0  0  0  0  0  0  0  0  0  0  0
   -1.1891   26.2150  -22.8224 H   0  0  0  0  0  0  0  0  0  0  0  0
    0.5969   26.0324  -22.8797 H   0  0  0  0  0  0  0  0  0  0  0  0
   -0.1388   27.6711  -22.8797 H   0  0  0  0  0  0  0  0  0  0  0  0
  1  2  1  0
  2  3  2  0
  3  4  1  0
  4  5  1  0
  5  6  2  0
  6  7  1  0
  7  8  1  0
  8  9  2  0
  9 10  1  0
 10 11  2  0
 11 12  1  0
 12 13  2  0
 13 14  1  0
 14 15  1  0
 15 16  2  0
 16 17  1  0
 17 18  2  0
 18 19  1  0
 19 20  2  0
 13 21  1  0
 21 22  2  0
  8 23  1  0
 23 24  1  0
 24 25  2  0
 25 26  1  0
  4 27  2  0
 27 28  1  0
 28 29  1  0
 28  2  1  0
 25  6  1  0
 22 10  1  0
 20 15  1  0
  1 30  1  0
  1 31  1  0
  1 32  1  0
  3 33  1  0
  7 34  1  0
 11 35  1  0
 12 36  1  0
 16 37  1  0
 17 38  1  0
 18 39  1  0
 19 40  1  0
 20 41  1  0
 21 42  1  0
 22 43  1  0
 23 44  1  0
 24 45  1  0
 29 46  1  0
 29 47  1  0
 29 48  1  0
M  END
>  <smiles>  (27) 
Cc1cc(N=c2[nH]c(=Nc3ccc(Oc4ccccc4)cc3)[nH]cc2Br)nn1C

>  <score_type>  (27) 
oracle

>  <origin>  (27) 
adgpu

>  <m_score__min__energy>  (27) 
-9.6600000000000001

>  <m_primary>  (27) 
energy

$$$$
27:0
     RDKit          3D

 39 42  0  0  0  0  0  0  0  0999 V2000
    0.3550   24.1173  -28.1487 H   0  0  0  0  0  0  0  0  0  0  0  0
   -0.6220   24.1290  -28.6540 C   0  0  0  0  0  0  0  0  0  0  0  0
   -1.3990   25.2900  -28.6570 C   0  0  0  0  0  0  0  0  0  0  0  0
   -0.8720   26.4870  -28.0640 N   0  0  0  0  0  0  0  0  0  0  0  0
   -0.8440   26.8370  -26.8040 C   0  0  0  0  0  0  0  0  0  0  0  0
   -1.2260   25.9580  -25.7700 C   0  0  0  0  0  0  0  0  0  0  0  0
   -1.5663   24.9403  -26.0118 H   0  0  0  0  0  0  0  0  0  0  0  0
   -1.1730   26.3770  -24.4420 C   0  0  0  0  0  0  0  0  0  0  0  0
   -1.4818   25.6891  -23.6411 H   0  0  0  0  0  0  0  0  0  0  0  0
   -0.7440   27.6260  -24.1270 N   0  0  0  0  0  0  0  0  0  0  0  0
   -0.7180   27.9010  -23.1190 H   0  0  0  0  0  0  0  0  0  0  0  0
   -0.3410   28.5040  -25.0880 C   0  0  0  0  0  0  0  0  0  0  0  0
    0.1110   29.7830  -24.7270 C   0  0  0  0  0  0  0  0  0  0  0  0
    0.1361   30.0755  -23.6669 H   0  0  0  0  0  0  0  0  0  0  0  0
    0.5290   30.6860  -25.7070 C   0  0  0  0  0  0  0  0  0  0  0  0
    0.8842   31.6857  -25.4165 H   0  0  0  0  0  0  0  0  0  0  0  0
    0.4970   30.3230  -27.0530 C   0  0  0  0  0  0  0  0  0  0  0  0
    0.8261   31.0386  -27.8208 H   0  0  0  0  0  0  0  0  0  0  0  0
    0.0490   29.0550  -27.4310 C   0  0  0  0  0  0  0  0  0  0  0  0
    0.0270   28.7780  -28.4953 H   0  0  0  0  0  0  0  0  0  0  0  0
   -0.3760   28.1260  -26.4550 C   0  0  0  0  0  0  0  0  0  0  0  0
   -2.5860   25.2990  -29.3240 N   0  0  0  0  0  0  0  0  0  0  0  0
   -3.0870   24.1990  -29.9480 C   0  0  0  0  0  0  0  0  0  0  0  0
   -4.2360   24.3010  -30.5580 N   0  0  0  0  0  0  0  0  0  0  0  0
   -4.9860   23.2560  -31.1950 C   0  0  0  0  0  0  0  0  0  0  0  0
   -6.2260   23.5600  -31.7720 C   0  0  0  0  0  0  0  0  0  0  0  0
   -6.5909   24.5977  -31.7713 H   0  0  0  0  0  0  0  0  0  0  0  0
   -7.0020   22.5490  -32.3490 C   0  0  0  0  0  0  0  0  0  0  0  0
   -7.9661   22.7962  -32.8174 H   0  0  0  0  0  0  0  0  0  0  0  0
   -6.5540   21.2260  -32.3310 C   0  0  0  0  0  0  0  0  0  0  0  0
   -7.1617   20.4337  -32.7925 H   0  0  0  0  0  0  0  0  0  0  0  0
   -5.3340   20.9080  -31.7270 C   0  0  0  0  0  0  0  0  0  0  0  0
   -4.9858   19.8648  -31.7062 H   0  0  0  0  0  0  0  0  0  0  0  0
   -4.5560   21.9170  -31.1490 C   0  0  0  0  0  0  0  0  0  0  0  0
   -3.6055   21.6628  -30.6572 H   0  0  0  0  0  0  0  0  0  0  0  0
   -2.3280   23.0100  -29.9480 C   0  0  0  0  0  0  0  0  0  0  0  0
   -2.7049   22.1105  -30.4568 H   0  0  0  0  0  0  0  0  0  0  0  0
   -1.0940   22.9860  -29.2960 C   0  0  0  0  0  0  0  0  0  0  0  0
   -0.4938   22.0642  -29.2890 H   0  0  0  0  0  0  0  0  0  0  0  0
  1  2  1  0
  2  3  2  0
  3  4  1  0
  4  5  2  0
  5  6  1  0
  6  7  1  0
  6  8  2  0
  8  9  1  0
  8 10  1  0
 10 11  1  0
 10 12  1  0
 12 13  2  0
 13 14  1  0
 13 15  1  0
 15 16  1  0
 15 17  2  0
 17 18  1  0
 17 19  1  0
 19 20  1  0
 19 21  2  0
  3 22  1  0
 22 23  1  0
 23 24  2  0
 24 25  1  0
 25 26  2  0
 26 27  1  0
 26 28  1  0
 28 29  1  0
 28 30  2  0
 30 31  1  0
 30 32  1  0
 32 33  1  0
 32 34  2  0
 34 35  1  0
 23 36  1  0
 36 37  1  0
 36 38  2  0
 38 39  1  0
 38  2  1  0
 21  5  1  0
 34 25  1  0
 21 12  1  0
M  CHG  1  22  -1
M  END
>  <UniqueID>  (28) 
26

>  <SMILES>  (28) 
c1ccc(/N=c2\cccc(/N=c3\cc[nH]c4ccccc34)[n-]2)cc1

>  <Energy>  (28) 
67.1513453703087

>  <Genealogy>  (28) 
c1ccc(N=c2cccc(N=c3cc[nH]c4ccccc34)[n-]2)cc1 (protonated)
c1ccc(/N=c2\cccc(/N=c3\cc[nH]c4ccccc34)[n-]2)cc1 (cis-trans isomerization)
c1ccc(/N=c2\cccc(/N=c3\cc[nH]c4ccccc34)[n-]2)cc1 (3D coordinates assigned)
c1ccc(/N=c2\cccc(/N=c3\cc[nH]c4ccccc34)[n-]2)cc1 (optimized conformer: 67.1513453703087 kcal/mol)

>  <smiles>  (28) 
c1ccc(N=c2cccc(N=c3cc[nH]c4ccccc34)[nH]2)cc1

>  <score_type>  (28) 
oracle

>  <origin>  (28) 
adgpu

>  <m_score__min__energy>  (28) 
-9.6999999999999993

>  <m_primary>  (28) 
energy

$$$$
28:0
     RDKit          3D

 25 26  0  0  0  0  0  0  0  0999 V2000
   -1.0220   20.1070  -28.3490 C   0  0  0  0  0  0  0  0  0  0  0  0
   -1.8960   21.3150  -28.3720 C   0  0  0  0  0  0  0  0  0  0  0  0
   -3.1000   21.4490  -27.7090 C   0  0  0  0  0  0  0  0  0  0  0  0
   -3.5450   22.7220  -27.9970 C   0  0  0  0  0  0  0  0  0  0  0  0
   -2.5810   23.2810  -28.8150 C   0  0  0  0  0  0  0  0  0  0  0  0
   -2.6090   24.6330  -29.3830 C   0  0  0  0  0  0  0  0  0  0  0  0
   -1.8200   25.5080  -28.9360 O   0  0  0  0  0  0  0  0  0  0  0  0
   -3.4940   24.9310  -30.4710 N   0  0  0  0  0  0  0  0  0  0  0  0
   -4.7560   24.3040  -30.7450 C   0  0  0  0  0  0  0  0  0  0  0  0
   -5.9690   24.8200  -30.2520 C   0  0  0  0  0  0  0  0  0  0  0  0
   -7.1740   24.1630  -30.5230 C   0  0  0  0  0  0  0  0  0  0  0  0
   -7.1780   22.9840  -31.2730 C   0  0  0  0  0  0  0  0  0  0  0  0
   -8.6910   22.1620  -31.6110 Cl  0  0  0  0  0  0  0  0  0  0  0  0
   -5.9730   22.4550  -31.7450 C   0  0  0  0  0  0  0  0  0  0  0  0
   -4.7670   23.1080  -31.4740 C   0  0  0  0  0  0  0  0  0  0  0  0
   -1.6090   22.4200  -29.0200 O   0  0  0  0  0  0  0  0  0  0  0  0
   -0.8165   19.8229  -27.3064 H   0  0  0  0  0  0  0  0  0  0  0  0
   -1.5301   19.2770  -28.8618 H   0  0  0  0  0  0  0  0  0  0  0  0
   -0.0747   20.3300  -28.8618 H   0  0  0  0  0  0  0  0  0  0  0  0
   -3.6001   20.6966  -27.0815 H   0  0  0  0  0  0  0  0  0  0  0  0
   -4.4748   23.1949  -27.6480 H   0  0  0  0  0  0  0  0  0  0  0  0
   -5.9696   25.7421  -29.6522 H   0  0  0  0  0  0  0  0  0  0  0  0
   -8.1209   24.5756  -30.1447 H   0  0  0  0  0  0  0  0  0  0  0  0
   -5.9739   21.5237  -32.3304 H   0  0  0  0  0  0  0  0  0  0  0  0
   -3.8205   22.6798  -31.8356 H   0  0  0  0  0  0  0  0  0  0  0  0
  1  2  1  0
  2  3  2  0
  3  4  1  0
  4  5  2  0
  5  6  1  0
  6  7  2  0
  6  8  1  0
  8  9  1  0
  9 10  2  0
 10 11  1  0
 11 12  2  0
 12 13  1  0
 12 14  1  0
 14 15  2  0
  5 16  1  0
 16  2  1  0
 15  9  1  0
  1 17  1  0
  1 18  1  0
  1 19  1  0
  3 20  1  0
  4 21  1  0
 10 22  1  0
 11 23  1  0
 14 24  1  0
 15 25  1  0
M  CHG  1   8  -1
M  END
>  <UniqueID>  (29) 
27

>  <SMILES>  (29) 
Cc1ccc(C(=O)[N-]c2ccc(Cl)cc2)o1

>  <Energy>  (29) 
52.28922118838184

>  <Genealogy>  (29) 
Cc1ccc(C(=O)[N-]c2ccc(Cl)cc2)o1 (protonated)
Cc1ccc(C(=O)[N-]c2ccc(Cl)cc2)o1 (3D coordinates assigned)
Cc1ccc(C(=O)[N-]c2ccc(Cl)cc2)o1 (optimized conformer: 52.28922118838184 kcal/mol)

>  <smiles>  (29) 
Cc1ccc(C(=O)Nc2ccc(Cl)cc2)o1

>  <score_type>  (29) 
oracle

>  <origin>  (29) 
adgpu

>  <m_score__min__energy>  (29) 
-8.1099999999999994

>  <m_primary>  (29) 
energy

$$$$
29:0
     RDKit          3D

 37 38  0  0  0  0  0  0  0  0999 V2000
   -0.1960   23.3470  -24.9120 C   0  0  0  0  0  0  0  0  0  0  0  0
   -0.4940   22.6940  -26.1420 O   0  0  0  0  0  0  0  0  0  0  0  0
   -1.2030   23.2830  -27.2000 C   0  0  0  0  0  0  0  0  0  0  0  0
   -2.4480   22.7460  -27.5490 C   0  0  0  0  0  0  0  0  0  0  0  0
   -3.1910   23.2990  -28.5960 C   0  0  0  0  0  0  0  0  0  0  0  0
   -2.7010   24.3960  -29.3130 C   0  0  0  0  0  0  0  0  0  0  0  0
   -3.4920   24.9240  -30.3880 N   0  0  0  0  0  0  0  0  0  0  0  0
   -5.2250   24.9460  -30.4370 S   0  0  0  0  0  0  0  0  0  0  0  0
   -5.7500   25.0250  -29.0320 O   0  0  0  0  0  0  0  0  0  0  0  0
   -5.6690   26.1650  -31.1990 O   0  0  0  0  0  0  0  0  0  0  0  0
   -5.8470   23.4750  -31.1970 C   0  0  0  0  0  0  0  0  0  0  0  0
   -7.2250   23.2100  -31.1580 C   0  0  0  0  0  0  0  0  0  0  0  0
   -7.7450   22.0430  -31.7320 C   0  0  0  0  0  0  0  0  0  0  0  0
   -9.2160   21.7580  -31.6520 C   0  0  0  0  0  0  0  0  0  0  0  0
   -6.8730   21.1270  -32.3350 C   0  0  0  0  0  0  0  0  0  0  0  0
   -5.5030   21.3930  -32.3990 C   0  0  0  0  0  0  0  0  0  0  0  0
   -4.9770   22.5730  -31.8370 C   0  0  0  0  0  0  0  0  0  0  0  0
   -3.6060   22.8740  -31.9000 O   0  0  0  0  0  0  0  0  0  0  0  0
   -2.5610   21.9110  -31.8060 C   0  0  0  0  0  0  0  0  0  0  0  0
   -1.4520   24.9430  -28.9630 C   0  0  0  0  0  0  0  0  0  0  0  0
   -0.7080   24.3900  -27.9160 C   0  0  0  0  0  0  0  0  0  0  0  0
   -0.4912   22.7002  -24.0726 H   0  0  0  0  0  0  0  0  0  0  0  0
    0.8837   23.5497  -24.8567 H   0  0  0  0  0  0  0  0  0  0  0  0
   -0.7504   24.2955  -24.8567 H   0  0  0  0  0  0  0  0  0  0  0  0
   -2.8445   21.8823  -26.9951 H   0  0  0  0  0  0  0  0  0  0  0  0
   -4.1686   22.8683  -28.8583 H   0  0  0  0  0  0  0  0  0  0  0  0
   -7.9035   23.9263  -30.6716 H   0  0  0  0  0  0  0  0  0  0  0  0
   -9.5212   21.6989  -30.5968 H   0  0  0  0  0  0  0  0  0  0  0  0
   -9.7734   22.5648  -32.1503 H   0  0  0  0  0  0  0  0  0  0  0  0
   -9.4318   20.8013  -32.1503 H   0  0  0  0  0  0  0  0  0  0  0  0
   -7.2693   20.1932  -32.7604 H   0  0  0  0  0  0  0  0  0  0  0  0
   -4.8300   20.6759  -32.8918 H   0  0  0  0  0  0  0  0  0  0  0  0
   -2.3423   21.7095  -30.7470 H   0  0  0  0  0  0  0  0  0  0  0  0
   -2.8754   20.9794  -32.2992 H   0  0  0  0  0  0  0  0  0  0  0  0
   -1.6581   22.3003  -32.2992 H   0  0  0  0  0  0  0  0  0  0  0  0
   -1.0595   25.8094  -29.5156 H   0  0  0  0  0  0  0  0  0  0  0  0
    0.2683   24.8217  -27.6505 H   0  0  0  0  0  0  0  0  0  0  0  0
  1  2  1  0
  2  3  1  0
  3  4  2  0
  4  5  1  0
  5  6  2  0
  6  7  1  0
  7  8  1  0
  8  9  2  0
  8 10  2  0
  8 11  1  0
 11 12  2  0
 12 13  1  0
 13 14  1  0
 13 15  2  0
 15 16  1  0
 16 17  2  0
 17 18  1  0
 18 19  1  0
  6 20  1  0
 20 21  2  0
 21  3  1  0
 17 11  1  0
  1 22  1  0
  1 23  1  0
  1 24  1  0
  4 25  1  0
  5 26  1  0
 12 27  1  0
 14 28  1  0
 14 29  1  0
 14 30  1  0
 15 31  1  0
 16 32  1  0
 19 33  1  0
 19 34  1  0
 19 35  1  0
 20 36  1  0
 21 37  1  0
M  CHG  1   7  -1
M  END
>  <UniqueID>  (30) 
28

>  <SMILES>  (30) 
COc1ccc([N-]S(=O)(=O)c2cc(C)ccc2OC)cc1

>  <Energy>  (30) 
38.91484055719084

>  <Genealogy>  (30) 
COc1ccc([N-]S(=O)(=O)c2cc(C)ccc2OC)cc1 (protonated)
COc1ccc([N-]S(=O)(=O)c2cc(C)ccc2OC)cc1 (3D coordinates assigned)
COc1ccc([N-]S(=O)(=O)c2cc(C)ccc2OC)cc1 (optimized conformer: 38.91484055719084 kcal/mol)

>  <smiles>  (30) 
COc1ccc(NS(=O)(=O)c2cc(C)ccc2OC)cc1

>  <score_type>  (30) 
oracle

>  <origin>  (30) 
adgpu

>  <m_score__min__energy>  (30) 
-8.2799999999999994

>  <m_primary>  (30) 
energy

$$$$
30:0
     RDKit          3D

 44 46  0  0  0  0  0  0  0  0999 V2000
   -4.8816   16.7735  -35.8250 H   0  0  0  0  0  0  0  0  0  0  0  0
   -4.8950   17.5540  -35.0500 C   0  0  0  0  0  0  0  0  0  0  0  0
   -3.6980   18.0710  -34.5640 C   0  0  0  0  0  0  0  0  0  0  0  0
   -2.7397   17.6976  -34.9541 H   0  0  0  0  0  0  0  0  0  0  0  0
   -3.7120   19.0620  -33.5830 C   0  0  0  0  0  0  0  0  0  0  0  0
   -2.7609   19.4652  -33.2052 H   0  0  0  0  0  0  0  0  0  0  0  0
   -4.9270   19.5530  -33.0700 C   0  0  0  0  0  0  0  0  0  0  0  0
   -4.8580   20.6030  -31.9770 C   0  0  0  0  0  0  0  0  0  0  0  0
   -5.7270   20.4833  -31.3133 H   0  0  0  0  0  0  0  0  0  0  0  0
   -3.9165   20.4610  -31.4262 H   0  0  0  0  0  0  0  0  0  0  0  0
   -4.8640   22.0290  -32.5520 C   0  0  0  0  0  0  0  0  0  0  0  0
   -3.9851   22.1547  -33.2014 H   0  0  0  0  0  0  0  0  0  0  0  0
   -5.7971   22.1652  -33.1184 H   0  0  0  0  0  0  0  0  0  0  0  0
   -4.8200   23.0700  -31.4660 C   0  0  0  0  0  0  0  0  0  0  0  0
   -3.6310   23.3260  -30.8580 N   0  0  0  0  0  0  0  0  0  0  0  0
   -3.5250   24.1940  -29.8200 C   0  0  0  0  0  0  0  0  0  0  0  0
   -2.3520   24.3840  -29.2870 N   0  0  0  0  0  0  0  0  0  0  0  0
   -2.0450   25.1590  -28.1170 C   0  0  0  0  0  0  0  0  0  0  0  0
   -2.6820   24.9050  -26.8900 C   0  0  0  0  0  0  0  0  0  0  0  0
   -3.4633   24.1333  -26.8270 H   0  0  0  0  0  0  0  0  0  0  0  0
   -2.3250   25.6310  -25.7490 C   0  0  0  0  0  0  0  0  0  0  0  0
   -2.8384   25.4426  -24.7946 H   0  0  0  0  0  0  0  0  0  0  0  0
   -1.3160   26.5960  -25.8210 C   0  0  0  0  0  0  0  0  0  0  0  0
   -0.9680   27.2970  -24.7140 F   0  0  0  0  0  0  0  0  0  0  0  0
   -0.6560   26.8270  -27.0320 C   0  0  0  0  0  0  0  0  0  0  0  0
    0.1437   27.5803  -27.0871 H   0  0  0  0  0  0  0  0  0  0  0  0
   -1.0120   26.1010  -28.1730 C   0  0  0  0  0  0  0  0  0  0  0  0
   -0.4773   26.2714  -29.1191 H   0  0  0  0  0  0  0  0  0  0  0  0
   -4.6390   24.8580  -29.3840 N   0  0  0  0  0  0  0  0  0  0  0  0
   -4.5890   25.5760  -28.6300 H   0  0  0  0  0  0  0  0  0  0  0  0
   -5.8510   24.6290  -29.9550 C   0  0  0  0  0  0  0  0  0  0  0  0
   -6.7386   25.1635  -29.5856 H   0  0  0  0  0  0  0  0  0  0  0  0
   -5.9770   23.7210  -31.0060 C   0  0  0  0  0  0  0  0  0  0  0  0
   -7.5700   23.4160  -31.6900 Cl  0  0  0  0  0  0  0  0  0  0  0  0
   -6.1510   19.0140  -33.5570 C   0  0  0  0  0  0  0  0  0  0  0  0
   -7.5070   19.5000  -33.0950 C   0  0  0  0  0  0  0  0  0  0  0  0
   -8.1924   19.5264  -33.9549 H   0  0  0  0  0  0  0  0  0  0  0  0
   -7.3923   20.5057  -32.6645 H   0  0  0  0  0  0  0  0  0  0  0  0
   -8.0810   18.5750  -32.0270 C   0  0  0  0  0  0  0  0  0  0  0  0
   -7.8361   18.9697  -31.0299 H   0  0  0  0  0  0  0  0  0  0  0  0
   -9.1736   18.5176  -32.1404 H   0  0  0  0  0  0  0  0  0  0  0  0
   -7.6473   17.5705  -32.1404 H   0  0  0  0  0  0  0  0  0  0  0  0
   -6.1120   18.0240  -34.5560 C   0  0  0  0  0  0  0  0  0  0  0  0
   -7.0532   17.6154  -34.9526 H   0  0  0  0  0  0  0  0  0  0  0  0
  1  2  1  0
  2  3  2  0
  3  4  1  0
  3  5  1  0
  5  6  1  0
  5  7  2  0
  7  8  1  0
  8  9  1  0
  8 10  1  0
  8 11  1  0
 11 12  1  0
 11 13  1  0
 11 14  1  0
 14 15  2  0
 15 16  1  0
 16 17  2  0
 17 18  1  0
 18 19  2  0
 19 20  1  0
 19 21  1  0
 21 22  1  0
 21 23  2  0
 23 24  1  0
 23 25  1  0
 25 26  1  0
 25 27  2  0
 27 28  1  0
 16 29  1  0
 29 30  1  0
 29 31  1  0
 31 32  1  0
 31 33  2  0
 33 34  1  0
  7 35  1  0
 35 36  1  0
 36 37  1  0
 36 38  1  0
 36 39  1  0
 39 40  1  0
 39 41  1  0
 39 42  1  0
 35 43  2  0
 43 44  1  0
 43  2  1  0
 33 14  1  0
 27 18  1  0
M  END
>  <UniqueID>  (31) 
29

>  <SMILES>  (31) 
CCc1ccccc1CCc1n/c(=N/c2ccc(F)cc2)[nH]cc1Cl

>  <Energy>  (31) 
51.14863836980906

>  <Genealogy>  (31) 
CCc1ccccc1CCc1n/c(=N/c2ccc(F)cc2)[nH]cc1Cl (cis-trans isomerization)
CCc1ccccc1CCc1n/c(=N/c2ccc(F)cc2)[nH]cc1Cl (3D coordinates assigned)
CCc1ccccc1CCc1n/c(=N/c2ccc(F)cc2)[nH]cc1Cl (optimized conformer: 51.14863836980906 kcal/mol)

>  <smiles>  (31) 
CCc1ccccc1CCc1nc(=Nc2ccc(F)cc2)[nH]cc1Cl

>  <score_type>  (31) 
oracle

>  <origin>  (31) 
adgpu

>  <m_score__min__energy>  (31) 
-9.2300000000000004

>  <m_primary>  (31) 
energy

$$$$
31:0
     RDKit          3D

 34 36  0  0  0  0  0  0  0  0999 V2000
   -1.4651   22.2262  -26.9119 H   0  0  0  0  0  0  0  0  0  0  0  0
   -1.9530   22.8660  -27.6620 C   0  0  0  0  0  0  0  0  0  0  0  0
   -1.3820   24.0900  -28.0100 C   0  0  0  0  0  0  0  0  0  0  0  0
   -0.4403   24.4108  -27.5406 H   0  0  0  0  0  0  0  0  0  0  0  0
   -2.0060   24.9090  -28.9550 C   0  0  0  0  0  0  0  0  0  0  0  0
   -1.5570   25.8774  -29.2207 H   0  0  0  0  0  0  0  0  0  0  0  0
   -3.2060   24.5020  -29.5690 C   0  0  0  0  0  0  0  0  0  0  0  0
   -3.8670   25.3030  -30.5140 O   0  0  0  0  0  0  0  0  0  0  0  0
   -5.2510   25.6380  -30.4610 C   0  0  0  0  0  0  0  0  0  0  0  0
   -5.5696   25.7151  -29.4110 H   0  0  0  0  0  0  0  0  0  0  0  0
   -5.4146   26.6017  -30.9655 H   0  0  0  0  0  0  0  0  0  0  0  0
   -5.8372   24.8558  -30.9655 H   0  0  0  0  0  0  0  0  0  0  0  0
   -3.7630   23.2530  -29.2400 C   0  0  0  0  0  0  0  0  0  0  0  0
   -5.0080   22.8680  -29.8490 N   0  0  0  0  0  0  0  0  0  0  0  0
   -5.1830   21.9880  -30.7950 C   0  0  0  0  0  0  0  0  0  0  0  0
   -4.1160   21.3840  -31.3840 N   0  0  0  0  0  0  0  0  0  0  0  0
   -4.2570   20.4990  -32.3690 N   0  0  0  0  0  0  0  0  0  0  0  0
   -5.4770   20.1470  -32.8550 C   0  0  0  0  0  0  0  0  0  0  0  0
   -5.5360   19.1390  -33.9660 C   0  0  0  0  0  0  0  0  0  0  0  0
   -5.5953   18.1266  -33.5398 H   0  0  0  0  0  0  0  0  0  0  0  0
   -6.4246   19.3284  -34.5861 H   0  0  0  0  0  0  0  0  0  0  0  0
   -4.6314   19.2234  -34.5861 H   0  0  0  0  0  0  0  0  0  0  0  0
   -6.6320   20.7410  -32.3040 C   0  0  0  0  0  0  0  0  0  0  0  0
   -7.9290   20.4280  -32.7650 C   0  0  0  0  0  0  0  0  0  0  0  0
   -8.0582   19.6973  -33.5770 H   0  0  0  0  0  0  0  0  0  0  0  0
   -9.0490   21.0390  -32.1980 C   0  0  0  0  0  0  0  0  0  0  0  0
  -10.0550   20.7885  -32.5657 H   0  0  0  0  0  0  0  0  0  0  0  0
   -8.8970   21.9650  -31.1680 C   0  0  0  0  0  0  0  0  0  0  0  0
   -9.7835   22.4422  -30.7248 H   0  0  0  0  0  0  0  0  0  0  0  0
   -7.6250   22.2890  -30.6970 C   0  0  0  0  0  0  0  0  0  0  0  0
   -7.5140   23.0223  -29.8846 H   0  0  0  0  0  0  0  0  0  0  0  0
   -6.4790   21.6830  -31.2550 C   0  0  0  0  0  0  0  0  0  0  0  0
   -3.1430   22.4510  -28.2640 C   0  0  0  0  0  0  0  0  0  0  0  0
   -3.5978   21.4924  -27.9737 H   0  0  0  0  0  0  0  0  0  0  0  0
  1  2  1  0
  2  3  2  0
  3  4  1  0
  3  5  1  0
  5  6  1  0
  5  7  2  0
  7  8  1  0
  8  9  1  0
  9 10  1  0
  9 11  1  0
  9 12  1  0
  7 13  1  0
 13 14  1  0
 14 15  2  0
 15 16  1  0
 16 17  1  0
 17 18  2  0
 18 19  1  0
 19 20  1  0
 19 21  1  0
 19 22  1  0
 18 23  1  0
 23 24  2  0
 24 25  1  0
 24 26  1  0
 26 27  1  0
 26 28  2  0
 28 29  1  0
 28 30  1  0
 30 31  1  0
 30 32  2  0
 13 33  2  0
 33 34  1  0
 33  2  1  0
 32 15  1  0
 32 23  1  0
M  CHG  1  16  -1
M  END
>  <UniqueID>  (32) 
30

>  <SMILES>  (32) 
COc1ccccc1/N=c1\[n-]nc(C)c2ccccc12

>  <Energy>  (32) 
49.385649341031026

>  <Genealogy>  (32) 
COc1ccccc1N=c1[n-]nc(C)c2ccccc12 (protonated)
COc1ccccc1/N=c1\[n-]nc(C)c2ccccc12 (cis-trans isomerization)
COc1ccccc1/N=c1\[n-]nc(C)c2ccccc12 (3D coordinates assigned)
COc1ccccc1/N=c1\[n-]nc(C)c2ccccc12 (optimized conformer: 49.385649341031026 kcal/mol)

>  <smiles>  (32) 
COc1ccccc1N=c1[nH]nc(C)c2ccccc12

>  <score_type>  (32) 
oracle

>  <origin>  (32) 
adgpu

>  <m_score__min__energy>  (32) 
-8.1099999999999994

>  <m_primary>  (32) 
energy

$$$$
32:0
     RDKit          3D

 34 36  0  0  0  0  0  0  0  0999 V2000
   -1.6610   25.1770  -28.0440 C   0  0  0  0  0  0  0  0  0  0  0  0
   -2.3790   25.2990  -29.2660 O   0  0  0  0  0  0  0  0  0  0  0  0
   -3.1180   24.2640  -29.8590 C   0  0  0  0  0  0  0  0  0  0  0  0
   -2.5500   23.0140  -30.1670 C   0  0  0  0  0  0  0  0  0  0  0  0
   -3.3230   22.0110  -30.7570 C   0  0  0  0  0  0  0  0  0  0  0  0
   -4.6750   22.2400  -31.0480 C   0  0  0  0  0  0  0  0  0  0  0  0
   -5.4590   21.2380  -31.6410 C   0  0  0  0  0  0  0  0  0  0  0  0
   -6.8180   21.4680  -31.9230 C   0  0  0  0  0  0  0  0  0  0  0  0
   -7.6510   20.4200  -32.5620 C   0  0  0  0  0  0  0  0  0  0  0  0
   -8.9010   20.5860  -32.6160 O   0  0  0  0  0  0  0  0  0  0  0  0
   -7.0680   19.1850  -33.1390 C   0  0  0  0  0  0  0  0  0  0  0  0
   -7.4280   17.9150  -32.6480 C   0  0  0  0  0  0  0  0  0  0  0  0
   -6.8840   16.7580  -33.2120 C   0  0  0  0  0  0  0  0  0  0  0  0
   -5.9840   16.8530  -34.2780 C   0  0  0  0  0  0  0  0  0  0  0  0
   -5.6340   18.1060  -34.7840 C   0  0  0  0  0  0  0  0  0  0  0  0
   -6.1750   19.2670  -34.2230 C   0  0  0  0  0  0  0  0  0  0  0  0
   -7.3760   22.7240  -31.6320 C   0  0  0  0  0  0  0  0  0  0  0  0
   -6.6020   23.7270  -31.0420 C   0  0  0  0  0  0  0  0  0  0  0  0
   -5.2520   23.4940  -30.7440 C   0  0  0  0  0  0  0  0  0  0  0  0
   -4.4670   24.4950  -30.1510 C   0  0  0  0  0  0  0  0  0  0  0  0
   -2.3542   25.2948  -27.1981 H   0  0  0  0  0  0  0  0  0  0  0  0
   -1.1872   24.1855  -27.9945 H   0  0  0  0  0  0  0  0  0  0  0  0
   -0.8863   25.9564  -27.9945 H   0  0  0  0  0  0  0  0  0  0  0  0
   -1.4900   22.8253  -29.9417 H   0  0  0  0  0  0  0  0  0  0  0  0
   -2.8689   21.0376  -30.9942 H   0  0  0  0  0  0  0  0  0  0  0  0
   -5.0074   20.2656  -31.8871 H   0  0  0  0  0  0  0  0  0  0  0  0
   -8.1420   17.8333  -31.8152 H   0  0  0  0  0  0  0  0  0  0  0  0
   -7.1643   15.7705  -32.8166 H   0  0  0  0  0  0  0  0  0  0  0  0
   -5.5524   15.9415  -34.7172 H   0  0  0  0  0  0  0  0  0  0  0  0
   -4.9306   18.1803  -35.6265 H   0  0  0  0  0  0  0  0  0  0  0  0
   -5.9006   20.2506  -34.6318 H   0  0  0  0  0  0  0  0  0  0  0  0
   -8.4318   22.9198  -31.8707 H   0  0  0  0  0  0  0  0  0  0  0  0
   -7.0537   24.7029  -30.8106 H   0  0  0  0  0  0  0  0  0  0  0  0
   -4.9164   25.4705  -29.9135 H   0  0  0  0  0  0  0  0  0  0  0  0
  1  2  1  0
  2  3  1  0
  3  4  2  0
  4  5  1  0
  5  6  2  0
  6  7  1  0
  7  8  2  0
  8  9  1  0
  9 10  2  0
  9 11  1  0
 11 12  2  0
 12 13  1  0
 13 14  2  0
 14 15  1  0
 15 16  2  0
  8 17  1  0
 17 18  2  0
 18 19  1  0
 19 20  2  0
 20  3  1  0
 19  6  1  0
 16 11  1  0
  1 21  1  0
  1 22  1  0
  1 23  1  0
  4 24  1  0
  5 25  1  0
  7 26  1  0
 12 27  1  0
 13 28  1  0
 14 29  1  0
 15 30  1  0
 16 31  1  0
 17 32  1  0
 18 33  1  0
 20 34  1  0
M  END
>  <UniqueID>  (33) 
31

>  <SMILES>  (33) 
COc1ccc2cc(C(=O)c3ccccc3)ccc2c1

>  <Energy>  (33) 
45.346599361915715

>  <Genealogy>  (33) 
COc1ccc2cc(C(=O)c3ccccc3)ccc2c1 (3D coordinates assigned)
COc1ccc2cc(C(=O)c3ccccc3)ccc2c1 (optimized conformer: 45.346599361915715 kcal/mol)

>  <smiles>  (33) 
COc1ccc2cc(C(=O)c3ccccc3)ccc2c1

>  <score_type>  (33) 
oracle

>  <origin>  (33) 
adgpu

>  <m_score__min__energy>  (33) 
-8.5899999999999999

>  <m_primary>  (33) 
energy

$$$$
33:0
     RDKit          3D

 24 25  0  0  0  0  0  0  0  0999 V2000
   -1.2830   21.8000  -26.1510 H   0  0  0  0  0  0  0  0  0  0  0  0
   -1.8980   22.0630  -26.9530 N   0  0  0  0  0  0  0  0  0  0  0  0
   -1.8250   23.1980  -27.5780 C   0  0  0  0  0  0  0  0  0  0  0  0
   -2.6990   23.4390  -28.6440 C   0  0  0  0  0  0  0  0  0  0  0  0
   -3.4260   22.6704  -28.9452 H   0  0  0  0  0  0  0  0  0  0  0  0
   -2.6460   24.6650  -29.3290 C   0  0  0  0  0  0  0  0  0  0  0  0
   -3.5050   24.9370  -30.4470 N   0  0  0  0  0  0  0  0  0  0  0  0
   -3.1970   25.6710  -31.1240 H   0  0  0  0  0  0  0  0  0  0  0  0
   -4.7610   24.2800  -30.6920 C   0  0  0  0  0  0  0  0  0  0  0  0
   -5.9710   24.8140  -30.2100 C   0  0  0  0  0  0  0  0  0  0  0  0
   -5.9632   25.7386  -29.6142 H   0  0  0  0  0  0  0  0  0  0  0  0
   -7.1830   24.1730  -30.4860 C   0  0  0  0  0  0  0  0  0  0  0  0
   -8.1245   24.5873  -30.0961 H   0  0  0  0  0  0  0  0  0  0  0  0
   -7.2000   23.0060  -31.2570 C   0  0  0  0  0  0  0  0  0  0  0  0
   -8.7220   22.2060  -31.6040 Cl  0  0  0  0  0  0  0  0  0  0  0  0
   -6.0040   22.4850  -31.7600 C   0  0  0  0  0  0  0  0  0  0  0  0
   -6.0174   21.5711  -32.3721 H   0  0  0  0  0  0  0  0  0  0  0  0
   -4.7910   23.1240  -31.4860 C   0  0  0  0  0  0  0  0  0  0  0  0
   -3.8544   22.7177  -31.8956 H   0  0  0  0  0  0  0  0  0  0  0  0
   -1.7150   25.5890  -28.9700 N   0  0  0  0  0  0  0  0  0  0  0  0
   -0.8520   25.3840  -27.9410 C   0  0  0  0  0  0  0  0  0  0  0  0
   -0.1208   26.1620  -27.6764 H   0  0  0  0  0  0  0  0  0  0  0  0
   -0.8890   24.1890  -27.2170 C   0  0  0  0  0  0  0  0  0  0  0  0
    0.2500   23.9750  -25.8900 Cl  0  0  0  0  0  0  0  0  0  0  0  0
  1  2  1  0
  2  3  2  0
  3  4  1  0
  4  5  1  0
  4  6  2  0
  6  7  1  0
  7  8  1  0
  7  9  1  0
  9 10  2  0
 10 11  1  0
 10 12  1  0
 12 13  1  0
 12 14  2  0
 14 15  1  0
 14 16  1  0
 16 17  1  0
 16 18  2  0
 18 19  1  0
  6 20  1  0
 20 21  1  0
 21 22  1  0
 21 23  2  0
 23 24  1  0
 23  3  1  0
 18  9  1  0
M  CHG  1  20  -1
M  END
>  <UniqueID>  (34) 
32

>  <SMILES>  (34) 
[H]/N=c1/cc(Nc2ccc(Cl)cc2)[n-]cc1Cl

>  <Energy>  (34) 
32.76314295721785

>  <Genealogy>  (34) 
N=c1cc(Nc2ccc(Cl)cc2)[n-]cc1Cl (protonated)
[H]/N=c1/cc(Nc2ccc(Cl)cc2)[n-]cc1Cl (cis-trans isomerization)
[H]/N=c1/cc(Nc2ccc(Cl)cc2)[n-]cc1Cl (3D coordinates assigned)
[H]/N=c1/cc(Nc2ccc(Cl)cc2)[n-]cc1Cl (optimized conformer: 32.76314295721785 kcal/mol)

>  <smiles>  (34) 
N=c1cc(Nc2ccc(Cl)cc2)[nH]cc1Cl

>  <score_type>  (34) 
oracle

>  <origin>  (34) 
adgpu

>  <m_score__min__energy>  (34) 
-8.3499999999999996

>  <m_primary>  (34) 
energy

$$$$
34:0
     RDKit          3D

 30 31  0  0  0  0  0  0  0  0999 V2000
   -5.7320   25.6280  -30.0900 C   0  0  0  0  0  0  0  0  0  0  0  0
   -6.0000   24.3840  -30.8740 C   0  0  0  0  0  0  0  0  0  0  0  0
   -7.2700   23.7960  -30.8640 C   0  0  0  0  0  0  0  0  0  0  0  0
   -7.4650   22.6130  -31.5850 C   0  0  0  0  0  0  0  0  0  0  0  0
   -8.8010   21.9410  -31.5900 C   0  0  0  0  0  0  0  0  0  0  0  0
   -6.4220   22.0510  -32.2510 N   0  0  0  0  0  0  0  0  0  0  0  0
   -5.1920   22.6280  -32.2400 C   0  0  0  0  0  0  0  0  0  0  0  0
   -3.8260   21.8470  -33.0930 S   0  0  0  0  0  0  0  0  0  0  0  0
   -3.8470   20.3390  -32.0610 C   0  0  0  0  0  0  0  0  0  0  0  0
   -4.9280   19.3930  -32.5110 C   0  0  0  0  0  0  0  0  0  0  0  0
   -4.9420   18.9120  -33.8300 C   0  0  0  0  0  0  0  0  0  0  0  0
   -5.9210   18.0020  -34.2390 C   0  0  0  0  0  0  0  0  0  0  0  0
   -6.8900   17.5610  -33.3320 C   0  0  0  0  0  0  0  0  0  0  0  0
   -6.8820   18.0320  -32.0170 C   0  0  0  0  0  0  0  0  0  0  0  0
   -5.9070   18.9460  -31.6060 C   0  0  0  0  0  0  0  0  0  0  0  0
   -4.9900   23.7850  -31.5570 N   0  0  0  0  0  0  0  0  0  0  0  0
   -5.7808   25.4014  -29.0147 H   0  0  0  0  0  0  0  0  0  0  0  0
   -4.7310   26.0099  -30.3392 H   0  0  0  0  0  0  0  0  0  0  0  0
   -6.4870   26.3882  -30.3392 H   0  0  0  0  0  0  0  0  0  0  0  0
   -8.0969   24.2540  -30.3015 H   0  0  0  0  0  0  0  0  0  0  0  0
   -9.1317   21.7747  -30.5541 H   0  0  0  0  0  0  0  0  0  0  0  0
   -9.5306   22.5794  -32.1098 H   0  0  0  0  0  0  0  0  0  0  0  0
   -8.7234   20.9747  -32.1098 H   0  0  0  0  0  0  0  0  0  0  0  0
   -2.8723   19.8353  -32.1400 H   0  0  0  0  0  0  0  0  0  0  0  0
   -4.0469   20.6298  -31.0191 H   0  0  0  0  0  0  0  0  0  0  0  0
   -4.1788   19.2530  -34.5450 H   0  0  0  0  0  0  0  0  0  0  0  0
   -5.9293   17.6324  -35.2750 H   0  0  0  0  0  0  0  0  0  0  0  0
   -7.6586   16.8431  -33.6543 H   0  0  0  0  0  0  0  0  0  0  0  0
   -7.6436   17.6834  -31.3040 H   0  0  0  0  0  0  0  0  0  0  0  0
   -5.9058   19.3169  -30.5704 H   0  0  0  0  0  0  0  0  0  0  0  0
  1  2  1  0
  2  3  2  0
  3  4  1  0
  4  5  1  0
  4  6  2  0
  6  7  1  0
  7  8  1  0
  8  9  1  0
  9 10  1  0
 10 11  2  0
 11 12  1  0
 12 13  2  0
 13 14  1  0
 14 15  2  0
  7 16  2  0
 16  2  1  0
 15 10  1  0
  1 17  1  0
  1 18  1  0
  1 19  1  0
  3 20  1  0
  5 21  1  0
  5 22  1  0
  5 23  1  0
  9 24  1  0
  9 25  1  0
 11 26  1  0
 12 27  1  0
 13 28  1  0
 14 29  1  0
 15 30  1  0
M  END
>  <UniqueID>  (35) 
33

>  <SMILES>  (35) 
Cc1cc(C)nc(SCc2ccccc2)n1

>  <Energy>  (35) 
23.185775508013567

>  <Genealogy>  (35) 
Cc1cc(C)nc(SCc2ccccc2)n1 (3D coordinates assigned)
Cc1cc(C)nc(SCc2ccccc2)n1 (optimized conformer: 23.185775508013567 kcal/mol)

>  <smiles>  (35) 
Cc1cc(C)nc(SCc2ccccc2)n1

>  <score_type>  (35) 
oracle

>  <origin>  (35) 
adgpu

>  <m_score__min__energy>  (35) 
-6.6699999999999999

>  <m_primary>  (35) 
energy

$$$$
35:0
     RDKit          3D

 28 29  0  0  0  0  0  0  0  0999 V2000
   -3.0710   22.3780  -31.3700 C   0  0  0  0  0  0  0  0  0  0  0  0
   -4.3370   23.0950  -31.0300 C   0  0  0  0  0  0  0  0  0  0  0  0
   -5.5280   22.3790  -30.8560 C   0  0  0  0  0  0  0  0  0  0  0  0
   -6.7000   23.0780  -30.5440 C   0  0  0  0  0  0  0  0  0  0  0  0
   -7.9880   22.3420  -30.3140 C   0  0  0  0  0  0  0  0  0  0  0  0
   -8.8740   22.1590  -31.8960 S   0  0  0  0  0  0  0  0  0  0  0  0
   -8.1670   20.5470  -32.2430 C   0  0  0  0  0  0  0  0  0  0  0  0
   -8.7350   19.3960  -31.6810 C   0  0  0  0  0  0  0  0  0  0  0  0
   -8.1840   18.1400  -31.9540 C   0  0  0  0  0  0  0  0  0  0  0  0
   -7.0690   18.0310  -32.7910 C   0  0  0  0  0  0  0  0  0  0  0  0
   -6.5030   19.1780  -33.3550 C   0  0  0  0  0  0  0  0  0  0  0  0
   -7.0520   20.4360  -33.0830 C   0  0  0  0  0  0  0  0  0  0  0  0
   -6.6400   24.4680  -30.3930 C   0  0  0  0  0  0  0  0  0  0  0  0
   -5.4150   25.1170  -30.5810 C   0  0  0  0  0  0  0  0  0  0  0  0
   -5.3400   26.3670  -30.4560 O   0  0  0  0  0  0  0  0  0  0  0  0
   -4.3250   24.4190  -30.8890 O   0  0  0  0  0  0  0  0  0  0  0  0
   -2.5550   22.0857  -30.4436 H   0  0  0  0  0  0  0  0  0  0  0  0
   -3.3056   21.4787  -31.9584 H   0  0  0  0  0  0  0  0  0  0  0  0
   -2.4204   23.0417  -31.9584 H   0  0  0  0  0  0  0  0  0  0  0  0
   -5.5423   21.2843  -30.9629 H   0  0  0  0  0  0  0  0  0  0  0  0
   -7.7724   21.3471  -29.8973 H   0  0  0  0  0  0  0  0  0  0  0  0
   -8.6126   22.9081  -29.6073 H   0  0  0  0  0  0  0  0  0  0  0  0
   -9.6141   19.4803  -31.0252 H   0  0  0  0  0  0  0  0  0  0  0  0
   -8.6281   17.2369  -31.5099 H   0  0  0  0  0  0  0  0  0  0  0  0
   -6.6372   17.0423  -33.0056 H   0  0  0  0  0  0  0  0  0  0  0  0
   -5.6257   19.0916  -34.0129 H   0  0  0  0  0  0  0  0  0  0  0  0
   -6.6077   21.3380  -33.5291 H   0  0  0  0  0  0  0  0  0  0  0  0
   -7.5416   25.0411  -30.1307 H   0  0  0  0  0  0  0  0  0  0  0  0
  1  2  1  0
  2  3  2  0
  3  4  1  0
  4  5  1  0
  5  6  1  0
  6  7  1  0
  7  8  2  0
  8  9  1  0
  9 10  2  0
 10 11  1  0
 11 12  2  0
  4 13  2  0
 13 14  1  0
 14 15  2  0
 14 16  1  0
 16  2  1  0
 12  7  1  0
  1 17  1  0
  1 18  1  0
  1 19  1  0
  3 20  1  0
  5 21  1  0
  5 22  1  0
  8 23  1  0
  9 24  1  0
 10 25  1  0
 11 26  1  0
 12 27  1  0
 13 28  1  0
M  END
>  <UniqueID>  (36) 
34

>  <SMILES>  (36) 
Cc1cc(CSc2ccccc2)cc(=O)o1

>  <Energy>  (36) 
23.920580311080823

>  <Genealogy>  (36) 
Cc1cc(CSc2ccccc2)cc(=O)o1 (3D coordinates assigned)
Cc1cc(CSc2ccccc2)cc(=O)o1 (optimized conformer: 23.920580311080823 kcal/mol)

>  <smiles>  (36) 
Cc1cc(CSc2ccccc2)cc(=O)o1

>  <score_type>  (36) 
oracle

>  <origin>  (36) 
adgpu

>  <m_score__min__energy>  (36) 
-7.6399999999999997

>  <m_primary>  (36) 
energy

$$$$
36:0
     RDKit          3D

 21 22  0  0  0  0  0  0  0  0999 V2000
   -6.5390   19.1340  -33.4730 C   0  0  0  0  0  0  0  0  0  0  0  0
   -7.2440   20.2240  -32.7210 C   0  0  0  0  0  0  0  0  0  0  0  0
   -8.6420   20.2140  -32.6090 C   0  0  0  0  0  0  0  0  0  0  0  0
   -9.3010   21.2480  -31.9410 C   0  0  0  0  0  0  0  0  0  0  0  0
   -8.5730   22.3050  -31.3900 C   0  0  0  0  0  0  0  0  0  0  0  0
   -7.1730   22.3400  -31.5080 C   0  0  0  0  0  0  0  0  0  0  0  0
   -6.3980   23.4580  -30.9360 C   0  0  0  0  0  0  0  0  0  0  0  0
   -6.7100   24.0920  -29.7820 N   0  0  0  0  0  0  0  0  0  0  0  0
   -5.7820   25.0200  -29.6240 N   0  0  0  0  0  0  0  0  0  0  0  0
   -4.9480   24.9220  -30.6680 C   0  0  0  0  0  0  0  0  0  0  0  0
   -3.9410   25.6570  -30.8410 O   0  0  0  0  0  0  0  0  0  0  0  0
   -5.3120   23.9660  -31.4850 O   0  0  0  0  0  0  0  0  0  0  0  0
   -6.5150   21.2960  -32.1820 C   0  0  0  0  0  0  0  0  0  0  0  0
   -6.0844   18.4311  -32.7594 H   0  0  0  0  0  0  0  0  0  0  0  0
   -7.2620   18.5981  -34.1055 H   0  0  0  0  0  0  0  0  0  0  0  0
   -5.7537   19.5736  -34.1055 H   0  0  0  0  0  0  0  0  0  0  0  0
   -9.2213   19.3888  -33.0489 H   0  0  0  0  0  0  0  0  0  0  0  0
  -10.3969   21.2301  -31.8484 H   0  0  0  0  0  0  0  0  0  0  0  0
   -9.0980   23.1141  -30.8611 H   0  0  0  0  0  0  0  0  0  0  0  0
   -5.7310   25.6900  -28.8240 H   0  0  0  0  0  0  0  0  0  0  0  0
   -5.4203   21.3194  -32.2878 H   0  0  0  0  0  0  0  0  0  0  0  0
  1  2  1  0
  2  3  2  0
  3  4  1  0
  4  5  2  0
  5  6  1  0
  6  7  1  0
  7  8  2  0
  8  9  1  0
  9 10  1  0
 10 11  2  0
 10 12  1  0
  6 13  2  0
 13  2  1  0
 12  7  1  0
  1 14  1  0
  1 15  1  0
  1 16  1  0
  3 17  1  0
  4 18  1  0
  5 19  1  0
  9 20  1  0
 13 21  1  0
M  END
>  <UniqueID>  (37) 
35

>  <SMILES>  (37) 
Cc1cccc(-c2n[nH]c(=O)o2)c1

>  <Energy>  (37) 
57.50548425540669

>  <Genealogy>  (37) 
Cc1cccc(-c2n[nH]c(=O)o2)c1 (3D coordinates assigned)
Cc1cccc(-c2n[nH]c(=O)o2)c1 (optimized conformer: 57.50548425540669 kcal/mol)

>  <smiles>  (37) 
Cc1cccc(-c2n[nH]c(=O)o2)c1

>  <score_type>  (37) 
oracle

>  <origin>  (37) 
adgpu

>  <m_score__min__energy>  (37) 
-6.8799999999999999

>  <m_primary>  (37) 
energy

$$$$
37:0
     RDKit          3D

 38 40  0  0  0  0  0  0  0  0999 V2000
   -1.2140   21.2070  -27.7190 C   0  0  0  0  0  0  0  0  0  0  0  0
   -0.3690   21.5750  -28.8680 N   0  0  0  0  0  0  0  0  0  0  0  0
   -0.1620   23.0370  -28.9530 C   0  0  0  0  0  0  0  0  0  0  0  0
   -1.4610   23.7770  -29.3130 C   0  0  0  0  0  0  0  0  0  0  0  0
   -2.2360   23.0220  -30.3020 N   0  0  0  0  0  0  0  0  0  0  0  0
   -3.5790   23.4420  -30.6060 C   0  0  0  0  0  0  0  0  0  0  0  0
   -4.5540   22.5160  -31.0120 C   0  0  0  0  0  0  0  0  0  0  0  0
   -5.8550   22.9630  -31.2880 C   0  0  0  0  0  0  0  0  0  0  0  0
   -6.9090   22.0090  -31.7190 C   0  0  0  0  0  0  0  0  0  0  0  0
   -6.5630   20.7960  -32.3460 C   0  0  0  0  0  0  0  0  0  0  0  0
   -7.5560   19.8990  -32.7520 C   0  0  0  0  0  0  0  0  0  0  0  0
   -8.9030   20.2010  -32.5380 C   0  0  0  0  0  0  0  0  0  0  0  0
   -9.8640   19.3300  -32.9310 F   0  0  0  0  0  0  0  0  0  0  0  0
   -9.2600   21.4000  -31.9170 C   0  0  0  0  0  0  0  0  0  0  0  0
   -8.2710   22.3010  -31.5100 C   0  0  0  0  0  0  0  0  0  0  0  0
   -6.1380   24.3270  -31.1380 C   0  0  0  0  0  0  0  0  0  0  0  0
   -5.1250   25.1910  -30.7160 C   0  0  0  0  0  0  0  0  0  0  0  0
   -5.3650   26.4180  -30.5730 O   0  0  0  0  0  0  0  0  0  0  0  0
   -3.9060   24.7260  -30.4670 O   0  0  0  0  0  0  0  0  0  0  0  0
   -1.5560   21.9780  -31.0770 C   0  0  0  0  0  0  0  0  0  0  0  0
   -0.8660   20.9740  -30.1340 C   0  0  0  0  0  0  0  0  0  0  0  0
   -0.6826   21.4384  -26.7841 H   0  0  0  0  0  0  0  0  0  0  0  0
   -2.1538   21.7773  -27.7574 H   0  0  0  0  0  0  0  0  0  0  0  0
   -1.4366   20.1304  -27.7574 H   0  0  0  0  0  0  0  0  0  0  0  0
    0.1985   23.4028  -27.9803 H   0  0  0  0  0  0  0  0  0  0  0  0
    0.5745   23.2328  -29.7463 H   0  0  0  0  0  0  0  0  0  0  0  0
   -2.0660   23.9059  -28.4034 H   0  0  0  0  0  0  0  0  0  0  0  0
   -1.2006   24.7554  -29.7430 H   0  0  0  0  0  0  0  0  0  0  0  0
   -4.3000   21.4505  -31.1126 H   0  0  0  0  0  0  0  0  0  0  0  0
   -5.5041   20.5526  -32.5175 H   0  0  0  0  0  0  0  0  0  0  0  0
   -7.2760   18.9541  -33.2406 H   0  0  0  0  0  0  0  0  0  0  0  0
  -10.3210   21.6360  -31.7478 H   0  0  0  0  0  0  0  0  0  0  0  0
   -8.5588   23.2445  -31.0232 H   0  0  0  0  0  0  0  0  0  0  0  0
   -7.1460   24.7128  -31.3501 H   0  0  0  0  0  0  0  0  0  0  0  0
   -2.2944   21.4463  -31.6952 H   0  0  0  0  0  0  0  0  0  0  0  0
   -0.7950   22.4473  -31.7178 H   0  0  0  0  0  0  0  0  0  0  0  0
   -1.5887   20.1842  -29.8813 H   0  0  0  0  0  0  0  0  0  0  0  0
    0.0140   20.5882  -30.6695 H   0  0  0  0  0  0  0  0  0  0  0  0
  1  2  1  0
  2  3  1  0
  3  4  1  0
  4  5  1  0
  5  6  1  0
  6  7  2  0
  7  8  1  0
  8  9  1  0
  9 10  2  0
 10 11  1  0
 11 12  2  0
 12 13  1  0
 12 14  1  0
 14 15  2  0
  8 16  2  0
 16 17  1  0
 17 18  2  0
 17 19  1  0
  5 20  1  0
 20 21  1  0
 21  2  1  0
 19  6  1  0
 15  9  1  0
  1 22  1  0
  1 23  1  0
  1 24  1  0
  3 25  1  0
  3 26  1  0
  4 27  1  0
  4 28  1  0
  7 29  1  0
 10 30  1  0
 11 31  1  0
 14 32  1  0
 15 33  1  0
 16 34  1  0
 20 35  1  0
 20 36  1  0
 21 37  1  0
 21 38  1  0
M  END
>  <UniqueID>  (38) 
36

>  <SMILES>  (38) 
CN1CCN(c2cc(-c3ccc(F)cc3)cc(=O)o2)CC1

>  <Energy>  (38) 
56.28511820808712

>  <Genealogy>  (38) 
CN1CCN(c2cc(-c3ccc(F)cc3)cc(=O)o2)CC1 (3D coordinates assigned)
CN1CCN(c2cc(-c3ccc(F)cc3)cc(=O)o2)CC1 (nonaromatic ring conformer: 56.28511820808712 kcal/mol)

>  <smiles>  (38) 
CN1CCN(c2cc(-c3ccc(F)cc3)cc(=O)o2)CC1

>  <score_type>  (38) 
oracle

>  <origin>  (38) 
adgpu

>  <m_score__min__energy>  (38) 
-7.79

>  <m_primary>  (38) 
energy

$$$$
38:0
     RDKit          3D

 36 38  0  0  0  0  0  0  0  0999 V2000
   -4.5540   19.9100  -31.2710 C   0  0  0  0  0  0  0  0  0  0  0  0
   -5.9650   19.6880  -31.7450 C   0  0  0  0  0  0  0  0  0  0  0  0
   -6.3060   18.4680  -32.3490 C   0  0  0  0  0  0  0  0  0  0  0  0
   -7.6080   18.2410  -32.8010 C   0  0  0  0  0  0  0  0  0  0  0  0
   -8.5800   19.2320  -32.6640 C   0  0  0  0  0  0  0  0  0  0  0  0
   -8.2540   20.4600  -32.0800 C   0  0  0  0  0  0  0  0  0  0  0  0
   -9.4980   21.6980  -31.9520 Cl  0  0  0  0  0  0  0  0  0  0  0  0
   -6.9440   20.7020  -31.6280 C   0  0  0  0  0  0  0  0  0  0  0  0
   -6.6160   21.9700  -31.0470 N   0  0  0  0  0  0  0  0  0  0  0  0
   -7.2350   22.4830  -29.9970 N   0  0  0  0  0  0  0  0  0  0  0  0
   -6.7310   23.6710  -29.6970 N   0  0  0  0  0  0  0  0  0  0  0  0
   -5.7580   23.9290  -30.5970 C   0  0  0  0  0  0  0  0  0  0  0  0
   -4.9310   25.1520  -30.6000 C   0  0  0  0  0  0  0  0  0  0  0  0
   -5.4750   26.2710  -30.7960 O   0  0  0  0  0  0  0  0  0  0  0  0
   -3.5060   25.0940  -30.4620 N   0  0  0  0  0  0  0  0  0  0  0  0
   -2.7750   24.1640  -29.6510 C   0  0  0  0  0  0  0  0  0  0  0  0
   -2.4000   24.4640  -28.3300 C   0  0  0  0  0  0  0  0  0  0  0  0
   -1.6640   23.5390  -27.5870 C   0  0  0  0  0  0  0  0  0  0  0  0
   -1.2930   22.3290  -28.1770 C   0  0  0  0  0  0  0  0  0  0  0  0
   -1.6410   22.0650  -29.4650 N   0  0  0  0  0  0  0  0  0  0  0  0
   -2.3590   22.9490  -30.2080 C   0  0  0  0  0  0  0  0  0  0  0  0
   -5.6820   22.8500  -31.4590 C   0  0  0  0  0  0  0  0  0  0  0  0
   -4.7700   22.6800  -32.6380 C   0  0  0  0  0  0  0  0  0  0  0  0
   -4.5329   19.9133  -30.1712 H   0  0  0  0  0  0  0  0  0  0  0  0
   -3.9093   19.1022  -31.6477 H   0  0  0  0  0  0  0  0  0  0  0  0
   -4.1885   20.8767  -31.6477 H   0  0  0  0  0  0  0  0  0  0  0  0
   -5.5425   17.6850  -32.4673 H   0  0  0  0  0  0  0  0  0  0  0  0
   -7.8674   17.2785  -33.2661 H   0  0  0  0  0  0  0  0  0  0  0  0
   -9.6055   19.0470  -33.0162 H   0  0  0  0  0  0  0  0  0  0  0  0
   -2.6862   25.4269  -27.8819 H   0  0  0  0  0  0  0  0  0  0  0  0
   -1.3794   23.7611  -26.5479 H   0  0  0  0  0  0  0  0  0  0  0  0
   -0.7191   21.5891  -27.5998 H   0  0  0  0  0  0  0  0  0  0  0  0
   -2.6139   22.7084  -31.2507 H   0  0  0  0  0  0  0  0  0  0  0  0
   -3.7459   22.4891  -32.2848 H   0  0  0  0  0  0  0  0  0  0  0  0
   -5.1123   21.8302  -33.2468 H   0  0  0  0  0  0  0  0  0  0  0  0
   -4.7831   23.5961  -33.2468 H   0  0  0  0  0  0  0  0  0  0  0  0
  1  2  1  0
  2  3  2  0
  3  4  1  0
  4  5  2  0
  5  6  1  0
  6  7  1  0
  6  8  2  0
  8  9  1  0
  9 10  1  0
 10 11  2  0
 11 12  1  0
 12 13  1  0
 13 14  2  0
 13 15  1  0
 15 16  1  0
 16 17  2  0
 17 18  1  0
 18 19  2  0
 19 20  1  0
 20 21  2  0
 12 22  2  0
 22 23  1  0
  8  2  1  0
 22  9  1  0
 21 16  1  0
  1 24  1  0
  1 25  1  0
  1 26  1  0
  3 27  1  0
  4 28  1  0
  5 29  1  0
 17 30  1  0
 18 31  1  0
 19 32  1  0
 21 33  1  0
 23 34  1  0
 23 35  1  0
 23 36  1  0
M  CHG  1  15  -1
M  END
>  <UniqueID>  (39) 
37

>  <SMILES>  (39) 
Cc1cccc(Cl)c1-n1nnc(C(=O)[N-]c2cccnc2)c1C

>  <Energy>  (39) 
86.75172642110331

>  <Genealogy>  (39) 
Cc1cccc(Cl)c1-n1nnc(C(=O)[N-]c2cccnc2)c1C (protonated)
Cc1cccc(Cl)c1-n1nnc(C(=O)[N-]c2cccnc2)c1C (3D coordinates assigned)
Cc1cccc(Cl)c1-n1nnc(C(=O)[N-]c2cccnc2)c1C (optimized conformer: 86.75172642110331 kcal/mol)

>  <smiles>  (39) 
Cc1cccc(Cl)c1-n1nnc(C(=O)Nc2cccnc2)c1C

>  <score_type>  (39) 
oracle

>  <origin>  (39) 
adgpu

>  <m_score__min__energy>  (39) 
-10.279999999999999

>  <m_primary>  (39) 
energy

$$$$
39:0
     RDKit          3D

 51 53  0  0  1  0  0  0  0  0999 V2000
   -3.7730   21.6750  -31.7680 C   0  0  0  0  0  0  0  0  0  0  0  0
   -5.0740   22.2490  -31.3610 C   0  0  0  0  0  0  0  0  0  0  0  0
   -6.2140   21.5090  -31.5810 C   0  0  0  0  0  0  0  0  0  0  0  0
   -7.4530   22.0250  -31.2070 C   0  0  0  0  0  0  0  0  0  0  0  0
   -7.5320   23.2830  -30.6150 C   0  0  0  0  0  0  0  0  0  0  0  0
   -6.3660   24.0130  -30.4040 C   0  0  0  0  0  0  0  0  0  0  0  0
   -6.4680   25.5990  -29.6590 Cl  0  0  0  0  0  0  0  0  0  0  0  0
   -5.1380   23.4970  -30.7760 C   0  0  0  0  0  0  0  0  0  0  0  0
   -3.9820   24.2850  -30.5370 N   0  0  0  0  0  0  0  0  0  0  0  0
   -3.5060   24.4970  -29.3710 C   0  0  0  0  0  0  0  0  0  0  0  0
   -4.1110   23.9570  -28.2920 N   0  0  0  0  0  0  0  0  0  0  0  0
   -3.5410   24.2320  -27.0970 C   0  0  0  0  0  0  0  0  0  0  0  0
   -2.4240   25.0030  -26.9480 C   0  0  0  0  0  0  0  0  0  0  0  0
   -1.6580   25.3420  -25.2460 Br  0  0  0  0  0  0  0  0  0  0  0  0
   -1.8320   25.5350  -28.0500 C   0  0  0  0  0  0  0  0  0  0  0  0
   -0.8010   26.2750  -28.0720 N   0  0  0  0  0  0  0  0  0  0  0  0
   -0.0800   26.6800  -26.9340 C   0  0  0  0  0  0  0  0  0  0  0  0
   -0.4230   27.9200  -26.3860 C   0  0  0  0  0  0  0  0  0  0  0  0
    0.2370   28.4590  -25.3040 C   0  0  0  0  0  0  0  0  0  0  0  0
    1.2690   27.7210  -24.7670 C   0  0  0  0  0  0  0  0  0  0  0  0
    1.6090   26.4980  -25.3050 C   0  0  0  0  0  0  0  0  0  0  0  0
    0.9710   25.9300  -26.3850 C   0  0  0  0  0  0  0  0  0  0  0  0
    1.3780   24.4230  -27.1040 S   0  0  0  0  0  0  0  0  0  0  0  0
    2.8800   24.3380  -27.3380 O   0  0  0  0  0  0  0  0  0  0  0  0
    1.0590   23.2600  -26.1750 O   0  0  0  0  0  0  0  0  0  0  0  0
    0.6380   24.0670  -28.5900 N   0  0  0  0  0  0  0  0  0  0  0  0
   -0.2970   22.9780  -28.5810 C   0  0  0  0  0  0  0  0  0  0  0  0
   -0.8500   22.7420  -30.0100 C   0  0  0  0  0  0  0  0  0  0  0  0
    0.4370   21.7050  -28.2400 C   0  0  0  0  0  0  0  0  0  0  0  0
   -2.4060   25.2580  -29.2590 N   0  0  0  0  0  0  0  0  0  0  0  0
   -3.1894   21.4175  -30.8718 H   0  0  0  0  0  0  0  0  0  0  0  0
   -3.9436   20.7686  -32.3674 H   0  0  0  0  0  0  0  0  0  0  0  0
   -3.2185   22.4120  -32.3674 H   0  0  0  0  0  0  0  0  0  0  0  0
   -6.1470   20.5160  -32.0494 H   0  0  0  0  0  0  0  0  0  0  0  0
   -8.3680   21.4392  -31.3792 H   0  0  0  0  0  0  0  0  0  0  0  0
   -8.5070   23.6959  -30.3169 H   0  0  0  0  0  0  0  0  0  0  0  0
   -4.9590   23.3730  -28.3990 H   0  0  0  0  0  0  0  0  0  0  0  0
   -4.0040   23.8102  -26.1927 H   0  0  0  0  0  0  0  0  0  0  0  0
   -1.2515   28.4865  -26.8363 H   0  0  0  0  0  0  0  0  0  0  0  0
   -0.0475   29.4362  -24.8867 H   0  0  0  0  0  0  0  0  0  0  0  0
    1.8261   28.1106  -23.9022 H   0  0  0  0  0  0  0  0  0  0  0  0
    2.4393   25.9429  -24.8441 H   0  0  0  0  0  0  0  0  0  0  0  0
    0.1340   24.9270  -28.8970 H   0  0  0  0  0  0  0  0  0  0  0  0
   -1.0951   23.2205  -27.8639 H   0  0  0  0  0  0  0  0  0  0  0  0
   -1.8600   22.3110  -29.9458 H   0  0  0  0  0  0  0  0  0  0  0  0
   -0.8937   23.6999  -30.5491 H   0  0  0  0  0  0  0  0  0  0  0  0
   -0.1887   22.0477  -30.5491 H   0  0  0  0  0  0  0  0  0  0  0  0
    0.4983   21.5987  -27.1469 H   0  0  0  0  0  0  0  0  0  0  0  0
   -0.1041   20.8454  -28.6622 H   0  0  0  0  0  0  0  0  0  0  0  0
    1.4520   21.7427  -28.6622 H   0  0  0  0  0  0  0  0  0  0  0  0
   -1.9750   25.6550  -30.1460 H   0  0  0  0  0  0  0  0  0  0  0  0
  1  2  1  0
  2  3  2  0
  3  4  1  0
  4  5  2  0
  5  6  1  0
  6  7  1  0
  6  8  2  0
  8  9  1  0
  9 10  2  0
 10 11  1  0
 11 12  1  0
 12 13  2  0
 13 14  1  0
 13 15  1  0
 15 16  2  0
 16 17  1  0
 17 18  2  0
 18 19  1  0
 19 20  2  0
 20 21  1  0
 21 22  2  0
 22 23  1  0
 23 24  2  0
 23 25  2  0
 23 26  1  0
 26 27  1  0
 27 28  1  0
 27 29  1  0
 15 30  1  0
  8  2  1  0
 30 10  1  0
 22 17  1  0
  1 31  1  0
  1 32  1  0
  1 33  1  0
  3 34  1  0
  4 35  1  0
  5 36  1  0
 11 37  1  0
 12 38  1  0
 18 39  1  0
 19 40  1  0
 20 41  1  0
 21 42  1  0
 26 43  1  0
 27 44  1  0
 28 45  1  0
 28 46  1  0
 28 47  1  0
 29 48  1  0
 29 49  1  0
 29 50  1  0
 30 51  1  0
M  END
>  <smiles>  (40) 
Cc1cccc(Cl)c1N=c1[nH]cc(Br)c(=Nc2ccccc2S(=O)(=O)NC(C)C)[nH]1

>  <score_type>  (40) 
oracle

>  <origin>  (40) 
adgpu

>  <m_score__min__energy>  (40) 
-10.220000000000001

>  <m_primary>  (40) 
energy

$$$$
40:0
     RDKit          3D

 38 40  0  0  0  0  0  0  0  0999 V2000
   -0.1250   19.7090  -30.9290 C   0  0  0  0  0  0  0  0  0  0  0  0
    0.1200   20.2280  -32.3230 C   0  0  0  0  0  0  0  0  0  0  0  0
    1.3100   19.8610  -32.9780 C   0  0  0  0  0  0  0  0  0  0  0  0
    1.5920   20.3390  -34.2580 C   0  0  0  0  0  0  0  0  0  0  0  0
    0.6910   21.1830  -34.9040 C   0  0  0  0  0  0  0  0  0  0  0  0
   -0.5010   21.5470  -34.2760 C   0  0  0  0  0  0  0  0  0  0  0  0
   -0.8100   21.0710  -32.9870 C   0  0  0  0  0  0  0  0  0  0  0  0
   -2.1060   21.4650  -32.3800 C   0  0  0  0  0  0  0  0  0  0  0  0
   -2.1940   21.6250  -31.1320 O   0  0  0  0  0  0  0  0  0  0  0  0
   -3.2600   21.6730  -33.2120 N   0  0  0  0  0  0  0  0  0  0  0  0
   -4.6050   21.7580  -32.7030 C   0  0  0  0  0  0  0  0  0  0  0  0
   -5.5610   20.8060  -33.0590 C   0  0  0  0  0  0  0  0  0  0  0  0
   -6.8660   20.9070  -32.5810 C   0  0  0  0  0  0  0  0  0  0  0  0
   -7.8190   19.9380  -32.9350 C   0  0  0  0  0  0  0  0  0  0  0  0
   -9.1260   20.0330  -32.4610 C   0  0  0  0  0  0  0  0  0  0  0  0
   -9.4930   21.0900  -31.6320 C   0  0  0  0  0  0  0  0  0  0  0  0
   -8.5570   22.0650  -31.2740 C   0  0  0  0  0  0  0  0  0  0  0  0
   -7.2210   21.9940  -31.7430 C   0  0  0  0  0  0  0  0  0  0  0  0
   -6.2740   22.9470  -31.4130 N   0  0  0  0  0  0  0  0  0  0  0  0
   -6.6390   24.0890  -30.5490 C   0  0  0  0  0  0  0  0  0  0  0  0
   -4.9850   22.8360  -31.8870 C   0  0  0  0  0  0  0  0  0  0  0  0
   -4.1160   23.7010  -31.5850 O   0  0  0  0  0  0  0  0  0  0  0  0
    0.2248   20.4500  -30.1951 H   0  0  0  0  0  0  0  0  0  0  0  0
   -1.2015   19.5326  -30.7874 H   0  0  0  0  0  0  0  0  0  0  0  0
    0.4229   18.7657  -30.7874 H   0  0  0  0  0  0  0  0  0  0  0  0
    2.0242   19.1914  -32.4765 H   0  0  0  0  0  0  0  0  0  0  0  0
    2.5277   20.0489  -34.7583 H   0  0  0  0  0  0  0  0  0  0  0  0
    0.9196   21.5630  -35.9106 H   0  0  0  0  0  0  0  0  0  0  0  0
   -1.2070   22.2131  -34.7935 H   0  0  0  0  0  0  0  0  0  0  0  0
   -3.1000   21.8630  -34.2270 H   0  0  0  0  0  0  0  0  0  0  0  0
   -5.2832   19.9719  -33.7201 H   0  0  0  0  0  0  0  0  0  0  0  0
   -7.5327   19.1010  -33.5888 H   0  0  0  0  0  0  0  0  0  0  0  0
   -9.8688   19.2720  -32.7421 H   0  0  0  0  0  0  0  0  0  0  0  0
  -10.5248   21.1582  -31.2568 H   0  0  0  0  0  0  0  0  0  0  0  0
   -8.8606   22.8966  -30.6211 H   0  0  0  0  0  0  0  0  0  0  0  0
   -6.5450   23.7948  -29.4933 H   0  0  0  0  0  0  0  0  0  0  0  0
   -5.9664   24.9346  -30.7553 H   0  0  0  0  0  0  0  0  0  0  0  0
   -7.6774   24.3877  -30.7553 H   0  0  0  0  0  0  0  0  0  0  0  0
  1  2  1  0
  2  3  2  0
  3  4  1  0
  4  5  2  0
  5  6  1  0
  6  7  2  0
  7  8  1  0
  8  9  2  0
  8 10  1  0
 10 11  1  0
 11 12  2  0
 12 13  1  0
 13 14  2  0
 14 15  1  0
 15 16  2  0
 16 17  1  0
 17 18  2  0
 18 19  1  0
 19 20  1  0
 19 21  1  0
 21 22  2  0
  7  2  1  0
 21 11  1  0
 18 13  1  0
  1 23  1  0
  1 24  1  0
  1 25  1  0
  3 26  1  0
  4 27  1  0
  5 28  1  0
  6 29  1  0
 10 30  1  0
 12 31  1  0
 14 32  1  0
 15 33  1  0
 16 34  1  0
 17 35  1  0
 20 36  1  0
 20 37  1  0
 20 38  1  0
M  END
>  <UniqueID>  (41) 
38

>  <SMILES>  (41) 
Cc1ccccc1C(=O)Nc1cc2ccccc2n(C)c1=O

>  <Energy>  (41) 
59.5949270647022

>  <Genealogy>  (41) 
Cc1ccccc1C(=O)Nc1cc2ccccc2n(C)c1=O (3D coordinates assigned)
Cc1ccccc1C(=O)Nc1cc2ccccc2n(C)c1=O (optimized conformer: 59.5949270647022 kcal/mol)

>  <smiles>  (41) 
Cc1ccccc1C(=O)Nc1cc2ccccc2n(C)c1=O

>  <score_type>  (41) 
oracle

>  <origin>  (41) 
adgpu

>  <m_score__min__energy>  (41) 
-8.1199999999999992

>  <m_primary>  (41) 
energy

$$$$
41:0
     RDKit          3D

 39 42  0  0  0  0  0  0  0  0999 V2000
   -0.5010   24.7660  -28.5440 N   0  0  0  0  0  0  0  0  0  0  0  0
   -1.5170   24.3430  -29.2020 C   0  0  0  0  0  0  0  0  0  0  0  0
   -2.7340   24.8860  -29.1720 N   0  0  0  0  0  0  0  0  0  0  0  0
   -3.7960   24.4440  -29.8590 C   0  0  0  0  0  0  0  0  0  0  0  0
   -4.8950   25.0770  -29.7250 N   0  0  0  0  0  0  0  0  0  0  0  0
   -3.6630   23.3150  -30.6980 C   0  0  0  0  0  0  0  0  0  0  0  0
   -4.6080   22.7260  -31.4650 C   0  0  0  0  0  0  0  0  0  0  0  0
   -4.2210   21.6350  -32.1940 C   0  0  0  0  0  0  0  0  0  0  0  0
   -2.4840   21.3850  -31.8270 S   0  0  0  0  0  0  0  0  0  0  0  0
   -2.4180   22.7770  -30.7160 C   0  0  0  0  0  0  0  0  0  0  0  0
   -1.3630   23.2560  -30.0000 N   0  0  0  0  0  0  0  0  0  0  0  0
   -5.1380   20.8750  -33.0950 C   0  0  0  0  0  0  0  0  0  0  0  0
   -6.3740   20.7510  -32.4600 N   0  0  0  0  0  0  0  0  0  0  0  0
   -7.2890   19.7920  -32.9620 C   0  0  0  0  0  0  0  0  0  0  0  0
   -6.5930   18.5010  -33.1560 C   0  0  0  0  0  0  0  0  0  0  0  0
   -6.3860   17.6360  -32.0950 C   0  0  0  0  0  0  0  0  0  0  0  0
   -5.7340   16.4300  -32.2890 C   0  0  0  0  0  0  0  0  0  0  0  0
   -5.2620   16.0290  -33.5280 C   0  0  0  0  0  0  0  0  0  0  0  0
   -5.4700   16.8940  -34.5890 C   0  0  0  0  0  0  0  0  0  0  0  0
   -6.1170   18.0930  -34.4010 C   0  0  0  0  0  0  0  0  0  0  0  0
   -6.8840   21.8150  -31.7150 C   0  0  0  0  0  0  0  0  0  0  0  0
   -6.0760   23.0800  -31.6550 C   0  0  0  0  0  0  0  0  0  0  0  0
    0.4390   24.3150  -28.5920 H   0  0  0  0  0  0  0  0  0  0  0  0
   -2.8510   25.7320  -28.5480 H   0  0  0  0  0  0  0  0  0  0  0  0
   -5.0010   25.9110  -29.1110 H   0  0  0  0  0  0  0  0  0  0  0  0
   -0.4470   22.7980  -30.0630 H   0  0  0  0  0  0  0  0  0  0  0  0
   -5.2604   21.4174  -34.0441 H   0  0  0  0  0  0  0  0  0  0  0  0
   -4.7204   19.8799  -33.3082 H   0  0  0  0  0  0  0  0  0  0  0  0
   -8.1126   19.6604  -32.2448 H   0  0  0  0  0  0  0  0  0  0  0  0
   -7.6930   20.1392  -33.9244 H   0  0  0  0  0  0  0  0  0  0  0  0
   -6.7421   17.9088  -31.0906 H   0  0  0  0  0  0  0  0  0  0  0  0
   -5.5851   15.7646  -31.4258 H   0  0  0  0  0  0  0  0  0  0  0  0
   -4.7455   15.0672  -33.6629 H   0  0  0  0  0  0  0  0  0  0  0  0
   -5.1140   16.6193  -35.5929 H   0  0  0  0  0  0  0  0  0  0  0  0
   -6.2645   18.7556  -35.2666 H   0  0  0  0  0  0  0  0  0  0  0  0
   -7.8652   22.0725  -32.1403 H   0  0  0  0  0  0  0  0  0  0  0  0
   -6.8973   21.4459  -30.6789 H   0  0  0  0  0  0  0  0  0  0  0  0
   -6.2009   23.6415  -32.5926 H   0  0  0  0  0  0  0  0  0  0  0  0
   -6.4195   23.6990  -30.8130 H   0  0  0  0  0  0  0  0  0  0  0  0
  1  2  2  3
  2  3  1  0
  3  4  1  0
  4  5  2  3
  4  6  1  0
  6  7  1  0
  7  8  2  0
  8  9  1  0
  9 10  1  0
 10 11  1  0
  8 12  1  0
 12 13  1  0
 13 14  1  0
 14 15  1  0
 15 16  2  0
 16 17  1  0
 17 18  2  0
 18 19  1  0
 19 20  2  0
 13 21  1  0
 21 22  1  0
 11  2  1  0
 20 15  1  0
 10  6  2  0
 22  7  1  0
  1 23  1  0
  3 24  1  0
  5 25  1  0
 11 26  1  0
 12 27  1  0
 12 28  1  0
 14 29  1  0
 14 30  1  0
 16 31  1  0
 17 32  1  0
 18 33  1  0
 19 34  1  0
 20 35  1  0
 21 36  1  0
 21 37  1  0
 22 38  1  0
 22 39  1  0
M  END
>  <smiles>  (42) 
N=c1[nH]c(=N)c2c3c(sc2[nH]1)CN(Cc1ccccc1)CC3

>  <score_type>  (42) 
oracle

>  <origin>  (42) 
adgpu

>  <m_score__min__energy>  (42) 
-8.4100000000000001

>  <m_primary>  (42) 
energy

$$$$
42:0
     RDKit          3D

 39 40  0  0  0  0  0  0  0  0999 V2000
   -6.8220   25.2640  -29.9330 C   0  0  0  0  0  0  0  0  0  0  0  0
   -5.3670   25.2310  -29.8190 N   0  0  0  0  0  0  0  0  0  0  0  0
   -4.5570   24.1180  -30.2530 C   0  0  0  0  0  0  0  0  0  0  0  0
   -5.1330   23.0160  -30.9170 C   0  0  0  0  0  0  0  0  0  0  0  0
   -4.3440   21.9350  -31.3270 C   0  0  0  0  0  0  0  0  0  0  0  0
   -5.0890   20.5670  -32.1500 S   0  0  0  0  0  0  0  0  0  0  0  0
   -4.2510   19.3340  -31.9510 O   0  0  0  0  0  0  0  0  0  0  0  0
   -5.1720   20.8780  -33.6190 O   0  0  0  0  0  0  0  0  0  0  0  0
   -6.6910   20.2890  -31.5090 N   0  0  0  0  0  0  0  0  0  0  0  0
   -7.0520   18.8500  -31.5780 C   0  0  0  0  0  0  0  0  0  0  0  0
   -8.0170   18.5260  -32.7270 C   0  0  0  0  0  0  0  0  0  0  0  0
   -9.3170   19.3400  -32.6090 C   0  0  0  0  0  0  0  0  0  0  0  0
   -9.0980   20.7200  -31.9640 C   0  0  0  0  0  0  0  0  0  0  0  0
   -7.6570   21.2000  -32.1620 C   0  0  0  0  0  0  0  0  0  0  0  0
   -2.9680   21.9520  -31.0890 C   0  0  0  0  0  0  0  0  0  0  0  0
   -2.3820   23.0370  -30.4360 C   0  0  0  0  0  0  0  0  0  0  0  0
   -3.1660   24.1270  -30.0100 C   0  0  0  0  0  0  0  0  0  0  0  0
   -2.5980   25.2270  -29.3480 O   0  0  0  0  0  0  0  0  0  0  0  0
   -1.9190   25.1590  -28.0980 C   0  0  0  0  0  0  0  0  0  0  0  0
   -7.2684   25.2741  -28.9277 H   0  0  0  0  0  0  0  0  0  0  0  0
   -7.1266   26.1693  -30.4786 H   0  0  0  0  0  0  0  0  0  0  0  0
   -7.1673   24.3735  -30.4786 H   0  0  0  0  0  0  0  0  0  0  0  0
   -4.9080   26.0670  -29.3920 H   0  0  0  0  0  0  0  0  0  0  0  0
   -6.2149   23.0055  -31.1152 H   0  0  0  0  0  0  0  0  0  0  0  0
   -6.1314   18.2644  -31.7182 H   0  0  0  0  0  0  0  0  0  0  0  0
   -7.5633   18.5945  -30.6382 H   0  0  0  0  0  0  0  0  0  0  0  0
   -7.5293   18.7657  -33.6834 H   0  0  0  0  0  0  0  0  0  0  0  0
   -8.2703   17.4567  -32.6776 H   0  0  0  0  0  0  0  0  0  0  0  0
   -9.7341   19.4848  -33.6165 H   0  0  0  0  0  0  0  0  0  0  0  0
  -10.0041   18.7760  -31.9611 H   0  0  0  0  0  0  0  0  0  0  0  0
   -9.7846   21.4450  -32.4254 H   0  0  0  0  0  0  0  0  0  0  0  0
   -9.2924   20.6355  -30.8846 H   0  0  0  0  0  0  0  0  0  0  0  0
   -7.4382   21.2415  -33.2392 H   0  0  0  0  0  0  0  0  0  0  0  0
   -7.5575   22.1958  -31.7054 H   0  0  0  0  0  0  0  0  0  0  0  0
   -2.3443   21.1075  -31.4173 H   0  0  0  0  0  0  0  0  0  0  0  0
   -1.2975   23.0412  -30.2521 H   0  0  0  0  0  0  0  0  0  0  0  0
   -2.6499   25.2322  -27.2792 H   0  0  0  0  0  0  0  0  0  0  0  0
   -1.3808   24.2025  -28.0246 H   0  0  0  0  0  0  0  0  0  0  0  0
   -1.2018   25.9898  -28.0246 H   0  0  0  0  0  0  0  0  0  0  0  0
  1  2  1  0
  2  3  1  0
  3  4  2  0
  4  5  1  0
  5  6  1  0
  6  7  2  0
  6  8  2  0
  6  9  1  0
  9 10  1  0
 10 11  1  0
 11 12  1  0
 12 13  1  0
 13 14  1  0
  5 15  2  0
 15 16  1  0
 16 17  2  0
 17 18  1  0
 18 19  1  0
 17  3  1  0
 14  9  1  0
  1 20  1  0
  1 21  1  0
  1 22  1  0
  2 23  1  0
  4 24  1  0
 10 25  1  0
 10 26  1  0
 11 27  1  0
 11 28  1  0
 12 29  1  0
 12 30  1  0
 13 31  1  0
 13 32  1  0
 14 33  1  0
 14 34  1  0
 15 35  1  0
 16 36  1  0
 19 37  1  0
 19 38  1  0
 19 39  1  0
M  END
>  <UniqueID>  (43) 
39

>  <SMILES>  (43) 
CNc1cc(S(=O)(=O)N2CCCCC2)ccc1OC

>  <Energy>  (43) 
41.55161928864574

>  <Genealogy>  (43) 
CNc1cc(S(=O)(=O)N2CCCCC2)ccc1OC (3D coordinates assigned)
CNc1cc(S(=O)(=O)N2CCCCC2)ccc1OC (nonaromatic ring conformer: 41.55161928864574 kcal/mol)

>  <smiles>  (43) 
CNc1cc(S(=O)(=O)N2CCCCC2)ccc1OC

>  <score_type>  (43) 
oracle

>  <origin>  (43) 
adgpu

>  <m_score__min__energy>  (43) 
-7.9199999999999999

>  <m_primary>  (43) 
energy

$$$$
43:0
     RDKit          3D

 23 25  0  0  0  0  0  0  0  0999 V2000
   -6.7100   25.0610  -29.8770 C   0  0  0  0  0  0  0  0  0  0  0  0
   -5.3720   25.3920  -30.0890 C   0  0  0  0  0  0  0  0  0  0  0  0
   -4.5840   24.5870  -30.8480 N   0  0  0  0  0  0  0  0  0  0  0  0
   -5.0610   23.4480  -31.4170 C   0  0  0  0  0  0  0  0  0  0  0  0
   -6.4020   23.0740  -31.2320 C   0  0  0  0  0  0  0  0  0  0  0  0
   -6.9380   21.8420  -31.8420 C   0  0  0  0  0  0  0  0  0  0  0  0
   -8.2470   21.5910  -32.0310 N   0  0  0  0  0  0  0  0  0  0  0  0
   -8.3220   20.3970  -32.6000 N   0  0  0  0  0  0  0  0  0  0  0  0
   -7.0530   19.9650  -32.7340 C   0  0  0  0  0  0  0  0  0  0  0  0
   -6.6740   18.6730  -33.3250 C   0  0  0  0  0  0  0  0  0  0  0  0
   -5.7390   18.5510  -34.3630 C   0  0  0  0  0  0  0  0  0  0  0  0
   -5.5290   17.2410  -34.7700 C   0  0  0  0  0  0  0  0  0  0  0  0
   -6.5060   16.2430  -33.8360 S   0  0  0  0  0  0  0  0  0  0  0  0
   -7.2060   17.4570  -32.9090 C   0  0  0  0  0  0  0  0  0  0  0  0
   -6.1990   20.8460  -32.2730 O   0  0  0  0  0  0  0  0  0  0  0  0
   -7.2270   23.8970  -30.4500 C   0  0  0  0  0  0  0  0  0  0  0  0
   -7.3522   25.7106  -29.2642 H   0  0  0  0  0  0  0  0  0  0  0  0
   -4.9544   26.3058  -29.6412 H   0  0  0  0  0  0  0  0  0  0  0  0
   -4.3946   22.8176  -32.0240 H   0  0  0  0  0  0  0  0  0  0  0  0
   -5.2214   19.4116  -34.8118 H   0  0  0  0  0  0  0  0  0  0  0  0
   -4.8430   16.9134  -35.5650 H   0  0  0  0  0  0  0  0  0  0  0  0
   -7.9528   17.3152  -32.1139 H   0  0  0  0  0  0  0  0  0  0  0  0
   -8.2806   23.6254  -30.2884 H   0  0  0  0  0  0  0  0  0  0  0  0
  1  2  2  0
  2  3  1  0
  3  4  2  0
  4  5  1  0
  5  6  1  0
  6  7  2  0
  7  8  1  0
  8  9  2  0
  9 10  1  0
 10 11  1  0
 11 12  2  0
 12 13  1  0
 13 14  1  0
  9 15  1  0
  5 16  2  0
 16  1  1  0
 15  6  1  0
 14 10  2  0
  1 17  1  0
  2 18  1  0
  4 19  1  0
 11 20  1  0
 12 21  1  0
 14 22  1  0
 16 23  1  0
M  END
>  <UniqueID>  (44) 
40

>  <SMILES>  (44) 
c1cncc(-c2nnc(-c3ccsc3)o2)c1

>  <Energy>  (44) 
86.07953254318976

>  <Genealogy>  (44) 
c1cncc(-c2nnc(-c3ccsc3)o2)c1 (3D coordinates assigned)
c1cncc(-c2nnc(-c3ccsc3)o2)c1 (optimized conformer: 86.07953254318976 kcal/mol)

>  <smiles>  (44) 
c1cncc(-c2nnc(-c3ccsc3)o2)c1

>  <score_type>  (44) 
oracle

>  <origin>  (44) 
adgpu

>  <m_score__min__energy>  (44) 
-6.8200000000000003

>  <m_primary>  (44) 
energy

$$$$
44:0
     RDKit          3D

 21 22  0  0  0  0  0  0  0  0999 V2000
   -2.4380   24.6000  -28.5690 C   0  0  0  0  0  0  0  0  0  0  0  0
   -3.5410   24.4240  -29.5570 C   0  0  0  0  0  0  0  0  0  0  0  0
   -4.3600   23.3240  -29.6760 C   0  0  0  0  0  0  0  0  0  0  0  0
   -5.1900   23.6500  -30.7350 C   0  0  0  0  0  0  0  0  0  0  0  0
   -6.2500   22.7880  -31.3130 C   0  0  0  0  0  0  0  0  0  0  0  0
   -7.5980   23.0590  -31.0030 C   0  0  0  0  0  0  0  0  0  0  0  0
   -8.6220   22.2590  -31.5130 C   0  0  0  0  0  0  0  0  0  0  0  0
   -8.3200   21.1790  -32.3420 C   0  0  0  0  0  0  0  0  0  0  0  0
   -6.9920   20.9000  -32.6670 C   0  0  0  0  0  0  0  0  0  0  0  0
   -5.9530   21.6930  -32.1640 C   0  0  0  0  0  0  0  0  0  0  0  0
   -4.1730   21.2660  -32.7410 Br  0  0  0  0  0  0  0  0  0  0  0  0
   -4.8510   24.8670  -31.2070 N   0  0  0  0  0  0  0  0  0  0  0  0
   -3.8630   25.3000  -30.4780 O   0  0  0  0  0  0  0  0  0  0  0  0
   -2.8453   24.5350  -27.5493 H   0  0  0  0  0  0  0  0  0  0  0  0
   -1.6860   23.8105  -28.7145 H   0  0  0  0  0  0  0  0  0  0  0  0
   -1.9690   25.5843  -28.7145 H   0  0  0  0  0  0  0  0  0  0  0  0
   -4.3559   22.4042  -29.0728 H   0  0  0  0  0  0  0  0  0  0  0  0
   -7.8459   23.9103  -30.3520 H   0  0  0  0  0  0  0  0  0  0  0  0
   -9.6694   22.4810  -31.2604 H   0  0  0  0  0  0  0  0  0  0  0  0
   -9.1282   20.5475  -32.7394 H   0  0  0  0  0  0  0  0  0  0  0  0
   -6.7590   20.0493  -33.3244 H   0  0  0  0  0  0  0  0  0  0  0  0
  1  2  1  0
  2  3  2  0
  3  4  1  0
  4  5  1  0
  5  6  2  0
  6  7  1  0
  7  8  2  0
  8  9  1  0
  9 10  2  0
 10 11  1  0
  4 12  2  0
 12 13  1  0
 13  2  1  0
 10  5  1  0
  1 14  1  0
  1 15  1  0
  1 16  1  0
  3 17  1  0
  6 18  1  0
  7 19  1  0
  8 20  1  0
  9 21  1  0
M  END
>  <UniqueID>  (45) 
41

>  <SMILES>  (45) 
Cc1cc(-c2ccccc2Br)no1

>  <Energy>  (45) 
55.676817396294844

>  <Genealogy>  (45) 
Cc1cc(-c2ccccc2Br)no1 (3D coordinates assigned)
Cc1cc(-c2ccccc2Br)no1 (optimized conformer: 55.676817396294844 kcal/mol)

>  <smiles>  (45) 
Cc1cc(-c2ccccc2Br)no1

>  <score_type>  (45) 
oracle

>  <origin>  (45) 
adgpu

>  <m_score__min__energy>  (45) 
-7.54

>  <m_primary>  (45) 
energy

$$$$
45:0
     RDKit          3D

 40 41  0  0  0  0  0  0  0  0999 V2000
   -1.4020   19.0390  -27.0940 C   0  0  0  0  0  0  0  0  0  0  0  0
   -2.4070   20.1210  -27.4770 C   0  0  0  0  0  0  0  0  0  0  0  0
   -2.0660   20.7110  -28.7720 N   0  0  0  0  0  0  0  0  0  0  0  0
   -2.9650   21.4990  -29.5800 C   0  0  0  0  0  0  0  0  0  0  0  0
   -2.9090   22.8980  -29.4930 C   0  0  0  0  0  0  0  0  0  0  0  0
   -3.7650   23.6990  -30.2590 C   0  0  0  0  0  0  0  0  0  0  0  0
   -3.6890   25.1240  -30.1660 N   0  0  0  0  0  0  0  0  0  0  0  0
   -4.6900   23.0980  -31.1200 C   0  0  0  0  0  0  0  0  0  0  0  0
   -4.7690   21.7010  -31.2170 C   0  0  0  0  0  0  0  0  0  0  0  0
   -5.7250   21.0870  -32.1030 N   0  0  0  0  0  0  0  0  0  0  0  0
   -5.2780   20.0410  -33.0300 C   0  0  0  0  0  0  0  0  0  0  0  0
   -6.4480   19.5170  -33.8750 C   0  0  0  0  0  0  0  0  0  0  0  0
   -7.6710   19.3330  -33.0630 N   0  0  0  0  0  0  0  0  0  0  0  0
   -7.5000   18.2600  -32.0620 C   0  0  0  0  0  0  0  0  0  0  0  0
   -8.1430   20.5960  -32.4290 C   0  0  0  0  0  0  0  0  0  0  0  0
   -7.0550   21.6810  -32.2790 C   0  0  0  0  0  0  0  0  0  0  0  0
   -3.9070   20.9070  -30.4420 C   0  0  0  0  0  0  0  0  0  0  0  0
   -1.3376   18.9697  -25.9981 H   0  0  0  0  0  0  0  0  0  0  0  0
   -1.7299   18.0723  -27.5039 H   0  0  0  0  0  0  0  0  0  0  0  0
   -0.4138   19.2948  -27.5039 H   0  0  0  0  0  0  0  0  0  0  0  0
   -3.4112   19.6759  -27.5365 H   0  0  0  0  0  0  0  0  0  0  0  0
   -2.3836   20.9111  -26.7121 H   0  0  0  0  0  0  0  0  0  0  0  0
   -1.0970   20.5460  -29.1280 H   0  0  0  0  0  0  0  0  0  0  0  0
   -2.1839   23.3716  -28.8148 H   0  0  0  0  0  0  0  0  0  0  0  0
   -3.0930   25.6720  -30.8270 H   0  0  0  0  0  0  0  0  0  0  0  0
   -4.2280   25.6420  -29.4380 H   0  0  0  0  0  0  0  0  0  0  0  0
   -5.3603   23.7259  -31.7253 H   0  0  0  0  0  0  0  0  0  0  0  0
   -4.5098   20.4571  -33.6983 H   0  0  0  0  0  0  0  0  0  0  0  0
   -4.8677   19.2056  -32.4437 H   0  0  0  0  0  0  0  0  0  0  0  0
   -6.6587   20.2385  -34.6782 H   0  0  0  0  0  0  0  0  0  0  0  0
   -6.1609   18.5389  -34.2885 H   0  0  0  0  0  0  0  0  0  0  0  0
   -8.4210   19.0060  -33.7180 H   0  0  0  0  0  0  0  0  0  0  0  0
   -7.5681   18.6876  -31.0508 H   0  0  0  0  0  0  0  0  0  0  0  0
   -8.2892   17.5054  -32.1949 H   0  0  0  0  0  0  0  0  0  0  0  0
   -6.5153   17.7881  -32.1949 H   0  0  0  0  0  0  0  0  0  0  0  0
   -8.9560   21.0072  -33.0454 H   0  0  0  0  0  0  0  0  0  0  0  0
   -8.4666   20.3337  -31.4109 H   0  0  0  0  0  0  0  0  0  0  0  0
   -7.0495   22.3091  -33.1820 H   0  0  0  0  0  0  0  0  0  0  0  0
   -7.2862   22.2811  -31.3865 H   0  0  0  0  0  0  0  0  0  0  0  0
   -3.9690   19.8108  -30.5097 H   0  0  0  0  0  0  0  0  0  0  0  0
  1  2  1  0
  2  3  1  0
  3  4  1  0
  4  5  2  0
  5  6  1  0
  6  7  1  0
  6  8  2  0
  8  9  1  0
  9 10  1  0
 10 11  1  0
 11 12  1  0
 12 13  1  0
 13 14  1  0
 13 15  1  0
 15 16  1  0
  9 17  2  0
 17  4  1  0
 16 10  1  0
  1 18  1  0
  1 19  1  0
  1 20  1  0
  2 21  1  0
  2 22  1  0
  3 23  1  0
  5 24  1  0
  7 25  1  0
  7 26  1  0
  8 27  1  0
 11 28  1  0
 11 29  1  0
 12 30  1  0
 12 31  1  0
 13 32  1  0
 14 33  1  0
 14 34  1  0
 14 35  1  0
 15 36  1  0
 15 37  1  0
 16 38  1  0
 16 39  1  0
 17 40  1  0
M  CHG  1  13   1
M  END
>  <UniqueID>  (46) 
42

>  <SMILES>  (46) 
CCNc1cc(N)cc(N2CC[NH+](C)CC2)c1

>  <Energy>  (46) 
46.124752798425234

>  <Genealogy>  (46) 
CCNc1cc(N)cc(N2CC[NH+](C)CC2)c1 (protonated)
CCNc1cc(N)cc(N2CC[NH+](C)CC2)c1 (3D coordinates assigned)
CCNc1cc(N)cc(N2CC[NH+](C)CC2)c1 (nonaromatic ring conformer: 46.124752798425234 kcal/mol)

>  <smiles>  (46) 
CCNc1cc(N)cc(N2CCN(C)CC2)c1

>  <score_type>  (46) 
oracle

>  <origin>  (46) 
adgpu

>  <m_score__min__energy>  (46) 
-5.8399999999999999

>  <m_primary>  (46) 
energy

$$$$
46:0
     RDKit          3D

 45 48  0  0  1  0  0  0  0  0999 V2000
   -0.4420   28.1480  -27.4620 C   0  0  0  0  0  0  0  0  0  0  0  0
    0.3550   27.1230  -26.7590 C   0  0  0  0  0  0  0  0  0  0  0  0
    1.2460   27.5620  -25.7940 C   0  0  0  0  0  0  0  0  0  0  0  0
    2.0100   26.6210  -25.1140 C   0  0  0  0  0  0  0  0  0  0  0  0
    1.9000   25.2590  -25.3830 C   0  0  0  0  0  0  0  0  0  0  0  0
    1.0010   24.8430  -26.3540 C   0  0  0  0  0  0  0  0  0  0  0  0
    0.8210   23.1330  -26.7320 Cl  0  0  0  0  0  0  0  0  0  0  0  0
    0.2140   25.7630  -27.0580 C   0  0  0  0  0  0  0  0  0  0  0  0
   -0.6830   25.3270  -28.0650 N   0  0  0  0  0  0  0  0  0  0  0  0
   -1.9170   25.0560  -27.9250 C   0  0  0  0  0  0  0  0  0  0  0  0
   -2.6960   24.6480  -28.9410 N   0  0  0  0  0  0  0  0  0  0  0  0
   -3.9960   24.3610  -28.7940 C   0  0  0  0  0  0  0  0  0  0  0  0
   -4.7080   23.9370  -29.9580 N   0  0  0  0  0  0  0  0  0  0  0  0
   -4.1370   23.3810  -31.0650 C   0  0  0  0  0  0  0  0  0  0  0  0
   -5.1450   23.1000  -31.9860 C   0  0  0  0  0  0  0  0  0  0  0  0
   -6.3460   23.4990  -31.4120 C   0  0  0  0  0  0  0  0  0  0  0  0
   -7.6460   23.3460  -32.1170 C   0  0  0  0  0  0  0  0  0  0  0  0
   -8.0460   21.9810  -32.2830 N   0  0  0  0  0  0  0  0  0  0  0  0
   -9.4400   21.7430  -31.9720 C   0  0  0  0  0  0  0  0  0  0  0  0
   -9.1030   21.6030  -30.5090 C   0  0  0  0  0  0  0  0  0  0  0  0
   -7.7360   21.2200  -31.0650 C   0  0  0  0  0  0  0  0  0  0  0  0
   -6.0540   24.0040  -30.1780 C   0  0  0  0  0  0  0  0  0  0  0  0
   -4.5830   24.4770  -27.5860 N   0  0  0  0  0  0  0  0  0  0  0  0
   -3.8200   24.8850  -26.5590 C   0  0  0  0  0  0  0  0  0  0  0  0
   -2.4820   25.1860  -26.6820 C   0  0  0  0  0  0  0  0  0  0  0  0
   -1.6100   25.7040  -25.2620 Cl  0  0  0  0  0  0  0  0  0  0  0  0
   -0.9430   28.7924  -26.7246 H   0  0  0  0  0  0  0  0  0  0  0  0
    0.2207   28.7590  -28.0926 H   0  0  0  0  0  0  0  0  0  0  0  0
   -1.1974   27.6563  -28.0926 H   0  0  0  0  0  0  0  0  0  0  0  0
    1.3470   28.6342  -25.5701 H   0  0  0  0  0  0  0  0  0  0  0  0
    2.7190   26.9603  -24.3444 H   0  0  0  0  0  0  0  0  0  0  0  0
    2.5137   24.5278  -24.8364 H   0  0  0  0  0  0  0  0  0  0  0  0
   -3.0635   23.1873  -31.2069 H   0  0  0  0  0  0  0  0  0  0  0  0
   -5.0143   22.6476  -32.9801 H   0  0  0  0  0  0  0  0  0  0  0  0
   -8.4209   23.8683  -31.5367 H   0  0  0  0  0  0  0  0  0  0  0  0
   -7.5217   23.7725  -33.1233 H   0  0  0  0  0  0  0  0  0  0  0  0
  -10.1003   22.5929  -32.1994 H   0  0  0  0  0  0  0  0  0  0  0  0
   -9.9933   20.9459  -32.4902 H   0  0  0  0  0  0  0  0  0  0  0  0
   -9.1359   22.5318  -29.9205 H   0  0  0  0  0  0  0  0  0  0  0  0
   -9.6761   20.9918  -29.7962 H   0  0  0  0  0  0  0  0  0  0  0  0
   -6.8860   21.6143  -30.4887 H   0  0  0  0  0  0  0  0  0  0  0  0
   -7.4232   20.1669  -31.1207 H   0  0  0  0  0  0  0  0  0  0  0  0
   -6.7920   24.4047  -29.4675 H   0  0  0  0  0  0  0  0  0  0  0  0
   -5.6060   24.2480  -27.4900 H   0  0  0  0  0  0  0  0  0  0  0  0
   -4.2880   24.9838  -25.5684 H   0  0  0  0  0  0  0  0  0  0  0  0
  1  2  1  0
  2  3  2  0
  3  4  1  0
  4  5  2  0
  5  6  1  0
  6  7  1  0
  6  8  2  0
  8  9  1  0
  9 10  2  0
 10 11  1  0
 11 12  2  0
 12 13  1  0
 13 14  1  0
 14 15  2  0
 15 16  1  0
 16 17  1  0
 17 18  1  0
 18 19  1  0
 19 20  1  0
 20 21  1  0
 16 22  2  0
 12 23  1  0
 23 24  1  0
 24 25  2  0
 25 26  1  0
  8  2  1  0
 25 10  1  0
 22 13  1  0
 21 18  1  0
  1 27  1  0
  1 28  1  0
  1 29  1  0
  3 30  1  0
  4 31  1  0
  5 32  1  0
 14 33  1  0
 15 34  1  0
 17 35  1  0
 17 36  1  0
 19 37  1  0
 19 38  1  0
 20 39  1  0
 20 40  1  0
 21 41  1  0
 21 42  1  0
 22 43  1  0
 23 44  1  0
 24 45  1  0
M  END
>  <smiles>  (47) 
Cc1cccc(Cl)c1N=c1nc(-n2ccc(CN3CCC3)c2)[nH]cc1Cl

>  <score_type>  (47) 
oracle

>  <origin>  (47) 
adgpu

>  <m_score__min__energy>  (47) 
-8.5899999999999999

>  <m_primary>  (47) 
energy

$$$$
47:0
     RDKit          3D

 12 12  0  0  0  0  0  0  0  0999 V2000
   -5.4738   25.7502  -31.7554 H   0  0  0  0  0  0  0  0  0  0  0  0
   -5.1150   25.1560  -30.9020 C   0  0  0  0  0  0  0  0  0  0  0  0
   -3.8640   25.2980  -30.3900 N   0  0  0  0  0  0  0  0  0  0  0  0
   -3.6620   24.4610  -29.3480 C   0  0  0  0  0  0  0  0  0  0  0  0
   -2.5540   24.3920  -28.6770 N   0  0  0  0  0  0  0  0  0  0  0  0
   -1.3870   25.2160  -28.9680 C   0  0  0  0  0  0  0  0  0  0  0  0
   -0.9244   25.5426  -28.0250 H   0  0  0  0  0  0  0  0  0  0  0  0
   -0.6600   24.6299  -29.5493 H   0  0  0  0  0  0  0  0  0  0  0  0
   -1.6961   26.0972  -29.5493 H   0  0  0  0  0  0  0  0  0  0  0  0
   -5.0110   23.5180  -29.0210 S   0  0  0  0  0  0  0  0  0  0  0  0
   -5.9090   24.2050  -30.2690 C   0  0  0  0  0  0  0  0  0  0  0  0
   -6.9440   23.9466  -30.5372 H   0  0  0  0  0  0  0  0  0  0  0  0
  1  2  1  0
  2  3  1  0
  3  4  1  0
  4  5  2  0
  5  6  1  0
  6  7  1  0
  6  8  1  0
  6  9  1  0
  4 10  1  0
 10 11  1  0
 11 12  1  0
 11  2  2  0
M  CHG  1   3  -1
M  END
>  <UniqueID>  (48) 
43

>  <SMILES>  (48) 
C/N=c1\[n-]ccs1

>  <Energy>  (48) 
38.77153058181154

>  <Genealogy>  (48) 
CN=c1[n-]ccs1 (protonated)
C/N=c1\[n-]ccs1 (cis-trans isomerization)
C/N=c1\[n-]ccs1 (3D coordinates assigned)
C/N=c1\[n-]ccs1 (optimized conformer: 38.77153058181154 kcal/mol)

>  <smiles>  (48) 
CN=c1[nH]ccs1

>  <score_type>  (48) 
oracle

>  <origin>  (48) 
adgpu

>  <m_score__min__energy>  (48) 
-4.8200000000000003

>  <m_primary>  (48) 
energy

$$$$
48:0
     RDKit          3D

 32 33  0  0  0  0  0  0  0  0999 V2000
   -9.3370   19.7760  -32.5870 C   0  0  0  0  0  0  0  0  0  0  0  0
   -8.1750   20.4970  -31.9840 C   0  0  0  0  0  0  0  0  0  0  0  0
   -7.2660   19.8360  -31.4150 O   0  0  0  0  0  0  0  0  0  0  0  0
   -8.1540   21.9330  -31.9740 N   0  0  0  0  0  0  0  0  0  0  0  0
   -7.0130   22.7200  -31.5910 C   0  0  0  0  0  0  0  0  0  0  0  0
   -7.1490   23.8800  -30.8070 C   0  0  0  0  0  0  0  0  0  0  0  0
   -6.0210   24.6140  -30.4290 C   0  0  0  0  0  0  0  0  0  0  0  0
   -4.7360   24.1840  -30.8050 C   0  0  0  0  0  0  0  0  0  0  0  0
   -3.5530   24.9210  -30.4590 N   0  0  0  0  0  0  0  0  0  0  0  0
   -2.5800   24.5630  -29.4680 C   0  0  0  0  0  0  0  0  0  0  0  0
   -1.8420   25.4550  -28.9650 O   0  0  0  0  0  0  0  0  0  0  0  0
   -2.4720   23.1610  -28.9850 C   0  0  0  0  0  0  0  0  0  0  0  0
   -3.3500   22.6980  -27.9840 C   0  0  0  0  0  0  0  0  0  0  0  0
   -3.2670   21.3850  -27.5150 C   0  0  0  0  0  0  0  0  0  0  0  0
   -2.3090   20.5150  -28.0350 C   0  0  0  0  0  0  0  0  0  0  0  0
   -1.4300   20.9570  -29.0250 C   0  0  0  0  0  0  0  0  0  0  0  0
   -1.5050   22.2700  -29.5020 C   0  0  0  0  0  0  0  0  0  0  0  0
   -0.6270   22.6570  -30.4620 F   0  0  0  0  0  0  0  0  0  0  0  0
   -4.6020   23.0320  -31.5880 C   0  0  0  0  0  0  0  0  0  0  0  0
   -5.7300   22.2970  -31.9650 C   0  0  0  0  0  0  0  0  0  0  0  0
   -9.9776   19.3785  -31.7860 H   0  0  0  0  0  0  0  0  0  0  0  0
   -9.9178   20.4726  -33.2094 H   0  0  0  0  0  0  0  0  0  0  0  0
   -8.9708   18.9462  -33.2094 H   0  0  0  0  0  0  0  0  0  0  0  0
   -9.0480   22.4320  -32.1790 H   0  0  0  0  0  0  0  0  0  0  0  0
   -8.1487   24.2114  -30.4896 H   0  0  0  0  0  0  0  0  0  0  0  0
   -6.1391   25.5321  -29.8347 H   0  0  0  0  0  0  0  0  0  0  0  0
   -4.1082   23.3777  -27.5680 H   0  0  0  0  0  0  0  0  0  0  0  0
   -3.9586   21.0364  -26.7339 H   0  0  0  0  0  0  0  0  0  0  0  0
   -2.2462   19.4810  -27.6651 H   0  0  0  0  0  0  0  0  0  0  0  0
   -0.6743   20.2693  -29.4323 H   0  0  0  0  0  0  0  0  0  0  0  0
   -3.6028   22.7026  -31.9090 H   0  0  0  0  0  0  0  0  0  0  0  0
   -5.6097   21.3795  -32.5598 H   0  0  0  0  0  0  0  0  0  0  0  0
  1  2  1  0
  2  3  2  0
  2  4  1  0
  4  5  1  0
  5  6  2  0
  6  7  1  0
  7  8  2  0
  8  9  1  0
  9 10  1  0
 10 11  2  0
 10 12  1  0
 12 13  2  0
 13 14  1  0
 14 15  2  0
 15 16  1  0
 16 17  2  0
 17 18  1  0
  8 19  1  0
 19 20  2  0
 20  5  1  0
 17 12  1  0
  1 21  1  0
  1 22  1  0
  1 23  1  0
  4 24  1  0
  6 25  1  0
  7 26  1  0
 13 27  1  0
 14 28  1  0
 15 29  1  0
 16 30  1  0
 19 31  1  0
 20 32  1  0
M  CHG  1   9  -1
M  END
>  <UniqueID>  (49) 
44

>  <SMILES>  (49) 
CC(=O)Nc1ccc([N-]C(=O)c2ccccc2F)cc1

>  <Energy>  (49) 
39.96973136766691

>  <Genealogy>  (49) 
CC(=O)Nc1ccc([N-]C(=O)c2ccccc2F)cc1 (protonated)
CC(=O)Nc1ccc([N-]C(=O)c2ccccc2F)cc1 (3D coordinates assigned)
CC(=O)Nc1ccc([N-]C(=O)c2ccccc2F)cc1 (optimized conformer: 39.96973136766691 kcal/mol)

>  <smiles>  (49) 
CC(=O)Nc1ccc(NC(=O)c2ccccc2F)cc1

>  <score_type>  (49) 
oracle

>  <origin>  (49) 
adgpu

>  <m_score__min__energy>  (49) 
-8.4800000000000004

>  <m_primary>  (49) 
energy

$$$$
49:0
     RDKit          3D

 60 63  0  0  0  0  0  0  0  0999 V2000
   -6.2130   24.1570  -30.5270 C   0  0  0  0  0  0  0  0  0  0  0  0
   -6.4250   24.1430  -31.9070 C   0  0  0  0  0  0  0  0  0  0  0  0
   -7.2880   23.2020  -32.4750 C   0  0  0  0  0  0  0  0  0  0  0  0
   -7.9570   22.2680  -31.6640 C   0  0  0  0  0  0  0  0  0  0  0  0
   -8.8660   21.2270  -32.2920 C   0  0  0  0  0  0  0  0  0  0  0  0
   -8.1640   20.0280  -32.8210 N   0  0  2  0  0  0  0  0  0  0  0  0
   -8.5800   18.7730  -32.1360 C   0  0  0  0  0  0  0  0  0  0  0  0
   -7.6370   17.6170  -32.4860 C   0  0  0  0  0  0  0  0  0  0  0  0
   -6.2020   17.8920  -31.9620 C   0  0  1  0  0  0  0  0  0  0  0  0
   -5.1250   17.2050  -32.8360 C   0  0  0  0  0  0  0  0  0  0  0  0
   -4.9050   17.8900  -34.2020 C   0  0  0  0  0  0  0  0  0  0  0  0
   -3.5630   18.4760  -34.2850 N   0  0  0  0  0  0  0  0  0  0  0  0
   -3.0850   19.4960  -33.3930 C   0  0  0  0  0  0  0  0  0  0  0  0
   -2.1060   19.2260  -32.4190 C   0  0  0  0  0  0  0  0  0  0  0  0
   -1.6670   20.2400  -31.5610 C   0  0  0  0  0  0  0  0  0  0  0  0
   -2.1890   21.5400  -31.6720 C   0  0  0  0  0  0  0  0  0  0  0  0
   -1.7890   22.5730  -30.8130 O   0  0  0  0  0  0  0  0  0  0  0  0
   -2.4690   22.9760  -29.6560 C   0  0  0  0  0  0  0  0  0  0  0  0
   -3.5370   22.2300  -29.1190 C   0  0  0  0  0  0  0  0  0  0  0  0
   -4.1670   22.6480  -27.9440 C   0  0  0  0  0  0  0  0  0  0  0  0
   -3.7350   23.8070  -27.2930 C   0  0  0  0  0  0  0  0  0  0  0  0
   -2.6660   24.5440  -27.8130 C   0  0  0  0  0  0  0  0  0  0  0  0
   -2.0340   24.1260  -28.9890 C   0  0  0  0  0  0  0  0  0  0  0  0
   -3.1670   21.8050  -32.6350 C   0  0  0  0  0  0  0  0  0  0  0  0
   -3.6020   20.7950  -33.4980 C   0  0  0  0  0  0  0  0  0  0  0  0
   -5.9200   19.4150  -31.8470 C   0  0  0  0  0  0  0  0  0  0  0  0
   -6.6860   20.2030  -32.9210 C   0  0  0  0  0  0  0  0  0  0  0  0
   -7.7210   22.2790  -30.2760 C   0  0  0  0  0  0  0  0  0  0  0  0
   -6.8660   23.2300  -29.7110 C   0  0  0  0  0  0  0  0  0  0  0  0
   -5.5320   24.8977  -30.0825 H   0  0  0  0  0  0  0  0  0  0  0  0
   -5.9116   24.8743  -32.5485 H   0  0  0  0  0  0  0  0  0  0  0  0
   -7.4451   23.1918  -33.5637 H   0  0  0  0  0  0  0  0  0  0  0  0
   -9.5848   20.8943  -31.5287 H   0  0  0  0  0  0  0  0  0  0  0  0
   -9.3452   21.7126  -33.1549 H   0  0  0  0  0  0  0  0  0  0  0  0
   -8.5050   19.9340  -33.8080 H   0  0  0  0  0  0  0  0  0  0  0  0
   -8.5626   18.9344  -31.0480 H   0  0  0  0  0  0  0  0  0  0  0  0
   -9.5945   18.5110  -32.4709 H   0  0  0  0  0  0  0  0  0  0  0  0
   -8.0163   16.6919  -32.0275 H   0  0  0  0  0  0  0  0  0  0  0  0
   -7.5972   17.5162  -33.5806 H   0  0  0  0  0  0  0  0  0  0  0  0
   -6.1447   17.4545  -30.9544 H   0  0  0  0  0  0  0  0  0  0  0  0
   -4.1728   17.2146  -32.2853 H   0  0  0  0  0  0  0  0  0  0  0  0
   -5.4806   16.1845  -33.0415 H   0  0  0  0  0  0  0  0  0  0  0  0
   -5.0220   17.1439  -35.0018 H   0  0  0  0  0  0  0  0  0  0  0  0
   -5.6467   18.6945  -34.3146 H   0  0  0  0  0  0  0  0  0  0  0  0
   -2.9190   18.1450  -35.0360 H   0  0  0  0  0  0  0  0  0  0  0  0
   -1.6843   18.2138  -32.3319 H   0  0  0  0  0  0  0  0  0  0  0  0
   -0.9090   20.0185  -30.7952 H   0  0  0  0  0  0  0  0  0  0  0  0
   -3.8761   21.3150  -29.6268 H   0  0  0  0  0  0  0  0  0  0  0  0
   -5.0033   22.0648  -27.5311 H   0  0  0  0  0  0  0  0  0  0  0  0
   -4.2357   24.1395  -26.3717 H   0  0  0  0  0  0  0  0  0  0  0  0
   -2.3221   25.4526  -27.2971 H   0  0  0  0  0  0  0  0  0  0  0  0
   -1.1899   24.7052  -29.3916 H   0  0  0  0  0  0  0  0  0  0  0  0
   -3.5969   22.8144  -32.7142 H   0  0  0  0  0  0  0  0  0  0  0  0
   -4.3563   21.0213  -34.2660 H   0  0  0  0  0  0  0  0  0  0  0  0
   -6.2346   19.7644  -30.8525 H   0  0  0  0  0  0  0  0  0  0  0  0
   -4.8427   19.5825  -31.9932 H   0  0  0  0  0  0  0  0  0  0  0  0
   -6.4500   21.2715  -32.8084 H   0  0  0  0  0  0  0  0  0  0  0  0
   -6.3721   19.8174  -33.9022 H   0  0  0  0  0  0  0  0  0  0  0  0
   -8.2124   21.5347  -29.6321 H   0  0  0  0  0  0  0  0  0  0  0  0
   -6.7073   23.2483  -28.6227 H   0  0  0  0  0  0  0  0  0  0  0  0
  1  2  2  0
  2  3  1  0
  3  4  2  0
  4  5  1  0
  5  6  1  0
  6  7  1  0
  7  8  1  0
  8  9  1  0
  9 10  1  0
 10 11  1  0
 11 12  1  0
 12 13  1  0
 13 14  2  0
 14 15  1  0
 15 16  2  0
 16 17  1  0
 17 18  1  0
 18 19  2  0
 19 20  1  0
 20 21  2  0
 21 22  1  0
 22 23  2  0
 16 24  1  0
 24 25  2  0
  9 26  1  0
 26 27  1  0
  4 28  1  0
 28 29  2  0
 29  1  1  0
 27  6  1  0
 25 13  1  0
 23 18  1  0
  1 30  1  0
  2 31  1  0
  3 32  1  0
  5 33  1  0
  5 34  1  0
  6 35  1  6
  7 36  1  0
  7 37  1  0
  8 38  1  0
  8 39  1  0
  9 40  1  1
 10 41  1  0
 10 42  1  0
 11 43  1  0
 11 44  1  0
 12 45  1  0
 14 46  1  0
 15 47  1  0
 19 48  1  0
 20 49  1  0
 21 50  1  0
 22 51  1  0
 23 52  1  0
 24 53  1  0
 25 54  1  0
 26 55  1  0
 26 56  1  0
 27 57  1  0
 27 58  1  0
 28 59  1  0
 29 60  1  0
M  CHG  1   6   1
M  END
>  <UniqueID>  (50) 
45

>  <SMILES>  (50) 
c1ccc(C[NH+]2CCC(CCNc3ccc(Oc4ccccc4)cc3)CC2)cc1

>  <Energy>  (50) 
83.78496619171896

>  <Genealogy>  (50) 
c1ccc(C[NH+]2CCC(CCNc3ccc(Oc4ccccc4)cc3)CC2)cc1 (protonated)
c1ccc(C[NH+]2CCC(CCNc3ccc(Oc4ccccc4)cc3)CC2)cc1 (3D coordinates assigned)
c1ccc(C[NH+]2CCC(CCNc3ccc(Oc4ccccc4)cc3)CC2)cc1 (nonaromatic ring conformer: 83.78496619171896 kcal/mol)

>  <smiles>  (50) 
c1ccc(CN2CCC(CCNc3ccc(Oc4ccccc4)cc3)CC2)cc1

>  <score_type>  (50) 
oracle

>  <origin>  (50) 
adgpu

>  <m_score__min__energy>  (50) 
-9.2200000000000006

>  <m_primary>  (50) 
energy

$$$$
