0:0
     RDKit          3D

 37 38  0  0  0  0  0  0  0  0999 V2000
   -4.8800   16.8230  -33.2480 C   0  0  0  0  0  0  0  0  0  0  0  0
   -5.4770   18.1660  -33.2440 N   0  0  0  0  0  0  0  0  0  0  0  0
   -5.9110   18.5420  -34.5960 C   0  0  0  0  0  0  0  0  0  0  0  0
   -6.8350   18.2200  -32.1490 S   0  0  0  0  0  0  0  0  0  0  0  0
   -7.9780   17.4310  -32.7260 O   0  0  0  0  0  0  0  0  0  0  0  0
   -6.4610   17.6060  -30.8280 O   0  0  0  0  0  0  0  0  0  0  0  0
   -7.3630   19.8950  -31.9190 C   0  0  0  0  0  0  0  0  0  0  0  0
   -8.6910   20.1440  -31.5640 C   0  0  0  0  0  0  0  0  0  0  0  0
   -9.1300   21.4510  -31.3910 C   0  0  0  0  0  0  0  0  0  0  0  0
   -8.2440   22.5060  -31.5920 C   0  0  0  0  0  0  0  0  0  0  0  0
   -6.9490   22.2750  -31.9710 N   0  0  0  0  0  0  0  0  0  0  0  0
   -6.0650   23.4360  -32.1910 C   0  0  0  0  0  0  0  0  0  0  0  0
   -5.0440   23.5590  -31.0800 C   0  0  0  0  0  0  0  0  0  0  0  0
   -3.8300   22.8550  -31.1830 C   0  0  0  0  0  0  0  0  0  0  0  0
   -2.8790   22.9260  -30.1610 C   0  0  0  0  0  0  0  0  0  0  0  0
   -3.1280   23.6980  -29.0260 C   0  0  0  0  0  0  0  0  0  0  0  0
   -4.3280   24.4010  -28.9090 C   0  0  0  0  0  0  0  0  0  0  0  0
   -5.2900   24.3370  -29.9260 C   0  0  0  0  0  0  0  0  0  0  0  0
   -6.7750   25.2540  -29.7160 Cl  0  0  0  0  0  0  0  0  0  0  0  0
   -6.4920   20.9840  -32.1180 C   0  0  0  0  0  0  0  0  0  0  0  0
   -5.2900   20.7670  -32.4330 O   0  0  0  0  0  0  0  0  0  0  0  0
   -4.7299   16.4854  -32.2119 H   0  0  0  0  0  0  0  0  0  0  0  0
   -5.5523   16.1244  -33.7675 H   0  0  0  0  0  0  0  0  0  0  0  0
   -3.9109   16.8541  -33.7675 H   0  0  0  0  0  0  0  0  0  0  0  0
   -4.7590   18.8560  -32.9160 H   0  0  0  0  0  0  0  0  0  0  0  0
   -6.7408   19.2609  -34.5281 H   0  0  0  0  0  0  0  0  0  0  0  0
   -5.0705   19.0022  -35.1362 H   0  0  0  0  0  0  0  0  0  0  0  0
   -6.2467   17.6445  -35.1362 H   0  0  0  0  0  0  0  0  0  0  0  0
   -9.3889   19.3058  -31.4215 H   0  0  0  0  0  0  0  0  0  0  0  0
  -10.1710   21.6509  -31.0971 H   0  0  0  0  0  0  0  0  0  0  0  0
   -8.5895   23.5398  -31.4442 H   0  0  0  0  0  0  0  0  0  0  0  0
   -5.5401   23.3119  -33.1497 H   0  0  0  0  0  0  0  0  0  0  0  0
   -6.6805   24.3476  -32.2037 H   0  0  0  0  0  0  0  0  0  0  0  0
   -3.6277   22.2439  -32.0750 H   0  0  0  0  0  0  0  0  0  0  0  0
   -1.9329   22.3723  -30.2518 H   0  0  0  0  0  0  0  0  0  0  0  0
   -2.3783   23.7527  -28.2229 H   0  0  0  0  0  0  0  0  0  0  0  0
   -4.5199   25.0092  -28.0128 H   0  0  0  0  0  0  0  0  0  0  0  0
  1  2  1  0
  2  3  1  0
  2  4  1  0
  4  5  2  0
  4  6  2  0
  4  7  1  0
  7  8  2  0
  8  9  1  0
  9 10  2  0
 10 11  1  0
 11 12  1  0
 12 13  1  0
 13 14  2  0
 14 15  1  0
 15 16  2  0
 16 17  1  0
 17 18  2  0
 18 19  1  0
 11 20  1  0
 20 21  2  0
 20  7  1  0
 18 13  1  0
  1 22  1  0
  1 23  1  0
  1 24  1  0
  2 25  1  0
  3 26  1  0
  3 27  1  0
  3 28  1  0
  8 29  1  0
  9 30  1  0
 10 31  1  0
 12 32  1  0
 12 33  1  0
 14 34  1  0
 15 35  1  0
 16 36  1  0
 17 37  1  0
M  CHG  1   2   1
M  END
>  <UniqueID>  (1) 
1

>  <SMILES>  (1) 
C[NH+](C)S(=O)(=O)c1cccn(Cc2ccccc2Cl)c1=O

>  <Energy>  (1) 
39.392174938619995

>  <Genealogy>  (1) 
C[NH+](C)S(=O)(=O)c1cccn(Cc2ccccc2Cl)c1=O (protonated)
C[NH+](C)S(=O)(=O)c1cccn(Cc2ccccc2Cl)c1=O (3D coordinates assigned)
C[NH+](C)S(=O)(=O)c1cccn(Cc2ccccc2Cl)c1=O (optimized conformer: 39.392174938619995 kcal/mol)

>  <smiles>  (1) 
CN(C)S(=O)(=O)c1cccn(Cc2ccccc2Cl)c1=O

>  <score_type>  (1) 
oracle

>  <origin>  (1) 
adgpu

>  <m_score__min__energy>  (1) 
-7.8200000000000003

>  <m_primary>  (1) 
energy

$$$$
1:0
     RDKit          3D

 46 49  0  0  0  0  0  0  0  0999 V2000
   -3.5070   25.2810  -30.5640 N   0  0  0  0  0  0  0  0  0  0  0  0
   -5.0500   24.8210  -29.9390 S   0  0  0  0  0  0  0  0  0  0  0  0
   -5.9820   25.9990  -29.9920 O   0  0  0  0  0  0  0  0  0  0  0  0
   -4.9050   24.3860  -28.5080 O   0  0  0  0  0  0  0  0  0  0  0  0
   -5.7040   23.4990  -30.9000 C   0  0  0  0  0  0  0  0  0  0  0  0
   -6.9280   23.6480  -31.5660 C   0  0  0  0  0  0  0  0  0  0  0  0
   -7.4400   22.6020  -32.3400 C   0  0  0  0  0  0  0  0  0  0  0  0
   -6.7350   21.3930  -32.4520 C   0  0  0  0  0  0  0  0  0  0  0  0
   -7.2630   20.2840  -33.3200 C   0  0  0  0  0  0  0  0  0  0  0  0
   -6.5710   19.0280  -33.0300 N   0  0  0  0  0  0  0  0  0  0  0  0
   -6.0510   18.2050  -34.0840 C   0  0  0  0  0  0  0  0  0  0  0  0
   -6.0520   18.6370  -35.2690 O   0  0  0  0  0  0  0  0  0  0  0  0
   -5.4950   16.8580  -33.8030 C   0  0  0  0  0  0  0  0  0  0  0  0
   -6.2780   15.7040  -33.9550 C   0  0  0  0  0  0  0  0  0  0  0  0
   -5.7410   14.4440  -33.6840 C   0  0  0  0  0  0  0  0  0  0  0  0
   -4.4020   14.3040  -33.2790 C   0  0  0  0  0  0  0  0  0  0  0  0
   -3.6050   15.4540  -33.1440 C   0  0  0  0  0  0  0  0  0  0  0  0
   -4.1580   16.7190  -33.3980 C   0  0  0  0  0  0  0  0  0  0  0  0
   -2.2480   15.3740  -32.7010 N   0  0  0  0  0  0  0  0  0  0  0  0
   -1.2800   14.6210  -33.4390 C   0  0  0  0  0  0  0  0  0  0  0  0
   -0.0960   15.2590  -33.8460 C   0  0  0  0  0  0  0  0  0  0  0  0
    0.8860   14.5540  -34.5460 C   0  0  0  0  0  0  0  0  0  0  0  0
    0.7020   13.2010  -34.8290 C   0  0  0  0  0  0  0  0  0  0  0  0
   -0.4610   12.5530  -34.4110 C   0  0  0  0  0  0  0  0  0  0  0  0
   -1.4650   13.2530  -33.7270 C   0  0  0  0  0  0  0  0  0  0  0  0
   -2.5850   12.5040  -33.2430 N   0  0  0  0  0  0  0  0  0  0  0  0
   -3.9050   12.9570  -32.9240 C   0  0  0  0  0  0  0  0  0  0  0  0
   -4.6970   12.1390  -32.3870 O   0  0  0  0  0  0  0  0  0  0  0  0
   -5.4980   21.2560  -31.8040 C   0  0  0  0  0  0  0  0  0  0  0  0
   -4.9870   22.3020  -31.0300 C   0  0  0  0  0  0  0  0  0  0  0  0
   -3.6720   26.0580  -31.2430 H   0  0  0  0  0  0  0  0  0  0  0  0
   -7.4878   24.5909  -31.4796 H   0  0  0  0  0  0  0  0  0  0  0  0
   -8.3994   22.7269  -32.8634 H   0  0  0  0  0  0  0  0  0  0  0  0
   -8.3387   20.1564  -33.1287 H   0  0  0  0  0  0  0  0  0  0  0  0
   -7.0921   20.5474  -34.3742 H   0  0  0  0  0  0  0  0  0  0  0  0
   -6.4050   18.7550  -32.0360 H   0  0  0  0  0  0  0  0  0  0  0  0
   -7.3220   15.7924  -34.2899 H   0  0  0  0  0  0  0  0  0  0  0  0
   -6.3733   13.5500  -33.7886 H   0  0  0  0  0  0  0  0  0  0  0  0
   -3.5333   17.6164  -33.2777 H   0  0  0  0  0  0  0  0  0  0  0  0
   -1.8890   16.1750  -32.1330 H   0  0  0  0  0  0  0  0  0  0  0  0
    0.0589   16.3225  -33.6114 H   0  0  0  0  0  0  0  0  0  0  0  0
    1.8032   15.0654  -34.8735 H   0  0  0  0  0  0  0  0  0  0  0  0
    1.4734   12.6447  -35.3816 H   0  0  0  0  0  0  0  0  0  0  0  0
   -0.5916   11.4810  -34.6205 H   0  0  0  0  0  0  0  0  0  0  0  0
   -4.9275   20.3210  -31.9055 H   0  0  0  0  0  0  0  0  0  0  0  0
   -4.0188   22.1851  -30.5213 H   0  0  0  0  0  0  0  0  0  0  0  0
  1  2  1  0
  2  3  2  0
  2  4  2  0
  2  5  1  0
  5  6  2  0
  6  7  1  0
  7  8  2  0
  8  9  1  0
  9 10  1  0
 10 11  1  0
 11 12  2  0
 11 13  1  0
 13 14  2  0
 14 15  1  0
 15 16  2  0
 16 17  1  0
 17 18  2  0
 17 19  1  0
 19 20  1  0
 20 21  2  0
 21 22  1  0
 22 23  2  0
 23 24  1  0
 24 25  2  0
 25 26  1  0
 26 27  1  0
 27 28  2  0
  8 29  1  0
 29 30  2  0
 30  5  1  0
 18 13  1  0
 25 20  1  0
 27 16  1  0
  1 31  1  0
  6 32  1  0
  7 33  1  0
  9 34  1  0
  9 35  1  0
 10 36  1  0
 14 37  1  0
 15 38  1  0
 18 39  1  0
 19 40  1  0
 21 41  1  0
 22 42  1  0
 23 43  1  0
 24 44  1  0
 29 45  1  0
 30 46  1  0
M  CHG  2   1  -1  26  -1
M  END
>  <UniqueID>  (2) 
2

>  <SMILES>  (2) 
[NH-]S(=O)(=O)c1ccc(CNC(=O)c2ccc3c(c2)Nc2ccccc2[N-]C3=O)cc1

>  <Energy>  (2) 
69.74006947477986

>  <Genealogy>  (2) 
[NH-]S(=O)(=O)c1ccc(CNC(=O)c2ccc3c(c2)Nc2ccccc2[N-]C3=O)cc1 (protonated)
[NH-]S(=O)(=O)c1ccc(CNC(=O)c2ccc3c(c2)Nc2ccccc2[N-]C3=O)cc1 (3D coordinates assigned)
[NH-]S(=O)(=O)c1ccc(CNC(=O)c2ccc3c(c2)Nc2ccccc2[N-]C3=O)cc1 (nonaromatic ring conformer: 69.74006947477986 kcal/mol)

>  <smiles>  (2) 
NS(=O)(=O)c1ccc(CNC(=O)c2ccc3c(c2)Nc2ccccc2NC3=O)cc1

>  <score_type>  (2) 
oracle

>  <origin>  (2) 
adgpu

>  <m_score__min__energy>  (2) 
-11.93

>  <m_primary>  (2) 
energy

$$$$
2:0
     RDKit          3D

 49 52  0  0  0  0  0  0  0  0999 V2000
   -2.2380   20.9110  -34.1560 N   0  0  0  0  0  0  0  0  0  0  0  0
   -1.7080   20.4670  -33.0590 C   0  0  0  0  0  0  0  0  0  0  0  0
   -0.6340   19.6020  -32.9850 C   0  0  0  0  0  0  0  0  0  0  0  0
    0.1930   19.0640  -34.0820 C   0  0  0  0  0  0  0  0  0  0  0  0
   -0.1320   17.9750  -34.6240 O   0  0  0  0  0  0  0  0  0  0  0  0
    1.3550   19.7610  -34.5540 N   0  0  0  0  0  0  0  0  0  0  0  0
    1.3590   21.1330  -34.9730 C   0  0  0  0  0  0  0  0  0  0  0  0
    2.5640   21.8430  -34.9880 C   0  0  0  0  0  0  0  0  0  0  0  0
    2.6060   23.1500  -35.4830 C   0  0  0  0  0  0  0  0  0  0  0  0
    1.4350   23.7670  -35.9480 C   0  0  0  0  0  0  0  0  0  0  0  0
    1.4980   25.3820  -36.6600 S   0  0  0  0  0  0  0  0  0  0  0  0
    2.5710   26.1830  -35.9740 O   0  0  0  0  0  0  0  0  0  0  0  0
    1.8600   25.2700  -38.1150 O   0  0  0  0  0  0  0  0  0  0  0  0
   -0.0380   26.2090  -36.5160 N   0  0  0  0  0  0  0  0  0  0  0  0
   -0.4340   26.7970  -37.8120 C   0  0  0  0  0  0  0  0  0  0  0  0
   -1.4710   27.9140  -37.6080 C   0  0  0  0  0  0  0  0  0  0  0  0
   -1.0270   28.9840  -36.7810 O   0  0  0  0  0  0  0  0  0  0  0  0
    0.0580   28.6400  -35.9340 C   0  0  0  0  0  0  0  0  0  0  0  0
   -0.0250   27.1940  -35.4130 C   0  0  0  0  0  0  0  0  0  0  0  0
    0.2170   23.0800  -35.8700 C   0  0  0  0  0  0  0  0  0  0  0  0
    0.1780   21.7710  -35.3880 C   0  0  0  0  0  0  0  0  0  0  0  0
   -0.4240   19.4330  -31.6290 C   0  0  0  0  0  0  0  0  0  0  0  0
   -1.3100   20.1840  -30.9390 N   0  0  0  0  0  0  0  0  0  0  0  0
   -2.0950   20.8030  -31.8100 N   0  0  0  0  0  0  0  0  0  0  0  0
   -3.1190   21.7310  -31.4180 C   0  0  0  0  0  0  0  0  0  0  0  0
   -4.4560   21.3080  -31.3520 C   0  0  0  0  0  0  0  0  0  0  0  0
   -5.4600   22.2030  -30.9770 C   0  0  0  0  0  0  0  0  0  0  0  0
   -5.1400   23.5300  -30.6750 C   0  0  0  0  0  0  0  0  0  0  0  0
   -3.8140   23.9650  -30.7590 C   0  0  0  0  0  0  0  0  0  0  0  0
   -3.4980   25.2870  -30.4690 O   0  0  0  0  0  0  0  0  0  0  0  0
   -2.8060   23.0710  -31.1350 C   0  0  0  0  0  0  0  0  0  0  0  0
   -3.0330   21.5830  -34.1760 H   0  0  0  0  0  0  0  0  0  0  0  0
    3.4825   21.3712  -34.6088 H   0  0  0  0  0  0  0  0  0  0  0  0
    3.5604   23.6963  -35.5079 H   0  0  0  0  0  0  0  0  0  0  0  0
    0.4555   27.2158  -38.3053 H   0  0  0  0  0  0  0  0  0  0  0  0
   -0.8811   26.0091  -38.4359 H   0  0  0  0  0  0  0  0  0  0  0  0
   -1.7312   28.3263  -38.5941 H   0  0  0  0  0  0  0  0  0  0  0  0
   -2.3294   27.4558  -37.0950 H   0  0  0  0  0  0  0  0  0  0  0  0
    0.9948   28.7566  -36.4986 H   0  0  0  0  0  0  0  0  0  0  0  0
    0.0207   29.3084  -35.0612 H   0  0  0  0  0  0  0  0  0  0  0  0
    0.8462   26.9970  -34.7709 H   0  0  0  0  0  0  0  0  0  0  0  0
   -0.9647   27.0881  -34.8510 H   0  0  0  0  0  0  0  0  0  0  0  0
   -0.7123   23.5741  -36.1899 H   0  0  0  0  0  0  0  0  0  0  0  0
   -0.7817   21.2363  -35.3327 H   0  0  0  0  0  0  0  0  0  0  0  0
    0.3455   18.7870  -31.1812 H   0  0  0  0  0  0  0  0  0  0  0  0
   -4.7138   20.2670  -31.5968 H   0  0  0  0  0  0  0  0  0  0  0  0
   -6.5046   21.8633  -30.9191 H   0  0  0  0  0  0  0  0  0  0  0  0
   -5.9311   24.2315  -30.3715 H   0  0  0  0  0  0  0  0  0  0  0  0
   -1.7649   23.4183  -31.2093 H   0  0  0  0  0  0  0  0  0  0  0  0
  1  2  2  3
  2  3  1  0
  3  4  1  0
  4  5  2  0
  4  6  1  0
  6  7  1  0
  7  8  2  0
  8  9  1  0
  9 10  2  0
 10 11  1  0
 11 12  2  0
 11 13  2  0
 11 14  1  0
 14 15  1  0
 15 16  1  0
 16 17  1  0
 17 18  1  0
 18 19  1  0
 10 20  1  0
 20 21  2  0
  3 22  2  0
 22 23  1  0
 23 24  1  0
 24 25  1  0
 25 26  2  0
 26 27  1  0
 27 28  2  0
 28 29  1  0
 29 30  1  0
 29 31  2  0
 24  2  1  0
 31 25  1  0
 21  7  1  0
 19 14  1  0
  1 32  1  0
  8 33  1  0
  9 34  1  0
 15 35  1  0
 15 36  1  0
 16 37  1  0
 16 38  1  0
 18 39  1  0
 18 40  1  0
 19 41  1  0
 19 42  1  0
 20 43  1  0
 21 44  1  0
 22 45  1  0
 26 46  1  0
 27 47  1  0
 28 48  1  0
 31 49  1  0
M  CHG  3   6  -1  23  -1  30  -1
M  END
>  <UniqueID>  (3) 
3

>  <SMILES>  (3) 
N=c1c(C(=O)[N-]c2ccc(S(=O)(=O)N3CCOCC3)cc2)c[n-]n1-c1cccc([O-])c1

>  <Energy>  (3) 
106.54458882272802

>  <Genealogy>  (3) 
N=c1c(C(=O)[N-]c2ccc(S(=O)(=O)N3CCOCC3)cc2)c[n-]n1-c1cccc([O-])c1 (protonated)
N=c1c(C(=O)[N-]c2ccc(S(=O)(=O)N3CCOCC3)cc2)c[n-]n1-c1cccc([O-])c1 (3D coordinates assigned)
N=c1c(C(=O)[N-]c2ccc(S(=O)(=O)N3CCOCC3)cc2)c[n-]n1-c1cccc([O-])c1 (nonaromatic ring conformer: 106.54458882272802 kcal/mol)

>  <smiles>  (3) 
N=c1c(C(=O)Nc2ccc(S(=O)(=O)N3CCOCC3)cc2)c[nH]n1-c1cccc(O)c1

>  <score_type>  (3) 
oracle

>  <origin>  (3) 
adgpu

>  <m_score__min__energy>  (3) 
-11.94

>  <m_primary>  (3) 
energy

$$$$
3:0
     RDKit          3D

 58 61  0  0  0  0  0  0  0  0999 V2000
   -5.3930   26.5200  -30.4630 O   0  0  0  0  0  0  0  0  0  0  0  0
   -4.9530   25.3440  -30.5760 C   0  0  0  0  0  0  0  0  0  0  0  0
   -3.5580   25.0750  -30.3690 N   0  0  0  0  0  0  0  0  0  0  0  0
   -2.9950   24.2450  -29.3430 C   0  0  0  0  0  0  0  0  0  0  0  0
   -3.6360   23.0770  -28.8940 C   0  0  0  0  0  0  0  0  0  0  0  0
   -3.0580   22.3050  -27.8830 C   0  0  0  0  0  0  0  0  0  0  0  0
   -1.8430   22.6920  -27.3090 C   0  0  0  0  0  0  0  0  0  0  0  0
   -1.2070   23.8660  -27.7340 C   0  0  0  0  0  0  0  0  0  0  0  0
    0.3240   24.3600  -27.0080 S   0  0  0  0  0  0  0  0  0  0  0  0
    1.2490   24.8430  -28.0900 O   0  0  0  0  0  0  0  0  0  0  0  0
    0.9620   23.1690  -26.3480 O   0  0  0  0  0  0  0  0  0  0  0  0
    0.1020   25.6300  -25.8290 N   0  0  0  0  0  0  0  0  0  0  0  0
   -0.1030   25.0620  -24.4830 C   0  0  0  0  0  0  0  0  0  0  0  0
   -0.6290   26.1270  -23.4980 C   0  0  0  0  0  0  0  0  0  0  0  0
   -0.4280   27.4320  -24.0040 O   0  0  0  0  0  0  0  0  0  0  0  0
   -1.2160   27.6240  -25.1660 C   0  0  0  0  0  0  0  0  0  0  0  0
   -1.0260   26.4970  -26.2080 C   0  0  0  0  0  0  0  0  0  0  0  0
   -1.7950   24.6450  -28.7410 C   0  0  0  0  0  0  0  0  0  0  0  0
   -5.8860   24.2310  -30.8670 C   0  0  0  0  0  0  0  0  0  0  0  0
   -6.5430   23.5550  -29.8230 C   0  0  0  0  0  0  0  0  0  0  0  0
   -7.4240   22.5070  -30.1000 C   0  0  0  0  0  0  0  0  0  0  0  0
   -7.6610   22.1130  -31.4230 C   0  0  0  0  0  0  0  0  0  0  0  0
   -8.7670   20.7820  -31.7670 S   0  0  0  0  0  0  0  0  0  0  0  0
  -10.0360   21.3350  -32.3530 O   0  0  0  0  0  0  0  0  0  0  0  0
   -9.1190   20.1000  -30.4740 O   0  0  0  0  0  0  0  0  0  0  0  0
   -8.0840   19.6020  -32.8680 N   0  0  0  0  0  0  0  0  0  0  0  0
   -6.7470   19.9860  -33.3560 C   0  0  0  0  0  0  0  0  0  0  0  0
   -5.6140   19.6290  -32.3660 C   0  0  0  0  0  0  0  0  0  0  0  0
   -6.0500   18.8350  -31.2800 O   0  0  0  0  0  0  0  0  0  0  0  0
   -6.8000   17.7440  -31.7600 C   0  0  0  0  0  0  0  0  0  0  0  0
   -8.1430   18.2230  -32.3370 C   0  0  0  0  0  0  0  0  0  0  0  0
   -7.0160   22.7840  -32.4680 C   0  0  0  0  0  0  0  0  0  0  0  0
   -6.1330   23.8330  -32.1940 C   0  0  0  0  0  0  0  0  0  0  0  0
   -4.5940   22.7705  -29.3393 H   0  0  0  0  0  0  0  0  0  0  0  0
   -3.5605   21.3896  -27.5374 H   0  0  0  0  0  0  0  0  0  0  0  0
   -1.3857   22.0737  -26.5225 H   0  0  0  0  0  0  0  0  0  0  0  0
    0.9800   26.2030  -25.8270 H   0  0  0  0  0  0  0  0  0  0  0  0
   -0.8335   24.2422  -24.5477 H   0  0  0  0  0  0  0  0  0  0  0  0
    0.8644   24.6935  -24.1111 H   0  0  0  0  0  0  0  0  0  0  0  0
   -1.7051   25.9663  -23.3361 H   0  0  0  0  0  0  0  0  0  0  0  0
   -0.0769   26.0304  -22.5515 H   0  0  0  0  0  0  0  0  0  0  0  0
   -2.2754   27.6563  -24.8716 H   0  0  0  0  0  0  0  0  0  0  0  0
   -0.8952   28.5667  -25.6334 H   0  0  0  0  0  0  0  0  0  0  0  0
   -1.9445   25.8940  -26.2607 H   0  0  0  0  0  0  0  0  0  0  0  0
   -0.8134   26.9500  -27.1876 H   0  0  0  0  0  0  0  0  0  0  0  0
   -1.3095   25.5787  -29.0611 H   0  0  0  0  0  0  0  0  0  0  0  0
   -6.3616   23.8540  -28.7801 H   0  0  0  0  0  0  0  0  0  0  0  0
   -7.9342   21.9885  -29.2749 H   0  0  0  0  0  0  0  0  0  0  0  0
   -6.5584   19.4653  -34.3064 H   0  0  0  0  0  0  0  0  0  0  0  0
   -6.7438   21.0793  -33.4775 H   0  0  0  0  0  0  0  0  0  0  0  0
   -4.8347   19.0768  -32.9116 H   0  0  0  0  0  0  0  0  0  0  0  0
   -5.2366   20.5739  -31.9480 H   0  0  0  0  0  0  0  0  0  0  0  0
   -6.2294   17.2321  -32.5490 H   0  0  0  0  0  0  0  0  0  0  0  0
   -6.9978   17.0549  -30.9257 H   0  0  0  0  0  0  0  0  0  0  0  0
   -8.4359   17.5454  -33.1525 H   0  0  0  0  0  0  0  0  0  0  0  0
   -8.8750   18.2172  -31.5160 H   0  0  0  0  0  0  0  0  0  0  0  0
   -7.2045   22.4849  -33.5096 H   0  0  0  0  0  0  0  0  0  0  0  0
   -5.6275   24.3512  -33.0222 H   0  0  0  0  0  0  0  0  0  0  0  0
  1  2  2  0
  2  3  1  0
  3  4  1  0
  4  5  2  0
  5  6  1  0
  6  7  2  0
  7  8  1  0
  8  9  1  0
  9 10  2  0
  9 11  2  0
  9 12  1  0
 12 13  1  0
 13 14  1  0
 14 15  1  0
 15 16  1  0
 16 17  1  0
  8 18  2  0
  2 19  1  0
 19 20  2  0
 20 21  1  0
 21 22  2  0
 22 23  1  0
 23 24  2  0
 23 25  2  0
 23 26  1  0
 26 27  1  0
 27 28  1  0
 28 29  1  0
 29 30  1  0
 30 31  1  0
 22 32  1  0
 32 33  2  0
 18  4  1  0
 33 19  1  0
 17 12  1  0
 31 26  1  0
  5 34  1  0
  6 35  1  0
  7 36  1  0
 12 37  1  0
 13 38  1  0
 13 39  1  0
 14 40  1  0
 14 41  1  0
 16 42  1  0
 16 43  1  0
 17 44  1  0
 17 45  1  0
 18 46  1  0
 20 47  1  0
 21 48  1  0
 27 49  1  0
 27 50  1  0
 28 51  1  0
 28 52  1  0
 30 53  1  0
 30 54  1  0
 31 55  1  0
 31 56  1  0
 32 57  1  0
 33 58  1  0
M  CHG  2   3  -1  12   1
M  END
>  <UniqueID>  (4) 
4

>  <SMILES>  (4) 
O=C([N-]c1cccc(S(=O)(=O)[NH+]2CCOCC2)c1)c1ccc(S(=O)(=O)N2CCOCC2)cc1

>  <Energy>  (4) 
82.55082405177933

>  <Genealogy>  (4) 
O=C([N-]c1cccc(S(=O)(=O)[NH+]2CCOCC2)c1)c1ccc(S(=O)(=O)N2CCOCC2)cc1 (protonated)
O=C([N-]c1cccc(S(=O)(=O)[NH+]2CCOCC2)c1)c1ccc(S(=O)(=O)N2CCOCC2)cc1 (3D coordinates assigned)
O=C([N-]c1cccc(S(=O)(=O)[NH+]2CCOCC2)c1)c1ccc(S(=O)(=O)N2CCOCC2)cc1 (nonaromatic ring conformer: 82.55082405177933 kcal/mol)

>  <smiles>  (4) 
O=C(Nc1cccc(S(=O)(=O)N2CCOCC2)c1)c1ccc(S(=O)(=O)N2CCOCC2)cc1

>  <score_type>  (4) 
oracle

>  <origin>  (4) 
adgpu

>  <m_score__min__energy>  (4) 
-12.369999999999999

>  <m_primary>  (4) 
energy

$$$$
4:0
     RDKit          3D

 61 64  0  0  0  0  0  0  0  0999 V2000
   -0.4850   20.5210  -34.8480 C   0  0  0  0  0  0  0  0  0  0  0  0
   -0.0680   19.3550  -34.0600 N   0  0  0  0  0  0  0  0  0  0  0  0
    1.2920   19.5530  -33.5410 C   0  0  0  0  0  0  0  0  0  0  0  0
   -1.1800   19.1080  -32.7360 S   0  0  0  0  0  0  0  0  0  0  0  0
   -2.5820   19.0400  -33.2750 O   0  0  0  0  0  0  0  0  0  0  0  0
   -0.8770   17.7980  -32.0630 O   0  0  0  0  0  0  0  0  0  0  0  0
   -1.0720   20.4080  -31.5460 C   0  0  0  0  0  0  0  0  0  0  0  0
   -1.6890   21.6430  -31.7900 C   0  0  0  0  0  0  0  0  0  0  0  0
   -1.5980   22.6730  -30.8490 C   0  0  0  0  0  0  0  0  0  0  0  0
   -0.8730   22.4860  -29.6640 C   0  0  0  0  0  0  0  0  0  0  0  0
   -0.7580   23.7890  -28.4820 S   0  0  0  0  0  0  0  0  0  0  0  0
   -1.5350   24.9780  -28.9750 O   0  0  0  0  0  0  0  0  0  0  0  0
    0.6770   24.2000  -28.3050 O   0  0  0  0  0  0  0  0  0  0  0  0
   -1.4290   23.2610  -26.9670 N   0  0  0  0  0  0  0  0  0  0  0  0
   -2.4700   22.2540  -27.1750 C   0  0  0  0  0  0  0  0  0  0  0  0
   -3.5100   22.8110  -28.0930 C   0  0  0  0  0  0  0  0  0  0  0  0
   -3.8720   22.1750  -29.2360 N   0  0  0  0  0  0  0  0  0  0  0  0
   -4.8040   22.9910  -29.7620 C   0  0  0  0  0  0  0  0  0  0  0  0
   -5.5170   22.8170  -30.9520 C   0  0  0  0  0  0  0  0  0  0  0  0
   -5.2280   21.4360  -32.0130 S   0  0  0  0  0  0  0  0  0  0  0  0
   -4.3860   21.8750  -33.1810 O   0  0  0  0  0  0  0  0  0  0  0  0
   -4.4420   20.4100  -31.2450 O   0  0  0  0  0  0  0  0  0  0  0  0
   -6.7190   20.6890  -32.5550 N   0  0  0  0  0  0  0  0  0  0  0  0
   -7.8260   20.8890  -31.6230 C   0  0  0  0  0  0  0  0  0  0  0  0
   -8.8390   19.7970  -31.9350 C   0  0  0  0  0  0  0  0  0  0  0  0
   -8.0450   18.7160  -32.6570 C   0  0  0  0  0  0  0  0  0  0  0  0
   -6.6180   19.2390  -32.6960 C   0  0  0  0  0  0  0  0  0  0  0  0
   -6.4460   23.8190  -31.3040 C   0  0  0  0  0  0  0  0  0  0  0  0
   -6.6400   24.9420  -30.4690 C   0  0  0  0  0  0  0  0  0  0  0  0
   -5.9030   25.0850  -29.2800 C   0  0  0  0  0  0  0  0  0  0  0  0
   -4.9830   24.0840  -28.9630 C   0  0  0  0  0  0  0  0  0  0  0  0
   -4.1500   23.9980  -27.9120 N   0  0  0  0  0  0  0  0  0  0  0  0
   -4.0310   24.9210  -26.7840 C   0  0  0  0  0  0  0  0  0  0  0  0
   -0.2530   21.2520  -29.4230 C   0  0  0  0  0  0  0  0  0  0  0  0
   -0.3590   20.2170  -30.3560 C   0  0  0  0  0  0  0  0  0  0  0  0
   -0.7767   21.3365  -34.1699 H   0  0  0  0  0  0  0  0  0  0  0  0
    0.3503   20.8526  -35.4823 H   0  0  0  0  0  0  0  0  0  0  0  0
   -1.3411   20.2477  -35.4823 H   0  0  0  0  0  0  0  0  0  0  0  0
    1.2689   19.5496  -32.4412 H   0  0  0  0  0  0  0  0  0  0  0  0
    1.9421   18.7400  -33.8966 H   0  0  0  0  0  0  0  0  0  0  0  0
    1.6833   20.5176  -33.8966 H   0  0  0  0  0  0  0  0  0  0  0  0
   -2.2465   21.8021  -32.7248 H   0  0  0  0  0  0  0  0  0  0  0  0
   -2.0975   23.6344  -31.0394 H   0  0  0  0  0  0  0  0  0  0  0  0
   -2.0268   21.3527  -27.6236 H   0  0  0  0  0  0  0  0  0  0  0  0
   -2.9288   21.9894  -26.2109 H   0  0  0  0  0  0  0  0  0  0  0  0
   -7.4731   20.7979  -30.5851 H   0  0  0  0  0  0  0  0  0  0  0  0
   -8.2674   21.8908  -31.7304 H   0  0  0  0  0  0  0  0  0  0  0  0
   -9.2774   19.4001  -31.0075 H   0  0  0  0  0  0  0  0  0  0  0  0
   -9.6751   20.1713  -32.5440 H   0  0  0  0  0  0  0  0  0  0  0  0
   -8.0940   17.7659  -32.1049 H   0  0  0  0  0  0  0  0  0  0  0  0
   -8.4400   18.5148  -33.6637 H   0  0  0  0  0  0  0  0  0  0  0  0
   -6.0320   18.8140  -31.8678 H   0  0  0  0  0  0  0  0  0  0  0  0
   -6.1106   18.9586  -33.6308 H   0  0  0  0  0  0  0  0  0  0  0  0
   -7.0235   23.7251  -32.2355 H   0  0  0  0  0  0  0  0  0  0  0  0
   -7.3739   25.7112  -30.7514 H   0  0  0  0  0  0  0  0  0  0  0  0
   -6.0464   25.9552  -28.6226 H   0  0  0  0  0  0  0  0  0  0  0  0
   -4.1035   24.3590  -25.8412 H   0  0  0  0  0  0  0  0  0  0  0  0
   -3.0592   25.4343  -26.8312 H   0  0  0  0  0  0  0  0  0  0  0  0
   -4.8408   25.6640  -26.8312 H   0  0  0  0  0  0  0  0  0  0  0  0
    0.3190   21.0978  -28.4961 H   0  0  0  0  0  0  0  0  0  0  0  0
    0.1200   19.2475  -30.1546 H   0  0  0  0  0  0  0  0  0  0  0  0
  1  2  1  0
  2  3  1  0
  2  4  1  0
  4  5  2  0
  4  6  2  0
  4  7  1  0
  7  8  2  0
  8  9  1  0
  9 10  2  0
 10 11  1  0
 11 12  2  0
 11 13  2  0
 11 14  1  0
 14 15  1  0
 15 16  1  0
 16 17  2  0
 17 18  1  0
 18 19  2  0
 19 20  1  0
 20 21  2  0
 20 22  2  0
 20 23  1  0
 23 24  1  0
 24 25  1  0
 25 26  1  0
 26 27  1  0
 19 28  1  0
 28 29  2  0
 29 30  1  0
 30 31  2  0
 31 32  1  0
 32 33  1  0
 10 34  1  0
 34 35  2  0
 35  7  1  0
 32 16  1  0
 31 18  1  0
 27 23  1  0
  1 36  1  0
  1 37  1  0
  1 38  1  0
  3 39  1  0
  3 40  1  0
  3 41  1  0
  8 42  1  0
  9 43  1  0
 15 44  1  0
 15 45  1  0
 24 46  1  0
 24 47  1  0
 25 48  1  0
 25 49  1  0
 26 50  1  0
 26 51  1  0
 27 52  1  0
 27 53  1  0
 28 54  1  0
 29 55  1  0
 30 56  1  0
 33 57  1  0
 33 58  1  0
 33 59  1  0
 34 60  1  0
 35 61  1  0
M  CHG  1  14  -1
M  END
>  <UniqueID>  (5) 
5

>  <SMILES>  (5) 
CN(C)S(=O)(=O)c1ccc(S(=O)(=O)[N-]Cc2nc3c(S(=O)(=O)N4CCCC4)cccc3n2C)cc1

>  <Energy>  (5) 
97.0992885792488

>  <Genealogy>  (5) 
CN(C)S(=O)(=O)c1ccc(S(=O)(=O)[N-]Cc2nc3c(S(=O)(=O)N4CCCC4)cccc3n2C)cc1 (protonated)
CN(C)S(=O)(=O)c1ccc(S(=O)(=O)[N-]Cc2nc3c(S(=O)(=O)N4CCCC4)cccc3n2C)cc1 (3D coordinates assigned)
CN(C)S(=O)(=O)c1ccc(S(=O)(=O)[N-]Cc2nc3c(S(=O)(=O)N4CCCC4)cccc3n2C)cc1 (nonaromatic ring conformer: 97.0992885792488 kcal/mol)

>  <smiles>  (5) 
CN(C)S(=O)(=O)c1ccc(S(=O)(=O)NCc2nc3c(S(=O)(=O)N4CCCC4)cccc3n2C)cc1

>  <score_type>  (5) 
oracle

>  <origin>  (5) 
adgpu

>  <m_score__min__energy>  (5) 
-11.710000000000001

>  <m_primary>  (5) 
energy

$$$$
5:0
     RDKit          3D

 41 43  0  0  0  0  0  0  0  0999 V2000
   -0.6350   27.4900  -25.7870 C   0  0  0  0  0  0  0  0  0  0  0  0
   -0.9810   26.6480  -26.9670 C   0  0  0  0  0  0  0  0  0  0  0  0
   -0.8570   27.0640  -28.2420 N   0  0  0  0  0  0  0  0  0  0  0  0
   -1.3060   26.0780  -28.9560 O   0  0  0  0  0  0  0  0  0  0  0  0
   -1.7060   25.1050  -28.1710 C   0  0  0  0  0  0  0  0  0  0  0  0
   -2.2400   23.8170  -28.6640 C   0  0  0  0  0  0  0  0  0  0  0  0
   -1.8930   22.6510  -27.9600 C   0  0  0  0  0  0  0  0  0  0  0  0
   -2.4400   21.4180  -28.3090 C   0  0  0  0  0  0  0  0  0  0  0  0
   -3.3280   21.3260  -29.3780 C   0  0  0  0  0  0  0  0  0  0  0  0
   -3.6490   22.4570  -30.1310 C   0  0  0  0  0  0  0  0  0  0  0  0
   -4.5260   22.3090  -31.2160 O   0  0  0  0  0  0  0  0  0  0  0  0
   -4.8290   21.0920  -31.8430 C   0  0  0  0  0  0  0  0  0  0  0  0
   -6.1320   20.5930  -31.7490 C   0  0  0  0  0  0  0  0  0  0  0  0
   -6.4740   19.3820  -32.3570 C   0  0  0  0  0  0  0  0  0  0  0  0
   -5.5080   18.6480  -33.0570 C   0  0  0  0  0  0  0  0  0  0  0  0
   -5.9290   17.1330  -33.8520 S   0  0  0  0  0  0  0  0  0  0  0  0
   -6.1680   17.3670  -35.3180 O   0  0  0  0  0  0  0  0  0  0  0  0
   -7.1940   16.5990  -33.2420 O   0  0  0  0  0  0  0  0  0  0  0  0
   -4.6210   15.9280  -33.6410 C   0  0  0  0  0  0  0  0  0  0  0  0
   -3.4020   16.2250  -34.5170 C   0  0  0  0  0  0  0  0  0  0  0  0
   -2.3070   16.5350  -33.7300 F   0  0  0  0  0  0  0  0  0  0  0  0
   -3.6820   17.3040  -35.3340 F   0  0  0  0  0  0  0  0  0  0  0  0
   -3.1020   15.1340  -35.3120 F   0  0  0  0  0  0  0  0  0  0  0  0
   -4.1970   19.1360  -33.1420 C   0  0  0  0  0  0  0  0  0  0  0  0
   -3.8550   20.3460  -32.5340 C   0  0  0  0  0  0  0  0  0  0  0  0
   -3.1130   23.7150  -29.7780 C   0  0  0  0  0  0  0  0  0  0  0  0
   -3.4580   24.8240  -30.5560 O   0  0  0  0  0  0  0  0  0  0  0  0
   -1.5210   25.4160  -26.8720 N   0  0  0  0  0  0  0  0  0  0  0  0
   -0.8620   26.9376  -24.8632 H   0  0  0  0  0  0  0  0  0  0  0  0
    0.4369   27.7355  -25.8134 H   0  0  0  0  0  0  0  0  0  0  0  0
   -1.2246   28.4183  -25.8134 H   0  0  0  0  0  0  0  0  0  0  0  0
   -1.1812   22.7126  -27.1236 H   0  0  0  0  0  0  0  0  0  0  0  0
   -2.1702   20.5163  -27.7397 H   0  0  0  0  0  0  0  0  0  0  0  0
   -3.7796   20.3554  -29.6308 H   0  0  0  0  0  0  0  0  0  0  0  0
   -6.8938   21.1582  -31.1921 H   0  0  0  0  0  0  0  0  0  0  0  0
   -7.5046   19.0042  -32.2856 H   0  0  0  0  0  0  0  0  0  0  0  0
   -4.3065   15.9300  -32.5869 H   0  0  0  0  0  0  0  0  0  0  0  0
   -5.0183   14.9478  -33.9433 H   0  0  0  0  0  0  0  0  0  0  0  0
   -3.4340   18.5636  -33.6899 H   0  0  0  0  0  0  0  0  0  0  0  0
   -2.8214   20.7174  -32.5952 H   0  0  0  0  0  0  0  0  0  0  0  0
   -2.9130   25.6740  -30.5930 H   0  0  0  0  0  0  0  0  0  0  0  0
  1  2  1  0
  2  3  2  0
  3  4  1  0
  4  5  1  0
  5  6  1  0
  6  7  2  0
  7  8  1  0
  8  9  2  0
  9 10  1  0
 10 11  1  0
 11 12  1  0
 12 13  2  0
 13 14  1  0
 14 15  2  0
 15 16  1  0
 16 17  2  0
 16 18  2  0
 16 19  1  0
 19 20  1  0
 20 21  1  0
 20 22  1  0
 20 23  1  0
 15 24  1  0
 24 25  2  0
 10 26  2  0
 26 27  1  0
  5 28  2  0
 28  2  1  0
 26  6  1  0
 25 12  1  0
  1 29  1  0
  1 30  1  0
  1 31  1  0
  7 32  1  0
  8 33  1  0
  9 34  1  0
 13 35  1  0
 14 36  1  0
 19 37  1  0
 19 38  1  0
 24 39  1  0
 25 40  1  0
 27 41  1  0
M  END
>  <UniqueID>  (6) 
6

>  <SMILES>  (6) 
Cc1noc(-c2cccc(Oc3ccc(S(=O)(=O)CC(F)(F)F)cc3)c2O)n1

>  <Energy>  (6) 
83.43799338834404

>  <Genealogy>  (6) 
Cc1noc(-c2cccc(Oc3ccc(S(=O)(=O)CC(F)(F)F)cc3)c2O)n1 (3D coordinates assigned)
Cc1noc(-c2cccc(Oc3ccc(S(=O)(=O)CC(F)(F)F)cc3)c2O)n1 (optimized conformer: 83.43799338834404 kcal/mol)

>  <smiles>  (6) 
Cc1noc(-c2cccc(Oc3ccc(S(=O)(=O)CC(F)(F)F)cc3)c2O)n1

>  <score_type>  (6) 
oracle

>  <origin>  (6) 
adgpu

>  <m_score__min__energy>  (6) 
-8.4800000000000004

>  <m_primary>  (6) 
energy

$$$$
6:0
     RDKit          3D

 42 44  0  0  0  0  0  0  0  0999 V2000
    0.8230   22.2760  -26.8000 C   0  0  0  0  0  0  0  0  0  0  0  0
   -0.6380   22.1790  -27.1550 C   0  0  0  0  0  0  0  0  0  0  0  0
   -1.2960   20.9630  -26.9110 C   0  0  0  0  0  0  0  0  0  0  0  0
   -2.6460   20.8140  -27.2070 C   0  0  0  0  0  0  0  0  0  0  0  0
   -3.3650   21.8760  -27.7440 C   0  0  0  0  0  0  0  0  0  0  0  0
   -2.7380   23.1060  -28.0080 C   0  0  0  0  0  0  0  0  0  0  0  0
   -3.4960   24.2130  -28.5220 N   0  0  0  0  0  0  0  0  0  0  0  0
   -4.3460   24.2370  -30.0330 S   0  0  0  0  0  0  0  0  0  0  0  0
   -3.9030   25.4330  -30.8270 O   0  0  0  0  0  0  0  0  0  0  0  0
   -5.8210   24.3520  -29.7710 O   0  0  0  0  0  0  0  0  0  0  0  0
   -4.0380   22.7350  -30.9160 C   0  0  0  0  0  0  0  0  0  0  0  0
   -5.1280   21.9540  -31.3330 C   0  0  0  0  0  0  0  0  0  0  0  0
   -4.9310   20.7840  -32.0840 C   0  0  0  0  0  0  0  0  0  0  0  0
   -6.0870   19.9790  -32.5320 C   0  0  0  0  0  0  0  0  0  0  0  0
   -5.9960   18.8690  -33.2970 N   0  0  0  0  0  0  0  0  0  0  0  0
   -7.2430   18.4560  -33.4530 N   0  0  0  0  0  0  0  0  0  0  0  0
   -8.0500   19.2880  -32.8190 N   0  0  0  0  0  0  0  0  0  0  0  0
   -9.4910   19.1100  -32.7090 C   0  0  0  0  0  0  0  0  0  0  0  0
   -7.3710   20.2470  -32.2160 N   0  0  0  0  0  0  0  0  0  0  0  0
   -3.6260   20.3960  -32.4130 C   0  0  0  0  0  0  0  0  0  0  0  0
   -2.5320   21.1580  -31.9950 C   0  0  0  0  0  0  0  0  0  0  0  0
   -0.9110   20.6330  -32.4240 Cl  0  0  0  0  0  0  0  0  0  0  0  0
   -2.7250   22.3260  -31.2440 C   0  0  0  0  0  0  0  0  0  0  0  0
   -1.6010   23.0510  -30.8400 O   0  0  0  0  0  0  0  0  0  0  0  0
   -1.3520   23.2570  -27.7500 C   0  0  0  0  0  0  0  0  0  0  0  0
   -0.5290   24.8010  -28.1000 S   0  0  0  0  0  0  0  0  0  0  0  0
   -1.3820   25.6660  -29.3310 N   0  0  0  0  0  0  0  0  0  0  0  0
   -0.4690   25.6850  -26.8850 O   0  0  0  0  0  0  0  0  0  0  0  0
    0.8720   24.5170  -28.5620 O   0  0  0  0  0  0  0  0  0  0  0  0
    0.9347   22.2834  -25.7057 H   0  0  0  0  0  0  0  0  0  0  0  0
    1.3600   21.4115  -27.2175 H   0  0  0  0  0  0  0  0  0  0  0  0
    1.2410   23.2039  -27.2175 H   0  0  0  0  0  0  0  0  0  0  0  0
   -0.7371   20.1189  -26.4808 H   0  0  0  0  0  0  0  0  0  0  0  0
   -3.1467   19.8534  -27.0159 H   0  0  0  0  0  0  0  0  0  0  0  0
   -4.4356   21.7523  -27.9645 H   0  0  0  0  0  0  0  0  0  0  0  0
   -6.1499   22.2629  -31.0678 H   0  0  0  0  0  0  0  0  0  0  0  0
   -9.7761   19.0748  -31.6472 H   0  0  0  0  0  0  0  0  0  0  0  0
  -10.0028   19.9517  -33.1984 H   0  0  0  0  0  0  0  0  0  0  0  0
   -9.7826   18.1690  -33.1984 H   0  0  0  0  0  0  0  0  0  0  0  0
   -3.4610   19.4839  -33.0053 H   0  0  0  0  0  0  0  0  0  0  0  0
   -1.6360   23.8270  -30.1950 H   0  0  0  0  0  0  0  0  0  0  0  0
   -1.9730   24.9700  -29.8390 H   0  0  0  0  0  0  0  0  0  0  0  0
  1  2  1  0
  2  3  2  0
  3  4  1  0
  4  5  2  0
  5  6  1  0
  6  7  1  0
  7  8  1  0
  8  9  2  0
  8 10  2  0
  8 11  1  0
 11 12  2  0
 12 13  1  0
 13 14  1  0
 14 15  1  0
 15 16  2  0
 16 17  1  0
 17 18  1  0
 17 19  1  0
 13 20  2  0
 20 21  1  0
 21 22  1  0
 21 23  2  0
 23 24  1  0
  6 25  2  0
 25 26  1  0
 26 27  1  0
 26 28  2  0
 26 29  2  0
 25  2  1  0
 23 11  1  0
 19 14  2  0
  1 30  1  0
  1 31  1  0
  1 32  1  0
  3 33  1  0
  4 34  1  0
  5 35  1  0
 12 36  1  0
 18 37  1  0
 18 38  1  0
 18 39  1  0
 20 40  1  0
 24 41  1  0
 27 42  1  0
M  CHG  2   7  -1  27  -1
M  END
>  <UniqueID>  (7) 
7

>  <SMILES>  (7) 
Cc1cccc([N-]S(=O)(=O)c2cc(-c3nnn(C)n3)cc(Cl)c2O)c1S([NH-])(=O)=O

>  <Energy>  (7) 
91.37475152633591

>  <Genealogy>  (7) 
Cc1cccc([N-]S(=O)(=O)c2cc(-c3nnn(C)n3)cc(Cl)c2O)c1S([NH-])(=O)=O (protonated)
Cc1cccc([N-]S(=O)(=O)c2cc(-c3nnn(C)n3)cc(Cl)c2O)c1S([NH-])(=O)=O (3D coordinates assigned)
Cc1cccc([N-]S(=O)(=O)c2cc(-c3nnn(C)n3)cc(Cl)c2O)c1S([NH-])(=O)=O (optimized conformer: 91.37475152633591 kcal/mol)

>  <smiles>  (7) 
Cc1cccc(NS(=O)(=O)c2cc(-c3nnn(C)n3)cc(Cl)c2O)c1S(N)(=O)=O

>  <score_type>  (7) 
oracle

>  <origin>  (7) 
adgpu

>  <m_score__min__energy>  (7) 
-12.84

>  <m_primary>  (7) 
energy

$$$$
7:0
     RDKit          3D

 49 52  0  0  0  0  0  0  0  0999 V2000
   -6.4860   18.3750  -33.8240 C   0  0  0  0  0  0  0  0  0  0  0  0
   -6.2460   18.4010  -32.3700 N   0  0  0  0  0  0  0  0  0  0  0  0
   -7.4960   18.3380  -31.5860 C   0  0  0  0  0  0  0  0  0  0  0  0
   -8.3810   19.5800  -31.7840 C   0  0  0  0  0  0  0  0  0  0  0  0
   -7.5870   20.8600  -31.7810 C   0  0  0  0  0  0  0  0  0  0  0  0
   -8.2700   22.0840  -31.7080 C   0  0  0  0  0  0  0  0  0  0  0  0
   -7.5670   23.2890  -31.7740 C   0  0  0  0  0  0  0  0  0  0  0  0
   -6.1780   23.2930  -31.9350 C   0  0  0  0  0  0  0  0  0  0  0  0
   -5.4970   24.5550  -31.9640 N   0  0  0  0  0  0  0  0  0  0  0  0
   -5.0610   25.3230  -30.8330 C   0  0  0  0  0  0  0  0  0  0  0  0
   -5.8880   25.9700  -30.1370 O   0  0  0  0  0  0  0  0  0  0  0  0
   -3.6870   25.2850  -30.4320 N   0  0  0  0  0  0  0  0  0  0  0  0
   -3.1410   24.3230  -29.5170 C   0  0  0  0  0  0  0  0  0  0  0  0
   -3.9260   23.2330  -29.1490 C   0  0  0  0  0  0  0  0  0  0  0  0
   -3.4280   22.2700  -28.2760 C   0  0  0  0  0  0  0  0  0  0  0  0
   -2.1270   22.3670  -27.7740 C   0  0  0  0  0  0  0  0  0  0  0  0
   -1.6200   21.0910  -26.6720 Cl  0  0  0  0  0  0  0  0  0  0  0  0
   -1.3070   23.4680  -28.1320 C   0  0  0  0  0  0  0  0  0  0  0  0
    0.4030   23.5760  -27.6370 S   0  0  0  0  0  0  0  0  0  0  0  0
    1.1810   24.5430  -28.4880 O   0  0  0  0  0  0  0  0  0  0  0  0
    1.0380   22.2170  -27.7560 O   0  0  0  0  0  0  0  0  0  0  0  0
    0.4620   24.1950  -25.9480 C   0  0  0  0  0  0  0  0  0  0  0  0
   -0.9060   24.5060  -25.3590 C   0  0  0  0  0  0  0  0  0  0  0  0
    0.0300   25.6400  -25.7460 C   0  0  0  0  0  0  0  0  0  0  0  0
   -1.8600   24.4870  -28.9510 C   0  0  0  0  0  0  0  0  0  0  0  0
   -1.1800   25.6870  -29.1860 O   0  0  0  0  0  0  0  0  0  0  0  0
   -5.4870   22.0700  -31.9930 C   0  0  0  0  0  0  0  0  0  0  0  0
   -6.1870   20.8530  -31.9470 C   0  0  0  0  0  0  0  0  0  0  0  0
   -5.4170   19.5530  -31.9650 C   0  0  0  0  0  0  0  0  0  0  0  0
   -7.5628   18.2583  -34.0159 H   0  0  0  0  0  0  0  0  0  0  0  0
   -6.1339   19.3165  -34.2706 H   0  0  0  0  0  0  0  0  0  0  0  0
   -5.9404   17.5307  -34.2706 H   0  0  0  0  0  0  0  0  0  0  0  0
   -8.0628   17.4482  -31.8974 H   0  0  0  0  0  0  0  0  0  0  0  0
   -7.2202   18.2913  -30.5221 H   0  0  0  0  0  0  0  0  0  0  0  0
   -8.9033   19.4910  -32.7480 H   0  0  0  0  0  0  0  0  0  0  0  0
   -9.0889   19.6237  -30.9432 H   0  0  0  0  0  0  0  0  0  0  0  0
   -9.3645   22.0943  -31.5983 H   0  0  0  0  0  0  0  0  0  0  0  0
   -8.1103   24.2425  -31.6987 H   0  0  0  0  0  0  0  0  0  0  0  0
   -4.9452   23.1326  -29.5505 H   0  0  0  0  0  0  0  0  0  0  0  0
   -4.0648   21.4240  -27.9781 H   0  0  0  0  0  0  0  0  0  0  0  0
    1.3420   23.6086  -25.6450 H   0  0  0  0  0  0  0  0  0  0  0  0
   -1.8147   24.3173  -25.9494 H   0  0  0  0  0  0  0  0  0  0  0  0
   -1.4417   24.2183  -24.4423 H   0  0  0  0  0  0  0  0  0  0  0  0
   -0.2016   26.2715  -26.6163 H   0  0  0  0  0  0  0  0  0  0  0  0
    0.4518   26.5123  -25.2252 H   0  0  0  0  0  0  0  0  0  0  0  0
   -0.1750   25.7780  -29.1570 H   0  0  0  0  0  0  0  0  0  0  0  0
   -4.3901   22.0661  -32.0750 H   0  0  0  0  0  0  0  0  0  0  0  0
   -4.5807   19.6500  -32.6730 H   0  0  0  0  0  0  0  0  0  0  0  0
   -5.0653   19.3630  -30.9402 H   0  0  0  0  0  0  0  0  0  0  0  0
  1  2  1  0
  2  3  1  0
  3  4  1  0
  4  5  1  0
  5  6  2  0
  6  7  1  0
  7  8  2  0
  8  9  1  0
  9 10  1  0
 10 11  2  0
 10 12  1  0
 12 13  1  0
 13 14  2  0
 14 15  1  0
 15 16  2  0
 16 17  1  0
 16 18  1  0
 18 19  1  0
 19 20  2  0
 19 21  2  0
 19 22  1  0
 22 23  1  0
 23 24  1  0
 18 25  2  0
 25 26  1  0
  8 27  1  0
 27 28  2  0
 28 29  1  0
 29  2  1  0
 28  5  1  0
 25 13  1  0
 24 22  1  0
  1 30  1  0
  1 31  1  0
  1 32  1  0
  3 33  1  0
  3 34  1  0
  4 35  1  0
  4 36  1  0
  6 37  1  0
  7 38  1  0
 14 39  1  0
 15 40  1  0
 22 41  1  0
 23 42  1  0
 23 43  1  0
 24 44  1  0
 24 45  1  0
 26 46  1  0
 27 47  1  0
 29 48  1  0
 29 49  1  0
M  CHG  2   9  -1  12  -1
M  END
>  <UniqueID>  (8) 
8

>  <SMILES>  (8) 
CN1CCc2ccc([N-]C(=O)[N-]c3ccc(Cl)c(S(=O)(=O)C4CC4)c3O)cc2C1

>  <Energy>  (8) 
334.3396932439053

>  <Genealogy>  (8) 
CN1CCc2ccc([N-]C(=O)[N-]c3ccc(Cl)c(S(=O)(=O)C4CC4)c3O)cc2C1 (protonated)
CN1CCc2ccc([N-]C(=O)[N-]c3ccc(Cl)c(S(=O)(=O)C4CC4)c3O)cc2C1 (3D coordinates assigned)
CN1CCc2ccc([N-]C(=O)[N-]c3ccc(Cl)c(S(=O)(=O)C4CC4)c3O)cc2C1 (nonaromatic ring conformer: 334.3396932439053 kcal/mol)

>  <smiles>  (8) 
CN1CCc2ccc(NC(=O)Nc3ccc(Cl)c(S(=O)(=O)C4CC4)c3O)cc2C1

>  <score_type>  (8) 
oracle

>  <origin>  (8) 
adgpu

>  <m_score__min__energy>  (8) 
-13.41

>  <m_primary>  (8) 
energy

$$$$
8:0
     RDKit          3D

 34 36  0  0  0  0  0  0  0  0999 V2000
   -1.2310   26.3610  -24.7580 C   0  0  0  0  0  0  0  0  0  0  0  0
   -1.7480   25.6340  -25.9640 C   0  0  0  0  0  0  0  0  0  0  0  0
   -3.0950   25.2470  -26.0330 C   0  0  0  0  0  0  0  0  0  0  0  0
   -3.5690   24.5380  -27.1410 C   0  0  0  0  0  0  0  0  0  0  0  0
   -2.6990   24.1960  -28.1860 C   0  0  0  0  0  0  0  0  0  0  0  0
   -3.1870   23.4690  -29.3270 N   0  0  0  0  0  0  0  0  0  0  0  0
   -3.7330   23.9810  -30.4520 C   0  0  0  0  0  0  0  0  0  0  0  0
   -3.8660   25.3370  -30.7380 O   0  0  0  0  0  0  0  0  0  0  0  0
   -4.1190   22.9570  -31.2850 C   0  0  0  0  0  0  0  0  0  0  0  0
   -3.8050   21.7910  -30.6840 N   0  0  0  0  0  0  0  0  0  0  0  0
   -4.1260   20.4560  -31.1900 C   0  0  0  0  0  0  0  0  0  0  0  0
   -5.4950   20.4550  -31.7930 C   0  0  0  0  0  0  0  0  0  0  0  0
   -5.9050   19.6970  -32.8710 C   0  0  0  0  0  0  0  0  0  0  0  0
   -7.2380   19.9980  -33.0480 C   0  0  0  0  0  0  0  0  0  0  0  0
   -7.5580   20.9160  -32.0660 C   0  0  0  0  0  0  0  0  0  0  0  0
   -6.4980   21.1660  -31.3330 O   0  0  0  0  0  0  0  0  0  0  0  0
   -3.2490   22.1260  -29.4950 C   0  0  0  0  0  0  0  0  0  0  0  0
   -2.7990   21.0330  -28.3520 S   0  0  0  0  0  0  0  0  0  0  0  0
   -1.3490   24.5680  -28.1090 C   0  0  0  0  0  0  0  0  0  0  0  0
   -0.8740   25.2770  -27.0020 C   0  0  0  0  0  0  0  0  0  0  0  0
   -1.5878   25.8592  -23.8465 H   0  0  0  0  0  0  0  0  0  0  0  0
   -0.1311   26.3579  -24.7716 H   0  0  0  0  0  0  0  0  0  0  0  0
   -1.5950   27.3990  -24.7716 H   0  0  0  0  0  0  0  0  0  0  0  0
   -3.7810   25.5025  -25.2119 H   0  0  0  0  0  0  0  0  0  0  0  0
   -4.6286   24.2474  -27.1930 H   0  0  0  0  0  0  0  0  0  0  0  0
   -4.1630   25.6610  -31.6510 H   0  0  0  0  0  0  0  0  0  0  0  0
   -4.5992   23.0691  -32.2683 H   0  0  0  0  0  0  0  0  0  0  0  0
   -3.3901   20.1696  -31.9558 H   0  0  0  0  0  0  0  0  0  0  0  0
   -4.0964   19.7369  -30.3581 H   0  0  0  0  0  0  0  0  0  0  0  0
   -5.2957   18.9992  -33.4642 H   0  0  0  0  0  0  0  0  0  0  0  0
   -7.9115   19.5899  -33.8160 H   0  0  0  0  0  0  0  0  0  0  0  0
   -8.5500   21.3685  -31.9206 H   0  0  0  0  0  0  0  0  0  0  0  0
   -0.6604   24.3004  -28.9240 H   0  0  0  0  0  0  0  0  0  0  0  0
    0.1885   25.5560  -26.9444 H   0  0  0  0  0  0  0  0  0  0  0  0
  1  2  1  0
  2  3  2  0
  3  4  1  0
  4  5  2  0
  5  6  1  0
  6  7  1  0
  7  8  1  0
  7  9  2  0
  9 10  1  0
 10 11  1  0
 11 12  1  0
 12 13  2  0
 13 14  1  0
 14 15  2  0
 15 16  1  0
 10 17  1  0
 17 18  2  0
  5 19  1  0
 19 20  2  0
 20  2  1  0
 17  6  1  0
 16 12  1  0
  1 21  1  0
  1 22  1  0
  1 23  1  0
  3 24  1  0
  4 25  1  0
  8 26  1  0
  9 27  1  0
 11 28  1  0
 11 29  1  0
 13 30  1  0
 14 31  1  0
 15 32  1  0
 19 33  1  0
 20 34  1  0
M  END
>  <UniqueID>  (9) 
9

>  <SMILES>  (9) 
Cc1ccc(-n2c(O)cn(Cc3ccco3)c2=S)cc1

>  <Energy>  (9) 
99.63481977988924

>  <Genealogy>  (9) 
Cc1ccc(-n2c(O)cn(Cc3ccco3)c2=S)cc1 (3D coordinates assigned)
Cc1ccc(-n2c(O)cn(Cc3ccco3)c2=S)cc1 (optimized conformer: 99.63481977988924 kcal/mol)

>  <smiles>  (9) 
Cc1ccc(-n2c(O)cn(Cc3ccco3)c2=S)cc1

>  <score_type>  (9) 
oracle

>  <origin>  (9) 
adgpu

>  <m_score__min__energy>  (9) 
-7.5899999999999999

>  <m_primary>  (9) 
energy

$$$$
9:0
     RDKit          3D

 54 57  0  0  0  0  0  0  0  0999 V2000
   -0.5940   21.8730  -31.8860 O   0  0  0  0  0  0  0  0  0  0  0  0
   -1.5490   21.4570  -31.1740 C   0  0  0  0  0  0  0  0  0  0  0  0
   -2.6700   20.7450  -31.8230 C   0  0  0  0  0  0  0  0  0  0  0  0
   -3.8280   20.4170  -31.0980 C   0  0  0  0  0  0  0  0  0  0  0  0
   -4.8800   19.7360  -31.7160 C   0  0  0  0  0  0  0  0  0  0  0  0
   -4.7870   19.3640  -33.0640 C   0  0  0  0  0  0  0  0  0  0  0  0
   -6.1070   18.4830  -33.8420 S   0  0  0  0  0  0  0  0  0  0  0  0
   -6.0720   18.7570  -35.3190 O   0  0  0  0  0  0  0  0  0  0  0  0
   -5.9000   17.0080  -33.6410 O   0  0  0  0  0  0  0  0  0  0  0  0
   -7.6790   18.9250  -33.2210 N   0  0  0  0  0  0  0  0  0  0  0  0
   -7.7730   20.3530  -32.9200 C   0  0  0  0  0  0  0  0  0  0  0  0
   -8.8790   20.4960  -31.8860 C   0  0  0  0  0  0  0  0  0  0  0  0
   -9.0120   19.1150  -31.2520 C   0  0  0  0  0  0  0  0  0  0  0  0
   -7.9850   18.2470  -31.9630 C   0  0  0  0  0  0  0  0  0  0  0  0
   -3.6220   19.6640  -33.7840 C   0  0  0  0  0  0  0  0  0  0  0  0
   -2.5710   20.3490  -33.1680 C   0  0  0  0  0  0  0  0  0  0  0  0
   -1.5340   21.6970  -29.7530 N   0  0  0  0  0  0  0  0  0  0  0  0
   -0.2590   21.6910  -29.0240 C   0  0  0  0  0  0  0  0  0  0  0  0
    0.0060   23.0820  -28.4440 C   0  0  0  0  0  0  0  0  0  0  0  0
   -1.1980   23.6200  -27.7920 N   0  0  0  0  0  0  0  0  0  0  0  0
   -1.1180   24.8700  -27.0910 C   0  0  0  0  0  0  0  0  0  0  0  0
   -1.1490   24.8890  -25.6900 C   0  0  0  0  0  0  0  0  0  0  0  0
   -1.0820   26.1030  -25.0010 C   0  0  0  0  0  0  0  0  0  0  0  0
   -0.9930   27.3050  -25.7070 C   0  0  0  0  0  0  0  0  0  0  0  0
   -0.9650   27.2960  -27.1030 C   0  0  0  0  0  0  0  0  0  0  0  0
   -1.0270   26.0810  -27.8020 C   0  0  0  0  0  0  0  0  0  0  0  0
   -1.0100   26.0690  -29.1980 O   0  0  0  0  0  0  0  0  0  0  0  0
   -2.4280   22.8230  -27.7190 C   0  0  0  0  0  0  0  0  0  0  0  0
   -2.7450   22.2170  -29.0940 C   0  0  0  0  0  0  0  0  0  0  0  0
   -3.9069   20.6980  -30.0374 H   0  0  0  0  0  0  0  0  0  0  0  0
   -5.7855   19.4907  -31.1417 H   0  0  0  0  0  0  0  0  0  0  0  0
   -6.8197   20.7204  -32.5122 H   0  0  0  0  0  0  0  0  0  0  0  0
   -7.9910   20.9401  -33.8243 H   0  0  0  0  0  0  0  0  0  0  0  0
   -8.6043   21.2441  -31.1278 H   0  0  0  0  0  0  0  0  0  0  0  0
   -9.8233   20.8349  -32.3371 H   0  0  0  0  0  0  0  0  0  0  0  0
   -8.7961   19.1632  -30.1745 H   0  0  0  0  0  0  0  0  0  0  0  0
  -10.0307   18.7128  -31.3546 H   0  0  0  0  0  0  0  0  0  0  0  0
   -7.0764   18.1519  -31.3503 H   0  0  0  0  0  0  0  0  0  0  0  0
   -8.3707   17.2318  -32.1383 H   0  0  0  0  0  0  0  0  0  0  0  0
   -3.5349   19.3592  -34.8373 H   0  0  0  0  0  0  0  0  0  0  0  0
   -1.6600   20.5798  -33.7397 H   0  0  0  0  0  0  0  0  0  0  0  0
   -0.3079   20.9566  -28.2066 H   0  0  0  0  0  0  0  0  0  0  0  0
    0.5549   21.4208  -29.7129 H   0  0  0  0  0  0  0  0  0  0  0  0
    0.8163   23.0144  -27.7032 H   0  0  0  0  0  0  0  0  0  0  0  0
    0.2900   23.7558  -29.2658 H   0  0  0  0  0  0  0  0  0  0  0  0
   -1.2263   23.9450  -25.1307 H   0  0  0  0  0  0  0  0  0  0  0  0
   -1.0994   26.1120  -23.9012 H   0  0  0  0  0  0  0  0  0  0  0  0
   -0.9449   28.2597  -25.1626 H   0  0  0  0  0  0  0  0  0  0  0  0
   -0.8941   28.2441  -27.6563 H   0  0  0  0  0  0  0  0  0  0  0  0
   -1.2410   26.8980  -29.7340 H   0  0  0  0  0  0  0  0  0  0  0  0
   -2.2943   22.0134  -26.9864 H   0  0  0  0  0  0  0  0  0  0  0  0
   -3.2606   23.4723  -27.4105 H   0  0  0  0  0  0  0  0  0  0  0  0
   -3.4617   21.3927  -28.9636 H   0  0  0  0  0  0  0  0  0  0  0  0
   -3.1672   23.0099  -29.7289 H   0  0  0  0  0  0  0  0  0  0  0  0
  1  2  2  0
  2  3  1  0
  3  4  2  0
  4  5  1  0
  5  6  2  0
  6  7  1  0
  7  8  2  0
  7  9  2  0
  7 10  1  0
 10 11  1  0
 11 12  1  0
 12 13  1  0
 13 14  1  0
  6 15  1  0
 15 16  2  0
  2 17  1  0
 17 18  1  0
 18 19  1  0
 19 20  1  0
 20 21  1  0
 21 22  2  0
 22 23  1  0
 23 24  2  0
 24 25  1  0
 25 26  2  0
 26 27  1  0
 20 28  1  0
 28 29  1  0
 16  3  1  0
 29 17  1  0
 14 10  1  0
 26 21  1  0
  4 30  1  0
  5 31  1  0
 11 32  1  0
 11 33  1  0
 12 34  1  0
 12 35  1  0
 13 36  1  0
 13 37  1  0
 14 38  1  0
 14 39  1  0
 15 40  1  0
 16 41  1  0
 18 42  1  0
 18 43  1  0
 19 44  1  0
 19 45  1  0
 22 46  1  0
 23 47  1  0
 24 48  1  0
 25 49  1  0
 27 50  1  0
 28 51  1  0
 28 52  1  0
 29 53  1  0
 29 54  1  0
M  END
>  <UniqueID>  (10) 
10

>  <SMILES>  (10) 
O=C(c1ccc(S(=O)(=O)N2CCCC2)cc1)N1CCN(c2ccccc2O)CC1

>  <Energy>  (10) 
68.12477087488553

>  <Genealogy>  (10) 
O=C(c1ccc(S(=O)(=O)N2CCCC2)cc1)N1CCN(c2ccccc2O)CC1 (3D coordinates assigned)
O=C(c1ccc(S(=O)(=O)N2CCCC2)cc1)N1CCN(c2ccccc2O)CC1 (nonaromatic ring conformer: 68.12477087488553 kcal/mol)

>  <smiles>  (10) 
O=C(c1ccc(S(=O)(=O)N2CCCC2)cc1)N1CCN(c2ccccc2O)CC1

>  <score_type>  (10) 
oracle

>  <origin>  (10) 
adgpu

>  <m_score__min__energy>  (10) 
-9.6600000000000001

>  <m_primary>  (10) 
energy

$$$$
10:0
     RDKit          3D

 64 67  0  0  0  0  0  0  0  0999 V2000
   -7.8940   19.1390  -32.2860 C   0  0  0  0  0  0  0  0  0  0  0  0
   -6.8530   18.3960  -33.0670 C   0  0  0  0  0  0  0  0  0  0  0  0
   -6.8420   16.9920  -33.0840 C   0  0  0  0  0  0  0  0  0  0  0  0
   -5.8780   16.3030  -33.8260 C   0  0  0  0  0  0  0  0  0  0  0  0
   -4.9120   17.0080  -34.5610 C   0  0  0  0  0  0  0  0  0  0  0  0
   -3.8740   16.2770  -35.3690 C   0  0  0  0  0  0  0  0  0  0  0  0
   -2.7430   15.8930  -34.4950 N   0  0  0  0  0  0  0  0  0  0  0  0
   -2.8960   16.3700  -33.0980 C   0  0  0  0  0  0  0  0  0  0  0  0
   -1.9670   17.5530  -32.7480 C   0  0  0  0  0  0  0  0  0  0  0  0
   -1.8060   18.4480  -33.9050 N   0  0  0  0  0  0  0  0  0  0  0  0
   -0.8950   19.8710  -33.4510 S   0  0  0  0  0  0  0  0  0  0  0  0
   -0.4540   20.5980  -34.6900 O   0  0  0  0  0  0  0  0  0  0  0  0
    0.3350   19.4610  -32.6860 O   0  0  0  0  0  0  0  0  0  0  0  0
   -1.8660   20.9570  -32.4550 C   0  0  0  0  0  0  0  0  0  0  0  0
   -1.3410   21.4740  -31.2620 C   0  0  0  0  0  0  0  0  0  0  0  0
   -2.0690   22.4070  -30.5190 C   0  0  0  0  0  0  0  0  0  0  0  0
   -3.3250   22.8390  -30.9670 C   0  0  0  0  0  0  0  0  0  0  0  0
   -4.1780   24.1250  -30.1140 S   0  0  0  0  0  0  0  0  0  0  0  0
   -3.6760   24.2020  -28.6990 O   0  0  0  0  0  0  0  0  0  0  0  0
   -3.8930   25.4420  -30.7810 O   0  0  0  0  0  0  0  0  0  0  0  0
   -5.9050   23.8370  -30.1050 N   0  0  0  0  0  0  0  0  0  0  0  0
   -6.5850   24.5440  -31.2210 C   0  0  0  0  0  0  0  0  0  0  0  0
   -6.9520   23.6140  -32.3870 C   0  0  0  0  0  0  0  0  0  0  0  0
   -7.8710   22.4730  -31.9220 C   0  0  0  0  0  0  0  0  0  0  0  0
   -7.6210   22.0660  -30.4590 C   0  0  0  0  0  0  0  0  0  0  0  0
   -6.1840   22.3850  -30.0330 C   0  0  0  0  0  0  0  0  0  0  0  0
   -3.8690   22.2860  -32.1360 C   0  0  0  0  0  0  0  0  0  0  0  0
   -3.1440   21.3490  -32.8750 C   0  0  0  0  0  0  0  0  0  0  0  0
   -1.1670   17.7630  -35.0540 C   0  0  0  0  0  0  0  0  0  0  0  0
   -1.4330   16.2420  -35.0780 C   0  0  0  0  0  0  0  0  0  0  0  0
   -4.9410   18.4120  -34.5670 C   0  0  0  0  0  0  0  0  0  0  0  0
   -5.9100   19.1010  -33.8290 C   0  0  0  0  0  0  0  0  0  0  0  0
   -7.7088   19.0068  -31.2098 H   0  0  0  0  0  0  0  0  0  0  0  0
   -7.8469   20.2088  -32.5375 H   0  0  0  0  0  0  0  0  0  0  0  0
   -8.8905   18.7468  -32.5375 H   0  0  0  0  0  0  0  0  0  0  0  0
   -7.5953   16.4316  -32.5109 H   0  0  0  0  0  0  0  0  0  0  0  0
   -5.8765   15.2030  -33.8339 H   0  0  0  0  0  0  0  0  0  0  0  0
   -4.3214   15.3726  -35.8070 H   0  0  0  0  0  0  0  0  0  0  0  0
   -3.5080   16.9334  -36.1722 H   0  0  0  0  0  0  0  0  0  0  0  0
   -3.9382   16.6899  -32.9511 H   0  0  0  0  0  0  0  0  0  0  0  0
   -2.6202   15.5345  -32.4378 H   0  0  0  0  0  0  0  0  0  0  0  0
   -2.4027   18.1191  -31.9115 H   0  0  0  0  0  0  0  0  0  0  0  0
   -0.9800   17.1566  -32.4675 H   0  0  0  0  0  0  0  0  0  0  0  0
   -2.7520   18.7890  -34.1960 H   0  0  0  0  0  0  0  0  0  0  0  0
   -0.3526   21.1439  -30.9098 H   0  0  0  0  0  0  0  0  0  0  0  0
   -1.6554   22.8035  -29.5800 H   0  0  0  0  0  0  0  0  0  0  0  0
   -7.5073   25.0025  -30.8349 H   0  0  0  0  0  0  0  0  0  0  0  0
   -5.8830   25.2966  -31.6094 H   0  0  0  0  0  0  0  0  0  0  0  0
   -7.4697   24.1981  -33.1621 H   0  0  0  0  0  0  0  0  0  0  0  0
   -6.0259   23.1740  -32.7855 H   0  0  0  0  0  0  0  0  0  0  0  0
   -8.9164   22.8004  -32.0222 H   0  0  0  0  0  0  0  0  0  0  0  0
   -7.6563   21.5968  -32.5514 H   0  0  0  0  0  0  0  0  0  0  0  0
   -8.3182   22.6156  -29.8095 H   0  0  0  0  0  0  0  0  0  0  0  0
   -7.7789   20.9813  -30.3673 H   0  0  0  0  0  0  0  0  0  0  0  0
   -6.0340   22.0434  -28.9982 H   0  0  0  0  0  0  0  0  0  0  0  0
   -5.4981   21.8679  -30.7201 H   0  0  0  0  0  0  0  0  0  0  0  0
   -4.8708   22.5918  -32.4718 H   0  0  0  0  0  0  0  0  0  0  0  0
   -3.5773   20.9174  -33.7893 H   0  0  0  0  0  0  0  0  0  0  0  0
   -1.5579   18.2013  -35.9841 H   0  0  0  0  0  0  0  0  0  0  0  0
   -0.0804   17.9040  -34.9565 H   0  0  0  0  0  0  0  0  0  0  0  0
   -1.4064   15.8947  -36.1214 H   0  0  0  0  0  0  0  0  0  0  0  0
   -0.6547   15.7548  -34.4723 H   0  0  0  0  0  0  0  0  0  0  0  0
   -4.1988   18.9726  -35.1543 H   0  0  0  0  0  0  0  0  0  0  0  0
   -5.9322   20.2006  -33.8466 H   0  0  0  0  0  0  0  0  0  0  0  0
  1  2  1  0
  2  3  2  0
  3  4  1  0
  4  5  2  0
  5  6  1  0
  6  7  1  0
  7  8  1  0
  8  9  1  0
  9 10  1  0
 10 11  1  0
 11 12  2  0
 11 13  2  0
 11 14  1  0
 14 15  2  0
 15 16  1  0
 16 17  2  0
 17 18  1  0
 18 19  2  0
 18 20  2  0
 18 21  1  0
 21 22  1  0
 22 23  1  0
 23 24  1  0
 24 25  1  0
 25 26  1  0
 17 27  1  0
 27 28  2  0
 10 29  1  0
 29 30  1  0
  5 31  1  0
 31 32  2  0
 32  2  1  0
 30  7  1  0
 28 14  1  0
 26 21  1  0
  1 33  1  0
  1 34  1  0
  1 35  1  0
  3 36  1  0
  4 37  1  0
  6 38  1  0
  6 39  1  0
  8 40  1  0
  8 41  1  0
  9 42  1  0
  9 43  1  0
 10 44  1  0
 15 45  1  0
 16 46  1  0
 22 47  1  0
 22 48  1  0
 23 49  1  0
 23 50  1  0
 24 51  1  0
 24 52  1  0
 25 53  1  0
 25 54  1  0
 26 55  1  0
 26 56  1  0
 27 57  1  0
 28 58  1  0
 29 59  1  0
 29 60  1  0
 30 61  1  0
 30 62  1  0
 31 63  1  0
 32 64  1  0
M  CHG  1  10   1
M  END
>  <UniqueID>  (11) 
11

>  <SMILES>  (11) 
Cc1ccc(CN2CC[NH+](S(=O)(=O)c3ccc(S(=O)(=O)N4CCCCC4)cc3)CC2)cc1

>  <Energy>  (11) 
79.2644997237083

>  <Genealogy>  (11) 
Cc1ccc(CN2CC[NH+](S(=O)(=O)c3ccc(S(=O)(=O)N4CCCCC4)cc3)CC2)cc1 (protonated)
Cc1ccc(CN2CC[NH+](S(=O)(=O)c3ccc(S(=O)(=O)N4CCCCC4)cc3)CC2)cc1 (3D coordinates assigned)
Cc1ccc(CN2CC[NH+](S(=O)(=O)c3ccc(S(=O)(=O)N4CCCCC4)cc3)CC2)cc1 (nonaromatic ring conformer: 79.2644997237083 kcal/mol)

>  <smiles>  (11) 
Cc1ccc(CN2CCN(S(=O)(=O)c3ccc(S(=O)(=O)N4CCCCC4)cc3)CC2)cc1

>  <score_type>  (11) 
oracle

>  <origin>  (11) 
adgpu

>  <m_score__min__energy>  (11) 
-10.18

>  <m_primary>  (11) 
energy

$$$$
11:0
     RDKit          3D

 60 63  0  0  0  0  0  0  0  0999 V2000
    0.3775   18.2245  -29.2769 H   0  0  0  0  0  0  0  0  0  0  0  0
    0.6850   18.5330  -30.2870 C   0  0  0  0  0  0  0  0  0  0  0  0
    1.2500   17.6350  -31.1340 N   0  0  0  0  0  0  0  0  0  0  0  0
    1.6300   17.9880  -32.3890 C   0  0  0  0  0  0  0  0  0  0  0  0
    2.0985   17.2484  -33.0550 H   0  0  0  0  0  0  0  0  0  0  0  0
    1.4210   19.2990  -32.8280 C   0  0  0  0  0  0  0  0  0  0  0  0
    1.7880   19.6430  -34.0280 N   0  0  0  0  0  0  0  0  0  0  0  0
    1.5950   20.9380  -34.6210 C   0  0  0  0  0  0  0  0  0  0  0  0
    2.7060   21.7740  -34.7730 C   0  0  0  0  0  0  0  0  0  0  0  0
    3.6967   21.4304  -34.4407 H   0  0  0  0  0  0  0  0  0  0  0  0
    2.5680   23.0410  -35.3430 C   0  0  0  0  0  0  0  0  0  0  0  0
    3.4492   23.6908  -35.4489 H   0  0  0  0  0  0  0  0  0  0  0  0
    1.3130   23.4920  -35.7820 C   0  0  0  0  0  0  0  0  0  0  0  0
    1.1790   24.8420  -36.3790 C   0  0  0  0  0  0  0  0  0  0  0  0
    1.3110   24.9820  -37.6270 O   0  0  0  0  0  0  0  0  0  0  0  0
    0.9240   25.9940  -35.5580 N   0  0  0  0  0  0  0  0  0  0  0  0
    1.0410   25.9120  -34.5230 H   0  0  0  0  0  0  0  0  0  0  0  0
    0.6040   27.3020  -36.1380 C   0  0  0  0  0  0  0  0  0  0  0  0
    1.2661   27.4758  -36.9991 H   0  0  0  0  0  0  0  0  0  0  0  0
   -0.8600   27.3240  -36.6360 C   0  0  0  0  0  0  0  0  0  0  0  0
   -0.8677   27.0852  -37.7097 H   0  0  0  0  0  0  0  0  0  0  0  0
   -1.4179   26.5834  -36.0441 H   0  0  0  0  0  0  0  0  0  0  0  0
   -1.5510   28.6890  -36.4320 C   0  0  0  0  0  0  0  0  0  0  0  0
   -2.3778   28.7760  -37.1523 H   0  0  0  0  0  0  0  0  0  0  0  0
   -1.9107   28.7273  -35.3932 H   0  0  0  0  0  0  0  0  0  0  0  0
   -0.6320   29.8280  -36.6280 N   0  0  0  0  0  0  0  0  0  0  0  0
   -0.2670   30.0050  -38.0440 C   0  0  0  0  0  0  0  0  0  0  0  0
    0.7209   30.4841  -38.1109 H   0  0  0  0  0  0  0  0  0  0  0  0
   -0.2328   29.0234  -38.5393 H   0  0  0  0  0  0  0  0  0  0  0  0
   -1.0166   30.6397  -38.5393 H   0  0  0  0  0  0  0  0  0  0  0  0
    0.5570   29.8010  -35.7340 C   0  0  0  0  0  0  0  0  0  0  0  0
    1.4358   30.1104  -36.3188 H   0  0  0  0  0  0  0  0  0  0  0  0
    0.3407   30.4828  -34.8983 H   0  0  0  0  0  0  0  0  0  0  0  0
    0.8490   28.4200  -35.1160 C   0  0  0  0  0  0  0  0  0  0  0  0
    1.8988   28.3860  -34.7892 H   0  0  0  0  0  0  0  0  0  0  0  0
    0.1758   28.2679  -34.2594 H   0  0  0  0  0  0  0  0  0  0  0  0
    0.2050   22.6330  -35.6770 C   0  0  0  0  0  0  0  0  0  0  0  0
   -0.7781   22.9679  -36.0395 H   0  0  0  0  0  0  0  0  0  0  0  0
    0.3380   21.3480  -35.1130 C   0  0  0  0  0  0  0  0  0  0  0  0
   -0.7420   20.4520  -35.0510 O   0  0  0  0  0  0  0  0  0  0  0  0
   -1.7140   20.4230  -34.0120 C   0  0  0  0  0  0  0  0  0  0  0  0
   -1.2076   20.4381  -33.0356 H   0  0  0  0  0  0  0  0  0  0  0  0
   -2.3697   21.3020  -34.0986 H   0  0  0  0  0  0  0  0  0  0  0  0
   -2.3161   19.5065  -34.0986 H   0  0  0  0  0  0  0  0  0  0  0  0
    0.8640   20.2010  -31.9720 N   0  0  0  0  0  0  0  0  0  0  0  0
    0.4960   19.8590  -30.7100 C   0  0  0  0  0  0  0  0  0  0  0  0
   -0.1040   20.8280  -29.8930 O   0  0  0  0  0  0  0  0  0  0  0  0
   -1.2670   21.5470  -30.2040 C   0  0  0  0  0  0  0  0  0  0  0  0
   -2.3130   20.9810  -30.9540 C   0  0  0  0  0  0  0  0  0  0  0  0
   -2.2247   19.9499  -31.3269 H   0  0  0  0  0  0  0  0  0  0  0  0
   -3.4640   21.7240  -31.2270 C   0  0  0  0  0  0  0  0  0  0  0  0
   -4.2760   21.2789  -31.8208 H   0  0  0  0  0  0  0  0  0  0  0  0
   -3.5870   23.0310  -30.7480 C   0  0  0  0  0  0  0  0  0  0  0  0
   -4.4918   23.6152  -30.9718 H   0  0  0  0  0  0  0  0  0  0  0  0
   -2.5580   23.5990  -29.9820 C   0  0  0  0  0  0  0  0  0  0  0  0
   -2.6860   24.9330  -29.4840 N   0  0  0  0  0  0  0  0  0  0  0  0
   -3.4670   25.1910  -28.8400 H   0  0  0  0  0  0  0  0  0  0  0  0
   -1.9990   25.6720  -29.7540 H   0  0  0  0  0  0  0  0  0  0  0  0
   -1.4040   22.8490  -29.7080 C   0  0  0  0  0  0  0  0  0  0  0  0
   -0.6003   23.2878  -29.0984 H   0  0  0  0  0  0  0  0  0  0  0  0
  1  2  1  0
  2  3  1  0
  3  4  2  0
  4  5  1  0
  4  6  1  0
  6  7  2  0
  7  8  1  0
  8  9  2  0
  9 10  1  0
  9 11  1  0
 11 12  1  0
 11 13  2  0
 13 14  1  0
 14 15  2  0
 14 16  1  0
 16 17  1  0
 16 18  1  0
 18 19  1  0
 18 20  1  0
 20 21  1  0
 20 22  1  0
 20 23  1  0
 23 24  1  0
 23 25  1  0
 23 26  1  0
 26 27  1  0
 27 28  1  0
 27 29  1  0
 27 30  1  0
 26 31  1  0
 31 32  1  0
 31 33  1  0
 31 34  1  0
 34 35  1  0
 34 36  1  0
 13 37  1  0
 37 38  1  0
 37 39  2  0
 39 40  1  0
 40 41  1  0
 41 42  1  0
 41 43  1  0
 41 44  1  0
  6 45  1  0
 45 46  1  0
 46 47  1  0
 47 48  1  0
 48 49  2  0
 49 50  1  0
 49 51  1  0
 51 52  1  0
 51 53  2  0
 53 54  1  0
 53 55  1  0
 55 56  1  0
 56 57  1  0
 56 58  1  0
 55 59  2  0
 59 60  1  0
 46  2  2  0
 59 48  1  0
 39  8  1  0
 34 18  1  0
M  CHG  1  45  -1
M  END
>  <UniqueID>  (12) 
12

>  <SMILES>  (12) 
COc1cc(C(=O)NC2CCN(C)CC2)ccc1/N=c1/cncc(Oc2cccc(N)c2)[n-]1

>  <Energy>  (12) 
86.6942050147095

>  <Genealogy>  (12) 
COc1cc(C(=O)NC2CCN(C)CC2)ccc1N=c1cncc(Oc2cccc(N)c2)[n-]1 (protonated)
COc1cc(C(=O)NC2CCN(C)CC2)ccc1/N=c1/cncc(Oc2cccc(N)c2)[n-]1 (cis-trans isomerization)
COc1cc(C(=O)NC2CCN(C)CC2)ccc1/N=c1/cncc(Oc2cccc(N)c2)[n-]1 (3D coordinates assigned)
COc1cc(C(=O)NC2CCN(C)CC2)ccc1/N=c1/cncc(Oc2cccc(N)c2)[n-]1 (nonaromatic ring conformer: 86.6942050147095 kcal/mol)

>  <smiles>  (12) 
COc1cc(C(=O)NC2CCN(C)CC2)ccc1N=c1cncc(Oc2cccc(N)c2)[nH]1

>  <score_type>  (12) 
oracle

>  <origin>  (12) 
adgpu

>  <m_score__min__energy>  (12) 
-10.539999999999999

>  <m_primary>  (12) 
energy

$$$$
12:0
     RDKit          3D

 53 56  0  0  0  0  0  0  0  0999 V2000
   -1.3290   16.2910  -32.7440 C   0  0  0  0  0  0  0  0  0  0  0  0
   -2.3180   17.3480  -33.1660 C   0  0  0  0  0  0  0  0  0  0  0  0
   -3.5800   16.9510  -33.6340 C   0  0  0  0  0  0  0  0  0  0  0  0
   -4.5170   17.9140  -34.0230 C   0  0  0  0  0  0  0  0  0  0  0  0
   -6.1410   17.4180  -34.6010 S   0  0  0  0  0  0  0  0  0  0  0  0
   -6.8410   17.2040  -32.9290 C   0  0  0  0  0  0  0  0  0  0  0  0
   -7.2890   18.5200  -32.3710 C   0  0  0  0  0  0  0  0  0  0  0  0
   -8.1340   18.5400  -31.4360 O   0  0  0  0  0  0  0  0  0  0  0  0
   -6.7680   19.7420  -32.9100 N   0  0  0  0  0  0  0  0  0  0  0  0
   -6.9010   21.0220  -32.2670 C   0  0  0  0  0  0  0  0  0  0  0  0
   -8.1620   21.5930  -32.0290 C   0  0  0  0  0  0  0  0  0  0  0  0
   -8.2660   22.8250  -31.3860 C   0  0  0  0  0  0  0  0  0  0  0  0
   -7.1170   23.4980  -30.9590 C   0  0  0  0  0  0  0  0  0  0  0  0
   -7.2470   24.6980  -30.3330 F   0  0  0  0  0  0  0  0  0  0  0  0
   -5.8500   22.9240  -31.1570 C   0  0  0  0  0  0  0  0  0  0  0  0
   -4.3790   23.7410  -30.6060 S   0  0  0  0  0  0  0  0  0  0  0  0
   -3.2160   23.2470  -31.4200 O   0  0  0  0  0  0  0  0  0  0  0  0
   -4.5100   25.2170  -30.8460 O   0  0  0  0  0  0  0  0  0  0  0  0
   -4.0400   23.4640  -28.9130 N   0  0  0  0  0  0  0  0  0  0  0  0
   -2.6080   23.4630  -28.6340 C   0  0  0  0  0  0  0  0  0  0  0  0
   -2.4630   23.8260  -27.1650 C   0  0  0  0  0  0  0  0  0  0  0  0
   -3.7400   24.5680  -26.8070 C   0  0  0  0  0  0  0  0  0  0  0  0
   -4.6090   24.5040  -28.0570 C   0  0  0  0  0  0  0  0  0  0  0  0
   -5.7520   21.6880  -31.8140 C   0  0  0  0  0  0  0  0  0  0  0  0
   -4.2060   19.2360  -33.9550 N   0  0  0  0  0  0  0  0  0  0  0  0
   -2.9950   19.6670  -33.5150 C   0  0  0  0  0  0  0  0  0  0  0  0
   -2.7320   21.0390  -33.4530 C   0  0  0  0  0  0  0  0  0  0  0  0
   -1.4970   21.4980  -32.9880 C   0  0  0  0  0  0  0  0  0  0  0  0
   -0.5210   20.5890  -32.5740 C   0  0  0  0  0  0  0  0  0  0  0  0
   -0.7690   19.2140  -32.6350 C   0  0  0  0  0  0  0  0  0  0  0  0
   -2.0130   18.7310  -33.0990 C   0  0  0  0  0  0  0  0  0  0  0  0
   -1.2868   16.2459  -31.6457 H   0  0  0  0  0  0  0  0  0  0  0  0
   -1.6452   15.3143  -33.1392 H   0  0  0  0  0  0  0  0  0  0  0  0
   -0.3335   16.5416  -33.1392 H   0  0  0  0  0  0  0  0  0  0  0  0
   -3.8325   15.8821  -33.6950 H   0  0  0  0  0  0  0  0  0  0  0  0
   -7.7026   16.5222  -32.9826 H   0  0  0  0  0  0  0  0  0  0  0  0
   -6.0647   16.7863  -32.2710 H   0  0  0  0  0  0  0  0  0  0  0  0
   -6.3120   19.7080  -33.8500 H   0  0  0  0  0  0  0  0  0  0  0  0
   -9.0716   21.0653  -32.3516 H   0  0  0  0  0  0  0  0  0  0  0  0
   -9.2569   23.2703  -31.2135 H   0  0  0  0  0  0  0  0  0  0  0  0
   -2.1829   22.4665  -28.8245 H   0  0  0  0  0  0  0  0  0  0  0  0
   -2.0731   24.1763  -29.2783 H   0  0  0  0  0  0  0  0  0  0  0  0
   -2.3602   22.9183  -26.5522 H   0  0  0  0  0  0  0  0  0  0  0  0
   -1.5678   24.4380  -26.9804 H   0  0  0  0  0  0  0  0  0  0  0  0
   -4.2454   24.0785  -25.9614 H   0  0  0  0  0  0  0  0  0  0  0  0
   -3.5385   25.6053  -26.5015 H   0  0  0  0  0  0  0  0  0  0  0  0
   -5.6439   24.2477  -27.7863 H   0  0  0  0  0  0  0  0  0  0  0  0
   -4.6290   25.4745  -28.5744 H   0  0  0  0  0  0  0  0  0  0  0  0
   -4.7625   21.2357  -31.9759 H   0  0  0  0  0  0  0  0  0  0  0  0
   -3.5000   21.7593  -33.7714 H   0  0  0  0  0  0  0  0  0  0  0  0
   -1.2929   22.5782  -32.9479 H   0  0  0  0  0  0  0  0  0  0  0  0
    0.4458   20.9556  -32.1988 H   0  0  0  0  0  0  0  0  0  0  0  0
    0.0096   18.5039  -32.3196 H   0  0  0  0  0  0  0  0  0  0  0  0
  1  2  1  0
  2  3  2  0
  3  4  1  0
  4  5  1  0
  5  6  1  0
  6  7  1  0
  7  8  2  0
  7  9  1  0
  9 10  1  0
 10 11  2  0
 11 12  1  0
 12 13  2  0
 13 14  1  0
 13 15  1  0
 15 16  1  0
 16 17  2  0
 16 18  2  0
 16 19  1  0
 19 20  1  0
 20 21  1  0
 21 22  1  0
 22 23  1  0
 15 24  2  0
  4 25  2  0
 25 26  1  0
 26 27  2  0
 27 28  1  0
 28 29  2  0
 29 30  1  0
 30 31  2  0
 31  2  1  0
 24 10  1  0
 31 26  1  0
 23 19  1  0
  1 32  1  0
  1 33  1  0
  1 34  1  0
  3 35  1  0
  6 36  1  0
  6 37  1  0
  9 38  1  0
 11 39  1  0
 12 40  1  0
 20 41  1  0
 20 42  1  0
 21 43  1  0
 21 44  1  0
 22 45  1  0
 22 46  1  0
 23 47  1  0
 23 48  1  0
 24 49  1  0
 27 50  1  0
 28 51  1  0
 29 52  1  0
 30 53  1  0
M  END
>  <UniqueID>  (13) 
13

>  <SMILES>  (13) 
Cc1cc(SCC(=O)Nc2ccc(F)c(S(=O)(=O)N3CCCC3)c2)nc2ccccc12

>  <Energy>  (13) 
59.330826192960366

>  <Genealogy>  (13) 
Cc1cc(SCC(=O)Nc2ccc(F)c(S(=O)(=O)N3CCCC3)c2)nc2ccccc12 (3D coordinates assigned)
Cc1cc(SCC(=O)Nc2ccc(F)c(S(=O)(=O)N3CCCC3)c2)nc2ccccc12 (nonaromatic ring conformer: 59.330826192960366 kcal/mol)

>  <smiles>  (13) 
Cc1cc(SCC(=O)Nc2ccc(F)c(S(=O)(=O)N3CCCC3)c2)nc2ccccc12

>  <score_type>  (13) 
oracle

>  <origin>  (13) 
adgpu

>  <m_score__min__energy>  (13) 
-11.449999999999999

>  <m_primary>  (13) 
energy

$$$$
13:0
     RDKit          3D

 36 37  0  0  0  0  0  0  0  0999 V2000
    0.2870   20.8460  -36.0780 C   0  0  0  0  0  0  0  0  0  0  0  0
   -0.0590   21.3150  -34.7010 C   0  0  0  0  0  0  0  0  0  0  0  0
    0.8150   21.9110  -34.0160 O   0  0  0  0  0  0  0  0  0  0  0  0
   -1.4010   21.1660  -34.2140 N   0  0  0  0  0  0  0  0  0  0  0  0
   -1.8100   21.4280  -32.8590 C   0  0  0  0  0  0  0  0  0  0  0  0
   -3.1770   21.5400  -32.5650 C   0  0  0  0  0  0  0  0  0  0  0  0
   -3.6040   21.7640  -31.2540 C   0  0  0  0  0  0  0  0  0  0  0  0
   -2.6690   21.8850  -30.2210 C   0  0  0  0  0  0  0  0  0  0  0  0
   -3.2210   22.1650  -28.5350 S   0  0  0  0  0  0  0  0  0  0  0  0
   -4.2830   23.5900  -28.9480 C   0  0  0  0  0  0  0  0  0  0  0  0
   -3.4860   24.6650  -29.6330 C   0  0  0  0  0  0  0  0  0  0  0  0
   -3.8780   25.0880  -30.7520 O   0  0  0  0  0  0  0  0  0  0  0  0
   -2.3590   25.3020  -29.0140 N   0  0  0  0  0  0  0  0  0  0  0  0
   -1.5870   24.8000  -27.9150 C   0  0  0  0  0  0  0  0  0  0  0  0
   -2.0500   25.0140  -26.6090 C   0  0  0  0  0  0  0  0  0  0  0  0
   -3.2030   25.6950  -26.3990 F   0  0  0  0  0  0  0  0  0  0  0  0
   -1.3280   24.5240  -25.5160 C   0  0  0  0  0  0  0  0  0  0  0  0
   -0.1210   23.8520  -25.7190 C   0  0  0  0  0  0  0  0  0  0  0  0
    0.3800   23.6910  -27.0140 C   0  0  0  0  0  0  0  0  0  0  0  0
   -0.3400   24.1750  -28.1110 C   0  0  0  0  0  0  0  0  0  0  0  0
    0.1990   24.0740  -29.3530 F   0  0  0  0  0  0  0  0  0  0  0  0
   -1.3050   21.7540  -30.5000 C   0  0  0  0  0  0  0  0  0  0  0  0
   -0.8760   21.5110  -31.8080 C   0  0  0  0  0  0  0  0  0  0  0  0
    0.9388   19.9624  -36.0114 H   0  0  0  0  0  0  0  0  0  0  0  0
   -0.6344   20.5821  -36.6178 H   0  0  0  0  0  0  0  0  0  0  0  0
    0.8111   21.6485  -36.6178 H   0  0  0  0  0  0  0  0  0  0  0  0
   -2.1430   20.9290  -34.9110 H   0  0  0  0  0  0  0  0  0  0  0  0
   -3.9182   21.4508  -33.3728 H   0  0  0  0  0  0  0  0  0  0  0  0
   -4.6786   21.8454  -31.0335 H   0  0  0  0  0  0  0  0  0  0  0  0
   -5.0902   23.2570  -29.6170 H   0  0  0  0  0  0  0  0  0  0  0  0
   -4.7034   23.9995  -28.0176 H   0  0  0  0  0  0  0  0  0  0  0  0
   -1.7115   24.6682  -24.4951 H   0  0  0  0  0  0  0  0  0  0  0  0
    0.4356   23.4493  -24.8599 H   0  0  0  0  0  0  0  0  0  0  0  0
    1.3427   23.1825  -27.1706 H   0  0  0  0  0  0  0  0  0  0  0  0
   -0.5679   21.8424  -29.6883 H   0  0  0  0  0  0  0  0  0  0  0  0
    0.1964   21.3840  -32.0175 H   0  0  0  0  0  0  0  0  0  0  0  0
  1  2  1  0
  2  3  2  0
  2  4  1  0
  4  5  1  0
  5  6  2  0
  6  7  1  0
  7  8  2  0
  8  9  1  0
  9 10  1  0
 10 11  1  0
 11 12  2  0
 11 13  1  0
 13 14  1  0
 14 15  2  0
 15 16  1  0
 15 17  1  0
 17 18  2  0
 18 19  1  0
 19 20  2  0
 20 21  1  0
  8 22  1  0
 22 23  2  0
 23  5  1  0
 20 14  1  0
  1 24  1  0
  1 25  1  0
  1 26  1  0
  4 27  1  0
  6 28  1  0
  7 29  1  0
 10 30  1  0
 10 31  1  0
 17 32  1  0
 18 33  1  0
 19 34  1  0
 22 35  1  0
 23 36  1  0
M  CHG  1  13  -1
M  END
>  <UniqueID>  (14) 
14

>  <SMILES>  (14) 
CC(=O)Nc1ccc(SCC(=O)[N-]c2c(F)cccc2F)cc1

>  <Energy>  (14) 
36.68459680787846

>  <Genealogy>  (14) 
CC(=O)Nc1ccc(SCC(=O)[N-]c2c(F)cccc2F)cc1 (protonated)
CC(=O)Nc1ccc(SCC(=O)[N-]c2c(F)cccc2F)cc1 (3D coordinates assigned)
CC(=O)Nc1ccc(SCC(=O)[N-]c2c(F)cccc2F)cc1 (optimized conformer: 36.68459680787846 kcal/mol)

>  <smiles>  (14) 
CC(=O)Nc1ccc(SCC(=O)Nc2c(F)cccc2F)cc1

>  <score_type>  (14) 
oracle

>  <origin>  (14) 
adgpu

>  <m_score__min__energy>  (14) 
-9.9000000000000004

>  <m_primary>  (14) 
energy

$$$$
14:0
     RDKit          3D

 66 70  0  0  0  0  0  0  0  0999 V2000
   -1.1730   21.4500  -27.2130 C   0  0  0  0  0  0  0  0  0  0  0  0
   -1.7940   22.5000  -28.0960 C   0  0  0  0  0  0  0  0  0  0  0  0
   -2.9140   22.1390  -28.8660 C   0  0  0  0  0  0  0  0  0  0  0  0
   -3.5620   23.0750  -29.6670 C   0  0  0  0  0  0  0  0  0  0  0  0
   -3.1110   24.3930  -29.7220 C   0  0  0  0  0  0  0  0  0  0  0  0
   -3.8520   25.3270  -30.5170 N   0  0  0  0  0  0  0  0  0  0  0  0
   -5.2490   25.2470  -30.8300 C   0  0  0  0  0  0  0  0  0  0  0  0
   -6.1020   25.8130  -30.0980 O   0  0  0  0  0  0  0  0  0  0  0  0
   -5.6970   24.5030  -31.9670 N   0  0  0  0  0  0  0  0  0  0  0  0
   -6.4810   23.2990  -31.9300 C   0  0  0  0  0  0  0  0  0  0  0  0
   -7.8380   23.3060  -31.5560 C   0  0  0  0  0  0  0  0  0  0  0  0
   -8.5830   22.1230  -31.5790 C   0  0  0  0  0  0  0  0  0  0  0  0
   -7.9930   20.9300  -32.0020 C   0  0  0  0  0  0  0  0  0  0  0  0
   -6.6520   20.9160  -32.4160 C   0  0  0  0  0  0  0  0  0  0  0  0
   -5.9260   19.4130  -33.0010 S   0  0  0  0  0  0  0  0  0  0  0  0
   -6.6010   18.2470  -32.3370 O   0  0  0  0  0  0  0  0  0  0  0  0
   -6.1610   19.3050  -34.4820 O   0  0  0  0  0  0  0  0  0  0  0  0
   -4.2060   19.3290  -32.6980 N   0  0  0  0  0  0  0  0  0  0  0  0
   -3.8120   20.1490  -31.5560 C   0  0  0  0  0  0  0  0  0  0  0  0
   -2.3440   20.4830  -31.7580 C   0  0  0  0  0  0  0  0  0  0  0  0
   -2.0940   20.3060  -33.2500 C   0  0  0  0  0  0  0  0  0  0  0  0
   -3.4190   19.8270  -33.8270 C   0  0  0  0  0  0  0  0  0  0  0  0
   -5.9000   22.1000  -32.3710 C   0  0  0  0  0  0  0  0  0  0  0  0
   -1.9380   24.7550  -29.0330 C   0  0  0  0  0  0  0  0  0  0  0  0
   -1.3960   26.0230  -29.2150 O   0  0  0  0  0  0  0  0  0  0  0  0
   -1.2900   23.8280  -28.1880 C   0  0  0  0  0  0  0  0  0  0  0  0
    0.1380   24.3930  -27.2860 S   0  0  0  0  0  0  0  0  0  0  0  0
    1.2350   24.9120  -28.1710 O   0  0  0  0  0  0  0  0  0  0  0  0
    0.6890   23.2190  -26.5220 O   0  0  0  0  0  0  0  0  0  0  0  0
   -0.3050   25.6430  -26.1620 N   0  0  0  0  0  0  0  0  0  0  0  0
    0.6150   26.6100  -25.6760 C   0  0  0  0  0  0  0  0  0  0  0  0
    1.6830   27.1860  -26.3730 C   0  0  0  0  0  0  0  0  0  0  0  0
    2.5010   28.1100  -25.7050 C   0  0  0  0  0  0  0  0  0  0  0  0
    2.2340   28.4550  -24.3650 C   0  0  0  0  0  0  0  0  0  0  0  0
    1.1490   27.8750  -23.6920 C   0  0  0  0  0  0  0  0  0  0  0  0
    0.3500   26.9590  -24.3790 C   0  0  0  0  0  0  0  0  0  0  0  0
   -0.8140   26.1980  -23.8620 C   0  0  0  0  0  0  0  0  0  0  0  0
   -1.2970   25.3990  -25.1060 C   0  0  1  0  0  0  0  0  0  0  0  0
   -2.6790   25.8570  -25.5710 C   0  0  0  0  0  0  0  0  0  0  0  0
   -1.3314   21.7178  -26.1579 H   0  0  0  0  0  0  0  0  0  0  0  0
   -1.6401   20.4754  -27.4181 H   0  0  0  0  0  0  0  0  0  0  0  0
   -0.0940   21.3899  -27.4181 H   0  0  0  0  0  0  0  0  0  0  0  0
   -3.2829   21.1032  -28.8349 H   0  0  0  0  0  0  0  0  0  0  0  0
   -4.4368   22.7723  -30.2613 H   0  0  0  0  0  0  0  0  0  0  0  0
   -8.3148   24.2469  -31.2440 H   0  0  0  0  0  0  0  0  0  0  0  0
   -9.6366   22.1320  -31.2631 H   0  0  0  0  0  0  0  0  0  0  0  0
   -8.5802   19.9999  -32.0107 H   0  0  0  0  0  0  0  0  0  0  0  0
   -4.4115   21.0707  -31.5239 H   0  0  0  0  0  0  0  0  0  0  0  0
   -3.9744   19.6174  -30.6068 H   0  0  0  0  0  0  0  0  0  0  0  0
   -2.1391   21.5199  -31.4532 H   0  0  0  0  0  0  0  0  0  0  0  0
   -1.6894   19.8385  -31.1529 H   0  0  0  0  0  0  0  0  0  0  0  0
   -1.7982   21.2619  -33.7069 H   0  0  0  0  0  0  0  0  0  0  0  0
   -1.2800   19.5929  -33.4470 H   0  0  0  0  0  0  0  0  0  0  0  0
   -3.9433   20.6600  -34.3181 H   0  0  0  0  0  0  0  0  0  0  0  0
   -3.2644   19.0422  -34.5821 H   0  0  0  0  0  0  0  0  0  0  0  0
   -4.8456   22.0882  -32.6842 H   0  0  0  0  0  0  0  0  0  0  0  0
    1.8772   26.9200  -27.4225 H   0  0  0  0  0  0  0  0  0  0  0  0
    3.3535   28.5666  -26.2291 H   0  0  0  0  0  0  0  0  0  0  0  0
    2.8777   29.1805  -23.8461 H   0  0  0  0  0  0  0  0  0  0  0  0
    0.9321   28.1360  -22.6457 H   0  0  0  0  0  0  0  0  0  0  0  0
   -0.5127   25.5197  -23.0501 H   0  0  0  0  0  0  0  0  0  0  0  0
   -1.5953   26.8430  -23.4335 H   0  0  0  0  0  0  0  0  0  0  0  0
   -1.3859   24.3300  -24.8624 H   0  0  0  0  0  0  0  0  0  0  0  0
   -3.3101   26.0661  -24.6946 H   0  0  0  0  0  0  0  0  0  0  0  0
   -2.5783   26.7698  -26.1765 H   0  0  0  0  0  0  0  0  0  0  0  0
   -3.1433   25.0647  -26.1765 H   0  0  0  0  0  0  0  0  0  0  0  0
  1  2  1  0
  2  3  2  0
  3  4  1  0
  4  5  2  0
  5  6  1  0
  6  7  1  0
  7  8  2  0
  7  9  1  0
  9 10  1  0
 10 11  2  0
 11 12  1  0
 12 13  2  0
 13 14  1  0
 14 15  1  0
 15 16  2  0
 15 17  2  0
 15 18  1  0
 18 19  1  0
 19 20  1  0
 20 21  1  0
 21 22  1  0
 14 23  2  0
  5 24  1  0
 24 25  1  0
 24 26  2  0
 26 27  1  0
 27 28  2  0
 27 29  2  0
 27 30  1  0
 30 31  1  0
 31 32  2  0
 32 33  1  0
 33 34  2  0
 34 35  1  0
 35 36  2  0
 36 37  1  0
 37 38  1  0
 38 39  1  0
 26  2  1  0
 38 30  1  0
 23 10  1  0
 36 31  1  0
 22 18  1  0
  1 40  1  0
  1 41  1  0
  1 42  1  0
  3 43  1  0
  4 44  1  0
 11 45  1  0
 12 46  1  0
 13 47  1  0
 19 48  1  0
 19 49  1  0
 20 50  1  0
 20 51  1  0
 21 52  1  0
 21 53  1  0
 22 54  1  0
 22 55  1  0
 23 56  1  0
 32 57  1  0
 33 58  1  0
 34 59  1  0
 35 60  1  0
 37 61  1  0
 37 62  1  0
 38 63  1  1
 39 64  1  0
 39 65  1  0
 39 66  1  0
M  CHG  3   6  -1   9  -1  25  -1
M  END
>  <UniqueID>  (15) 
15

>  <SMILES>  (15) 
Cc1ccc([N-]C(=O)[N-]c2cccc(S(=O)(=O)N3CCCC3)c2)c([O-])c1S(=O)(=O)N1c2ccccc2C[C@H]1C

>  <Energy>  (15) 
101.26659738151345

>  <Genealogy>  (15) 
Cc1ccc([N-]C(=O)[N-]c2cccc(S(=O)(=O)N3CCCC3)c2)c([O-])c1S(=O)(=O)N1c2ccccc2CC1C (protonated)
Cc1ccc([N-]C(=O)[N-]c2cccc(S(=O)(=O)N3CCCC3)c2)c([O-])c1S(=O)(=O)N1c2ccccc2C[C@H]1C (chirality)
Cc1ccc([N-]C(=O)[N-]c2cccc(S(=O)(=O)N3CCCC3)c2)c([O-])c1S(=O)(=O)N1c2ccccc2C[C@H]1C (3D coordinates assigned)
Cc1ccc([N-]C(=O)[N-]c2cccc(S(=O)(=O)N3CCCC3)c2)c([O-])c1S(=O)(=O)N1c2ccccc2C[C@H]1C (nonaromatic ring conformer: 101.26659738151345 kcal/mol)

>  <smiles>  (15) 
Cc1ccc(NC(=O)Nc2cccc(S(=O)(=O)N3CCCC3)c2)c(O)c1S(=O)(=O)N1c2ccccc2CC1C

>  <score_type>  (15) 
oracle

>  <origin>  (15) 
adgpu

>  <m_score__min__energy>  (15) 
-17.620000000000001

>  <m_primary>  (15) 
energy

$$$$
15:0
     RDKit          3D

 42 44  0  0  0  0  0  0  0  0999 V2000
   -3.5700   24.5260  -27.1270 C   0  0  0  0  0  0  0  0  0  0  0  0
   -3.0120   23.8020  -28.3450 C   0  0  0  0  0  0  0  0  0  0  0  0
   -3.9970   23.8270  -29.4680 C   0  0  0  0  0  0  0  0  0  0  0  0
   -3.9770   24.7240  -30.4720 N   0  0  0  0  0  0  0  0  0  0  0  0
   -5.0150   24.4360  -31.2440 N   0  0  0  0  0  0  0  0  0  0  0  0
   -5.6290   23.3790  -30.6780 C   0  0  0  0  0  0  0  0  0  0  0  0
   -6.8440   22.7320  -31.2120 C   0  0  0  0  0  0  0  0  0  0  0  0
   -7.9930   23.4900  -31.4930 C   0  0  0  0  0  0  0  0  0  0  0  0
   -9.1440   22.8680  -31.9850 C   0  0  0  0  0  0  0  0  0  0  0  0
   -9.1570   21.4880  -32.2020 C   0  0  0  0  0  0  0  0  0  0  0  0
   -8.0150   20.7220  -31.9360 C   0  0  0  0  0  0  0  0  0  0  0  0
   -8.0500   18.9770  -32.1790 S   0  0  0  0  0  0  0  0  0  0  0  0
   -9.4300   18.5500  -32.6000 O   0  0  0  0  0  0  0  0  0  0  0  0
   -7.7190   18.2980  -30.8780 O   0  0  0  0  0  0  0  0  0  0  0  0
   -6.8810   18.5250  -33.3950 N   0  0  0  0  0  0  0  0  0  0  0  0
   -6.8370   17.0480  -33.5310 C   0  0  0  0  0  0  0  0  0  0  0  0
   -5.5470   16.5380  -34.2130 C   0  0  0  0  0  0  0  0  0  0  0  0
   -4.8800   17.6280  -35.0520 C   0  0  0  0  0  0  0  0  0  0  0  0
   -4.5460   18.8600  -34.1940 C   0  0  0  0  0  0  0  0  0  0  0  0
   -5.5580   19.0800  -33.0510 C   0  0  0  0  0  0  0  0  0  0  0  0
   -6.8630   21.3460  -31.4370 C   0  0  0  0  0  0  0  0  0  0  0  0
   -5.0090   23.0030  -29.5840 O   0  0  0  0  0  0  0  0  0  0  0  0
   -3.1980   24.0433  -26.2112 H   0  0  0  0  0  0  0  0  0  0  0  0
   -3.2462   25.5771  -27.1450 H   0  0  0  0  0  0  0  0  0  0  0  0
   -4.6689   24.4805  -27.1450 H   0  0  0  0  0  0  0  0  0  0  0  0
   -2.0842   24.2977  -28.6667 H   0  0  0  0  0  0  0  0  0  0  0  0
   -2.8096   22.7553  -28.0738 H   0  0  0  0  0  0  0  0  0  0  0  0
   -7.9868   24.5771  -31.3252 H   0  0  0  0  0  0  0  0  0  0  0  0
  -10.0413   23.4663  -32.2017 H   0  0  0  0  0  0  0  0  0  0  0  0
  -10.0670   21.0015  -32.5830 H   0  0  0  0  0  0  0  0  0  0  0  0
   -7.2040   18.9470  -34.2980 H   0  0  0  0  0  0  0  0  0  0  0  0
   -6.9016   16.6023  -32.5274 H   0  0  0  0  0  0  0  0  0  0  0  0
   -7.6830   16.7529  -34.1691 H   0  0  0  0  0  0  0  0  0  0  0  0
   -4.8421   16.2042  -33.4373 H   0  0  0  0  0  0  0  0  0  0  0  0
   -5.8190   15.7090  -34.8829 H   0  0  0  0  0  0  0  0  0  0  0  0
   -3.9509   17.2296  -35.4857 H   0  0  0  0  0  0  0  0  0  0  0  0
   -5.5772   17.9336  -35.8461 H   0  0  0  0  0  0  0  0  0  0  0  0
   -3.5456   18.7242  -33.7573 H   0  0  0  0  0  0  0  0  0  0  0  0
   -4.5869   19.7427  -34.8491 H   0  0  0  0  0  0  0  0  0  0  0  0
   -5.1862   18.5840  -32.1423 H   0  0  0  0  0  0  0  0  0  0  0  0
   -5.6667   20.1621  -32.8857 H   0  0  0  0  0  0  0  0  0  0  0  0
   -5.9673   20.7454  -31.2201 H   0  0  0  0  0  0  0  0  0  0  0  0
  1  2  1  0
  2  3  1  0
  3  4  2  0
  4  5  1  0
  5  6  2  0
  6  7  1  0
  7  8  2  0
  8  9  1  0
  9 10  2  0
 10 11  1  0
 11 12  1  0
 12 13  2  0
 12 14  2  0
 12 15  1  0
 15 16  1  0
 16 17  1  0
 17 18  1  0
 18 19  1  0
 19 20  1  0
 11 21  2  0
  6 22  1  0
 22  3  1  0
 21  7  1  0
 20 15  1  0
  1 23  1  0
  1 24  1  0
  1 25  1  0
  2 26  1  0
  2 27  1  0
  8 28  1  0
  9 29  1  0
 10 30  1  0
 15 31  1  0
 16 32  1  0
 16 33  1  0
 17 34  1  0
 17 35  1  0
 18 36  1  0
 18 37  1  0
 19 38  1  0
 19 39  1  0
 20 40  1  0
 20 41  1  0
 21 42  1  0
M  CHG  1  15   1
M  END
>  <UniqueID>  (16) 
16

>  <SMILES>  (16) 
CCc1nnc(-c2cccc(S(=O)(=O)[NH+]3CCCCC3)c2)o1

>  <Energy>  (16) 
76.01498985752363

>  <Genealogy>  (16) 
CCc1nnc(-c2cccc(S(=O)(=O)[NH+]3CCCCC3)c2)o1 (protonated)
CCc1nnc(-c2cccc(S(=O)(=O)[NH+]3CCCCC3)c2)o1 (3D coordinates assigned)
CCc1nnc(-c2cccc(S(=O)(=O)[NH+]3CCCCC3)c2)o1 (nonaromatic ring conformer: 76.01498985752363 kcal/mol)

>  <smiles>  (16) 
CCc1nnc(-c2cccc(S(=O)(=O)N3CCCCC3)c2)o1

>  <score_type>  (16) 
oracle

>  <origin>  (16) 
adgpu

>  <m_score__min__energy>  (16) 
-8.8200000000000003

>  <m_primary>  (16) 
energy

$$$$
16:0
     RDKit          3D

 31 33  0  0  0  0  0  0  0  0999 V2000
   -5.9830   25.8210  -30.8080 O   0  0  0  0  0  0  0  0  0  0  0  0
   -5.0690   24.9590  -30.8760 C   0  0  0  0  0  0  0  0  0  0  0  0
   -3.7700   25.2890  -30.3660 N   0  0  0  0  0  0  0  0  0  0  0  0
   -3.0520   24.5740  -29.3500 C   0  0  0  0  0  0  0  0  0  0  0  0
   -3.6360   23.4240  -28.8000 C   0  0  0  0  0  0  0  0  0  0  0  0
   -2.9660   22.6940  -27.8130 C   0  0  0  0  0  0  0  0  0  0  0  0
   -1.7160   23.1180  -27.3560 C   0  0  0  0  0  0  0  0  0  0  0  0
   -1.1400   24.2810  -27.8740 C   0  0  0  0  0  0  0  0  0  0  0  0
   -1.8070   25.0200  -28.8580 C   0  0  0  0  0  0  0  0  0  0  0  0
   -1.2380   26.2000  -29.3200 O   0  0  0  0  0  0  0  0  0  0  0  0
   -5.3820   23.6270  -31.4270 C   0  0  0  0  0  0  0  0  0  0  0  0
   -6.4560   22.8240  -31.0950 C   0  0  0  0  0  0  0  0  0  0  0  0
   -6.3080   21.7100  -31.9020 C   0  0  0  0  0  0  0  0  0  0  0  0
   -7.1940   20.5180  -31.9400 C   0  0  0  0  0  0  0  0  0  0  0  0
   -6.6440   19.2230  -31.8480 C   0  0  0  0  0  0  0  0  0  0  0  0
   -7.4670   18.0950  -31.8900 C   0  0  0  0  0  0  0  0  0  0  0  0
   -8.8470   18.2380  -32.0240 C   0  0  0  0  0  0  0  0  0  0  0  0
   -9.4100   19.5120  -32.1180 C   0  0  0  0  0  0  0  0  0  0  0  0
   -8.5960   20.6490  -32.0760 C   0  0  0  0  0  0  0  0  0  0  0  0
   -9.1950   21.9020  -32.1620 O   0  0  0  0  0  0  0  0  0  0  0  0
   -5.2110   21.8650  -32.6730 N   0  0  0  0  0  0  0  0  0  0  0  0
   -4.6520   23.0300  -32.3870 N   0  0  0  0  0  0  0  0  0  0  0  0
   -4.6265   23.0942  -29.1467 H   0  0  0  0  0  0  0  0  0  0  0  0
   -3.4239   21.7849  -27.3961 H   0  0  0  0  0  0  0  0  0  0  0  0
   -1.1849   22.5363  -26.5882 H   0  0  0  0  0  0  0  0  0  0  0  0
   -0.1589   24.6170  -27.5072 H   0  0  0  0  0  0  0  0  0  0  0  0
   -7.2475   23.0244  -30.3579 H   0  0  0  0  0  0  0  0  0  0  0  0
   -5.5561   19.0997  -31.7421 H   0  0  0  0  0  0  0  0  0  0  0  0
   -7.0245   17.0906  -31.8171 H   0  0  0  0  0  0  0  0  0  0  0  0
   -9.4921   17.3476  -32.0557 H   0  0  0  0  0  0  0  0  0  0  0  0
  -10.4991   19.6224  -32.2256 H   0  0  0  0  0  0  0  0  0  0  0  0
  1  2  2  0
  2  3  1  0
  3  4  1  0
  4  5  2  0
  5  6  1  0
  6  7  2  0
  7  8  1  0
  8  9  2  0
  9 10  1  0
  2 11  1  0
 11 12  1  0
 12 13  2  0
 13 14  1  0
 14 15  2  0
 15 16  1  0
 16 17  2  0
 17 18  1  0
 18 19  2  0
 19 20  1  0
 13 21  1  0
 21 22  1  0
  9  4  1  0
 22 11  2  0
 19 14  1  0
  5 23  1  0
  6 24  1  0
  7 25  1  0
  8 26  1  0
 12 27  1  0
 15 28  1  0
 16 29  1  0
 17 30  1  0
 18 31  1  0
M  CHG  4   3  -1  10  -1  20  -1  21  -1
M  END
>  <UniqueID>  (17) 
17

>  <SMILES>  (17) 
O=C([N-]c1ccccc1[O-])c1cc(-c2ccccc2[O-])[n-]n1

>  <Energy>  (17) 
73.02031139945053

>  <Genealogy>  (17) 
O=C([N-]c1ccccc1[O-])c1cc(-c2ccccc2[O-])[n-]n1 (protonated)
O=C([N-]c1ccccc1[O-])c1cc(-c2ccccc2[O-])[n-]n1 (3D coordinates assigned)
O=C([N-]c1ccccc1[O-])c1cc(-c2ccccc2[O-])[n-]n1 (optimized conformer: 73.02031139945053 kcal/mol)

>  <smiles>  (17) 
O=C(Nc1ccccc1O)c1cc(-c2ccccc2O)[nH]n1

>  <score_type>  (17) 
oracle

>  <origin>  (17) 
adgpu

>  <m_score__min__energy>  (17) 
-13.050000000000001

>  <m_primary>  (17) 
energy

$$$$
17:0
     RDKit          3D

 45 48  0  0  0  0  0  0  0  0999 V2000
   -0.3592   25.1930  -27.3461 H   0  0  0  0  0  0  0  0  0  0  0  0
   -0.9820   24.6290  -28.0560 C   0  0  0  0  0  0  0  0  0  0  0  0
   -2.3300   24.6520  -28.0920 N   0  0  0  0  0  0  0  0  0  0  0  0
   -2.7290   23.8450  -29.0640 N   0  0  0  0  0  0  0  0  0  0  0  0
   -4.1040   23.7660  -29.4640 C   0  0  0  0  0  0  0  0  0  0  0  0
   -4.9230   22.7580  -28.9360 C   0  0  0  0  0  0  0  0  0  0  0  0
   -4.5156   22.0496  -28.1997 H   0  0  0  0  0  0  0  0  0  0  0  0
   -6.2560   22.6510  -29.3430 C   0  0  0  0  0  0  0  0  0  0  0  0
   -6.8904   21.8480  -28.9397 H   0  0  0  0  0  0  0  0  0  0  0  0
   -6.7840   23.5620  -30.2610 C   0  0  0  0  0  0  0  0  0  0  0  0
   -7.8297   23.4682  -30.5891 H   0  0  0  0  0  0  0  0  0  0  0  0
   -5.9840   24.5930  -30.7630 C   0  0  0  0  0  0  0  0  0  0  0  0
   -6.4041   25.3155  -31.4782 H   0  0  0  0  0  0  0  0  0  0  0  0
   -4.6500   24.7070  -30.3570 C   0  0  0  0  0  0  0  0  0  0  0  0
   -3.8720   25.7520  -30.8410 O   0  0  0  0  0  0  0  0  0  0  0  0
   -1.6320   23.2980  -29.6490 C   0  0  0  0  0  0  0  0  0  0  0  0
   -1.6090   22.4210  -30.6150 N   0  0  0  0  0  0  0  0  0  0  0  0
   -2.7260   21.7250  -31.1780 C   0  0  0  0  0  0  0  0  0  0  0  0
   -3.3990   22.2690  -32.2770 C   0  0  0  0  0  0  0  0  0  0  0  0
   -3.0558   23.2172  -32.7165 H   0  0  0  0  0  0  0  0  0  0  0  0
   -4.5070   21.6100  -32.8180 C   0  0  0  0  0  0  0  0  0  0  0  0
   -5.0488   22.0545  -33.6659 H   0  0  0  0  0  0  0  0  0  0  0  0
   -4.9300   20.3850  -32.2840 C   0  0  0  0  0  0  0  0  0  0  0  0
   -6.3490   19.5830  -32.9480 S   0  0  0  0  0  0  0  0  0  0  0  0
   -5.9290   18.2400  -33.4790 O   0  0  0  0  0  0  0  0  0  0  0  0
   -6.9200   20.4010  -34.0730 O   0  0  0  0  0  0  0  0  0  0  0  0
   -7.5530   19.3730  -31.6930 N   0  0  0  0  0  0  0  0  0  0  0  0
   -8.0580   20.6750  -31.2420 C   0  0  0  0  0  0  0  0  0  0  0  0
   -8.2910   20.6318  -30.1678 H   0  0  0  0  0  0  0  0  0  0  0  0
   -7.2990   21.4538  -31.4071 H   0  0  0  0  0  0  0  0  0  0  0  0
   -9.3200   20.9970  -32.0300 C   0  0  0  0  0  0  0  0  0  0  0  0
  -10.1097   21.3629  -31.3574 H   0  0  0  0  0  0  0  0  0  0  0  0
   -9.1433   21.7847  -32.7772 H   0  0  0  0  0  0  0  0  0  0  0  0
   -9.7400   19.6920  -32.6790 C   0  0  0  0  0  0  0  0  0  0  0  0
  -10.7510   19.4081  -32.3513 H   0  0  0  0  0  0  0  0  0  0  0  0
   -9.7684   19.7734  -33.7756 H   0  0  0  0  0  0  0  0  0  0  0  0
   -8.7220   18.6590  -32.2170 C   0  0  0  0  0  0  0  0  0  0  0  0
   -9.1602   18.0312  -31.4272 H   0  0  0  0  0  0  0  0  0  0  0  0
   -8.4282   18.0120  -33.0566 H   0  0  0  0  0  0  0  0  0  0  0  0
   -4.2240   19.8150  -31.2160 C   0  0  0  0  0  0  0  0  0  0  0  0
   -4.5426   18.8469  -30.8021 H   0  0  0  0  0  0  0  0  0  0  0  0
   -3.1170   20.4730  -30.6760 C   0  0  0  0  0  0  0  0  0  0  0  0
   -2.5498   20.0095  -29.8554 H   0  0  0  0  0  0  0  0  0  0  0  0
   -0.5000   23.7920  -29.0430 C   0  0  0  0  0  0  0  0  0  0  0  0
    0.5492   23.5708  -29.2885 H   0  0  0  0  0  0  0  0  0  0  0  0
  1  2  1  0
  2  3  1  0
  3  4  1  0
  4  5  1  0
  5  6  2  0
  6  7  1  0
  6  8  1  0
  8  9  1  0
  8 10  2  0
 10 11  1  0
 10 12  1  0
 12 13  1  0
 12 14  2  0
 14 15  1  0
  4 16  1  0
 16 17  2  0
 17 18  1  0
 18 19  2  0
 19 20  1  0
 19 21  1  0
 21 22  1  0
 21 23  2  0
 23 24  1  0
 24 25  2  0
 24 26  2  0
 24 27  1  0
 27 28  1  0
 28 29  1  0
 28 30  1  0
 28 31  1  0
 31 32  1  0
 31 33  1  0
 31 34  1  0
 34 35  1  0
 34 36  1  0
 34 37  1  0
 37 38  1  0
 37 39  1  0
 23 40  1  0
 40 41  1  0
 40 42  2  0
 42 43  1  0
 16 44  1  0
 44 45  1  0
 44  2  2  0
 14  5  1  0
 42 18  1  0
 37 27  1  0
M  CHG  2   3  -1  15  -1
M  END
>  <UniqueID>  (18) 
18

>  <SMILES>  (18) 
O=S(=O)(c1ccc(/N=c2/cc[n-]n2-c2ccccc2[O-])cc1)N1CCCC1

>  <Energy>  (18) 
96.2666284394997

>  <Genealogy>  (18) 
O=S(=O)(c1ccc(N=c2cc[n-]n2-c2ccccc2[O-])cc1)N1CCCC1 (protonated)
O=S(=O)(c1ccc(/N=c2/cc[n-]n2-c2ccccc2[O-])cc1)N1CCCC1 (cis-trans isomerization)
O=S(=O)(c1ccc(/N=c2/cc[n-]n2-c2ccccc2[O-])cc1)N1CCCC1 (3D coordinates assigned)
O=S(=O)(c1ccc(/N=c2/cc[n-]n2-c2ccccc2[O-])cc1)N1CCCC1 (nonaromatic ring conformer: 96.2666284394997 kcal/mol)

>  <smiles>  (18) 
O=S(=O)(c1ccc(N=c2cc[nH]n2-c2ccccc2O)cc1)N1CCCC1

>  <score_type>  (18) 
oracle

>  <origin>  (18) 
adgpu

>  <m_score__min__energy>  (18) 
-12.25

>  <m_primary>  (18) 
energy

$$$$
18:0
     RDKit          3D

 54 57  0  0  0  0  0  0  0  0999 V2000
    1.6810   18.6430  -30.6290 O   0  0  0  0  0  0  0  0  0  0  0  0
    0.4630   18.9710  -30.6810 C   0  0  0  0  0  0  0  0  0  0  0  0
   -0.3370   18.5890  -31.8090 N   0  0  0  0  0  0  0  0  0  0  0  0
   -1.3860   19.3510  -32.4180 C   0  0  0  0  0  0  0  0  0  0  0  0
   -1.2460   20.7210  -32.7000 C   0  0  0  0  0  0  0  0  0  0  0  0
   -2.3160   21.4420  -33.2390 C   0  0  0  0  0  0  0  0  0  0  0  0
   -3.5350   20.8100  -33.4830 C   0  0  0  0  0  0  0  0  0  0  0  0
   -3.6950   19.4470  -33.1880 C   0  0  0  0  0  0  0  0  0  0  0  0
   -5.2440   18.6490  -33.4880 S   0  0  0  0  0  0  0  0  0  0  0  0
   -5.6650   18.9220  -34.9080 O   0  0  0  0  0  0  0  0  0  0  0  0
   -5.0650   17.1630  -33.3330 O   0  0  0  0  0  0  0  0  0  0  0  0
   -6.5110   19.1930  -32.4160 N   0  0  0  0  0  0  0  0  0  0  0  0
   -7.3890   20.1700  -33.0560 C   0  0  0  0  0  0  0  0  0  0  0  0
   -8.6880   20.1370  -32.2700 C   0  0  0  0  0  0  0  0  0  0  0  0
   -8.7310   18.7510  -31.6380 C   0  0  0  0  0  0  0  0  0  0  0  0
   -7.3950   18.1060  -31.9900 C   0  0  0  0  0  0  0  0  0  0  0  0
   -2.6170   18.7250  -32.6560 C   0  0  0  0  0  0  0  0  0  0  0  0
   -0.1570   19.6980  -29.5480 C   0  0  0  0  0  0  0  0  0  0  0  0
   -0.7620   18.9890  -28.4920 C   0  0  0  0  0  0  0  0  0  0  0  0
   -1.3570   19.6710  -27.4280 C   0  0  0  0  0  0  0  0  0  0  0  0
   -1.3560   21.0660  -27.4020 C   0  0  0  0  0  0  0  0  0  0  0  0
   -0.7540   21.7910  -28.4400 C   0  0  0  0  0  0  0  0  0  0  0  0
   -0.7930   23.5490  -28.4000 S   0  0  0  0  0  0  0  0  0  0  0  0
    0.6080   24.0620  -28.5860 O   0  0  0  0  0  0  0  0  0  0  0  0
   -1.3430   24.0340  -27.0870 O   0  0  0  0  0  0  0  0  0  0  0  0
   -1.8120   24.1070  -29.6870 N   0  0  0  0  0  0  0  0  0  0  0  0
   -3.0370   23.4920  -30.1120 C   0  0  0  0  0  0  0  0  0  0  0  0
   -3.2400   22.1010  -30.0320 C   0  0  0  0  0  0  0  0  0  0  0  0
   -4.4560   21.5420  -30.4450 C   0  0  0  0  0  0  0  0  0  0  0  0
   -5.4760   22.3630  -30.9350 C   0  0  0  0  0  0  0  0  0  0  0  0
   -5.2740   23.7430  -31.0300 C   0  0  0  0  0  0  0  0  0  0  0  0
   -4.0570   24.3070  -30.6260 C   0  0  0  0  0  0  0  0  0  0  0  0
   -3.8660   25.6820  -30.7360 O   0  0  0  0  0  0  0  0  0  0  0  0
   -0.1580   21.1070  -29.5110 C   0  0  0  0  0  0  0  0  0  0  0  0
   -0.2912   21.2277  -32.4959 H   0  0  0  0  0  0  0  0  0  0  0  0
   -2.1959   22.5105  -33.4712 H   0  0  0  0  0  0  0  0  0  0  0  0
   -4.3735   21.3813  -33.9079 H   0  0  0  0  0  0  0  0  0  0  0  0
   -6.9408   21.1736  -33.0131 H   0  0  0  0  0  0  0  0  0  0  0  0
   -7.5523   19.9330  -34.1177 H   0  0  0  0  0  0  0  0  0  0  0  0
   -8.6901   20.9162  -31.4936 H   0  0  0  0  0  0  0  0  0  0  0  0
   -9.5628   20.3271  -32.9092 H   0  0  0  0  0  0  0  0  0  0  0  0
   -8.8456   18.8286  -30.5467 H   0  0  0  0  0  0  0  0  0  0  0  0
   -9.5817   18.1588  -32.0063 H   0  0  0  0  0  0  0  0  0  0  0  0
   -6.9749   17.5965  -31.1102 H   0  0  0  0  0  0  0  0  0  0  0  0
   -7.5122   17.3530  -32.7833 H   0  0  0  0  0  0  0  0  0  0  0  0
   -2.7388   17.6568  -32.4232 H   0  0  0  0  0  0  0  0  0  0  0  0
   -0.7660   17.8891  -28.5053 H   0  0  0  0  0  0  0  0  0  0  0  0
   -1.8273   19.1071  -26.6090 H   0  0  0  0  0  0  0  0  0  0  0  0
   -1.8292   21.5989  -26.5641 H   0  0  0  0  0  0  0  0  0  0  0  0
   -2.4414   21.4515  -29.6441 H   0  0  0  0  0  0  0  0  0  0  0  0
   -4.6088   20.4544  -30.3837 H   0  0  0  0  0  0  0  0  0  0  0  0
   -6.4357   21.9239  -31.2452 H   0  0  0  0  0  0  0  0  0  0  0  0
   -6.0734   24.3882  -31.4233 H   0  0  0  0  0  0  0  0  0  0  0  0
    0.3118   21.6748  -30.3276 H   0  0  0  0  0  0  0  0  0  0  0  0
  1  2  2  0
  2  3  1  0
  3  4  1  0
  4  5  2  0
  5  6  1  0
  6  7  2  0
  7  8  1  0
  8  9  1  0
  9 10  2  0
  9 11  2  0
  9 12  1  0
 12 13  1  0
 13 14  1  0
 14 15  1  0
 15 16  1  0
  8 17  2  0
  2 18  1  0
 18 19  2  0
 19 20  1  0
 20 21  2  0
 21 22  1  0
 22 23  1  0
 23 24  2  0
 23 25  2  0
 23 26  1  0
 26 27  1  0
 27 28  2  0
 28 29  1  0
 29 30  2  0
 30 31  1  0
 31 32  2  0
 32 33  1  0
 22 34  2  0
 17  4  1  0
 34 18  1  0
 16 12  1  0
 32 27  1  0
  5 35  1  0
  6 36  1  0
  7 37  1  0
 13 38  1  0
 13 39  1  0
 14 40  1  0
 14 41  1  0
 15 42  1  0
 15 43  1  0
 16 44  1  0
 16 45  1  0
 17 46  1  0
 19 47  1  0
 20 48  1  0
 21 49  1  0
 28 50  1  0
 29 51  1  0
 30 52  1  0
 31 53  1  0
 34 54  1  0
M  CHG  3   3  -1  26  -1  33  -1
M  END
>  <UniqueID>  (19) 
19

>  <SMILES>  (19) 
O=C([N-]c1cccc(S(=O)(=O)N2CCCC2)c1)c1cccc(S(=O)(=O)[N-]c2ccccc2[O-])c1

>  <Energy>  (19) 
68.26243608030906

>  <Genealogy>  (19) 
O=C([N-]c1cccc(S(=O)(=O)N2CCCC2)c1)c1cccc(S(=O)(=O)[N-]c2ccccc2[O-])c1 (protonated)
O=C([N-]c1cccc(S(=O)(=O)N2CCCC2)c1)c1cccc(S(=O)(=O)[N-]c2ccccc2[O-])c1 (3D coordinates assigned)
O=C([N-]c1cccc(S(=O)(=O)N2CCCC2)c1)c1cccc(S(=O)(=O)[N-]c2ccccc2[O-])c1 (nonaromatic ring conformer: 68.26243608030906 kcal/mol)

>  <smiles>  (19) 
O=C(Nc1cccc(S(=O)(=O)N2CCCC2)c1)c1cccc(S(=O)(=O)Nc2ccccc2O)c1

>  <score_type>  (19) 
oracle

>  <origin>  (19) 
adgpu

>  <m_score__min__energy>  (19) 
-14.74

>  <m_primary>  (19) 
energy

$$$$
19:0
     RDKit          3D

 47 49  0  0  0  0  0  0  0  0999 V2000
   -5.7150   19.7770  -32.0400 C   0  0  0  0  0  0  0  0  0  0  0  0
   -6.3070   20.9250  -32.8480 C   0  0  0  0  0  0  0  0  0  0  0  0
   -6.3480   22.1500  -32.0440 N   0  0  0  0  0  0  0  0  0  0  0  0
   -7.4350   22.8700  -31.6420 C   0  0  0  0  0  0  0  0  0  0  0  0
   -8.8660   22.5250  -31.9580 C   0  0  0  0  0  0  0  0  0  0  0  0
   -9.2750   21.1800  -31.3480 C   0  0  0  0  0  0  0  0  0  0  0  0
   -9.4530   19.8700  -32.6140 S   0  0  0  0  0  0  0  0  0  0  0  0
   -8.7460   18.5220  -31.6150 C   0  0  0  0  0  0  0  0  0  0  0  0
   -7.1100   23.9380  -30.8630 N   0  0  0  0  0  0  0  0  0  0  0  0
   -5.7710   23.8640  -30.7820 C   0  0  0  0  0  0  0  0  0  0  0  0
   -4.9180   24.7130  -30.0790 C   0  0  0  0  0  0  0  0  0  0  0  0
   -3.5390   24.4190  -30.0800 C   0  0  0  0  0  0  0  0  0  0  0  0
   -2.6580   25.2800  -29.3470 N   0  0  0  0  0  0  0  0  0  0  0  0
   -1.5470   24.7490  -28.1280 S   0  0  0  0  0  0  0  0  0  0  0  0
   -0.1430   25.0600  -28.5610 O   0  0  0  0  0  0  0  0  0  0  0  0
   -1.8330   25.4770  -26.8490 O   0  0  0  0  0  0  0  0  0  0  0  0
   -1.7560   23.0220  -27.8600 C   0  0  0  0  0  0  0  0  0  0  0  0
   -3.0360   22.4650  -27.7430 C   0  0  0  0  0  0  0  0  0  0  0  0
   -3.1870   21.0960  -27.5040 C   0  0  0  0  0  0  0  0  0  0  0  0
   -2.0580   20.2720  -27.3820 C   0  0  0  0  0  0  0  0  0  0  0  0
   -2.2100   18.8730  -27.1250 N   0  0  0  0  0  0  0  0  0  0  0  0
   -0.7780   20.8310  -27.5050 C   0  0  0  0  0  0  0  0  0  0  0  0
   -0.6280   22.1990  -27.7430 C   0  0  0  0  0  0  0  0  0  0  0  0
   -3.0630   23.2790  -30.7840 C   0  0  0  0  0  0  0  0  0  0  0  0
   -3.9530   22.4510  -31.4910 C   0  0  0  0  0  0  0  0  0  0  0  0
   -5.3080   22.7840  -31.4740 C   0  0  0  0  0  0  0  0  0  0  0  0
   -5.8246   19.9896  -30.9663 H   0  0  0  0  0  0  0  0  0  0  0  0
   -6.2447   18.8447  -32.2852 H   0  0  0  0  0  0  0  0  0  0  0  0
   -4.6482   19.6679  -32.2852 H   0  0  0  0  0  0  0  0  0  0  0  0
   -5.6867   21.0978  -33.7399 H   0  0  0  0  0  0  0  0  0  0  0  0
   -7.3323   20.6597  -33.1453 H   0  0  0  0  0  0  0  0  0  0  0  0
   -9.5196   23.3124  -31.5545 H   0  0  0  0  0  0  0  0  0  0  0  0
   -8.9663   22.4495  -33.0508 H   0  0  0  0  0  0  0  0  0  0  0  0
   -8.5061   20.8710  -30.6246 H   0  0  0  0  0  0  0  0  0  0  0  0
  -10.2526   21.3138  -30.8618 H   0  0  0  0  0  0  0  0  0  0  0  0
   -8.8679   18.7545  -30.5468 H   0  0  0  0  0  0  0  0  0  0  0  0
   -9.2669   17.5814  -31.8473 H   0  0  0  0  0  0  0  0  0  0  0  0
   -7.6761   18.4157  -31.8473 H   0  0  0  0  0  0  0  0  0  0  0  0
   -5.3095   25.5876  -29.5387 H   0  0  0  0  0  0  0  0  0  0  0  0
   -3.9244   23.1064  -27.8394 H   0  0  0  0  0  0  0  0  0  0  0  0
   -4.1941   20.6634  -27.4113 H   0  0  0  0  0  0  0  0  0  0  0  0
   -1.4450   18.2010  -27.3570 H   0  0  0  0  0  0  0  0  0  0  0  0
   -3.0780   18.5020  -26.6790 H   0  0  0  0  0  0  0  0  0  0  0  0
    0.1111   20.1898  -27.4137 H   0  0  0  0  0  0  0  0  0  0  0  0
    0.3788   22.6317  -27.8389 H   0  0  0  0  0  0  0  0  0  0  0  0
   -1.9887   23.0426  -30.7755 H   0  0  0  0  0  0  0  0  0  0  0  0
   -3.5924   21.5687  -32.0401 H   0  0  0  0  0  0  0  0  0  0  0  0
  1  2  1  0
  2  3  1  0
  3  4  1  0
  4  5  1  0
  5  6  1  0
  6  7  1  0
  7  8  1  0
  4  9  2  0
  9 10  1  0
 10 11  2  0
 11 12  1  0
 12 13  1  0
 13 14  1  0
 14 15  2  0
 14 16  2  0
 14 17  1  0
 17 18  2  0
 18 19  1  0
 19 20  2  0
 20 21  1  0
 20 22  1  0
 22 23  2  0
 12 24  2  0
 24 25  1  0
 25 26  2  0
 26  3  1  0
 26 10  1  0
 23 17  1  0
  1 27  1  0
  1 28  1  0
  1 29  1  0
  2 30  1  0
  2 31  1  0
  5 32  1  0
  5 33  1  0
  6 34  1  0
  6 35  1  0
  8 36  1  0
  8 37  1  0
  8 38  1  0
 11 39  1  0
 18 40  1  0
 19 41  1  0
 21 42  1  0
 21 43  1  0
 22 44  1  0
 23 45  1  0
 24 46  1  0
 25 47  1  0
M  CHG  1  13  -1
M  END
>  <UniqueID>  (20) 
20

>  <SMILES>  (20) 
CCn1c(CCSC)nc2cc([N-]S(=O)(=O)c3ccc(N)cc3)ccc21

>  <Energy>  (20) 
80.10756411376389

>  <Genealogy>  (20) 
CCn1c(CCSC)nc2cc([N-]S(=O)(=O)c3ccc(N)cc3)ccc21 (protonated)
CCn1c(CCSC)nc2cc([N-]S(=O)(=O)c3ccc(N)cc3)ccc21 (3D coordinates assigned)
CCn1c(CCSC)nc2cc([N-]S(=O)(=O)c3ccc(N)cc3)ccc21 (optimized conformer: 80.10756411376389 kcal/mol)

>  <smiles>  (20) 
CCn1c(CCSC)nc2cc(NS(=O)(=O)c3ccc(N)cc3)ccc21

>  <score_type>  (20) 
oracle

>  <origin>  (20) 
adgpu

>  <m_score__min__energy>  (20) 
-10.52

>  <m_primary>  (20) 
energy

$$$$
20:0
     RDKit          3D

 56 59  0  0  0  0  0  0  0  0999 V2000
   -8.0120   18.3070  -32.1650 C   0  0  0  0  0  0  0  0  0  0  0  0
   -7.2070   19.1910  -33.0240 N   0  0  0  0  0  0  0  0  0  0  0  0
   -7.6260   20.6130  -32.8870 C   0  0  0  0  0  0  0  0  0  0  0  0
   -6.4540   21.5890  -32.7210 C   0  0  0  0  0  0  0  0  0  0  0  0
   -5.5700   21.1030  -31.6620 N   0  0  0  0  0  0  0  0  0  0  0  0
   -4.9010   22.0390  -30.8050 C   0  0  0  0  0  0  0  0  0  0  0  0
   -5.6520   22.7340  -29.8480 C   0  0  0  0  0  0  0  0  0  0  0  0
   -5.0360   23.6280  -28.9730 C   0  0  0  0  0  0  0  0  0  0  0  0
   -3.6480   23.8250  -29.0230 C   0  0  0  0  0  0  0  0  0  0  0  0
   -2.9910   24.7400  -28.1290 N   0  0  0  0  0  0  0  0  0  0  0  0
   -1.5860   25.0430  -28.1910 C   0  0  0  0  0  0  0  0  0  0  0  0
   -0.9600   24.8340  -29.2630 O   0  0  0  0  0  0  0  0  0  0  0  0
   -0.8880   25.6260  -27.0110 C   0  0  0  0  0  0  0  0  0  0  0  0
   -1.5680   26.5620  -26.2100 C   0  0  0  0  0  0  0  0  0  0  0  0
   -0.9340   27.1650  -25.1240 C   0  0  0  0  0  0  0  0  0  0  0  0
    0.3860   26.8340  -24.8360 C   0  0  0  0  0  0  0  0  0  0  0  0
    1.0370   25.9220  -25.5990 N   0  0  0  0  0  0  0  0  0  0  0  0
    0.4490   25.2990  -26.6570 C   0  0  0  0  0  0  0  0  0  0  0  0
    1.4440   24.1060  -27.5650 S   0  0  0  0  0  0  0  0  0  0  0  0
    0.2610   22.7780  -27.3140 C   0  0  0  0  0  0  0  0  0  0  0  0
   -0.1080   21.9630  -28.3920 C   0  0  0  0  0  0  0  0  0  0  0  0
   -1.0220   20.9210  -28.2050 C   0  0  0  0  0  0  0  0  0  0  0  0
   -1.5720   20.6920  -26.9400 C   0  0  0  0  0  0  0  0  0  0  0  0
   -1.2160   21.5120  -25.8650 C   0  0  0  0  0  0  0  0  0  0  0  0
   -0.3040   22.5560  -26.0500 C   0  0  0  0  0  0  0  0  0  0  0  0
   -2.8950   23.1510  -29.9950 C   0  0  0  0  0  0  0  0  0  0  0  0
   -3.5060   22.2650  -30.9060 C   0  0  0  0  0  0  0  0  0  0  0  0
   -2.6550   21.5250  -31.9180 C   0  0  0  0  0  0  0  0  0  0  0  0
   -2.5320   20.2030  -31.5390 F   0  0  0  0  0  0  0  0  0  0  0  0
   -1.3870   22.0760  -32.0060 F   0  0  0  0  0  0  0  0  0  0  0  0
   -3.2260   21.5880  -33.1760 F   0  0  0  0  0  0  0  0  0  0  0  0
   -5.1670   19.6950  -31.6470 C   0  0  0  0  0  0  0  0  0  0  0  0
   -5.7570   18.9420  -32.8510 C   0  0  0  0  0  0  0  0  0  0  0  0
   -7.8051   18.5342  -31.1088 H   0  0  0  0  0  0  0  0  0  0  0  0
   -9.0803   18.4678  -32.3722 H   0  0  0  0  0  0  0  0  0  0  0  0
   -7.7521   17.2584  -32.3722 H   0  0  0  0  0  0  0  0  0  0  0  0
   -8.1894   20.8972  -33.7880 H   0  0  0  0  0  0  0  0  0  0  0  0
   -8.2333   20.6821  -31.9725 H   0  0  0  0  0  0  0  0  0  0  0  0
   -5.8943   21.6560  -33.6656 H   0  0  0  0  0  0  0  0  0  0  0  0
   -6.8373   22.5850  -32.4545 H   0  0  0  0  0  0  0  0  0  0  0  0
   -6.7384   22.5728  -29.7863 H   0  0  0  0  0  0  0  0  0  0  0  0
   -5.6413   24.1814  -28.2400 H   0  0  0  0  0  0  0  0  0  0  0  0
   -3.5840   25.2980  -27.4760 H   0  0  0  0  0  0  0  0  0  0  0  0
   -2.6114   26.8210  -26.4430 H   0  0  0  0  0  0  0  0  0  0  0  0
   -1.4723   27.8949  -24.5015 H   0  0  0  0  0  0  0  0  0  0  0  0
    0.9012   27.3119  -23.9898 H   0  0  0  0  0  0  0  0  0  0  0  0
    0.3223   22.1431  -29.3882 H   0  0  0  0  0  0  0  0  0  0  0  0
   -1.3082   20.2816  -29.0531 H   0  0  0  0  0  0  0  0  0  0  0  0
   -2.2843   19.8672  -26.7907 H   0  0  0  0  0  0  0  0  0  0  0  0
   -1.6542   21.3356  -24.8716 H   0  0  0  0  0  0  0  0  0  0  0  0
   -0.0299   23.2031  -25.2038 H   0  0  0  0  0  0  0  0  0  0  0  0
   -1.8088   23.3163  -30.0478 H   0  0  0  0  0  0  0  0  0  0  0  0
   -4.0694   19.6342  -31.6870 H   0  0  0  0  0  0  0  0  0  0  0  0
   -5.5444   19.2315  -30.7236 H   0  0  0  0  0  0  0  0  0  0  0  0
   -5.2326   19.2675  -33.7615 H   0  0  0  0  0  0  0  0  0  0  0  0
   -5.6233   17.8655  -32.6686 H   0  0  0  0  0  0  0  0  0  0  0  0
  1  2  1  0
  2  3  1  0
  3  4  1  0
  4  5  1  0
  5  6  1  0
  6  7  2  0
  7  8  1  0
  8  9  2  0
  9 10  1  0
 10 11  1  0
 11 12  2  0
 11 13  1  0
 13 14  2  0
 14 15  1  0
 15 16  2  0
 16 17  1  0
 17 18  2  0
 18 19  1  0
 19 20  1  0
 20 21  2  0
 21 22  1  0
 22 23  2  0
 23 24  1  0
 24 25  2  0
  9 26  1  0
 26 27  2  0
 27 28  1  0
 28 29  1  0
 28 30  1  0
 28 31  1  0
  5 32  1  0
 32 33  1  0
 33  2  1  0
 27  6  1  0
 18 13  1  0
 25 20  1  0
  1 34  1  0
  1 35  1  0
  1 36  1  0
  3 37  1  0
  3 38  1  0
  4 39  1  0
  4 40  1  0
  7 41  1  0
  8 42  1  0
 10 43  1  0
 14 44  1  0
 15 45  1  0
 16 46  1  0
 21 47  1  0
 22 48  1  0
 23 49  1  0
 24 50  1  0
 25 51  1  0
 26 52  1  0
 32 53  1  0
 32 54  1  0
 33 55  1  0
 33 56  1  0
M  END
>  <UniqueID>  (21) 
21

>  <SMILES>  (21) 
CN1CCN(c2ccc(NC(=O)c3cccnc3Sc3ccccc3)cc2C(F)(F)F)CC1

>  <Energy>  (21) 
79.55027229522783

>  <Genealogy>  (21) 
CN1CCN(c2ccc(NC(=O)c3cccnc3Sc3ccccc3)cc2C(F)(F)F)CC1 (3D coordinates assigned)
CN1CCN(c2ccc(NC(=O)c3cccnc3Sc3ccccc3)cc2C(F)(F)F)CC1 (nonaromatic ring conformer: 79.55027229522783 kcal/mol)

>  <smiles>  (21) 
CN1CCN(c2ccc(NC(=O)c3cccnc3Sc3ccccc3)cc2C(F)(F)F)CC1

>  <score_type>  (21) 
oracle

>  <origin>  (21) 
adgpu

>  <m_score__min__energy>  (21) 
-9.5099999999999998

>  <m_primary>  (21) 
energy

$$$$
21:0
     RDKit          3D

 52 55  0  0  0  0  0  0  0  0999 V2000
   -5.7980   26.2810  -30.5990 O   0  0  0  0  0  0  0  0  0  0  0  0
   -5.2210   24.9870  -30.0850 S   0  0  0  0  0  0  0  0  0  0  0  0
   -5.3700   24.9350  -28.5950 O   0  0  0  0  0  0  0  0  0  0  0  0
   -3.5310   24.9090  -30.5050 N   0  0  0  0  0  0  0  0  0  0  0  0
   -2.5710   24.1300  -29.7780 C   0  0  0  0  0  0  0  0  0  0  0  0
   -2.5950   22.7290  -29.8100 C   0  0  0  0  0  0  0  0  0  0  0  0
   -1.7470   21.9710  -28.9840 C   0  0  0  0  0  0  0  0  0  0  0  0
   -0.8030   22.6290  -28.1670 C   0  0  0  0  0  0  0  0  0  0  0  0
   -0.7480   24.0340  -28.1790 C   0  0  0  0  0  0  0  0  0  0  0  0
   -1.6230   24.7770  -28.9810 C   0  0  0  0  0  0  0  0  0  0  0  0
   -1.5640   26.1600  -28.9640 O   0  0  0  0  0  0  0  0  0  0  0  0
    0.0590   21.8620  -27.1820 C   0  0  0  0  0  0  0  0  0  0  0  0
    0.1270   20.3540  -27.4730 C   0  0  0  0  0  0  0  0  0  0  0  0
   -1.2620   19.8030  -27.7790 C   0  0  0  0  0  0  0  0  0  0  0  0
   -1.8170   20.4570  -29.0470 C   0  0  0  0  0  0  0  0  0  0  0  0
   -6.0620   23.6070  -30.7830 C   0  0  0  0  0  0  0  0  0  0  0  0
   -5.4610   22.3400  -30.8120 C   0  0  0  0  0  0  0  0  0  0  0  0
   -6.1970   21.2260  -31.2220 C   0  0  0  0  0  0  0  0  0  0  0  0
   -7.5390   21.3680  -31.6090 C   0  0  0  0  0  0  0  0  0  0  0  0
   -8.4960   19.9590  -32.0630 S   0  0  0  0  0  0  0  0  0  0  0  0
   -8.9100   19.2060  -30.8260 O   0  0  0  0  0  0  0  0  0  0  0  0
   -9.7380   20.4300  -32.7710 O   0  0  0  0  0  0  0  0  0  0  0  0
   -7.5850   18.9140  -33.1270 N   0  0  0  0  0  0  0  0  0  0  0  0
   -6.5320   19.6890  -33.8150 C   0  0  0  0  0  0  0  0  0  0  0  0
   -5.4160   18.7590  -34.3070 C   0  0  0  0  0  0  0  0  0  0  0  0
   -4.7640   18.0360  -33.2660 O   0  0  0  0  0  0  0  0  0  0  0  0
   -5.5510   17.8780  -32.0980 C   0  0  0  0  0  0  0  0  0  0  0  0
   -7.0540   17.7440  -32.3910 C   0  0  0  0  0  0  0  0  0  0  0  0
   -8.1250   22.6400  -31.6220 C   0  0  0  0  0  0  0  0  0  0  0  0
   -7.3910   23.7530  -31.2080 C   0  0  0  0  0  0  0  0  0  0  0  0
   -3.2881   22.2147  -30.4920 H   0  0  0  0  0  0  0  0  0  0  0  0
   -0.0097   24.5550  -27.5517 H   0  0  0  0  0  0  0  0  0  0  0  0
    1.0796   22.2706  -27.2204 H   0  0  0  0  0  0  0  0  0  0  0  0
   -0.4000   21.9801  -26.1893 H   0  0  0  0  0  0  0  0  0  0  0  0
    0.7829   20.1822  -28.3392 H   0  0  0  0  0  0  0  0  0  0  0  0
    0.5251   19.8393  -26.5861 H   0  0  0  0  0  0  0  0  0  0  0  0
   -1.1975   18.7151  -27.9285 H   0  0  0  0  0  0  0  0  0  0  0  0
   -1.9323   20.0245  -26.9354 H   0  0  0  0  0  0  0  0  0  0  0  0
   -1.2310   20.1102  -29.9109 H   0  0  0  0  0  0  0  0  0  0  0  0
   -2.8746   20.1699  -29.1419 H   0  0  0  0  0  0  0  0  0  0  0  0
   -4.4092   22.2236  -30.5116 H   0  0  0  0  0  0  0  0  0  0  0  0
   -5.7233   20.2334  -31.2418 H   0  0  0  0  0  0  0  0  0  0  0  0
   -6.9723   20.2132  -34.6760 H   0  0  0  0  0  0  0  0  0  0  0  0
   -6.1045   20.4148  -33.1075 H   0  0  0  0  0  0  0  0  0  0  0  0
   -5.8537   18.0347  -35.0097 H   0  0  0  0  0  0  0  0  0  0  0  0
   -4.6536   19.3973  -34.7775 H   0  0  0  0  0  0  0  0  0  0  0  0
   -5.2159   16.9724  -31.5711 H   0  0  0  0  0  0  0  0  0  0  0  0
   -5.4172   18.7848  -31.4899 H   0  0  0  0  0  0  0  0  0  0  0  0
   -7.2181   16.8401  -32.9961 H   0  0  0  0  0  0  0  0  0  0  0  0
   -7.5823   17.6815  -31.4282 H   0  0  0  0  0  0  0  0  0  0  0  0
   -9.1650   22.7622  -31.9589 H   0  0  0  0  0  0  0  0  0  0  0  0
   -7.8570   24.7494  -31.2151 H   0  0  0  0  0  0  0  0  0  0  0  0
  1  2  2  0
  2  3  2  0
  2  4  1  0
  4  5  1  0
  5  6  2  0
  6  7  1  0
  7  8  2  0
  8  9  1  0
  9 10  2  0
 10 11  1  0
  8 12  1  0
 12 13  1  0
 13 14  1  0
 14 15  1  0
  2 16  1  0
 16 17  2  0
 17 18  1  0
 18 19  2  0
 19 20  1  0
 20 21  2  0
 20 22  2  0
 20 23  1  0
 23 24  1  0
 24 25  1  0
 25 26  1  0
 26 27  1  0
 27 28  1  0
 19 29  1  0
 29 30  2  0
 10  5  1  0
 30 16  1  0
 15  7  1  0
 28 23  1  0
  6 31  1  0
  9 32  1  0
 12 33  1  0
 12 34  1  0
 13 35  1  0
 13 36  1  0
 14 37  1  0
 14 38  1  0
 15 39  1  0
 15 40  1  0
 17 41  1  0
 18 42  1  0
 24 43  1  0
 24 44  1  0
 25 45  1  0
 25 46  1  0
 27 47  1  0
 27 48  1  0
 28 49  1  0
 28 50  1  0
 29 51  1  0
 30 52  1  0
M  CHG  2   4  -1  11  -1
M  END
>  <UniqueID>  (22) 
22

>  <SMILES>  (22) 
O=S(=O)([N-]c1cc2c(cc1[O-])CCCC2)c1ccc(S(=O)(=O)N2CCOCC2)cc1

>  <Energy>  (22) 
70.20311033696218

>  <Genealogy>  (22) 
O=S(=O)([N-]c1cc2c(cc1[O-])CCCC2)c1ccc(S(=O)(=O)N2CCOCC2)cc1 (protonated)
O=S(=O)([N-]c1cc2c(cc1[O-])CCCC2)c1ccc(S(=O)(=O)N2CCOCC2)cc1 (3D coordinates assigned)
O=S(=O)([N-]c1cc2c(cc1[O-])CCCC2)c1ccc(S(=O)(=O)N2CCOCC2)cc1 (nonaromatic ring conformer: 70.20311033696218 kcal/mol)

>  <smiles>  (22) 
O=S(=O)(Nc1cc2c(cc1O)CCCC2)c1ccc(S(=O)(=O)N2CCOCC2)cc1

>  <score_type>  (22) 
oracle

>  <origin>  (22) 
adgpu

>  <m_score__min__energy>  (22) 
-15.619999999999999

>  <m_primary>  (22) 
energy

$$$$
22:0
     RDKit          3D

 44 46  0  0  0  0  0  0  0  0999 V2000
   -8.3140   23.4150  -31.9490 C   0  0  0  0  0  0  0  0  0  0  0  0
   -8.9150   22.1240  -31.9480 O   0  0  0  0  0  0  0  0  0  0  0  0
   -8.2040   20.9180  -32.0410 C   0  0  0  0  0  0  0  0  0  0  0  0
   -8.8970   19.7220  -31.8280 C   0  0  0  0  0  0  0  0  0  0  0  0
   -8.2360   18.4950  -31.9070 C   0  0  0  0  0  0  0  0  0  0  0  0
   -6.8720   18.4510  -32.2030 C   0  0  0  0  0  0  0  0  0  0  0  0
   -6.1560   19.6400  -32.4230 C   0  0  0  0  0  0  0  0  0  0  0  0
   -4.7210   19.5860  -32.7590 C   0  0  0  0  0  0  0  0  0  0  0  0
   -3.7330   19.7220  -31.8470 N   0  0  0  0  0  0  0  0  0  0  0  0
   -2.6160   19.6490  -32.5940 C   0  0  0  0  0  0  0  0  0  0  0  0
   -1.2320   19.8270  -32.0500 C   0  0  0  0  0  0  0  0  0  0  0  0
   -1.2030   19.5410  -30.6060 N   0  0  0  0  0  0  0  0  0  0  0  0
   -0.2270   20.3730  -29.8830 C   0  0  0  0  0  0  0  0  0  0  0  0
   -0.7800   21.7470  -29.6060 C   0  0  0  0  0  0  0  0  0  0  0  0
   -0.0150   22.6920  -28.9040 C   0  0  0  0  0  0  0  0  0  0  0  0
   -0.5070   23.9820  -28.6970 C   0  0  0  0  0  0  0  0  0  0  0  0
   -1.7660   24.3440  -29.1880 C   0  0  0  0  0  0  0  0  0  0  0  0
   -2.2340   25.6340  -28.9700 O   0  0  0  0  0  0  0  0  0  0  0  0
   -2.5430   23.4070  -29.8910 C   0  0  0  0  0  0  0  0  0  0  0  0
   -4.1310   23.8570  -30.5190 S   0  0  0  0  0  0  0  0  0  0  0  0
   -4.2030   25.5540  -30.8410 N   0  0  0  0  0  0  0  0  0  0  0  0
   -5.1870   23.5220  -29.5040 O   0  0  0  0  0  0  0  0  0  0  0  0
   -4.3980   23.0990  -31.7880 O   0  0  0  0  0  0  0  0  0  0  0  0
   -2.0490   22.1070  -30.0850 C   0  0  0  0  0  0  0  0  0  0  0  0
   -2.9530   19.4590  -33.9140 C   0  0  0  0  0  0  0  0  0  0  0  0
   -4.2610   19.4260  -33.9820 O   0  0  0  0  0  0  0  0  0  0  0  0
   -6.8290   20.8730  -32.3420 C   0  0  0  0  0  0  0  0  0  0  0  0
   -8.1589   23.7481  -30.9122 H   0  0  0  0  0  0  0  0  0  0  0  0
   -7.3452   23.3680  -32.4678 H   0  0  0  0  0  0  0  0  0  0  0  0
   -8.9736   24.1261  -32.4678 H   0  0  0  0  0  0  0  0  0  0  0  0
   -9.9720   19.7484  -31.5963 H   0  0  0  0  0  0  0  0  0  0  0  0
   -8.7908   17.5607  -31.7357 H   0  0  0  0  0  0  0  0  0  0  0  0
   -6.3558   17.4815  -32.2642 H   0  0  0  0  0  0  0  0  0  0  0  0
   -0.5482   19.1390  -32.5688 H   0  0  0  0  0  0  0  0  0  0  0  0
   -0.9181   20.8688  -32.2120 H   0  0  0  0  0  0  0  0  0  0  0  0
   -0.9010   18.5440  -30.4930 H   0  0  0  0  0  0  0  0  0  0  0  0
    0.0208   19.8869  -28.9279 H   0  0  0  0  0  0  0  0  0  0  0  0
    0.6711   20.4792  -30.5092 H   0  0  0  0  0  0  0  0  0  0  0  0
    0.9761   22.4149  -28.5155 H   0  0  0  0  0  0  0  0  0  0  0  0
    0.0978   24.7169  -28.1455 H   0  0  0  0  0  0  0  0  0  0  0  0
   -3.8610   26.0460  -29.9850 H   0  0  0  0  0  0  0  0  0  0  0  0
   -2.6619   21.3645  -30.6170 H   0  0  0  0  0  0  0  0  0  0  0  0
   -2.2537   19.3542  -34.7566 H   0  0  0  0  0  0  0  0  0  0  0  0
   -6.2771   21.8086  -32.5151 H   0  0  0  0  0  0  0  0  0  0  0  0
  1  2  1  0
  2  3  1  0
  3  4  2  0
  4  5  1  0
  5  6  2  0
  6  7  1  0
  7  8  1  0
  8  9  2  0
  9 10  1  0
 10 11  1  0
 11 12  1  0
 12 13  1  0
 13 14  1  0
 14 15  2  0
 15 16  1  0
 16 17  2  0
 17 18  1  0
 17 19  1  0
 19 20  1  0
 20 21  1  0
 20 22  2  0
 20 23  2  0
 19 24  2  0
 10 25  2  0
 25 26  1  0
  7 27  2  0
 27  3  1  0
 26  8  1  0
 24 14  1  0
  1 28  1  0
  1 29  1  0
  1 30  1  0
  4 31  1  0
  5 32  1  0
  6 33  1  0
 11 34  1  0
 11 35  1  0
 12 36  1  0
 13 37  1  0
 13 38  1  0
 15 39  1  0
 16 40  1  0
 21 41  1  0
 24 42  1  0
 25 43  1  0
 27 44  1  0
M  CHG  2  18  -1  21  -1
M  END
>  <UniqueID>  (23) 
23

>  <SMILES>  (23) 
COc1cccc(-c2nc(CNCc3ccc([O-])c(S([NH-])(=O)=O)c3)co2)c1

>  <Energy>  (23) 
69.61998997841675

>  <Genealogy>  (23) 
COc1cccc(-c2nc(CNCc3ccc([O-])c(S([NH-])(=O)=O)c3)co2)c1 (protonated)
COc1cccc(-c2nc(CNCc3ccc([O-])c(S([NH-])(=O)=O)c3)co2)c1 (3D coordinates assigned)
COc1cccc(-c2nc(CNCc3ccc([O-])c(S([NH-])(=O)=O)c3)co2)c1 (optimized conformer: 69.61998997841675 kcal/mol)

>  <smiles>  (23) 
COc1cccc(-c2nc(CNCc3ccc(O)c(S(N)(=O)=O)c3)co2)c1

>  <score_type>  (23) 
oracle

>  <origin>  (23) 
adgpu

>  <m_score__min__energy>  (23) 
-12.84

>  <m_primary>  (23) 
energy

$$$$
23:0
     RDKit          3D

 51 54  0  0  0  0  0  0  0  0999 V2000
   -3.4310   21.8890  -33.4680 O   0  0  0  0  0  0  0  0  0  0  0  0
   -3.9550   20.9190  -32.8560 C   0  0  0  0  0  0  0  0  0  0  0  0
   -4.4910   21.1090  -31.5350 N   0  0  0  0  0  0  0  0  0  0  0  0
   -4.7030   22.4090  -30.9590 C   0  0  0  0  0  0  0  0  0  0  0  0
   -3.6120   23.1520  -30.4790 C   0  0  0  0  0  0  0  0  0  0  0  0
   -3.7990   24.4430  -29.9500 C   0  0  0  0  0  0  0  0  0  0  0  0
   -2.7420   25.2060  -29.4270 O   0  0  0  0  0  0  0  0  0  0  0  0
   -2.0060   24.8940  -28.2430 C   0  0  0  0  0  0  0  0  0  0  0  0
   -1.6480   23.4320  -28.2010 C   0  0  0  0  0  0  0  0  0  0  0  0
   -2.4050   22.5310  -27.4360 C   0  0  0  0  0  0  0  0  0  0  0  0
   -2.0480   21.1810  -27.4120 C   0  0  0  0  0  0  0  0  0  0  0  0
   -0.9830   20.7430  -28.1340 N   0  0  0  0  0  0  0  0  0  0  0  0
   -0.2390   21.5910  -28.8920 C   0  0  0  0  0  0  0  0  0  0  0  0
   -0.5610   22.9500  -28.9440 C   0  0  0  0  0  0  0  0  0  0  0  0
   -5.0820   24.9960  -29.9420 C   0  0  0  0  0  0  0  0  0  0  0  0
   -6.1700   24.2740  -30.4370 C   0  0  0  0  0  0  0  0  0  0  0  0
   -5.9940   22.9790  -30.9410 C   0  0  0  0  0  0  0  0  0  0  0  0
   -7.1370   22.2340  -31.3950 N   0  0  0  0  0  0  0  0  0  0  0  0
   -7.1230   21.5920  -32.7160 C   0  0  0  0  0  0  0  0  0  0  0  0
   -7.7220   20.1860  -32.6130 C   0  0  0  0  0  0  0  0  0  0  0  0
   -9.1180   20.1750  -31.9500 C   0  0  0  0  0  0  0  0  0  0  0  0
   -9.5000   21.5030  -31.2740 C   0  0  0  0  0  0  0  0  0  0  0  0
   -8.3130   22.1160  -30.5230 C   0  0  0  0  0  0  0  0  0  0  0  0
   -3.9750   19.5940  -33.5000 C   0  0  0  0  0  0  0  0  0  0  0  0
   -2.9150   18.6960  -33.6060 C   0  0  0  0  0  0  0  0  0  0  0  0
   -3.2590   17.5100  -34.2670 C   0  0  0  0  0  0  0  0  0  0  0  0
   -4.5840   17.4620  -34.6770 C   0  0  0  0  0  0  0  0  0  0  0  0
   -5.3280   18.8960  -34.2180 S   0  0  0  0  0  0  0  0  0  0  0  0
   -4.6530   20.2730  -30.9300 H   0  0  0  0  0  0  0  0  0  0  0  0
   -2.6009   22.7205  -30.5169 H   0  0  0  0  0  0  0  0  0  0  0  0
   -1.0825   25.4913  -28.2254 H   0  0  0  0  0  0  0  0  0  0  0  0
   -2.6319   25.1273  -27.3690 H   0  0  0  0  0  0  0  0  0  0  0  0
   -3.2725   22.8853  -26.8600 H   0  0  0  0  0  0  0  0  0  0  0  0
   -2.6303   20.4703  -26.8072 H   0  0  0  0  0  0  0  0  0  0  0  0
    0.6177   21.2072  -29.4653 H   0  0  0  0  0  0  0  0  0  0  0  0
    0.0343   23.6368  -29.5636 H   0  0  0  0  0  0  0  0  0  0  0  0
   -5.2365   26.0091  -29.5422 H   0  0  0  0  0  0  0  0  0  0  0  0
   -7.1730   24.7257  -30.4311 H   0  0  0  0  0  0  0  0  0  0  0  0
   -7.7176   22.1921  -33.4205 H   0  0  0  0  0  0  0  0  0  0  0  0
   -6.0858   21.5207  -33.0754 H   0  0  0  0  0  0  0  0  0  0  0  0
   -7.8112   19.7672  -33.6262 H   0  0  0  0  0  0  0  0  0  0  0  0
   -7.0510   19.5865  -31.9803 H   0  0  0  0  0  0  0  0  0  0  0  0
   -9.8670   19.9531  -32.7244 H   0  0  0  0  0  0  0  0  0  0  0  0
   -9.0884   19.4118  -31.1584 H   0  0  0  0  0  0  0  0  0  0  0  0
   -9.8391   22.2111  -32.0445 H   0  0  0  0  0  0  0  0  0  0  0  0
  -10.3000   21.3010  -30.5465 H   0  0  0  0  0  0  0  0  0  0  0  0
   -8.5944   23.1165  -30.1626 H   0  0  0  0  0  0  0  0  0  0  0  0
   -8.0568   21.4580  -29.6796 H   0  0  0  0  0  0  0  0  0  0  0  0
   -1.9088   18.8982  -33.2102 H   0  0  0  0  0  0  0  0  0  0  0  0
   -2.5450   16.6923  -34.4447 H   0  0  0  0  0  0  0  0  0  0  0  0
   -5.0641   16.6285  -35.2106 H   0  0  0  0  0  0  0  0  0  0  0  0
  1  2  2  0
  2  3  1  0
  3  4  1  0
  4  5  2  0
  5  6  1  0
  6  7  1  0
  7  8  1  0
  8  9  1  0
  9 10  2  0
 10 11  1  0
 11 12  2  0
 12 13  1  0
 13 14  2  0
  6 15  2  0
 15 16  1  0
 16 17  2  0
 17 18  1  0
 18 19  1  0
 19 20  1  0
 20 21  1  0
 21 22  1  0
 22 23  1  0
  2 24  1  0
 24 25  2  0
 25 26  1  0
 26 27  2  0
 27 28  1  0
 17  4  1  0
 23 18  1  0
 28 24  1  0
 14  9  1  0
  3 29  1  0
  5 30  1  0
  8 31  1  0
  8 32  1  0
 10 33  1  0
 11 34  1  0
 13 35  1  0
 14 36  1  0
 15 37  1  0
 16 38  1  0
 19 39  1  0
 19 40  1  0
 20 41  1  0
 20 42  1  0
 21 43  1  0
 21 44  1  0
 22 45  1  0
 22 46  1  0
 23 47  1  0
 23 48  1  0
 25 49  1  0
 26 50  1  0
 27 51  1  0
M  END
>  <UniqueID>  (24) 
24

>  <SMILES>  (24) 
O=C(Nc1cc(OCc2ccncc2)ccc1N1CCCCC1)c1cccs1

>  <Energy>  (24) 
88.71833441754333

>  <Genealogy>  (24) 
O=C(Nc1cc(OCc2ccncc2)ccc1N1CCCCC1)c1cccs1 (3D coordinates assigned)
O=C(Nc1cc(OCc2ccncc2)ccc1N1CCCCC1)c1cccs1 (nonaromatic ring conformer: 88.71833441754333 kcal/mol)

>  <smiles>  (24) 
O=C(Nc1cc(OCc2ccncc2)ccc1N1CCCCC1)c1cccs1

>  <score_type>  (24) 
oracle

>  <origin>  (24) 
adgpu

>  <m_score__min__energy>  (24) 
-9.3499999999999996

>  <m_primary>  (24) 
energy

$$$$
24:0
     RDKit          3D

 59 62  0  0  0  0  0  0  0  0999 V2000
   -6.6940   24.6870  -29.6900 O   0  0  0  0  0  0  0  0  0  0  0  0
   -5.7030   24.3290  -30.3820 C   0  0  0  0  0  0  0  0  0  0  0  0
   -4.4100   25.0670  -30.2340 C   0  0  0  0  0  0  0  0  0  0  0  0
   -3.4580   24.2550  -29.4730 N   0  0  0  0  0  0  0  0  0  0  0  0
   -2.8400   24.7880  -28.2920 C   0  0  0  0  0  0  0  0  0  0  0  0
   -3.3170   24.4170  -27.0270 C   0  0  0  0  0  0  0  0  0  0  0  0
   -2.7270   24.9310  -25.8700 C   0  0  0  0  0  0  0  0  0  0  0  0
   -1.6560   25.8210  -25.9690 C   0  0  0  0  0  0  0  0  0  0  0  0
   -1.1690   26.1920  -27.2250 C   0  0  0  0  0  0  0  0  0  0  0  0
   -1.7520   25.6760  -28.3860 C   0  0  0  0  0  0  0  0  0  0  0  0
   -1.2370   26.0330  -29.6260 O   0  0  0  0  0  0  0  0  0  0  0  0
   -3.1520   22.6120  -29.9500 S   0  0  0  0  0  0  0  0  0  0  0  0
   -4.3970   21.7860  -29.7820 O   0  0  0  0  0  0  0  0  0  0  0  0
   -2.7440   22.5780  -31.3970 O   0  0  0  0  0  0  0  0  0  0  0  0
   -1.8880   21.9260  -28.9320 C   0  0  0  0  0  0  0  0  0  0  0  0
   -2.1980   20.8720  -28.0640 C   0  0  0  0  0  0  0  0  0  0  0  0
   -1.2080   20.3230  -27.2450 C   0  0  0  0  0  0  0  0  0  0  0  0
    0.0950   20.8240  -27.2870 C   0  0  0  0  0  0  0  0  0  0  0  0
    0.4090   21.8770  -28.1470 C   0  0  0  0  0  0  0  0  0  0  0  0
   -0.5790   22.4280  -28.9690 C   0  0  0  0  0  0  0  0  0  0  0  0
   -5.7810   23.1750  -31.2300 N   0  0  0  0  0  0  0  0  0  0  0  0
   -6.9850   22.4290  -31.4810 C   0  0  0  0  0  0  0  0  0  0  0  0
   -8.2160   23.0710  -31.7070 C   0  0  0  0  0  0  0  0  0  0  0  0
   -9.3620   22.3200  -31.9760 C   0  0  0  0  0  0  0  0  0  0  0  0
   -9.2930   20.9270  -32.0330 C   0  0  0  0  0  0  0  0  0  0  0  0
   -8.0690   20.2760  -31.8300 C   0  0  0  0  0  0  0  0  0  0  0  0
   -7.9680   18.5230  -31.9650 S   0  0  0  0  0  0  0  0  0  0  0  0
   -7.1270   17.9850  -30.8400 O   0  0  0  0  0  0  0  0  0  0  0  0
   -9.3460   17.9270  -31.8590 O   0  0  0  0  0  0  0  0  0  0  0  0
   -7.2320   18.1090  -33.4930 N   0  0  0  0  0  0  0  0  0  0  0  0
   -6.6430   16.7710  -33.4550 C   0  0  0  0  0  0  0  0  0  0  0  0
   -5.5370   16.7610  -34.4960 C   0  0  0  0  0  0  0  0  0  0  0  0
   -5.1590   18.2230  -34.6890 C   0  0  0  0  0  0  0  0  0  0  0  0
   -6.1260   19.0130  -33.8160 C   0  0  0  0  0  0  0  0  0  0  0  0
   -6.9180   21.0300  -31.5680 C   0  0  0  0  0  0  0  0  0  0  0  0
   -3.9945   25.2786  -31.2303 H   0  0  0  0  0  0  0  0  0  0  0  0
   -4.5905   26.0109  -29.6988 H   0  0  0  0  0  0  0  0  0  0  0  0
   -4.1613   23.7167  -26.9451 H   0  0  0  0  0  0  0  0  0  0  0  0
   -3.1062   24.6346  -24.8809 H   0  0  0  0  0  0  0  0  0  0  0  0
   -1.1953   26.2304  -25.0578 H   0  0  0  0  0  0  0  0  0  0  0  0
   -0.3241   26.8924  -27.3004 H   0  0  0  0  0  0  0  0  0  0  0  0
   -3.2233   20.4753  -28.0268 H   0  0  0  0  0  0  0  0  0  0  0  0
   -1.4555   19.4941  -26.5655 H   0  0  0  0  0  0  0  0  0  0  0  0
    0.8731   20.3888  -26.6426 H   0  0  0  0  0  0  0  0  0  0  0  0
    1.4344   22.2739  -28.1784 H   0  0  0  0  0  0  0  0  0  0  0  0
   -0.3288   23.2576  -29.6466 H   0  0  0  0  0  0  0  0  0  0  0  0
   -4.8890   22.8070  -31.6370 H   0  0  0  0  0  0  0  0  0  0  0  0
   -8.2761   24.1688  -31.6717 H   0  0  0  0  0  0  0  0  0  0  0  0
  -10.3231   22.8282  -32.1437 H   0  0  0  0  0  0  0  0  0  0  0  0
  -10.2004   20.3398  -32.2375 H   0  0  0  0  0  0  0  0  0  0  0  0
   -6.2283   16.5658  -32.4570 H   0  0  0  0  0  0  0  0  0  0  0  0
   -7.3960   15.9971  -33.6650 H   0  0  0  0  0  0  0  0  0  0  0  0
   -4.6730   16.1833  -34.1357 H   0  0  0  0  0  0  0  0  0  0  0  0
   -5.8614   16.2921  -35.4367 H   0  0  0  0  0  0  0  0  0  0  0  0
   -4.1214   18.3973  -34.3680 H   0  0  0  0  0  0  0  0  0  0  0  0
   -5.2232   18.5248  -35.7448 H   0  0  0  0  0  0  0  0  0  0  0  0
   -5.6233   19.3421  -32.8946 H   0  0  0  0  0  0  0  0  0  0  0  0
   -6.4874   19.9117  -34.3372 H   0  0  0  0  0  0  0  0  0  0  0  0
   -5.9528   20.5209  -31.4292 H   0  0  0  0  0  0  0  0  0  0  0  0
  1  2  2  0
  2  3  1  0
  3  4  1  0
  4  5  1  0
  5  6  2  0
  6  7  1  0
  7  8  2  0
  8  9  1  0
  9 10  2  0
 10 11  1  0
  4 12  1  0
 12 13  2  0
 12 14  2  0
 12 15  1  0
 15 16  2  0
 16 17  1  0
 17 18  2  0
 18 19  1  0
 19 20  2  0
  2 21  1  0
 21 22  1  0
 22 23  2  0
 23 24  1  0
 24 25  2  0
 25 26  1  0
 26 27  1  0
 27 28  2  0
 27 29  2  0
 27 30  1  0
 30 31  1  0
 31 32  1  0
 32 33  1  0
 33 34  1  0
 26 35  2  0
 10  5  1  0
 20 15  1  0
 35 22  1  0
 34 30  1  0
  3 36  1  0
  3 37  1  0
  6 38  1  0
  7 39  1  0
  8 40  1  0
  9 41  1  0
 16 42  1  0
 17 43  1  0
 18 44  1  0
 19 45  1  0
 20 46  1  0
 21 47  1  0
 23 48  1  0
 24 49  1  0
 25 50  1  0
 31 51  1  0
 31 52  1  0
 32 53  1  0
 32 54  1  0
 33 55  1  0
 33 56  1  0
 34 57  1  0
 34 58  1  0
 35 59  1  0
M  CHG  1  11  -1
M  END
>  <UniqueID>  (25) 
25

>  <SMILES>  (25) 
O=C(CN(c1ccccc1[O-])S(=O)(=O)c1ccccc1)Nc1cccc(S(=O)(=O)N2CCCC2)c1

>  <Energy>  (25) 
70.22705162908105

>  <Genealogy>  (25) 
O=C(CN(c1ccccc1[O-])S(=O)(=O)c1ccccc1)Nc1cccc(S(=O)(=O)N2CCCC2)c1 (protonated)
O=C(CN(c1ccccc1[O-])S(=O)(=O)c1ccccc1)Nc1cccc(S(=O)(=O)N2CCCC2)c1 (3D coordinates assigned)
O=C(CN(c1ccccc1[O-])S(=O)(=O)c1ccccc1)Nc1cccc(S(=O)(=O)N2CCCC2)c1 (nonaromatic ring conformer: 70.22705162908105 kcal/mol)

>  <smiles>  (25) 
O=C(CN(c1ccccc1O)S(=O)(=O)c1ccccc1)Nc1cccc(S(=O)(=O)N2CCCC2)c1

>  <score_type>  (25) 
oracle

>  <origin>  (25) 
adgpu

>  <m_score__min__energy>  (25) 
-13.76

>  <m_primary>  (25) 
energy

$$$$
25:0
     RDKit          3D

 43 45  0  0  0  0  0  0  0  0999 V2000
   -5.3520   26.0910  -30.4640 C   0  0  0  0  0  0  0  0  0  0  0  0
   -4.2220   25.1890  -30.6420 N   0  0  0  0  0  0  0  0  0  0  0  0
   -4.3260   23.7730  -30.8390 C   0  0  0  0  0  0  0  0  0  0  0  0
   -4.9300   23.3510  -31.8610 O   0  0  0  0  0  0  0  0  0  0  0  0
   -3.7320   22.7940  -29.9040 C   0  0  0  0  0  0  0  0  0  0  0  0
   -3.7530   23.0160  -28.5180 C   0  0  0  0  0  0  0  0  0  0  0  0
   -3.2500   22.0510  -27.6410 C   0  0  0  0  0  0  0  0  0  0  0  0
   -2.7320   20.8470  -28.1370 C   0  0  0  0  0  0  0  0  0  0  0  0
   -2.1310   19.6050  -27.0410 S   0  0  0  0  0  0  0  0  0  0  0  0
   -2.1740   20.0870  -25.6190 O   0  0  0  0  0  0  0  0  0  0  0  0
   -3.0370   18.4120  -27.1670 O   0  0  0  0  0  0  0  0  0  0  0  0
   -0.4650   19.1530  -27.4490 C   0  0  0  0  0  0  0  0  0  0  0  0
   -0.1220   17.7900  -27.4580 C   0  0  0  0  0  0  0  0  0  0  0  0
    1.1650   17.3760  -27.8210 C   0  0  0  0  0  0  0  0  0  0  0  0
    1.4970   15.9840  -27.8300 N   0  0  0  0  0  0  0  0  0  0  0  0
    2.1220   18.3290  -28.1830 C   0  0  0  0  0  0  0  0  0  0  0  0
    1.8000   19.6860  -28.1720 C   0  0  0  0  0  0  0  0  0  0  0  0
    0.5170   20.1150  -27.7960 C   0  0  0  0  0  0  0  0  0  0  0  0
    0.2420   21.5660  -27.7860 C   0  0  0  0  0  0  0  0  0  0  0  0
   -0.0130   22.2390  -28.9890 C   0  0  0  0  0  0  0  0  0  0  0  0
   -0.2640   23.6130  -28.9860 C   0  0  0  0  0  0  0  0  0  0  0  0
   -0.2620   24.3290  -27.7830 C   0  0  0  0  0  0  0  0  0  0  0  0
   -0.5790   26.0570  -27.8180 Cl  0  0  0  0  0  0  0  0  0  0  0  0
    0.0060   23.6620  -26.5750 C   0  0  0  0  0  0  0  0  0  0  0  0
    0.0230   24.5220  -25.0430 Cl  0  0  0  0  0  0  0  0  0  0  0  0
    0.2690   22.2870  -26.5830 C   0  0  0  0  0  0  0  0  0  0  0  0
   -2.7190   20.6180  -29.5180 C   0  0  0  0  0  0  0  0  0  0  0  0
   -3.2190   21.5840  -30.3960 C   0  0  0  0  0  0  0  0  0  0  0  0
   -5.5374   26.2390  -29.3899 H   0  0  0  0  0  0  0  0  0  0  0  0
   -5.1256   27.0595  -30.9339 H   0  0  0  0  0  0  0  0  0  0  0  0
   -6.2462   25.6556  -30.9339 H   0  0  0  0  0  0  0  0  0  0  0  0
   -4.1674   23.9541  -28.1202 H   0  0  0  0  0  0  0  0  0  0  0  0
   -3.2607   22.2373  -26.5569 H   0  0  0  0  0  0  0  0  0  0  0  0
   -0.8746   17.0389  -27.1762 H   0  0  0  0  0  0  0  0  0  0  0  0
    0.9650   15.3040  -27.2410 H   0  0  0  0  0  0  0  0  0  0  0  0
    2.2770   15.6230  -28.4230 H   0  0  0  0  0  0  0  0  0  0  0  0
    3.1319   18.0075  -28.4774 H   0  0  0  0  0  0  0  0  0  0  0  0
    2.5591   20.4279  -28.4609 H   0  0  0  0  0  0  0  0  0  0  0  0
   -0.0154   21.6833  -29.9383 H   0  0  0  0  0  0  0  0  0  0  0  0
   -0.4642   24.1350  -29.9334 H   0  0  0  0  0  0  0  0  0  0  0  0
    0.4982   21.7688  -25.6402 H   0  0  0  0  0  0  0  0  0  0  0  0
   -2.3140   19.6748  -29.9135 H   0  0  0  0  0  0  0  0  0  0  0  0
   -3.2103   21.3945  -31.4795 H   0  0  0  0  0  0  0  0  0  0  0  0
  1  2  1  0
  2  3  1  0
  3  4  2  0
  3  5  1  0
  5  6  2  0
  6  7  1  0
  7  8  2  0
  8  9  1  0
  9 10  2  0
  9 11  2  0
  9 12  1  0
 12 13  2  0
 13 14  1  0
 14 15  1  0
 14 16  2  0
 16 17  1  0
 17 18  2  0
 18 19  1  0
 19 20  2  0
 20 21  1  0
 21 22  2  0
 22 23  1  0
 22 24  1  0
 24 25  1  0
 24 26  2  0
  8 27  1  0
 27 28  2  0
 28  5  1  0
 18 12  1  0
 26 19  1  0
  1 29  1  0
  1 30  1  0
  1 31  1  0
  6 32  1  0
  7 33  1  0
 13 34  1  0
 15 35  1  0
 15 36  1  0
 16 37  1  0
 17 38  1  0
 20 39  1  0
 21 40  1  0
 26 41  1  0
 27 42  1  0
 28 43  1  0
M  CHG  1   2  -1
M  END
>  <UniqueID>  (26) 
26

>  <SMILES>  (26) 
C[N-]C(=O)c1ccc(S(=O)(=O)c2cc(N)ccc2-c2ccc(Cl)c(Cl)c2)cc1

>  <Energy>  (26) 
54.9943904355559

>  <Genealogy>  (26) 
C[N-]C(=O)c1ccc(S(=O)(=O)c2cc(N)ccc2-c2ccc(Cl)c(Cl)c2)cc1 (protonated)
C[N-]C(=O)c1ccc(S(=O)(=O)c2cc(N)ccc2-c2ccc(Cl)c(Cl)c2)cc1 (3D coordinates assigned)
C[N-]C(=O)c1ccc(S(=O)(=O)c2cc(N)ccc2-c2ccc(Cl)c(Cl)c2)cc1 (optimized conformer: 54.9943904355559 kcal/mol)

>  <smiles>  (26) 
CNC(=O)c1ccc(S(=O)(=O)c2cc(N)ccc2-c2ccc(Cl)c(Cl)c2)cc1

>  <score_type>  (26) 
oracle

>  <origin>  (26) 
adgpu

>  <m_score__min__energy>  (26) 
-10.08

>  <m_primary>  (26) 
energy

$$$$
26:0
     RDKit          3D

 60 63  0  0  0  0  0  0  0  0999 V2000
   -1.1480   21.9960  -26.3830 C   0  0  0  0  0  0  0  0  0  0  0  0
   -1.7530   22.8640  -27.4560 C   0  0  0  0  0  0  0  0  0  0  0  0
   -3.0060   22.4870  -27.9680 C   0  0  0  0  0  0  0  0  0  0  0  0
   -3.6510   23.2630  -28.9250 C   0  0  0  0  0  0  0  0  0  0  0  0
   -3.0750   24.4570  -29.3730 C   0  0  0  0  0  0  0  0  0  0  0  0
   -3.7090   25.2600  -30.3810 N   0  0  0  0  0  0  0  0  0  0  0  0
   -5.1200   25.4260  -30.5620 C   0  0  0  0  0  0  0  0  0  0  0  0
   -5.5670   26.4080  -31.2140 O   0  0  0  0  0  0  0  0  0  0  0  0
   -6.0100   24.4570  -30.0000 N   0  0  0  0  0  0  0  0  0  0  0  0
   -6.4140   23.2180  -30.6020 C   0  0  0  0  0  0  0  0  0  0  0  0
   -5.6000   22.5390  -31.5260 C   0  0  0  0  0  0  0  0  0  0  0  0
   -6.0190   21.3210  -32.0700 C   0  0  0  0  0  0  0  0  0  0  0  0
   -7.2450   20.7550  -31.6860 C   0  0  0  0  0  0  0  0  0  0  0  0
   -7.7810   19.2220  -32.3870 S   0  0  0  0  0  0  0  0  0  0  0  0
   -8.0140   18.2320  -31.2790 O   0  0  0  0  0  0  0  0  0  0  0  0
   -9.0890   19.4430  -33.0980 O   0  0  0  0  0  0  0  0  0  0  0  0
   -6.6270   18.5520  -33.5190 N   0  0  0  0  0  0  0  0  0  0  0  0
   -6.8900   17.1400  -33.8010 C   0  0  0  0  0  0  0  0  0  0  0  0
   -5.5610   16.5350  -34.2330 C   0  0  0  0  0  0  0  0  0  0  0  0
   -4.4950   17.4800  -33.6970 C   0  0  0  0  0  0  0  0  0  0  0  0
   -5.2580   18.6030  -33.0060 C   0  0  0  0  0  0  0  0  0  0  0  0
   -8.0510   21.4270  -30.7560 C   0  0  0  0  0  0  0  0  0  0  0  0
   -7.6290   22.6440  -30.2100 C   0  0  0  0  0  0  0  0  0  0  0  0
   -1.8220   24.8480  -28.8800 C   0  0  0  0  0  0  0  0  0  0  0  0
   -1.2700   26.0370  -29.3450 O   0  0  0  0  0  0  0  0  0  0  0  0
   -1.1360   24.0600  -27.9270 C   0  0  0  0  0  0  0  0  0  0  0  0
    0.4690   24.6080  -27.3570 S   0  0  0  0  0  0  0  0  0  0  0  0
    1.4840   24.5260  -28.4620 O   0  0  0  0  0  0  0  0  0  0  0  0
    0.9370   23.6680  -26.2790 O   0  0  0  0  0  0  0  0  0  0  0  0
    0.4720   26.2450  -26.7150 N   0  0  0  0  0  0  0  0  0  0  0  0
   -0.8740   26.8330  -26.6120 C   0  0  0  0  0  0  0  0  0  0  0  0
   -1.6240   26.3890  -25.3350 C   0  0  0  0  0  0  0  0  0  0  0  0
   -0.8150   25.6380  -24.4520 O   0  0  0  0  0  0  0  0  0  0  0  0
    0.3890   26.3270  -24.2050 C   0  0  0  0  0  0  0  0  0  0  0  0
    1.2580   26.3960  -25.4760 C   0  0  0  0  0  0  0  0  0  0  0  0
   -1.4231   22.3906  -25.3937 H   0  0  0  0  0  0  0  0  0  0  0  0
   -1.5265   20.9683  -26.4860 H   0  0  0  0  0  0  0  0  0  0  0  0
   -0.0528   21.9955  -26.4860 H   0  0  0  0  0  0  0  0  0  0  0  0
   -3.4838   21.5645  -27.6065 H   0  0  0  0  0  0  0  0  0  0  0  0
   -4.6193   22.9364  -29.3320 H   0  0  0  0  0  0  0  0  0  0  0  0
   -4.6309   22.9673  -31.8217 H   0  0  0  0  0  0  0  0  0  0  0  0
   -5.3839   20.8029  -32.8036 H   0  0  0  0  0  0  0  0  0  0  0  0
   -7.2629   16.6344  -32.8980 H   0  0  0  0  0  0  0  0  0  0  0  0
   -7.6547   17.0245  -34.5833 H   0  0  0  0  0  0  0  0  0  0  0  0
   -5.4370   15.5305  -33.8022 H   0  0  0  0  0  0  0  0  0  0  0  0
   -5.4976   16.4234  -35.3255 H   0  0  0  0  0  0  0  0  0  0  0  0
   -3.8446   16.9586  -32.9793 H   0  0  0  0  0  0  0  0  0  0  0  0
   -3.8459   17.8607  -34.4993 H   0  0  0  0  0  0  0  0  0  0  0  0
   -5.2545   18.4506  -31.9166 H   0  0  0  0  0  0  0  0  0  0  0  0
   -4.7945   19.5804  -33.2057 H   0  0  0  0  0  0  0  0  0  0  0  0
   -9.0174   20.9963  -30.4550 H   0  0  0  0  0  0  0  0  0  0  0  0
   -8.2578   23.1545  -29.4657 H   0  0  0  0  0  0  0  0  0  0  0  0
   -0.7792   27.9289  -26.6012 H   0  0  0  0  0  0  0  0  0  0  0  0
   -1.4561   26.4831  -27.4773 H   0  0  0  0  0  0  0  0  0  0  0  0
   -1.9793   27.2864  -24.8073 H   0  0  0  0  0  0  0  0  0  0  0  0
   -2.4556   25.7416  -25.6502 H   0  0  0  0  0  0  0  0  0  0  0  0
    0.1564   27.3494  -23.8726 H   0  0  0  0  0  0  0  0  0  0  0  0
    0.9485   25.7862  -23.4275 H   0  0  0  0  0  0  0  0  0  0  0  0
    1.7685   27.3701  -25.5002 H   0  0  0  0  0  0  0  0  0  0  0  0
    1.9732   25.5613  -25.4338 H   0  0  0  0  0  0  0  0  0  0  0  0
  1  2  1  0
  2  3  2  0
  3  4  1  0
  4  5  2  0
  5  6  1  0
  6  7  1  0
  7  8  2  0
  7  9  1  0
  9 10  1  0
 10 11  2  0
 11 12  1  0
 12 13  2  0
 13 14  1  0
 14 15  2  0
 14 16  2  0
 14 17  1  0
 17 18  1  0
 18 19  1  0
 19 20  1  0
 20 21  1  0
 13 22  1  0
 22 23  2  0
  5 24  1  0
 24 25  1  0
 24 26  2  0
 26 27  1  0
 27 28  2  0
 27 29  2  0
 27 30  1  0
 30 31  1  0
 31 32  1  0
 32 33  1  0
 33 34  1  0
 34 35  1  0
 26  2  1  0
 35 30  1  0
 23 10  1  0
 21 17  1  0
  1 36  1  0
  1 37  1  0
  1 38  1  0
  3 39  1  0
  4 40  1  0
 11 41  1  0
 12 42  1  0
 18 43  1  0
 18 44  1  0
 19 45  1  0
 19 46  1  0
 20 47  1  0
 20 48  1  0
 21 49  1  0
 21 50  1  0
 22 51  1  0
 23 52  1  0
 31 53  1  0
 31 54  1  0
 32 55  1  0
 32 56  1  0
 34 57  1  0
 34 58  1  0
 35 59  1  0
 35 60  1  0
M  CHG  3   6  -1   9  -1  25  -1
M  END
>  <UniqueID>  (27) 
27

>  <SMILES>  (27) 
Cc1ccc([N-]C(=O)[N-]c2ccc(S(=O)(=O)N3CCCC3)cc2)c([O-])c1S(=O)(=O)N1CCOCC1

>  <Energy>  (27) 
86.92094981791526

>  <Genealogy>  (27) 
Cc1ccc([N-]C(=O)[N-]c2ccc(S(=O)(=O)N3CCCC3)cc2)c([O-])c1S(=O)(=O)N1CCOCC1 (protonated)
Cc1ccc([N-]C(=O)[N-]c2ccc(S(=O)(=O)N3CCCC3)cc2)c([O-])c1S(=O)(=O)N1CCOCC1 (3D coordinates assigned)
Cc1ccc([N-]C(=O)[N-]c2ccc(S(=O)(=O)N3CCCC3)cc2)c([O-])c1S(=O)(=O)N1CCOCC1 (nonaromatic ring conformer: 86.92094981791526 kcal/mol)

>  <smiles>  (27) 
Cc1ccc(NC(=O)Nc2ccc(S(=O)(=O)N3CCCC3)cc2)c(O)c1S(=O)(=O)N1CCOCC1

>  <score_type>  (27) 
oracle

>  <origin>  (27) 
adgpu

>  <m_score__min__energy>  (27) 
-17.449999999999999

>  <m_primary>  (27) 
energy

$$$$
27:0
     RDKit          3D

 54 56  0  0  0  0  0  0  0  0999 V2000
   -0.1110   23.6450  -28.9710 C   0  0  0  0  0  0  0  0  0  0  0  0
   -1.0610   24.2660  -27.9970 C   0  0  0  0  0  0  0  0  0  0  0  0
   -0.6810   25.1150  -27.0210 N   0  0  0  0  0  0  0  0  0  0  0  0
   -1.7650   25.4550  -26.3420 N   0  0  0  0  0  0  0  0  0  0  0  0
   -1.7450   26.3530  -25.1930 C   0  0  0  0  0  0  0  0  0  0  0  0
   -2.8500   24.8490  -26.8730 C   0  0  0  0  0  0  0  0  0  0  0  0
   -4.2370   24.9220  -26.3060 C   0  0  0  0  0  0  0  0  0  0  0  0
   -2.4320   24.0680  -27.9390 C   0  0  0  0  0  0  0  0  0  0  0  0
   -3.2580   23.1320  -28.7810 C   0  0  0  0  0  0  0  0  0  0  0  0
   -3.1900   23.5030  -30.2620 C   0  0  0  0  0  0  0  0  0  0  0  0
   -3.5690   24.9040  -30.4470 N   0  0  0  0  0  0  0  0  0  0  0  0
   -5.2840   25.0840  -30.2450 S   0  0  0  0  0  0  0  0  0  0  0  0
   -5.7580   26.2850  -31.0170 O   0  0  0  0  0  0  0  0  0  0  0  0
   -5.5910   25.2980  -28.7900 O   0  0  0  0  0  0  0  0  0  0  0  0
   -6.1150   23.6340  -30.8020 C   0  0  0  0  0  0  0  0  0  0  0  0
   -7.0760   23.0290  -29.9830 C   0  0  0  0  0  0  0  0  0  0  0  0
   -7.6930   21.8410  -30.3830 C   0  0  0  0  0  0  0  0  0  0  0  0
   -7.3460   21.2420  -31.6020 C   0  0  0  0  0  0  0  0  0  0  0  0
   -8.0720   19.7040  -32.0710 S   0  0  0  0  0  0  0  0  0  0  0  0
   -8.7490   19.8640  -33.4050 O   0  0  0  0  0  0  0  0  0  0  0  0
   -9.1260   19.3380  -31.0630 O   0  0  0  0  0  0  0  0  0  0  0  0
   -6.8940   18.4100  -32.1680 N   0  0  0  0  0  0  0  0  0  0  0  0
   -5.5450   18.8300  -31.7320 C   0  0  0  0  0  0  0  0  0  0  0  0
   -4.5920   19.1020  -32.9080 C   0  0  0  0  0  0  0  0  0  0  0  0
   -5.3120   19.5430  -34.0360 O   0  0  0  0  0  0  0  0  0  0  0  0
   -6.0810   18.4760  -34.5550 C   0  0  0  0  0  0  0  0  0  0  0  0
   -6.9040   17.7320  -33.4780 C   0  0  0  0  0  0  0  0  0  0  0  0
   -6.3980   21.8580  -32.4300 C   0  0  0  0  0  0  0  0  0  0  0  0
   -5.7800   23.0460  -32.0290 C   0  0  0  0  0  0  0  0  0  0  0  0
    0.6872   23.1232  -28.4228 H   0  0  0  0  0  0  0  0  0  0  0  0
   -0.6522   22.9258  -29.6033 H   0  0  0  0  0  0  0  0  0  0  0  0
    0.3307   24.4293  -29.6033 H   0  0  0  0  0  0  0  0  0  0  0  0
   -1.7582   25.7619  -24.2654 H   0  0  0  0  0  0  0  0  0  0  0  0
   -0.8330   26.9672  -25.2235 H   0  0  0  0  0  0  0  0  0  0  0  0
   -2.6288   27.0072  -25.2235 H   0  0  0  0  0  0  0  0  0  0  0  0
   -4.1846   24.9192  -25.2073 H   0  0  0  0  0  0  0  0  0  0  0  0
   -4.7245   25.8470  -26.6475 H   0  0  0  0  0  0  0  0  0  0  0  0
   -4.8189   24.0532  -26.6475 H   0  0  0  0  0  0  0  0  0  0  0  0
   -2.8801   22.1071  -28.6516 H   0  0  0  0  0  0  0  0  0  0  0  0
   -4.3056   23.2073  -28.4541 H   0  0  0  0  0  0  0  0  0  0  0  0
   -2.1637   23.3523  -30.6281 H   0  0  0  0  0  0  0  0  0  0  0  0
   -3.8859   22.8642  -30.8256 H   0  0  0  0  0  0  0  0  0  0  0  0
   -7.3461   23.4904  -29.0217 H   0  0  0  0  0  0  0  0  0  0  0  0
   -8.4533   21.3743  -29.7395 H   0  0  0  0  0  0  0  0  0  0  0  0
   -5.6394   19.7504  -31.1370 H   0  0  0  0  0  0  0  0  0  0  0  0
   -5.1166   18.0043  -31.1449 H   0  0  0  0  0  0  0  0  0  0  0  0
   -3.8680   19.8767  -32.6153 H   0  0  0  0  0  0  0  0  0  0  0  0
   -4.0676   18.1694  -33.1635 H   0  0  0  0  0  0  0  0  0  0  0  0
   -6.7749   18.8797  -35.3070 H   0  0  0  0  0  0  0  0  0  0  0  0
   -5.3777   17.7485  -34.9865 H   0  0  0  0  0  0  0  0  0  0  0  0
   -7.9453   17.6558  -33.8243 H   0  0  0  0  0  0  0  0  0  0  0  0
   -6.4418   16.7436  -33.3382 H   0  0  0  0  0  0  0  0  0  0  0  0
   -6.1393   21.4053  -33.3986 H   0  0  0  0  0  0  0  0  0  0  0  0
   -5.0291   23.5203  -32.6780 H   0  0  0  0  0  0  0  0  0  0  0  0
  1  2  1  0
  2  3  2  0
  3  4  1  0
  4  5  1  0
  4  6  1  0
  6  7  1  0
  6  8  2  0
  8  9  1  0
  9 10  1  0
 10 11  1  0
 11 12  1  0
 12 13  2  0
 12 14  2  0
 12 15  1  0
 15 16  2  0
 16 17  1  0
 17 18  2  0
 18 19  1  0
 19 20  2  0
 19 21  2  0
 19 22  1  0
 22 23  1  0
 23 24  1  0
 24 25  1  0
 25 26  1  0
 26 27  1  0
 18 28  1  0
 28 29  2  0
  8  2  1  0
 29 15  1  0
 27 22  1  0
  1 30  1  0
  1 31  1  0
  1 32  1  0
  5 33  1  0
  5 34  1  0
  5 35  1  0
  7 36  1  0
  7 37  1  0
  7 38  1  0
  9 39  1  0
  9 40  1  0
 10 41  1  0
 10 42  1  0
 16 43  1  0
 17 44  1  0
 23 45  1  0
 23 46  1  0
 24 47  1  0
 24 48  1  0
 26 49  1  0
 26 50  1  0
 27 51  1  0
 27 52  1  0
 28 53  1  0
 29 54  1  0
M  CHG  1  11  -1
M  END
>  <UniqueID>  (28) 
28

>  <SMILES>  (28) 
Cc1nn(C)c(C)c1CC[N-]S(=O)(=O)c1ccc(S(=O)(=O)N2CCOCC2)cc1

>  <Energy>  (28) 
87.01193789319726

>  <Genealogy>  (28) 
Cc1nn(C)c(C)c1CC[N-]S(=O)(=O)c1ccc(S(=O)(=O)N2CCOCC2)cc1 (protonated)
Cc1nn(C)c(C)c1CC[N-]S(=O)(=O)c1ccc(S(=O)(=O)N2CCOCC2)cc1 (3D coordinates assigned)
Cc1nn(C)c(C)c1CC[N-]S(=O)(=O)c1ccc(S(=O)(=O)N2CCOCC2)cc1 (nonaromatic ring conformer: 87.01193789319726 kcal/mol)

>  <smiles>  (28) 
Cc1nn(C)c(C)c1CCNS(=O)(=O)c1ccc(S(=O)(=O)N2CCOCC2)cc1

>  <score_type>  (28) 
oracle

>  <origin>  (28) 
adgpu

>  <m_score__min__energy>  (28) 
-10.82

>  <m_primary>  (28) 
energy

$$$$
28:0
     RDKit          3D

 57 60  0  0  0  0  0  0  0  0999 V2000
   -1.5840   25.6000  -26.3710 C   0  0  0  0  0  0  0  0  0  0  0  0
   -1.2480   26.1100  -27.7380 C   0  0  0  0  0  0  0  0  0  0  0  0
   -0.4500   27.0790  -27.8490 O   0  0  0  0  0  0  0  0  0  0  0  0
   -1.8430   25.5630  -28.9220 N   0  0  0  0  0  0  0  0  0  0  0  0
   -1.7960   24.1930  -29.3540 C   0  0  0  0  0  0  0  0  0  0  0  0
   -0.5810   23.4890  -29.3710 C   0  0  0  0  0  0  0  0  0  0  0  0
   -0.5240   22.1860  -29.8710 C   0  0  0  0  0  0  0  0  0  0  0  0
   -1.6750   21.5710  -30.3760 C   0  0  0  0  0  0  0  0  0  0  0  0
   -1.6000   20.1880  -30.9560 C   0  0  0  0  0  0  0  0  0  0  0  0
   -1.5730   20.2790  -32.4110 N   0  0  0  0  0  0  0  0  0  0  0  0
   -2.5740   19.7360  -33.2820 C   0  0  0  0  0  0  0  0  0  0  0  0
   -2.2160   19.2390  -34.3820 O   0  0  0  0  0  0  0  0  0  0  0  0
   -4.0060   19.7330  -32.9270 C   0  0  0  0  0  0  0  0  0  0  0  0
   -4.8190   20.8390  -33.2190 C   0  0  0  0  0  0  0  0  0  0  0  0
   -6.1810   20.8130  -32.9110 C   0  0  0  0  0  0  0  0  0  0  0  0
   -6.7520   19.6770  -32.3210 C   0  0  0  0  0  0  0  0  0  0  0  0
   -8.4740   19.6470  -31.9300 S   0  0  0  0  0  0  0  0  0  0  0  0
   -8.8030   18.3510  -31.2450 O   0  0  0  0  0  0  0  0  0  0  0  0
   -9.2690   19.7110  -33.2030 O   0  0  0  0  0  0  0  0  0  0  0  0
   -8.9350   20.9790  -30.8910 N   0  0  0  0  0  0  0  0  0  0  0  0
   -9.8350   21.9110  -31.5860 C   0  0  0  0  0  0  0  0  0  0  0  0
   -9.0440   23.1540  -31.9760 C   0  0  0  0  0  0  0  0  0  0  0  0
   -7.6570   22.9650  -31.4000 C   0  0  0  0  0  0  0  0  0  0  0  0
   -7.7650   21.7600  -30.4820 C   0  0  0  0  0  0  0  0  0  0  0  0
   -5.9480   18.5610  -32.0510 C   0  0  0  0  0  0  0  0  0  0  0  0
   -4.5830   18.5870  -32.3560 C   0  0  0  0  0  0  0  0  0  0  0  0
   -2.8810   22.2850  -30.4040 C   0  0  0  0  0  0  0  0  0  0  0  0
   -2.9550   23.5900  -29.8910 C   0  0  0  0  0  0  0  0  0  0  0  0
   -4.2120   24.2920  -29.9190 N   0  0  0  0  0  0  0  0  0  0  0  0
   -5.2200   24.1500  -29.0360 C   0  0  0  0  0  0  0  0  0  0  0  0
   -6.2470   25.0150  -29.3550 C   0  0  0  0  0  0  0  0  0  0  0  0
   -5.8410   25.7160  -30.4720 C   0  0  0  0  0  0  0  0  0  0  0  0
   -4.5810   25.2530  -30.7930 C   0  0  0  0  0  0  0  0  0  0  0  0
   -1.1453   26.2658  -25.6132 H   0  0  0  0  0  0  0  0  0  0  0  0
   -2.6768   25.5739  -26.2477 H   0  0  0  0  0  0  0  0  0  0  0  0
   -1.1767   24.5856  -26.2477 H   0  0  0  0  0  0  0  0  0  0  0  0
    0.3325   23.9672  -28.9878 H   0  0  0  0  0  0  0  0  0  0  0  0
    0.4311   21.6403  -29.8678 H   0  0  0  0  0  0  0  0  0  0  0  0
   -0.6857   19.6895  -30.6015 H   0  0  0  0  0  0  0  0  0  0  0  0
   -2.4777   19.6060  -30.6384 H   0  0  0  0  0  0  0  0  0  0  0  0
   -4.3816   21.7303  -33.6926 H   0  0  0  0  0  0  0  0  0  0  0  0
   -6.8089   21.6886  -33.1326 H   0  0  0  0  0  0  0  0  0  0  0  0
  -10.2394   21.4309  -32.4893 H   0  0  0  0  0  0  0  0  0  0  0  0
  -10.6694   22.1894  -30.9255 H   0  0  0  0  0  0  0  0  0  0  0  0
   -8.9936   23.2468  -33.0709 H   0  0  0  0  0  0  0  0  0  0  0  0
   -9.5179   24.0695  -31.5921 H   0  0  0  0  0  0  0  0  0  0  0  0
   -6.9293   22.7740  -32.2025 H   0  0  0  0  0  0  0  0  0  0  0  0
   -7.3107   23.8601  -30.8626 H   0  0  0  0  0  0  0  0  0  0  0  0
   -6.8575   21.1442  -30.5669 H   0  0  0  0  0  0  0  0  0  0  0  0
   -7.8710   22.0858  -29.4367 H   0  0  0  0  0  0  0  0  0  0  0  0
   -6.3917   17.6622  -31.5980 H   0  0  0  0  0  0  0  0  0  0  0  0
   -3.9587   17.7057  -32.1476 H   0  0  0  0  0  0  0  0  0  0  0  0
   -3.7797   21.8176  -30.8328 H   0  0  0  0  0  0  0  0  0  0  0  0
   -5.2237   23.4495  -28.1879 H   0  0  0  0  0  0  0  0  0  0  0  0
   -7.2032   25.1243  -28.8224 H   0  0  0  0  0  0  0  0  0  0  0  0
   -6.4107   26.4927  -31.0033 H   0  0  0  0  0  0  0  0  0  0  0  0
   -3.9697   25.6125  -31.6338 H   0  0  0  0  0  0  0  0  0  0  0  0
  1  2  1  0
  2  3  2  0
  2  4  1  0
  4  5  1  0
  5  6  2  0
  6  7  1  0
  7  8  2  0
  8  9  1  0
  9 10  1  0
 10 11  1  0
 11 12  2  0
 11 13  1  0
 13 14  2  0
 14 15  1  0
 15 16  2  0
 16 17  1  0
 17 18  2  0
 17 19  2  0
 17 20  1  0
 20 21  1  0
 21 22  1  0
 22 23  1  0
 23 24  1  0
 16 25  1  0
 25 26  2  0
  8 27  1  0
 27 28  2  0
 28 29  1  0
 29 30  1  0
 30 31  2  0
 31 32  1  0
 32 33  2  0
 28  5  1  0
 33 29  1  0
 26 13  1  0
 24 20  1  0
  1 34  1  0
  1 35  1  0
  1 36  1  0
  6 37  1  0
  7 38  1  0
  9 39  1  0
  9 40  1  0
 14 41  1  0
 15 42  1  0
 21 43  1  0
 21 44  1  0
 22 45  1  0
 22 46  1  0
 23 47  1  0
 23 48  1  0
 24 49  1  0
 24 50  1  0
 25 51  1  0
 26 52  1  0
 27 53  1  0
 30 54  1  0
 31 55  1  0
 32 56  1  0
 33 57  1  0
M  CHG  2   4  -1  10  -1
M  END
>  <UniqueID>  (29) 
29

>  <SMILES>  (29) 
CC(=O)[N-]c1ccc(C[N-]C(=O)c2ccc(S(=O)(=O)N3CCCC3)cc2)cc1-n1cccc1

>  <Energy>  (29) 
97.37136640182219

>  <Genealogy>  (29) 
CC(=O)[N-]c1ccc(C[N-]C(=O)c2ccc(S(=O)(=O)N3CCCC3)cc2)cc1-n1cccc1 (protonated)
CC(=O)[N-]c1ccc(C[N-]C(=O)c2ccc(S(=O)(=O)N3CCCC3)cc2)cc1-n1cccc1 (3D coordinates assigned)
CC(=O)[N-]c1ccc(C[N-]C(=O)c2ccc(S(=O)(=O)N3CCCC3)cc2)cc1-n1cccc1 (nonaromatic ring conformer: 97.37136640182219 kcal/mol)

>  <smiles>  (29) 
CC(=O)Nc1ccc(CNC(=O)c2ccc(S(=O)(=O)N3CCCC3)cc2)cc1-n1cccc1

>  <score_type>  (29) 
oracle

>  <origin>  (29) 
adgpu

>  <m_score__min__energy>  (29) 
-11.5

>  <m_primary>  (29) 
energy

$$$$
29:0
     RDKit          3D

 57 59  0  0  0  0  0  0  0  0999 V2000
   -0.0890   18.3790  -30.3380 C   0  0  0  0  0  0  0  0  0  0  0  0
    0.9130   17.6260  -29.5720 N   0  0  0  0  0  0  0  0  0  0  0  0
    0.6870   16.1830  -29.7250 C   0  0  0  0  0  0  0  0  0  0  0  0
    0.8290   18.0650  -27.8820 S   0  0  0  0  0  0  0  0  0  0  0  0
   -0.0360   17.0720  -27.1570 O   0  0  0  0  0  0  0  0  0  0  0  0
    2.2030   18.0140  -27.2760 O   0  0  0  0  0  0  0  0  0  0  0  0
    0.1620   19.6850  -27.6680 C   0  0  0  0  0  0  0  0  0  0  0  0
   -1.0500   19.8660  -26.9880 C   0  0  0  0  0  0  0  0  0  0  0  0
   -1.6110   21.1430  -26.8790 C   0  0  0  0  0  0  0  0  0  0  0  0
   -0.9630   22.2490  -27.4440 C   0  0  0  0  0  0  0  0  0  0  0  0
   -1.7450   23.8250  -27.4360 S   0  0  0  0  0  0  0  0  0  0  0  0
   -1.0520   24.7310  -28.4150 O   0  0  0  0  0  0  0  0  0  0  0  0
   -1.6760   24.4380  -26.0650 O   0  0  0  0  0  0  0  0  0  0  0  0
   -3.3970   23.5830  -27.8930 N   0  0  0  0  0  0  0  0  0  0  0  0
   -3.8200   22.7750  -28.9970 C   0  0  0  0  0  0  0  0  0  0  0  0
   -3.3370   21.6200  -29.1480 O   0  0  0  0  0  0  0  0  0  0  0  0
   -4.8390   23.3030  -29.9410 C   0  0  0  0  0  0  0  0  0  0  0  0
   -6.0170   22.5650  -30.1700 C   0  0  0  0  0  0  0  0  0  0  0  0
   -6.9700   22.9940  -31.1010 C   0  0  0  0  0  0  0  0  0  0  0  0
   -8.4070   22.0160  -31.4120 S   0  0  0  0  0  0  0  0  0  0  0  0
   -9.0060   21.5840  -30.1020 O   0  0  0  0  0  0  0  0  0  0  0  0
   -9.4260   22.8500  -32.1380 O   0  0  0  0  0  0  0  0  0  0  0  0
   -8.0260   20.6050  -32.3760 N   0  0  0  0  0  0  0  0  0  0  0  0
   -6.5960   20.5920  -32.7800 C   0  0  0  0  0  0  0  0  0  0  0  0
   -5.7550   19.5940  -31.9690 C   0  0  0  0  0  0  0  0  0  0  0  0
   -6.3010   18.1630  -32.1140 C   0  0  0  0  0  0  0  0  0  0  0  0
   -7.8320   18.1250  -32.2960 C   0  0  0  0  0  0  0  0  0  0  0  0
   -8.4900   19.3720  -31.7000 C   0  0  0  0  0  0  0  0  0  0  0  0
   -6.7630   24.1900  -31.7960 C   0  0  0  0  0  0  0  0  0  0  0  0
   -5.6110   24.9440  -31.5680 C   0  0  0  0  0  0  0  0  0  0  0  0
   -4.6480   24.5090  -30.6530 C   0  0  0  0  0  0  0  0  0  0  0  0
   -3.5100   25.2850  -30.4640 O   0  0  0  0  0  0  0  0  0  0  0  0
    0.2550   22.0700  -28.1130 C   0  0  0  0  0  0  0  0  0  0  0  0
    0.8180   20.7950  -28.2180 C   0  0  0  0  0  0  0  0  0  0  0  0
   -0.7714   18.8919  -29.6443 H   0  0  0  0  0  0  0  0  0  0  0  0
    0.4166   19.1225  -30.9717 H   0  0  0  0  0  0  0  0  0  0  0  0
   -0.6625   17.6865  -30.9717 H   0  0  0  0  0  0  0  0  0  0  0  0
    0.6139   15.7160  -28.7318 H   0  0  0  0  0  0  0  0  0  0  0  0
   -0.2484   16.0151  -30.2789 H   0  0  0  0  0  0  0  0  0  0  0  0
    1.5263   15.7371  -30.2789 H   0  0  0  0  0  0  0  0  0  0  0  0
   -1.5615   19.0019  -26.5389 H   0  0  0  0  0  0  0  0  0  0  0  0
   -2.5645   21.2791  -26.3476 H   0  0  0  0  0  0  0  0  0  0  0  0
   -6.1908   21.6358  -29.6075 H   0  0  0  0  0  0  0  0  0  0  0  0
   -6.5343   20.3199  -33.8440 H   0  0  0  0  0  0  0  0  0  0  0  0
   -6.1901   21.5966  -32.5904 H   0  0  0  0  0  0  0  0  0  0  0  0
   -4.7169   19.6209  -32.3318 H   0  0  0  0  0  0  0  0  0  0  0  0
   -5.8013   19.8796  -30.9077 H   0  0  0  0  0  0  0  0  0  0  0  0
   -5.8307   17.6942  -32.9910 H   0  0  0  0  0  0  0  0  0  0  0  0
   -6.0634   17.6215  -31.1865 H   0  0  0  0  0  0  0  0  0  0  0  0
   -8.0648   18.0747  -33.3699 H   0  0  0  0  0  0  0  0  0  0  0  0
   -8.2237   17.2401  -31.7731 H   0  0  0  0  0  0  0  0  0  0  0  0
   -9.5809   19.2902  -31.8148 H   0  0  0  0  0  0  0  0  0  0  0  0
   -8.2121   19.4350  -30.6375 H   0  0  0  0  0  0  0  0  0  0  0  0
   -7.5105   24.5373  -32.5245 H   0  0  0  0  0  0  0  0  0  0  0  0
   -5.4597   25.8878  -32.1125 H   0  0  0  0  0  0  0  0  0  0  0  0
    0.7695   22.9351  -28.5567 H   0  0  0  0  0  0  0  0  0  0  0  0
    1.7801   20.6620  -28.7345 H   0  0  0  0  0  0  0  0  0  0  0  0
  1  2  1  0
  2  3  1  0
  2  4  1  0
  4  5  2  0
  4  6  2  0
  4  7  1  0
  7  8  2  0
  8  9  1  0
  9 10  2  0
 10 11  1  0
 11 12  2  0
 11 13  2  0
 11 14  1  0
 14 15  1  0
 15 16  2  0
 15 17  1  0
 17 18  2  0
 18 19  1  0
 19 20  1  0
 20 21  2  0
 20 22  2  0
 20 23  1  0
 23 24  1  0
 24 25  1  0
 25 26  1  0
 26 27  1  0
 27 28  1  0
 19 29  2  0
 29 30  1  0
 30 31  2  0
 31 32  1  0
 10 33  1  0
 33 34  2  0
 34  7  1  0
 31 17  1  0
 28 23  1  0
  1 35  1  0
  1 36  1  0
  1 37  1  0
  3 38  1  0
  3 39  1  0
  3 40  1  0
  8 41  1  0
  9 42  1  0
 18 43  1  0
 24 44  1  0
 24 45  1  0
 25 46  1  0
 25 47  1  0
 26 48  1  0
 26 49  1  0
 27 50  1  0
 27 51  1  0
 28 52  1  0
 28 53  1  0
 29 54  1  0
 30 55  1  0
 33 56  1  0
 34 57  1  0
M  CHG  2  14  -1  32  -1
M  END
>  <UniqueID>  (30) 
30

>  <SMILES>  (30) 
CN(C)S(=O)(=O)c1ccc(S(=O)(=O)[N-]C(=O)c2cc(S(=O)(=O)N3CCCCC3)ccc2[O-])cc1

>  <Energy>  (30) 
64.39396888723041

>  <Genealogy>  (30) 
CN(C)S(=O)(=O)c1ccc(S(=O)(=O)[N-]C(=O)c2cc(S(=O)(=O)N3CCCCC3)ccc2[O-])cc1 (protonated)
CN(C)S(=O)(=O)c1ccc(S(=O)(=O)[N-]C(=O)c2cc(S(=O)(=O)N3CCCCC3)ccc2[O-])cc1 (3D coordinates assigned)
CN(C)S(=O)(=O)c1ccc(S(=O)(=O)[N-]C(=O)c2cc(S(=O)(=O)N3CCCCC3)ccc2[O-])cc1 (nonaromatic ring conformer: 64.39396888723041 kcal/mol)

>  <smiles>  (30) 
CN(C)S(=O)(=O)c1ccc(S(=O)(=O)NC(=O)c2cc(S(=O)(=O)N3CCCCC3)ccc2O)cc1

>  <score_type>  (30) 
oracle

>  <origin>  (30) 
adgpu

>  <m_score__min__energy>  (30) 
-14.75

>  <m_primary>  (30) 
energy

$$$$
30:0
     RDKit          3D

 50 52  0  0  0  0  0  0  0  0999 V2000
    1.0060   26.0960  -26.3030 C   0  0  0  0  0  0  0  0  0  0  0  0
   -0.0840   25.2170  -26.8230 C   0  0  0  0  0  0  0  0  0  0  0  0
   -0.8960   25.6500  -27.8750 C   0  0  0  0  0  0  0  0  0  0  0  0
   -1.9160   24.8190  -28.3370 C   0  0  0  0  0  0  0  0  0  0  0  0
   -2.7520   25.2980  -29.3480 O   0  0  0  0  0  0  0  0  0  0  0  0
   -2.0880   23.5460  -27.7520 C   0  0  0  0  0  0  0  0  0  0  0  0
   -3.1180   22.5970  -28.2400 C   0  0  0  0  0  0  0  0  0  0  0  0
   -4.0190   22.2030  -27.4540 O   0  0  0  0  0  0  0  0  0  0  0  0
   -3.0730   22.0840  -29.6260 C   0  0  0  0  0  0  0  0  0  0  0  0
   -2.1230   21.0900  -29.9160 C   0  0  0  0  0  0  0  0  0  0  0  0
   -2.0120   20.5470  -31.2040 C   0  0  0  0  0  0  0  0  0  0  0  0
   -0.9930   19.4770  -31.4830 C   0  0  0  0  0  0  0  0  0  0  0  0
   -2.8570   21.0170  -32.2230 C   0  0  0  0  0  0  0  0  0  0  0  0
   -2.7630   20.3830  -33.8620 Cl  0  0  0  0  0  0  0  0  0  0  0  0
   -3.7930   22.0170  -31.9470 C   0  0  0  0  0  0  0  0  0  0  0  0
   -3.9240   22.5570  -30.6580 C   0  0  0  0  0  0  0  0  0  0  0  0
   -5.1080   23.8680  -30.4380 S   0  0  0  0  0  0  0  0  0  0  0  0
   -5.1940   24.2810  -28.9960 O   0  0  0  0  0  0  0  0  0  0  0  0
   -4.6380   25.0680  -31.2140 O   0  0  0  0  0  0  0  0  0  0  0  0
   -6.7050   23.4110  -30.9950 N   0  0  0  0  0  0  0  0  0  0  0  0
   -7.2770   22.3620  -30.1290 C   0  0  0  0  0  0  0  0  0  0  0  0
   -8.4910   21.7050  -30.8000 C   0  0  0  0  0  0  0  0  0  0  0  0
   -8.1430   21.0580  -32.0900 N   0  0  0  0  0  0  0  0  0  0  0  0
   -8.0830   19.5940  -31.9560 C   0  0  0  0  0  0  0  0  0  0  0  0
   -6.8900   21.5680  -32.6930 C   0  0  0  0  0  0  0  0  0  0  0  0
   -6.7240   23.0740  -32.4390 C   0  0  0  0  0  0  0  0  0  0  0  0
   -1.2270   23.1850  -26.6940 C   0  0  0  0  0  0  0  0  0  0  0  0
   -1.3300   22.0590  -26.1370 O   0  0  0  0  0  0  0  0  0  0  0  0
   -0.2800   24.0200  -26.2800 O   0  0  0  0  0  0  0  0  0  0  0  0
    0.9925   26.0851  -25.2031 H   0  0  0  0  0  0  0  0  0  0  0  0
    1.9779   25.7260  -26.6615 H   0  0  0  0  0  0  0  0  0  0  0  0
    0.8503   27.1242  -26.6615 H   0  0  0  0  0  0  0  0  0  0  0  0
   -0.7321   26.6362  -28.3338 H   0  0  0  0  0  0  0  0  0  0  0  0
   -3.7570   25.3560  -29.2560 H   0  0  0  0  0  0  0  0  0  0  0  0
   -1.4550   20.7317  -29.1189 H   0  0  0  0  0  0  0  0  0  0  0  0
   -0.6118   19.0767  -30.5319 H   0  0  0  0  0  0  0  0  0  0  0  0
   -1.4613   18.6664  -32.0606 H   0  0  0  0  0  0  0  0  0  0  0  0
   -0.1605   19.9052  -32.0606 H   0  0  0  0  0  0  0  0  0  0  0  0
   -4.4398   22.3883  -32.7556 H   0  0  0  0  0  0  0  0  0  0  0  0
   -6.5118   21.5953  -29.9374 H   0  0  0  0  0  0  0  0  0  0  0  0
   -7.6019   22.8224  -29.1843 H   0  0  0  0  0  0  0  0  0  0  0  0
   -8.9000   20.9422  -30.1212 H   0  0  0  0  0  0  0  0  0  0  0  0
   -9.2273   22.4951  -31.0088 H   0  0  0  0  0  0  0  0  0  0  0  0
   -8.0719   19.3235  -30.8898 H   0  0  0  0  0  0  0  0  0  0  0  0
   -8.9635   19.1452  -32.4390 H   0  0  0  0  0  0  0  0  0  0  0  0
   -7.1687   19.2188  -32.4390 H   0  0  0  0  0  0  0  0  0  0  0  0
   -6.0359   21.0334  -32.2517 H   0  0  0  0  0  0  0  0  0  0  0  0
   -6.9330   21.4007  -33.7793 H   0  0  0  0  0  0  0  0  0  0  0  0
   -5.7770   23.4049  -32.8903 H   0  0  0  0  0  0  0  0  0  0  0  0
   -7.5885   23.5845  -32.8885 H   0  0  0  0  0  0  0  0  0  0  0  0
  1  2  1  0
  2  3  2  0
  3  4  1  0
  4  5  1  0
  4  6  2  0
  6  7  1  0
  7  8  2  0
  7  9  1  0
  9 10  2  0
 10 11  1  0
 11 12  1  0
 11 13  2  0
 13 14  1  0
 13 15  1  0
 15 16  2  0
 16 17  1  0
 17 18  2  0
 17 19  2  0
 17 20  1  0
 20 21  1  0
 21 22  1  0
 22 23  1  0
 23 24  1  0
 23 25  1  0
 25 26  1  0
  6 27  1  0
 27 28  2  0
 27 29  1  0
 29  2  1  0
 16  9  1  0
 26 20  1  0
  1 30  1  0
  1 31  1  0
  1 32  1  0
  3 33  1  0
  5 34  1  0
 10 35  1  0
 12 36  1  0
 12 37  1  0
 12 38  1  0
 15 39  1  0
 21 40  1  0
 21 41  1  0
 22 42  1  0
 22 43  1  0
 24 44  1  0
 24 45  1  0
 24 46  1  0
 25 47  1  0
 25 48  1  0
 26 49  1  0
 26 50  1  0
M  END
>  <UniqueID>  (31) 
31

>  <SMILES>  (31) 
Cc1cc(O)c(C(=O)c2cc(C)c(Cl)cc2S(=O)(=O)N2CCN(C)CC2)c(=O)o1

>  <Energy>  (31) 
77.13748830458228

>  <Genealogy>  (31) 
Cc1cc(O)c(C(=O)c2cc(C)c(Cl)cc2S(=O)(=O)N2CCN(C)CC2)c(=O)o1 (3D coordinates assigned)
Cc1cc(O)c(C(=O)c2cc(C)c(Cl)cc2S(=O)(=O)N2CCN(C)CC2)c(=O)o1 (nonaromatic ring conformer: 77.13748830458228 kcal/mol)

>  <smiles>  (31) 
Cc1cc(O)c(C(=O)c2cc(C)c(Cl)cc2S(=O)(=O)N2CCN(C)CC2)c(=O)o1

>  <score_type>  (31) 
oracle

>  <origin>  (31) 
adgpu

>  <m_score__min__energy>  (31) 
-9.3100000000000005

>  <m_primary>  (31) 
energy

$$$$
31:0
     RDKit          3D

 60 64  0  0  0  0  0  0  0  0999 V2000
    1.0200   18.5970  -30.6710 C   0  0  0  0  0  0  0  0  0  0  0  0
   -0.0920   19.2850  -29.9440 C   0  0  0  0  0  0  0  0  0  0  0  0
   -0.4470   18.9450  -28.6800 N   0  0  0  0  0  0  0  0  0  0  0  0
   -1.4390   19.7370  -28.3010 N   0  0  0  0  0  0  0  0  0  0  0  0
   -2.1500   19.6120  -27.0370 C   0  0  0  0  0  0  0  0  0  0  0  0
   -1.7240   20.5700  -29.3100 C   0  0  0  0  0  0  0  0  0  0  0  0
   -2.7320   21.4680  -29.3450 N   0  0  0  0  0  0  0  0  0  0  0  0
   -2.9460   22.2070  -30.4750 C   0  0  0  0  0  0  0  0  0  0  0  0
   -4.0860   23.1610  -30.5030 C   0  0  0  0  0  0  0  0  0  0  0  0
   -4.2960   24.0250  -29.4120 C   0  0  0  0  0  0  0  0  0  0  0  0
   -5.3780   24.9100  -29.4070 C   0  0  0  0  0  0  0  0  0  0  0  0
   -6.2580   24.9520  -30.4900 C   0  0  0  0  0  0  0  0  0  0  0  0
   -6.0660   24.0990  -31.5760 C   0  0  0  0  0  0  0  0  0  0  0  0
   -4.9930   23.2000  -31.5840 C   0  0  0  0  0  0  0  0  0  0  0  0
   -2.0920   22.0300  -31.5970 C   0  0  0  0  0  0  0  0  0  0  0  0
   -1.0530   21.0750  -31.5690 C   0  0  0  0  0  0  0  0  0  0  0  0
   -0.1670   20.7240  -33.0580 S   0  0  0  0  0  0  0  0  0  0  0  0
    1.2750   20.4220  -32.7610 O   0  0  0  0  0  0  0  0  0  0  0  0
   -0.2120   21.9070  -33.9900 O   0  0  0  0  0  0  0  0  0  0  0  0
   -0.9300   19.3610  -33.8070 N   0  0  0  0  0  0  0  0  0  0  0  0
   -2.3230   19.0950  -33.6120 C   0  0  0  0  0  0  0  0  0  0  0  0
   -3.2840   20.1090  -33.7810 C   0  0  0  0  0  0  0  0  0  0  0  0
   -4.6320   19.8490  -33.5280 C   0  0  0  0  0  0  0  0  0  0  0  0
   -5.0350   18.5730  -33.0950 C   0  0  0  0  0  0  0  0  0  0  0  0
   -6.7380   18.2560  -32.7510 S   0  0  0  0  0  0  0  0  0  0  0  0
   -6.8730   17.7640  -31.3320 O   0  0  0  0  0  0  0  0  0  0  0  0
   -7.2340   17.1680  -33.6720 O   0  0  0  0  0  0  0  0  0  0  0  0
   -7.7150   19.6960  -32.9560 N   0  0  0  0  0  0  0  0  0  0  0  0
   -9.1150   19.4270  -32.5670 C   0  0  0  0  0  0  0  0  0  0  0  0
   -9.8610   20.7480  -32.2980 C   0  0  0  0  0  0  0  0  0  0  0  0
   -9.2900   21.5430  -31.2630 O   0  0  0  0  0  0  0  0  0  0  0  0
   -7.9270   21.2360  -30.9910 C   0  0  0  0  0  0  0  0  0  0  0  0
   -7.1300   20.8630  -32.2550 C   0  0  0  0  0  0  0  0  0  0  0  0
   -4.0730   17.5510  -32.9330 C   0  0  0  0  0  0  0  0  0  0  0  0
   -2.7270   17.8110  -33.2040 C   0  0  0  0  0  0  0  0  0  0  0  0
   -0.9010   20.3380  -30.3780 C   0  0  0  0  0  0  0  0  0  0  0  0
    1.7211   18.1632  -29.9427 H   0  0  0  0  0  0  0  0  0  0  0  0
    0.6057   17.7972  -31.3024 H   0  0  0  0  0  0  0  0  0  0  0  0
    1.5508   19.3247  -31.3024 H   0  0  0  0  0  0  0  0  0  0  0  0
   -1.4421   19.7364  -26.2043 H   0  0  0  0  0  0  0  0  0  0  0  0
   -2.9281   20.3871  -26.9758 H   0  0  0  0  0  0  0  0  0  0  0  0
   -2.6171   18.6180  -26.9758 H   0  0  0  0  0  0  0  0  0  0  0  0
   -3.6039   24.0037  -28.5573 H   0  0  0  0  0  0  0  0  0  0  0  0
   -5.5367   25.5761  -28.5461 H   0  0  0  0  0  0  0  0  0  0  0  0
   -7.1020   25.6574  -30.4865 H   0  0  0  0  0  0  0  0  0  0  0  0
   -6.7597   24.1325  -32.4290 H   0  0  0  0  0  0  0  0  0  0  0  0
   -4.8558   22.5200  -32.4377 H   0  0  0  0  0  0  0  0  0  0  0  0
   -2.2423   22.6440  -32.4972 H   0  0  0  0  0  0  0  0  0  0  0  0
   -2.9719   21.1100  -34.1136 H   0  0  0  0  0  0  0  0  0  0  0  0
   -5.3801   20.6433  -33.6675 H   0  0  0  0  0  0  0  0  0  0  0  0
   -9.6195   18.8850  -33.3805 H   0  0  0  0  0  0  0  0  0  0  0  0
   -9.1201   18.8210  -31.6490 H   0  0  0  0  0  0  0  0  0  0  0  0
   -9.8612   21.3387  -33.2259 H   0  0  0  0  0  0  0  0  0  0  0  0
  -10.8733   20.4760  -31.9644 H   0  0  0  0  0  0  0  0  0  0  0  0
   -7.4559   22.1146  -30.5262 H   0  0  0  0  0  0  0  0  0  0  0  0
   -7.9136   20.3616  -30.3238 H   0  0  0  0  0  0  0  0  0  0  0  0
   -7.1271   21.7238  -32.9399 H   0  0  0  0  0  0  0  0  0  0  0  0
   -6.1084   20.5967  -31.9462 H   0  0  0  0  0  0  0  0  0  0  0  0
   -4.3832   16.5516  -32.5939 H   0  0  0  0  0  0  0  0  0  0  0  0
   -1.9814   17.0093  -33.0979 H   0  0  0  0  0  0  0  0  0  0  0  0
  1  2  1  0
  2  3  2  0
  3  4  1  0
  4  5  1  0
  4  6  1  0
  6  7  2  0
  7  8  1  0
  8  9  1  0
  9 10  2  0
 10 11  1  0
 11 12  2  0
 12 13  1  0
 13 14  2  0
  8 15  2  0
 15 16  1  0
 16 17  1  0
 17 18  2  0
 17 19  2  0
 17 20  1  0
 20 21  1  0
 21 22  2  0
 22 23  1  0
 23 24  2  0
 24 25  1  0
 25 26  2  0
 25 27  2  0
 25 28  1  0
 28 29  1  0
 29 30  1  0
 30 31  1  0
 31 32  1  0
 32 33  1  0
 24 34  1  0
 34 35  2  0
 16 36  2  0
 36  2  1  0
 36  6  1  0
 14  9  1  0
 35 21  1  0
 33 28  1  0
  1 37  1  0
  1 38  1  0
  1 39  1  0
  5 40  1  0
  5 41  1  0
  5 42  1  0
 10 43  1  0
 11 44  1  0
 12 45  1  0
 13 46  1  0
 14 47  1  0
 15 48  1  0
 22 49  1  0
 23 50  1  0
 29 51  1  0
 29 52  1  0
 30 53  1  0
 30 54  1  0
 32 55  1  0
 32 56  1  0
 33 57  1  0
 33 58  1  0
 34 59  1  0
 35 60  1  0
M  CHG  1  20  -1
M  END
>  <UniqueID>  (32) 
32

>  <SMILES>  (32) 
Cc1nn(C)c2nc(-c3ccccc3)cc(S(=O)(=O)[N-]c3ccc(S(=O)(=O)N4CCOCC4)cc3)c12

>  <Energy>  (32) 
129.14202390770103

>  <Genealogy>  (32) 
Cc1nn(C)c2nc(-c3ccccc3)cc(S(=O)(=O)[N-]c3ccc(S(=O)(=O)N4CCOCC4)cc3)c12 (protonated)
Cc1nn(C)c2nc(-c3ccccc3)cc(S(=O)(=O)[N-]c3ccc(S(=O)(=O)N4CCOCC4)cc3)c12 (3D coordinates assigned)
Cc1nn(C)c2nc(-c3ccccc3)cc(S(=O)(=O)[N-]c3ccc(S(=O)(=O)N4CCOCC4)cc3)c12 (nonaromatic ring conformer: 129.14202390770103 kcal/mol)

>  <smiles>  (32) 
Cc1nn(C)c2nc(-c3ccccc3)cc(S(=O)(=O)Nc3ccc(S(=O)(=O)N4CCOCC4)cc3)c12

>  <score_type>  (32) 
oracle

>  <origin>  (32) 
adgpu

>  <m_score__min__energy>  (32) 
-12.640000000000001

>  <m_primary>  (32) 
energy

$$$$
32:0
     RDKit          3D

 44 46  0  0  0  0  0  0  0  0999 V2000
   -5.4820   26.1940  -30.7800 O   0  0  0  0  0  0  0  0  0  0  0  0
   -4.9460   25.0570  -30.7220 C   0  0  0  0  0  0  0  0  0  0  0  0
   -3.5290   24.9780  -30.5090 N   0  0  0  0  0  0  0  0  0  0  0  0
   -2.8680   24.2950  -29.4320 C   0  0  0  0  0  0  0  0  0  0  0  0
   -3.3700   23.0890  -28.9100 C   0  0  0  0  0  0  0  0  0  0  0  0
   -2.7070   22.4460  -27.8610 C   0  0  0  0  0  0  0  0  0  0  0  0
   -1.5510   23.0090  -27.3130 C   0  0  0  0  0  0  0  0  0  0  0  0
   -1.0610   24.2200  -27.8100 C   0  0  0  0  0  0  0  0  0  0  0  0
   -1.7190   24.8660  -28.8620 C   0  0  0  0  0  0  0  0  0  0  0  0
   -1.2230   26.0710  -29.3460 O   0  0  0  0  0  0  0  0  0  0  0  0
   -5.7740   23.8450  -30.9440 C   0  0  0  0  0  0  0  0  0  0  0  0
   -5.3170   22.8340  -31.8080 C   0  0  0  0  0  0  0  0  0  0  0  0
   -6.0790   21.6800  -32.0260 C   0  0  0  0  0  0  0  0  0  0  0  0
   -5.4690   20.4100  -33.0840 S   0  0  0  0  0  0  0  0  0  0  0  0
   -6.4760   20.1750  -34.1750 O   0  0  0  0  0  0  0  0  0  0  0  0
   -4.1670   20.8490  -33.6950 O   0  0  0  0  0  0  0  0  0  0  0  0
   -5.2290   18.9440  -32.1560 N   0  0  0  0  0  0  0  0  0  0  0  0
   -6.4670   18.5180  -31.4730 C   0  0  0  0  0  0  0  0  0  0  0  0
   -7.4940   17.8890  -32.4320 C   0  0  0  0  0  0  0  0  0  0  0  0
   -6.8530   16.9850  -33.5000 C   0  0  0  0  0  0  0  0  0  0  0  0
   -5.4130   16.6150  -33.1470 C   0  0  0  0  0  0  0  0  0  0  0  0
   -4.5630   17.8830  -32.9540 C   0  0  0  0  0  0  0  0  0  0  0  0
   -7.3140   21.5340  -31.3840 C   0  0  0  0  0  0  0  0  0  0  0  0
   -7.7870   22.5380  -30.5370 C   0  0  0  0  0  0  0  0  0  0  0  0
   -7.0250   23.6930  -30.3110 C   0  0  0  0  0  0  0  0  0  0  0  0
   -7.5030   24.6790  -29.4460 O   0  0  0  0  0  0  0  0  0  0  0  0
   -4.2877   22.6504  -29.3289 H   0  0  0  0  0  0  0  0  0  0  0  0
   -3.0955   21.4956  -27.4662 H   0  0  0  0  0  0  0  0  0  0  0  0
   -1.0271   22.4993  -26.4910 H   0  0  0  0  0  0  0  0  0  0  0  0
   -0.1556   24.6662  -27.3728 H   0  0  0  0  0  0  0  0  0  0  0  0
   -4.3497   22.9512  -32.3184 H   0  0  0  0  0  0  0  0  0  0  0  0
   -6.2060   17.7770  -30.7031 H   0  0  0  0  0  0  0  0  0  0  0  0
   -6.9292   19.4159  -31.0369 H   0  0  0  0  0  0  0  0  0  0  0  0
   -8.1998   17.2862  -31.8417 H   0  0  0  0  0  0  0  0  0  0  0  0
   -7.9953   18.7135  -32.9601 H   0  0  0  0  0  0  0  0  0  0  0  0
   -7.4457   16.0624  -33.5867 H   0  0  0  0  0  0  0  0  0  0  0  0
   -6.8384   17.5391  -34.4501 H   0  0  0  0  0  0  0  0  0  0  0  0
   -5.4074   16.0301  -32.2154 H   0  0  0  0  0  0  0  0  0  0  0  0
   -4.9861   16.0221  -33.9693 H   0  0  0  0  0  0  0  0  0  0  0  0
   -3.6312   17.5997  -32.4426 H   0  0  0  0  0  0  0  0  0  0  0  0
   -4.3874   18.3026  -33.9556 H   0  0  0  0  0  0  0  0  0  0  0  0
   -7.9133   20.6262  -31.5471 H   0  0  0  0  0  0  0  0  0  0  0  0
   -8.7635   22.4222  -30.0440 H   0  0  0  0  0  0  0  0  0  0  0  0
   -6.9890   25.5350  -29.2800 H   0  0  0  0  0  0  0  0  0  0  0  0
  1  2  2  0
  2  3  1  0
  3  4  1  0
  4  5  2  0
  5  6  1  0
  6  7  2  0
  7  8  1  0
  8  9  2  0
  9 10  1  0
  2 11  1  0
 11 12  2  0
 12 13  1  0
 13 14  1  0
 14 15  2  0
 14 16  2  0
 14 17  1  0
 17 18  1  0
 18 19  1  0
 19 20  1  0
 20 21  1  0
 21 22  1  0
 13 23  2  0
 23 24  1  0
 24 25  2  0
 25 26  1  0
  9  4  1  0
 25 11  1  0
 22 17  1  0
  5 27  1  0
  6 28  1  0
  7 29  1  0
  8 30  1  0
 12 31  1  0
 18 32  1  0
 18 33  1  0
 19 34  1  0
 19 35  1  0
 20 36  1  0
 20 37  1  0
 21 38  1  0
 21 39  1  0
 22 40  1  0
 22 41  1  0
 23 42  1  0
 24 43  1  0
 26 44  1  0
M  CHG  2   3  -1  10  -1
M  END
>  <UniqueID>  (33) 
33

>  <SMILES>  (33) 
O=C([N-]c1ccccc1[O-])c1cc(S(=O)(=O)N2CCCCC2)ccc1O

>  <Energy>  (33) 
59.62339548183124

>  <Genealogy>  (33) 
O=C([N-]c1ccccc1[O-])c1cc(S(=O)(=O)N2CCCCC2)ccc1O (protonated)
O=C([N-]c1ccccc1[O-])c1cc(S(=O)(=O)N2CCCCC2)ccc1O (3D coordinates assigned)
O=C([N-]c1ccccc1[O-])c1cc(S(=O)(=O)N2CCCCC2)ccc1O (nonaromatic ring conformer: 59.62339548183124 kcal/mol)

>  <smiles>  (33) 
O=C(Nc1ccccc1O)c1cc(S(=O)(=O)N2CCCCC2)ccc1O

>  <score_type>  (33) 
oracle

>  <origin>  (33) 
adgpu

>  <m_score__min__energy>  (33) 
-13.58

>  <m_primary>  (33) 
energy

$$$$
33:0
     RDKit          3D

 60 64  0  0  0  0  0  0  0  0999 V2000
   -0.2260   18.3180  -27.8420 C   0  0  0  0  0  0  0  0  0  0  0  0
   -0.6260   19.6330  -28.4480 C   0  0  0  0  0  0  0  0  0  0  0  0
    0.0040   20.2710  -29.5060 C   0  0  0  0  0  0  0  0  0  0  0  0
    1.1670   19.8310  -30.2150 N   0  0  0  0  0  0  0  0  0  0  0  0
    1.0560   19.3290  -31.8690 S   0  0  0  0  0  0  0  0  0  0  0  0
    1.2960   17.8480  -31.9540 O   0  0  0  0  0  0  0  0  0  0  0  0
    2.0970   20.0250  -32.6970 O   0  0  0  0  0  0  0  0  0  0  0  0
   -0.5600   19.6960  -32.4680 C   0  0  0  0  0  0  0  0  0  0  0  0
   -1.6540   18.9300  -32.0470 C   0  0  0  0  0  0  0  0  0  0  0  0
   -2.9470   19.2630  -32.4630 C   0  0  0  0  0  0  0  0  0  0  0  0
   -3.1620   20.3780  -33.2960 C   0  0  0  0  0  0  0  0  0  0  0  0
   -4.4850   20.7630  -33.7120 N   0  0  0  0  0  0  0  0  0  0  0  0
   -5.6580   20.0030  -33.3930 C   0  0  0  0  0  0  0  0  0  0  0  0
   -5.7540   18.6570  -33.7910 C   0  0  0  0  0  0  0  0  0  0  0  0
   -4.6990   18.0330  -34.5390 N   0  0  0  0  0  0  0  0  0  0  0  0
   -6.9180   17.9400  -33.4610 C   0  0  0  0  0  0  0  0  0  0  0  0
   -7.0430   16.7340  -33.8050 O   0  0  0  0  0  0  0  0  0  0  0  0
   -7.9030   18.5240  -32.7860 O   0  0  0  0  0  0  0  0  0  0  0  0
   -7.8520   19.7910  -32.3890 C   0  0  0  0  0  0  0  0  0  0  0  0
   -8.9280   20.3350  -31.6790 C   0  0  0  0  0  0  0  0  0  0  0  0
   -8.8840   21.6640  -31.2470 C   0  0  0  0  0  0  0  0  0  0  0  0
   -7.7640   22.4530  -31.5200 C   0  0  0  0  0  0  0  0  0  0  0  0
   -6.6840   21.9210  -32.2290 C   0  0  0  0  0  0  0  0  0  0  0  0
   -6.7190   20.5850  -32.6740 C   0  0  0  0  0  0  0  0  0  0  0  0
   -2.0600   21.1430  -33.7100 C   0  0  0  0  0  0  0  0  0  0  0  0
   -0.7670   20.8020  -33.3040 C   0  0  0  0  0  0  0  0  0  0  0  0
   -0.7910   21.3600  -29.7920 C   0  0  0  0  0  0  0  0  0  0  0  0
   -0.5600   22.2380  -30.6670 O   0  0  0  0  0  0  0  0  0  0  0  0
   -1.8540   21.3720  -28.9610 N   0  0  0  0  0  0  0  0  0  0  0  0
   -2.9030   22.3580  -28.9570 C   0  0  0  0  0  0  0  0  0  0  0  0
   -3.6770   22.5700  -30.1110 C   0  0  0  0  0  0  0  0  0  0  0  0
   -4.6800   23.5470  -30.1190 C   0  0  0  0  0  0  0  0  0  0  0  0
   -4.9120   24.3190  -28.9780 C   0  0  0  0  0  0  0  0  0  0  0  0
   -4.1410   24.1170  -27.8270 C   0  0  0  0  0  0  0  0  0  0  0  0
   -3.1370   23.1440  -27.8170 C   0  0  0  0  0  0  0  0  0  0  0  0
   -1.7670   20.3100  -28.1590 N   0  0  0  0  0  0  0  0  0  0  0  0
   -2.7680   19.9150  -27.1640 C   0  0  0  0  0  0  0  0  0  0  0  0
   -0.2501   18.3973  -26.7451 H   0  0  0  0  0  0  0  0  0  0  0  0
   -0.9268   17.5355  -28.1686 H   0  0  0  0  0  0  0  0  0  0  0  0
    0.7918   18.0583  -28.1686 H   0  0  0  0  0  0  0  0  0  0  0  0
    2.0000   19.5130  -29.6740 H   0  0  0  0  0  0  0  0  0  0  0  0
   -1.4960   18.0641  -31.3873 H   0  0  0  0  0  0  0  0  0  0  0  0
   -3.8009   18.6506  -32.1377 H   0  0  0  0  0  0  0  0  0  0  0  0
   -4.6180   21.6660  -34.2240 H   0  0  0  0  0  0  0  0  0  0  0  0
   -3.8690   18.5770  -34.8630 H   0  0  0  0  0  0  0  0  0  0  0  0
   -4.7570   17.0300  -34.8220 H   0  0  0  0  0  0  0  0  0  0  0  0
   -9.8104   19.7157  -31.4602 H   0  0  0  0  0  0  0  0  0  0  0  0
   -9.7328   22.0890  -30.6912 H   0  0  0  0  0  0  0  0  0  0  0  0
   -7.7322   23.4972  -31.1754 H   0  0  0  0  0  0  0  0  0  0  0  0
   -5.8044   22.5469  -32.4402 H   0  0  0  0  0  0  0  0  0  0  0  0
   -2.2155   22.0175  -34.3589 H   0  0  0  0  0  0  0  0  0  0  0  0
    0.0904   21.4029  -33.6413 H   0  0  0  0  0  0  0  0  0  0  0  0
   -3.4940   21.9657  -31.0118 H   0  0  0  0  0  0  0  0  0  0  0  0
   -5.2852   23.7066  -31.0236 H   0  0  0  0  0  0  0  0  0  0  0  0
   -5.7007   25.0858  -28.9839 H   0  0  0  0  0  0  0  0  0  0  0  0
   -4.3254   24.7249  -26.9290 H   0  0  0  0  0  0  0  0  0  0  0  0
   -2.5284   22.9937  -26.9131 H   0  0  0  0  0  0  0  0  0  0  0  0
   -2.3635   20.0746  -26.1536 H   0  0  0  0  0  0  0  0  0  0  0  0
   -3.6756   20.5224  -27.2958 H   0  0  0  0  0  0  0  0  0  0  0  0
   -3.0162   18.8515  -27.2958 H   0  0  0  0  0  0  0  0  0  0  0  0
  1  2  1  0
  2  3  2  0
  3  4  1  0
  4  5  1  0
  5  6  2  0
  5  7  2  0
  5  8  1  0
  8  9  2  0
  9 10  1  0
 10 11  2  0
 11 12  1  0
 12 13  1  0
 13 14  2  0
 14 15  1  0
 14 16  1  0
 16 17  2  0
 16 18  1  0
 18 19  1  0
 19 20  2  0
 20 21  1  0
 21 22  2  0
 22 23  1  0
 23 24  2  0
 11 25  1  0
 25 26  2  0
  3 27  1  0
 27 28  2  0
 27 29  1  0
 29 30  1  0
 30 31  2  0
 31 32  1  0
 32 33  2  0
 33 34  1  0
 34 35  2  0
 29 36  1  0
 36 37  1  0
 36  2  1  0
 26  8  1  0
 35 30  1  0
 24 13  1  0
 24 19  1  0
  1 38  1  0
  1 39  1  0
  1 40  1  0
  4 41  1  0
  9 42  1  0
 10 43  1  0
 12 44  1  0
 15 45  1  0
 15 46  1  0
 20 47  1  0
 21 48  1  0
 22 49  1  0
 23 50  1  0
 25 51  1  0
 26 52  1  0
 31 53  1  0
 32 54  1  0
 33 55  1  0
 34 56  1  0
 35 57  1  0
 37 58  1  0
 37 59  1  0
 37 60  1  0
M  END
>  <UniqueID>  (34) 
34

>  <SMILES>  (34) 
Cc1c(NS(=O)(=O)c2ccc(Nc3c(N)c(=O)oc4ccccc34)cc2)c(=O)n(-c2ccccc2)n1C

>  <Energy>  (34) 
124.20496172717297

>  <Genealogy>  (34) 
Cc1c(NS(=O)(=O)c2ccc(Nc3c(N)c(=O)oc4ccccc34)cc2)c(=O)n(-c2ccccc2)n1C (3D coordinates assigned)
Cc1c(NS(=O)(=O)c2ccc(Nc3c(N)c(=O)oc4ccccc34)cc2)c(=O)n(-c2ccccc2)n1C (optimized conformer: 124.20496172717297 kcal/mol)

>  <smiles>  (34) 
Cc1c(NS(=O)(=O)c2ccc(Nc3c(N)c(=O)oc4ccccc34)cc2)c(=O)n(-c2ccccc2)n1C

>  <score_type>  (34) 
oracle

>  <origin>  (34) 
adgpu

>  <m_score__min__energy>  (34) 
-10.470000000000001

>  <m_primary>  (34) 
energy

$$$$
34:0
     RDKit          3D

 61 64  0  0  0  0  0  0  0  0999 V2000
   -1.2620   22.0990  -25.9050 C   0  0  0  0  0  0  0  0  0  0  0  0
   -1.7870   22.8780  -27.0860 C   0  0  0  0  0  0  0  0  0  0  0  0
   -3.0980   22.6130  -27.5080 C   0  0  0  0  0  0  0  0  0  0  0  0
   -3.6690   23.3250  -28.5560 C   0  0  0  0  0  0  0  0  0  0  0  0
   -2.9640   24.3460  -29.1880 C   0  0  0  0  0  0  0  0  0  0  0  0
   -3.6080   25.0240  -30.2760 N   0  0  0  0  0  0  0  0  0  0  0  0
   -4.9020   24.7300  -30.8140 C   0  0  0  0  0  0  0  0  0  0  0  0
   -5.7610   25.6490  -30.8670 O   0  0  0  0  0  0  0  0  0  0  0  0
   -5.2160   23.4190  -31.3040 N   0  0  0  0  0  0  0  0  0  0  0  0
   -4.2620   22.5200  -31.8830 C   0  0  0  0  0  0  0  0  0  0  0  0
   -4.5930   21.7250  -32.9910 C   0  0  0  0  0  0  0  0  0  0  0  0
   -3.6440   20.8600  -33.5400 C   0  0  0  0  0  0  0  0  0  0  0  0
   -2.3640   20.7830  -32.9900 C   0  0  0  0  0  0  0  0  0  0  0  0
   -2.0270   21.5570  -31.8710 C   0  0  0  0  0  0  0  0  0  0  0  0
   -0.3910   21.4870  -31.2030 S   0  0  0  0  0  0  0  0  0  0  0  0
   -0.1150   22.7520  -30.4400 O   0  0  0  0  0  0  0  0  0  0  0  0
    0.5980   21.4050  -32.3350 O   0  0  0  0  0  0  0  0  0  0  0  0
   -0.1570   20.1090  -30.1490 N   0  0  0  0  0  0  0  0  0  0  0  0
    0.7030   20.4470  -29.0040 C   0  0  0  0  0  0  0  0  0  0  0  0
    0.0400   19.8910  -27.7570 C   0  0  0  0  0  0  0  0  0  0  0  0
   -1.4250   19.8620  -28.1090 C   0  0  0  0  0  0  0  0  0  0  0  0
   -1.4310   19.6130  -29.6070 C   0  0  0  0  0  0  0  0  0  0  0  0
   -2.9840   22.4210  -31.3180 C   0  0  0  0  0  0  0  0  0  0  0  0
   -1.6780   24.6990  -28.7180 C   0  0  0  0  0  0  0  0  0  0  0  0
   -1.0440   25.8530  -29.1820 O   0  0  0  0  0  0  0  0  0  0  0  0
   -1.0440   23.9130  -27.7240 C   0  0  0  0  0  0  0  0  0  0  0  0
    0.6740   24.2310  -27.3340 S   0  0  0  0  0  0  0  0  0  0  0  0
    1.2940   23.0000  -26.7360 O   0  0  0  0  0  0  0  0  0  0  0  0
    1.4590   24.5490  -28.5740 O   0  0  0  0  0  0  0  0  0  0  0  0
    0.8400   25.5620  -26.2060 N   0  0  0  0  0  0  0  0  0  0  0  0
   -0.1140   25.4690  -25.0780 C   0  0  0  0  0  0  0  0  0  0  0  0
   -1.2430   26.5140  -25.1830 C   0  0  0  0  0  0  0  0  0  0  0  0
   -0.7730   27.8540  -25.2550 O   0  0  0  0  0  0  0  0  0  0  0  0
    0.4820   27.9870  -25.9100 C   0  0  0  0  0  0  0  0  0  0  0  0
    0.7780   26.8570  -26.9050 C   0  0  0  0  0  0  0  0  0  0  0  0
   -1.5880   22.5828  -24.9724 H   0  0  0  0  0  0  0  0  0  0  0  0
   -1.6524   21.0712  -25.9408 H   0  0  0  0  0  0  0  0  0  0  0  0
   -0.1628   22.0751  -25.9408 H   0  0  0  0  0  0  0  0  0  0  0  0
   -3.6826   21.8304  -27.0022 H   0  0  0  0  0  0  0  0  0  0  0  0
   -4.6881   23.0796  -28.8896 H   0  0  0  0  0  0  0  0  0  0  0  0
   -5.6010   21.7832  -33.4275 H   0  0  0  0  0  0  0  0  0  0  0  0
   -3.9063   20.2377  -34.4083 H   0  0  0  0  0  0  0  0  0  0  0  0
   -1.6158   20.1117  -33.4367 H   0  0  0  0  0  0  0  0  0  0  0  0
    1.6972   19.9948  -29.1344 H   0  0  0  0  0  0  0  0  0  0  0  0
    0.8301   21.5366  -28.9227 H   0  0  0  0  0  0  0  0  0  0  0  0
    0.4095   18.8789  -27.5352 H   0  0  0  0  0  0  0  0  0  0  0  0
    0.2495   20.4929  -26.8604 H   0  0  0  0  0  0  0  0  0  0  0  0
   -1.9408   19.0506  -27.5745 H   0  0  0  0  0  0  0  0  0  0  0  0
   -1.9489   20.7878  -27.8289 H   0  0  0  0  0  0  0  0  0  0  0  0
   -1.5290   18.5358  -29.8071 H   0  0  0  0  0  0  0  0  0  0  0  0
   -2.2782   20.1314  -30.0798 H   0  0  0  0  0  0  0  0  0  0  0  0
   -2.7291   23.0249  -30.4346 H   0  0  0  0  0  0  0  0  0  0  0  0
   -0.0720   26.0600  -28.9950 H   0  0  0  0  0  0  0  0  0  0  0  0
   -0.5608   24.4638  -25.0738 H   0  0  0  0  0  0  0  0  0  0  0  0
    0.4414   25.6638  -24.1487 H   0  0  0  0  0  0  0  0  0  0  0  0
   -1.8299   26.3021  -26.0889 H   0  0  0  0  0  0  0  0  0  0  0  0
   -1.8450   26.4320  -24.2660 H   0  0  0  0  0  0  0  0  0  0  0  0
    0.4900   28.9420  -26.4558 H   0  0  0  0  0  0  0  0  0  0  0  0
    1.2583   27.9435  -25.1319 H   0  0  0  0  0  0  0  0  0  0  0  0
   -0.0191   26.8226  -27.6623 H   0  0  0  0  0  0  0  0  0  0  0  0
    1.7480   27.0499  -27.3865 H   0  0  0  0  0  0  0  0  0  0  0  0
  1  2  1  0
  2  3  2  0
  3  4  1  0
  4  5  2  0
  5  6  1  0
  6  7  1  0
  7  8  2  0
  7  9  1  0
  9 10  1  0
 10 11  2  0
 11 12  1  0
 12 13  2  0
 13 14  1  0
 14 15  1  0
 15 16  2  0
 15 17  2  0
 15 18  1  0
 18 19  1  0
 19 20  1  0
 20 21  1  0
 21 22  1  0
 14 23  2  0
  5 24  1  0
 24 25  1  0
 24 26  2  0
 26 27  1  0
 27 28  2  0
 27 29  2  0
 27 30  1  0
 30 31  1  0
 31 32  1  0
 32 33  1  0
 33 34  1  0
 34 35  1  0
 26  2  1  0
 35 30  1  0
 23 10  1  0
 22 18  1  0
  1 36  1  0
  1 37  1  0
  1 38  1  0
  3 39  1  0
  4 40  1  0
 11 41  1  0
 12 42  1  0
 13 43  1  0
 19 44  1  0
 19 45  1  0
 20 46  1  0
 20 47  1  0
 21 48  1  0
 21 49  1  0
 22 50  1  0
 22 51  1  0
 23 52  1  0
 25 53  1  0
 31 54  1  0
 31 55  1  0
 32 56  1  0
 32 57  1  0
 34 58  1  0
 34 59  1  0
 35 60  1  0
 35 61  1  0
M  CHG  2   6  -1   9  -1
M  END
>  <UniqueID>  (35) 
35

>  <SMILES>  (35) 
Cc1ccc([N-]C(=O)[N-]c2cccc(S(=O)(=O)N3CCCC3)c2)c(O)c1S(=O)(=O)N1CCOCC1

>  <Energy>  (35) 
88.44945502224033

>  <Genealogy>  (35) 
Cc1ccc([N-]C(=O)[N-]c2cccc(S(=O)(=O)N3CCCC3)c2)c(O)c1S(=O)(=O)N1CCOCC1 (protonated)
Cc1ccc([N-]C(=O)[N-]c2cccc(S(=O)(=O)N3CCCC3)c2)c(O)c1S(=O)(=O)N1CCOCC1 (3D coordinates assigned)
Cc1ccc([N-]C(=O)[N-]c2cccc(S(=O)(=O)N3CCCC3)c2)c(O)c1S(=O)(=O)N1CCOCC1 (nonaromatic ring conformer: 88.44945502224033 kcal/mol)

>  <smiles>  (35) 
Cc1ccc(NC(=O)Nc2cccc(S(=O)(=O)N3CCCC3)c2)c(O)c1S(=O)(=O)N1CCOCC1

>  <score_type>  (35) 
oracle

>  <origin>  (35) 
adgpu

>  <m_score__min__energy>  (35) 
-14.19

>  <m_primary>  (35) 
energy

$$$$
35:0
     RDKit          3D

 71 74  0  0  1  0  0  0  0  0999 V2000
    1.6620   22.4620  -27.4990 C   0  0  0  0  0  0  0  0  0  0  0  0
    1.7550   23.8530  -27.7230 O   0  0  0  0  0  0  0  0  0  0  0  0
    1.8780   24.8170  -26.7420 C   0  0  0  0  0  0  0  0  0  0  0  0
    2.7540   24.7640  -25.6920 C   0  0  0  0  0  0  0  0  0  0  0  0
    2.8560   25.7450  -24.7220 C   0  0  0  0  0  0  0  0  0  0  0  0
    1.9960   26.8400  -24.8570 C   0  0  0  0  0  0  0  0  0  0  0  0
    2.1080   28.0820  -23.6530 S   0  0  0  0  0  0  0  0  0  0  0  0
    0.7700   27.9290  -22.5660 N   0  0  0  0  0  0  0  0  0  0  0  0
    3.3870   27.9770  -22.8770 O   0  0  0  0  0  0  0  0  0  0  0  0
    1.9700   29.4410  -24.3170 O   0  0  0  0  0  0  0  0  0  0  0  0
    1.1000   26.9100  -25.9190 C   0  0  0  0  0  0  0  0  0  0  0  0
    1.0380   25.9190  -26.8470 C   0  0  0  0  0  0  0  0  0  0  0  0
    0.1000   26.0300  -27.9240 N   0  0  0  0  0  0  0  0  0  0  0  0
   -0.7660   25.0760  -28.1430 C   0  0  0  0  0  0  0  0  0  0  0  0
   -0.7650   23.9890  -27.3430 N   0  0  0  0  0  0  0  0  0  0  0  0
   -1.6750   23.0350  -27.6080 C   0  0  0  0  0  0  0  0  0  0  0  0
   -2.5870   23.1080  -28.6290 C   0  0  0  0  0  0  0  0  0  0  0  0
   -3.8480   21.7440  -28.9690 Br  0  0  0  0  0  0  0  0  0  0  0  0
   -2.5610   24.2260  -29.4250 C   0  0  0  0  0  0  0  0  0  0  0  0
   -3.3500   24.4250  -30.4010 N   0  0  0  0  0  0  0  0  0  0  0  0
   -4.3710   23.5560  -30.8400 C   0  0  0  0  0  0  0  0  0  0  0  0
   -4.1590   22.5750  -31.8180 C   0  0  0  0  0  0  0  0  0  0  0  0
   -5.1550   21.7620  -32.2840 C   0  0  0  0  0  0  0  0  0  0  0  0
   -5.0270   20.7630  -33.2590 N   0  0  0  0  0  0  0  0  0  0  0  0
   -5.7960   19.5760  -33.3550 C   0  0  0  0  0  0  0  0  0  0  0  0
   -6.6940   19.3160  -32.5280 O   0  0  0  0  0  0  0  0  0  0  0  0
   -5.5750   18.5780  -34.4380 C   0  0  0  0  0  0  0  0  0  0  0  0
   -5.4510   17.2430  -34.0320 N   0  0  0  0  0  0  0  0  0  0  0  0
   -6.5780   16.3890  -34.1060 C   0  0  0  0  0  0  0  0  0  0  0  0
   -6.1470   14.9570  -34.2600 C   0  0  0  0  0  0  0  0  0  0  0  0
   -4.8170   14.6910  -33.8350 N   0  0  0  0  0  0  0  0  0  0  0  0
   -3.9780   14.1200  -34.8620 C   0  0  0  0  0  0  0  0  0  0  0  0
   -4.1730   15.5730  -32.9590 C   0  0  0  0  0  0  0  0  0  0  0  0
   -4.7290   16.9630  -32.8270 C   0  0  0  0  0  0  0  0  0  0  0  0
   -6.4170   21.9570  -31.7320 C   0  0  0  0  0  0  0  0  0  0  0  0
   -6.6830   22.9010  -30.7720 C   0  0  0  0  0  0  0  0  0  0  0  0
   -5.6550   23.7230  -30.3050 C   0  0  0  0  0  0  0  0  0  0  0  0
   -5.8790   24.6890  -29.3350 O   0  0  0  0  0  0  0  0  0  0  0  0
   -6.1360   26.0290  -29.7780 C   0  0  0  0  0  0  0  0  0  0  0  0
   -1.6440   25.1960  -29.1640 N   0  0  0  0  0  0  0  0  0  0  0  0
    1.6488   22.2649  -26.4169 H   0  0  0  0  0  0  0  0  0  0  0  0
    0.7362   22.0786  -27.9528 H   0  0  0  0  0  0  0  0  0  0  0  0
    2.5285   21.9588  -27.9528 H   0  0  0  0  0  0  0  0  0  0  0  0
    3.4165   23.8893  -25.6147 H   0  0  0  0  0  0  0  0  0  0  0  0
    3.5730   25.6683  -23.8913 H   0  0  0  0  0  0  0  0  0  0  0  0
    0.4190   28.9080  -22.4060 H   0  0  0  0  0  0  0  0  0  0  0  0
    1.1210   27.5810  -21.6430 H   0  0  0  0  0  0  0  0  0  0  0  0
    0.4324   27.7796  -26.0088 H   0  0  0  0  0  0  0  0  0  0  0  0
   -0.0740   23.9140  -26.5570 H   0  0  0  0  0  0  0  0  0  0  0  0
   -1.6884   22.1416  -26.9664 H   0  0  0  0  0  0  0  0  0  0  0  0
   -3.1460   22.4535  -32.2293 H   0  0  0  0  0  0  0  0  0  0  0  0
   -4.2890   20.8780  -33.9960 H   0  0  0  0  0  0  0  0  0  0  0  0
   -6.4269   18.6404  -35.1311 H   0  0  0  0  0  0  0  0  0  0  0  0
   -4.6060   18.8406  -34.8875 H   0  0  0  0  0  0  0  0  0  0  0  0
   -7.1703   16.4913  -33.1847 H   0  0  0  0  0  0  0  0  0  0  0  0
   -7.1821   16.6737  -34.9801 H   0  0  0  0  0  0  0  0  0  0  0  0
   -6.8286   14.3279  -33.6686 H   0  0  0  0  0  0  0  0  0  0  0  0
   -6.1807   14.7351  -35.3369 H   0  0  0  0  0  0  0  0  0  0  0  0
   -3.1551   13.5600  -34.3938 H   0  0  0  0  0  0  0  0  0  0  0  0
   -4.5752   13.4400  -35.4873 H   0  0  0  0  0  0  0  0  0  0  0  0
   -3.5645   14.9250  -35.4873 H   0  0  0  0  0  0  0  0  0  0  0  0
   -4.1940   15.1153  -31.9590 H   0  0  0  0  0  0  0  0  0  0  0  0
   -3.1736   15.7157  -33.3960 H   0  0  0  0  0  0  0  0  0  0  0  0
   -5.4045   17.0187  -31.9606 H   0  0  0  0  0  0  0  0  0  0  0  0
   -3.9222   17.6950  -32.6745 H   0  0  0  0  0  0  0  0  0  0  0  0
   -7.2439   21.3221  -32.0829 H   0  0  0  0  0  0  0  0  0  0  0  0
   -7.7019   23.0098  -30.3719 H   0  0  0  0  0  0  0  0  0  0  0  0
   -6.2620   26.6860  -28.9048 H   0  0  0  0  0  0  0  0  0  0  0  0
   -5.2895   26.3834  -30.3844 H   0  0  0  0  0  0  0  0  0  0  0  0
   -7.0536   26.0451  -30.3844 H   0  0  0  0  0  0  0  0  0  0  0  0
   -1.5990   26.0560  -29.7500 H   0  0  0  0  0  0  0  0  0  0  0  0
  1  2  1  0
  2  3  1  0
  3  4  2  0
  4  5  1  0
  5  6  2  0
  6  7  1  0
  7  8  1  0
  7  9  2  0
  7 10  2  0
  6 11  1  0
 11 12  2  0
 12 13  1  0
 13 14  2  0
 14 15  1  0
 15 16  1  0
 16 17  2  0
 17 18  1  0
 17 19  1  0
 19 20  2  0
 20 21  1  0
 21 22  2  0
 22 23  1  0
 23 24  1  0
 24 25  1  0
 25 26  2  0
 25 27  1  0
 27 28  1  0
 28 29  1  0
 29 30  1  0
 30 31  1  0
 31 32  1  0
 31 33  1  0
 33 34  1  0
 23 35  2  0
 35 36  1  0
 36 37  2  0
 37 38  1  0
 38 39  1  0
 19 40  1  0
 12  3  1  0
 40 14  1  0
 37 21  1  0
 34 28  1  0
  1 41  1  0
  1 42  1  0
  1 43  1  0
  4 44  1  0
  5 45  1  0
  8 46  1  0
  8 47  1  0
 11 48  1  0
 15 49  1  0
 16 50  1  0
 22 51  1  0
 24 52  1  0
 27 53  1  0
 27 54  1  0
 29 55  1  0
 29 56  1  0
 30 57  1  0
 30 58  1  0
 32 59  1  0
 32 60  1  0
 32 61  1  0
 33 62  1  0
 33 63  1  0
 34 64  1  0
 34 65  1  0
 35 66  1  0
 36 67  1  0
 39 68  1  0
 39 69  1  0
 39 70  1  0
 40 71  1  0
M  END
>  <smiles>  (36) 
COc1ccc(S(N)(=O)=O)cc1N=c1[nH]cc(Br)c(=Nc2cc(NC(=O)CN3CCN(C)CC3)ccc2OC)[nH]1

>  <score_type>  (36) 
oracle

>  <origin>  (36) 
adgpu

>  <m_score__min__energy>  (36) 
-10.68

>  <m_primary>  (36) 
energy

$$$$
36:0
     RDKit          3D

 57 60  0  0  0  0  0  0  0  0999 V2000
   -3.3330   21.3770  -32.3490 O   0  0  0  0  0  0  0  0  0  0  0  0
   -3.9530   22.3410  -31.8300 C   0  0  0  0  0  0  0  0  0  0  0  0
   -3.1980   23.4020  -31.2250 N   0  0  0  0  0  0  0  0  0  0  0  0
   -3.1930   23.7490  -29.8330 C   0  0  0  0  0  0  0  0  0  0  0  0
   -4.2740   23.4400  -28.9900 C   0  0  0  0  0  0  0  0  0  0  0  0
   -4.2270   23.7810  -27.6350 C   0  0  0  0  0  0  0  0  0  0  0  0
   -3.1130   24.4440  -27.1170 C   0  0  0  0  0  0  0  0  0  0  0  0
   -2.0460   24.7880  -27.9560 C   0  0  0  0  0  0  0  0  0  0  0  0
   -0.6360   25.6060  -27.2860 S   0  0  0  0  0  0  0  0  0  0  0  0
   -0.6920   27.0550  -27.6850 O   0  0  0  0  0  0  0  0  0  0  0  0
    0.6220   25.0040  -27.8480 O   0  0  0  0  0  0  0  0  0  0  0  0
   -0.6520   25.4720  -25.5400 N   0  0  0  0  0  0  0  0  0  0  0  0
    0.6550   25.8360  -24.9830 C   0  0  0  0  0  0  0  0  0  0  0  0
    0.6210   27.3140  -24.6210 C   0  0  0  0  0  0  0  0  0  0  0  0
   -0.8460   27.7020  -24.6230 C   0  0  0  0  0  0  0  0  0  0  0  0
   -1.6030   26.4270  -24.9610 C   0  0  0  0  0  0  0  0  0  0  0  0
   -2.0950   24.4470  -29.3160 C   0  0  0  0  0  0  0  0  0  0  0  0
   -5.4330   22.3410  -31.8490 C   0  0  0  0  0  0  0  0  0  0  0  0
   -6.1030   21.1120  -31.9690 C   0  0  0  0  0  0  0  0  0  0  0  0
   -7.4990   21.0650  -32.0690 C   0  0  0  0  0  0  0  0  0  0  0  0
   -8.3100   19.5090  -32.2290 S   0  0  0  0  0  0  0  0  0  0  0  0
   -9.5310   19.6900  -33.0880 O   0  0  0  0  0  0  0  0  0  0  0  0
   -8.7450   19.0150  -30.8770 O   0  0  0  0  0  0  0  0  0  0  0  0
   -7.2330   18.3560  -32.9740 N   0  0  0  0  0  0  0  0  0  0  0  0
   -6.4280   19.0190  -34.0140 C   0  0  0  0  0  0  0  0  0  0  0  0
   -5.3690   18.0500  -34.5800 C   0  0  0  0  0  0  0  0  0  0  0  0
   -5.4870   16.7590  -34.0140 O   0  0  0  0  0  0  0  0  0  0  0  0
   -5.3090   16.8370  -32.6120 C   0  0  0  0  0  0  0  0  0  0  0  0
   -6.3540   17.7620  -31.9540 C   0  0  0  0  0  0  0  0  0  0  0  0
   -8.2350   22.2540  -32.0310 C   0  0  0  0  0  0  0  0  0  0  0  0
   -7.5820   23.4790  -31.8840 C   0  0  0  0  0  0  0  0  0  0  0  0
   -6.1890   23.5340  -31.7710 C   0  0  0  0  0  0  0  0  0  0  0  0
   -5.5970   24.7810  -31.5530 O   0  0  0  0  0  0  0  0  0  0  0  0
   -5.1589   22.9288  -29.3970 H   0  0  0  0  0  0  0  0  0  0  0  0
   -5.0697   23.5263  -26.9755 H   0  0  0  0  0  0  0  0  0  0  0  0
   -3.0733   24.6968  -26.0472 H   0  0  0  0  0  0  0  0  0  0  0  0
    0.8566   25.2365  -24.0830 H   0  0  0  0  0  0  0  0  0  0  0  0
    1.4495   25.6425  -25.7187 H   0  0  0  0  0  0  0  0  0  0  0  0
    1.0593   27.4754  -23.6251 H   0  0  0  0  0  0  0  0  0  0  0  0
    1.2029   27.9200  -25.3310 H   0  0  0  0  0  0  0  0  0  0  0  0
   -1.1460   28.0763  -23.6331 H   0  0  0  0  0  0  0  0  0  0  0  0
   -1.0549   28.5044  -25.3458 H   0  0  0  0  0  0  0  0  0  0  0  0
   -2.0470   26.0039  -24.0479 H   0  0  0  0  0  0  0  0  0  0  0  0
   -2.4106   26.6417  -25.6763 H   0  0  0  0  0  0  0  0  0  0  0  0
   -1.2653   24.7299  -29.9805 H   0  0  0  0  0  0  0  0  0  0  0  0
   -5.5247   20.1764  -31.9846 H   0  0  0  0  0  0  0  0  0  0  0  0
   -7.0898   19.3476  -34.8289 H   0  0  0  0  0  0  0  0  0  0  0  0
   -5.9153   19.8842  -33.5683 H   0  0  0  0  0  0  0  0  0  0  0  0
   -5.5002   17.9751  -35.6696 H   0  0  0  0  0  0  0  0  0  0  0  0
   -4.3734   18.4450  -34.3296 H   0  0  0  0  0  0  0  0  0  0  0  0
   -5.4060   15.8284  -32.1838 H   0  0  0  0  0  0  0  0  0  0  0  0
   -4.3103   17.2544  -32.4161 H   0  0  0  0  0  0  0  0  0  0  0  0
   -6.9622   17.1766  -31.2487 H   0  0  0  0  0  0  0  0  0  0  0  0
   -5.8292   18.5699  -31.4231 H   0  0  0  0  0  0  0  0  0  0  0  0
   -9.3312   22.2236  -32.1172 H   0  0  0  0  0  0  0  0  0  0  0  0
   -8.1682   24.4094  -31.8568 H   0  0  0  0  0  0  0  0  0  0  0  0
   -4.5990   24.9340  -31.6040 H   0  0  0  0  0  0  0  0  0  0  0  0
  1  2  2  0
  2  3  1  0
  3  4  1  0
  4  5  2  0
  5  6  1  0
  6  7  2  0
  7  8  1  0
  8  9  1  0
  9 10  2  0
  9 11  2  0
  9 12  1  0
 12 13  1  0
 13 14  1  0
 14 15  1  0
 15 16  1  0
  8 17  2  0
  2 18  1  0
 18 19  2  0
 19 20  1  0
 20 21  1  0
 21 22  2  0
 21 23  2  0
 21 24  1  0
 24 25  1  0
 25 26  1  0
 26 27  1  0
 27 28  1  0
 28 29  1  0
 20 30  2  0
 30 31  1  0
 31 32  2  0
 32 33  1  0
 17  4  1  0
 32 18  1  0
 16 12  1  0
 29 24  1  0
  5 34  1  0
  6 35  1  0
  7 36  1  0
 13 37  1  0
 13 38  1  0
 14 39  1  0
 14 40  1  0
 15 41  1  0
 15 42  1  0
 16 43  1  0
 16 44  1  0
 17 45  1  0
 19 46  1  0
 25 47  1  0
 25 48  1  0
 26 49  1  0
 26 50  1  0
 28 51  1  0
 28 52  1  0
 29 53  1  0
 29 54  1  0
 30 55  1  0
 31 56  1  0
 33 57  1  0
M  CHG  1   3  -1
M  END
>  <UniqueID>  (37) 
36

>  <SMILES>  (37) 
O=C([N-]c1cccc(S(=O)(=O)N2CCCC2)c1)c1cc(S(=O)(=O)N2CCOCC2)ccc1O

>  <Energy>  (37) 
76.48157915729196

>  <Genealogy>  (37) 
O=C([N-]c1cccc(S(=O)(=O)N2CCCC2)c1)c1cc(S(=O)(=O)N2CCOCC2)ccc1O (protonated)
O=C([N-]c1cccc(S(=O)(=O)N2CCCC2)c1)c1cc(S(=O)(=O)N2CCOCC2)ccc1O (3D coordinates assigned)
O=C([N-]c1cccc(S(=O)(=O)N2CCCC2)c1)c1cc(S(=O)(=O)N2CCOCC2)ccc1O (nonaromatic ring conformer: 76.48157915729196 kcal/mol)

>  <smiles>  (37) 
O=C(Nc1cccc(S(=O)(=O)N2CCCC2)c1)c1cc(S(=O)(=O)N2CCOCC2)ccc1O

>  <score_type>  (37) 
oracle

>  <origin>  (37) 
adgpu

>  <m_score__min__energy>  (37) 
-12.609999999999999

>  <m_primary>  (37) 
energy

$$$$
37:0
     RDKit          3D

 63 66  0  0  0  0  0  0  0  0999 V2000
   -5.5600   26.0310  -31.2140 O   0  0  0  0  0  0  0  0  0  0  0  0
   -6.0380   25.2470  -30.0230 S   0  0  0  0  0  0  0  0  0  0  0  0
   -7.0600   26.0640  -29.2820 O   0  0  0  0  0  0  0  0  0  0  0  0
   -4.7210   24.8700  -28.9590 N   0  0  0  0  0  0  0  0  0  0  0  0
   -3.7570   23.8510  -29.2560 C   0  0  0  0  0  0  0  0  0  0  0  0
   -4.1500   22.5090  -29.3930 C   0  0  0  0  0  0  0  0  0  0  0  0
   -3.2060   21.5230  -29.6920 C   0  0  0  0  0  0  0  0  0  0  0  0
   -1.8580   21.8650  -29.8670 C   0  0  0  0  0  0  0  0  0  0  0  0
   -0.6670   20.6190  -30.2420 S   0  0  0  0  0  0  0  0  0  0  0  0
    0.5590   20.8400  -29.4000 O   0  0  0  0  0  0  0  0  0  0  0  0
   -1.2310   19.2690  -29.8940 O   0  0  0  0  0  0  0  0  0  0  0  0
   -0.2210   20.6400  -31.9310 N   0  0  0  0  0  0  0  0  0  0  0  0
   -1.4210   20.5750  -32.7800 C   0  0  0  0  0  0  0  0  0  0  0  0
   -1.0510   20.8500  -34.2500 C   0  0  0  0  0  0  0  0  0  0  0  0
    0.4260   20.5360  -34.5520 C   0  0  0  0  0  0  0  0  0  0  0  0
    0.9070   19.3240  -33.7500 C   0  0  0  0  0  0  0  0  0  0  0  0
    0.6990   19.5220  -32.2310 C   0  0  0  0  0  0  0  0  0  0  0  0
   -1.4660   23.2050  -29.7490 C   0  0  0  0  0  0  0  0  0  0  0  0
   -2.4080   24.1940  -29.4490 C   0  0  0  0  0  0  0  0  0  0  0  0
   -1.9950   25.5170  -29.3310 O   0  0  0  0  0  0  0  0  0  0  0  0
   -6.7370   23.7360  -30.5910 C   0  0  0  0  0  0  0  0  0  0  0  0
   -6.4520   23.2890  -31.8870 C   0  0  0  0  0  0  0  0  0  0  0  0
   -6.9710   22.0740  -32.3420 C   0  0  0  0  0  0  0  0  0  0  0  0
   -7.7750   21.2910  -31.5030 C   0  0  0  0  0  0  0  0  0  0  0  0
   -8.4180   19.7510  -32.0800 S   0  0  0  0  0  0  0  0  0  0  0  0
   -9.0410   19.0160  -30.9260 O   0  0  0  0  0  0  0  0  0  0  0  0
   -9.4910   20.0100  -33.1010 O   0  0  0  0  0  0  0  0  0  0  0  0
   -7.1680   18.7550  -32.7850 N   0  0  0  0  0  0  0  0  0  0  0  0
   -6.2810   18.2250  -31.7360 C   0  0  0  0  0  0  0  0  0  0  0  0
   -5.3530   17.1460  -32.3210 C   0  0  0  0  0  0  0  0  0  0  0  0
   -5.1240   17.3230  -33.8320 C   0  0  0  0  0  0  0  0  0  0  0  0
   -5.1060   18.8050  -34.2220 C   0  0  0  0  0  0  0  0  0  0  0  0
   -6.4000   19.5290  -33.7840 C   0  0  0  0  0  0  0  0  0  0  0  0
   -8.0590   21.7370  -30.2040 C   0  0  0  0  0  0  0  0  0  0  0  0
   -7.5400   22.9540  -29.7480 C   0  0  0  0  0  0  0  0  0  0  0  0
   -4.8050   25.2150  -27.9760 H   0  0  0  0  0  0  0  0  0  0  0  0
   -5.2070   22.2329  -29.2641 H   0  0  0  0  0  0  0  0  0  0  0  0
   -3.5221   20.4740  -29.7904 H   0  0  0  0  0  0  0  0  0  0  0  0
   -1.8686   19.5734  -32.6997 H   0  0  0  0  0  0  0  0  0  0  0  0
   -2.1395   21.3368  -32.4432 H   0  0  0  0  0  0  0  0  0  0  0  0
   -1.6844   20.2250  -34.8966 H   0  0  0  0  0  0  0  0  0  0  0  0
   -1.2123   21.9211  -34.4418 H   0  0  0  0  0  0  0  0  0  0  0  0
    0.5357   20.3229  -35.6256 H   0  0  0  0  0  0  0  0  0  0  0  0
    1.0338   21.4073  -34.2666 H   0  0  0  0  0  0  0  0  0  0  0  0
    0.3438   18.4364  -34.0739 H   0  0  0  0  0  0  0  0  0  0  0  0
    1.9841   19.1975  -33.9342 H   0  0  0  0  0  0  0  0  0  0  0  0
    0.2810   18.5967  -31.8077 H   0  0  0  0  0  0  0  0  0  0  0  0
    1.6761   19.7620  -31.7863 H   0  0  0  0  0  0  0  0  0  0  0  0
   -0.4109   23.4807  -29.8932 H   0  0  0  0  0  0  0  0  0  0  0  0
   -5.8174   23.8963  -32.5492 H   0  0  0  0  0  0  0  0  0  0  0  0
   -6.7475   21.7308  -33.3629 H   0  0  0  0  0  0  0  0  0  0  0  0
   -5.6724   19.0446  -31.3263 H   0  0  0  0  0  0  0  0  0  0  0  0
   -6.8939   17.7782  -30.9393 H   0  0  0  0  0  0  0  0  0  0  0  0
   -4.3814   17.2003  -31.8081 H   0  0  0  0  0  0  0  0  0  0  0  0
   -5.8367   16.1700  -32.1680 H   0  0  0  0  0  0  0  0  0  0  0  0
   -4.1597   16.8691  -34.1040 H   0  0  0  0  0  0  0  0  0  0  0  0
   -5.9497   16.8326  -34.3684 H   0  0  0  0  0  0  0  0  0  0  0  0
   -4.2453   19.2901  -33.7384 H   0  0  0  0  0  0  0  0  0  0  0  0
   -5.0318   18.8697  -35.3176 H   0  0  0  0  0  0  0  0  0  0  0  0
   -6.1300   20.5013  -33.3461 H   0  0  0  0  0  0  0  0  0  0  0  0
   -7.0344   19.6504  -34.6744 H   0  0  0  0  0  0  0  0  0  0  0  0
   -8.6918   21.1282  -29.5414 H   0  0  0  0  0  0  0  0  0  0  0  0
   -7.7622   23.2977  -28.7270 H   0  0  0  0  0  0  0  0  0  0  0  0
  1  2  2  0
  2  3  2  0
  2  4  1  0
  4  5  1  0
  5  6  2  0
  6  7  1  0
  7  8  2  0
  8  9  1  0
  9 10  2  0
  9 11  2  0
  9 12  1  0
 12 13  1  0
 13 14  1  0
 14 15  1  0
 15 16  1  0
 16 17  1  0
  8 18  1  0
 18 19  2  0
 19 20  1  0
  2 21  1  0
 21 22  2  0
 22 23  1  0
 23 24  2  0
 24 25  1  0
 25 26  2  0
 25 27  2  0
 25 28  1  0
 28 29  1  0
 29 30  1  0
 30 31  1  0
 31 32  1  0
 32 33  1  0
 24 34  1  0
 34 35  2  0
 19  5  1  0
 35 21  1  0
 17 12  1  0
 33 28  1  0
  4 36  1  0
  6 37  1  0
  7 38  1  0
 13 39  1  0
 13 40  1  0
 14 41  1  0
 14 42  1  0
 15 43  1  0
 15 44  1  0
 16 45  1  0
 16 46  1  0
 17 47  1  0
 17 48  1  0
 18 49  1  0
 22 50  1  0
 23 51  1  0
 29 52  1  0
 29 53  1  0
 30 54  1  0
 30 55  1  0
 31 56  1  0
 31 57  1  0
 32 58  1  0
 32 59  1  0
 33 60  1  0
 33 61  1  0
 34 62  1  0
 35 63  1  0
M  CHG  1  20  -1
M  END
>  <UniqueID>  (38) 
37

>  <SMILES>  (38) 
O=S(=O)(Nc1ccc(S(=O)(=O)N2CCCCC2)cc1[O-])c1ccc(S(=O)(=O)N2CCCCC2)cc1

>  <Energy>  (38) 
76.02139627208254

>  <Genealogy>  (38) 
O=S(=O)(Nc1ccc(S(=O)(=O)N2CCCCC2)cc1[O-])c1ccc(S(=O)(=O)N2CCCCC2)cc1 (protonated)
O=S(=O)(Nc1ccc(S(=O)(=O)N2CCCCC2)cc1[O-])c1ccc(S(=O)(=O)N2CCCCC2)cc1 (3D coordinates assigned)
O=S(=O)(Nc1ccc(S(=O)(=O)N2CCCCC2)cc1[O-])c1ccc(S(=O)(=O)N2CCCCC2)cc1 (nonaromatic ring conformer: 76.02139627208254 kcal/mol)

>  <smiles>  (38) 
O=S(=O)(Nc1ccc(S(=O)(=O)N2CCCCC2)cc1O)c1ccc(S(=O)(=O)N2CCCCC2)cc1

>  <score_type>  (38) 
oracle

>  <origin>  (38) 
adgpu

>  <m_score__min__energy>  (38) 
-15.380000000000001

>  <m_primary>  (38) 
energy

$$$$
38:0
     RDKit          3D

 43 44  0  0  0  0  0  0  0  0999 V2000
   -6.7080   25.6300  -29.7200 C   0  0  0  0  0  0  0  0  0  0  0  0
   -6.8820   24.2780  -29.4160 O   0  0  0  0  0  0  0  0  0  0  0  0
   -6.6780   23.2270  -30.2810 C   0  0  0  0  0  0  0  0  0  0  0  0
   -7.6900   22.4450  -30.7800 C   0  0  0  0  0  0  0  0  0  0  0  0
   -7.4630   21.3790  -31.6600 C   0  0  0  0  0  0  0  0  0  0  0  0
   -8.6090   20.5880  -32.1810 C   0  0  0  0  0  0  0  0  0  0  0  0
   -9.8670   21.3920  -32.1990 C   0  0  0  0  0  0  0  0  0  0  0  0
   -8.7200   19.2130  -31.6180 C   0  0  0  0  0  0  0  0  0  0  0  0
   -6.1780   21.0870  -32.0530 C   0  0  0  0  0  0  0  0  0  0  0  0
   -5.7880   20.0940  -32.8930 O   0  0  0  0  0  0  0  0  0  0  0  0
   -5.6210   18.7650  -32.6870 C   0  0  0  0  0  0  0  0  0  0  0  0
   -5.7850   18.0780  -31.5080 C   0  0  0  0  0  0  0  0  0  0  0  0
   -5.5970   16.7490  -31.3860 N   0  0  0  0  0  0  0  0  0  0  0  0
   -5.2290   16.0250  -32.4620 C   0  0  0  0  0  0  0  0  0  0  0  0
   -5.0550   14.7560  -32.3250 N   0  0  0  0  0  0  0  0  0  0  0  0
   -5.0560   16.6630  -33.6460 N   0  0  0  0  0  0  0  0  0  0  0  0
   -5.2380   17.9870  -33.7890 C   0  0  0  0  0  0  0  0  0  0  0  0
   -5.0520   18.5000  -34.9420 N   0  0  0  0  0  0  0  0  0  0  0  0
   -5.1520   21.8970  -31.5350 C   0  0  0  0  0  0  0  0  0  0  0  0
   -5.3930   22.9360  -30.6760 C   0  0  0  0  0  0  0  0  0  0  0  0
   -4.0710   23.9240  -30.0530 S   0  0  0  0  0  0  0  0  0  0  0  0
   -4.3860   24.2000  -28.3790 N   0  0  0  0  0  0  0  0  0  0  0  0
   -3.9030   25.1660  -30.8440 O   0  0  0  0  0  0  0  0  0  0  0  0
   -2.8010   23.1290  -30.1490 O   0  0  0  0  0  0  0  0  0  0  0  0
   -6.6335   26.2088  -28.7876 H   0  0  0  0  0  0  0  0  0  0  0  0
   -5.7859   25.7584  -30.3059 H   0  0  0  0  0  0  0  0  0  0  0  0
   -7.5675   25.9876  -30.3059 H   0  0  0  0  0  0  0  0  0  0  0  0
   -8.7239   22.6650  -30.4756 H   0  0  0  0  0  0  0  0  0  0  0  0
   -8.3933   20.3702  -33.2374 H   0  0  0  0  0  0  0  0  0  0  0  0
  -10.1865   21.5962  -31.1664 H   0  0  0  0  0  0  0  0  0  0  0  0
   -9.6870   22.3429  -32.7219 H   0  0  0  0  0  0  0  0  0  0  0  0
  -10.6543   20.8293  -32.7219 H   0  0  0  0  0  0  0  0  0  0  0  0
   -8.7158   19.2652  -30.5192 H   0  0  0  0  0  0  0  0  0  0  0  0
   -9.6583   18.7516  -31.9595 H   0  0  0  0  0  0  0  0  0  0  0  0
   -7.8679   18.6070  -31.9595 H   0  0  0  0  0  0  0  0  0  0  0  0
   -6.0864   18.6442  -30.6144 H   0  0  0  0  0  0  0  0  0  0  0  0
   -5.7470   16.3070  -30.4390 H   0  0  0  0  0  0  0  0  0  0  0  0
   -4.7700   14.1940  -33.1620 H   0  0  0  0  0  0  0  0  0  0  0  0
   -4.7700   16.0390  -34.4430 H   0  0  0  0  0  0  0  0  0  0  0  0
   -4.7690   17.9590  -35.7780 H   0  0  0  0  0  0  0  0  0  0  0  0
   -4.1137   21.6876  -31.8318 H   0  0  0  0  0  0  0  0  0  0  0  0
   -4.2620   25.2220  -28.1950 H   0  0  0  0  0  0  0  0  0  0  0  0
   -5.3820   23.9520  -28.1660 H   0  0  0  0  0  0  0  0  0  0  0  0
  1  2  1  0
  2  3  1  0
  3  4  2  0
  4  5  1  0
  5  6  1  0
  6  7  1  0
  6  8  1  0
  5  9  2  0
  9 10  1  0
 10 11  1  0
 11 12  2  0
 12 13  1  0
 13 14  1  0
 14 15  2  3
 14 16  1  0
 16 17  1  0
 17 18  2  3
  9 19  1  0
 19 20  2  0
 20 21  1  0
 21 22  1  0
 21 23  2  0
 21 24  2  0
 20  3  1  0
 17 11  1  0
  1 25  1  0
  1 26  1  0
  1 27  1  0
  4 28  1  0
  6 29  1  0
  7 30  1  0
  7 31  1  0
  7 32  1  0
  8 33  1  0
  8 34  1  0
  8 35  1  0
 12 36  1  0
 13 37  1  0
 15 38  1  0
 16 39  1  0
 18 40  1  0
 19 41  1  0
 22 42  1  0
 22 43  1  0
M  END
>  <smiles>  (39) 
COc1cc(C(C)C)c(Oc2c[nH]c(=N)[nH]c2=N)cc1S(N)(=O)=O

>  <score_type>  (39) 
oracle

>  <origin>  (39) 
adgpu

>  <m_score__min__energy>  (39) 
-7.9100000000000001

>  <m_primary>  (39) 
energy

$$$$
39:0
     RDKit          3D

 48 50  0  0  0  0  0  0  0  0999 V2000
    1.3300   27.7080  -23.7840 C   0  0  0  0  0  0  0  0  0  0  0  0
   -0.1320   27.5000  -23.7490 N   0  0  0  0  0  0  0  0  0  0  0  0
   -0.7610   27.8410  -25.0430 C   0  0  0  0  0  0  0  0  0  0  0  0
   -0.4030   26.8390  -26.1650 C   0  0  0  0  0  0  0  0  0  0  0  0
    0.0610   25.5460  -25.6280 N   0  0  0  0  0  0  0  0  0  0  0  0
   -0.0030   24.3120  -26.8640 S   0  0  0  0  0  0  0  0  0  0  0  0
    1.1270   24.5180  -27.8340 O   0  0  0  0  0  0  0  0  0  0  0  0
    0.1710   22.9620  -26.2260 O   0  0  0  0  0  0  0  0  0  0  0  0
   -1.5370   24.3470  -27.7350 C   0  0  0  0  0  0  0  0  0  0  0  0
   -2.7410   24.5440  -27.0450 C   0  0  0  0  0  0  0  0  0  0  0  0
   -3.9560   24.5460  -27.7350 C   0  0  0  0  0  0  0  0  0  0  0  0
   -3.9810   24.3470  -29.1220 C   0  0  0  0  0  0  0  0  0  0  0  0
   -5.5190   24.3360  -29.9930 S   0  0  0  0  0  0  0  0  0  0  0  0
   -6.5200   25.1580  -29.2290 O   0  0  0  0  0  0  0  0  0  0  0  0
   -5.3230   24.9760  -31.3400 O   0  0  0  0  0  0  0  0  0  0  0  0
   -6.1600   22.7260  -30.2180 N   0  0  0  0  0  0  0  0  0  0  0  0
   -5.8840   22.2050  -31.5550 C   0  0  0  0  0  0  0  0  0  0  0  0
   -6.9610   21.1710  -31.8430 C   0  0  0  0  0  0  0  0  0  0  0  0
   -8.0920   21.4870  -30.8760 C   0  0  0  0  0  0  0  0  0  0  0  0
   -7.6140   22.6890  -30.0760 C   0  0  0  0  0  0  0  0  0  0  0  0
   -2.7750   24.1690  -29.8150 C   0  0  0  0  0  0  0  0  0  0  0  0
   -1.5600   24.1670  -29.1250 C   0  0  0  0  0  0  0  0  0  0  0  0
   -0.7340   25.1470  -24.4610 C   0  0  0  0  0  0  0  0  0  0  0  0
   -0.4870   26.1270  -23.2980 C   0  0  0  0  0  0  0  0  0  0  0  0
    1.7172   27.7631  -22.7559 H   0  0  0  0  0  0  0  0  0  0  0  0
    1.8073   26.8687  -24.3111 H   0  0  0  0  0  0  0  0  0  0  0  0
    1.5542   28.6471  -24.3111 H   0  0  0  0  0  0  0  0  0  0  0  0
   -0.5080   28.1730  -23.0380 H   0  0  0  0  0  0  0  0  0  0  0  0
   -1.8532   27.8470  -24.9123 H   0  0  0  0  0  0  0  0  0  0  0  0
   -0.3813   28.8278  -25.3463 H   0  0  0  0  0  0  0  0  0  0  0  0
   -1.2957   26.6660  -26.7840 H   0  0  0  0  0  0  0  0  0  0  0  0
    0.4160   27.2728  -26.7575 H   0  0  0  0  0  0  0  0  0  0  0  0
   -2.7293   24.6977  -25.9558 H   0  0  0  0  0  0  0  0  0  0  0  0
   -4.8967   24.7044  -27.1873 H   0  0  0  0  0  0  0  0  0  0  0  0
   -5.9278   23.0166  -32.2962 H   0  0  0  0  0  0  0  0  0  0  0  0
   -4.8793   21.7607  -31.6105 H   0  0  0  0  0  0  0  0  0  0  0  0
   -7.3086   21.2565  -32.8831 H   0  0  0  0  0  0  0  0  0  0  0  0
   -6.5876   20.1443  -31.7149 H   0  0  0  0  0  0  0  0  0  0  0  0
   -9.0122   21.7322  -31.4266 H   0  0  0  0  0  0  0  0  0  0  0  0
   -8.3273   20.6305  -30.2271 H   0  0  0  0  0  0  0  0  0  0  0  0
   -8.0590   23.6127  -30.4744 H   0  0  0  0  0  0  0  0  0  0  0  0
   -7.9101   22.6088  -29.0196 H   0  0  0  0  0  0  0  0  0  0  0  0
   -2.7855   24.0304  -30.9062 H   0  0  0  0  0  0  0  0  0  0  0  0
   -0.6180   24.0236  -29.6746 H   0  0  0  0  0  0  0  0  0  0  0  0
   -1.8015   25.1573  -24.7261 H   0  0  0  0  0  0  0  0  0  0  0  0
   -0.4377   24.1343  -24.1502 H   0  0  0  0  0  0  0  0  0  0  0  0
   -1.4021   26.1850  -22.6903 H   0  0  0  0  0  0  0  0  0  0  0  0
    0.3687   25.7417  -22.7241 H   0  0  0  0  0  0  0  0  0  0  0  0
  1  2  1  0
  2  3  1  0
  3  4  1  0
  4  5  1  0
  5  6  1  0
  6  7  2  0
  6  8  2  0
  6  9  1  0
  9 10  2  0
 10 11  1  0
 11 12  2  0
 12 13  1  0
 13 14  2  0
 13 15  2  0
 13 16  1  0
 16 17  1  0
 17 18  1  0
 18 19  1  0
 19 20  1  0
 12 21  1  0
 21 22  2  0
  5 23  1  0
 23 24  1  0
 24  2  1  0
 22  9  1  0
 20 16  1  0
  1 25  1  0
  1 26  1  0
  1 27  1  0
  2 28  1  0
  3 29  1  0
  3 30  1  0
  4 31  1  0
  4 32  1  0
 10 33  1  0
 11 34  1  0
 17 35  1  0
 17 36  1  0
 18 37  1  0
 18 38  1  0
 19 39  1  0
 19 40  1  0
 20 41  1  0
 20 42  1  0
 21 43  1  0
 22 44  1  0
 23 45  1  0
 23 46  1  0
 24 47  1  0
 24 48  1  0
M  CHG  1   2   1
M  END
>  <UniqueID>  (40) 
38

>  <SMILES>  (40) 
C[NH+]1CCN(S(=O)(=O)c2ccc(S(=O)(=O)N3CCCC3)cc2)CC1

>  <Energy>  (40) 
57.1012982609229

>  <Genealogy>  (40) 
C[NH+]1CCN(S(=O)(=O)c2ccc(S(=O)(=O)N3CCCC3)cc2)CC1 (protonated)
C[NH+]1CCN(S(=O)(=O)c2ccc(S(=O)(=O)N3CCCC3)cc2)CC1 (3D coordinates assigned)
C[NH+]1CCN(S(=O)(=O)c2ccc(S(=O)(=O)N3CCCC3)cc2)CC1 (nonaromatic ring conformer: 57.1012982609229 kcal/mol)

>  <smiles>  (40) 
CN1CCN(S(=O)(=O)c2ccc(S(=O)(=O)N3CCCC3)cc2)CC1

>  <score_type>  (40) 
oracle

>  <origin>  (40) 
adgpu

>  <m_score__min__energy>  (40) 
-9.0299999999999994

>  <m_primary>  (40) 
energy

$$$$
40:0
     RDKit          3D

 46 49  0  0  0  0  0  0  0  0999 V2000
   -8.3760   20.1300  -31.3520 C   0  0  0  0  0  0  0  0  0  0  0  0
   -7.0410   20.1560  -32.0250 C   0  0  0  0  0  0  0  0  0  0  0  0
   -6.4400   19.0510  -32.5060 N   0  0  0  0  0  0  0  0  0  0  0  0
   -5.2760   19.4090  -33.0230 N   0  0  0  0  0  0  0  0  0  0  0  0
   -4.3640   18.4630  -33.6020 C   0  0  0  0  0  0  0  0  0  0  0  0
   -3.0450   18.3810  -33.1270 C   0  0  0  0  0  0  0  0  0  0  0  0
   -2.1410   17.4820  -33.7020 C   0  0  0  0  0  0  0  0  0  0  0  0
   -2.5440   16.6670  -34.7620 C   0  0  0  0  0  0  0  0  0  0  0  0
   -3.8480   16.7560  -35.2570 C   0  0  0  0  0  0  0  0  0  0  0  0
   -4.7540   17.6540  -34.6850 C   0  0  0  0  0  0  0  0  0  0  0  0
   -5.1200   20.7500  -32.9050 C   0  0  0  0  0  0  0  0  0  0  0  0
   -3.9660   21.5420  -33.4550 C   0  0  0  0  0  0  0  0  0  0  0  0
   -6.2310   21.2650  -32.2480 C   0  0  0  0  0  0  0  0  0  0  0  0
   -6.4910   22.6710  -31.8670 C   0  0  0  0  0  0  0  0  0  0  0  0
   -7.6680   23.0500  -31.6220 O   0  0  0  0  0  0  0  0  0  0  0  0
   -5.4170   23.6180  -31.8390 N   0  0  0  0  0  0  0  0  0  0  0  0
   -4.3910   23.6940  -30.8380 C   0  0  0  0  0  0  0  0  0  0  0  0
   -3.9360   22.5100  -30.2510 C   0  0  0  0  0  0  0  0  0  0  0  0
   -2.9430   22.5370  -29.2580 C   0  0  0  0  0  0  0  0  0  0  0  0
   -2.4390   21.2800  -28.6480 C   0  0  0  0  0  0  0  0  0  0  0  0
   -3.0690   20.7290  -27.5190 C   0  0  0  0  0  0  0  0  0  0  0  0
   -2.5800   19.5460  -26.9610 C   0  0  0  0  0  0  0  0  0  0  0  0
   -1.4980   18.9300  -27.5070 N   0  0  0  0  0  0  0  0  0  0  0  0
   -0.8660   19.4370  -28.5980 C   0  0  0  0  0  0  0  0  0  0  0  0
   -1.3230   20.6180  -29.1880 C   0  0  0  0  0  0  0  0  0  0  0  0
   -2.4370   23.7850  -28.8580 C   0  0  0  0  0  0  0  0  0  0  0  0
   -2.9160   24.9290  -29.4130 N   0  0  0  0  0  0  0  0  0  0  0  0
   -3.8770   24.9200  -30.3730 C   0  0  0  0  0  0  0  0  0  0  0  0
   -4.3160   26.0150  -30.8120 O   0  0  0  0  0  0  0  0  0  0  0  0
   -8.2367   20.1327  -30.2609 H   0  0  0  0  0  0  0  0  0  0  0  0
   -8.9542   21.0171  -31.6500 H   0  0  0  0  0  0  0  0  0  0  0  0
   -8.9192   19.2211  -31.6500 H   0  0  0  0  0  0  0  0  0  0  0  0
   -2.7210   19.0275  -32.2981 H   0  0  0  0  0  0  0  0  0  0  0  0
   -1.1119   17.4168  -33.3190 H   0  0  0  0  0  0  0  0  0  0  0  0
   -1.8345   15.9543  -35.2078 H   0  0  0  0  0  0  0  0  0  0  0  0
   -4.1616   16.1191  -36.0972 H   0  0  0  0  0  0  0  0  0  0  0  0
   -5.7766   17.7284  -35.0835 H   0  0  0  0  0  0  0  0  0  0  0  0
   -3.3719   21.9497  -32.6239 H   0  0  0  0  0  0  0  0  0  0  0  0
   -3.3328   20.8873  -34.0717 H   0  0  0  0  0  0  0  0  0  0  0  0
   -4.3492   22.3683  -34.0717 H   0  0  0  0  0  0  0  0  0  0  0  0
   -4.3602   21.5466  -30.5701 H   0  0  0  0  0  0  0  0  0  0  0  0
   -3.9440   21.2277  -27.0766 H   0  0  0  0  0  0  0  0  0  0  0  0
   -3.0713   19.1116  -26.0778 H   0  0  0  0  0  0  0  0  0  0  0  0
    0.0074   18.9163  -29.0175 H   0  0  0  0  0  0  0  0  0  0  0  0
   -0.8116   21.0280  -30.0714 H   0  0  0  0  0  0  0  0  0  0  0  0
   -1.6493   23.8363  -28.0919 H   0  0  0  0  0  0  0  0  0  0  0  0
  1  2  1  0
  2  3  2  0
  3  4  1  0
  4  5  1  0
  5  6  2  0
  6  7  1  0
  7  8  2  0
  8  9  1  0
  9 10  2  0
  4 11  1  0
 11 12  1  0
 11 13  2  0
 13 14  1  0
 14 15  2  0
 14 16  1  0
 16 17  1  0
 17 18  2  0
 18 19  1  0
 19 20  1  0
 20 21  2  0
 21 22  1  0
 22 23  2  0
 23 24  1  0
 24 25  2  0
 19 26  2  0
 26 27  1  0
 27 28  1  0
 28 29  2  0
 13  2  1  0
 28 17  1  0
 10  5  1  0
 25 20  1  0
  1 30  1  0
  1 31  1  0
  1 32  1  0
  6 33  1  0
  7 34  1  0
  8 35  1  0
  9 36  1  0
 10 37  1  0
 12 38  1  0
 12 39  1  0
 12 40  1  0
 18 41  1  0
 21 42  1  0
 22 43  1  0
 24 44  1  0
 25 45  1  0
 26 46  1  0
M  CHG  2  16  -1  27  -1
M  END
>  <UniqueID>  (41) 
39

>  <SMILES>  (41) 
Cc1nn(-c2ccccc2)c(C)c1C(=O)[N-]c1cc(-c2ccncc2)c[n-]c1=O

>  <Energy>  (41) 
98.90155259359872

>  <Genealogy>  (41) 
Cc1nn(-c2ccccc2)c(C)c1C(=O)[N-]c1cc(-c2ccncc2)c[n-]c1=O (protonated)
Cc1nn(-c2ccccc2)c(C)c1C(=O)[N-]c1cc(-c2ccncc2)c[n-]c1=O (3D coordinates assigned)
Cc1nn(-c2ccccc2)c(C)c1C(=O)[N-]c1cc(-c2ccncc2)c[n-]c1=O (optimized conformer: 98.90155259359872 kcal/mol)

>  <smiles>  (41) 
Cc1nn(-c2ccccc2)c(C)c1C(=O)Nc1cc(-c2ccncc2)c[nH]c1=O

>  <score_type>  (41) 
oracle

>  <origin>  (41) 
adgpu

>  <m_score__min__energy>  (41) 
-12.51

>  <m_primary>  (41) 
energy

$$$$
41:0
     RDKit          3D

 63 66  0  0  0  0  0  0  0  0999 V2000
   -4.8040   25.3930  -30.8030 O   0  0  0  0  0  0  0  0  0  0  0  0
   -4.1690   24.4900  -30.1990 C   0  0  0  0  0  0  0  0  0  0  0  0
   -4.6100   24.0820  -28.8200 C   0  0  0  0  0  0  0  0  0  0  0  0
   -3.5100   23.3100  -28.1440 C   0  0  0  0  0  0  0  0  0  0  0  0
   -3.6560   21.9350  -27.8920 C   0  0  0  0  0  0  0  0  0  0  0  0
   -2.6160   21.2140  -27.3000 C   0  0  0  0  0  0  0  0  0  0  0  0
   -1.4200   21.8560  -26.9650 C   0  0  0  0  0  0  0  0  0  0  0  0
   -1.2600   23.2260  -27.2150 C   0  0  0  0  0  0  0  0  0  0  0  0
    0.2680   24.0120  -26.8200 S   0  0  0  0  0  0  0  0  0  0  0  0
    0.5200   25.0960  -27.8340 O   0  0  0  0  0  0  0  0  0  0  0  0
    1.3900   23.0120  -26.9010 O   0  0  0  0  0  0  0  0  0  0  0  0
    0.1580   24.6930  -25.2080 N   0  0  0  0  0  0  0  0  0  0  0  0
    1.0490   25.8690  -25.0490 C   0  0  0  0  0  0  0  0  0  0  0  0
    0.2990   27.2050  -25.2050 C   0  0  0  0  0  0  0  0  0  0  0  0
   -0.7560   27.0720  -26.1350 O   0  0  0  0  0  0  0  0  0  0  0  0
   -1.7750   26.2410  -25.6100 C   0  0  0  0  0  0  0  0  0  0  0  0
   -1.2400   25.0060  -24.8470 C   0  0  0  0  0  0  0  0  0  0  0  0
   -2.3040   23.9490  -27.8100 C   0  0  0  0  0  0  0  0  0  0  0  0
   -3.1270   23.7930  -30.8940 N   0  0  0  0  0  0  0  0  0  0  0  0
   -3.1710   22.4140  -31.2830 C   0  0  0  0  0  0  0  0  0  0  0  0
   -4.3510   21.8470  -31.7890 C   0  0  0  0  0  0  0  0  0  0  0  0
   -4.3920   20.4910  -32.1470 C   0  0  0  0  0  0  0  0  0  0  0  0
   -5.8630   19.7890  -32.8150 S   0  0  0  0  0  0  0  0  0  0  0  0
   -5.6940   19.6350  -34.3020 O   0  0  0  0  0  0  0  0  0  0  0  0
   -6.1000   18.4290  -32.2140 O   0  0  0  0  0  0  0  0  0  0  0  0
   -7.2190   20.8360  -32.4820 N   0  0  0  0  0  0  0  0  0  0  0  0
   -7.1770   21.2850  -31.0800 C   0  0  0  0  0  0  0  0  0  0  0  0
   -8.2370   22.3760  -30.8330 C   0  0  0  0  0  0  0  0  0  0  0  0
   -9.4010   22.3020  -31.8340 C   0  0  0  0  0  0  0  0  0  0  0  0
   -9.7180   20.8500  -32.1990 C   0  0  0  0  0  0  0  0  0  0  0  0
   -8.4800   20.1190  -32.7680 C   0  0  0  0  0  0  0  0  0  0  0  0
   -3.2480   19.6980  -31.9920 C   0  0  0  0  0  0  0  0  0  0  0  0
   -2.0790   20.2490  -31.4620 C   0  0  0  0  0  0  0  0  0  0  0  0
   -2.0380   21.6000  -31.0990 C   0  0  0  0  0  0  0  0  0  0  0  0
   -0.5530   22.2680  -30.4420 Cl  0  0  0  0  0  0  0  0  0  0  0  0
   -4.8424   24.9805  -28.2296 H   0  0  0  0  0  0  0  0  0  0  0  0
   -5.5060   23.4485  -28.8964 H   0  0  0  0  0  0  0  0  0  0  0  0
   -4.5924   21.4248  -28.1618 H   0  0  0  0  0  0  0  0  0  0  0  0
   -2.7383   20.1398  -27.0972 H   0  0  0  0  0  0  0  0  0  0  0  0
   -0.6016   21.2839  -26.5036 H   0  0  0  0  0  0  0  0  0  0  0  0
    0.4890   23.9450  -24.5530 H   0  0  0  0  0  0  0  0  0  0  0  0
    1.5028   25.8345  -24.0476 H   0  0  0  0  0  0  0  0  0  0  0  0
    1.8106   25.8198  -25.8412 H   0  0  0  0  0  0  0  0  0  0  0  0
   -0.1129   27.5054  -24.2302 H   0  0  0  0  0  0  0  0  0  0  0  0
    1.0020   27.9683  -25.5698 H   0  0  0  0  0  0  0  0  0  0  0  0
   -2.3876   26.8378  -24.9183 H   0  0  0  0  0  0  0  0  0  0  0  0
   -2.3543   25.8637  -26.4656 H   0  0  0  0  0  0  0  0  0  0  0  0
   -1.2910   25.2069  -23.7667 H   0  0  0  0  0  0  0  0  0  0  0  0
   -1.8627   24.1418  -25.1218 H   0  0  0  0  0  0  0  0  0  0  0  0
   -2.1781   25.0221  -28.0163 H   0  0  0  0  0  0  0  0  0  0  0  0
   -5.2500   22.4701  -31.9057 H   0  0  0  0  0  0  0  0  0  0  0  0
   -7.3774   20.4288  -30.4191 H   0  0  0  0  0  0  0  0  0  0  0  0
   -6.1809   21.7010  -30.8684 H   0  0  0  0  0  0  0  0  0  0  0  0
   -8.6380   22.2546  -29.8159 H   0  0  0  0  0  0  0  0  0  0  0  0
   -7.7477   23.3529  -30.9605 H   0  0  0  0  0  0  0  0  0  0  0  0
  -10.2926   22.7628  -31.3838 H   0  0  0  0  0  0  0  0  0  0  0  0
   -9.1110   22.8385  -32.7495 H   0  0  0  0  0  0  0  0  0  0  0  0
  -10.0598   20.3222  -31.2965 H   0  0  0  0  0  0  0  0  0  0  0  0
  -10.4992   20.8542  -32.9734 H   0  0  0  0  0  0  0  0  0  0  0  0
   -8.4253   19.1161  -32.3195 H   0  0  0  0  0  0  0  0  0  0  0  0
   -8.5950   20.0672  -33.8607 H   0  0  0  0  0  0  0  0  0  0  0  0
   -3.2702   18.6389  -32.2883 H   0  0  0  0  0  0  0  0  0  0  0  0
   -1.1873   19.6187  -31.3294 H   0  0  0  0  0  0  0  0  0  0  0  0
  1  2  2  0
  2  3  1  0
  3  4  1  0
  4  5  2  0
  5  6  1  0
  6  7  2  0
  7  8  1  0
  8  9  1  0
  9 10  2  0
  9 11  2  0
  9 12  1  0
 12 13  1  0
 13 14  1  0
 14 15  1  0
 15 16  1  0
 16 17  1  0
  8 18  2  0
  2 19  1  0
 19 20  1  0
 20 21  2  0
 21 22  1  0
 22 23  1  0
 23 24  2  0
 23 25  2  0
 23 26  1  0
 26 27  1  0
 27 28  1  0
 28 29  1  0
 29 30  1  0
 30 31  1  0
 22 32  2  0
 32 33  1  0
 33 34  2  0
 34 35  1  0
 18  4  1  0
 34 20  1  0
 17 12  1  0
 31 26  1  0
  3 36  1  0
  3 37  1  0
  5 38  1  0
  6 39  1  0
  7 40  1  0
 12 41  1  0
 13 42  1  0
 13 43  1  0
 14 44  1  0
 14 45  1  0
 16 46  1  0
 16 47  1  0
 17 48  1  0
 17 49  1  0
 18 50  1  0
 21 51  1  0
 27 52  1  0
 27 53  1  0
 28 54  1  0
 28 55  1  0
 29 56  1  0
 29 57  1  0
 30 58  1  0
 30 59  1  0
 31 60  1  0
 31 61  1  0
 32 62  1  0
 33 63  1  0
M  CHG  2  12   1  19  -1
M  END
>  <UniqueID>  (42) 
40

>  <SMILES>  (42) 
O=C(Cc1cccc(S(=O)(=O)[NH+]2CCOCC2)c1)[N-]c1cc(S(=O)(=O)N2CCCCC2)ccc1Cl

>  <Energy>  (42) 
80.04120706002328

>  <Genealogy>  (42) 
O=C(Cc1cccc(S(=O)(=O)[NH+]2CCOCC2)c1)[N-]c1cc(S(=O)(=O)N2CCCCC2)ccc1Cl (protonated)
O=C(Cc1cccc(S(=O)(=O)[NH+]2CCOCC2)c1)[N-]c1cc(S(=O)(=O)N2CCCCC2)ccc1Cl (3D coordinates assigned)
O=C(Cc1cccc(S(=O)(=O)[NH+]2CCOCC2)c1)[N-]c1cc(S(=O)(=O)N2CCCCC2)ccc1Cl (nonaromatic ring conformer: 80.04120706002328 kcal/mol)

>  <smiles>  (42) 
O=C(Cc1cccc(S(=O)(=O)N2CCOCC2)c1)Nc1cc(S(=O)(=O)N2CCCCC2)ccc1Cl

>  <score_type>  (42) 
oracle

>  <origin>  (42) 
adgpu

>  <m_score__min__energy>  (42) 
-12.51

>  <m_primary>  (42) 
energy

$$$$
42:0
     RDKit          3D

 56 59  0  0  0  0  0  0  0  0999 V2000
   -5.0200   14.6410  -34.1360 C   0  0  0  0  0  0  0  0  0  0  0  0
   -4.5230   15.9950  -33.8550 N   0  0  0  0  0  0  0  0  0  0  0  0
   -3.1140   16.2960  -33.9670 C   0  0  0  0  0  0  0  0  0  0  0  0
   -2.6650   17.1850  -34.9570 C   0  0  0  0  0  0  0  0  0  0  0  0
   -1.3060   17.4790  -35.0810 C   0  0  0  0  0  0  0  0  0  0  0  0
   -0.3650   16.9100  -34.2020 C   0  0  0  0  0  0  0  0  0  0  0  0
    1.0790   17.2120  -34.3810 C   0  0  0  0  0  0  0  0  0  0  0  0
    1.9410   16.3320  -34.1110 O   0  0  0  0  0  0  0  0  0  0  0  0
    1.5060   18.4580  -34.9560 N   0  0  0  0  0  0  0  0  0  0  0  0
    1.1150   19.7190  -34.2950 C   0  0  0  0  0  0  0  0  0  0  0  0
    1.6250   20.9640  -35.0460 C   0  0  0  0  0  0  0  0  0  0  0  0
    1.6800   20.7460  -36.4410 O   0  0  0  0  0  0  0  0  0  0  0  0
    2.6840   19.7890  -36.7070 C   0  0  0  0  0  0  0  0  0  0  0  0
    2.2350   18.3990  -36.2320 C   0  0  0  0  0  0  0  0  0  0  0  0
   -0.8120   16.0210  -33.2010 C   0  0  0  0  0  0  0  0  0  0  0  0
    0.0950   15.4470  -32.3080 O   0  0  0  0  0  0  0  0  0  0  0  0
   -2.1800   15.7150  -33.0930 C   0  0  0  0  0  0  0  0  0  0  0  0
   -5.4000   16.9860  -33.2930 C   0  0  0  0  0  0  0  0  0  0  0  0
   -6.7580   16.7170  -33.0890 C   0  0  0  0  0  0  0  0  0  0  0  0
   -7.5780   17.7400  -32.6120 C   0  0  0  0  0  0  0  0  0  0  0  0
   -7.0520   18.9690  -32.3640 N   0  0  0  0  0  0  0  0  0  0  0  0
   -5.7320   19.2250  -32.5740 C   0  0  0  0  0  0  0  0  0  0  0  0
   -5.2200   20.3940  -32.3170 N   0  0  0  0  0  0  0  0  0  0  0  0
   -5.9470   21.5600  -31.8980 C   0  0  0  0  0  0  0  0  0  0  0  0
   -7.3080   21.7280  -32.2080 C   0  0  0  0  0  0  0  0  0  0  0  0
   -7.9780   22.8910  -31.8150 C   0  0  0  0  0  0  0  0  0  0  0  0
   -7.2960   23.8980  -31.1230 C   0  0  0  0  0  0  0  0  0  0  0  0
   -5.9320   23.7530  -30.8370 C   0  0  0  0  0  0  0  0  0  0  0  0
   -5.0750   25.0110  -29.9580 S   0  0  0  0  0  0  0  0  0  0  0  0
   -3.4930   25.1890  -30.6160 N   0  0  0  0  0  0  0  0  0  0  0  0
   -4.9730   24.6430  -28.5060 O   0  0  0  0  0  0  0  0  0  0  0  0
   -5.8210   26.3110  -30.0780 O   0  0  0  0  0  0  0  0  0  0  0  0
   -5.2610   22.5850  -31.2310 C   0  0  0  0  0  0  0  0  0  0  0  0
   -4.9220   18.2340  -33.0310 N   0  0  0  0  0  0  0  0  0  0  0  0
   -5.2124   14.1170  -33.1882 H   0  0  0  0  0  0  0  0  0  0  0  0
   -5.9530   14.7057  -34.7151 H   0  0  0  0  0  0  0  0  0  0  0  0
   -4.2667   14.0867  -34.7151 H   0  0  0  0  0  0  0  0  0  0  0  0
   -3.3894   17.6531  -35.6397 H   0  0  0  0  0  0  0  0  0  0  0  0
   -0.9669   18.1622  -35.8736 H   0  0  0  0  0  0  0  0  0  0  0  0
    0.0171   19.7639  -34.2430 H   0  0  0  0  0  0  0  0  0  0  0  0
    1.5689   19.7249  -33.2930 H   0  0  0  0  0  0  0  0  0  0  0  0
    0.9465   21.8057  -34.8431 H   0  0  0  0  0  0  0  0  0  0  0  0
    2.6431   21.1848  -34.6927 H   0  0  0  0  0  0  0  0  0  0  0  0
    2.8777   19.7575  -37.7894 H   0  0  0  0  0  0  0  0  0  0  0  0
    3.6002   20.0725  -36.1683 H   0  0  0  0  0  0  0  0  0  0  0  0
    1.5774   17.9586  -36.9959 H   0  0  0  0  0  0  0  0  0  0  0  0
    3.1358   17.7865  -36.0789 H   0  0  0  0  0  0  0  0  0  0  0  0
    1.0920   15.4320  -32.5000 H   0  0  0  0  0  0  0  0  0  0  0  0
   -2.5221   15.0143  -32.3171 H   0  0  0  0  0  0  0  0  0  0  0  0
   -7.1705   15.7194  -33.3004 H   0  0  0  0  0  0  0  0  0  0  0  0
   -8.6477   17.5527  -32.4369 H   0  0  0  0  0  0  0  0  0  0  0  0
   -7.8465   20.9438  -32.7603 H   0  0  0  0  0  0  0  0  0  0  0  0
   -9.0453   23.0146  -32.0508 H   0  0  0  0  0  0  0  0  0  0  0  0
   -7.8312   24.8043  -30.8032 H   0  0  0  0  0  0  0  0  0  0  0  0
   -3.4980   26.0480  -31.2190 H   0  0  0  0  0  0  0  0  0  0  0  0
   -4.1883   22.4728  -31.0148 H   0  0  0  0  0  0  0  0  0  0  0  0
  1  2  1  0
  2  3  1  0
  3  4  2  0
  4  5  1  0
  5  6  2  0
  6  7  1  0
  7  8  2  0
  7  9  1  0
  9 10  1  0
 10 11  1  0
 11 12  1  0
 12 13  1  0
 13 14  1  0
  6 15  1  0
 15 16  1  0
 15 17  2  0
  2 18  1  0
 18 19  1  0
 19 20  2  0
 20 21  1  0
 21 22  1  0
 22 23  2  3
 23 24  1  0
 24 25  2  0
 25 26  1  0
 26 27  2  0
 27 28  1  0
 28 29  1  0
 29 30  1  0
 29 31  2  0
 29 32  2  0
 28 33  2  0
 22 34  1  0
 17  3  1  0
 34 18  2  0
 14  9  1  0
 33 24  1  0
  1 35  1  0
  1 36  1  0
  1 37  1  0
  4 38  1  0
  5 39  1  0
 10 40  1  0
 10 41  1  0
 11 42  1  0
 11 43  1  0
 13 44  1  0
 13 45  1  0
 14 46  1  0
 14 47  1  0
 16 48  1  0
 17 49  1  0
 19 50  1  0
 20 51  1  0
 25 52  1  0
 26 53  1  0
 27 54  1  0
 30 55  1  0
 33 56  1  0
M  CHG  2  21  -1  30  -1
M  END
>  <UniqueID>  (43) 
41

>  <SMILES>  (43) 
CN(c1ccc(C(=O)N2CCOCC2)c(O)c1)c1cc[n-]c(=Nc2cccc(S([NH-])(=O)=O)c2)n1

>  <Energy>  (43) 
85.62192887369372

>  <Genealogy>  (43) 
CN(c1ccc(C(=O)N2CCOCC2)c(O)c1)c1cc[n-]c(=Nc2cccc(S([NH-])(=O)=O)c2)n1 (protonated)
CN(c1ccc(C(=O)N2CCOCC2)c(O)c1)c1cc[n-]c(=Nc2cccc(S([NH-])(=O)=O)c2)n1 (3D coordinates assigned)
CN(c1ccc(C(=O)N2CCOCC2)c(O)c1)c1cc[n-]c(=Nc2cccc(S([NH-])(=O)=O)c2)n1 (nonaromatic ring conformer: 85.62192887369372 kcal/mol)

>  <smiles>  (43) 
CN(c1ccc(C(=O)N2CCOCC2)c(O)c1)c1cc[nH]c(=Nc2cccc(S(N)(=O)=O)c2)n1

>  <score_type>  (43) 
oracle

>  <origin>  (43) 
adgpu

>  <m_score__min__energy>  (43) 
-10.82

>  <m_primary>  (43) 
energy

$$$$
43:0
     RDKit          3D

 51 54  0  0  0  0  0  0  0  0999 V2000
   -3.0780   21.8180  -27.8200 C   0  0  0  0  0  0  0  0  0  0  0  0
   -2.4590   23.1320  -27.6620 N   0  0  0  0  0  0  0  0  0  0  0  0
   -1.4410   23.4060  -26.8220 C   0  0  0  0  0  0  0  0  0  0  0  0
   -1.0620   24.7270  -26.9550 C   0  0  0  0  0  0  0  0  0  0  0  0
   -1.8870   25.2820  -27.9120 C   0  0  0  0  0  0  0  0  0  0  0  0
   -2.7510   24.2810  -28.3170 C   0  0  0  0  0  0  0  0  0  0  0  0
   -3.8010   24.4560  -29.3400 C   0  0  0  0  0  0  0  0  0  0  0  0
   -3.4830   24.9170  -30.4700 O   0  0  0  0  0  0  0  0  0  0  0  0
   -5.1740   24.1540  -29.0520 N   0  0  0  0  0  0  0  0  0  0  0  0
   -6.2140   24.2280  -30.0730 C   0  0  0  0  0  0  0  0  0  0  0  0
   -6.0290   23.1350  -31.0810 C   0  0  0  0  0  0  0  0  0  0  0  0
   -4.8660   22.8970  -31.7310 N   0  0  0  0  0  0  0  0  0  0  0  0
   -5.0790   21.8970  -32.5760 N   0  0  0  0  0  0  0  0  0  0  0  0
   -4.0520   21.3330  -33.4420 C   0  0  0  0  0  0  0  0  0  0  0  0
   -6.3560   21.4860  -32.4680 C   0  0  0  0  0  0  0  0  0  0  0  0
   -6.9970   22.2660  -31.5510 C   0  0  0  0  0  0  0  0  0  0  0  0
   -8.4160   22.0720  -31.1340 C   0  0  0  0  0  0  0  0  0  0  0  0
   -9.1600   21.1730  -32.1470 C   0  0  0  0  0  0  0  0  0  0  0  0
   -8.3420   20.0490  -32.6720 N   0  0  0  0  0  0  0  0  0  0  0  0
   -8.3080   18.8340  -31.8290 C   0  0  0  0  0  0  0  0  0  0  0  0
   -7.2530   17.8390  -32.2380 C   0  0  0  0  0  0  0  0  0  0  0  0
   -6.3140   17.3640  -31.3090 C   0  0  0  0  0  0  0  0  0  0  0  0
   -5.3760   16.4100  -31.7080 C   0  0  0  0  0  0  0  0  0  0  0  0
   -5.3860   15.9320  -33.0200 C   0  0  0  0  0  0  0  0  0  0  0  0
   -6.3350   16.4240  -33.9180 C   0  0  0  0  0  0  0  0  0  0  0  0
   -7.2430   17.3490  -33.5100 N   0  0  0  0  0  0  0  0  0  0  0  0
   -7.0470   20.4360  -33.2820 C   0  0  0  0  0  0  0  0  0  0  0  0
   -3.2811   21.3868  -26.8286 H   0  0  0  0  0  0  0  0  0  0  0  0
   -4.0220   21.9217  -28.3752 H   0  0  0  0  0  0  0  0  0  0  0  0
   -2.3969   21.1562  -28.3752 H   0  0  0  0  0  0  0  0  0  0  0  0
   -0.9801   22.6836  -26.1322 H   0  0  0  0  0  0  0  0  0  0  0  0
   -0.2582   25.2380  -26.4048 H   0  0  0  0  0  0  0  0  0  0  0  0
   -1.8622   26.3181  -28.2806 H   0  0  0  0  0  0  0  0  0  0  0  0
   -5.4640   23.9600  -28.0690 H   0  0  0  0  0  0  0  0  0  0  0  0
   -7.1994   24.1195  -29.5963 H   0  0  0  0  0  0  0  0  0  0  0  0
   -6.1480   25.2007  -30.5824 H   0  0  0  0  0  0  0  0  0  0  0  0
   -3.2532   20.8943  -32.8259 H   0  0  0  0  0  0  0  0  0  0  0  0
   -4.4960   20.5522  -34.0769 H   0  0  0  0  0  0  0  0  0  0  0  0
   -3.6314   22.1267  -34.0769 H   0  0  0  0  0  0  0  0  0  0  0  0
   -8.4401   21.5966  -30.1423 H   0  0  0  0  0  0  0  0  0  0  0  0
   -8.9130   23.0526  -31.0968 H   0  0  0  0  0  0  0  0  0  0  0  0
  -10.0470   20.7528  -31.6503 H   0  0  0  0  0  0  0  0  0  0  0  0
   -9.4175   21.8083  -33.0073 H   0  0  0  0  0  0  0  0  0  0  0  0
   -8.1135   19.1382  -30.7900 H   0  0  0  0  0  0  0  0  0  0  0  0
   -9.2813   18.3353  -31.9467 H   0  0  0  0  0  0  0  0  0  0  0  0
   -6.3172   17.7402  -30.2754 H   0  0  0  0  0  0  0  0  0  0  0  0
   -4.6309   16.0358  -30.9906 H   0  0  0  0  0  0  0  0  0  0  0  0
   -4.6545   15.1764  -33.3423 H   0  0  0  0  0  0  0  0  0  0  0  0
   -6.3477   16.0625  -34.9568 H   0  0  0  0  0  0  0  0  0  0  0  0
   -6.4007   19.5481  -33.3450 H   0  0  0  0  0  0  0  0  0  0  0  0
   -7.2430   20.8456  -34.2839 H   0  0  0  0  0  0  0  0  0  0  0  0
  1  2  1  0
  2  3  1  0
  3  4  2  0
  4  5  1  0
  5  6  2  0
  6  7  1  0
  7  8  2  0
  7  9  1  0
  9 10  1  0
 10 11  1  0
 11 12  2  0
 12 13  1  0
 13 14  1  0
 13 15  1  0
 15 16  2  0
 16 17  1  0
 17 18  1  0
 18 19  1  0
 19 20  1  0
 20 21  1  0
 21 22  2  0
 22 23  1  0
 23 24  2  0
 24 25  1  0
 25 26  2  0
 19 27  1  0
  6  2  1  0
 16 11  1  0
 26 21  1  0
 27 15  1  0
  1 28  1  0
  1 29  1  0
  1 30  1  0
  3 31  1  0
  4 32  1  0
  5 33  1  0
  9 34  1  0
 10 35  1  0
 10 36  1  0
 14 37  1  0
 14 38  1  0
 14 39  1  0
 17 40  1  0
 17 41  1  0
 18 42  1  0
 18 43  1  0
 20 44  1  0
 20 45  1  0
 22 46  1  0
 23 47  1  0
 24 48  1  0
 25 49  1  0
 27 50  1  0
 27 51  1  0
M  END
>  <UniqueID>  (44) 
42

>  <SMILES>  (44) 
Cn1cccc1C(=O)NCc1nn(C)c2c1CCN(Cc1ccccn1)C2

>  <Energy>  (44) 
118.27426471439797

>  <Genealogy>  (44) 
Cn1cccc1C(=O)NCc1nn(C)c2c1CCN(Cc1ccccn1)C2 (3D coordinates assigned)
Cn1cccc1C(=O)NCc1nn(C)c2c1CCN(Cc1ccccn1)C2 (nonaromatic ring conformer: 118.27426471439797 kcal/mol)

>  <smiles>  (44) 
Cn1cccc1C(=O)NCc1nn(C)c2c1CCN(Cc1ccccn1)C2

>  <score_type>  (44) 
oracle

>  <origin>  (44) 
adgpu

>  <m_score__min__energy>  (44) 
-9.7799999999999994

>  <m_primary>  (44) 
energy

$$$$
44:0
     RDKit          3D

 56 59  0  0  0  0  0  0  0  0999 V2000
    1.1420   18.3730  -28.2800 C   0  0  0  0  0  0  0  0  0  0  0  0
   -0.0620   19.3140  -28.4440 C   0  0  2  0  0  0  0  0  0  0  0  0
    0.2590   20.7080  -27.8480 C   0  0  0  0  0  0  0  0  0  0  0  0
   -0.9740   21.3910  -27.4450 N   0  0  0  0  0  0  0  0  0  0  0  0
   -1.1690   22.7790  -27.7620 C   0  0  0  0  0  0  0  0  0  0  0  0
   -2.0390   23.1480  -28.8010 C   0  0  0  0  0  0  0  0  0  0  0  0
   -2.2530   24.5020  -29.1040 C   0  0  0  0  0  0  0  0  0  0  0  0
   -3.1360   24.9160  -30.1520 N   0  0  0  0  0  0  0  0  0  0  0  0
   -4.8540   24.6560  -30.1930 S   0  0  0  0  0  0  0  0  0  0  0  0
   -5.5620   25.7270  -30.9720 O   0  0  0  0  0  0  0  0  0  0  0  0
   -5.3720   24.6650  -28.7830 O   0  0  0  0  0  0  0  0  0  0  0  0
   -5.1680   23.1020  -30.9560 C   0  0  0  0  0  0  0  0  0  0  0  0
   -6.3690   22.8630  -31.6350 C   0  0  0  0  0  0  0  0  0  0  0  0
   -6.6030   21.6230  -32.2350 C   0  0  0  0  0  0  0  0  0  0  0  0
   -5.6330   20.6050  -32.1740 C   0  0  0  0  0  0  0  0  0  0  0  0
   -5.8710   19.3170  -32.7790 N   0  0  0  0  0  0  0  0  0  0  0  0
   -6.9970   18.4400  -32.4810 C   0  0  0  0  0  0  0  0  0  0  0  0
   -6.8970   17.2710  -33.4900 C   0  0  0  0  0  0  0  0  0  0  0  0
   -5.6610   17.4740  -34.2360 N   0  0  0  0  0  0  0  0  0  0  0  0
   -5.1010   18.6860  -33.7850 C   0  0  0  0  0  0  0  0  0  0  0  0
   -3.9900   19.1170  -34.1970 O   0  0  0  0  0  0  0  0  0  0  0  0
   -4.4360   20.8500  -31.4790 C   0  0  0  0  0  0  0  0  0  0  0  0
   -4.2040   22.0900  -30.8790 C   0  0  0  0  0  0  0  0  0  0  0  0
   -1.5480   25.4830  -28.3980 C   0  0  0  0  0  0  0  0  0  0  0  0
   -0.6760   25.1240  -27.3680 C   0  0  0  0  0  0  0  0  0  0  0  0
   -0.4840   23.7740  -27.0430 C   0  0  0  0  0  0  0  0  0  0  0  0
    0.3970   23.4180  -26.0240 O   0  0  0  0  0  0  0  0  0  0  0  0
   -1.9450   20.6890  -26.5990 C   0  0  0  0  0  0  0  0  0  0  0  0
   -1.6270   19.1850  -26.5410 C   0  0  1  0  0  0  0  0  0  0  0  0
   -2.8200   18.4090  -25.9750 C   0  0  0  0  0  0  0  0  0  0  0  0
   -1.3030   18.7130  -27.8960 N   0  0  0  0  0  0  0  0  0  0  0  0
    1.3421   18.2166  -27.2097 H   0  0  0  0  0  0  0  0  0  0  0  0
    0.9198   17.4068  -28.7565 H   0  0  0  0  0  0  0  0  0  0  0  0
    2.0259   18.8221  -28.7565 H   0  0  0  0  0  0  0  0  0  0  0  0
   -0.2542   19.4609  -29.5171 H   0  0  0  0  0  0  0  0  0  0  0  0
    0.9084   20.5848  -26.9688 H   0  0  0  0  0  0  0  0  0  0  0  0
    0.7670   21.3134  -28.6132 H   0  0  0  0  0  0  0  0  0  0  0  0
   -2.5566   22.3703  -29.3817 H   0  0  0  0  0  0  0  0  0  0  0  0
   -7.1309   23.6541  -31.6963 H   0  0  0  0  0  0  0  0  0  0  0  0
   -7.5528   21.4410  -32.7592 H   0  0  0  0  0  0  0  0  0  0  0  0
   -6.9272   18.0634  -31.4498 H   0  0  0  0  0  0  0  0  0  0  0  0
   -7.9574   18.9694  -32.5674 H   0  0  0  0  0  0  0  0  0  0  0  0
   -6.8654   16.3097  -32.9562 H   0  0  0  0  0  0  0  0  0  0  0  0
   -7.7682   17.2487  -34.1612 H   0  0  0  0  0  0  0  0  0  0  0  0
   -3.6755   20.0585  -31.4070 H   0  0  0  0  0  0  0  0  0  0  0  0
   -3.2602   22.2718  -30.3440 H   0  0  0  0  0  0  0  0  0  0  0  0
   -1.6815   26.5440  -28.6560 H   0  0  0  0  0  0  0  0  0  0  0  0
   -0.1376   25.9038  -26.8094 H   0  0  0  0  0  0  0  0  0  0  0  0
    0.3820   23.8820  -25.1230 H   0  0  0  0  0  0  0  0  0  0  0  0
   -1.9060   21.1060  -25.5819 H   0  0  0  0  0  0  0  0  0  0  0  0
   -2.9494   20.8223  -27.0273 H   0  0  0  0  0  0  0  0  0  0  0  0
   -0.7658   19.0161  -25.8779 H   0  0  0  0  0  0  0  0  0  0  0  0
   -2.7843   18.4322  -24.8758 H   0  0  0  0  0  0  0  0  0  0  0  0
   -3.7560   18.8716  -26.3213 H   0  0  0  0  0  0  0  0  0  0  0  0
   -2.7765   17.3659  -26.3213 H   0  0  0  0  0  0  0  0  0  0  0  0
   -1.2320   17.6680  -27.8990 H   0  0  0  0  0  0  0  0  0  0  0  0
  1  2  1  0
  2  3  1  0
  3  4  1  0
  4  5  1  0
  5  6  2  0
  6  7  1  0
  7  8  1  0
  8  9  1  0
  9 10  2  0
  9 11  2  0
  9 12  1  0
 12 13  2  0
 13 14  1  0
 14 15  2  0
 15 16  1  0
 16 17  1  0
 17 18  1  0
 18 19  1  0
 19 20  1  0
 20 21  2  0
 15 22  1  0
 22 23  2  0
  7 24  2  0
 24 25  1  0
 25 26  2  0
 26 27  1  0
  4 28  1  0
 28 29  1  0
 29 30  1  0
 29 31  1  0
 31  2  1  0
 26  5  1  0
 23 12  1  0
 20 16  1  0
  1 32  1  0
  1 33  1  0
  1 34  1  0
  2 35  1  6
  3 36  1  0
  3 37  1  0
  6 38  1  0
 13 39  1  0
 14 40  1  0
 17 41  1  0
 17 42  1  0
 18 43  1  0
 18 44  1  0
 22 45  1  0
 23 46  1  0
 24 47  1  0
 25 48  1  0
 27 49  1  0
 28 50  1  0
 28 51  1  0
 29 52  1  1
 30 53  1  0
 30 54  1  0
 30 55  1  0
 31 56  1  0
M  CHG  2   8  -1  19  -1
M  END
>  <UniqueID>  (45) 
43

>  <SMILES>  (45) 
C[C@@H]1CN(c2cc([N-]S(=O)(=O)c3ccc(N4CC[N-]C4=O)cc3)ccc2O)C[C@@H](C)N1

>  <Energy>  (45) 
90.2296200325764

>  <Genealogy>  (45) 
CC1CN(c2cc([N-]S(=O)(=O)c3ccc(N4CC[N-]C4=O)cc3)ccc2O)CC(C)N1 (protonated)
C[C@@H]1CN(c2cc([N-]S(=O)(=O)c3ccc(N4CC[N-]C4=O)cc3)ccc2O)C[C@@H](C)N1 (chirality)
C[C@@H]1CN(c2cc([N-]S(=O)(=O)c3ccc(N4CC[N-]C4=O)cc3)ccc2O)C[C@@H](C)N1 (3D coordinates assigned)
C[C@@H]1CN(c2cc([N-]S(=O)(=O)c3ccc(N4CC[N-]C4=O)cc3)ccc2O)C[C@@H](C)N1 (nonaromatic ring conformer: 90.2296200325764 kcal/mol)

>  <smiles>  (45) 
CC1CN(c2cc(NS(=O)(=O)c3ccc(N4CCNC4=O)cc3)ccc2O)CC(C)N1

>  <score_type>  (45) 
oracle

>  <origin>  (45) 
adgpu

>  <m_score__min__energy>  (45) 
-11.1

>  <m_primary>  (45) 
energy

$$$$
45:0
     RDKit          3D

 62 65  0  0  0  0  0  0  0  0999 V2000
   -1.1380   24.3260  -28.0300 C   0  0  0  0  0  0  0  0  0  0  0  0
   -2.1800   23.5880  -27.2930 N   0  0  0  0  0  0  0  0  0  0  0  0
   -2.7080   22.4480  -28.0700 C   0  0  0  0  0  0  0  0  0  0  0  0
   -3.6100   22.8880  -29.2480 C   0  0  0  0  0  0  0  0  0  0  0  0
   -4.0610   24.2840  -29.1050 N   0  0  0  0  0  0  0  0  0  0  0  0
   -5.3610   24.6270  -30.2180 S   0  0  0  0  0  0  0  0  0  0  0  0
   -6.5340   25.1730  -29.4530 O   0  0  0  0  0  0  0  0  0  0  0  0
   -4.9190   25.6750  -31.2010 O   0  0  0  0  0  0  0  0  0  0  0  0
   -5.8680   23.1790  -31.0950 C   0  0  0  0  0  0  0  0  0  0  0  0
   -7.1240   22.6100  -30.8450 C   0  0  0  0  0  0  0  0  0  0  0  0
   -7.5320   21.4700  -31.5430 C   0  0  0  0  0  0  0  0  0  0  0  0
   -6.6970   20.8940  -32.5120 C   0  0  0  0  0  0  0  0  0  0  0  0
   -7.1400   19.7210  -33.2100 N   0  0  0  0  0  0  0  0  0  0  0  0
   -7.2620   18.4220  -32.6000 C   0  0  0  0  0  0  0  0  0  0  0  0
   -7.2800   18.3020  -31.3470 O   0  0  0  0  0  0  0  0  0  0  0  0
   -7.3870   17.2450  -33.4070 N   0  0  0  0  0  0  0  0  0  0  0  0
   -6.3070   16.4150  -33.8570 C   0  0  0  0  0  0  0  0  0  0  0  0
   -6.4830   15.0280  -33.8900 C   0  0  0  0  0  0  0  0  0  0  0  0
   -5.4450   14.1910  -34.3100 C   0  0  0  0  0  0  0  0  0  0  0  0
   -4.2140   14.7340  -34.7000 C   0  0  0  0  0  0  0  0  0  0  0  0
   -2.9040   13.6790  -35.2430 S   0  0  0  0  0  0  0  0  0  0  0  0
   -1.8420   14.5140  -35.9030 O   0  0  0  0  0  0  0  0  0  0  0  0
   -3.4390   12.7150  -36.2660 O   0  0  0  0  0  0  0  0  0  0  0  0
   -2.1920   12.7770  -33.9220 N   0  0  0  0  0  0  0  0  0  0  0  0
   -3.0680   11.6760  -33.4840 C   0  0  0  0  0  0  0  0  0  0  0  0
   -3.3220   11.8360  -31.9910 C   0  0  0  0  0  0  0  0  0  0  0  0
   -2.9890   13.2770  -31.6970 C   0  0  0  0  0  0  0  0  0  0  0  0
   -1.9540   13.6340  -32.7500 C   0  0  0  0  0  0  0  0  0  0  0  0
   -4.0230   16.1230  -34.6360 C   0  0  0  0  0  0  0  0  0  0  0  0
   -5.0570   16.9570  -34.2080 C   0  0  0  0  0  0  0  0  0  0  0  0
   -5.4260   21.4490  -32.7400 C   0  0  0  0  0  0  0  0  0  0  0  0
   -5.0190   22.5890  -32.0420 C   0  0  0  0  0  0  0  0  0  0  0  0
   -4.4770   24.5540  -27.7230 C   0  0  0  0  0  0  0  0  0  0  0  0
   -3.2560   24.4770  -26.7870 C   0  0  0  0  0  0  0  0  0  0  0  0
   -0.4558   24.8092  -27.3151 H   0  0  0  0  0  0  0  0  0  0  0  0
   -0.5713   23.6268  -28.6624 H   0  0  0  0  0  0  0  0  0  0  0  0
   -1.6095   25.0927  -28.6624 H   0  0  0  0  0  0  0  0  0  0  0  0
   -1.8598   21.8748  -28.4725 H   0  0  0  0  0  0  0  0  0  0  0  0
   -3.3253   21.8428  -27.3899 H   0  0  0  0  0  0  0  0  0  0  0  0
   -3.0423   22.7922  -30.1853 H   0  0  0  0  0  0  0  0  0  0  0  0
   -4.5001   22.2418  -29.2549 H   0  0  0  0  0  0  0  0  0  0  0  0
   -7.7913   23.0623  -30.0966 H   0  0  0  0  0  0  0  0  0  0  0  0
   -8.5139   21.0216  -31.3313 H   0  0  0  0  0  0  0  0  0  0  0  0
   -7.2490   19.7920  -34.2470 H   0  0  0  0  0  0  0  0  0  0  0  0
   -7.4453   14.5924  -33.5832 H   0  0  0  0  0  0  0  0  0  0  0  0
   -5.5955   13.1016  -34.3343 H   0  0  0  0  0  0  0  0  0  0  0  0
   -4.0216   11.7187  -34.0307 H   0  0  0  0  0  0  0  0  0  0  0  0
   -2.5900   10.7062  -33.6866 H   0  0  0  0  0  0  0  0  0  0  0  0
   -4.3748   11.6248  -31.7520 H   0  0  0  0  0  0  0  0  0  0  0  0
   -2.7195   11.1392  -31.3898 H   0  0  0  0  0  0  0  0  0  0  0  0
   -3.8815   13.9127  -31.7939 H   0  0  0  0  0  0  0  0  0  0  0  0
   -2.6205   13.4269  -30.6715 H   0  0  0  0  0  0  0  0  0  0  0  0
   -2.0572   14.6920  -33.0327 H   0  0  0  0  0  0  0  0  0  0  0  0
   -0.9378   13.4774  -32.3591 H   0  0  0  0  0  0  0  0  0  0  0  0
   -3.0539   16.5563  -34.9245 H   0  0  0  0  0  0  0  0  0  0  0  0
   -4.8939   18.0430  -34.1448 H   0  0  0  0  0  0  0  0  0  0  0  0
   -4.7486   20.9838  -33.4712 H   0  0  0  0  0  0  0  0  0  0  0  0
   -4.0282   23.0255  -32.2363 H   0  0  0  0  0  0  0  0  0  0  0  0
   -4.9194   25.5594  -27.6644 H   0  0  0  0  0  0  0  0  0  0  0  0
   -5.2200   23.8040  -27.4139 H   0  0  0  0  0  0  0  0  0  0  0  0
   -2.8440   25.4899  -26.6674 H   0  0  0  0  0  0  0  0  0  0  0  0
   -3.6044   24.0544  -25.8330 H   0  0  0  0  0  0  0  0  0  0  0  0
  1  2  1  0
  2  3  1  0
  3  4  1  0
  4  5  1  0
  5  6  1  0
  6  7  2  0
  6  8  2  0
  6  9  1  0
  9 10  2  0
 10 11  1  0
 11 12  2  0
 12 13  1  0
 13 14  1  0
 14 15  2  0
 14 16  1  0
 16 17  1  0
 17 18  2  0
 18 19  1  0
 19 20  2  0
 20 21  1  0
 21 22  2  0
 21 23  2  0
 21 24  1  0
 24 25  1  0
 25 26  1  0
 26 27  1  0
 27 28  1  0
 20 29  1  0
 29 30  2  0
 12 31  1  0
 31 32  2  0
  5 33  1  0
 33 34  1  0
 34  2  1  0
 32  9  1  0
 30 17  1  0
 28 24  1  0
  1 35  1  0
  1 36  1  0
  1 37  1  0
  3 38  1  0
  3 39  1  0
  4 40  1  0
  4 41  1  0
 10 42  1  0
 11 43  1  0
 13 44  1  0
 18 45  1  0
 19 46  1  0
 25 47  1  0
 25 48  1  0
 26 49  1  0
 26 50  1  0
 27 51  1  0
 27 52  1  0
 28 53  1  0
 28 54  1  0
 29 55  1  0
 30 56  1  0
 31 57  1  0
 32 58  1  0
 33 59  1  0
 33 60  1  0
 34 61  1  0
 34 62  1  0
M  CHG  1  16  -1
M  END
>  <UniqueID>  (46) 
44

>  <SMILES>  (46) 
CN1CCN(S(=O)(=O)c2ccc(NC(=O)[N-]c3ccc(S(=O)(=O)N4CCCC4)cc3)cc2)CC1

>  <Energy>  (46) 
81.58048017141431

>  <Genealogy>  (46) 
CN1CCN(S(=O)(=O)c2ccc(NC(=O)[N-]c3ccc(S(=O)(=O)N4CCCC4)cc3)cc2)CC1 (protonated)
CN1CCN(S(=O)(=O)c2ccc(NC(=O)[N-]c3ccc(S(=O)(=O)N4CCCC4)cc3)cc2)CC1 (3D coordinates assigned)
CN1CCN(S(=O)(=O)c2ccc(NC(=O)[N-]c3ccc(S(=O)(=O)N4CCCC4)cc3)cc2)CC1 (nonaromatic ring conformer: 81.58048017141431 kcal/mol)

>  <smiles>  (46) 
CN1CCN(S(=O)(=O)c2ccc(NC(=O)Nc3ccc(S(=O)(=O)N4CCCC4)cc3)cc2)CC1

>  <score_type>  (46) 
oracle

>  <origin>  (46) 
adgpu

>  <m_score__min__energy>  (46) 
-11.529999999999999

>  <m_primary>  (46) 
energy

$$$$
46:0
     RDKit          3D

 43 45  0  0  0  0  0  0  0  0999 V2000
   -4.5080   24.6970  -28.6320 O   0  0  0  0  0  0  0  0  0  0  0  0
   -4.2010   24.3860  -30.0720 S   0  0  0  0  0  0  0  0  0  0  0  0
   -4.2450   25.6630  -30.8630 O   0  0  0  0  0  0  0  0  0  0  0  0
   -2.6070   23.7130  -30.1680 N   0  0  0  0  0  0  0  0  0  0  0  0
   -1.6700   23.6500  -29.0820 C   0  0  0  0  0  0  0  0  0  0  0  0
   -1.3830   22.4430  -28.4140 C   0  0  0  0  0  0  0  0  0  0  0  0
   -0.4400   22.4170  -27.3810 C   0  0  0  0  0  0  0  0  0  0  0  0
    0.2160   23.5890  -27.0010 C   0  0  0  0  0  0  0  0  0  0  0  0
   -0.0690   24.7910  -27.6520 C   0  0  0  0  0  0  0  0  0  0  0  0
   -1.0080   24.8240  -28.6900 C   0  0  0  0  0  0  0  0  0  0  0  0
   -1.2740   26.0260  -29.3350 O   0  0  0  0  0  0  0  0  0  0  0  0
   -5.3670   23.2490  -30.7600 C   0  0  0  0  0  0  0  0  0  0  0  0
   -4.8980   22.2330  -31.6030 C   0  0  0  0  0  0  0  0  0  0  0  0
   -5.7800   21.2870  -32.1420 C   0  0  0  0  0  0  0  0  0  0  0  0
   -5.1810   20.0030  -33.1980 S   0  0  0  0  0  0  0  0  0  0  0  0
   -6.1120   19.8760  -34.3710 O   0  0  0  0  0  0  0  0  0  0  0  0
   -3.8290   20.3960  -33.7280 O   0  0  0  0  0  0  0  0  0  0  0  0
   -5.0740   18.4460  -32.3990 N   0  0  0  0  0  0  0  0  0  0  0  0
   -4.9420   17.3230  -33.3510 C   0  0  0  0  0  0  0  0  0  0  0  0
   -6.2730   16.5890  -33.5970 C   0  0  0  0  0  0  0  0  0  0  0  0
   -7.3610   17.4670  -33.4220 O   0  0  0  0  0  0  0  0  0  0  0  0
   -7.4830   17.8170  -32.0560 C   0  0  0  0  0  0  0  0  0  0  0  0
   -6.1440   18.2340  -31.4080 C   0  0  0  0  0  0  0  0  0  0  0  0
   -7.1480   21.3800  -31.8550 C   0  0  0  0  0  0  0  0  0  0  0  0
   -7.6260   22.3970  -31.0280 C   0  0  0  0  0  0  0  0  0  0  0  0
   -6.7440   23.3370  -30.4770 C   0  0  0  0  0  0  0  0  0  0  0  0
   -7.2380   24.3520  -29.6600 O   0  0  0  0  0  0  0  0  0  0  0  0
   -1.9022   21.5181  -28.7057 H   0  0  0  0  0  0  0  0  0  0  0  0
   -0.2150   21.4708  -26.8671 H   0  0  0  0  0  0  0  0  0  0  0  0
    0.9574   23.5657  -26.1888 H   0  0  0  0  0  0  0  0  0  0  0  0
    0.4457   25.7146  -27.3485 H   0  0  0  0  0  0  0  0  0  0  0  0
   -3.8262   22.1774  -31.8442 H   0  0  0  0  0  0  0  0  0  0  0  0
   -4.5755   17.7169  -34.3104 H   0  0  0  0  0  0  0  0  0  0  0  0
   -4.2404   16.5981  -32.9125 H   0  0  0  0  0  0  0  0  0  0  0  0
   -6.2857   16.1974  -34.6248 H   0  0  0  0  0  0  0  0  0  0  0  0
   -6.3625   15.7637  -32.8753 H   0  0  0  0  0  0  0  0  0  0  0  0
   -8.1874   18.6578  -31.9730 H   0  0  0  0  0  0  0  0  0  0  0  0
   -7.8380   16.9232  -31.5220 H   0  0  0  0  0  0  0  0  0  0  0  0
   -6.2988   19.1702  -30.8516 H   0  0  0  0  0  0  0  0  0  0  0  0
   -5.8261   17.4150  -30.7460 H   0  0  0  0  0  0  0  0  0  0  0  0
   -7.8484   20.6480  -32.2835 H   0  0  0  0  0  0  0  0  0  0  0  0
   -8.7016   22.4616  -30.8070 H   0  0  0  0  0  0  0  0  0  0  0  0
   -6.7020   24.7180  -28.8820 H   0  0  0  0  0  0  0  0  0  0  0  0
  1  2  2  0
  2  3  2  0
  2  4  1  0
  4  5  1  0
  5  6  2  0
  6  7  1  0
  7  8  2  0
  8  9  1  0
  9 10  2  0
 10 11  1  0
  2 12  1  0
 12 13  2  0
 13 14  1  0
 14 15  1  0
 15 16  2  0
 15 17  2  0
 15 18  1  0
 18 19  1  0
 19 20  1  0
 20 21  1  0
 21 22  1  0
 22 23  1  0
 14 24  2  0
 24 25  1  0
 25 26  2  0
 26 27  1  0
 10  5  1  0
 26 12  1  0
 23 18  1  0
  6 28  1  0
  7 29  1  0
  8 30  1  0
  9 31  1  0
 13 32  1  0
 19 33  1  0
 19 34  1  0
 20 35  1  0
 20 36  1  0
 22 37  1  0
 22 38  1  0
 23 39  1  0
 23 40  1  0
 24 41  1  0
 25 42  1  0
 27 43  1  0
M  CHG  2   4  -1  11  -1
M  END
>  <UniqueID>  (47) 
45

>  <SMILES>  (47) 
O=S(=O)([N-]c1ccccc1[O-])c1cc(S(=O)(=O)N2CCOCC2)ccc1O

>  <Energy>  (47) 
56.458133650115045

>  <Genealogy>  (47) 
O=S(=O)([N-]c1ccccc1[O-])c1cc(S(=O)(=O)N2CCOCC2)ccc1O (protonated)
O=S(=O)([N-]c1ccccc1[O-])c1cc(S(=O)(=O)N2CCOCC2)ccc1O (3D coordinates assigned)
O=S(=O)([N-]c1ccccc1[O-])c1cc(S(=O)(=O)N2CCOCC2)ccc1O (nonaromatic ring conformer: 56.458133650115045 kcal/mol)

>  <smiles>  (47) 
O=S(=O)(Nc1ccccc1O)c1cc(S(=O)(=O)N2CCOCC2)ccc1O

>  <score_type>  (47) 
oracle

>  <origin>  (47) 
adgpu

>  <m_score__min__energy>  (47) 
-12.789999999999999

>  <m_primary>  (47) 
energy

$$$$
47:0
     RDKit          3D

 57 60  0  0  0  0  0  0  0  0999 V2000
    0.9580   17.7600  -29.1220 O   0  0  0  0  0  0  0  0  0  0  0  0
    0.4500   18.8210  -29.5700 C   0  0  0  0  0  0  0  0  0  0  0  0
    0.5320   19.0790  -30.9790 N   0  0  0  0  0  0  0  0  0  0  0  0
   -0.5010   19.6550  -31.7920 C   0  0  0  0  0  0  0  0  0  0  0  0
   -0.3810   20.9480  -32.3290 C   0  0  0  0  0  0  0  0  0  0  0  0
   -1.4110   21.4840  -33.1060 C   0  0  0  0  0  0  0  0  0  0  0  0
   -2.5610   20.7340  -33.3560 C   0  0  0  0  0  0  0  0  0  0  0  0
   -2.6800   19.4340  -32.8470 C   0  0  0  0  0  0  0  0  0  0  0  0
   -4.1430   18.5070  -33.1630 S   0  0  0  0  0  0  0  0  0  0  0  0
   -4.4250   18.5400  -34.6390 O   0  0  0  0  0  0  0  0  0  0  0  0
   -3.9550   17.0790  -32.7340 O   0  0  0  0  0  0  0  0  0  0  0  0
   -5.4810   19.2110  -32.2870 N   0  0  0  0  0  0  0  0  0  0  0  0
   -6.2490   18.1690  -31.5590 C   0  0  0  0  0  0  0  0  0  0  0  0
   -7.5640   17.7960  -32.2570 C   0  0  0  0  0  0  0  0  0  0  0  0
   -8.4750   19.0260  -32.4140 C   0  0  0  0  0  0  0  0  0  0  0  0
   -7.6810   20.3290  -32.6150 C   0  0  0  0  0  0  0  0  0  0  0  0
   -6.2910   20.0490  -33.1980 C   0  0  0  0  0  0  0  0  0  0  0  0
   -1.6410   18.8940  -32.0750 C   0  0  0  0  0  0  0  0  0  0  0  0
   -0.2550   19.7390  -28.6430 C   0  0  0  0  0  0  0  0  0  0  0  0
   -0.9680   19.2400  -27.5380 C   0  0  0  0  0  0  0  0  0  0  0  0
   -1.6300   20.1130  -26.6720 C   0  0  0  0  0  0  0  0  0  0  0  0
   -1.5810   21.4910  -26.8920 C   0  0  0  0  0  0  0  0  0  0  0  0
   -0.8580   22.0040  -27.9770 C   0  0  0  0  0  0  0  0  0  0  0  0
   -0.7680   23.7410  -28.2600 S   0  0  0  0  0  0  0  0  0  0  0  0
    0.6550   24.1810  -28.4680 O   0  0  0  0  0  0  0  0  0  0  0  0
   -1.3210   24.4570  -27.0600 O   0  0  0  0  0  0  0  0  0  0  0  0
   -1.7100   24.1570  -29.6550 N   0  0  0  0  0  0  0  0  0  0  0  0
   -2.9160   23.5000  -30.0700 C   0  0  0  0  0  0  0  0  0  0  0  0
   -3.0600   22.1000  -30.0160 C   0  0  0  0  0  0  0  0  0  0  0  0
   -4.2500   21.4980  -30.4380 C   0  0  0  0  0  0  0  0  0  0  0  0
   -5.3000   22.2790  -30.9220 C   0  0  0  0  0  0  0  0  0  0  0  0
   -5.1680   23.6690  -30.9720 C   0  0  0  0  0  0  0  0  0  0  0  0
   -3.9830   24.2790  -30.5450 C   0  0  0  0  0  0  0  0  0  0  0  0
   -3.8690   25.6630  -30.5990 O   0  0  0  0  0  0  0  0  0  0  0  0
   -0.1940   21.1280  -28.8450 C   0  0  0  0  0  0  0  0  0  0  0  0
    0.5262   21.5397  -32.1371 H   0  0  0  0  0  0  0  0  0  0  0  0
   -1.3154   22.4982  -33.5211 H   0  0  0  0  0  0  0  0  0  0  0  0
   -3.3769   21.1649  -33.9548 H   0  0  0  0  0  0  0  0  0  0  0  0
   -5.6260   17.2659  -31.4793 H   0  0  0  0  0  0  0  0  0  0  0  0
   -6.5056   18.5793  -30.5712 H   0  0  0  0  0  0  0  0  0  0  0  0
   -7.3388   17.3861  -33.2526 H   0  0  0  0  0  0  0  0  0  0  0  0
   -8.0872   17.0495  -31.6414 H   0  0  0  0  0  0  0  0  0  0  0  0
   -9.1268   18.8725  -33.2867 H   0  0  0  0  0  0  0  0  0  0  0  0
   -9.0568   19.1302  -31.4863 H   0  0  0  0  0  0  0  0  0  0  0  0
   -8.2341   20.9830  -33.3052 H   0  0  0  0  0  0  0  0  0  0  0  0
   -7.5559   20.8143  -31.6358 H   0  0  0  0  0  0  0  0  0  0  0  0
   -6.4049   19.5257  -34.1588 H   0  0  0  0  0  0  0  0  0  0  0  0
   -5.7737   21.0100  -33.3351 H   0  0  0  0  0  0  0  0  0  0  0  0
   -1.7225   17.8669  -31.6899 H   0  0  0  0  0  0  0  0  0  0  0  0
   -1.0044   18.1560  -27.3549 H   0  0  0  0  0  0  0  0  0  0  0  0
   -2.1915   19.7140  -25.8144 H   0  0  0  0  0  0  0  0  0  0  0  0
   -2.1108   22.1748  -26.2125 H   0  0  0  0  0  0  0  0  0  0  0  0
   -2.2340   21.4780  -29.6408 H   0  0  0  0  0  0  0  0  0  0  0  0
   -4.3584   20.4045  -30.3881 H   0  0  0  0  0  0  0  0  0  0  0  0
   -6.2301   21.8012  -31.2636 H   0  0  0  0  0  0  0  0  0  0  0  0
   -5.9977   24.2856  -31.3480 H   0  0  0  0  0  0  0  0  0  0  0  0
    0.3802   21.5310  -29.6922 H   0  0  0  0  0  0  0  0  0  0  0  0
  1  2  2  0
  2  3  1  0
  3  4  1  0
  4  5  2  0
  5  6  1  0
  6  7  2  0
  7  8  1  0
  8  9  1  0
  9 10  2  0
  9 11  2  0
  9 12  1  0
 12 13  1  0
 13 14  1  0
 14 15  1  0
 15 16  1  0
 16 17  1  0
  8 18  2  0
  2 19  1  0
 19 20  2  0
 20 21  1  0
 21 22  2  0
 22 23  1  0
 23 24  1  0
 24 25  2  0
 24 26  2  0
 24 27  1  0
 27 28  1  0
 28 29  2  0
 29 30  1  0
 30 31  2  0
 31 32  1  0
 32 33  2  0
 33 34  1  0
 23 35  2  0
 18  4  1  0
 35 19  1  0
 17 12  1  0
 33 28  1  0
  5 36  1  0
  6 37  1  0
  7 38  1  0
 13 39  1  0
 13 40  1  0
 14 41  1  0
 14 42  1  0
 15 43  1  0
 15 44  1  0
 16 45  1  0
 16 46  1  0
 17 47  1  0
 17 48  1  0
 18 49  1  0
 20 50  1  0
 21 51  1  0
 22 52  1  0
 29 53  1  0
 30 54  1  0
 31 55  1  0
 32 56  1  0
 35 57  1  0
M  CHG  3   3  -1  27  -1  34  -1
M  END
>  <UniqueID>  (48) 
46

>  <SMILES>  (48) 
O=C([N-]c1cccc(S(=O)(=O)N2CCCCC2)c1)c1cccc(S(=O)(=O)[N-]c2ccccc2[O-])c1

>  <Energy>  (48) 
75.97977679776808

>  <Genealogy>  (48) 
O=C([N-]c1cccc(S(=O)(=O)N2CCCCC2)c1)c1cccc(S(=O)(=O)[N-]c2ccccc2[O-])c1 (protonated)
O=C([N-]c1cccc(S(=O)(=O)N2CCCCC2)c1)c1cccc(S(=O)(=O)[N-]c2ccccc2[O-])c1 (3D coordinates assigned)
O=C([N-]c1cccc(S(=O)(=O)N2CCCCC2)c1)c1cccc(S(=O)(=O)[N-]c2ccccc2[O-])c1 (nonaromatic ring conformer: 75.97977679776808 kcal/mol)

>  <smiles>  (48) 
O=C(Nc1cccc(S(=O)(=O)N2CCCCC2)c1)c1cccc(S(=O)(=O)Nc2ccccc2O)c1

>  <score_type>  (48) 
oracle

>  <origin>  (48) 
adgpu

>  <m_score__min__energy>  (48) 
-14.59

>  <m_primary>  (48) 
energy

$$$$
48:0
     RDKit          3D

 59 62  0  0  0  0  0  0  0  0999 V2000
   -3.8350   25.3010  -30.4400 O   0  0  0  0  0  0  0  0  0  0  0  0
   -3.4110   24.1150  -30.4250 C   0  0  0  0  0  0  0  0  0  0  0  0
   -3.6860   23.2670  -31.5500 N   0  0  0  0  0  0  0  0  0  0  0  0
   -4.8120   22.3890  -31.6910 C   0  0  0  0  0  0  0  0  0  0  0  0
   -4.8290   21.4690  -32.7480 C   0  0  0  0  0  0  0  0  0  0  0  0
   -5.8860   20.5650  -32.8810 C   0  0  0  0  0  0  0  0  0  0  0  0
   -6.9510   20.5880  -31.9710 C   0  0  0  0  0  0  0  0  0  0  0  0
   -8.2450   19.3990  -32.0680 S   0  0  0  0  0  0  0  0  0  0  0  0
   -9.0990   19.5100  -30.8320 O   0  0  0  0  0  0  0  0  0  0  0  0
   -9.1060   19.6590  -33.2750 O   0  0  0  0  0  0  0  0  0  0  0  0
   -7.5340   17.8040  -32.1670 N   0  0  0  0  0  0  0  0  0  0  0  0
   -6.2980   17.7290  -31.3720 C   0  0  0  0  0  0  0  0  0  0  0  0
   -5.1300   17.6110  -32.3360 C   0  0  0  0  0  0  0  0  0  0  0  0
   -5.7340   16.9870  -33.5680 C   0  0  0  0  0  0  0  0  0  0  0  0
   -7.1810   17.4610  -33.5550 C   0  0  0  0  0  0  0  0  0  0  0  0
   -6.9550   21.5290  -30.9330 C   0  0  0  0  0  0  0  0  0  0  0  0
   -5.9000   22.4360  -30.8000 C   0  0  0  0  0  0  0  0  0  0  0  0
   -2.6250   23.6410  -29.2630 C   0  0  0  0  0  0  0  0  0  0  0  0
   -2.7140   22.2920  -28.8780 C   0  0  0  0  0  0  0  0  0  0  0  0
   -1.9320   21.8000  -27.8240 C   0  0  0  0  0  0  0  0  0  0  0  0
   -2.0030   20.0920  -27.3820 S   0  0  0  0  0  0  0  0  0  0  0  0
   -3.4160   19.5990  -27.5320 O   0  0  0  0  0  0  0  0  0  0  0  0
   -1.6080   19.9410  -25.9400 O   0  0  0  0  0  0  0  0  0  0  0  0
   -0.9290   19.1240  -28.3650 N   0  0  0  0  0  0  0  0  0  0  0  0
   -0.1630   18.1880  -27.5200 C   0  0  0  0  0  0  0  0  0  0  0  0
    0.6240   17.1860  -28.3910 C   0  0  0  0  0  0  0  0  0  0  0  0
    0.7780   17.6660  -29.8450 C   0  0  0  0  0  0  0  0  0  0  0  0
    1.0470   19.1760  -29.9120 C   0  0  0  0  0  0  0  0  0  0  0  0
   -0.0120   19.9920  -29.1350 C   0  0  0  0  0  0  0  0  0  0  0  0
   -1.0710   22.6660  -27.1370 C   0  0  0  0  0  0  0  0  0  0  0  0
   -0.9950   24.0130  -27.4940 C   0  0  0  0  0  0  0  0  0  0  0  0
   -1.7730   24.5100  -28.5490 C   0  0  0  0  0  0  0  0  0  0  0  0
   -1.7090   25.8640  -28.8790 O   0  0  0  0  0  0  0  0  0  0  0  0
   -4.0054   21.4585  -33.4771 H   0  0  0  0  0  0  0  0  0  0  0  0
   -5.8820   19.8333  -33.7023 H   0  0  0  0  0  0  0  0  0  0  0  0
   -6.1895   18.6385  -30.7628 H   0  0  0  0  0  0  0  0  0  0  0  0
   -6.3279   16.8604  -30.6977 H   0  0  0  0  0  0  0  0  0  0  0  0
   -4.7109   18.6018  -32.5652 H   0  0  0  0  0  0  0  0  0  0  0  0
   -4.3005   17.0172  -31.9246 H   0  0  0  0  0  0  0  0  0  0  0  0
   -5.2176   17.3349  -34.4748 H   0  0  0  0  0  0  0  0  0  0  0  0
   -5.6497   15.8902  -33.5696 H   0  0  0  0  0  0  0  0  0  0  0  0
   -7.2896   18.3470  -34.1978 H   0  0  0  0  0  0  0  0  0  0  0  0
   -7.8457   16.6711  -33.9348 H   0  0  0  0  0  0  0  0  0  0  0  0
   -7.7920   21.5541  -30.2197 H   0  0  0  0  0  0  0  0  0  0  0  0
   -5.9203   23.1879  -29.9974 H   0  0  0  0  0  0  0  0  0  0  0  0
   -3.4026   21.6174  -29.4079 H   0  0  0  0  0  0  0  0  0  0  0  0
    0.5429   18.7580  -26.8980 H   0  0  0  0  0  0  0  0  0  0  0  0
   -0.8657   17.6287  -26.8849 H   0  0  0  0  0  0  0  0  0  0  0  0
    1.6252   17.0504  -27.9560 H   0  0  0  0  0  0  0  0  0  0  0  0
    0.0601   16.2417  -28.4079 H   0  0  0  0  0  0  0  0  0  0  0  0
    1.6192   17.1318  -30.3108 H   0  0  0  0  0  0  0  0  0  0  0  0
   -0.1609   17.4581  -30.3790 H   0  0  0  0  0  0  0  0  0  0  0  0
    2.0380   19.3790  -29.4799 H   0  0  0  0  0  0  0  0  0  0  0  0
    1.0011   19.4811  -30.9678 H   0  0  0  0  0  0  0  0  0  0  0  0
    0.5034   20.6696  -28.4384 H   0  0  0  0  0  0  0  0  0  0  0  0
   -0.6116   20.5526  -29.8673 H   0  0  0  0  0  0  0  0  0  0  0  0
   -0.4521   22.2824  -26.3125 H   0  0  0  0  0  0  0  0  0  0  0  0
   -0.3216   24.6878  -26.9451 H   0  0  0  0  0  0  0  0  0  0  0  0
   -2.5450   26.4280  -28.9770 H   0  0  0  0  0  0  0  0  0  0  0  0
  1  2  2  0
  2  3  1  0
  3  4  1  0
  4  5  2  0
  5  6  1  0
  6  7  2  0
  7  8  1  0
  8  9  2  0
  8 10  2  0
  8 11  1  0
 11 12  1  0
 12 13  1  0
 13 14  1  0
 14 15  1  0
  7 16  1  0
 16 17  2  0
  2 18  1  0
 18 19  2  0
 19 20  1  0
 20 21  1  0
 21 22  2  0
 21 23  2  0
 21 24  1  0
 24 25  1  0
 25 26  1  0
 26 27  1  0
 27 28  1  0
 28 29  1  0
 20 30  2  0
 30 31  1  0
 31 32  2  0
 32 33  1  0
 17  4  1  0
 32 18  1  0
 15 11  1  0
 29 24  1  0
  5 34  1  0
  6 35  1  0
 12 36  1  0
 12 37  1  0
 13 38  1  0
 13 39  1  0
 14 40  1  0
 14 41  1  0
 15 42  1  0
 15 43  1  0
 16 44  1  0
 17 45  1  0
 19 46  1  0
 25 47  1  0
 25 48  1  0
 26 49  1  0
 26 50  1  0
 27 51  1  0
 27 52  1  0
 28 53  1  0
 28 54  1  0
 29 55  1  0
 29 56  1  0
 30 57  1  0
 31 58  1  0
 33 59  1  0
M  CHG  1   3  -1
M  END
>  <UniqueID>  (49) 
47

>  <SMILES>  (49) 
O=C([N-]c1ccc(S(=O)(=O)N2CCCC2)cc1)c1cc(S(=O)(=O)N2CCCCC2)ccc1O

>  <Energy>  (49) 
71.87242579274707

>  <Genealogy>  (49) 
O=C([N-]c1ccc(S(=O)(=O)N2CCCC2)cc1)c1cc(S(=O)(=O)N2CCCCC2)ccc1O (protonated)
O=C([N-]c1ccc(S(=O)(=O)N2CCCC2)cc1)c1cc(S(=O)(=O)N2CCCCC2)ccc1O (3D coordinates assigned)
O=C([N-]c1ccc(S(=O)(=O)N2CCCC2)cc1)c1cc(S(=O)(=O)N2CCCCC2)ccc1O (nonaromatic ring conformer: 71.87242579274707 kcal/mol)

>  <smiles>  (49) 
O=C(Nc1ccc(S(=O)(=O)N2CCCC2)cc1)c1cc(S(=O)(=O)N2CCCCC2)ccc1O

>  <score_type>  (49) 
oracle

>  <origin>  (49) 
adgpu

>  <m_score__min__energy>  (49) 
-12.210000000000001

>  <m_primary>  (49) 
energy

$$$$
