0:0
     RDKit          3D

 27 29  0  0  0  0  0  0  0  0999 V2000
   -9.2750   20.6160  -32.3030 C   0  0  0  0  0  0  0  0  0  0  0  0
   -8.0200   21.2730  -31.8110 C   0  0  0  0  0  0  0  0  0  0  0  0
   -6.8270   21.1510  -32.5390 C   0  0  0  0  0  0  0  0  0  0  0  0
   -5.6480   21.7320  -32.0610 C   0  0  0  0  0  0  0  0  0  0  0  0
   -5.6440   22.4270  -30.8430 C   0  0  0  0  0  0  0  0  0  0  0  0
   -4.4320   23.0330  -30.3590 N   0  0  0  0  0  0  0  0  0  0  0  0
   -4.2970   24.3980  -30.1840 C   0  0  0  0  0  0  0  0  0  0  0  0
   -5.5420   25.4320  -30.4680 S   0  0  0  0  0  0  0  0  0  0  0  0
   -3.1140   24.9230  -29.7290 N   0  0  0  0  0  0  0  0  0  0  0  0
   -2.0430   24.1310  -29.4390 C   0  0  0  0  0  0  0  0  0  0  0  0
   -0.9650   24.6320  -29.0280 O   0  0  0  0  0  0  0  0  0  0  0  0
   -2.1880   22.7660  -29.6120 C   0  0  0  0  0  0  0  0  0  0  0  0
   -1.3090   21.7760  -29.4120 N   0  0  0  0  0  0  0  0  0  0  0  0
   -1.9980   20.6610  -29.7580 C   0  0  0  0  0  0  0  0  0  0  0  0
   -3.2710   20.9100  -30.1660 N   0  0  0  0  0  0  0  0  0  0  0  0
   -3.3570   22.2500  -30.0580 C   0  0  0  0  0  0  0  0  0  0  0  0
   -6.8350   22.5390  -30.1100 C   0  0  0  0  0  0  0  0  0  0  0  0
   -8.0140   21.9590  -30.5860 C   0  0  0  0  0  0  0  0  0  0  0  0
   -9.8833   20.2975  -31.4436 H   0  0  0  0  0  0  0  0  0  0  0  0
   -9.8477   21.3300  -32.9131 H   0  0  0  0  0  0  0  0  0  0  0  0
   -9.0146   19.7386  -32.9131 H   0  0  0  0  0  0  0  0  0  0  0  0
   -6.8188   20.5965  -33.4890 H   0  0  0  0  0  0  0  0  0  0  0  0
   -4.7191   21.6433  -32.6434 H   0  0  0  0  0  0  0  0  0  0  0  0
   -0.3240   21.8440  -29.0750 H   0  0  0  0  0  0  0  0  0  0  0  0
   -1.5677   19.6497  -29.7129 H   0  0  0  0  0  0  0  0  0  0  0  0
   -6.8408   23.0861  -29.1557 H   0  0  0  0  0  0  0  0  0  0  0  0
   -8.9406   22.0402  -29.9988 H   0  0  0  0  0  0  0  0  0  0  0  0
  1  2  1  0
  2  3  2  0
  3  4  1  0
  4  5  2  0
  5  6  1  0
  6  7  1  0
  7  8  2  0
  7  9  1  0
  9 10  1  0
 10 11  2  0
 10 12  1  0
 12 13  1  0
 13 14  1  0
 14 15  2  0
 15 16  1  0
  5 17  1  0
 17 18  2  0
 18  2  1  0
 16  6  1  0
 16 12  2  0
  1 19  1  0
  1 20  1  0
  1 21  1  0
  3 22  1  0
  4 23  1  0
 13 24  1  0
 14 25  1  0
 17 26  1  0
 18 27  1  0
M  CHG  1   9  -1
M  END
>  <UniqueID>  (1) 
1

>  <SMILES>  (1) 
Cc1ccc(-n2c(=S)[n-]c(=O)c3[nH]cnc32)cc1

>  <Energy>  (1) 
78.35114079378567

>  <Genealogy>  (1) 
Cc1ccc(-n2c(=S)[n-]c(=O)c3[nH]cnc32)cc1 (protonated)
Cc1ccc(-n2c(=S)[n-]c(=O)c3[nH]cnc32)cc1 (3D coordinates assigned)
Cc1ccc(-n2c(=S)[n-]c(=O)c3[nH]cnc32)cc1 (optimized conformer: 78.35114079378567 kcal/mol)

>  <smiles>  (1) 
Cc1ccc(-n2c(=S)[nH]c(=O)c3[nH]cnc32)cc1

>  <score_type>  (1) 
oracle

>  <origin>  (1) 
adgpu

>  <m_score__min__energy>  (1) 
-7.3899999999999997

>  <m_primary>  (1) 
energy

$$$$
1:0
     RDKit          3D

 42 44  0  0  0  0  0  0  0  0999 V2000
   -6.3103   17.2131  -33.3506 H   0  0  0  0  0  0  0  0  0  0  0  0
   -6.8510   18.1140  -33.0250 C   0  0  0  0  0  0  0  0  0  0  0  0
   -6.4070   19.3780  -33.4240 C   0  0  0  0  0  0  0  0  0  0  0  0
   -5.5157   19.4706  -34.0620 H   0  0  0  0  0  0  0  0  0  0  0  0
   -7.0930   20.5240  -33.0140 C   0  0  0  0  0  0  0  0  0  0  0  0
   -6.7364   21.5171  -33.3249 H   0  0  0  0  0  0  0  0  0  0  0  0
   -8.2380   20.4120  -32.2050 C   0  0  0  0  0  0  0  0  0  0  0  0
   -8.9820   21.6430  -31.7540 C   0  0  0  0  0  0  0  0  0  0  0  0
  -10.0325   21.3796  -31.5616 H   0  0  0  0  0  0  0  0  0  0  0  0
   -8.9179   22.4044  -32.5453 H   0  0  0  0  0  0  0  0  0  0  0  0
   -8.3910   22.1860  -30.5300 N   0  0  0  0  0  0  0  0  0  0  0  0
   -8.8950   21.9970  -29.6340 H   0  0  0  0  0  0  0  0  0  0  0  0
   -7.2100   23.0110  -30.4960 C   0  0  0  0  0  0  0  0  0  0  0  0
   -6.1200   22.6090  -29.7160 C   0  0  0  0  0  0  0  0  0  0  0  0
   -6.1643   21.6558  -29.1687 H   0  0  0  0  0  0  0  0  0  0  0  0
   -4.9730   23.4080  -29.6250 C   0  0  0  0  0  0  0  0  0  0  0  0
   -4.0540   23.0320  -28.7750 N   0  0  0  0  0  0  0  0  0  0  0  0
   -2.9190   23.7580  -28.2820 C   0  0  0  0  0  0  0  0  0  0  0  0
   -1.7290   23.8310  -29.0250 C   0  0  0  0  0  0  0  0  0  0  0  0
   -1.6434   23.2879  -29.9777 H   0  0  0  0  0  0  0  0  0  0  0  0
   -0.6540   24.5910  -28.5580 C   0  0  0  0  0  0  0  0  0  0  0  0
    0.2834   24.6285  -29.1323 H   0  0  0  0  0  0  0  0  0  0  0  0
   -0.7690   25.3040  -27.3610 C   0  0  0  0  0  0  0  0  0  0  0  0
    0.0820   25.8945  -26.9908 H   0  0  0  0  0  0  0  0  0  0  0  0
   -1.9650   25.2690  -26.6310 C   0  0  0  0  0  0  0  0  0  0  0  0
   -2.0880   26.0130  -25.4160 N   0  0  0  0  0  0  0  0  0  0  0  0
   -1.5420   25.7420  -24.5670 H   0  0  0  0  0  0  0  0  0  0  0  0
   -2.7240   26.8380  -25.3550 H   0  0  0  0  0  0  0  0  0  0  0  0
   -3.0420   24.5040  -27.1030 C   0  0  0  0  0  0  0  0  0  0  0  0
   -3.9891   24.4899  -26.5436 H   0  0  0  0  0  0  0  0  0  0  0  0
   -4.8950   24.5740  -30.4370 C   0  0  0  0  0  0  0  0  0  0  0  0
   -3.6750   25.2990  -30.6420 N   0  0  0  0  0  0  0  0  0  0  0  0
   -3.1180   25.6620  -29.8400 H   0  0  0  0  0  0  0  0  0  0  0  0
   -3.2050   25.2840  -31.5750 H   0  0  0  0  0  0  0  0  0  0  0  0
   -6.0180   24.9480  -31.1860 C   0  0  0  0  0  0  0  0  0  0  0  0
   -5.9930   25.8780  -31.7729 H   0  0  0  0  0  0  0  0  0  0  0  0
   -7.1370   24.1790  -31.1980 N   0  0  0  0  0  0  0  0  0  0  0  0
   -7.9310   24.4930  -31.7950 H   0  0  0  0  0  0  0  0  0  0  0  0
   -8.6720   19.1390  -31.7990 C   0  0  0  0  0  0  0  0  0  0  0  0
   -9.5576   19.0414  -31.1538 H   0  0  0  0  0  0  0  0  0  0  0  0
   -7.9810   17.9950  -32.2130 C   0  0  0  0  0  0  0  0  0  0  0  0
   -8.3285   16.9999  -31.8983 H   0  0  0  0  0  0  0  0  0  0  0  0
  1  2  1  0
  2  3  2  0
  3  4  1  0
  3  5  1  0
  5  6  1  0
  5  7  2  0
  7  8  1  0
  8  9  1  0
  8 10  1  0
  8 11  1  0
 11 12  1  0
 11 13  1  0
 13 14  2  0
 14 15  1  0
 14 16  1  0
 16 17  2  0
 17 18  1  0
 18 19  2  0
 19 20  1  0
 19 21  1  0
 21 22  1  0
 21 23  2  0
 23 24  1  0
 23 25  1  0
 25 26  1  0
 26 27  1  0
 26 28  1  0
 25 29  2  0
 29 30  1  0
 16 31  1  0
 31 32  1  0
 32 33  1  0
 32 34  1  0
 31 35  2  0
 35 36  1  0
 35 37  1  0
 37 38  1  0
  7 39  1  0
 39 40  1  0
 39 41  2  0
 41 42  1  0
 41  2  1  0
 37 13  1  0
 29 18  1  0
M  END
>  <UniqueID>  (2) 
2

>  <SMILES>  (2) 
Nc1cccc(/N=c2/cc(NCc3ccccc3)[nH]cc2N)c1

>  <Energy>  (2) 
59.26137547596407

>  <Genealogy>  (2) 
Nc1cccc(/N=c2/cc(NCc3ccccc3)[nH]cc2N)c1 (cis-trans isomerization)
Nc1cccc(/N=c2/cc(NCc3ccccc3)[nH]cc2N)c1 (3D coordinates assigned)
Nc1cccc(/N=c2/cc(NCc3ccccc3)[nH]cc2N)c1 (optimized conformer: 59.26137547596407 kcal/mol)

>  <smiles>  (2) 
Nc1cccc(N=c2cc(NCc3ccccc3)[nH]cc2N)c1

>  <score_type>  (2) 
oracle

>  <origin>  (2) 
adgpu

>  <m_score__min__energy>  (2) 
-8.4700000000000006

>  <m_primary>  (2) 
energy

$$$$
2:0
     RDKit          3D

 42 44  0  0  0  0  0  0  0  0999 V2000
    2.8680   24.9220  -23.9190 C   0  0  0  0  0  0  0  0  0  0  0  0
    2.0330   24.7090  -25.0520 O   0  0  0  0  0  0  0  0  0  0  0  0
    0.7650   25.2860  -25.2230 C   0  0  0  0  0  0  0  0  0  0  0  0
    0.1850   26.1290  -24.2580 C   0  0  0  0  0  0  0  0  0  0  0  0
   -1.0850   26.6680  -24.4700 C   0  0  0  0  0  0  0  0  0  0  0  0
   -1.7850   26.3800  -25.6430 C   0  0  0  0  0  0  0  0  0  0  0  0
   -1.2160   25.5530  -26.6270 C   0  0  0  0  0  0  0  0  0  0  0  0
   -1.9770   25.2560  -27.8650 C   0  0  0  0  0  0  0  0  0  0  0  0
   -1.5280   25.6700  -28.9690 O   0  0  0  0  0  0  0  0  0  0  0  0
   -3.2110   24.5150  -27.8240 N   0  0  0  0  0  0  0  0  0  0  0  0
   -3.9450   24.1180  -28.9940 C   0  0  0  0  0  0  0  0  0  0  0  0
   -5.2490   24.5980  -29.1840 C   0  0  0  0  0  0  0  0  0  0  0  0
   -5.9940   24.2080  -30.3010 C   0  0  0  0  0  0  0  0  0  0  0  0
   -5.4480   23.3300  -31.2470 C   0  0  0  0  0  0  0  0  0  0  0  0
   -6.2420   22.9210  -32.3740 N   0  0  0  0  0  0  0  0  0  0  0  0
   -7.2170   21.8630  -32.3390 C   0  0  0  0  0  0  0  0  0  0  0  0
   -8.5340   22.1530  -31.9510 C   0  0  0  0  0  0  0  0  0  0  0  0
   -9.5040   21.1470  -31.9360 C   0  0  0  0  0  0  0  0  0  0  0  0
   -9.1710   19.8460  -32.3240 C   0  0  0  0  0  0  0  0  0  0  0  0
   -7.8680   19.5530  -32.7350 C   0  0  0  0  0  0  0  0  0  0  0  0
   -6.8940   20.5570  -32.7500 C   0  0  0  0  0  0  0  0  0  0  0  0
   -4.1600   22.8090  -31.0340 C   0  0  0  0  0  0  0  0  0  0  0  0
   -3.4150   23.1990  -29.9160 C   0  0  0  0  0  0  0  0  0  0  0  0
    0.0600   25.0020  -26.4000 C   0  0  0  0  0  0  0  0  0  0  0  0
    2.2832   24.7728  -22.9993 H   0  0  0  0  0  0  0  0  0  0  0  0
    3.7050   24.2086  -23.9411 H   0  0  0  0  0  0  0  0  0  0  0  0
    3.2610   25.9492  -23.9411 H   0  0  0  0  0  0  0  0  0  0  0  0
    0.7336   26.3641  -23.3340 H   0  0  0  0  0  0  0  0  0  0  0  0
   -1.5362   27.3224  -23.7096 H   0  0  0  0  0  0  0  0  0  0  0  0
   -2.7885   26.8030  -25.7983 H   0  0  0  0  0  0  0  0  0  0  0  0
   -3.6390   24.2860  -26.9000 H   0  0  0  0  0  0  0  0  0  0  0  0
   -5.6893   25.2870  -28.4482 H   0  0  0  0  0  0  0  0  0  0  0  0
   -7.0153   24.5928  -30.4382 H   0  0  0  0  0  0  0  0  0  0  0  0
   -6.1010   23.4250  -33.2780 H   0  0  0  0  0  0  0  0  0  0  0  0
   -8.8044   23.1779  -31.6570 H   0  0  0  0  0  0  0  0  0  0  0  0
  -10.5312   21.3793  -31.6184 H   0  0  0  0  0  0  0  0  0  0  0  0
   -9.9339   19.0537  -32.3058 H   0  0  0  0  0  0  0  0  0  0  0  0
   -7.6077   18.5309  -33.0473 H   0  0  0  0  0  0  0  0  0  0  0  0
   -5.8721   20.3245  -33.0843 H   0  0  0  0  0  0  0  0  0  0  0  0
   -3.7354   22.0905  -31.7505 H   0  0  0  0  0  0  0  0  0  0  0  0
   -2.4087   22.7841  -29.7576 H   0  0  0  0  0  0  0  0  0  0  0  0
    0.5086   24.3407  -27.1559 H   0  0  0  0  0  0  0  0  0  0  0  0
  1  2  1  0
  2  3  1  0
  3  4  2  0
  4  5  1  0
  5  6  2  0
  6  7  1  0
  7  8  1  0
  8  9  2  0
  8 10  1  0
 10 11  1  0
 11 12  2  0
 12 13  1  0
 13 14  2  0
 14 15  1  0
 15 16  1  0
 16 17  2  0
 17 18  1  0
 18 19  2  0
 19 20  1  0
 20 21  2  0
 14 22  1  0
 22 23  2  0
  7 24  2  0
 24  3  1  0
 23 11  1  0
 21 16  1  0
  1 25  1  0
  1 26  1  0
  1 27  1  0
  4 28  1  0
  5 29  1  0
  6 30  1  0
 10 31  1  0
 12 32  1  0
 13 33  1  0
 15 34  1  0
 17 35  1  0
 18 36  1  0
 19 37  1  0
 20 38  1  0
 21 39  1  0
 22 40  1  0
 23 41  1  0
 24 42  1  0
M  END
>  <UniqueID>  (3) 
3

>  <SMILES>  (3) 
COc1cccc(C(=O)Nc2ccc(Nc3ccccc3)cc2)c1

>  <Energy>  (3) 
56.386465183967516

>  <Genealogy>  (3) 
COc1cccc(C(=O)Nc2ccc(Nc3ccccc3)cc2)c1 (3D coordinates assigned)
COc1cccc(C(=O)Nc2ccc(Nc3ccccc3)cc2)c1 (optimized conformer: 56.386465183967516 kcal/mol)

>  <smiles>  (3) 
COc1cccc(C(=O)Nc2ccc(Nc3ccccc3)cc2)c1

>  <score_type>  (3) 
oracle

>  <origin>  (3) 
adgpu

>  <m_score__min__energy>  (3) 
-8.5099999999999998

>  <m_primary>  (3) 
energy

$$$$
3:0
     RDKit          3D

 47 50  0  0  0  0  0  0  0  0999 V2000
    1.2280   24.5280  -28.9620 H   0  0  0  0  0  0  0  0  0  0  0  0
    1.6870   24.0800  -28.2050 O   0  0  0  0  0  0  0  0  0  0  0  0
    0.6840   23.6110  -27.3390 C   0  0  2  0  0  0  0  0  0  0  0  0
    1.1331   23.0510  -26.5055 H   0  0  0  0  0  0  0  0  0  0  0  0
   -0.2510   22.6450  -28.1080 C   0  0  0  0  0  0  0  0  0  0  0  0
    0.2582   22.3347  -29.0324 H   0  0  0  0  0  0  0  0  0  0  0  0
   -0.4592   21.8018  -27.4330 H   0  0  0  0  0  0  0  0  0  0  0  0
   -1.6130   23.2550  -28.4880 C   0  0  0  0  0  0  0  0  0  0  0  0
   -2.0329   22.6910  -29.3339 H   0  0  0  0  0  0  0  0  0  0  0  0
   -2.2726   23.1964  -27.6097 H   0  0  0  0  0  0  0  0  0  0  0  0
   -1.4800   24.7370  -28.8920 C   0  0  1  0  0  0  0  0  0  0  0  0
   -0.7917   24.7490  -29.7499 H   0  0  0  0  0  0  0  0  0  0  0  0
   -2.7620   25.2960  -29.3490 N   0  0  0  0  0  0  0  0  0  0  0  0
   -3.7210   24.7540  -30.0490 C   0  0  0  0  0  0  0  0  0  0  0  0
   -4.7970   25.5250  -30.3610 N   0  0  0  0  0  0  0  0  0  0  0  0
   -5.8430   25.0590  -31.0910 C   0  0  0  0  0  0  0  0  0  0  0  0
   -6.6921   25.7214  -31.3153 H   0  0  0  0  0  0  0  0  0  0  0  0
   -5.8460   23.7440  -31.5580 C   0  0  0  0  0  0  0  0  0  0  0  0
   -7.2010   23.1890  -32.5360 Cl  0  0  0  0  0  0  0  0  0  0  0  0
   -4.7550   22.9100  -31.2570 C   0  0  0  0  0  0  0  0  0  0  0  0
   -4.7240   21.4970  -31.7000 C   0  0  0  0  0  0  0  0  0  0  0  0
   -3.5410   20.9180  -32.2000 C   0  0  0  0  0  0  0  0  0  0  0  0
   -2.0530   21.8420  -32.3880 Cl  0  0  0  0  0  0  0  0  0  0  0  0
   -3.5530   19.5800  -32.5910 C   0  0  0  0  0  0  0  0  0  0  0  0
   -2.6365   19.1145  -32.9826 H   0  0  0  0  0  0  0  0  0  0  0  0
   -4.7230   18.8310  -32.4870 C   0  0  0  0  0  0  0  0  0  0  0  0
   -4.7316   17.7746  -32.7935 H   0  0  0  0  0  0  0  0  0  0  0  0
   -5.8850   19.4270  -31.9920 C   0  0  0  0  0  0  0  0  0  0  0  0
   -6.9670   18.7080  -31.9030 N   0  0  0  0  0  0  0  0  0  0  0  0
   -8.2580   19.1850  -31.4120 C   0  0  0  0  0  0  0  0  0  0  0  0
   -8.0861   19.0024  -30.3410 H   0  0  0  0  0  0  0  0  0  0  0  0
   -9.4090   18.9300  -32.3680 C   0  0  0  0  0  0  0  0  0  0  0  0
   -9.2442   18.3432  -33.2837 H   0  0  0  0  0  0  0  0  0  0  0  0
  -10.4177   18.5011  -32.2754 H   0  0  0  0  0  0  0  0  0  0  0  0
   -8.8160   20.3260  -32.2410 C   0  0  0  0  0  0  0  0  0  0  0  0
   -8.2226   20.7488  -33.0651 H   0  0  0  0  0  0  0  0  0  0  0  0
   -9.2185   21.3252  -32.0186 H   0  0  0  0  0  0  0  0  0  0  0  0
   -5.8590   20.7420  -31.6080 N   0  0  0  0  0  0  0  0  0  0  0  0
   -6.7170   21.1950  -31.2190 H   0  0  0  0  0  0  0  0  0  0  0  0
   -3.6930   23.4160  -30.4930 C   0  0  0  0  0  0  0  0  0  0  0  0
   -2.8394   22.7698  -30.2406 H   0  0  0  0  0  0  0  0  0  0  0  0
   -0.7930   25.6250  -27.8210 C   0  0  0  0  0  0  0  0  0  0  0  0
   -0.0503   26.2656  -28.3190 H   0  0  0  0  0  0  0  0  0  0  0  0
   -1.5778   26.2181  -27.3287 H   0  0  0  0  0  0  0  0  0  0  0  0
   -0.0820   24.8020  -26.7330 C   0  0  0  0  0  0  0  0  0  0  0  0
    0.6289   25.4511  -26.2007 H   0  0  0  0  0  0  0  0  0  0  0  0
   -0.8436   24.4088  -26.0436 H   0  0  0  0  0  0  0  0  0  0  0  0
  1  2  1  0
  2  3  1  0
  3  4  1  1
  3  5  1  0
  5  6  1  0
  5  7  1  0
  5  8  1  0
  8  9  1  0
  8 10  1  0
  8 11  1  0
 11 12  1  6
 11 13  1  0
 13 14  2  0
 14 15  1  0
 15 16  1  0
 16 17  1  0
 16 18  2  0
 18 19  1  0
 18 20  1  0
 20 21  1  0
 21 22  2  0
 22 23  1  0
 22 24  1  0
 24 25  1  0
 24 26  2  0
 26 27  1  0
 26 28  1  0
 28 29  2  0
 29 30  1  0
 30 31  1  0
 30 32  1  0
 32 33  1  0
 32 34  1  0
 32 35  1  0
 35 36  1  0
 35 37  1  0
 28 38  1  0
 38 39  1  0
 20 40  2  0
 40 41  1  0
 11 42  1  0
 42 43  1  0
 42 44  1  0
 42 45  1  0
 45 46  1  0
 45 47  1  0
 45  3  1  0
 40 14  1  0
 38 21  1  0
 35 30  1  0
M  CHG  1  15  -1
M  END
>  <UniqueID>  (4) 
4

>  <SMILES>  (4) 
OC1CCC(/N=c2\cc(-c3[nH]/c(=N\C4CC4)ccc3Cl)c(Cl)c[n-]2)CC1

>  <Energy>  (4) 
332.07577457829484

>  <Genealogy>  (4) 
OC1CCC(N=c2cc(-c3[nH]c(=NC4CC4)ccc3Cl)c(Cl)c[n-]2)CC1 (protonated)
OC1CCC(/N=c2\cc(-c3[nH]/c(=N\C4CC4)ccc3Cl)c(Cl)c[n-]2)CC1 (cis-trans isomerization)
OC1CCC(/N=c2\cc(-c3[nH]/c(=N\C4CC4)ccc3Cl)c(Cl)c[n-]2)CC1 (3D coordinates assigned)
OC1CCC(/N=c2\cc(-c3[nH]/c(=N\C4CC4)ccc3Cl)c(Cl)c[n-]2)CC1 (nonaromatic ring conformer: 332.07577457829484 kcal/mol)

>  <smiles>  (4) 
OC1CCC(N=c2cc(-c3[nH]c(=NC4CC4)ccc3Cl)c(Cl)c[nH]2)CC1

>  <score_type>  (4) 
oracle

>  <origin>  (4) 
adgpu

>  <m_score__min__energy>  (4) 
-10.390000000000001

>  <m_primary>  (4) 
energy

$$$$
4:0
     RDKit          3D

 42 44  0  0  0  0  0  0  0  0999 V2000
    0.1116   25.9268  -27.9257 H   0  0  0  0  0  0  0  0  0  0  0  0
   -0.5630   25.1330  -28.2790 C   0  0  0  0  0  0  0  0  0  0  0  0
   -1.6890   25.4570  -28.9680 N   0  0  0  0  0  0  0  0  0  0  0  0
   -2.5620   24.5150  -29.4160 C   0  0  0  0  0  0  0  0  0  0  0  0
   -3.6160   24.9120  -30.0730 N   0  0  0  0  0  0  0  0  0  0  0  0
   -4.7010   24.1040  -30.5550 C   0  0  0  0  0  0  0  0  0  0  0  0
   -6.0360   24.4210  -30.2480 C   0  0  0  0  0  0  0  0  0  0  0  0
   -6.2595   25.2794  -29.5974 H   0  0  0  0  0  0  0  0  0  0  0  0
   -7.0800   23.6500  -30.7660 C   0  0  0  0  0  0  0  0  0  0  0  0
   -8.1213   23.8987  -30.5135 H   0  0  0  0  0  0  0  0  0  0  0  0
   -6.8060   22.5570  -31.6090 C   0  0  0  0  0  0  0  0  0  0  0  0
   -7.8620   21.7610  -32.1730 N   0  0  0  0  0  0  0  0  0  0  0  0
   -8.5910   22.2460  -32.7450 H   0  0  0  0  0  0  0  0  0  0  0  0
   -7.9200   20.3280  -32.0970 C   0  0  0  0  0  0  0  0  0  0  0  0
   -6.9130   19.6610  -31.7360 O   0  0  0  0  0  0  0  0  0  0  0  0
   -9.1500   19.6090  -32.5430 C   0  0  0  0  0  0  0  0  0  0  0  0
   -9.7196   19.2761  -31.6628 H   0  0  0  0  0  0  0  0  0  0  0  0
   -9.7716   20.2860  -33.1474 H   0  0  0  0  0  0  0  0  0  0  0  0
   -8.8651   18.7352  -33.1474 H   0  0  0  0  0  0  0  0  0  0  0  0
   -5.4750   22.2840  -31.9600 C   0  0  0  0  0  0  0  0  0  0  0  0
   -5.2510   21.4568  -32.6497 H   0  0  0  0  0  0  0  0  0  0  0  0
   -4.4320   23.0550  -31.4400 C   0  0  0  0  0  0  0  0  0  0  0  0
   -3.3934   22.8356  -31.7284 H   0  0  0  0  0  0  0  0  0  0  0  0
   -2.2760   23.1520  -29.1860 C   0  0  0  0  0  0  0  0  0  0  0  0
   -2.9645   22.3753  -29.5503 H   0  0  0  0  0  0  0  0  0  0  0  0
   -1.1120   22.7900  -28.4920 C   0  0  0  0  0  0  0  0  0  0  0  0
   -0.7930   21.3710  -28.2250 C   0  0  0  0  0  0  0  0  0  0  0  0
    0.7300   20.6830  -28.4640 S   0  0  0  0  0  0  0  0  0  0  0  0
    0.2330   19.1670  -27.9460 C   0  0  0  0  0  0  0  0  0  0  0  0
    1.0150   18.1330  -27.8890 N   0  0  0  0  0  0  0  0  0  0  0  0
    0.5740   16.8180  -27.4400 C   0  0  0  0  0  0  0  0  0  0  0  0
    0.5646   16.7901  -26.3404 H   0  0  0  0  0  0  0  0  0  0  0  0
   -0.4392   16.6214  -27.8204 H   0  0  0  0  0  0  0  0  0  0  0  0
    1.2638   16.0503  -27.8204 H   0  0  0  0  0  0  0  0  0  0  0  0
   -1.0720   19.1450  -27.6000 N   0  0  0  0  0  0  0  0  0  0  0  0
   -1.6570   20.3640  -27.7620 C   0  0  0  0  0  0  0  0  0  0  0  0
   -3.1130   20.5560  -27.4690 C   0  0  0  0  0  0  0  0  0  0  0  0
   -3.2683   20.5765  -26.3802 H   0  0  0  0  0  0  0  0  0  0  0  0
   -3.4527   21.5067  -27.9058 H   0  0  0  0  0  0  0  0  0  0  0  0
   -3.6875   19.7258  -27.9058 H   0  0  0  0  0  0  0  0  0  0  0  0
   -0.2610   23.7970  -28.0190 C   0  0  0  0  0  0  0  0  0  0  0  0
    0.6405   23.5352  -27.4456 H   0  0  0  0  0  0  0  0  0  0  0  0
  1  2  1  0
  2  3  1  0
  3  4  1  0
  4  5  2  0
  5  6  1  0
  6  7  2  0
  7  8  1  0
  7  9  1  0
  9 10  1  0
  9 11  2  0
 11 12  1  0
 12 13  1  0
 12 14  1  0
 14 15  2  0
 14 16  1  0
 16 17  1  0
 16 18  1  0
 16 19  1  0
 11 20  1  0
 20 21  1  0
 20 22  2  0
 22 23  1  0
  4 24  1  0
 24 25  1  0
 24 26  2  0
 26 27  1  0
 27 28  1  0
 28 29  1  0
 29 30  2  0
 30 31  1  0
 31 32  1  0
 31 33  1  0
 31 34  1  0
 29 35  1  0
 35 36  1  0
 36 37  1  0
 37 38  1  0
 37 39  1  0
 37 40  1  0
 26 41  1  0
 41 42  1  0
 41  2  2  0
 22  6  1  0
 36 27  2  0
M  CHG  2   3  -1  35  -1
M  END
>  <UniqueID>  (5) 
5

>  <SMILES>  (5) 
C/N=c1\[n-]c(C)c(-c2cc[n-]/c(=N/c3ccc(NC(C)=O)cc3)c2)s1

>  <Energy>  (5) 
88.12148289206891

>  <Genealogy>  (5) 
CN=c1[n-]c(C)c(-c2cc[n-]c(=Nc3ccc(NC(C)=O)cc3)c2)s1 (protonated)
C/N=c1\[n-]c(C)c(-c2cc[n-]/c(=N/c3ccc(NC(C)=O)cc3)c2)s1 (cis-trans isomerization)
C/N=c1\[n-]c(C)c(-c2cc[n-]/c(=N/c3ccc(NC(C)=O)cc3)c2)s1 (3D coordinates assigned)
C/N=c1\[n-]c(C)c(-c2cc[n-]/c(=N/c3ccc(NC(C)=O)cc3)c2)s1 (optimized conformer: 88.12148289206891 kcal/mol)

>  <smiles>  (5) 
CN=c1[nH]c(C)c(-c2cc[nH]c(=Nc3ccc(NC(C)=O)cc3)c2)s1

>  <score_type>  (5) 
oracle

>  <origin>  (5) 
adgpu

>  <m_score__min__energy>  (5) 
-10.130000000000001

>  <m_primary>  (5) 
energy

$$$$
5:0
     RDKit          3D

 47 49  0  0  0  0  0  0  0  0999 V2000
   -7.5110   17.8820  -32.1310 C   0  0  0  0  0  0  0  0  0  0  0  0
   -8.1880   19.1090  -32.5780 N   0  0  0  0  0  0  0  0  0  0  0  0
   -7.2900   19.9550  -33.4020 C   0  0  0  0  0  0  0  0  0  0  0  0
   -6.6860   21.1180  -32.5980 C   0  0  0  0  0  0  0  0  0  0  0  0
   -7.7370   22.0140  -32.0510 N   0  0  0  0  0  0  0  0  0  0  0  0
   -7.2480   22.7760  -30.8790 C   0  0  0  0  0  0  0  0  0  0  0  0
   -6.5720   24.0970  -31.2830 C   0  0  0  0  0  0  0  0  0  0  0  0
   -5.5230   24.5430  -30.2630 C   0  0  0  0  0  0  0  0  0  0  0  0
   -4.2320   24.4720  -30.8600 O   0  0  0  0  0  0  0  0  0  0  0  0
   -3.5360   23.2810  -31.1260 C   0  0  0  0  0  0  0  0  0  0  0  0
   -3.9720   22.3800  -32.1180 C   0  0  0  0  0  0  0  0  0  0  0  0
   -3.2900   21.1810  -32.3360 C   0  0  0  0  0  0  0  0  0  0  0  0
   -2.1710   20.8640  -31.5690 C   0  0  0  0  0  0  0  0  0  0  0  0
   -1.7210   21.7490  -30.5880 C   0  0  0  0  0  0  0  0  0  0  0  0
   -2.3880   22.9660  -30.3630 C   0  0  0  0  0  0  0  0  0  0  0  0
   -1.8780   23.8930  -29.3240 C   0  0  0  0  0  0  0  0  0  0  0  0
   -0.8790   23.6050  -28.4090 C   0  0  0  0  0  0  0  0  0  0  0  0
   -0.7030   24.7460  -27.6520 C   0  0  0  0  0  0  0  0  0  0  0  0
   -1.5920   25.6820  -28.1390 C   0  0  0  0  0  0  0  0  0  0  0  0
   -2.3030   25.1630  -29.1550 N   0  0  0  0  0  0  0  0  0  0  0  0
   -9.0070   21.3050  -31.7430 C   0  0  0  0  0  0  0  0  0  0  0  0
   -8.7780   19.8230  -31.4230 C   0  0  0  0  0  0  0  0  0  0  0  0
   -7.4945   17.8521  -31.0315 H   0  0  0  0  0  0  0  0  0  0  0  0
   -8.0525   17.0043  -32.5136 H   0  0  0  0  0  0  0  0  0  0  0  0
   -6.4797   17.8721  -32.5136 H   0  0  0  0  0  0  0  0  0  0  0  0
   -6.4719   19.3300  -33.7894 H   0  0  0  0  0  0  0  0  0  0  0  0
   -7.8879   20.3848  -34.2192 H   0  0  0  0  0  0  0  0  0  0  0  0
   -6.0987   20.7070  -31.7636 H   0  0  0  0  0  0  0  0  0  0  0  0
   -6.0511   21.7086  -33.2748 H   0  0  0  0  0  0  0  0  0  0  0  0
   -8.1013   23.0015  -30.2225 H   0  0  0  0  0  0  0  0  0  0  0  0
   -6.4979   22.1575  -30.3643 H   0  0  0  0  0  0  0  0  0  0  0  0
   -6.0825   23.9609  -32.2586 H   0  0  0  0  0  0  0  0  0  0  0  0
   -7.3492   24.8740  -31.3309 H   0  0  0  0  0  0  0  0  0  0  0  0
   -5.7285   25.5779  -29.9520 H   0  0  0  0  0  0  0  0  0  0  0  0
   -5.5602   23.8855  -29.3819 H   0  0  0  0  0  0  0  0  0  0  0  0
   -4.8564   22.6230  -32.7253 H   0  0  0  0  0  0  0  0  0  0  0  0
   -3.6369   20.4857  -33.1146 H   0  0  0  0  0  0  0  0  0  0  0  0
   -1.6413   19.9147  -31.7368 H   0  0  0  0  0  0  0  0  0  0  0  0
   -0.8370   21.4921  -29.9858 H   0  0  0  0  0  0  0  0  0  0  0  0
   -0.3338   22.6552  -28.3059 H   0  0  0  0  0  0  0  0  0  0  0  0
    0.0070   24.8822  -26.8229 H   0  0  0  0  0  0  0  0  0  0  0  0
   -1.7030   26.7056  -27.7517 H   0  0  0  0  0  0  0  0  0  0  0  0
   -3.0140   25.6740  -29.7220 H   0  0  0  0  0  0  0  0  0  0  0  0
   -9.4801   21.7863  -30.8744 H   0  0  0  0  0  0  0  0  0  0  0  0
   -9.6516   21.3635  -32.6324 H   0  0  0  0  0  0  0  0  0  0  0  0
   -8.0944   19.7430  -30.5649 H   0  0  0  0  0  0  0  0  0  0  0  0
   -9.7499   19.3636  -31.1900 H   0  0  0  0  0  0  0  0  0  0  0  0
  1  2  1  0
  2  3  1  0
  3  4  1  0
  4  5  1  0
  5  6  1  0
  6  7  1  0
  7  8  1  0
  8  9  1  0
  9 10  1  0
 10 11  2  0
 11 12  1  0
 12 13  2  0
 13 14  1  0
 14 15  2  0
 15 16  1  0
 16 17  2  0
 17 18  1  0
 18 19  2  0
 19 20  1  0
  5 21  1  0
 21 22  1  0
 22  2  1  0
 15 10  1  0
 20 16  1  0
  1 23  1  0
  1 24  1  0
  1 25  1  0
  3 26  1  0
  3 27  1  0
  4 28  1  0
  4 29  1  0
  6 30  1  0
  6 31  1  0
  7 32  1  0
  7 33  1  0
  8 34  1  0
  8 35  1  0
 11 36  1  0
 12 37  1  0
 13 38  1  0
 14 39  1  0
 17 40  1  0
 18 41  1  0
 19 42  1  0
 20 43  1  0
 21 44  1  0
 21 45  1  0
 22 46  1  0
 22 47  1  0
M  END
>  <UniqueID>  (6) 
6

>  <SMILES>  (6) 
CN1CCN(CCCOc2ccccc2-c2ccc[nH]2)CC1

>  <Energy>  (6) 
85.6183249688322

>  <Genealogy>  (6) 
CN1CCN(CCCOc2ccccc2-c2ccc[nH]2)CC1 (3D coordinates assigned)
CN1CCN(CCCOc2ccccc2-c2ccc[nH]2)CC1 (nonaromatic ring conformer: 85.6183249688322 kcal/mol)

>  <smiles>  (6) 
CN1CCN(CCCOc2ccccc2-c2ccc[nH]2)CC1

>  <score_type>  (6) 
oracle

>  <origin>  (6) 
adgpu

>  <m_score__min__energy>  (6) 
-8.4800000000000004

>  <m_primary>  (6) 
energy

$$$$
6:0
     RDKit          3D

 37 38  0  0  0  0  0  0  0  0999 V2000
   -0.6370   21.1270  -31.4790 C   0  0  0  0  0  0  0  0  0  0  0  0
   -1.7530   21.6720  -32.1770 O   0  0  0  0  0  0  0  0  0  0  0  0
   -2.8960   20.9470  -32.5480 C   0  0  0  0  0  0  0  0  0  0  0  0
   -2.8390   19.5650  -32.8190 C   0  0  0  0  0  0  0  0  0  0  0  0
   -4.0000   18.8590  -33.1430 C   0  0  0  0  0  0  0  0  0  0  0  0
   -5.2340   19.5180  -33.2080 C   0  0  0  0  0  0  0  0  0  0  0  0
   -6.4870   18.7480  -33.5060 C   0  0  0  0  0  0  0  0  0  0  0  0
   -5.2980   20.8890  -32.9280 C   0  0  0  0  0  0  0  0  0  0  0  0
   -4.1390   21.6140  -32.6300 C   0  0  0  0  0  0  0  0  0  0  0  0
   -4.2630   22.9920  -32.3920 O   0  0  0  0  0  0  0  0  0  0  0  0
   -5.2160   23.5850  -31.5490 C   0  0  0  0  0  0  0  0  0  0  0  0
   -6.5590   23.2290  -31.7170 C   0  0  0  0  0  0  0  0  0  0  0  0
   -7.5440   23.7670  -30.8870 C   0  0  0  0  0  0  0  0  0  0  0  0
   -7.1940   24.6770  -29.8890 C   0  0  0  0  0  0  0  0  0  0  0  0
   -5.8610   25.0650  -29.7290 C   0  0  0  0  0  0  0  0  0  0  0  0
   -4.8600   24.5350  -30.5640 C   0  0  0  0  0  0  0  0  0  0  0  0
   -3.4950   24.9670  -30.4670 N   0  0  0  0  0  0  0  0  0  0  0  0
   -2.3760   24.5440  -29.2130 S   0  0  0  0  0  0  0  0  0  0  0  0
   -3.2610   24.0600  -27.7470 C   0  0  0  0  0  0  0  0  0  0  0  0
   -1.4630   25.7020  -28.9220 O   0  0  0  0  0  0  0  0  0  0  0  0
   -1.5480   23.3810  -29.6800 O   0  0  0  0  0  0  0  0  0  0  0  0
   -0.8064   21.2097  -30.3953 H   0  0  0  0  0  0  0  0  0  0  0  0
   -0.5156   20.0682  -31.7514 H   0  0  0  0  0  0  0  0  0  0  0  0
    0.2726   21.6823  -31.7514 H   0  0  0  0  0  0  0  0  0  0  0  0
   -1.8739   19.0389  -32.7751 H   0  0  0  0  0  0  0  0  0  0  0  0
   -3.9447   17.7797  -33.3482 H   0  0  0  0  0  0  0  0  0  0  0  0
   -6.9686   18.4520  -32.5624 H   0  0  0  0  0  0  0  0  0  0  0  0
   -7.1757   19.3790  -34.0870 H   0  0  0  0  0  0  0  0  0  0  0  0
   -6.2352   17.8486  -34.0870 H   0  0  0  0  0  0  0  0  0  0  0  0
   -6.2711   21.4018  -32.9426 H   0  0  0  0  0  0  0  0  0  0  0  0
   -6.8406   22.5197  -32.5092 H   0  0  0  0  0  0  0  0  0  0  0  0
   -8.5958   23.4736  -31.0197 H   0  0  0  0  0  0  0  0  0  0  0  0
   -7.9690   25.0900  -29.2266 H   0  0  0  0  0  0  0  0  0  0  0  0
   -5.5927   25.7891  -28.9456 H   0  0  0  0  0  0  0  0  0  0  0  0
   -2.6937   24.3702  -26.8571 H   0  0  0  0  0  0  0  0  0  0  0  0
   -4.2491   24.5433  -27.7389 H   0  0  0  0  0  0  0  0  0  0  0  0
   -3.3872   22.9673  -27.7389 H   0  0  0  0  0  0  0  0  0  0  0  0
  1  2  1  0
  2  3  1  0
  3  4  2  0
  4  5  1  0
  5  6  2  0
  6  7  1  0
  6  8  1  0
  8  9  2  0
  9 10  1  0
 10 11  1  0
 11 12  2  0
 12 13  1  0
 13 14  2  0
 14 15  1  0
 15 16  2  0
 16 17  1  0
 17 18  1  0
 18 19  1  0
 18 20  2  0
 18 21  2  0
  9  3  1  0
 16 11  1  0
  1 22  1  0
  1 23  1  0
  1 24  1  0
  4 25  1  0
  5 26  1  0
  7 27  1  0
  7 28  1  0
  7 29  1  0
  8 30  1  0
 12 31  1  0
 13 32  1  0
 14 33  1  0
 15 34  1  0
 19 35  1  0
 19 36  1  0
 19 37  1  0
M  CHG  1  17  -1
M  END
>  <UniqueID>  (7) 
7

>  <SMILES>  (7) 
COc1ccc(C)cc1Oc1ccccc1[N-]S(C)(=O)=O

>  <Energy>  (7) 
42.456892341464474

>  <Genealogy>  (7) 
COc1ccc(C)cc1Oc1ccccc1[N-]S(C)(=O)=O (protonated)
COc1ccc(C)cc1Oc1ccccc1[N-]S(C)(=O)=O (3D coordinates assigned)
COc1ccc(C)cc1Oc1ccccc1[N-]S(C)(=O)=O (optimized conformer: 42.456892341464474 kcal/mol)

>  <smiles>  (7) 
COc1ccc(C)cc1Oc1ccccc1NS(C)(=O)=O

>  <score_type>  (7) 
oracle

>  <origin>  (7) 
adgpu

>  <m_score__min__energy>  (7) 
-8.8800000000000008

>  <m_primary>  (7) 
energy

$$$$
7:0
     RDKit          3D

 29 30  0  0  0  0  0  0  0  0999 V2000
   -9.4470   18.1590  -31.6470 C   0  0  0  0  0  0  0  0  0  0  0  0
   -8.6300   19.3890  -31.9100 C   0  0  0  0  0  0  0  0  0  0  0  0
   -7.3990   19.2890  -32.5760 C   0  0  0  0  0  0  0  0  0  0  0  0
   -6.6180   20.4290  -32.7880 C   0  0  0  0  0  0  0  0  0  0  0  0
   -7.0610   21.6870  -32.3430 C   0  0  0  0  0  0  0  0  0  0  0  0
   -6.2600   22.8660  -32.5230 N   0  0  0  0  0  0  0  0  0  0  0  0
   -5.1200   23.1940  -31.7160 C   0  0  0  0  0  0  0  0  0  0  0  0
   -4.9550   24.3770  -31.0200 C   0  0  0  0  0  0  0  0  0  0  0  0
   -3.6880   24.3030  -30.4720 C   0  0  0  0  0  0  0  0  0  0  0  0
   -3.1060   25.2960  -29.6920 O   0  0  0  0  0  0  0  0  0  0  0  0
   -3.0770   23.1470  -30.8040 N   0  0  0  0  0  0  0  0  0  0  0  0
   -1.7120   22.7510  -30.4680 C   0  0  0  0  0  0  0  0  0  0  0  0
   -3.9430   22.4770  -31.5910 C   0  0  0  0  0  0  0  0  0  0  0  0
   -3.6630   21.2650  -32.2210 O   0  0  0  0  0  0  0  0  0  0  0  0
   -8.2710   21.7750  -31.6400 C   0  0  0  0  0  0  0  0  0  0  0  0
   -9.0520   20.6350  -31.4270 C   0  0  0  0  0  0  0  0  0  0  0  0
   -9.5461   18.0098  -30.5617 H   0  0  0  0  0  0  0  0  0  0  0  0
  -10.4452   18.2795  -32.0932 H   0  0  0  0  0  0  0  0  0  0  0  0
   -8.9489   17.2856  -32.0932 H   0  0  0  0  0  0  0  0  0  0  0  0
   -7.0471   18.3098  -32.9327 H   0  0  0  0  0  0  0  0  0  0  0  0
   -5.6515   20.3413  -33.3059 H   0  0  0  0  0  0  0  0  0  0  0  0
   -6.5240   23.5300  -33.2850 H   0  0  0  0  0  0  0  0  0  0  0  0
   -5.6773   25.2009  -30.9230 H   0  0  0  0  0  0  0  0  0  0  0  0
   -1.5985   22.7181  -29.3744 H   0  0  0  0  0  0  0  0  0  0  0  0
   -1.5050   21.7558  -30.8883 H   0  0  0  0  0  0  0  0  0  0  0  0
   -1.0045   23.4809  -30.8883 H   0  0  0  0  0  0  0  0  0  0  0  0
   -4.1380   20.9880  -33.0710 H   0  0  0  0  0  0  0  0  0  0  0  0
   -8.6083   22.7480  -31.2533 H   0  0  0  0  0  0  0  0  0  0  0  0
  -10.0017   20.7165  -30.8780 H   0  0  0  0  0  0  0  0  0  0  0  0
  1  2  1  0
  2  3  2  0
  3  4  1  0
  4  5  2  0
  5  6  1  0
  6  7  1  0
  7  8  1  0
  8  9  2  0
  9 10  1  0
  9 11  1  0
 11 12  1  0
 11 13  1  0
 13 14  1  0
  5 15  1  0
 15 16  2  0
 16  2  1  0
 13  7  2  0
  1 17  1  0
  1 18  1  0
  1 19  1  0
  3 20  1  0
  4 21  1  0
  6 22  1  0
  8 23  1  0
 12 24  1  0
 12 25  1  0
 12 26  1  0
 14 27  1  0
 15 28  1  0
 16 29  1  0
M  CHG  1  10  -1
M  END
>  <UniqueID>  (8) 
8

>  <SMILES>  (8) 
Cc1ccc(Nc2cc([O-])n(C)c2O)cc1

>  <Energy>  (8) 
61.38084176128331

>  <Genealogy>  (8) 
Cc1ccc(Nc2cc([O-])n(C)c2O)cc1 (protonated)
Cc1ccc(Nc2cc([O-])n(C)c2O)cc1 (3D coordinates assigned)
Cc1ccc(Nc2cc([O-])n(C)c2O)cc1 (optimized conformer: 61.38084176128331 kcal/mol)

>  <smiles>  (8) 
Cc1ccc(Nc2cc(O)n(C)c2O)cc1

>  <score_type>  (8) 
oracle

>  <origin>  (8) 
adgpu

>  <m_score__min__energy>  (8) 
-8.5199999999999996

>  <m_primary>  (8) 
energy

$$$$
8:0
     RDKit          3D

 32 33  0  0  0  0  0  0  0  0999 V2000
   -5.1390   17.8070  -35.2360 C   0  0  0  0  0  0  0  0  0  0  0  0
   -6.1410   18.4390  -34.4490 N   0  0  0  0  0  0  0  0  0  0  0  0
   -5.7560   18.7700  -33.1180 C   0  0  0  0  0  0  0  0  0  0  0  0
   -6.9610   19.3130  -32.3800 C   0  0  0  0  0  0  0  0  0  0  0  0
   -7.0640   20.8200  -32.6440 C   0  0  0  0  0  0  0  0  0  0  0  0
   -5.9640   21.4520  -31.9800 N   0  0  0  0  0  0  0  0  0  0  0  0
   -6.0210   22.7100  -31.3280 C   0  0  0  0  0  0  0  0  0  0  0  0
   -4.9720   23.5630  -31.3530 N   0  0  0  0  0  0  0  0  0  0  0  0
   -5.0150   24.7570  -30.7400 C   0  0  0  0  0  0  0  0  0  0  0  0
   -3.9530   25.4960  -30.8260 N   0  0  0  0  0  0  0  0  0  0  0  0
   -6.1370   25.1750  -30.0510 C   0  0  0  0  0  0  0  0  0  0  0  0
   -7.2060   24.2990  -30.0290 C   0  0  0  0  0  0  0  0  0  0  0  0
   -7.1110   23.0990  -30.6680 N   0  0  0  0  0  0  0  0  0  0  0  0
   -4.6830   20.7270  -31.9840 C   0  0  0  0  0  0  0  0  0  0  0  0
   -4.6620   19.8370  -33.2080 C   0  0  0  0  0  0  0  0  0  0  0  0
   -4.3953   17.3379  -34.5750 H   0  0  0  0  0  0  0  0  0  0  0  0
   -5.6025   17.0375  -35.8708 H   0  0  0  0  0  0  0  0  0  0  0  0
   -4.6442   18.5568  -35.8708 H   0  0  0  0  0  0  0  0  0  0  0  0
   -6.7330   19.1190  -34.9450 H   0  0  0  0  0  0  0  0  0  0  0  0
   -5.3798   17.8891  -32.5771 H   0  0  0  0  0  0  0  0  0  0  0  0
   -7.8717   18.8115  -32.7395 H   0  0  0  0  0  0  0  0  0  0  0  0
   -6.8527   19.1290  -31.3009 H   0  0  0  0  0  0  0  0  0  0  0  0
   -7.0121   21.0158  -33.7252 H   0  0  0  0  0  0  0  0  0  0  0  0
   -8.0199   21.2136  -32.2681 H   0  0  0  0  0  0  0  0  0  0  0  0
   -3.8690   26.4370  -30.3930 H   0  0  0  0  0  0  0  0  0  0  0  0
   -6.1775   26.1520  -29.5472 H   0  0  0  0  0  0  0  0  0  0  0  0
   -8.1303   24.5695  -29.4975 H   0  0  0  0  0  0  0  0  0  0  0  0
   -7.9760   22.5030  -30.5950 H   0  0  0  0  0  0  0  0  0  0  0  0
   -3.8480   21.4419  -32.0262 H   0  0  0  0  0  0  0  0  0  0  0  0
   -4.5775   20.1260  -31.0687 H   0  0  0  0  0  0  0  0  0  0  0  0
   -4.8296   20.4517  -34.1047 H   0  0  0  0  0  0  0  0  0  0  0  0
   -3.6837   19.3374  -33.2661 H   0  0  0  0  0  0  0  0  0  0  0  0
  1  2  1  0
  2  3  1  0
  3  4  1  0
  4  5  1  0
  5  6  1  0
  6  7  1  0
  7  8  2  0
  8  9  1  0
  9 10  2  3
  9 11  1  0
 11 12  2  0
 12 13  1  0
  6 14  1  0
 14 15  1  0
 15  3  1  0
 13  7  1  0
  1 16  1  0
  1 17  1  0
  1 18  1  0
  2 19  1  0
  3 20  1  0
  4 21  1  0
  4 22  1  0
  5 23  1  0
  5 24  1  0
 10 25  1  0
 11 26  1  0
 12 27  1  0
 13 28  1  0
 14 29  1  0
 14 30  1  0
 15 31  1  0
 15 32  1  0
M  END
>  <smiles>  (9) 
CNC1CCN(c2nc(=N)cc[nH]2)CC1

>  <score_type>  (9) 
oracle

>  <origin>  (9) 
adgpu

>  <m_score__min__energy>  (9) 
-6.6699999999999999

>  <m_primary>  (9) 
energy

$$$$
9:0
     RDKit          3D

 32 34  0  0  0  0  0  0  0  0999 V2000
   -6.4325   24.6537  -28.8595 H   0  0  0  0  0  0  0  0  0  0  0  0
   -5.7520   24.0400  -29.4680 C   0  0  0  0  0  0  0  0  0  0  0  0
   -6.2600   23.3660  -30.4610 N   0  0  0  0  0  0  0  0  0  0  0  0
   -5.5990   22.3880  -31.2820 C   0  0  0  0  0  0  0  0  0  0  0  0
   -4.2390   22.4210  -31.5900 C   0  0  0  0  0  0  0  0  0  0  0  0
   -3.5310   23.2151  -31.3105 H   0  0  0  0  0  0  0  0  0  0  0  0
   -3.8740   21.0340  -32.4630 S   0  0  0  0  0  0  0  0  0  0  0  0
   -5.4220   20.3690  -32.4600 C   0  0  0  0  0  0  0  0  0  0  0  0
   -5.7800   19.0770  -33.0880 C   0  0  0  0  0  0  0  0  0  0  0  0
   -5.3740   18.7720  -34.4000 C   0  0  0  0  0  0  0  0  0  0  0  0
   -4.7901   19.5047  -34.9765 H   0  0  0  0  0  0  0  0  0  0  0  0
   -5.7090   17.5420  -34.9750 C   0  0  0  0  0  0  0  0  0  0  0  0
   -5.3942   17.3132  -36.0039 H   0  0  0  0  0  0  0  0  0  0  0  0
   -6.4420   16.6040  -34.2460 C   0  0  0  0  0  0  0  0  0  0  0  0
   -6.7094   15.6398  -34.7029 H   0  0  0  0  0  0  0  0  0  0  0  0
   -6.8360   16.8890  -32.9370 C   0  0  0  0  0  0  0  0  0  0  0  0
   -7.4086   16.1468  -32.3614 H   0  0  0  0  0  0  0  0  0  0  0  0
   -6.5030   18.1180  -32.3570 C   0  0  0  0  0  0  0  0  0  0  0  0
   -6.8087   18.3352  -31.3229 H   0  0  0  0  0  0  0  0  0  0  0  0
   -6.2550   21.2350  -31.7440 C   0  0  0  0  0  0  0  0  0  0  0  0
   -7.6360   20.9560  -31.4360 C   0  0  0  0  0  0  0  0  0  0  0  0
   -8.7450   20.7340  -31.1870 N   0  0  0  0  0  0  0  0  0  0  0  0
   -4.3160   24.0310  -29.1080 C   0  0  0  0  0  0  0  0  0  0  0  0
   -3.4120   24.8400  -29.8130 C   0  0  0  0  0  0  0  0  0  0  0  0
   -3.8600   25.6760  -30.8310 O   0  0  0  0  0  0  0  0  0  0  0  0
   -2.0890   24.8190  -29.4950 N   0  0  0  0  0  0  0  0  0  0  0  0
   -1.4270   25.4360  -30.0180 H   0  0  0  0  0  0  0  0  0  0  0  0
   -1.6210   24.0110  -28.5070 C   0  0  0  0  0  0  0  0  0  0  0  0
   -0.3950   24.0070  -28.2200 O   0  0  0  0  0  0  0  0  0  0  0  0
   -2.4730   23.1980  -27.8320 N   0  0  0  0  0  0  0  0  0  0  0  0
   -3.8010   23.1810  -28.1140 C   0  0  0  0  0  0  0  0  0  0  0  0
   -4.5530   22.3880  -27.4890 O   0  0  0  0  0  0  0  0  0  0  0  0
  1  2  1  0
  2  3  2  0
  3  4  1  0
  4  5  2  0
  5  6  1  0
  5  7  1  0
  7  8  1  0
  8  9  1  0
  9 10  2  0
 10 11  1  0
 10 12  1  0
 12 13  1  0
 12 14  2  0
 14 15  1  0
 14 16  1  0
 16 17  1  0
 16 18  2  0
 18 19  1  0
  8 20  2  0
 20 21  1  0
 21 22  3  0
  2 23  1  0
 23 24  2  0
 24 25  1  0
 24 26  1  0
 26 27  1  0
 26 28  1  0
 28 29  2  0
 28 30  1  0
 30 31  1  0
 31 32  2  0
 20  4  1  0
 31 23  1  0
 18  9  1  0
M  CHG  2  25  -1  30  -1
M  END
>  <UniqueID>  (10) 
9

>  <SMILES>  (10) 
N#Cc1c(/N=C\c2c([O-])[nH]c(=O)[n-]c2=O)csc1-c1ccccc1

>  <Energy>  (10) 
78.72433872026716

>  <Genealogy>  (10) 
N#Cc1c(N=Cc2c([O-])[nH]c(=O)[n-]c2=O)csc1-c1ccccc1 (protonated)
N#Cc1c(/N=C\c2c([O-])[nH]c(=O)[n-]c2=O)csc1-c1ccccc1 (cis-trans isomerization)
N#Cc1c(/N=C\c2c([O-])[nH]c(=O)[n-]c2=O)csc1-c1ccccc1 (3D coordinates assigned)
N#Cc1c(/N=C\c2c([O-])[nH]c(=O)[n-]c2=O)csc1-c1ccccc1 (optimized conformer: 78.72433872026716 kcal/mol)

>  <smiles>  (10) 
N#Cc1c(N=Cc2c(O)[nH]c(=O)[nH]c2=O)csc1-c1ccccc1

>  <score_type>  (10) 
oracle

>  <origin>  (10) 
adgpu

>  <m_score__min__energy>  (10) 
-12.73

>  <m_primary>  (10) 
energy

$$$$
10:0
     RDKit          3D

 39 39  0  0  0  0  0  0  0  0999 V2000
   -8.7140   18.8360  -31.5900 C   0  0  0  0  0  0  0  0  0  0  0  0
   -9.1420   19.9750  -32.5080 C   0  0  0  0  0  0  0  0  0  0  0  0
   -9.0560   21.5440  -31.6620 S   0  0  0  0  0  0  0  0  0  0  0  0
   -9.6380   21.4130  -30.2820 O   0  0  0  0  0  0  0  0  0  0  0  0
   -9.8400   22.5780  -32.4200 O   0  0  0  0  0  0  0  0  0  0  0  0
   -7.3720   22.0440  -31.5510 C   0  0  0  0  0  0  0  0  0  0  0  0
   -6.3570   21.2080  -32.0230 C   0  0  0  0  0  0  0  0  0  0  0  0
   -5.0230   21.6060  -31.9440 C   0  0  0  0  0  0  0  0  0  0  0  0
   -4.6760   22.8580  -31.3990 C   0  0  0  0  0  0  0  0  0  0  0  0
   -3.2920   23.2250  -31.2310 N   0  0  0  0  0  0  0  0  0  0  0  0
   -2.2680   22.3290  -30.6930 C   0  0  0  0  0  0  0  0  0  0  0  0
   -1.4460   23.0500  -29.6200 C   0  0  0  0  0  0  0  0  0  0  0  0
   -2.0810   24.3370  -29.2590 N   0  0  0  0  0  0  0  0  0  0  0  0
   -3.2130   24.1110  -28.3460 C   0  0  0  0  0  0  0  0  0  0  0  0
   -1.1090   25.2410  -28.6160 C   0  0  0  0  0  0  0  0  0  0  0  0
   -5.7050   23.7220  -30.9510 C   0  0  0  0  0  0  0  0  0  0  0  0
   -5.4120   25.0420  -30.4640 N   0  0  0  0  0  0  0  0  0  0  0  0
   -6.2880   25.7000  -29.8640 O   0  0  0  0  0  0  0  0  0  0  0  0
   -4.2410   25.6700  -30.8200 O   0  0  0  0  0  0  0  0  0  0  0  0
   -7.0440   23.2970  -31.0230 C   0  0  0  0  0  0  0  0  0  0  0  0
   -8.8308   19.1467  -30.5413 H   0  0  0  0  0  0  0  0  0  0  0  0
   -9.3419   17.9537  -31.7831 H   0  0  0  0  0  0  0  0  0  0  0  0
   -7.6604   18.5856  -31.7831 H   0  0  0  0  0  0  0  0  0  0  0  0
   -8.4763   20.0012  -33.3833 H   0  0  0  0  0  0  0  0  0  0  0  0
  -10.1823   19.8016  -32.8205 H   0  0  0  0  0  0  0  0  0  0  0  0
   -6.6115   20.2308  -32.4592 H   0  0  0  0  0  0  0  0  0  0  0  0
   -4.2326   20.9349  -32.3113 H   0  0  0  0  0  0  0  0  0  0  0  0
   -3.0050   24.2110  -31.4190 H   0  0  0  0  0  0  0  0  0  0  0  0
   -2.7534   21.4479  -30.2480 H   0  0  0  0  0  0  0  0  0  0  0  0
   -1.5991   22.0170  -31.5087 H   0  0  0  0  0  0  0  0  0  0  0  0
   -1.3821   22.4141  -28.7247 H   0  0  0  0  0  0  0  0  0  0  0  0
   -0.4393   23.2486  -30.0164 H   0  0  0  0  0  0  0  0  0  0  0  0
   -2.8641   24.1807  -27.3051 H   0  0  0  0  0  0  0  0  0  0  0  0
   -3.9863   24.8725  -28.5252 H   0  0  0  0  0  0  0  0  0  0  0  0
   -3.6346   23.1110  -28.5252 H   0  0  0  0  0  0  0  0  0  0  0  0
   -1.1984   25.1578  -27.5228 H   0  0  0  0  0  0  0  0  0  0  0  0
   -0.0902   24.9620  -28.9228 H   0  0  0  0  0  0  0  0  0  0  0  0
   -1.3135   26.2774  -28.9228 H   0  0  0  0  0  0  0  0  0  0  0  0
   -7.8438   23.9589  -30.6592 H   0  0  0  0  0  0  0  0  0  0  0  0
  1  2  1  0
  2  3  1  0
  3  4  2  0
  3  5  2  0
  3  6  1  0
  6  7  2  0
  7  8  1  0
  8  9  2  0
  9 10  1  0
 10 11  1  0
 11 12  1  0
 12 13  1  0
 13 14  1  0
 13 15  1  0
  9 16  1  0
 16 17  1  0
 17 18  2  0
 17 19  1  0
 16 20  2  0
 20  6  1  0
  1 21  1  0
  1 22  1  0
  1 23  1  0
  2 24  1  0
  2 25  1  0
  7 26  1  0
  8 27  1  0
 10 28  1  0
 11 29  1  0
 11 30  1  0
 12 31  1  0
 12 32  1  0
 14 33  1  0
 14 34  1  0
 14 35  1  0
 15 36  1  0
 15 37  1  0
 15 38  1  0
 20 39  1  0
M  CHG  2  17   1  19  -1
M  END
>  <UniqueID>  (11) 
10

>  <SMILES>  (11) 
CCS(=O)(=O)c1ccc(NCCN(C)C)c([N+](=O)[O-])c1

>  <Energy>  (11) 
36.25894158301168

>  <Genealogy>  (11) 
CCS(=O)(=O)c1ccc(NCCN(C)C)c([N+](=O)[O-])c1 (3D coordinates assigned)
CCS(=O)(=O)c1ccc(NCCN(C)C)c([N+](=O)[O-])c1 (optimized conformer: 36.25894158301168 kcal/mol)

>  <smiles>  (11) 
CCS(=O)(=O)c1ccc(NCCN(C)C)c([N+](=O)[O-])c1

>  <score_type>  (11) 
oracle

>  <origin>  (11) 
adgpu

>  <m_score__min__energy>  (11) 
-7.8499999999999996

>  <m_primary>  (11) 
energy

$$$$
11:0
     RDKit          3D

 43 46  0  0  0  0  0  0  0  0999 V2000
   -6.8830   13.6880  -34.5910 C   0  0  0  0  0  0  0  0  0  0  0  0
   -7.3490   14.9880  -34.2450 O   0  0  0  0  0  0  0  0  0  0  0  0
   -6.5160   16.0940  -34.0230 C   0  0  0  0  0  0  0  0  0  0  0  0
   -5.1610   16.1090  -34.4040 C   0  0  0  0  0  0  0  0  0  0  0  0
   -4.3710   17.2370  -34.1600 C   0  0  0  0  0  0  0  0  0  0  0  0
   -4.9180   18.3700  -33.5340 C   0  0  0  0  0  0  0  0  0  0  0  0
   -4.0780   19.5680  -33.2740 C   0  0  0  0  0  0  0  0  0  0  0  0
   -2.7380   19.6030  -33.6890 C   0  0  0  0  0  0  0  0  0  0  0  0
   -1.9590   20.7480  -33.4510 C   0  0  0  0  0  0  0  0  0  0  0  0
   -0.5380   20.8300  -33.8770 C   0  0  0  0  0  0  0  0  0  0  0  0
   -0.1390   21.6370  -34.9580 C   0  0  0  0  0  0  0  0  0  0  0  0
    1.2090   21.6940  -35.3200 C   0  0  0  0  0  0  0  0  0  0  0  0
    2.1340   20.9790  -34.6270 N   0  0  0  0  0  0  0  0  0  0  0  0
    1.7830   20.1980  -33.5720 C   0  0  0  0  0  0  0  0  0  0  0  0
    0.4460   20.1130  -33.1760 C   0  0  0  0  0  0  0  0  0  0  0  0
   -2.5160   21.8010  -32.7920 N   0  0  0  0  0  0  0  0  0  0  0  0
   -3.8070   21.8060  -32.3600 C   0  0  0  0  0  0  0  0  0  0  0  0
   -4.3300   23.0050  -31.6570 C   0  0  0  0  0  0  0  0  0  0  0  0
   -5.6710   23.3890  -31.8230 C   0  0  0  0  0  0  0  0  0  0  0  0
   -6.1660   24.5210  -31.1710 C   0  0  0  0  0  0  0  0  0  0  0  0
   -5.3130   25.2700  -30.3610 C   0  0  0  0  0  0  0  0  0  0  0  0
   -4.0140   24.9010  -30.2170 N   0  0  0  0  0  0  0  0  0  0  0  0
   -3.5070   23.8020  -30.8380 C   0  0  0  0  0  0  0  0  0  0  0  0
   -4.6140   20.6830  -32.6110 C   0  0  0  0  0  0  0  0  0  0  0  0
   -6.2720   18.3500  -33.1550 C   0  0  0  0  0  0  0  0  0  0  0  0
   -7.0590   17.2220  -33.3990 C   0  0  0  0  0  0  0  0  0  0  0  0
   -6.6779   13.1159  -33.6741 H   0  0  0  0  0  0  0  0  0  0  0  0
   -7.6510   13.1687  -35.1831 H   0  0  0  0  0  0  0  0  0  0  0  0
   -5.9600   13.7749  -35.1831 H   0  0  0  0  0  0  0  0  0  0  0  0
   -4.7212   15.2290  -34.8962 H   0  0  0  0  0  0  0  0  0  0  0  0
   -3.3129   17.2373  -34.4606 H   0  0  0  0  0  0  0  0  0  0  0  0
   -2.2975   18.7344  -34.2004 H   0  0  0  0  0  0  0  0  0  0  0  0
   -0.8857   22.2209  -35.5161 H   0  0  0  0  0  0  0  0  0  0  0  0
    1.5228   22.3196  -36.1686 H   0  0  0  0  0  0  0  0  0  0  0  0
    2.5534   19.6313  -33.0285 H   0  0  0  0  0  0  0  0  0  0  0  0
    0.1643   19.4860  -32.3172 H   0  0  0  0  0  0  0  0  0  0  0  0
   -6.3344   22.7956  -32.4694 H   0  0  0  0  0  0  0  0  0  0  0  0
   -7.2177   24.8185  -31.2952 H   0  0  0  0  0  0  0  0  0  0  0  0
   -5.6926   26.1603  -29.8383 H   0  0  0  0  0  0  0  0  0  0  0  0
   -2.4490   23.5345  -30.6998 H   0  0  0  0  0  0  0  0  0  0  0  0
   -5.6655   20.6779  -32.2879 H   0  0  0  0  0  0  0  0  0  0  0  0
   -6.7145   19.2287  -32.6630 H   0  0  0  0  0  0  0  0  0  0  0  0
   -8.1168   17.2208  -33.0973 H   0  0  0  0  0  0  0  0  0  0  0  0
  1  2  1  0
  2  3  1  0
  3  4  2  0
  4  5  1  0
  5  6  2  0
  6  7  1  0
  7  8  2  0
  8  9  1  0
  9 10  1  0
 10 11  2  0
 11 12  1  0
 12 13  2  0
 13 14  1  0
 14 15  2  0
  9 16  2  0
 16 17  1  0
 17 18  1  0
 18 19  2  0
 19 20  1  0
 20 21  2  0
 21 22  1  0
 22 23  2  0
 17 24  2  0
  6 25  1  0
 25 26  2  0
 26  3  1  0
 24  7  1  0
 15 10  1  0
 23 18  1  0
  1 27  1  0
  1 28  1  0
  1 29  1  0
  4 30  1  0
  5 31  1  0
  8 32  1  0
 11 33  1  0
 12 34  1  0
 14 35  1  0
 15 36  1  0
 19 37  1  0
 20 38  1  0
 21 39  1  0
 23 40  1  0
 24 41  1  0
 25 42  1  0
 26 43  1  0
M  END
>  <UniqueID>  (12) 
11

>  <SMILES>  (12) 
COc1ccc(-c2cc(-c3ccncc3)nc(-c3cccnc3)c2)cc1

>  <Energy>  (12) 
62.32838134788896

>  <Genealogy>  (12) 
COc1ccc(-c2cc(-c3ccncc3)nc(-c3cccnc3)c2)cc1 (3D coordinates assigned)
COc1ccc(-c2cc(-c3ccncc3)nc(-c3cccnc3)c2)cc1 (optimized conformer: 62.32838134788896 kcal/mol)

>  <smiles>  (12) 
COc1ccc(-c2cc(-c3ccncc3)nc(-c3cccnc3)c2)cc1

>  <score_type>  (12) 
oracle

>  <origin>  (12) 
adgpu

>  <m_score__min__energy>  (12) 
-7.7400000000000002

>  <m_primary>  (12) 
energy

$$$$
12:0
     RDKit          3D

 34 36  0  0  0  0  0  0  0  0999 V2000
   -2.4090   23.3960  -29.0720 O   0  0  0  0  0  0  0  0  0  0  0  0
   -2.5250   24.5850  -29.4700 C   0  0  0  0  0  0  0  0  0  0  0  0
   -1.6110   25.5710  -28.9760 N   0  0  0  0  0  0  0  0  0  0  0  0
   -1.3600   25.8690  -27.5960 C   0  0  0  0  0  0  0  0  0  0  0  0
   -0.2800   26.6980  -27.2670 C   0  0  0  0  0  0  0  0  0  0  0  0
    0.0080   26.9890  -25.9310 C   0  0  0  0  0  0  0  0  0  0  0  0
   -0.7730   26.4400  -24.9100 C   0  0  0  0  0  0  0  0  0  0  0  0
   -0.4100   26.8020  -23.2320 Cl  0  0  0  0  0  0  0  0  0  0  0  0
   -1.8380   25.5900  -25.2270 C   0  0  0  0  0  0  0  0  0  0  0  0
   -2.1280   25.2980  -26.5640 C   0  0  0  0  0  0  0  0  0  0  0  0
   -3.4890   24.9190  -30.4820 N   0  0  0  0  0  0  0  0  0  0  0  0
   -4.6470   24.1210  -30.7820 C   0  0  0  0  0  0  0  0  0  0  0  0
   -5.9430   24.5580  -30.4580 C   0  0  0  0  0  0  0  0  0  0  0  0
   -7.0550   23.7760  -30.7830 C   0  0  0  0  0  0  0  0  0  0  0  0
   -6.8980   22.5470  -31.4470 C   0  0  0  0  0  0  0  0  0  0  0  0
   -8.0450   21.7400  -31.7820 N   0  0  0  0  0  0  0  0  0  0  0  0
   -8.0500   20.4650  -32.2110 C   0  0  0  0  0  0  0  0  0  0  0  0
   -9.3570   20.0830  -32.4110 C   0  0  0  0  0  0  0  0  0  0  0  0
  -10.1770   21.1100  -32.1140 N   0  0  0  0  0  0  0  0  0  0  0  0
   -9.3460   22.1020  -31.7330 C   0  0  0  0  0  0  0  0  0  0  0  0
   -5.6010   22.1240  -31.7880 C   0  0  0  0  0  0  0  0  0  0  0  0
   -4.4890   22.9080  -31.4650 C   0  0  0  0  0  0  0  0  0  0  0  0
    0.3457   27.1228  -28.0658 H   0  0  0  0  0  0  0  0  0  0  0  0
    0.8505   27.6511  -25.6824 H   0  0  0  0  0  0  0  0  0  0  0  0
   -2.4481   25.1507  -24.4240 H   0  0  0  0  0  0  0  0  0  0  0  0
   -2.9588   24.6201  -26.8095 H   0  0  0  0  0  0  0  0  0  0  0  0
   -3.2870   25.7430  -31.0910 H   0  0  0  0  0  0  0  0  0  0  0  0
   -6.0830   25.5212  -29.9456 H   0  0  0  0  0  0  0  0  0  0  0  0
   -8.0632   24.1259  -30.5165 H   0  0  0  0  0  0  0  0  0  0  0  0
   -7.1624   19.8361  -32.3739 H   0  0  0  0  0  0  0  0  0  0  0  0
   -9.6821   19.0917  -32.7597 H   0  0  0  0  0  0  0  0  0  0  0  0
   -9.6902   23.0977  -31.4167 H   0  0  0  0  0  0  0  0  0  0  0  0
   -5.4599   21.1680  -32.3135 H   0  0  0  0  0  0  0  0  0  0  0  0
   -3.4818   22.5695  -31.7496 H   0  0  0  0  0  0  0  0  0  0  0  0
  1  2  2  0
  2  3  1  0
  3  4  1  0
  4  5  2  0
  5  6  1  0
  6  7  2  0
  7  8  1  0
  7  9  1  0
  9 10  2  0
  2 11  1  0
 11 12  1  0
 12 13  2  0
 13 14  1  0
 14 15  2  0
 15 16  1  0
 16 17  1  0
 17 18  2  0
 18 19  1  0
 19 20  2  0
 15 21  1  0
 21 22  2  0
 10  4  1  0
 22 12  1  0
 20 16  1  0
  5 23  1  0
  6 24  1  0
  9 25  1  0
 10 26  1  0
 11 27  1  0
 13 28  1  0
 14 29  1  0
 17 30  1  0
 18 31  1  0
 20 32  1  0
 21 33  1  0
 22 34  1  0
M  CHG  1   3  -1
M  END
>  <UniqueID>  (13) 
12

>  <SMILES>  (13) 
O=C([N-]c1ccc(Cl)cc1)Nc1ccc(-n2ccnc2)cc1

>  <Energy>  (13) 
76.0839439406226

>  <Genealogy>  (13) 
O=C([N-]c1ccc(Cl)cc1)Nc1ccc(-n2ccnc2)cc1 (protonated)
O=C([N-]c1ccc(Cl)cc1)Nc1ccc(-n2ccnc2)cc1 (3D coordinates assigned)
O=C([N-]c1ccc(Cl)cc1)Nc1ccc(-n2ccnc2)cc1 (optimized conformer: 76.0839439406226 kcal/mol)

>  <smiles>  (13) 
O=C(Nc1ccc(Cl)cc1)Nc1ccc(-n2ccnc2)cc1

>  <score_type>  (13) 
oracle

>  <origin>  (13) 
adgpu

>  <m_score__min__energy>  (13) 
-9.4499999999999993

>  <m_primary>  (13) 
energy

$$$$
13:0
     RDKit          3D

 50 53  0  0  0  0  0  0  0  0999 V2000
   -5.5860   14.2540  -34.1470 C   0  0  0  0  0  0  0  0  0  0  0  0
   -4.9320   15.6030  -34.1940 C   0  0  0  0  0  0  0  0  0  0  0  0
   -3.7300   15.7800  -34.8910 C   0  0  0  0  0  0  0  0  0  0  0  0
   -3.1420   17.0440  -34.9690 C   0  0  0  0  0  0  0  0  0  0  0  0
   -3.7520   18.1420  -34.3570 C   0  0  0  0  0  0  0  0  0  0  0  0
   -4.9650   17.9870  -33.6570 C   0  0  0  0  0  0  0  0  0  0  0  0
   -5.6400   19.1430  -33.0170 C   0  0  0  0  0  0  0  0  0  0  0  0
   -4.9150   20.1450  -32.3510 C   0  0  0  0  0  0  0  0  0  0  0  0
   -5.5830   21.2330  -31.7680 C   0  0  0  0  0  0  0  0  0  0  0  0
   -4.7690   22.2880  -31.1290 C   0  0  0  0  0  0  0  0  0  0  0  0
   -4.8030   23.4570  -31.6000 O   0  0  0  0  0  0  0  0  0  0  0  0
   -3.9630   21.9840  -29.9780 N   0  0  0  0  0  0  0  0  0  0  0  0
   -3.1830   22.9570  -29.2620 C   0  0  0  0  0  0  0  0  0  0  0  0
   -1.9000   23.3260  -29.6940 C   0  0  0  0  0  0  0  0  0  0  0  0
   -1.1740   24.2930  -28.9990 C   0  0  0  0  0  0  0  0  0  0  0  0
   -1.7170   24.9220  -27.8670 C   0  0  0  0  0  0  0  0  0  0  0  0
   -0.9030   25.9570  -27.1350 C   0  0  0  0  0  0  0  0  0  0  0  0
   -3.0150   24.5650  -27.4320 C   0  0  0  0  0  0  0  0  0  0  0  0
   -3.6450   25.2210  -26.2310 C   0  0  0  0  0  0  0  0  0  0  0  0
   -3.7400   23.5950  -28.1460 C   0  0  0  0  0  0  0  0  0  0  0  0
   -6.9950   21.2850  -31.8170 C   0  0  0  0  0  0  0  0  0  0  0  0
   -7.7440   22.3010  -31.1850 C   0  0  0  0  0  0  0  0  0  0  0  0
   -9.1400   22.3050  -31.2670 C   0  0  0  0  0  0  0  0  0  0  0  0
   -9.8070   21.2950  -31.9610 C   0  0  0  0  0  0  0  0  0  0  0  0
   -9.0840   20.2680  -32.5690 C   0  0  0  0  0  0  0  0  0  0  0  0
   -7.6860   20.2510  -32.4950 C   0  0  0  0  0  0  0  0  0  0  0  0
   -6.9970   19.2290  -33.0640 N   0  0  0  0  0  0  0  0  0  0  0  0
   -5.5540   16.7100  -33.5960 C   0  0  0  0  0  0  0  0  0  0  0  0
   -5.7317   13.9535  -33.0989 H   0  0  0  0  0  0  0  0  0  0  0  0
   -6.5611   14.3014  -34.6538 H   0  0  0  0  0  0  0  0  0  0  0  0
   -4.9448   13.5178  -34.6538 H   0  0  0  0  0  0  0  0  0  0  0  0
   -3.2475   14.9201  -35.3787 H   0  0  0  0  0  0  0  0  0  0  0  0
   -2.1956   17.1758  -35.5139 H   0  0  0  0  0  0  0  0  0  0  0  0
   -3.2820   19.1344  -34.4221 H   0  0  0  0  0  0  0  0  0  0  0  0
   -3.8190   20.0766  -32.2861 H   0  0  0  0  0  0  0  0  0  0  0  0
   -3.8750   20.9840  -29.6880 H   0  0  0  0  0  0  0  0  0  0  0  0
   -1.4647   22.8503  -30.5852 H   0  0  0  0  0  0  0  0  0  0  0  0
   -0.1649   24.5660  -29.3414 H   0  0  0  0  0  0  0  0  0  0  0  0
   -1.0164   25.8128  -26.0504 H   0  0  0  0  0  0  0  0  0  0  0  0
    0.1568   25.8517  -27.4101 H   0  0  0  0  0  0  0  0  0  0  0  0
   -1.2551   26.9622  -27.4101 H   0  0  0  0  0  0  0  0  0  0  0  0
   -3.2257   24.7844  -25.3126 H   0  0  0  0  0  0  0  0  0  0  0  0
   -3.4369   26.3009  -26.2518 H   0  0  0  0  0  0  0  0  0  0  0  0
   -4.7325   25.0567  -26.2518 H   0  0  0  0  0  0  0  0  0  0  0  0
   -4.7587   23.3333  -27.8240 H   0  0  0  0  0  0  0  0  0  0  0  0
   -7.2267   23.0939  -30.6249 H   0  0  0  0  0  0  0  0  0  0  0  0
   -9.7147   23.1079  -30.7822 H   0  0  0  0  0  0  0  0  0  0  0  0
  -10.9048   21.3083  -32.0290 H   0  0  0  0  0  0  0  0  0  0  0  0
   -9.6142   19.4691  -33.1082 H   0  0  0  0  0  0  0  0  0  0  0  0
   -6.5130   16.5781  -33.0735 H   0  0  0  0  0  0  0  0  0  0  0  0
  1  2  1  0
  2  3  2  0
  3  4  1  0
  4  5  2  0
  5  6  1  0
  6  7  1  0
  7  8  2  0
  8  9  1  0
  9 10  1  0
 10 11  2  0
 10 12  1  0
 12 13  1  0
 13 14  2  0
 14 15  1  0
 15 16  2  0
 16 17  1  0
 16 18  1  0
 18 19  1  0
 18 20  2  0
  9 21  2  0
 21 22  1  0
 22 23  2  0
 23 24  1  0
 24 25  2  0
 25 26  1  0
 26 27  2  0
  6 28  2  0
 28  2  1  0
 27  7  1  0
 20 13  1  0
 26 21  1  0
  1 29  1  0
  1 30  1  0
  1 31  1  0
  3 32  1  0
  4 33  1  0
  5 34  1  0
  8 35  1  0
 12 36  1  0
 14 37  1  0
 15 38  1  0
 17 39  1  0
 17 40  1  0
 17 41  1  0
 19 42  1  0
 19 43  1  0
 19 44  1  0
 20 45  1  0
 22 46  1  0
 23 47  1  0
 24 48  1  0
 25 49  1  0
 28 50  1  0
M  END
>  <UniqueID>  (14) 
13

>  <SMILES>  (14) 
Cc1cccc(-c2cc(C(=O)Nc3ccc(C)c(C)c3)c3ccccc3n2)c1

>  <Energy>  (14) 
72.02812768689002

>  <Genealogy>  (14) 
Cc1cccc(-c2cc(C(=O)Nc3ccc(C)c(C)c3)c3ccccc3n2)c1 (3D coordinates assigned)
Cc1cccc(-c2cc(C(=O)Nc3ccc(C)c(C)c3)c3ccccc3n2)c1 (optimized conformer: 72.02812768689002 kcal/mol)

>  <smiles>  (14) 
Cc1cccc(-c2cc(C(=O)Nc3ccc(C)c(C)c3)c3ccccc3n2)c1

>  <score_type>  (14) 
oracle

>  <origin>  (14) 
adgpu

>  <m_score__min__energy>  (14) 
-9.6600000000000001

>  <m_primary>  (14) 
energy

$$$$
14:0
     RDKit          3D

 36 38  0  0  0  0  0  0  0  0999 V2000
   -4.9740   26.8620  -29.8500 H   0  0  0  0  0  0  0  0  0  0  0  0
   -5.1970   26.0710  -30.4960 N   0  0  0  0  0  0  0  0  0  0  0  0
   -4.6670   24.8980  -30.3550 C   0  0  0  0  0  0  0  0  0  0  0  0
   -4.9970   23.9100  -31.2250 N   0  0  0  0  0  0  0  0  0  0  0  0
   -4.4490   22.6720  -31.0980 C   0  0  0  0  0  0  0  0  0  0  0  0
   -4.7920   21.5860  -32.0340 C   0  0  0  0  0  0  0  0  0  0  0  0
   -4.5335   21.7013  -33.0969 H   0  0  0  0  0  0  0  0  0  0  0  0
   -5.4080   20.4620  -31.6370 C   0  0  0  0  0  0  0  0  0  0  0  0
   -5.6553   20.3538  -30.5706 H   0  0  0  0  0  0  0  0  0  0  0  0
   -5.7740   19.3570  -32.5570 C   0  0  0  0  0  0  0  0  0  0  0  0
   -6.5540   18.2980  -32.0590 C   0  0  0  0  0  0  0  0  0  0  0  0
   -6.8830   18.3100  -31.0094 H   0  0  0  0  0  0  0  0  0  0  0  0
   -6.9150   17.2300  -32.8860 C   0  0  0  0  0  0  0  0  0  0  0  0
   -7.5315   16.4107  -32.4875 H   0  0  0  0  0  0  0  0  0  0  0  0
   -6.4940   17.2020  -34.2170 C   0  0  0  0  0  0  0  0  0  0  0  0
   -6.7823   16.3634  -34.8679 H   0  0  0  0  0  0  0  0  0  0  0  0
   -5.7070   18.2390  -34.7210 C   0  0  0  0  0  0  0  0  0  0  0  0
   -5.3727   18.2137  -35.7687 H   0  0  0  0  0  0  0  0  0  0  0  0
   -5.3420   19.3100  -33.8990 C   0  0  0  0  0  0  0  0  0  0  0  0
   -4.7151   20.1196  -34.3009 H   0  0  0  0  0  0  0  0  0  0  0  0
   -3.5710   22.4300  -30.0940 N   0  0  0  0  0  0  0  0  0  0  0  0
   -3.2420   23.4090  -29.2080 C   0  0  0  0  0  0  0  0  0  0  0  0
   -2.3830   23.1900  -28.2530 N   0  0  0  0  0  0  0  0  0  0  0  0
   -1.7510   21.9400  -27.9290 C   0  0  0  0  0  0  0  0  0  0  0  0
   -2.5470   20.8870  -27.4570 C   0  0  0  0  0  0  0  0  0  0  0  0
   -3.6278   21.0384  -27.3193 H   0  0  0  0  0  0  0  0  0  0  0  0
   -1.9760   19.6450  -27.1600 C   0  0  0  0  0  0  0  0  0  0  0  0
   -2.6051   18.8285  -26.7759 H   0  0  0  0  0  0  0  0  0  0  0  0
   -0.6070   19.4410  -27.3510 C   0  0  0  0  0  0  0  0  0  0  0  0
   -0.1572   18.4674  -27.1065 H   0  0  0  0  0  0  0  0  0  0  0  0
    0.1910   20.4720  -27.8520 C   0  0  0  0  0  0  0  0  0  0  0  0
    1.5140   20.2650  -28.0620 F   0  0  0  0  0  0  0  0  0  0  0  0
   -0.3780   21.7160  -28.1500 C   0  0  0  0  0  0  0  0  0  0  0  0
    0.2497   22.5217  -28.5584 H   0  0  0  0  0  0  0  0  0  0  0  0
   -3.7850   24.6480  -29.3480 N   0  0  0  0  0  0  0  0  0  0  0  0
   -3.5240   25.4070  -28.6770 H   0  0  0  0  0  0  0  0  0  0  0  0
  1  2  1  0
  2  3  2  3
  3  4  1  0
  4  5  2  0
  5  6  1  0
  6  7  1  0
  6  8  2  0
  8  9  1  0
  8 10  1  0
 10 11  2  0
 11 12  1  0
 11 13  1  0
 13 14  1  0
 13 15  2  0
 15 16  1  0
 15 17  1  0
 17 18  1  0
 17 19  2  0
 19 20  1  0
  5 21  1  0
 21 22  1  0
 22 23  2  0
 23 24  1  0
 24 25  2  0
 25 26  1  0
 25 27  1  0
 27 28  1  0
 27 29  2  0
 29 30  1  0
 29 31  1  0
 31 32  1  0
 31 33  2  0
 33 34  1  0
 22 35  1  0
 35 36  1  0
 35  3  1  0
 19 10  1  0
 33 24  1  0
M  CHG  1  21  -1
M  END
>  <UniqueID>  (15) 
14

>  <SMILES>  (15) 
N=c1nc(/C=C/c2ccccc2)[n-]/c(=N\c2cccc(F)c2)[nH]1

>  <Energy>  (15) 
47.358471008778714

>  <Genealogy>  (15) 
N=c1nc(C=Cc2ccccc2)[n-]c(=Nc2cccc(F)c2)[nH]1 (protonated)
N=c1nc(/C=C/c2ccccc2)[n-]/c(=N\c2cccc(F)c2)[nH]1 (cis-trans isomerization)
N=c1nc(/C=C/c2ccccc2)[n-]/c(=N\c2cccc(F)c2)[nH]1 (3D coordinates assigned)
N=c1nc(/C=C/c2ccccc2)[n-]/c(=N\c2cccc(F)c2)[nH]1 (optimized conformer: 47.358471008778714 kcal/mol)

>  <smiles>  (15) 
N=c1nc(C=Cc2ccccc2)[nH]c(=Nc2cccc(F)c2)[nH]1

>  <score_type>  (15) 
oracle

>  <origin>  (15) 
adgpu

>  <m_score__min__energy>  (15) 
-8.7400000000000002

>  <m_primary>  (15) 
energy

$$$$
15:0
     RDKit          3D

 33 35  0  0  0  0  0  0  0  0999 V2000
   -7.0533   23.4024  -32.5198 H   0  0  0  0  0  0  0  0  0  0  0  0
   -6.2070   23.7240  -31.8950 C   0  0  0  0  0  0  0  0  0  0  0  0
   -6.2540   24.9130  -31.2410 N   0  0  0  0  0  0  0  0  0  0  0  0
   -5.2250   25.3350  -30.4610 C   0  0  0  0  0  0  0  0  0  0  0  0
   -5.2817   26.3050  -29.9454 H   0  0  0  0  0  0  0  0  0  0  0  0
   -4.0940   24.5270  -30.3190 C   0  0  0  0  0  0  0  0  0  0  0  0
   -3.1110   24.9260  -29.5640 N   0  0  0  0  0  0  0  0  0  0  0  0
   -1.8790   24.2280  -29.3030 C   0  0  0  0  0  0  0  0  0  0  0  0
   -0.7760   24.8400  -29.3400 O   0  0  0  0  0  0  0  0  0  0  0  0
   -1.9060   22.7810  -28.9860 C   0  0  0  0  0  0  0  0  0  0  0  0
   -2.6100   22.3080  -27.8610 C   0  0  0  0  0  0  0  0  0  0  0  0
   -3.1447   23.0176  -27.2124 H   0  0  0  0  0  0  0  0  0  0  0  0
   -2.6330   20.9410  -27.5640 C   0  0  0  0  0  0  0  0  0  0  0  0
   -3.1851   20.5807  -26.6834 H   0  0  0  0  0  0  0  0  0  0  0  0
   -1.9580   20.0330  -28.3810 C   0  0  0  0  0  0  0  0  0  0  0  0
   -1.9787   18.9588  -28.1450 H   0  0  0  0  0  0  0  0  0  0  0  0
   -1.2560   20.4900  -29.4990 C   0  0  0  0  0  0  0  0  0  0  0  0
   -0.7238   19.7742  -30.1427 H   0  0  0  0  0  0  0  0  0  0  0  0
   -1.2280   21.8540  -29.8020 C   0  0  0  0  0  0  0  0  0  0  0  0
   -0.6727   22.2063  -30.6838 H   0  0  0  0  0  0  0  0  0  0  0  0
   -4.0490   23.3350  -30.9760 N   0  0  0  0  0  0  0  0  0  0  0  0
   -5.0700   22.9060  -31.7690 C   0  0  0  0  0  0  0  0  0  0  0  0
   -4.9600   21.5920  -32.4540 C   0  0  0  0  0  0  0  0  0  0  0  0
   -3.7090   21.0550  -32.8220 C   0  0  0  0  0  0  0  0  0  0  0  0
   -2.7885   21.6180  -32.6083 H   0  0  0  0  0  0  0  0  0  0  0  0
   -3.6310   19.8110  -33.4570 C   0  0  0  0  0  0  0  0  0  0  0  0
   -2.6511   19.4022  -33.7443 H   0  0  0  0  0  0  0  0  0  0  0  0
   -4.7940   19.0870  -33.7270 C   0  0  0  0  0  0  0  0  0  0  0  0
   -4.7300   18.1110  -34.2304 H   0  0  0  0  0  0  0  0  0  0  0  0
   -6.0380   19.6020  -33.3580 C   0  0  0  0  0  0  0  0  0  0  0  0
   -6.9535   19.0294  -33.5677 H   0  0  0  0  0  0  0  0  0  0  0  0
   -6.1220   20.8450  -32.7220 C   0  0  0  0  0  0  0  0  0  0  0  0
   -7.1050   21.2420  -32.4288 H   0  0  0  0  0  0  0  0  0  0  0  0
  1  2  1  0
  2  3  1  0
  3  4  2  0
  4  5  1  0
  4  6  1  0
  6  7  2  0
  7  8  1  0
  8  9  2  0
  8 10  1  0
 10 11  2  0
 11 12  1  0
 11 13  1  0
 13 14  1  0
 13 15  2  0
 15 16  1  0
 15 17  1  0
 17 18  1  0
 17 19  2  0
 19 20  1  0
  6 21  1  0
 21 22  1  0
 22 23  1  0
 23 24  2  0
 24 25  1  0
 24 26  1  0
 26 27  1  0
 26 28  2  0
 28 29  1  0
 28 30  1  0
 30 31  1  0
 30 32  2  0
 32 33  1  0
 22  2  2  0
 32 23  1  0
 19 10  1  0
M  CHG  1  21  -1
M  END
>  <UniqueID>  (16) 
15

>  <SMILES>  (16) 
O=C(/N=c1/cncc(-c2ccccc2)[n-]1)c1ccccc1

>  <Energy>  (16) 
44.9829741416493

>  <Genealogy>  (16) 
O=C(N=c1cncc(-c2ccccc2)[n-]1)c1ccccc1 (protonated)
O=C(/N=c1/cncc(-c2ccccc2)[n-]1)c1ccccc1 (cis-trans isomerization)
O=C(/N=c1/cncc(-c2ccccc2)[n-]1)c1ccccc1 (3D coordinates assigned)
O=C(/N=c1/cncc(-c2ccccc2)[n-]1)c1ccccc1 (optimized conformer: 44.9829741416493 kcal/mol)

>  <smiles>  (16) 
O=C(N=c1cncc(-c2ccccc2)[nH]1)c1ccccc1

>  <score_type>  (16) 
oracle

>  <origin>  (16) 
adgpu

>  <m_score__min__energy>  (16) 
-8.4199999999999999

>  <m_primary>  (16) 
energy

$$$$
16:0
     RDKit          3D

 52 54  0  0  0  0  0  0  0  0999 V2000
    2.3390   20.6460  -34.7370 C   0  0  0  0  0  0  0  0  0  0  0  0
    1.7570   19.3840  -33.6250 S   0  0  0  0  0  0  0  0  0  0  0  0
    1.8440   18.0380  -34.2900 O   0  0  0  0  0  0  0  0  0  0  0  0
    2.6320   19.3820  -32.4010 O   0  0  0  0  0  0  0  0  0  0  0  0
    0.1070   19.7140  -33.1880 N   0  0  0  0  0  0  0  0  0  0  0  0
   -0.9530   19.5260  -34.1810 C   0  0  0  0  0  0  0  0  0  0  0  0
   -2.2920   19.8170  -33.5730 C   0  0  0  0  0  0  0  0  0  0  0  0
   -2.9750   18.8690  -33.0960 O   0  0  0  0  0  0  0  0  0  0  0  0
   -2.8180   21.1530  -33.6080 N   0  0  0  0  0  0  0  0  0  0  0  0
   -4.0440   21.5520  -32.9740 C   0  0  0  0  0  0  0  0  0  0  0  0
   -5.2380   20.8350  -33.1690 C   0  0  0  0  0  0  0  0  0  0  0  0
   -6.4110   21.2320  -32.5210 C   0  0  0  0  0  0  0  0  0  0  0  0
   -6.4030   22.3350  -31.6640 C   0  0  0  0  0  0  0  0  0  0  0  0
   -5.2140   23.0420  -31.4410 C   0  0  0  0  0  0  0  0  0  0  0  0
   -5.2060   24.4350  -30.3640 S   0  0  0  0  0  0  0  0  0  0  0  0
   -3.7190   25.2970  -30.5440 N   0  0  0  0  0  0  0  0  0  0  0  0
   -6.3580   25.3410  -30.6970 O   0  0  0  0  0  0  0  0  0  0  0  0
   -5.3480   23.9800  -28.9380 O   0  0  0  0  0  0  0  0  0  0  0  0
   -4.0390   22.6470  -32.0960 C   0  0  0  0  0  0  0  0  0  0  0  0
   -0.1990   20.2180  -31.8780 C   0  0  0  0  0  0  0  0  0  0  0  0
   -0.6070   21.5500  -31.7050 C   0  0  0  0  0  0  0  0  0  0  0  0
   -0.9210   22.0310  -30.4310 C   0  0  0  0  0  0  0  0  0  0  0  0
   -0.8290   21.1940  -29.3130 C   0  0  0  0  0  0  0  0  0  0  0  0
   -1.1680   21.7120  -28.0550 O   0  0  0  0  0  0  0  0  0  0  0  0
   -1.2700   23.0730  -27.7340 C   0  0  0  0  0  0  0  0  0  0  0  0
   -2.4680   23.5470  -27.1850 C   0  0  0  0  0  0  0  0  0  0  0  0
   -2.6150   24.9010  -26.8710 C   0  0  0  0  0  0  0  0  0  0  0  0
   -1.5670   25.7940  -27.1120 C   0  0  0  0  0  0  0  0  0  0  0  0
   -0.3740   25.3340  -27.6770 C   0  0  0  0  0  0  0  0  0  0  0  0
   -0.2250   23.9810  -27.9940 C   0  0  0  0  0  0  0  0  0  0  0  0
   -0.4490   19.8500  -29.4900 C   0  0  0  0  0  0  0  0  0  0  0  0
   -0.1300   19.3700  -30.7630 C   0  0  0  0  0  0  0  0  0  0  0  0
    2.7302   21.4944  -34.1563 H   0  0  0  0  0  0  0  0  0  0  0  0
    3.1388   20.2357  -35.3710 H   0  0  0  0  0  0  0  0  0  0  0  0
    1.5076   20.9879  -35.3710 H   0  0  0  0  0  0  0  0  0  0  0  0
   -0.7827   20.2078  -35.0273 H   0  0  0  0  0  0  0  0  0  0  0  0
   -0.9368   18.4826  -34.5290 H   0  0  0  0  0  0  0  0  0  0  0  0
   -2.3390   21.8460  -34.2260 H   0  0  0  0  0  0  0  0  0  0  0  0
   -5.2488   19.9587  -33.8338 H   0  0  0  0  0  0  0  0  0  0  0  0
   -7.3442   20.6736  -32.6865 H   0  0  0  0  0  0  0  0  0  0  0  0
   -7.3310   22.6489  -31.1637 H   0  0  0  0  0  0  0  0  0  0  0  0
   -3.0950   24.7070  -31.1400 H   0  0  0  0  0  0  0  0  0  0  0  0
   -3.1047   23.2003  -31.9202 H   0  0  0  0  0  0  0  0  0  0  0  0
   -0.6799   22.2180  -32.5759 H   0  0  0  0  0  0  0  0  0  0  0  0
   -1.2429   23.0754  -30.3059 H   0  0  0  0  0  0  0  0  0  0  0  0
   -3.2982   22.8495  -26.9998 H   0  0  0  0  0  0  0  0  0  0  0  0
   -3.5567   25.2643  -26.4337 H   0  0  0  0  0  0  0  0  0  0  0  0
   -1.6810   26.8580  -26.8572 H   0  0  0  0  0  0  0  0  0  0  0  0
    0.4485   26.0378  -27.8723 H   0  0  0  0  0  0  0  0  0  0  0  0
    0.7112   23.6241  -28.4479 H   0  0  0  0  0  0  0  0  0  0  0  0
   -0.4030   19.1750  -28.6227 H   0  0  0  0  0  0  0  0  0  0  0  0
    0.1769   18.3215  -30.8913 H   0  0  0  0  0  0  0  0  0  0  0  0
  1  2  1  0
  2  3  2  0
  2  4  2  0
  2  5  1  0
  5  6  1  0
  6  7  1  0
  7  8  2  0
  7  9  1  0
  9 10  1  0
 10 11  2  0
 11 12  1  0
 12 13  2  0
 13 14  1  0
 14 15  1  0
 15 16  1  0
 15 17  2  0
 15 18  2  0
 14 19  2  0
  5 20  1  0
 20 21  2  0
 21 22  1  0
 22 23  2  0
 23 24  1  0
 24 25  1  0
 25 26  2  0
 26 27  1  0
 27 28  2  0
 28 29  1  0
 29 30  2  0
 23 31  1  0
 31 32  2  0
 19 10  1  0
 32 20  1  0
 30 25  1  0
  1 33  1  0
  1 34  1  0
  1 35  1  0
  6 36  1  0
  6 37  1  0
  9 38  1  0
 11 39  1  0
 12 40  1  0
 13 41  1  0
 16 42  1  0
 19 43  1  0
 21 44  1  0
 22 45  1  0
 26 46  1  0
 27 47  1  0
 28 48  1  0
 29 49  1  0
 30 50  1  0
 31 51  1  0
 32 52  1  0
M  CHG  1  16  -1
M  END
>  <UniqueID>  (17) 
16

>  <SMILES>  (17) 
CS(=O)(=O)N(CC(=O)Nc1cccc(S([NH-])(=O)=O)c1)c1ccc(Oc2ccccc2)cc1

>  <Energy>  (17) 
62.94429067323161

>  <Genealogy>  (17) 
CS(=O)(=O)N(CC(=O)Nc1cccc(S([NH-])(=O)=O)c1)c1ccc(Oc2ccccc2)cc1 (protonated)
CS(=O)(=O)N(CC(=O)Nc1cccc(S([NH-])(=O)=O)c1)c1ccc(Oc2ccccc2)cc1 (3D coordinates assigned)
CS(=O)(=O)N(CC(=O)Nc1cccc(S([NH-])(=O)=O)c1)c1ccc(Oc2ccccc2)cc1 (optimized conformer: 62.94429067323161 kcal/mol)

>  <smiles>  (17) 
CS(=O)(=O)N(CC(=O)Nc1cccc(S(N)(=O)=O)c1)c1ccc(Oc2ccccc2)cc1

>  <score_type>  (17) 
oracle

>  <origin>  (17) 
adgpu

>  <m_score__min__energy>  (17) 
-11.27

>  <m_primary>  (17) 
energy

$$$$
17:0
     RDKit          3D

 29 31  0  0  0  0  0  0  0  0999 V2000
   -4.2740   20.5930  -30.8550 O   0  0  0  0  0  0  0  0  0  0  0  0
   -3.9680   21.7890  -30.6040 C   0  0  0  0  0  0  0  0  0  0  0  0
   -2.9100   22.2200  -29.6990 C   0  0  0  0  0  0  0  0  0  0  0  0
   -2.0160   21.4800  -28.9250 C   0  0  0  0  0  0  0  0  0  0  0  0
   -1.0840   22.1820  -28.1400 C   0  0  0  0  0  0  0  0  0  0  0  0
   -1.0630   23.5930  -28.1450 C   0  0  0  0  0  0  0  0  0  0  0  0
   -1.9740   24.3170  -28.9350 C   0  0  0  0  0  0  0  0  0  0  0  0
   -1.9590   25.6730  -28.9470 F   0  0  0  0  0  0  0  0  0  0  0  0
   -2.8900   23.5980  -29.7040 C   0  0  0  0  0  0  0  0  0  0  0  0
   -3.9370   24.0510  -30.6140 C   0  0  0  0  0  0  0  0  0  0  0  0
   -4.2110   25.2510  -30.8770 O   0  0  0  0  0  0  0  0  0  0  0  0
   -4.6250   22.9260  -31.1700 N   0  0  0  0  0  0  0  0  0  0  0  0
   -5.5260   22.9330  -32.3210 C   0  0  0  0  0  0  0  0  0  0  0  0
   -6.7030   22.0210  -32.0740 C   0  0  0  0  0  0  0  0  0  0  0  0
   -6.8320   20.8120  -32.7870 C   0  0  0  0  0  0  0  0  0  0  0  0
   -5.8780   20.4220  -33.6700 F   0  0  0  0  0  0  0  0  0  0  0  0
   -7.9440   19.9900  -32.5820 C   0  0  0  0  0  0  0  0  0  0  0  0
   -8.9360   20.3620  -31.6730 C   0  0  0  0  0  0  0  0  0  0  0  0
   -8.8180   21.5570  -30.9630 C   0  0  0  0  0  0  0  0  0  0  0  0
   -7.7090   22.3880  -31.1590 C   0  0  0  0  0  0  0  0  0  0  0  0
   -7.6170   23.5390  -30.4480 F   0  0  0  0  0  0  0  0  0  0  0  0
   -2.0393   20.3803  -28.9286 H   0  0  0  0  0  0  0  0  0  0  0  0
   -0.3663   21.6273  -27.5177 H   0  0  0  0  0  0  0  0  0  0  0  0
   -0.3290   24.1304  -27.5267 H   0  0  0  0  0  0  0  0  0  0  0  0
   -5.8903   23.9571  -32.4898 H   0  0  0  0  0  0  0  0  0  0  0  0
   -4.9777   22.5760  -33.2053 H   0  0  0  0  0  0  0  0  0  0  0  0
   -8.0377   19.0462  -33.1392 H   0  0  0  0  0  0  0  0  0  0  0  0
   -9.8104   19.7131  -31.5166 H   0  0  0  0  0  0  0  0  0  0  0  0
   -9.6000   21.8474  -30.2460 H   0  0  0  0  0  0  0  0  0  0  0  0
  1  2  2  0
  2  3  1  0
  3  4  2  0
  4  5  1  0
  5  6  2  0
  6  7  1  0
  7  8  1  0
  7  9  2  0
  9 10  1  0
 10 11  2  0
 10 12  1  0
 12 13  1  0
 13 14  1  0
 14 15  2  0
 15 16  1  0
 15 17  1  0
 17 18  2  0
 18 19  1  0
 19 20  2  0
 20 21  1  0
 12  2  1  0
 20 14  1  0
  9  3  1  0
  4 22  1  0
  5 23  1  0
  6 24  1  0
 13 25  1  0
 13 26  1  0
 17 27  1  0
 18 28  1  0
 19 29  1  0
M  END
>  <UniqueID>  (18) 
17

>  <SMILES>  (18) 
O=C1c2cccc(F)c2C(=O)N1Cc1c(F)cccc1F

>  <Energy>  (18) 
63.6312259382892

>  <Genealogy>  (18) 
O=C1c2cccc(F)c2C(=O)N1Cc1c(F)cccc1F (3D coordinates assigned)
O=C1c2cccc(F)c2C(=O)N1Cc1c(F)cccc1F (nonaromatic ring conformer: 63.6312259382892 kcal/mol)

>  <smiles>  (18) 
O=C1c2cccc(F)c2C(=O)N1Cc1c(F)cccc1F

>  <score_type>  (18) 
oracle

>  <origin>  (18) 
adgpu

>  <m_score__min__energy>  (18) 
-7.2599999999999998

>  <m_primary>  (18) 
energy

$$$$
18:0
     RDKit          3D

 49 52  0  0  0  0  0  0  0  0999 V2000
   -5.1060   24.9240  -28.9590 C   0  0  0  0  0  0  0  0  0  0  0  0
   -4.0820   24.0150  -29.5010 N   0  0  0  0  0  0  0  0  0  0  0  0
   -4.4340   23.1970  -30.5390 C   0  0  0  0  0  0  0  0  0  0  0  0
   -3.5180   22.3070  -31.1070 C   0  0  0  0  0  0  0  0  0  0  0  0
   -4.0200   21.2520  -32.4330 S   0  0  0  0  0  0  0  0  0  0  0  0
   -3.8540   21.9470  -33.7550 O   0  0  0  0  0  0  0  0  0  0  0  0
   -3.1610   20.0170  -32.4420 O   0  0  0  0  0  0  0  0  0  0  0  0
   -5.7130   20.8250  -32.2130 C   0  0  0  0  0  0  0  0  0  0  0  0
   -6.0850   19.4760  -32.1290 C   0  0  0  0  0  0  0  0  0  0  0  0
   -7.4300   19.1250  -31.9720 C   0  0  0  0  0  0  0  0  0  0  0  0
   -8.4080   20.1210  -31.9020 C   0  0  0  0  0  0  0  0  0  0  0  0
   -8.0430   21.4670  -31.9900 C   0  0  0  0  0  0  0  0  0  0  0  0
   -6.6990   21.8200  -32.1480 C   0  0  0  0  0  0  0  0  0  0  0  0
   -2.2180   22.2430  -30.5940 C   0  0  0  0  0  0  0  0  0  0  0  0
   -1.3880   21.4310  -31.0880 O   0  0  0  0  0  0  0  0  0  0  0  0
   -1.8460   23.0820  -29.5290 C   0  0  0  0  0  0  0  0  0  0  0  0
   -0.5430   23.0410  -29.0000 C   0  0  0  0  0  0  0  0  0  0  0  0
   -0.1770   23.8740  -27.9440 C   0  0  0  0  0  0  0  0  0  0  0  0
    1.0800   23.7870  -27.4400 F   0  0  0  0  0  0  0  0  0  0  0  0
   -1.1060   24.7650  -27.3930 C   0  0  0  0  0  0  0  0  0  0  0  0
   -0.7340   25.6390  -26.3120 N   0  0  0  0  0  0  0  0  0  0  0  0
   -1.6450   25.8390  -25.1780 C   0  0  0  0  0  0  0  0  0  0  0  0
   -0.8690   26.3090  -23.9390 C   0  0  0  0  0  0  0  0  0  0  0  0
    0.4180   25.6040  -23.8500 N   0  0  0  0  0  0  0  0  0  0  0  0
    1.3270   25.9320  -24.9700 C   0  0  0  0  0  0  0  0  0  0  0  0
    0.5890   26.2720  -26.2820 C   0  0  0  0  0  0  0  0  0  0  0  0
   -2.4080   24.8150  -27.9130 C   0  0  0  0  0  0  0  0  0  0  0  0
   -2.8030   23.9790  -28.9840 C   0  0  0  0  0  0  0  0  0  0  0  0
   -5.0755   24.8969  -27.8598 H   0  0  0  0  0  0  0  0  0  0  0  0
   -4.9074   25.9487  -29.3062 H   0  0  0  0  0  0  0  0  0  0  0  0
   -6.0999   24.6054  -29.3062 H   0  0  0  0  0  0  0  0  0  0  0  0
   -5.4593   23.2404  -30.9351 H   0  0  0  0  0  0  0  0  0  0  0  0
   -5.3167   18.6909  -32.1867 H   0  0  0  0  0  0  0  0  0  0  0  0
   -7.7178   18.0655  -31.9037 H   0  0  0  0  0  0  0  0  0  0  0  0
   -9.4656   19.8452  -31.7776 H   0  0  0  0  0  0  0  0  0  0  0  0
   -8.8138   22.2499  -31.9349 H   0  0  0  0  0  0  0  0  0  0  0  0
   -6.4148   22.8801  -32.2214 H   0  0  0  0  0  0  0  0  0  0  0  0
    0.1948   22.3441  -29.4243 H   0  0  0  0  0  0  0  0  0  0  0  0
   -2.3940   26.5989  -25.4454 H   0  0  0  0  0  0  0  0  0  0  0  0
   -2.1388   24.8837  -24.9464 H   0  0  0  0  0  0  0  0  0  0  0  0
   -0.6864   27.3912  -24.0132 H   0  0  0  0  0  0  0  0  0  0  0  0
   -1.4620   26.0898  -23.0388 H   0  0  0  0  0  0  0  0  0  0  0  0
    0.2440   24.5710  -23.8330 H   0  0  0  0  0  0  0  0  0  0  0  0
    0.8830   25.8640  -22.9490 H   0  0  0  0  0  0  0  0  0  0  0  0
    1.9385   26.7990  -24.6797 H   0  0  0  0  0  0  0  0  0  0  0  0
    1.9372   25.0376  -25.1643 H   0  0  0  0  0  0  0  0  0  0  0  0
    0.4691   27.3629  -26.3565 H   0  0  0  0  0  0  0  0  0  0  0  0
    1.1809   25.8943  -27.1287 H   0  0  0  0  0  0  0  0  0  0  0  0
   -3.1355   25.5173  -27.4800 H   0  0  0  0  0  0  0  0  0  0  0  0
  1  2  1  0
  2  3  1  0
  3  4  2  0
  4  5  1  0
  5  6  2  0
  5  7  2  0
  5  8  1  0
  8  9  2  0
  9 10  1  0
 10 11  2  0
 11 12  1  0
 12 13  2  0
  4 14  1  0
 14 15  2  0
 14 16  1  0
 16 17  2  0
 17 18  1  0
 18 19  1  0
 18 20  2  0
 20 21  1  0
 21 22  1  0
 22 23  1  0
 23 24  1  0
 24 25  1  0
 25 26  1  0
 20 27  1  0
 27 28  2  0
 28  2  1  0
 13  8  1  0
 28 16  1  0
 26 21  1  0
  1 29  1  0
  1 30  1  0
  1 31  1  0
  3 32  1  0
  9 33  1  0
 10 34  1  0
 11 35  1  0
 12 36  1  0
 13 37  1  0
 17 38  1  0
 22 39  1  0
 22 40  1  0
 23 41  1  0
 23 42  1  0
 24 43  1  0
 24 44  1  0
 25 45  1  0
 25 46  1  0
 26 47  1  0
 26 48  1  0
 27 49  1  0
M  CHG  1  24   1
M  END
>  <UniqueID>  (19) 
18

>  <SMILES>  (19) 
Cn1cc(S(=O)(=O)c2ccccc2)c(=O)c2cc(F)c(N3CC[NH2+]CC3)cc21

>  <Energy>  (19) 
73.00332049797235

>  <Genealogy>  (19) 
Cn1cc(S(=O)(=O)c2ccccc2)c(=O)c2cc(F)c(N3CC[NH2+]CC3)cc21 (protonated)
Cn1cc(S(=O)(=O)c2ccccc2)c(=O)c2cc(F)c(N3CC[NH2+]CC3)cc21 (3D coordinates assigned)
Cn1cc(S(=O)(=O)c2ccccc2)c(=O)c2cc(F)c(N3CC[NH2+]CC3)cc21 (nonaromatic ring conformer: 73.00332049797235 kcal/mol)

>  <smiles>  (19) 
Cn1cc(S(=O)(=O)c2ccccc2)c(=O)c2cc(F)c(N3CCNCC3)cc21

>  <score_type>  (19) 
oracle

>  <origin>  (19) 
adgpu

>  <m_score__min__energy>  (19) 
-8.6999999999999993

>  <m_primary>  (19) 
energy

$$$$
19:0
     RDKit          3D

 46 48  0  0  0  0  0  0  0  0999 V2000
   -8.0500   18.3570  -31.9460 C   0  0  0  0  0  0  0  0  0  0  0  0
   -9.1610   19.3200  -32.3510 C   0  0  0  0  0  0  0  0  0  0  0  0
   -8.6200   20.5780  -32.7530 O   0  0  0  0  0  0  0  0  0  0  0  0
   -7.6880   21.3380  -32.0270 C   0  0  0  0  0  0  0  0  0  0  0  0
   -6.3300   21.1740  -32.3220 C   0  0  0  0  0  0  0  0  0  0  0  0
   -5.3580   21.9060  -31.6360 C   0  0  0  0  0  0  0  0  0  0  0  0
   -5.7300   22.8200  -30.6360 C   0  0  0  0  0  0  0  0  0  0  0  0
   -4.7050   23.6130  -29.9250 C   0  0  0  0  0  0  0  0  0  0  0  0
   -3.8500   24.4590  -30.5370 N   0  0  0  0  0  0  0  0  0  0  0  0
   -3.1080   24.9790  -29.5780 N   0  0  0  0  0  0  0  0  0  0  0  0
   -3.5190   24.4500  -28.4150 C   0  0  0  0  0  0  0  0  0  0  0  0
   -2.8030   24.8400  -26.8180 S   0  0  0  0  0  0  0  0  0  0  0  0
   -1.5270   25.9710  -27.4850 C   0  0  0  0  0  0  0  0  0  0  0  0
   -0.3640   25.2320  -28.0790 C   0  0  0  0  0  0  0  0  0  0  0  0
    0.7640   25.3100  -27.5220 O   0  0  0  0  0  0  0  0  0  0  0  0
   -0.5390   24.4680  -29.2800 N   0  0  0  0  0  0  0  0  0  0  0  0
   -0.8390   23.0690  -29.3640 C   0  0  0  0  0  0  0  0  0  0  0  0
   -0.5680   22.2580  -28.2570 C   0  0  0  0  0  0  0  0  0  0  0  0
   -0.8410   20.8890  -28.2980 C   0  0  0  0  0  0  0  0  0  0  0  0
   -1.3700   20.3160  -29.4560 C   0  0  0  0  0  0  0  0  0  0  0  0
   -1.6210   21.1010  -30.5880 C   0  0  0  0  0  0  0  0  0  0  0  0
   -2.1310   20.4730  -31.7340 O   0  0  0  0  0  0  0  0  0  0  0  0
   -2.2980   21.1100  -32.9970 C   0  0  0  0  0  0  0  0  0  0  0  0
   -1.3490   22.4840  -30.5400 C   0  0  0  0  0  0  0  0  0  0  0  0
   -4.5300   23.5800  -28.5850 N   0  0  0  0  0  0  0  0  0  0  0  0
   -7.0920   22.9770  -30.3290 C   0  0  0  0  0  0  0  0  0  0  0  0
   -8.0640   22.2430  -31.0150 C   0  0  0  0  0  0  0  0  0  0  0  0
   -7.9910   18.3059  -30.8488 H   0  0  0  0  0  0  0  0  0  0  0  0
   -8.2671   17.3566  -32.3485 H   0  0  0  0  0  0  0  0  0  0  0  0
   -7.0905   18.7139  -32.3485 H   0  0  0  0  0  0  0  0  0  0  0  0
   -9.7264   18.8863  -33.1890 H   0  0  0  0  0  0  0  0  0  0  0  0
   -9.8211   19.4805  -31.4859 H   0  0  0  0  0  0  0  0  0  0  0  0
   -6.0247   20.4612  -33.1022 H   0  0  0  0  0  0  0  0  0  0  0  0
   -4.2947   21.7659  -31.8803 H   0  0  0  0  0  0  0  0  0  0  0  0
   -2.3420   25.6740  -29.7220 H   0  0  0  0  0  0  0  0  0  0  0  0
   -1.9833   26.5980  -28.2652 H   0  0  0  0  0  0  0  0  0  0  0  0
   -1.1479   26.5794  -26.6507 H   0  0  0  0  0  0  0  0  0  0  0  0
   -0.1367   22.7018  -27.3476 H   0  0  0  0  0  0  0  0  0  0  0  0
   -0.6391   20.2617  -27.4172 H   0  0  0  0  0  0  0  0  0  0  0  0
   -1.5915   19.2388  -29.4793 H   0  0  0  0  0  0  0  0  0  0  0  0
   -2.5742   22.1635  -32.8426 H   0  0  0  0  0  0  0  0  0  0  0  0
   -1.3556   21.0570  -33.5619 H   0  0  0  0  0  0  0  0  0  0  0  0
   -3.0932   20.6014  -33.5619 H   0  0  0  0  0  0  0  0  0  0  0  0
   -1.5360   23.1094  -31.4254 H   0  0  0  0  0  0  0  0  0  0  0  0
   -7.3960   23.6833  -29.5424 H   0  0  0  0  0  0  0  0  0  0  0  0
   -9.1270   22.3726  -30.7635 H   0  0  0  0  0  0  0  0  0  0  0  0
  1  2  1  0
  2  3  1  0
  3  4  1  0
  4  5  2  0
  5  6  1  0
  6  7  2  0
  7  8  1  0
  8  9  2  0
  9 10  1  0
 10 11  1  0
 11 12  1  0
 12 13  1  0
 13 14  1  0
 14 15  2  0
 14 16  1  0
 16 17  1  0
 17 18  2  0
 18 19  1  0
 19 20  2  0
 20 21  1  0
 21 22  1  0
 22 23  1  0
 21 24  2  0
 11 25  2  0
  7 26  1  0
 26 27  2  0
 27  4  1  0
 25  8  1  0
 24 17  1  0
  1 28  1  0
  1 29  1  0
  1 30  1  0
  2 31  1  0
  2 32  1  0
  5 33  1  0
  6 34  1  0
 10 35  1  0
 13 36  1  0
 13 37  1  0
 18 38  1  0
 19 39  1  0
 20 40  1  0
 23 41  1  0
 23 42  1  0
 23 43  1  0
 24 44  1  0
 26 45  1  0
 27 46  1  0
M  CHG  1  16  -1
M  END
>  <UniqueID>  (20) 
19

>  <SMILES>  (20) 
CCOc1ccc(-c2n[nH]c(SCC(=O)[N-]c3cccc(OC)c3)n2)cc1

>  <Energy>  (20) 
77.03478367960119

>  <Genealogy>  (20) 
CCOc1ccc(-c2n[nH]c(SCC(=O)[N-]c3cccc(OC)c3)n2)cc1 (protonated)
CCOc1ccc(-c2n[nH]c(SCC(=O)[N-]c3cccc(OC)c3)n2)cc1 (3D coordinates assigned)
CCOc1ccc(-c2n[nH]c(SCC(=O)[N-]c3cccc(OC)c3)n2)cc1 (optimized conformer: 77.03478367960119 kcal/mol)

>  <smiles>  (20) 
CCOc1ccc(-c2n[nH]c(SCC(=O)Nc3cccc(OC)c3)n2)cc1

>  <score_type>  (20) 
oracle

>  <origin>  (20) 
adgpu

>  <m_score__min__energy>  (20) 
-9.6300000000000008

>  <m_primary>  (20) 
energy

$$$$
20:0
     RDKit          3D

 37 39  0  0  1  0  0  0  0  0999 V2000
   -1.9710   26.9090  -24.7710 N   0  0  0  0  0  0  0  0  0  0  0  0
   -1.4260   25.8690  -25.5790 C   0  0  0  0  0  0  0  0  0  0  0  0
   -0.6490   24.9300  -24.9510 C   0  0  0  0  0  0  0  0  0  0  0  0
   -0.0670   23.8690  -25.6520 C   0  0  0  0  0  0  0  0  0  0  0  0
   -0.2910   23.7750  -27.0210 C   0  0  0  0  0  0  0  0  0  0  0  0
   -1.0750   24.7320  -27.6300 C   0  0  0  0  0  0  0  0  0  0  0  0
   -1.3100   24.6590  -28.9860 O   0  0  0  0  0  0  0  0  0  0  0  0
   -1.5840   23.4870  -29.6720 C   0  0  0  0  0  0  0  0  0  0  0  0
   -0.6790   22.5030  -29.8480 N   0  0  0  0  0  0  0  0  0  0  0  0
   -1.0130   21.4030  -30.5190 C   0  0  0  0  0  0  0  0  0  0  0  0
   -2.2240   21.1750  -31.0610 N   0  0  0  0  0  0  0  0  0  0  0  0
   -3.1450   22.1390  -30.9000 C   0  0  0  0  0  0  0  0  0  0  0  0
   -4.3240   22.0000  -31.3850 N   0  0  0  0  0  0  0  0  0  0  0  0
   -4.7390   20.8480  -32.1110 C   0  0  0  0  0  0  0  0  0  0  0  0
   -4.0990   20.3490  -33.2040 C   0  0  0  0  0  0  0  0  0  0  0  0
   -4.5910   19.2150  -33.8400 C   0  0  0  0  0  0  0  0  0  0  0  0
   -5.7390   18.6000  -33.3490 C   0  0  0  0  0  0  0  0  0  0  0  0
   -6.4660   17.0340  -34.1820 Br  0  0  0  0  0  0  0  0  0  0  0  0
   -6.4080   19.0880  -32.2380 C   0  0  0  0  0  0  0  0  0  0  0  0
   -5.8920   20.2190  -31.6300 C   0  0  0  0  0  0  0  0  0  0  0  0
   -2.8360   23.2880  -30.2140 C   0  0  0  0  0  0  0  0  0  0  0  0
   -3.8250   24.2920  -30.0570 N   0  0  0  0  0  0  0  0  0  0  0  0
   -3.8650   25.2820  -30.8200 O   0  0  0  0  0  0  0  0  0  0  0  0
   -4.7440   24.1520  -29.0410 O   0  0  0  0  0  0  0  0  0  0  0  0
   -1.6460   25.7740  -26.9350 C   0  0  0  0  0  0  0  0  0  0  0  0
   -2.0490   26.7980  -23.7310 H   0  0  0  0  0  0  0  0  0  0  0  0
   -2.3100   27.8150  -25.1840 H   0  0  0  0  0  0  0  0  0  0  0  0
   -0.4789   25.0134  -23.8674 H   0  0  0  0  0  0  0  0  0  0  0  0
    0.5543   23.1252  -25.1317 H   0  0  0  0  0  0  0  0  0  0  0  0
    0.1483   22.9538  -27.6064 H   0  0  0  0  0  0  0  0  0  0  0  0
    0.2770   22.6590  -29.4340 H   0  0  0  0  0  0  0  0  0  0  0  0
   -0.2448   20.6249  -30.6392 H   0  0  0  0  0  0  0  0  0  0  0  0
   -3.1926   20.8431  -33.5839 H   0  0  0  0  0  0  0  0  0  0  0  0
   -4.0776   18.8074  -34.7234 H   0  0  0  0  0  0  0  0  0  0  0  0
   -7.3138   18.5957  -31.8543 H   0  0  0  0  0  0  0  0  0  0  0  0
   -6.4009   20.6333  -30.7472 H   0  0  0  0  0  0  0  0  0  0  0  0
   -2.2676   26.5183  -27.4542 H   0  0  0  0  0  0  0  0  0  0  0  0
  1  2  1  0
  2  3  2  0
  3  4  1  0
  4  5  2  0
  5  6  1  0
  6  7  1  0
  7  8  1  0
  8  9  1  0
  9 10  1  0
 10 11  2  0
 11 12  1  0
 12 13  2  0
 13 14  1  0
 14 15  2  0
 15 16  1  0
 16 17  2  0
 17 18  1  0
 17 19  1  0
 19 20  2  0
 12 21  1  0
 21 22  1  0
 22 23  2  0
 22 24  1  0
  6 25  2  0
 25  2  1  0
 21  8  2  0
 20 14  1  0
  1 26  1  0
  1 27  1  0
  3 28  1  0
  4 29  1  0
  5 30  1  0
  9 31  1  0
 10 32  1  0
 15 33  1  0
 16 34  1  0
 19 35  1  0
 20 36  1  0
 25 37  1  0
M  CHG  2  22   1  24  -1
M  END
>  <smiles>  (21) 
Nc1cccc(Oc2[nH]cnc(=Nc3ccc(Br)cc3)c2[N+](=O)[O-])c1

>  <score_type>  (21) 
oracle

>  <origin>  (21) 
adgpu

>  <m_score__min__energy>  (21) 
-7.9699999999999998

>  <m_primary>  (21) 
energy

$$$$
21:0
     RDKit          3D

 51 53  0  0  0  0  0  0  0  0999 V2000
   -6.5620   15.0430  -34.1400 C   0  0  0  0  0  0  0  0  0  0  0  0
   -6.8390   16.4180  -34.3880 O   0  0  0  0  0  0  0  0  0  0  0  0
   -5.9150   17.4580  -34.2030 C   0  0  0  0  0  0  0  0  0  0  0  0
   -4.6010   17.2670  -34.6450 C   0  0  0  0  0  0  0  0  0  0  0  0
   -3.6400   18.2710  -34.4800 C   0  0  0  0  0  0  0  0  0  0  0  0
   -3.9830   19.4930  -33.8710 C   0  0  0  0  0  0  0  0  0  0  0  0
   -3.0210   20.5490  -33.6830 N   0  0  0  0  0  0  0  0  0  0  0  0
   -1.6480   20.4380  -32.6260 S   0  0  0  0  0  0  0  0  0  0  0  0
   -0.3880   20.6730  -33.4110 O   0  0  0  0  0  0  0  0  0  0  0  0
   -1.5940   19.0630  -32.0240 O   0  0  0  0  0  0  0  0  0  0  0  0
   -1.7950   21.6160  -31.3360 C   0  0  0  0  0  0  0  0  0  0  0  0
   -2.7830   22.5690  -31.2220 C   0  0  0  0  0  0  0  0  0  0  0  0
   -2.4900   23.2890  -30.0750 C   0  0  0  0  0  0  0  0  0  0  0  0
   -3.3100   24.4110  -29.5700 C   0  0  0  0  0  0  0  0  0  0  0  0
   -3.5290   24.5110  -28.3320 O   0  0  0  0  0  0  0  0  0  0  0  0
   -3.8580   25.3790  -30.4670 N   0  0  0  0  0  0  0  0  0  0  0  0
   -5.2820   25.6780  -30.5410 C   0  0  0  0  0  0  0  0  0  0  0  0
   -6.0410   24.4130  -30.8120 C   0  0  0  0  0  0  0  0  0  0  0  0
   -6.8370   23.8310  -29.8130 C   0  0  0  0  0  0  0  0  0  0  0  0
   -7.5200   22.6360  -30.0630 C   0  0  0  0  0  0  0  0  0  0  0  0
   -7.4140   22.0080  -31.3130 C   0  0  0  0  0  0  0  0  0  0  0  0
   -8.1160   20.7050  -31.5610 C   0  0  0  0  0  0  0  0  0  0  0  0
   -6.5910   22.5710  -32.3010 C   0  0  0  0  0  0  0  0  0  0  0  0
   -5.9140   23.7690  -32.0540 C   0  0  0  0  0  0  0  0  0  0  0  0
   -1.3620   22.7970  -29.4990 N   0  0  0  0  0  0  0  0  0  0  0  0
   -0.7030   23.2490  -28.2760 C   0  0  0  0  0  0  0  0  0  0  0  0
   -0.9370   21.7750  -30.2700 C   0  0  0  0  0  0  0  0  0  0  0  0
   -5.3020   19.6810  -33.4280 C   0  0  0  0  0  0  0  0  0  0  0  0
   -6.2620   18.6760  -33.5920 C   0  0  0  0  0  0  0  0  0  0  0  0
   -6.5264   14.8661  -33.0549 H   0  0  0  0  0  0  0  0  0  0  0  0
   -7.3533   14.4232  -34.5868 H   0  0  0  0  0  0  0  0  0  0  0  0
   -5.5924   14.7779  -34.5868 H   0  0  0  0  0  0  0  0  0  0  0  0
   -4.3208   16.3186  -35.1267 H   0  0  0  0  0  0  0  0  0  0  0  0
   -2.6101   18.1042  -34.8284 H   0  0  0  0  0  0  0  0  0  0  0  0
   -3.1050   21.4180  -34.2550 H   0  0  0  0  0  0  0  0  0  0  0  0
   -3.6322   22.7265  -31.9032 H   0  0  0  0  0  0  0  0  0  0  0  0
   -5.6168   26.1100  -29.5864 H   0  0  0  0  0  0  0  0  0  0  0  0
   -5.4655   26.3985  -31.3517 H   0  0  0  0  0  0  0  0  0  0  0  0
   -6.9241   24.3164  -28.8298 H   0  0  0  0  0  0  0  0  0  0  0  0
   -8.1431   22.1866  -29.2757 H   0  0  0  0  0  0  0  0  0  0  0  0
   -8.3688   20.2358  -30.5988 H   0  0  0  0  0  0  0  0  0  0  0  0
   -9.0376   20.8881  -32.1330 H   0  0  0  0  0  0  0  0  0  0  0  0
   -7.4562   20.0361  -32.1330 H   0  0  0  0  0  0  0  0  0  0  0  0
   -6.4784   22.0679  -33.2727 H   0  0  0  0  0  0  0  0  0  0  0  0
   -5.2785   24.2096  -32.8363 H   0  0  0  0  0  0  0  0  0  0  0  0
   -1.2536   22.8714  -27.4018 H   0  0  0  0  0  0  0  0  0  0  0  0
    0.3284   22.8673  -28.2527 H   0  0  0  0  0  0  0  0  0  0  0  0
   -0.6876   24.3486  -28.2527 H   0  0  0  0  0  0  0  0  0  0  0  0
   -0.0434   21.1631  -30.0773 H   0  0  0  0  0  0  0  0  0  0  0  0
   -5.5840   20.6290  -32.9466 H   0  0  0  0  0  0  0  0  0  0  0  0
   -7.2918   18.8395  -33.2416 H   0  0  0  0  0  0  0  0  0  0  0  0
  1  2  1  0
  2  3  1  0
  3  4  2  0
  4  5  1  0
  5  6  2  0
  6  7  1  0
  7  8  1  0
  8  9  2  0
  8 10  2  0
  8 11  1  0
 11 12  1  0
 12 13  2  0
 13 14  1  0
 14 15  2  0
 14 16  1  0
 16 17  1  0
 17 18  1  0
 18 19  2  0
 19 20  1  0
 20 21  2  0
 21 22  1  0
 21 23  1  0
 23 24  2  0
 13 25  1  0
 25 26  1  0
 25 27  1  0
  6 28  1  0
 28 29  2  0
 29  3  1  0
 27 11  2  0
 24 18  1  0
  1 30  1  0
  1 31  1  0
  1 32  1  0
  4 33  1  0
  5 34  1  0
  7 35  1  0
 12 36  1  0
 17 37  1  0
 17 38  1  0
 19 39  1  0
 20 40  1  0
 22 41  1  0
 22 42  1  0
 22 43  1  0
 23 44  1  0
 24 45  1  0
 26 46  1  0
 26 47  1  0
 26 48  1  0
 27 49  1  0
 28 50  1  0
 29 51  1  0
M  CHG  1  16  -1
M  END
>  <UniqueID>  (22) 
20

>  <SMILES>  (22) 
COc1ccc(NS(=O)(=O)c2cc(C(=O)[N-]Cc3ccc(C)cc3)n(C)c2)cc1

>  <Energy>  (22) 
77.57524758559227

>  <Genealogy>  (22) 
COc1ccc(NS(=O)(=O)c2cc(C(=O)[N-]Cc3ccc(C)cc3)n(C)c2)cc1 (protonated)
COc1ccc(NS(=O)(=O)c2cc(C(=O)[N-]Cc3ccc(C)cc3)n(C)c2)cc1 (3D coordinates assigned)
COc1ccc(NS(=O)(=O)c2cc(C(=O)[N-]Cc3ccc(C)cc3)n(C)c2)cc1 (optimized conformer: 77.57524758559227 kcal/mol)

>  <smiles>  (22) 
COc1ccc(NS(=O)(=O)c2cc(C(=O)NCc3ccc(C)cc3)n(C)c2)cc1

>  <score_type>  (22) 
oracle

>  <origin>  (22) 
adgpu

>  <m_score__min__energy>  (22) 
-11.619999999999999

>  <m_primary>  (22) 
energy

$$$$
22:0
     RDKit          3D

 29 32  0  0  0  0  0  0  0  0999 V2000
   -4.2008   19.4352  -33.6626 H   0  0  0  0  0  0  0  0  0  0  0  0
   -4.8820   20.1080  -33.1210 C   0  0  0  0  0  0  0  0  0  0  0  0
   -4.4050   21.3210  -32.6150 C   0  0  0  0  0  0  0  0  0  0  0  0
   -3.3466   21.5896  -32.7482 H   0  0  0  0  0  0  0  0  0  0  0  0
   -5.2670   22.1990  -31.9380 C   0  0  0  0  0  0  0  0  0  0  0  0
   -4.7630   23.4800  -31.4020 C   0  0  0  0  0  0  0  0  0  0  0  0
   -3.5690   23.6390  -30.8020 N   0  0  0  0  0  0  0  0  0  0  0  0
   -3.5210   24.9230  -30.4810 N   0  0  0  0  0  0  0  0  0  0  0  0
   -4.6360   25.5210  -30.8660 N   0  0  0  0  0  0  0  0  0  0  0  0
   -5.4370   24.6450  -31.4480 N   0  0  0  0  0  0  0  0  0  0  0  0
   -6.6180   21.8460  -31.7860 C   0  0  0  0  0  0  0  0  0  0  0  0
   -7.3059   22.5278  -31.2646 H   0  0  0  0  0  0  0  0  0  0  0  0
   -7.0940   20.6320  -32.2940 C   0  0  0  0  0  0  0  0  0  0  0  0
   -8.1576   20.3739  -32.1837 H   0  0  0  0  0  0  0  0  0  0  0  0
   -6.2280   19.7440  -32.9410 C   0  0  0  0  0  0  0  0  0  0  0  0
   -6.7680   18.5220  -33.4720 N   0  0  0  0  0  0  0  0  0  0  0  0
   -6.1690   17.3690  -33.5280 C   0  0  0  0  0  0  0  0  0  0  0  0
   -4.9450   17.1210  -32.9960 N   0  0  0  0  0  0  0  0  0  0  0  0
   -4.6020   15.8200  -33.1750 C   0  0  0  0  0  0  0  0  0  0  0  0
   -3.4000   15.2560  -32.7440 C   0  0  0  0  0  0  0  0  0  0  0  0
   -2.6481   15.8672  -32.2234 H   0  0  0  0  0  0  0  0  0  0  0  0
   -3.1700   13.8900  -32.9890 C   0  0  0  0  0  0  0  0  0  0  0  0
   -2.2286   13.4266  -32.6587 H   0  0  0  0  0  0  0  0  0  0  0  0
   -4.1380   13.1110  -33.6550 C   0  0  0  0  0  0  0  0  0  0  0  0
   -3.9474   12.0437  -33.8410 H   0  0  0  0  0  0  0  0  0  0  0  0
   -5.3430   13.6890  -34.0820 C   0  0  0  0  0  0  0  0  0  0  0  0
   -6.1050   13.0896  -34.6017 H   0  0  0  0  0  0  0  0  0  0  0  0
   -5.5470   15.0440  -33.8290 C   0  0  0  0  0  0  0  0  0  0  0  0
   -6.8770   15.9940  -34.2140 S   0  0  0  0  0  0  0  0  0  0  0  0
  1  2  1  0
  2  3  2  0
  3  4  1  0
  3  5  1  0
  5  6  1  0
  6  7  1  0
  7  8  2  0
  8  9  1  0
  9 10  1  0
  5 11  2  0
 11 12  1  0
 11 13  1  0
 13 14  1  0
 13 15  2  0
 15 16  1  0
 16 17  2  0
 17 18  1  0
 18 19  1  0
 19 20  2  0
 20 21  1  0
 20 22  1  0
 22 23  1  0
 22 24  2  0
 24 25  1  0
 24 26  1  0
 26 27  1  0
 26 28  2  0
 28 29  1  0
 15  2  1  0
 29 17  1  0
 10  6  2  0
 28 19  1  0
M  CHG  2   9  -1  18  -1
M  END
>  <UniqueID>  (23) 
21

>  <SMILES>  (23) 
c1ccc2s/c(=N/c3ccc(-c4nn[n-]n4)cc3)[n-]c2c1

>  <Energy>  (23) 
112.93749095016085

>  <Genealogy>  (23) 
c1ccc2sc(=Nc3ccc(-c4nn[n-]n4)cc3)[n-]c2c1 (protonated)
c1ccc2s/c(=N/c3ccc(-c4nn[n-]n4)cc3)[n-]c2c1 (cis-trans isomerization)
c1ccc2s/c(=N/c3ccc(-c4nn[n-]n4)cc3)[n-]c2c1 (3D coordinates assigned)
c1ccc2s/c(=N/c3ccc(-c4nn[n-]n4)cc3)[n-]c2c1 (optimized conformer: 112.93749095016085 kcal/mol)

>  <smiles>  (23) 
c1ccc2sc(=Nc3ccc(-c4nn[nH]n4)cc3)[nH]c2c1

>  <score_type>  (23) 
oracle

>  <origin>  (23) 
adgpu

>  <m_score__min__energy>  (23) 
-9.2400000000000002

>  <m_primary>  (23) 
energy

$$$$
23:0
     RDKit          3D

 58 61  0  0  0  0  0  0  0  0999 V2000
   -2.4410   16.9600  -35.0180 C   0  0  0  0  0  0  0  0  0  0  0  0
   -3.4570   17.1850  -33.9730 N   0  0  2  0  0  0  0  0  0  0  0  0
   -4.1120   15.8970  -33.6190 C   0  0  0  0  0  0  0  0  0  0  0  0
   -5.4730   16.1170  -32.9470 C   0  0  0  0  0  0  0  0  0  0  0  0
   -6.4590   16.8440  -33.8920 C   0  0  1  0  0  0  0  0  0  0  0  0
   -7.3270   17.6920  -33.1350 O   0  0  0  0  0  0  0  0  0  0  0  0
   -6.9830   18.9380  -32.5850 C   0  0  0  0  0  0  0  0  0  0  0  0
   -5.7960   19.1530  -31.8600 C   0  0  0  0  0  0  0  0  0  0  0  0
   -5.5100   20.4150  -31.3310 C   0  0  0  0  0  0  0  0  0  0  0  0
   -6.4020   21.4860  -31.5150 C   0  0  0  0  0  0  0  0  0  0  0  0
   -6.1020   22.8260  -30.9490 C   0  0  0  0  0  0  0  0  0  0  0  0
   -7.1450   23.6940  -30.5790 C   0  0  0  0  0  0  0  0  0  0  0  0
   -6.8600   24.9620  -30.0680 C   0  0  0  0  0  0  0  0  0  0  0  0
   -5.5360   25.3760  -29.9100 C   0  0  0  0  0  0  0  0  0  0  0  0
   -4.4820   24.5100  -30.2440 C   0  0  0  0  0  0  0  0  0  0  0  0
   -3.1110   24.9120  -30.1190 N   0  0  0  0  0  0  0  0  0  0  0  0
   -2.3290   24.9150  -28.9160 C   0  0  0  0  0  0  0  0  0  0  0  0
   -1.1800   25.4310  -28.9430 O   0  0  0  0  0  0  0  0  0  0  0  0
   -2.8260   24.2850  -27.6430 C   0  0  0  0  0  0  0  0  0  0  0  0
   -2.4050   22.8400  -27.5640 C   0  0  0  0  0  0  0  0  0  0  0  0
   -3.1270   21.8510  -28.2540 C   0  0  0  0  0  0  0  0  0  0  0  0
   -2.7480   20.5080  -28.1550 C   0  0  0  0  0  0  0  0  0  0  0  0
   -1.6560   20.1430  -27.3630 C   0  0  0  0  0  0  0  0  0  0  0  0
   -0.9420   21.1220  -26.6640 C   0  0  0  0  0  0  0  0  0  0  0  0
   -1.3160   22.4650  -26.7600 C   0  0  0  0  0  0  0  0  0  0  0  0
   -4.7700   23.2500  -30.7840 C   0  0  0  0  0  0  0  0  0  0  0  0
   -7.5870   21.2660  -32.2380 C   0  0  0  0  0  0  0  0  0  0  0  0
   -7.8720   20.0020  -32.7640 C   0  0  0  0  0  0  0  0  0  0  0  0
   -5.7220   17.7000  -34.9430 C   0  0  0  0  0  0  0  0  0  0  0  0
   -4.4090   18.2590  -34.3800 C   0  0  0  0  0  0  0  0  0  0  0  0
   -1.4709   16.7452  -34.5460 H   0  0  0  0  0  0  0  0  0  0  0  0
   -2.7413   16.1066  -35.6437 H   0  0  0  0  0  0  0  0  0  0  0  0
   -2.3529   17.8604  -35.6437 H   0  0  0  0  0  0  0  0  0  0  0  0
   -2.9450   17.5230  -33.1230 H   0  0  0  0  0  0  0  0  0  0  0  0
   -4.2587   15.3080  -34.5364 H   0  0  0  0  0  0  0  0  0  0  0  0
   -3.4613   15.3660  -32.9086 H   0  0  0  0  0  0  0  0  0  0  0  0
   -5.8971   15.1406  -32.6698 H   0  0  0  0  0  0  0  0  0  0  0  0
   -5.3215   16.7443  -32.0561 H   0  0  0  0  0  0  0  0  0  0  0  0
   -7.0391   16.0701  -34.4159 H   0  0  0  0  0  0  0  0  0  0  0  0
   -5.0895   18.3235  -31.7088 H   0  0  0  0  0  0  0  0  0  0  0  0
   -4.5792   20.5714  -30.7660 H   0  0  0  0  0  0  0  0  0  0  0  0
   -8.1908   23.3724  -30.6927 H   0  0  0  0  0  0  0  0  0  0  0  0
   -7.6821   25.6375  -29.7888 H   0  0  0  0  0  0  0  0  0  0  0  0
   -5.3180   26.3824  -29.5232 H   0  0  0  0  0  0  0  0  0  0  0  0
   -2.4088   24.8302  -26.7835 H   0  0  0  0  0  0  0  0  0  0  0  0
   -3.9248   24.3345  -27.6295 H   0  0  0  0  0  0  0  0  0  0  0  0
   -3.9914   22.1334  -28.8728 H   0  0  0  0  0  0  0  0  0  0  0  0
   -3.3110   19.7373  -28.7020 H   0  0  0  0  0  0  0  0  0  0  0  0
   -1.3581   19.0867  -27.2893 H   0  0  0  0  0  0  0  0  0  0  0  0
   -0.0847   20.8342  -26.0377 H   0  0  0  0  0  0  0  0  0  0  0  0
   -0.7557   23.2311  -26.2040 H   0  0  0  0  0  0  0  0  0  0  0  0
   -3.9463   22.5847  -31.0823 H   0  0  0  0  0  0  0  0  0  0  0  0
   -8.2951   22.0937  -32.3912 H   0  0  0  0  0  0  0  0  0  0  0  0
   -8.8052   19.8433  -33.3243 H   0  0  0  0  0  0  0  0  0  0  0  0
   -5.4993   17.0766  -35.8215 H   0  0  0  0  0  0  0  0  0  0  0  0
   -6.3696   18.5445  -35.2213 H   0  0  0  0  0  0  0  0  0  0  0  0
   -3.9307   18.8801  -35.1517 H   0  0  0  0  0  0  0  0  0  0  0  0
   -4.6539   18.8454  -33.4822 H   0  0  0  0  0  0  0  0  0  0  0  0
  1  2  1  0
  2  3  1  0
  3  4  1  0
  4  5  1  0
  5  6  1  0
  6  7  1  0
  7  8  2  0
  8  9  1  0
  9 10  2  0
 10 11  1  0
 11 12  2  0
 12 13  1  0
 13 14  2  0
 14 15  1  0
 15 16  1  0
 16 17  1  0
 17 18  2  0
 17 19  1  0
 19 20  1  0
 20 21  2  0
 21 22  1  0
 22 23  2  0
 23 24  1  0
 24 25  2  0
 15 26  2  0
 10 27  1  0
 27 28  2  0
  5 29  1  0
 29 30  1  0
 30  2  1  0
 28  7  1  0
 26 11  1  0
 25 20  1  0
  1 31  1  0
  1 32  1  0
  1 33  1  0
  2 34  1  1
  3 35  1  0
  3 36  1  0
  4 37  1  0
  4 38  1  0
  5 39  1  6
  8 40  1  0
  9 41  1  0
 12 42  1  0
 13 43  1  0
 14 44  1  0
 19 45  1  0
 19 46  1  0
 21 47  1  0
 22 48  1  0
 23 49  1  0
 24 50  1  0
 25 51  1  0
 26 52  1  0
 27 53  1  0
 28 54  1  0
 29 55  1  0
 29 56  1  0
 30 57  1  0
 30 58  1  0
M  CHG  2   2   1  16  -1
M  END
>  <UniqueID>  (24) 
22

>  <SMILES>  (24) 
C[NH+]1CCC(Oc2ccc(-c3cccc([N-]C(=O)Cc4ccccc4)c3)cc2)CC1

>  <Energy>  (24) 
78.23059692834393

>  <Genealogy>  (24) 
C[NH+]1CCC(Oc2ccc(-c3cccc([N-]C(=O)Cc4ccccc4)c3)cc2)CC1 (protonated)
C[NH+]1CCC(Oc2ccc(-c3cccc([N-]C(=O)Cc4ccccc4)c3)cc2)CC1 (3D coordinates assigned)
C[NH+]1CCC(Oc2ccc(-c3cccc([N-]C(=O)Cc4ccccc4)c3)cc2)CC1 (nonaromatic ring conformer: 78.23059692834393 kcal/mol)

>  <smiles>  (24) 
CN1CCC(Oc2ccc(-c3cccc(NC(=O)Cc4ccccc4)c3)cc2)CC1

>  <score_type>  (24) 
oracle

>  <origin>  (24) 
adgpu

>  <m_score__min__energy>  (24) 
-11.34

>  <m_primary>  (24) 
energy

$$$$
24:0
     RDKit          3D

 40 41  0  0  0  0  0  0  0  0999 V2000
   -3.3970   25.7070  -29.6170 H   0  0  0  0  0  0  0  0  0  0  0  0
   -3.8900   25.3890  -30.4660 N   0  0  0  0  0  0  0  0  0  0  0  0
   -4.4270   24.2360  -30.7160 C   0  0  0  0  0  0  0  0  0  0  0  0
   -5.0450   24.1020  -31.9200 N   0  0  0  0  0  0  0  0  0  0  0  0
   -5.6870   22.9690  -32.2960 C   0  0  0  0  0  0  0  0  0  0  0  0
   -6.1634   22.9022  -33.2852 H   0  0  0  0  0  0  0  0  0  0  0  0
   -5.7370   21.8910  -31.4170 C   0  0  0  0  0  0  0  0  0  0  0  0
   -6.4130   20.6230  -31.7810 C   0  0  0  0  0  0  0  0  0  0  0  0
   -5.6660   19.5280  -32.2710 C   0  0  0  0  0  0  0  0  0  0  0  0
   -4.2760   19.6650  -32.4370 O   0  0  0  0  0  0  0  0  0  0  0  0
   -3.6540   20.4330  -33.4620 C   0  0  0  0  0  0  0  0  0  0  0  0
   -3.0239   21.2109  -33.0061 H   0  0  0  0  0  0  0  0  0  0  0  0
   -3.0308   19.7754  -34.0859 H   0  0  0  0  0  0  0  0  0  0  0  0
   -4.4267   20.9060  -34.0859 H   0  0  0  0  0  0  0  0  0  0  0  0
   -6.3310   18.3320  -32.6040 C   0  0  0  0  0  0  0  0  0  0  0  0
   -5.7543   17.4708  -32.9726 H   0  0  0  0  0  0  0  0  0  0  0  0
   -7.7130   18.2320  -32.4700 C   0  0  0  0  0  0  0  0  0  0  0  0
   -8.2224   17.2939  -32.7355 H   0  0  0  0  0  0  0  0  0  0  0  0
   -8.4540   19.3150  -32.0010 C   0  0  0  0  0  0  0  0  0  0  0  0
   -9.5463   19.2284  -31.9039 H   0  0  0  0  0  0  0  0  0  0  0  0
   -7.8150   20.5180  -31.6510 C   0  0  0  0  0  0  0  0  0  0  0  0
   -8.5380   21.6190  -31.1590 O   0  0  0  0  0  0  0  0  0  0  0  0
   -9.0660   22.6670  -31.9650 C   0  0  0  0  0  0  0  0  0  0  0  0
   -9.4662   23.4613  -31.3177 H   0  0  0  0  0  0  0  0  0  0  0  0
   -8.2678   23.0788  -32.6000 H   0  0  0  0  0  0  0  0  0  0  0  0
   -9.8720   22.2706  -32.6000 H   0  0  0  0  0  0  0  0  0  0  0  0
   -5.1110   22.0000  -30.2170 N   0  0  0  0  0  0  0  0  0  0  0  0
   -4.4430   23.1160  -29.8170 C   0  0  0  0  0  0  0  0  0  0  0  0
   -3.8620   23.0400  -28.6460 N   0  0  0  0  0  0  0  0  0  0  0  0
   -3.0060   23.9300  -27.8670 C   0  0  0  0  0  0  0  0  0  0  0  0
   -3.1698   24.9653  -28.2007 H   0  0  0  0  0  0  0  0  0  0  0  0
   -3.2656   23.8140  -26.8044 H   0  0  0  0  0  0  0  0  0  0  0  0
   -1.5170   23.5790  -28.0400 C   0  0  0  0  0  0  0  0  0  0  0  0
   -0.9717   23.9023  -27.1410 H   0  0  0  0  0  0  0  0  0  0  0  0
   -1.4452   22.4913  -28.1876 H   0  0  0  0  0  0  0  0  0  0  0  0
   -0.8910   24.2580  -29.2660 C   0  0  0  0  0  0  0  0  0  0  0  0
    0.2045   24.1893  -29.1943 H   0  0  0  0  0  0  0  0  0  0  0  0
   -1.2524   23.7470  -30.1705 H   0  0  0  0  0  0  0  0  0  0  0  0
   -1.2610   25.6080  -29.3400 O   0  0  0  0  0  0  0  0  0  0  0  0
   -2.0150   25.6620  -29.9840 H   0  0  0  0  0  0  0  0  0  0  0  0
  1  2  1  0
  2  3  2  0
  3  4  1  0
  4  5  1  0
  5  6  1  0
  5  7  2  0
  7  8  1  0
  8  9  2  0
  9 10  1  0
 10 11  1  0
 11 12  1  0
 11 13  1  0
 11 14  1  0
  9 15  1  0
 15 16  1  0
 15 17  2  0
 17 18  1  0
 17 19  1  0
 19 20  1  0
 19 21  2  0
 21 22  1  0
 22 23  1  0
 23 24  1  0
 23 25  1  0
 23 26  1  0
  7 27  1  0
 27 28  1  0
 28 29  2  0
 29 30  1  0
 30 31  1  0
 30 32  1  0
 30 33  1  0
 33 34  1  0
 33 35  1  0
 33 36  1  0
 36 37  1  0
 36 38  1  0
 36 39  1  0
 39 40  1  0
 28  3  1  0
 21  8  1  0
M  CHG  2   4  -1  27  -1
M  END
>  <UniqueID>  (25) 
23

>  <SMILES>  (25) 
[H]/N=c1/[n-]cc(-c2c(OC)cccc2OC)[n-]/c1=N/CCCO

>  <Energy>  (25) 
60.66931522418855

>  <Genealogy>  (25) 
COc1cccc(OC)c1-c1c[n-]c(=N)c(=NCCCO)[n-]1 (protonated)
[H]/N=c1/[n-]cc(-c2c(OC)cccc2OC)[n-]/c1=N/CCCO (cis-trans isomerization)
[H]/N=c1/[n-]cc(-c2c(OC)cccc2OC)[n-]/c1=N/CCCO (3D coordinates assigned)
[H]/N=c1/[n-]cc(-c2c(OC)cccc2OC)[n-]/c1=N/CCCO (optimized conformer: 60.66931522418855 kcal/mol)

>  <smiles>  (25) 
COc1cccc(OC)c1-c1c[nH]c(=N)c(=NCCCO)[nH]1

>  <score_type>  (25) 
oracle

>  <origin>  (25) 
adgpu

>  <m_score__min__energy>  (25) 
-9.3499999999999996

>  <m_primary>  (25) 
energy

$$$$
25:0
     RDKit          3D

 48 50  0  0  0  0  0  0  0  0999 V2000
   -3.8280   16.7300  -35.1610 C   0  0  0  0  0  0  0  0  0  0  0  0
   -5.0210   17.5010  -35.2550 O   0  0  0  0  0  0  0  0  0  0  0  0
   -5.6650   18.0980  -34.1610 C   0  0  0  0  0  0  0  0  0  0  0  0
   -5.9050   17.4090  -32.9560 C   0  0  0  0  0  0  0  0  0  0  0  0
   -6.5520   18.0480  -31.8940 C   0  0  0  0  0  0  0  0  0  0  0  0
   -6.9720   19.3840  -32.0180 C   0  0  0  0  0  0  0  0  0  0  0  0
   -7.6480   20.0750  -30.9580 N   0  0  0  0  0  0  0  0  0  0  0  0
   -8.2790   21.6860  -31.0600 S   0  0  0  0  0  0  0  0  0  0  0  0
   -9.0200   21.8400  -32.3590 O   0  0  0  0  0  0  0  0  0  0  0  0
   -9.2330   21.9150  -29.9230 O   0  0  0  0  0  0  0  0  0  0  0  0
   -6.9660   22.8550  -30.9470 C   0  0  0  0  0  0  0  0  0  0  0  0
   -7.2270   24.1510  -30.4850 C   0  0  0  0  0  0  0  0  0  0  0  0
   -6.1870   25.0730  -30.3590 C   0  0  0  0  0  0  0  0  0  0  0  0
   -4.8800   24.7140  -30.7050 C   0  0  0  0  0  0  0  0  0  0  0  0
   -3.8600   25.6480  -30.5720 O   0  0  0  0  0  0  0  0  0  0  0  0
   -4.6070   23.4230  -31.1920 C   0  0  0  0  0  0  0  0  0  0  0  0
   -3.2550   23.0540  -31.5190 N   0  0  0  0  0  0  0  0  0  0  0  0
   -2.9060   21.9290  -32.3370 C   0  0  0  0  0  0  0  0  0  0  0  0
   -3.7860   21.3420  -33.0230 O   0  0  0  0  0  0  0  0  0  0  0  0
   -1.5310   21.5380  -32.4340 N   0  0  0  0  0  0  0  0  0  0  0  0
   -0.9190   20.8350  -33.5290 C   0  0  0  0  0  0  0  0  0  0  0  0
   -0.0950   21.5020  -34.4550 C   0  0  0  0  0  0  0  0  0  0  0  0
    0.4760   20.8050  -35.5240 C   0  0  0  0  0  0  0  0  0  0  0  0
    0.2200   19.4440  -35.6880 C   0  0  0  0  0  0  0  0  0  0  0  0
   -0.6170   18.7760  -34.7930 C   0  0  0  0  0  0  0  0  0  0  0  0
   -1.2020   19.4650  -33.7160 C   0  0  0  0  0  0  0  0  0  0  0  0
   -2.1000   18.7330  -32.7570 C   0  0  0  0  0  0  0  0  0  0  0  0
   -5.6590   22.4930  -31.2970 C   0  0  0  0  0  0  0  0  0  0  0  0
   -6.7290   20.0670  -33.2150 C   0  0  0  0  0  0  0  0  0  0  0  0
   -6.0820   19.4290  -34.2770 C   0  0  0  0  0  0  0  0  0  0  0  0
   -3.5782   16.5686  -34.1020 H   0  0  0  0  0  0  0  0  0  0  0  0
   -3.9795   15.7585  -35.6542 H   0  0  0  0  0  0  0  0  0  0  0  0
   -3.0045   17.2672  -35.6542 H   0  0  0  0  0  0  0  0  0  0  0  0
   -5.5817   16.3629  -32.8500 H   0  0  0  0  0  0  0  0  0  0  0  0
   -6.7334   17.5024  -30.9562 H   0  0  0  0  0  0  0  0  0  0  0  0
   -8.2541   24.4429  -30.2208 H   0  0  0  0  0  0  0  0  0  0  0  0
   -6.3959   26.0865  -29.9860 H   0  0  0  0  0  0  0  0  0  0  0  0
   -2.4770   23.6710  -31.1940 H   0  0  0  0  0  0  0  0  0  0  0  0
    0.1008   22.5780  -34.3369 H   0  0  0  0  0  0  0  0  0  0  0  0
    1.1282   21.3309  -36.2368 H   0  0  0  0  0  0  0  0  0  0  0  0
    0.6786   18.8960  -36.5243 H   0  0  0  0  0  0  0  0  0  0  0  0
   -0.8203   17.7038  -34.9310 H   0  0  0  0  0  0  0  0  0  0  0  0
   -1.8064   18.9724  -31.7243 H   0  0  0  0  0  0  0  0  0  0  0  0
   -3.1427   19.0418  -32.9226 H   0  0  0  0  0  0  0  0  0  0  0  0
   -2.0078   17.6495  -32.9226 H   0  0  0  0  0  0  0  0  0  0  0  0
   -5.4528   21.4742  -31.6567 H   0  0  0  0  0  0  0  0  0  0  0  0
   -7.0496   21.1139  -33.3209 H   0  0  0  0  0  0  0  0  0  0  0  0
   -5.8989   19.9779  -35.2125 H   0  0  0  0  0  0  0  0  0  0  0  0
  1  2  1  0
  2  3  1  0
  3  4  2  0
  4  5  1  0
  5  6  2  0
  6  7  1  0
  7  8  1  0
  8  9  2  0
  8 10  2  0
  8 11  1  0
 11 12  2  0
 12 13  1  0
 13 14  2  0
 14 15  1  0
 14 16  1  0
 16 17  1  0
 17 18  1  0
 18 19  2  0
 18 20  1  0
 20 21  1  0
 21 22  2  0
 22 23  1  0
 23 24  2  0
 24 25  1  0
 25 26  2  0
 26 27  1  0
 16 28  2  0
  6 29  1  0
 29 30  2  0
 30  3  1  0
 28 11  1  0
 26 21  1  0
  1 31  1  0
  1 32  1  0
  1 33  1  0
  4 34  1  0
  5 35  1  0
 12 36  1  0
 13 37  1  0
 17 38  1  0
 22 39  1  0
 23 40  1  0
 24 41  1  0
 25 42  1  0
 27 43  1  0
 27 44  1  0
 27 45  1  0
 28 46  1  0
 29 47  1  0
 30 48  1  0
M  CHG  3   7  -1  15  -1  20  -1
M  END
>  <UniqueID>  (26) 
24

>  <SMILES>  (26) 
COc1ccc([N-]S(=O)(=O)c2ccc([O-])c(NC(=O)[N-]c3ccccc3C)c2)cc1

>  <Energy>  (26) 
60.03148817046931

>  <Genealogy>  (26) 
COc1ccc([N-]S(=O)(=O)c2ccc([O-])c(NC(=O)[N-]c3ccccc3C)c2)cc1 (protonated)
COc1ccc([N-]S(=O)(=O)c2ccc([O-])c(NC(=O)[N-]c3ccccc3C)c2)cc1 (3D coordinates assigned)
COc1ccc([N-]S(=O)(=O)c2ccc([O-])c(NC(=O)[N-]c3ccccc3C)c2)cc1 (optimized conformer: 60.03148817046931 kcal/mol)

>  <smiles>  (26) 
COc1ccc(NS(=O)(=O)c2ccc(O)c(NC(=O)Nc3ccccc3C)c2)cc1

>  <score_type>  (26) 
oracle

>  <origin>  (26) 
adgpu

>  <m_score__min__energy>  (26) 
-11.99

>  <m_primary>  (26) 
energy

$$$$
26:0
     RDKit          3D

 39 40  0  0  0  0  0  0  0  0999 V2000
   -8.1050   24.1157  -30.5996 H   0  0  0  0  0  0  0  0  0  0  0  0
   -7.2670   23.4380  -30.8200 C   0  0  0  0  0  0  0  0  0  0  0  0
   -7.5320   22.2990  -31.4750 C   0  0  0  0  0  0  0  0  0  0  0  0
   -6.7088   21.6084  -31.7104 H   0  0  0  0  0  0  0  0  0  0  0  0
   -8.9310   21.9470  -31.8940 C   0  0  0  0  0  0  0  0  0  0  0  0
   -9.1427   22.4159  -32.8663 H   0  0  0  0  0  0  0  0  0  0  0  0
   -9.6269   22.3145  -31.1255 H   0  0  0  0  0  0  0  0  0  0  0  0
   -9.1080   20.4290  -32.0220 C   0  0  0  0  0  0  0  0  0  0  0  0
  -10.0198   20.2213  -32.6012 H   0  0  0  0  0  0  0  0  0  0  0  0
   -9.1851   20.0000  -31.0120 H   0  0  0  0  0  0  0  0  0  0  0  0
   -7.9140   19.7940  -32.7280 C   0  0  0  0  0  0  0  0  0  0  0  0
   -7.2033   19.4160  -31.9783 H   0  0  0  0  0  0  0  0  0  0  0  0
   -8.2606   18.9611  -33.3574 H   0  0  0  0  0  0  0  0  0  0  0  0
   -7.4172   20.5470  -33.3574 H   0  0  0  0  0  0  0  0  0  0  0  0
   -5.9100   23.8380  -30.3750 C   0  0  0  0  0  0  0  0  0  0  0  0
   -5.2780   24.9080  -31.0160 C   0  0  0  0  0  0  0  0  0  0  0  0
   -5.7898   25.4331  -31.8360 H   0  0  0  0  0  0  0  0  0  0  0  0
   -4.0370   25.3030  -30.6330 N   0  0  0  0  0  0  0  0  0  0  0  0
   -3.3410   24.6980  -29.6340 C   0  0  0  0  0  0  0  0  0  0  0  0
   -2.1670   25.1940  -29.3440 N   0  0  0  0  0  0  0  0  0  0  0  0
   -1.2920   24.8730  -28.2550 C   0  0  0  0  0  0  0  0  0  0  0  0
   -0.1940   24.0360  -28.4760 C   0  0  0  0  0  0  0  0  0  0  0  0
   -0.0241   23.6045  -29.4735 H   0  0  0  0  0  0  0  0  0  0  0  0
    0.6880   23.7470  -27.4310 C   0  0  0  0  0  0  0  0  0  0  0  0
    1.5362   23.0675  -27.6010 H   0  0  0  0  0  0  0  0  0  0  0  0
    0.4950   24.3190  -26.1710 C   0  0  0  0  0  0  0  0  0  0  0  0
    1.1785   24.0686  -25.3463 H   0  0  0  0  0  0  0  0  0  0  0  0
   -0.5680   25.2130  -25.9510 C   0  0  0  0  0  0  0  0  0  0  0  0
   -0.8020   25.8020  -24.5820 C   0  0  0  0  0  0  0  0  0  0  0  0
    0.2160   26.6790  -24.2490 F   0  0  0  0  0  0  0  0  0  0  0  0
   -2.0030   26.4860  -24.5810 F   0  0  0  0  0  0  0  0  0  0  0  0
   -0.8490   24.8070  -23.6210 F   0  0  0  0  0  0  0  0  0  0  0  0
   -1.4640   25.4790  -27.0010 C   0  0  0  0  0  0  0  0  0  0  0  0
   -2.3064   26.1674  -26.8384 H   0  0  0  0  0  0  0  0  0  0  0  0
   -3.9190   23.5660  -28.9920 C   0  0  0  0  0  0  0  0  0  0  0  0
   -3.2140   22.7260  -28.0510 C   0  0  0  0  0  0  0  0  0  0  0  0
   -2.6560   22.0450  -27.2990 N   0  0  0  0  0  0  0  0  0  0  0  0
   -5.2050   23.1570  -29.3700 C   0  0  0  0  0  0  0  0  0  0  0  0
   -5.6678   22.2916  -28.8731 H   0  0  0  0  0  0  0  0  0  0  0  0
  1  2  1  0
  2  3  2  0
  3  4  1  0
  3  5  1  0
  5  6  1  0
  5  7  1  0
  5  8  1  0
  8  9  1  0
  8 10  1  0
  8 11  1  0
 11 12  1  0
 11 13  1  0
 11 14  1  0
  2 15  1  0
 15 16  2  0
 16 17  1  0
 16 18  1  0
 18 19  1  0
 19 20  2  0
 20 21  1  0
 21 22  2  0
 22 23  1  0
 22 24  1  0
 24 25  1  0
 24 26  2  0
 26 27  1  0
 26 28  1  0
 28 29  1  0
 29 30  1  0
 29 31  1  0
 29 32  1  0
 28 33  2  0
 33 34  1  0
 19 35  1  0
 35 36  1  0
 36 37  3  0
 35 38  2  0
 38 39  1  0
 38 15  1  0
 33 21  1  0
M  CHG  1  18  -1
M  END
>  <UniqueID>  (27) 
25

>  <SMILES>  (27) 
CCC/C=C/c1c[n-]/c(=N/c2cccc(C(F)(F)F)c2)c(C#N)c1

>  <Energy>  (27) 
50.474748748981064

>  <Genealogy>  (27) 
CCCC=Cc1c[n-]c(=Nc2cccc(C(F)(F)F)c2)c(C#N)c1 (protonated)
CCC/C=C/c1c[n-]/c(=N/c2cccc(C(F)(F)F)c2)c(C#N)c1 (cis-trans isomerization)
CCC/C=C/c1c[n-]/c(=N/c2cccc(C(F)(F)F)c2)c(C#N)c1 (3D coordinates assigned)
CCC/C=C/c1c[n-]/c(=N/c2cccc(C(F)(F)F)c2)c(C#N)c1 (optimized conformer: 50.474748748981064 kcal/mol)

>  <smiles>  (27) 
CCCC=Cc1c[nH]c(=Nc2cccc(C(F)(F)F)c2)c(C#N)c1

>  <score_type>  (27) 
oracle

>  <origin>  (27) 
adgpu

>  <m_score__min__energy>  (27) 
-9.8399999999999999

>  <m_primary>  (27) 
energy

$$$$
27:0
     RDKit          3D

 34 36  0  0  0  0  0  0  0  0999 V2000
   -3.9830   25.3040  -30.6130 O   0  0  0  0  0  0  0  0  0  0  0  0
   -3.2800   24.6840  -29.7710 C   0  0  0  0  0  0  0  0  0  0  0  0
   -3.8430   23.4490  -29.1060 C   0  0  0  0  0  0  0  0  0  0  0  0
   -4.8230   22.6760  -30.0110 C   0  0  1  0  0  0  0  0  0  0  0  0
   -6.4330   23.5340  -30.0870 S   0  0  0  0  0  0  0  0  0  0  0  0
   -7.2110   22.2570  -31.0830 C   0  0  0  0  0  0  0  0  0  0  0  0
   -8.4990   21.8140  -30.7590 C   0  0  0  0  0  0  0  0  0  0  0  0
   -9.1490   20.8900  -31.5820 C   0  0  0  0  0  0  0  0  0  0  0  0
   -8.5130   20.4050  -32.7290 C   0  0  0  0  0  0  0  0  0  0  0  0
   -7.2170   20.8260  -33.0430 C   0  0  0  0  0  0  0  0  0  0  0  0
   -6.5500   21.7390  -32.2120 C   0  0  0  0  0  0  0  0  0  0  0  0
   -5.1780   22.0710  -32.4670 N   0  0  0  0  0  0  0  0  0  0  0  0
   -4.3040   22.5310  -31.4250 C   0  0  0  0  0  0  0  0  0  0  0  0
   -3.0930   22.7570  -31.6930 O   0  0  0  0  0  0  0  0  0  0  0  0
   -2.0460   25.2760  -29.3430 N   0  0  0  0  0  0  0  0  0  0  0  0
   -1.6990   25.6580  -28.0050 C   0  0  0  0  0  0  0  0  0  0  0  0
   -0.6170   26.5250  -27.8050 C   0  0  0  0  0  0  0  0  0  0  0  0
   -0.2320   26.8870  -26.5110 C   0  0  0  0  0  0  0  0  0  0  0  0
   -0.9120   26.3650  -25.4060 C   0  0  0  0  0  0  0  0  0  0  0  0
   -0.3830   26.8560  -23.6380 Br  0  0  0  0  0  0  0  0  0  0  0  0
   -1.9720   25.4730  -25.5970 C   0  0  0  0  0  0  0  0  0  0  0  0
   -2.3590   25.1110  -26.8920 C   0  0  0  0  0  0  0  0  0  0  0  0
   -3.0095   22.7821  -28.8406 H   0  0  0  0  0  0  0  0  0  0  0  0
   -4.4023   23.7776  -28.2176 H   0  0  0  0  0  0  0  0  0  0  0  0
   -4.9337   21.6759  -29.5665 H   0  0  0  0  0  0  0  0  0  0  0  0
   -8.9998   22.1934  -29.8561 H   0  0  0  0  0  0  0  0  0  0  0  0
  -10.1616   20.5441  -31.3272 H   0  0  0  0  0  0  0  0  0  0  0  0
   -9.0328   19.6914  -33.3851 H   0  0  0  0  0  0  0  0  0  0  0  0
   -6.7187   20.4401  -33.9445 H   0  0  0  0  0  0  0  0  0  0  0  0
   -4.7680   21.8660  -33.4070 H   0  0  0  0  0  0  0  0  0  0  0  0
   -0.0675   26.9230  -28.6708 H   0  0  0  0  0  0  0  0  0  0  0  0
    0.6066   27.5831  -26.3616 H   0  0  0  0  0  0  0  0  0  0  0  0
   -2.5021   25.0555  -24.7283 H   0  0  0  0  0  0  0  0  0  0  0  0
   -3.1821   24.3963  -27.0390 H   0  0  0  0  0  0  0  0  0  0  0  0
  1  2  2  0
  2  3  1  0
  3  4  1  0
  4  5  1  0
  5  6  1  0
  6  7  2  0
  7  8  1  0
  8  9  2  0
  9 10  1  0
 10 11  2  0
 11 12  1  0
 12 13  1  0
 13 14  2  0
  2 15  1  0
 15 16  1  0
 16 17  2  0
 17 18  1  0
 18 19  2  0
 19 20  1  0
 19 21  1  0
 21 22  2  0
 13  4  1  0
 22 16  1  0
 11  6  1  0
  3 23  1  0
  3 24  1  0
  4 25  1  1
  7 26  1  0
  8 27  1  0
  9 28  1  0
 10 29  1  0
 12 30  1  0
 17 31  1  0
 18 32  1  0
 21 33  1  0
 22 34  1  0
M  CHG  1  15  -1
M  END
>  <UniqueID>  (28) 
26

>  <SMILES>  (28) 
O=C(C[C@H]1Sc2ccccc2NC1=O)[N-]c1ccc(Br)cc1

>  <Energy>  (28) 
45.61971441658962

>  <Genealogy>  (28) 
O=C(CC1Sc2ccccc2NC1=O)[N-]c1ccc(Br)cc1 (protonated)
O=C(C[C@H]1Sc2ccccc2NC1=O)[N-]c1ccc(Br)cc1 (chirality)
O=C(C[C@H]1Sc2ccccc2NC1=O)[N-]c1ccc(Br)cc1 (3D coordinates assigned)
O=C(C[C@H]1Sc2ccccc2NC1=O)[N-]c1ccc(Br)cc1 (nonaromatic ring conformer: 45.61971441658962 kcal/mol)

>  <smiles>  (28) 
O=C(CC1Sc2ccccc2NC1=O)Nc1ccc(Br)cc1

>  <score_type>  (28) 
oracle

>  <origin>  (28) 
adgpu

>  <m_score__min__energy>  (28) 
-11.08

>  <m_primary>  (28) 
energy

$$$$
28:0
     RDKit          3D

 33 35  0  0  0  0  0  0  0  0999 V2000
   -5.3160   19.5220  -34.2050 F   0  0  0  0  0  0  0  0  0  0  0  0
   -6.3640   19.4710  -33.3470 C   0  0  0  0  0  0  0  0  0  0  0  0
   -6.9490   18.2420  -33.0300 C   0  0  0  0  0  0  0  0  0  0  0  0
   -8.0270   18.1900  -32.1430 C   0  0  0  0  0  0  0  0  0  0  0  0
   -8.5300   19.3670  -31.5810 C   0  0  0  0  0  0  0  0  0  0  0  0
   -7.9620   20.6100  -31.9090 C   0  0  0  0  0  0  0  0  0  0  0  0
   -8.5340   21.8870  -31.3360 C   0  0  0  0  0  0  0  0  0  0  0  0
   -7.5500   22.6460  -30.5390 N   0  0  0  0  0  0  0  0  0  0  0  0
   -7.0390   23.8510  -31.2240 C   0  0  0  0  0  0  0  0  0  0  0  0
   -5.6460   24.1950  -30.7810 C   0  0  0  0  0  0  0  0  0  0  0  0
   -4.9710   25.2780  -31.2120 N   0  0  0  0  0  0  0  0  0  0  0  0
   -3.8590   25.2630  -30.5440 O   0  0  0  0  0  0  0  0  0  0  0  0
   -3.8440   24.2300  -29.7390 C   0  0  0  0  0  0  0  0  0  0  0  0
   -2.7550   23.9280  -28.8070 C   0  0  0  0  0  0  0  0  0  0  0  0
   -2.7100   22.8550  -27.9250 C   0  0  0  0  0  0  0  0  0  0  0  0
   -1.5550   22.8450  -27.1330 C   0  0  0  0  0  0  0  0  0  0  0  0
   -0.6950   23.9060  -27.3870 C   0  0  0  0  0  0  0  0  0  0  0  0
   -1.3720   24.8590  -28.5970 S   0  0  0  0  0  0  0  0  0  0  0  0
   -4.9670   23.4950  -29.8500 N   0  0  0  0  0  0  0  0  0  0  0  0
   -6.8620   20.6510  -32.7840 C   0  0  0  0  0  0  0  0  0  0  0  0
   -6.5607   17.3158  -33.4788 H   0  0  0  0  0  0  0  0  0  0  0  0
   -8.4807   17.2214  -31.8864 H   0  0  0  0  0  0  0  0  0  0  0  0
   -9.3749   19.3200  -30.8782 H   0  0  0  0  0  0  0  0  0  0  0  0
   -8.8788   22.5214  -32.1659 H   0  0  0  0  0  0  0  0  0  0  0  0
   -9.3603   21.6088  -30.6654 H   0  0  0  0  0  0  0  0  0  0  0  0
   -6.7630   22.0250  -30.2360 H   0  0  0  0  0  0  0  0  0  0  0  0
   -8.0370   22.9600  -29.6670 H   0  0  0  0  0  0  0  0  0  0  0  0
   -7.0329   23.6684  -32.3087 H   0  0  0  0  0  0  0  0  0  0  0  0
   -7.6973   24.6946  -30.9691 H   0  0  0  0  0  0  0  0  0  0  0  0
   -3.4998   22.0925  -27.8561 H   0  0  0  0  0  0  0  0  0  0  0  0
   -1.3482   22.0698  -26.3805 H   0  0  0  0  0  0  0  0  0  0  0  0
    0.2650   24.0914  -26.8829 H   0  0  0  0  0  0  0  0  0  0  0  0
   -6.3910   21.6150  -33.0269 H   0  0  0  0  0  0  0  0  0  0  0  0
  1  2  1  0
  2  3  2  0
  3  4  1  0
  4  5  2  0
  5  6  1  0
  6  7  1  0
  7  8  1  0
  8  9  1  0
  9 10  1  0
 10 11  2  0
 11 12  1  0
 12 13  1  0
 13 14  1  0
 14 15  2  0
 15 16  1  0
 16 17  2  0
 17 18  1  0
 13 19  2  0
  6 20  2  0
 20  2  1  0
 19 10  1  0
 18 14  1  0
  3 21  1  0
  4 22  1  0
  5 23  1  0
  7 24  1  0
  7 25  1  0
  8 26  1  0
  8 27  1  0
  9 28  1  0
  9 29  1  0
 15 30  1  0
 16 31  1  0
 17 32  1  0
 20 33  1  0
M  CHG  1   8   1
M  END
>  <UniqueID>  (29) 
27

>  <SMILES>  (29) 
Fc1cccc(C[NH2+]Cc2noc(-c3cccs3)n2)c1

>  <Energy>  (29) 
90.83749200877017

>  <Genealogy>  (29) 
Fc1cccc(C[NH2+]Cc2noc(-c3cccs3)n2)c1 (protonated)
Fc1cccc(C[NH2+]Cc2noc(-c3cccs3)n2)c1 (3D coordinates assigned)
Fc1cccc(C[NH2+]Cc2noc(-c3cccs3)n2)c1 (optimized conformer: 90.83749200877017 kcal/mol)

>  <smiles>  (29) 
Fc1cccc(CNCc2noc(-c3cccs3)n2)c1

>  <score_type>  (29) 
oracle

>  <origin>  (29) 
adgpu

>  <m_score__min__energy>  (29) 
-7.4500000000000002

>  <m_primary>  (29) 
energy

$$$$
29:0
     RDKit          3D

 37 40  0  0  0  0  0  0  0  0999 V2000
   -7.9330   19.3240  -32.5710 C   0  0  0  0  0  0  0  0  0  0  0  0
   -9.0020   19.9780  -31.9520 C   0  0  0  0  0  0  0  0  0  0  0  0
   -8.8780   21.3160  -31.5680 C   0  0  0  0  0  0  0  0  0  0  0  0
   -7.6750   22.0070  -31.7930 C   0  0  0  0  0  0  0  0  0  0  0  0
   -7.5560   23.4590  -31.4210 C   0  0  0  0  0  0  0  0  0  0  0  0
   -6.2040   23.7390  -30.9500 N   0  0  0  0  0  0  0  0  0  0  0  0
   -5.6460   23.3070  -29.8070 C   0  0  0  0  0  0  0  0  0  0  0  0
   -4.3980   23.8890  -29.7520 C   0  0  0  0  0  0  0  0  0  0  0  0
   -3.4020   23.7280  -28.6850 C   0  0  0  0  0  0  0  0  0  0  0  0
   -2.8130   22.5060  -28.3700 C   0  0  0  0  0  0  0  0  0  0  0  0
   -1.7420   22.7690  -27.1040 S   0  0  0  0  0  0  0  0  0  0  0  0
   -2.0670   24.4200  -27.0050 C   0  0  0  0  0  0  0  0  0  0  0  0
   -1.4480   25.3720  -26.0520 C   0  0  0  0  0  0  0  0  0  0  0  0
   -1.0540   24.9360  -24.7740 C   0  0  0  0  0  0  0  0  0  0  0  0
   -0.4700   25.8280  -23.8700 C   0  0  0  0  0  0  0  0  0  0  0  0
   -0.2730   27.1620  -24.2310 C   0  0  0  0  0  0  0  0  0  0  0  0
   -0.6600   27.6070  -25.4970 C   0  0  0  0  0  0  0  0  0  0  0  0
   -1.2440   26.7190  -26.4050 C   0  0  0  0  0  0  0  0  0  0  0  0
   -2.9860   24.7810  -27.9280 N   0  0  0  0  0  0  0  0  0  0  0  0
   -4.2370   24.6590  -30.8480 N   0  0  0  0  0  0  0  0  0  0  0  0
   -5.3530   24.5530  -31.5550 N   0  0  0  0  0  0  0  0  0  0  0  0
   -6.6110   21.3490  -32.4300 C   0  0  0  0  0  0  0  0  0  0  0  0
   -6.7400   20.0100  -32.8120 C   0  0  0  0  0  0  0  0  0  0  0  0
   -8.0310   18.2695  -32.8683 H   0  0  0  0  0  0  0  0  0  0  0  0
   -9.9426   19.4386  -31.7668 H   0  0  0  0  0  0  0  0  0  0  0  0
   -9.7242   21.8297  -31.0884 H   0  0  0  0  0  0  0  0  0  0  0  0
   -7.7718   24.0807  -32.3024 H   0  0  0  0  0  0  0  0  0  0  0  0
   -8.2745   23.6890  -30.6205 H   0  0  0  0  0  0  0  0  0  0  0  0
   -6.0936   22.6278  -29.0665 H   0  0  0  0  0  0  0  0  0  0  0  0
   -3.0132   21.5426  -28.8617 H   0  0  0  0  0  0  0  0  0  0  0  0
   -1.2065   23.8859  -24.4840 H   0  0  0  0  0  0  0  0  0  0  0  0
   -0.1652   25.4782  -22.8726 H   0  0  0  0  0  0  0  0  0  0  0  0
    0.1869   27.8626  -23.5185 H   0  0  0  0  0  0  0  0  0  0  0  0
   -0.5049   28.6585  -25.7802 H   0  0  0  0  0  0  0  0  0  0  0  0
   -1.5458   27.0751  -27.4011 H   0  0  0  0  0  0  0  0  0  0  0  0
   -5.6732   21.8882  -32.6292 H   0  0  0  0  0  0  0  0  0  0  0  0
   -5.9007   19.4959  -33.3031 H   0  0  0  0  0  0  0  0  0  0  0  0
  1  2  2  0
  2  3  1  0
  3  4  2  0
  4  5  1  0
  5  6  1  0
  6  7  1  0
  7  8  2  0
  8  9  1  0
  9 10  2  0
 10 11  1  0
 11 12  1  0
 12 13  1  0
 13 14  2  0
 14 15  1  0
 15 16  2  0
 16 17  1  0
 17 18  2  0
 12 19  2  0
  8 20  1  0
 20 21  2  0
  4 22  1  0
 22 23  2  0
 23  1  1  0
 21  6  1  0
 19  9  1  0
 18 13  1  0
  1 24  1  0
  2 25  1  0
  3 26  1  0
  5 27  1  0
  5 28  1  0
  7 29  1  0
 10 30  1  0
 14 31  1  0
 15 32  1  0
 16 33  1  0
 17 34  1  0
 18 35  1  0
 22 36  1  0
 23 37  1  0
M  END
>  <UniqueID>  (30) 
28

>  <SMILES>  (30) 
c1ccc(Cn2cc(-c3csc(-c4ccccc4)n3)nn2)cc1

>  <Energy>  (30) 
104.70183612803119

>  <Genealogy>  (30) 
c1ccc(Cn2cc(-c3csc(-c4ccccc4)n3)nn2)cc1 (3D coordinates assigned)
c1ccc(Cn2cc(-c3csc(-c4ccccc4)n3)nn2)cc1 (optimized conformer: 104.70183612803119 kcal/mol)

>  <smiles>  (30) 
c1ccc(Cn2cc(-c3csc(-c4ccccc4)n3)nn2)cc1

>  <score_type>  (30) 
oracle

>  <origin>  (30) 
adgpu

>  <m_score__min__energy>  (30) 
-9.0899999999999999

>  <m_primary>  (30) 
energy

$$$$
30:0
     RDKit          3D

 35 36  0  0  0  0  0  0  0  0999 V2000
   -1.6940   19.2780  -33.8020 C   0  0  0  0  0  0  0  0  0  0  0  0
   -3.1070   19.4510  -33.8020 O   0  0  0  0  0  0  0  0  0  0  0  0
   -3.7830   20.4780  -33.1240 C   0  0  0  0  0  0  0  0  0  0  0  0
   -3.1000   21.4540  -32.3760 C   0  0  0  0  0  0  0  0  0  0  0  0
   -3.8070   22.4630  -31.7180 C   0  0  0  0  0  0  0  0  0  0  0  0
   -5.2060   22.5200  -31.7890 C   0  0  0  0  0  0  0  0  0  0  0  0
   -5.8980   23.5790  -31.0990 N   0  0  0  0  0  0  0  0  0  0  0  0
   -5.1310   24.7650  -30.0880 S   0  0  0  0  0  0  0  0  0  0  0  0
   -4.6090   24.0230  -28.5580 C   0  0  0  0  0  0  0  0  0  0  0  0
   -6.0740   25.9050  -29.8250 O   0  0  0  0  0  0  0  0  0  0  0  0
   -3.9210   25.3000  -30.8020 O   0  0  0  0  0  0  0  0  0  0  0  0
   -5.8890   21.5400  -32.5290 C   0  0  0  0  0  0  0  0  0  0  0  0
   -5.1840   20.5330  -33.2000 C   0  0  0  0  0  0  0  0  0  0  0  0
   -6.0900   19.3070  -34.1540 S   0  0  0  0  0  0  0  0  0  0  0  0
   -7.4330   19.2430  -32.9650 C   0  0  0  0  0  0  0  0  0  0  0  0
   -8.5470   19.9960  -33.0840 N   0  0  0  0  0  0  0  0  0  0  0  0
   -9.2990   19.6380  -32.0230 C   0  0  0  0  0  0  0  0  0  0  0  0
   -8.6390   18.6780  -31.2900 C   0  0  0  0  0  0  0  0  0  0  0  0
   -7.4560   18.4430  -31.8800 N   0  0  0  0  0  0  0  0  0  0  0  0
   -6.5010   17.4040  -31.5090 C   0  0  0  0  0  0  0  0  0  0  0  0
   -1.3301   19.2334  -32.7649 H   0  0  0  0  0  0  0  0  0  0  0  0
   -1.4392   18.3420  -34.3205 H   0  0  0  0  0  0  0  0  0  0  0  0
   -1.2209   20.1249  -34.3205 H   0  0  0  0  0  0  0  0  0  0  0  0
   -2.0025   21.4224  -32.3089 H   0  0  0  0  0  0  0  0  0  0  0  0
   -3.2603   23.2210  -31.1379 H   0  0  0  0  0  0  0  0  0  0  0  0
   -6.9380   23.6310  -31.1710 H   0  0  0  0  0  0  0  0  0  0  0  0
   -5.0147   24.5996  -27.7137 H   0  0  0  0  0  0  0  0  0  0  0  0
   -4.9793   22.9885  -28.5071 H   0  0  0  0  0  0  0  0  0  0  0  0
   -3.5102   24.0220  -28.5071 H   0  0  0  0  0  0  0  0  0  0  0  0
   -6.9875   21.5640  -32.5817 H   0  0  0  0  0  0  0  0  0  0  0  0
  -10.2894   20.0506  -31.7804 H   0  0  0  0  0  0  0  0  0  0  0  0
   -9.0152   18.1886  -30.3795 H   0  0  0  0  0  0  0  0  0  0  0  0
   -6.4395   17.3371  -30.4128 H   0  0  0  0  0  0  0  0  0  0  0  0
   -6.8331   16.4381  -31.9173 H   0  0  0  0  0  0  0  0  0  0  0  0
   -5.5106   17.6536  -31.9173 H   0  0  0  0  0  0  0  0  0  0  0  0
  1  2  1  0
  2  3  1  0
  3  4  2  0
  4  5  1  0
  5  6  2  0
  6  7  1  0
  7  8  1  0
  8  9  1  0
  8 10  2  0
  8 11  2  0
  6 12  1  0
 12 13  2  0
 13 14  1  0
 14 15  1  0
 15 16  2  0
 16 17  1  0
 17 18  2  0
 18 19  1  0
 19 20  1  0
 13  3  1  0
 19 15  1  0
  1 21  1  0
  1 22  1  0
  1 23  1  0
  4 24  1  0
  5 25  1  0
  7 26  1  0
  9 27  1  0
  9 28  1  0
  9 29  1  0
 12 30  1  0
 17 31  1  0
 18 32  1  0
 20 33  1  0
 20 34  1  0
 20 35  1  0
M  END
>  <UniqueID>  (31) 
29

>  <SMILES>  (31) 
COc1ccc(NS(C)(=O)=O)cc1Sc1nccn1C

>  <Energy>  (31) 
57.19395656835065

>  <Genealogy>  (31) 
COc1ccc(NS(C)(=O)=O)cc1Sc1nccn1C (3D coordinates assigned)
COc1ccc(NS(C)(=O)=O)cc1Sc1nccn1C (optimized conformer: 57.19395656835065 kcal/mol)

>  <smiles>  (31) 
COc1ccc(NS(C)(=O)=O)cc1Sc1nccn1C

>  <score_type>  (31) 
oracle

>  <origin>  (31) 
adgpu

>  <m_score__min__energy>  (31) 
-7.2000000000000002

>  <m_primary>  (31) 
energy

$$$$
31:0
     RDKit          3D

 32 33  0  0  0  0  0  0  0  0999 V2000
   -6.4800   25.6750  -29.3980 C   0  0  0  0  0  0  0  0  0  0  0  0
   -6.0730   24.5650  -30.3100 C   0  0  0  0  0  0  0  0  0  0  0  0
   -6.9500   23.6630  -30.7990 N   0  0  0  0  0  0  0  0  0  0  0  0
   -6.2680   22.7680  -31.4990 N   0  0  0  0  0  0  0  0  0  0  0  0
   -6.8870   21.6410  -32.1860 C   0  0  0  0  0  0  0  0  0  0  0  0
   -4.9500   23.0570  -31.4510 C   0  0  0  0  0  0  0  0  0  0  0  0
   -3.8750   22.3120  -32.1830 C   0  0  0  0  0  0  0  0  0  0  0  0
   -4.7910   24.2160  -30.7230 C   0  0  0  0  0  0  0  0  0  0  0  0
   -3.5380   24.8650  -30.4690 N   0  0  0  0  0  0  0  0  0  0  0  0
   -2.4850   24.5400  -29.1320 S   0  0  0  0  0  0  0  0  0  0  0  0
   -1.3000   25.4630  -29.1870 O   0  0  0  0  0  0  0  0  0  0  0  0
   -3.2370   24.7860  -27.8550 O   0  0  0  0  0  0  0  0  0  0  0  0
   -1.9700   22.8550  -29.1510 C   0  0  0  0  0  0  0  0  0  0  0  0
   -1.1930   22.3660  -30.2100 C   0  0  0  0  0  0  0  0  0  0  0  0
   -0.7940   21.0260  -30.2280 C   0  0  0  0  0  0  0  0  0  0  0  0
   -1.1670   20.1700  -29.1880 C   0  0  0  0  0  0  0  0  0  0  0  0
   -1.9340   20.6550  -28.1240 C   0  0  0  0  0  0  0  0  0  0  0  0
   -2.4020   19.5820  -26.8180 Cl  0  0  0  0  0  0  0  0  0  0  0  0
   -2.3300   21.9960  -28.1020 C   0  0  0  0  0  0  0  0  0  0  0  0
   -6.3619   25.3528  -28.3529 H   0  0  0  0  0  0  0  0  0  0  0  0
   -5.8457   26.5541  -29.5846 H   0  0  0  0  0  0  0  0  0  0  0  0
   -7.5322   25.9358  -29.5846 H   0  0  0  0  0  0  0  0  0  0  0  0
   -7.2780   20.9292  -31.4441 H   0  0  0  0  0  0  0  0  0  0  0  0
   -7.7123   22.0041  -32.8162 H   0  0  0  0  0  0  0  0  0  0  0  0
   -6.1378   21.1393  -32.8162 H   0  0  0  0  0  0  0  0  0  0  0  0
   -3.1957   21.8412  -31.4571 H   0  0  0  0  0  0  0  0  0  0  0  0
   -4.3318   21.5358  -32.8146 H   0  0  0  0  0  0  0  0  0  0  0  0
   -3.3086   23.0122  -32.8146 H   0  0  0  0  0  0  0  0  0  0  0  0
   -0.8964   23.0379  -31.0289 H   0  0  0  0  0  0  0  0  0  0  0  0
   -0.1858   20.6451  -31.0617 H   0  0  0  0  0  0  0  0  0  0  0  0
   -0.8572   19.1147  -29.2064 H   0  0  0  0  0  0  0  0  0  0  0  0
   -2.9254   22.3783  -27.2598 H   0  0  0  0  0  0  0  0  0  0  0  0
  1  2  1  0
  2  3  2  0
  3  4  1  0
  4  5  1  0
  4  6  1  0
  6  7  1  0
  6  8  2  0
  8  9  1  0
  9 10  1  0
 10 11  2  0
 10 12  2  0
 10 13  1  0
 13 14  2  0
 14 15  1  0
 15 16  2  0
 16 17  1  0
 17 18  1  0
 17 19  2  0
  8  2  1  0
 19 13  1  0
  1 20  1  0
  1 21  1  0
  1 22  1  0
  5 23  1  0
  5 24  1  0
  5 25  1  0
  7 26  1  0
  7 27  1  0
  7 28  1  0
 14 29  1  0
 15 30  1  0
 16 31  1  0
 19 32  1  0
M  CHG  1   9  -1
M  END
>  <UniqueID>  (32) 
30

>  <SMILES>  (32) 
Cc1nn(C)c(C)c1[N-]S(=O)(=O)c1cccc(Cl)c1

>  <Energy>  (32) 
66.18665358278784

>  <Genealogy>  (32) 
Cc1nn(C)c(C)c1[N-]S(=O)(=O)c1cccc(Cl)c1 (protonated)
Cc1nn(C)c(C)c1[N-]S(=O)(=O)c1cccc(Cl)c1 (3D coordinates assigned)
Cc1nn(C)c(C)c1[N-]S(=O)(=O)c1cccc(Cl)c1 (optimized conformer: 66.18665358278784 kcal/mol)

>  <smiles>  (32) 
Cc1nn(C)c(C)c1NS(=O)(=O)c1cccc(Cl)c1

>  <score_type>  (32) 
oracle

>  <origin>  (32) 
adgpu

>  <m_score__min__energy>  (32) 
-8.6400000000000006

>  <m_primary>  (32) 
energy

$$$$
32:0
     RDKit          3D

 40 42  0  0  1  0  0  0  0  0999 V2000
    2.5350   19.9000  -34.5590 C   0  0  0  0  0  0  0  0  0  0  0  0
    1.5990   20.8020  -33.8790 N   0  0  0  0  0  0  0  0  0  0  0  0
    0.3660   20.5270  -33.7340 C   0  0  0  0  0  0  0  0  0  0  0  0
   -0.1560   19.3760  -34.2030 N   0  0  0  0  0  0  0  0  0  0  0  0
   -1.4510   19.0430  -34.0730 C   0  0  0  0  0  0  0  0  0  0  0  0
   -1.8900   17.7720  -34.6210 C   0  0  0  0  0  0  0  0  0  0  0  0
   -3.1840   17.3120  -34.5750 C   0  0  0  0  0  0  0  0  0  0  0  0
   -3.5910   16.1030  -35.0950 C   0  0  0  0  0  0  0  0  0  0  0  0
   -2.6380   15.3210  -35.6940 C   0  0  0  0  0  0  0  0  0  0  0  0
   -1.3490   15.8030  -35.7300 C   0  0  0  0  0  0  0  0  0  0  0  0
   -0.9760   16.9860  -35.2140 N   0  0  0  0  0  0  0  0  0  0  0  0
   -2.2980   19.9160  -33.4280 C   0  0  0  0  0  0  0  0  0  0  0  0
   -1.7820   21.0760  -32.9530 C   0  0  0  0  0  0  0  0  0  0  0  0
   -2.5120   21.9070  -32.3550 N   0  0  0  0  0  0  0  0  0  0  0  0
   -3.8870   21.7930  -32.0900 C   0  0  0  0  0  0  0  0  0  0  0  0
   -4.2260   21.6480  -30.8670 O   0  0  0  0  0  0  0  0  0  0  0  0
   -4.9260   21.8220  -33.0500 N   0  0  0  0  0  0  0  0  0  0  0  0
   -6.2570   21.6740  -32.5730 C   0  0  0  0  0  0  0  0  0  0  0  0
   -6.8770   22.8380  -32.1150 C   0  0  0  0  0  0  0  0  0  0  0  0
   -8.1780   22.8210  -31.6280 C   0  0  0  0  0  0  0  0  0  0  0  0
   -8.8620   21.6270  -31.6010 C   0  0  0  0  0  0  0  0  0  0  0  0
   -8.2610   20.4620  -32.0520 C   0  0  0  0  0  0  0  0  0  0  0  0
   -9.1120   18.9180  -32.0300 Cl  0  0  0  0  0  0  0  0  0  0  0  0
   -6.9520   20.4960  -32.5390 C   0  0  0  0  0  0  0  0  0  0  0  0
   -6.2070   19.0280  -33.1110 Cl  0  0  0  0  0  0  0  0  0  0  0  0
   -0.4670   21.3760  -33.1050 N   0  0  0  0  0  0  0  0  0  0  0  0
    3.1151   19.3410  -33.8100 H   0  0  0  0  0  0  0  0  0  0  0  0
    1.9726   19.1946  -35.1884 H   0  0  0  0  0  0  0  0  0  0  0  0
    3.2191   20.4881  -35.1884 H   0  0  0  0  0  0  0  0  0  0  0  0
    0.5310   18.7390  -34.6900 H   0  0  0  0  0  0  0  0  0  0  0  0
   -3.9413   17.9481  -34.0935 H   0  0  0  0  0  0  0  0  0  0  0  0
   -4.6400   15.7779  -35.0319 H   0  0  0  0  0  0  0  0  0  0  0  0
   -2.8938   14.3440  -36.1300 H   0  0  0  0  0  0  0  0  0  0  0  0
   -0.5782   15.1823  -36.2101 H   0  0  0  0  0  0  0  0  0  0  0  0
   -3.3646   19.6786  -33.3016 H   0  0  0  0  0  0  0  0  0  0  0  0
   -4.6750   21.9450  -34.0550 H   0  0  0  0  0  0  0  0  0  0  0  0
   -6.3238   23.7885  -32.1403 H   0  0  0  0  0  0  0  0  0  0  0  0
   -8.6534   23.7461  -31.2700 H   0  0  0  0  0  0  0  0  0  0  0  0
   -9.8930   21.5969  -31.2188 H   0  0  0  0  0  0  0  0  0  0  0  0
   -0.0980   22.2860  -32.7230 H   0  0  0  0  0  0  0  0  0  0  0  0
  1  2  1  0
  2  3  2  0
  3  4  1  0
  4  5  1  0
  5  6  1  0
  6  7  2  0
  7  8  1  0
  8  9  2  0
  9 10  1  0
 10 11  2  0
  5 12  2  0
 12 13  1  0
 13 14  2  0
 14 15  1  0
 15 16  2  0
 15 17  1  0
 17 18  1  0
 18 19  2  0
 19 20  1  0
 20 21  2  0
 21 22  1  0
 22 23  1  0
 22 24  2  0
 24 25  1  0
 13 26  1  0
 26  3  1  0
 11  6  1  0
 24 18  1  0
  1 27  1  0
  1 28  1  0
  1 29  1  0
  4 30  1  0
  7 31  1  0
  8 32  1  0
  9 33  1  0
 10 34  1  0
 12 35  1  0
 17 36  1  0
 19 37  1  0
 20 38  1  0
 21 39  1  0
 26 40  1  0
M  END
>  <smiles>  (33) 
CN=c1[nH]c(-c2ccccn2)cc(=NC(=O)Nc2cccc(Cl)c2Cl)[nH]1

>  <score_type>  (33) 
oracle

>  <origin>  (33) 
adgpu

>  <m_score__min__energy>  (33) 
-9.7699999999999996

>  <m_primary>  (33) 
energy

$$$$
33:0
     RDKit          3D

 41 44  0  0  0  0  0  0  0  0999 V2000
   -3.0490   13.2090  -35.3630 O   0  0  0  0  0  0  0  0  0  0  0  0
   -3.2980   14.2520  -34.7040 C   0  0  0  0  0  0  0  0  0  0  0  0
   -4.6650   14.6650  -34.5630 N   0  0  0  0  0  0  0  0  0  0  0  0
   -5.1200   15.9460  -34.1020 C   0  0  0  0  0  0  0  0  0  0  0  0
   -5.4170   16.1090  -32.7450 C   0  0  0  0  0  0  0  0  0  0  0  0
   -5.8530   17.3450  -32.2580 C   0  0  0  0  0  0  0  0  0  0  0  0
   -5.9850   18.4480  -33.1220 C   0  0  0  0  0  0  0  0  0  0  0  0
   -6.4480   19.7660  -32.6250 C   0  0  0  0  0  0  0  0  0  0  0  0
   -5.6750   20.7670  -32.0610 C   0  0  0  0  0  0  0  0  0  0  0  0
   -6.5860   21.7680  -31.7740 C   0  0  0  0  0  0  0  0  0  0  0  0
   -6.3140   23.0860  -31.1550 C   0  0  0  0  0  0  0  0  0  0  0  0
   -7.3480   23.8690  -30.6080 C   0  0  0  0  0  0  0  0  0  0  0  0
   -7.0650   25.1100  -30.0300 C   0  0  0  0  0  0  0  0  0  0  0  0
   -5.7520   25.5820  -29.9900 C   0  0  0  0  0  0  0  0  0  0  0  0
   -4.7170   24.8140  -30.5290 C   0  0  0  0  0  0  0  0  0  0  0  0
   -3.4100   25.2850  -30.4880 O   0  0  0  0  0  0  0  0  0  0  0  0
   -4.9950   23.5720  -31.1090 C   0  0  0  0  0  0  0  0  0  0  0  0
   -7.7770   21.3640  -32.1480 O   0  0  0  0  0  0  0  0  0  0  0  0
   -7.7340   20.1700  -32.6610 N   0  0  0  0  0  0  0  0  0  0  0  0
   -5.6590   18.2860  -34.4800 C   0  0  0  0  0  0  0  0  0  0  0  0
   -5.2230   17.0490  -34.9650 C   0  0  0  0  0  0  0  0  0  0  0  0
   -2.1760   15.0340  -34.1340 C   0  0  0  0  0  0  0  0  0  0  0  0
   -1.6300   16.1000  -34.8700 C   0  0  0  0  0  0  0  0  0  0  0  0
   -0.5640   16.8430  -34.3530 C   0  0  0  0  0  0  0  0  0  0  0  0
   -0.0420   16.5380  -33.0940 C   0  0  0  0  0  0  0  0  0  0  0  0
   -0.5910   15.4940  -32.3460 C   0  0  0  0  0  0  0  0  0  0  0  0
   -1.6560   14.7460  -32.8560 C   0  0  0  0  0  0  0  0  0  0  0  0
   -2.2010   13.7700  -32.0850 F   0  0  0  0  0  0  0  0  0  0  0  0
   -5.3068   15.2587  -32.0559 H   0  0  0  0  0  0  0  0  0  0  0  0
   -6.0948   17.4562  -31.1907 H   0  0  0  0  0  0  0  0  0  0  0  0
   -4.5895   20.7664  -31.8827 H   0  0  0  0  0  0  0  0  0  0  0  0
   -8.3847   23.5022  -30.6355 H   0  0  0  0  0  0  0  0  0  0  0  0
   -7.8790   25.7160  -29.6057 H   0  0  0  0  0  0  0  0  0  0  0  0
   -5.5323   26.5587  -29.5341 H   0  0  0  0  0  0  0  0  0  0  0  0
   -4.1764   22.9712  -31.5321 H   0  0  0  0  0  0  0  0  0  0  0  0
   -5.7477   19.1402  -35.1673 H   0  0  0  0  0  0  0  0  0  0  0  0
   -4.9595   16.9395  -36.0273 H   0  0  0  0  0  0  0  0  0  0  0  0
   -2.0435   16.3511  -35.8579 H   0  0  0  0  0  0  0  0  0  0  0  0
   -0.1357   17.6694  -34.9392 H   0  0  0  0  0  0  0  0  0  0  0  0
    0.8007   17.1195  -32.6919 H   0  0  0  0  0  0  0  0  0  0  0  0
   -0.1836   15.2595  -31.3515 H   0  0  0  0  0  0  0  0  0  0  0  0
  1  2  2  0
  2  3  1  0
  3  4  1  0
  4  5  2  0
  5  6  1  0
  6  7  2  0
  7  8  1  0
  8  9  1  0
  9 10  2  0
 10 11  1  0
 11 12  2  0
 12 13  1  0
 13 14  2  0
 14 15  1  0
 15 16  1  0
 15 17  2  0
 10 18  1  0
 18 19  1  0
  7 20  1  0
 20 21  2  0
  2 22  1  0
 22 23  2  0
 23 24  1  0
 24 25  2  0
 25 26  1  0
 26 27  2  0
 27 28  1  0
 21  4  1  0
 27 22  1  0
 19  8  2  0
 17 11  1  0
  5 29  1  0
  6 30  1  0
  9 31  1  0
 12 32  1  0
 13 33  1  0
 14 34  1  0
 17 35  1  0
 20 36  1  0
 21 37  1  0
 23 38  1  0
 24 39  1  0
 25 40  1  0
 26 41  1  0
M  CHG  2   3  -1  16  -1
M  END
>  <UniqueID>  (34) 
31

>  <SMILES>  (34) 
O=C([N-]c1ccc(-c2cc(-c3cccc([O-])c3)on2)cc1)c1ccccc1F

>  <Energy>  (34) 
87.00874361432643

>  <Genealogy>  (34) 
O=C([N-]c1ccc(-c2cc(-c3cccc([O-])c3)on2)cc1)c1ccccc1F (protonated)
O=C([N-]c1ccc(-c2cc(-c3cccc([O-])c3)on2)cc1)c1ccccc1F (3D coordinates assigned)
O=C([N-]c1ccc(-c2cc(-c3cccc([O-])c3)on2)cc1)c1ccccc1F (optimized conformer: 87.00874361432643 kcal/mol)

>  <smiles>  (34) 
O=C(Nc1ccc(-c2cc(-c3cccc(O)c3)on2)cc1)c1ccccc1F

>  <score_type>  (34) 
oracle

>  <origin>  (34) 
adgpu

>  <m_score__min__energy>  (34) 
-11.01

>  <m_primary>  (34) 
energy

$$$$
34:0
     RDKit          3D

 62 66  0  0  0  0  0  0  0  0999 V2000
   -9.4350   21.5360  -32.2630 O   0  0  0  0  0  0  0  0  0  0  0  0
   -8.2490   21.1370  -32.1130 C   0  0  0  0  0  0  0  0  0  0  0  0
   -7.3880   21.9270  -31.3210 C   0  0  0  0  0  0  0  0  0  0  0  0
   -6.0490   21.6120  -31.0600 C   0  0  0  0  0  0  0  0  0  0  0  0
   -5.1860   22.4670  -30.2050 C   0  0  0  0  0  0  0  0  0  0  0  0
   -5.6300   23.7250  -29.7620 C   0  0  0  0  0  0  0  0  0  0  0  0
   -4.8170   24.5190  -28.9480 C   0  0  0  0  0  0  0  0  0  0  0  0
   -3.5430   24.0730  -28.5570 C   0  0  0  0  0  0  0  0  0  0  0  0
   -2.6790   24.9180  -27.6940 C   0  0  0  0  0  0  0  0  0  0  0  0
   -1.5340   25.5420  -28.2200 C   0  0  0  0  0  0  0  0  0  0  0  0
   -0.7180   26.3320  -27.4050 C   0  0  0  0  0  0  0  0  0  0  0  0
   -1.0280   26.5060  -26.0480 C   0  0  0  0  0  0  0  0  0  0  0  0
   -0.1660   27.3850  -25.1850 C   0  0  0  0  0  0  0  0  0  0  0  0
    0.1810   26.6720  -23.9500 N   0  0  0  0  0  0  0  0  0  0  0  0
    1.3000   25.7380  -24.1500 C   0  0  0  0  0  0  0  0  0  0  0  0
    0.8890   24.5160  -24.9380 C   0  0  0  0  0  0  0  0  0  0  0  0
    1.4420   24.2670  -26.2060 C   0  0  0  0  0  0  0  0  0  0  0  0
    1.0370   23.1490  -26.9430 C   0  0  0  0  0  0  0  0  0  0  0  0
    0.0770   22.2760  -26.4230 C   0  0  0  0  0  0  0  0  0  0  0  0
   -0.3160   21.1940  -27.1390 F   0  0  0  0  0  0  0  0  0  0  0  0
   -0.4800   22.5200  -25.1640 C   0  0  0  0  0  0  0  0  0  0  0  0
   -0.0790   23.6370  -24.4250 C   0  0  0  0  0  0  0  0  0  0  0  0
   -2.1770   25.9000  -25.5230 C   0  0  0  0  0  0  0  0  0  0  0  0
   -2.9920   25.1080  -26.3360 C   0  0  0  0  0  0  0  0  0  0  0  0
   -3.1020   22.8140  -28.9950 C   0  0  0  0  0  0  0  0  0  0  0  0
   -3.9140   22.0190  -29.8080 C   0  0  0  0  0  0  0  0  0  0  0  0
   -5.4420   20.1980  -31.7640 S   0  0  0  0  0  0  0  0  0  0  0  0
   -6.5920   19.3590  -32.6900 C   0  0  0  0  0  0  0  0  0  0  0  0
   -6.2540   18.1160  -33.3650 N   0  0  0  0  0  0  0  0  0  0  0  0
   -4.9390   18.0040  -34.0260 C   0  0  0  0  0  0  0  0  0  0  0  0
   -4.8110   16.7450  -34.8900 C   0  0  0  0  0  0  0  0  0  0  0  0
   -5.3650   15.6240  -34.2390 O   0  0  0  0  0  0  0  0  0  0  0  0
   -6.7600   15.7970  -34.1530 C   0  0  0  0  0  0  0  0  0  0  0  0
   -7.1060   16.9270  -33.1820 C   0  0  0  0  0  0  0  0  0  0  0  0
   -7.8780   19.9310  -32.7490 C   0  0  0  0  0  0  0  0  0  0  0  0
   -7.7951   22.8492  -30.8807 H   0  0  0  0  0  0  0  0  0  0  0  0
   -6.6254   24.0876  -30.0583 H   0  0  0  0  0  0  0  0  0  0  0  0
   -5.1777   25.5018  -28.6104 H   0  0  0  0  0  0  0  0  0  0  0  0
   -1.2783   25.4074  -29.2814 H   0  0  0  0  0  0  0  0  0  0  0  0
    0.1717   26.8197  -27.8299 H   0  0  0  0  0  0  0  0  0  0  0  0
    0.7541   27.6438  -25.7294 H   0  0  0  0  0  0  0  0  0  0  0  0
   -0.7158   28.3042  -24.9346 H   0  0  0  0  0  0  0  0  0  0  0  0
   -0.6580   26.1380  -23.6170 H   0  0  0  0  0  0  0  0  0  0  0  0
    2.1022   26.2575  -24.6946 H   0  0  0  0  0  0  0  0  0  0  0  0
    1.6412   25.4024  -23.1596 H   0  0  0  0  0  0  0  0  0  0  0  0
    2.1954   24.9532  -26.6201 H   0  0  0  0  0  0  0  0  0  0  0  0
    1.4748   22.9565  -27.9336 H   0  0  0  0  0  0  0  0  0  0  0  0
   -1.2346   21.8323  -24.7545 H   0  0  0  0  0  0  0  0  0  0  0  0
   -0.5236   23.8283  -23.4372 H   0  0  0  0  0  0  0  0  0  0  0  0
   -2.4389   26.0485  -24.4650 H   0  0  0  0  0  0  0  0  0  0  0  0
   -3.8861   24.6290  -25.9103 H   0  0  0  0  0  0  0  0  0  0  0  0
   -2.1081   22.4502  -28.6954 H   0  0  0  0  0  0  0  0  0  0  0  0
   -3.5548   21.0339  -30.1403 H   0  0  0  0  0  0  0  0  0  0  0  0
   -4.7921   18.8859  -34.6669 H   0  0  0  0  0  0  0  0  0  0  0  0
   -4.1766   17.9407  -33.2356 H   0  0  0  0  0  0  0  0  0  0  0  0
   -5.3404   16.9063  -35.8406 H   0  0  0  0  0  0  0  0  0  0  0  0
   -3.7431   16.5520  -35.0700 H   0  0  0  0  0  0  0  0  0  0  0  0
   -7.1554   16.0435  -35.1495 H   0  0  0  0  0  0  0  0  0  0  0  0
   -7.2100   14.8635  -33.7840 H   0  0  0  0  0  0  0  0  0  0  0  0
   -8.1549   17.2181  -33.3404 H   0  0  0  0  0  0  0  0  0  0  0  0
   -6.9373   16.5515  -32.1619 H   0  0  0  0  0  0  0  0  0  0  0  0
   -8.6471   19.4018  -33.3308 H   0  0  0  0  0  0  0  0  0  0  0  0
  1  2  2  0
  2  3  1  0
  3  4  2  0
  4  5  1  0
  5  6  2  0
  6  7  1  0
  7  8  2  0
  8  9  1  0
  9 10  2  0
 10 11  1  0
 11 12  2  0
 12 13  1  0
 13 14  1  0
 14 15  1  0
 15 16  1  0
 16 17  2  0
 17 18  1  0
 18 19  2  0
 19 20  1  0
 19 21  1  0
 21 22  2  0
 12 23  1  0
 23 24  2  0
  8 25  1  0
 25 26  2  0
  4 27  1  0
 27 28  1  0
 28 29  1  0
 29 30  1  0
 30 31  1  0
 31 32  1  0
 32 33  1  0
 33 34  1  0
 28 35  2  0
 35  2  1  0
 26  5  1  0
 34 29  1  0
 24  9  1  0
 22 16  1  0
  3 36  1  0
  6 37  1  0
  7 38  1  0
 10 39  1  0
 11 40  1  0
 13 41  1  0
 13 42  1  0
 14 43  1  0
 15 44  1  0
 15 45  1  0
 17 46  1  0
 18 47  1  0
 21 48  1  0
 22 49  1  0
 23 50  1  0
 24 51  1  0
 25 52  1  0
 26 53  1  0
 30 54  1  0
 30 55  1  0
 31 56  1  0
 31 57  1  0
 33 58  1  0
 33 59  1  0
 34 60  1  0
 34 61  1  0
 35 62  1  0
M  END
>  <UniqueID>  (35) 
32

>  <SMILES>  (35) 
O=c1cc(-c2ccc(-c3ccc(CNCc4ccc(F)cc4)cc3)cc2)sc(N2CCOCC2)c1

>  <Energy>  (35) 
84.14882925267666

>  <Genealogy>  (35) 
O=c1cc(-c2ccc(-c3ccc(CNCc4ccc(F)cc4)cc3)cc2)sc(N2CCOCC2)c1 (3D coordinates assigned)
O=c1cc(-c2ccc(-c3ccc(CNCc4ccc(F)cc4)cc3)cc2)sc(N2CCOCC2)c1 (nonaromatic ring conformer: 84.14882925267666 kcal/mol)

>  <smiles>  (35) 
O=c1cc(-c2ccc(-c3ccc(CNCc4ccc(F)cc4)cc3)cc2)sc(N2CCOCC2)c1

>  <score_type>  (35) 
oracle

>  <origin>  (35) 
adgpu

>  <m_score__min__energy>  (35) 
-9.4399999999999995

>  <m_primary>  (35) 
energy

$$$$
35:0
     RDKit          3D

 34 36  0  0  0  0  0  0  0  0999 V2000
   -5.7370   25.9960  -31.1460 O   0  0  0  0  0  0  0  0  0  0  0  0
   -5.0510   24.9840  -30.8480 C   0  0  0  0  0  0  0  0  0  0  0  0
   -3.6890   25.1720  -30.4400 N   0  0  0  0  0  0  0  0  0  0  0  0
   -2.9090   24.2610  -29.6510 C   0  0  0  0  0  0  0  0  0  0  0  0
   -2.5920   24.5360  -28.3080 C   0  0  0  0  0  0  0  0  0  0  0  0
   -1.8530   23.6160  -27.5580 C   0  0  0  0  0  0  0  0  0  0  0  0
   -1.4410   22.4110  -28.1330 C   0  0  0  0  0  0  0  0  0  0  0  0
   -0.5160   21.2620  -27.1810 Cl  0  0  0  0  0  0  0  0  0  0  0  0
   -1.7770   22.1200  -29.4620 C   0  0  0  0  0  0  0  0  0  0  0  0
   -1.3930   20.9480  -30.0270 F   0  0  0  0  0  0  0  0  0  0  0  0
   -2.5170   23.0410  -30.2130 C   0  0  0  0  0  0  0  0  0  0  0  0
   -5.6820   23.6450  -30.8500 C   0  0  0  0  0  0  0  0  0  0  0  0
   -5.7720   23.0060  -29.7640 O   0  0  0  0  0  0  0  0  0  0  0  0
   -6.2390   23.0820  -32.0650 N   0  0  0  0  0  0  0  0  0  0  0  0
   -7.7100   22.9000  -31.9430 C   0  0  0  0  0  0  0  0  0  0  0  0
   -7.9410   21.4450  -32.0670 C   0  0  0  0  0  0  0  0  0  0  0  0
   -9.1530   20.7560  -31.9800 C   0  0  0  0  0  0  0  0  0  0  0  0
   -9.1420   19.3600  -32.1390 C   0  0  0  0  0  0  0  0  0  0  0  0
   -7.9320   18.6860  -32.3850 C   0  0  0  0  0  0  0  0  0  0  0  0
   -6.7280   19.4060  -32.4710 C   0  0  0  0  0  0  0  0  0  0  0  0
   -6.7690   20.7920  -32.3040 C   0  0  0  0  0  0  0  0  0  0  0  0
   -5.6450   21.7500  -32.3640 C   0  0  0  0  0  0  0  0  0  0  0  0
   -2.9264   25.4771  -27.8470 H   0  0  0  0  0  0  0  0  0  0  0  0
   -1.5953   23.8414  -26.5126 H   0  0  0  0  0  0  0  0  0  0  0  0
   -2.7920   22.8041  -31.2514 H   0  0  0  0  0  0  0  0  0  0  0  0
   -6.0420   23.7170  -32.8750 H   0  0  0  0  0  0  0  0  0  0  0  0
   -8.0623   23.2631  -30.9663 H   0  0  0  0  0  0  0  0  0  0  0  0
   -8.2559   23.4663  -32.7120 H   0  0  0  0  0  0  0  0  0  0  0  0
  -10.0939   21.2937  -31.7914 H   0  0  0  0  0  0  0  0  0  0  0  0
  -10.0820   18.7927  -32.0709 H   0  0  0  0  0  0  0  0  0  0  0  0
   -7.9281   17.5932  -32.5103 H   0  0  0  0  0  0  0  0  0  0  0  0
   -5.7761   18.8902  -32.6652 H   0  0  0  0  0  0  0  0  0  0  0  0
   -4.8811   21.4933  -31.6153 H   0  0  0  0  0  0  0  0  0  0  0  0
   -5.1498   21.7360  -33.3461 H   0  0  0  0  0  0  0  0  0  0  0  0
  1  2  2  0
  2  3  1  0
  3  4  1  0
  4  5  2  0
  5  6  1  0
  6  7  2  0
  7  8  1  0
  7  9  1  0
  9 10  1  0
  9 11  2  0
  2 12  1  0
 12 13  2  0
 12 14  1  0
 14 15  1  0
 15 16  1  0
 16 17  2  0
 17 18  1  0
 18 19  2  0
 19 20  1  0
 20 21  2  0
 21 22  1  0
 11  4  1  0
 22 14  1  0
 21 16  1  0
  5 23  1  0
  6 24  1  0
 11 25  1  0
 14 26  1  0
 15 27  1  0
 15 28  1  0
 17 29  1  0
 18 30  1  0
 19 31  1  0
 20 32  1  0
 22 33  1  0
 22 34  1  0
M  CHG  2   3  -1  14   1
M  END
>  <UniqueID>  (36) 
33

>  <SMILES>  (36) 
O=C([N-]c1ccc(Cl)c(F)c1)C(=O)[NH+]1Cc2ccccc2C1

>  <Energy>  (36) 
56.712540413189814

>  <Genealogy>  (36) 
O=C([N-]c1ccc(Cl)c(F)c1)C(=O)[NH+]1Cc2ccccc2C1 (protonated)
O=C([N-]c1ccc(Cl)c(F)c1)C(=O)[NH+]1Cc2ccccc2C1 (3D coordinates assigned)
O=C([N-]c1ccc(Cl)c(F)c1)C(=O)[NH+]1Cc2ccccc2C1 (nonaromatic ring conformer: 56.712540413189814 kcal/mol)

>  <smiles>  (36) 
O=C(Nc1ccc(Cl)c(F)c1)C(=O)N1Cc2ccccc2C1

>  <score_type>  (36) 
oracle

>  <origin>  (36) 
adgpu

>  <m_score__min__energy>  (36) 
-9.1300000000000008

>  <m_primary>  (36) 
energy

$$$$
36:0
     RDKit          3D

 42 43  0  0  0  0  0  0  0  0999 V2000
   -2.3130   24.6440  -28.6320 C   0  0  0  0  0  0  0  0  0  0  0  0
   -3.0730   25.2050  -29.6970 O   0  0  0  0  0  0  0  0  0  0  0  0
   -4.2000   24.6000  -30.2730 C   0  0  0  0  0  0  0  0  0  0  0  0
   -5.4070   25.3020  -30.2610 C   0  0  0  0  0  0  0  0  0  0  0  0
   -6.5580   24.7470  -30.8200 C   0  0  0  0  0  0  0  0  0  0  0  0
   -6.5210   23.4720  -31.4060 C   0  0  0  0  0  0  0  0  0  0  0  0
   -7.7890   22.8790  -31.9890 C   0  0  0  0  0  0  0  0  0  0  0  0
   -8.0570   21.5140  -31.4730 N   0  0  1  0  0  0  0  0  0  0  0  0
   -9.1310   21.5410  -30.4580 C   0  0  0  0  0  0  0  0  0  0  0  0
   -8.4240   20.6200  -32.5980 C   0  0  0  0  0  0  0  0  0  0  0  0
   -7.6340   19.3410  -32.5820 C   0  0  0  0  0  0  0  0  0  0  0  0
   -7.7410   18.3050  -31.6740 C   0  0  0  0  0  0  0  0  0  0  0  0
   -6.8750   17.3290  -32.0160 N   0  0  0  0  0  0  0  0  0  0  0  0
   -6.2460   17.7200  -33.1140 N   0  0  0  0  0  0  0  0  0  0  0  0
   -5.1870   16.9570  -33.7580 C   0  0  0  0  0  0  0  0  0  0  0  0
   -6.6720   18.9410  -33.4830 C   0  0  0  0  0  0  0  0  0  0  0  0
   -5.3120   22.7500  -31.4270 C   0  0  0  0  0  0  0  0  0  0  0  0
   -5.2940   21.4740  -32.0190 O   0  0  0  0  0  0  0  0  0  0  0  0
   -4.1860   20.9230  -32.7230 C   0  0  0  0  0  0  0  0  0  0  0  0
   -4.1540   23.3210  -30.8590 C   0  0  0  0  0  0  0  0  0  0  0  0
   -2.7415   24.9603  -27.6695 H   0  0  0  0  0  0  0  0  0  0  0  0
   -2.3385   23.5465  -28.7018 H   0  0  0  0  0  0  0  0  0  0  0  0
   -1.2717   24.9917  -28.7018 H   0  0  0  0  0  0  0  0  0  0  0  0
   -5.4505   26.3026  -29.8062 H   0  0  0  0  0  0  0  0  0  0  0  0
   -7.5014   25.3124  -30.8015 H   0  0  0  0  0  0  0  0  0  0  0  0
   -8.6369   23.5293  -31.7281 H   0  0  0  0  0  0  0  0  0  0  0  0
   -7.6594   22.8090  -33.0791 H   0  0  0  0  0  0  0  0  0  0  0  0
   -7.1850   21.1440  -31.0250 H   0  0  0  0  0  0  0  0  0  0  0  0
   -8.6854   21.5298  -29.4523 H   0  0  0  0  0  0  0  0  0  0  0  0
   -9.7309   22.4545  -30.5831 H   0  0  0  0  0  0  0  0  0  0  0  0
   -9.7760   20.6588  -30.5831 H   0  0  0  0  0  0  0  0  0  0  0  0
   -9.4943   20.3772  -32.5240 H   0  0  0  0  0  0  0  0  0  0  0  0
   -8.1993   21.1463  -33.5374 H   0  0  0  0  0  0  0  0  0  0  0  0
   -8.4227   18.2802  -30.8111 H   0  0  0  0  0  0  0  0  0  0  0  0
   -4.5479   16.4965  -32.9902 H   0  0  0  0  0  0  0  0  0  0  0  0
   -5.6314   16.1702  -34.3853 H   0  0  0  0  0  0  0  0  0  0  0  0
   -4.5813   17.6276  -34.3853 H   0  0  0  0  0  0  0  0  0  0  0  0
   -6.3158   19.5173  -34.3496 H   0  0  0  0  0  0  0  0  0  0  0  0
   -3.4415   20.5527  -32.0029 H   0  0  0  0  0  0  0  0  0  0  0  0
   -4.5301   20.0911  -33.3550 H   0  0  0  0  0  0  0  0  0  0  0  0
   -3.7303   21.6995  -33.3550 H   0  0  0  0  0  0  0  0  0  0  0  0
   -3.2068   22.7619  -30.8741 H   0  0  0  0  0  0  0  0  0  0  0  0
  1  2  1  0
  2  3  1  0
  3  4  2  0
  4  5  1  0
  5  6  2  0
  6  7  1  0
  7  8  1  0
  8  9  1  0
  8 10  1  0
 10 11  1  0
 11 12  1  0
 12 13  2  0
 13 14  1  0
 14 15  1  0
 14 16  1  0
  6 17  1  0
 17 18  1  0
 18 19  1  0
 17 20  2  0
 20  3  1  0
 16 11  2  0
  1 21  1  0
  1 22  1  0
  1 23  1  0
  4 24  1  0
  5 25  1  0
  7 26  1  0
  7 27  1  0
  8 28  1  1
  9 29  1  0
  9 30  1  0
  9 31  1  0
 10 32  1  0
 10 33  1  0
 12 34  1  0
 15 35  1  0
 15 36  1  0
 15 37  1  0
 16 38  1  0
 19 39  1  0
 19 40  1  0
 19 41  1  0
 20 42  1  0
M  CHG  1   8   1
M  END
>  <UniqueID>  (37) 
34

>  <SMILES>  (37) 
COc1ccc(C[N@@H+](C)Cc2cnn(C)c2)c(OC)c1

>  <Energy>  (37) 
70.98714289272131

>  <Genealogy>  (37) 
COc1ccc(C[NH+](C)Cc2cnn(C)c2)c(OC)c1 (protonated)
COc1ccc(C[N@@H+](C)Cc2cnn(C)c2)c(OC)c1 (chirality)
COc1ccc(C[N@@H+](C)Cc2cnn(C)c2)c(OC)c1 (3D coordinates assigned)
COc1ccc(C[N@@H+](C)Cc2cnn(C)c2)c(OC)c1 (optimized conformer: 70.98714289272131 kcal/mol)

>  <smiles>  (37) 
COc1ccc(CN(C)Cc2cnn(C)c2)c(OC)c1

>  <score_type>  (37) 
oracle

>  <origin>  (37) 
adgpu

>  <m_score__min__energy>  (37) 
-5.9699999999999998

>  <m_primary>  (37) 
energy

$$$$
37:0
     RDKit          3D

 36 37  0  0  0  0  0  0  0  0999 V2000
   -2.8510   24.5440  -29.4870 C   0  0  0  0  0  0  0  0  0  0  0  0
   -3.6420   25.2820  -30.4630 N   0  0  0  0  0  0  0  0  0  0  0  0
   -5.0720   25.2410  -30.5580 C   0  0  0  0  0  0  0  0  0  0  0  0
   -5.7310   26.2480  -30.1910 O   0  0  0  0  0  0  0  0  0  0  0  0
   -5.7910   24.0740  -31.1060 C   0  0  0  0  0  0  0  0  0  0  0  0
   -7.1900   23.9990  -31.0410 C   0  0  0  0  0  0  0  0  0  0  0  0
   -7.8620   22.9010  -31.5820 C   0  0  0  0  0  0  0  0  0  0  0  0
   -7.1460   21.8750  -32.2010 C   0  0  0  0  0  0  0  0  0  0  0  0
   -5.7450   21.9390  -32.2960 C   0  0  0  0  0  0  0  0  0  0  0  0
   -4.9810   20.8530  -32.9610 C   0  0  0  0  0  0  0  0  0  0  0  0
   -3.5830   20.9310  -33.0760 C   0  0  0  0  0  0  0  0  0  0  0  0
   -2.8680   19.9060  -33.6970 C   0  0  0  0  0  0  0  0  0  0  0  0
   -3.5340   18.7950  -34.2160 C   0  0  0  0  0  0  0  0  0  0  0  0
   -4.9350   18.6980  -34.1220 C   0  0  0  0  0  0  0  0  0  0  0  0
   -5.6600   17.5700  -34.6460 N   0  0  0  0  0  0  0  0  0  0  0  0
   -6.4580   16.3740  -33.6730 S   0  0  0  0  0  0  0  0  0  0  0  0
   -5.2570   15.4010  -32.7890 C   0  0  0  0  0  0  0  0  0  0  0  0
   -7.4080   17.0370  -32.7160 O   0  0  0  0  0  0  0  0  0  0  0  0
   -7.2400   15.4610  -34.5740 O   0  0  0  0  0  0  0  0  0  0  0  0
   -5.6470   19.7300  -33.4880 C   0  0  0  0  0  0  0  0  0  0  0  0
   -5.0750   23.0520  -31.7490 C   0  0  0  0  0  0  0  0  0  0  0  0
   -3.1599   24.8322  -28.4714 H   0  0  0  0  0  0  0  0  0  0  0  0
   -3.0107   23.4646  -29.6264 H   0  0  0  0  0  0  0  0  0  0  0  0
   -1.7853   24.7780  -29.6264 H   0  0  0  0  0  0  0  0  0  0  0  0
   -7.7602   24.8085  -30.5619 H   0  0  0  0  0  0  0  0  0  0  0  0
   -8.9588   22.8444  -31.5202 H   0  0  0  0  0  0  0  0  0  0  0  0
   -7.6823   21.0097  -32.6177 H   0  0  0  0  0  0  0  0  0  0  0  0
   -3.0490   21.8048  -32.6743 H   0  0  0  0  0  0  0  0  0  0  0  0
   -1.7731   19.9742  -33.7778 H   0  0  0  0  0  0  0  0  0  0  0  0
   -2.9611   17.9909  -34.7011 H   0  0  0  0  0  0  0  0  0  0  0  0
   -5.6640   17.4100  -35.6790 H   0  0  0  0  0  0  0  0  0  0  0  0
   -5.4097   15.5248  -31.7067 H   0  0  0  0  0  0  0  0  0  0  0  0
   -5.3750   14.3407  -33.0571 H   0  0  0  0  0  0  0  0  0  0  0  0
   -4.2443   15.7364  -33.0571 H   0  0  0  0  0  0  0  0  0  0  0  0
   -6.7414   19.6596  -33.4020 H   0  0  0  0  0  0  0  0  0  0  0  0
   -3.9799   23.1204  -31.8268 H   0  0  0  0  0  0  0  0  0  0  0  0
  1  2  1  0
  2  3  1  0
  3  4  2  0
  3  5  1  0
  5  6  2  0
  6  7  1  0
  7  8  2  0
  8  9  1  0
  9 10  1  0
 10 11  2  0
 11 12  1  0
 12 13  2  0
 13 14  1  0
 14 15  1  0
 15 16  1  0
 16 17  1  0
 16 18  2  0
 16 19  2  0
 14 20  2  0
  9 21  2  0
 21  5  1  0
 20 10  1  0
  1 22  1  0
  1 23  1  0
  1 24  1  0
  6 25  1  0
  7 26  1  0
  8 27  1  0
 11 28  1  0
 12 29  1  0
 13 30  1  0
 15 31  1  0
 17 32  1  0
 17 33  1  0
 17 34  1  0
 20 35  1  0
 21 36  1  0
M  CHG  1   2  -1
M  END
>  <UniqueID>  (38) 
35

>  <SMILES>  (38) 
C[N-]C(=O)c1cccc(-c2cccc(NS(C)(=O)=O)c2)c1

>  <Energy>  (38) 
43.92447721210859

>  <Genealogy>  (38) 
C[N-]C(=O)c1cccc(-c2cccc(NS(C)(=O)=O)c2)c1 (protonated)
C[N-]C(=O)c1cccc(-c2cccc(NS(C)(=O)=O)c2)c1 (3D coordinates assigned)
C[N-]C(=O)c1cccc(-c2cccc(NS(C)(=O)=O)c2)c1 (optimized conformer: 43.92447721210859 kcal/mol)

>  <smiles>  (38) 
CNC(=O)c1cccc(-c2cccc(NS(C)(=O)=O)c2)c1

>  <score_type>  (38) 
oracle

>  <origin>  (38) 
adgpu

>  <m_score__min__energy>  (38) 
-10.119999999999999

>  <m_primary>  (38) 
energy

$$$$
38:0
     RDKit          3D

 28 30  0  0  0  0  0  0  0  0999 V2000
   -5.3812   22.8449  -33.3618 H   0  0  0  0  0  0  0  0  0  0  0  0
   -5.2390   22.7220  -32.2780 C   0  0  0  0  0  0  0  0  0  0  0  0
   -4.8130   21.5900  -31.8080 N   0  0  0  0  0  0  0  0  0  0  0  0
   -4.5160   20.4800  -32.6210 N   0  0  0  0  0  0  0  0  0  0  0  0
   -5.4110   19.5990  -33.1220 C   0  0  0  0  0  0  0  0  0  0  0  0
   -6.8360   19.4970  -32.7290 C   0  0  0  0  0  0  0  0  0  0  0  0
   -7.6730   20.6250  -32.7200 C   0  0  0  0  0  0  0  0  0  0  0  0
   -7.2790   21.6087  -33.0151 H   0  0  0  0  0  0  0  0  0  0  0  0
   -9.0090   20.4900  -32.3340 C   0  0  0  0  0  0  0  0  0  0  0  0
   -9.6713   21.3683  -32.3319 H   0  0  0  0  0  0  0  0  0  0  0  0
   -9.4920   19.2750  -31.9610 N   0  0  0  0  0  0  0  0  0  0  0  0
   -8.7030   18.1700  -31.9460 C   0  0  0  0  0  0  0  0  0  0  0  0
   -9.1213   17.2011  -31.6356 H   0  0  0  0  0  0  0  0  0  0  0  0
   -7.3610   18.2610  -32.3240 C   0  0  0  0  0  0  0  0  0  0  0  0
   -6.7194   17.3677  -32.3041 H   0  0  0  0  0  0  0  0  0  0  0  0
   -4.8500   18.8270  -34.0780 N   0  0  0  0  0  0  0  0  0  0  0  0
   -3.5920   19.2260  -34.1950 N   0  0  0  0  0  0  0  0  0  0  0  0
   -2.9110   18.8450  -34.8890 H   0  0  0  0  0  0  0  0  0  0  0  0
   -3.3930   20.2340  -33.3290 C   0  0  0  0  0  0  0  0  0  0  0  0
   -2.0370   21.1560  -33.3240 S   0  0  0  0  0  0  0  0  0  0  0  0
   -5.5320   23.8380  -31.3740 C   0  0  0  0  0  0  0  0  0  0  0  0
   -4.7300   24.8620  -31.2010 O   0  0  0  0  0  0  0  0  0  0  0  0
   -5.2780   25.6800  -30.3320 C   0  0  0  0  0  0  0  0  0  0  0  0
   -4.8363   26.6267  -29.9874 H   0  0  0  0  0  0  0  0  0  0  0  0
   -6.4940   25.1710  -29.9160 C   0  0  0  0  0  0  0  0  0  0  0  0
   -7.1886   25.6248  -29.1938 H   0  0  0  0  0  0  0  0  0  0  0  0
   -6.6600   23.9800  -30.5890 C   0  0  0  0  0  0  0  0  0  0  0  0
   -7.5118   23.2877  -30.5164 H   0  0  0  0  0  0  0  0  0  0  0  0
  1  2  1  0
  2  3  2  0
  3  4  1  0
  4  5  1  0
  5  6  1  0
  6  7  2  0
  7  8  1  0
  7  9  1  0
  9 10  1  0
  9 11  2  0
 11 12  1  0
 12 13  1  0
 12 14  2  0
 14 15  1  0
  5 16  2  0
 16 17  1  0
 17 18  1  0
 17 19  1  0
 19 20  2  0
  2 21  1  0
 21 22  1  0
 22 23  1  0
 23 24  1  0
 23 25  2  0
 25 26  1  0
 25 27  1  0
 27 28  1  0
 19  4  1  0
 27 21  2  0
 14  6  1  0
M  END
>  <UniqueID>  (39) 
36

>  <SMILES>  (39) 
S=c1[nH]nc(-c2ccncc2)n1/N=C/c1ccco1

>  <Energy>  (39) 
101.8907941001858

>  <Genealogy>  (39) 
S=c1[nH]nc(-c2ccncc2)n1/N=C/c1ccco1 (cis-trans isomerization)
S=c1[nH]nc(-c2ccncc2)n1/N=C/c1ccco1 (3D coordinates assigned)
S=c1[nH]nc(-c2ccncc2)n1/N=C/c1ccco1 (optimized conformer: 101.8907941001858 kcal/mol)

>  <smiles>  (39) 
S=c1[nH]nc(-c2ccncc2)n1N=Cc1ccco1

>  <score_type>  (39) 
oracle

>  <origin>  (39) 
adgpu

>  <m_score__min__energy>  (39) 
-7.2800000000000002

>  <m_primary>  (39) 
energy

$$$$
39:0
     RDKit          3D

 39 40  0  0  0  0  0  0  0  0999 V2000
   -8.6320   18.7440  -32.3000 C   0  0  0  0  0  0  0  0  0  0  0  0
   -9.0290   19.9940  -32.9420 N   0  0  0  0  0  0  0  0  0  0  0  0
   -8.7630   21.3350  -31.8670 S   0  0  0  0  0  0  0  0  0  0  0  0
   -9.5760   22.5040  -32.3490 O   0  0  0  0  0  0  0  0  0  0  0  0
   -9.2080   21.0010  -30.4700 O   0  0  0  0  0  0  0  0  0  0  0  0
   -7.0550   21.7830  -31.8420 C   0  0  0  0  0  0  0  0  0  0  0  0
   -6.1030   20.9640  -32.4630 C   0  0  0  0  0  0  0  0  0  0  0  0
   -4.7720   21.3740  -32.5420 C   0  0  0  0  0  0  0  0  0  0  0  0
   -4.3780   22.5970  -31.9950 C   0  0  0  0  0  0  0  0  0  0  0  0
   -5.3050   23.3990  -31.3080 C   0  0  0  0  0  0  0  0  0  0  0  0
   -4.9130   24.7190  -30.7580 C   0  0  0  0  0  0  0  0  0  0  0  0
   -5.8020   25.5930  -30.5800 O   0  0  0  0  0  0  0  0  0  0  0  0
   -3.5540   25.0630  -30.4490 N   0  0  0  0  0  0  0  0  0  0  0  0
   -2.7430   24.5400  -29.3500 C   0  0  0  0  0  0  0  0  0  0  0  0
   -3.5790   23.6610  -28.4150 C   0  0  0  0  0  0  0  0  0  0  0  0
   -2.7750   22.5300  -27.8310 C   0  0  0  0  0  0  0  0  0  0  0  0
   -3.1630   21.1950  -28.0420 C   0  0  0  0  0  0  0  0  0  0  0  0
   -2.4360   20.1520  -27.4610 C   0  0  0  0  0  0  0  0  0  0  0  0
   -1.3150   20.4320  -26.6750 C   0  0  0  0  0  0  0  0  0  0  0  0
   -0.9070   21.7540  -26.4820 C   0  0  0  0  0  0  0  0  0  0  0  0
   -1.6360   22.8010  -27.0540 C   0  0  0  0  0  0  0  0  0  0  0  0
   -6.6510   22.9900  -31.2520 C   0  0  0  0  0  0  0  0  0  0  0  0
   -8.6703   18.8647  -31.2073 H   0  0  0  0  0  0  0  0  0  0  0  0
   -9.3193   17.9410  -32.6045 H   0  0  0  0  0  0  0  0  0  0  0  0
   -7.6073   18.4847  -32.6045 H   0  0  0  0  0  0  0  0  0  0  0  0
   -8.4170   20.1400  -33.7770 H   0  0  0  0  0  0  0  0  0  0  0  0
   -6.4056   19.9960  -32.8890 H   0  0  0  0  0  0  0  0  0  0  0  0
   -4.0295   20.7311  -33.0374 H   0  0  0  0  0  0  0  0  0  0  0  0
   -3.3365   22.9343  -32.1025 H   0  0  0  0  0  0  0  0  0  0  0  0
   -1.9196   23.9404  -29.7653 H   0  0  0  0  0  0  0  0  0  0  0  0
   -2.3506   25.3894  -28.7716 H   0  0  0  0  0  0  0  0  0  0  0  0
   -3.9643   24.2832  -27.5938 H   0  0  0  0  0  0  0  0  0  0  0  0
   -4.3991   23.2245  -29.0040 H   0  0  0  0  0  0  0  0  0  0  0  0
   -4.0408   20.9709  -28.6658 H   0  0  0  0  0  0  0  0  0  0  0  0
   -2.7468   19.1093  -27.6227 H   0  0  0  0  0  0  0  0  0  0  0  0
   -0.7530   19.6101  -26.2075 H   0  0  0  0  0  0  0  0  0  0  0  0
   -0.0123   21.9712  -25.8801 H   0  0  0  0  0  0  0  0  0  0  0  0
   -1.3165   23.8415  -26.8951 H   0  0  0  0  0  0  0  0  0  0  0  0
   -7.3922   23.6222  -30.7413 H   0  0  0  0  0  0  0  0  0  0  0  0
  1  2  1  0
  2  3  1  0
  3  4  2  0
  3  5  2  0
  3  6  1  0
  6  7  2  0
  7  8  1  0
  8  9  2  0
  9 10  1  0
 10 11  1  0
 11 12  2  0
 11 13  1  0
 13 14  1  0
 14 15  1  0
 15 16  1  0
 16 17  2  0
 17 18  1  0
 18 19  2  0
 19 20  1  0
 20 21  2  0
 10 22  2  0
 22  6  1  0
 21 16  1  0
  1 23  1  0
  1 24  1  0
  1 25  1  0
  2 26  1  0
  7 27  1  0
  8 28  1  0
  9 29  1  0
 14 30  1  0
 14 31  1  0
 15 32  1  0
 15 33  1  0
 17 34  1  0
 18 35  1  0
 19 36  1  0
 20 37  1  0
 21 38  1  0
 22 39  1  0
M  CHG  1  13  -1
M  END
>  <UniqueID>  (40) 
37

>  <SMILES>  (40) 
CNS(=O)(=O)c1cccc(C(=O)[N-]CCc2ccccc2)c1

>  <Energy>  (40) 
36.50928527241385

>  <Genealogy>  (40) 
CNS(=O)(=O)c1cccc(C(=O)[N-]CCc2ccccc2)c1 (protonated)
CNS(=O)(=O)c1cccc(C(=O)[N-]CCc2ccccc2)c1 (3D coordinates assigned)
CNS(=O)(=O)c1cccc(C(=O)[N-]CCc2ccccc2)c1 (optimized conformer: 36.50928527241385 kcal/mol)

>  <smiles>  (40) 
CNS(=O)(=O)c1cccc(C(=O)NCCc2ccccc2)c1

>  <score_type>  (40) 
oracle

>  <origin>  (40) 
adgpu

>  <m_score__min__energy>  (40) 
-10.01

>  <m_primary>  (40) 
energy

$$$$
40:0
     RDKit          3D

 26 27  0  0  0  0  0  0  0  0999 V2000
   -3.9710   25.5820  -30.4680 O   0  0  0  0  0  0  0  0  0  0  0  0
   -3.7930   24.3360  -30.4210 C   0  0  0  0  0  0  0  0  0  0  0  0
   -4.1700   23.5450  -31.5570 N   0  0  0  0  0  0  0  0  0  0  0  0
   -5.4030   22.8280  -31.7220 C   0  0  0  0  0  0  0  0  0  0  0  0
   -5.4310   21.4910  -32.1590 C   0  0  0  0  0  0  0  0  0  0  0  0
   -6.6490   20.8190  -32.2920 C   0  0  0  0  0  0  0  0  0  0  0  0
   -7.8460   21.4690  -31.9760 C   0  0  0  0  0  0  0  0  0  0  0  0
   -9.3740   20.6240  -32.1430 Cl  0  0  0  0  0  0  0  0  0  0  0  0
   -7.8220   22.7900  -31.5150 C   0  0  0  0  0  0  0  0  0  0  0  0
   -6.6040   23.4630  -31.3810 C   0  0  0  0  0  0  0  0  0  0  0  0
   -3.1040   23.7430  -29.2530 C   0  0  0  0  0  0  0  0  0  0  0  0
   -3.4820   22.4600  -28.8200 C   0  0  0  0  0  0  0  0  0  0  0  0
   -2.8260   21.8490  -27.7490 C   0  0  0  0  0  0  0  0  0  0  0  0
   -1.7840   22.5090  -27.1000 C   0  0  0  0  0  0  0  0  0  0  0  0
   -1.3990   23.7860  -27.5140 C   0  0  0  0  0  0  0  0  0  0  0  0
   -2.0570   24.4170  -28.5780 C   0  0  0  0  0  0  0  0  0  0  0  0
   -1.6680   25.7150  -28.9130 O   0  0  0  0  0  0  0  0  0  0  0  0
   -4.4904   20.9726  -32.3969 H   0  0  0  0  0  0  0  0  0  0  0  0
   -6.6661   19.7775  -32.6457 H   0  0  0  0  0  0  0  0  0  0  0  0
   -8.7624   23.2994  -31.2578 H   0  0  0  0  0  0  0  0  0  0  0  0
   -6.5887   24.4969  -31.0057 H   0  0  0  0  0  0  0  0  0  0  0  0
   -4.3019   21.9325  -29.3294 H   0  0  0  0  0  0  0  0  0  0  0  0
   -3.1320   20.8458  -27.4174 H   0  0  0  0  0  0  0  0  0  0  0  0
   -1.2643   22.0235  -26.2608 H   0  0  0  0  0  0  0  0  0  0  0  0
   -0.5730   24.3003  -27.0009 H   0  0  0  0  0  0  0  0  0  0  0  0
   -1.6220   26.0510  -29.8660 H   0  0  0  0  0  0  0  0  0  0  0  0
  1  2  2  0
  2  3  1  0
  3  4  1  0
  4  5  2  0
  5  6  1  0
  6  7  2  0
  7  8  1  0
  7  9  1  0
  9 10  2  0
  2 11  1  0
 11 12  2  0
 12 13  1  0
 13 14  2  0
 14 15  1  0
 15 16  2  0
 16 17  1  0
 10  4  1  0
 16 11  1  0
  5 18  1  0
  6 19  1  0
  9 20  1  0
 10 21  1  0
 12 22  1  0
 13 23  1  0
 14 24  1  0
 15 25  1  0
 17 26  1  0
M  CHG  1   3  -1
M  END
>  <UniqueID>  (41) 
38

>  <SMILES>  (41) 
O=C([N-]c1ccc(Cl)cc1)c1ccccc1O

>  <Energy>  (41) 
36.23168930595589

>  <Genealogy>  (41) 
O=C([N-]c1ccc(Cl)cc1)c1ccccc1O (protonated)
O=C([N-]c1ccc(Cl)cc1)c1ccccc1O (3D coordinates assigned)
O=C([N-]c1ccc(Cl)cc1)c1ccccc1O (optimized conformer: 36.23168930595589 kcal/mol)

>  <smiles>  (41) 
O=C(Nc1ccc(Cl)cc1)c1ccccc1O

>  <score_type>  (41) 
oracle

>  <origin>  (41) 
adgpu

>  <m_score__min__energy>  (41) 
-8.9100000000000001

>  <m_primary>  (41) 
energy

$$$$
41:0
     RDKit          3D

 47 49  0  0  0  0  0  0  0  0999 V2000
   -8.0520   22.8240  -32.6320 O   0  0  0  0  0  0  0  0  0  0  0  0
   -7.7840   22.3880  -31.4790 C   0  0  0  0  0  0  0  0  0  0  0  0
   -7.1800   23.3100  -30.4610 C   0  0  0  0  0  0  0  0  0  0  0  0
   -5.7200   23.3580  -30.6050 N   0  0  0  0  0  0  0  0  0  0  0  0
   -5.0240   22.3770  -31.3970 C   0  0  0  0  0  0  0  0  0  0  0  0
   -4.6360   22.6690  -32.7170 C   0  0  0  0  0  0  0  0  0  0  0  0
   -3.9280   21.7270  -33.4690 C   0  0  0  0  0  0  0  0  0  0  0  0
   -3.6030   20.4870  -32.9110 C   0  0  0  0  0  0  0  0  0  0  0  0
   -3.9830   20.1890  -31.6010 C   0  0  0  0  0  0  0  0  0  0  0  0
   -4.6890   21.1300  -30.8450 C   0  0  0  0  0  0  0  0  0  0  0  0
   -4.8380   24.6360  -29.8200 S   0  0  0  0  0  0  0  0  0  0  0  0
   -4.3090   25.6100  -30.8380 O   0  0  0  0  0  0  0  0  0  0  0  0
   -5.7520   25.3710  -28.8780 O   0  0  0  0  0  0  0  0  0  0  0  0
   -3.4720   23.9530  -28.9450 C   0  0  0  0  0  0  0  0  0  0  0  0
   -3.6460   22.7860  -28.1860 C   0  0  0  0  0  0  0  0  0  0  0  0
   -2.5720   22.2450  -27.4710 C   0  0  0  0  0  0  0  0  0  0  0  0
   -1.3220   22.8720  -27.5070 C   0  0  0  0  0  0  0  0  0  0  0  0
   -1.1450   24.0390  -28.2570 C   0  0  0  0  0  0  0  0  0  0  0  0
   -2.2180   24.5800  -28.9740 C   0  0  0  0  0  0  0  0  0  0  0  0
   -8.0480   21.0190  -31.1420 N   0  0  0  0  0  0  0  0  0  0  0  0
   -8.6250   20.0740  -32.0930 C   0  0  0  0  0  0  0  0  0  0  0  0
   -7.5400   19.2320  -32.7120 C   0  0  0  0  0  0  0  0  0  0  0  0
   -7.2060   17.9910  -32.1460 C   0  0  0  0  0  0  0  0  0  0  0  0
   -6.1910   17.2090  -32.7080 C   0  0  0  0  0  0  0  0  0  0  0  0
   -5.5020   17.6630  -33.8380 C   0  0  0  0  0  0  0  0  0  0  0  0
   -4.1180   16.5940  -34.6050 Br  0  0  0  0  0  0  0  0  0  0  0  0
   -5.8250   18.9030  -34.4020 C   0  0  0  0  0  0  0  0  0  0  0  0
   -6.8380   19.6860  -33.8410 C   0  0  0  0  0  0  0  0  0  0  0  0
   -7.5900   24.3210  -30.6014 H   0  0  0  0  0  0  0  0  0  0  0  0
   -7.4238   22.9351  -29.4560 H   0  0  0  0  0  0  0  0  0  0  0  0
   -4.8909   23.6432  -33.1597 H   0  0  0  0  0  0  0  0  0  0  0  0
   -3.6264   21.9615  -34.5005 H   0  0  0  0  0  0  0  0  0  0  0  0
   -3.0476   19.7458  -33.5044 H   0  0  0  0  0  0  0  0  0  0  0  0
   -3.7268   19.2130  -31.1631 H   0  0  0  0  0  0  0  0  0  0  0  0
   -4.9836   20.8921  -29.8122 H   0  0  0  0  0  0  0  0  0  0  0  0
   -4.6297   22.2949  -28.1530 H   0  0  0  0  0  0  0  0  0  0  0  0
   -2.7104   21.3271  -26.8808 H   0  0  0  0  0  0  0  0  0  0  0  0
   -0.4775   22.4467  -26.9449 H   0  0  0  0  0  0  0  0  0  0  0  0
   -0.1619   24.5318  -28.2833 H   0  0  0  0  0  0  0  0  0  0  0  0
   -2.0775   25.4992  -29.5617 H   0  0  0  0  0  0  0  0  0  0  0  0
   -7.8340   20.6820  -30.1760 H   0  0  0  0  0  0  0  0  0  0  0  0
   -9.3379   19.4204  -31.5689 H   0  0  0  0  0  0  0  0  0  0  0  0
   -9.1423   20.6334  -32.8864 H   0  0  0  0  0  0  0  0  0  0  0  0
   -7.7448   17.6321  -31.2567 H   0  0  0  0  0  0  0  0  0  0  0  0
   -5.9346   16.2370  -32.2614 H   0  0  0  0  0  0  0  0  0  0  0  0
   -5.2807   19.2617  -35.2881 H   0  0  0  0  0  0  0  0  0  0  0  0
   -7.0864   20.6612  -34.2852 H   0  0  0  0  0  0  0  0  0  0  0  0
  1  2  2  0
  2  3  1  0
  3  4  1  0
  4  5  1  0
  5  6  2  0
  6  7  1  0
  7  8  2  0
  8  9  1  0
  9 10  2  0
  4 11  1  0
 11 12  2  0
 11 13  2  0
 11 14  1  0
 14 15  2  0
 15 16  1  0
 16 17  2  0
 17 18  1  0
 18 19  2  0
  2 20  1  0
 20 21  1  0
 21 22  1  0
 22 23  2  0
 23 24  1  0
 24 25  2  0
 25 26  1  0
 25 27  1  0
 27 28  2  0
 10  5  1  0
 19 14  1  0
 28 22  1  0
  3 29  1  0
  3 30  1  0
  6 31  1  0
  7 32  1  0
  8 33  1  0
  9 34  1  0
 10 35  1  0
 15 36  1  0
 16 37  1  0
 17 38  1  0
 18 39  1  0
 19 40  1  0
 20 41  1  0
 21 42  1  0
 21 43  1  0
 23 44  1  0
 24 45  1  0
 27 46  1  0
 28 47  1  0
M  END
>  <UniqueID>  (42) 
39

>  <SMILES>  (42) 
O=C(CN(c1ccccc1)S(=O)(=O)c1ccccc1)NCc1ccc(Br)cc1

>  <Energy>  (42) 
50.05621509834903

>  <Genealogy>  (42) 
O=C(CN(c1ccccc1)S(=O)(=O)c1ccccc1)NCc1ccc(Br)cc1 (3D coordinates assigned)
O=C(CN(c1ccccc1)S(=O)(=O)c1ccccc1)NCc1ccc(Br)cc1 (optimized conformer: 50.05621509834903 kcal/mol)

>  <smiles>  (42) 
O=C(CN(c1ccccc1)S(=O)(=O)c1ccccc1)NCc1ccc(Br)cc1

>  <score_type>  (42) 
oracle

>  <origin>  (42) 
adgpu

>  <m_score__min__energy>  (42) 
-10.970000000000001

>  <m_primary>  (42) 
energy

$$$$
42:0
     RDKit          3D

 34 36  0  0  0  0  0  0  0  0999 V2000
   -3.8690   25.0110  -30.4730 O   0  0  0  0  0  0  0  0  0  0  0  0
   -4.9500   24.4790  -30.8450 C   0  0  0  0  0  0  0  0  0  0  0  0
   -6.1570   25.0450  -30.6960 N   0  0  0  0  0  0  0  0  0  0  0  0
   -7.0370   24.2210  -31.1850 O   0  0  0  0  0  0  0  0  0  0  0  0
   -6.4590   23.1330  -31.6530 C   0  0  0  0  0  0  0  0  0  0  0  0
   -7.2410   21.9950  -32.2660 C   0  0  0  0  0  0  0  0  0  0  0  0
   -8.7410   22.0480  -31.9000 C   0  0  0  0  0  0  0  0  0  0  0  0
   -9.4310   20.6850  -32.1030 C   0  0  0  0  0  0  0  0  0  0  0  0
   -8.7370   19.9000  -33.1310 N   0  0  0  0  0  0  0  0  0  0  0  0
   -7.3910   19.4950  -32.6830 C   0  0  0  0  0  0  0  0  0  0  0  0
   -6.6440   20.6210  -31.9300 C   0  0  0  0  0  0  0  0  0  0  0  0
   -5.0830   23.2530  -31.4560 C   0  0  0  0  0  0  0  0  0  0  0  0
   -3.9960   22.3180  -31.7890 C   0  0  0  0  0  0  0  0  0  0  0  0
   -3.7890   21.9500  -33.1270 C   0  0  0  0  0  0  0  0  0  0  0  0
   -2.7490   21.0830  -33.4670 C   0  0  0  0  0  0  0  0  0  0  0  0
   -1.8940   20.5920  -32.4770 C   0  0  0  0  0  0  0  0  0  0  0  0
   -2.0740   20.9750  -31.1450 C   0  0  0  0  0  0  0  0  0  0  0  0
   -3.1150   21.8450  -30.7950 C   0  0  0  0  0  0  0  0  0  0  0  0
   -3.2890   22.3220  -29.1090 Cl  0  0  0  0  0  0  0  0  0  0  0  0
   -6.3720   25.9720  -30.2670 H   0  0  0  0  0  0  0  0  0  0  0  0
   -7.1596   22.1306  -33.3546 H   0  0  0  0  0  0  0  0  0  0  0  0
   -8.8393   22.3426  -30.8448 H   0  0  0  0  0  0  0  0  0  0  0  0
   -9.2279   22.7784  -32.5629 H   0  0  0  0  0  0  0  0  0  0  0  0
   -9.4181   20.1289  -31.1540 H   0  0  0  0  0  0  0  0  0  0  0  0
  -10.4669   20.8583  -32.4298 H   0  0  0  0  0  0  0  0  0  0  0  0
   -9.2930   19.0310  -33.3090 H   0  0  0  0  0  0  0  0  0  0  0  0
   -7.4901   18.6293  -32.0116 H   0  0  0  0  0  0  0  0  0  0  0  0
   -6.8034   19.2513  -33.5804 H   0  0  0  0  0  0  0  0  0  0  0  0
   -6.7278   20.4471  -30.8471 H   0  0  0  0  0  0  0  0  0  0  0  0
   -5.5888   20.6111  -32.2404 H   0  0  0  0  0  0  0  0  0  0  0  0
   -4.4495   22.3467  -33.9121 H   0  0  0  0  0  0  0  0  0  0  0  0
   -2.6024   20.7859  -34.5159 H   0  0  0  0  0  0  0  0  0  0  0  0
   -1.0791   19.9039  -32.7460 H   0  0  0  0  0  0  0  0  0  0  0  0
   -1.3957   20.5919  -30.3684 H   0  0  0  0  0  0  0  0  0  0  0  0
  1  2  2  0
  2  3  1  0
  3  4  1  0
  4  5  1  0
  5  6  1  0
  6  7  1  0
  7  8  1  0
  8  9  1  0
  9 10  1  0
 10 11  1  0
  5 12  2  0
 12 13  1  0
 13 14  2  0
 14 15  1  0
 15 16  2  0
 16 17  1  0
 17 18  2  0
 18 19  1  0
 12  2  1  0
 18 13  1  0
 11  6  1  0
  3 20  1  0
  6 21  1  0
  7 22  1  0
  7 23  1  0
  8 24  1  0
  8 25  1  0
  9 26  1  0
 10 27  1  0
 10 28  1  0
 11 29  1  0
 11 30  1  0
 14 31  1  0
 15 32  1  0
 16 33  1  0
 17 34  1  0
M  END
>  <UniqueID>  (43) 
40

>  <SMILES>  (43) 
O=c1[nH]oc(C2CCNCC2)c1-c1ccccc1Cl

>  <Energy>  (43) 
80.74499880978775

>  <Genealogy>  (43) 
O=c1[nH]oc(C2CCNCC2)c1-c1ccccc1Cl (3D coordinates assigned)
O=c1[nH]oc(C2CCNCC2)c1-c1ccccc1Cl (nonaromatic ring conformer: 80.74499880978775 kcal/mol)

>  <smiles>  (43) 
O=c1[nH]oc(C2CCNCC2)c1-c1ccccc1Cl

>  <score_type>  (43) 
oracle

>  <origin>  (43) 
adgpu

>  <m_score__min__energy>  (43) 
-7.96

>  <m_primary>  (43) 
energy

$$$$
43:0
     RDKit          3D

 54 57  0  0  0  0  0  0  0  0999 V2000
   -3.2220   20.9170  -32.8180 C   0  0  0  0  0  0  0  0  0  0  0  0
   -3.2480   19.8780  -33.7910 O   0  0  0  0  0  0  0  0  0  0  0  0
   -4.2240   18.8720  -33.8490 C   0  0  0  0  0  0  0  0  0  0  0  0
   -3.9920   17.6290  -34.4690 C   0  0  0  0  0  0  0  0  0  0  0  0
   -4.9950   16.6580  -34.4960 C   0  0  0  0  0  0  0  0  0  0  0  0
   -6.2380   16.9150  -33.9120 C   0  0  0  0  0  0  0  0  0  0  0  0
   -6.4860   18.1510  -33.2960 C   0  0  0  0  0  0  0  0  0  0  0  0
   -7.8120   18.4280  -32.6390 C   0  0  0  0  0  0  0  0  0  0  0  0
   -8.2310   19.8000  -32.9040 N   0  0  0  0  0  0  0  0  0  0  0  0
   -8.2220   20.8090  -31.8880 C   0  0  0  0  0  0  0  0  0  0  0  0
   -9.1140   20.8860  -30.8720 N   0  0  0  0  0  0  0  0  0  0  0  0
   -8.8070   21.9380  -30.1170 N   0  0  0  0  0  0  0  0  0  0  0  0
   -7.7200   22.5190  -30.6590 C   0  0  0  0  0  0  0  0  0  0  0  0
   -7.0430   23.6470  -30.2070 C   0  0  0  0  0  0  0  0  0  0  0  0
   -5.9060   24.0780  -30.9320 C   0  0  0  0  0  0  0  0  0  0  0  0
   -5.1420   25.2700  -30.4970 C   0  0  0  0  0  0  0  0  0  0  0  0
   -5.7650   26.2910  -30.1030 O   0  0  0  0  0  0  0  0  0  0  0  0
   -3.7090   25.2840  -30.4610 N   0  0  0  0  0  0  0  0  0  0  0  0
   -2.8790   24.5490  -29.5500 C   0  0  0  0  0  0  0  0  0  0  0  0
   -2.0740   25.1990  -28.6010 C   0  0  0  0  0  0  0  0  0  0  0  0
   -1.2850   24.4550  -27.7250 C   0  0  0  0  0  0  0  0  0  0  0  0
   -1.3000   23.0590  -27.7760 C   0  0  0  0  0  0  0  0  0  0  0  0
   -2.1180   22.3810  -28.7030 C   0  0  0  0  0  0  0  0  0  0  0  0
   -2.1440   20.9300  -28.7530 N   0  0  0  0  0  0  0  0  0  0  0  0
   -1.5800   20.2110  -29.9010 C   0  0  0  0  0  0  0  0  0  0  0  0
   -2.7360   20.1580  -27.6530 C   0  0  0  0  0  0  0  0  0  0  0  0
   -2.9110   23.1490  -29.5830 C   0  0  0  0  0  0  0  0  0  0  0  0
   -5.5110   23.3700  -32.1010 C   0  0  0  0  0  0  0  0  0  0  0  0
   -6.2210   22.2330  -32.5290 C   0  0  0  0  0  0  0  0  0  0  0  0
   -7.3220   21.8410  -31.7740 C   0  0  0  0  0  0  0  0  0  0  0  0
   -5.4730   19.1220  -33.2650 C   0  0  0  0  0  0  0  0  0  0  0  0
   -3.2330   20.4760  -31.8103 H   0  0  0  0  0  0  0  0  0  0  0  0
   -2.3086   21.5164  -32.9460 H   0  0  0  0  0  0  0  0  0  0  0  0
   -4.1043   21.5613  -32.9460 H   0  0  0  0  0  0  0  0  0  0  0  0
   -3.0167   17.4222  -34.9339 H   0  0  0  0  0  0  0  0  0  0  0  0
   -4.8060   15.6877  -34.9785 H   0  0  0  0  0  0  0  0  0  0  0  0
   -7.0244   16.1462  -33.9352 H   0  0  0  0  0  0  0  0  0  0  0  0
   -8.5668   17.7345  -33.0382 H   0  0  0  0  0  0  0  0  0  0  0  0
   -7.7094   18.2885  -31.5527 H   0  0  0  0  0  0  0  0  0  0  0  0
   -8.5430   20.0500  -33.8690 H   0  0  0  0  0  0  0  0  0  0  0  0
   -7.3815   24.1888  -29.3115 H   0  0  0  0  0  0  0  0  0  0  0  0
   -2.0658   26.2977  -28.5486 H   0  0  0  0  0  0  0  0  0  0  0  0
   -0.6479   24.9694  -26.9905 H   0  0  0  0  0  0  0  0  0  0  0  0
   -0.6668   22.4825  -27.0855 H   0  0  0  0  0  0  0  0  0  0  0  0
   -0.9383   19.3929  -29.5420 H   0  0  0  0  0  0  0  0  0  0  0  0
   -2.3961   19.7962  -30.5108 H   0  0  0  0  0  0  0  0  0  0  0  0
   -0.9828   20.9049  -30.5108 H   0  0  0  0  0  0  0  0  0  0  0  0
   -2.4111   20.5817  -26.6913 H   0  0  0  0  0  0  0  0  0  0  0  0
   -3.8329   20.2035  -27.7219 H   0  0  0  0  0  0  0  0  0  0  0  0
   -2.4075   19.1105  -27.7219 H   0  0  0  0  0  0  0  0  0  0  0  0
   -3.5647   22.6397  -30.3064 H   0  0  0  0  0  0  0  0  0  0  0  0
   -4.6401   23.7155  -32.6773 H   0  0  0  0  0  0  0  0  0  0  0  0
   -5.9170   21.6750  -33.4269 H   0  0  0  0  0  0  0  0  0  0  0  0
   -5.6616   20.0896  -32.7770 H   0  0  0  0  0  0  0  0  0  0  0  0
  1  2  1  0
  2  3  1  0
  3  4  2  0
  4  5  1  0
  5  6  2  0
  6  7  1  0
  7  8  1  0
  8  9  1  0
  9 10  1  0
 10 11  1  0
 11 12  1  0
 12 13  2  0
 13 14  1  0
 14 15  2  0
 15 16  1  0
 16 17  2  0
 16 18  1  0
 18 19  1  0
 19 20  2  0
 20 21  1  0
 21 22  2  0
 22 23  1  0
 23 24  1  0
 24 25  1  0
 24 26  1  0
 23 27  2  0
 15 28  1  0
 28 29  2  0
 29 30  1  0
  7 31  2  0
 31  3  1  0
 30 10  2  0
 30 13  1  0
 27 19  1  0
  1 32  1  0
  1 33  1  0
  1 34  1  0
  4 35  1  0
  5 36  1  0
  6 37  1  0
  8 38  1  0
  8 39  1  0
  9 40  1  0
 14 41  1  0
 20 42  1  0
 21 43  1  0
 22 44  1  0
 25 45  1  0
 25 46  1  0
 25 47  1  0
 26 48  1  0
 26 49  1  0
 26 50  1  0
 27 51  1  0
 28 52  1  0
 29 53  1  0
 31 54  1  0
M  CHG  2  11  -1  18  -1
M  END
>  <UniqueID>  (44) 
41

>  <SMILES>  (44) 
COc1cccc(CNc2[n-]nc3cc(C(=O)[N-]c4cccc(N(C)C)c4)ccc23)c1

>  <Energy>  (44) 
101.64716854721226

>  <Genealogy>  (44) 
COc1cccc(CNc2[n-]nc3cc(C(=O)[N-]c4cccc(N(C)C)c4)ccc23)c1 (protonated)
COc1cccc(CNc2[n-]nc3cc(C(=O)[N-]c4cccc(N(C)C)c4)ccc23)c1 (3D coordinates assigned)
COc1cccc(CNc2[n-]nc3cc(C(=O)[N-]c4cccc(N(C)C)c4)ccc23)c1 (optimized conformer: 101.64716854721226 kcal/mol)

>  <smiles>  (44) 
COc1cccc(CNc2[nH]nc3cc(C(=O)Nc4cccc(N(C)C)c4)ccc23)c1

>  <score_type>  (44) 
oracle

>  <origin>  (44) 
adgpu

>  <m_score__min__energy>  (44) 
-11.5

>  <m_primary>  (44) 
energy

$$$$
44:0
     RDKit          3D

 44 47  0  0  0  0  0  0  0  0999 V2000
   -4.5040   16.3840  -34.9500 C   0  0  0  0  0  0  0  0  0  0  0  0
   -5.1830   17.4340  -34.1230 C   0  0  0  0  0  0  0  0  0  0  0  0
   -6.5190   17.2600  -33.7010 C   0  0  0  0  0  0  0  0  0  0  0  0
   -7.1690   18.2640  -32.9660 C   0  0  0  0  0  0  0  0  0  0  0  0
   -6.4570   19.4260  -32.6810 C   0  0  0  0  0  0  0  0  0  0  0  0
   -6.9350   20.4950  -32.0140 N   0  0  0  0  0  0  0  0  0  0  0  0
   -5.8930   21.3610  -32.0110 C   0  0  0  0  0  0  0  0  0  0  0  0
   -5.9690   22.6940  -31.3860 C   0  0  0  0  0  0  0  0  0  0  0  0
   -7.1390   23.0810  -30.7130 C   0  0  0  0  0  0  0  0  0  0  0  0
   -7.2170   24.3340  -30.0970 C   0  0  0  0  0  0  0  0  0  0  0  0
   -6.1230   25.2030  -30.1350 C   0  0  0  0  0  0  0  0  0  0  0  0
   -4.9450   24.8150  -30.7810 C   0  0  0  0  0  0  0  0  0  0  0  0
   -3.8510   25.6730  -30.8060 O   0  0  0  0  0  0  0  0  0  0  0  0
   -4.8650   23.5630  -31.3990 C   0  0  0  0  0  0  0  0  0  0  0  0
   -4.8080   20.8040  -32.6900 C   0  0  0  0  0  0  0  0  0  0  0  0
   -3.5080   21.4750  -33.0710 C   0  0  0  0  0  0  0  0  0  0  0  0
   -2.4260   21.2610  -32.0250 C   0  0  0  0  0  0  0  0  0  0  0  0
   -2.7890   21.3140  -30.6620 C   0  0  0  0  0  0  0  0  0  0  0  0
   -1.8380   21.1360  -29.6600 C   0  0  0  0  0  0  0  0  0  0  0  0
   -0.5120   20.8830  -29.9940 C   0  0  0  0  0  0  0  0  0  0  0  0
   -0.1350   20.7790  -31.3330 C   0  0  0  0  0  0  0  0  0  0  0  0
   -1.0810   20.9340  -32.3680 C   0  0  0  0  0  0  0  0  0  0  0  0
   -0.6380   20.7540  -33.8090 C   0  0  0  0  0  0  0  0  0  0  0  0
    0.6280   20.2010  -33.8490 F   0  0  0  0  0  0  0  0  0  0  0  0
   -1.5250   19.9240  -34.4710 F   0  0  0  0  0  0  0  0  0  0  0  0
   -0.5910   21.9600  -34.4880 F   0  0  0  0  0  0  0  0  0  0  0  0
   -5.1880   19.5790  -33.0980 N   0  0  0  0  0  0  0  0  0  0  0  0
   -4.5220   18.6380  -33.8180 C   0  0  0  0  0  0  0  0  0  0  0  0
   -4.0273   15.6468  -34.2873 H   0  0  0  0  0  0  0  0  0  0  0  0
   -5.2475   15.8797  -35.5848 H   0  0  0  0  0  0  0  0  0  0  0  0
   -3.7391   16.8551  -35.5848 H   0  0  0  0  0  0  0  0  0  0  0  0
   -7.0541   16.3317  -33.9498 H   0  0  0  0  0  0  0  0  0  0  0  0
   -8.2074   18.1367  -32.6262 H   0  0  0  0  0  0  0  0  0  0  0  0
   -7.9982   22.3954  -30.6701 H   0  0  0  0  0  0  0  0  0  0  0  0
   -8.1407   24.6361  -29.5818 H   0  0  0  0  0  0  0  0  0  0  0  0
   -6.1886   26.1916  -29.6570 H   0  0  0  0  0  0  0  0  0  0  0  0
   -3.9334   23.2571  -31.8976 H   0  0  0  0  0  0  0  0  0  0  0  0
   -3.1621   21.0599  -34.0292 H   0  0  0  0  0  0  0  0  0  0  0  0
   -3.6949   22.5562  -33.1487 H   0  0  0  0  0  0  0  0  0  0  0  0
   -3.8380   21.4985  -30.3872 H   0  0  0  0  0  0  0  0  0  0  0  0
   -2.1363   21.1956  -28.6029 H   0  0  0  0  0  0  0  0  0  0  0  0
    0.2410   20.7647  -29.2009 H   0  0  0  0  0  0  0  0  0  0  0  0
    0.9156   20.5731  -31.5856 H   0  0  0  0  0  0  0  0  0  0  0  0
   -3.4896   18.8138  -34.1546 H   0  0  0  0  0  0  0  0  0  0  0  0
  1  2  1  0
  2  3  1  0
  3  4  2  0
  4  5  1  0
  5  6  2  0
  6  7  1  0
  7  8  1  0
  8  9  2  0
  9 10  1  0
 10 11  2  0
 11 12  1  0
 12 13  1  0
 12 14  2  0
  7 15  2  0
 15 16  1  0
 16 17  1  0
 17 18  2  0
 18 19  1  0
 19 20  2  0
 20 21  1  0
 21 22  2  0
 22 23  1  0
 23 24  1  0
 23 25  1  0
 23 26  1  0
 15 27  1  0
 27 28  1  0
 28  2  2  0
 27  5  1  0
 14  8  1  0
 22 17  1  0
  1 29  1  0
  1 30  1  0
  1 31  1  0
  3 32  1  0
  4 33  1  0
  9 34  1  0
 10 35  1  0
 11 36  1  0
 14 37  1  0
 16 38  1  0
 16 39  1  0
 18 40  1  0
 19 41  1  0
 20 42  1  0
 21 43  1  0
 28 44  1  0
M  CHG  1  13  -1
M  END
>  <UniqueID>  (45) 
42

>  <SMILES>  (45) 
Cc1ccc2nc(-c3cccc([O-])c3)c(Cc3ccccc3C(F)(F)F)n2c1

>  <Energy>  (45) 
91.30076039944404

>  <Genealogy>  (45) 
Cc1ccc2nc(-c3cccc([O-])c3)c(Cc3ccccc3C(F)(F)F)n2c1 (protonated)
Cc1ccc2nc(-c3cccc([O-])c3)c(Cc3ccccc3C(F)(F)F)n2c1 (3D coordinates assigned)
Cc1ccc2nc(-c3cccc([O-])c3)c(Cc3ccccc3C(F)(F)F)n2c1 (optimized conformer: 91.30076039944404 kcal/mol)

>  <smiles>  (45) 
Cc1ccc2nc(-c3cccc(O)c3)c(Cc3ccccc3C(F)(F)F)n2c1

>  <score_type>  (45) 
oracle

>  <origin>  (45) 
adgpu

>  <m_score__min__energy>  (45) 
-11.779999999999999

>  <m_primary>  (45) 
energy

$$$$
45:0
     RDKit          3D

 36 38  0  0  0  0  0  0  0  0999 V2000
   -6.8701   25.9206  -29.6848 H   0  0  0  0  0  0  0  0  0  0  0  0
   -6.3970   25.0280  -30.1200 C   0  0  0  0  0  0  0  0  0  0  0  0
   -4.9260   24.9430  -30.0570 C   0  0  0  0  0  0  0  0  0  0  0  0
   -4.2390   25.6370  -30.8520 O   0  0  0  0  0  0  0  0  0  0  0  0
   -4.2800   24.1540  -29.0540 N   0  0  0  0  0  0  0  0  0  0  0  0
   -2.5580   23.9870  -28.9640 S   0  0  0  0  0  0  0  0  0  0  0  0
   -1.9220   25.2950  -29.3380 O   0  0  0  0  0  0  0  0  0  0  0  0
   -2.1820   23.6410  -27.5500 O   0  0  0  0  0  0  0  0  0  0  0  0
   -2.0020   22.7350  -30.0720 C   0  0  0  0  0  0  0  0  0  0  0  0
   -2.7400   22.4440  -31.2300 C   0  0  0  0  0  0  0  0  0  0  0  0
   -3.6666   22.9976  -31.4421 H   0  0  0  0  0  0  0  0  0  0  0  0
   -2.3030   21.4540  -32.1150 C   0  0  0  0  0  0  0  0  0  0  0  0
   -3.0220   21.1740  -33.2300 F   0  0  0  0  0  0  0  0  0  0  0  0
   -1.1210   20.7550  -31.8540 C   0  0  0  0  0  0  0  0  0  0  0  0
   -0.7785   19.9749  -32.5498 H   0  0  0  0  0  0  0  0  0  0  0  0
   -0.3740   21.0470  -30.7090 C   0  0  0  0  0  0  0  0  0  0  0  0
    0.5576   20.4982  -30.5066 H   0  0  0  0  0  0  0  0  0  0  0  0
   -0.8090   22.0360  -29.8200 C   0  0  0  0  0  0  0  0  0  0  0  0
   -0.0630   22.3130  -28.7200 F   0  0  0  0  0  0  0  0  0  0  0  0
   -7.2050   24.1070  -30.6640 C   0  0  0  0  0  0  0  0  0  0  0  0
   -8.2843   24.2079  -30.4769 H   0  0  0  0  0  0  0  0  0  0  0  0
   -6.7640   22.9680  -31.4940 C   0  0  0  0  0  0  0  0  0  0  0  0
   -5.6620   22.9100  -32.3480 C   0  0  0  0  0  0  0  0  0  0  0  0
   -4.9076   23.7036  -32.4536 H   0  0  0  0  0  0  0  0  0  0  0  0
   -5.6520   21.7400  -33.0280 N   0  0  0  0  0  0  0  0  0  0  0  0
   -4.9480   21.4360  -33.7360 H   0  0  0  0  0  0  0  0  0  0  0  0
   -6.7450   21.0690  -32.6300 C   0  0  0  0  0  0  0  0  0  0  0  0
   -7.1760   19.8190  -33.0710 C   0  0  0  0  0  0  0  0  0  0  0  0
   -6.5999   19.2497  -33.8154 H   0  0  0  0  0  0  0  0  0  0  0  0
   -8.3720   19.3090  -32.5330 C   0  0  0  0  0  0  0  0  0  0  0  0
   -8.7393   18.3237  -32.8560 H   0  0  0  0  0  0  0  0  0  0  0  0
   -9.1040   20.0520  -31.5820 C   0  0  0  0  0  0  0  0  0  0  0  0
  -10.0380   19.6422  -31.1701 H   0  0  0  0  0  0  0  0  0  0  0  0
   -8.6470   21.3140  -31.1570 C   0  0  0  0  0  0  0  0  0  0  0  0
   -9.2097   21.9033  -30.4180 H   0  0  0  0  0  0  0  0  0  0  0  0
   -7.4560   21.7920  -31.7050 C   0  0  0  0  0  0  0  0  0  0  0  0
  1  2  1  0
  2  3  1  0
  3  4  2  0
  3  5  1  0
  5  6  1  0
  6  7  2  0
  6  8  2  0
  6  9  1  0
  9 10  2  0
 10 11  1  0
 10 12  1  0
 12 13  1  0
 12 14  2  0
 14 15  1  0
 14 16  1  0
 16 17  1  0
 16 18  2  0
 18 19  1  0
  2 20  2  0
 20 21  1  0
 20 22  1  0
 22 23  2  0
 23 24  1  0
 23 25  1  0
 25 26  1  0
 25 27  1  0
 27 28  2  0
 28 29  1  0
 28 30  1  0
 30 31  1  0
 30 32  2  0
 32 33  1  0
 32 34  1  0
 34 35  1  0
 34 36  2  0
 18  9  1  0
 36 22  1  0
 36 27  1  0
M  CHG  1   5  -1
M  END
>  <UniqueID>  (46) 
43

>  <SMILES>  (46) 
O=C(/C=C\c1c[nH]c2ccccc12)[N-]S(=O)(=O)c1cc(F)ccc1F

>  <Energy>  (46) 
80.4797814036818

>  <Genealogy>  (46) 
O=C(C=Cc1c[nH]c2ccccc12)[N-]S(=O)(=O)c1cc(F)ccc1F (protonated)
O=C(/C=C\c1c[nH]c2ccccc12)[N-]S(=O)(=O)c1cc(F)ccc1F (cis-trans isomerization)
O=C(/C=C\c1c[nH]c2ccccc12)[N-]S(=O)(=O)c1cc(F)ccc1F (3D coordinates assigned)
O=C(/C=C\c1c[nH]c2ccccc12)[N-]S(=O)(=O)c1cc(F)ccc1F (optimized conformer: 80.4797814036818 kcal/mol)

>  <smiles>  (46) 
O=C(C=Cc1c[nH]c2ccccc12)NS(=O)(=O)c1cc(F)ccc1F

>  <score_type>  (46) 
oracle

>  <origin>  (46) 
adgpu

>  <m_score__min__energy>  (46) 
-10.44

>  <m_primary>  (46) 
energy

$$$$
46:0
     RDKit          3D

 31 33  0  0  0  0  0  0  0  0999 V2000
   -1.1950   26.6550  -29.7090 H   0  0  0  0  0  0  0  0  0  0  0  0
   -1.0850   25.8510  -29.0500 N   0  0  0  0  0  0  0  0  0  0  0  0
   -1.9820   24.9240  -28.9730 C   0  0  0  0  0  0  0  0  0  0  0  0
   -3.1090   24.9180  -29.7160 N   0  0  0  0  0  0  0  0  0  0  0  0
   -3.8820   23.8300  -29.4450 C   0  0  0  0  0  0  0  0  0  0  0  0
   -5.1880   23.6220  -30.1220 C   0  0  0  0  0  0  0  0  0  0  0  0
   -5.4520   22.3860  -30.7270 C   0  0  0  0  0  0  0  0  0  0  0  0
   -4.6923   21.5913  -30.6917 H   0  0  0  0  0  0  0  0  0  0  0  0
   -6.6700   22.1490  -31.3760 C   0  0  0  0  0  0  0  0  0  0  0  0
   -6.9090   20.8210  -31.9860 C   0  0  0  0  0  0  0  0  0  0  0  0
   -7.9800   20.0210  -31.5630 C   0  0  0  0  0  0  0  0  0  0  0  0
   -8.6627   20.3791  -30.7783 H   0  0  0  0  0  0  0  0  0  0  0  0
   -8.1740   18.7660  -32.1450 C   0  0  0  0  0  0  0  0  0  0  0  0
   -9.0160   18.1357  -31.8228 H   0  0  0  0  0  0  0  0  0  0  0  0
   -7.3240   18.3220  -33.1090 N   0  0  0  0  0  0  0  0  0  0  0  0
   -6.2720   19.0720  -33.5310 C   0  0  0  0  0  0  0  0  0  0  0  0
   -5.6008   18.6854  -34.3121 H   0  0  0  0  0  0  0  0  0  0  0  0
   -6.0410   20.3330  -32.9750 C   0  0  0  0  0  0  0  0  0  0  0  0
   -5.1857   20.9383  -33.3098 H   0  0  0  0  0  0  0  0  0  0  0  0
   -7.6240   23.1900  -31.4330 C   0  0  0  0  0  0  0  0  0  0  0  0
   -8.9370   23.0190  -32.1520 C   0  0  0  0  0  0  0  0  0  0  0  0
   -9.7473   22.9135  -31.4156 H   0  0  0  0  0  0  0  0  0  0  0  0
   -9.1271   23.9000  -32.7827 H   0  0  0  0  0  0  0  0  0  0  0  0
   -8.8952   22.1187  -32.7827 H   0  0  0  0  0  0  0  0  0  0  0  0
   -7.3640   24.3750  -30.8070 N   0  0  0  0  0  0  0  0  0  0  0  0
   -8.0850   25.1310  -30.8210 H   0  0  0  0  0  0  0  0  0  0  0  0
   -6.1900   24.6110  -30.1570 C   0  0  0  0  0  0  0  0  0  0  0  0
   -6.0260   25.7150  -29.5710 O   0  0  0  0  0  0  0  0  0  0  0  0
   -3.3600   22.9780  -28.4650 C   0  0  0  0  0  0  0  0  0  0  0  0
   -3.8317   22.0545  -28.0981 H   0  0  0  0  0  0  0  0  0  0  0  0
   -1.8880   23.6060  -27.9430 S   0  0  0  0  0  0  0  0  0  0  0  0
  1  2  1  0
  2  3  2  0
  3  4  1  0
  4  5  1  0
  5  6  1  0
  6  7  2  0
  7  8  1  0
  7  9  1  0
  9 10  1  0
 10 11  2  0
 11 12  1  0
 11 13  1  0
 13 14  1  0
 13 15  2  0
 15 16  1  0
 16 17  1  0
 16 18  2  0
 18 19  1  0
  9 20  2  0
 20 21  1  0
 21 22  1  0
 21 23  1  0
 21 24  1  0
 20 25  1  0
 25 26  1  0
 25 27  1  0
 27 28  2  0
  5 29  2  0
 29 30  1  0
 29 31  1  0
 31  3  1  0
 27  6  1  0
 18 10  1  0
M  CHG  1   4  -1
M  END
>  <UniqueID>  (47) 
44

>  <SMILES>  (47) 
[H]/N=c1\[n-]c(-c2cc(-c3ccncc3)c(C)[nH]c2=O)cs1

>  <Energy>  (47) 
76.9530630658853

>  <Genealogy>  (47) 
Cc1[nH]c(=O)c(-c2csc(=N)[n-]2)cc1-c1ccncc1 (protonated)
[H]/N=c1\[n-]c(-c2cc(-c3ccncc3)c(C)[nH]c2=O)cs1 (cis-trans isomerization)
[H]/N=c1\[n-]c(-c2cc(-c3ccncc3)c(C)[nH]c2=O)cs1 (3D coordinates assigned)
[H]/N=c1\[n-]c(-c2cc(-c3ccncc3)c(C)[nH]c2=O)cs1 (optimized conformer: 76.9530630658853 kcal/mol)

>  <smiles>  (47) 
Cc1[nH]c(=O)c(-c2csc(=N)[nH]2)cc1-c1ccncc1

>  <score_type>  (47) 
oracle

>  <origin>  (47) 
adgpu

>  <m_score__min__energy>  (47) 
-10.1

>  <m_primary>  (47) 
energy

$$$$
47:0
     RDKit          3D

 53 57  0  0  1  0  0  0  0  0999 V2000
   -2.8900   15.4480  -34.4170 C   0  0  0  0  0  0  0  0  0  0  0  0
   -4.2170   16.1060  -34.2860 C   0  0  0  0  0  0  0  0  0  0  0  0
   -5.4030   15.4180  -34.2340 C   0  0  0  0  0  0  0  0  0  0  0  0
   -6.6450   15.9800  -34.1150 C   0  0  0  0  0  0  0  0  0  0  0  0
   -6.7150   17.3490  -34.0410 C   0  0  0  0  0  0  0  0  0  0  0  0
   -5.5260   18.0440  -34.0920 C   0  0  0  0  0  0  0  0  0  0  0  0
   -5.6010   19.5900  -33.9650 C   0  0  0  0  0  0  0  0  0  0  0  0
   -4.2270   19.8790  -33.8840 N   0  0  0  0  0  0  0  0  0  0  0  0
   -3.5910   20.5470  -33.0740 C   0  0  0  0  0  0  0  0  0  0  0  0
   -2.2560   20.6460  -33.2570 N   0  0  0  0  0  0  0  0  0  0  0  0
   -1.4410   21.3370  -32.4560 C   0  0  0  0  0  0  0  0  0  0  0  0
   -2.0130   21.9600  -31.4130 N   0  0  0  0  0  0  0  0  0  0  0  0
   -3.3290   21.8870  -31.1970 C   0  0  0  0  0  0  0  0  0  0  0  0
   -4.0950   22.4250  -30.2320 C   0  0  0  0  0  0  0  0  0  0  0  0
   -3.6040   23.2620  -29.1410 C   0  0  0  0  0  0  0  0  0  0  0  0
   -2.4450   23.9840  -29.3960 C   0  0  0  0  0  0  0  0  0  0  0  0
   -1.8890   24.8120  -28.4330 C   0  0  0  0  0  0  0  0  0  0  0  0
   -2.5340   24.8930  -27.1980 C   0  0  0  0  0  0  0  0  0  0  0  0
   -1.8140   25.9460  -25.9910 Cl  0  0  0  0  0  0  0  0  0  0  0  0
   -3.6800   24.1720  -26.9600 C   0  0  0  0  0  0  0  0  0  0  0  0
   -4.2400   23.3440  -27.9180 C   0  0  0  0  0  0  0  0  0  0  0  0
   -5.3530   22.0410  -30.4790 C   0  0  0  0  0  0  0  0  0  0  0  0
   -6.4470   22.4080  -29.6800 O   0  0  0  0  0  0  0  0  0  0  0  0
   -5.4360   21.2330  -31.6280 N   0  0  0  0  0  0  0  0  0  0  0  0
   -6.7720   20.8580  -31.8470 C   0  0  0  0  0  0  0  0  0  0  0  0
   -7.7510   21.7740  -32.2220 C   0  0  0  0  0  0  0  0  0  0  0  0
   -7.2850   23.4280  -32.5910 Cl  0  0  0  0  0  0  0  0  0  0  0  0
   -9.0810   21.4630  -32.3240 C   0  0  0  0  0  0  0  0  0  0  0  0
   -9.4690   20.1860  -32.0420 C   0  0  0  0  0  0  0  0  0  0  0  0
   -8.5690   19.2220  -31.6650 C   0  0  0  0  0  0  0  0  0  0  0  0
   -7.2450   19.5570  -31.5700 C   0  0  0  0  0  0  0  0  0  0  0  0
   -6.0850   18.3140  -31.0820 Cl  0  0  0  0  0  0  0  0  0  0  0  0
   -4.2140   21.1650  -32.0260 C   0  0  0  0  0  0  0  0  0  0  0  0
   -4.2900   17.4780  -34.2120 C   0  0  0  0  0  0  0  0  0  0  0  0
   -2.4809   15.2452  -33.4162 H   0  0  0  0  0  0  0  0  0  0  0  0
   -3.0027   14.5014  -34.9658 H   0  0  0  0  0  0  0  0  0  0  0  0
   -2.2047   16.1107  -34.9658 H   0  0  0  0  0  0  0  0  0  0  0  0
   -5.3510   14.3208  -34.2930 H   0  0  0  0  0  0  0  0  0  0  0  0
   -7.5522   15.3588  -34.0800 H   0  0  0  0  0  0  0  0  0  0  0  0
   -7.6794   17.8693  -33.9450 H   0  0  0  0  0  0  0  0  0  0  0  0
   -6.0671   20.0528  -34.8474 H   0  0  0  0  0  0  0  0  0  0  0  0
   -6.2099   19.9638  -33.1286 H   0  0  0  0  0  0  0  0  0  0  0  0
   -1.8460   20.1600  -34.0610 H   0  0  0  0  0  0  0  0  0  0  0  0
   -0.3581   21.3929  -32.6409 H   0  0  0  0  0  0  0  0  0  0  0  0
   -1.9598   23.8972  -30.3794 H   0  0  0  0  0  0  0  0  0  0  0  0
   -0.9719   25.3848  -28.6352 H   0  0  0  0  0  0  0  0  0  0  0  0
   -4.1675   24.2555  -25.9775 H   0  0  0  0  0  0  0  0  0  0  0  0
   -5.1573   22.7728  -27.7126 H   0  0  0  0  0  0  0  0  0  0  0  0
   -6.3970   23.1750  -29.0240 H   0  0  0  0  0  0  0  0  0  0  0  0
   -9.8169   22.2230  -32.6254 H   0  0  0  0  0  0  0  0  0  0  0  0
  -10.5340   19.9218  -32.1191 H   0  0  0  0  0  0  0  0  0  0  0  0
   -8.9050   18.1983  -31.4430 H   0  0  0  0  0  0  0  0  0  0  0  0
   -3.3822   18.0981  -34.2484 H   0  0  0  0  0  0  0  0  0  0  0  0
  1  2  1  0
  2  3  2  0
  3  4  1  0
  4  5  2  0
  5  6  1  0
  6  7  1  0
  7  8  1  0
  8  9  2  0
  9 10  1  0
 10 11  1  0
 11 12  2  0
 12 13  1  0
 13 14  1  0
 14 15  1  0
 15 16  2  0
 16 17  1  0
 17 18  2  0
 18 19  1  0
 18 20  1  0
 20 21  2  0
 14 22  2  0
 22 23  1  0
 22 24  1  0
 24 25  1  0
 25 26  2  0
 26 27  1  0
 26 28  1  0
 28 29  2  0
 29 30  1  0
 30 31  2  0
 31 32  1  0
 24 33  1  0
  6 34  2  0
 34  2  1  0
 33  9  1  0
 33 13  2  0
 21 15  1  0
 31 25  1  0
  1 35  1  0
  1 36  1  0
  1 37  1  0
  3 38  1  0
  4 39  1  0
  5 40  1  0
  7 41  1  0
  7 42  1  0
 10 43  1  0
 11 44  1  0
 16 45  1  0
 17 46  1  0
 20 47  1  0
 21 48  1  0
 23 49  1  0
 28 50  1  0
 29 51  1  0
 30 52  1  0
 34 53  1  0
M  END
>  <smiles>  (48) 
Cc1cccc(CN=c2[nH]cnc3c(-c4ccc(Cl)cc4)c(O)n(-c4c(Cl)cccc4Cl)c23)c1

>  <score_type>  (48) 
oracle

>  <origin>  (48) 
adgpu

>  <m_score__min__energy>  (48) 
-9.5500000000000007

>  <m_primary>  (48) 
energy

$$$$
48:0
     RDKit          3D

 30 31  0  0  0  0  0  0  0  0999 V2000
   -0.4350   23.0170  -25.6300 C   0  0  0  0  0  0  0  0  0  0  0  0
   -1.1740   23.5520  -26.8140 C   0  0  0  0  0  0  0  0  0  0  0  0
   -0.8380   24.7970  -27.3550 C   0  0  0  0  0  0  0  0  0  0  0  0
   -1.5330   25.2790  -28.4670 C   0  0  0  0  0  0  0  0  0  0  0  0
   -1.1770   26.4860  -28.9680 F   0  0  0  0  0  0  0  0  0  0  0  0
   -2.5670   24.5060  -29.0350 C   0  0  0  0  0  0  0  0  0  0  0  0
   -3.3420   24.9220  -30.1720 N   0  0  0  0  0  0  0  0  0  0  0  0
   -5.0230   24.6230  -30.4680 S   0  0  0  0  0  0  0  0  0  0  0  0
   -5.5860   25.7810  -31.2410 O   0  0  0  0  0  0  0  0  0  0  0  0
   -5.7480   24.5130  -29.1560 O   0  0  0  0  0  0  0  0  0  0  0  0
   -5.2200   23.1580  -31.4230 C   0  0  0  0  0  0  0  0  0  0  0  0
   -3.9590   22.1470  -31.8870 S   0  0  0  0  0  0  0  0  0  0  0  0
   -4.9800   21.0940  -32.7100 C   0  0  0  0  0  0  0  0  0  0  0  0
   -4.5310   19.8910  -33.4670 C   0  0  0  0  0  0  0  0  0  0  0  0
   -6.2670   21.5020  -32.6600 N   0  0  0  0  0  0  0  0  0  0  0  0
   -6.4090   22.6530  -31.9470 C   0  0  0  0  0  0  0  0  0  0  0  0
   -7.7490   23.2800  -31.7380 C   0  0  0  0  0  0  0  0  0  0  0  0
   -2.8660   23.2650  -28.4580 C   0  0  0  0  0  0  0  0  0  0  0  0
   -2.1720   22.8210  -27.3770 N   0  0  0  0  0  0  0  0  0  0  0  0
   -0.9191   23.3675  -24.7066 H   0  0  0  0  0  0  0  0  0  0  0  0
   -0.4477   21.9174  -25.6561 H   0  0  0  0  0  0  0  0  0  0  0  0
    0.6057   23.3724  -25.6561 H   0  0  0  0  0  0  0  0  0  0  0  0
   -0.0301   25.3942  -26.9070 H   0  0  0  0  0  0  0  0  0  0  0  0
   -4.2364   19.1016  -32.7598 H   0  0  0  0  0  0  0  0  0  0  0  0
   -5.3541   19.5277  -34.0999 H   0  0  0  0  0  0  0  0  0  0  0  0
   -3.6712   20.1559  -34.0999 H   0  0  0  0  0  0  0  0  0  0  0  0
   -7.9464   23.3724  -30.6598 H   0  0  0  0  0  0  0  0  0  0  0  0
   -7.7629   24.2781  -32.2002 H   0  0  0  0  0  0  0  0  0  0  0  0
   -8.5242   22.6511  -32.2002 H   0  0  0  0  0  0  0  0  0  0  0  0
   -3.6689   22.6449  -28.8832 H   0  0  0  0  0  0  0  0  0  0  0  0
  1  2  1  0
  2  3  2  0
  3  4  1  0
  4  5  1  0
  4  6  2  0
  6  7  1  0
  7  8  1  0
  8  9  2  0
  8 10  2  0
  8 11  1  0
 11 12  1  0
 12 13  1  0
 13 14  1  0
 13 15  2  0
 15 16  1  0
 16 17  1  0
  6 18  1  0
 18 19  2  0
 19  2  1  0
 16 11  2  0
  1 20  1  0
  1 21  1  0
  1 22  1  0
  3 23  1  0
 14 24  1  0
 14 25  1  0
 14 26  1  0
 17 27  1  0
 17 28  1  0
 17 29  1  0
 18 30  1  0
M  CHG  1   7  -1
M  END
>  <UniqueID>  (49) 
45

>  <SMILES>  (49) 
Cc1cc(F)c([N-]S(=O)(=O)c2sc(C)nc2C)cn1

>  <Energy>  (49) 
62.401059951425545

>  <Genealogy>  (49) 
Cc1cc(F)c([N-]S(=O)(=O)c2sc(C)nc2C)cn1 (protonated)
Cc1cc(F)c([N-]S(=O)(=O)c2sc(C)nc2C)cn1 (3D coordinates assigned)
Cc1cc(F)c([N-]S(=O)(=O)c2sc(C)nc2C)cn1 (optimized conformer: 62.401059951425545 kcal/mol)

>  <smiles>  (49) 
Cc1cc(F)c(NS(=O)(=O)c2sc(C)nc2C)cn1

>  <score_type>  (49) 
oracle

>  <origin>  (49) 
adgpu

>  <m_score__min__energy>  (49) 
-8.2300000000000004

>  <m_primary>  (49) 
energy

$$$$
