0:0
     RDKit          3D

 39 40  0  0  0  0  0  0  0  0999 V2000
   -1.9960   18.6070  -26.6760 C   0  0  0  0  0  0  0  0  0  0  0  0
   -2.6750   19.9580  -26.9050 C   0  0  0  0  0  0  0  0  0  0  0  0
   -1.7210   21.0140  -27.5140 C   0  0  2  0  0  0  0  0  0  0  0  0
   -0.9610   21.8040  -26.4350 C   0  0  0  0  0  0  0  0  0  0  0  0
   -2.4790   21.9600  -28.4510 C   0  0  0  0  0  0  0  0  0  0  0  0
   -3.5050   21.4150  -29.2270 C   0  0  0  0  0  0  0  0  0  0  0  0
   -4.3390   22.0230  -30.1520 C   0  0  0  0  0  0  0  0  0  0  0  0
   -4.4000   23.3530  -30.5800 C   0  0  0  0  0  0  0  0  0  0  0  0
   -5.4770   23.6600  -31.6120 C   0  0  0  0  0  0  0  0  0  0  0  0
   -6.5040   22.5580  -31.6600 C   0  0  0  0  0  0  0  0  0  0  0  0
   -6.3570   21.4810  -32.5530 C   0  0  0  0  0  0  0  0  0  0  0  0
   -7.3230   20.4730  -32.6070 C   0  0  0  0  0  0  0  0  0  0  0  0
   -8.4440   20.5300  -31.7740 C   0  0  0  0  0  0  0  0  0  0  0  0
   -8.6000   21.5960  -30.8830 C   0  0  0  0  0  0  0  0  0  0  0  0
   -7.6350   22.6060  -30.8250 C   0  0  0  0  0  0  0  0  0  0  0  0
   -3.6020   24.4240  -30.1250 C   0  0  0  0  0  0  0  0  0  0  0  0
   -3.8620   25.6790  -30.6790 O   0  0  0  0  0  0  0  0  0  0  0  0
   -2.5680   24.3940  -29.1790 C   0  0  0  0  0  0  0  0  0  0  0  0
   -1.9950   25.4950  -28.9460 O   0  0  0  0  0  0  0  0  0  0  0  0
   -2.0820   23.3030  -28.4580 C   0  0  0  0  0  0  0  0  0  0  0  0
   -1.9029   18.4218  -25.5957 H   0  0  0  0  0  0  0  0  0  0  0  0
   -2.6008   17.8104  -27.1338 H   0  0  0  0  0  0  0  0  0  0  0  0
   -0.9958   18.6170  -27.1338 H   0  0  0  0  0  0  0  0  0  0  0  0
   -3.5228   19.8134  -27.5908 H   0  0  0  0  0  0  0  0  0  0  0  0
   -3.0024   20.3342  -25.9246 H   0  0  0  0  0  0  0  0  0  0  0  0
   -0.9696   20.4673  -28.1027 H   0  0  0  0  0  0  0  0  0  0  0  0
   -1.2842   21.4680  -25.4387 H   0  0  0  0  0  0  0  0  0  0  0  0
    0.1196   21.6318  -26.5473 H   0  0  0  0  0  0  0  0  0  0  0  0
   -1.1749   22.8771  -26.5473 H   0  0  0  0  0  0  0  0  0  0  0  0
   -3.6773   20.3384  -29.0815 H   0  0  0  0  0  0  0  0  0  0  0  0
   -5.0704   21.3516  -30.6256 H   0  0  0  0  0  0  0  0  0  0  0  0
   -5.9738   24.6042  -31.3444 H   0  0  0  0  0  0  0  0  0  0  0  0
   -5.0031   23.7428  -32.6012 H   0  0  0  0  0  0  0  0  0  0  0  0
   -5.4775   21.4322  -33.2118 H   0  0  0  0  0  0  0  0  0  0  0  0
   -7.2011   19.6328  -33.3065 H   0  0  0  0  0  0  0  0  0  0  0  0
   -9.2037   19.7358  -31.8195 H   0  0  0  0  0  0  0  0  0  0  0  0
   -9.4822   21.6401  -30.2274 H   0  0  0  0  0  0  0  0  0  0  0  0
   -7.7609   23.4430  -30.1224 H   0  0  0  0  0  0  0  0  0  0  0  0
   -1.2468   23.5369  -27.7815 H   0  0  0  0  0  0  0  0  0  0  0  0
  1  2  1  0
  2  3  1  0
  3  4  1  0
  3  5  1  0
  5  6  1  0
  6  7  2  0
  7  8  1  0
  8  9  1  0
  9 10  1  0
 10 11  2  0
 11 12  1  0
 12 13  2  0
 13 14  1  0
 14 15  2  0
  8 16  2  0
 16 17  1  0
 16 18  1  0
 18 19  2  0
 18 20  1  0
 20  5  2  0
 15 10  1  0
  1 21  1  0
  1 22  1  0
  1 23  1  0
  2 24  1  0
  2 25  1  0
  3 26  1  6
  4 27  1  0
  4 28  1  0
  4 29  1  0
  6 30  1  0
  7 31  1  0
  9 32  1  0
  9 33  1  0
 11 34  1  0
 12 35  1  0
 13 36  1  0
 14 37  1  0
 15 38  1  0
 20 39  1  0
M  CHG  1  17  -1
M  END
>  <UniqueID>  (1) 
1

>  <SMILES>  (1) 
CC[C@H](C)c1ccc(Cc2ccccc2)c([O-])c(=O)c1

>  <Energy>  (1) 
59.89293357366709

>  <Genealogy>  (1) 
CCC(C)c1ccc(Cc2ccccc2)c([O-])c(=O)c1 (protonated)
CC[C@H](C)c1ccc(Cc2ccccc2)c([O-])c(=O)c1 (chirality)
CC[C@H](C)c1ccc(Cc2ccccc2)c([O-])c(=O)c1 (3D coordinates assigned)
CC[C@H](C)c1ccc(Cc2ccccc2)c([O-])c(=O)c1 (optimized conformer: 59.89293357366709 kcal/mol)

>  <smiles>  (1) 
CCC(C)c1ccc(Cc2ccccc2)c(O)c(=O)c1

>  <score_type>  (1) 
oracle

>  <origin>  (1) 
adgpu

>  <m_score__min__energy>  (1) 
-11.26

>  <m_primary>  (1) 
energy

$$$$
1:0
     RDKit          3D

 48 50  0  0  0  0  0  0  0  0999 V2000
    1.4990   21.1290  -34.3790 C   0  0  0  0  0  0  0  0  0  0  0  0
    1.0720   20.1030  -33.4880 O   0  0  0  0  0  0  0  0  0  0  0  0
   -0.1860   19.4810  -33.5330 C   0  0  0  0  0  0  0  0  0  0  0  0
   -0.5780   18.6750  -34.6190 C   0  0  0  0  0  0  0  0  0  0  0  0
   -1.8370   18.0690  -34.6370 C   0  0  0  0  0  0  0  0  0  0  0  0
   -2.7280   18.2580  -33.5690 C   0  0  0  0  0  0  0  0  0  0  0  0
   -4.0290   17.6560  -33.5460 N   0  0  0  0  0  0  0  0  0  0  0  0
   -5.5260   18.4970  -33.7890 S   0  0  0  0  0  0  0  0  0  0  0  0
   -5.7540   18.7240  -35.2570 O   0  0  0  0  0  0  0  0  0  0  0  0
   -6.6480   17.6790  -33.2140 O   0  0  0  0  0  0  0  0  0  0  0  0
   -5.4550   20.0560  -32.9740 C   0  0  0  0  0  0  0  0  0  0  0  0
   -4.4700   20.9870  -33.3240 C   0  0  0  0  0  0  0  0  0  0  0  0
   -4.4180   22.2310  -32.6850 C   0  0  0  0  0  0  0  0  0  0  0  0
   -5.3680   22.5620  -31.7030 C   0  0  0  0  0  0  0  0  0  0  0  0
   -5.3410   23.8260  -31.0240 N   0  0  0  0  0  0  0  0  0  0  0  0
   -4.1880   24.4530  -30.4460 C   0  0  0  0  0  0  0  0  0  0  0  0
   -3.9140   25.6350  -30.7830 O   0  0  0  0  0  0  0  0  0  0  0  0
   -3.2800   23.7280  -29.5230 C   0  0  0  0  0  0  0  0  0  0  0  0
   -3.5620   22.3980  -29.1620 C   0  0  0  0  0  0  0  0  0  0  0  0
   -2.7130   21.6960  -28.2930 C   0  0  0  0  0  0  0  0  0  0  0  0
   -3.0530   20.2960  -27.8740 C   0  0  0  0  0  0  0  0  0  0  0  0
   -1.5820   22.3360  -27.7680 C   0  0  0  0  0  0  0  0  0  0  0  0
   -1.2860   23.6510  -28.1310 C   0  0  0  0  0  0  0  0  0  0  0  0
   -2.1250   24.3490  -29.0050 C   0  0  0  0  0  0  0  0  0  0  0  0
   -1.8130   25.6640  -29.3350 O   0  0  0  0  0  0  0  0  0  0  0  0
   -6.3390   21.6200  -31.3430 C   0  0  0  0  0  0  0  0  0  0  0  0
   -6.3900   20.3770  -31.9800 C   0  0  0  0  0  0  0  0  0  0  0  0
   -2.3420   19.0590  -32.4890 C   0  0  0  0  0  0  0  0  0  0  0  0
   -1.0810   19.6710  -32.4620 C   0  0  0  0  0  0  0  0  0  0  0  0
   -0.7150   20.4850  -31.3420 N   0  0  0  0  0  0  0  0  0  0  0  0
    1.8582   21.9920  -33.7992 H   0  0  0  0  0  0  0  0  0  0  0  0
    2.3135   20.7485  -35.0129 H   0  0  0  0  0  0  0  0  0  0  0  0
    0.6551   21.4387  -35.0129 H   0  0  0  0  0  0  0  0  0  0  0  0
    0.1131   18.5210  -35.4608 H   0  0  0  0  0  0  0  0  0  0  0  0
   -2.1309   17.4415  -35.4913 H   0  0  0  0  0  0  0  0  0  0  0  0
   -3.7345   20.7400  -34.1038 H   0  0  0  0  0  0  0  0  0  0  0  0
   -3.6313   22.9521  -32.9519 H   0  0  0  0  0  0  0  0  0  0  0  0
   -4.4577   21.9030  -29.5653 H   0  0  0  0  0  0  0  0  0  0  0  0
   -3.0677   20.2353  -26.7758 H   0  0  0  0  0  0  0  0  0  0  0  0
   -4.0430   20.0251  -28.2695 H   0  0  0  0  0  0  0  0  0  0  0  0
   -2.2975   19.6012  -28.2695 H   0  0  0  0  0  0  0  0  0  0  0  0
   -0.9251   21.8000  -27.0672 H   0  0  0  0  0  0  0  0  0  0  0  0
   -0.3877   24.1408  -27.7272 H   0  0  0  0  0  0  0  0  0  0  0  0
   -7.0666   21.8597  -30.5536 H   0  0  0  0  0  0  0  0  0  0  0  0
   -7.1657   19.6488  -31.7007 H   0  0  0  0  0  0  0  0  0  0  0  0
   -3.0370   19.2106  -31.6500 H   0  0  0  0  0  0  0  0  0  0  0  0
    0.2240   20.9390  -31.2810 H   0  0  0  0  0  0  0  0  0  0  0  0
   -1.3860   20.6440  -30.5570 H   0  0  0  0  0  0  0  0  0  0  0  0
  1  2  1  0
  2  3  1  0
  3  4  2  0
  4  5  1  0
  5  6  2  0
  6  7  1  0
  7  8  1  0
  8  9  2  0
  8 10  2  0
  8 11  1  0
 11 12  2  0
 12 13  1  0
 13 14  2  0
 14 15  1  0
 15 16  1  0
 16 17  2  0
 16 18  1  0
 18 19  2  0
 19 20  1  0
 20 21  1  0
 20 22  2  0
 22 23  1  0
 23 24  2  0
 24 25  1  0
 14 26  1  0
 26 27  2  0
  6 28  1  0
 28 29  2  0
 29 30  1  0
 29  3  1  0
 27 11  1  0
 24 18  1  0
  1 31  1  0
  1 32  1  0
  1 33  1  0
  4 34  1  0
  5 35  1  0
 12 36  1  0
 13 37  1  0
 19 38  1  0
 21 39  1  0
 21 40  1  0
 21 41  1  0
 22 42  1  0
 23 43  1  0
 26 44  1  0
 27 45  1  0
 28 46  1  0
 30 47  1  0
 30 48  1  0
M  CHG  3   7  -1  15  -1  25  -1
M  END
>  <UniqueID>  (2) 
2

>  <SMILES>  (2) 
COc1ccc([N-]S(=O)(=O)c2ccc([N-]C(=O)c3cc(C)ccc3[O-])cc2)cc1N

>  <Energy>  (2) 
60.758785942464414

>  <Genealogy>  (2) 
COc1ccc([N-]S(=O)(=O)c2ccc([N-]C(=O)c3cc(C)ccc3[O-])cc2)cc1N (protonated)
COc1ccc([N-]S(=O)(=O)c2ccc([N-]C(=O)c3cc(C)ccc3[O-])cc2)cc1N (3D coordinates assigned)
COc1ccc([N-]S(=O)(=O)c2ccc([N-]C(=O)c3cc(C)ccc3[O-])cc2)cc1N (optimized conformer: 60.758785942464414 kcal/mol)

>  <smiles>  (2) 
COc1ccc(NS(=O)(=O)c2ccc(NC(=O)c3cc(C)ccc3O)cc2)cc1N

>  <score_type>  (2) 
oracle

>  <origin>  (2) 
adgpu

>  <m_score__min__energy>  (2) 
-12.6

>  <m_primary>  (2) 
energy

$$$$
2:0
     RDKit          3D

 29 30  0  0  0  0  0  0  0  0999 V2000
   -6.8160   25.3110  -29.7560 C   0  0  0  0  0  0  0  0  0  0  0  0
   -5.7300   25.5870  -30.7910 C   0  0  0  0  0  0  0  0  0  0  0  0
   -4.5970   24.6030  -30.6610 C   0  0  0  0  0  0  0  0  0  0  0  0
   -3.5530   24.9170  -29.8500 N   0  0  0  0  0  0  0  0  0  0  0  0
   -2.4760   24.1010  -29.7200 C   0  0  0  0  0  0  0  0  0  0  0  0
   -1.5310   24.4280  -28.9540 O   0  0  0  0  0  0  0  0  0  0  0  0
   -2.4300   22.9060  -30.4430 C   0  0  0  0  0  0  0  0  0  0  0  0
   -1.4430   22.1290  -30.3340 O   0  0  0  0  0  0  0  0  0  0  0  0
   -3.4640   22.5830  -31.2670 N   0  0  0  0  0  0  0  0  0  0  0  0
   -4.5460   23.4050  -31.4070 C   0  0  0  0  0  0  0  0  0  0  0  0
   -5.6230   23.0300  -32.2830 N   0  0  0  0  0  0  0  0  0  0  0  0
   -6.5010   21.9190  -32.0300 C   0  0  0  0  0  0  0  0  0  0  0  0
   -6.1290   20.6010  -32.3550 C   0  0  0  0  0  0  0  0  0  0  0  0
   -7.0090   19.5410  -32.1210 C   0  0  0  0  0  0  0  0  0  0  0  0
   -8.2710   19.7850  -31.5740 C   0  0  0  0  0  0  0  0  0  0  0  0
   -9.1250   18.7550  -31.3490 F   0  0  0  0  0  0  0  0  0  0  0  0
   -8.6560   21.0930  -31.2640 C   0  0  0  0  0  0  0  0  0  0  0  0
   -7.7790   22.1560  -31.4970 C   0  0  0  0  0  0  0  0  0  0  0  0
   -6.3950   25.4180  -28.7454 H   0  0  0  0  0  0  0  0  0  0  0  0
   -7.6393   26.0285  -29.8881 H   0  0  0  0  0  0  0  0  0  0  0  0
   -7.1968   24.2875  -29.8881 H   0  0  0  0  0  0  0  0  0  0  0  0
   -6.1640   25.5046  -31.7984 H   0  0  0  0  0  0  0  0  0  0  0  0
   -5.3352   26.5998  -30.6228 H   0  0  0  0  0  0  0  0  0  0  0  0
   -3.4310   21.6790  -31.7900 H   0  0  0  0  0  0  0  0  0  0  0  0
   -5.8030   23.6160  -33.1280 H   0  0  0  0  0  0  0  0  0  0  0  0
   -5.1404   20.4043  -32.7955 H   0  0  0  0  0  0  0  0  0  0  0  0
   -6.7074   18.5124  -32.3680 H   0  0  0  0  0  0  0  0  0  0  0  0
   -9.6508   21.2857  -30.8360 H   0  0  0  0  0  0  0  0  0  0  0  0
   -8.0913   23.1842  -31.2617 H   0  0  0  0  0  0  0  0  0  0  0  0
  1  2  1  0
  2  3  1  0
  3  4  1  0
  4  5  1  0
  5  6  2  0
  5  7  1  0
  7  8  2  0
  7  9  1  0
  9 10  1  0
 10 11  1  0
 11 12  1  0
 12 13  2  0
 13 14  1  0
 14 15  2  0
 15 16  1  0
 15 17  1  0
 17 18  2  0
 10  3  2  0
 18 12  1  0
  1 19  1  0
  1 20  1  0
  1 21  1  0
  2 22  1  0
  2 23  1  0
  9 24  1  0
 11 25  1  0
 13 26  1  0
 14 27  1  0
 17 28  1  0
 18 29  1  0
M  CHG  1   4  -1
M  END
>  <UniqueID>  (3) 
3

>  <SMILES>  (3) 
CCc1[n-]c(=O)c(=O)[nH]c1Nc1ccc(F)cc1

>  <Energy>  (3) 
34.10746014329227

>  <Genealogy>  (3) 
CCc1[n-]c(=O)c(=O)[nH]c1Nc1ccc(F)cc1 (protonated)
CCc1[n-]c(=O)c(=O)[nH]c1Nc1ccc(F)cc1 (3D coordinates assigned)
CCc1[n-]c(=O)c(=O)[nH]c1Nc1ccc(F)cc1 (optimized conformer: 34.10746014329227 kcal/mol)

>  <smiles>  (3) 
CCc1[nH]c(=O)c(=O)[nH]c1Nc1ccc(F)cc1

>  <score_type>  (3) 
oracle

>  <origin>  (3) 
adgpu

>  <m_score__min__energy>  (3) 
-7.5300000000000002

>  <m_primary>  (3) 
energy

$$$$
3:0
     RDKit          3D

 45 48  0  0  0  0  0  0  0  0999 V2000
   -0.1400   20.5550  -29.2770 O   0  0  0  0  0  0  0  0  0  0  0  0
   -0.8740   21.7350  -29.3560 C   0  0  0  0  0  0  0  0  0  0  0  0
   -1.8490   21.8610  -30.3450 C   0  0  0  0  0  0  0  0  0  0  0  0
   -2.6460   23.0120  -30.4340 C   0  0  0  0  0  0  0  0  0  0  0  0
   -3.7470   23.0740  -31.4760 C   0  0  0  0  0  0  0  0  0  0  0  0
   -5.0100   23.6660  -30.9750 N   0  0  0  0  0  0  0  0  0  0  0  0
   -5.6080   23.0200  -29.7810 C   0  0  0  0  0  0  0  0  0  0  0  0
   -7.0660   22.5990  -29.9920 C   0  0  0  0  0  0  0  0  0  0  0  0
   -7.2380   22.1390  -31.3700 N   0  0  0  0  0  0  0  0  0  0  0  0
   -7.5510   20.7640  -31.6910 C   0  0  0  0  0  0  0  0  0  0  0  0
   -6.6270   19.9550  -32.3820 C   0  0  0  0  0  0  0  0  0  0  0  0
   -6.9540   18.6400  -32.7250 C   0  0  0  0  0  0  0  0  0  0  0  0
   -8.2040   18.1180  -32.3910 C   0  0  0  0  0  0  0  0  0  0  0  0
   -9.1290   18.9070  -31.7050 C   0  0  0  0  0  0  0  0  0  0  0  0
   -8.8050   20.2220  -31.3550 C   0  0  0  0  0  0  0  0  0  0  0  0
   -7.0030   23.1250  -32.4300 C   0  0  0  0  0  0  0  0  0  0  0  0
   -5.9530   24.1720  -31.9990 C   0  0  0  0  0  0  0  0  0  0  0  0
   -2.3740   24.1020  -29.5810 C   0  0  0  0  0  0  0  0  0  0  0  0
   -3.0690   25.2990  -29.7350 O   0  0  0  0  0  0  0  0  0  0  0  0
   -1.3860   23.9910  -28.5810 C   0  0  0  0  0  0  0  0  0  0  0  0
   -1.1340   25.0520  -27.6920 C   0  0  0  0  0  0  0  0  0  0  0  0
   -0.1780   24.9180  -26.6830 C   0  0  0  0  0  0  0  0  0  0  0  0
    0.5420   23.7300  -26.5520 C   0  0  0  0  0  0  0  0  0  0  0  0
    0.3150   22.6700  -27.4330 C   0  0  0  0  0  0  0  0  0  0  0  0
   -0.6440   22.7880  -28.4550 C   0  0  0  0  0  0  0  0  0  0  0  0
   -1.9956   21.0444  -31.0673 H   0  0  0  0  0  0  0  0  0  0  0  0
   -3.3908   23.6806  -32.3217 H   0  0  0  0  0  0  0  0  0  0  0  0
   -3.9718   22.0375  -31.7676 H   0  0  0  0  0  0  0  0  0  0  0  0
   -5.0175   22.1253  -29.5344 H   0  0  0  0  0  0  0  0  0  0  0  0
   -5.5948   23.7596  -28.9669 H   0  0  0  0  0  0  0  0  0  0  0  0
   -7.3180   21.7839  -29.2976 H   0  0  0  0  0  0  0  0  0  0  0  0
   -7.7297   23.4555  -29.8022 H   0  0  0  0  0  0  0  0  0  0  0  0
   -5.6414   20.3612  -32.6534 H   0  0  0  0  0  0  0  0  0  0  0  0
   -6.2237   18.0149  -33.2598 H   0  0  0  0  0  0  0  0  0  0  0  0
   -8.4606   17.0849  -32.6682 H   0  0  0  0  0  0  0  0  0  0  0  0
  -10.1135   18.4943  -31.4395 H   0  0  0  0  0  0  0  0  0  0  0  0
   -9.5372   20.8378  -30.8122 H   0  0  0  0  0  0  0  0  0  0  0  0
   -6.6422   22.6049  -33.3297 H   0  0  0  0  0  0  0  0  0  0  0  0
   -7.9495   23.6465  -32.6354 H   0  0  0  0  0  0  0  0  0  0  0  0
   -5.3767   24.4746  -32.8858 H   0  0  0  0  0  0  0  0  0  0  0  0
   -6.4981   25.0165  -31.5522 H   0  0  0  0  0  0  0  0  0  0  0  0
   -1.6939   25.9935  -27.7925 H   0  0  0  0  0  0  0  0  0  0  0  0
    0.0080   25.7513  -25.9895 H   0  0  0  0  0  0  0  0  0  0  0  0
    1.2906   23.6278  -25.7526 H   0  0  0  0  0  0  0  0  0  0  0  0
    0.8894   21.7379  -27.3269 H   0  0  0  0  0  0  0  0  0  0  0  0
  1  2  1  0
  2  3  2  0
  3  4  1  0
  4  5  1  0
  5  6  1  0
  6  7  1  0
  7  8  1  0
  8  9  1  0
  9 10  1  0
 10 11  2  0
 11 12  1  0
 12 13  2  0
 13 14  1  0
 14 15  2  0
  9 16  1  0
 16 17  1  0
  4 18  2  0
 18 19  1  0
 18 20  1  0
 20 21  2  0
 21 22  1  0
 22 23  2  0
 23 24  1  0
 24 25  2  0
 25  2  1  0
 17  6  1  0
 25 20  1  0
 15 10  1  0
  3 26  1  0
  5 27  1  0
  5 28  1  0
  7 29  1  0
  7 30  1  0
  8 31  1  0
  8 32  1  0
 11 33  1  0
 12 34  1  0
 13 35  1  0
 14 36  1  0
 15 37  1  0
 16 38  1  0
 16 39  1  0
 17 40  1  0
 17 41  1  0
 21 42  1  0
 22 43  1  0
 23 44  1  0
 24 45  1  0
M  CHG  2   1  -1  19  -1
M  END
>  <UniqueID>  (4) 
4

>  <SMILES>  (4) 
[O-]c1cc(CN2CCN(c3ccccc3)CC2)c([O-])c2ccccc12

>  <Energy>  (4) 
67.45187490082866

>  <Genealogy>  (4) 
[O-]c1cc(CN2CCN(c3ccccc3)CC2)c([O-])c2ccccc12 (protonated)
[O-]c1cc(CN2CCN(c3ccccc3)CC2)c([O-])c2ccccc12 (3D coordinates assigned)
[O-]c1cc(CN2CCN(c3ccccc3)CC2)c([O-])c2ccccc12 (nonaromatic ring conformer: 67.45187490082866 kcal/mol)

>  <smiles>  (4) 
Oc1cc(CN2CCN(c3ccccc3)CC2)c(O)c2ccccc12

>  <score_type>  (4) 
oracle

>  <origin>  (4) 
adgpu

>  <m_score__min__energy>  (4) 
-11.51

>  <m_primary>  (4) 
energy

$$$$
4:0
     RDKit          3D

 44 47  0  0  0  0  0  0  0  0999 V2000
   -3.7300   16.4660  -34.7270 C   0  0  0  0  0  0  0  0  0  0  0  0
   -4.7510   17.4190  -34.1930 C   0  0  0  0  0  0  0  0  0  0  0  0
   -5.8960   16.9430  -33.5420 C   0  0  0  0  0  0  0  0  0  0  0  0
   -6.8160   17.8530  -33.0220 C   0  0  0  0  0  0  0  0  0  0  0  0
   -6.5990   19.2340  -33.1480 C   0  0  0  0  0  0  0  0  0  0  0  0
   -7.5800   20.1990  -32.5870 C   0  0  0  0  0  0  0  0  0  0  0  0
   -7.1690   21.3760  -31.9360 C   0  0  0  0  0  0  0  0  0  0  0  0
   -8.1310   22.2560  -31.4120 C   0  0  0  0  0  0  0  0  0  0  0  0
   -7.7730   23.4470  -30.7630 O   0  0  0  0  0  0  0  0  0  0  0  0
   -6.4680   23.8170  -30.4040 C   0  0  0  0  0  0  0  0  0  0  0  0
   -5.8650   24.8880  -31.0730 C   0  0  0  0  0  0  0  0  0  0  0  0
   -4.5690   25.2930  -30.7420 C   0  0  0  0  0  0  0  0  0  0  0  0
   -3.8560   24.6260  -29.7290 C   0  0  0  0  0  0  0  0  0  0  0  0
   -2.5300   25.0180  -29.3450 N   0  0  0  0  0  0  0  0  0  0  0  0
   -1.3710   24.1750  -29.2930 C   0  0  0  0  0  0  0  0  0  0  0  0
   -0.2960   24.5850  -28.7790 O   0  0  0  0  0  0  0  0  0  0  0  0
   -1.4290   22.8380  -29.8960 C   0  0  0  0  0  0  0  0  0  0  0  0
   -0.8990   21.6820  -29.3590 C   0  0  0  0  0  0  0  0  0  0  0  0
   -1.1930   20.6850  -30.2660 C   0  0  0  0  0  0  0  0  0  0  0  0
   -1.8820   21.2940  -31.2950 C   0  0  0  0  0  0  0  0  0  0  0  0
   -2.0060   22.5770  -31.0450 O   0  0  0  0  0  0  0  0  0  0  0  0
   -4.4770   23.5850  -29.0290 C   0  0  0  0  0  0  0  0  0  0  0  0
   -5.7720   23.1790  -29.3630 C   0  0  0  0  0  0  0  0  0  0  0  0
   -9.4860   21.9650  -31.5830 C   0  0  0  0  0  0  0  0  0  0  0  0
   -9.8610   20.7960  -32.2460 C   0  0  0  0  0  0  0  0  0  0  0  0
   -8.9130   19.9500  -32.7260 N   0  0  0  0  0  0  0  0  0  0  0  0
   -5.4210   19.6650  -33.7870 C   0  0  0  0  0  0  0  0  0  0  0  0
   -4.5380   18.7590  -34.2820 N   0  0  0  0  0  0  0  0  0  0  0  0
   -3.2089   15.9796  -33.8892 H   0  0  0  0  0  0  0  0  0  0  0  0
   -4.2279   15.7021  -35.3423 H   0  0  0  0  0  0  0  0  0  0  0  0
   -3.0022   17.0152  -35.3423 H   0  0  0  0  0  0  0  0  0  0  0  0
   -6.0681   15.8612  -33.4417 H   0  0  0  0  0  0  0  0  0  0  0  0
   -7.7176   17.4861  -32.5097 H   0  0  0  0  0  0  0  0  0  0  0  0
   -6.0980   21.6069  -31.8374 H   0  0  0  0  0  0  0  0  0  0  0  0
   -6.4156   25.4154  -31.8659 H   0  0  0  0  0  0  0  0  0  0  0  0
   -4.1050   26.1359  -31.2751 H   0  0  0  0  0  0  0  0  0  0  0  0
   -0.3563   21.5777  -28.4079 H   0  0  0  0  0  0  0  0  0  0  0  0
   -0.9311   19.6197  -30.1853 H   0  0  0  0  0  0  0  0  0  0  0  0
   -2.2685   20.7824  -32.1888 H   0  0  0  0  0  0  0  0  0  0  0  0
   -3.9417   23.0826  -28.2098 H   0  0  0  0  0  0  0  0  0  0  0  0
   -6.2484   22.3568  -28.8089 H   0  0  0  0  0  0  0  0  0  0  0  0
  -10.2528   22.6530  -31.1975 H   0  0  0  0  0  0  0  0  0  0  0  0
  -10.9267   20.5590  -32.3802 H   0  0  0  0  0  0  0  0  0  0  0  0
   -5.2144   20.7409  -33.8860 H   0  0  0  0  0  0  0  0  0  0  0  0
  1  2  1  0
  2  3  2  0
  3  4  1  0
  4  5  2  0
  5  6  1  0
  6  7  2  0
  7  8  1  0
  8  9  1  0
  9 10  1  0
 10 11  2  0
 11 12  1  0
 12 13  2  0
 13 14  1  0
 14 15  1  0
 15 16  2  0
 15 17  1  0
 17 18  2  0
 18 19  1  0
 19 20  2  0
 20 21  1  0
 13 22  1  0
 22 23  2  0
  8 24  2  0
 24 25  1  0
 25 26  2  0
  5 27  1  0
 27 28  2  0
 28  2  1  0
 26  6  1  0
 23 10  1  0
 21 17  1  0
  1 29  1  0
  1 30  1  0
  1 31  1  0
  3 32  1  0
  4 33  1  0
  7 34  1  0
 11 35  1  0
 12 36  1  0
 18 37  1  0
 19 38  1  0
 20 39  1  0
 22 40  1  0
 23 41  1  0
 24 42  1  0
 25 43  1  0
 27 44  1  0
M  CHG  1  14  -1
M  END
>  <UniqueID>  (5) 
5

>  <SMILES>  (5) 
Cc1ccc(-c2cc(Oc3ccc([N-]C(=O)c4ccco4)cc3)ccn2)cn1

>  <Energy>  (5) 
87.33831354338699

>  <Genealogy>  (5) 
Cc1ccc(-c2cc(Oc3ccc([N-]C(=O)c4ccco4)cc3)ccn2)cn1 (protonated)
Cc1ccc(-c2cc(Oc3ccc([N-]C(=O)c4ccco4)cc3)ccn2)cn1 (3D coordinates assigned)
Cc1ccc(-c2cc(Oc3ccc([N-]C(=O)c4ccco4)cc3)ccn2)cn1 (optimized conformer: 87.33831354338699 kcal/mol)

>  <smiles>  (5) 
Cc1ccc(-c2cc(Oc3ccc(NC(=O)c4ccco4)cc3)ccn2)cn1

>  <score_type>  (5) 
oracle

>  <origin>  (5) 
adgpu

>  <m_score__min__energy>  (5) 
-10.779999999999999

>  <m_primary>  (5) 
energy

$$$$
5:0
     RDKit          3D

 58 61  0  0  0  0  0  0  0  0999 V2000
   -5.7520   16.8320  -31.6590 C   0  0  0  0  0  0  0  0  0  0  0  0
   -6.3360   18.0170  -32.2990 N   0  0  0  0  0  0  0  0  0  0  0  0
   -7.7690   17.8060  -32.5360 C   0  0  0  0  0  0  0  0  0  0  0  0
   -5.5350   18.3140  -33.8210 S   0  0  0  0  0  0  0  0  0  0  0  0
   -6.0500   17.3570  -34.8610 O   0  0  0  0  0  0  0  0  0  0  0  0
   -5.8080   19.7210  -34.2750 O   0  0  0  0  0  0  0  0  0  0  0  0
   -3.7950   18.1170  -33.6290 C   0  0  0  0  0  0  0  0  0  0  0  0
   -3.1600   16.9330  -34.0300 C   0  0  0  0  0  0  0  0  0  0  0  0
   -1.7860   16.7730  -33.8320 C   0  0  0  0  0  0  0  0  0  0  0  0
   -1.0390   17.7940  -33.2390 C   0  0  0  0  0  0  0  0  0  0  0  0
   -1.6550   18.9930  -32.8610 C   0  0  0  0  0  0  0  0  0  0  0  0
   -0.8610   20.0050  -32.2280 N   0  0  0  0  0  0  0  0  0  0  0  0
   -0.6870   20.1860  -30.8160 C   0  0  0  0  0  0  0  0  0  0  0  0
   -0.1380   19.2840  -30.1270 O   0  0  0  0  0  0  0  0  0  0  0  0
   -1.2000   21.4100  -30.1600 C   0  0  0  0  0  0  0  0  0  0  0  0
   -0.4720   22.0250  -29.1240 C   0  0  0  0  0  0  0  0  0  0  0  0
   -0.9550   23.1850  -28.5130 C   0  0  0  0  0  0  0  0  0  0  0  0
   -2.1640   23.7480  -28.9300 C   0  0  0  0  0  0  0  0  0  0  0  0
   -2.8990   23.1510  -29.9600 C   0  0  0  0  0  0  0  0  0  0  0  0
   -4.4040   23.8940  -30.5000 S   0  0  0  0  0  0  0  0  0  0  0  0
   -4.2370   25.3870  -30.4490 O   0  0  0  0  0  0  0  0  0  0  0  0
   -5.5270   23.5130  -29.5730 O   0  0  0  0  0  0  0  0  0  0  0  0
   -4.7770   23.4150  -32.1430 N   0  0  0  0  0  0  0  0  0  0  0  0
   -4.4890   21.9950  -32.4150 C   0  0  0  0  0  0  0  0  0  0  0  0
   -5.3950   21.0450  -31.6220 C   0  0  0  0  0  0  0  0  0  0  0  0
   -6.8340   21.4850  -31.6410 C   0  0  0  0  0  0  0  0  0  0  0  0
   -7.8280   20.5930  -31.2100 C   0  0  0  0  0  0  0  0  0  0  0  0
   -9.1660   20.9930  -31.1660 C   0  0  0  0  0  0  0  0  0  0  0  0
   -9.5220   22.2870  -31.5450 C   0  0  0  0  0  0  0  0  0  0  0  0
   -8.5390   23.1880  -31.9650 C   0  0  0  0  0  0  0  0  0  0  0  0
   -7.1900   22.8030  -32.0000 C   0  0  0  0  0  0  0  0  0  0  0  0
   -6.1560   23.7770  -32.5170 C   0  0  0  0  0  0  0  0  0  0  0  0
   -2.4190   21.9840  -30.5710 C   0  0  0  0  0  0  0  0  0  0  0  0
   -3.0410   19.1450  -33.0450 C   0  0  0  0  0  0  0  0  0  0  0  0
   -5.8060   16.9416  -30.5658 H   0  0  0  0  0  0  0  0  0  0  0  0
   -6.3118   15.9362  -31.9658 H   0  0  0  0  0  0  0  0  0  0  0  0
   -4.7006   16.7303  -31.9658 H   0  0  0  0  0  0  0  0  0  0  0  0
   -8.2927   17.7289  -31.5717 H   0  0  0  0  0  0  0  0  0  0  0  0
   -8.1750   18.6540  -33.1069 H   0  0  0  0  0  0  0  0  0  0  0  0
   -7.9133   16.8769  -33.1069 H   0  0  0  0  0  0  0  0  0  0  0  0
   -3.7443   16.1289  -34.5012 H   0  0  0  0  0  0  0  0  0  0  0  0
   -1.2914   15.8412  -34.1437 H   0  0  0  0  0  0  0  0  0  0  0  0
    0.0387   17.6550  -33.0682 H   0  0  0  0  0  0  0  0  0  0  0  0
    0.4827   21.5898  -28.7935 H   0  0  0  0  0  0  0  0  0  0  0  0
   -0.3817   23.6565  -27.7012 H   0  0  0  0  0  0  0  0  0  0  0  0
   -2.5387   24.6627  -28.4474 H   0  0  0  0  0  0  0  0  0  0  0  0
   -4.6347   21.8058  -33.4888 H   0  0  0  0  0  0  0  0  0  0  0  0
   -3.4516   21.8010  -32.1049 H   0  0  0  0  0  0  0  0  0  0  0  0
   -5.3260   20.0394  -32.0625 H   0  0  0  0  0  0  0  0  0  0  0  0
   -5.0545   21.0477  -30.5760 H   0  0  0  0  0  0  0  0  0  0  0  0
   -7.5521   19.5728  -30.9050 H   0  0  0  0  0  0  0  0  0  0  0  0
   -9.9398   20.2861  -30.8319 H   0  0  0  0  0  0  0  0  0  0  0  0
  -10.5764   22.5988  -31.5135 H   0  0  0  0  0  0  0  0  0  0  0  0
   -8.8249   24.2055  -32.2701 H   0  0  0  0  0  0  0  0  0  0  0  0
   -6.2235   23.8083  -33.6145 H   0  0  0  0  0  0  0  0  0  0  0  0
   -6.3718   24.7545  -32.0609 H   0  0  0  0  0  0  0  0  0  0  0  0
   -2.9991   21.5127  -31.3780 H   0  0  0  0  0  0  0  0  0  0  0  0
   -3.5361   20.0751  -32.7292 H   0  0  0  0  0  0  0  0  0  0  0  0
  1  2  1  0
  2  3  1  0
  2  4  1  0
  4  5  2  0
  4  6  2  0
  4  7  1  0
  7  8  2  0
  8  9  1  0
  9 10  2  0
 10 11  1  0
 11 12  1  0
 12 13  1  0
 13 14  2  0
 13 15  1  0
 15 16  2  0
 16 17  1  0
 17 18  2  0
 18 19  1  0
 19 20  1  0
 20 21  2  0
 20 22  2  0
 20 23  1  0
 23 24  1  0
 24 25  1  0
 25 26  1  0
 26 27  2  0
 27 28  1  0
 28 29  2  0
 29 30  1  0
 30 31  2  0
 31 32  1  0
 19 33  2  0
 11 34  2  0
 34  7  1  0
 33 15  1  0
 32 23  1  0
 31 26  1  0
  1 35  1  0
  1 36  1  0
  1 37  1  0
  3 38  1  0
  3 39  1  0
  3 40  1  0
  8 41  1  0
  9 42  1  0
 10 43  1  0
 16 44  1  0
 17 45  1  0
 18 46  1  0
 24 47  1  0
 24 48  1  0
 25 49  1  0
 25 50  1  0
 27 51  1  0
 28 52  1  0
 29 53  1  0
 30 54  1  0
 32 55  1  0
 32 56  1  0
 33 57  1  0
 34 58  1  0
M  CHG  1  12  -1
M  END
>  <UniqueID>  (6) 
6

>  <SMILES>  (6) 
CN(C)S(=O)(=O)c1cccc([N-]C(=O)c2cccc(S(=O)(=O)N3CCc4ccccc4C3)c2)c1

>  <Energy>  (6) 
68.01524612948629

>  <Genealogy>  (6) 
CN(C)S(=O)(=O)c1cccc([N-]C(=O)c2cccc(S(=O)(=O)N3CCc4ccccc4C3)c2)c1 (protonated)
CN(C)S(=O)(=O)c1cccc([N-]C(=O)c2cccc(S(=O)(=O)N3CCc4ccccc4C3)c2)c1 (3D coordinates assigned)
CN(C)S(=O)(=O)c1cccc([N-]C(=O)c2cccc(S(=O)(=O)N3CCc4ccccc4C3)c2)c1 (nonaromatic ring conformer: 68.01524612948629 kcal/mol)

>  <smiles>  (6) 
CN(C)S(=O)(=O)c1cccc(NC(=O)c2cccc(S(=O)(=O)N3CCc4ccccc4C3)c2)c1

>  <score_type>  (6) 
oracle

>  <origin>  (6) 
adgpu

>  <m_score__min__energy>  (6) 
-11.67

>  <m_primary>  (6) 
energy

$$$$
6:0
     RDKit          3D

 10 10  0  0  0  0  0  0  0  0999 V2000
   -4.5270   23.6670  -28.1940 N   0  0  0  0  0  0  0  0  0  0  0  0
   -3.1950   24.1600  -28.3350 C   0  0  0  0  0  0  0  0  0  0  0  0
   -1.9490   23.9050  -27.2330 S   0  0  0  0  0  0  0  0  0  0  0  0
   -0.8590   24.7840  -28.1710 C   0  0  0  0  0  0  0  0  0  0  0  0
    0.3440   24.9750  -27.8600 O   0  0  0  0  0  0  0  0  0  0  0  0
   -1.4100   25.2700  -29.3050 N   0  0  0  0  0  0  0  0  0  0  0  0
   -2.7200   24.9200  -29.3960 C   0  0  0  0  0  0  0  0  0  0  0  0
   -3.5090   25.3010  -30.4740 O   0  0  0  0  0  0  0  0  0  0  0  0
   -5.3390   24.3230  -28.1830 H   0  0  0  0  0  0  0  0  0  0  0  0
   -4.6980   22.6420  -28.1000 H   0  0  0  0  0  0  0  0  0  0  0  0
  1  2  1  0
  2  3  1  0
  3  4  1  0
  4  5  2  0
  4  6  1  0
  6  7  1  0
  7  8  1  0
  7  2  2  0
  1  9  1  0
  1 10  1  0
M  CHG  2   6  -1   8  -1
M  END
>  <UniqueID>  (7) 
7

>  <SMILES>  (7) 
Nc1sc(=O)[n-]c1[O-]

>  <Energy>  (7) 
39.10773636353737

>  <Genealogy>  (7) 
Nc1sc(=O)[n-]c1[O-] (protonated)
Nc1sc(=O)[n-]c1[O-] (3D coordinates assigned)
Nc1sc(=O)[n-]c1[O-] (optimized conformer: 39.10773636353737 kcal/mol)

>  <smiles>  (7) 
Nc1sc(=O)[nH]c1O

>  <score_type>  (7) 
oracle

>  <origin>  (7) 
adgpu

>  <m_score__min__energy>  (7) 
-8.4700000000000006

>  <m_primary>  (7) 
energy

$$$$
7:0
     RDKit          3D

 35 36  0  0  0  0  0  0  0  0999 V2000
   -2.0010   24.9540  -29.3320 N   0  0  0  0  0  0  0  0  0  0  0  0
   -3.5960   24.5520  -29.8620 S   0  0  0  0  0  0  0  0  0  0  0  0
   -4.0920   25.6130  -30.8030 O   0  0  0  0  0  0  0  0  0  0  0  0
   -4.5190   24.4890  -28.6770 O   0  0  0  0  0  0  0  0  0  0  0  0
   -3.5680   22.9930  -30.6800 C   0  0  0  0  0  0  0  0  0  0  0  0
   -2.7890   21.9450  -30.1750 C   0  0  0  0  0  0  0  0  0  0  0  0
   -2.7780   20.7030  -30.8180 C   0  0  0  0  0  0  0  0  0  0  0  0
   -3.5370   20.4950  -31.9800 C   0  0  0  0  0  0  0  0  0  0  0  0
   -3.5270   19.2020  -32.6080 N   0  0  0  0  0  0  0  0  0  0  0  0
   -2.7720   18.8900  -33.7900 C   0  0  0  0  0  0  0  0  0  0  0  0
   -1.8680   19.6710  -34.1920 O   0  0  0  0  0  0  0  0  0  0  0  0
   -3.0160   17.6390  -34.5230 C   0  0  0  0  0  0  0  0  0  0  0  0
   -2.1500   17.1960  -35.3250 O   0  0  0  0  0  0  0  0  0  0  0  0
   -4.2410   16.9250  -34.3190 N   0  0  0  0  0  0  0  0  0  0  0  0
   -5.5230   17.3480  -34.8720 C   0  0  0  0  0  0  0  0  0  0  0  0
   -6.3430   18.0440  -33.8210 C   0  0  0  0  0  0  0  0  0  0  0  0
   -6.5120   19.4350  -33.8610 C   0  0  0  0  0  0  0  0  0  0  0  0
   -7.2570   20.0770  -32.8700 C   0  0  0  0  0  0  0  0  0  0  0  0
   -7.8260   19.3200  -31.8450 C   0  0  0  0  0  0  0  0  0  0  0  0
   -7.6500   17.9720  -31.8140 N   0  0  0  0  0  0  0  0  0  0  0  0
   -6.9280   17.3250  -32.7680 C   0  0  0  0  0  0  0  0  0  0  0  0
   -4.3410   21.5420  -32.4660 C   0  0  0  0  0  0  0  0  0  0  0  0
   -4.3520   22.7830  -31.8220 C   0  0  0  0  0  0  0  0  0  0  0  0
   -1.6110   25.6320  -30.0260 H   0  0  0  0  0  0  0  0  0  0  0  0
   -2.1836   22.0989  -29.2696 H   0  0  0  0  0  0  0  0  0  0  0  0
   -2.1695   19.8826  -30.4097 H   0  0  0  0  0  0  0  0  0  0  0  0
   -4.0300   18.4230  -32.1250 H   0  0  0  0  0  0  0  0  0  0  0  0
   -5.3462   18.0384  -35.7099 H   0  0  0  0  0  0  0  0  0  0  0  0
   -6.0707   16.4608  -35.2225 H   0  0  0  0  0  0  0  0  0  0  0  0
   -6.0575   20.0209  -34.6735 H   0  0  0  0  0  0  0  0  0  0  0  0
   -7.3940   21.1681  -32.8969 H   0  0  0  0  0  0  0  0  0  0  0  0
   -8.4179   19.8146  -31.0608 H   0  0  0  0  0  0  0  0  0  0  0  0
   -6.8023   16.2336  -32.7136 H   0  0  0  0  0  0  0  0  0  0  0  0
   -4.9648   21.3834  -33.3580 H   0  0  0  0  0  0  0  0  0  0  0  0
   -4.9788   23.5978  -32.2136 H   0  0  0  0  0  0  0  0  0  0  0  0
  1  2  1  0
  2  3  2  0
  2  4  2  0
  2  5  1  0
  5  6  2  0
  6  7  1  0
  7  8  2  0
  8  9  1  0
  9 10  1  0
 10 11  2  0
 10 12  1  0
 12 13  2  0
 12 14  1  0
 14 15  1  0
 15 16  1  0
 16 17  2  0
 17 18  1  0
 18 19  2  0
 19 20  1  0
 20 21  2  0
  8 22  1  0
 22 23  2  0
 23  5  1  0
 21 16  1  0
  1 24  1  0
  6 25  1  0
  7 26  1  0
  9 27  1  0
 15 28  1  0
 15 29  1  0
 17 30  1  0
 18 31  1  0
 19 32  1  0
 21 33  1  0
 22 34  1  0
 23 35  1  0
M  CHG  2   1  -1  14  -1
M  END
>  <UniqueID>  (8) 
8

>  <SMILES>  (8) 
[NH-]S(=O)(=O)c1ccc(NC(=O)C(=O)[N-]Cc2cccnc2)cc1

>  <Energy>  (8) 
36.22353144627659

>  <Genealogy>  (8) 
[NH-]S(=O)(=O)c1ccc(NC(=O)C(=O)[N-]Cc2cccnc2)cc1 (protonated)
[NH-]S(=O)(=O)c1ccc(NC(=O)C(=O)[N-]Cc2cccnc2)cc1 (3D coordinates assigned)
[NH-]S(=O)(=O)c1ccc(NC(=O)C(=O)[N-]Cc2cccnc2)cc1 (optimized conformer: 36.22353144627659 kcal/mol)

>  <smiles>  (8) 
NS(=O)(=O)c1ccc(NC(=O)C(=O)NCc2cccnc2)cc1

>  <score_type>  (8) 
oracle

>  <origin>  (8) 
adgpu

>  <m_score__min__energy>  (8) 
-9.4299999999999997

>  <m_primary>  (8) 
energy

$$$$
8:0
     RDKit          3D

 30 32  0  0  0  0  0  0  0  0999 V2000
   -5.7390   17.4510  -34.5500 C   0  0  0  0  0  0  0  0  0  0  0  0
   -6.6700   16.9470  -33.0710 S   0  0  0  0  0  0  0  0  0  0  0  0
   -7.2300   18.6120  -32.7100 C   0  0  0  0  0  0  0  0  0  0  0  0
   -6.3400   19.6880  -32.8150 C   0  0  0  0  0  0  0  0  0  0  0  0
   -6.7760   20.9880  -32.5320 C   0  0  0  0  0  0  0  0  0  0  0  0
   -8.1030   21.2130  -32.1440 C   0  0  0  0  0  0  0  0  0  0  0  0
   -8.6580   22.8750  -31.7690 S   0  0  0  0  0  0  0  0  0  0  0  0
   -7.0060   23.4170  -31.3440 C   0  0  0  0  0  0  0  0  0  0  0  0
   -6.5410   23.4820  -30.0830 N   0  0  0  0  0  0  0  0  0  0  0  0
   -5.2760   23.9170  -30.2820 C   0  0  0  0  0  0  0  0  0  0  0  0
   -4.3190   24.1530  -29.1960 C   0  0  0  0  0  0  0  0  0  0  0  0
   -4.6140   24.1740  -27.8370 C   0  0  0  0  0  0  0  0  0  0  0  0
   -3.4930   24.4220  -27.0350 C   0  0  0  0  0  0  0  0  0  0  0  0
   -2.3190   24.5960  -27.7550 C   0  0  0  0  0  0  0  0  0  0  0  0
   -2.6730   24.4410  -29.3920 S   0  0  0  0  0  0  0  0  0  0  0  0
   -4.9850   24.1040  -31.5850 N   0  0  0  0  0  0  0  0  0  0  0  0
   -6.0830   23.7860  -32.2440 N   0  0  0  0  0  0  0  0  0  0  0  0
   -8.9940   20.1380  -32.0480 C   0  0  0  0  0  0  0  0  0  0  0  0
   -8.5590   18.8400  -32.3310 C   0  0  0  0  0  0  0  0  0  0  0  0
   -4.8097   17.9541  -34.2445 H   0  0  0  0  0  0  0  0  0  0  0  0
   -5.4945   16.5620  -35.1500 H   0  0  0  0  0  0  0  0  0  0  0  0
   -6.3497   18.1417  -35.1500 H   0  0  0  0  0  0  0  0  0  0  0  0
   -5.2979   19.5118  -33.1199 H   0  0  0  0  0  0  0  0  0  0  0  0
   -6.0764   21.8328  -32.6144 H   0  0  0  0  0  0  0  0  0  0  0  0
   -5.6244   24.0124  -27.4334 H   0  0  0  0  0  0  0  0  0  0  0  0
   -3.5386   24.4740  -25.9372 H   0  0  0  0  0  0  0  0  0  0  0  0
   -1.3262   24.8004  -27.3277 H   0  0  0  0  0  0  0  0  0  0  0  0
   -6.1880   23.8170  -33.2830 H   0  0  0  0  0  0  0  0  0  0  0  0
  -10.0379   20.3147  -31.7495 H   0  0  0  0  0  0  0  0  0  0  0  0
   -9.2613   17.9967  -32.2560 H   0  0  0  0  0  0  0  0  0  0  0  0
  1  2  1  0
  2  3  1  0
  3  4  2  0
  4  5  1  0
  5  6  2  0
  6  7  1  0
  7  8  1  0
  8  9  2  0
  9 10  1  0
 10 11  1  0
 11 12  2  0
 12 13  1  0
 13 14  2  0
 14 15  1  0
 10 16  2  0
 16 17  1  0
  6 18  1  0
 18 19  2  0
 19  3  1  0
 17  8  1  0
 15 11  1  0
  1 20  1  0
  1 21  1  0
  1 22  1  0
  4 23  1  0
  5 24  1  0
 12 25  1  0
 13 26  1  0
 14 27  1  0
 17 28  1  0
 18 29  1  0
 19 30  1  0
M  END
>  <UniqueID>  (9) 
9

>  <SMILES>  (9) 
CSc1ccc(Sc2nc(-c3cccs3)n[nH]2)cc1

>  <Energy>  (9) 
81.40640145439374

>  <Genealogy>  (9) 
CSc1ccc(Sc2nc(-c3cccs3)n[nH]2)cc1 (3D coordinates assigned)
CSc1ccc(Sc2nc(-c3cccs3)n[nH]2)cc1 (optimized conformer: 81.40640145439374 kcal/mol)

>  <smiles>  (9) 
CSc1ccc(Sc2nc(-c3cccs3)n[nH]2)cc1

>  <score_type>  (9) 
oracle

>  <origin>  (9) 
adgpu

>  <m_score__min__energy>  (9) 
-8.4000000000000004

>  <m_primary>  (9) 
energy

$$$$
9:0
     RDKit          3D

 51 54  0  0  0  0  0  0  0  0999 V2000
   -2.8380   25.2950  -26.2250 C   0  0  0  0  0  0  0  0  0  0  0  0
   -2.1230   24.9800  -27.4960 C   0  0  0  0  0  0  0  0  0  0  0  0
   -1.9230   23.7180  -28.0260 C   0  0  0  0  0  0  0  0  0  0  0  0
   -1.2410   23.9790  -29.2010 C   0  0  0  0  0  0  0  0  0  0  0  0
   -0.8150   23.1120  -30.0690 N   0  0  0  0  0  0  0  0  0  0  0  0
   -1.0240   21.3950  -29.9180 S   0  0  0  0  0  0  0  0  0  0  0  0
   -1.6520   21.0900  -28.5880 O   0  0  0  0  0  0  0  0  0  0  0  0
    0.3230   20.7310  -29.9900 O   0  0  0  0  0  0  0  0  0  0  0  0
   -2.0750   20.7900  -31.1960 C   0  0  0  0  0  0  0  0  0  0  0  0
   -3.0590   21.6180  -31.7510 C   0  0  0  0  0  0  0  0  0  0  0  0
   -3.8930   21.1380  -32.7660 C   0  0  0  0  0  0  0  0  0  0  0  0
   -3.7600   19.8160  -33.2280 C   0  0  0  0  0  0  0  0  0  0  0  0
   -4.5780   19.2870  -34.2810 N   0  0  0  0  0  0  0  0  0  0  0  0
   -5.8580   18.6510  -34.1460 C   0  0  0  0  0  0  0  0  0  0  0  0
   -6.1440   17.6500  -34.8570 O   0  0  0  0  0  0  0  0  0  0  0  0
   -6.8640   19.2040  -33.2100 C   0  0  0  0  0  0  0  0  0  0  0  0
   -7.8260   18.3660  -32.6190 C   0  0  0  0  0  0  0  0  0  0  0  0
   -8.7790   18.8920  -31.7430 C   0  0  0  0  0  0  0  0  0  0  0  0
   -8.7830   20.2550  -31.4440 C   0  0  0  0  0  0  0  0  0  0  0  0
   -7.8210   21.1070  -32.0100 C   0  0  0  0  0  0  0  0  0  0  0  0
   -7.8270   22.5210  -31.7440 N   0  0  0  0  0  0  0  0  0  0  0  0
   -6.7790   23.2210  -31.0520 C   0  0  0  0  0  0  0  0  0  0  0  0
   -6.0660   22.6170  -29.9990 C   0  0  0  0  0  0  0  0  0  0  0  0
   -5.0310   23.3070  -29.3610 C   0  0  0  0  0  0  0  0  0  0  0  0
   -4.6900   24.5980  -29.7750 C   0  0  0  0  0  0  0  0  0  0  0  0
   -5.3770   25.1960  -30.8330 C   0  0  0  0  0  0  0  0  0  0  0  0
   -6.4120   24.5090  -31.4760 C   0  0  0  0  0  0  0  0  0  0  0  0
   -6.8770   20.5780  -32.9030 C   0  0  0  0  0  0  0  0  0  0  0  0
   -2.7540   19.0030  -32.6900 C   0  0  0  0  0  0  0  0  0  0  0  0
   -1.9180   19.4840  -31.6780 C   0  0  0  0  0  0  0  0  0  0  0  0
   -1.0670   25.3050  -29.3380 N   0  0  0  0  0  0  0  0  0  0  0  0
   -1.6080   25.8810  -28.3050 O   0  0  0  0  0  0  0  0  0  0  0  0
   -2.2052   25.0162  -25.3695 H   0  0  0  0  0  0  0  0  0  0  0  0
   -3.0559   26.3724  -26.1842 H   0  0  0  0  0  0  0  0  0  0  0  0
   -3.7801   24.7286  -26.1842 H   0  0  0  0  0  0  0  0  0  0  0  0
   -2.2307   22.7455  -27.6142 H   0  0  0  0  0  0  0  0  0  0  0  0
   -3.1763   22.6495  -31.3873 H   0  0  0  0  0  0  0  0  0  0  0  0
   -4.6564   21.7972  -33.2050 H   0  0  0  0  0  0  0  0  0  0  0  0
   -7.8284   17.2900  -32.8476 H   0  0  0  0  0  0  0  0  0  0  0  0
   -9.5291   18.2290  -31.2872 H   0  0  0  0  0  0  0  0  0  0  0  0
   -9.5431   20.6638  -30.7619 H   0  0  0  0  0  0  0  0  0  0  0  0
   -8.6470   23.0760  -32.0750 H   0  0  0  0  0  0  0  0  0  0  0  0
   -6.3245   21.5975  -29.6768 H   0  0  0  0  0  0  0  0  0  0  0  0
   -4.4843   22.8335  -28.5322 H   0  0  0  0  0  0  0  0  0  0  0  0
   -3.8804   25.1426  -29.2671 H   0  0  0  0  0  0  0  0  0  0  0  0
   -5.1038   26.2096  -31.1617 H   0  0  0  0  0  0  0  0  0  0  0  0
   -6.9411   24.9796  -32.3178 H   0  0  0  0  0  0  0  0  0  0  0  0
   -6.1374   21.2454  -33.3694 H   0  0  0  0  0  0  0  0  0  0  0  0
   -2.6208   17.9782  -33.0668 H   0  0  0  0  0  0  0  0  0  0  0  0
   -1.1347   18.8352  -31.2590 H   0  0  0  0  0  0  0  0  0  0  0  0
   -0.5910   25.8030  -30.1220 H   0  0  0  0  0  0  0  0  0  0  0  0
  1  2  1  0
  2  3  2  0
  3  4  1  0
  4  5  2  3
  5  6  1  0
  6  7  2  0
  6  8  2  0
  6  9  1  0
  9 10  2  0
 10 11  1  0
 11 12  2  0
 12 13  1  0
 13 14  1  0
 14 15  2  0
 14 16  1  0
 16 17  2  0
 17 18  1  0
 18 19  2  0
 19 20  1  0
 20 21  1  0
 21 22  1  0
 22 23  2  0
 23 24  1  0
 24 25  2  0
 25 26  1  0
 26 27  2  0
 20 28  2  0
 12 29  1  0
 29 30  2  0
  4 31  1  0
 31 32  1  0
 32  2  1  0
 30  9  1  0
 28 16  1  0
 27 22  1  0
  1 33  1  0
  1 34  1  0
  1 35  1  0
  3 36  1  0
 10 37  1  0
 11 38  1  0
 17 39  1  0
 18 40  1  0
 19 41  1  0
 21 42  1  0
 23 43  1  0
 24 44  1  0
 25 45  1  0
 26 46  1  0
 27 47  1  0
 28 48  1  0
 29 49  1  0
 30 50  1  0
 31 51  1  0
M  CHG  1  13  -1
M  END
>  <UniqueID>  (10) 
10

>  <SMILES>  (10) 
Cc1cc(=NS(=O)(=O)c2ccc([N-]C(=O)c3cccc(Nc4ccccc4)c3)cc2)[nH]o1

>  <Energy>  (10) 
99.17047382211301

>  <Genealogy>  (10) 
Cc1cc(=NS(=O)(=O)c2ccc([N-]C(=O)c3cccc(Nc4ccccc4)c3)cc2)[nH]o1 (protonated)
Cc1cc(=NS(=O)(=O)c2ccc([N-]C(=O)c3cccc(Nc4ccccc4)c3)cc2)[nH]o1 (3D coordinates assigned)
Cc1cc(=NS(=O)(=O)c2ccc([N-]C(=O)c3cccc(Nc4ccccc4)c3)cc2)[nH]o1 (optimized conformer: 99.17047382211301 kcal/mol)

>  <smiles>  (10) 
Cc1cc(=NS(=O)(=O)c2ccc(NC(=O)c3cccc(Nc4ccccc4)c3)cc2)[nH]o1

>  <score_type>  (10) 
oracle

>  <origin>  (10) 
adgpu

>  <m_score__min__energy>  (10) 
-12.130000000000001

>  <m_primary>  (10) 
energy

$$$$
10:0
     RDKit          3D

 35 36  0  0  1  0  0  0  0  0999 V2000
   -2.3870   25.0530  -26.2830 C   0  0  0  0  0  0  0  0  0  0  0  0
   -1.2660   25.3090  -27.3010 C   0  0  0  0  0  0  0  0  0  0  0  0
   -1.2610   24.2400  -28.1960 N   0  0  0  0  0  0  0  0  0  0  0  0
   -2.1390   23.9970  -29.0980 C   0  0  0  0  0  0  0  0  0  0  0  0
   -1.9670   22.9120  -29.8750 N   0  0  0  0  0  0  0  0  0  0  0  0
   -2.9050   22.6840  -30.8120 C   0  0  0  0  0  0  0  0  0  0  0  0
   -3.9990   23.5150  -30.9840 C   0  0  0  0  0  0  0  0  0  0  0  0
   -4.8930   23.1820  -31.9760 O   0  0  0  0  0  0  0  0  0  0  0  0
   -5.7580   22.1330  -31.9950 C   0  0  0  0  0  0  0  0  0  0  0  0
   -5.4580   20.8370  -32.3440 C   0  0  0  0  0  0  0  0  0  0  0  0
   -6.4160   19.8280  -32.3330 C   0  0  0  0  0  0  0  0  0  0  0  0
   -7.7150   20.0970  -31.9660 C   0  0  0  0  0  0  0  0  0  0  0  0
   -8.6860   19.0340  -31.9650 C   0  0  0  0  0  0  0  0  0  0  0  0
   -9.4680   18.1800  -31.9500 N   0  0  0  0  0  0  0  0  0  0  0  0
   -8.0360   21.3850  -31.6150 C   0  0  0  0  0  0  0  0  0  0  0  0
   -7.0800   22.3770  -31.6290 C   0  0  0  0  0  0  0  0  0  0  0  0
   -7.4970   23.7530  -31.2350 C   0  0  0  0  0  0  0  0  0  0  0  0
   -4.1200   24.6110  -30.1590 C   0  0  0  0  0  0  0  0  0  0  0  0
   -5.1130   25.3940  -30.2780 N   0  0  0  0  0  0  0  0  0  0  0  0
   -3.1790   24.8390  -29.2190 N   0  0  0  0  0  0  0  0  0  0  0  0
   -1.9844   25.1449  -25.2634 H   0  0  0  0  0  0  0  0  0  0  0  0
   -3.1897   25.7910  -26.4282 H   0  0  0  0  0  0  0  0  0  0  0  0
   -2.7898   24.0397  -26.4282 H   0  0  0  0  0  0  0  0  0  0  0  0
   -1.4554   26.2491  -27.8398 H   0  0  0  0  0  0  0  0  0  0  0  0
   -0.2937   25.3943  -26.7936 H   0  0  0  0  0  0  0  0  0  0  0  0
   -1.1400   22.2850  -29.7430 H   0  0  0  0  0  0  0  0  0  0  0  0
   -2.7990   21.8054  -31.4653 H   0  0  0  0  0  0  0  0  0  0  0  0
   -4.4281   20.5903  -32.6413 H   0  0  0  0  0  0  0  0  0  0  0  0
   -6.1323   18.8048  -32.6206 H   0  0  0  0  0  0  0  0  0  0  0  0
   -9.0674   21.6275  -31.3195 H   0  0  0  0  0  0  0  0  0  0  0  0
   -7.5201   23.8291  -30.1379 H   0  0  0  0  0  0  0  0  0  0  0  0
   -6.7798   24.4831  -31.6382 H   0  0  0  0  0  0  0  0  0  0  0  0
   -8.4989   23.9621  -31.6382 H   0  0  0  0  0  0  0  0  0  0  0  0
   -5.2370   26.2290  -29.6730 H   0  0  0  0  0  0  0  0  0  0  0  0
   -3.2510   25.6470  -28.5960 H   0  0  0  0  0  0  0  0  0  0  0  0
  1  2  1  0
  2  3  1  0
  3  4  2  0
  4  5  1  0
  5  6  1  0
  6  7  2  0
  7  8  1  0
  8  9  1  0
  9 10  2  0
 10 11  1  0
 11 12  2  0
 12 13  1  0
 13 14  3  0
 12 15  1  0
 15 16  2  0
 16 17  1  0
  7 18  1  0
 18 19  2  3
 18 20  1  0
 20  4  1  0
 16  9  1  0
  1 21  1  0
  1 22  1  0
  1 23  1  0
  2 24  1  0
  2 25  1  0
  5 26  1  0
  6 27  1  0
 10 28  1  0
 11 29  1  0
 15 30  1  0
 17 31  1  0
 17 32  1  0
 17 33  1  0
 19 34  1  0
 20 35  1  0
M  END
>  <smiles>  (11) 
CCN=c1[nH]cc(Oc2ccc(C#N)cc2C)c(=N)[nH]1

>  <score_type>  (11) 
oracle

>  <origin>  (11) 
adgpu

>  <m_score__min__energy>  (11) 
-7.3499999999999996

>  <m_primary>  (11) 
energy

$$$$
11:0
     RDKit          3D

 48 50  0  0  0  0  0  0  0  0999 V2000
   -6.8400   24.5800  -30.2570 C   0  0  0  0  0  0  0  0  0  0  0  0
   -5.0840   24.6890  -29.9810 S   0  0  0  0  0  0  0  0  0  0  0  0
   -4.5920   25.9960  -30.5410 O   0  0  0  0  0  0  0  0  0  0  0  0
   -4.7910   24.6830  -28.5070 O   0  0  0  0  0  0  0  0  0  0  0  0
   -4.2710   23.3500  -30.8140 C   0  0  0  0  0  0  0  0  0  0  0  0
   -4.9870   22.7080  -31.8380 C   0  0  0  0  0  0  0  0  0  0  0  0
   -4.4310   21.6440  -32.5460 C   0  0  0  0  0  0  0  0  0  0  0  0
   -3.1380   21.2010  -32.2520 C   0  0  0  0  0  0  0  0  0  0  0  0
   -2.5500   20.0620  -32.9910 C   0  0  0  0  0  0  0  0  0  0  0  0
   -3.0690   18.7750  -32.7690 C   0  0  0  0  0  0  0  0  0  0  0  0
   -2.5620   17.6650  -33.4530 C   0  0  0  0  0  0  0  0  0  0  0  0
   -3.1210   16.3750  -33.1750 N   0  0  0  0  0  0  0  0  0  0  0  0
   -4.8090   16.0460  -32.9560 S   0  0  0  0  0  0  0  0  0  0  0  0
   -5.0090   15.3370  -31.6460 O   0  0  0  0  0  0  0  0  0  0  0  0
   -5.2880   15.1590  -34.0700 O   0  0  0  0  0  0  0  0  0  0  0  0
   -5.7160   17.5540  -32.9980 C   0  0  0  0  0  0  0  0  0  0  0  0
   -6.4200   17.9740  -31.8600 C   0  0  0  0  0  0  0  0  0  0  0  0
   -7.1570   19.1630  -31.8880 C   0  0  0  0  0  0  0  0  0  0  0  0
   -7.1930   19.9380  -33.0510 C   0  0  0  0  0  0  0  0  0  0  0  0
   -6.4880   19.5260  -34.1860 C   0  0  0  0  0  0  0  0  0  0  0  0
   -5.7480   18.3390  -34.1610 C   0  0  0  0  0  0  0  0  0  0  0  0
   -1.5270   17.8460  -34.3830 C   0  0  0  0  0  0  0  0  0  0  0  0
   -0.9980   19.1180  -34.6080 C   0  0  0  0  0  0  0  0  0  0  0  0
   -1.4890   20.2320  -33.9110 C   0  0  0  0  0  0  0  0  0  0  0  0
   -0.8720   21.5090  -34.1230 N   0  0  0  0  0  0  0  0  0  0  0  0
   -2.4200   21.8150  -31.2170 C   0  0  0  0  0  0  0  0  0  0  0  0
   -2.9690   22.8790  -30.4810 C   0  0  0  0  0  0  0  0  0  0  0  0
   -1.9730   23.5790  -29.1900 S   0  0  0  0  0  0  0  0  0  0  0  0
   -1.9910   25.3030  -29.3130 N   0  0  0  0  0  0  0  0  0  0  0  0
   -2.4810   23.1580  -27.8420 O   0  0  0  0  0  0  0  0  0  0  0  0
   -0.5510   23.1020  -29.3200 O   0  0  0  0  0  0  0  0  0  0  0  0
   -7.3620   24.5476  -29.2893 H   0  0  0  0  0  0  0  0  0  0  0  0
   -7.1770   25.4590  -30.8261 H   0  0  0  0  0  0  0  0  0  0  0  0
   -7.0657   23.6661  -30.8261 H   0  0  0  0  0  0  0  0  0  0  0  0
   -6.0027   23.0505  -32.0850 H   0  0  0  0  0  0  0  0  0  0  0  0
   -5.0119   21.1508  -33.3393 H   0  0  0  0  0  0  0  0  0  0  0  0
   -3.8867   18.6383  -32.0461 H   0  0  0  0  0  0  0  0  0  0  0  0
   -6.3927   17.3670  -30.9430 H   0  0  0  0  0  0  0  0  0  0  0  0
   -7.7088   19.4884  -30.9938 H   0  0  0  0  0  0  0  0  0  0  0  0
   -7.7754   20.8709  -33.0731 H   0  0  0  0  0  0  0  0  0  0  0  0
   -6.5153   20.1365  -35.1006 H   0  0  0  0  0  0  0  0  0  0  0  0
   -5.1904   18.0205  -35.0541 H   0  0  0  0  0  0  0  0  0  0  0  0
   -1.1309   16.9821  -34.9369 H   0  0  0  0  0  0  0  0  0  0  0  0
   -0.1872   19.2483  -35.3399 H   0  0  0  0  0  0  0  0  0  0  0  0
    0.0910   21.7240  -33.7820 H   0  0  0  0  0  0  0  0  0  0  0  0
   -1.3490   22.2400  -34.6980 H   0  0  0  0  0  0  0  0  0  0  0  0
   -1.4080   21.4576  -30.9762 H   0  0  0  0  0  0  0  0  0  0  0  0
   -2.9930   25.5980  -29.3240 H   0  0  0  0  0  0  0  0  0  0  0  0
  1  2  1  0
  2  3  2  0
  2  4  2  0
  2  5  1  0
  5  6  2  0
  6  7  1  0
  7  8  2  0
  8  9  1  0
  9 10  2  0
 10 11  1  0
 11 12  1  0
 12 13  1  0
 13 14  2  0
 13 15  2  0
 13 16  1  0
 16 17  2  0
 17 18  1  0
 18 19  2  0
 19 20  1  0
 20 21  2  0
 11 22  2  0
 22 23  1  0
 23 24  2  0
 24 25  1  0
  8 26  1  0
 26 27  2  0
 27 28  1  0
 28 29  1  0
 28 30  2  0
 28 31  2  0
 27  5  1  0
 24  9  1  0
 21 16  1  0
  1 32  1  0
  1 33  1  0
  1 34  1  0
  6 35  1  0
  7 36  1  0
 10 37  1  0
 17 38  1  0
 18 39  1  0
 19 40  1  0
 20 41  1  0
 21 42  1  0
 22 43  1  0
 23 44  1  0
 25 45  1  0
 25 46  1  0
 26 47  1  0
 29 48  1  0
M  CHG  2  12  -1  29  -1
M  END
>  <UniqueID>  (12) 
11

>  <SMILES>  (12) 
CS(=O)(=O)c1ccc(-c2cc([N-]S(=O)(=O)c3ccccc3)ccc2N)cc1S([NH-])(=O)=O

>  <Energy>  (12) 
62.77795237773746

>  <Genealogy>  (12) 
CS(=O)(=O)c1ccc(-c2cc([N-]S(=O)(=O)c3ccccc3)ccc2N)cc1S([NH-])(=O)=O (protonated)
CS(=O)(=O)c1ccc(-c2cc([N-]S(=O)(=O)c3ccccc3)ccc2N)cc1S([NH-])(=O)=O (3D coordinates assigned)
CS(=O)(=O)c1ccc(-c2cc([N-]S(=O)(=O)c3ccccc3)ccc2N)cc1S([NH-])(=O)=O (optimized conformer: 62.77795237773746 kcal/mol)

>  <smiles>  (12) 
CS(=O)(=O)c1ccc(-c2cc(NS(=O)(=O)c3ccccc3)ccc2N)cc1S(N)(=O)=O

>  <score_type>  (12) 
oracle

>  <origin>  (12) 
adgpu

>  <m_score__min__energy>  (12) 
-12.210000000000001

>  <m_primary>  (12) 
energy

$$$$
12:0
     RDKit          3D

 58 61  0  0  0  0  0  0  0  0999 V2000
   -1.5970   26.0350  -26.8800 C   0  0  0  0  0  0  0  0  0  0  0  0
   -1.4800   24.5560  -27.1990 C   0  0  0  0  0  0  0  0  0  0  0  0
   -0.8350   23.6680  -26.2930 C   0  0  0  0  0  0  0  0  0  0  0  0
   -0.3110   24.1200  -24.9440 C   0  0  0  0  0  0  0  0  0  0  0  0
   -0.1770   23.0170  -24.0870 O   0  0  0  0  0  0  0  0  0  0  0  0
   -0.7260   22.3050  -26.6220 C   0  0  0  0  0  0  0  0  0  0  0  0
   -1.1860   21.8270  -27.8490 C   0  0  0  0  0  0  0  0  0  0  0  0
   -1.7890   22.6970  -28.7560 C   0  0  0  0  0  0  0  0  0  0  0  0
   -1.9750   24.0520  -28.4320 C   0  0  0  0  0  0  0  0  0  0  0  0
   -2.6220   24.9390  -29.3580 N   0  0  0  0  0  0  0  0  0  0  0  0
   -4.2810   24.8280  -29.8710 S   0  0  0  0  0  0  0  0  0  0  0  0
   -5.1710   24.8910  -28.6580 O   0  0  0  0  0  0  0  0  0  0  0  0
   -4.5990   25.9910  -30.7750 O   0  0  0  0  0  0  0  0  0  0  0  0
   -4.6120   23.3240  -30.7130 C   0  0  0  0  0  0  0  0  0  0  0  0
   -3.7100   22.6220  -31.5010 C   0  0  0  0  0  0  0  0  0  0  0  0
   -4.2400   21.4360  -32.0180 C   0  0  0  0  0  0  0  0  0  0  0  0
   -5.5690   21.2050  -31.6460 C   0  0  0  0  0  0  0  0  0  0  0  0
   -6.3990   20.0300  -32.0190 C   0  0  0  0  0  0  0  0  0  0  0  0
   -7.7900   20.1550  -32.1460 C   0  0  0  0  0  0  0  0  0  0  0  0
   -8.5720   19.0510  -32.4860 C   0  0  0  0  0  0  0  0  0  0  0  0
   -7.9850   17.8020  -32.6780 C   0  0  0  0  0  0  0  0  0  0  0  0
   -6.5990   17.6400  -32.5240 C   0  0  0  0  0  0  0  0  0  0  0  0
   -5.9600   16.2730  -32.6980 C   0  0  0  0  0  0  0  0  0  0  0  0
   -4.8550   16.2280  -33.6940 N   0  0  0  0  0  0  0  0  0  0  0  0
   -4.9930   17.2430  -34.7750 C   0  0  0  0  0  0  0  0  0  0  0  0
   -4.0140   18.4130  -34.5980 C   0  0  0  0  0  0  0  0  0  0  0  0
   -2.6110   17.9530  -34.6190 N   0  0  0  0  0  0  0  0  0  0  0  0
   -2.4140   16.5980  -34.0570 C   0  0  0  0  0  0  0  0  0  0  0  0
   -3.5140   16.2170  -33.0560 C   0  0  0  0  0  0  0  0  0  0  0  0
   -5.8110   18.7700  -32.2420 C   0  0  0  0  0  0  0  0  0  0  0  0
   -6.0660   22.4860  -30.6620 S   0  0  0  0  0  0  0  0  0  0  0  0
   -1.6081   26.1750  -25.7890 H   0  0  0  0  0  0  0  0  0  0  0  0
   -0.7385   26.5719  -27.3099 H   0  0  0  0  0  0  0  0  0  0  0  0
   -2.5292   26.4302  -27.3099 H   0  0  0  0  0  0  0  0  0  0  0  0
    0.6700   24.5997  -25.0764 H   0  0  0  0  0  0  0  0  0  0  0  0
   -1.0200   24.8360  -24.5028 H   0  0  0  0  0  0  0  0  0  0  0  0
    0.1890   23.3600  -23.2330 H   0  0  0  0  0  0  0  0  0  0  0  0
   -0.2723   21.6072  -25.9028 H   0  0  0  0  0  0  0  0  0  0  0  0
   -1.0728   20.7623  -28.1012 H   0  0  0  0  0  0  0  0  0  0  0  0
   -2.1223   22.3197  -29.7341 H   0  0  0  0  0  0  0  0  0  0  0  0
   -2.6833   22.9639  -31.6984 H   0  0  0  0  0  0  0  0  0  0  0  0
   -3.6661   20.7490  -32.6572 H   0  0  0  0  0  0  0  0  0  0  0  0
   -8.2681   21.1310  -31.9762 H   0  0  0  0  0  0  0  0  0  0  0  0
   -9.6595   19.1673  -32.6033 H   0  0  0  0  0  0  0  0  0  0  0  0
   -8.6102   16.9392  -32.9514 H   0  0  0  0  0  0  0  0  0  0  0  0
   -5.5577   15.9559  -31.7246 H   0  0  0  0  0  0  0  0  0  0  0  0
   -6.7486   15.6061  -33.0768 H   0  0  0  0  0  0  0  0  0  0  0  0
   -4.9550   15.2970  -34.1680 H   0  0  0  0  0  0  0  0  0  0  0  0
   -4.7960   16.7591  -35.7430 H   0  0  0  0  0  0  0  0  0  0  0  0
   -6.0151   17.6473  -34.7313 H   0  0  0  0  0  0  0  0  0  0  0  0
   -4.1662   19.1332  -35.4154 H   0  0  0  0  0  0  0  0  0  0  0  0
   -4.2089   18.8813  -33.6219 H   0  0  0  0  0  0  0  0  0  0  0  0
   -2.0410   18.6320  -34.0570 H   0  0  0  0  0  0  0  0  0  0  0  0
   -2.4176   15.8693  -34.8810 H   0  0  0  0  0  0  0  0  0  0  0  0
   -1.4539   16.5925  -33.5202 H   0  0  0  0  0  0  0  0  0  0  0  0
   -3.3107   15.2081  -32.6678 H   0  0  0  0  0  0  0  0  0  0  0  0
   -3.5121   16.9565  -32.2416 H   0  0  0  0  0  0  0  0  0  0  0  0
   -4.7168   18.6680  -32.1948 H   0  0  0  0  0  0  0  0  0  0  0  0
  1  2  1  0
  2  3  2  0
  3  4  1  0
  4  5  1  0
  3  6  1  0
  6  7  2  0
  7  8  1  0
  8  9  2  0
  9 10  1  0
 10 11  1  0
 11 12  2  0
 11 13  2  0
 11 14  1  0
 14 15  2  0
 15 16  1  0
 16 17  2  0
 17 18  1  0
 18 19  2  0
 19 20  1  0
 20 21  2  0
 21 22  1  0
 22 23  1  0
 23 24  1  0
 24 25  1  0
 25 26  1  0
 26 27  1  0
 27 28  1  0
 28 29  1  0
 22 30  2  0
 17 31  1  0
  9  2  1  0
 31 14  1  0
 30 18  1  0
 29 24  1  0
  1 32  1  0
  1 33  1  0
  1 34  1  0
  4 35  1  0
  4 36  1  0
  5 37  1  0
  6 38  1  0
  7 39  1  0
  8 40  1  0
 15 41  1  0
 16 42  1  0
 19 43  1  0
 20 44  1  0
 21 45  1  0
 23 46  1  0
 23 47  1  0
 24 48  1  0
 25 49  1  0
 25 50  1  0
 26 51  1  0
 26 52  1  0
 27 53  1  0
 28 54  1  0
 28 55  1  0
 29 56  1  0
 29 57  1  0
 30 58  1  0
M  CHG  2  10  -1  24   1
M  END
>  <UniqueID>  (13) 
12

>  <SMILES>  (13) 
Cc1c(CO)cccc1[N-]S(=O)(=O)c1ccc(-c2cccc(C[NH+]3CCNCC3)c2)s1

>  <Energy>  (13) 
112.23144389320697

>  <Genealogy>  (13) 
Cc1c(CO)cccc1[N-]S(=O)(=O)c1ccc(-c2cccc(C[NH+]3CCNCC3)c2)s1 (protonated)
Cc1c(CO)cccc1[N-]S(=O)(=O)c1ccc(-c2cccc(C[NH+]3CCNCC3)c2)s1 (3D coordinates assigned)
Cc1c(CO)cccc1[N-]S(=O)(=O)c1ccc(-c2cccc(C[NH+]3CCNCC3)c2)s1 (nonaromatic ring conformer: 112.23144389320697 kcal/mol)

>  <smiles>  (13) 
Cc1c(CO)cccc1NS(=O)(=O)c1ccc(-c2cccc(CN3CCNCC3)c2)s1

>  <score_type>  (13) 
oracle

>  <origin>  (13) 
adgpu

>  <m_score__min__energy>  (13) 
-10.24

>  <m_primary>  (13) 
energy

$$$$
13:0
     RDKit          3D

 34 35  0  0  0  0  0  0  0  0999 V2000
   -1.6350   20.6460  -29.9250 C   0  0  0  0  0  0  0  0  0  0  0  0
   -1.6680   21.9790  -30.5400 N   0  0  0  0  0  0  0  0  0  0  0  0
   -2.1580   21.8840  -31.9210 C   0  0  0  0  0  0  0  0  0  0  0  0
   -2.7270   23.0210  -29.6230 S   0  0  0  0  0  0  0  0  0  0  0  0
   -2.0880   24.3680  -29.4200 O   0  0  0  0  0  0  0  0  0  0  0  0
   -2.9780   22.4130  -28.2710 O   0  0  0  0  0  0  0  0  0  0  0  0
   -4.2770   23.1960  -30.4570 C   0  0  0  0  0  0  0  0  0  0  0  0
   -5.0170   22.0460  -30.7640 C   0  0  0  0  0  0  0  0  0  0  0  0
   -6.2500   22.1420  -31.4280 C   0  0  0  0  0  0  0  0  0  0  0  0
   -7.0130   20.9180  -31.7610 C   0  0  0  0  0  0  0  0  0  0  0  0
   -8.3280   20.7820  -31.2860 C   0  0  0  0  0  0  0  0  0  0  0  0
   -9.0710   19.6330  -31.5730 C   0  0  0  0  0  0  0  0  0  0  0  0
   -8.5090   18.6110  -32.3410 C   0  0  0  0  0  0  0  0  0  0  0  0
   -7.2080   18.7390  -32.8300 C   0  0  0  0  0  0  0  0  0  0  0  0
   -6.4550   19.8850  -32.5490 C   0  0  0  0  0  0  0  0  0  0  0  0
   -4.8450   20.0180  -33.2530 Cl  0  0  0  0  0  0  0  0  0  0  0  0
   -6.7280   23.4040  -31.8080 C   0  0  0  0  0  0  0  0  0  0  0  0
   -5.9920   24.5540  -31.5150 C   0  0  0  0  0  0  0  0  0  0  0  0
   -4.7660   24.4600  -30.8430 C   0  0  0  0  0  0  0  0  0  0  0  0
   -4.0350   25.6150  -30.5720 O   0  0  0  0  0  0  0  0  0  0  0  0
   -1.6375   20.7474  -28.8297 H   0  0  0  0  0  0  0  0  0  0  0  0
   -2.5193   20.0738  -30.2423 H   0  0  0  0  0  0  0  0  0  0  0  0
   -0.7235   20.1183  -30.2423 H   0  0  0  0  0  0  0  0  0  0  0  0
   -3.2379   21.6746  -31.9133 H   0  0  0  0  0  0  0  0  0  0  0  0
   -1.9725   22.8348  -32.4421 H   0  0  0  0  0  0  0  0  0  0  0  0
   -1.6307   21.0714  -32.4421 H   0  0  0  0  0  0  0  0  0  0  0  0
   -4.6271   21.0570  -30.4814 H   0  0  0  0  0  0  0  0  0  0  0  0
   -8.7766   21.5857  -30.6836 H   0  0  0  0  0  0  0  0  0  0  0  0
  -10.0988   19.5339  -31.1937 H   0  0  0  0  0  0  0  0  0  0  0  0
   -9.0920   17.7045  -32.5607 H   0  0  0  0  0  0  0  0  0  0  0  0
   -6.7717   17.9343  -33.4400 H   0  0  0  0  0  0  0  0  0  0  0  0
   -7.6874   23.4887  -32.3395 H   0  0  0  0  0  0  0  0  0  0  0  0
   -6.3772   25.5401  -31.8137 H   0  0  0  0  0  0  0  0  0  0  0  0
   -3.0420   25.6730  -30.7630 H   0  0  0  0  0  0  0  0  0  0  0  0
  1  2  1  0
  2  3  1  0
  2  4  1  0
  4  5  2  0
  4  6  2  0
  4  7  1  0
  7  8  2  0
  8  9  1  0
  9 10  1  0
 10 11  2  0
 11 12  1  0
 12 13  2  0
 13 14  1  0
 14 15  2  0
 15 16  1  0
  9 17  2  0
 17 18  1  0
 18 19  2  0
 19 20  1  0
 19  7  1  0
 15 10  1  0
  1 21  1  0
  1 22  1  0
  1 23  1  0
  3 24  1  0
  3 25  1  0
  3 26  1  0
  8 27  1  0
 11 28  1  0
 12 29  1  0
 13 30  1  0
 14 31  1  0
 17 32  1  0
 18 33  1  0
 20 34  1  0
M  END
>  <UniqueID>  (14) 
13

>  <SMILES>  (14) 
CN(C)S(=O)(=O)c1cc(-c2ccccc2Cl)ccc1O

>  <Energy>  (14) 
40.302156198105536

>  <Genealogy>  (14) 
CN(C)S(=O)(=O)c1cc(-c2ccccc2Cl)ccc1O (3D coordinates assigned)
CN(C)S(=O)(=O)c1cc(-c2ccccc2Cl)ccc1O (optimized conformer: 40.302156198105536 kcal/mol)

>  <smiles>  (14) 
CN(C)S(=O)(=O)c1cc(-c2ccccc2Cl)ccc1O

>  <score_type>  (14) 
oracle

>  <origin>  (14) 
adgpu

>  <m_score__min__energy>  (14) 
-9.1300000000000008

>  <m_primary>  (14) 
energy

$$$$
14:0
     RDKit          3D

 49 53  0  0  0  0  0  0  0  0999 V2000
    3.0810   12.8540  -26.6380 O   0  0  0  0  0  0  0  0  0  0  0  0
    2.6230   14.1450  -26.8660 C   0  0  0  0  0  0  0  0  0  0  0  0
    3.2840   15.2340  -26.2930 C   0  0  0  0  0  0  0  0  0  0  0  0
    2.8230   16.5340  -26.5220 C   0  0  0  0  0  0  0  0  0  0  0  0
    1.6930   16.7590  -27.3300 C   0  0  0  0  0  0  0  0  0  0  0  0
    1.2030   18.1400  -27.5750 C   0  0  0  0  0  0  0  0  0  0  0  0
    2.1010   19.1670  -27.9140 C   0  0  0  0  0  0  0  0  0  0  0  0
    1.6400   20.4670  -28.1450 C   0  0  0  0  0  0  0  0  0  0  0  0
    0.2710   20.7640  -28.0450 C   0  0  0  0  0  0  0  0  0  0  0  0
   -0.2210   22.1440  -28.2790 C   0  0  0  0  0  0  0  0  0  0  0  0
   -1.4470   22.3430  -28.9370 C   0  0  0  0  0  0  0  0  0  0  0  0
   -1.9510   23.6370  -29.1580 C   0  0  0  0  0  0  0  0  0  0  0  0
   -3.2580   23.7900  -29.8420 C   0  0  0  0  0  0  0  0  0  0  0  0
   -4.2660   22.8480  -29.9430 C   0  0  0  0  0  0  0  0  0  0  0  0
   -5.2390   23.4680  -30.7060 C   0  0  0  0  0  0  0  0  0  0  0  0
   -6.5410   22.9000  -31.1300 C   0  0  0  0  0  0  0  0  0  0  0  0
   -7.5680   23.7540  -31.5730 C   0  0  0  0  0  0  0  0  0  0  0  0
   -8.8020   23.2340  -31.9760 C   0  0  0  0  0  0  0  0  0  0  0  0
   -9.0300   21.8560  -31.9420 C   0  0  0  0  0  0  0  0  0  0  0  0
  -10.2640   21.3510  -32.3450 O   0  0  0  0  0  0  0  0  0  0  0  0
   -8.0160   20.9960  -31.5010 C   0  0  0  0  0  0  0  0  0  0  0  0
   -6.7810   21.5120  -31.0980 C   0  0  0  0  0  0  0  0  0  0  0  0
   -4.8190   24.7050  -31.0410 N   0  0  0  0  0  0  0  0  0  0  0  0
   -3.6160   24.8970  -30.5210 N   0  0  0  0  0  0  0  0  0  0  0  0
   -1.1900   24.7470  -28.7340 C   0  0  0  0  0  0  0  0  0  0  0  0
   -1.6150   26.0480  -28.9790 O   0  0  0  0  0  0  0  0  0  0  0  0
    0.0300   24.5530  -28.0810 C   0  0  0  0  0  0  0  0  0  0  0  0
    0.5190   23.2640  -27.8560 C   0  0  0  0  0  0  0  0  0  0  0  0
    1.7540   23.1100  -27.2330 O   0  0  0  0  0  0  0  0  0  0  0  0
   -0.6260   19.7420  -27.6990 C   0  0  0  0  0  0  0  0  0  0  0  0
   -0.1660   18.4430  -27.4680 C   0  0  0  0  0  0  0  0  0  0  0  0
    1.0360   15.6540  -27.9030 C   0  0  0  0  0  0  0  0  0  0  0  0
    1.4990   14.3550  -27.6710 C   0  0  0  0  0  0  0  0  0  0  0  0
    4.1687   15.0686  -25.6606 H   0  0  0  0  0  0  0  0  0  0  0  0
    3.3475   17.3872  -26.0672 H   0  0  0  0  0  0  0  0  0  0  0  0
    3.1753   18.9463  -27.9983 H   0  0  0  0  0  0  0  0  0  0  0  0
    2.3541   21.2618  -28.4066 H   0  0  0  0  0  0  0  0  0  0  0  0
   -2.0218   21.4720  -29.2849 H   0  0  0  0  0  0  0  0  0  0  0  0
   -4.2886   21.8354  -29.5138 H   0  0  0  0  0  0  0  0  0  0  0  0
   -7.3986   24.8405  -31.6026 H   0  0  0  0  0  0  0  0  0  0  0  0
   -9.5961   23.9124  -32.3211 H   0  0  0  0  0  0  0  0  0  0  0  0
  -10.3750   20.3830  -32.6240 H   0  0  0  0  0  0  0  0  0  0  0  0
   -8.1923   19.9106  -31.4717 H   0  0  0  0  0  0  0  0  0  0  0  0
   -5.9905   20.8292  -30.7532 H   0  0  0  0  0  0  0  0  0  0  0  0
    0.6106   25.4232  -27.7410 H   0  0  0  0  0  0  0  0  0  0  0  0
   -1.6994   19.9651  -27.6089 H   0  0  0  0  0  0  0  0  0  0  0  0
   -0.8807   17.6508  -27.2002 H   0  0  0  0  0  0  0  0  0  0  0  0
    0.1520   15.8133  -28.5379 H   0  0  0  0  0  0  0  0  0  0  0  0
    0.9785   13.4974  -28.1222 H   0  0  0  0  0  0  0  0  0  0  0  0
  1  2  1  0
  2  3  2  0
  3  4  1  0
  4  5  2  0
  5  6  1  0
  6  7  2  0
  7  8  1  0
  8  9  2  0
  9 10  1  0
 10 11  2  0
 11 12  1  0
 12 13  1  0
 13 14  1  0
 14 15  2  0
 15 16  1  0
 16 17  2  0
 17 18  1  0
 18 19  2  0
 19 20  1  0
 19 21  1  0
 21 22  2  0
 15 23  1  0
 23 24  1  0
 12 25  2  0
 25 26  1  0
 25 27  1  0
 27 28  2  0
 28 29  1  0
  9 30  1  0
 30 31  2  0
  5 32  1  0
 32 33  2  0
 33  2  1  0
 31  6  1  0
 28 10  1  0
 24 13  2  0
 22 16  1  0
  3 34  1  0
  4 35  1  0
  7 36  1  0
  8 37  1  0
 11 38  1  0
 14 39  1  0
 17 40  1  0
 18 41  1  0
 20 42  1  0
 21 43  1  0
 22 44  1  0
 27 45  1  0
 30 46  1  0
 31 47  1  0
 32 48  1  0
 33 49  1  0
M  CHG  4   1  -1  23  -1  26  -1  29  -1
M  END
>  <UniqueID>  (15) 
14

>  <SMILES>  (15) 
[O-]c1ccc(-c2ccc(-c3cc(-c4cc(-c5ccc(O)cc5)[n-]n4)c([O-])cc3[O-])cc2)cc1

>  <Energy>  (15) 
103.08606851277395

>  <Genealogy>  (15) 
[O-]c1ccc(-c2ccc(-c3cc(-c4cc(-c5ccc(O)cc5)[n-]n4)c([O-])cc3[O-])cc2)cc1 (protonated)
[O-]c1ccc(-c2ccc(-c3cc(-c4cc(-c5ccc(O)cc5)[n-]n4)c([O-])cc3[O-])cc2)cc1 (3D coordinates assigned)
[O-]c1ccc(-c2ccc(-c3cc(-c4cc(-c5ccc(O)cc5)[n-]n4)c([O-])cc3[O-])cc2)cc1 (optimized conformer: 103.08606851277395 kcal/mol)

>  <smiles>  (15) 
Oc1ccc(-c2ccc(-c3cc(-c4cc(-c5ccc(O)cc5)[nH]n4)c(O)cc3O)cc2)cc1

>  <score_type>  (15) 
oracle

>  <origin>  (15) 
adgpu

>  <m_score__min__energy>  (15) 
-13.539999999999999

>  <m_primary>  (15) 
energy

$$$$
15:0
     RDKit          3D

 35 37  0  0  0  0  0  0  0  0999 V2000
   -1.7130   25.0840  -27.7620 C   0  0  0  0  0  0  0  0  0  0  0  0
   -2.3480   25.1450  -29.0350 O   0  0  0  0  0  0  0  0  0  0  0  0
   -3.0560   24.0850  -29.6210 C   0  0  0  0  0  0  0  0  0  0  0  0
   -2.7740   22.7380  -29.3210 C   0  0  0  0  0  0  0  0  0  0  0  0
   -3.5050   21.7120  -29.9250 C   0  0  0  0  0  0  0  0  0  0  0  0
   -4.5380   22.0110  -30.8260 C   0  0  0  0  0  0  0  0  0  0  0  0
   -5.2990   20.9340  -31.4920 C   0  0  0  0  0  0  0  0  0  0  0  0
   -4.5980   20.0100  -32.2010 N   0  0  0  0  0  0  0  0  0  0  0  0
   -5.1920   18.9620  -32.8270 C   0  0  0  0  0  0  0  0  0  0  0  0
   -4.4120   18.0430  -33.5380 C   0  0  0  0  0  0  0  0  0  0  0  0
   -5.0150   16.9540  -34.1720 C   0  0  0  0  0  0  0  0  0  0  0  0
   -6.3980   16.7790  -34.0990 C   0  0  0  0  0  0  0  0  0  0  0  0
   -7.1880   17.6920  -33.3930 C   0  0  0  0  0  0  0  0  0  0  0  0
   -6.5910   18.7950  -32.7500 C   0  0  0  0  0  0  0  0  0  0  0  0
   -7.3500   19.7410  -32.0360 C   0  0  0  0  0  0  0  0  0  0  0  0
   -8.6030   19.6080  -31.9490 O   0  0  0  0  0  0  0  0  0  0  0  0
   -6.7120   20.8410  -31.4230 C   0  0  0  0  0  0  0  0  0  0  0  0
   -7.5390   21.8800  -30.7000 C   0  0  0  0  0  0  0  0  0  0  0  0
   -4.8050   23.3520  -31.1410 C   0  0  0  0  0  0  0  0  0  0  0  0
   -4.0740   24.3840  -30.5370 C   0  0  0  0  0  0  0  0  0  0  0  0
   -4.3530   25.7140  -30.8450 O   0  0  0  0  0  0  0  0  0  0  0  0
   -2.4724   25.1570  -26.9696 H   0  0  0  0  0  0  0  0  0  0  0  0
   -1.1739   24.1299  -27.6665 H   0  0  0  0  0  0  0  0  0  0  0  0
   -1.0021   25.9180  -27.6665 H   0  0  0  0  0  0  0  0  0  0  0  0
   -1.9738   22.4925  -28.6072 H   0  0  0  0  0  0  0  0  0  0  0  0
   -3.2691   20.6630  -29.6926 H   0  0  0  0  0  0  0  0  0  0  0  0
   -3.3220   18.1784  -33.5977 H   0  0  0  0  0  0  0  0  0  0  0  0
   -4.3990   16.2332  -34.7297 H   0  0  0  0  0  0  0  0  0  0  0  0
   -6.8684   15.9194  -34.5988 H   0  0  0  0  0  0  0  0  0  0  0  0
   -8.2773   17.5489  -33.3395 H   0  0  0  0  0  0  0  0  0  0  0  0
   -7.4307   21.7440  -29.6138 H   0  0  0  0  0  0  0  0  0  0  0  0
   -7.1913   22.8853  -30.9801 H   0  0  0  0  0  0  0  0  0  0  0  0
   -8.5967   21.7666  -30.9801 H   0  0  0  0  0  0  0  0  0  0  0  0
   -5.5942   23.5952  -31.8677 H   0  0  0  0  0  0  0  0  0  0  0  0
   -3.8640   26.4780  -30.3920 H   0  0  0  0  0  0  0  0  0  0  0  0
  1  2  1  0
  2  3  1  0
  3  4  2  0
  4  5  1  0
  5  6  2  0
  6  7  1  0
  7  8  1  0
  8  9  1  0
  9 10  2  0
 10 11  1  0
 11 12  2  0
 12 13  1  0
 13 14  2  0
 14 15  1  0
 15 16  2  0
 15 17  1  0
 17 18  1  0
  6 19  1  0
 19 20  2  0
 20 21  1  0
 20  3  1  0
 17  7  2  0
 14  9  1  0
  1 22  1  0
  1 23  1  0
  1 24  1  0
  4 25  1  0
  5 26  1  0
 10 27  1  0
 11 28  1  0
 12 29  1  0
 13 30  1  0
 18 31  1  0
 18 32  1  0
 18 33  1  0
 19 34  1  0
 21 35  1  0
M  CHG  1   8  -1
M  END
>  <UniqueID>  (16) 
15

>  <SMILES>  (16) 
COc1ccc(-c2[n-]c3ccccc3c(=O)c2C)cc1O

>  <Energy>  (16) 
49.468617724274736

>  <Genealogy>  (16) 
COc1ccc(-c2[n-]c3ccccc3c(=O)c2C)cc1O (protonated)
COc1ccc(-c2[n-]c3ccccc3c(=O)c2C)cc1O (3D coordinates assigned)
COc1ccc(-c2[n-]c3ccccc3c(=O)c2C)cc1O (optimized conformer: 49.468617724274736 kcal/mol)

>  <smiles>  (16) 
COc1ccc(-c2[nH]c3ccccc3c(=O)c2C)cc1O

>  <score_type>  (16) 
oracle

>  <origin>  (16) 
adgpu

>  <m_score__min__energy>  (16) 
-8.4900000000000002

>  <m_primary>  (16) 
energy

$$$$
16:0
     RDKit          3D

 42 43  0  0  0  0  0  0  0  0999 V2000
   -5.4558   26.2332  -31.5222 H   0  0  0  0  0  0  0  0  0  0  0  0
   -5.0600   25.3070  -31.0800 C   0  0  0  0  0  0  0  0  0  0  0  0
   -3.8610   25.3210  -30.4480 N   0  0  0  0  0  0  0  0  0  0  0  0
   -3.3320   24.2020  -29.8910 C   0  0  0  0  0  0  0  0  0  0  0  0
   -2.0900   24.2690  -29.2490 C   0  0  0  0  0  0  0  0  0  0  0  0
   -1.5499   25.2260  -29.1987 H   0  0  0  0  0  0  0  0  0  0  0  0
   -1.5340   23.1250  -28.6720 C   0  0  0  0  0  0  0  0  0  0  0  0
    0.0230   23.2160  -27.8670 Cl  0  0  0  0  0  0  0  0  0  0  0  0
   -2.2160   21.9070  -28.7330 C   0  0  0  0  0  0  0  0  0  0  0  0
   -1.7752   21.0083  -28.2769 H   0  0  0  0  0  0  0  0  0  0  0  0
   -3.4570   21.8270  -29.3720 C   0  0  0  0  0  0  0  0  0  0  0  0
   -3.9869   20.8642  -29.4183 H   0  0  0  0  0  0  0  0  0  0  0  0
   -4.0340   22.9740  -29.9580 C   0  0  0  0  0  0  0  0  0  0  0  0
   -5.2930   22.9370  -30.6020 C   0  0  0  0  0  0  0  0  0  0  0  0
   -5.9570   21.8120  -30.6520 N   0  0  0  0  0  0  0  0  0  0  0  0
   -7.2800   21.5710  -31.2310 C   0  0  0  0  0  0  0  0  0  0  0  0
   -7.8837   22.4860  -31.1396 H   0  0  0  0  0  0  0  0  0  0  0  0
   -7.7516   20.7390  -30.6875 H   0  0  0  0  0  0  0  0  0  0  0  0
   -7.1760   21.1860  -32.7130 C   0  0  0  0  0  0  0  0  0  0  0  0
   -6.7801   22.0415  -33.2799 H   0  0  0  0  0  0  0  0  0  0  0  0
   -8.1784   20.9139  -33.0753 H   0  0  0  0  0  0  0  0  0  0  0  0
   -6.2830   20.0330  -32.8970 N   0  0  0  0  0  0  0  0  0  0  0  0
   -4.8600   20.2490  -32.9070 C   0  0  0  0  0  0  0  0  0  0  0  0
   -4.0850   19.3320  -32.5250 O   0  0  0  0  0  0  0  0  0  0  0  0
   -4.2920   21.5720  -33.3280 C   0  0  0  0  0  0  0  0  0  0  0  0
   -4.6814   21.8347  -34.3227 H   0  0  0  0  0  0  0  0  0  0  0  0
   -4.5857   22.3383  -32.5955 H   0  0  0  0  0  0  0  0  0  0  0  0
   -2.8350   21.5000  -33.3840 N   0  0  0  0  0  0  0  0  0  0  0  0
   -2.5570   20.5350  -33.0930 H   0  0  0  0  0  0  0  0  0  0  0  0
   -2.5380   21.6010  -34.3820 H   0  0  0  0  0  0  0  0  0  0  0  0
   -6.8400   18.6930  -33.1710 C   0  0  0  0  0  0  0  0  0  0  0  0
   -7.8858   18.8184  -33.4882 H   0  0  0  0  0  0  0  0  0  0  0  0
   -6.0650   18.0150  -34.3060 C   0  0  0  0  0  0  0  0  0  0  0  0
   -5.3015   17.3470  -33.8807 H   0  0  0  0  0  0  0  0  0  0  0  0
   -6.7600   17.4297  -34.9260 H   0  0  0  0  0  0  0  0  0  0  0  0
   -5.5772   18.7816  -34.9260 H   0  0  0  0  0  0  0  0  0  0  0  0
   -6.8470   17.8190  -31.9120 C   0  0  0  0  0  0  0  0  0  0  0  0
   -6.8419   18.4618  -31.0194 H   0  0  0  0  0  0  0  0  0  0  0  0
   -7.7502   17.1912  -31.9065 H   0  0  0  0  0  0  0  0  0  0  0  0
   -5.9540   17.1768  -31.9065 H   0  0  0  0  0  0  0  0  0  0  0  0
   -5.7950   24.1250  -31.1730 C   0  0  0  0  0  0  0  0  0  0  0  0
   -6.7653   24.1195  -31.6912 H   0  0  0  0  0  0  0  0  0  0  0  0
  1  2  1  0
  2  3  1  0
  3  4  1  0
  4  5  2  0
  5  6  1  0
  5  7  1  0
  7  8  1  0
  7  9  2  0
  9 10  1  0
  9 11  1  0
 11 12  1  0
 11 13  2  0
 13 14  1  0
 14 15  2  0
 15 16  1  0
 16 17  1  0
 16 18  1  0
 16 19  1  0
 19 20  1  0
 19 21  1  0
 19 22  1  0
 22 23  1  0
 23 24  2  0
 23 25  1  0
 25 26  1  0
 25 27  1  0
 25 28  1  0
 28 29  1  0
 28 30  1  0
 22 31  1  0
 31 32  1  0
 31 33  1  0
 33 34  1  0
 33 35  1  0
 33 36  1  0
 31 37  1  0
 37 38  1  0
 37 39  1  0
 37 40  1  0
 14 41  1  0
 41 42  1  0
 41  2  2  0
 13  4  1  0
M  CHG  1   3  -1
M  END
>  <UniqueID>  (17) 
16

>  <SMILES>  (17) 
CC(C)N(CC/N=c1\cc[n-]c2cc(Cl)ccc12)C(=O)CN

>  <Energy>  (17) 
43.034272797489294

>  <Genealogy>  (17) 
CC(C)N(CCN=c1cc[n-]c2cc(Cl)ccc12)C(=O)CN (protonated)
CC(C)N(CC/N=c1\cc[n-]c2cc(Cl)ccc12)C(=O)CN (cis-trans isomerization)
CC(C)N(CC/N=c1\cc[n-]c2cc(Cl)ccc12)C(=O)CN (3D coordinates assigned)
CC(C)N(CC/N=c1\cc[n-]c2cc(Cl)ccc12)C(=O)CN (optimized conformer: 43.034272797489294 kcal/mol)

>  <smiles>  (17) 
CC(C)N(CCN=c1cc[nH]c2cc(Cl)ccc12)C(=O)CN

>  <score_type>  (17) 
oracle

>  <origin>  (17) 
adgpu

>  <m_score__min__energy>  (17) 
-9.2699999999999996

>  <m_primary>  (17) 
energy

$$$$
17:0
     RDKit          3D

 62 65  0  0  0  0  0  0  0  0999 V2000
   -5.0750   24.5130  -29.8310 C   0  0  0  0  0  0  0  0  0  0  0  0
   -3.9230   23.5670  -30.0360 C   0  0  0  0  0  0  0  0  0  0  0  0
   -4.1720   22.2510  -30.4580 C   0  0  0  0  0  0  0  0  0  0  0  0
   -3.1210   21.3480  -30.6080 C   0  0  0  0  0  0  0  0  0  0  0  0
   -1.8020   21.7450  -30.3440 C   0  0  0  0  0  0  0  0  0  0  0  0
   -0.7260   20.8030  -30.4600 N   0  0  0  0  0  0  0  0  0  0  0  0
   -0.4810   20.0670  -31.6690 C   0  0  0  0  0  0  0  0  0  0  0  0
    0.6100   20.3930  -32.4850 C   0  0  0  0  0  0  0  0  0  0  0  0
    0.8130   19.7140  -33.6900 C   0  0  0  0  0  0  0  0  0  0  0  0
   -0.0640   18.6960  -34.0820 C   0  0  0  0  0  0  0  0  0  0  0  0
   -1.1320   18.3210  -33.2480 C   0  0  0  0  0  0  0  0  0  0  0  0
   -2.0970   17.2620  -33.6400 C   0  0  0  0  0  0  0  0  0  0  0  0
   -3.4560   17.6140  -33.7290 C   0  0  0  0  0  0  0  0  0  0  0  0
   -4.4400   16.6480  -33.9850 C   0  0  0  0  0  0  0  0  0  0  0  0
   -5.8360   16.9800  -33.9900 N   0  0  0  0  0  0  0  0  0  0  0  0
   -6.3770   18.2980  -34.1810 C   0  0  0  0  0  0  0  0  0  0  0  0
   -6.1150   18.9420  -35.2350 O   0  0  0  0  0  0  0  0  0  0  0  0
   -7.1990   18.9310  -33.1230 C   0  0  0  0  0  0  0  0  0  0  0  0
   -8.0130   18.1530  -32.2810 C   0  0  0  0  0  0  0  0  0  0  0  0
   -8.7630   18.7730  -31.2800 C   0  0  0  0  0  0  0  0  0  0  0  0
   -8.7140   20.1240  -31.1270 N   0  0  0  0  0  0  0  0  0  0  0  0
   -7.9500   20.9120  -31.9320 C   0  0  0  0  0  0  0  0  0  0  0  0
   -7.9060   22.3960  -31.7070 C   0  0  0  0  0  0  0  0  0  0  0  0
   -7.6860   22.6650  -30.3660 F   0  0  0  0  0  0  0  0  0  0  0  0
   -9.1110   22.9560  -32.0930 F   0  0  0  0  0  0  0  0  0  0  0  0
   -6.8860   22.9670  -32.4490 F   0  0  0  0  0  0  0  0  0  0  0  0
   -7.1680   20.3240  -32.9380 C   0  0  0  0  0  0  0  0  0  0  0  0
   -4.0530   15.3340  -34.2590 C   0  0  0  0  0  0  0  0  0  0  0  0
   -2.7070   14.9690  -34.1950 C   0  0  0  0  0  0  0  0  0  0  0  0
   -1.7210   15.9090  -33.8470 C   0  0  0  0  0  0  0  0  0  0  0  0
   -0.2970   15.4400  -33.7030 C   0  0  0  0  0  0  0  0  0  0  0  0
   -1.3290   19.0120  -32.0420 C   0  0  0  0  0  0  0  0  0  0  0  0
   -1.5450   23.0560  -29.9320 C   0  0  0  0  0  0  0  0  0  0  0  0
   -2.6000   23.9700  -29.7460 C   0  0  0  0  0  0  0  0  0  0  0  0
   -2.3670   25.2950  -29.2420 N   0  0  0  0  0  0  0  0  0  0  0  0
   -1.1880   25.7310  -28.0390 S   0  0  0  0  0  0  0  0  0  0  0  0
   -1.8590   25.4710  -26.4060 C   0  0  0  0  0  0  0  0  0  0  0  0
    0.0710   24.9290  -28.2270 O   0  0  0  0  0  0  0  0  0  0  0  0
   -0.8550   27.1900  -28.1900 O   0  0  0  0  0  0  0  0  0  0  0  0
   -5.2465   24.6539  -28.7536 H   0  0  0  0  0  0  0  0  0  0  0  0
   -4.8403   25.4825  -30.2948 H   0  0  0  0  0  0  0  0  0  0  0  0
   -5.9803   24.0943  -30.2948 H   0  0  0  0  0  0  0  0  0  0  0  0
   -5.2025   21.9310  -30.6714 H   0  0  0  0  0  0  0  0  0  0  0  0
   -3.3271   20.3182  -30.9353 H   0  0  0  0  0  0  0  0  0  0  0  0
   -0.1340   20.6100  -29.6220 H   0  0  0  0  0  0  0  0  0  0  0  0
    1.3085   21.1850  -32.1769 H   0  0  0  0  0  0  0  0  0  0  0  0
    1.6651   19.9807  -34.3325 H   0  0  0  0  0  0  0  0  0  0  0  0
    0.0829   18.1874  -35.0462 H   0  0  0  0  0  0  0  0  0  0  0  0
   -3.7520   18.6650  -33.5955 H   0  0  0  0  0  0  0  0  0  0  0  0
   -8.0586   17.0616  -32.4103 H   0  0  0  0  0  0  0  0  0  0  0  0
   -9.3950   18.1678  -30.6134 H   0  0  0  0  0  0  0  0  0  0  0  0
   -6.5325   20.9516  -33.5801 H   0  0  0  0  0  0  0  0  0  0  0  0
   -4.8119   14.5839  -34.5263 H   0  0  0  0  0  0  0  0  0  0  0  0
   -2.4141   13.9328  -34.4197 H   0  0  0  0  0  0  0  0  0  0  0  0
   -0.0445   15.3568  -32.6356 H   0  0  0  0  0  0  0  0  0  0  0  0
   -0.1842   14.4572  -34.1841 H   0  0  0  0  0  0  0  0  0  0  0  0
    0.3777   16.1634  -34.1841 H   0  0  0  0  0  0  0  0  0  0  0  0
   -2.1589   18.7230  -31.3804 H   0  0  0  0  0  0  0  0  0  0  0  0
   -0.5084   23.3767  -29.7513 H   0  0  0  0  0  0  0  0  0  0  0  0
   -1.1119   25.7605  -25.6523 H   0  0  0  0  0  0  0  0  0  0  0  0
   -2.7638   26.0836  -26.2796 H   0  0  0  0  0  0  0  0  0  0  0  0
   -2.1148   24.4087  -26.2796 H   0  0  0  0  0  0  0  0  0  0  0  0
  1  2  1  0
  2  3  2  0
  3  4  1  0
  4  5  2  0
  5  6  1  0
  6  7  1  0
  7  8  2  0
  8  9  1  0
  9 10  2  0
 10 11  1  0
 11 12  1  0
 12 13  2  0
 13 14  1  0
 14 15  1  0
 15 16  1  0
 16 17  2  0
 16 18  1  0
 18 19  2  0
 19 20  1  0
 20 21  2  0
 21 22  1  0
 22 23  1  0
 23 24  1  0
 23 25  1  0
 23 26  1  0
 22 27  2  0
 14 28  2  0
 28 29  1  0
 29 30  2  0
 30 31  1  0
 11 32  2  0
  5 33  1  0
 33 34  2  0
 34 35  1  0
 35 36  1  0
 36 37  1  0
 36 38  2  0
 36 39  2  0
 34  2  1  0
 32  7  1  0
 30 12  1  0
 27 18  1  0
  1 40  1  0
  1 41  1  0
  1 42  1  0
  3 43  1  0
  4 44  1  0
  6 45  1  0
  8 46  1  0
  9 47  1  0
 10 48  1  0
 13 49  1  0
 19 50  1  0
 20 51  1  0
 27 52  1  0
 28 53  1  0
 29 54  1  0
 31 55  1  0
 31 56  1  0
 31 57  1  0
 32 58  1  0
 33 59  1  0
 37 60  1  0
 37 61  1  0
 37 62  1  0
M  CHG  2  15  -1  35  -1
M  END
>  <UniqueID>  (18) 
17

>  <SMILES>  (18) 
Cc1ccc(Nc2cccc(-c3cc([N-]C(=O)c4ccnc(C(F)(F)F)c4)ccc3C)c2)cc1[N-]S(C)(=O)=O

>  <Energy>  (18) 
82.67752252408839

>  <Genealogy>  (18) 
Cc1ccc(Nc2cccc(-c3cc([N-]C(=O)c4ccnc(C(F)(F)F)c4)ccc3C)c2)cc1[N-]S(C)(=O)=O (protonated)
Cc1ccc(Nc2cccc(-c3cc([N-]C(=O)c4ccnc(C(F)(F)F)c4)ccc3C)c2)cc1[N-]S(C)(=O)=O (3D coordinates assigned)
Cc1ccc(Nc2cccc(-c3cc([N-]C(=O)c4ccnc(C(F)(F)F)c4)ccc3C)c2)cc1[N-]S(C)(=O)=O (optimized conformer: 82.67752252408839 kcal/mol)

>  <smiles>  (18) 
Cc1ccc(Nc2cccc(-c3cc(NC(=O)c4ccnc(C(F)(F)F)c4)ccc3C)c2)cc1NS(C)(=O)=O

>  <score_type>  (18) 
oracle

>  <origin>  (18) 
adgpu

>  <m_score__min__energy>  (18) 
-13.08

>  <m_primary>  (18) 
energy

$$$$
18:0
     RDKit          3D

 34 36  0  0  0  0  0  0  0  0999 V2000
   -9.0480   18.5930  -31.5720 C   0  0  0  0  0  0  0  0  0  0  0  0
   -7.9480   19.1900  -32.0760 C   0  0  0  0  0  0  0  0  0  0  0  0
   -7.9750   20.5900  -32.1820 C   0  0  0  0  0  0  0  0  0  0  0  0
   -6.8890   21.3000  -32.6920 C   0  0  0  0  0  0  0  0  0  0  0  0
   -6.9190   22.7370  -32.7780 N   0  0  0  0  0  0  0  0  0  0  0  0
   -6.5220   23.6230  -31.7160 C   0  0  0  0  0  0  0  0  0  0  0  0
   -7.4730   24.0330  -30.7700 C   0  0  0  0  0  0  0  0  0  0  0  0
   -7.1040   24.8740  -29.7150 C   0  0  0  0  0  0  0  0  0  0  0  0
   -5.7790   25.3000  -29.5900 C   0  0  0  0  0  0  0  0  0  0  0  0
   -4.8190   24.8780  -30.5140 C   0  0  0  0  0  0  0  0  0  0  0  0
   -3.4990   25.2910  -30.3790 O   0  0  0  0  0  0  0  0  0  0  0  0
   -5.1850   24.0380  -31.5700 C   0  0  0  0  0  0  0  0  0  0  0  0
   -5.7320   20.6180  -33.0640 C   0  0  0  0  0  0  0  0  0  0  0  0
   -5.6430   19.2090  -32.9830 C   0  0  0  0  0  0  0  0  0  0  0  0
   -4.4620   18.4980  -33.3810 C   0  0  0  0  0  0  0  0  0  0  0  0
   -3.3440   19.0940  -33.8420 C   0  0  0  0  0  0  0  0  0  0  0  0
   -4.4450   17.0960  -33.2920 C   0  0  0  0  0  0  0  0  0  0  0  0
   -5.5470   16.3960  -32.8260 C   0  0  0  0  0  0  0  0  0  0  0  0
   -6.6940   17.0680  -32.4300 C   0  0  0  0  0  0  0  0  0  0  0  0
   -6.7770   18.4800  -32.4900 C   0  0  0  0  0  0  0  0  0  0  0  0
   -9.0805   17.4985  -31.4670 H   0  0  0  0  0  0  0  0  0  0  0  0
   -9.9123   19.2008  -31.2661 H   0  0  0  0  0  0  0  0  0  0  0  0
   -8.8715   21.1377  -31.8559 H   0  0  0  0  0  0  0  0  0  0  0  0
   -7.2580   23.1660  -33.6690 H   0  0  0  0  0  0  0  0  0  0  0  0
   -8.5148   23.6912  -30.8583 H   0  0  0  0  0  0  0  0  0  0  0  0
   -7.8575   25.2003  -28.9831 H   0  0  0  0  0  0  0  0  0  0  0  0
   -5.4915   25.9675  -28.7643 H   0  0  0  0  0  0  0  0  0  0  0  0
   -4.4249   23.7000  -32.2897 H   0  0  0  0  0  0  0  0  0  0  0  0
   -4.8665   21.1899  -33.4297 H   0  0  0  0  0  0  0  0  0  0  0  0
   -2.4744   18.4847  -34.1294 H   0  0  0  0  0  0  0  0  0  0  0  0
   -3.3014   20.1896  -33.9308 H   0  0  0  0  0  0  0  0  0  0  0  0
   -3.5430   16.5451  -33.5969 H   0  0  0  0  0  0  0  0  0  0  0  0
   -5.5116   15.2980  -32.7698 H   0  0  0  0  0  0  0  0  0  0  0  0
   -7.5562   16.4924  -32.0621 H   0  0  0  0  0  0  0  0  0  0  0  0
  1  2  2  0
  2  3  1  0
  3  4  2  0
  4  5  1  0
  5  6  1  0
  6  7  2  0
  7  8  1  0
  8  9  2  0
  9 10  1  0
 10 11  1  0
 10 12  2  0
  4 13  1  0
 13 14  2  0
 14 15  1  0
 15 16  2  0
 15 17  1  0
 17 18  2  0
 18 19  1  0
 19 20  2  0
 20  2  1  0
 12  6  1  0
 20 14  1  0
  1 21  1  0
  1 22  1  0
  3 23  1  0
  5 24  1  0
  7 25  1  0
  8 26  1  0
  9 27  1  0
 12 28  1  0
 13 29  1  0
 16 30  1  0
 16 31  1  0
 17 32  1  0
 18 33  1  0
 19 34  1  0
M  CHG  1  11  -1
M  END
>  <UniqueID>  (19) 
18

>  <SMILES>  (19) 
C=c1cc(Nc2cccc([O-])c2)cc2c(=C)cccc12

>  <Energy>  (19) 
58.73242878476253

>  <Genealogy>  (19) 
C=c1cc(Nc2cccc([O-])c2)cc2c(=C)cccc12 (protonated)
C=c1cc(Nc2cccc([O-])c2)cc2c(=C)cccc12 (3D coordinates assigned)
C=c1cc(Nc2cccc([O-])c2)cc2c(=C)cccc12 (optimized conformer: 58.73242878476253 kcal/mol)

>  <smiles>  (19) 
C=c1cc(Nc2cccc(O)c2)cc2c(=C)cccc12

>  <score_type>  (19) 
oracle

>  <origin>  (19) 
adgpu

>  <m_score__min__energy>  (19) 
-11.720000000000001

>  <m_primary>  (19) 
energy

$$$$
19:0
     RDKit          3D

 32 33  0  0  0  0  0  0  0  0999 V2000
   -2.6190   22.2070  -27.5120 C   0  0  0  0  0  0  0  0  0  0  0  0
   -3.2610   23.1350  -28.5100 C   0  0  0  0  0  0  0  0  0  0  0  0
   -4.6340   23.0350  -28.7750 C   0  0  0  0  0  0  0  0  0  0  0  0
   -5.2530   23.8930  -29.7010 C   0  0  0  0  0  0  0  0  0  0  0  0
   -6.6680   23.8130  -29.9790 N   0  0  0  0  0  0  0  0  0  0  0  0
   -7.2430   23.7250  -31.3230 C   0  0  0  0  0  0  0  0  0  0  0  0
   -7.5220   22.2880  -31.6930 C   0  0  0  0  0  0  0  0  0  0  0  0
   -8.7810   21.7280  -31.4160 C   0  0  0  0  0  0  0  0  0  0  0  0
   -9.0570   20.4020  -31.7600 C   0  0  0  0  0  0  0  0  0  0  0  0
   -8.0830   19.6260  -32.3920 C   0  0  0  0  0  0  0  0  0  0  0  0
   -6.8340   20.1770  -32.6880 C   0  0  0  0  0  0  0  0  0  0  0  0
   -6.5510   21.5040  -32.3470 C   0  0  0  0  0  0  0  0  0  0  0  0
   -5.3330   22.0170  -32.6570 F   0  0  0  0  0  0  0  0  0  0  0  0
   -4.4550   24.8420  -30.3630 C   0  0  0  0  0  0  0  0  0  0  0  0
   -4.9610   25.6320  -31.2030 O   0  0  0  0  0  0  0  0  0  0  0  0
   -3.1250   24.9210  -30.0980 N   0  0  0  0  0  0  0  0  0  0  0  0
   -2.5070   24.1060  -29.2020 C   0  0  0  0  0  0  0  0  0  0  0  0
   -1.0330   24.2710  -28.9760 C   0  0  0  0  0  0  0  0  0  0  0  0
   -2.8536   22.5462  -26.4922 H   0  0  0  0  0  0  0  0  0  0  0  0
   -3.0059   21.1876  -27.6575 H   0  0  0  0  0  0  0  0  0  0  0  0
   -1.5287   22.2096  -27.6575 H   0  0  0  0  0  0  0  0  0  0  0  0
   -5.2344   22.2760  -28.2521 H   0  0  0  0  0  0  0  0  0  0  0  0
   -7.3390   23.7740  -29.1790 H   0  0  0  0  0  0  0  0  0  0  0  0
   -8.1840   24.2939  -31.3507 H   0  0  0  0  0  0  0  0  0  0  0  0
   -6.5229   24.1413  -32.0428 H   0  0  0  0  0  0  0  0  0  0  0  0
   -9.5541   22.3375  -30.9252 H   0  0  0  0  0  0  0  0  0  0  0  0
  -10.0424   19.9691  -31.5328 H   0  0  0  0  0  0  0  0  0  0  0  0
   -8.2994   18.5805  -32.6568 H   0  0  0  0  0  0  0  0  0  0  0  0
   -6.0704   19.5655  -33.1909 H   0  0  0  0  0  0  0  0  0  0  0  0
   -0.8280   24.2939  -27.8955 H   0  0  0  0  0  0  0  0  0  0  0  0
   -0.4952   23.4274  -29.4334 H   0  0  0  0  0  0  0  0  0  0  0  0
   -0.6951   25.2126  -29.4334 H   0  0  0  0  0  0  0  0  0  0  0  0
  1  2  1  0
  2  3  1  0
  3  4  2  0
  4  5  1  0
  5  6  1  0
  6  7  1  0
  7  8  2  0
  8  9  1  0
  9 10  2  0
 10 11  1  0
 11 12  2  0
 12 13  1  0
  4 14  1  0
 14 15  2  0
 14 16  1  0
 16 17  1  0
 17 18  1  0
 17  2  2  0
 12  7  1  0
  1 19  1  0
  1 20  1  0
  1 21  1  0
  3 22  1  0
  5 23  1  0
  6 24  1  0
  6 25  1  0
  8 26  1  0
  9 27  1  0
 10 28  1  0
 11 29  1  0
 18 30  1  0
 18 31  1  0
 18 32  1  0
M  CHG  1  16  -1
M  END
>  <UniqueID>  (20) 
19

>  <SMILES>  (20) 
Cc1cc(NCc2ccccc2F)c(=O)[n-]c1C

>  <Energy>  (20) 
33.121136453124265

>  <Genealogy>  (20) 
Cc1cc(NCc2ccccc2F)c(=O)[n-]c1C (protonated)
Cc1cc(NCc2ccccc2F)c(=O)[n-]c1C (3D coordinates assigned)
Cc1cc(NCc2ccccc2F)c(=O)[n-]c1C (optimized conformer: 33.121136453124265 kcal/mol)

>  <smiles>  (20) 
Cc1cc(NCc2ccccc2F)c(=O)[nH]c1C

>  <score_type>  (20) 
oracle

>  <origin>  (20) 
adgpu

>  <m_score__min__energy>  (20) 
-9.0999999999999996

>  <m_primary>  (20) 
energy

$$$$
20:0
     RDKit          3D

 47 50  0  0  0  0  0  0  0  0999 V2000
   -3.1180   21.3700  -32.5310 C   0  0  0  0  0  0  0  0  0  0  0  0
   -2.6740   21.4070  -31.0730 C   0  0  0  0  0  0  0  0  0  0  0  0
   -1.7330   22.4600  -30.8580 O   0  0  0  0  0  0  0  0  0  0  0  0
   -1.4410   23.0680  -29.6220 C   0  0  0  0  0  0  0  0  0  0  0  0
   -0.2170   22.8450  -28.9570 C   0  0  0  0  0  0  0  0  0  0  0  0
    0.0500   23.4660  -27.7360 C   0  0  0  0  0  0  0  0  0  0  0  0
   -0.8930   24.3160  -27.1620 C   0  0  0  0  0  0  0  0  0  0  0  0
   -2.1060   24.5490  -27.8060 C   0  0  0  0  0  0  0  0  0  0  0  0
   -2.3960   23.9350  -29.0390 C   0  0  0  0  0  0  0  0  0  0  0  0
   -3.6860   24.2250  -29.7080 C   0  0  0  0  0  0  0  0  0  0  0  0
   -4.7850   23.4520  -29.5680 N   0  0  0  0  0  0  0  0  0  0  0  0
   -5.7190   24.1030  -30.2840 C   0  0  0  0  0  0  0  0  0  0  0  0
   -7.1490   23.6610  -30.4110 C   0  0  0  0  0  0  0  0  0  0  0  0
   -7.5520   23.3110  -31.7940 N   0  0  0  0  0  0  0  0  0  0  0  0
   -8.9920   23.0800  -32.0090 C   0  0  0  0  0  0  0  0  0  0  0  0
   -9.4500   21.6790  -31.5800 C   0  0  0  0  0  0  0  0  0  0  0  0
   -8.4430   20.6000  -31.8810 C   0  0  0  0  0  0  0  0  0  0  0  0
   -8.8020   19.2590  -31.6750 C   0  0  0  0  0  0  0  0  0  0  0  0
   -7.8740   18.2360  -31.8800 C   0  0  0  0  0  0  0  0  0  0  0  0
   -6.5770   18.5420  -32.2950 C   0  0  0  0  0  0  0  0  0  0  0  0
   -6.2030   19.8730  -32.4980 C   0  0  0  0  0  0  0  0  0  0  0  0
   -7.1230   20.9100  -32.2740 C   0  0  0  0  0  0  0  0  0  0  0  0
   -6.6880   22.3390  -32.4900 C   0  0  0  0  0  0  0  0  0  0  0  0
   -5.1580   25.2210  -30.8580 C   0  0  0  0  0  0  0  0  0  0  0  0
   -3.9060   25.2690  -30.4780 O   0  0  0  0  0  0  0  0  0  0  0  0
   -4.2132   21.2787  -32.5786 H   0  0  0  0  0  0  0  0  0  0  0  0
   -2.8052   22.2973  -33.0332 H   0  0  0  0  0  0  0  0  0  0  0  0
   -2.6560   20.5072  -33.0332 H   0  0  0  0  0  0  0  0  0  0  0  0
   -3.5527   21.5716  -30.4321 H   0  0  0  0  0  0  0  0  0  0  0  0
   -2.1947   20.4485  -30.8250 H   0  0  0  0  0  0  0  0  0  0  0  0
    0.5330   22.1762  -29.4045 H   0  0  0  0  0  0  0  0  0  0  0  0
    1.0073   23.2839  -27.2256 H   0  0  0  0  0  0  0  0  0  0  0  0
   -0.6794   24.8036  -26.1994 H   0  0  0  0  0  0  0  0  0  0  0  0
   -2.8457   25.2205  -27.3457 H   0  0  0  0  0  0  0  0  0  0  0  0
   -7.2954   22.7764  -29.7738 H   0  0  0  0  0  0  0  0  0  0  0  0
   -7.7736   24.5128  -30.1037 H   0  0  0  0  0  0  0  0  0  0  0  0
   -9.5561   23.8252  -31.4289 H   0  0  0  0  0  0  0  0  0  0  0  0
   -9.1798   23.1690  -33.0892 H   0  0  0  0  0  0  0  0  0  0  0  0
   -9.6352   21.6899  -30.4958 H   0  0  0  0  0  0  0  0  0  0  0  0
  -10.3576   21.4446  -32.1556 H   0  0  0  0  0  0  0  0  0  0  0  0
   -9.8232   19.0117  -31.3493 H   0  0  0  0  0  0  0  0  0  0  0  0
   -8.1653   17.1883  -31.7143 H   0  0  0  0  0  0  0  0  0  0  0  0
   -5.8487   17.7348  -32.4624 H   0  0  0  0  0  0  0  0  0  0  0  0
   -5.1829   20.1096  -32.8349 H   0  0  0  0  0  0  0  0  0  0  0  0
   -5.6593   22.4533  -32.1175 H   0  0  0  0  0  0  0  0  0  0  0  0
   -6.7572   22.5469  -33.5680 H   0  0  0  0  0  0  0  0  0  0  0  0
   -5.6675   25.9414  -31.5149 H   0  0  0  0  0  0  0  0  0  0  0  0
  1  2  1  0
  2  3  1  0
  3  4  1  0
  4  5  2  0
  5  6  1  0
  6  7  2  0
  7  8  1  0
  8  9  2  0
  9 10  1  0
 10 11  2  0
 11 12  1  0
 12 13  1  0
 13 14  1  0
 14 15  1  0
 15 16  1  0
 16 17  1  0
 17 18  2  0
 18 19  1  0
 19 20  2  0
 20 21  1  0
 21 22  2  0
 22 23  1  0
 12 24  2  0
 24 25  1  0
  9  4  1  0
 25 10  1  0
 23 14  1  0
 22 17  1  0
  1 26  1  0
  1 27  1  0
  1 28  1  0
  2 29  1  0
  2 30  1  0
  5 31  1  0
  6 32  1  0
  7 33  1  0
  8 34  1  0
 13 35  1  0
 13 36  1  0
 15 37  1  0
 15 38  1  0
 16 39  1  0
 16 40  1  0
 18 41  1  0
 19 42  1  0
 20 43  1  0
 21 44  1  0
 23 45  1  0
 23 46  1  0
 24 47  1  0
M  END
>  <UniqueID>  (21) 
20

>  <SMILES>  (21) 
CCOc1ccccc1-c1nc(CN2CCc3ccccc3C2)co1

>  <Energy>  (21) 
86.34062726497713

>  <Genealogy>  (21) 
CCOc1ccccc1-c1nc(CN2CCc3ccccc3C2)co1 (3D coordinates assigned)
CCOc1ccccc1-c1nc(CN2CCc3ccccc3C2)co1 (nonaromatic ring conformer: 86.34062726497713 kcal/mol)

>  <smiles>  (21) 
CCOc1ccccc1-c1nc(CN2CCc3ccccc3C2)co1

>  <score_type>  (21) 
oracle

>  <origin>  (21) 
adgpu

>  <m_score__min__energy>  (21) 
-10.220000000000001

>  <m_primary>  (21) 
energy

$$$$
21:0
     RDKit          3D

 63 66  0  0  1  0  0  0  0  0999 V2000
   -4.7760   12.9300  -30.9100 C   0  0  0  0  0  0  0  0  0  0  0  0
   -3.8820   13.2430  -31.8510 C   0  0  0  0  0  0  0  0  0  0  0  0
   -3.9340   14.5600  -32.4810 C   0  0  0  0  0  0  0  0  0  0  0  0
   -2.8490   15.1800  -32.6220 O   0  0  0  0  0  0  0  0  0  0  0  0
   -5.1920   15.0740  -32.9000 N   0  0  0  0  0  0  0  0  0  0  0  0
   -5.3240   16.3510  -33.5220 C   0  0  0  0  0  0  0  0  0  0  0  0
   -5.2370   16.5430  -34.8800 C   0  0  0  0  0  0  0  0  0  0  0  0
   -5.3800   17.8190  -35.3640 C   0  0  0  0  0  0  0  0  0  0  0  0
   -5.6050   18.9180  -34.5580 C   0  0  0  0  0  0  0  0  0  0  0  0
   -5.6910   18.7230  -33.2050 C   0  0  0  0  0  0  0  0  0  0  0  0
   -5.9180   19.7600  -32.2600 N   0  0  0  0  0  0  0  0  0  0  0  0
   -4.8900   20.2970  -31.7000 C   0  0  0  0  0  0  0  0  0  0  0  0
   -3.6220   19.9400  -31.9550 N   0  0  0  0  0  0  0  0  0  0  0  0
   -2.5560   20.5140  -31.3530 C   0  0  0  0  0  0  0  0  0  0  0  0
   -2.7940   21.5090  -30.4400 C   0  0  0  0  0  0  0  0  0  0  0  0
   -4.0940   21.8590  -30.1940 C   0  0  0  0  0  0  0  0  0  0  0  0
   -4.3540   22.7820  -29.3390 N   0  0  0  0  0  0  0  0  0  0  0  0
   -3.3740   23.4990  -28.6000 C   0  0  0  0  0  0  0  0  0  0  0  0
   -2.8050   22.9830  -27.4490 C   0  0  0  0  0  0  0  0  0  0  0  0
   -1.8600   23.6820  -26.7380 C   0  0  0  0  0  0  0  0  0  0  0  0
   -1.4210   24.9190  -27.1150 C   0  0  0  0  0  0  0  0  0  0  0  0
   -0.4470   25.6780  -26.4200 N   0  0  0  0  0  0  0  0  0  0  0  0
    0.3450   25.1860  -25.3190 C   0  0  0  0  0  0  0  0  0  0  0  0
    0.0970   26.1020  -24.1390 C   0  0  0  0  0  0  0  0  0  0  0  0
    0.1970   27.4930  -24.4330 N   0  0  0  0  0  0  0  0  0  0  0  0
    1.1810   28.0780  -23.5280 C   0  0  0  0  0  0  0  0  0  0  0  0
    0.6260   27.7850  -25.7760 C   0  0  0  0  0  0  0  0  0  0  0  0
   -0.1980   27.0670  -26.8180 C   0  0  0  0  0  0  0  0  0  0  0  0
   -1.9870   25.4490  -28.2740 C   0  0  0  0  0  0  0  0  0  0  0  0
   -2.9440   24.7510  -29.0010 C   0  0  0  0  0  0  0  0  0  0  0  0
   -3.5000   25.2870  -30.1530 O   0  0  0  0  0  0  0  0  0  0  0  0
   -4.9140   25.2730  -30.3460 C   0  0  0  0  0  0  0  0  0  0  0  0
   -5.1410   21.2760  -30.8020 N   0  0  0  0  0  0  0  0  0  0  0  0
   -5.5500   17.4410  -32.6850 C   0  0  0  0  0  0  0  0  0  0  0  0
   -4.7454   11.9410  -30.4295 H   0  0  0  0  0  0  0  0  0  0  0  0
   -5.5431   13.6612  -30.6152 H   0  0  0  0  0  0  0  0  0  0  0  0
   -3.1129   12.5154  -32.1493 H   0  0  0  0  0  0  0  0  0  0  0  0
   -6.0610   14.4950  -32.7480 H   0  0  0  0  0  0  0  0  0  0  0  0
   -5.0577   15.6973  -35.5601 H   0  0  0  0  0  0  0  0  0  0  0  0
   -5.3119   17.9749  -36.4508 H   0  0  0  0  0  0  0  0  0  0  0  0
   -5.7123   19.9233  -34.9914 H   0  0  0  0  0  0  0  0  0  0  0  0
   -3.4420   19.1830  -32.6490 H   0  0  0  0  0  0  0  0  0  0  0  0
   -1.5305   20.1930  -31.5882 H   0  0  0  0  0  0  0  0  0  0  0  0
   -1.9645   22.0111  -29.9206 H   0  0  0  0  0  0  0  0  0  0  0  0
   -3.1168   21.9893  -27.0949 H   0  0  0  0  0  0  0  0  0  0  0  0
   -1.4401   23.2272  -25.8287 H   0  0  0  0  0  0  0  0  0  0  0  0
    0.0427   24.1587  -25.0677 H   0  0  0  0  0  0  0  0  0  0  0  0
    1.4127   25.1730  -25.5834 H   0  0  0  0  0  0  0  0  0  0  0  0
   -0.9161   25.9042  -23.7588 H   0  0  0  0  0  0  0  0  0  0  0  0
    0.8857   25.8824  -23.4044 H   0  0  0  0  0  0  0  0  0  0  0  0
    0.8754   27.8963  -22.4870 H   0  0  0  0  0  0  0  0  0  0  0  0
    2.1636   27.6173  -23.7074 H   0  0  0  0  0  0  0  0  0  0  0  0
    1.2457   29.1613  -23.7074 H   0  0  0  0  0  0  0  0  0  0  0  0
    0.5412   28.8686  -25.9451 H   0  0  0  0  0  0  0  0  0  0  0  0
    1.6652   27.4387  -25.8764 H   0  0  0  0  0  0  0  0  0  0  0  0
   -1.1606   27.5860  -26.9368 H   0  0  0  0  0  0  0  0  0  0  0  0
    0.3574   27.0671  -27.7675 H   0  0  0  0  0  0  0  0  0  0  0  0
   -1.6685   26.4430  -28.6211 H   0  0  0  0  0  0  0  0  0  0  0  0
   -5.4175   25.2680  -29.3680 H   0  0  0  0  0  0  0  0  0  0  0  0
   -5.2161   26.1682  -30.9094 H   0  0  0  0  0  0  0  0  0  0  0  0
   -5.1983   24.3720  -30.9094 H   0  0  0  0  0  0  0  0  0  0  0  0
   -6.1360   21.5780  -30.5820 H   0  0  0  0  0  0  0  0  0  0  0  0
   -5.6179   17.2857  -31.5981 H   0  0  0  0  0  0  0  0  0  0  0  0
  1  2  2  0
  2  3  1  0
  3  4  2  0
  3  5  1  0
  5  6  1  0
  6  7  2  0
  7  8  1  0
  8  9  2  0
  9 10  1  0
 10 11  1  0
 11 12  2  0
 12 13  1  0
 13 14  1  0
 14 15  2  0
 15 16  1  0
 16 17  2  0
 17 18  1  0
 18 19  2  0
 19 20  1  0
 20 21  2  0
 21 22  1  0
 22 23  1  0
 23 24  1  0
 24 25  1  0
 25 26  1  0
 25 27  1  0
 27 28  1  0
 21 29  1  0
 29 30  2  0
 30 31  1  0
 31 32  1  0
 16 33  1  0
 10 34  2  0
 34  6  1  0
 33 12  1  0
 30 18  1  0
 28 22  1  0
  1 35  1  0
  1 36  1  0
  2 37  1  0
  5 38  1  0
  7 39  1  0
  8 40  1  0
  9 41  1  0
 13 42  1  0
 14 43  1  0
 15 44  1  0
 19 45  1  0
 20 46  1  0
 23 47  1  0
 23 48  1  0
 24 49  1  0
 24 50  1  0
 26 51  1  0
 26 52  1  0
 26 53  1  0
 27 54  1  0
 27 55  1  0
 28 56  1  0
 28 57  1  0
 29 58  1  0
 32 59  1  0
 32 60  1  0
 32 61  1  0
 33 62  1  0
 34 63  1  0
M  END
>  <smiles>  (22) 
C=CC(=O)Nc1cccc(N=c2[nH]ccc(=Nc3ccc(N4CCN(C)CC4)cc3OC)[nH]2)c1

>  <score_type>  (22) 
oracle

>  <origin>  (22) 
adgpu

>  <m_score__min__energy>  (22) 
-9.8100000000000005

>  <m_primary>  (22) 
energy

$$$$
22:0
     RDKit          3D

 48 52  0  0  0  0  0  0  0  0999 V2000
   -9.6797   22.7062  -31.4878 H   0  0  0  0  0  0  0  0  0  0  0  0
   -9.0290   21.8360  -31.6590 C   0  0  0  0  0  0  0  0  0  0  0  0
   -9.4430   20.6430  -32.1390 N   0  0  0  0  0  0  0  0  0  0  0  0
   -8.3790   19.8630  -32.2050 N   0  0  0  0  0  0  0  0  0  0  0  0
   -8.3590   18.5790  -32.6410 C   0  0  0  0  0  0  0  0  0  0  0  0
   -9.2819   18.0843  -32.9780 H   0  0  0  0  0  0  0  0  0  0  0  0
   -7.1340   17.8970  -32.6520 C   0  0  0  0  0  0  0  0  0  0  0  0
   -7.0827   16.8537  -32.9969 H   0  0  0  0  0  0  0  0  0  0  0  0
   -5.9710   18.5590  -32.2180 C   0  0  0  0  0  0  0  0  0  0  0  0
   -5.0062   18.0306  -32.2257 H   0  0  0  0  0  0  0  0  0  0  0  0
   -6.0340   19.8900  -31.7750 C   0  0  0  0  0  0  0  0  0  0  0  0
   -5.1316   20.4207  -31.4373 H   0  0  0  0  0  0  0  0  0  0  0  0
   -7.2850   20.5180  -31.7780 C   0  0  0  0  0  0  0  0  0  0  0  0
   -7.6560   21.8040  -31.4120 C   0  0  0  0  0  0  0  0  0  0  0  0
   -6.8170   22.8980  -30.8630 C   0  0  0  0  0  0  0  0  0  0  0  0
   -6.0340   22.6720  -29.7770 N   0  0  0  0  0  0  0  0  0  0  0  0
   -5.2490   23.6400  -29.2370 C   0  0  0  0  0  0  0  0  0  0  0  0
   -4.5300   23.3480  -28.1900 N   0  0  0  0  0  0  0  0  0  0  0  0
   -3.5680   24.1850  -27.5340 C   0  0  0  0  0  0  0  0  0  0  0  0
   -2.2300   24.2180  -27.9500 C   0  0  0  0  0  0  0  0  0  0  0  0
   -1.9144   23.6268  -28.8223 H   0  0  0  0  0  0  0  0  0  0  0  0
   -1.2940   24.9970  -27.2640 C   0  0  0  0  0  0  0  0  0  0  0  0
   -0.2531   25.0286  -27.6183 H   0  0  0  0  0  0  0  0  0  0  0  0
   -1.6630   25.7460  -26.1210 C   0  0  0  0  0  0  0  0  0  0  0  0
   -0.6880   26.5640  -25.4030 N   0  0  0  0  0  0  0  0  0  0  0  0
    0.0650   27.6040  -26.1360 C   0  0  0  0  0  0  0  0  0  0  0  0
    0.5872   27.1265  -26.9782 H   0  0  0  0  0  0  0  0  0  0  0  0
   -0.6653   28.3565  -26.4684 H   0  0  0  0  0  0  0  0  0  0  0  0
    1.1000   28.3330  -25.2760 C   0  0  0  0  0  0  0  0  0  0  0  0
    2.0161   27.7263  -25.2246 H   0  0  0  0  0  0  0  0  0  0  0  0
    1.3096   29.3107  -25.7345 H   0  0  0  0  0  0  0  0  0  0  0  0
    0.6150   28.5450  -23.9720 O   0  0  0  0  0  0  0  0  0  0  0  0
    0.5300   27.3000  -23.3240 C   0  0  0  0  0  0  0  0  0  0  0  0
    1.4907   26.7743  -23.4275 H   0  0  0  0  0  0  0  0  0  0  0  0
    0.2974   27.4725  -22.2628 H   0  0  0  0  0  0  0  0  0  0  0  0
   -0.5800   26.4390  -23.9330 C   0  0  0  0  0  0  0  0  0  0  0  0
   -0.3774   25.3860  -23.6876 H   0  0  0  0  0  0  0  0  0  0  0  0
   -1.5314   26.7922  -23.5087 H   0  0  0  0  0  0  0  0  0  0  0  0
   -3.0130   25.6720  -25.7000 C   0  0  0  0  0  0  0  0  0  0  0  0
   -3.3351   26.2385  -24.8138 H   0  0  0  0  0  0  0  0  0  0  0  0
   -3.9430   24.8910  -26.3920 C   0  0  0  0  0  0  0  0  0  0  0  0
   -4.9808   24.8329  -26.0320 H   0  0  0  0  0  0  0  0  0  0  0  0
   -5.2650   24.8970  -29.7800 N   0  0  0  0  0  0  0  0  0  0  0  0
   -4.7260   25.6840  -29.3580 H   0  0  0  0  0  0  0  0  0  0  0  0
   -6.0320   25.1700  -30.8690 C   0  0  0  0  0  0  0  0  0  0  0  0
   -6.0277   26.1810  -31.3024 H   0  0  0  0  0  0  0  0  0  0  0  0
   -6.8230   24.1750  -31.4380 C   0  0  0  0  0  0  0  0  0  0  0  0
   -7.4410   24.3881  -32.3227 H   0  0  0  0  0  0  0  0  0  0  0  0
  1  2  1  0
  2  3  2  0
  3  4  1  0
  4  5  1  0
  5  6  1  0
  5  7  2  0
  7  8  1  0
  7  9  1  0
  9 10  1  0
  9 11  2  0
 11 12  1  0
 11 13  1  0
 13 14  2  0
 14 15  1  0
 15 16  2  0
 16 17  1  0
 17 18  2  0
 18 19  1  0
 19 20  2  0
 20 21  1  0
 20 22  1  0
 22 23  1  0
 22 24  2  0
 24 25  1  0
 25 26  1  0
 26 27  1  0
 26 28  1  0
 26 29  1  0
 29 30  1  0
 29 31  1  0
 29 32  1  0
 32 33  1  0
 33 34  1  0
 33 35  1  0
 33 36  1  0
 36 37  1  0
 36 38  1  0
 24 39  1  0
 39 40  1  0
 39 41  2  0
 41 42  1  0
 17 43  1  0
 43 44  1  0
 43 45  1  0
 45 46  1  0
 45 47  2  0
 47 48  1  0
 14  2  1  0
 47 15  1  0
 13  4  1  0
 41 19  1  0
 36 25  1  0
M  END
>  <UniqueID>  (23) 
21

>  <SMILES>  (23) 
c1ccn2ncc(-c3cc[nH]/c(=N\c4ccc(N5CCOCC5)cc4)n3)c2c1

>  <Energy>  (23) 
108.89877181503654

>  <Genealogy>  (23) 
c1ccn2ncc(-c3cc[nH]/c(=N\c4ccc(N5CCOCC5)cc4)n3)c2c1 (cis-trans isomerization)
c1ccn2ncc(-c3cc[nH]/c(=N\c4ccc(N5CCOCC5)cc4)n3)c2c1 (3D coordinates assigned)
c1ccn2ncc(-c3cc[nH]/c(=N\c4ccc(N5CCOCC5)cc4)n3)c2c1 (nonaromatic ring conformer: 108.89877181503654 kcal/mol)

>  <smiles>  (23) 
c1ccn2ncc(-c3cc[nH]c(=Nc4ccc(N5CCOCC5)cc4)n3)c2c1

>  <score_type>  (23) 
oracle

>  <origin>  (23) 
adgpu

>  <m_score__min__energy>  (23) 
-8.9299999999999997

>  <m_primary>  (23) 
energy

$$$$
23:0
     RDKit          3D

 39 41  0  0  0  0  0  0  0  0999 V2000
   -1.9370   15.4760  -35.4620 C   0  0  0  0  0  0  0  0  0  0  0  0
   -1.8070   16.4120  -34.3980 O   0  0  0  0  0  0  0  0  0  0  0  0
   -2.6750   17.4930  -34.1810 C   0  0  0  0  0  0  0  0  0  0  0  0
   -2.1190   18.7620  -33.9880 C   0  0  0  0  0  0  0  0  0  0  0  0
   -2.9430   19.8760  -33.7790 C   0  0  0  0  0  0  0  0  0  0  0  0
   -2.3920   21.1430  -33.5960 O   0  0  0  0  0  0  0  0  0  0  0  0
   -4.3310   19.7180  -33.7540 C   0  0  0  0  0  0  0  0  0  0  0  0
   -4.9050   18.4450  -33.9180 C   0  0  0  0  0  0  0  0  0  0  0  0
   -6.2940   18.2510  -33.8940 O   0  0  0  0  0  0  0  0  0  0  0  0
   -7.1880   18.9200  -33.0420 C   0  0  0  0  0  0  0  0  0  0  0  0
   -8.1210   18.1690  -32.3200 C   0  0  0  0  0  0  0  0  0  0  0  0
   -9.0180   18.8030  -31.4540 C   0  0  0  0  0  0  0  0  0  0  0  0
   -8.9880   20.1920  -31.3070 C   0  0  0  0  0  0  0  0  0  0  0  0
   -8.0610   20.9580  -32.0220 C   0  0  0  0  0  0  0  0  0  0  0  0
   -8.0490   22.3500  -31.8410 O   0  0  0  0  0  0  0  0  0  0  0  0
   -6.9220   23.1080  -31.4880 C   0  0  0  0  0  0  0  0  0  0  0  0
   -7.0370   24.3550  -30.8460 C   0  0  0  0  0  0  0  0  0  0  0  0
   -5.8910   25.0820  -30.5090 C   0  0  0  0  0  0  0  0  0  0  0  0
   -4.6240   24.5640  -30.7920 C   0  0  0  0  0  0  0  0  0  0  0  0
   -3.4870   25.2890  -30.4560 O   0  0  0  0  0  0  0  0  0  0  0  0
   -4.5030   23.3120  -31.4090 C   0  0  0  0  0  0  0  0  0  0  0  0
   -3.2750   22.8020  -31.6780 F   0  0  0  0  0  0  0  0  0  0  0  0
   -5.6490   22.5860  -31.7490 C   0  0  0  0  0  0  0  0  0  0  0  0
   -7.1390   20.3140  -32.8660 C   0  0  0  0  0  0  0  0  0  0  0  0
   -4.0750   17.3420  -34.1510 C   0  0  0  0  0  0  0  0  0  0  0  0
   -2.0772   14.4668  -35.0475 H   0  0  0  0  0  0  0  0  0  0  0  0
   -2.8068   15.7424  -36.0805 H   0  0  0  0  0  0  0  0  0  0  0  0
   -1.0276   15.4953  -36.0805 H   0  0  0  0  0  0  0  0  0  0  0  0
   -1.0261   18.8864  -34.0004 H   0  0  0  0  0  0  0  0  0  0  0  0
   -2.3200   21.8050  -34.3590 H   0  0  0  0  0  0  0  0  0  0  0  0
   -4.9785   20.5947  -33.6051 H   0  0  0  0  0  0  0  0  0  0  0  0
   -8.1496   17.0753  -32.4336 H   0  0  0  0  0  0  0  0  0  0  0  0
   -9.7485   18.2067  -30.8876 H   0  0  0  0  0  0  0  0  0  0  0  0
   -9.6967   20.6857  -30.6258 H   0  0  0  0  0  0  0  0  0  0  0  0
   -8.0320   24.7593  -30.6084 H   0  0  0  0  0  0  0  0  0  0  0  0
   -5.9868   26.0629  -30.0205 H   0  0  0  0  0  0  0  0  0  0  0  0
   -5.5498   21.5990  -32.2243 H   0  0  0  0  0  0  0  0  0  0  0  0
   -6.3745   20.9047  -33.3919 H   0  0  0  0  0  0  0  0  0  0  0  0
   -4.5200   16.3490  -34.3120 H   0  0  0  0  0  0  0  0  0  0  0  0
  1  2  1  0
  2  3  1  0
  3  4  2  0
  4  5  1  0
  5  6  1  0
  5  7  2  0
  7  8  1  0
  8  9  1  0
  9 10  1  0
 10 11  2  0
 11 12  1  0
 12 13  2  0
 13 14  1  0
 14 15  1  0
 15 16  1  0
 16 17  2  0
 17 18  1  0
 18 19  2  0
 19 20  1  0
 19 21  1  0
 21 22  1  0
 21 23  2  0
 14 24  2  0
  8 25  2  0
 25  3  1  0
 24 10  1  0
 23 16  1  0
  1 26  1  0
  1 27  1  0
  1 28  1  0
  4 29  1  0
  6 30  1  0
  7 31  1  0
 11 32  1  0
 12 33  1  0
 13 34  1  0
 17 35  1  0
 18 36  1  0
 23 37  1  0
 24 38  1  0
 25 39  1  0
M  CHG  1  20  -1
M  END
>  <UniqueID>  (24) 
22

>  <SMILES>  (24) 
COc1cc(O)cc(Oc2cccc(Oc3ccc([O-])c(F)c3)c2)c1

>  <Energy>  (24) 
52.60020103214319

>  <Genealogy>  (24) 
COc1cc(O)cc(Oc2cccc(Oc3ccc([O-])c(F)c3)c2)c1 (protonated)
COc1cc(O)cc(Oc2cccc(Oc3ccc([O-])c(F)c3)c2)c1 (3D coordinates assigned)
COc1cc(O)cc(Oc2cccc(Oc3ccc([O-])c(F)c3)c2)c1 (optimized conformer: 52.60020103214319 kcal/mol)

>  <smiles>  (24) 
COc1cc(O)cc(Oc2cccc(Oc3ccc(O)c(F)c3)c2)c1

>  <score_type>  (24) 
oracle

>  <origin>  (24) 
adgpu

>  <m_score__min__energy>  (24) 
-10.460000000000001

>  <m_primary>  (24) 
energy

$$$$
24:0
     RDKit          3D

 36 38  0  0  0  0  0  0  0  0999 V2000
   -0.4900   23.7810  -24.3580 C   0  0  0  0  0  0  0  0  0  0  0  0
   -0.6230   24.8830  -25.3660 C   0  0  0  0  0  0  0  0  0  0  0  0
   -0.2420   26.1930  -25.0360 C   0  0  0  0  0  0  0  0  0  0  0  0
   -0.3520   27.2160  -25.9820 C   0  0  0  0  0  0  0  0  0  0  0  0
   -0.8210   26.9350  -27.2660 C   0  0  0  0  0  0  0  0  0  0  0  0
   -1.1640   25.6260  -27.6260 C   0  0  0  0  0  0  0  0  0  0  0  0
   -1.6510   25.3830  -28.9550 N   0  0  0  0  0  0  0  0  0  0  0  0
   -2.7620   24.5550  -29.3170 C   0  0  0  0  0  0  0  0  0  0  0  0
   -2.9950   23.4870  -28.6880 O   0  0  0  0  0  0  0  0  0  0  0  0
   -3.5590   24.9120  -30.4530 N   0  0  0  0  0  0  0  0  0  0  0  0
   -4.7710   24.2260  -30.8120 C   0  0  0  0  0  0  0  0  0  0  0  0
   -6.0130   24.7860  -30.4640 C   0  0  0  0  0  0  0  0  0  0  0  0
   -7.2060   24.1710  -30.8440 C   0  0  0  0  0  0  0  0  0  0  0  0
   -7.1830   22.9910  -31.5860 C   0  0  0  0  0  0  0  0  0  0  0  0
   -5.9600   22.4100  -31.9510 C   0  0  0  0  0  0  0  0  0  0  0  0
   -5.9420   21.2190  -32.6950 C   0  0  0  0  0  0  0  0  0  0  0  0
   -4.7270   20.6300  -33.0480 C   0  0  0  0  0  0  0  0  0  0  0  0
   -3.5230   21.2180  -32.6590 C   0  0  0  0  0  0  0  0  0  0  0  0
   -3.5240   22.4040  -31.9200 C   0  0  0  0  0  0  0  0  0  0  0  0
   -4.7380   23.0240  -31.5640 C   0  0  0  0  0  0  0  0  0  0  0  0
   -1.0760   24.6020  -26.6650 C   0  0  0  0  0  0  0  0  0  0  0  0
   -0.5410   24.2037  -23.3437 H   0  0  0  0  0  0  0  0  0  0  0  0
   -1.3074   23.0578  -24.4954 H   0  0  0  0  0  0  0  0  0  0  0  0
    0.4760   23.2730  -24.4954 H   0  0  0  0  0  0  0  0  0  0  0  0
    0.1442   26.4151  -24.0302 H   0  0  0  0  0  0  0  0  0  0  0  0
   -0.0684   28.2445  -25.7140 H   0  0  0  0  0  0  0  0  0  0  0  0
   -0.9219   27.7476  -28.0005 H   0  0  0  0  0  0  0  0  0  0  0  0
   -3.2370   25.7120  -31.0430 H   0  0  0  0  0  0  0  0  0  0  0  0
   -6.0442   25.7207  -29.8849 H   0  0  0  0  0  0  0  0  0  0  0  0
   -8.1688   24.6189  -30.5570 H   0  0  0  0  0  0  0  0  0  0  0  0
   -8.1276   22.5139  -31.8862 H   0  0  0  0  0  0  0  0  0  0  0  0
   -6.8884   20.7489  -33.0004 H   0  0  0  0  0  0  0  0  0  0  0  0
   -4.7186   19.6995  -33.6346 H   0  0  0  0  0  0  0  0  0  0  0  0
   -2.5687   20.7459  -32.9353 H   0  0  0  0  0  0  0  0  0  0  0  0
   -2.5695   22.8570  -31.6138 H   0  0  0  0  0  0  0  0  0  0  0  0
   -1.3639   23.5748  -26.9331 H   0  0  0  0  0  0  0  0  0  0  0  0
  1  2  1  0
  2  3  2  0
  3  4  1  0
  4  5  2  0
  5  6  1  0
  6  7  1  0
  7  8  1  0
  8  9  2  0
  8 10  1  0
 10 11  1  0
 11 12  2  0
 12 13  1  0
 13 14  2  0
 14 15  1  0
 15 16  2  0
 16 17  1  0
 17 18  2  0
 18 19  1  0
 19 20  2  0
  6 21  2  0
 21  2  1  0
 20 11  1  0
 20 15  1  0
  1 22  1  0
  1 23  1  0
  1 24  1  0
  3 25  1  0
  4 26  1  0
  5 27  1  0
 10 28  1  0
 12 29  1  0
 13 30  1  0
 14 31  1  0
 16 32  1  0
 17 33  1  0
 18 34  1  0
 19 35  1  0
 21 36  1  0
M  CHG  1   7  -1
M  END
>  <UniqueID>  (25) 
23

>  <SMILES>  (25) 
Cc1cccc([N-]C(=O)Nc2cccc3ccccc23)c1

>  <Energy>  (25) 
49.898521892380494

>  <Genealogy>  (25) 
Cc1cccc([N-]C(=O)Nc2cccc3ccccc23)c1 (protonated)
Cc1cccc([N-]C(=O)Nc2cccc3ccccc23)c1 (3D coordinates assigned)
Cc1cccc([N-]C(=O)Nc2cccc3ccccc23)c1 (optimized conformer: 49.898521892380494 kcal/mol)

>  <smiles>  (25) 
Cc1cccc(NC(=O)Nc2cccc3ccccc23)c1

>  <score_type>  (25) 
oracle

>  <origin>  (25) 
adgpu

>  <m_score__min__energy>  (25) 
-9.3100000000000005

>  <m_primary>  (25) 
energy

$$$$
25:0
     RDKit          3D

 50 52  0  0  0  0  0  0  0  0999 V2000
   -0.7310   20.2200  -34.5620 C   0  0  0  0  0  0  0  0  0  0  0  0
   -1.8940   20.5140  -33.6610 C   0  0  0  0  0  0  0  0  0  0  0  0
   -1.7770   21.4750  -32.6460 C   0  0  0  0  0  0  0  0  0  0  0  0
   -2.8720   21.7860  -31.8270 C   0  0  0  0  0  0  0  0  0  0  0  0
   -2.7130   22.7520  -30.7730 N   0  0  0  0  0  0  0  0  0  0  0  0
   -2.6390   22.4090  -29.3790 C   0  0  0  0  0  0  0  0  0  0  0  0
   -3.1160   21.3120  -28.9770 O   0  0  0  0  0  0  0  0  0  0  0  0
   -2.0750   23.3610  -28.3930 C   0  0  0  0  0  0  0  0  0  0  0  0
   -1.4130   22.8660  -27.2550 C   0  0  0  0  0  0  0  0  0  0  0  0
   -0.8680   23.7420  -26.3030 C   0  0  0  0  0  0  0  0  0  0  0  0
   -0.2090   23.1990  -25.0690 C   0  0  0  0  0  0  0  0  0  0  0  0
   -1.0070   25.1250  -26.4810 C   0  0  0  0  0  0  0  0  0  0  0  0
   -1.6470   25.6280  -27.6140 C   0  0  0  0  0  0  0  0  0  0  0  0
   -2.1710   24.7570  -28.5760 C   0  0  0  0  0  0  0  0  0  0  0  0
   -2.7620   25.2930  -29.7140 O   0  0  0  0  0  0  0  0  0  0  0  0
   -4.0880   21.1080  -32.0200 C   0  0  0  0  0  0  0  0  0  0  0  0
   -4.2190   20.1630  -33.0440 C   0  0  0  0  0  0  0  0  0  0  0  0
   -5.7560   19.3260  -33.2590 S   0  0  0  0  0  0  0  0  0  0  0  0
   -6.5420   20.0400  -34.3240 O   0  0  0  0  0  0  0  0  0  0  0  0
   -5.5120   17.9110  -33.7040 O   0  0  0  0  0  0  0  0  0  0  0  0
   -6.6290   19.3450  -31.7430 N   0  0  0  0  0  0  0  0  0  0  0  0
   -7.5420   18.1790  -31.6130 C   0  0  0  0  0  0  0  0  0  0  0  0
   -9.0280   18.5550  -31.5000 C   0  0  0  0  0  0  0  0  0  0  0  0
   -9.3850   19.6350  -32.5200 C   0  0  0  0  0  0  0  0  0  0  0  0
   -8.5150   20.8930  -32.3510 C   0  0  0  0  0  0  0  0  0  0  0  0
   -7.2610   20.6540  -31.4880 C   0  0  0  0  0  0  0  0  0  0  0  0
   -3.1240   19.8730  -33.8680 C   0  0  0  0  0  0  0  0  0  0  0  0
    0.1571   19.9955  -33.9530 H   0  0  0  0  0  0  0  0  0  0  0  0
   -0.9688   19.3537  -35.1968 H   0  0  0  0  0  0  0  0  0  0  0  0
   -0.5286   21.0952  -35.1968 H   0  0  0  0  0  0  0  0  0  0  0  0
   -0.8172   21.9896  -32.4910 H   0  0  0  0  0  0  0  0  0  0  0  0
   -2.7590   23.7650  -31.0230 H   0  0  0  0  0  0  0  0  0  0  0  0
   -1.3212   21.7796  -27.1092 H   0  0  0  0  0  0  0  0  0  0  0  0
   -0.7062   23.6086  -24.1774 H   0  0  0  0  0  0  0  0  0  0  0  0
   -0.2900   22.1020  -25.0625 H   0  0  0  0  0  0  0  0  0  0  0  0
    0.8523   23.4883  -25.0625 H   0  0  0  0  0  0  0  0  0  0  0  0
   -0.6097   25.8171  -25.7240 H   0  0  0  0  0  0  0  0  0  0  0  0
   -1.7403   26.7153  -27.7520 H   0  0  0  0  0  0  0  0  0  0  0  0
   -4.9428   21.3217  -31.3615 H   0  0  0  0  0  0  0  0  0  0  0  0
   -7.4139   17.5395  -32.4988 H   0  0  0  0  0  0  0  0  0  0  0  0
   -7.2722   17.6677  -30.6772 H   0  0  0  0  0  0  0  0  0  0  0  0
   -9.6427   17.6623  -31.6877 H   0  0  0  0  0  0  0  0  0  0  0  0
   -9.2214   18.9424  -30.4888 H   0  0  0  0  0  0  0  0  0  0  0  0
   -9.2346   19.2318  -33.5324 H   0  0  0  0  0  0  0  0  0  0  0  0
  -10.4347   19.9221  -32.3597 H   0  0  0  0  0  0  0  0  0  0  0  0
   -8.1942   21.2323  -33.3470 H   0  0  0  0  0  0  0  0  0  0  0  0
   -9.1278   21.6465  -31.8346 H   0  0  0  0  0  0  0  0  0  0  0  0
   -6.5289   21.4456  -31.7059 H   0  0  0  0  0  0  0  0  0  0  0  0
   -7.5778   20.6679  -30.4347 H   0  0  0  0  0  0  0  0  0  0  0  0
   -3.2293   19.1394  -34.6809 H   0  0  0  0  0  0  0  0  0  0  0  0
  1  2  1  0
  2  3  2  0
  3  4  1  0
  4  5  1  0
  5  6  1  0
  6  7  2  0
  6  8  1  0
  8  9  2  0
  9 10  1  0
 10 11  1  0
 10 12  2  0
 12 13  1  0
 13 14  2  0
 14 15  1  0
  4 16  2  0
 16 17  1  0
 17 18  1  0
 18 19  2  0
 18 20  2  0
 18 21  1  0
 21 22  1  0
 22 23  1  0
 23 24  1  0
 24 25  1  0
 25 26  1  0
 17 27  2  0
 27  2  1  0
 14  8  1  0
 26 21  1  0
  1 28  1  0
  1 29  1  0
  1 30  1  0
  3 31  1  0
  5 32  1  0
  9 33  1  0
 11 34  1  0
 11 35  1  0
 11 36  1  0
 12 37  1  0
 13 38  1  0
 16 39  1  0
 22 40  1  0
 22 41  1  0
 23 42  1  0
 23 43  1  0
 24 44  1  0
 24 45  1  0
 25 46  1  0
 25 47  1  0
 26 48  1  0
 26 49  1  0
 27 50  1  0
M  CHG  1  15  -1
M  END
>  <UniqueID>  (26) 
24

>  <SMILES>  (26) 
Cc1cc(NC(=O)c2cc(C)ccc2[O-])cc(S(=O)(=O)N2CCCCC2)c1

>  <Energy>  (26) 
63.70146790089538

>  <Genealogy>  (26) 
Cc1cc(NC(=O)c2cc(C)ccc2[O-])cc(S(=O)(=O)N2CCCCC2)c1 (protonated)
Cc1cc(NC(=O)c2cc(C)ccc2[O-])cc(S(=O)(=O)N2CCCCC2)c1 (3D coordinates assigned)
Cc1cc(NC(=O)c2cc(C)ccc2[O-])cc(S(=O)(=O)N2CCCCC2)c1 (nonaromatic ring conformer: 63.70146790089538 kcal/mol)

>  <smiles>  (26) 
Cc1cc(NC(=O)c2cc(C)ccc2O)cc(S(=O)(=O)N2CCCCC2)c1

>  <score_type>  (26) 
oracle

>  <origin>  (26) 
adgpu

>  <m_score__min__energy>  (26) 
-12.18

>  <m_primary>  (26) 
energy

$$$$
26:0
     RDKit          3D

 38 40  0  0  0  0  0  0  0  0999 V2000
   -5.2850   21.1660  -33.4400 O   0  0  0  0  0  0  0  0  0  0  0  0
   -5.7650   21.6830  -32.3940 C   0  0  0  0  0  0  0  0  0  0  0  0
   -4.9310   22.6180  -31.6060 C   0  0  0  0  0  0  0  0  0  0  0  0
   -5.4180   23.8850  -31.2440 C   0  0  0  0  0  0  0  0  0  0  0  0
   -4.6300   24.7570  -30.4880 C   0  0  0  0  0  0  0  0  0  0  0  0
   -3.3440   24.3710  -30.0700 C   0  0  0  0  0  0  0  0  0  0  0  0
   -2.5020   25.2330  -29.2940 N   0  0  0  0  0  0  0  0  0  0  0  0
   -1.3360   24.7050  -28.1250 S   0  0  0  0  0  0  0  0  0  0  0  0
   -1.7650   23.3800  -27.5580 O   0  0  0  0  0  0  0  0  0  0  0  0
   -0.0010   24.5420  -28.7950 O   0  0  0  0  0  0  0  0  0  0  0  0
   -1.1930   25.8960  -26.8470 C   0  0  0  0  0  0  0  0  0  0  0  0
   -1.6150   25.7290  -25.5370 C   0  0  0  0  0  0  0  0  0  0  0  0
   -1.3540   26.8460  -24.7350 C   0  0  0  0  0  0  0  0  0  0  0  0
   -0.7290   27.8850  -25.4130 C   0  0  0  0  0  0  0  0  0  0  0  0
   -0.4980   27.4150  -27.0130 S   0  0  0  0  0  0  0  0  0  0  0  0
   -2.8660   23.1020  -30.4170 C   0  0  0  0  0  0  0  0  0  0  0  0
   -3.6530   22.2290  -31.1730 C   0  0  0  0  0  0  0  0  0  0  0  0
   -7.1120   21.3570  -32.0020 N   0  0  0  0  0  0  0  0  0  0  0  0
   -7.6110   19.9830  -32.1250 C   0  0  0  0  0  0  0  0  0  0  0  0
   -9.0620   20.0060  -32.6170 C   0  0  0  0  0  0  0  0  0  0  0  0
   -9.8550   20.8560  -31.8080 O   0  0  0  0  0  0  0  0  0  0  0  0
   -9.4110   22.1940  -31.9360 C   0  0  0  0  0  0  0  0  0  0  0  0
   -7.9920   22.3500  -31.3800 C   0  0  0  0  0  0  0  0  0  0  0  0
   -6.4264   24.1928  -31.5577 H   0  0  0  0  0  0  0  0  0  0  0  0
   -5.0177   25.7505  -30.2185 H   0  0  0  0  0  0  0  0  0  0  0  0
   -2.1033   24.8154  -25.1671 H   0  0  0  0  0  0  0  0  0  0  0  0
   -1.6188   26.8964  -23.6685 H   0  0  0  0  0  0  0  0  0  0  0  0
   -0.4348   28.8515  -24.9779 H   0  0  0  0  0  0  0  0  0  0  0  0
   -1.8627   22.7893  -30.0920 H   0  0  0  0  0  0  0  0  0  0  0  0
   -3.2690   21.2309  -31.4305 H   0  0  0  0  0  0  0  0  0  0  0  0
   -6.9890   19.4305  -32.8446 H   0  0  0  0  0  0  0  0  0  0  0  0
   -7.5655   19.4883  -31.1436 H   0  0  0  0  0  0  0  0  0  0  0  0
   -9.0851   20.3712  -33.6544 H   0  0  0  0  0  0  0  0  0  0  0  0
   -9.4692   18.9857  -32.5605 H   0  0  0  0  0  0  0  0  0  0  0  0
   -9.4150   22.4755  -32.9994 H   0  0  0  0  0  0  0  0  0  0  0  0
  -10.0878   22.8470  -31.3654 H   0  0  0  0  0  0  0  0  0  0  0  0
   -7.6198   23.3608  -31.6031 H   0  0  0  0  0  0  0  0  0  0  0  0
   -8.0059   22.1966  -30.2908 H   0  0  0  0  0  0  0  0  0  0  0  0
  1  2  2  0
  2  3  1  0
  3  4  2  0
  4  5  1  0
  5  6  2  0
  6  7  1  0
  7  8  1  0
  8  9  2  0
  8 10  2  0
  8 11  1  0
 11 12  2  0
 12 13  1  0
 13 14  2  0
 14 15  1  0
  6 16  1  0
 16 17  2  0
  2 18  1  0
 18 19  1  0
 19 20  1  0
 20 21  1  0
 21 22  1  0
 22 23  1  0
 17  3  1  0
 23 18  1  0
 15 11  1  0
  4 24  1  0
  5 25  1  0
 12 26  1  0
 13 27  1  0
 14 28  1  0
 16 29  1  0
 17 30  1  0
 19 31  1  0
 19 32  1  0
 20 33  1  0
 20 34  1  0
 22 35  1  0
 22 36  1  0
 23 37  1  0
 23 38  1  0
M  CHG  1   7  -1
M  END
>  <UniqueID>  (27) 
25

>  <SMILES>  (27) 
O=C(c1ccc([N-]S(=O)(=O)c2cccs2)cc1)N1CCOCC1

>  <Energy>  (27) 
75.0257507121549

>  <Genealogy>  (27) 
O=C(c1ccc([N-]S(=O)(=O)c2cccs2)cc1)N1CCOCC1 (protonated)
O=C(c1ccc([N-]S(=O)(=O)c2cccs2)cc1)N1CCOCC1 (3D coordinates assigned)
O=C(c1ccc([N-]S(=O)(=O)c2cccs2)cc1)N1CCOCC1 (nonaromatic ring conformer: 75.0257507121549 kcal/mol)

>  <smiles>  (27) 
O=C(c1ccc(NS(=O)(=O)c2cccs2)cc1)N1CCOCC1

>  <score_type>  (27) 
oracle

>  <origin>  (27) 
adgpu

>  <m_score__min__energy>  (27) 
-9.5999999999999996

>  <m_primary>  (27) 
energy

$$$$
27:0
     RDKit          3D

 43 45  0  0  0  0  0  0  0  0999 V2000
   -4.1852   20.4125  -33.2437 H   0  0  0  0  0  0  0  0  0  0  0  0
   -4.2160   21.3940  -32.7480 C   0  0  0  0  0  0  0  0  0  0  0  0
   -5.5210   22.0540  -32.5410 C   0  0  0  0  0  0  0  0  0  0  0  0
   -5.6560   23.2890  -32.7570 O   0  0  0  0  0  0  0  0  0  0  0  0
   -6.6860   21.2710  -32.0830 C   0  0  0  0  0  0  0  0  0  0  0  0
   -7.0300   20.1320  -32.8250 C   0  0  0  0  0  0  0  0  0  0  0  0
   -6.3430   19.7555  -33.5972 H   0  0  0  0  0  0  0  0  0  0  0  0
   -8.2330   19.4750  -32.5920 C   0  0  0  0  0  0  0  0  0  0  0  0
   -8.4924   18.5718  -33.1638 H   0  0  0  0  0  0  0  0  0  0  0  0
   -9.1050   19.9710  -31.6290 C   0  0  0  0  0  0  0  0  0  0  0  0
  -10.0742   19.4785  -31.4616 H   0  0  0  0  0  0  0  0  0  0  0  0
   -8.7640   21.0620  -30.8940 N   0  0  0  0  0  0  0  0  0  0  0  0
   -9.4340   21.3880  -30.1600 H   0  0  0  0  0  0  0  0  0  0  0  0
   -7.5680   21.7030  -31.0440 C   0  0  0  0  0  0  0  0  0  0  0  0
   -7.2910   22.6700  -30.2070 N   0  0  0  0  0  0  0  0  0  0  0  0
   -6.0400   23.3330  -29.9780 C   0  0  0  0  0  0  0  0  0  0  0  0
   -5.8510   24.6650  -30.3810 C   0  0  0  0  0  0  0  0  0  0  0  0
   -6.6699   25.2101  -30.8732 H   0  0  0  0  0  0  0  0  0  0  0  0
   -4.6270   25.3000  -30.1590 C   0  0  0  0  0  0  0  0  0  0  0  0
   -4.4949   26.3506  -30.4570 H   0  0  0  0  0  0  0  0  0  0  0  0
   -3.5670   24.6090  -29.5600 C   0  0  0  0  0  0  0  0  0  0  0  0
   -2.3630   25.2960  -29.3430 O   0  0  0  0  0  0  0  0  0  0  0  0
   -1.2930   24.8060  -28.5430 C   0  0  0  0  0  0  0  0  0  0  0  0
   -1.5474   24.9225  -27.4792 H   0  0  0  0  0  0  0  0  0  0  0  0
   -1.1262   23.7418  -28.7657 H   0  0  0  0  0  0  0  0  0  0  0  0
   -0.3783   25.3750  -28.7657 H   0  0  0  0  0  0  0  0  0  0  0  0
   -3.7430   23.2580  -29.2020 C   0  0  0  0  0  0  0  0  0  0  0  0
   -2.9125   22.7000  -28.7450 H   0  0  0  0  0  0  0  0  0  0  0  0
   -4.9690   22.6230  -29.4250 C   0  0  0  0  0  0  0  0  0  0  0  0
   -5.0916   21.5613  -29.1646 H   0  0  0  0  0  0  0  0  0  0  0  0
   -3.0680   21.9590  -32.3480 C   0  0  0  0  0  0  0  0  0  0  0  0
   -3.1075   22.9708  -31.9183 H   0  0  0  0  0  0  0  0  0  0  0  0
   -1.7490   21.2930  -32.4540 C   0  0  0  0  0  0  0  0  0  0  0  0
   -1.0910   20.9110  -31.2730 C   0  0  0  0  0  0  0  0  0  0  0  0
   -1.5610   21.1074  -30.2980 H   0  0  0  0  0  0  0  0  0  0  0  0
    0.1570   20.2830  -31.3280 C   0  0  0  0  0  0  0  0  0  0  0  0
    0.6604   19.9804  -30.3979 H   0  0  0  0  0  0  0  0  0  0  0  0
    0.7660   20.0390  -32.5610 C   0  0  0  0  0  0  0  0  0  0  0  0
    1.9770   19.4320  -32.6140 F   0  0  0  0  0  0  0  0  0  0  0  0
    0.1280   20.4290  -33.7420 C   0  0  0  0  0  0  0  0  0  0  0  0
    0.6096   20.2415  -34.7130 H   0  0  0  0  0  0  0  0  0  0  0  0
   -1.1210   21.0570  -33.6930 C   0  0  0  0  0  0  0  0  0  0  0  0
   -1.6148   21.3678  -34.6255 H   0  0  0  0  0  0  0  0  0  0  0  0
  1  2  1  0
  2  3  1  0
  3  4  2  0
  3  5  1  0
  5  6  2  0
  6  7  1  0
  6  8  1  0
  8  9  1  0
  8 10  2  0
 10 11  1  0
 10 12  1  0
 12 13  1  0
 12 14  1  0
 14 15  2  3
 15 16  1  0
 16 17  2  0
 17 18  1  0
 17 19  1  0
 19 20  1  0
 19 21  2  0
 21 22  1  0
 22 23  1  0
 23 24  1  0
 23 25  1  0
 23 26  1  0
 21 27  1  0
 27 28  1  0
 27 29  2  0
 29 30  1  0
  2 31  2  0
 31 32  1  0
 31 33  1  0
 33 34  2  0
 34 35  1  0
 34 36  1  0
 36 37  1  0
 36 38  2  0
 38 39  1  0
 38 40  1  0
 40 41  1  0
 40 42  2  0
 42 43  1  0
 14  5  1  0
 29 16  1  0
 42 33  1  0
M  END
>  <UniqueID>  (28) 
26

>  <SMILES>  (28) 
COc1ccc(N=c2[nH]cccc2C(=O)/C=C/c2ccc(F)cc2)cc1

>  <Energy>  (28) 
67.0067680528822

>  <Genealogy>  (28) 
COc1ccc(N=c2[nH]cccc2C(=O)/C=C/c2ccc(F)cc2)cc1 (cis-trans isomerization)
COc1ccc(N=c2[nH]cccc2C(=O)/C=C/c2ccc(F)cc2)cc1 (3D coordinates assigned)
COc1ccc(N=c2[nH]cccc2C(=O)/C=C/c2ccc(F)cc2)cc1 (optimized conformer: 67.0067680528822 kcal/mol)

>  <smiles>  (28) 
COc1ccc(N=c2[nH]cccc2C(=O)C=Cc2ccc(F)cc2)cc1

>  <score_type>  (28) 
oracle

>  <origin>  (28) 
adgpu

>  <m_score__min__energy>  (28) 
-8.3300000000000001

>  <m_primary>  (28) 
energy

$$$$
28:0
     RDKit          3D

 53 56  0  0  0  0  0  0  0  0999 V2000
   -9.7940   21.7490  -31.8950 C   0  0  0  0  0  0  0  0  0  0  0  0
   -8.9120   20.5460  -32.1000 C   0  0  0  0  0  0  0  0  0  0  0  0
   -9.4980   19.3000  -32.3700 C   0  0  0  0  0  0  0  0  0  0  0  0
   -8.7220   18.2130  -32.6070 N   0  0  0  0  0  0  0  0  0  0  0  0
   -7.3660   18.2960  -32.5770 C   0  0  0  0  0  0  0  0  0  0  0  0
   -6.5530   17.1420  -32.8700 N   0  0  0  0  0  0  0  0  0  0  0  0
   -5.5940   16.6290  -31.8830 C   0  0  0  0  0  0  0  0  0  0  0  0
   -4.3030   16.1120  -32.5560 C   0  0  0  0  0  0  0  0  0  0  0  0
   -4.4780   15.6330  -33.9520 N   0  0  0  0  0  0  0  0  0  0  0  0
   -3.9940   16.6100  -34.9530 C   0  0  0  0  0  0  0  0  0  0  0  0
   -3.5480   17.8810  -34.2740 C   0  0  0  0  0  0  0  0  0  0  0  0
   -4.4510   18.9460  -34.1190 C   0  0  0  0  0  0  0  0  0  0  0  0
   -4.0410   20.1290  -33.4940 C   0  0  0  0  0  0  0  0  0  0  0  0
   -2.7290   20.2540  -33.0220 C   0  0  0  0  0  0  0  0  0  0  0  0
   -1.8250   19.1970  -33.1740 C   0  0  0  0  0  0  0  0  0  0  0  0
   -2.2310   18.0140  -33.7960 C   0  0  0  0  0  0  0  0  0  0  0  0
   -5.8590   15.1930  -34.2300 C   0  0  0  0  0  0  0  0  0  0  0  0
   -6.8540   16.3480  -34.0700 C   0  0  0  0  0  0  0  0  0  0  0  0
   -6.7770   19.4890  -32.2990 N   0  0  0  0  0  0  0  0  0  0  0  0
   -7.4980   20.6170  -32.0610 C   0  0  0  0  0  0  0  0  0  0  0  0
   -6.7540   21.8730  -31.7900 C   0  0  0  0  0  0  0  0  0  0  0  0
   -6.6430   22.7480  -32.6880 O   0  0  0  0  0  0  0  0  0  0  0  0
   -6.2370   22.1690  -30.4830 N   0  0  0  0  0  0  0  0  0  0  0  0
   -5.1340   23.0380  -30.1840 C   0  0  0  0  0  0  0  0  0  0  0  0
   -5.2690   24.4110  -30.4250 C   0  0  0  0  0  0  0  0  0  0  0  0
   -4.2160   25.2850  -30.1360 C   0  0  0  0  0  0  0  0  0  0  0  0
   -3.0150   24.7910  -29.6200 C   0  0  0  0  0  0  0  0  0  0  0  0
   -1.9770   25.6700  -29.3290 O   0  0  0  0  0  0  0  0  0  0  0  0
   -2.8610   23.4150  -29.4010 C   0  0  0  0  0  0  0  0  0  0  0  0
   -1.3590   22.7750  -28.7520 Cl  0  0  0  0  0  0  0  0  0  0  0  0
   -3.9130   22.5400  -29.6930 C   0  0  0  0  0  0  0  0  0  0  0  0
   -9.9253   21.9281  -30.8176 H   0  0  0  0  0  0  0  0  0  0  0  0
   -9.3262   22.6299  -32.3588 H   0  0  0  0  0  0  0  0  0  0  0  0
  -10.7749   21.5678  -32.3588 H   0  0  0  0  0  0  0  0  0  0  0  0
  -10.5936   19.2041  -32.3896 H   0  0  0  0  0  0  0  0  0  0  0  0
   -5.3329   17.4385  -31.1855 H   0  0  0  0  0  0  0  0  0  0  0  0
   -6.0646   15.7881  -31.3525 H   0  0  0  0  0  0  0  0  0  0  0  0
   -3.5695   16.9317  -32.5647 H   0  0  0  0  0  0  0  0  0  0  0  0
   -3.9740   15.2421  -31.9686 H   0  0  0  0  0  0  0  0  0  0  0  0
   -3.1459   16.1758  -35.5027 H   0  0  0  0  0  0  0  0  0  0  0  0
   -4.8139   16.8452  -35.6476 H   0  0  0  0  0  0  0  0  0  0  0  0
   -5.4822   18.8498  -34.4896 H   0  0  0  0  0  0  0  0  0  0  0  0
   -4.7501   20.9613  -33.3735 H   0  0  0  0  0  0  0  0  0  0  0  0
   -2.4083   21.1846  -32.5309 H   0  0  0  0  0  0  0  0  0  0  0  0
   -0.7942   19.2976  -32.8035 H   0  0  0  0  0  0  0  0  0  0  0  0
   -1.5190   17.1836  -33.9126 H   0  0  0  0  0  0  0  0  0  0  0  0
   -5.9135   14.8133  -35.2609 H   0  0  0  0  0  0  0  0  0  0  0  0
   -6.1238   14.4043  -33.5104 H   0  0  0  0  0  0  0  0  0  0  0  0
   -6.7953   16.9982  -34.9553 H   0  0  0  0  0  0  0  0  0  0  0  0
   -7.8650   15.9270  -33.9665 H   0  0  0  0  0  0  0  0  0  0  0  0
   -6.2074   24.8038  -30.8435 H   0  0  0  0  0  0  0  0  0  0  0  0
   -4.3335   26.3639  -30.3153 H   0  0  0  0  0  0  0  0  0  0  0  0
   -3.7851   21.4585  -29.5381 H   0  0  0  0  0  0  0  0  0  0  0  0
  1  2  1  0
  2  3  2  0
  3  4  1  0
  4  5  2  0
  5  6  1  0
  6  7  1  0
  7  8  1  0
  8  9  1  0
  9 10  1  0
 10 11  1  0
 11 12  2  0
 12 13  1  0
 13 14  2  0
 14 15  1  0
 15 16  2  0
  9 17  1  0
 17 18  1  0
  5 19  1  0
 19 20  2  0
 20 21  1  0
 21 22  2  0
 21 23  1  0
 23 24  1  0
 24 25  2  0
 25 26  1  0
 26 27  2  0
 27 28  1  0
 27 29  1  0
 29 30  1  0
 29 31  2  0
 20  2  1  0
 31 24  1  0
 18  6  1  0
 16 11  1  0
  1 32  1  0
  1 33  1  0
  1 34  1  0
  3 35  1  0
  7 36  1  0
  7 37  1  0
  8 38  1  0
  8 39  1  0
 10 40  1  0
 10 41  1  0
 12 42  1  0
 13 43  1  0
 14 44  1  0
 15 45  1  0
 16 46  1  0
 17 47  1  0
 17 48  1  0
 18 49  1  0
 18 50  1  0
 25 51  1  0
 26 52  1  0
 31 53  1  0
M  CHG  2  23  -1  28  -1
M  END
>  <UniqueID>  (29) 
27

>  <SMILES>  (29) 
Cc1cnc(N2CCN(Cc3ccccc3)CC2)nc1C(=O)[N-]c1ccc([O-])c(Cl)c1

>  <Energy>  (29) 
71.80154434078844

>  <Genealogy>  (29) 
Cc1cnc(N2CCN(Cc3ccccc3)CC2)nc1C(=O)[N-]c1ccc([O-])c(Cl)c1 (protonated)
Cc1cnc(N2CCN(Cc3ccccc3)CC2)nc1C(=O)[N-]c1ccc([O-])c(Cl)c1 (3D coordinates assigned)
Cc1cnc(N2CCN(Cc3ccccc3)CC2)nc1C(=O)[N-]c1ccc([O-])c(Cl)c1 (nonaromatic ring conformer: 71.80154434078844 kcal/mol)

>  <smiles>  (29) 
Cc1cnc(N2CCN(Cc3ccccc3)CC2)nc1C(=O)Nc1ccc(O)c(Cl)c1

>  <score_type>  (29) 
oracle

>  <origin>  (29) 
adgpu

>  <m_score__min__energy>  (29) 
-11.9

>  <m_primary>  (29) 
energy

$$$$
29:0
     RDKit          3D

 48 50  0  0  0  0  0  0  0  0999 V2000
    0.0280   20.8370  -33.3980 C   0  0  0  0  0  0  0  0  0  0  0  0
   -1.0290   21.1130  -32.3830 C   0  0  0  0  0  0  0  0  0  0  0  0
   -0.8030   21.1050  -31.0510 N   0  0  0  0  0  0  0  0  0  0  0  0
   -1.9120   21.4560  -30.3460 C   0  0  0  0  0  0  0  0  0  0  0  0
   -3.0220   21.7580  -31.1260 C   0  0  0  0  0  0  0  0  0  0  0  0
   -4.3580   22.2010  -30.6160 C   0  0  0  0  0  0  0  0  0  0  0  0
   -4.7270   23.5050  -31.2080 N   0  0  0  0  0  0  0  0  0  0  0  0
   -5.3650   23.3790  -32.5460 C   0  0  0  0  0  0  0  0  0  0  0  0
   -6.8450   23.8060  -32.5750 C   0  0  0  0  0  0  0  0  0  0  0  0
   -7.6150   23.2570  -31.3530 C   0  0  0  0  0  0  0  0  0  0  0  0
   -7.7080   21.7620  -31.3640 N   0  0  0  0  0  0  0  0  0  0  0  0
   -8.8250   21.2330  -30.5480 C   0  0  0  0  0  0  0  0  0  0  0  0
   -7.6420   21.1230  -32.7100 C   0  0  0  0  0  0  0  0  0  0  0  0
   -6.6890   19.9310  -32.8220 C   0  0  0  0  0  0  0  0  0  0  0  0
   -5.4130   20.1000  -33.3970 C   0  0  0  0  0  0  0  0  0  0  0  0
   -4.5320   19.0240  -33.5190 C   0  0  0  0  0  0  0  0  0  0  0  0
   -4.9170   17.7530  -33.1000 C   0  0  0  0  0  0  0  0  0  0  0  0
   -6.1930   17.5480  -32.5790 C   0  0  0  0  0  0  0  0  0  0  0  0
   -7.0900   18.6180  -32.4520 C   0  0  0  0  0  0  0  0  0  0  0  0
   -8.4200   18.3260  -31.9700 C   0  0  0  0  0  0  0  0  0  0  0  0
   -9.4850   18.0920  -31.5830 N   0  0  0  0  0  0  0  0  0  0  0  0
   -6.9350   23.8070  -30.0540 C   0  0  0  0  0  0  0  0  0  0  0  0
   -5.5030   24.3400  -30.2680 C   0  0  0  0  0  0  0  0  0  0  0  0
   -2.6020   21.5870  -32.7460 S   0  0  0  0  0  0  0  0  0  0  0  0
    0.9709   20.5908  -32.8878 H   0  0  0  0  0  0  0  0  0  0  0  0
   -0.2805   19.9893  -34.0275 H   0  0  0  0  0  0  0  0  0  0  0  0
    0.1733   21.7273  -34.0275 H   0  0  0  0  0  0  0  0  0  0  0  0
   -1.9290   21.4975  -29.2469 H   0  0  0  0  0  0  0  0  0  0  0  0
   -5.1165   21.4518  -30.8871 H   0  0  0  0  0  0  0  0  0  0  0  0
   -4.3064   22.3065  -29.5223 H   0  0  0  0  0  0  0  0  0  0  0  0
   -4.8088   24.0092  -33.2556 H   0  0  0  0  0  0  0  0  0  0  0  0
   -5.3352   22.3127  -32.8146 H   0  0  0  0  0  0  0  0  0  0  0  0
   -6.9006   24.9046  -32.5688 H   0  0  0  0  0  0  0  0  0  0  0  0
   -7.3053   23.3966  -33.4863 H   0  0  0  0  0  0  0  0  0  0  0  0
   -8.6575   23.6061  -31.3905 H   0  0  0  0  0  0  0  0  0  0  0  0
   -8.5851   21.3466  -29.4805 H   0  0  0  0  0  0  0  0  0  0  0  0
   -9.7442   21.7915  -30.7787 H   0  0  0  0  0  0  0  0  0  0  0  0
   -8.9753   20.1680  -30.7787 H   0  0  0  0  0  0  0  0  0  0  0  0
   -8.6526   20.7759  -32.9713 H   0  0  0  0  0  0  0  0  0  0  0  0
   -7.2497   21.8913  -33.3925 H   0  0  0  0  0  0  0  0  0  0  0  0
   -5.1071   21.0942  -33.7547 H   0  0  0  0  0  0  0  0  0  0  0  0
   -3.5310   19.1806  -33.9473 H   0  0  0  0  0  0  0  0  0  0  0  0
   -4.2139   16.9109  -33.1803 H   0  0  0  0  0  0  0  0  0  0  0  0
   -6.4988   16.5391  -32.2650 H   0  0  0  0  0  0  0  0  0  0  0  0
   -7.5536   24.6275  -29.6615 H   0  0  0  0  0  0  0  0  0  0  0  0
   -6.8567   22.9611  -29.3552 H   0  0  0  0  0  0  0  0  0  0  0  0
   -5.5627   25.3623  -30.6698 H   0  0  0  0  0  0  0  0  0  0  0  0
   -4.9880   24.3189  -29.2962 H   0  0  0  0  0  0  0  0  0  0  0  0
  1  2  1  0
  2  3  2  0
  3  4  1  0
  4  5  2  0
  5  6  1  0
  6  7  1  0
  7  8  1  0
  8  9  1  0
  9 10  1  0
 10 11  1  0
 11 12  1  0
 11 13  1  0
 13 14  1  0
 14 15  2  0
 15 16  1  0
 16 17  2  0
 17 18  1  0
 18 19  2  0
 19 20  1  0
 20 21  3  0
 10 22  1  0
 22 23  1  0
  5 24  1  0
 24  2  1  0
 23  7  1  0
 19 14  1  0
  1 25  1  0
  1 26  1  0
  1 27  1  0
  4 28  1  0
  6 29  1  0
  6 30  1  0
  8 31  1  0
  8 32  1  0
  9 33  1  0
  9 34  1  0
 10 35  1  0
 12 36  1  0
 12 37  1  0
 12 38  1  0
 13 39  1  0
 13 40  1  0
 15 41  1  0
 16 42  1  0
 17 43  1  0
 18 44  1  0
 22 45  1  0
 22 46  1  0
 23 47  1  0
 23 48  1  0
M  END
>  <UniqueID>  (30) 
28

>  <SMILES>  (30) 
Cc1ncc(CN2CCC(N(C)Cc3ccccc3C#N)CC2)s1

>  <Energy>  (30) 
101.78136080136623

>  <Genealogy>  (30) 
Cc1ncc(CN2CCC(N(C)Cc3ccccc3C#N)CC2)s1 (3D coordinates assigned)
Cc1ncc(CN2CCC(N(C)Cc3ccccc3C#N)CC2)s1 (nonaromatic ring conformer: 101.78136080136623 kcal/mol)

>  <smiles>  (30) 
Cc1ncc(CN2CCC(N(C)Cc3ccccc3C#N)CC2)s1

>  <score_type>  (30) 
oracle

>  <origin>  (30) 
adgpu

>  <m_score__min__energy>  (30) 
-8.3900000000000006

>  <m_primary>  (30) 
energy

$$$$
30:0
     RDKit          3D

 66 69  0  0  0  0  0  0  0  0999 V2000
    2.7180   17.9900  -27.4870 C   0  0  0  0  0  0  0  0  0  0  0  0
    2.1570   18.6200  -28.7340 C   0  0  0  0  0  0  0  0  0  0  0  0
    2.8090   18.3950  -29.9550 C   0  0  0  0  0  0  0  0  0  0  0  0
    2.2870   18.8990  -31.1460 C   0  0  0  0  0  0  0  0  0  0  0  0
    1.0930   19.6390  -31.1430 C   0  0  0  0  0  0  0  0  0  0  0  0
    0.5160   20.1390  -32.4160 C   0  0  0  0  0  0  0  0  0  0  0  0
    1.3300   20.3070  -33.5510 C   0  0  0  0  0  0  0  0  0  0  0  0
    0.7780   20.7390  -34.7580 C   0  0  0  0  0  0  0  0  0  0  0  0
   -0.5870   21.0140  -34.8490 C   0  0  0  0  0  0  0  0  0  0  0  0
   -1.4160   20.8750  -33.7220 C   0  0  0  0  0  0  0  0  0  0  0  0
   -2.8330   21.1140  -33.7990 N   0  0  0  0  0  0  0  0  0  0  0  0
   -3.8290   20.1800  -33.3520 C   0  0  0  0  0  0  0  0  0  0  0  0
   -3.5760   18.9430  -33.3740 O   0  0  0  0  0  0  0  0  0  0  0  0
   -5.1690   20.6450  -32.9160 C   0  0  0  0  0  0  0  0  0  0  0  0
   -5.4030   22.0020  -32.6300 C   0  0  0  0  0  0  0  0  0  0  0  0
   -6.6710   22.4330  -32.2330 C   0  0  0  0  0  0  0  0  0  0  0  0
   -7.7160   21.5170  -32.1000 C   0  0  0  0  0  0  0  0  0  0  0  0
   -7.4970   20.1520  -32.3420 C   0  0  0  0  0  0  0  0  0  0  0  0
   -8.6290   19.1600  -32.2380 C   0  0  0  0  0  0  0  0  0  0  0  0
   -9.6760   19.5140  -33.0730 F   0  0  0  0  0  0  0  0  0  0  0  0
   -8.1710   17.9060  -32.5970 F   0  0  0  0  0  0  0  0  0  0  0  0
   -9.1090   19.1120  -30.9400 F   0  0  0  0  0  0  0  0  0  0  0  0
   -6.2260   19.7270  -32.7680 C   0  0  0  0  0  0  0  0  0  0  0  0
   -0.8580   20.4270  -32.5140 C   0  0  0  0  0  0  0  0  0  0  0  0
    0.4520   19.8900  -29.9190 C   0  0  0  0  0  0  0  0  0  0  0  0
    0.9900   19.4200  -28.7130 C   0  0  0  0  0  0  0  0  0  0  0  0
    0.2930   19.7220  -27.4970 N   0  0  0  0  0  0  0  0  0  0  0  0
   -0.9920   20.3540  -27.4320 C   0  0  0  0  0  0  0  0  0  0  0  0
   -1.9670   19.7370  -26.9230 O   0  0  0  0  0  0  0  0  0  0  0  0
   -1.1680   21.7370  -27.9320 C   0  0  0  0  0  0  0  0  0  0  0  0
   -0.4130   22.7940  -27.3940 C   0  0  0  0  0  0  0  0  0  0  0  0
   -0.5810   24.0960  -27.8670 C   0  0  0  0  0  0  0  0  0  0  0  0
   -1.4950   24.3650  -28.8880 C   0  0  0  0  0  0  0  0  0  0  0  0
   -1.6410   25.6730  -29.3410 O   0  0  0  0  0  0  0  0  0  0  0  0
   -2.2560   23.3190  -29.4460 C   0  0  0  0  0  0  0  0  0  0  0  0
   -3.2640   23.5750  -30.5420 C   0  0  0  0  0  0  0  0  0  0  0  0
   -4.5970   23.8510  -29.9660 N   0  0  0  0  0  0  0  0  0  0  0  0
   -4.5260   23.9380  -28.4960 C   0  0  0  0  0  0  0  0  0  0  0  0
   -5.1300   25.1120  -30.5060 C   0  0  0  0  0  0  0  0  0  0  0  0
   -2.0890   22.0130  -28.9590 C   0  0  0  0  0  0  0  0  0  0  0  0
    2.2834   18.4781  -26.6022 H   0  0  0  0  0  0  0  0  0  0  0  0
    2.4695   16.9185  -27.4738 H   0  0  0  0  0  0  0  0  0  0  0  0
    3.8110   18.1131  -27.4738 H   0  0  0  0  0  0  0  0  0  0  0  0
    3.7430   17.8142  -29.9736 H   0  0  0  0  0  0  0  0  0  0  0  0
    2.8138   18.7158  -32.0941 H   0  0  0  0  0  0  0  0  0  0  0  0
    2.4078   20.0967  -33.4869 H   0  0  0  0  0  0  0  0  0  0  0  0
    1.4218   20.8632  -35.6413 H   0  0  0  0  0  0  0  0  0  0  0  0
   -1.0166   21.3412  -35.8073 H   0  0  0  0  0  0  0  0  0  0  0  0
   -3.1580   21.9870  -34.2720 H   0  0  0  0  0  0  0  0  0  0  0  0
   -4.5821   22.7287  -32.7195 H   0  0  0  0  0  0  0  0  0  0  0  0
   -6.8468   23.4986  -32.0243 H   0  0  0  0  0  0  0  0  0  0  0  0
   -8.7160   21.8668  -31.8041 H   0  0  0  0  0  0  0  0  0  0  0  0
   -6.0554   18.6629  -32.9886 H   0  0  0  0  0  0  0  0  0  0  0  0
   -1.5034   20.2994  -31.6324 H   0  0  0  0  0  0  0  0  0  0  0  0
   -0.4863   20.4640  -29.9065 H   0  0  0  0  0  0  0  0  0  0  0  0
    0.3153   22.5932  -26.5945 H   0  0  0  0  0  0  0  0  0  0  0  0
    0.0103   24.9157  -27.4329 H   0  0  0  0  0  0  0  0  0  0  0  0
   -2.9400   24.4421  -31.1363 H   0  0  0  0  0  0  0  0  0  0  0  0
   -3.3304   22.6812  -31.1798 H   0  0  0  0  0  0  0  0  0  0  0  0
   -5.1622   23.1585  -28.0514 H   0  0  0  0  0  0  0  0  0  0  0  0
   -3.4856   23.7923  -28.1699 H   0  0  0  0  0  0  0  0  0  0  0  0
   -4.8773   24.9281  -28.1699 H   0  0  0  0  0  0  0  0  0  0  0  0
   -5.4110   25.7767  -29.6758 H   0  0  0  0  0  0  0  0  0  0  0  0
   -4.3614   25.6006  -31.1229 H   0  0  0  0  0  0  0  0  0  0  0  0
   -6.0160   24.9012  -31.1229 H   0  0  0  0  0  0  0  0  0  0  0  0
   -2.6865   21.1942  -29.3863 H   0  0  0  0  0  0  0  0  0  0  0  0
  1  2  1  0
  2  3  2  0
  3  4  1  0
  4  5  2  0
  5  6  1  0
  6  7  2  0
  7  8  1  0
  8  9  2  0
  9 10  1  0
 10 11  1  0
 11 12  1  0
 12 13  2  0
 12 14  1  0
 14 15  2  0
 15 16  1  0
 16 17  2  0
 17 18  1  0
 18 19  1  0
 19 20  1  0
 19 21  1  0
 19 22  1  0
 18 23  2  0
 10 24  2  0
  5 25  1  0
 25 26  2  0
 26 27  1  0
 27 28  1  0
 28 29  2  0
 28 30  1  0
 30 31  2  0
 31 32  1  0
 32 33  2  0
 33 34  1  0
 33 35  1  0
 35 36  1  0
 36 37  1  0
 37 38  1  0
 37 39  1  0
 35 40  2  0
 26  2  1  0
 40 30  1  0
 24  6  1  0
 23 14  1  0
  1 41  1  0
  1 42  1  0
  1 43  1  0
  3 44  1  0
  4 45  1  0
  7 46  1  0
  8 47  1  0
  9 48  1  0
 11 49  1  0
 15 50  1  0
 16 51  1  0
 17 52  1  0
 23 53  1  0
 24 54  1  0
 25 55  1  0
 31 56  1  0
 32 57  1  0
 36 58  1  0
 36 59  1  0
 38 60  1  0
 38 61  1  0
 38 62  1  0
 39 63  1  0
 39 64  1  0
 39 65  1  0
 40 66  1  0
M  CHG  2  27  -1  34  -1
M  END
>  <UniqueID>  (31) 
29

>  <SMILES>  (31) 
Cc1ccc(-c2cccc(NC(=O)c3cccc(C(F)(F)F)c3)c2)cc1[N-]C(=O)c1ccc([O-])c(CN(C)C)c1

>  <Energy>  (31) 
89.95933634250282

>  <Genealogy>  (31) 
Cc1ccc(-c2cccc(NC(=O)c3cccc(C(F)(F)F)c3)c2)cc1[N-]C(=O)c1ccc([O-])c(CN(C)C)c1 (protonated)
Cc1ccc(-c2cccc(NC(=O)c3cccc(C(F)(F)F)c3)c2)cc1[N-]C(=O)c1ccc([O-])c(CN(C)C)c1 (3D coordinates assigned)
Cc1ccc(-c2cccc(NC(=O)c3cccc(C(F)(F)F)c3)c2)cc1[N-]C(=O)c1ccc([O-])c(CN(C)C)c1 (optimized conformer: 89.95933634250282 kcal/mol)

>  <smiles>  (31) 
Cc1ccc(-c2cccc(NC(=O)c3cccc(C(F)(F)F)c3)c2)cc1NC(=O)c1ccc(O)c(CN(C)C)c1

>  <score_type>  (31) 
oracle

>  <origin>  (31) 
adgpu

>  <m_score__min__energy>  (31) 
-13.51

>  <m_primary>  (31) 
energy

$$$$
31:0
     RDKit          3D

 47 49  0  0  0  0  0  0  0  0999 V2000
   -2.8450   24.5680  -29.3790 C   0  0  0  0  0  0  0  0  0  0  0  0
   -3.5860   25.1730  -30.4760 N   0  0  0  0  0  0  0  0  0  0  0  0
   -5.0140   25.2810  -30.5770 C   0  0  0  0  0  0  0  0  0  0  0  0
   -5.5260   26.4300  -30.5360 O   0  0  0  0  0  0  0  0  0  0  0  0
   -5.9040   24.1020  -30.7280 C   0  0  0  0  0  0  0  0  0  0  0  0
   -5.8200   23.2870  -31.8710 C   0  0  0  0  0  0  0  0  0  0  0  0
   -6.6290   22.1390  -31.9730 C   0  0  0  0  0  0  0  0  0  0  0  0
   -6.5950   21.2860  -33.0860 O   0  0  0  0  0  0  0  0  0  0  0  0
   -5.6710   20.2550  -33.3140 C   0  0  0  0  0  0  0  0  0  0  0  0
   -6.0400   19.2070  -34.1620 C   0  0  0  0  0  0  0  0  0  0  0  0
   -5.1530   18.1600  -34.4210 C   0  0  0  0  0  0  0  0  0  0  0  0
   -3.8930   18.1450  -33.8160 C   0  0  0  0  0  0  0  0  0  0  0  0
   -3.5230   19.1640  -32.9200 C   0  0  0  0  0  0  0  0  0  0  0  0
   -2.2290   19.1730  -32.2900 N   0  0  0  0  0  0  0  0  0  0  0  0
   -1.3530   20.3110  -32.2750 C   0  0  0  0  0  0  0  0  0  0  0  0
   -1.0360   21.1050  -33.6770 S   0  0  0  0  0  0  0  0  0  0  0  0
   -0.5350   20.5810  -31.1250 N   0  0  0  0  0  0  0  0  0  0  0  0
   -0.8160   20.0770  -29.8050 C   0  0  0  0  0  0  0  0  0  0  0  0
    0.0550   19.1530  -29.1980 C   0  0  0  0  0  0  0  0  0  0  0  0
   -0.2220   18.6420  -27.9280 C   0  0  0  0  0  0  0  0  0  0  0  0
   -1.3860   19.0230  -27.2600 C   0  0  0  0  0  0  0  0  0  0  0  0
   -2.2770   19.9140  -27.8580 C   0  0  0  0  0  0  0  0  0  0  0  0
   -2.0040   20.4530  -29.1270 C   0  0  0  0  0  0  0  0  0  0  0  0
   -2.9820   21.4170  -29.7440 C   0  0  0  0  0  0  0  0  0  0  0  0
   -4.4140   20.2200  -32.6800 C   0  0  0  0  0  0  0  0  0  0  0  0
   -7.5340   21.8540  -30.9470 C   0  0  0  0  0  0  0  0  0  0  0  0
   -7.5910   22.6830  -29.8270 C   0  0  0  0  0  0  0  0  0  0  0  0
   -6.7810   23.7700  -29.7410 N   0  0  0  0  0  0  0  0  0  0  0  0
   -3.2638   24.9099  -28.4210 H   0  0  0  0  0  0  0  0  0  0  0  0
   -2.9236   23.4727  -29.4435 H   0  0  0  0  0  0  0  0  0  0  0  0
   -1.7876   24.8641  -29.4435 H   0  0  0  0  0  0  0  0  0  0  0  0
   -5.1244   23.5456  -32.6829 H   0  0  0  0  0  0  0  0  0  0  0  0
   -7.0361   19.2070  -34.6286 H   0  0  0  0  0  0  0  0  0  0  0  0
   -5.4460   17.3468  -35.1014 H   0  0  0  0  0  0  0  0  0  0  0  0
   -3.1872   17.3321  -34.0418 H   0  0  0  0  0  0  0  0  0  0  0  0
   -1.9230   18.3190  -31.7680 H   0  0  0  0  0  0  0  0  0  0  0  0
    0.3190   21.1650  -31.2680 H   0  0  0  0  0  0  0  0  0  0  0  0
    0.9627   18.8302  -29.7289 H   0  0  0  0  0  0  0  0  0  0  0  0
    0.4783   17.9385  -27.4540 H   0  0  0  0  0  0  0  0  0  0  0  0
   -1.6016   18.6198  -26.2595 H   0  0  0  0  0  0  0  0  0  0  0  0
   -3.2008   20.1971  -27.3322 H   0  0  0  0  0  0  0  0  0  0  0  0
   -3.5229   21.9502  -28.9483 H   0  0  0  0  0  0  0  0  0  0  0  0
   -2.4384   22.1422  -30.3673 H   0  0  0  0  0  0  0  0  0  0  0  0
   -3.6993   20.8630  -30.3673 H   0  0  0  0  0  0  0  0  0  0  0  0
   -4.1285   21.0281  -31.9905 H   0  0  0  0  0  0  0  0  0  0  0  0
   -8.1980   20.9803  -31.0224 H   0  0  0  0  0  0  0  0  0  0  0  0
   -8.2934   22.4561  -29.0115 H   0  0  0  0  0  0  0  0  0  0  0  0
  1  2  1  0
  2  3  1  0
  3  4  2  0
  3  5  1  0
  5  6  2  0
  6  7  1  0
  7  8  1  0
  8  9  1  0
  9 10  2  0
 10 11  1  0
 11 12  2  0
 12 13  1  0
 13 14  1  0
 14 15  1  0
 15 16  2  0
 15 17  1  0
 17 18  1  0
 18 19  2  0
 19 20  1  0
 20 21  2  0
 21 22  1  0
 22 23  2  0
 23 24  1  0
 13 25  2  0
  7 26  2  0
 26 27  1  0
 27 28  2  0
 28  5  1  0
 25  9  1  0
 23 18  1  0
  1 29  1  0
  1 30  1  0
  1 31  1  0
  6 32  1  0
 10 33  1  0
 11 34  1  0
 12 35  1  0
 14 36  1  0
 17 37  1  0
 19 38  1  0
 20 39  1  0
 21 40  1  0
 22 41  1  0
 24 42  1  0
 24 43  1  0
 24 44  1  0
 25 45  1  0
 26 46  1  0
 27 47  1  0
M  CHG  1   2  -1
M  END
>  <UniqueID>  (32) 
30

>  <SMILES>  (32) 
C[N-]C(=O)c1cc(Oc2cccc(NC(=S)Nc3ccccc3C)c2)ccn1

>  <Energy>  (32) 
65.78496711194258

>  <Genealogy>  (32) 
C[N-]C(=O)c1cc(Oc2cccc(NC(=S)Nc3ccccc3C)c2)ccn1 (protonated)
C[N-]C(=O)c1cc(Oc2cccc(NC(=S)Nc3ccccc3C)c2)ccn1 (3D coordinates assigned)
C[N-]C(=O)c1cc(Oc2cccc(NC(=S)Nc3ccccc3C)c2)ccn1 (optimized conformer: 65.78496711194258 kcal/mol)

>  <smiles>  (32) 
CNC(=O)c1cc(Oc2cccc(NC(=S)Nc3ccccc3C)c2)ccn1

>  <score_type>  (32) 
oracle

>  <origin>  (32) 
adgpu

>  <m_score__min__energy>  (32) 
-10.68

>  <m_primary>  (32) 
energy

$$$$
32:0
     RDKit          3D

 45 47  0  0  0  0  0  0  0  0999 V2000
   -2.9530   18.5460  -26.1410 N   0  0  0  0  0  0  0  0  0  0  0  0
   -2.4070   19.5070  -26.4830 C   0  0  0  0  0  0  0  0  0  0  0  0
   -1.7270   20.7040  -26.9080 C   0  0  0  0  0  0  0  0  0  0  0  0
   -0.8800   21.3810  -26.0230 C   0  0  0  0  0  0  0  0  0  0  0  0
   -0.2150   22.5380  -26.4380 C   0  0  0  0  0  0  0  0  0  0  0  0
   -0.3990   23.0240  -27.7350 C   0  0  0  0  0  0  0  0  0  0  0  0
   -1.2610   22.3590  -28.6260 C   0  0  0  0  0  0  0  0  0  0  0  0
   -1.4620   22.8060  -29.9410 O   0  0  0  0  0  0  0  0  0  0  0  0
   -2.7070   23.1300  -30.4990 C   0  0  0  0  0  0  0  0  0  0  0  0
   -3.3480   22.1810  -31.3030 C   0  0  0  0  0  0  0  0  0  0  0  0
   -4.5940   22.4600  -31.8860 C   0  0  0  0  0  0  0  0  0  0  0  0
   -5.2810   21.4220  -32.7450 C   0  0  0  0  0  0  0  0  0  0  0  0
   -6.1830   20.5510  -31.9470 N   0  0  1  0  0  0  0  0  0  0  0  0
   -7.3930   21.2940  -31.5060 C   0  0  0  0  0  0  0  0  0  0  0  0
   -8.6450   21.0410  -32.3700 C   0  0  0  0  0  0  0  0  0  0  0  0
   -9.4930   19.8040  -31.9800 C   0  0  0  0  0  0  0  0  0  0  0  0
   -8.8890   18.5180  -32.3600 N   0  0  0  0  0  0  0  0  0  0  0  0
   -7.4770   18.3400  -31.9660 C   0  0  0  0  0  0  0  0  0  0  0  0
   -6.4620   19.2800  -32.6660 C   0  0  0  0  0  0  0  0  0  0  0  0
   -5.2080   23.6980  -31.6370 C   0  0  0  0  0  0  0  0  0  0  0  0
   -4.5850   24.6400  -30.8150 C   0  0  0  0  0  0  0  0  0  0  0  0
   -3.3450   24.3590  -30.2350 C   0  0  0  0  0  0  0  0  0  0  0  0
   -2.7670   25.2900  -29.3800 O   0  0  0  0  0  0  0  0  0  0  0  0
   -1.9120   21.1910  -28.2080 C   0  0  0  0  0  0  0  0  0  0  0  0
   -0.7377   21.0022  -25.0002 H   0  0  0  0  0  0  0  0  0  0  0  0
    0.4539   23.0666  -25.7429 H   0  0  0  0  0  0  0  0  0  0  0  0
    0.1324   23.9304  -28.0608 H   0  0  0  0  0  0  0  0  0  0  0  0
   -2.8704   21.2060  -31.4800 H   0  0  0  0  0  0  0  0  0  0  0  0
   -5.8733   21.9349  -33.5171 H   0  0  0  0  0  0  0  0  0  0  0  0
   -4.5055   20.7863  -33.1972 H   0  0  0  0  0  0  0  0  0  0  0  0
   -5.6610   20.2720  -31.0810 H   0  0  0  0  0  0  0  0  0  0  0  0
   -7.6222   20.9959  -30.4723 H   0  0  0  0  0  0  0  0  0  0  0  0
   -7.1567   22.3641  -31.6009 H   0  0  0  0  0  0  0  0  0  0  0  0
   -9.2901   21.9291  -32.2981 H   0  0  0  0  0  0  0  0  0  0  0  0
   -8.2725   20.8406  -33.3854 H   0  0  0  0  0  0  0  0  0  0  0  0
   -9.6328   19.8110  -30.8889 H   0  0  0  0  0  0  0  0  0  0  0  0
  -10.4421   19.8837  -32.5304 H   0  0  0  0  0  0  0  0  0  0  0  0
   -9.0380   18.3080  -33.3740 H   0  0  0  0  0  0  0  0  0  0  0  0
   -7.4042   18.5108  -30.8818 H   0  0  0  0  0  0  0  0  0  0  0  0
   -7.2049   17.3200  -32.2752 H   0  0  0  0  0  0  0  0  0  0  0  0
   -5.5128   18.7353  -32.7768 H   0  0  0  0  0  0  0  0  0  0  0  0
   -6.9176   19.5638  -33.6262 H   0  0  0  0  0  0  0  0  0  0  0  0
   -6.1834   23.9269  -32.0910 H   0  0  0  0  0  0  0  0  0  0  0  0
   -5.0726   25.6072  -30.6234 H   0  0  0  0  0  0  0  0  0  0  0  0
   -2.5721   20.6535  -28.9047 H   0  0  0  0  0  0  0  0  0  0  0  0
  1  2  3  0
  2  3  1  0
  3  4  2  0
  4  5  1  0
  5  6  2  0
  6  7  1  0
  7  8  1  0
  8  9  1  0
  9 10  2  0
 10 11  1  0
 11 12  1  0
 12 13  1  0
 13 14  1  0
 14 15  1  0
 15 16  1  0
 16 17  1  0
 17 18  1  0
 18 19  1  0
 11 20  2  0
 20 21  1  0
 21 22  2  0
 22 23  1  0
  7 24  2  0
 24  3  1  0
 22  9  1  0
 19 13  1  0
  4 25  1  0
  5 26  1  0
  6 27  1  0
 10 28  1  0
 12 29  1  0
 12 30  1  0
 13 31  1  1
 14 32  1  0
 14 33  1  0
 15 34  1  0
 15 35  1  0
 16 36  1  0
 16 37  1  0
 17 38  1  0
 18 39  1  0
 18 40  1  0
 19 41  1  0
 19 42  1  0
 20 43  1  0
 21 44  1  0
 24 45  1  0
M  CHG  2  13   1  23  -1
M  END
>  <UniqueID>  (33) 
31

>  <SMILES>  (33) 
N#Cc1cccc(Oc2cc(C[N@H+]3CCCNCC3)ccc2[O-])c1

>  <Energy>  (33) 
72.60626582691977

>  <Genealogy>  (33) 
N#Cc1cccc(Oc2cc(C[NH+]3CCCNCC3)ccc2[O-])c1 (protonated)
N#Cc1cccc(Oc2cc(C[N@H+]3CCCNCC3)ccc2[O-])c1 (chirality)
N#Cc1cccc(Oc2cc(C[N@H+]3CCCNCC3)ccc2[O-])c1 (3D coordinates assigned)
N#Cc1cccc(Oc2cc(C[N@H+]3CCCNCC3)ccc2[O-])c1 (nonaromatic ring conformer: 72.60626582691977 kcal/mol)

>  <smiles>  (33) 
N#Cc1cccc(Oc2cc(CN3CCCNCC3)ccc2O)c1

>  <score_type>  (33) 
oracle

>  <origin>  (33) 
adgpu

>  <m_score__min__energy>  (33) 
-8.7599999999999998

>  <m_primary>  (33) 
energy

$$$$
33:0
     RDKit          3D

 28 29  0  0  0  0  0  0  0  0999 V2000
   -4.1080   21.3070  -32.6250 O   0  0  0  0  0  0  0  0  0  0  0  0
   -5.2160   21.8900  -32.4720 C   0  0  0  0  0  0  0  0  0  0  0  0
   -6.3910   21.3440  -33.0870 N   0  0  0  0  0  0  0  0  0  0  0  0
   -6.9380   20.0400  -32.8400 C   0  0  0  0  0  0  0  0  0  0  0  0
   -6.2690   18.9240  -33.3500 C   0  0  0  0  0  0  0  0  0  0  0  0
   -6.7720   17.6310  -33.1360 C   0  0  0  0  0  0  0  0  0  0  0  0
   -6.0380   16.4230  -33.6610 C   0  0  0  0  0  0  0  0  0  0  0  0
   -5.3100   15.8170  -32.6520 F   0  0  0  0  0  0  0  0  0  0  0  0
   -5.1750   16.8170  -34.6660 F   0  0  0  0  0  0  0  0  0  0  0  0
   -6.9290   15.4940  -34.1710 F   0  0  0  0  0  0  0  0  0  0  0  0
   -7.9200   17.4840  -32.3440 C   0  0  0  0  0  0  0  0  0  0  0  0
   -8.5360   18.5760  -31.8210 N   0  0  0  0  0  0  0  0  0  0  0  0
   -8.0800   19.8380  -32.0410 C   0  0  0  0  0  0  0  0  0  0  0  0
   -8.6670   20.8070  -31.4930 O   0  0  0  0  0  0  0  0  0  0  0  0
   -5.3010   23.0980  -31.6060 C   0  0  0  0  0  0  0  0  0  0  0  0
   -4.1180   23.6410  -31.0650 C   0  0  0  0  0  0  0  0  0  0  0  0
   -4.1610   24.7730  -30.2450 C   0  0  0  0  0  0  0  0  0  0  0  0
   -2.9850   25.2940  -29.7170 O   0  0  0  0  0  0  0  0  0  0  0  0
   -5.3820   25.3810  -29.9550 C   0  0  0  0  0  0  0  0  0  0  0  0
   -6.5630   24.8620  -30.4850 C   0  0  0  0  0  0  0  0  0  0  0  0
   -6.5360   23.7270  -31.3110 C   0  0  0  0  0  0  0  0  0  0  0  0
   -7.7330   23.2400  -31.8350 O   0  0  0  0  0  0  0  0  0  0  0  0
   -5.3405   19.0599  -33.9239 H   0  0  0  0  0  0  0  0  0  0  0  0
   -8.3234   16.4801  -32.1454 H   0  0  0  0  0  0  0  0  0  0  0  0
   -3.1503   23.1691  -31.2903 H   0  0  0  0  0  0  0  0  0  0  0  0
   -5.4137   26.2701  -29.3081 H   0  0  0  0  0  0  0  0  0  0  0  0
   -7.5235   25.3458  -30.2540 H   0  0  0  0  0  0  0  0  0  0  0  0
   -7.8020   22.3120  -32.2360 H   0  0  0  0  0  0  0  0  0  0  0  0
  1  2  2  0
  2  3  1  0
  3  4  1  0
  4  5  2  0
  5  6  1  0
  6  7  1  0
  7  8  1  0
  7  9  1  0
  7 10  1  0
  6 11  2  0
 11 12  1  0
 12 13  1  0
 13 14  2  0
  2 15  1  0
 15 16  2  0
 16 17  1  0
 17 18  1  0
 17 19  2  0
 19 20  1  0
 20 21  2  0
 21 22  1  0
 13  4  1  0
 21 15  1  0
  5 23  1  0
 11 24  1  0
 16 25  1  0
 19 26  1  0
 20 27  1  0
 22 28  1  0
M  CHG  3   3  -1  12  -1  18  -1
M  END
>  <UniqueID>  (34) 
32

>  <SMILES>  (34) 
O=C([N-]c1cc(C(F)(F)F)c[n-]c1=O)c1cc([O-])ccc1O

>  <Energy>  (34) 
38.65435305456575

>  <Genealogy>  (34) 
O=C([N-]c1cc(C(F)(F)F)c[n-]c1=O)c1cc([O-])ccc1O (protonated)
O=C([N-]c1cc(C(F)(F)F)c[n-]c1=O)c1cc([O-])ccc1O (3D coordinates assigned)
O=C([N-]c1cc(C(F)(F)F)c[n-]c1=O)c1cc([O-])ccc1O (optimized conformer: 38.65435305456575 kcal/mol)

>  <smiles>  (34) 
O=C(Nc1cc(C(F)(F)F)c[nH]c1=O)c1cc(O)ccc1O

>  <score_type>  (34) 
oracle

>  <origin>  (34) 
adgpu

>  <m_score__min__energy>  (34) 
-8.5999999999999996

>  <m_primary>  (34) 
energy

$$$$
34:0
     RDKit          3D

 40 41  0  0  0  0  0  0  0  0999 V2000
    0.1830   29.5030  -25.8320 C   0  0  0  0  0  0  0  0  0  0  0  0
   -0.4190   28.1520  -26.0850 C   0  0  0  0  0  0  0  0  0  0  0  0
   -0.9810   27.4210  -25.0270 C   0  0  0  0  0  0  0  0  0  0  0  0
   -1.5910   26.1900  -25.2720 C   0  0  0  0  0  0  0  0  0  0  0  0
   -1.6290   25.6720  -26.5700 C   0  0  0  0  0  0  0  0  0  0  0  0
   -1.0560   26.3800  -27.6320 C   0  0  0  0  0  0  0  0  0  0  0  0
   -1.1500   25.8340  -28.9540 N   0  0  0  0  0  0  0  0  0  0  0  0
   -1.7010   24.5660  -29.3340 C   0  0  0  0  0  0  0  0  0  0  0  0
   -0.9190   23.6630  -29.7330 O   0  0  0  0  0  0  0  0  0  0  0  0
   -3.1830   24.3210  -29.4190 C   0  0  0  0  0  0  0  0  0  0  0  0
   -3.7650   25.1510  -30.4690 N   0  0  0  0  0  0  0  0  0  0  0  0
   -5.1560   25.1940  -30.8160 C   0  0  0  0  0  0  0  0  0  0  0  0
   -5.7500   26.3040  -30.7870 O   0  0  0  0  0  0  0  0  0  0  0  0
   -5.9080   23.9880  -31.2210 C   0  0  0  0  0  0  0  0  0  0  0  0
   -7.2420   23.8140  -30.8310 C   0  0  0  0  0  0  0  0  0  0  0  0
   -7.9430   22.6660  -31.2030 C   0  0  0  0  0  0  0  0  0  0  0  0
   -7.3180   21.6580  -31.9530 C   0  0  0  0  0  0  0  0  0  0  0  0
   -8.1030   20.4290  -32.3320 C   0  0  0  0  0  0  0  0  0  0  0  0
   -5.9530   21.8000  -32.3030 C   0  0  0  0  0  0  0  0  0  0  0  0
   -5.2360   20.7420  -33.1010 C   0  0  0  0  0  0  0  0  0  0  0  0
   -5.2650   22.9710  -31.9400 C   0  0  0  0  0  0  0  0  0  0  0  0
   -0.4930   27.6450  -27.3920 C   0  0  0  0  0  0  0  0  0  0  0  0
    0.2589   29.6734  -24.7479 H   0  0  0  0  0  0  0  0  0  0  0  0
    1.1861   29.5474  -26.2813 H   0  0  0  0  0  0  0  0  0  0  0  0
   -0.4547   30.2785  -26.2813 H   0  0  0  0  0  0  0  0  0  0  0  0
   -0.9406   27.8192  -24.0024 H   0  0  0  0  0  0  0  0  0  0  0  0
   -2.0427   25.6263  -24.4424 H   0  0  0  0  0  0  0  0  0  0  0  0
   -2.1124   24.7018  -26.7574 H   0  0  0  0  0  0  0  0  0  0  0  0
   -3.3647   23.2609  -29.6495 H   0  0  0  0  0  0  0  0  0  0  0  0
   -3.6480   24.5774  -28.4556 H   0  0  0  0  0  0  0  0  0  0  0  0
   -7.7403   24.5871  -30.2277 H   0  0  0  0  0  0  0  0  0  0  0  0
   -8.9956   22.5502  -30.9054 H   0  0  0  0  0  0  0  0  0  0  0  0
   -8.4344   19.9101  -31.4205 H   0  0  0  0  0  0  0  0  0  0  0  0
   -8.9807   20.7233  -32.9261 H   0  0  0  0  0  0  0  0  0  0  0  0
   -7.4669   19.7564  -32.9261 H   0  0  0  0  0  0  0  0  0  0  0  0
   -4.7534   20.0298  -32.4155 H   0  0  0  0  0  0  0  0  0  0  0  0
   -5.9591   20.2080  -33.7350 H   0  0  0  0  0  0  0  0  0  0  0  0
   -4.4721   21.2157  -33.7350 H   0  0  0  0  0  0  0  0  0  0  0  0
   -4.2090   23.0906  -32.2237 H   0  0  0  0  0  0  0  0  0  0  0  0
   -0.1083   28.2411  -28.2327 H   0  0  0  0  0  0  0  0  0  0  0  0
  1  2  1  0
  2  3  2  0
  3  4  1  0
  4  5  2  0
  5  6  1  0
  6  7  1  0
  7  8  1  0
  8  9  2  0
  8 10  1  0
 10 11  1  0
 11 12  1  0
 12 13  2  0
 12 14  1  0
 14 15  2  0
 15 16  1  0
 16 17  2  0
 17 18  1  0
 17 19  1  0
 19 20  1  0
 19 21  2  0
  6 22  2  0
 22  2  1  0
 21 14  1  0
  1 23  1  0
  1 24  1  0
  1 25  1  0
  3 26  1  0
  4 27  1  0
  5 28  1  0
 10 29  1  0
 10 30  1  0
 15 31  1  0
 16 32  1  0
 18 33  1  0
 18 34  1  0
 18 35  1  0
 20 36  1  0
 20 37  1  0
 20 38  1  0
 21 39  1  0
 22 40  1  0
M  CHG  2   7  -1  11  -1
M  END
>  <UniqueID>  (35) 
33

>  <SMILES>  (35) 
Cc1cccc([N-]C(=O)C[N-]C(=O)c2ccc(C)c(C)c2)c1

>  <Energy>  (35) 
42.832946000873434

>  <Genealogy>  (35) 
Cc1cccc([N-]C(=O)C[N-]C(=O)c2ccc(C)c(C)c2)c1 (protonated)
Cc1cccc([N-]C(=O)C[N-]C(=O)c2ccc(C)c(C)c2)c1 (3D coordinates assigned)
Cc1cccc([N-]C(=O)C[N-]C(=O)c2ccc(C)c(C)c2)c1 (optimized conformer: 42.832946000873434 kcal/mol)

>  <smiles>  (35) 
Cc1cccc(NC(=O)CNC(=O)c2ccc(C)c(C)c2)c1

>  <score_type>  (35) 
oracle

>  <origin>  (35) 
adgpu

>  <m_score__min__energy>  (35) 
-11.41

>  <m_primary>  (35) 
energy

$$$$
35:0
     RDKit          3D

 61 64  0  0  0  0  0  0  0  0999 V2000
   -4.1280   17.8890  -34.4870 C   0  0  0  0  0  0  0  0  0  0  0  0
   -4.9790   18.8930  -33.8560 N   0  0  0  0  0  0  0  0  0  0  0  0
   -6.3570   18.6340  -33.5570 C   0  0  0  0  0  0  0  0  0  0  0  0
   -6.8530   17.5090  -33.8440 O   0  0  0  0  0  0  0  0  0  0  0  0
   -7.2010   19.6690  -32.9210 C   0  0  0  0  0  0  0  0  0  0  0  0
   -6.7040   20.9600  -32.6780 C   0  0  0  0  0  0  0  0  0  0  0  0
   -7.5320   21.9290  -32.0790 C   0  0  0  0  0  0  0  0  0  0  0  0
   -7.0860   23.2240  -31.7630 O   0  0  0  0  0  0  0  0  0  0  0  0
   -6.0130   23.5550  -30.9200 C   0  0  0  0  0  0  0  0  0  0  0  0
   -5.6020   22.7180  -29.8680 C   0  0  0  0  0  0  0  0  0  0  0  0
   -4.5410   23.0990  -29.0410 C   0  0  0  0  0  0  0  0  0  0  0  0
   -3.8620   24.3080  -29.2680 C   0  0  0  0  0  0  0  0  0  0  0  0
   -2.7640   24.7120  -28.4380 N   0  0  0  0  0  0  0  0  0  0  0  0
   -1.5070   25.1700  -28.9520 C   0  0  0  0  0  0  0  0  0  0  0  0
   -1.2430   26.4020  -28.9600 O   0  0  0  0  0  0  0  0  0  0  0  0
   -0.5320   24.2300  -29.4070 N   0  0  0  0  0  0  0  0  0  0  0  0
   -0.8840   22.8680  -29.6780 C   0  0  0  0  0  0  0  0  0  0  0  0
   -0.4820   21.8440  -28.8080 C   0  0  0  0  0  0  0  0  0  0  0  0
   -0.7990   20.5160  -29.0930 C   0  0  0  0  0  0  0  0  0  0  0  0
   -1.5480   20.2040  -30.2310 C   0  0  0  0  0  0  0  0  0  0  0  0
   -2.0010   21.2270  -31.0890 C   0  0  0  0  0  0  0  0  0  0  0  0
   -2.8070   20.8990  -32.2820 C   0  0  0  0  0  0  0  0  0  0  0  0
   -3.8280   21.5890  -32.5500 O   0  0  0  0  0  0  0  0  0  0  0  0
   -2.3860   19.8970  -33.2110 N   0  0  0  0  0  0  0  0  0  0  0  0
   -1.3510   20.0710  -34.2300 C   0  0  0  0  0  0  0  0  0  0  0  0
   -0.2490   18.9850  -34.1270 C   0  0  0  0  0  0  0  0  0  0  0  0
    1.0600   19.5510  -33.5540 C   0  0  0  0  0  0  0  0  0  0  0  0
    1.5900   20.6790  -34.3480 N   0  0  0  0  0  0  0  0  0  0  0  0
    0.5650   21.5390  -34.9680 C   0  0  0  0  0  0  0  0  0  0  0  0
   -0.7670   21.4970  -34.2090 C   0  0  0  0  0  0  0  0  0  0  0  0
   -1.6210   22.5540  -30.8280 C   0  0  0  0  0  0  0  0  0  0  0  0
   -4.2300   25.1090  -30.3550 C   0  0  0  0  0  0  0  0  0  0  0  0
   -5.3040   24.7360  -31.1700 C   0  0  0  0  0  0  0  0  0  0  0  0
   -8.8340   21.5700  -31.7190 C   0  0  0  0  0  0  0  0  0  0  0  0
   -9.2870   20.2770  -31.9580 C   0  0  0  0  0  0  0  0  0  0  0  0
   -8.4750   19.3680  -32.5530 N   0  0  0  0  0  0  0  0  0  0  0  0
   -3.6243   17.2948  -33.7103 H   0  0  0  0  0  0  0  0  0  0  0  0
   -4.7443   17.2271  -35.1131 H   0  0  0  0  0  0  0  0  0  0  0  0
   -3.3740   18.3885  -35.1131 H   0  0  0  0  0  0  0  0  0  0  0  0
   -4.5330   19.7850  -33.5400 H   0  0  0  0  0  0  0  0  0  0  0  0
   -5.6701   21.2137  -32.9550 H   0  0  0  0  0  0  0  0  0  0  0  0
   -6.1163   21.7611  -29.6951 H   0  0  0  0  0  0  0  0  0  0  0  0
   -4.2361   22.4486  -28.2079 H   0  0  0  0  0  0  0  0  0  0  0  0
    0.0852   22.0890  -27.8979 H   0  0  0  0  0  0  0  0  0  0  0  0
   -0.4593   19.7136  -28.4216 H   0  0  0  0  0  0  0  0  0  0  0  0
   -1.7854   19.1543  -30.4586 H   0  0  0  0  0  0  0  0  0  0  0  0
   -1.8330   19.9373  -35.2097 H   0  0  0  0  0  0  0  0  0  0  0  0
   -0.6052   18.1777  -33.4702 H   0  0  0  0  0  0  0  0  0  0  0  0
   -0.0439   18.6095  -35.1404 H   0  0  0  0  0  0  0  0  0  0  0  0
    0.8729   19.9003  -32.5279 H   0  0  0  0  0  0  0  0  0  0  0  0
    1.8092   18.7460  -33.5797 H   0  0  0  0  0  0  0  0  0  0  0  0
    2.1770   21.2690  -33.7110 H   0  0  0  0  0  0  0  0  0  0  0  0
    0.9329   22.5756  -34.9797 H   0  0  0  0  0  0  0  0  0  0  0  0
    0.3837   21.1654  -35.9866 H   0  0  0  0  0  0  0  0  0  0  0  0
   -0.6002   21.8053  -33.1663 H   0  0  0  0  0  0  0  0  0  0  0  0
   -1.4774   22.1813  -34.6958 H   0  0  0  0  0  0  0  0  0  0  0  0
   -1.9037   23.3517  -31.5307 H   0  0  0  0  0  0  0  0  0  0  0  0
   -3.6737   26.0335  -30.5689 H   0  0  0  0  0  0  0  0  0  0  0  0
   -5.5943   25.3769  -32.0156 H   0  0  0  0  0  0  0  0  0  0  0  0
   -9.4990   22.3086  -31.2476 H   0  0  0  0  0  0  0  0  0  0  0  0
  -10.3074   19.9905  -31.6635 H   0  0  0  0  0  0  0  0  0  0  0  0
  1  2  1  0
  2  3  1  0
  3  4  2  0
  3  5  1  0
  5  6  2  0
  6  7  1  0
  7  8  1  0
  8  9  1  0
  9 10  2  0
 10 11  1  0
 11 12  2  0
 12 13  1  0
 13 14  1  0
 14 15  2  0
 14 16  1  0
 16 17  1  0
 17 18  2  0
 18 19  1  0
 19 20  2  0
 20 21  1  0
 21 22  1  0
 22 23  2  0
 22 24  1  0
 24 25  1  0
 25 26  1  0
 26 27  1  0
 27 28  1  0
 28 29  1  0
 29 30  1  0
 21 31  2  0
 12 32  1  0
 32 33  2  0
  7 34  2  0
 34 35  1  0
 35 36  2  0
 36  5  1  0
 33  9  1  0
 31 17  1  0
 30 25  1  0
  1 37  1  0
  1 38  1  0
  1 39  1  0
  2 40  1  0
  6 41  1  0
 10 42  1  0
 11 43  1  0
 18 44  1  0
 19 45  1  0
 20 46  1  0
 25 47  1  0
 26 48  1  0
 26 49  1  0
 27 50  1  0
 27 51  1  0
 28 52  1  0
 29 53  1  0
 29 54  1  0
 30 55  1  0
 30 56  1  0
 31 57  1  0
 32 58  1  0
 33 59  1  0
 34 60  1  0
 35 61  1  0
M  CHG  3  13  -1  16  -1  24  -1
M  END
>  <UniqueID>  (36) 
34

>  <SMILES>  (36) 
CNC(=O)c1cc(Oc2ccc([N-]C(=O)[N-]c3cccc(C(=O)[N-]C4CCNCC4)c3)cc2)ccn1

>  <Energy>  (36) 
93.0774594801359

>  <Genealogy>  (36) 
CNC(=O)c1cc(Oc2ccc([N-]C(=O)[N-]c3cccc(C(=O)[N-]C4CCNCC4)c3)cc2)ccn1 (protonated)
CNC(=O)c1cc(Oc2ccc([N-]C(=O)[N-]c3cccc(C(=O)[N-]C4CCNCC4)c3)cc2)ccn1 (3D coordinates assigned)
CNC(=O)c1cc(Oc2ccc([N-]C(=O)[N-]c3cccc(C(=O)[N-]C4CCNCC4)c3)cc2)ccn1 (nonaromatic ring conformer: 93.0774594801359 kcal/mol)

>  <smiles>  (36) 
CNC(=O)c1cc(Oc2ccc(NC(=O)Nc3cccc(C(=O)NC4CCNCC4)c3)cc2)ccn1

>  <score_type>  (36) 
oracle

>  <origin>  (36) 
adgpu

>  <m_score__min__energy>  (36) 
-12.800000000000001

>  <m_primary>  (36) 
energy

$$$$
36:0
     RDKit          3D

 52 54  0  0  0  0  0  0  0  0999 V2000
    1.0090   24.1760  -28.2690 N   0  0  0  0  0  0  0  0  0  0  0  0
    1.1490   24.0330  -26.8230 C   0  0  0  0  0  0  0  0  0  0  0  0
    0.0320   23.1460  -26.2730 C   0  0  0  0  0  0  0  0  0  0  0  0
   -1.6090   23.7390  -26.8210 S   0  0  0  0  0  0  0  0  0  0  0  0
   -1.3060   25.4690  -26.4240 C   0  0  0  0  0  0  0  0  0  0  0  0
   -1.2660   25.8640  -25.0830 C   0  0  0  0  0  0  0  0  0  0  0  0
   -1.0260   27.1970  -24.7460 C   0  0  0  0  0  0  0  0  0  0  0  0
   -0.7840   28.1510  -25.7480 C   0  0  0  0  0  0  0  0  0  0  0  0
   -0.5540   29.5980  -25.3930 C   0  0  0  0  0  0  0  0  0  0  0  0
   -0.2120   30.2980  -26.5350 F   0  0  0  0  0  0  0  0  0  0  0  0
   -1.6930   30.1610  -24.8440 F   0  0  0  0  0  0  0  0  0  0  0  0
    0.4710   29.7130  -24.4700 F   0  0  0  0  0  0  0  0  0  0  0  0
   -0.8380   27.7540  -27.0960 C   0  0  0  0  0  0  0  0  0  0  0  0
   -1.1050   26.4170  -27.4420 C   0  0  0  0  0  0  0  0  0  0  0  0
   -1.1290   25.9900  -28.8140 N   0  0  0  0  0  0  0  0  0  0  0  0
   -1.8480   24.8680  -29.3370 C   0  0  0  0  0  0  0  0  0  0  0  0
   -1.2500   23.7870  -29.5880 O   0  0  0  0  0  0  0  0  0  0  0  0
   -3.2320   25.0280  -29.6680 N   0  0  0  0  0  0  0  0  0  0  0  0
   -4.0120   24.1720  -30.5170 C   0  0  0  0  0  0  0  0  0  0  0  0
   -5.3400   24.4740  -30.8590 C   0  0  0  0  0  0  0  0  0  0  0  0
   -6.0570   23.6260  -31.7030 C   0  0  0  0  0  0  0  0  0  0  0  0
   -5.4550   22.4770  -32.2440 C   0  0  0  0  0  0  0  0  0  0  0  0
   -6.1750   21.6060  -33.0790 O   0  0  0  0  0  0  0  0  0  0  0  0
   -7.0250   20.5790  -32.6420 C   0  0  0  0  0  0  0  0  0  0  0  0
   -6.6850   19.2210  -32.7810 C   0  0  0  0  0  0  0  0  0  0  0  0
   -7.5540   18.2270  -32.3170 C   0  0  0  0  0  0  0  0  0  0  0  0
   -8.7570   18.5810  -31.7020 C   0  0  0  0  0  0  0  0  0  0  0  0
   -9.0900   19.9290  -31.5430 C   0  0  0  0  0  0  0  0  0  0  0  0
   -8.2240   20.9240  -32.0060 C   0  0  0  0  0  0  0  0  0  0  0  0
   -4.1200   22.1680  -31.9100 C   0  0  0  0  0  0  0  0  0  0  0  0
   -3.4710   20.9280  -32.4800 C   0  0  0  0  0  0  0  0  0  0  0  0
   -3.7790   20.7530  -33.8190 F   0  0  0  0  0  0  0  0  0  0  0  0
   -3.9070   19.8150  -31.7830 F   0  0  0  0  0  0  0  0  0  0  0  0
   -2.0970   21.0280  -32.3590 F   0  0  0  0  0  0  0  0  0  0  0  0
   -3.4060   23.0320  -31.0580 C   0  0  0  0  0  0  0  0  0  0  0  0
    0.6440   23.2750  -28.6540 H   0  0  0  0  0  0  0  0  0  0  0  0
    0.2700   24.8940  -28.4470 H   0  0  0  0  0  0  0  0  0  0  0  0
    2.1229   23.5751  -26.5951 H   0  0  0  0  0  0  0  0  0  0  0  0
    1.0840   25.0262  -26.3547 H   0  0  0  0  0  0  0  0  0  0  0  0
    0.1805   22.1169  -26.6321 H   0  0  0  0  0  0  0  0  0  0  0  0
    0.0672   23.1806  -25.1741 H   0  0  0  0  0  0  0  0  0  0  0  0
   -1.4247   25.1195  -24.2889 H   0  0  0  0  0  0  0  0  0  0  0  0
   -1.0264   27.5023  -23.6892 H   0  0  0  0  0  0  0  0  0  0  0  0
   -0.6695   28.4976  -27.8889 H   0  0  0  0  0  0  0  0  0  0  0  0
   -5.8162   25.3819  -30.4602 H   0  0  0  0  0  0  0  0  0  0  0  0
   -7.1039   23.8588  -31.9476 H   0  0  0  0  0  0  0  0  0  0  0  0
   -5.7334   18.9397  -33.2557 H   0  0  0  0  0  0  0  0  0  0  0  0
   -7.2894   17.1660  -32.4367 H   0  0  0  0  0  0  0  0  0  0  0  0
   -9.4422   17.7990  -31.3429 H   0  0  0  0  0  0  0  0  0  0  0  0
  -10.0346   20.2074  -31.0530 H   0  0  0  0  0  0  0  0  0  0  0  0
   -8.4858   21.9837  -31.8700 H   0  0  0  0  0  0  0  0  0  0  0  0
   -2.3570   22.8080  -30.8140 H   0  0  0  0  0  0  0  0  0  0  0  0
  1  2  1  0
  2  3  1  0
  3  4  1  0
  4  5  1  0
  5  6  2  0
  6  7  1  0
  7  8  2  0
  8  9  1  0
  9 10  1  0
  9 11  1  0
  9 12  1  0
  8 13  1  0
 13 14  2  0
 14 15  1  0
 15 16  1  0
 16 17  2  0
 16 18  1  0
 18 19  1  0
 19 20  2  0
 20 21  1  0
 21 22  2  0
 22 23  1  0
 23 24  1  0
 24 25  2  0
 25 26  1  0
 26 27  2  0
 27 28  1  0
 28 29  2  0
 22 30  1  0
 30 31  1  0
 31 32  1  0
 31 33  1  0
 31 34  1  0
 30 35  2  0
 14  5  1  0
 35 19  1  0
 29 24  1  0
  1 36  1  0
  1 37  1  0
  2 38  1  0
  2 39  1  0
  3 40  1  0
  3 41  1  0
  6 42  1  0
  7 43  1  0
 13 44  1  0
 20 45  1  0
 21 46  1  0
 25 47  1  0
 26 48  1  0
 27 49  1  0
 28 50  1  0
 29 51  1  0
 35 52  1  0
M  CHG  2  15  -1  18  -1
M  END
>  <UniqueID>  (37) 
35

>  <SMILES>  (37) 
NCCSc1ccc(C(F)(F)F)cc1[N-]C(=O)[N-]c1ccc(Oc2ccccc2)c(C(F)(F)F)c1

>  <Energy>  (37) 
62.82290768804404

>  <Genealogy>  (37) 
NCCSc1ccc(C(F)(F)F)cc1[N-]C(=O)[N-]c1ccc(Oc2ccccc2)c(C(F)(F)F)c1 (protonated)
NCCSc1ccc(C(F)(F)F)cc1[N-]C(=O)[N-]c1ccc(Oc2ccccc2)c(C(F)(F)F)c1 (3D coordinates assigned)
NCCSc1ccc(C(F)(F)F)cc1[N-]C(=O)[N-]c1ccc(Oc2ccccc2)c(C(F)(F)F)c1 (optimized conformer: 62.82290768804404 kcal/mol)

>  <smiles>  (37) 
NCCSc1ccc(C(F)(F)F)cc1NC(=O)Nc1ccc(Oc2ccccc2)c(C(F)(F)F)c1

>  <score_type>  (37) 
oracle

>  <origin>  (37) 
adgpu

>  <m_score__min__energy>  (37) 
-10.949999999999999

>  <m_primary>  (37) 
energy

$$$$
37:0
     RDKit          3D

 46 48  0  0  0  0  0  0  0  0999 V2000
   -9.4180   21.1300  -31.6540 C   0  0  0  0  0  0  0  0  0  0  0  0
   -8.3220   20.2930  -32.2550 C   0  0  0  0  0  0  0  0  0  0  0  0
   -8.4730   18.9000  -32.3020 C   0  0  0  0  0  0  0  0  0  0  0  0
   -7.4720   18.0940  -32.8450 C   0  0  0  0  0  0  0  0  0  0  0  0
   -6.2930   18.6640  -33.3530 C   0  0  0  0  0  0  0  0  0  0  0  0
   -5.2260   17.8110  -33.9270 C   0  0  0  0  0  0  0  0  0  0  0  0
   -5.4730   17.0820  -34.9270 O   0  0  0  0  0  0  0  0  0  0  0  0
   -3.8990   17.8570  -33.3810 N   0  0  0  0  0  0  0  0  0  0  0  0
   -2.8800   18.8180  -33.6890 C   0  0  0  0  0  0  0  0  0  0  0  0
   -3.0710   20.1980  -33.4930 C   0  0  0  0  0  0  0  0  0  0  0  0
   -2.0590   21.1040  -33.8280 C   0  0  0  0  0  0  0  0  0  0  0  0
   -0.8540   20.6430  -34.3740 C   0  0  0  0  0  0  0  0  0  0  0  0
    0.1850   21.5770  -34.7190 C   0  0  0  0  0  0  0  0  0  0  0  0
    1.0210   22.3260  -34.9970 N   0  0  0  0  0  0  0  0  0  0  0  0
   -0.6700   19.2730  -34.5930 C   0  0  0  0  0  0  0  0  0  0  0  0
   -1.6820   18.3680  -34.2580 C   0  0  0  0  0  0  0  0  0  0  0  0
   -6.1360   20.0600  -33.2980 C   0  0  0  0  0  0  0  0  0  0  0  0
   -7.1300   20.8720  -32.7360 C   0  0  0  0  0  0  0  0  0  0  0  0
   -6.8980   22.2790  -32.6360 N   0  0  0  0  0  0  0  0  0  0  0  0
   -6.8160   23.0210  -31.0750 S   0  0  0  0  0  0  0  0  0  0  0  0
   -7.1590   22.0170  -30.0110 O   0  0  0  0  0  0  0  0  0  0  0  0
   -7.8090   24.1470  -31.0050 O   0  0  0  0  0  0  0  0  0  0  0  0
   -5.1950   23.6660  -30.8220 C   0  0  0  0  0  0  0  0  0  0  0  0
   -4.0160   22.9540  -30.7340 C   0  0  0  0  0  0  0  0  0  0  0  0
   -3.8480   21.4810  -30.9190 C   0  0  0  0  0  0  0  0  0  0  0  0
   -3.0040   23.7950  -30.4510 N   0  0  0  0  0  0  0  0  0  0  0  0
   -3.4960   25.0190  -30.3340 N   0  0  0  0  0  0  0  0  0  0  0  0
   -4.8260   24.9690  -30.5470 C   0  0  0  0  0  0  0  0  0  0  0  0
   -5.7250   26.1570  -30.4560 C   0  0  0  0  0  0  0  0  0  0  0  0
   -9.3558   21.0825  -30.5568 H   0  0  0  0  0  0  0  0  0  0  0  0
   -9.3047   22.1735  -31.9829 H   0  0  0  0  0  0  0  0  0  0  0  0
  -10.3949   20.7460  -31.9829 H   0  0  0  0  0  0  0  0  0  0  0  0
   -9.3897   18.4380  -31.9069 H   0  0  0  0  0  0  0  0  0  0  0  0
   -7.6072   17.0028  -32.8756 H   0  0  0  0  0  0  0  0  0  0  0  0
   -4.0195   20.5660  -33.0748 H   0  0  0  0  0  0  0  0  0  0  0  0
   -2.2098   22.1809  -33.6623 H   0  0  0  0  0  0  0  0  0  0  0  0
    0.2715   18.9078  -35.0290 H   0  0  0  0  0  0  0  0  0  0  0  0
   -1.5359   17.2935  -34.4429 H   0  0  0  0  0  0  0  0  0  0  0  0
   -5.2218   20.5203  -33.7010 H   0  0  0  0  0  0  0  0  0  0  0  0
   -6.3930   22.7520  -33.4190 H   0  0  0  0  0  0  0  0  0  0  0  0
   -3.7922   20.9919  -29.9353 H   0  0  0  0  0  0  0  0  0  0  0  0
   -4.7064   21.0815  -31.4790 H   0  0  0  0  0  0  0  0  0  0  0  0
   -2.9217   21.2851  -31.4790 H   0  0  0  0  0  0  0  0  0  0  0  0
   -5.9077   26.3984  -29.3985 H   0  0  0  0  0  0  0  0  0  0  0  0
   -5.2487   27.0160  -30.9512 H   0  0  0  0  0  0  0  0  0  0  0  0
   -6.6811   25.9321  -30.9512 H   0  0  0  0  0  0  0  0  0  0  0  0
  1  2  1  0
  2  3  2  0
  3  4  1  0
  4  5  2  0
  5  6  1  0
  6  7  2  0
  6  8  1  0
  8  9  1  0
  9 10  2  0
 10 11  1  0
 11 12  2  0
 12 13  1  0
 13 14  3  0
 12 15  1  0
 15 16  2  0
  5 17  1  0
 17 18  2  0
 18 19  1  0
 19 20  1  0
 20 21  2  0
 20 22  2  0
 20 23  1  0
 23 24  1  0
 24 25  1  0
 24 26  2  0
 26 27  1  0
 27 28  1  0
 28 29  1  0
 18  2  1  0
 28 23  2  0
 16  9  1  0
  1 30  1  0
  1 31  1  0
  1 32  1  0
  3 33  1  0
  4 34  1  0
 10 35  1  0
 11 36  1  0
 15 37  1  0
 16 38  1  0
 17 39  1  0
 19 40  1  0
 25 41  1  0
 25 42  1  0
 25 43  1  0
 29 44  1  0
 29 45  1  0
 29 46  1  0
M  CHG  2   8  -1  27  -1
M  END
>  <UniqueID>  (38) 
36

>  <SMILES>  (38) 
Cc1ccc(C(=O)[N-]c2ccc(C#N)cc2)cc1NS(=O)(=O)c1c(C)n[n-]c1C

>  <Energy>  (38) 
85.84955013993496

>  <Genealogy>  (38) 
Cc1ccc(C(=O)[N-]c2ccc(C#N)cc2)cc1NS(=O)(=O)c1c(C)n[n-]c1C (protonated)
Cc1ccc(C(=O)[N-]c2ccc(C#N)cc2)cc1NS(=O)(=O)c1c(C)n[n-]c1C (3D coordinates assigned)
Cc1ccc(C(=O)[N-]c2ccc(C#N)cc2)cc1NS(=O)(=O)c1c(C)n[n-]c1C (optimized conformer: 85.84955013993496 kcal/mol)

>  <smiles>  (38) 
Cc1ccc(C(=O)Nc2ccc(C#N)cc2)cc1NS(=O)(=O)c1c(C)n[nH]c1C

>  <score_type>  (38) 
oracle

>  <origin>  (38) 
adgpu

>  <m_score__min__energy>  (38) 
-12.039999999999999

>  <m_primary>  (38) 
energy

$$$$
38:0
     RDKit          3D

 45 47  0  0  0  0  0  0  0  0999 V2000
   -0.4630   23.1320  -29.5620 C   0  0  0  0  0  0  0  0  0  0  0  0
   -0.7560   24.5090  -29.3440 O   0  0  0  0  0  0  0  0  0  0  0  0
   -1.2900   25.0340  -28.1560 C   0  0  0  0  0  0  0  0  0  0  0  0
   -0.5880   25.9810  -27.3840 C   0  0  0  0  0  0  0  0  0  0  0  0
   -1.1210   26.4460  -26.1790 C   0  0  0  0  0  0  0  0  0  0  0  0
   -2.3510   25.9700  -25.7270 C   0  0  0  0  0  0  0  0  0  0  0  0
   -3.0600   25.0370  -26.4860 C   0  0  0  0  0  0  0  0  0  0  0  0
   -2.5520   24.5810  -27.7110 C   0  0  0  0  0  0  0  0  0  0  0  0
   -3.3080   23.6190  -28.4640 N   0  0  0  0  0  0  0  0  0  0  0  0
   -3.6100   23.7810  -29.8610 C   0  0  0  0  0  0  0  0  0  0  0  0
   -3.5020   24.9200  -30.3930 O   0  0  0  0  0  0  0  0  0  0  0  0
   -4.0840   22.6360  -30.6740 C   0  0  0  0  0  0  0  0  0  0  0  0
   -4.8880   22.8390  -31.8110 C   0  0  0  0  0  0  0  0  0  0  0  0
   -5.3350   21.7530  -32.5680 C   0  0  0  0  0  0  0  0  0  0  0  0
   -4.9860   20.4460  -32.2050 C   0  0  0  0  0  0  0  0  0  0  0  0
   -5.5580   19.0720  -33.1600 S   0  0  0  0  0  0  0  0  0  0  0  0
   -4.8520   17.8280  -32.6990 O   0  0  0  0  0  0  0  0  0  0  0  0
   -5.2040   19.3000  -34.6040 O   0  0  0  0  0  0  0  0  0  0  0  0
   -7.2830   18.8270  -33.0300 N   0  0  0  0  0  0  0  0  0  0  0  0
   -7.6530   18.1790  -31.7730 C   0  0  0  0  0  0  0  0  0  0  0  0
   -9.0930   18.5810  -31.4910 C   0  0  0  0  0  0  0  0  0  0  0  0
   -9.3330   19.8300  -32.3270 C   0  0  0  0  0  0  0  0  0  0  0  0
   -8.0220   20.0880  -33.0520 C   0  0  0  0  0  0  0  0  0  0  0  0
   -4.2030   20.2350  -31.0620 C   0  0  0  0  0  0  0  0  0  0  0  0
   -3.7560   21.3190  -30.3040 C   0  0  0  0  0  0  0  0  0  0  0  0
   -0.3546   22.6224  -28.5932 H   0  0  0  0  0  0  0  0  0  0  0  0
   -1.2826   22.6683  -30.1305 H   0  0  0  0  0  0  0  0  0  0  0  0
    0.4744   23.0421  -30.1305 H   0  0  0  0  0  0  0  0  0  0  0  0
    0.3856   26.3565  -27.7321 H   0  0  0  0  0  0  0  0  0  0  0  0
   -0.5688   27.1895  -25.5855 H   0  0  0  0  0  0  0  0  0  0  0  0
   -2.7628   26.3295  -24.7724 H   0  0  0  0  0  0  0  0  0  0  0  0
   -4.0250   24.6565  -26.1201 H   0  0  0  0  0  0  0  0  0  0  0  0
   -3.8120   22.8730  -27.9350 H   0  0  0  0  0  0  0  0  0  0  0  0
   -5.1669   23.8613  -32.1063 H   0  0  0  0  0  0  0  0  0  0  0  0
   -5.9643   21.9254  -33.4536 H   0  0  0  0  0  0  0  0  0  0  0  0
   -7.5752   17.0861  -31.8709 H   0  0  0  0  0  0  0  0  0  0  0  0
   -6.9854   18.4857  -30.9543 H   0  0  0  0  0  0  0  0  0  0  0  0
   -9.7828   17.7783  -31.7909 H   0  0  0  0  0  0  0  0  0  0  0  0
   -9.2649   18.7652  -30.4202 H   0  0  0  0  0  0  0  0  0  0  0  0
  -10.1452   19.6597  -33.0491 H   0  0  0  0  0  0  0  0  0  0  0  0
   -9.6327   20.6869  -31.7058 H   0  0  0  0  0  0  0  0  0  0  0  0
   -8.2156   20.3974  -34.0897 H   0  0  0  0  0  0  0  0  0  0  0  0
   -7.4505   20.8936  -32.5679 H   0  0  0  0  0  0  0  0  0  0  0  0
   -3.9393   19.2105  -30.7606 H   0  0  0  0  0  0  0  0  0  0  0  0
   -3.1415   21.1415  -29.4090 H   0  0  0  0  0  0  0  0  0  0  0  0
  1  2  1  0
  2  3  1  0
  3  4  2  0
  4  5  1  0
  5  6  2  0
  6  7  1  0
  7  8  2  0
  8  9  1  0
  9 10  1  0
 10 11  2  0
 10 12  1  0
 12 13  2  0
 13 14  1  0
 14 15  2  0
 15 16  1  0
 16 17  2  0
 16 18  2  0
 16 19  1  0
 19 20  1  0
 20 21  1  0
 21 22  1  0
 22 23  1  0
 15 24  1  0
 24 25  2  0
  8  3  1  0
 25 12  1  0
 23 19  1  0
  1 26  1  0
  1 27  1  0
  1 28  1  0
  4 29  1  0
  5 30  1  0
  6 31  1  0
  7 32  1  0
  9 33  1  0
 13 34  1  0
 14 35  1  0
 20 36  1  0
 20 37  1  0
 21 38  1  0
 21 39  1  0
 22 40  1  0
 22 41  1  0
 23 42  1  0
 23 43  1  0
 24 44  1  0
 25 45  1  0
M  END
>  <UniqueID>  (39) 
37

>  <SMILES>  (39) 
COc1ccccc1NC(=O)c1ccc(S(=O)(=O)N2CCCC2)cc1

>  <Energy>  (39) 
53.59410909459744

>  <Genealogy>  (39) 
COc1ccccc1NC(=O)c1ccc(S(=O)(=O)N2CCCC2)cc1 (3D coordinates assigned)
COc1ccccc1NC(=O)c1ccc(S(=O)(=O)N2CCCC2)cc1 (nonaromatic ring conformer: 53.59410909459744 kcal/mol)

>  <smiles>  (39) 
COc1ccccc1NC(=O)c1ccc(S(=O)(=O)N2CCCC2)cc1

>  <score_type>  (39) 
oracle

>  <origin>  (39) 
adgpu

>  <m_score__min__energy>  (39) 
-9.2400000000000002

>  <m_primary>  (39) 
energy

$$$$
39:0
     RDKit          3D

 50 52  0  0  0  0  0  0  0  0999 V2000
   -0.4490   22.4120  -27.6870 C   0  0  0  0  0  0  0  0  0  0  0  0
   -0.3570   22.8660  -29.0340 O   0  0  0  0  0  0  0  0  0  0  0  0
   -1.1270   22.3660  -30.0980 C   0  0  0  0  0  0  0  0  0  0  0  0
   -0.7130   21.2510  -30.8530 C   0  0  0  0  0  0  0  0  0  0  0  0
   -1.5110   20.7590  -31.8860 C   0  0  0  0  0  0  0  0  0  0  0  0
   -2.7420   21.3620  -32.1790 C   0  0  0  0  0  0  0  0  0  0  0  0
   -3.6280   20.8180  -33.2680 C   0  0  0  0  0  0  0  0  0  0  0  0
   -5.0590   21.0150  -32.9680 N   0  0  0  0  0  0  0  0  0  0  0  0
   -6.0010   19.9120  -33.2880 C   0  0  0  0  0  0  0  0  0  0  0  0
   -5.4710   18.7680  -34.1550 C   0  0  0  0  0  0  0  0  0  0  0  0
   -6.4320   17.6280  -33.8750 C   0  0  0  0  0  0  0  0  0  0  0  0
   -6.8340   17.7860  -32.4110 C   0  0  0  0  0  0  0  0  0  0  0  0
   -6.6100   19.2550  -32.0470 C   0  0  0  0  0  0  0  0  0  0  0  0
   -3.1480   22.4860  -31.4470 C   0  0  0  0  0  0  0  0  0  0  0  0
   -2.3460   22.9970  -30.4140 C   0  0  0  0  0  0  0  0  0  0  0  0
   -2.8440   24.1630  -29.6040 C   0  0  0  0  0  0  0  0  0  0  0  0
   -3.6170   25.0490  -30.4710 N   0  0  0  0  0  0  0  0  0  0  0  0
   -5.2350   25.2080  -29.8610 S   0  0  0  0  0  0  0  0  0  0  0  0
   -5.7290   26.6090  -30.0980 O   0  0  0  0  0  0  0  0  0  0  0  0
   -5.2410   24.9320  -28.3850 O   0  0  0  0  0  0  0  0  0  0  0  0
   -6.2930   24.0610  -30.6660 C   0  0  0  0  0  0  0  0  0  0  0  0
   -6.9900   23.1040  -29.9210 C   0  0  0  0  0  0  0  0  0  0  0  0
   -7.8160   22.1930  -30.5820 C   0  0  0  0  0  0  0  0  0  0  0  0
   -7.9380   22.2480  -31.9730 C   0  0  0  0  0  0  0  0  0  0  0  0
   -7.2260   23.2180  -32.6820 C   0  0  0  0  0  0  0  0  0  0  0  0
   -6.4250   24.0950  -32.0200 N   0  0  0  0  0  0  0  0  0  0  0  0
   -0.2779   23.2563  -27.0030 H   0  0  0  0  0  0  0  0  0  0  0  0
   -1.4503   21.9929  -27.5089 H   0  0  0  0  0  0  0  0  0  0  0  0
    0.3102   21.6362  -27.5089 H   0  0  0  0  0  0  0  0  0  0  0  0
    0.2471   20.7645  -30.6262 H   0  0  0  0  0  0  0  0  0  0  0  0
   -1.1724   19.8931  -32.4738 H   0  0  0  0  0  0  0  0  0  0  0  0
   -3.3888   21.3326  -34.2103 H   0  0  0  0  0  0  0  0  0  0  0  0
   -3.4437   19.7364  -33.3466 H   0  0  0  0  0  0  0  0  0  0  0  0
   -5.3670   21.8590  -33.5080 H   0  0  0  0  0  0  0  0  0  0  0  0
   -6.7464   20.4676  -33.8760 H   0  0  0  0  0  0  0  0  0  0  0  0
   -5.4883   19.0427  -35.2200 H   0  0  0  0  0  0  0  0  0  0  0  0
   -4.4262   18.5099  -33.9273 H   0  0  0  0  0  0  0  0  0  0  0  0
   -7.3153   17.7006  -34.5265 H   0  0  0  0  0  0  0  0  0  0  0  0
   -5.9714   16.6481  -34.0689 H   0  0  0  0  0  0  0  0  0  0  0  0
   -7.8932   17.5203  -32.2784 H   0  0  0  0  0  0  0  0  0  0  0  0
   -6.2389   17.1241  -31.7647 H   0  0  0  0  0  0  0  0  0  0  0  0
   -7.5662   19.7350  -31.7913 H   0  0  0  0  0  0  0  0  0  0  0  0
   -5.9490   19.3562  -31.1736 H   0  0  0  0  0  0  0  0  0  0  0  0
   -4.1053   22.9731  -31.6843 H   0  0  0  0  0  0  0  0  0  0  0  0
   -3.4827   23.7979  -28.7862 H   0  0  0  0  0  0  0  0  0  0  0  0
   -1.9906   24.7113  -29.1784 H   0  0  0  0  0  0  0  0  0  0  0  0
   -6.8884   23.0696  -28.8262 H   0  0  0  0  0  0  0  0  0  0  0  0
   -8.3693   21.4340  -30.0094 H   0  0  0  0  0  0  0  0  0  0  0  0
   -8.5872   21.5357  -32.5033 H   0  0  0  0  0  0  0  0  0  0  0  0
   -7.3133   23.2726  -33.7772 H   0  0  0  0  0  0  0  0  0  0  0  0
  1  2  1  0
  2  3  1  0
  3  4  2  0
  4  5  1  0
  5  6  2  0
  6  7  1  0
  7  8  1  0
  8  9  1  0
  9 10  1  0
 10 11  1  0
 11 12  1  0
 12 13  1  0
  6 14  1  0
 14 15  2  0
 15 16  1  0
 16 17  1  0
 17 18  1  0
 18 19  2  0
 18 20  2  0
 18 21  1  0
 21 22  2  0
 22 23  1  0
 23 24  2  0
 24 25  1  0
 25 26  2  0
 15  3  1  0
 26 21  1  0
 13  9  1  0
  1 27  1  0
  1 28  1  0
  1 29  1  0
  4 30  1  0
  5 31  1  0
  7 32  1  0
  7 33  1  0
  8 34  1  0
  9 35  1  0
 10 36  1  0
 10 37  1  0
 11 38  1  0
 11 39  1  0
 12 40  1  0
 12 41  1  0
 13 42  1  0
 13 43  1  0
 14 44  1  0
 16 45  1  0
 16 46  1  0
 22 47  1  0
 23 48  1  0
 24 49  1  0
 25 50  1  0
M  CHG  1  17  -1
M  END
>  <UniqueID>  (40) 
38

>  <SMILES>  (40) 
COc1ccc(CNC2CCCC2)cc1C[N-]S(=O)(=O)c1ccccn1

>  <Energy>  (40) 
56.49839007754094

>  <Genealogy>  (40) 
COc1ccc(CNC2CCCC2)cc1C[N-]S(=O)(=O)c1ccccn1 (protonated)
COc1ccc(CNC2CCCC2)cc1C[N-]S(=O)(=O)c1ccccn1 (3D coordinates assigned)
COc1ccc(CNC2CCCC2)cc1C[N-]S(=O)(=O)c1ccccn1 (nonaromatic ring conformer: 56.49839007754094 kcal/mol)

>  <smiles>  (40) 
COc1ccc(CNC2CCCC2)cc1CNS(=O)(=O)c1ccccn1

>  <score_type>  (40) 
oracle

>  <origin>  (40) 
adgpu

>  <m_score__min__energy>  (40) 
-9.7599999999999998

>  <m_primary>  (40) 
energy

$$$$
40:0
     RDKit          3D

 44 46  0  0  0  0  0  0  0  0999 V2000
   -5.1970   18.7470  -33.9630 C   0  0  0  0  0  0  0  0  0  0  0  0
   -6.3300   19.3160  -33.1510 C   0  0  0  0  0  0  0  0  0  0  0  0
   -7.4040   18.4780  -32.8000 C   0  0  0  0  0  0  0  0  0  0  0  0
   -8.4740   18.9710  -32.0530 C   0  0  0  0  0  0  0  0  0  0  0  0
   -9.5040   18.1530  -31.7230 F   0  0  0  0  0  0  0  0  0  0  0  0
   -8.4850   20.3030  -31.6450 C   0  0  0  0  0  0  0  0  0  0  0  0
   -7.4260   21.1480  -31.9780 C   0  0  0  0  0  0  0  0  0  0  0  0
   -6.3350   20.6730  -32.7350 C   0  0  0  0  0  0  0  0  0  0  0  0
   -5.2360   21.5500  -33.0720 N   0  0  0  0  0  0  0  0  0  0  0  0
   -3.9230   21.5140  -32.4260 C   0  0  0  0  0  0  0  0  0  0  0  0
   -3.7530   22.6820  -31.5010 C   0  0  0  0  0  0  0  0  0  0  0  0
   -4.6120   23.7190  -31.4480 N   0  0  0  0  0  0  0  0  0  0  0  0
   -4.1400   24.5700  -30.5480 N   0  0  0  0  0  0  0  0  0  0  0  0
   -3.0020   24.0370  -30.0650 C   0  0  0  0  0  0  0  0  0  0  0  0
   -1.9830   24.8440  -28.8260 S   0  0  0  0  0  0  0  0  0  0  0  0
   -2.8620   24.1080  -27.4050 C   0  0  0  0  0  0  0  0  0  0  0  0
   -2.5800   22.6350  -27.3030 C   0  0  0  0  0  0  0  0  0  0  0  0
   -3.4110   21.6420  -27.7880 C   0  0  0  0  0  0  0  0  0  0  0  0
   -2.7810   20.4420  -27.5220 C   0  0  0  0  0  0  0  0  0  0  0  0
   -1.5960   20.7470  -26.8840 C   0  0  0  0  0  0  0  0  0  0  0  0
   -1.4740   22.0830  -26.7580 N   0  0  0  0  0  0  0  0  0  0  0  0
   -0.3660   22.7770  -26.1050 C   0  0  0  0  0  0  0  0  0  0  0  0
   -2.7350   22.8450  -30.6290 N   0  0  0  0  0  0  0  0  0  0  0  0
   -1.5560   22.0030  -30.4420 C   0  0  0  0  0  0  0  0  0  0  0  0
   -4.4212   18.3574  -33.2874 H   0  0  0  0  0  0  0  0  0  0  0  0
   -5.5741   17.9313  -34.5974 H   0  0  0  0  0  0  0  0  0  0  0  0
   -4.7679   19.5366  -34.5974 H   0  0  0  0  0  0  0  0  0  0  0  0
   -7.4000   17.4248  -33.1173 H   0  0  0  0  0  0  0  0  0  0  0  0
   -9.3314   20.6897  -31.0584 H   0  0  0  0  0  0  0  0  0  0  0  0
   -7.4422   22.1967  -31.6463 H   0  0  0  0  0  0  0  0  0  0  0  0
   -5.3660   22.2810  -33.8060 H   0  0  0  0  0  0  0  0  0  0  0  0
   -3.8297   20.5813  -31.8503 H   0  0  0  0  0  0  0  0  0  0  0  0
   -3.1460   21.5634  -33.2031 H   0  0  0  0  0  0  0  0  0  0  0  0
   -2.5297   24.6030  -26.4806 H   0  0  0  0  0  0  0  0  0  0  0  0
   -3.9433   24.2492  -27.5497 H   0  0  0  0  0  0  0  0  0  0  0  0
   -4.3816   21.7803  -28.2869 H   0  0  0  0  0  0  0  0  0  0  0  0
   -3.1523   19.4369  -27.7708 H   0  0  0  0  0  0  0  0  0  0  0  0
   -0.8605   20.0093  -26.5308 H   0  0  0  0  0  0  0  0  0  0  0  0
   -0.4807   22.7051  -25.0134 H   0  0  0  0  0  0  0  0  0  0  0  0
    0.5851   22.3130  -26.4051 H   0  0  0  0  0  0  0  0  0  0  0  0
   -0.3684   23.8353  -26.4051 H   0  0  0  0  0  0  0  0  0  0  0  0
   -1.3681   21.8688  -29.3665 H   0  0  0  0  0  0  0  0  0  0  0  0
   -1.7280   21.0222  -30.9093 H   0  0  0  0  0  0  0  0  0  0  0  0
   -0.6841   22.4840  -30.9093 H   0  0  0  0  0  0  0  0  0  0  0  0
  1  2  1  0
  2  3  2  0
  3  4  1  0
  4  5  1  0
  4  6  2  0
  6  7  1  0
  7  8  2  0
  8  9  1  0
  9 10  1  0
 10 11  1  0
 11 12  2  0
 12 13  1  0
 13 14  2  0
 14 15  1  0
 15 16  1  0
 16 17  1  0
 17 18  2  0
 18 19  1  0
 19 20  2  0
 20 21  1  0
 21 22  1  0
 14 23  1  0
 23 24  1  0
  8  2  1  0
 23 11  1  0
 21 17  1  0
  1 25  1  0
  1 26  1  0
  1 27  1  0
  3 28  1  0
  6 29  1  0
  7 30  1  0
  9 31  1  0
 10 32  1  0
 10 33  1  0
 16 34  1  0
 16 35  1  0
 18 36  1  0
 19 37  1  0
 20 38  1  0
 22 39  1  0
 22 40  1  0
 22 41  1  0
 24 42  1  0
 24 43  1  0
 24 44  1  0
M  END
>  <UniqueID>  (41) 
39

>  <SMILES>  (41) 
Cc1cc(F)ccc1NCc1nnc(SCc2cccn2C)n1C

>  <Energy>  (41) 
99.037347359307

>  <Genealogy>  (41) 
Cc1cc(F)ccc1NCc1nnc(SCc2cccn2C)n1C (3D coordinates assigned)
Cc1cc(F)ccc1NCc1nnc(SCc2cccn2C)n1C (optimized conformer: 99.037347359307 kcal/mol)

>  <smiles>  (41) 
Cc1cc(F)ccc1NCc1nnc(SCc2cccn2C)n1C

>  <score_type>  (41) 
oracle

>  <origin>  (41) 
adgpu

>  <m_score__min__energy>  (41) 
-8.6400000000000006

>  <m_primary>  (41) 
energy

$$$$
41:0
     RDKit          3D

 53 55  0  0  0  0  0  0  0  0999 V2000
   -5.6130   25.6770  -30.2550 C   0  0  0  0  0  0  0  0  0  0  0  0
   -4.2630   25.9960  -30.4640 O   0  0  0  0  0  0  0  0  0  0  0  0
   -3.5850   24.8180  -30.4530 N   0  0  0  0  0  0  0  0  0  0  0  0
   -2.5890   24.5400  -29.4660 C   0  0  0  0  0  0  0  0  0  0  0  0
   -2.0040   25.5000  -28.8920 O   0  0  0  0  0  0  0  0  0  0  0  0
   -2.2480   23.1420  -29.1150 C   0  0  0  0  0  0  0  0  0  0  0  0
   -2.6840   22.5830  -27.9030 C   0  0  0  0  0  0  0  0  0  0  0  0
   -2.3420   21.2720  -27.5640 C   0  0  0  0  0  0  0  0  0  0  0  0
   -1.5590   20.4900  -28.4250 C   0  0  0  0  0  0  0  0  0  0  0  0
   -1.1600   19.1050  -27.9870 C   0  0  0  0  0  0  0  0  0  0  0  0
   -1.1650   21.0250  -29.6750 C   0  0  0  0  0  0  0  0  0  0  0  0
   -0.3920   20.2710  -30.6170 N   0  0  0  0  0  0  0  0  0  0  0  0
   -0.6010   20.2970  -32.0340 C   0  0  0  0  0  0  0  0  0  0  0  0
   -0.3210   21.3370  -32.6900 O   0  0  0  0  0  0  0  0  0  0  0  0
   -1.0950   19.0850  -32.7290 C   0  0  0  0  0  0  0  0  0  0  0  0
   -0.4310   17.8620  -32.5260 C   0  0  0  0  0  0  0  0  0  0  0  0
   -0.8430   16.7080  -33.1950 C   0  0  0  0  0  0  0  0  0  0  0  0
   -1.9290   16.7560  -34.0680 C   0  0  0  0  0  0  0  0  0  0  0  0
   -2.6100   17.9560  -34.2700 C   0  0  0  0  0  0  0  0  0  0  0  0
   -2.2020   19.1310  -33.6130 C   0  0  0  0  0  0  0  0  0  0  0  0
   -2.9770   20.3340  -33.7640 N   0  0  0  0  0  0  0  0  0  0  0  0
   -4.3370   20.4790  -33.3150 C   0  0  0  0  0  0  0  0  0  0  0  0
   -5.3080   19.5800  -33.7700 C   0  0  0  0  0  0  0  0  0  0  0  0
   -6.6310   19.6890  -33.3380 C   0  0  0  0  0  0  0  0  0  0  0  0
   -7.0090   20.6960  -32.4360 C   0  0  0  0  0  0  0  0  0  0  0  0
   -8.4450   20.7820  -31.9870 C   0  0  0  0  0  0  0  0  0  0  0  0
   -6.0290   21.5900  -31.9440 C   0  0  0  0  0  0  0  0  0  0  0  0
   -6.3860   22.6800  -30.9680 C   0  0  0  0  0  0  0  0  0  0  0  0
   -4.7010   21.4710  -32.3890 C   0  0  0  0  0  0  0  0  0  0  0  0
   -1.4860   22.3510  -29.9930 C   0  0  0  0  0  0  0  0  0  0  0  0
   -5.8155   25.6292  -29.1749 H   0  0  0  0  0  0  0  0  0  0  0  0
   -6.2476   26.4499  -30.7131 H   0  0  0  0  0  0  0  0  0  0  0  0
   -5.8345   24.7018  -30.7131 H   0  0  0  0  0  0  0  0  0  0  0  0
   -3.2994   23.1819  -27.2155 H   0  0  0  0  0  0  0  0  0  0  0  0
   -2.6909   20.8482  -26.6108 H   0  0  0  0  0  0  0  0  0  0  0  0
   -1.1464   19.0576  -26.8881 H   0  0  0  0  0  0  0  0  0  0  0  0
   -1.8842   18.3744  -28.3765 H   0  0  0  0  0  0  0  0  0  0  0  0
   -0.1581   18.8716  -28.3765 H   0  0  0  0  0  0  0  0  0  0  0  0
    0.4218   17.8142  -31.8329 H   0  0  0  0  0  0  0  0  0  0  0  0
   -0.3100   15.7595  -33.0331 H   0  0  0  0  0  0  0  0  0  0  0  0
   -2.2489   15.8466  -34.5978 H   0  0  0  0  0  0  0  0  0  0  0  0
   -3.4745   17.9840  -34.9496 H   0  0  0  0  0  0  0  0  0  0  0  0
   -2.5070   21.1650  -34.1900 H   0  0  0  0  0  0  0  0  0  0  0  0
   -5.0269   18.7819  -34.4729 H   0  0  0  0  0  0  0  0  0  0  0  0
   -7.3849   18.9786  -33.7082 H   0  0  0  0  0  0  0  0  0  0  0  0
   -8.4859   20.7845  -30.8878 H   0  0  0  0  0  0  0  0  0  0  0  0
   -8.8949   21.7087  -32.3727 H   0  0  0  0  0  0  0  0  0  0  0  0
   -9.0023   19.9156  -32.3727 H   0  0  0  0  0  0  0  0  0  0  0  0
   -6.2637   22.3067  -29.9405 H   0  0  0  0  0  0  0  0  0  0  0  0
   -5.7240   23.5443  -31.1253 H   0  0  0  0  0  0  0  0  0  0  0  0
   -7.4310   22.9852  -31.1253 H   0  0  0  0  0  0  0  0  0  0  0  0
   -3.9366   22.1637  -32.0072 H   0  0  0  0  0  0  0  0  0  0  0  0
   -1.1367   22.7799  -30.9438 H   0  0  0  0  0  0  0  0  0  0  0  0
  1  2  1  0
  2  3  1  0
  3  4  1  0
  4  5  2  0
  4  6  1  0
  6  7  2  0
  7  8  1  0
  8  9  2  0
  9 10  1  0
  9 11  1  0
 11 12  1  0
 12 13  1  0
 13 14  2  0
 13 15  1  0
 15 16  2  0
 16 17  1  0
 17 18  2  0
 18 19  1  0
 19 20  2  0
 20 21  1  0
 21 22  1  0
 22 23  2  0
 23 24  1  0
 24 25  2  0
 25 26  1  0
 25 27  1  0
 27 28  1  0
 27 29  2  0
 11 30  2  0
 30  6  1  0
 20 15  1  0
 29 22  1  0
  1 31  1  0
  1 32  1  0
  1 33  1  0
  7 34  1  0
  8 35  1  0
 10 36  1  0
 10 37  1  0
 10 38  1  0
 16 39  1  0
 17 40  1  0
 18 41  1  0
 19 42  1  0
 21 43  1  0
 23 44  1  0
 24 45  1  0
 26 46  1  0
 26 47  1  0
 26 48  1  0
 28 49  1  0
 28 50  1  0
 28 51  1  0
 29 52  1  0
 30 53  1  0
M  CHG  2   3  -1  12  -1
M  END
>  <UniqueID>  (42) 
40

>  <SMILES>  (42) 
CO[N-]C(=O)c1ccc(C)c([N-]C(=O)c2ccccc2Nc2ccc(C)c(C)c2)c1

>  <Energy>  (42) 
69.82211364873265

>  <Genealogy>  (42) 
CO[N-]C(=O)c1ccc(C)c([N-]C(=O)c2ccccc2Nc2ccc(C)c(C)c2)c1 (protonated)
CO[N-]C(=O)c1ccc(C)c([N-]C(=O)c2ccccc2Nc2ccc(C)c(C)c2)c1 (3D coordinates assigned)
CO[N-]C(=O)c1ccc(C)c([N-]C(=O)c2ccccc2Nc2ccc(C)c(C)c2)c1 (optimized conformer: 69.82211364873265 kcal/mol)

>  <smiles>  (42) 
CONC(=O)c1ccc(C)c(NC(=O)c2ccccc2Nc2ccc(C)c(C)c2)c1

>  <score_type>  (42) 
oracle

>  <origin>  (42) 
adgpu

>  <m_score__min__energy>  (42) 
-11.84

>  <m_primary>  (42) 
energy

$$$$
42:0
     RDKit          3D

 26 28  0  0  0  0  0  0  0  0999 V2000
   -4.2200   20.1540  -31.2810 O   0  0  0  0  0  0  0  0  0  0  0  0
   -5.2860   20.8060  -32.1130 S   0  0  0  0  0  0  0  0  0  0  0  0
   -4.8310   20.9310  -33.5400 O   0  0  0  0  0  0  0  0  0  0  0  0
   -6.7470   19.8520  -32.0480 C   0  0  0  0  0  0  0  0  0  0  0  0
   -6.7200   18.5290  -32.5100 C   0  0  0  0  0  0  0  0  0  0  0  0
   -7.8750   17.7450  -32.4680 C   0  0  0  0  0  0  0  0  0  0  0  0
   -9.0610   18.2790  -31.9630 C   0  0  0  0  0  0  0  0  0  0  0  0
   -9.0940   19.5960  -31.5010 C   0  0  0  0  0  0  0  0  0  0  0  0
   -7.9400   20.3990  -31.5370 C   0  0  0  0  0  0  0  0  0  0  0  0
   -8.0170   21.7530  -31.0500 N   0  0  0  0  0  0  0  0  0  0  0  0
   -6.9360   22.7060  -31.0140 C   0  0  0  0  0  0  0  0  0  0  0  0
   -7.1800   23.9940  -30.5050 C   0  0  0  0  0  0  0  0  0  0  0  0
   -6.1600   24.9460  -30.4530 C   0  0  0  0  0  0  0  0  0  0  0  0
   -4.8770   24.6270  -30.9100 C   0  0  0  0  0  0  0  0  0  0  0  0
   -3.8500   25.5670  -30.8640 O   0  0  0  0  0  0  0  0  0  0  0  0
   -4.6220   23.3510  -31.4180 C   0  0  0  0  0  0  0  0  0  0  0  0
   -5.6430   22.3920  -31.4720 C   0  0  0  0  0  0  0  0  0  0  0  0
   -5.7853   18.1065  -32.9073 H   0  0  0  0  0  0  0  0  0  0  0  0
   -7.8497   16.7075  -32.8327 H   0  0  0  0  0  0  0  0  0  0  0  0
   -9.9708   17.6617  -31.9289 H   0  0  0  0  0  0  0  0  0  0  0  0
  -10.0328   20.0101  -31.1045 H   0  0  0  0  0  0  0  0  0  0  0  0
   -8.9440   22.0750  -30.6880 H   0  0  0  0  0  0  0  0  0  0  0  0
   -8.1858   24.2544  -30.1437 H   0  0  0  0  0  0  0  0  0  0  0  0
   -6.3658   25.9493  -30.0517 H   0  0  0  0  0  0  0  0  0  0  0  0
   -3.1870   25.6640  -31.6240 H   0  0  0  0  0  0  0  0  0  0  0  0
   -3.6140   23.0972  -31.7778 H   0  0  0  0  0  0  0  0  0  0  0  0
  1  2  2  0
  2  3  2  0
  2  4  1  0
  4  5  2  0
  5  6  1  0
  6  7  2  0
  7  8  1  0
  8  9  2  0
  9 10  1  0
 10 11  1  0
 11 12  2  0
 12 13  1  0
 13 14  2  0
 14 15  1  0
 14 16  1  0
 16 17  2  0
 17  2  1  0
  9  4  1  0
 17 11  1  0
  5 18  1  0
  6 19  1  0
  7 20  1  0
  8 21  1  0
 10 22  1  0
 12 23  1  0
 13 24  1  0
 15 25  1  0
 16 26  1  0
M  END
>  <UniqueID>  (43) 
41

>  <SMILES>  (43) 
O=S1(=O)c2ccccc2Nc2ccc(O)cc21

>  <Energy>  (43) 
34.31972583584679

>  <Genealogy>  (43) 
O=S1(=O)c2ccccc2Nc2ccc(O)cc21 (3D coordinates assigned)
O=S1(=O)c2ccccc2Nc2ccc(O)cc21 (nonaromatic ring conformer: 34.31972583584679 kcal/mol)

>  <smiles>  (43) 
O=S1(=O)c2ccccc2Nc2ccc(O)cc21

>  <score_type>  (43) 
oracle

>  <origin>  (43) 
adgpu

>  <m_score__min__energy>  (43) 
-8.5899999999999999

>  <m_primary>  (43) 
energy

$$$$
43:0
     RDKit          3D

 45 46  0  0  0  0  0  0  0  0999 V2000
   -6.8530   24.1920  -30.6120 C   0  0  0  0  0  0  0  0  0  0  0  0
   -7.9280   23.4670  -31.4180 C   0  0  0  0  0  0  0  0  0  0  0  0
   -7.4340   22.1150  -31.8830 C   0  0  0  0  0  0  0  0  0  0  0  0
   -6.0540   21.9420  -32.0770 C   0  0  0  0  0  0  0  0  0  0  0  0
   -5.5280   20.7220  -32.5260 C   0  0  0  0  0  0  0  0  0  0  0  0
   -3.7790   20.5780  -32.7640 S   0  0  0  0  0  0  0  0  0  0  0  0
   -3.4390   19.2220  -33.3160 O   0  0  0  0  0  0  0  0  0  0  0  0
   -3.3240   21.6370  -33.7280 O   0  0  0  0  0  0  0  0  0  0  0  0
   -2.9800   20.7760  -31.2380 N   0  0  0  0  0  0  0  0  0  0  0  0
   -2.6880   22.0270  -30.6030 C   0  0  0  0  0  0  0  0  0  0  0  0
   -3.4220   23.1930  -30.8860 C   0  0  0  0  0  0  0  0  0  0  0  0
   -3.1050   24.3990  -30.2470 C   0  0  0  0  0  0  0  0  0  0  0  0
   -3.8510   25.5390  -30.5300 O   0  0  0  0  0  0  0  0  0  0  0  0
   -2.0420   24.4610  -29.3360 C   0  0  0  0  0  0  0  0  0  0  0  0
   -1.7540   25.7030  -28.6800 N   0  0  0  0  0  0  0  0  0  0  0  0
   -0.9190   25.8880  -27.5270 C   0  0  0  0  0  0  0  0  0  0  0  0
   -1.4490   25.7580  -26.1320 C   0  0  0  0  0  0  0  0  0  0  0  0
    0.3040   26.1340  -27.6950 O   0  0  0  0  0  0  0  0  0  0  0  0
   -1.3290   23.2900  -29.0310 C   0  0  0  0  0  0  0  0  0  0  0  0
   -1.6440   22.0810  -29.6670 C   0  0  0  0  0  0  0  0  0  0  0  0
   -0.9240   20.9250  -29.3690 O   0  0  0  0  0  0  0  0  0  0  0  0
   -6.4050   19.6390  -32.7740 C   0  0  0  0  0  0  0  0  0  0  0  0
   -5.9020   18.3010  -33.2510 C   0  0  0  0  0  0  0  0  0  0  0  0
   -7.7860   19.8230  -32.6120 C   0  0  0  0  0  0  0  0  0  0  0  0
   -8.3150   21.0500  -32.1830 C   0  0  0  0  0  0  0  0  0  0  0  0
   -9.8060   21.1800  -32.0050 C   0  0  0  0  0  0  0  0  0  0  0  0
   -7.0487   24.0600  -29.5376 H   0  0  0  0  0  0  0  0  0  0  0  0
   -5.8657   23.7746  -30.8588 H   0  0  0  0  0  0  0  0  0  0  0  0
   -6.8700   25.2638  -30.8588 H   0  0  0  0  0  0  0  0  0  0  0  0
   -8.8184   23.3277  -30.7873 H   0  0  0  0  0  0  0  0  0  0  0  0
   -8.1742   24.0742  -32.3016 H   0  0  0  0  0  0  0  0  0  0  0  0
   -5.3718   22.7804  -31.8726 H   0  0  0  0  0  0  0  0  0  0  0  0
   -4.2479   23.1580  -31.6117 H   0  0  0  0  0  0  0  0  0  0  0  0
   -0.6407   25.9563  -25.4127 H   0  0  0  0  0  0  0  0  0  0  0  0
   -2.2617   26.4834  -25.9794 H   0  0  0  0  0  0  0  0  0  0  0  0
   -1.8338   24.7388  -25.9794 H   0  0  0  0  0  0  0  0  0  0  0  0
   -0.5182   23.3217  -28.2883 H   0  0  0  0  0  0  0  0  0  0  0  0
   -1.1200   20.0440  -29.8310 H   0  0  0  0  0  0  0  0  0  0  0  0
   -5.6641   17.6682  -32.3833 H   0  0  0  0  0  0  0  0  0  0  0  0
   -6.6781   17.8130  -33.8589 H   0  0  0  0  0  0  0  0  0  0  0  0
   -4.9967   18.4451  -33.8589 H   0  0  0  0  0  0  0  0  0  0  0  0
   -8.4690   18.9877  -32.8258 H   0  0  0  0  0  0  0  0  0  0  0  0
  -10.0467   21.2010  -30.9319 H   0  0  0  0  0  0  0  0  0  0  0  0
  -10.1517   22.1117  -32.4766 H   0  0  0  0  0  0  0  0  0  0  0  0
  -10.3077   20.3222  -32.4766 H   0  0  0  0  0  0  0  0  0  0  0  0
  1  2  1  0
  2  3  1  0
  3  4  2  0
  4  5  1  0
  5  6  1  0
  6  7  2  0
  6  8  2  0
  6  9  1  0
  9 10  1  0
 10 11  2  0
 11 12  1  0
 12 13  1  0
 12 14  2  0
 14 15  1  0
 15 16  1  0
 16 17  1  0
 16 18  2  0
 14 19  1  0
 19 20  2  0
 20 21  1  0
  5 22  2  0
 22 23  1  0
 22 24  1  0
 24 25  2  0
 25 26  1  0
 25  3  1  0
 20 10  1  0
  1 27  1  0
  1 28  1  0
  1 29  1  0
  2 30  1  0
  2 31  1  0
  4 32  1  0
 11 33  1  0
 17 34  1  0
 17 35  1  0
 17 36  1  0
 19 37  1  0
 21 38  1  0
 23 39  1  0
 23 40  1  0
 23 41  1  0
 24 42  1  0
 26 43  1  0
 26 44  1  0
 26 45  1  0
M  CHG  3   9  -1  13  -1  15  -1
M  END
>  <UniqueID>  (44) 
42

>  <SMILES>  (44) 
CCc1cc(S(=O)(=O)[N-]c2cc([O-])c([N-]C(C)=O)cc2O)c(C)cc1C

>  <Energy>  (44) 
51.913667393486584

>  <Genealogy>  (44) 
CCc1cc(S(=O)(=O)[N-]c2cc([O-])c([N-]C(C)=O)cc2O)c(C)cc1C (protonated)
CCc1cc(S(=O)(=O)[N-]c2cc([O-])c([N-]C(C)=O)cc2O)c(C)cc1C (3D coordinates assigned)
CCc1cc(S(=O)(=O)[N-]c2cc([O-])c([N-]C(C)=O)cc2O)c(C)cc1C (optimized conformer: 51.913667393486584 kcal/mol)

>  <smiles>  (44) 
CCc1cc(S(=O)(=O)Nc2cc(O)c(NC(C)=O)cc2O)c(C)cc1C

>  <score_type>  (44) 
oracle

>  <origin>  (44) 
adgpu

>  <m_score__min__energy>  (44) 
-13.140000000000001

>  <m_primary>  (44) 
energy

$$$$
44:0
     RDKit          3D

 50 52  0  0  0  0  0  0  0  0999 V2000
   -3.1240   16.5090  -33.8560 C   0  0  0  0  0  0  0  0  0  0  0  0
   -3.4340   17.3310  -35.0280 N   0  0  0  0  0  0  0  0  0  0  0  0
   -4.8710   17.3150  -35.3430 C   0  0  0  0  0  0  0  0  0  0  0  0
   -5.7090   17.8640  -34.2130 C   0  0  0  0  0  0  0  0  0  0  0  0
   -6.8350   17.1610  -33.7580 C   0  0  0  0  0  0  0  0  0  0  0  0
   -7.6210   17.6830  -32.7290 C   0  0  0  0  0  0  0  0  0  0  0  0
   -7.2930   18.9100  -32.1480 C   0  0  0  0  0  0  0  0  0  0  0  0
   -6.1700   19.6320  -32.5920 C   0  0  0  0  0  0  0  0  0  0  0  0
   -5.8180   20.9340  -31.9710 C   0  0  0  0  0  0  0  0  0  0  0  0
   -4.5370   21.4880  -32.1490 C   0  0  0  0  0  0  0  0  0  0  0  0
   -4.2040   22.7090  -31.5560 C   0  0  0  0  0  0  0  0  0  0  0  0
   -5.1470   23.4000  -30.7830 C   0  0  0  0  0  0  0  0  0  0  0  0
   -4.7350   24.9310  -30.0210 S   0  0  0  0  0  0  0  0  0  0  0  0
   -5.1130   26.0500  -30.9510 O   0  0  0  0  0  0  0  0  0  0  0  0
   -5.4840   25.0580  -28.7230 O   0  0  0  0  0  0  0  0  0  0  0  0
   -3.0330   24.9490  -29.7070 N   0  0  0  0  0  0  0  0  0  0  0  0
   -2.3210   24.1410  -28.7580 C   0  0  0  0  0  0  0  0  0  0  0  0
   -2.2180   24.2590  -27.3740 C   0  0  0  0  0  0  0  0  0  0  0  0
   -2.8040   25.3020  -26.4800 C   0  0  0  0  0  0  0  0  0  0  0  0
   -1.3780   23.3060  -26.9170 N   0  0  0  0  0  0  0  0  0  0  0  0
   -0.9570   22.5990  -27.9550 N   0  0  0  0  0  0  0  0  0  0  0  0
   -0.0130   21.4920  -27.8460 C   0  0  0  0  0  0  0  0  0  0  0  0
   -1.5090   23.0760  -29.0890 C   0  0  0  0  0  0  0  0  0  0  0  0
   -1.2030   22.5840  -30.4710 C   0  0  0  0  0  0  0  0  0  0  0  0
   -6.4220   22.8530  -30.6010 C   0  0  0  0  0  0  0  0  0  0  0  0
   -6.7570   21.6310  -31.1890 C   0  0  0  0  0  0  0  0  0  0  0  0
   -5.3840   19.0990  -33.6310 C   0  0  0  0  0  0  0  0  0  0  0  0
   -3.3392   17.0797  -32.9406 H   0  0  0  0  0  0  0  0  0  0  0  0
   -3.7404   15.5981  -33.8736 H   0  0  0  0  0  0  0  0  0  0  0  0
   -2.0596   16.2319  -33.8736 H   0  0  0  0  0  0  0  0  0  0  0  0
   -2.8930   16.9660  -35.8460 H   0  0  0  0  0  0  0  0  0  0  0  0
   -5.0436   17.9261  -36.2412 H   0  0  0  0  0  0  0  0  0  0  0  0
   -5.1691   16.2689  -35.5070 H   0  0  0  0  0  0  0  0  0  0  0  0
   -7.0993   16.1953  -34.2136 H   0  0  0  0  0  0  0  0  0  0  0  0
   -8.5011   17.1263  -32.3748 H   0  0  0  0  0  0  0  0  0  0  0  0
   -7.9170   19.3147  -31.3376 H   0  0  0  0  0  0  0  0  0  0  0  0
   -3.7922   20.9563  -32.7593 H   0  0  0  0  0  0  0  0  0  0  0  0
   -3.1973   23.1295  -31.6966 H   0  0  0  0  0  0  0  0  0  0  0  0
   -2.6438   25.0168  -25.4298 H   0  0  0  0  0  0  0  0  0  0  0  0
   -2.3169   26.2686  -26.6759 H   0  0  0  0  0  0  0  0  0  0  0  0
   -3.8829   25.3888  -26.6759 H   0  0  0  0  0  0  0  0  0  0  0  0
    0.1740   21.2727  -26.7844 H   0  0  0  0  0  0  0  0  0  0  0  0
   -0.4340   20.6015  -28.3357 H   0  0  0  0  0  0  0  0  0  0  0  0
    0.9328   21.7671  -28.3357 H   0  0  0  0  0  0  0  0  0  0  0  0
   -0.6230   21.6514  -30.4082 H   0  0  0  0  0  0  0  0  0  0  0  0
   -2.1434   22.3954  -31.0096 H   0  0  0  0  0  0  0  0  0  0  0  0
   -0.6180   23.3440  -31.0096 H   0  0  0  0  0  0  0  0  0  0  0  0
   -7.1648   23.3884  -29.9914 H   0  0  0  0  0  0  0  0  0  0  0  0
   -7.7624   21.2106  -31.0395 H   0  0  0  0  0  0  0  0  0  0  0  0
   -4.5062   19.6561  -33.9904 H   0  0  0  0  0  0  0  0  0  0  0  0
  1  2  1  0
  2  3  1  0
  3  4  1  0
  4  5  2  0
  5  6  1  0
  6  7  2  0
  7  8  1  0
  8  9  1  0
  9 10  2  0
 10 11  1  0
 11 12  2  0
 12 13  1  0
 13 14  2  0
 13 15  2  0
 13 16  1  0
 16 17  1  0
 17 18  1  0
 18 19  1  0
 18 20  2  0
 20 21  1  0
 21 22  1  0
 21 23  1  0
 23 24  1  0
 12 25  1  0
 25 26  2  0
  8 27  2  0
 27  4  1  0
 26  9  1  0
 23 17  2  0
  1 28  1  0
  1 29  1  0
  1 30  1  0
  2 31  1  0
  3 32  1  0
  3 33  1  0
  5 34  1  0
  6 35  1  0
  7 36  1  0
 10 37  1  0
 11 38  1  0
 19 39  1  0
 19 40  1  0
 19 41  1  0
 22 42  1  0
 22 43  1  0
 22 44  1  0
 24 45  1  0
 24 46  1  0
 24 47  1  0
 25 48  1  0
 26 49  1  0
 27 50  1  0
M  CHG  1  16  -1
M  END
>  <UniqueID>  (45) 
43

>  <SMILES>  (45) 
CNCc1cccc(-c2ccc(S(=O)(=O)[N-]c3c(C)nn(C)c3C)cc2)c1

>  <Energy>  (45) 
91.69499060371461

>  <Genealogy>  (45) 
CNCc1cccc(-c2ccc(S(=O)(=O)[N-]c3c(C)nn(C)c3C)cc2)c1 (protonated)
CNCc1cccc(-c2ccc(S(=O)(=O)[N-]c3c(C)nn(C)c3C)cc2)c1 (3D coordinates assigned)
CNCc1cccc(-c2ccc(S(=O)(=O)[N-]c3c(C)nn(C)c3C)cc2)c1 (optimized conformer: 91.69499060371461 kcal/mol)

>  <smiles>  (45) 
CNCc1cccc(-c2ccc(S(=O)(=O)Nc3c(C)nn(C)c3C)cc2)c1

>  <score_type>  (45) 
oracle

>  <origin>  (45) 
adgpu

>  <m_score__min__energy>  (45) 
-9.8599999999999994

>  <m_primary>  (45) 
energy

$$$$
45:0
     RDKit          3D

 50 53  0  0  0  0  0  0  0  0999 V2000
   -3.9010   17.0510  -35.2350 C   0  0  0  0  0  0  0  0  0  0  0  0
   -5.2000   16.9070  -34.5610 N   0  0  0  0  0  0  0  0  0  0  0  0
   -6.0440   18.1140  -34.7440 C   0  0  0  0  0  0  0  0  0  0  0  0
   -6.0240   19.0350  -33.5130 C   0  0  0  0  0  0  0  0  0  0  0  0
   -6.4870   18.3440  -32.2820 N   0  0  0  0  0  0  0  0  0  0  0  0
   -7.9030   18.6490  -31.9880 C   0  0  0  0  0  0  0  0  0  0  0  0
   -8.1150   20.1350  -31.8420 C   0  0  0  0  0  0  0  0  0  0  0  0
   -9.2900   20.7240  -32.3290 C   0  0  0  0  0  0  0  0  0  0  0  0
   -9.4770   22.1030  -32.2290 C   0  0  0  0  0  0  0  0  0  0  0  0
   -8.4920   22.9060  -31.6480 C   0  0  0  0  0  0  0  0  0  0  0  0
   -7.3030   22.3370  -31.1570 C   0  0  0  0  0  0  0  0  0  0  0  0
   -6.2570   23.2000  -30.5490 C   0  0  0  0  0  0  0  0  0  0  0  0
   -6.0630   24.5640  -30.7670 C   0  0  0  0  0  0  0  0  0  0  0  0
   -4.9880   25.1070  -30.0510 C   0  0  0  0  0  0  0  0  0  0  0  0
   -4.3140   24.1790  -29.2540 C   0  0  0  0  0  0  0  0  0  0  0  0
   -3.1380   24.4360  -28.3830 C   0  0  0  0  0  0  0  0  0  0  0  0
   -3.3200   24.7610  -27.0250 C   0  0  0  0  0  0  0  0  0  0  0  0
   -2.2190   25.0050  -26.1990 C   0  0  0  0  0  0  0  0  0  0  0  0
   -0.9250   24.9300  -26.7150 C   0  0  0  0  0  0  0  0  0  0  0  0
   -0.7250   24.6130  -28.0630 C   0  0  0  0  0  0  0  0  0  0  0  0
    0.5620   24.5410  -28.5920 O   0  0  0  0  0  0  0  0  0  0  0  0
   -1.8260   24.3680  -28.8920 C   0  0  0  0  0  0  0  0  0  0  0  0
   -5.0730   22.6890  -29.4630 S   0  0  0  0  0  0  0  0  0  0  0  0
   -7.1230   20.9440  -31.2650 C   0  0  0  0  0  0  0  0  0  0  0  0
   -6.2410   16.8790  -32.3060 C   0  0  0  0  0  0  0  0  0  0  0  0
   -5.0060   16.5300  -33.1420 C   0  0  0  0  0  0  0  0  0  0  0  0
   -3.1047   17.1393  -34.4813 H   0  0  0  0  0  0  0  0  0  0  0  0
   -3.7144   16.1680  -35.8639 H   0  0  0  0  0  0  0  0  0  0  0  0
   -3.9123   17.9534  -35.8639 H   0  0  0  0  0  0  0  0  0  0  0  0
   -5.6718   18.6770  -35.6126 H   0  0  0  0  0  0  0  0  0  0  0  0
   -7.0807   17.7787  -34.8953 H   0  0  0  0  0  0  0  0  0  0  0  0
   -4.9950   19.3894  -33.3535 H   0  0  0  0  0  0  0  0  0  0  0  0
   -6.7121   19.8708  -33.7078 H   0  0  0  0  0  0  0  0  0  0  0  0
   -8.5302   18.2750  -32.8107 H   0  0  0  0  0  0  0  0  0  0  0  0
   -8.1783   18.1603  -31.0417 H   0  0  0  0  0  0  0  0  0  0  0  0
  -10.0668   20.0973  -32.7913 H   0  0  0  0  0  0  0  0  0  0  0  0
  -10.4029   22.5596  -32.6088 H   0  0  0  0  0  0  0  0  0  0  0  0
   -8.6478   23.9924  -31.5740 H   0  0  0  0  0  0  0  0  0  0  0  0
   -6.6969   25.1597  -31.4404 H   0  0  0  0  0  0  0  0  0  0  0  0
   -4.7011   26.1672  -30.1111 H   0  0  0  0  0  0  0  0  0  0  0  0
   -4.3371   24.8234  -26.6107 H   0  0  0  0  0  0  0  0  0  0  0  0
   -2.3733   25.2568  -25.1394 H   0  0  0  0  0  0  0  0  0  0  0  0
   -0.0610   25.1203  -26.0613 H   0  0  0  0  0  0  0  0  0  0  0  0
    1.3120   24.0730  -28.0970 H   0  0  0  0  0  0  0  0  0  0  0  0
   -1.6652   24.1199  -29.9515 H   0  0  0  0  0  0  0  0  0  0  0  0
   -6.1951   20.4850  -30.8932 H   0  0  0  0  0  0  0  0  0  0  0  0
   -6.0866   16.5257  -31.2758 H   0  0  0  0  0  0  0  0  0  0  0  0
   -7.1149   16.3901  -32.7612 H   0  0  0  0  0  0  0  0  0  0  0  0
   -4.1363   17.0717  -32.7418 H   0  0  0  0  0  0  0  0  0  0  0  0
   -4.8426   15.4436  -33.0879 H   0  0  0  0  0  0  0  0  0  0  0  0
  1  2  1  0
  2  3  1  0
  3  4  1  0
  4  5  1  0
  5  6  1  0
  6  7  1  0
  7  8  2  0
  8  9  1  0
  9 10  2  0
 10 11  1  0
 11 12  1  0
 12 13  2  0
 13 14  1  0
 14 15  2  0
 15 16  1  0
 16 17  2  0
 17 18  1  0
 18 19  2  0
 19 20  1  0
 20 21  1  0
 20 22  2  0
 15 23  1  0
 11 24  2  0
  5 25  1  0
 25 26  1  0
 26  2  1  0
 24  7  1  0
 23 12  1  0
 22 16  1  0
  1 27  1  0
  1 28  1  0
  1 29  1  0
  3 30  1  0
  3 31  1  0
  4 32  1  0
  4 33  1  0
  6 34  1  0
  6 35  1  0
  8 36  1  0
  9 37  1  0
 10 38  1  0
 13 39  1  0
 14 40  1  0
 17 41  1  0
 18 42  1  0
 19 43  1  0
 21 44  1  0
 22 45  1  0
 24 46  1  0
 25 47  1  0
 25 48  1  0
 26 49  1  0
 26 50  1  0
M  END
>  <UniqueID>  (46) 
44

>  <SMILES>  (46) 
CN1CCN(Cc2cccc(-c3ccc(-c4cccc(O)c4)s3)c2)CC1

>  <Energy>  (46) 
95.78680754535645

>  <Genealogy>  (46) 
CN1CCN(Cc2cccc(-c3ccc(-c4cccc(O)c4)s3)c2)CC1 (3D coordinates assigned)
CN1CCN(Cc2cccc(-c3ccc(-c4cccc(O)c4)s3)c2)CC1 (nonaromatic ring conformer: 95.78680754535645 kcal/mol)

>  <smiles>  (46) 
CN1CCN(Cc2cccc(-c3ccc(-c4cccc(O)c4)s3)c2)CC1

>  <score_type>  (46) 
oracle

>  <origin>  (46) 
adgpu

>  <m_score__min__energy>  (46) 
-9.5

>  <m_primary>  (46) 
energy

$$$$
46:0
     RDKit          3D

 72 76  0  0  1  0  0  0  0  0999 V2000
   -1.2000   27.1020  -24.5540 C   0  0  0  0  0  0  0  0  0  0  0  0
   -0.7710   26.6590  -25.8200 O   0  0  0  0  0  0  0  0  0  0  0  0
    0.4930   26.0800  -26.0460 C   0  0  0  0  0  0  0  0  0  0  0  0
    1.4920   26.2170  -25.1170 C   0  0  0  0  0  0  0  0  0  0  0  0
    2.7500   25.6660  -25.2950 C   0  0  0  0  0  0  0  0  0  0  0  0
    3.7370   25.8560  -24.2950 N   0  0  0  0  0  0  0  0  0  0  0  0
    3.5120   25.3180  -22.9470 C   0  0  0  0  0  0  0  0  0  0  0  0
    4.3590   26.1350  -21.9880 C   0  0  0  0  0  0  0  0  0  0  0  0
    4.2930   27.5400  -22.3530 N   0  0  0  0  0  0  0  0  0  0  0  0
    2.9310   27.9880  -22.5470 C   0  0  0  0  0  0  0  0  0  0  0  0
    5.0570   27.7620  -23.5690 C   0  0  0  0  0  0  0  0  0  0  0  0
    4.9830   26.5520  -24.4950 C   0  0  0  0  0  0  0  0  0  0  0  0
    2.9690   24.9680  -26.4480 C   0  0  0  0  0  0  0  0  0  0  0  0
    1.9810   24.8230  -27.3860 C   0  0  0  0  0  0  0  0  0  0  0  0
    0.7080   25.3550  -27.2520 C   0  0  0  0  0  0  0  0  0  0  0  0
   -0.3080   25.3590  -28.1690 N   0  0  0  0  0  0  0  0  0  0  0  0
   -1.2060   24.5290  -28.3600 C   0  0  0  0  0  0  0  0  0  0  0  0
   -2.0920   24.8180  -29.3740 N   0  0  0  0  0  0  0  0  0  0  0  0
   -3.0970   24.0040  -29.7020 C   0  0  0  0  0  0  0  0  0  0  0  0
   -3.8890   24.3310  -30.6590 N   0  0  0  0  0  0  0  0  0  0  0  0
   -4.9500   23.4510  -30.9910 C   0  0  0  0  0  0  0  0  0  0  0  0
   -4.8720   22.5560  -32.0510 C   0  0  0  0  0  0  0  0  0  0  0  0
   -5.9230   21.7170  -32.3520 C   0  0  0  0  0  0  0  0  0  0  0  0
   -7.0980   21.7180  -31.6290 C   0  0  0  0  0  0  0  0  0  0  0  0
   -8.3730   20.6130  -32.0860 S   0  0  0  0  0  0  0  0  0  0  0  0
   -9.6460   21.3420  -32.3820 O   0  0  0  0  0  0  0  0  0  0  0  0
   -8.6960   19.7970  -30.8210 O   0  0  0  0  0  0  0  0  0  0  0  0
   -7.9220   19.4900  -33.2780 N   0  0  0  0  0  0  0  0  0  0  0  0
   -7.1560   18.5040  -33.0090 C   0  0  0  0  0  0  0  0  0  0  0  0
   -6.6180   18.2310  -31.7780 C   0  0  0  0  0  0  0  0  0  0  0  0
   -5.8130   17.1420  -31.6260 C   0  0  0  0  0  0  0  0  0  0  0  0
   -5.5170   16.2930  -32.6790 C   0  0  0  0  0  0  0  0  0  0  0  0
   -6.0680   16.5920  -33.8950 C   0  0  0  0  0  0  0  0  0  0  0  0
   -6.8540   17.6640  -34.0210 N   0  0  0  0  0  0  0  0  0  0  0  0
   -7.1850   22.6000  -30.5800 C   0  0  0  0  0  0  0  0  0  0  0  0
   -6.1380   23.4440  -30.2700 C   0  0  0  0  0  0  0  0  0  0  0  0
   -3.2320   22.8720  -29.0100 N   0  0  0  0  0  0  0  0  0  0  0  0
   -2.3950   22.5550  -28.0170 C   0  0  0  0  0  0  0  0  0  0  0  0
   -1.3140   23.3690  -27.6190 C   0  0  0  0  0  0  0  0  0  0  0  0
   -0.4490   22.9650  -26.5280 C   0  0  0  0  0  0  0  0  0  0  0  0
   -0.5770   23.5040  -25.2930 F   0  0  0  0  0  0  0  0  0  0  0  0
    0.7400   22.3390  -26.8440 F   0  0  0  0  0  0  0  0  0  0  0  0
   -1.0930   21.7250  -26.1300 F   0  0  0  0  0  0  0  0  0  0  0  0
   -0.6631   26.5476  -23.7702 H   0  0  0  0  0  0  0  0  0  0  0  0
   -0.9908   28.1770  -24.4514 H   0  0  0  0  0  0  0  0  0  0  0  0
   -2.2812   26.9274  -24.4514 H   0  0  0  0  0  0  0  0  0  0  0  0
    1.2869   26.7848  -24.1975 H   0  0  0  0  0  0  0  0  0  0  0  0
    2.4488   25.4062  -22.6791 H   0  0  0  0  0  0  0  0  0  0  0  0
    3.7880   24.2542  -22.9011 H   0  0  0  0  0  0  0  0  0  0  0  0
    3.9802   26.0050  -20.9635 H   0  0  0  0  0  0  0  0  0  0  0  0
    5.4031   25.7929  -22.0414 H   0  0  0  0  0  0  0  0  0  0  0  0
    2.4537   28.1450  -21.5684 H   0  0  0  0  0  0  0  0  0  0  0  0
    2.9325   28.9330  -23.1100 H   0  0  0  0  0  0  0  0  0  0  0  0
    2.3712   27.2266  -23.1100 H   0  0  0  0  0  0  0  0  0  0  0  0
    4.6510   28.6400  -24.0927 H   0  0  0  0  0  0  0  0  0  0  0  0
    6.1093   27.9268  -23.2943 H   0  0  0  0  0  0  0  0  0  0  0  0
    5.0491   26.8882  -25.5403 H   0  0  0  0  0  0  0  0  0  0  0  0
    5.8176   25.8720  -24.2693 H   0  0  0  0  0  0  0  0  0  0  0  0
    3.9551   24.5146  -26.6267 H   0  0  0  0  0  0  0  0  0  0  0  0
    2.2111   24.2518  -28.2975 H   0  0  0  0  0  0  0  0  0  0  0  0
   -2.0030   25.7030  -29.9290 H   0  0  0  0  0  0  0  0  0  0  0  0
   -3.9566   22.5165  -32.6597 H   0  0  0  0  0  0  0  0  0  0  0  0
   -5.8215   21.0220  -33.1986 H   0  0  0  0  0  0  0  0  0  0  0  0
   -6.8342   18.8852  -30.9205 H   0  0  0  0  0  0  0  0  0  0  0  0
   -5.3847   16.9307  -30.6351 H   0  0  0  0  0  0  0  0  0  0  0  0
   -4.8669   15.4160  -32.5437 H   0  0  0  0  0  0  0  0  0  0  0  0
   -5.8642   15.9516  -34.7658 H   0  0  0  0  0  0  0  0  0  0  0  0
   -7.2490   17.8430  -34.9800 H   0  0  0  0  0  0  0  0  0  0  0  0
   -8.1043   22.6343  -29.9769 H   0  0  0  0  0  0  0  0  0  0  0  0
   -6.2478   24.1359  -29.4219 H   0  0  0  0  0  0  0  0  0  0  0  0
   -4.0230   22.2170  -29.2590 H   0  0  0  0  0  0  0  0  0  0  0  0
   -2.5581   21.6082  -27.4813 H   0  0  0  0  0  0  0  0  0  0  0  0
  1  2  1  0
  2  3  1  0
  3  4  2  0
  4  5  1  0
  5  6  1  0
  6  7  1  0
  7  8  1  0
  8  9  1  0
  9 10  1  0
  9 11  1  0
 11 12  1  0
  5 13  2  0
 13 14  1  0
 14 15  2  0
 15 16  1  0
 16 17  2  0
 17 18  1  0
 18 19  1  0
 19 20  2  0
 20 21  1  0
 21 22  2  0
 22 23  1  0
 23 24  2  0
 24 25  1  0
 25 26  2  0
 25 27  2  0
 25 28  1  0
 28 29  2  0
 29 30  1  0
 30 31  2  0
 31 32  1  0
 32 33  2  0
 33 34  1  0
 24 35  1  0
 35 36  2  0
 19 37  1  0
 37 38  1  0
 38 39  2  0
 39 40  1  0
 40 41  1  0
 40 42  1  0
 40 43  1  0
 15  3  1  0
 39 17  1  0
 12  6  1  0
 36 21  1  0
 34 29  1  0
  1 44  1  0
  1 45  1  0
  1 46  1  0
  4 47  1  0
  7 48  1  0
  7 49  1  0
  8 50  1  0
  8 51  1  0
 10 52  1  0
 10 53  1  0
 10 54  1  0
 11 55  1  0
 11 56  1  0
 12 57  1  0
 12 58  1  0
 13 59  1  0
 14 60  1  0
 18 61  1  0
 22 62  1  0
 23 63  1  0
 30 64  1  0
 31 65  1  0
 32 66  1  0
 33 67  1  0
 34 68  1  0
 35 69  1  0
 36 70  1  0
 37 71  1  0
 38 72  1  0
M  END
>  <smiles>  (47) 
COc1cc(N2CCN(C)CC2)ccc1N=c1[nH]c(=Nc2ccc(S(=O)(=O)N=c3cccc[nH]3)cc2)[nH]cc1C(F)(F)F

>  <score_type>  (47) 
oracle

>  <origin>  (47) 
adgpu

>  <m_score__min__energy>  (47) 
-10.210000000000001

>  <m_primary>  (47) 
energy

$$$$
47:0
     RDKit          3D

 42 44  0  0  0  0  0  0  0  0999 V2000
   -3.6370   24.5440  -27.0860 C   0  0  0  0  0  0  0  0  0  0  0  0
   -2.8690   23.6230  -27.9940 C   0  0  0  0  0  0  0  0  0  0  0  0
   -2.1850   22.5210  -27.4540 C   0  0  0  0  0  0  0  0  0  0  0  0
   -1.4480   21.6720  -28.2810 C   0  0  0  0  0  0  0  0  0  0  0  0
   -1.3810   21.9160  -29.6520 C   0  0  0  0  0  0  0  0  0  0  0  0
   -2.0470   23.0140  -30.2020 C   0  0  0  0  0  0  0  0  0  0  0  0
   -2.7910   23.8820  -29.3800 C   0  0  0  0  0  0  0  0  0  0  0  0
   -3.4720   25.0260  -29.9200 N   0  0  0  0  0  0  0  0  0  0  0  0
   -5.1900   25.1780  -30.1040 S   0  0  0  0  0  0  0  0  0  0  0  0
   -5.4930   26.4090  -30.9100 O   0  0  0  0  0  0  0  0  0  0  0  0
   -5.8230   25.3190  -28.7480 O   0  0  0  0  0  0  0  0  0  0  0  0
   -5.8190   23.7710  -30.9540 C   0  0  0  0  0  0  0  0  0  0  0  0
   -7.1910   23.6810  -31.2220 C   0  0  0  0  0  0  0  0  0  0  0  0
   -7.7000   22.5790  -31.9140 C   0  0  0  0  0  0  0  0  0  0  0  0
   -6.8430   21.5630  -32.3420 C   0  0  0  0  0  0  0  0  0  0  0  0
   -5.4690   21.6420  -32.0760 C   0  0  0  0  0  0  0  0  0  0  0  0
   -4.3740   20.3760  -32.6220 S   0  0  0  0  0  0  0  0  0  0  0  0
   -3.6000   20.8380  -33.8260 O   0  0  0  0  0  0  0  0  0  0  0  0
   -3.4020   20.0490  -31.5240 O   0  0  0  0  0  0  0  0  0  0  0  0
   -5.3010   18.9440  -33.0640 C   0  0  0  0  0  0  0  0  0  0  0  0
   -6.2380   18.4110  -32.1670 C   0  0  0  0  0  0  0  0  0  0  0  0
   -6.9630   17.2640  -32.5080 C   0  0  0  0  0  0  0  0  0  0  0  0
   -6.7500   16.6430  -33.7420 C   0  0  0  0  0  0  0  0  0  0  0  0
   -5.8090   17.1650  -34.6360 C   0  0  0  0  0  0  0  0  0  0  0  0
   -5.0850   18.3130  -34.2980 C   0  0  0  0  0  0  0  0  0  0  0  0
   -4.9600   22.7500  -31.3840 C   0  0  0  0  0  0  0  0  0  0  0  0
   -3.4233   24.2877  -26.0378 H   0  0  0  0  0  0  0  0  0  0  0  0
   -3.3349   25.5841  -27.2781 H   0  0  0  0  0  0  0  0  0  0  0  0
   -4.7145   24.4337  -27.2781 H   0  0  0  0  0  0  0  0  0  0  0  0
   -2.2306   22.3261  -26.3724 H   0  0  0  0  0  0  0  0  0  0  0  0
   -0.9191   20.8089  -27.8504 H   0  0  0  0  0  0  0  0  0  0  0  0
   -0.8027   21.2427  -30.3018 H   0  0  0  0  0  0  0  0  0  0  0  0
   -1.9898   23.2017  -31.2844 H   0  0  0  0  0  0  0  0  0  0  0  0
   -7.8692   24.4796  -30.8869 H   0  0  0  0  0  0  0  0  0  0  0  0
   -8.7780   22.5117  -32.1221 H   0  0  0  0  0  0  0  0  0  0  0  0
   -7.2471   20.6986  -32.8892 H   0  0  0  0  0  0  0  0  0  0  0  0
   -6.4033   18.8956  -31.1934 H   0  0  0  0  0  0  0  0  0  0  0  0
   -7.7009   16.8507  -31.8047 H   0  0  0  0  0  0  0  0  0  0  0  0
   -7.3228   15.7431  -34.0104 H   0  0  0  0  0  0  0  0  0  0  0  0
   -5.6385   16.6726  -35.6047 H   0  0  0  0  0  0  0  0  0  0  0  0
   -4.3447   18.7219  -35.0014 H   0  0  0  0  0  0  0  0  0  0  0  0
   -3.8817   22.8185  -31.1775 H   0  0  0  0  0  0  0  0  0  0  0  0
  1  2  1  0
  2  3  2  0
  3  4  1  0
  4  5  2  0
  5  6  1  0
  6  7  2  0
  7  8  1  0
  8  9  1  0
  9 10  2  0
  9 11  2  0
  9 12  1  0
 12 13  2  0
 13 14  1  0
 14 15  2  0
 15 16  1  0
 16 17  1  0
 17 18  2  0
 17 19  2  0
 17 20  1  0
 20 21  2  0
 21 22  1  0
 22 23  2  0
 23 24  1  0
 24 25  2  0
 16 26  2  0
  7  2  1  0
 26 12  1  0
 25 20  1  0
  1 27  1  0
  1 28  1  0
  1 29  1  0
  3 30  1  0
  4 31  1  0
  5 32  1  0
  6 33  1  0
 13 34  1  0
 14 35  1  0
 15 36  1  0
 21 37  1  0
 22 38  1  0
 23 39  1  0
 24 40  1  0
 25 41  1  0
 26 42  1  0
M  CHG  1   8  -1
M  END
>  <UniqueID>  (48) 
45

>  <SMILES>  (48) 
Cc1ccccc1[N-]S(=O)(=O)c1cccc(S(=O)(=O)c2ccccc2)c1

>  <Energy>  (48) 
49.588108279415316

>  <Genealogy>  (48) 
Cc1ccccc1[N-]S(=O)(=O)c1cccc(S(=O)(=O)c2ccccc2)c1 (protonated)
Cc1ccccc1[N-]S(=O)(=O)c1cccc(S(=O)(=O)c2ccccc2)c1 (3D coordinates assigned)
Cc1ccccc1[N-]S(=O)(=O)c1cccc(S(=O)(=O)c2ccccc2)c1 (optimized conformer: 49.588108279415316 kcal/mol)

>  <smiles>  (48) 
Cc1ccccc1NS(=O)(=O)c1cccc(S(=O)(=O)c2ccccc2)c1

>  <score_type>  (48) 
oracle

>  <origin>  (48) 
adgpu

>  <m_score__min__energy>  (48) 
-10.68

>  <m_primary>  (48) 
energy

$$$$
48:0
     RDKit          3D

 37 38  0  0  0  0  0  0  0  0999 V2000
   -3.0780   21.5450  -28.0180 C   0  0  0  0  0  0  0  0  0  0  0  0
   -3.4110   22.8050  -28.8250 C   0  0  0  0  0  0  0  0  0  0  0  0
   -3.3390   24.0440  -27.9240 C   0  0  0  0  0  0  0  0  0  0  0  0
   -2.4620   22.9410  -30.0280 C   0  0  0  0  0  0  0  0  0  0  0  0
   -3.1850   23.2690  -31.2140 O   0  0  0  0  0  0  0  0  0  0  0  0
   -4.5010   22.8450  -31.4260 C   0  0  0  0  0  0  0  0  0  0  0  0
   -5.6010   23.7060  -31.2020 C   0  0  0  0  0  0  0  0  0  0  0  0
   -5.4350   25.0570  -30.6120 C   0  0  0  0  0  0  0  0  0  0  0  0
   -4.1510   25.6740  -30.5490 N   0  0  0  0  0  0  0  0  0  0  0  0
   -6.4310   25.6600  -30.1260 O   0  0  0  0  0  0  0  0  0  0  0  0
   -6.8940   23.2490  -31.5070 C   0  0  0  0  0  0  0  0  0  0  0  0
   -7.0980   21.9560  -31.9890 C   0  0  0  0  0  0  0  0  0  0  0  0
   -6.0160   21.0830  -32.1740 C   0  0  0  0  0  0  0  0  0  0  0  0
   -6.2510   19.7110  -32.6840 C   0  0  0  0  0  0  0  0  0  0  0  0
   -5.7140   19.2850  -33.9070 C   0  0  0  0  0  0  0  0  0  0  0  0
   -5.9530   18.0250  -34.3550 N   0  0  0  0  0  0  0  0  0  0  0  0
   -6.7110   17.1570  -33.6350 C   0  0  0  0  0  0  0  0  0  0  0  0
   -6.9270   15.9600  -34.0750 N   0  0  0  0  0  0  0  0  0  0  0  0
   -7.2470   17.5470  -32.4500 N   0  0  0  0  0  0  0  0  0  0  0  0
   -7.0370   18.7980  -31.9650 C   0  0  0  0  0  0  0  0  0  0  0  0
   -4.7170   21.5350  -31.8780 C   0  0  0  0  0  0  0  0  0  0  0  0
   -3.6550   20.7010  -32.0140 F   0  0  0  0  0  0  0  0  0  0  0  0
   -3.1379   21.7715  -26.9432 H   0  0  0  0  0  0  0  0  0  0  0  0
   -3.7969   20.7502  -28.2658 H   0  0  0  0  0  0  0  0  0  0  0  0
   -2.0603   21.2092  -28.2658 H   0  0  0  0  0  0  0  0  0  0  0  0
   -4.4372   22.7185  -29.2116 H   0  0  0  0  0  0  0  0  0  0  0  0
   -3.3571   23.7320  -26.8693 H   0  0  0  0  0  0  0  0  0  0  0  0
   -2.4075   24.5922  -28.1282 H   0  0  0  0  0  0  0  0  0  0  0  0
   -4.2007   24.6965  -28.1282 H   0  0  0  0  0  0  0  0  0  0  0  0
   -1.7303   23.7358  -29.8211 H   0  0  0  0  0  0  0  0  0  0  0  0
   -1.9517   21.9789  -30.1829 H   0  0  0  0  0  0  0  0  0  0  0  0
   -3.3920   25.4040  -31.2140 H   0  0  0  0  0  0  0  0  0  0  0  0
   -7.7552   23.9183  -31.3641 H   0  0  0  0  0  0  0  0  0  0  0  0
   -8.1174   21.6178  -32.2263 H   0  0  0  0  0  0  0  0  0  0  0  0
   -5.0978   19.9725  -34.5051 H   0  0  0  0  0  0  0  0  0  0  0  0
   -6.5280   15.6320  -34.9830 H   0  0  0  0  0  0  0  0  0  0  0  0
   -7.4845   19.0964  -31.0055 H   0  0  0  0  0  0  0  0  0  0  0  0
  1  2  1  0
  2  3  1  0
  2  4  1  0
  4  5  1  0
  5  6  1  0
  6  7  2  0
  7  8  1  0
  8  9  1  0
  8 10  2  0
  7 11  1  0
 11 12  2  0
 12 13  1  0
 13 14  1  0
 14 15  1  0
 15 16  2  0
 16 17  1  0
 17 18  2  3
 17 19  1  0
 19 20  1  0
 13 21  2  0
 21 22  1  0
 21  6  1  0
 20 14  2  0
  1 23  1  0
  1 24  1  0
  1 25  1  0
  2 26  1  0
  3 27  1  0
  3 28  1  0
  3 29  1  0
  4 30  1  0
  4 31  1  0
  9 32  1  0
 11 33  1  0
 12 34  1  0
 15 35  1  0
 18 36  1  0
 20 37  1  0
M  CHG  2   9  -1  19  -1
M  END
>  <UniqueID>  (49) 
46

>  <SMILES>  (49) 
CC(C)COc1c(C([NH-])=O)ccc(-c2cnc(=N)[n-]c2)c1F

>  <Energy>  (49) 
47.183911904669365

>  <Genealogy>  (49) 
CC(C)COc1c(C([NH-])=O)ccc(-c2cnc(=N)[n-]c2)c1F (protonated)
CC(C)COc1c(C([NH-])=O)ccc(-c2cnc(=N)[n-]c2)c1F (3D coordinates assigned)
CC(C)COc1c(C([NH-])=O)ccc(-c2cnc(=N)[n-]c2)c1F (optimized conformer: 47.183911904669365 kcal/mol)

>  <smiles>  (49) 
CC(C)COc1c(C(N)=O)ccc(-c2cnc(=N)[nH]c2)c1F

>  <score_type>  (49) 
oracle

>  <origin>  (49) 
adgpu

>  <m_score__min__energy>  (49) 
-9.4900000000000002

>  <m_primary>  (49) 
energy

$$$$
49:0
     RDKit          3D

 37 39  0  0  0  0  0  0  0  0999 V2000
   -5.8080   26.4940  -30.1150 O   0  0  0  0  0  0  0  0  0  0  0  0
   -5.2900   25.3950  -30.4460 C   0  0  0  0  0  0  0  0  0  0  0  0
   -3.8590   25.2890  -30.4620 N   0  0  0  0  0  0  0  0  0  0  0  0
   -3.0790   24.2600  -29.8360 C   0  0  0  0  0  0  0  0  0  0  0  0
   -2.4770   24.4510  -28.5810 C   0  0  0  0  0  0  0  0  0  0  0  0
   -1.7380   23.4210  -27.9980 C   0  0  0  0  0  0  0  0  0  0  0  0
   -1.6160   22.2040  -28.6680 C   0  0  0  0  0  0  0  0  0  0  0  0
   -2.2220   22.0270  -29.8710 N   0  0  0  0  0  0  0  0  0  0  0  0
   -2.9580   23.0100  -30.4610 C   0  0  0  0  0  0  0  0  0  0  0  0
   -3.5580   22.8060  -31.7120 O   0  0  0  0  0  0  0  0  0  0  0  0
   -3.6220   21.5800  -32.3880 C   0  0  0  0  0  0  0  0  0  0  0  0
   -2.4260   20.9700  -32.7810 C   0  0  0  0  0  0  0  0  0  0  0  0
   -2.4430   19.7460  -33.4510 C   0  0  0  0  0  0  0  0  0  0  0  0
   -3.6580   19.1300  -33.7570 C   0  0  0  0  0  0  0  0  0  0  0  0
   -4.8750   19.7490  -33.4170 C   0  0  0  0  0  0  0  0  0  0  0  0
   -6.1890   19.0740  -33.7180 C   0  0  0  0  0  0  0  0  0  0  0  0
   -6.4310   18.1050  -32.7610 F   0  0  0  0  0  0  0  0  0  0  0  0
   -7.2240   19.9940  -33.7020 F   0  0  0  0  0  0  0  0  0  0  0  0
   -6.1610   18.4770  -34.9670 F   0  0  0  0  0  0  0  0  0  0  0  0
   -4.8480   20.9690  -32.7170 C   0  0  0  0  0  0  0  0  0  0  0  0
   -6.1680   24.2400  -30.7510 C   0  0  0  0  0  0  0  0  0  0  0  0
   -6.5280   23.9590  -32.0790 C   0  0  0  0  0  0  0  0  0  0  0  0
   -7.3610   22.8720  -32.3540 C   0  0  0  0  0  0  0  0  0  0  0  0
   -7.8290   22.0970  -31.3390 N   0  0  0  0  0  0  0  0  0  0  0  0
   -7.5080   22.3520  -30.0440 C   0  0  0  0  0  0  0  0  0  0  0  0
   -6.6780   23.4290  -29.7250 C   0  0  0  0  0  0  0  0  0  0  0  0
   -2.5882   25.4124  -28.0581 H   0  0  0  0  0  0  0  0  0  0  0  0
   -1.2565   23.5674  -27.0199 H   0  0  0  0  0  0  0  0  0  0  0  0
   -1.0291   21.3873  -28.2224 H   0  0  0  0  0  0  0  0  0  0  0  0
   -1.4655   21.4586  -32.5604 H   0  0  0  0  0  0  0  0  0  0  0  0
   -1.4965   19.2651  -33.7389 H   0  0  0  0  0  0  0  0  0  0  0  0
   -3.6639   18.1553  -34.2668 H   0  0  0  0  0  0  0  0  0  0  0  0
   -5.7927   21.4502  -32.4239 H   0  0  0  0  0  0  0  0  0  0  0  0
   -6.1559   24.5916  -32.8984 H   0  0  0  0  0  0  0  0  0  0  0  0
   -7.6390   22.6424  -33.3932 H   0  0  0  0  0  0  0  0  0  0  0  0
   -7.9029   21.7083  -29.2442 H   0  0  0  0  0  0  0  0  0  0  0  0
   -6.4253   23.6406  -28.6755 H   0  0  0  0  0  0  0  0  0  0  0  0
  1  2  2  0
  2  3  1  0
  3  4  1  0
  4  5  2  0
  5  6  1  0
  6  7  2  0
  7  8  1  0
  8  9  2  0
  9 10  1  0
 10 11  1  0
 11 12  2  0
 12 13  1  0
 13 14  2  0
 14 15  1  0
 15 16  1  0
 16 17  1  0
 16 18  1  0
 16 19  1  0
 15 20  2  0
  2 21  1  0
 21 22  2  0
 22 23  1  0
 23 24  2  0
 24 25  1  0
 25 26  2  0
  9  4  1  0
 20 11  1  0
 26 21  1  0
  5 27  1  0
  6 28  1  0
  7 29  1  0
 12 30  1  0
 13 31  1  0
 14 32  1  0
 20 33  1  0
 22 34  1  0
 23 35  1  0
 25 36  1  0
 26 37  1  0
M  CHG  1   3  -1
M  END
>  <UniqueID>  (50) 
47

>  <SMILES>  (50) 
O=C([N-]c1cccnc1Oc1cccc(C(F)(F)F)c1)c1ccncc1

>  <Energy>  (50) 
53.9262311320212

>  <Genealogy>  (50) 
O=C([N-]c1cccnc1Oc1cccc(C(F)(F)F)c1)c1ccncc1 (protonated)
O=C([N-]c1cccnc1Oc1cccc(C(F)(F)F)c1)c1ccncc1 (3D coordinates assigned)
O=C([N-]c1cccnc1Oc1cccc(C(F)(F)F)c1)c1ccncc1 (optimized conformer: 53.9262311320212 kcal/mol)

>  <smiles>  (50) 
O=C(Nc1cccnc1Oc1cccc(C(F)(F)F)c1)c1ccncc1

>  <score_type>  (50) 
oracle

>  <origin>  (50) 
adgpu

>  <m_score__min__energy>  (50) 
-9.0800000000000001

>  <m_primary>  (50) 
energy

$$$$
