0:0
     RDKit          3D

 56 58  0  0  0  0  0  0  0  0999 V2000
   -9.1830   21.8680  -31.9470 C   0  0  0  0  0  0  0  0  0  0  0  0
   -8.2220   22.0210  -30.7690 C   0  0  0  0  0  0  0  0  0  0  0  0
   -7.6110   23.4280  -30.6800 C   0  0  0  0  0  0  0  0  0  0  0  0
   -6.7780   23.7890  -31.9170 C   0  0  0  0  0  0  0  0  0  0  0  0
   -5.5820   22.9490  -31.9800 N   0  0  0  0  0  0  0  0  0  0  0  0
   -5.4530   21.8090  -32.6990 C   0  0  0  0  0  0  0  0  0  0  0  0
   -4.2080   21.2340  -32.4710 C   0  0  0  0  0  0  0  0  0  0  0  0
   -3.7150   19.9840  -33.0830 C   0  0  0  0  0  0  0  0  0  0  0  0
   -2.4940   19.8980  -33.3830 O   0  0  0  0  0  0  0  0  0  0  0  0
   -4.6110   18.8430  -33.3770 C   0  0  0  0  0  0  0  0  0  0  0  0
   -4.2340   17.8550  -34.3000 C   0  0  0  0  0  0  0  0  0  0  0  0
   -5.0860   16.7860  -34.5790 C   0  0  0  0  0  0  0  0  0  0  0  0
   -6.3280   16.6750  -33.9280 C   0  0  0  0  0  0  0  0  0  0  0  0
   -7.2130   15.6160  -34.1870 O   0  0  0  0  0  0  0  0  0  0  0  0
   -6.8210   14.2550  -34.3280 C   0  0  0  0  0  0  0  0  0  0  0  0
   -6.7050   17.6450  -32.9860 C   0  0  0  0  0  0  0  0  0  0  0  0
   -7.9480   17.5040  -32.3470 O   0  0  0  0  0  0  0  0  0  0  0  0
   -8.7210   18.5860  -31.8380 C   0  0  0  0  0  0  0  0  0  0  0  0
   -5.8400   18.7230  -32.7100 C   0  0  0  0  0  0  0  0  0  0  0  0
   -3.5590   22.0810  -31.5840 C   0  0  0  0  0  0  0  0  0  0  0  0
   -2.2720   22.0420  -31.0460 C   0  0  0  0  0  0  0  0  0  0  0  0
   -1.8890   23.0610  -30.1440 C   0  0  0  0  0  0  0  0  0  0  0  0
   -0.6200   23.0760  -29.5430 O   0  0  0  0  0  0  0  0  0  0  0  0
   -0.2460   22.2700  -28.4300 C   0  0  0  0  0  0  0  0  0  0  0  0
   -2.7950   24.1030  -29.8250 C   0  0  0  0  0  0  0  0  0  0  0  0
   -2.3750   25.0940  -28.9230 O   0  0  0  0  0  0  0  0  0  0  0  0
   -2.3610   24.9390  -27.5080 C   0  0  0  0  0  0  0  0  0  0  0  0
   -4.0810   24.1270  -30.4140 C   0  0  0  0  0  0  0  0  0  0  0  0
   -4.4270   23.1010  -31.2960 C   0  0  0  0  0  0  0  0  0  0  0  0
  -10.2032   21.7056  -31.5692 H   0  0  0  0  0  0  0  0  0  0  0  0
   -9.1600   22.7811  -32.5599 H   0  0  0  0  0  0  0  0  0  0  0  0
   -8.8776   21.0072  -32.5599 H   0  0  0  0  0  0  0  0  0  0  0  0
   -8.7712   21.8165  -29.8381 H   0  0  0  0  0  0  0  0  0  0  0  0
   -7.3966   21.3096  -30.9195 H   0  0  0  0  0  0  0  0  0  0  0  0
   -8.4257   24.1600  -30.5780 H   0  0  0  0  0  0  0  0  0  0  0  0
   -6.9390   23.4449  -29.8093 H   0  0  0  0  0  0  0  0  0  0  0  0
   -7.3826   23.6297  -32.8220 H   0  0  0  0  0  0  0  0  0  0  0  0
   -6.4740   24.8441  -31.8511 H   0  0  0  0  0  0  0  0  0  0  0  0
   -6.2230   21.3968  -33.3677 H   0  0  0  0  0  0  0  0  0  0  0  0
   -3.2602   17.9240  -34.8068 H   0  0  0  0  0  0  0  0  0  0  0  0
   -4.7844   16.0245  -35.3133 H   0  0  0  0  0  0  0  0  0  0  0  0
   -6.6916   13.8057  -33.3323 H   0  0  0  0  0  0  0  0  0  0  0  0
   -7.5973   13.7052  -34.8803 H   0  0  0  0  0  0  0  0  0  0  0  0
   -5.8712   14.2023  -34.8803 H   0  0  0  0  0  0  0  0  0  0  0  0
   -8.7045   18.5630  -30.7384 H   0  0  0  0  0  0  0  0  0  0  0  0
   -8.2970   19.5376  -32.1912 H   0  0  0  0  0  0  0  0  0  0  0  0
   -9.7586   18.4934  -32.1912 H   0  0  0  0  0  0  0  0  0  0  0  0
   -6.1310   19.4777  -31.9645 H   0  0  0  0  0  0  0  0  0  0  0  0
   -1.5723   21.2377  -31.3172 H   0  0  0  0  0  0  0  0  0  0  0  0
   -0.4909   22.7977  -27.4964 H   0  0  0  0  0  0  0  0  0  0  0  0
   -0.7938   21.3168  -28.4670 H   0  0  0  0  0  0  0  0  0  0  0  0
    0.8356   22.0729  -28.4670 H   0  0  0  0  0  0  0  0  0  0  0  0
   -2.4501   25.9258  -27.0302 H   0  0  0  0  0  0  0  0  0  0  0  0
   -3.2055   24.3049  -27.2002 H   0  0  0  0  0  0  0  0  0  0  0  0
   -1.4165   24.4665  -27.2002 H   0  0  0  0  0  0  0  0  0  0  0  0
   -4.7914   24.9344  -30.1828 H   0  0  0  0  0  0  0  0  0  0  0  0
  1  2  1  0
  2  3  1  0
  3  4  1  0
  4  5  1  0
  5  6  1  0
  6  7  2  0
  7  8  1  0
  8  9  2  0
  8 10  1  0
 10 11  2  0
 11 12  1  0
 12 13  2  0
 13 14  1  0
 14 15  1  0
 13 16  1  0
 16 17  1  0
 17 18  1  0
 16 19  2  0
  7 20  1  0
 20 21  2  0
 21 22  1  0
 22 23  1  0
 23 24  1  0
 22 25  2  0
 25 26  1  0
 26 27  1  0
 25 28  1  0
 28 29  2  0
 29  5  1  0
 19 10  1  0
 29 20  1  0
  1 30  1  0
  1 31  1  0
  1 32  1  0
  2 33  1  0
  2 34  1  0
  3 35  1  0
  3 36  1  0
  4 37  1  0
  4 38  1  0
  6 39  1  0
 11 40  1  0
 12 41  1  0
 15 42  1  0
 15 43  1  0
 15 44  1  0
 18 45  1  0
 18 46  1  0
 18 47  1  0
 19 48  1  0
 21 49  1  0
 24 50  1  0
 24 51  1  0
 24 52  1  0
 27 53  1  0
 27 54  1  0
 27 55  1  0
 28 56  1  0
M  END
>  <UniqueID>  (1) 
1

>  <SMILES>  (1) 
CCCCn1cc(C(=O)c2ccc(OC)c(OC)c2)c2cc(OC)c(OC)cc21

>  <Energy>  (1) 
87.04722952150458

>  <Genealogy>  (1) 
CCCCn1cc(C(=O)c2ccc(OC)c(OC)c2)c2cc(OC)c(OC)cc21 (3D coordinates assigned)
CCCCn1cc(C(=O)c2ccc(OC)c(OC)c2)c2cc(OC)c(OC)cc21 (optimized conformer: 87.04722952150458 kcal/mol)

>  <smiles>  (1) 
CCCCn1cc(C(=O)c2ccc(OC)c(OC)c2)c2cc(OC)c(OC)cc21

>  <score_type>  (1) 
oracle

>  <origin>  (1) 
adgpu

>  <m_score__min__energy>  (1) 
-8.5999999999999996

>  <m_primary>  (1) 
energy

$$$$
1:0
     RDKit          3D

 61 65  0  0  0  0  0  0  0  0999 V2000
    2.3099   18.2916  -29.7543 H   0  0  0  0  0  0  0  0  0  0  0  0
    1.3710   18.4740  -29.2110 C   0  0  0  0  0  0  0  0  0  0  0  0
    0.9930   17.6270  -28.1640 C   0  0  0  0  0  0  0  0  0  0  0  0
    1.6361   16.7800  -27.8828 H   0  0  0  0  0  0  0  0  0  0  0  0
   -0.2010   17.8560  -27.4750 C   0  0  0  0  0  0  0  0  0  0  0  0
   -0.4911   17.1930  -26.6466 H   0  0  0  0  0  0  0  0  0  0  0  0
   -1.0330   18.9300  -27.8360 C   0  0  0  0  0  0  0  0  0  0  0  0
   -2.3050   19.1950  -27.0760 C   0  0  0  0  0  0  0  0  0  0  0  0
   -2.0551   19.4993  -26.0489 H   0  0  0  0  0  0  0  0  0  0  0  0
   -2.9087   18.2755  -27.0658 H   0  0  0  0  0  0  0  0  0  0  0  0
   -3.1130   20.3050  -27.7450 C   0  0  0  0  0  0  0  0  0  0  0  0
   -4.1484   20.2789  -27.3746 H   0  0  0  0  0  0  0  0  0  0  0  0
   -3.1092   20.1551  -28.8347 H   0  0  0  0  0  0  0  0  0  0  0  0
   -2.5160   21.6000  -27.4300 N   0  0  0  0  0  0  0  0  0  0  0  0
   -2.6320   22.6580  -28.1780 C   0  0  0  0  0  0  0  0  0  0  0  0
   -3.3490   22.6160  -29.3320 N   0  0  0  0  0  0  0  0  0  0  0  0
   -3.4780   23.7230  -30.1030 C   0  0  0  0  0  0  0  0  0  0  0  0
   -4.2500   23.6590  -31.2690 O   0  0  0  0  0  0  0  0  0  0  0  0
   -4.6110   22.4780  -31.9400 C   0  0  0  0  0  0  0  0  0  0  0  0
   -3.6540   21.6880  -32.5790 C   0  0  0  0  0  0  0  0  0  0  0  0
   -2.5974   21.9939  -32.5680 H   0  0  0  0  0  0  0  0  0  0  0  0
   -4.0280   20.5140  -33.2310 C   0  0  0  0  0  0  0  0  0  0  0  0
   -3.1280   19.8340  -33.7960 O   0  0  0  0  0  0  0  0  0  0  0  0
   -5.3410   20.1050  -33.2500 N   0  0  0  0  0  0  0  0  0  0  0  0
   -5.7060   18.8590  -33.9570 C   0  0  0  0  0  0  0  0  0  0  0  0
   -5.9360   18.0740  -33.2215 H   0  0  0  0  0  0  0  0  0  0  0  0
   -6.5887   19.0404  -34.5878 H   0  0  0  0  0  0  0  0  0  0  0  0
   -4.8649   18.5355  -34.5878 H   0  0  0  0  0  0  0  0  0  0  0  0
   -6.3100   20.8530  -32.6040 C   0  0  0  0  0  0  0  0  0  0  0  0
   -7.6700   20.4590  -32.5840 C   0  0  0  0  0  0  0  0  0  0  0  0
   -7.9742   19.5335  -33.0948 H   0  0  0  0  0  0  0  0  0  0  0  0
   -8.6300   21.2290  -31.9250 C   0  0  0  0  0  0  0  0  0  0  0  0
   -9.6817   20.9067  -31.9219 H   0  0  0  0  0  0  0  0  0  0  0  0
   -8.2640   22.4020  -31.2720 C   0  0  0  0  0  0  0  0  0  0  0  0
   -9.0255   23.0035  -30.7540 H   0  0  0  0  0  0  0  0  0  0  0  0
   -6.9330   22.8150  -31.2740 C   0  0  0  0  0  0  0  0  0  0  0  0
   -6.6497   23.7435  -30.7566 H   0  0  0  0  0  0  0  0  0  0  0  0
   -5.9480   22.0550  -31.9320 C   0  0  0  0  0  0  0  0  0  0  0  0
   -2.8920   24.8830  -29.7110 N   0  0  0  0  0  0  0  0  0  0  0  0
   -2.1560   24.9400  -28.5720 C   0  0  0  0  0  0  0  0  0  0  0  0
   -1.6130   26.0770  -28.2380 N   0  0  0  0  0  0  0  0  0  0  0  0
   -0.7230   26.3230  -27.1400 C   0  0  0  0  0  0  0  0  0  0  0  0
   -1.1520   27.0210  -25.9980 C   0  0  0  0  0  0  0  0  0  0  0  0
   -2.1745   27.4242  -25.9543 H   0  0  0  0  0  0  0  0  0  0  0  0
   -0.2840   27.2050  -24.9170 C   0  0  0  0  0  0  0  0  0  0  0  0
   -0.6159   27.7790  -24.0393 H   0  0  0  0  0  0  0  0  0  0  0  0
    1.0090   26.6600  -24.9480 C   0  0  0  0  0  0  0  0  0  0  0  0
    1.9550   26.8910  -23.8060 C   0  0  0  0  0  0  0  0  0  0  0  0
    1.4195   26.7602  -22.8541 H   0  0  0  0  0  0  0  0  0  0  0  0
    2.7825   26.1685  -23.8634 H   0  0  0  0  0  0  0  0  0  0  0  0
    2.3564   27.9135  -23.8634 H   0  0  0  0  0  0  0  0  0  0  0  0
    1.4300   25.9470  -26.0810 C   0  0  0  0  0  0  0  0  0  0  0  0
    2.4468   25.5292  -26.1195 H   0  0  0  0  0  0  0  0  0  0  0  0
    0.5600   25.7660  -27.1620 C   0  0  0  0  0  0  0  0  0  0  0  0
    0.8872   25.1819  -28.0348 H   0  0  0  0  0  0  0  0  0  0  0  0
   -2.0390   23.8210  -27.7940 N   0  0  0  0  0  0  0  0  0  0  0  0
   -1.5340   23.8430  -26.8800 H   0  0  0  0  0  0  0  0  0  0  0  0
   -0.6390   19.7840  -28.8790 C   0  0  0  0  0  0  0  0  0  0  0  0
   -1.2732   20.6391  -29.1559 H   0  0  0  0  0  0  0  0  0  0  0  0
    0.5560   19.5520  -29.5670 C   0  0  0  0  0  0  0  0  0  0  0  0
    0.8549   20.2187  -30.3893 H   0  0  0  0  0  0  0  0  0  0  0  0
  1  2  1  0
  2  3  2  0
  3  4  1  0
  3  5  1  0
  5  6  1  0
  5  7  2  0
  7  8  1  0
  8  9  1  0
  8 10  1  0
  8 11  1  0
 11 12  1  0
 11 13  1  0
 11 14  1  0
 14 15  2  0
 15 16  1  0
 16 17  2  0
 17 18  1  0
 18 19  1  0
 19 20  2  0
 20 21  1  0
 20 22  1  0
 22 23  2  0
 22 24  1  0
 24 25  1  0
 25 26  1  0
 25 27  1  0
 25 28  1  0
 24 29  1  0
 29 30  2  0
 30 31  1  0
 30 32  1  0
 32 33  1  0
 32 34  2  0
 34 35  1  0
 34 36  1  0
 36 37  1  0
 36 38  2  0
 17 39  1  0
 39 40  1  0
 40 41  2  0
 41 42  1  0
 42 43  2  0
 43 44  1  0
 43 45  1  0
 45 46  1  0
 45 47  2  0
 47 48  1  0
 48 49  1  0
 48 50  1  0
 48 51  1  0
 47 52  1  0
 52 53  1  0
 52 54  2  0
 54 55  1  0
 40 56  1  0
 56 57  1  0
  7 58  1  0
 58 59  1  0
 58 60  2  0
 60 61  1  0
 60  2  1  0
 56 15  1  0
 38 19  1  0
 54 42  1  0
 38 29  1  0
M  CHG  1  39  -1
M  END
>  <UniqueID>  (2) 
2

>  <SMILES>  (2) 
Cc1ccc(/N=c2/[n-]c(Oc3cc(=O)n(C)c4ccccc34)n/c(=N\CCc3ccccc3)[nH]2)cc1

>  <Energy>  (2) 
88.06403801807225

>  <Genealogy>  (2) 
Cc1ccc(N=c2[n-]c(Oc3cc(=O)n(C)c4ccccc34)nc(=NCCc3ccccc3)[nH]2)cc1 (protonated)
Cc1ccc(/N=c2/[n-]c(Oc3cc(=O)n(C)c4ccccc34)n/c(=N\CCc3ccccc3)[nH]2)cc1 (cis-trans isomerization)
Cc1ccc(/N=c2/[n-]c(Oc3cc(=O)n(C)c4ccccc34)n/c(=N\CCc3ccccc3)[nH]2)cc1 (3D coordinates assigned)
Cc1ccc(/N=c2/[n-]c(Oc3cc(=O)n(C)c4ccccc34)n/c(=N\CCc3ccccc3)[nH]2)cc1 (optimized conformer: 88.06403801807225 kcal/mol)

>  <smiles>  (2) 
Cc1ccc(N=c2[nH]c(Oc3cc(=O)n(C)c4ccccc34)nc(=NCCc3ccccc3)[nH]2)cc1

>  <score_type>  (2) 
oracle

>  <origin>  (2) 
adgpu

>  <m_score__min__energy>  (2) 
-11.300000000000001

>  <m_primary>  (2) 
energy

$$$$
2:0
     RDKit          3D

 51 53  0  0  0  0  0  0  0  0999 V2000
   -1.0790   16.1980  -32.7290 C   0  0  0  0  0  0  0  0  0  0  0  0
   -1.4660   17.0720  -33.7830 O   0  0  0  0  0  0  0  0  0  0  0  0
   -2.6940   17.7460  -33.8430 C   0  0  0  0  0  0  0  0  0  0  0  0
   -2.8590   19.0610  -33.3690 C   0  0  0  0  0  0  0  0  0  0  0  0
   -4.1070   19.6870  -33.4470 C   0  0  0  0  0  0  0  0  0  0  0  0
   -5.2010   19.0210  -34.0160 C   0  0  0  0  0  0  0  0  0  0  0  0
   -6.4700   19.6850  -34.0980 N   0  0  0  0  0  0  0  0  0  0  0  0
   -7.4150   20.0360  -32.6860 S   0  0  0  0  0  0  0  0  0  0  0  0
   -8.8830   19.9450  -32.9960 O   0  0  0  0  0  0  0  0  0  0  0  0
   -7.0970   19.0250  -31.6210 O   0  0  0  0  0  0  0  0  0  0  0  0
   -7.0080   21.6490  -32.1040 C   0  0  0  0  0  0  0  0  0  0  0  0
   -8.0180   22.5410  -31.7260 C   0  0  0  0  0  0  0  0  0  0  0  0
   -7.6900   23.7970  -31.2100 C   0  0  0  0  0  0  0  0  0  0  0  0
   -6.3470   24.1730  -31.0500 C   0  0  0  0  0  0  0  0  0  0  0  0
   -6.0230   25.5250  -30.4790 C   0  0  0  0  0  0  0  0  0  0  0  0
   -5.3300   23.2550  -31.3910 C   0  0  0  0  0  0  0  0  0  0  0  0
   -3.9520   23.5550  -31.1720 N   0  0  0  0  0  0  0  0  0  0  0  0
   -3.3100   23.7430  -29.5730 S   0  0  0  0  0  0  0  0  0  0  0  0
   -2.3580   24.9060  -29.5600 O   0  0  0  0  0  0  0  0  0  0  0  0
   -4.4340   24.0090  -28.6110 O   0  0  0  0  0  0  0  0  0  0  0  0
   -2.4730   22.2780  -29.0760 C   0  0  0  0  0  0  0  0  0  0  0  0
   -2.7210   21.7360  -27.8080 C   0  0  0  0  0  0  0  0  0  0  0  0
   -2.0590   20.5750  -27.3970 C   0  0  0  0  0  0  0  0  0  0  0  0
   -1.1360   19.9480  -28.2490 C   0  0  0  0  0  0  0  0  0  0  0  0
   -0.4690   18.6710  -27.8360 C   0  0  0  0  0  0  0  0  0  0  0  0
   -0.9010   20.4840  -29.5230 C   0  0  0  0  0  0  0  0  0  0  0  0
   -1.5620   21.6470  -29.9330 C   0  0  0  0  0  0  0  0  0  0  0  0
   -5.6680   22.0160  -31.9460 C   0  0  0  0  0  0  0  0  0  0  0  0
   -5.0370   17.7050  -34.4770 C   0  0  0  0  0  0  0  0  0  0  0  0
   -3.7930   17.0770  -34.3910 C   0  0  0  0  0  0  0  0  0  0  0  0
   -1.2903   16.6752  -31.7607 H   0  0  0  0  0  0  0  0  0  0  0  0
   -1.6450   15.2579  -32.8057 H   0  0  0  0  0  0  0  0  0  0  0  0
   -0.0025   15.9852  -32.8057 H   0  0  0  0  0  0  0  0  0  0  0  0
   -2.0027   19.5985  -32.9354 H   0  0  0  0  0  0  0  0  0  0  0  0
   -4.2309   20.7089  -33.0592 H   0  0  0  0  0  0  0  0  0  0  0  0
   -6.9740   19.6900  -35.0130 H   0  0  0  0  0  0  0  0  0  0  0  0
   -9.0737   22.2521  -31.8356 H   0  0  0  0  0  0  0  0  0  0  0  0
   -8.4902   24.4967  -30.9269 H   0  0  0  0  0  0  0  0  0  0  0  0
   -6.0358   25.4717  -29.3804 H   0  0  0  0  0  0  0  0  0  0  0  0
   -5.0246   25.8371  -30.8194 H   0  0  0  0  0  0  0  0  0  0  0  0
   -6.7715   26.2557  -30.8194 H   0  0  0  0  0  0  0  0  0  0  0  0
   -3.4390   22.2255  -27.1335 H   0  0  0  0  0  0  0  0  0  0  0  0
   -2.2622   20.1513  -26.4024 H   0  0  0  0  0  0  0  0  0  0  0  0
   -0.4381   18.6119  -26.7380 H   0  0  0  0  0  0  0  0  0  0  0  0
   -1.0358   17.8161  -28.2334 H   0  0  0  0  0  0  0  0  0  0  0  0
    0.5564   18.6477  -28.2334 H   0  0  0  0  0  0  0  0  0  0  0  0
   -0.1935   19.9878  -30.2036 H   0  0  0  0  0  0  0  0  0  0  0  0
   -1.3659   22.0669  -30.9306 H   0  0  0  0  0  0  0  0  0  0  0  0
   -4.8726   21.3245  -32.2608 H   0  0  0  0  0  0  0  0  0  0  0  0
   -5.8933   17.1658  -34.9083 H   0  0  0  0  0  0  0  0  0  0  0  0
   -3.6763   16.0465  -34.7577 H   0  0  0  0  0  0  0  0  0  0  0  0
  1  2  1  0
  2  3  1  0
  3  4  2  0
  4  5  1  0
  5  6  2  0
  6  7  1  0
  7  8  1  0
  8  9  2  0
  8 10  2  0
  8 11  1  0
 11 12  2  0
 12 13  1  0
 13 14  2  0
 14 15  1  0
 14 16  1  0
 16 17  1  0
 17 18  1  0
 18 19  2  0
 18 20  2  0
 18 21  1  0
 21 22  2  0
 22 23  1  0
 23 24  2  0
 24 25  1  0
 24 26  1  0
 26 27  2  0
 16 28  2  0
  6 29  1  0
 29 30  2  0
 30  3  1  0
 28 11  1  0
 27 21  1  0
  1 31  1  0
  1 32  1  0
  1 33  1  0
  4 34  1  0
  5 35  1  0
  7 36  1  0
 12 37  1  0
 13 38  1  0
 15 39  1  0
 15 40  1  0
 15 41  1  0
 22 42  1  0
 23 43  1  0
 25 44  1  0
 25 45  1  0
 25 46  1  0
 26 47  1  0
 27 48  1  0
 28 49  1  0
 29 50  1  0
 30 51  1  0
M  CHG  1  17  -1
M  END
>  <UniqueID>  (3) 
3

>  <SMILES>  (3) 
COc1ccc(NS(=O)(=O)c2ccc(C)c([N-]S(=O)(=O)c3ccc(C)cc3)c2)cc1

>  <Energy>  (3) 
61.21039020055071

>  <Genealogy>  (3) 
COc1ccc(NS(=O)(=O)c2ccc(C)c([N-]S(=O)(=O)c3ccc(C)cc3)c2)cc1 (protonated)
COc1ccc(NS(=O)(=O)c2ccc(C)c([N-]S(=O)(=O)c3ccc(C)cc3)c2)cc1 (3D coordinates assigned)
COc1ccc(NS(=O)(=O)c2ccc(C)c([N-]S(=O)(=O)c3ccc(C)cc3)c2)cc1 (optimized conformer: 61.21039020055071 kcal/mol)

>  <smiles>  (3) 
COc1ccc(NS(=O)(=O)c2ccc(C)c(NS(=O)(=O)c3ccc(C)cc3)c2)cc1

>  <score_type>  (3) 
oracle

>  <origin>  (3) 
adgpu

>  <m_score__min__energy>  (3) 
-10.69

>  <m_primary>  (3) 
energy

$$$$
3:0
     RDKit          3D

 32 34  0  0  0  0  0  0  0  0999 V2000
   -9.1900   21.6050  -30.8220 C   0  0  0  0  0  0  0  0  0  0  0  0
   -8.5250   22.7940  -32.0300 S   0  0  0  0  0  0  0  0  0  0  0  0
   -7.1190   23.2330  -31.0050 C   0  0  0  0  0  0  0  0  0  0  0  0
   -7.1890   24.1310  -30.0070 N   0  0  0  0  0  0  0  0  0  0  0  0
   -6.0060   24.1410  -29.4110 N   0  0  0  0  0  0  0  0  0  0  0  0
   -5.2320   23.2400  -30.0480 C   0  0  0  0  0  0  0  0  0  0  0  0
   -3.8220   22.9760  -29.6770 C   0  0  0  0  0  0  0  0  0  0  0  0
   -3.4220   21.6820  -29.2970 C   0  0  0  0  0  0  0  0  0  0  0  0
   -2.0910   21.4250  -28.9550 C   0  0  0  0  0  0  0  0  0  0  0  0
   -1.1450   22.4520  -28.9980 C   0  0  0  0  0  0  0  0  0  0  0  0
   -1.5280   23.7370  -29.3880 C   0  0  0  0  0  0  0  0  0  0  0  0
   -2.8590   24.0040  -29.7280 C   0  0  0  0  0  0  0  0  0  0  0  0
   -3.2160   25.2960  -30.1000 O   0  0  0  0  0  0  0  0  0  0  0  0
   -5.9020   22.6510  -31.0640 N   0  0  0  0  0  0  0  0  0  0  0  0
   -5.5190   21.5060  -31.8450 C   0  0  0  0  0  0  0  0  0  0  0  0
   -4.3570   21.5460  -32.6350 C   0  0  0  0  0  0  0  0  0  0  0  0
   -3.9880   20.4370  -33.4020 C   0  0  0  0  0  0  0  0  0  0  0  0
   -4.7740   19.2810  -33.3870 C   0  0  0  0  0  0  0  0  0  0  0  0
   -5.9320   19.2350  -32.6050 C   0  0  0  0  0  0  0  0  0  0  0  0
   -6.3040   20.3420  -31.8360 C   0  0  0  0  0  0  0  0  0  0  0  0
   -8.9880   21.9661  -29.8028 H   0  0  0  0  0  0  0  0  0  0  0  0
  -10.2757   21.5037  -30.9667 H   0  0  0  0  0  0  0  0  0  0  0  0
   -8.7080   20.6269  -30.9667 H   0  0  0  0  0  0  0  0  0  0  0  0
   -4.1608   20.8675  -29.2688 H   0  0  0  0  0  0  0  0  0  0  0  0
   -1.7881   20.4120  -28.6514 H   0  0  0  0  0  0  0  0  0  0  0  0
   -0.0991   22.2486  -28.7248 H   0  0  0  0  0  0  0  0  0  0  0  0
   -0.7803   24.5428  -29.4281 H   0  0  0  0  0  0  0  0  0  0  0  0
   -3.7356   22.4535  -32.6497 H   0  0  0  0  0  0  0  0  0  0  0  0
   -3.0777   20.4740  -34.0184 H   0  0  0  0  0  0  0  0  0  0  0  0
   -4.4817   18.4086  -33.9898 H   0  0  0  0  0  0  0  0  0  0  0  0
   -6.5517   18.3262  -32.5947 H   0  0  0  0  0  0  0  0  0  0  0  0
   -7.2154   20.3007  -31.2215 H   0  0  0  0  0  0  0  0  0  0  0  0
  1  2  1  0
  2  3  1  0
  3  4  2  0
  4  5  1  0
  5  6  2  0
  6  7  1  0
  7  8  2  0
  8  9  1  0
  9 10  2  0
 10 11  1  0
 11 12  2  0
 12 13  1  0
  6 14  1  0
 14 15  1  0
 15 16  2  0
 16 17  1  0
 17 18  2  0
 18 19  1  0
 19 20  2  0
 14  3  1  0
 20 15  1  0
 12  7  1  0
  1 21  1  0
  1 22  1  0
  1 23  1  0
  8 24  1  0
  9 25  1  0
 10 26  1  0
 11 27  1  0
 16 28  1  0
 17 29  1  0
 18 30  1  0
 19 31  1  0
 20 32  1  0
M  CHG  1  13  -1
M  END
>  <UniqueID>  (4) 
4

>  <SMILES>  (4) 
CSc1nnc(-c2ccccc2[O-])n1-c1ccccc1

>  <Energy>  (4) 
76.48635179082395

>  <Genealogy>  (4) 
CSc1nnc(-c2ccccc2[O-])n1-c1ccccc1 (protonated)
CSc1nnc(-c2ccccc2[O-])n1-c1ccccc1 (3D coordinates assigned)
CSc1nnc(-c2ccccc2[O-])n1-c1ccccc1 (optimized conformer: 76.48635179082395 kcal/mol)

>  <smiles>  (4) 
CSc1nnc(-c2ccccc2O)n1-c1ccccc1

>  <score_type>  (4) 
oracle

>  <origin>  (4) 
adgpu

>  <m_score__min__energy>  (4) 
-10.029999999999999

>  <m_primary>  (4) 
energy

$$$$
4:0
     RDKit          3D

 43 45  0  0  1  0  0  0  0  0999 V2000
   -1.9410   25.2060  -27.3770 C   0  0  0  0  0  0  0  0  0  0  0  0
   -1.9860   25.3000  -28.8050 O   0  0  0  0  0  0  0  0  0  0  0  0
   -2.2440   24.1720  -29.5610 C   0  0  0  0  0  0  0  0  0  0  0  0
   -1.4850   23.0270  -29.4550 C   0  0  0  0  0  0  0  0  0  0  0  0
   -1.7720   21.9010  -30.2350 C   0  0  0  0  0  0  0  0  0  0  0  0
   -2.8170   21.8860  -31.1360 C   0  0  0  0  0  0  0  0  0  0  0  0
   -3.1090   20.7120  -31.9460 C   0  0  0  0  0  0  0  0  0  0  0  0
   -4.4070   20.3270  -32.2140 C   0  0  0  0  0  0  0  0  0  0  0  0
   -4.6990   19.2000  -32.9910 C   0  0  0  0  0  0  0  0  0  0  0  0
   -5.9210   18.8630  -33.2270 N   0  0  0  0  0  0  0  0  0  0  0  0
   -7.0240   19.6310  -32.7030 C   0  0  0  0  0  0  0  0  0  0  0  0
   -7.9990   18.8980  -32.0520 C   0  0  0  0  0  0  0  0  0  0  0  0
   -9.0970   19.5480  -31.5150 C   0  0  0  0  0  0  0  0  0  0  0  0
   -9.1590   20.9140  -31.6610 C   0  0  0  0  0  0  0  0  0  0  0  0
  -10.2400   21.5510  -31.1320 F   0  0  0  0  0  0  0  0  0  0  0  0
   -8.1820   21.6450  -32.3130 C   0  0  0  0  0  0  0  0  0  0  0  0
   -7.0860   21.0020  -32.8490 C   0  0  0  0  0  0  0  0  0  0  0  0
   -3.6570   18.4980  -33.4700 N   0  0  0  0  0  0  0  0  0  0  0  0
   -2.3960   18.8470  -33.2250 C   0  0  0  0  0  0  0  0  0  0  0  0
   -1.2890   18.0310  -33.7820 C   0  0  0  0  0  0  0  0  0  0  0  0
   -2.1380   19.9400  -32.4720 N   0  0  0  0  0  0  0  0  0  0  0  0
   -3.5650   23.0430  -31.2280 C   0  0  0  0  0  0  0  0  0  0  0  0
   -3.2790   24.1670  -30.4500 C   0  0  0  0  0  0  0  0  0  0  0  0
   -4.0450   25.3160  -30.5600 O   0  0  0  0  0  0  0  0  0  0  0  0
   -5.4130   25.2630  -30.1570 C   0  0  0  0  0  0  0  0  0  0  0  0
   -2.3761   26.1149  -26.9358 H   0  0  0  0  0  0  0  0  0  0  0  0
   -2.5163   24.3276  -27.0490 H   0  0  0  0  0  0  0  0  0  0  0  0
   -0.8961   25.1033  -27.0490 H   0  0  0  0  0  0  0  0  0  0  0  0
   -0.6426   22.9975  -28.7482 H   0  0  0  0  0  0  0  0  0  0  0  0
   -1.1468   21.0024  -30.1267 H   0  0  0  0  0  0  0  0  0  0  0  0
   -5.2361   20.9232  -31.8051 H   0  0  0  0  0  0  0  0  0  0  0  0
   -7.9029   17.8060  -31.9614 H   0  0  0  0  0  0  0  0  0  0  0  0
   -9.8895   18.9931  -30.9916 H   0  0  0  0  0  0  0  0  0  0  0  0
   -8.2792   22.7369  -32.4037 H   0  0  0  0  0  0  0  0  0  0  0  0
   -6.2940   21.5588  -33.3713 H   0  0  0  0  0  0  0  0  0  0  0  0
   -0.7021   17.5983  -32.9584 H   0  0  0  0  0  0  0  0  0  0  0  0
   -1.7050   17.2219  -34.4003 H   0  0  0  0  0  0  0  0  0  0  0  0
   -0.6392   18.6678  -34.4003 H   0  0  0  0  0  0  0  0  0  0  0  0
   -1.1260   20.1500  -32.3240 H   0  0  0  0  0  0  0  0  0  0  0  0
   -4.4087   23.0804  -31.9329 H   0  0  0  0  0  0  0  0  0  0  0  0
   -5.4718   25.2607  -29.0586 H   0  0  0  0  0  0  0  0  0  0  0  0
   -5.9456   26.1412  -30.5509 H   0  0  0  0  0  0  0  0  0  0  0  0
   -5.8760   24.3462  -30.5509 H   0  0  0  0  0  0  0  0  0  0  0  0
  1  2  1  0
  2  3  1  0
  3  4  2  0
  4  5  1  0
  5  6  2  0
  6  7  1  0
  7  8  2  0
  8  9  1  0
  9 10  2  0
 10 11  1  0
 11 12  2  0
 12 13  1  0
 13 14  2  0
 14 15  1  0
 14 16  1  0
 16 17  2  0
  9 18  1  0
 18 19  2  0
 19 20  1  0
 19 21  1  0
  6 22  1  0
 22 23  2  0
 23 24  1  0
 24 25  1  0
 23  3  1  0
 21  7  1  0
 17 11  1  0
  1 26  1  0
  1 27  1  0
  1 28  1  0
  4 29  1  0
  5 30  1  0
  8 31  1  0
 12 32  1  0
 13 33  1  0
 16 34  1  0
 17 35  1  0
 20 36  1  0
 20 37  1  0
 20 38  1  0
 21 39  1  0
 22 40  1  0
 25 41  1  0
 25 42  1  0
 25 43  1  0
M  END
>  <smiles>  (5) 
COc1ccc(-c2cc(=Nc3ccc(F)cc3)nc(C)[nH]2)cc1OC

>  <score_type>  (5) 
oracle

>  <origin>  (5) 
adgpu

>  <m_score__min__energy>  (5) 
-8.3699999999999992

>  <m_primary>  (5) 
energy

$$$$
5:0
     RDKit          3D

 61 65  0  0  0  0  0  0  0  0999 V2000
   -0.0650   28.8400  -36.0150 C   0  0  0  0  0  0  0  0  0  0  0  0
    0.3210   27.3860  -36.0530 C   0  0  0  0  0  0  0  0  0  0  0  0
   -0.6340   26.4280  -36.4430 C   0  0  0  0  0  0  0  0  0  0  0  0
   -0.2900   25.0780  -36.5230 C   0  0  0  0  0  0  0  0  0  0  0  0
    1.0100   24.6610  -36.2300 C   0  0  0  0  0  0  0  0  0  0  0  0
    1.3750   23.2930  -36.4570 N   0  0  0  0  0  0  0  0  0  0  0  0
    0.6290   22.1480  -36.0110 C   0  0  0  0  0  0  0  0  0  0  0  0
    0.3240   21.2600  -36.8460 O   0  0  0  0  0  0  0  0  0  0  0  0
    0.2230   21.9850  -34.6420 N   0  0  0  0  0  0  0  0  0  0  0  0
   -0.3730   20.8060  -34.0790 C   0  0  0  0  0  0  0  0  0  0  0  0
   -1.7580   20.5880  -34.1760 C   0  0  0  0  0  0  0  0  0  0  0  0
   -2.3210   19.3710  -33.7700 C   0  0  0  0  0  0  0  0  0  0  0  0
   -3.7640   19.1190  -33.9720 C   0  0  0  0  0  0  0  0  0  0  0  0
   -4.3380   18.1720  -34.8120 C   0  0  0  0  0  0  0  0  0  0  0  0
   -5.6910   18.2100  -34.7040 N   0  0  0  0  0  0  0  0  0  0  0  0
   -5.9020   19.1790  -33.7910 C   0  0  0  0  0  0  0  0  0  0  0  0
   -7.1220   19.5980  -33.2820 C   0  0  0  0  0  0  0  0  0  0  0  0
   -7.1070   20.5590  -32.3160 N   0  0  0  0  0  0  0  0  0  0  0  0
   -5.9340   21.0990  -31.8620 C   0  0  0  0  0  0  0  0  0  0  0  0
   -5.9720   21.9820  -30.9070 N   0  0  0  0  0  0  0  0  0  0  0  0
   -4.8540   22.6720  -30.3220 C   0  0  0  0  0  0  0  0  0  0  0  0
   -4.7850   24.0770  -30.2780 C   0  0  0  0  0  0  0  0  0  0  0  0
   -3.6730   24.7090  -29.7140 C   0  0  0  0  0  0  0  0  0  0  0  0
   -2.6360   23.9480  -29.1610 C   0  0  0  0  0  0  0  0  0  0  0  0
   -1.2250   24.7600  -28.4890 S   0  0  0  0  0  0  0  0  0  0  0  0
   -1.2420   26.4220  -28.9620 N   0  0  0  0  0  0  0  0  0  0  0  0
   -1.2580   24.6600  -26.9910 O   0  0  0  0  0  0  0  0  0  0  0  0
    0.0370   24.1200  -28.9950 O   0  0  0  0  0  0  0  0  0  0  0  0
   -2.7290   22.5500  -29.1540 C   0  0  0  0  0  0  0  0  0  0  0  0
   -3.8370   21.9180  -29.7260 C   0  0  0  0  0  0  0  0  0  0  0  0
   -4.7470   20.6590  -32.3820 N   0  0  0  0  0  0  0  0  0  0  0  0
   -4.7740   19.7350  -33.3400 N   0  0  0  0  0  0  0  0  0  0  0  0
   -1.4970   18.3980  -33.1890 C   0  0  0  0  0  0  0  0  0  0  0  0
   -0.1300   18.6290  -33.0330 C   0  0  0  0  0  0  0  0  0  0  0  0
    0.4420   19.8350  -33.4650 C   0  0  0  0  0  0  0  0  0  0  0  0
    1.9280   20.0380  -33.3590 C   0  0  0  0  0  0  0  0  0  0  0  0
    1.9520   25.5990  -35.7800 C   0  0  0  0  0  0  0  0  0  0  0  0
    1.6250   26.9620  -35.7000 C   0  0  0  0  0  0  0  0  0  0  0  0
    2.6930   27.9540  -35.3180 C   0  0  0  0  0  0  0  0  0  0  0  0
   -0.1523   29.1690  -34.9690 H   0  0  0  0  0  0  0  0  0  0  0  0
    0.7057   29.4374  -36.5241 H   0  0  0  0  0  0  0  0  0  0  0  0
   -1.0305   28.9765  -36.5241 H   0  0  0  0  0  0  0  0  0  0  0  0
   -1.6586   26.7459  -36.6864 H   0  0  0  0  0  0  0  0  0  0  0  0
   -1.0478   24.3376  -36.8188 H   0  0  0  0  0  0  0  0  0  0  0  0
   -2.4070   21.3815  -34.5750 H   0  0  0  0  0  0  0  0  0  0  0  0
   -3.7775   17.4906  -35.4690 H   0  0  0  0  0  0  0  0  0  0  0  0
   -8.0680   19.1699  -33.6451 H   0  0  0  0  0  0  0  0  0  0  0  0
   -5.6086   24.6796  -30.6886 H   0  0  0  0  0  0  0  0  0  0  0  0
   -3.6125   25.8073  -29.7046 H   0  0  0  0  0  0  0  0  0  0  0  0
   -0.9350   26.4560  -29.9590 H   0  0  0  0  0  0  0  0  0  0  0  0
   -1.9288   21.9487  -28.6977 H   0  0  0  0  0  0  0  0  0  0  0  0
   -3.9099   20.8206  -29.7074 H   0  0  0  0  0  0  0  0  0  0  0  0
   -1.9312   17.4447  -32.8533 H   0  0  0  0  0  0  0  0  0  0  0  0
    0.5040   17.8598  -32.5678 H   0  0  0  0  0  0  0  0  0  0  0  0
    2.2179   20.0776  -32.2986 H   0  0  0  0  0  0  0  0  0  0  0  0
    2.4482   19.2026  -33.8504 H   0  0  0  0  0  0  0  0  0  0  0  0
    2.2050   20.9823  -33.8504 H   0  0  0  0  0  0  0  0  0  0  0  0
    2.9574   25.2626  -35.4868 H   0  0  0  0  0  0  0  0  0  0  0  0
    2.7602   28.0165  -34.2218 H   0  0  0  0  0  0  0  0  0  0  0  0
    3.6604   27.6268  -35.7267 H   0  0  0  0  0  0  0  0  0  0  0  0
    2.4380   28.9429  -35.7267 H   0  0  0  0  0  0  0  0  0  0  0  0
  1  2  1  0
  2  3  2  0
  3  4  1  0
  4  5  2  0
  5  6  1  0
  6  7  1  0
  7  8  2  0
  7  9  1  0
  9 10  1  0
 10 11  2  0
 11 12  1  0
 12 13  1  0
 13 14  2  0
 14 15  1  0
 15 16  2  0
 16 17  1  0
 17 18  2  0
 18 19  1  0
 19 20  2  3
 20 21  1  0
 21 22  2  0
 22 23  1  0
 23 24  2  0
 24 25  1  0
 25 26  1  0
 25 27  2  0
 25 28  2  0
 24 29  1  0
 29 30  2  0
 19 31  1  0
 31 32  1  0
 12 33  2  0
 33 34  1  0
 34 35  2  0
 35 36  1  0
  5 37  1  0
 37 38  2  0
 38 39  1  0
 38  2  1  0
 35 10  1  0
 32 13  1  0
 32 16  1  0
 30 21  1  0
  1 40  1  0
  1 41  1  0
  1 42  1  0
  3 43  1  0
  4 44  1  0
 11 45  1  0
 14 46  1  0
 17 47  1  0
 22 48  1  0
 23 49  1  0
 26 50  1  0
 29 51  1  0
 30 52  1  0
 33 53  1  0
 34 54  1  0
 36 55  1  0
 36 56  1  0
 36 57  1  0
 37 58  1  0
 39 59  1  0
 39 60  1  0
 39 61  1  0
M  CHG  4   6  -1   9  -1  26  -1  31  -1
M  END
>  <UniqueID>  (6) 
5

>  <SMILES>  (6) 
Cc1ccc([N-]C(=O)[N-]c2cc(-c3cnc4cnc(=Nc5ccc(S([NH-])(=O)=O)cc5)[n-]n34)ccc2C)cc1C

>  <Energy>  (6) 
115.21049779606577

>  <Genealogy>  (6) 
Cc1ccc([N-]C(=O)[N-]c2cc(-c3cnc4cnc(=Nc5ccc(S([NH-])(=O)=O)cc5)[n-]n34)ccc2C)cc1C (protonated)
Cc1ccc([N-]C(=O)[N-]c2cc(-c3cnc4cnc(=Nc5ccc(S([NH-])(=O)=O)cc5)[n-]n34)ccc2C)cc1C (3D coordinates assigned)
Cc1ccc([N-]C(=O)[N-]c2cc(-c3cnc4cnc(=Nc5ccc(S([NH-])(=O)=O)cc5)[n-]n34)ccc2C)cc1C (optimized conformer: 115.21049779606577 kcal/mol)

>  <smiles>  (6) 
Cc1ccc(NC(=O)Nc2cc(-c3cnc4cnc(=Nc5ccc(S(N)(=O)=O)cc5)[nH]n34)ccc2C)cc1C

>  <score_type>  (6) 
oracle

>  <origin>  (6) 
adgpu

>  <m_score__min__energy>  (6) 
-14.199999999999999

>  <m_primary>  (6) 
energy

$$$$
6:0
     RDKit          3D

 42 44  0  0  0  0  0  0  0  0999 V2000
   -3.4180   16.3500  -35.7930 C   0  0  0  0  0  0  0  0  0  0  0  0
   -3.6970   17.2480  -34.6240 C   0  0  0  0  0  0  0  0  0  0  0  0
   -4.9300   17.1680  -33.9620 C   0  0  0  0  0  0  0  0  0  0  0  0
   -5.1870   18.0200  -32.8840 C   0  0  0  0  0  0  0  0  0  0  0  0
   -6.7040   17.9260  -32.0050 S   0  0  0  0  0  0  0  0  0  0  0  0
   -6.4530   17.4850  -30.5910 O   0  0  0  0  0  0  0  0  0  0  0  0
   -7.6050   16.9340  -32.6870 O   0  0  0  0  0  0  0  0  0  0  0  0
   -7.4600   19.5180  -31.9800 C   0  0  0  0  0  0  0  0  0  0  0  0
   -8.8580   19.6230  -32.0100 C   0  0  0  0  0  0  0  0  0  0  0  0
   -9.4720   20.8770  -31.9570 C   0  0  0  0  0  0  0  0  0  0  0  0
   -8.6930   22.0350  -31.8820 C   0  0  0  0  0  0  0  0  0  0  0  0
   -7.2980   21.9380  -31.8590 C   0  0  0  0  0  0  0  0  0  0  0  0
   -6.6800   20.6850  -31.9060 C   0  0  0  0  0  0  0  0  0  0  0  0
   -4.2480   18.9250  -32.5010 N   0  0  0  0  0  0  0  0  0  0  0  0
   -3.0480   19.0430  -33.1320 C   0  0  0  0  0  0  0  0  0  0  0  0
   -2.1560   19.8980  -32.7200 N   0  0  0  0  0  0  0  0  0  0  0  0
   -2.3400   20.8540  -31.6630 C   0  0  0  0  0  0  0  0  0  0  0  0
   -1.4640   20.8340  -30.5710 C   0  0  0  0  0  0  0  0  0  0  0  0
   -1.6040   21.7640  -29.5370 C   0  0  0  0  0  0  0  0  0  0  0  0
   -2.6050   22.7360  -29.5990 C   0  0  0  0  0  0  0  0  0  0  0  0
   -3.4700   22.7860  -30.7010 C   0  0  0  0  0  0  0  0  0  0  0  0
   -4.6720   24.0680  -30.8070 S   0  0  0  0  0  0  0  0  0  0  0  0
   -3.8850   25.6000  -30.6990 N   0  0  0  0  0  0  0  0  0  0  0  0
   -5.4100   23.9820  -32.1130 O   0  0  0  0  0  0  0  0  0  0  0  0
   -5.6580   23.9290  -29.6810 O   0  0  0  0  0  0  0  0  0  0  0  0
   -3.3320   21.8500  -31.7360 C   0  0  0  0  0  0  0  0  0  0  0  0
   -2.7510   18.1990  -34.2080 C   0  0  0  0  0  0  0  0  0  0  0  0
   -3.1101   15.3588  -35.4287 H   0  0  0  0  0  0  0  0  0  0  0  0
   -4.3274   16.2499  -36.4037 H   0  0  0  0  0  0  0  0  0  0  0  0
   -2.6120   16.7829  -36.4037 H   0  0  0  0  0  0  0  0  0  0  0  0
   -5.6886   16.4412  -34.2879 H   0  0  0  0  0  0  0  0  0  0  0  0
   -9.4741   18.7141  -32.0755 H   0  0  0  0  0  0  0  0  0  0  0  0
  -10.5692   20.9529  -31.9743 H   0  0  0  0  0  0  0  0  0  0  0  0
   -9.1768   23.0221  -31.8411 H   0  0  0  0  0  0  0  0  0  0  0  0
   -6.6855   22.8500  -31.8038 H   0  0  0  0  0  0  0  0  0  0  0  0
   -5.5826   20.6122  -31.8851 H   0  0  0  0  0  0  0  0  0  0  0  0
   -0.6617   20.0828  -30.5266 H   0  0  0  0  0  0  0  0  0  0  0  0
   -0.9244   21.7303  -28.6727 H   0  0  0  0  0  0  0  0  0  0  0  0
   -2.7148   23.4637  -28.7815 H   0  0  0  0  0  0  0  0  0  0  0  0
   -3.5060   25.6790  -29.7270 H   0  0  0  0  0  0  0  0  0  0  0  0
   -4.0012   21.8942  -32.6079 H   0  0  0  0  0  0  0  0  0  0  0  0
   -1.7832   18.2799  -34.7245 H   0  0  0  0  0  0  0  0  0  0  0  0
  1  2  1  0
  2  3  1  0
  3  4  2  0
  4  5  1  0
  5  6  2  0
  5  7  2  0
  5  8  1  0
  8  9  2  0
  9 10  1  0
 10 11  2  0
 11 12  1  0
 12 13  2  0
  4 14  1  0
 14 15  1  0
 15 16  2  3
 16 17  1  0
 17 18  2  0
 18 19  1  0
 19 20  2  0
 20 21  1  0
 21 22  1  0
 22 23  1  0
 22 24  2  0
 22 25  2  0
 21 26  2  0
 15 27  1  0
 27  2  2  0
 13  8  1  0
 26 17  1  0
  1 28  1  0
  1 29  1  0
  1 30  1  0
  3 31  1  0
  9 32  1  0
 10 33  1  0
 11 34  1  0
 12 35  1  0
 13 36  1  0
 18 37  1  0
 19 38  1  0
 20 39  1  0
 23 40  1  0
 26 41  1  0
 27 42  1  0
M  CHG  2  14  -1  23  -1
M  END
>  <UniqueID>  (7) 
6

>  <SMILES>  (7) 
Cc1cc(S(=O)(=O)c2ccccc2)[n-]c(=Nc2cccc(S([NH-])(=O)=O)c2)c1

>  <Energy>  (7) 
48.746547498208905

>  <Genealogy>  (7) 
Cc1cc(S(=O)(=O)c2ccccc2)[n-]c(=Nc2cccc(S([NH-])(=O)=O)c2)c1 (protonated)
Cc1cc(S(=O)(=O)c2ccccc2)[n-]c(=Nc2cccc(S([NH-])(=O)=O)c2)c1 (3D coordinates assigned)
Cc1cc(S(=O)(=O)c2ccccc2)[n-]c(=Nc2cccc(S([NH-])(=O)=O)c2)c1 (optimized conformer: 48.746547498208905 kcal/mol)

>  <smiles>  (7) 
Cc1cc(S(=O)(=O)c2ccccc2)[nH]c(=Nc2cccc(S(N)(=O)=O)c2)c1

>  <score_type>  (7) 
oracle

>  <origin>  (7) 
adgpu

>  <m_score__min__energy>  (7) 
-11.57

>  <m_primary>  (7) 
energy

$$$$
7:0
     RDKit          3D

 50 53  0  0  0  0  0  0  0  0999 V2000
   -5.9410   25.5080  -28.9000 O   0  0  0  0  0  0  0  0  0  0  0  0
   -5.1450   25.1390  -30.1200 S   0  0  0  0  0  0  0  0  0  0  0  0
   -5.4870   26.1120  -31.2140 O   0  0  0  0  0  0  0  0  0  0  0  0
   -3.4550   25.2770  -29.7490 N   0  0  0  0  0  0  0  0  0  0  0  0
   -2.6870   24.2840  -29.0580 C   0  0  0  0  0  0  0  0  0  0  0  0
   -1.6630   23.5700  -29.7070 C   0  0  0  0  0  0  0  0  0  0  0  0
   -0.9580   22.5720  -29.0280 C   0  0  0  0  0  0  0  0  0  0  0  0
   -1.2570   22.2880  -27.6920 C   0  0  0  0  0  0  0  0  0  0  0  0
   -2.2560   23.0070  -27.0290 C   0  0  0  0  0  0  0  0  0  0  0  0
   -2.9780   24.0000  -27.7030 C   0  0  0  0  0  0  0  0  0  0  0  0
   -3.9700   24.6960  -27.0060 O   0  0  0  0  0  0  0  0  0  0  0  0
   -5.5670   23.4950  -30.5980 C   0  0  0  0  0  0  0  0  0  0  0  0
   -4.6190   22.6710  -31.2180 C   0  0  0  0  0  0  0  0  0  0  0  0
   -4.9640   21.3790  -31.6240 C   0  0  0  0  0  0  0  0  0  0  0  0
   -6.2670   20.8970  -31.4320 C   0  0  0  0  0  0  0  0  0  0  0  0
   -6.6390   19.5400  -31.9030 C   0  0  0  0  0  0  0  0  0  0  0  0
   -7.9620   19.0850  -31.7900 C   0  0  0  0  0  0  0  0  0  0  0  0
   -8.3050   17.8280  -32.2890 C   0  0  0  0  0  0  0  0  0  0  0  0
   -7.3580   17.0470  -32.8720 N   0  0  0  0  0  0  0  0  0  0  0  0
   -6.0550   17.4360  -32.9910 C   0  0  0  0  0  0  0  0  0  0  0  0
   -5.0970   16.5540  -33.6360 N   0  0  0  0  0  0  0  0  0  0  0  0
   -5.4530   15.1490  -33.9040 C   0  0  0  0  0  0  0  0  0  0  0  0
   -4.2820   14.3800  -34.5050 C   0  0  0  0  0  0  0  0  0  0  0  0
   -3.6870   15.1950  -35.5590 N   0  0  0  0  0  0  0  0  0  0  0  0
   -2.9730   16.3470  -34.9940 C   0  0  0  0  0  0  0  0  0  0  0  0
   -3.6980   17.0020  -33.7910 C   0  0  0  0  0  0  0  0  0  0  0  0
   -5.6800   18.7050  -32.4990 C   0  0  0  0  0  0  0  0  0  0  0  0
   -7.2150   21.7260  -30.8070 C   0  0  0  0  0  0  0  0  0  0  0  0
   -6.8630   23.0140  -30.3850 C   0  0  0  0  0  0  0  0  0  0  0  0
   -1.4159   23.7983  -30.7543 H   0  0  0  0  0  0  0  0  0  0  0  0
   -0.1670   22.0094  -29.5454 H   0  0  0  0  0  0  0  0  0  0  0  0
   -0.7054   21.4977  -27.1618 H   0  0  0  0  0  0  0  0  0  0  0  0
   -2.4760   22.7918  -25.9729 H   0  0  0  0  0  0  0  0  0  0  0  0
   -4.4940   25.4560  -27.4250 H   0  0  0  0  0  0  0  0  0  0  0  0
   -3.5975   23.0428  -31.3862 H   0  0  0  0  0  0  0  0  0  0  0  0
   -4.2080   20.7354  -32.0976 H   0  0  0  0  0  0  0  0  0  0  0  0
   -8.7246   19.7163  -31.3104 H   0  0  0  0  0  0  0  0  0  0  0  0
   -9.3419   17.4692  -32.2105 H   0  0  0  0  0  0  0  0  0  0  0  0
   -5.7486   14.6689  -32.9595 H   0  0  0  0  0  0  0  0  0  0  0  0
   -6.2819   15.1352  -34.6270 H   0  0  0  0  0  0  0  0  0  0  0  0
   -3.5328   14.1758  -33.7259 H   0  0  0  0  0  0  0  0  0  0  0  0
   -4.6318   13.4231  -34.9197 H   0  0  0  0  0  0  0  0  0  0  0  0
   -3.0020   14.6090  -36.0910 H   0  0  0  0  0  0  0  0  0  0  0  0
   -1.9806   16.0103  -34.6597 H   0  0  0  0  0  0  0  0  0  0  0  0
   -2.9139   17.1079  -35.7861 H   0  0  0  0  0  0  0  0  0  0  0  0
   -3.1473   16.7504  -32.8726 H   0  0  0  0  0  0  0  0  0  0  0  0
   -3.7222   18.0859  -33.9767 H   0  0  0  0  0  0  0  0  0  0  0  0
   -4.6356   19.0400  -32.5826 H   0  0  0  0  0  0  0  0  0  0  0  0
   -8.2403   21.3604  -30.6484 H   0  0  0  0  0  0  0  0  0  0  0  0
   -7.6082   23.6496  -29.8843 H   0  0  0  0  0  0  0  0  0  0  0  0
  1  2  2  0
  2  3  2  0
  2  4  1  0
  4  5  1  0
  5  6  2  0
  6  7  1  0
  7  8  2  0
  8  9  1  0
  9 10  2  0
 10 11  1  0
  2 12  1  0
 12 13  2  0
 13 14  1  0
 14 15  2  0
 15 16  1  0
 16 17  2  0
 17 18  1  0
 18 19  2  0
 19 20  1  0
 20 21  1  0
 21 22  1  0
 22 23  1  0
 23 24  1  0
 24 25  1  0
 25 26  1  0
 20 27  2  0
 15 28  1  0
 28 29  2  0
 10  5  1  0
 29 12  1  0
 27 16  1  0
 26 21  1  0
  6 30  1  0
  7 31  1  0
  8 32  1  0
  9 33  1  0
 11 34  1  0
 13 35  1  0
 14 36  1  0
 17 37  1  0
 18 38  1  0
 22 39  1  0
 22 40  1  0
 23 41  1  0
 23 42  1  0
 24 43  1  0
 25 44  1  0
 25 45  1  0
 26 46  1  0
 26 47  1  0
 27 48  1  0
 28 49  1  0
 29 50  1  0
M  CHG  1   4  -1
M  END
>  <UniqueID>  (8) 
7

>  <SMILES>  (8) 
O=S(=O)([N-]c1ccccc1O)c1ccc(-c2ccnc(N3CCNCC3)c2)cc1

>  <Energy>  (8) 
71.1747161068633

>  <Genealogy>  (8) 
O=S(=O)([N-]c1ccccc1O)c1ccc(-c2ccnc(N3CCNCC3)c2)cc1 (protonated)
O=S(=O)([N-]c1ccccc1O)c1ccc(-c2ccnc(N3CCNCC3)c2)cc1 (3D coordinates assigned)
O=S(=O)([N-]c1ccccc1O)c1ccc(-c2ccnc(N3CCNCC3)c2)cc1 (nonaromatic ring conformer: 71.1747161068633 kcal/mol)

>  <smiles>  (8) 
O=S(=O)(Nc1ccccc1O)c1ccc(-c2ccnc(N3CCNCC3)c2)cc1

>  <score_type>  (8) 
oracle

>  <origin>  (8) 
adgpu

>  <m_score__min__energy>  (8) 
-10.59

>  <m_primary>  (8) 
energy

$$$$
8:0
     RDKit          3D

 54 58  0  0  0  0  0  0  0  0999 V2000
   -6.7230   14.4130  -34.2420 C   0  0  0  0  0  0  0  0  0  0  0  0
   -7.1080   15.7740  -34.4050 O   0  0  0  0  0  0  0  0  0  0  0  0
   -6.5690   16.8410  -33.6730 C   0  0  0  0  0  0  0  0  0  0  0  0
   -7.2650   17.4460  -32.5870 C   0  0  0  0  0  0  0  0  0  0  0  0
   -6.6940   18.5150  -31.8710 C   0  0  0  0  0  0  0  0  0  0  0  0
   -5.4350   18.9640  -32.2590 C   0  0  0  0  0  0  0  0  0  0  0  0
   -4.7110   19.9580  -31.6930 N   0  0  0  0  0  0  0  0  0  0  0  0
   -3.5620   20.0010  -32.4090 C   0  0  0  0  0  0  0  0  0  0  0  0
   -2.4420   20.8190  -32.2150 C   0  0  0  0  0  0  0  0  0  0  0  0
   -2.3920   21.8470  -31.1560 C   0  0  0  0  0  0  0  0  0  0  0  0
   -1.5580   21.6860  -30.0420 C   0  0  0  0  0  0  0  0  0  0  0  0
   -1.5120   22.6650  -29.0470 C   0  0  0  0  0  0  0  0  0  0  0  0
   -2.2910   23.8290  -29.1570 C   0  0  0  0  0  0  0  0  0  0  0  0
   -2.2010   24.8940  -28.0980 C   0  0  0  0  0  0  0  0  0  0  0  0
   -3.1080   24.0130  -30.2900 C   0  0  0  0  0  0  0  0  0  0  0  0
   -3.8630   25.2280  -30.4340 N   0  0  0  0  0  0  0  0  0  0  0  0
   -5.2950   25.3340  -30.4170 C   0  0  0  0  0  0  0  0  0  0  0  0
   -5.8140   26.4440  -30.1250 O   0  0  0  0  0  0  0  0  0  0  0  0
   -6.1700   24.1920  -30.7690 C   0  0  0  0  0  0  0  0  0  0  0  0
   -6.3650   23.8430  -32.1150 C   0  0  0  0  0  0  0  0  0  0  0  0
   -7.2230   22.7940  -32.4570 C   0  0  0  0  0  0  0  0  0  0  0  0
   -7.8800   22.0540  -31.4590 C   0  0  0  0  0  0  0  0  0  0  0  0
   -8.8570   20.9670  -31.8280 C   0  0  0  0  0  0  0  0  0  0  0  0
   -8.8900   19.9890  -30.8500 F   0  0  0  0  0  0  0  0  0  0  0  0
  -10.1190   21.5160  -31.9580 F   0  0  0  0  0  0  0  0  0  0  0  0
   -8.4990   20.3700  -33.0250 F   0  0  0  0  0  0  0  0  0  0  0  0
   -7.6850   22.4040  -30.1130 C   0  0  0  0  0  0  0  0  0  0  0  0
   -6.8260   23.4520  -29.7700 C   0  0  0  0  0  0  0  0  0  0  0  0
   -3.1850   22.9990  -31.2610 C   0  0  0  0  0  0  0  0  0  0  0  0
   -1.3370   20.6020  -33.0690 C   0  0  0  0  0  0  0  0  0  0  0  0
   -1.3970   19.6070  -34.0710 C   0  0  0  0  0  0  0  0  0  0  0  0
   -2.5130   18.8340  -34.2220 N   0  0  0  0  0  0  0  0  0  0  0  0
   -3.5670   19.0460  -33.3970 C   0  0  0  0  0  0  0  0  0  0  0  0
   -4.7620   18.3800  -33.3110 C   0  0  0  0  0  0  0  0  0  0  0  0
   -5.2940   17.3190  -34.0370 C   0  0  0  0  0  0  0  0  0  0  0  0
   -6.6562   14.1767  -33.1698 H   0  0  0  0  0  0  0  0  0  0  0  0
   -7.4719   13.7609  -34.7152 H   0  0  0  0  0  0  0  0  0  0  0  0
   -5.7435   14.2498  -34.7152 H   0  0  0  0  0  0  0  0  0  0  0  0
   -8.2606   17.0732  -32.3046 H   0  0  0  0  0  0  0  0  0  0  0  0
   -7.2271   18.9818  -31.0296 H   0  0  0  0  0  0  0  0  0  0  0  0
   -4.9770   20.5380  -30.8650 H   0  0  0  0  0  0  0  0  0  0  0  0
   -0.9359   20.7835  -29.9504 H   0  0  0  0  0  0  0  0  0  0  0  0
   -0.8615   22.5238  -28.1713 H   0  0  0  0  0  0  0  0  0  0  0  0
   -2.2405   24.4262  -27.1032 H   0  0  0  0  0  0  0  0  0  0  0  0
   -1.2534   25.4416  -28.2083 H   0  0  0  0  0  0  0  0  0  0  0  0
   -3.0433   25.5928  -28.2083 H   0  0  0  0  0  0  0  0  0  0  0  0
   -5.8392   24.3987  -32.9054 H   0  0  0  0  0  0  0  0  0  0  0  0
   -7.3854   22.5455  -33.5162 H   0  0  0  0  0  0  0  0  0  0  0  0
   -8.2122   21.8493  -29.3228 H   0  0  0  0  0  0  0  0  0  0  0  0
   -6.6622   23.6994  -28.7108 H   0  0  0  0  0  0  0  0  0  0  0  0
   -3.8739   23.1103  -32.1113 H   0  0  0  0  0  0  0  0  0  0  0  0
   -0.4273   21.2095  -32.9535 H   0  0  0  0  0  0  0  0  0  0  0  0
   -0.5350   19.4533  -34.7369 H   0  0  0  0  0  0  0  0  0  0  0  0
   -4.7362   16.8667  -34.8702 H   0  0  0  0  0  0  0  0  0  0  0  0
  1  2  1  0
  2  3  1  0
  3  4  2  0
  4  5  1  0
  5  6  2  0
  6  7  1  0
  7  8  1  0
  8  9  2  0
  9 10  1  0
 10 11  2  0
 11 12  1  0
 12 13  2  0
 13 14  1  0
 13 15  1  0
 15 16  1  0
 16 17  1  0
 17 18  2  0
 17 19  1  0
 19 20  2  0
 20 21  1  0
 21 22  2  0
 22 23  1  0
 23 24  1  0
 23 25  1  0
 23 26  1  0
 22 27  1  0
 27 28  2  0
 15 29  2  0
  9 30  1  0
 30 31  2  0
 31 32  1  0
 32 33  2  0
 33 34  1  0
 34 35  2  0
 35  3  1  0
 34  6  1  0
 33  8  1  0
 29 10  1  0
 28 19  1  0
  1 36  1  0
  1 37  1  0
  1 38  1  0
  4 39  1  0
  5 40  1  0
  7 41  1  0
 11 42  1  0
 12 43  1  0
 14 44  1  0
 14 45  1  0
 14 46  1  0
 20 47  1  0
 21 48  1  0
 27 49  1  0
 28 50  1  0
 29 51  1  0
 30 52  1  0
 31 53  1  0
 35 54  1  0
M  CHG  1  16  -1
M  END
>  <UniqueID>  (9) 
8

>  <SMILES>  (9) 
COc1ccc2[nH]c3c(-c4ccc(C)c([N-]C(=O)c5ccc(C(F)(F)F)cc5)c4)ccnc3c2c1

>  <Energy>  (9) 
115.33852473791254

>  <Genealogy>  (9) 
COc1ccc2[nH]c3c(-c4ccc(C)c([N-]C(=O)c5ccc(C(F)(F)F)cc5)c4)ccnc3c2c1 (protonated)
COc1ccc2[nH]c3c(-c4ccc(C)c([N-]C(=O)c5ccc(C(F)(F)F)cc5)c4)ccnc3c2c1 (3D coordinates assigned)
COc1ccc2[nH]c3c(-c4ccc(C)c([N-]C(=O)c5ccc(C(F)(F)F)cc5)c4)ccnc3c2c1 (optimized conformer: 115.33852473791254 kcal/mol)

>  <smiles>  (9) 
COc1ccc2[nH]c3c(-c4ccc(C)c(NC(=O)c5ccc(C(F)(F)F)cc5)c4)ccnc3c2c1

>  <score_type>  (9) 
oracle

>  <origin>  (9) 
adgpu

>  <m_score__min__energy>  (9) 
-11.82

>  <m_primary>  (9) 
energy

$$$$
9:0
     RDKit          3D

 33 35  0  0  0  0  0  0  0  0999 V2000
   -3.5670   24.9340  -31.2320 H   0  0  0  0  0  0  0  0  0  0  0  0
   -3.9060   25.4820  -30.4780 O   0  0  0  0  0  0  0  0  0  0  0  0
   -4.7350   24.6380  -29.7280 C   0  0  0  0  0  0  0  0  0  0  0  0
   -4.1169   23.9736  -29.1063 H   0  0  0  0  0  0  0  0  0  0  0  0
   -5.3864   25.2424  -29.0796 H   0  0  0  0  0  0  0  0  0  0  0  0
   -5.5770   23.8140  -30.6590 C   0  0  0  0  0  0  0  0  0  0  0  0
   -6.9100   24.1740  -30.9120 C   0  0  0  0  0  0  0  0  0  0  0  0
   -7.3264   25.0869  -30.4612 H   0  0  0  0  0  0  0  0  0  0  0  0
   -7.7100   23.3760  -31.7350 C   0  0  0  0  0  0  0  0  0  0  0  0
   -8.7545   23.6614  -31.9289 H   0  0  0  0  0  0  0  0  0  0  0  0
   -7.1850   22.2160  -32.3120 C   0  0  0  0  0  0  0  0  0  0  0  0
   -7.8225   21.5835  -32.9472 H   0  0  0  0  0  0  0  0  0  0  0  0
   -5.8520   21.8560  -32.0850 C   0  0  0  0  0  0  0  0  0  0  0  0
   -5.3580   20.6260  -32.6370 N   0  0  0  0  0  0  0  0  0  0  0  0
   -5.9800   19.4780  -32.7210 C   0  0  0  0  0  0  0  0  0  0  0  0
   -7.2370   19.2650  -32.1190 C   0  0  0  0  0  0  0  0  0  0  0  0
   -7.7260   20.0802  -31.5656 H   0  0  0  0  0  0  0  0  0  0  0  0
   -7.8610   18.0230  -32.2240 C   0  0  0  0  0  0  0  0  0  0  0  0
   -8.8465   17.8666  -31.7611 H   0  0  0  0  0  0  0  0  0  0  0  0
   -7.2620   17.0050  -32.8930 N   0  0  0  0  0  0  0  0  0  0  0  0
   -7.7620   16.0880  -32.9490 H   0  0  0  0  0  0  0  0  0  0  0  0
   -6.0370   17.1540  -33.4730 C   0  0  0  0  0  0  0  0  0  0  0  0
   -5.4420   16.0760  -34.1480 C   0  0  0  0  0  0  0  0  0  0  0  0
   -5.9672   15.1114  -34.2094 H   0  0  0  0  0  0  0  0  0  0  0  0
   -4.1860   16.2230  -34.7420 C   0  0  0  0  0  0  0  0  0  0  0  0
   -3.4510   14.8680  -35.5810 Cl  0  0  0  0  0  0  0  0  0  0  0  0
   -3.5150   17.4460  -34.6690 C   0  0  0  0  0  0  0  0  0  0  0  0
   -2.5261   17.5573  -35.1378 H   0  0  0  0  0  0  0  0  0  0  0  0
   -4.0950   18.5280  -34.0030 C   0  0  0  0  0  0  0  0  0  0  0  0
   -3.5602   19.4879  -33.9520 H   0  0  0  0  0  0  0  0  0  0  0  0
   -5.3620   18.3990  -33.3950 C   0  0  0  0  0  0  0  0  0  0  0  0
   -5.0610   22.6390  -31.2270 C   0  0  0  0  0  0  0  0  0  0  0  0
   -4.0305   22.3288  -30.9991 H   0  0  0  0  0  0  0  0  0  0  0  0
  1  2  1  0
  2  3  1  0
  3  4  1  0
  3  5  1  0
  3  6  1  0
  6  7  2  0
  7  8  1  0
  7  9  1  0
  9 10  1  0
  9 11  2  0
 11 12  1  0
 11 13  1  0
 13 14  1  0
 14 15  2  0
 15 16  1  0
 16 17  1  0
 16 18  2  0
 18 19  1  0
 18 20  1  0
 20 21  1  0
 20 22  1  0
 22 23  2  0
 23 24  1  0
 23 25  1  0
 25 26  1  0
 25 27  2  0
 27 28  1  0
 27 29  1  0
 29 30  1  0
 29 31  2  0
 13 32  2  0
 32 33  1  0
 32  6  1  0
 31 15  1  0
 31 22  1  0
M  END
>  <UniqueID>  (10) 
9

>  <SMILES>  (10) 
OCc1cccc(/N=c2\cc[nH]c3cc(Cl)ccc23)c1

>  <Energy>  (10) 
48.945074774724965

>  <Genealogy>  (10) 
OCc1cccc(/N=c2\cc[nH]c3cc(Cl)ccc23)c1 (cis-trans isomerization)
OCc1cccc(/N=c2\cc[nH]c3cc(Cl)ccc23)c1 (3D coordinates assigned)
OCc1cccc(/N=c2\cc[nH]c3cc(Cl)ccc23)c1 (optimized conformer: 48.945074774724965 kcal/mol)

>  <smiles>  (10) 
OCc1cccc(N=c2cc[nH]c3cc(Cl)ccc23)c1

>  <score_type>  (10) 
oracle

>  <origin>  (10) 
adgpu

>  <m_score__min__energy>  (10) 
-8.6099999999999994

>  <m_primary>  (10) 
energy

$$$$
10:0
     RDKit          3D

 51 53  0  0  0  0  0  0  0  0999 V2000
   -0.6780   23.4530  -29.2660 C   0  0  0  0  0  0  0  0  0  0  0  0
   -0.9160   24.9260  -28.9700 C   0  0  0  0  0  0  0  0  0  0  0  0
   -2.2760   25.2910  -29.3430 N   0  0  0  0  0  0  0  0  0  0  0  0
   -3.4180   24.5260  -28.9400 C   0  0  0  0  0  0  0  0  0  0  0  0
   -3.4050   23.9180  -27.8360 O   0  0  0  0  0  0  0  0  0  0  0  0
   -4.5960   24.4090  -29.8330 C   0  0  0  0  0  0  0  0  0  0  0  0
   -5.8190   24.9710  -29.4300 C   0  0  0  0  0  0  0  0  0  0  0  0
   -6.9620   24.8100  -30.2110 C   0  0  0  0  0  0  0  0  0  0  0  0
   -6.8800   24.0870  -31.4010 C   0  0  0  0  0  0  0  0  0  0  0  0
   -5.6880   23.5720  -31.8030 N   0  0  0  0  0  0  0  0  0  0  0  0
   -4.5500   23.7250  -31.0740 C   0  0  0  0  0  0  0  0  0  0  0  0
   -3.3600   23.1950  -31.5900 O   0  0  0  0  0  0  0  0  0  0  0  0
   -3.2270   21.9030  -32.1220 C   0  0  0  0  0  0  0  0  0  0  0  0
   -2.1950   21.5610  -33.0140 C   0  0  0  0  0  0  0  0  0  0  0  0
   -2.0690   20.2470  -33.4940 C   0  0  0  0  0  0  0  0  0  0  0  0
   -0.9340   19.9010  -34.4240 C   0  0  0  0  0  0  0  0  0  0  0  0
   -3.0080   19.2700  -33.0940 C   0  0  0  0  0  0  0  0  0  0  0  0
   -2.9210   17.8770  -33.5870 C   0  0  0  0  0  0  0  0  0  0  0  0
   -3.8300   17.4110  -34.5520 C   0  0  0  0  0  0  0  0  0  0  0  0
   -4.8260   18.2890  -35.0160 O   0  0  0  0  0  0  0  0  0  0  0  0
   -6.1180   18.4650  -34.4320 C   0  0  0  0  0  0  0  0  0  0  0  0
   -6.5760   17.1790  -33.7500 C   0  0  0  0  0  0  0  0  0  0  0  0
   -3.7160   16.0890  -35.0130 C   0  0  0  0  0  0  0  0  0  0  0  0
   -2.7070   15.2660  -34.5100 C   0  0  0  0  0  0  0  0  0  0  0  0
   -1.8400   15.7360  -33.5750 N   0  0  0  0  0  0  0  0  0  0  0  0
   -1.9220   17.0120  -33.1050 C   0  0  0  0  0  0  0  0  0  0  0  0
   -1.0910   17.4130  -32.2440 O   0  0  0  0  0  0  0  0  0  0  0  0
   -4.0490   19.6220  -32.2210 C   0  0  0  0  0  0  0  0  0  0  0  0
   -4.9620   18.6970  -31.8290 F   0  0  0  0  0  0  0  0  0  0  0  0
   -4.1590   20.9310  -31.7470 C   0  0  0  0  0  0  0  0  0  0  0  0
   -0.5884   22.8987  -28.3201 H   0  0  0  0  0  0  0  0  0  0  0  0
   -1.5234   23.0543  -29.8460 H   0  0  0  0  0  0  0  0  0  0  0  0
    0.2499   23.3408  -29.8460 H   0  0  0  0  0  0  0  0  0  0  0  0
   -0.7700   25.1107  -27.8955 H   0  0  0  0  0  0  0  0  0  0  0  0
   -0.2051   25.5325  -29.5504 H   0  0  0  0  0  0  0  0  0  0  0  0
   -5.8748   25.5421  -28.4915 H   0  0  0  0  0  0  0  0  0  0  0  0
   -7.9191   25.2486  -29.8922 H   0  0  0  0  0  0  0  0  0  0  0  0
   -7.7802   23.9335  -32.0143 H   0  0  0  0  0  0  0  0  0  0  0  0
   -1.4792   22.3304  -33.3391 H   0  0  0  0  0  0  0  0  0  0  0  0
   -0.0460   19.6303  -33.8339 H   0  0  0  0  0  0  0  0  0  0  0  0
   -1.2258   19.0510  -35.0583 H   0  0  0  0  0  0  0  0  0  0  0  0
   -0.7020   20.7692  -35.0583 H   0  0  0  0  0  0  0  0  0  0  0  0
   -6.0715   19.2730  -33.6871 H   0  0  0  0  0  0  0  0  0  0  0  0
   -6.8351   18.7216  -35.2256 H   0  0  0  0  0  0  0  0  0  0  0  0
   -6.5305   17.3066  -32.6584 H   0  0  0  0  0  0  0  0  0  0  0  0
   -7.6099   16.9530  -34.0500 H   0  0  0  0  0  0  0  0  0  0  0  0
   -5.9177   16.3504  -34.0500 H   0  0  0  0  0  0  0  0  0  0  0  0
   -4.4186   15.7041  -35.7668 H   0  0  0  0  0  0  0  0  0  0  0  0
   -2.6132   14.2316  -34.8723 H   0  0  0  0  0  0  0  0  0  0  0  0
   -1.0940   15.1000  -33.2150 H   0  0  0  0  0  0  0  0  0  0  0  0
   -4.9859   21.1994  -31.0730 H   0  0  0  0  0  0  0  0  0  0  0  0
  1  2  1  0
  2  3  1  0
  3  4  1  0
  4  5  2  0
  4  6  1  0
  6  7  2  0
  7  8  1  0
  8  9  2  0
  9 10  1  0
 10 11  2  0
 11 12  1  0
 12 13  1  0
 13 14  2  0
 14 15  1  0
 15 16  1  0
 15 17  2  0
 17 18  1  0
 18 19  2  0
 19 20  1  0
 20 21  1  0
 21 22  1  0
 19 23  1  0
 23 24  2  0
 24 25  1  0
 25 26  1  0
 26 27  2  0
 17 28  1  0
 28 29  1  0
 28 30  2  0
 11  6  1  0
 30 13  1  0
 26 18  1  0
  1 31  1  0
  1 32  1  0
  1 33  1  0
  2 34  1  0
  2 35  1  0
  7 36  1  0
  8 37  1  0
  9 38  1  0
 14 39  1  0
 16 40  1  0
 16 41  1  0
 16 42  1  0
 21 43  1  0
 21 44  1  0
 22 45  1  0
 22 46  1  0
 22 47  1  0
 23 48  1  0
 24 49  1  0
 25 50  1  0
 30 51  1  0
M  CHG  1   3  -1
M  END
>  <UniqueID>  (11) 
10

>  <SMILES>  (11) 
CC[N-]C(=O)c1cccnc1Oc1cc(C)c(-c2c(OCC)cc[nH]c2=O)c(F)c1

>  <Energy>  (11) 
65.10402297797773

>  <Genealogy>  (11) 
CC[N-]C(=O)c1cccnc1Oc1cc(C)c(-c2c(OCC)cc[nH]c2=O)c(F)c1 (protonated)
CC[N-]C(=O)c1cccnc1Oc1cc(C)c(-c2c(OCC)cc[nH]c2=O)c(F)c1 (3D coordinates assigned)
CC[N-]C(=O)c1cccnc1Oc1cc(C)c(-c2c(OCC)cc[nH]c2=O)c(F)c1 (optimized conformer: 65.10402297797773 kcal/mol)

>  <smiles>  (11) 
CCNC(=O)c1cccnc1Oc1cc(C)c(-c2c(OCC)cc[nH]c2=O)c(F)c1

>  <score_type>  (11) 
oracle

>  <origin>  (11) 
adgpu

>  <m_score__min__energy>  (11) 
-8.8699999999999992

>  <m_primary>  (11) 
energy

$$$$
11:0
     RDKit          3D

 39 41  0  0  0  0  0  0  0  0999 V2000
   -2.2550   24.5880  -28.1550 C   0  0  0  0  0  0  0  0  0  0  0  0
   -2.7520   25.1810  -29.3500 O   0  0  0  0  0  0  0  0  0  0  0  0
   -3.8460   24.6930  -30.0810 C   0  0  0  0  0  0  0  0  0  0  0  0
   -5.0720   25.3780  -30.1560 C   0  0  0  0  0  0  0  0  0  0  0  0
   -6.1300   24.8480  -30.9000 C   0  0  0  0  0  0  0  0  0  0  0  0
   -5.9870   23.6310  -31.5830 C   0  0  0  0  0  0  0  0  0  0  0  0
   -7.0960   23.1200  -32.3450 N   0  0  0  0  0  0  0  0  0  0  0  0
   -8.2220   21.9420  -31.7490 S   0  0  0  0  0  0  0  0  0  0  0  0
   -8.2960   22.0470  -30.2510 O   0  0  0  0  0  0  0  0  0  0  0  0
   -9.5810   22.2180  -32.3260 O   0  0  0  0  0  0  0  0  0  0  0  0
   -7.7190   20.3260  -32.2370 C   0  0  0  0  0  0  0  0  0  0  0  0
   -8.3140   19.1950  -31.6650 C   0  0  0  0  0  0  0  0  0  0  0  0
   -7.9020   17.9150  -32.0460 C   0  0  0  0  0  0  0  0  0  0  0  0
   -6.8890   17.7500  -33.0070 C   0  0  0  0  0  0  0  0  0  0  0  0
   -6.4490   16.3960  -33.4090 C   0  0  0  0  0  0  0  0  0  0  0  0
   -7.1590   15.5860  -34.2220 N   0  0  0  0  0  0  0  0  0  0  0  0
   -6.4450   14.5080  -34.3300 O   0  0  0  0  0  0  0  0  0  0  0  0
   -5.3510   14.6340  -33.6200 C   0  0  0  0  0  0  0  0  0  0  0  0
   -4.2840   13.5970  -33.5320 C   0  0  0  0  0  0  0  0  0  0  0  0
   -5.2900   15.8310  -33.0070 N   0  0  0  0  0  0  0  0  0  0  0  0
   -6.3000   18.8890  -33.5810 C   0  0  0  0  0  0  0  0  0  0  0  0
   -6.7140   20.1680  -33.1990 C   0  0  0  0  0  0  0  0  0  0  0  0
   -4.7610   22.9450  -31.4990 C   0  0  0  0  0  0  0  0  0  0  0  0
   -3.7030   23.4760  -30.7560 C   0  0  0  0  0  0  0  0  0  0  0  0
   -2.6862   25.1025  -27.2836 H   0  0  0  0  0  0  0  0  0  0  0  0
   -2.5358   23.5247  -28.1290 H   0  0  0  0  0  0  0  0  0  0  0  0
   -1.1590   24.6786  -28.1290 H   0  0  0  0  0  0  0  0  0  0  0  0
   -5.1988   26.3342  -29.6273 H   0  0  0  0  0  0  0  0  0  0  0  0
   -7.0852   25.3911  -30.9505 H   0  0  0  0  0  0  0  0  0  0  0  0
   -7.2020   23.4110  -33.3430 H   0  0  0  0  0  0  0  0  0  0  0  0
   -9.1082   19.3143  -30.9134 H   0  0  0  0  0  0  0  0  0  0  0  0
   -8.3732   17.0312  -31.5912 H   0  0  0  0  0  0  0  0  0  0  0  0
   -4.0654   13.3846  -32.4751 H   0  0  0  0  0  0  0  0  0  0  0  0
   -4.6255   12.6765  -34.0280 H   0  0  0  0  0  0  0  0  0  0  0  0
   -3.3736   13.9646  -34.0280 H   0  0  0  0  0  0  0  0  0  0  0  0
   -5.5081   18.7734  -34.3357 H   0  0  0  0  0  0  0  0  0  0  0  0
   -6.2486   21.0538  -33.6558 H   0  0  0  0  0  0  0  0  0  0  0  0
   -4.6347   21.9852  -32.0213 H   0  0  0  0  0  0  0  0  0  0  0  0
   -2.7486   22.9317  -30.7014 H   0  0  0  0  0  0  0  0  0  0  0  0
  1  2  1  0
  2  3  1  0
  3  4  2  0
  4  5  1  0
  5  6  2  0
  6  7  1  0
  7  8  1  0
  8  9  2  0
  8 10  2  0
  8 11  1  0
 11 12  2  0
 12 13  1  0
 13 14  2  0
 14 15  1  0
 15 16  2  0
 16 17  1  0
 17 18  1  0
 18 19  1  0
 18 20  2  0
 14 21  1  0
 21 22  2  0
  6 23  1  0
 23 24  2  0
 24  3  1  0
 22 11  1  0
 20 15  1  0
  1 25  1  0
  1 26  1  0
  1 27  1  0
  4 28  1  0
  5 29  1  0
  7 30  1  0
 12 31  1  0
 13 32  1  0
 19 33  1  0
 19 34  1  0
 19 35  1  0
 21 36  1  0
 22 37  1  0
 23 38  1  0
 24 39  1  0
M  END
>  <UniqueID>  (12) 
11

>  <SMILES>  (12) 
COc1ccc(NS(=O)(=O)c2ccc(-c3noc(C)n3)cc2)cc1

>  <Energy>  (12) 
75.21893073458907

>  <Genealogy>  (12) 
COc1ccc(NS(=O)(=O)c2ccc(-c3noc(C)n3)cc2)cc1 (3D coordinates assigned)
COc1ccc(NS(=O)(=O)c2ccc(-c3noc(C)n3)cc2)cc1 (optimized conformer: 75.21893073458907 kcal/mol)

>  <smiles>  (12) 
COc1ccc(NS(=O)(=O)c2ccc(-c3noc(C)n3)cc2)cc1

>  <score_type>  (12) 
oracle

>  <origin>  (12) 
adgpu

>  <m_score__min__energy>  (12) 
-9.1999999999999993

>  <m_primary>  (12) 
energy

$$$$
12:0
     RDKit          3D

 41 44  0  0  0  0  0  0  0  0999 V2000
   -0.5220   25.2500  -28.4100 H   0  0  0  0  0  0  0  0  0  0  0  0
   -1.4470   25.5850  -28.7620 N   0  0  0  0  0  0  0  0  0  0  0  0
   -2.3000   24.7960  -29.3330 C   0  0  0  0  0  0  0  0  0  0  0  0
   -3.4880   25.2900  -29.7670 N   0  0  0  0  0  0  0  0  0  0  0  0
   -4.4080   24.4960  -30.3730 C   0  0  0  0  0  0  0  0  0  0  0  0
   -5.3654   24.9182  -30.7124 H   0  0  0  0  0  0  0  0  0  0  0  0
   -4.1300   23.1320  -30.5640 C   0  0  0  0  0  0  0  0  0  0  0  0
   -5.1050   22.2170  -31.2030 C   0  0  0  0  0  0  0  0  0  0  0  0
   -6.4210   22.1700  -30.7210 C   0  0  0  0  0  0  0  0  0  0  0  0
   -6.7156   22.8149  -29.8800 H   0  0  0  0  0  0  0  0  0  0  0  0
   -7.3600   21.3150  -31.2960 C   0  0  0  0  0  0  0  0  0  0  0  0
   -8.3906   21.3025  -30.9117 H   0  0  0  0  0  0  0  0  0  0  0  0
   -7.0050   20.4670  -32.3630 C   0  0  0  0  0  0  0  0  0  0  0  0
   -8.0210   19.5010  -32.9630 C   0  0  0  0  0  0  0  0  0  0  0  0
   -7.7655   19.6399  -34.0239 H   0  0  0  0  0  0  0  0  0  0  0  0
   -9.4480   19.7140  -32.4620 C   0  0  0  0  0  0  0  0  0  0  0  0
   -9.5487   20.5224  -31.7229 H   0  0  0  0  0  0  0  0  0  0  0  0
  -10.2436   20.0173  -33.1584 H   0  0  0  0  0  0  0  0  0  0  0  0
   -9.4430   18.3160  -31.8580 C   0  0  0  0  0  0  0  0  0  0  0  0
   -9.5382   18.3012  -30.7622 H   0  0  0  0  0  0  0  0  0  0  0  0
  -10.2381   17.5997  -32.1126 H   0  0  0  0  0  0  0  0  0  0  0  0
   -8.0220   18.0950  -32.3600 C   0  0  0  0  0  0  0  0  0  0  0  0
   -7.2805   17.9479  -31.5609 H   0  0  0  0  0  0  0  0  0  0  0  0
   -7.7794   17.2207  -32.9820 H   0  0  0  0  0  0  0  0  0  0  0  0
   -5.6870   20.5340  -32.8720 C   0  0  0  0  0  0  0  0  0  0  0  0
   -5.2850   19.7570  -33.9650 O   0  0  0  0  0  0  0  0  0  0  0  0
   -5.0260   18.3800  -33.8980 C   0  0  0  0  0  0  0  0  0  0  0  0
   -4.8420   17.5870  -35.0470 C   0  0  0  0  0  0  0  0  0  0  0  0
   -4.8966   18.0463  -36.0450 H   0  0  0  0  0  0  0  0  0  0  0  0
   -4.5970   16.2550  -34.9260 N   0  0  0  0  0  0  0  0  0  0  0  0
   -4.5190   15.6510  -33.7100 C   0  0  0  0  0  0  0  0  0  0  0  0
   -4.3240   14.5704  -33.6452 H   0  0  0  0  0  0  0  0  0  0  0  0
   -4.6860   16.4000  -32.5440 C   0  0  0  0  0  0  0  0  0  0  0  0
   -4.6200   15.9165  -31.5582 H   0  0  0  0  0  0  0  0  0  0  0  0
   -4.9380   17.7710  -32.6430 C   0  0  0  0  0  0  0  0  0  0  0  0
   -5.0674   18.3723  -31.7311 H   0  0  0  0  0  0  0  0  0  0  0  0
   -4.7420   21.3790  -32.2750 C   0  0  0  0  0  0  0  0  0  0  0  0
   -3.4640   21.3580  -32.7350 F   0  0  0  0  0  0  0  0  0  0  0  0
   -2.9440   22.6390  -30.1130 N   0  0  0  0  0  0  0  0  0  0  0  0
   -2.0230   23.4330  -29.5070 C   0  0  0  0  0  0  0  0  0  0  0  0
   -1.0697   23.0106  -29.1565 H   0  0  0  0  0  0  0  0  0  0  0  0
  1  2  1  0
  2  3  2  0
  3  4  1  0
  4  5  1  0
  5  6  1  0
  5  7  2  0
  7  8  1  0
  8  9  2  0
  9 10  1  0
  9 11  1  0
 11 12  1  0
 11 13  2  0
 13 14  1  0
 14 15  1  0
 14 16  1  0
 16 17  1  0
 16 18  1  0
 16 19  1  0
 19 20  1  0
 19 21  1  0
 19 22  1  0
 22 23  1  0
 22 24  1  0
 13 25  1  0
 25 26  1  0
 26 27  1  0
 27 28  2  0
 28 29  1  0
 28 30  1  0
 30 31  2  0
 31 32  1  0
 31 33  1  0
 33 34  1  0
 33 35  2  0
 35 36  1  0
 25 37  2  0
 37 38  1  0
  7 39  1  0
 39 40  2  0
 40 41  1  0
 40  3  1  0
 37  8  1  0
 22 14  1  0
 35 27  1  0
M  CHG  1   4  -1
M  END
>  <UniqueID>  (13) 
12

>  <SMILES>  (13) 
[H]/N=c1\cnc(-c2ccc(C3CCC3)c(Oc3cccnc3)c2F)c[n-]1

>  <Energy>  (13) 
123.21289607672871

>  <Genealogy>  (13) 
N=c1cnc(-c2ccc(C3CCC3)c(Oc3cccnc3)c2F)c[n-]1 (protonated)
[H]/N=c1\cnc(-c2ccc(C3CCC3)c(Oc3cccnc3)c2F)c[n-]1 (cis-trans isomerization)
[H]/N=c1\cnc(-c2ccc(C3CCC3)c(Oc3cccnc3)c2F)c[n-]1 (3D coordinates assigned)
[H]/N=c1\cnc(-c2ccc(C3CCC3)c(Oc3cccnc3)c2F)c[n-]1 (nonaromatic ring conformer: 123.21289607672871 kcal/mol)

>  <smiles>  (13) 
N=c1cnc(-c2ccc(C3CCC3)c(Oc3cccnc3)c2F)c[nH]1

>  <score_type>  (13) 
oracle

>  <origin>  (13) 
adgpu

>  <m_score__min__energy>  (13) 
-9.6699999999999999

>  <m_primary>  (13) 
energy

$$$$
13:0
     RDKit          3D

 54 58  0  0  0  0  0  0  0  0999 V2000
   -7.2370   21.2410  -30.1550 H   0  0  0  0  0  0  0  0  0  0  0  0
   -7.7940   20.8010  -30.8780 O   0  0  0  0  0  0  0  0  0  0  0  0
   -7.3150   19.7120  -31.6040 C   0  0  0  0  0  0  0  0  0  0  0  0
   -8.1100   18.5680  -31.7920 C   0  0  0  0  0  0  0  0  0  0  0  0
   -9.1290   18.5363  -31.3790 H   0  0  0  0  0  0  0  0  0  0  0  0
   -7.6100   17.4640  -32.5050 C   0  0  0  0  0  0  0  0  0  0  0  0
   -8.2422   16.5756  -32.6502 H   0  0  0  0  0  0  0  0  0  0  0  0
   -6.3040   17.4880  -33.0350 C   0  0  0  0  0  0  0  0  0  0  0  0
   -5.7550   16.3130  -33.7910 C   0  0  0  0  0  0  0  0  0  0  0  0
   -5.3998   15.5528  -33.0797 H   0  0  0  0  0  0  0  0  0  0  0  0
   -6.5452   15.8824  -34.4236 H   0  0  0  0  0  0  0  0  0  0  0  0
   -4.9177   16.6428  -34.4236 H   0  0  0  0  0  0  0  0  0  0  0  0
   -5.5340   18.6430  -32.8390 C   0  0  0  0  0  0  0  0  0  0  0  0
   -6.0270   19.7230  -32.1550 C   0  0  0  0  0  0  0  0  0  0  0  0
   -5.0660   20.7650  -32.0730 N   0  0  0  0  0  0  0  0  0  0  0  0
   -5.3590   22.1380  -31.7820 C   0  0  0  0  0  0  0  0  0  0  0  0
   -6.4980   22.7320  -32.3460 C   0  0  0  0  0  0  0  0  0  0  0  0
   -7.1623   22.1363  -32.9893 H   0  0  0  0  0  0  0  0  0  0  0  0
   -6.7950   24.0740  -32.0970 C   0  0  0  0  0  0  0  0  0  0  0  0
   -7.6921   24.5290  -32.5423 H   0  0  0  0  0  0  0  0  0  0  0  0
   -5.9560   24.8400  -31.2840 C   0  0  0  0  0  0  0  0  0  0  0  0
   -6.1911   25.8976  -31.0934 H   0  0  0  0  0  0  0  0  0  0  0  0
   -4.8170   24.2630  -30.7120 C   0  0  0  0  0  0  0  0  0  0  0  0
   -4.0070   25.0140  -29.9180 N   0  0  0  0  0  0  0  0  0  0  0  0
   -2.8870   24.5110  -29.3330 C   0  0  0  0  0  0  0  0  0  0  0  0
   -2.1760   25.3000  -28.5770 N   0  0  0  0  0  0  0  0  0  0  0  0
   -0.9220   25.0030  -27.9380 C   0  0  0  0  0  0  0  0  0  0  0  0
    0.0200   24.1750  -28.5690 C   0  0  0  0  0  0  0  0  0  0  0  0
   -0.2189   23.7201  -29.5416 H   0  0  0  0  0  0  0  0  0  0  0  0
    1.2570   23.9240  -27.9730 C   0  0  0  0  0  0  0  0  0  0  0  0
    1.9762   23.2517  -28.4637 H   0  0  0  0  0  0  0  0  0  0  0  0
    1.5850   24.5270  -26.7500 C   0  0  0  0  0  0  0  0  0  0  0  0
    2.8990   24.2260  -26.0900 C   0  0  0  0  0  0  0  0  0  0  0  0
    2.7755   24.2543  -24.9973 H   0  0  0  0  0  0  0  0  0  0  0  0
    3.2417   23.2261  -26.3945 H   0  0  0  0  0  0  0  0  0  0  0  0
    3.6428   24.9770  -26.3945 H   0  0  0  0  0  0  0  0  0  0  0  0
    0.6540   25.3670  -26.1230 C   0  0  0  0  0  0  0  0  0  0  0  0
    0.9016   25.8279  -25.1554 H   0  0  0  0  0  0  0  0  0  0  0  0
   -0.5920   25.6260  -26.7180 C   0  0  0  0  0  0  0  0  0  0  0  0
   -1.5740   26.5390  -26.0400 C   0  0  0  0  0  0  0  0  0  0  0  0
   -1.4709   26.4432  -24.9490 H   0  0  0  0  0  0  0  0  0  0  0  0
   -1.3735   27.5789  -26.3373 H   0  0  0  0  0  0  0  0  0  0  0  0
   -2.5966   26.2634  -26.3373 H   0  0  0  0  0  0  0  0  0  0  0  0
   -2.5630   23.1530  -29.5290 C   0  0  0  0  0  0  0  0  0  0  0  0
   -1.6749   22.7216  -29.0441 H   0  0  0  0  0  0  0  0  0  0  0  0
   -3.3740   22.3580  -30.3410 C   0  0  0  0  0  0  0  0  0  0  0  0
   -3.1214   21.2991  -30.4991 H   0  0  0  0  0  0  0  0  0  0  0  0
   -4.5100   22.9050  -30.9560 C   0  0  0  0  0  0  0  0  0  0  0  0
   -3.8660   20.3510  -32.8010 C   0  0  0  0  0  0  0  0  0  0  0  0
   -3.6910   21.0171  -33.6587 H   0  0  0  0  0  0  0  0  0  0  0  0
   -2.9719   20.3985  -32.1619 H   0  0  0  0  0  0  0  0  0  0  0  0
   -4.1360   18.9090  -33.2880 C   0  0  0  0  0  0  0  0  0  0  0  0
   -4.0559   18.8428  -34.3831 H   0  0  0  0  0  0  0  0  0  0  0  0
   -3.4135   18.1812  -32.8902 H   0  0  0  0  0  0  0  0  0  0  0  0
  1  2  1  0
  2  3  1  0
  3  4  2  0
  4  5  1  0
  4  6  1  0
  6  7  1  0
  6  8  2  0
  8  9  1  0
  9 10  1  0
  9 11  1  0
  9 12  1  0
  8 13  1  0
 13 14  2  0
 14 15  1  0
 15 16  1  0
 16 17  2  0
 17 18  1  0
 17 19  1  0
 19 20  1  0
 19 21  2  0
 21 22  1  0
 21 23  1  0
 23 24  1  0
 24 25  1  0
 25 26  2  0
 26 27  1  0
 27 28  2  0
 28 29  1  0
 28 30  1  0
 30 31  1  0
 30 32  2  0
 32 33  1  0
 33 34  1  0
 33 35  1  0
 33 36  1  0
 32 37  1  0
 37 38  1  0
 37 39  2  0
 39 40  1  0
 40 41  1  0
 40 42  1  0
 40 43  1  0
 25 44  1  0
 44 45  1  0
 44 46  2  0
 46 47  1  0
 46 48  1  0
 15 49  1  0
 49 50  1  0
 49 51  1  0
 49 52  1  0
 52 53  1  0
 52 54  1  0
 14  3  1  0
 48 16  1  0
 52 13  1  0
 48 23  2  0
 39 27  1  0
M  CHG  1  24  -1
M  END
>  <UniqueID>  (14) 
13

>  <SMILES>  (14) 
Cc1ccc(/N=c2\ccc3c(N4CCc5c(C)ccc(O)c54)cccc3[n-]2)c(C)c1

>  <Energy>  (14) 
92.35052475492758

>  <Genealogy>  (14) 
Cc1ccc(N=c2ccc3c(N4CCc5c(C)ccc(O)c54)cccc3[n-]2)c(C)c1 (protonated)
Cc1ccc(/N=c2\ccc3c(N4CCc5c(C)ccc(O)c54)cccc3[n-]2)c(C)c1 (cis-trans isomerization)
Cc1ccc(/N=c2\ccc3c(N4CCc5c(C)ccc(O)c54)cccc3[n-]2)c(C)c1 (3D coordinates assigned)
Cc1ccc(/N=c2\ccc3c(N4CCc5c(C)ccc(O)c54)cccc3[n-]2)c(C)c1 (nonaromatic ring conformer: 92.35052475492758 kcal/mol)

>  <smiles>  (14) 
Cc1ccc(N=c2ccc3c(N4CCc5c(C)ccc(O)c54)cccc3[nH]2)c(C)c1

>  <score_type>  (14) 
oracle

>  <origin>  (14) 
adgpu

>  <m_score__min__energy>  (14) 
-10.73

>  <m_primary>  (14) 
energy

$$$$
14:0
     RDKit          3D

 56 60  0  0  0  0  0  0  0  0999 V2000
    2.2754   17.6037  -30.8139 H   0  0  0  0  0  0  0  0  0  0  0  0
    1.6590   18.4680  -31.1020 C   0  0  0  0  0  0  0  0  0  0  0  0
    1.8470   19.0620  -32.3070 N   0  0  0  0  0  0  0  0  0  0  0  0
    1.1050   20.1290  -32.7150 C   0  0  0  0  0  0  0  0  0  0  0  0
    1.3640   20.7270  -34.0020 N   0  0  0  0  0  0  0  0  0  0  0  0
    0.3260   21.3910  -34.7480 C   0  0  0  0  0  0  0  0  0  0  0  0
    0.4340   22.6210  -35.0040 O   0  0  0  0  0  0  0  0  0  0  0  0
   -0.8470   20.6970  -35.1990 N   0  0  0  0  0  0  0  0  0  0  0  0
   -1.5460   19.6360  -34.5290 C   0  0  0  0  0  0  0  0  0  0  0  0
   -2.6880   19.8820  -33.7430 C   0  0  0  0  0  0  0  0  0  0  0  0
   -3.0627   20.9098  -33.6277 H   0  0  0  0  0  0  0  0  0  0  0  0
   -3.3470   18.8260  -33.1090 C   0  0  0  0  0  0  0  0  0  0  0  0
   -4.2541   19.0214  -32.5182 H   0  0  0  0  0  0  0  0  0  0  0  0
   -2.8580   17.5240  -33.2230 C   0  0  0  0  0  0  0  0  0  0  0  0
   -3.3851   16.6933  -32.7310 H   0  0  0  0  0  0  0  0  0  0  0  0
   -1.6990   17.2760  -33.9620 C   0  0  0  0  0  0  0  0  0  0  0  0
   -1.3063   16.2513  -34.0387 H   0  0  0  0  0  0  0  0  0  0  0  0
   -1.0360   18.3270  -34.6050 C   0  0  0  0  0  0  0  0  0  0  0  0
    0.4470   17.9850  -35.4850 Cl  0  0  0  0  0  0  0  0  0  0  0  0
    2.7460   20.8220  -34.4800 C   0  0  0  0  0  0  0  0  0  0  0  0
    3.4293   20.8690  -33.6192 H   0  0  0  0  0  0  0  0  0  0  0  0
    2.9846   19.9381  -35.0898 H   0  0  0  0  0  0  0  0  0  0  0  0
    2.8615   21.7302  -35.0898 H   0  0  0  0  0  0  0  0  0  0  0  0
    0.1160   20.6460  -31.8580 C   0  0  0  0  0  0  0  0  0  0  0  0
   -0.4829   21.5155  -32.1666 H   0  0  0  0  0  0  0  0  0  0  0  0
   -0.1040   20.0440  -30.6010 C   0  0  0  0  0  0  0  0  0  0  0  0
   -0.9840   20.4910  -29.7470 N   0  0  0  0  0  0  0  0  0  0  0  0
   -1.9480   21.5350  -29.9530 C   0  0  0  0  0  0  0  0  0  0  0  0
   -1.8250   22.7810  -29.2850 C   0  0  0  0  0  0  0  0  0  0  0  0
   -1.0061   22.9363  -28.5672 H   0  0  0  0  0  0  0  0  0  0  0  0
   -2.7420   23.8200  -29.5330 C   0  0  0  0  0  0  0  0  0  0  0  0
   -2.6672   24.7822  -29.0052 H   0  0  0  0  0  0  0  0  0  0  0  0
   -3.7460   23.5890  -30.4680 C   0  0  0  0  0  0  0  0  0  0  0  0
   -4.6990   24.4470  -30.8750 N   0  0  0  0  0  0  0  0  0  0  0  0
   -5.3780   23.7300  -31.8080 C   0  0  0  0  0  0  0  0  0  0  0  0
   -6.2395   24.1258  -32.3659 H   0  0  0  0  0  0  0  0  0  0  0  0
   -4.8880   22.4780  -31.9830 N   0  0  0  0  0  0  0  0  0  0  0  0
   -5.3390   21.4950  -32.9670 C   0  0  0  0  0  0  0  0  0  0  0  0
   -5.5277   21.9997  -33.9260 H   0  0  0  0  0  0  0  0  0  0  0  0
   -4.5599   20.7291  -33.0954 H   0  0  0  0  0  0  0  0  0  0  0  0
   -6.6060   20.8360  -32.4930 C   0  0  0  0  0  0  0  0  0  0  0  0
   -6.7100   19.4330  -32.4800 C   0  0  0  0  0  0  0  0  0  0  0  0
   -5.8745   18.8172  -32.8443 H   0  0  0  0  0  0  0  0  0  0  0  0
   -7.8730   18.8200  -32.0050 C   0  0  0  0  0  0  0  0  0  0  0  0
   -7.9536   17.7230  -32.0034 H   0  0  0  0  0  0  0  0  0  0  0  0
   -8.9340   19.5980  -31.5320 C   0  0  0  0  0  0  0  0  0  0  0  0
   -9.8495   19.1127  -31.1628 H   0  0  0  0  0  0  0  0  0  0  0  0
   -8.8320   20.9930  -31.5280 C   0  0  0  0  0  0  0  0  0  0  0  0
   -9.8570   21.7480  -31.0600 F   0  0  0  0  0  0  0  0  0  0  0  0
   -7.6710   21.6120  -32.0040 C   0  0  0  0  0  0  0  0  0  0  0  0
   -7.5915   22.7091  -31.9955 H   0  0  0  0  0  0  0  0  0  0  0  0
   -3.8500   22.4040  -31.1350 C   0  0  0  0  0  0  0  0  0  0  0  0
   -2.9610   21.3510  -30.9150 C   0  0  0  0  0  0  0  0  0  0  0  0
   -3.0482   20.4079  -31.4745 H   0  0  0  0  0  0  0  0  0  0  0  0
    0.6860   18.9510  -30.2280 C   0  0  0  0  0  0  0  0  0  0  0  0
    0.5398   18.4740  -29.2477 H   0  0  0  0  0  0  0  0  0  0  0  0
  1  2  1  0
  2  3  1  0
  3  4  1  0
  4  5  1  0
  5  6  1  0
  6  7  2  0
  6  8  1  0
  8  9  1  0
  9 10  2  0
 10 11  1  0
 10 12  1  0
 12 13  1  0
 12 14  2  0
 14 15  1  0
 14 16  1  0
 16 17  1  0
 16 18  2  0
 18 19  1  0
  5 20  1  0
 20 21  1  0
 20 22  1  0
 20 23  1  0
  4 24  2  0
 24 25  1  0
 24 26  1  0
 26 27  2  0
 27 28  1  0
 28 29  2  0
 29 30  1  0
 29 31  1  0
 31 32  1  0
 31 33  2  0
 33 34  1  0
 34 35  2  0
 35 36  1  0
 35 37  1  0
 37 38  1  0
 38 39  1  0
 38 40  1  0
 38 41  1  0
 41 42  2  0
 42 43  1  0
 42 44  1  0
 44 45  1  0
 44 46  2  0
 46 47  1  0
 46 48  1  0
 48 49  1  0
 48 50  2  0
 50 51  1  0
 37 52  1  0
 52 53  2  0
 53 54  1  0
 26 55  1  0
 55 56  1  0
 55  2  2  0
 18  9  1  0
 53 28  1  0
 52 33  1  0
 50 41  1  0
M  CHG  2   3  -1   8  -1
M  END
>  <UniqueID>  (15) 
14

>  <SMILES>  (15) 
CN(C(=O)[N-]c1ccccc1Cl)c1c/c(=N\c2ccc3ncn(Cc4cccc(F)c4)c3c2)cc[n-]1

>  <Energy>  (15) 
115.82765991536535

>  <Genealogy>  (15) 
CN(C(=O)[N-]c1ccccc1Cl)c1cc(=Nc2ccc3ncn(Cc4cccc(F)c4)c3c2)cc[n-]1 (protonated)
CN(C(=O)[N-]c1ccccc1Cl)c1c/c(=N\c2ccc3ncn(Cc4cccc(F)c4)c3c2)cc[n-]1 (cis-trans isomerization)
CN(C(=O)[N-]c1ccccc1Cl)c1c/c(=N\c2ccc3ncn(Cc4cccc(F)c4)c3c2)cc[n-]1 (3D coordinates assigned)
CN(C(=O)[N-]c1ccccc1Cl)c1c/c(=N\c2ccc3ncn(Cc4cccc(F)c4)c3c2)cc[n-]1 (optimized conformer: 115.82765991536535 kcal/mol)

>  <smiles>  (15) 
CN(C(=O)Nc1ccccc1Cl)c1cc(=Nc2ccc3ncn(Cc4cccc(F)c4)c3c2)cc[nH]1

>  <score_type>  (15) 
oracle

>  <origin>  (15) 
adgpu

>  <m_score__min__energy>  (15) 
-12.74

>  <m_primary>  (15) 
energy

$$$$
15:0
     RDKit          3D

 41 42  0  0  0  0  0  0  0  0999 V2000
   -9.4550   19.4440  -32.4700 C   0  0  0  0  0  0  0  0  0  0  0  0
   -7.9510   20.3890  -32.3350 S   0  0  0  0  0  0  0  0  0  0  0  0
   -7.0680   19.7610  -31.2940 O   0  0  0  0  0  0  0  0  0  0  0  0
   -7.2380   20.3810  -33.6580 O   0  0  0  0  0  0  0  0  0  0  0  0
   -8.3120   22.0710  -31.8550 C   0  0  0  0  0  0  0  0  0  0  0  0
   -7.0520   22.7940  -31.4670 C   0  0  0  0  0  0  0  0  0  0  0  0
   -7.1020   23.8610  -30.5580 C   0  0  0  0  0  0  0  0  0  0  0  0
   -5.9270   24.5140  -30.1700 C   0  0  0  0  0  0  0  0  0  0  0  0
   -4.6820   24.0880  -30.6670 C   0  0  0  0  0  0  0  0  0  0  0  0
   -3.4550   24.7530  -30.3200 N   0  0  0  0  0  0  0  0  0  0  0  0
   -2.9610   24.9090  -29.1260 C   0  0  0  0  0  0  0  0  0  0  0  0
   -3.5500   24.3440  -28.0370 N   0  0  0  0  0  0  0  0  0  0  0  0
   -3.0200   24.4860  -26.7960 C   0  0  0  0  0  0  0  0  0  0  0  0
   -1.8440   25.2270  -26.6110 C   0  0  0  0  0  0  0  0  0  0  0  0
   -1.2560   25.3820  -25.2590 C   0  0  0  0  0  0  0  0  0  0  0  0
   -0.5250   24.4620  -24.7970 O   0  0  0  0  0  0  0  0  0  0  0  0
   -1.5140   26.5510  -24.4630 N   0  0  0  0  0  0  0  0  0  0  0  0
   -0.8720   26.7740  -23.1690 C   0  0  0  0  0  0  0  0  0  0  0  0
    0.5930   27.1720  -23.3570 C   0  0  0  0  0  0  0  0  0  0  0  0
    1.3320   26.0850  -23.8420 O   0  0  0  0  0  0  0  0  0  0  0  0
   -1.2420   25.7800  -27.7520 C   0  0  0  0  0  0  0  0  0  0  0  0
   -1.8070   25.6080  -28.9740 N   0  0  0  0  0  0  0  0  0  0  0  0
   -4.6390   23.0390  -31.5940 C   0  0  0  0  0  0  0  0  0  0  0  0
   -5.8120   22.3860  -31.9820 C   0  0  0  0  0  0  0  0  0  0  0  0
   -9.8311   19.2077  -31.4637 H   0  0  0  0  0  0  0  0  0  0  0  0
  -10.2091   20.0309  -33.0148 H   0  0  0  0  0  0  0  0  0  0  0  0
   -9.2535   18.5099  -33.0148 H   0  0  0  0  0  0  0  0  0  0  0  0
   -8.7834   22.5945  -32.6998 H   0  0  0  0  0  0  0  0  0  0  0  0
   -8.9913   22.0543  -30.9900 H   0  0  0  0  0  0  0  0  0  0  0  0
   -8.0697   24.1860  -30.1482 H   0  0  0  0  0  0  0  0  0  0  0  0
   -5.9770   25.3639  -29.4735 H   0  0  0  0  0  0  0  0  0  0  0  0
   -3.5146   24.0182  -25.9320 H   0  0  0  0  0  0  0  0  0  0  0  0
   -2.1930   27.2710  -24.7940 H   0  0  0  0  0  0  0  0  0  0  0  0
   -1.4001   27.5792  -22.6373 H   0  0  0  0  0  0  0  0  0  0  0  0
   -0.9146   25.8419  -22.5864 H   0  0  0  0  0  0  0  0  0  0  0  0
    0.6544   28.0025  -24.0756 H   0  0  0  0  0  0  0  0  0  0  0  0
    1.0075   27.4830  -22.3867 H   0  0  0  0  0  0  0  0  0  0  0  0
    0.9480   25.2700  -23.4230 H   0  0  0  0  0  0  0  0  0  0  0  0
   -0.3091   26.3548  -27.6555 H   0  0  0  0  0  0  0  0  0  0  0  0
   -3.6742   22.7266  -32.0201 H   0  0  0  0  0  0  0  0  0  0  0  0
   -5.7631   21.5489  -32.6939 H   0  0  0  0  0  0  0  0  0  0  0  0
  1  2  1  0
  2  3  2  0
  2  4  2  0
  2  5  1  0
  5  6  1  0
  6  7  2  0
  7  8  1  0
  8  9  2  0
  9 10  1  0
 10 11  2  3
 11 12  1  0
 12 13  2  0
 13 14  1  0
 14 15  1  0
 15 16  2  0
 15 17  1  0
 17 18  1  0
 18 19  1  0
 19 20  1  0
 14 21  2  0
 21 22  1  0
  9 23  1  0
 23 24  2  0
 24  6  1  0
 22 11  1  0
  1 25  1  0
  1 26  1  0
  1 27  1  0
  5 28  1  0
  5 29  1  0
  7 30  1  0
  8 31  1  0
 13 32  1  0
 17 33  1  0
 18 34  1  0
 18 35  1  0
 19 36  1  0
 19 37  1  0
 20 38  1  0
 21 39  1  0
 23 40  1  0
 24 41  1  0
M  CHG  1  22  -1
M  END
>  <UniqueID>  (16) 
15

>  <SMILES>  (16) 
CS(=O)(=O)Cc1ccc(N=c2ncc(C(=O)NCCO)c[n-]2)cc1

>  <Energy>  (16) 
38.12218734756887

>  <Genealogy>  (16) 
CS(=O)(=O)Cc1ccc(N=c2ncc(C(=O)NCCO)c[n-]2)cc1 (protonated)
CS(=O)(=O)Cc1ccc(N=c2ncc(C(=O)NCCO)c[n-]2)cc1 (3D coordinates assigned)
CS(=O)(=O)Cc1ccc(N=c2ncc(C(=O)NCCO)c[n-]2)cc1 (optimized conformer: 38.12218734756887 kcal/mol)

>  <smiles>  (16) 
CS(=O)(=O)Cc1ccc(N=c2ncc(C(=O)NCCO)c[nH]2)cc1

>  <score_type>  (16) 
oracle

>  <origin>  (16) 
adgpu

>  <m_score__min__energy>  (16) 
-9.5899999999999999

>  <m_primary>  (16) 
energy

$$$$
16:0
     RDKit          3D

 64 68  0  0  0  0  0  0  0  0999 V2000
   -6.0693   26.2447  -30.8000 H   0  0  0  0  0  0  0  0  0  0  0  0
   -5.7780   25.2030  -30.6000 C   0  0  0  0  0  0  0  0  0  0  0  0
   -4.8240   24.9300  -29.6740 N   0  0  0  0  0  0  0  0  0  0  0  0
   -4.4440   23.6480  -29.4130 C   0  0  0  0  0  0  0  0  0  0  0  0
   -3.5380   23.3840  -28.5180 N   0  0  0  0  0  0  0  0  0  0  0  0
   -2.8190   24.3680  -27.7590 C   0  0  0  0  0  0  0  0  0  0  0  0
   -3.3030   24.7120  -26.4920 C   0  0  0  0  0  0  0  0  0  0  0  0
   -4.2077   24.2223  -26.1026 H   0  0  0  0  0  0  0  0  0  0  0  0
   -2.6480   25.6710  -25.7180 C   0  0  0  0  0  0  0  0  0  0  0  0
   -3.0412   25.9321  -24.7244 H   0  0  0  0  0  0  0  0  0  0  0  0
   -1.4910   26.3050  -26.1980 C   0  0  0  0  0  0  0  0  0  0  0  0
   -0.8040   27.2830  -25.3900 N   0  0  0  0  0  0  0  0  0  0  0  0
   -0.0560   28.3730  -26.0270 C   0  0  0  0  0  0  0  0  0  0  0  0
    0.4435   27.9893  -26.9288 H   0  0  0  0  0  0  0  0  0  0  0  0
   -0.7591   29.1762  -26.2925 H   0  0  0  0  0  0  0  0  0  0  0  0
    1.0040   28.9410  -25.0650 C   0  0  0  0  0  0  0  0  0  0  0  0
    1.7878   29.4405  -25.6534 H   0  0  0  0  0  0  0  0  0  0  0  0
    0.5062   29.6503  -24.3874 H   0  0  0  0  0  0  0  0  0  0  0  0
    1.6250   27.8790  -24.2440 N   0  0  0  0  0  0  0  0  0  0  0  0
    2.4450   26.9650  -25.0590 C   0  0  0  0  0  0  0  0  0  0  0  0
    3.0320   26.3107  -24.3977 H   0  0  0  0  0  0  0  0  0  0  0  0
    1.7890   26.3513  -25.6938 H   0  0  0  0  0  0  0  0  0  0  0  0
    3.1260   27.5508  -25.6938 H   0  0  0  0  0  0  0  0  0  0  0  0
    0.6480   27.1410  -23.4010 C   0  0  0  0  0  0  0  0  0  0  0  0
    0.9576   26.0865  -23.3544 H   0  0  0  0  0  0  0  0  0  0  0  0
    0.6485   27.6251  -22.4133 H   0  0  0  0  0  0  0  0  0  0  0  0
   -0.7990   27.1990  -23.9270 C   0  0  0  0  0  0  0  0  0  0  0  0
   -1.3359   26.2916  -23.6136 H   0  0  0  0  0  0  0  0  0  0  0  0
   -1.2946   28.0905  -23.5152 H   0  0  0  0  0  0  0  0  0  0  0  0
   -0.9820   25.9330  -27.4530 C   0  0  0  0  0  0  0  0  0  0  0  0
   -0.0670   26.4127  -27.8308 H   0  0  0  0  0  0  0  0  0  0  0  0
   -1.6240   24.9580  -28.2320 C   0  0  0  0  0  0  0  0  0  0  0  0
   -1.0220   24.5420  -29.4650 N   0  0  0  0  0  0  0  0  0  0  0  0
   -0.3350   25.1420  -29.9710 H   0  0  0  0  0  0  0  0  0  0  0  0
   -1.3170   23.6540  -29.9260 H   0  0  0  0  0  0  0  0  0  0  0  0
   -5.0340   22.6230  -30.0830 N   0  0  0  0  0  0  0  0  0  0  0  0
   -5.9830   22.8490  -31.0300 C   0  0  0  0  0  0  0  0  0  0  0  0
   -6.6120   21.6980  -31.7060 C   0  0  0  0  0  0  0  0  0  0  0  0
   -6.0710   20.7940  -32.6180 C   0  0  0  0  0  0  0  0  0  0  0  0
   -4.6560   20.6380  -33.0170 C   0  0  0  0  0  0  0  0  0  0  0  0
   -3.7400   21.6920  -32.8580 C   0  0  0  0  0  0  0  0  0  0  0  0
   -4.0823   22.6578  -32.4579 H   0  0  0  0  0  0  0  0  0  0  0  0
   -2.3970   21.5210  -33.2050 C   0  0  0  0  0  0  0  0  0  0  0  0
   -1.6902   22.3556  -33.0870 H   0  0  0  0  0  0  0  0  0  0  0  0
   -1.9450   20.2850  -33.7050 C   0  0  0  0  0  0  0  0  0  0  0  0
   -0.6080   20.0630  -34.0650 O   0  0  0  0  0  0  0  0  0  0  0  0
    0.5050   20.3070  -33.2110 C   0  0  0  0  0  0  0  0  0  0  0  0
    0.1840   20.2366  -32.1612 H   0  0  0  0  0  0  0  0  0  0  0  0
    1.2877   19.5591  -33.4060 H   0  0  0  0  0  0  0  0  0  0  0  0
    0.9030   21.3137  -33.4060 H   0  0  0  0  0  0  0  0  0  0  0  0
   -2.8570   19.2320  -33.8480 C   0  0  0  0  0  0  0  0  0  0  0  0
   -2.5140   18.2624  -34.2382 H   0  0  0  0  0  0  0  0  0  0  0  0
   -4.1990   19.4030  -33.4990 C   0  0  0  0  0  0  0  0  0  0  0  0
   -4.9018   18.5632  -33.6030 H   0  0  0  0  0  0  0  0  0  0  0  0
   -7.0460   19.9770  -33.0640 N   0  0  0  0  0  0  0  0  0  0  0  0
   -8.1670   20.3190  -32.4490 N   0  0  0  0  0  0  0  0  0  0  0  0
   -9.4620   19.7110  -32.7260 C   0  0  0  0  0  0  0  0  0  0  0  0
   -9.9663   19.4742  -31.7775 H   0  0  0  0  0  0  0  0  0  0  0  0
  -10.0803   20.4129  -33.3048 H   0  0  0  0  0  0  0  0  0  0  0  0
   -9.3169   18.7869  -33.3048 H   0  0  0  0  0  0  0  0  0  0  0  0
   -7.9470   21.3580  -31.6250 C   0  0  0  0  0  0  0  0  0  0  0  0
   -8.7011   21.8521  -30.9948 H   0  0  0  0  0  0  0  0  0  0  0  0
   -6.3880   24.1620  -31.2970 C   0  0  0  0  0  0  0  0  0  0  0  0
   -7.1713   24.3677  -32.0414 H   0  0  0  0  0  0  0  0  0  0  0  0
  1  2  1  0
  2  3  1  0
  3  4  1  0
  4  5  2  0
  5  6  1  0
  6  7  2  0
  7  8  1  0
  7  9  1  0
  9 10  1  0
  9 11  2  0
 11 12  1  0
 12 13  1  0
 13 14  1  0
 13 15  1  0
 13 16  1  0
 16 17  1  0
 16 18  1  0
 16 19  1  0
 19 20  1  0
 20 21  1  0
 20 22  1  0
 20 23  1  0
 19 24  1  0
 24 25  1  0
 24 26  1  0
 24 27  1  0
 27 28  1  0
 27 29  1  0
 11 30  1  0
 30 31  1  0
 30 32  2  0
 32 33  1  0
 33 34  1  0
 33 35  1  0
  4 36  1  0
 36 37  2  0
 37 38  1  0
 38 39  1  0
 39 40  1  0
 40 41  2  0
 41 42  1  0
 41 43  1  0
 43 44  1  0
 43 45  2  0
 45 46  1  0
 46 47  1  0
 47 48  1  0
 47 49  1  0
 47 50  1  0
 45 51  1  0
 51 52  1  0
 51 53  2  0
 53 54  1  0
 39 55  2  0
 55 56  1  0
 56 57  1  0
 57 58  1  0
 57 59  1  0
 57 60  1  0
 56 61  1  0
 61 62  1  0
 37 63  1  0
 63 64  1  0
 63  2  2  0
 32  6  1  0
 61 38  2  0
 27 12  1  0
 53 40  1  0
M  CHG  1   3  -1
M  END
>  <UniqueID>  (17) 
16

>  <SMILES>  (17) 
COc1ccc(-c2nn(C)cc2-c2cc[n-]/c(=N\c3ccc(N4CCN(C)CC4)cc3N)n2)cc1

>  <Energy>  (17) 
125.27970321118502

>  <Genealogy>  (17) 
COc1ccc(-c2nn(C)cc2-c2cc[n-]c(=Nc3ccc(N4CCN(C)CC4)cc3N)n2)cc1 (protonated)
COc1ccc(-c2nn(C)cc2-c2cc[n-]/c(=N\c3ccc(N4CCN(C)CC4)cc3N)n2)cc1 (cis-trans isomerization)
COc1ccc(-c2nn(C)cc2-c2cc[n-]/c(=N\c3ccc(N4CCN(C)CC4)cc3N)n2)cc1 (3D coordinates assigned)
COc1ccc(-c2nn(C)cc2-c2cc[n-]/c(=N\c3ccc(N4CCN(C)CC4)cc3N)n2)cc1 (nonaromatic ring conformer: 125.27970321118502 kcal/mol)

>  <smiles>  (17) 
COc1ccc(-c2nn(C)cc2-c2cc[nH]c(=Nc3ccc(N4CCN(C)CC4)cc3N)n2)cc1

>  <score_type>  (17) 
oracle

>  <origin>  (17) 
adgpu

>  <m_score__min__energy>  (17) 
-10.039999999999999

>  <m_primary>  (17) 
energy

$$$$
17:0
     RDKit          3D

 68 72  0  0  0  0  0  0  0  0999 V2000
   -2.4590   24.3570  -30.9190 H   0  0  0  0  0  0  0  0  0  0  0  0
   -3.4890   24.5060  -30.8470 N   0  0  0  0  0  0  0  0  0  0  0  0
   -4.3760   23.6030  -31.1370 C   0  0  0  0  0  0  0  0  0  0  0  0
   -5.6880   23.9030  -30.9480 N   0  0  0  0  0  0  0  0  0  0  0  0
   -6.6810   23.0050  -31.1780 C   0  0  0  0  0  0  0  0  0  0  0  0
   -7.7296   23.2974  -31.0198 H   0  0  0  0  0  0  0  0  0  0  0  0
   -6.3780   21.7070  -31.6160 C   0  0  0  0  0  0  0  0  0  0  0  0
   -7.4560   20.7170  -31.8680 C   0  0  0  0  0  0  0  0  0  0  0  0
   -7.1850   19.3350  -31.8200 C   0  0  0  0  0  0  0  0  0  0  0  0
   -6.1671   18.9857  -31.5920 H   0  0  0  0  0  0  0  0  0  0  0  0
   -8.2000   18.4050  -32.0600 C   0  0  0  0  0  0  0  0  0  0  0  0
   -7.9782   17.3284  -32.0197 H   0  0  0  0  0  0  0  0  0  0  0  0
   -9.4960   18.8390  -32.3510 C   0  0  0  0  0  0  0  0  0  0  0  0
  -10.2935   18.1052  -32.5396 H   0  0  0  0  0  0  0  0  0  0  0  0
   -9.7770   20.2070  -32.4020 C   0  0  0  0  0  0  0  0  0  0  0  0
  -10.7969   20.5491  -32.6317 H   0  0  0  0  0  0  0  0  0  0  0  0
   -8.7660   21.1420  -32.1620 C   0  0  0  0  0  0  0  0  0  0  0  0
   -8.9952   22.2171  -32.2031 H   0  0  0  0  0  0  0  0  0  0  0  0
   -5.0300   21.3720  -31.8210 C   0  0  0  0  0  0  0  0  0  0  0  0
   -4.7657   20.3559  -32.1492 H   0  0  0  0  0  0  0  0  0  0  0  0
   -4.0180   22.3180  -31.6120 C   0  0  0  0  0  0  0  0  0  0  0  0
   -2.6260   21.9330  -31.9240 C   0  0  0  0  0  0  0  0  0  0  0  0
   -1.5830   21.7050  -31.0400 C   0  0  0  0  0  0  0  0  0  0  0  0
   -1.6010   21.8370  -29.5670 C   0  0  0  0  0  0  0  0  0  0  0  0
   -1.1770   20.7860  -28.7380 C   0  0  0  0  0  0  0  0  0  0  0  0
   -0.8582   19.8322  -29.1836 H   0  0  0  0  0  0  0  0  0  0  0  0
   -1.1580   20.9450  -27.3530 C   0  0  0  0  0  0  0  0  0  0  0  0
   -0.8234   20.1171  -26.7107 H   0  0  0  0  0  0  0  0  0  0  0  0
   -1.5620   22.1510  -26.7790 C   0  0  0  0  0  0  0  0  0  0  0  0
   -1.5379   22.2723  -25.6860 H   0  0  0  0  0  0  0  0  0  0  0  0
   -1.9990   23.2100  -27.5900 C   0  0  0  0  0  0  0  0  0  0  0  0
   -2.4030   24.5030  -26.9920 C   0  0  0  0  0  0  0  0  0  0  0  0
   -3.5390   24.5980  -26.4510 O   0  0  0  0  0  0  0  0  0  0  0  0
   -1.5280   25.6520  -27.0190 N   0  0  0  0  0  0  0  0  0  0  0  0
   -1.0450   26.2370  -25.7930 C   0  0  0  0  0  0  0  0  0  0  0  0
   -0.9590   25.4650  -24.6200 C   0  0  0  0  0  0  0  0  0  0  0  0
   -1.2412   24.4020  -24.6418 H   0  0  0  0  0  0  0  0  0  0  0  0
   -0.5160   26.0440  -23.4260 C   0  0  0  0  0  0  0  0  0  0  0  0
   -0.4543   25.4370  -22.5107 H   0  0  0  0  0  0  0  0  0  0  0  0
   -0.1520   27.3920  -23.3950 C   0  0  0  0  0  0  0  0  0  0  0  0
    0.1975   27.8449  -22.4555 H   0  0  0  0  0  0  0  0  0  0  0  0
   -0.2310   28.1660  -24.5550 C   0  0  0  0  0  0  0  0  0  0  0  0
    0.0559   29.2276  -24.5279 H   0  0  0  0  0  0  0  0  0  0  0  0
   -0.6750   27.5920  -25.7520 C   0  0  0  0  0  0  0  0  0  0  0  0
   -0.7345   28.2040  -26.6641 H   0  0  0  0  0  0  0  0  0  0  0  0
   -0.9090   26.0420  -28.2890 C   0  0  0  0  0  0  0  0  0  0  0  0
    0.0062   26.6186  -28.0890 H   0  0  0  0  0  0  0  0  0  0  0  0
   -0.6555   25.1402  -28.8656 H   0  0  0  0  0  0  0  0  0  0  0  0
   -1.6131   26.6599  -28.8656 H   0  0  0  0  0  0  0  0  0  0  0  0
   -2.0390   23.0370  -28.9820 C   0  0  0  0  0  0  0  0  0  0  0  0
   -2.4168   23.8486  -29.6212 H   0  0  0  0  0  0  0  0  0  0  0  0
   -0.4930   21.3180  -31.7340 N   0  0  0  0  0  0  0  0  0  0  0  0
   -0.8870   21.3450  -33.0290 C   0  0  0  0  0  0  0  0  0  0  0  0
    0.0110   20.9710  -34.1940 C   0  0  0  0  0  0  0  0  0  0  0  0
    1.4320   20.6890  -33.6700 C   0  0  0  0  0  0  0  0  0  0  0  0
    1.4242   20.6905  -32.5700 H   0  0  0  0  0  0  0  0  0  0  0  0
    1.7684   19.7066  -34.0329 H   0  0  0  0  0  0  0  0  0  0  0  0
    2.1180   21.4685  -34.0329 H   0  0  0  0  0  0  0  0  0  0  0  0
    0.0530   22.1390  -35.1980 C   0  0  0  0  0  0  0  0  0  0  0  0
    0.0873   23.0923  -34.6502 H   0  0  0  0  0  0  0  0  0  0  0  0
    0.9484   22.0470  -35.8303 H   0  0  0  0  0  0  0  0  0  0  0  0
   -0.8467   22.1116  -35.8303 H   0  0  0  0  0  0  0  0  0  0  0  0
   -0.5170   19.7110  -34.9110 C   0  0  0  0  0  0  0  0  0  0  0  0
   -0.8287   18.9671  -34.1631 H   0  0  0  0  0  0  0  0  0  0  0  0
   -1.3777   19.9809  -35.5405 H   0  0  0  0  0  0  0  0  0  0  0  0
    0.2790   19.2867  -35.5405 H   0  0  0  0  0  0  0  0  0  0  0  0
   -2.1750   21.7230  -33.1710 N   0  0  0  0  0  0  0  0  0  0  0  0
   -2.7210   21.8030  -34.0590 H   0  0  0  0  0  0  0  0  0  0  0  0
  1  2  1  0
  2  3  2  0
  3  4  1  0
  4  5  1  0
  5  6  1  0
  5  7  2  0
  7  8  1  0
  8  9  2  0
  9 10  1  0
  9 11  1  0
 11 12  1  0
 11 13  2  0
 13 14  1  0
 13 15  1  0
 15 16  1  0
 15 17  2  0
 17 18  1  0
  7 19  1  0
 19 20  1  0
 19 21  2  0
 21 22  1  0
 22 23  2  0
 23 24  1  0
 24 25  2  0
 25 26  1  0
 25 27  1  0
 27 28  1  0
 27 29  2  0
 29 30  1  0
 29 31  1  0
 31 32  1  0
 32 33  2  0
 32 34  1  0
 34 35  1  0
 35 36  2  0
 36 37  1  0
 36 38  1  0
 38 39  1  0
 38 40  2  0
 40 41  1  0
 40 42  1  0
 42 43  1  0
 42 44  2  0
 44 45  1  0
 34 46  1  0
 46 47  1  0
 46 48  1  0
 46 49  1  0
 31 50  2  0
 50 51  1  0
 23 52  1  0
 52 53  2  0
 53 54  1  0
 54 55  1  0
 55 56  1  0
 55 57  1  0
 55 58  1  0
 54 59  1  0
 59 60  1  0
 59 61  1  0
 59 62  1  0
 54 63  1  0
 63 64  1  0
 63 65  1  0
 63 66  1  0
 53 67  1  0
 67 68  1  0
 21  3  1  0
 67 22  1  0
 17  8  1  0
 50 24  1  0
 44 35  1  0
M  CHG  1   4  -1
M  END
>  <UniqueID>  (18) 
17

>  <SMILES>  (18) 
[H]/N=c1/[n-]cc(-c2ccccc2)cc1-c1[nH]c(C(C)(C)C)nc1-c1cccc(C(=O)N(C)c2ccccc2)c1

>  <Energy>  (18) 
123.85660008378969

>  <Genealogy>  (18) 
CN(C(=O)c1cccc(-c2nc(C(C)(C)C)[nH]c2-c2cc(-c3ccccc3)c[n-]c2=N)c1)c1ccccc1 (protonated)
[H]/N=c1/[n-]cc(-c2ccccc2)cc1-c1[nH]c(C(C)(C)C)nc1-c1cccc(C(=O)N(C)c2ccccc2)c1 (cis-trans isomerization)
[H]/N=c1/[n-]cc(-c2ccccc2)cc1-c1[nH]c(C(C)(C)C)nc1-c1cccc(C(=O)N(C)c2ccccc2)c1 (3D coordinates assigned)
[H]/N=c1/[n-]cc(-c2ccccc2)cc1-c1[nH]c(C(C)(C)C)nc1-c1cccc(C(=O)N(C)c2ccccc2)c1 (optimized conformer: 123.85660008378969 kcal/mol)

>  <smiles>  (18) 
CN(C(=O)c1cccc(-c2nc(C(C)(C)C)[nH]c2-c2cc(-c3ccccc3)c[nH]c2=N)c1)c1ccccc1

>  <score_type>  (18) 
oracle

>  <origin>  (18) 
adgpu

>  <m_score__min__energy>  (18) 
-12.609999999999999

>  <m_primary>  (18) 
energy

$$$$
18:0
     RDKit          3D

 42 43  0  0  0  0  0  0  0  0999 V2000
   -4.2530   24.4740  -27.3580 C   0  0  0  0  0  0  0  0  0  0  0  0
   -3.9700   23.5660  -28.4750 N   0  0  0  0  0  0  0  0  0  0  0  0
   -2.5190   23.4450  -28.6760 C   0  0  0  0  0  0  0  0  0  0  0  0
   -4.7190   24.1680  -29.9340 S   0  0  0  0  0  0  0  0  0  0  0  0
   -3.8890   25.2890  -30.4970 O   0  0  0  0  0  0  0  0  0  0  0  0
   -6.0790   24.7200  -29.6060 O   0  0  0  0  0  0  0  0  0  0  0  0
   -4.8840   22.9000  -31.1510 C   0  0  0  0  0  0  0  0  0  0  0  0
   -6.1430   22.3580  -31.4390 C   0  0  0  0  0  0  0  0  0  0  0  0
   -6.2730   21.3610  -32.4070 C   0  0  0  0  0  0  0  0  0  0  0  0
   -5.1450   20.8900  -33.0840 C   0  0  0  0  0  0  0  0  0  0  0  0
   -3.8750   21.4000  -32.7860 C   0  0  0  0  0  0  0  0  0  0  0  0
   -2.7320   20.9070  -33.5060 N   0  0  0  0  0  0  0  0  0  0  0  0
   -2.1470   19.6100  -33.2930 C   0  0  0  0  0  0  0  0  0  0  0  0
   -2.5930   18.8450  -32.3960 O   0  0  0  0  0  0  0  0  0  0  0  0
   -1.0280   19.1730  -34.0730 N   0  0  0  0  0  0  0  0  0  0  0  0
   -0.0060   20.0180  -34.6190 C   0  0  0  0  0  0  0  0  0  0  0  0
    1.2930   20.0440  -34.0800 C   0  0  0  0  0  0  0  0  0  0  0  0
    2.2590   20.9020  -34.6140 C   0  0  0  0  0  0  0  0  0  0  0  0
    1.9340   21.7590  -35.6730 C   0  0  0  0  0  0  0  0  0  0  0  0
    3.1570   22.8280  -36.3530 S   0  0  0  0  0  0  0  0  0  0  0  0
    4.0260   21.9970  -37.5940 N   0  0  0  0  0  0  0  0  0  0  0  0
    2.5020   24.0490  -36.9340 O   0  0  0  0  0  0  0  0  0  0  0  0
    4.1110   23.2600  -35.2730 O   0  0  0  0  0  0  0  0  0  0  0  0
    0.6340   21.7490  -36.1970 C   0  0  0  0  0  0  0  0  0  0  0  0
   -0.3320   20.8900  -35.6630 C   0  0  0  0  0  0  0  0  0  0  0  0
   -3.7530   22.4270  -31.8310 C   0  0  0  0  0  0  0  0  0  0  0  0
   -4.0888   23.9471  -26.4065 H   0  0  0  0  0  0  0  0  0  0  0  0
   -3.5837   25.3451  -27.4150 H   0  0  0  0  0  0  0  0  0  0  0  0
   -5.2987   24.8106  -27.4150 H   0  0  0  0  0  0  0  0  0  0  0  0
   -2.0157   23.4030  -27.6988 H   0  0  0  0  0  0  0  0  0  0  0  0
   -2.3023   22.5257  -29.2398 H   0  0  0  0  0  0  0  0  0  0  0  0
   -2.1531   24.3157  -29.2398 H   0  0  0  0  0  0  0  0  0  0  0  0
   -7.0318   22.7191  -30.9008 H   0  0  0  0  0  0  0  0  0  0  0  0
   -7.2650   20.9453  -32.6374 H   0  0  0  0  0  0  0  0  0  0  0  0
   -5.2551   20.1139  -33.8557 H   0  0  0  0  0  0  0  0  0  0  0  0
   -2.3580   21.5050  -34.2750 H   0  0  0  0  0  0  0  0  0  0  0  0
    1.5496   19.3872  -33.2357 H   0  0  0  0  0  0  0  0  0  0  0  0
    3.2784   20.9040  -34.2008 H   0  0  0  0  0  0  0  0  0  0  0  0
    3.4550   21.1630  -37.8590 H   0  0  0  0  0  0  0  0  0  0  0  0
    0.3729   22.4182  -37.0301 H   0  0  0  0  0  0  0  0  0  0  0  0
   -1.3552   20.9002  -36.0668 H   0  0  0  0  0  0  0  0  0  0  0  0
   -2.7650   22.8607  -31.6172 H   0  0  0  0  0  0  0  0  0  0  0  0
  1  2  1  0
  2  3  1  0
  2  4  1  0
  4  5  2  0
  4  6  2  0
  4  7  1  0
  7  8  2  0
  8  9  1  0
  9 10  2  0
 10 11  1  0
 11 12  1  0
 12 13  1  0
 13 14  2  0
 13 15  1  0
 15 16  1  0
 16 17  2  0
 17 18  1  0
 18 19  2  0
 19 20  1  0
 20 21  1  0
 20 22  2  0
 20 23  2  0
 19 24  1  0
 24 25  2  0
 11 26  2  0
 26  7  1  0
 25 16  1  0
  1 27  1  0
  1 28  1  0
  1 29  1  0
  3 30  1  0
  3 31  1  0
  3 32  1  0
  8 33  1  0
  9 34  1  0
 10 35  1  0
 12 36  1  0
 17 37  1  0
 18 38  1  0
 21 39  1  0
 24 40  1  0
 25 41  1  0
 26 42  1  0
M  CHG  2  15  -1  21  -1
M  END
>  <UniqueID>  (19) 
18

>  <SMILES>  (19) 
CN(C)S(=O)(=O)c1cccc(NC(=O)[N-]c2ccc(S([NH-])(=O)=O)cc2)c1

>  <Energy>  (19) 
47.460382526843915

>  <Genealogy>  (19) 
CN(C)S(=O)(=O)c1cccc(NC(=O)[N-]c2ccc(S([NH-])(=O)=O)cc2)c1 (protonated)
CN(C)S(=O)(=O)c1cccc(NC(=O)[N-]c2ccc(S([NH-])(=O)=O)cc2)c1 (3D coordinates assigned)
CN(C)S(=O)(=O)c1cccc(NC(=O)[N-]c2ccc(S([NH-])(=O)=O)cc2)c1 (optimized conformer: 47.460382526843915 kcal/mol)

>  <smiles>  (19) 
CN(C)S(=O)(=O)c1cccc(NC(=O)Nc2ccc(S(N)(=O)=O)cc2)c1

>  <score_type>  (19) 
oracle

>  <origin>  (19) 
adgpu

>  <m_score__min__energy>  (19) 
-9.9600000000000009

>  <m_primary>  (19) 
energy

$$$$
19:0
     RDKit          3D

 45 49  0  0  0  0  0  0  0  0999 V2000
    2.0780   29.0040  -21.5790 C   0  0  0  0  0  0  0  0  0  0  0  0
    1.3870   29.3620  -22.7710 O   0  0  0  0  0  0  0  0  0  0  0  0
    1.0280   28.4570  -23.7810 C   0  0  0  0  0  0  0  0  0  0  0  0
    1.3850   27.0970  -23.7360 C   0  0  0  0  0  0  0  0  0  0  0  0
    1.0010   26.2340  -24.7680 C   0  0  0  0  0  0  0  0  0  0  0  0
    0.2580   26.7130  -25.8580 C   0  0  0  0  0  0  0  0  0  0  0  0
   -0.1490   25.8080  -26.9500 C   0  0  0  0  0  0  0  0  0  0  0  0
    0.7020   25.2300  -27.8200 N   0  0  0  0  0  0  0  0  0  0  0  0
   -0.0390   24.4980  -28.6370 N   0  0  0  0  0  0  0  0  0  0  0  0
   -1.3160   24.6560  -28.2370 C   0  0  0  0  0  0  0  0  0  0  0  0
   -2.4790   24.0130  -28.8760 C   0  0  0  0  0  0  0  0  0  0  0  0
   -2.2980   23.1590  -29.9750 C   0  0  0  0  0  0  0  0  0  0  0  0
   -3.3970   22.5460  -30.5840 C   0  0  0  0  0  0  0  0  0  0  0  0
   -4.7000   22.7740  -30.1060 C   0  0  0  0  0  0  0  0  0  0  0  0
   -5.8660   22.1230  -30.7540 C   0  0  0  0  0  0  0  0  0  0  0  0
   -5.8100   21.0070  -31.5950 C   0  0  0  0  0  0  0  0  0  0  0  0
   -7.1160   20.7590  -31.9530 C   0  0  0  0  0  0  0  0  0  0  0  0
   -7.6590   19.7720  -32.7720 C   0  0  0  0  0  0  0  0  0  0  0  0
   -9.0540   19.7710  -32.9600 C   0  0  0  0  0  0  0  0  0  0  0  0
   -9.8610   20.7440  -32.3310 C   0  0  0  0  0  0  0  0  0  0  0  0
   -9.2820   21.7270  -31.5080 C   0  0  0  0  0  0  0  0  0  0  0  0
   -7.8970   21.7020  -31.3400 C   0  0  0  0  0  0  0  0  0  0  0  0
   -7.1500   22.5410  -30.6050 N   0  0  0  0  0  0  0  0  0  0  0  0
   -4.8770   23.6320  -29.0060 C   0  0  0  0  0  0  0  0  0  0  0  0
   -3.7780   24.2440  -28.3970 C   0  0  0  0  0  0  0  0  0  0  0  0
   -1.3880   25.4590  -27.2010 O   0  0  0  0  0  0  0  0  0  0  0  0
   -0.0960   28.0710  -25.8990 C   0  0  0  0  0  0  0  0  0  0  0  0
    0.2870   28.9340  -24.8680 C   0  0  0  0  0  0  0  0  0  0  0  0
    1.4849   29.3113  -20.7050 H   0  0  0  0  0  0  0  0  0  0  0  0
    2.2284   27.9146  -21.5555 H   0  0  0  0  0  0  0  0  0  0  0  0
    3.0547   29.5095  -21.5555 H   0  0  0  0  0  0  0  0  0  0  0  0
    1.9679   26.7109  -22.8868 H   0  0  0  0  0  0  0  0  0  0  0  0
    1.2836   25.1718  -24.7248 H   0  0  0  0  0  0  0  0  0  0  0  0
   -1.2848   22.9708  -30.3597 H   0  0  0  0  0  0  0  0  0  0  0  0
   -3.2412   21.8792  -31.4449 H   0  0  0  0  0  0  0  0  0  0  0  0
   -4.9147   20.4475  -31.9041 H   0  0  0  0  0  0  0  0  0  0  0  0
   -7.0195   19.0189  -33.2555 H   0  0  0  0  0  0  0  0  0  0  0  0
   -9.5184   19.0073  -33.6011 H   0  0  0  0  0  0  0  0  0  0  0  0
  -10.9500   20.7333  -32.4856 H   0  0  0  0  0  0  0  0  0  0  0  0
   -9.9006   22.4902  -31.0132 H   0  0  0  0  0  0  0  0  0  0  0  0
   -7.4980   23.3580  -30.0560 H   0  0  0  0  0  0  0  0  0  0  0  0
   -5.8897   23.8232  -28.6214 H   0  0  0  0  0  0  0  0  0  0  0  0
   -3.9321   24.9114  -27.5363 H   0  0  0  0  0  0  0  0  0  0  0  0
   -0.6785   28.4585  -26.7479 H   0  0  0  0  0  0  0  0  0  0  0  0
    0.0037   29.9960  -24.9116 H   0  0  0  0  0  0  0  0  0  0  0  0
  1  2  1  0
  2  3  1  0
  3  4  2  0
  4  5  1  0
  5  6  2  0
  6  7  1  0
  7  8  2  0
  8  9  1  0
  9 10  2  0
 10 11  1  0
 11 12  2  0
 12 13  1  0
 13 14  2  0
 14 15  1  0
 15 16  2  0
 16 17  1  0
 17 18  2  0
 18 19  1  0
 19 20  2  0
 20 21  1  0
 21 22  2  0
 22 23  1  0
 14 24  1  0
 24 25  2  0
 10 26  1  0
  6 27  1  0
 27 28  2  0
 28  3  1  0
 26  7  1  0
 25 11  1  0
 23 15  1  0
 22 17  1  0
  1 29  1  0
  1 30  1  0
  1 31  1  0
  4 32  1  0
  5 33  1  0
 12 34  1  0
 13 35  1  0
 16 36  1  0
 18 37  1  0
 19 38  1  0
 20 39  1  0
 21 40  1  0
 23 41  1  0
 24 42  1  0
 25 43  1  0
 27 44  1  0
 28 45  1  0
M  END
>  <UniqueID>  (20) 
19

>  <SMILES>  (20) 
COc1ccc(-c2nnc(-c3ccc(-c4cc5ccccc5[nH]4)cc3)o2)cc1

>  <Energy>  (20) 
121.20578299011189

>  <Genealogy>  (20) 
COc1ccc(-c2nnc(-c3ccc(-c4cc5ccccc5[nH]4)cc3)o2)cc1 (3D coordinates assigned)
COc1ccc(-c2nnc(-c3ccc(-c4cc5ccccc5[nH]4)cc3)o2)cc1 (optimized conformer: 121.20578299011189 kcal/mol)

>  <smiles>  (20) 
COc1ccc(-c2nnc(-c3ccc(-c4cc5ccccc5[nH]4)cc3)o2)cc1

>  <score_type>  (20) 
oracle

>  <origin>  (20) 
adgpu

>  <m_score__min__energy>  (20) 
-8.3100000000000005

>  <m_primary>  (20) 
energy

$$$$
20:0
     RDKit          3D

 60 63  0  0  0  0  0  0  0  0999 V2000
   -6.9040   16.9740  -33.4170 C   0  0  0  0  0  0  0  0  0  0  0  0
   -7.4730   17.8590  -32.3860 N   0  0  0  0  0  0  0  0  0  0  0  0
   -6.5660   17.9160  -31.2290 C   0  0  0  0  0  0  0  0  0  0  0  0
   -7.7180   19.2190  -32.9190 C   0  0  0  0  0  0  0  0  0  0  0  0
   -9.0910   19.7530  -32.4780 C   0  0  0  0  0  0  0  0  0  0  0  0
   -9.0270   20.5530  -31.1690 C   0  0  0  0  0  0  0  0  0  0  0  0
   -8.8550   21.9470  -31.4100 O   0  0  0  0  0  0  0  0  0  0  0  0
   -7.6020   22.5570  -31.5130 C   0  0  0  0  0  0  0  0  0  0  0  0
   -7.2480   23.7320  -30.8900 C   0  0  0  0  0  0  0  0  0  0  0  0
   -5.9500   23.9500  -31.3060 C   0  0  0  0  0  0  0  0  0  0  0  0
   -5.1080   25.0720  -30.8480 C   0  0  0  0  0  0  0  0  0  0  0  0
   -5.6110   26.2240  -30.7950 O   0  0  0  0  0  0  0  0  0  0  0  0
   -3.7400   24.8990  -30.4570 N   0  0  0  0  0  0  0  0  0  0  0  0
   -3.1640   23.7430  -29.8330 C   0  0  0  0  0  0  0  0  0  0  0  0
   -3.9710   22.9570  -29.0040 C   0  0  0  0  0  0  0  0  0  0  0  0
   -3.4570   21.8110  -28.3920 C   0  0  0  0  0  0  0  0  0  0  0  0
   -2.1160   21.4350  -28.5930 C   0  0  0  0  0  0  0  0  0  0  0  0
   -1.5940   20.1780  -28.0020 C   0  0  0  0  0  0  0  0  0  0  0  0
   -0.4340   19.5000  -28.3740 C   0  0  0  0  0  0  0  0  0  0  0  0
   -0.2190   18.3190  -27.6530 C   0  0  0  0  0  0  0  0  0  0  0  0
   -1.2010   18.0510  -26.7110 C   0  0  0  0  0  0  0  0  0  0  0  0
   -2.3390   19.2840  -26.7810 S   0  0  0  0  0  0  0  0  0  0  0  0
   -1.2920   22.2610  -29.3780 C   0  0  0  0  0  0  0  0  0  0  0  0
   -1.8080   23.4100  -29.9840 C   0  0  0  0  0  0  0  0  0  0  0  0
   -5.5720   22.9320  -32.1190 N   0  0  0  0  0  0  0  0  0  0  0  0
   -4.2410   22.6700  -32.6750 C   0  0  0  0  0  0  0  0  0  0  0  0
   -3.9180   21.1940  -32.7500 C   0  0  0  0  0  0  0  0  0  0  0  0
   -2.7550   20.6510  -32.1680 C   0  0  0  0  0  0  0  0  0  0  0  0
   -2.4660   19.2890  -32.2970 C   0  0  0  0  0  0  0  0  0  0  0  0
   -3.3130   18.4600  -33.0350 C   0  0  0  0  0  0  0  0  0  0  0  0
   -4.4480   18.9930  -33.6500 C   0  0  0  0  0  0  0  0  0  0  0  0
   -4.7460   20.3530  -33.5140 C   0  0  0  0  0  0  0  0  0  0  0  0
   -6.5750   22.0760  -32.2370 N   0  0  0  0  0  0  0  0  0  0  0  0
   -6.3698   16.1432  -32.9329 H   0  0  0  0  0  0  0  0  0  0  0  0
   -7.7141   16.5733  -34.0440 H   0  0  0  0  0  0  0  0  0  0  0  0
   -6.2032   17.5447  -34.0440 H   0  0  0  0  0  0  0  0  0  0  0  0
   -7.1539   17.8791  -30.3000 H   0  0  0  0  0  0  0  0  0  0  0  0
   -5.8766   17.0594  -31.2610 H   0  0  0  0  0  0  0  0  0  0  0  0
   -5.9893   18.8522  -31.2610 H   0  0  0  0  0  0  0  0  0  0  0  0
   -6.9343   19.8958  -32.5480 H   0  0  0  0  0  0  0  0  0  0  0  0
   -7.7013   19.1695  -34.0178 H   0  0  0  0  0  0  0  0  0  0  0  0
   -9.4846   20.4067  -33.2703 H   0  0  0  0  0  0  0  0  0  0  0  0
   -9.7431   18.8845  -32.3033 H   0  0  0  0  0  0  0  0  0  0  0  0
   -9.9633   20.4006  -30.6121 H   0  0  0  0  0  0  0  0  0  0  0  0
   -8.1616   20.1960  -30.5914 H   0  0  0  0  0  0  0  0  0  0  0  0
   -7.8576   24.3530  -30.2171 H   0  0  0  0  0  0  0  0  0  0  0  0
   -5.0191   23.2435  -28.8324 H   0  0  0  0  0  0  0  0  0  0  0  0
   -4.1053   21.1982  -27.7484 H   0  0  0  0  0  0  0  0  0  0  0  0
    0.2476   19.8587  -29.1593 H   0  0  0  0  0  0  0  0  0  0  0  0
    0.6491   17.6640  -27.8186 H   0  0  0  0  0  0  0  0  0  0  0  0
   -1.2295   17.1828  -26.0362 H   0  0  0  0  0  0  0  0  0  0  0  0
   -0.2322   22.0006  -29.5163 H   0  0  0  0  0  0  0  0  0  0  0  0
   -1.1489   24.0565  -30.5820 H   0  0  0  0  0  0  0  0  0  0  0  0
   -4.1945   23.0921  -33.6897 H   0  0  0  0  0  0  0  0  0  0  0  0
   -3.5041   23.1370  -32.0051 H   0  0  0  0  0  0  0  0  0  0  0  0
   -2.0693   21.3037  -31.6079 H   0  0  0  0  0  0  0  0  0  0  0  0
   -1.5698   18.8700  -31.8162 H   0  0  0  0  0  0  0  0  0  0  0  0
   -3.0866   17.3879  -33.1320 H   0  0  0  0  0  0  0  0  0  0  0  0
   -5.1085   18.3425  -34.2421 H   0  0  0  0  0  0  0  0  0  0  0  0
   -5.6362   20.7681  -34.0093 H   0  0  0  0  0  0  0  0  0  0  0  0
  1  2  1  0
  2  3  1  0
  2  4  1  0
  4  5  1  0
  5  6  1  0
  6  7  1  0
  7  8  1  0
  8  9  1  0
  9 10  2  0
 10 11  1  0
 11 12  2  0
 11 13  1  0
 13 14  1  0
 14 15  2  0
 15 16  1  0
 16 17  2  0
 17 18  1  0
 18 19  2  0
 19 20  1  0
 20 21  2  0
 21 22  1  0
 17 23  1  0
 23 24  2  0
 10 25  1  0
 25 26  1  0
 26 27  1  0
 27 28  2  0
 28 29  1  0
 29 30  2  0
 30 31  1  0
 31 32  2  0
 25 33  1  0
 33  8  2  0
 24 14  1  0
 32 27  1  0
 22 18  1  0
  1 34  1  0
  1 35  1  0
  1 36  1  0
  3 37  1  0
  3 38  1  0
  3 39  1  0
  4 40  1  0
  4 41  1  0
  5 42  1  0
  5 43  1  0
  6 44  1  0
  6 45  1  0
  9 46  1  0
 15 47  1  0
 16 48  1  0
 19 49  1  0
 20 50  1  0
 21 51  1  0
 23 52  1  0
 24 53  1  0
 26 54  1  0
 26 55  1  0
 28 56  1  0
 29 57  1  0
 30 58  1  0
 31 59  1  0
 32 60  1  0
M  CHG  1  13  -1
M  END
>  <UniqueID>  (21) 
20

>  <SMILES>  (21) 
CN(C)CCCOc1cc(C(=O)[N-]c2ccc(-c3cccs3)cc2)n(Cc2ccccc2)n1

>  <Energy>  (21) 
118.57810564088368

>  <Genealogy>  (21) 
CN(C)CCCOc1cc(C(=O)[N-]c2ccc(-c3cccs3)cc2)n(Cc2ccccc2)n1 (protonated)
CN(C)CCCOc1cc(C(=O)[N-]c2ccc(-c3cccs3)cc2)n(Cc2ccccc2)n1 (3D coordinates assigned)
CN(C)CCCOc1cc(C(=O)[N-]c2ccc(-c3cccs3)cc2)n(Cc2ccccc2)n1 (optimized conformer: 118.57810564088368 kcal/mol)

>  <smiles>  (21) 
CN(C)CCCOc1cc(C(=O)Nc2ccc(-c3cccs3)cc2)n(Cc2ccccc2)n1

>  <score_type>  (21) 
oracle

>  <origin>  (21) 
adgpu

>  <m_score__min__energy>  (21) 
-10.619999999999999

>  <m_primary>  (21) 
energy

$$$$
21:0
     RDKit          3D

 49 52  0  0  0  0  0  0  0  0999 V2000
    0.5960   24.0520  -28.0260 C   0  0  0  0  0  0  0  0  0  0  0  0
   -0.8800   24.2180  -27.8480 C   0  0  0  0  0  0  0  0  0  0  0  0
   -1.7420   24.1060  -28.9480 C   0  0  0  0  0  0  0  0  0  0  0  0
   -3.1230   24.2670  -28.7650 C   0  0  0  0  0  0  0  0  0  0  0  0
   -4.0220   24.1470  -29.8820 N   0  0  0  0  0  0  0  0  0  0  0  0
   -5.2870   24.9030  -29.8630 C   0  0  0  0  0  0  0  0  0  0  0  0
   -6.1220   24.6960  -31.1380 C   0  0  0  0  0  0  0  0  0  0  0  0
   -6.1100   23.2460  -31.5660 C   0  0  0  0  0  0  0  0  0  0  0  0
   -4.8950   22.5490  -31.5030 C   0  0  0  0  0  0  0  0  0  0  0  0
   -4.8240   21.2240  -31.9480 C   0  0  0  0  0  0  0  0  0  0  0  0
   -5.9770   20.5930  -32.4410 C   0  0  0  0  0  0  0  0  0  0  0  0
   -5.9550   19.1870  -32.9160 C   0  0  0  0  0  0  0  0  0  0  0  0
   -6.8830   18.2640  -32.4070 C   0  0  0  0  0  0  0  0  0  0  0  0
   -6.8710   16.9360  -32.8350 C   0  0  0  0  0  0  0  0  0  0  0  0
   -5.9290   16.4940  -33.7750 C   0  0  0  0  0  0  0  0  0  0  0  0
   -5.9470   15.0540  -34.2180 C   0  0  0  0  0  0  0  0  0  0  0  0
   -4.9860   17.4120  -34.2960 C   0  0  0  0  0  0  0  0  0  0  0  0
   -3.9450   16.9780  -35.2960 C   0  0  0  0  0  0  0  0  0  0  0  0
   -5.0020   18.7460  -33.8530 C   0  0  0  0  0  0  0  0  0  0  0  0
   -7.1390   21.3010  -32.5100 N   0  0  0  0  0  0  0  0  0  0  0  0
   -7.2400   22.5930  -32.1000 C   0  0  0  0  0  0  0  0  0  0  0  0
   -8.5100   23.2580  -32.2370 C   0  0  0  0  0  0  0  0  0  0  0  0
   -9.5310   23.7910  -32.3470 N   0  0  0  0  0  0  0  0  0  0  0  0
   -3.6710   23.2670  -31.0070 C   0  0  0  0  0  0  0  0  0  0  0  0
   -3.6150   24.5340  -27.4800 C   0  0  0  0  0  0  0  0  0  0  0  0
   -2.7250   24.6400  -26.4100 C   0  0  0  0  0  0  0  0  0  0  0  0
   -1.3900   24.4820  -26.6140 N   0  0  0  0  0  0  0  0  0  0  0  0
    1.0804   23.9975  -27.0399 H   0  0  0  0  0  0  0  0  0  0  0  0
    0.7961   23.1257  -28.5845 H   0  0  0  0  0  0  0  0  0  0  0  0
    0.9968   24.9107  -28.5845 H   0  0  0  0  0  0  0  0  0  0  0  0
   -1.3375   23.8931  -29.9485 H   0  0  0  0  0  0  0  0  0  0  0  0
   -5.8802   24.5746  -28.9968 H   0  0  0  0  0  0  0  0  0  0  0  0
   -5.0342   25.9718  -29.8016 H   0  0  0  0  0  0  0  0  0  0  0  0
   -7.1596   25.0044  -30.9421 H   0  0  0  0  0  0  0  0  0  0  0  0
   -5.6846   25.3025  -31.9448 H   0  0  0  0  0  0  0  0  0  0  0  0
   -3.8689   20.6794  -31.9116 H   0  0  0  0  0  0  0  0  0  0  0  0
   -7.6258   18.5908  -31.6644 H   0  0  0  0  0  0  0  0  0  0  0  0
   -7.6089   16.2277  -32.4304 H   0  0  0  0  0  0  0  0  0  0  0  0
   -5.9552   14.3987  -33.3346 H   0  0  0  0  0  0  0  0  0  0  0  0
   -6.8475   14.8672  -34.8214 H   0  0  0  0  0  0  0  0  0  0  0  0
   -5.0514   14.8448  -34.8214 H   0  0  0  0  0  0  0  0  0  0  0  0
   -3.0567   16.6077  -34.7633 H   0  0  0  0  0  0  0  0  0  0  0  0
   -4.3549   16.1758  -35.9273 H   0  0  0  0  0  0  0  0  0  0  0  0
   -3.6637   17.8338  -35.9273 H   0  0  0  0  0  0  0  0  0  0  0  0
   -4.2585   19.4558  -34.2446 H   0  0  0  0  0  0  0  0  0  0  0  0
   -2.9267   22.5291  -30.6731 H   0  0  0  0  0  0  0  0  0  0  0  0
   -3.2550   23.8754  -31.8236 H   0  0  0  0  0  0  0  0  0  0  0  0
   -4.6955   24.6592  -27.3159 H   0  0  0  0  0  0  0  0  0  0  0  0
   -3.1045   24.8518  -25.3995 H   0  0  0  0  0  0  0  0  0  0  0  0
  1  2  1  0
  2  3  2  0
  3  4  1  0
  4  5  1  0
  5  6  1  0
  6  7  1  0
  7  8  1  0
  8  9  2  0
  9 10  1  0
 10 11  2  0
 11 12  1  0
 12 13  2  0
 13 14  1  0
 14 15  2  0
 15 16  1  0
 15 17  1  0
 17 18  1  0
 17 19  2  0
 11 20  1  0
 20 21  2  0
 21 22  1  0
 22 23  3  0
  9 24  1  0
  4 25  2  0
 25 26  1  0
 26 27  2  0
 27  2  1  0
 24  5  1  0
 21  8  1  0
 19 12  1  0
  1 28  1  0
  1 29  1  0
  1 30  1  0
  3 31  1  0
  6 32  1  0
  6 33  1  0
  7 34  1  0
  7 35  1  0
 10 36  1  0
 13 37  1  0
 14 38  1  0
 16 39  1  0
 16 40  1  0
 16 41  1  0
 18 42  1  0
 18 43  1  0
 18 44  1  0
 19 45  1  0
 24 46  1  0
 24 47  1  0
 25 48  1  0
 26 49  1  0
M  END
>  <UniqueID>  (22) 
21

>  <SMILES>  (22) 
Cc1cc(N2CCc3c(cc(-c4ccc(C)c(C)c4)nc3C#N)C2)ccn1

>  <Energy>  (22) 
64.98691158196287

>  <Genealogy>  (22) 
Cc1cc(N2CCc3c(cc(-c4ccc(C)c(C)c4)nc3C#N)C2)ccn1 (3D coordinates assigned)
Cc1cc(N2CCc3c(cc(-c4ccc(C)c(C)c4)nc3C#N)C2)ccn1 (nonaromatic ring conformer: 64.98691158196287 kcal/mol)

>  <smiles>  (22) 
Cc1cc(N2CCc3c(cc(-c4ccc(C)c(C)c4)nc3C#N)C2)ccn1

>  <score_type>  (22) 
oracle

>  <origin>  (22) 
adgpu

>  <m_score__min__energy>  (22) 
-9.2599999999999998

>  <m_primary>  (22) 
energy

$$$$
22:0
     RDKit          3D

 41 43  0  0  0  0  0  0  0  0999 V2000
   -2.0360   24.8510  -29.2910 N   0  0  0  0  0  0  0  0  0  0  0  0
   -0.8370   24.1100  -28.2880 S   0  0  0  0  0  0  0  0  0  0  0  0
    0.4980   24.2540  -28.9630 O   0  0  0  0  0  0  0  0  0  0  0  0
   -0.8090   24.8150  -26.9610 O   0  0  0  0  0  0  0  0  0  0  0  0
   -1.1910   22.3940  -28.0410 C   0  0  0  0  0  0  0  0  0  0  0  0
   -1.6890   21.9700  -26.7970 C   0  0  0  0  0  0  0  0  0  0  0  0
   -2.0150   20.6310  -26.5810 C   0  0  0  0  0  0  0  0  0  0  0  0
   -1.8470   19.6970  -27.6030 C   0  0  0  0  0  0  0  0  0  0  0  0
   -1.3500   20.1000  -28.8430 C   0  0  0  0  0  0  0  0  0  0  0  0
   -1.0190   21.4470  -29.0800 C   0  0  0  0  0  0  0  0  0  0  0  0
   -0.5050   21.8440  -30.3640 N   0  0  0  0  0  0  0  0  0  0  0  0
   -1.0110   21.0900  -31.8420 S   0  0  0  0  0  0  0  0  0  0  0  0
   -0.5280   21.9040  -33.0090 O   0  0  0  0  0  0  0  0  0  0  0  0
   -0.4150   19.7120  -31.9240 O   0  0  0  0  0  0  0  0  0  0  0  0
   -2.7710   21.0160  -31.8980 C   0  0  0  0  0  0  0  0  0  0  0  0
   -3.3980   20.0380  -32.6770 C   0  0  0  0  0  0  0  0  0  0  0  0
   -4.7920   19.9860  -32.7560 C   0  0  0  0  0  0  0  0  0  0  0  0
   -5.5820   20.9140  -32.0520 C   0  0  0  0  0  0  0  0  0  0  0  0
   -7.0640   20.8640  -32.1400 C   0  0  0  0  0  0  0  0  0  0  0  0
   -7.8380   21.9890  -31.8030 C   0  0  0  0  0  0  0  0  0  0  0  0
   -9.2340   21.9390  -31.8860 C   0  0  0  0  0  0  0  0  0  0  0  0
   -9.8690   20.7690  -32.3060 C   0  0  0  0  0  0  0  0  0  0  0  0
   -9.1110   19.6450  -32.6440 C   0  0  0  0  0  0  0  0  0  0  0  0
   -7.7160   19.6900  -32.5620 C   0  0  0  0  0  0  0  0  0  0  0  0
   -4.9430   21.8910  -31.2660 C   0  0  0  0  0  0  0  0  0  0  0  0
   -3.5480   21.9410  -31.1910 C   0  0  0  0  0  0  0  0  0  0  0  0
   -1.5850   25.6690  -29.7580 H   0  0  0  0  0  0  0  0  0  0  0  0
   -1.8230   22.7010  -25.9860 H   0  0  0  0  0  0  0  0  0  0  0  0
   -2.4051   20.3114  -25.6034 H   0  0  0  0  0  0  0  0  0  0  0  0
   -2.1065   18.6419  -27.4314 H   0  0  0  0  0  0  0  0  0  0  0  0
   -1.2156   19.3573  -29.6432 H   0  0  0  0  0  0  0  0  0  0  0  0
    0.1140   22.6790  -30.4490 H   0  0  0  0  0  0  0  0  0  0  0  0
   -2.7907   19.3063  -33.2301 H   0  0  0  0  0  0  0  0  0  0  0  0
   -5.2755   19.2142  -33.3729 H   0  0  0  0  0  0  0  0  0  0  0  0
   -7.3429   22.9139  -31.4721 H   0  0  0  0  0  0  0  0  0  0  0  0
   -9.8319   22.8231  -31.6198 H   0  0  0  0  0  0  0  0  0  0  0  0
  -10.9665   20.7319  -32.3709 H   0  0  0  0  0  0  0  0  0  0  0  0
   -9.6124   18.7236  -32.9750 H   0  0  0  0  0  0  0  0  0  0  0  0
   -7.1241   18.8021  -32.8290 H   0  0  0  0  0  0  0  0  0  0  0  0
   -5.5460   22.6211  -30.7062 H   0  0  0  0  0  0  0  0  0  0  0  0
   -3.0593   22.7098  -30.5744 H   0  0  0  0  0  0  0  0  0  0  0  0
  1  2  1  0
  2  3  2  0
  2  4  2  0
  2  5  1  0
  5  6  2  0
  6  7  1  0
  7  8  2  0
  8  9  1  0
  9 10  2  0
 10 11  1  0
 11 12  1  0
 12 13  2  0
 12 14  2  0
 12 15  1  0
 15 16  2  0
 16 17  1  0
 17 18  2  0
 18 19  1  0
 19 20  2  0
 20 21  1  0
 21 22  2  0
 22 23  1  0
 23 24  2  0
 18 25  1  0
 25 26  2  0
 10  5  1  0
 26 15  1  0
 24 19  1  0
  1 27  1  0
  6 28  1  0
  7 29  1  0
  8 30  1  0
  9 31  1  0
 11 32  1  0
 16 33  1  0
 17 34  1  0
 20 35  1  0
 21 36  1  0
 22 37  1  0
 23 38  1  0
 24 39  1  0
 25 40  1  0
 26 41  1  0
M  CHG  1   1  -1
M  END
>  <UniqueID>  (23) 
22

>  <SMILES>  (23) 
[NH-]S(=O)(=O)c1ccccc1NS(=O)(=O)c1ccc(-c2ccccc2)cc1

>  <Energy>  (23) 
53.812316129027096

>  <Genealogy>  (23) 
[NH-]S(=O)(=O)c1ccccc1NS(=O)(=O)c1ccc(-c2ccccc2)cc1 (protonated)
[NH-]S(=O)(=O)c1ccccc1NS(=O)(=O)c1ccc(-c2ccccc2)cc1 (3D coordinates assigned)
[NH-]S(=O)(=O)c1ccccc1NS(=O)(=O)c1ccc(-c2ccccc2)cc1 (optimized conformer: 53.812316129027096 kcal/mol)

>  <smiles>  (23) 
NS(=O)(=O)c1ccccc1NS(=O)(=O)c1ccc(-c2ccccc2)cc1

>  <score_type>  (23) 
oracle

>  <origin>  (23) 
adgpu

>  <m_score__min__energy>  (23) 
-12.56

>  <m_primary>  (23) 
energy

$$$$
23:0
     RDKit          3D

 20 21  0  0  0  0  0  0  0  0999 V2000
   -1.9330   25.6720  -29.4550 H   0  0  0  0  0  0  0  0  0  0  0  0
   -2.3220   24.7390  -29.7130 N   0  0  0  0  0  0  0  0  0  0  0  0
   -3.4930   24.6250  -30.2490 C   0  0  0  0  0  0  0  0  0  0  0  0
   -4.2880   25.6850  -30.5060 N   0  0  0  0  0  0  0  0  0  0  0  0
   -5.3860   25.1300  -31.0460 C   0  0  0  0  0  0  0  0  0  0  0  0
   -6.2769   25.6794  -31.3843 H   0  0  0  0  0  0  0  0  0  0  0  0
   -5.2190   23.7610  -31.1090 C   0  0  0  0  0  0  0  0  0  0  0  0
   -6.2210   22.7790  -31.5830 C   0  0  0  0  0  0  0  0  0  0  0  0
   -7.5850   23.1250  -31.5340 C   0  0  0  0  0  0  0  0  0  0  0  0
   -7.8803   24.1308  -31.2005 H   0  0  0  0  0  0  0  0  0  0  0  0
   -8.5670   22.2030  -31.9050 C   0  0  0  0  0  0  0  0  0  0  0  0
   -9.6293   22.4855  -31.8642 H   0  0  0  0  0  0  0  0  0  0  0  0
   -8.2020   20.9250  -32.3270 C   0  0  0  0  0  0  0  0  0  0  0  0
   -8.9776   20.1962  -32.6052 H   0  0  0  0  0  0  0  0  0  0  0  0
   -6.8540   20.5690  -32.3970 C   0  0  0  0  0  0  0  0  0  0  0  0
   -6.5120   19.3310  -32.8300 F   0  0  0  0  0  0  0  0  0  0  0  0
   -5.8560   21.4890  -32.0460 C   0  0  0  0  0  0  0  0  0  0  0  0
   -4.5230   21.1010  -32.2020 O   0  0  0  0  0  0  0  0  0  0  0  0
   -3.7450   21.6040  -31.8000 H   0  0  0  0  0  0  0  0  0  0  0  0
   -4.0210   23.4330  -30.5910 N   0  0  0  0  0  0  0  0  0  0  0  0
  1  2  1  0
  2  3  2  0
  3  4  1  0
  4  5  1  0
  5  6  1  0
  5  7  2  0
  7  8  1  0
  8  9  2  0
  9 10  1  0
  9 11  1  0
 11 12  1  0
 11 13  2  0
 13 14  1  0
 13 15  1  0
 15 16  1  0
 15 17  2  0
 17 18  1  0
 18 19  1  0
  7 20  1  0
 20  3  1  0
 17  8  1  0
M  CHG  2   4  -1  20  -1
M  END
>  <UniqueID>  (24) 
23

>  <SMILES>  (24) 
[H]/N=c1\[n-]cc(-c2cccc(F)c2O)[n-]1

>  <Energy>  (24) 
54.36967962901826

>  <Genealogy>  (24) 
N=c1[n-]cc(-c2cccc(F)c2O)[n-]1 (protonated)
[H]/N=c1\[n-]cc(-c2cccc(F)c2O)[n-]1 (cis-trans isomerization)
[H]/N=c1\[n-]cc(-c2cccc(F)c2O)[n-]1 (3D coordinates assigned)
[H]/N=c1\[n-]cc(-c2cccc(F)c2O)[n-]1 (optimized conformer: 54.36967962901826 kcal/mol)

>  <smiles>  (24) 
N=c1[nH]cc(-c2cccc(F)c2O)[nH]1

>  <score_type>  (24) 
oracle

>  <origin>  (24) 
adgpu

>  <m_score__min__energy>  (24) 
-8.0600000000000005

>  <m_primary>  (24) 
energy

$$$$
24:0
     RDKit          3D

 35 37  0  0  0  0  0  0  0  0999 V2000
  -10.1020   20.5635  -32.6082 H   0  0  0  0  0  0  0  0  0  0  0  0
   -9.1450   20.0480  -32.4400 C   0  0  0  0  0  0  0  0  0  0  0  0
   -7.9930   20.7650  -32.3540 N   0  0  0  0  0  0  0  0  0  0  0  0
   -6.7820   20.1720  -32.1550 C   0  0  0  0  0  0  0  0  0  0  0  0
   -5.6070   20.9950  -32.0560 N   0  0  0  0  0  0  0  0  0  0  0  0
   -5.6120   22.1900  -31.4850 N   0  0  0  0  0  0  0  0  0  0  0  0
   -4.3570   22.6700  -31.6180 C   0  0  0  0  0  0  0  0  0  0  0  0
   -3.9570   23.8350  -31.1960 N   0  0  0  0  0  0  0  0  0  0  0  0
   -4.7200   24.8370  -30.5020 C   0  0  0  0  0  0  0  0  0  0  0  0
   -4.2710   26.0130  -30.4650 O   0  0  0  0  0  0  0  0  0  0  0  0
   -6.0250   24.5470  -29.8210 C   0  0  0  0  0  0  0  0  0  0  0  0
   -5.8844   24.5782  -28.7305 H   0  0  0  0  0  0  0  0  0  0  0  0
   -6.7685   25.3018  -30.1166 H   0  0  0  0  0  0  0  0  0  0  0  0
   -6.3789   23.5483  -30.1166 H   0  0  0  0  0  0  0  0  0  0  0  0
   -3.5460   21.8150  -32.2700 N   0  0  0  0  0  0  0  0  0  0  0  0
   -2.5560   21.9770  -32.5580 H   0  0  0  0  0  0  0  0  0  0  0  0
   -4.3620   20.7740  -32.5340 C   0  0  0  0  0  0  0  0  0  0  0  0
   -4.0360   19.7410  -33.2580 N   0  0  0  0  0  0  0  0  0  0  0  0
   -2.7280   19.4300  -33.7570 C   0  0  0  0  0  0  0  0  0  0  0  0
   -2.2800   18.1030  -33.7090 C   0  0  0  0  0  0  0  0  0  0  0  0
   -2.9449   17.3142  -33.3273 H   0  0  0  0  0  0  0  0  0  0  0  0
   -0.9920   17.7770  -34.1440 C   0  0  0  0  0  0  0  0  0  0  0  0
   -0.6527   16.7309  -34.1211 H   0  0  0  0  0  0  0  0  0  0  0  0
   -0.1350   18.7790  -34.6080 C   0  0  0  0  0  0  0  0  0  0  0  0
    0.8752   18.5203  -34.9581 H   0  0  0  0  0  0  0  0  0  0  0  0
   -0.5620   20.1100  -34.6270 C   0  0  0  0  0  0  0  0  0  0  0  0
    0.1159   20.8993  -34.9840 H   0  0  0  0  0  0  0  0  0  0  0  0
   -1.8490   20.4390  -34.1930 C   0  0  0  0  0  0  0  0  0  0  0  0
   -2.1759   21.4893  -34.1922 H   0  0  0  0  0  0  0  0  0  0  0  0
   -6.7210   18.7740  -32.0030 C   0  0  0  0  0  0  0  0  0  0  0  0
   -5.7568   18.2782  -31.8171 H   0  0  0  0  0  0  0  0  0  0  0  0
   -7.8930   18.0220  -32.0900 C   0  0  0  0  0  0  0  0  0  0  0  0
   -7.8545   16.9281  -31.9813 H   0  0  0  0  0  0  0  0  0  0  0  0
   -9.1140   18.6590  -32.3150 C   0  0  0  0  0  0  0  0  0  0  0  0
  -10.0414   18.0726  -32.3929 H   0  0  0  0  0  0  0  0  0  0  0  0
  1  2  1  0
  2  3  2  0
  3  4  1  0
  4  5  1  0
  5  6  1  0
  6  7  1  0
  7  8  2  0
  8  9  1  0
  9 10  2  0
  9 11  1  0
 11 12  1  0
 11 13  1  0
 11 14  1  0
  7 15  1  0
 15 16  1  0
 15 17  1  0
 17 18  2  0
 18 19  1  0
 19 20  2  0
 20 21  1  0
 20 22  1  0
 22 23  1  0
 22 24  2  0
 24 25  1  0
 24 26  1  0
 26 27  1  0
 26 28  2  0
 28 29  1  0
  4 30  2  0
 30 31  1  0
 30 32  1  0
 32 33  1  0
 32 34  2  0
 34 35  1  0
 34  2  1  0
 17  5  1  0
 28 19  1  0
M  CHG  1   6  -1
M  END
>  <UniqueID>  (25) 
24

>  <SMILES>  (25) 
CC(=O)/N=c1\[n-]n(-c2ccccn2)/c(=N/c2ccccc2)[nH]1

>  <Energy>  (25) 
87.3454526135492

>  <Genealogy>  (25) 
CC(=O)N=c1[n-]n(-c2ccccn2)c(=Nc2ccccc2)[nH]1 (protonated)
CC(=O)/N=c1\[n-]n(-c2ccccn2)/c(=N/c2ccccc2)[nH]1 (cis-trans isomerization)
CC(=O)/N=c1\[n-]n(-c2ccccn2)/c(=N/c2ccccc2)[nH]1 (3D coordinates assigned)
CC(=O)/N=c1\[n-]n(-c2ccccn2)/c(=N/c2ccccc2)[nH]1 (optimized conformer: 87.3454526135492 kcal/mol)

>  <smiles>  (25) 
CC(=O)N=c1[nH]c(=Nc2ccccc2)n(-c2ccccn2)[nH]1

>  <score_type>  (25) 
oracle

>  <origin>  (25) 
adgpu

>  <m_score__min__energy>  (25) 
-8.0199999999999996

>  <m_primary>  (25) 
energy

$$$$
25:0
     RDKit          3D

 45 47  0  0  0  0  0  0  0  0999 V2000
   -5.0190   16.9690  -34.5380 C   0  0  0  0  0  0  0  0  0  0  0  0
   -5.4530   17.9460  -33.4470 C   0  0  0  0  0  0  0  0  0  0  0  0
   -6.8650   17.5950  -32.9630 C   0  0  0  0  0  0  0  0  0  0  0  0
   -5.4220   19.2690  -33.9890 O   0  0  0  0  0  0  0  0  0  0  0  0
   -5.4450   20.4940  -33.2920 C   0  0  0  0  0  0  0  0  0  0  0  0
   -6.7010   20.9050  -32.8090 C   0  0  0  0  0  0  0  0  0  0  0  0
   -6.7940   22.0970  -32.1010 C   0  0  0  0  0  0  0  0  0  0  0  0
   -7.8860   22.6800  -31.5000 C   0  0  0  0  0  0  0  0  0  0  0  0
   -7.3980   23.8350  -30.9050 C   0  0  0  0  0  0  0  0  0  0  0  0
   -6.0680   23.9710  -31.1290 N   0  0  0  0  0  0  0  0  0  0  0  0
   -5.2700   25.0780  -30.6700 C   0  0  0  0  0  0  0  0  0  0  0  0
   -3.8560   25.0850  -30.8370 N   0  0  0  0  0  0  0  0  0  0  0  0
   -5.8310   26.0760  -30.1420 O   0  0  0  0  0  0  0  0  0  0  0  0
   -5.7040   22.8910  -31.8620 C   0  0  0  0  0  0  0  0  0  0  0  0
   -4.4360   22.5200  -32.3190 C   0  0  0  0  0  0  0  0  0  0  0  0
   -4.3000   21.3280  -33.0720 C   0  0  0  0  0  0  0  0  0  0  0  0
   -3.0150   20.9490  -33.5810 N   0  0  0  0  0  0  0  0  0  0  0  0
   -1.7370   21.3780  -33.0930 C   0  0  0  0  0  0  0  0  0  0  0  0
   -0.8790   21.8430  -33.8920 O   0  0  0  0  0  0  0  0  0  0  0  0
   -1.4010   21.2200  -31.6580 C   0  0  0  0  0  0  0  0  0  0  0  0
   -0.8800   20.0090  -31.1730 C   0  0  0  0  0  0  0  0  0  0  0  0
   -0.5670   19.8610  -29.8190 C   0  0  0  0  0  0  0  0  0  0  0  0
   -0.7510   20.9280  -28.9240 C   0  0  0  0  0  0  0  0  0  0  0  0
   -0.4620   20.7530  -27.4540 C   0  0  0  0  0  0  0  0  0  0  0  0
   -1.3780   21.4520  -26.6860 F   0  0  0  0  0  0  0  0  0  0  0  0
    0.8090   21.2250  -27.1800 F   0  0  0  0  0  0  0  0  0  0  0  0
   -0.5330   19.4160  -27.1000 F   0  0  0  0  0  0  0  0  0  0  0  0
   -1.2980   22.1290  -29.4010 C   0  0  0  0  0  0  0  0  0  0  0  0
   -1.6130   22.2770  -30.7550 C   0  0  0  0  0  0  0  0  0  0  0  0
   -4.6141   16.0575  -34.0740 H   0  0  0  0  0  0  0  0  0  0  0  0
   -5.8860   16.7083  -35.1628 H   0  0  0  0  0  0  0  0  0  0  0  0
   -4.2444   17.4376  -35.1628 H   0  0  0  0  0  0  0  0  0  0  0  0
   -4.7717   17.8833  -32.5856 H   0  0  0  0  0  0  0  0  0  0  0  0
   -6.8850   17.5900  -31.8632 H   0  0  0  0  0  0  0  0  0  0  0  0
   -7.5782   18.3432  -33.3393 H   0  0  0  0  0  0  0  0  0  0  0  0
   -7.1448   16.6000  -33.3393 H   0  0  0  0  0  0  0  0  0  0  0  0
   -7.5962   20.2917  -32.9892 H   0  0  0  0  0  0  0  0  0  0  0  0
   -8.9220   22.3104  -31.4927 H   0  0  0  0  0  0  0  0  0  0  0  0
   -8.0089   24.5453  -30.3286 H   0  0  0  0  0  0  0  0  0  0  0  0
   -3.4060   25.6650  -31.5810 H   0  0  0  0  0  0  0  0  0  0  0  0
   -3.5576   23.1440  -32.0973 H   0  0  0  0  0  0  0  0  0  0  0  0
   -0.7169   19.1697  -31.8651 H   0  0  0  0  0  0  0  0  0  0  0  0
   -0.1736   18.9018  -29.4514 H   0  0  0  0  0  0  0  0  0  0  0  0
   -1.4803   22.9604  -28.7042 H   0  0  0  0  0  0  0  0  0  0  0  0
   -2.0302   23.2282  -31.1171 H   0  0  0  0  0  0  0  0  0  0  0  0
  1  2  1  0
  2  3  1  0
  2  4  1  0
  4  5  1  0
  5  6  2  0
  6  7  1  0
  7  8  1  0
  8  9  2  0
  9 10  1  0
 10 11  1  0
 11 12  1  0
 11 13  2  0
 10 14  1  0
 14 15  1  0
 15 16  2  0
 16 17  1  0
 17 18  1  0
 18 19  2  0
 18 20  1  0
 20 21  2  0
 21 22  1  0
 22 23  2  0
 23 24  1  0
 24 25  1  0
 24 26  1  0
 24 27  1  0
 23 28  1  0
 28 29  2  0
 16  5  1  0
 29 20  1  0
 14  7  2  0
  1 30  1  0
  1 31  1  0
  1 32  1  0
  2 33  1  0
  3 34  1  0
  3 35  1  0
  3 36  1  0
  6 37  1  0
  8 38  1  0
  9 39  1  0
 12 40  1  0
 15 41  1  0
 21 42  1  0
 22 43  1  0
 28 44  1  0
 29 45  1  0
M  CHG  2  12  -1  17  -1
M  END
>  <UniqueID>  (26) 
25

>  <SMILES>  (26) 
CC(C)Oc1cc2ccn(C([NH-])=O)c2cc1[N-]C(=O)c1ccc(C(F)(F)F)cc1

>  <Energy>  (26) 
87.52358427470377

>  <Genealogy>  (26) 
CC(C)Oc1cc2ccn(C([NH-])=O)c2cc1[N-]C(=O)c1ccc(C(F)(F)F)cc1 (protonated)
CC(C)Oc1cc2ccn(C([NH-])=O)c2cc1[N-]C(=O)c1ccc(C(F)(F)F)cc1 (3D coordinates assigned)
CC(C)Oc1cc2ccn(C([NH-])=O)c2cc1[N-]C(=O)c1ccc(C(F)(F)F)cc1 (optimized conformer: 87.52358427470377 kcal/mol)

>  <smiles>  (26) 
CC(C)Oc1cc2ccn(C(N)=O)c2cc1NC(=O)c1ccc(C(F)(F)F)cc1

>  <score_type>  (26) 
oracle

>  <origin>  (26) 
adgpu

>  <m_score__min__energy>  (26) 
-10.1

>  <m_primary>  (26) 
energy

$$$$
26:0
     RDKit          3D

 48 50  0  0  1  0  0  0  0  0999 V2000
   -6.4600   25.2830  -29.5730 C   0  0  0  0  0  0  0  0  0  0  0  0
   -6.0420   25.2550  -31.0120 C   0  0  0  0  0  0  0  0  0  0  0  0
   -6.0810   23.9370  -31.6110 N   0  0  0  0  0  0  0  0  0  0  0  0
   -7.1980   23.4240  -32.3620 C   0  0  0  0  0  0  0  0  0  0  0  0
   -8.0900   22.6270  -31.4610 C   0  0  0  0  0  0  0  0  0  0  0  0
   -4.9290   23.0970  -31.4240 C   0  0  0  0  0  0  0  0  0  0  0  0
   -4.8520   21.8760  -32.0610 C   0  0  0  0  0  0  0  0  0  0  0  0
   -3.7250   21.1200  -31.8290 C   0  0  0  0  0  0  0  0  0  0  0  0
   -3.5200   19.9750  -32.3720 N   0  0  0  0  0  0  0  0  0  0  0  0
   -4.4430   19.3830  -33.2660 C   0  0  0  0  0  0  0  0  0  0  0  0
   -4.1930   19.0560  -34.4480 O   0  0  0  0  0  0  0  0  0  0  0  0
   -5.7990   19.1480  -32.7160 C   0  0  0  0  0  0  0  0  0  0  0  0
   -6.0590   18.3350  -31.6280 C   0  0  0  0  0  0  0  0  0  0  0  0
   -7.3710   18.3550  -31.3970 O   0  0  0  0  0  0  0  0  0  0  0  0
   -7.9540   19.1450  -32.2870 C   0  0  0  0  0  0  0  0  0  0  0  0
   -9.4340   19.4110  -32.3320 C   0  0  0  0  0  0  0  0  0  0  0  0
   -6.9960   19.6700  -33.1440 C   0  0  0  0  0  0  0  0  0  0  0  0
   -2.7790   21.6000  -31.0060 N   0  0  0  0  0  0  0  0  0  0  0  0
   -2.8300   22.7710  -30.3800 C   0  0  0  0  0  0  0  0  0  0  0  0
   -1.8130   23.2770  -29.4770 C   0  0  0  0  0  0  0  0  0  0  0  0
   -1.8840   24.5560  -28.9590 C   0  0  0  0  0  0  0  0  0  0  0  0
   -0.9210   25.0560  -28.0850 C   0  0  0  0  0  0  0  0  0  0  0  0
    0.1470   24.2850  -27.7030 C   0  0  0  0  0  0  0  0  0  0  0  0
    0.2320   23.0030  -28.2130 C   0  0  0  0  0  0  0  0  0  0  0  0
   -0.7290   22.5200  -29.0780 C   0  0  0  0  0  0  0  0  0  0  0  0
   -3.9390   23.5330  -30.6020 N   0  0  0  0  0  0  0  0  0  0  0  0
   -5.5687   25.2233  -28.9311 H   0  0  0  0  0  0  0  0  0  0  0  0
   -6.9990   26.2193  -29.3659 H   0  0  0  0  0  0  0  0  0  0  0  0
   -7.1191   24.4270  -29.3659 H   0  0  0  0  0  0  0  0  0  0  0  0
   -6.7151   25.9135  -31.5806 H   0  0  0  0  0  0  0  0  0  0  0  0
   -4.9945   25.5892  -31.0458 H   0  0  0  0  0  0  0  0  0  0  0  0
   -7.7665   24.2627  -32.7903 H   0  0  0  0  0  0  0  0  0  0  0  0
   -6.8265   22.7776  -33.1708 H   0  0  0  0  0  0  0  0  0  0  0  0
   -7.8431   22.8476  -30.4120 H   0  0  0  0  0  0  0  0  0  0  0  0
   -9.1395   22.8937  -31.6546 H   0  0  0  0  0  0  0  0  0  0  0  0
   -7.9426   21.5542  -31.6546 H   0  0  0  0  0  0  0  0  0  0  0  0
   -5.6549   21.5222  -32.7245 H   0  0  0  0  0  0  0  0  0  0  0  0
   -5.3115   17.7693  -31.0525 H   0  0  0  0  0  0  0  0  0  0  0  0
   -9.8253   19.4813  -31.3063 H   0  0  0  0  0  0  0  0  0  0  0  0
   -9.6206   20.3571  -32.8613 H   0  0  0  0  0  0  0  0  0  0  0  0
   -9.9383   18.5891  -32.8613 H   0  0  0  0  0  0  0  0  0  0  0  0
   -7.1603   20.3577  -33.9866 H   0  0  0  0  0  0  0  0  0  0  0  0
   -1.9390   21.0050  -30.8480 H   0  0  0  0  0  0  0  0  0  0  0  0
   -2.7281   25.2003  -29.2459 H   0  0  0  0  0  0  0  0  0  0  0  0
   -1.0184   26.0807  -27.6970 H   0  0  0  0  0  0  0  0  0  0  0  0
    0.9108   24.6740  -27.0135 H   0  0  0  0  0  0  0  0  0  0  0  0
    1.0765   22.3594  -27.9257 H   0  0  0  0  0  0  0  0  0  0  0  0
   -0.6278   21.4948  -29.4636 H   0  0  0  0  0  0  0  0  0  0  0  0
  1  2  1  0
  2  3  1  0
  3  4  1  0
  4  5  1  0
  3  6  1  0
  6  7  2  0
  7  8  1  0
  8  9  2  0
  9 10  1  0
 10 11  2  0
 10 12  1  0
 12 13  2  0
 13 14  1  0
 14 15  1  0
 15 16  1  0
 15 17  2  0
  8 18  1  0
 18 19  1  0
 19 20  1  0
 20 21  2  0
 21 22  1  0
 22 23  2  0
 23 24  1  0
 24 25  2  0
 19 26  2  0
 26  6  1  0
 17 12  1  0
 25 20  1  0
  1 27  1  0
  1 28  1  0
  1 29  1  0
  2 30  1  0
  2 31  1  0
  4 32  1  0
  4 33  1  0
  5 34  1  0
  5 35  1  0
  5 36  1  0
  7 37  1  0
 13 38  1  0
 16 39  1  0
 16 40  1  0
 16 41  1  0
 17 42  1  0
 18 43  1  0
 21 44  1  0
 22 45  1  0
 23 46  1  0
 24 47  1  0
 25 48  1  0
M  END
>  <smiles>  (27) 
CCN(CC)c1cc(=NC(=O)c2coc(C)c2)[nH]c(-c2ccccc2)n1

>  <score_type>  (27) 
oracle

>  <origin>  (27) 
adgpu

>  <m_score__min__energy>  (27) 
-7.5800000000000001

>  <m_primary>  (27) 
energy

$$$$
27:0
     RDKit          3D

 49 52  0  0  0  0  0  0  0  0999 V2000
   -6.1040   16.7120  -30.8880 C   0  0  0  0  0  0  0  0  0  0  0  0
   -6.1070   17.5180  -32.1540 C   0  0  0  0  0  0  0  0  0  0  0  0
   -5.6660   16.9420  -33.3530 C   0  0  0  0  0  0  0  0  0  0  0  0
   -5.7200   17.6850  -34.5300 C   0  0  0  0  0  0  0  0  0  0  0  0
   -6.2160   18.9870  -34.5060 C   0  0  0  0  0  0  0  0  0  0  0  0
   -6.6540   19.5420  -33.2990 C   0  0  0  0  0  0  0  0  0  0  0  0
   -7.0820   20.7740  -33.3000 N   0  0  0  0  0  0  0  0  0  0  0  0
   -7.6200   21.6820  -31.9200 S   0  0  0  0  0  0  0  0  0  0  0  0
   -8.1150   20.7280  -30.8690 O   0  0  0  0  0  0  0  0  0  0  0  0
   -8.7480   22.5800  -32.3400 O   0  0  0  0  0  0  0  0  0  0  0  0
   -6.3080   22.6740  -31.2890 C   0  0  0  0  0  0  0  0  0  0  0  0
   -4.9950   22.4710  -31.7350 C   0  0  0  0  0  0  0  0  0  0  0  0
   -3.9500   23.2370  -31.2150 C   0  0  0  0  0  0  0  0  0  0  0  0
   -4.2090   24.2340  -30.2570 C   0  0  0  0  0  0  0  0  0  0  0  0
   -3.1530   25.0160  -29.6800 N   0  0  0  0  0  0  0  0  0  0  0  0
   -1.9290   24.4990  -29.1460 C   0  0  0  0  0  0  0  0  0  0  0  0
   -0.8670   25.1530  -29.3190 O   0  0  0  0  0  0  0  0  0  0  0  0
   -1.8800   23.1890  -28.4610 C   0  0  0  0  0  0  0  0  0  0  0  0
   -2.2950   21.7190  -29.1710 S   0  0  0  0  0  0  0  0  0  0  0  0
   -2.0190   20.7600  -27.8180 C   0  0  0  0  0  0  0  0  0  0  0  0
   -1.5970   21.5830  -26.7840 C   0  0  0  0  0  0  0  0  0  0  0  0
   -1.5060   22.9380  -27.1390 C   0  0  0  0  0  0  0  0  0  0  0  0
   -1.1350   23.9760  -26.1680 C   0  0  0  0  0  0  0  0  0  0  0  0
   -1.9630   25.0930  -25.9890 C   0  0  0  0  0  0  0  0  0  0  0  0
   -1.6160   26.0820  -25.0630 C   0  0  0  0  0  0  0  0  0  0  0  0
   -0.4470   25.9550  -24.3030 C   0  0  0  0  0  0  0  0  0  0  0  0
   -0.0150   27.1970  -23.1400 Cl  0  0  0  0  0  0  0  0  0  0  0  0
    0.3750   24.8360  -24.4700 C   0  0  0  0  0  0  0  0  0  0  0  0
    0.0310   23.8450  -25.3970 C   0  0  0  0  0  0  0  0  0  0  0  0
   -5.5200   24.4240  -29.8050 C   0  0  0  0  0  0  0  0  0  0  0  0
   -6.5670   23.6540  -30.3220 C   0  0  0  0  0  0  0  0  0  0  0  0
   -6.6070   18.7890  -32.1540 N   0  0  0  0  0  0  0  0  0  0  0  0
   -6.1065   17.3899  -30.0217 H   0  0  0  0  0  0  0  0  0  0  0  0
   -6.9998   16.0743  -30.8572 H   0  0  0  0  0  0  0  0  0  0  0  0
   -5.2035   16.0810  -30.8572 H   0  0  0  0  0  0  0  0  0  0  0  0
   -5.2805   15.9118  -33.3646 H   0  0  0  0  0  0  0  0  0  0  0  0
   -5.3719   17.2450  -35.4762 H   0  0  0  0  0  0  0  0  0  0  0  0
   -6.2630   19.5766  -35.4335 H   0  0  0  0  0  0  0  0  0  0  0  0
   -4.7871   21.7057  -32.4972 H   0  0  0  0  0  0  0  0  0  0  0  0
   -2.9193   23.0601  -31.5560 H   0  0  0  0  0  0  0  0  0  0  0  0
   -2.1502   19.6693  -27.7623 H   0  0  0  0  0  0  0  0  0  0  0  0
   -1.3559   21.2082  -25.7783 H   0  0  0  0  0  0  0  0  0  0  0  0
   -2.8869   25.1917  -26.5777 H   0  0  0  0  0  0  0  0  0  0  0  0
   -2.2631   26.9618  -24.9315 H   0  0  0  0  0  0  0  0  0  0  0  0
    1.2928   24.7344  -23.8723 H   0  0  0  0  0  0  0  0  0  0  0  0
    0.6753   22.9622  -25.5215 H   0  0  0  0  0  0  0  0  0  0  0  0
   -5.7284   25.1842  -29.0378 H   0  0  0  0  0  0  0  0  0  0  0  0
   -7.5957   23.8182  -29.9686 H   0  0  0  0  0  0  0  0  0  0  0  0
   -6.9570   19.1720  -31.2490 H   0  0  0  0  0  0  0  0  0  0  0  0
  1  2  1  0
  2  3  2  0
  3  4  1  0
  4  5  2  0
  5  6  1  0
  6  7  2  3
  7  8  1  0
  8  9  2  0
  8 10  2  0
  8 11  1  0
 11 12  2  0
 12 13  1  0
 13 14  2  0
 14 15  1  0
 15 16  1  0
 16 17  2  0
 16 18  1  0
 18 19  1  0
 19 20  1  0
 20 21  2  0
 21 22  1  0
 22 23  1  0
 23 24  2  0
 24 25  1  0
 25 26  2  0
 26 27  1  0
 26 28  1  0
 28 29  2  0
 14 30  1  0
 30 31  2  0
  6 32  1  0
 32  2  1  0
 31 11  1  0
 22 18  2  0
 29 23  1  0
  1 33  1  0
  1 34  1  0
  1 35  1  0
  3 36  1  0
  4 37  1  0
  5 38  1  0
 12 39  1  0
 13 40  1  0
 20 41  1  0
 21 42  1  0
 24 43  1  0
 25 44  1  0
 28 45  1  0
 29 46  1  0
 30 47  1  0
 31 48  1  0
 32 49  1  0
M  CHG  1  15  -1
M  END
>  <UniqueID>  (28) 
26

>  <SMILES>  (28) 
Cc1cccc(=NS(=O)(=O)c2ccc([N-]C(=O)c3sccc3-c3ccc(Cl)cc3)cc2)[nH]1

>  <Energy>  (28) 
97.32404988521814

>  <Genealogy>  (28) 
Cc1cccc(=NS(=O)(=O)c2ccc([N-]C(=O)c3sccc3-c3ccc(Cl)cc3)cc2)[nH]1 (protonated)
Cc1cccc(=NS(=O)(=O)c2ccc([N-]C(=O)c3sccc3-c3ccc(Cl)cc3)cc2)[nH]1 (3D coordinates assigned)
Cc1cccc(=NS(=O)(=O)c2ccc([N-]C(=O)c3sccc3-c3ccc(Cl)cc3)cc2)[nH]1 (optimized conformer: 97.32404988521814 kcal/mol)

>  <smiles>  (28) 
Cc1cccc(=NS(=O)(=O)c2ccc(NC(=O)c3sccc3-c3ccc(Cl)cc3)cc2)[nH]1

>  <score_type>  (28) 
oracle

>  <origin>  (28) 
adgpu

>  <m_score__min__energy>  (28) 
-11.94

>  <m_primary>  (28) 
energy

$$$$
28:0
     RDKit          3D

 49 51  0  0  0  0  0  0  0  0999 V2000
   -6.1170   17.0860  -31.3860 C   0  0  0  0  0  0  0  0  0  0  0  0
   -6.1310   18.3210  -32.1710 N   0  0  0  0  0  0  0  0  0  0  0  0
   -7.2440   19.2320  -32.0830 C   0  0  0  0  0  0  0  0  0  0  0  0
   -7.1150   20.4610  -31.4080 C   0  0  0  0  0  0  0  0  0  0  0  0
   -8.1960   21.3500  -31.3430 C   0  0  0  0  0  0  0  0  0  0  0  0
   -9.4120   21.0210  -31.9500 C   0  0  0  0  0  0  0  0  0  0  0  0
   -9.5460   19.8060  -32.6330 C   0  0  0  0  0  0  0  0  0  0  0  0
   -8.4680   18.9160  -32.7030 C   0  0  0  0  0  0  0  0  0  0  0  0
   -4.8840   18.5660  -33.3580 S   0  0  0  0  0  0  0  0  0  0  0  0
   -4.0580   17.3180  -33.5200 O   0  0  0  0  0  0  0  0  0  0  0  0
   -5.5130   18.9020  -34.6830 O   0  0  0  0  0  0  0  0  0  0  0  0
   -3.8280   19.8700  -32.8270 C   0  0  0  0  0  0  0  0  0  0  0  0
   -2.4450   19.6580  -32.7470 C   0  0  0  0  0  0  0  0  0  0  0  0
   -1.6020   20.6800  -32.3070 C   0  0  0  0  0  0  0  0  0  0  0  0
   -2.1350   21.9150  -31.9280 C   0  0  0  0  0  0  0  0  0  0  0  0
   -3.5270   22.1280  -31.9680 C   0  0  0  0  0  0  0  0  0  0  0  0
   -4.1060   23.3840  -31.5850 N   0  0  0  0  0  0  0  0  0  0  0  0
   -3.7160   24.1690  -30.4500 C   0  0  0  0  0  0  0  0  0  0  0  0
   -3.8700   25.4180  -30.4900 O   0  0  0  0  0  0  0  0  0  0  0  0
   -3.1820   23.5400  -29.2300 C   0  0  0  0  0  0  0  0  0  0  0  0
   -2.4330   24.2070  -28.4650 O   0  0  0  0  0  0  0  0  0  0  0  0
   -3.5290   22.1900  -28.8950 N   0  0  0  0  0  0  0  0  0  0  0  0
   -3.3670   21.6680  -27.5400 C   0  0  0  0  0  0  0  0  0  0  0  0
   -2.3790   20.5320  -27.5430 C   0  0  0  0  0  0  0  0  0  0  0  0
   -1.3430   20.5050  -28.4870 C   0  0  0  0  0  0  0  0  0  0  0  0
   -0.4800   19.4090  -28.5280 C   0  0  0  0  0  0  0  0  0  0  0  0
   -0.6480   18.3720  -27.6640 N   0  0  0  0  0  0  0  0  0  0  0  0
   -1.6440   18.3720  -26.7410 C   0  0  0  0  0  0  0  0  0  0  0  0
   -2.5290   19.4490  -26.6630 C   0  0  0  0  0  0  0  0  0  0  0  0
   -4.3640   21.1080  -32.4390 C   0  0  0  0  0  0  0  0  0  0  0  0
   -6.1198   17.3328  -30.3141 H   0  0  0  0  0  0  0  0  0  0  0  0
   -7.0084   16.4883  -31.6269 H   0  0  0  0  0  0  0  0  0  0  0  0
   -5.2123   16.5086  -31.6269 H   0  0  0  0  0  0  0  0  0  0  0  0
   -6.1604   20.7246  -30.9292 H   0  0  0  0  0  0  0  0  0  0  0  0
   -8.0880   22.3082  -30.8137 H   0  0  0  0  0  0  0  0  0  0  0  0
  -10.2625   21.7161  -31.8910 H   0  0  0  0  0  0  0  0  0  0  0  0
  -10.5008   19.5503  -33.1157 H   0  0  0  0  0  0  0  0  0  0  0  0
   -8.5776   17.9651  -33.2450 H   0  0  0  0  0  0  0  0  0  0  0  0
   -2.0224   18.6832  -33.0318 H   0  0  0  0  0  0  0  0  0  0  0  0
   -0.5159   20.5129  -32.2585 H   0  0  0  0  0  0  0  0  0  0  0  0
   -1.4658   22.7230  -31.5975 H   0  0  0  0  0  0  0  0  0  0  0  0
   -4.0220   21.5950  -29.5990 H   0  0  0  0  0  0  0  0  0  0  0  0
   -2.9995   22.4692  -26.8820 H   0  0  0  0  0  0  0  0  0  0  0  0
   -4.3379   21.3025  -27.1743 H   0  0  0  0  0  0  0  0  0  0  0  0
   -1.2113   21.3409  -29.1898 H   0  0  0  0  0  0  0  0  0  0  0  0
    0.3391   19.3837  -29.2618 H   0  0  0  0  0  0  0  0  0  0  0  0
   -1.7539   17.5210  -26.0528 H   0  0  0  0  0  0  0  0  0  0  0  0
   -3.3378   19.4487  -25.9174 H   0  0  0  0  0  0  0  0  0  0  0  0
   -5.4487   21.2784  -32.5052 H   0  0  0  0  0  0  0  0  0  0  0  0
  1  2  1  0
  2  3  1  0
  3  4  2  0
  4  5  1  0
  5  6  2  0
  6  7  1  0
  7  8  2  0
  2  9  1  0
  9 10  2  0
  9 11  2  0
  9 12  1  0
 12 13  2  0
 13 14  1  0
 14 15  2  0
 15 16  1  0
 16 17  1  0
 17 18  1  0
 18 19  2  0
 18 20  1  0
 20 21  2  0
 20 22  1  0
 22 23  1  0
 23 24  1  0
 24 25  2  0
 25 26  1  0
 26 27  2  0
 27 28  1  0
 28 29  2  0
 16 30  2  0
  8  3  1  0
 30 12  1  0
 29 24  1  0
  1 31  1  0
  1 32  1  0
  1 33  1  0
  4 34  1  0
  5 35  1  0
  6 36  1  0
  7 37  1  0
  8 38  1  0
 13 39  1  0
 14 40  1  0
 15 41  1  0
 22 42  1  0
 23 43  1  0
 23 44  1  0
 25 45  1  0
 26 46  1  0
 28 47  1  0
 29 48  1  0
 30 49  1  0
M  CHG  1  17  -1
M  END
>  <UniqueID>  (29) 
27

>  <SMILES>  (29) 
CN(c1ccccc1)S(=O)(=O)c1cccc([N-]C(=O)C(=O)NCc2ccncc2)c1

>  <Energy>  (29) 
58.59801438167987

>  <Genealogy>  (29) 
CN(c1ccccc1)S(=O)(=O)c1cccc([N-]C(=O)C(=O)NCc2ccncc2)c1 (protonated)
CN(c1ccccc1)S(=O)(=O)c1cccc([N-]C(=O)C(=O)NCc2ccncc2)c1 (3D coordinates assigned)
CN(c1ccccc1)S(=O)(=O)c1cccc([N-]C(=O)C(=O)NCc2ccncc2)c1 (optimized conformer: 58.59801438167987 kcal/mol)

>  <smiles>  (29) 
CN(c1ccccc1)S(=O)(=O)c1cccc(NC(=O)C(=O)NCc2ccncc2)c1

>  <score_type>  (29) 
oracle

>  <origin>  (29) 
adgpu

>  <m_score__min__energy>  (29) 
-10.869999999999999

>  <m_primary>  (29) 
energy

$$$$
29:0
     RDKit          3D

 37 39  0  0  0  0  0  0  0  0999 V2000
   -0.3550   27.0080  -28.1820 H   0  0  0  0  0  0  0  0  0  0  0  0
   -1.2430   26.6010  -28.5550 N   0  0  0  0  0  0  0  0  0  0  0  0
   -1.3170   25.3650  -28.9250 C   0  0  0  0  0  0  0  0  0  0  0  0
   -2.4890   24.8730  -29.4030 N   0  0  0  0  0  0  0  0  0  0  0  0
   -2.6080   23.5770  -29.8080 C   0  0  0  0  0  0  0  0  0  0  0  0
   -3.9160   23.0900  -30.3180 C   0  0  0  0  0  0  0  0  0  0  0  0
   -4.1760   21.7080  -30.3690 C   0  0  0  0  0  0  0  0  0  0  0  0
   -3.4081   20.9960  -30.0323 H   0  0  0  0  0  0  0  0  0  0  0  0
   -5.4020   21.2320  -30.8440 C   0  0  0  0  0  0  0  0  0  0  0  0
   -5.5969   20.1497  -30.8712 H   0  0  0  0  0  0  0  0  0  0  0  0
   -6.3820   22.1290  -31.2850 C   0  0  0  0  0  0  0  0  0  0  0  0
   -7.6500   21.6410  -31.7320 N   0  0  0  0  0  0  0  0  0  0  0  0
   -7.9440   20.5100  -32.4200 C   0  0  0  0  0  0  0  0  0  0  0  0
   -6.9560   19.4670  -32.8980 C   0  0  0  0  0  0  0  0  0  0  0  0
   -7.4905   18.8402  -33.6270 H   0  0  0  0  0  0  0  0  0  0  0  0
   -5.7650   20.1000  -33.6250 C   0  0  0  0  0  0  0  0  0  0  0  0
   -5.0455   20.4824  -32.8861 H   0  0  0  0  0  0  0  0  0  0  0  0
   -5.2757   19.3429  -34.2554 H   0  0  0  0  0  0  0  0  0  0  0  0
   -6.1188   20.9291  -34.2554 H   0  0  0  0  0  0  0  0  0  0  0  0
   -6.4960   18.5430  -31.7670 C   0  0  0  0  0  0  0  0  0  0  0  0
   -6.7272   19.0075  -30.7971 H   0  0  0  0  0  0  0  0  0  0  0  0
   -7.0192   17.5786  -31.8457 H   0  0  0  0  0  0  0  0  0  0  0  0
   -5.4111   18.3791  -31.8457 H   0  0  0  0  0  0  0  0  0  0  0  0
   -9.2670   20.3930  -32.6610 N   0  0  0  0  0  0  0  0  0  0  0  0
   -9.8140   21.4900  -32.1000 C   0  0  0  0  0  0  0  0  0  0  0  0
  -10.8866   21.7341  -32.0984 H   0  0  0  0  0  0  0  0  0  0  0  0
   -8.8250   22.2570  -31.5300 C   0  0  0  0  0  0  0  0  0  0  0  0
   -8.9716   23.2099  -31.0005 H   0  0  0  0  0  0  0  0  0  0  0  0
   -6.1490   23.5070  -31.1980 C   0  0  0  0  0  0  0  0  0  0  0  0
   -6.9333   24.2157  -31.5024 H   0  0  0  0  0  0  0  0  0  0  0  0
   -4.9240   23.9850  -30.7260 C   0  0  0  0  0  0  0  0  0  0  0  0
   -4.7454   25.0691  -30.6726 H   0  0  0  0  0  0  0  0  0  0  0  0
   -1.4900   22.7320  -29.7110 C   0  0  0  0  0  0  0  0  0  0  0  0
   -1.5562   21.6776  -30.0174 H   0  0  0  0  0  0  0  0  0  0  0  0
   -0.2950   23.2550  -29.2190 C   0  0  0  0  0  0  0  0  0  0  0  0
    0.5946   22.6128  -29.1402 H   0  0  0  0  0  0  0  0  0  0  0  0
   -0.2280   24.5560  -28.8370 N   0  0  0  0  0  0  0  0  0  0  0  0
  1  2  1  0
  2  3  2  0
  3  4  1  0
  4  5  2  0
  5  6  1  0
  6  7  2  0
  7  8  1  0
  7  9  1  0
  9 10  1  0
  9 11  2  0
 11 12  1  0
 12 13  1  0
 13 14  1  0
 14 15  1  0
 14 16  1  0
 16 17  1  0
 16 18  1  0
 16 19  1  0
 14 20  1  0
 20 21  1  0
 20 22  1  0
 20 23  1  0
 13 24  2  0
 24 25  1  0
 25 26  1  0
 25 27  2  0
 27 28  1  0
 11 29  1  0
 29 30  1  0
 29 31  2  0
 31 32  1  0
  5 33  1  0
 33 34  1  0
 33 35  2  0
 35 36  1  0
 35 37  1  0
 37  3  1  0
 31  6  1  0
 27 12  1  0
M  CHG  1  37  -1
M  END
>  <UniqueID>  (30) 
28

>  <SMILES>  (30) 
[H]/N=c1/nc(-c2ccc(-n3ccnc3C(C)C)cc2)cc[n-]1

>  <Energy>  (30) 
77.30393827807215

>  <Genealogy>  (30) 
CC(C)c1nccn1-c1ccc(-c2cc[n-]c(=N)n2)cc1 (protonated)
[H]/N=c1/nc(-c2ccc(-n3ccnc3C(C)C)cc2)cc[n-]1 (cis-trans isomerization)
[H]/N=c1/nc(-c2ccc(-n3ccnc3C(C)C)cc2)cc[n-]1 (3D coordinates assigned)
[H]/N=c1/nc(-c2ccc(-n3ccnc3C(C)C)cc2)cc[n-]1 (optimized conformer: 77.30393827807215 kcal/mol)

>  <smiles>  (30) 
CC(C)c1nccn1-c1ccc(-c2cc[nH]c(=N)n2)cc1

>  <score_type>  (30) 
oracle

>  <origin>  (30) 
adgpu

>  <m_score__min__energy>  (30) 
-9.3300000000000001

>  <m_primary>  (30) 
energy

$$$$
30:0
     RDKit          3D

 23 24  0  0  0  0  0  0  0  0999 V2000
   -7.4590   25.6040  -29.4030 O   0  0  0  0  0  0  0  0  0  0  0  0
   -6.5250   25.0010  -29.9960 C   0  0  0  0  0  0  0  0  0  0  0  0
   -6.8200   24.0170  -30.9420 C   0  0  0  0  0  0  0  0  0  0  0  0
   -5.7610   23.3690  -31.5910 C   0  0  0  0  0  0  0  0  0  0  0  0
   -5.9920   22.3240  -32.5510 N   0  0  0  0  0  0  0  0  0  0  0  0
   -6.8970   21.2250  -32.3580 C   0  0  0  0  0  0  0  0  0  0  0  0
   -6.4500   19.9140  -32.5870 C   0  0  0  0  0  0  0  0  0  0  0  0
   -7.3210   18.8310  -32.4330 C   0  0  0  0  0  0  0  0  0  0  0  0
   -8.6520   19.0500  -32.0660 C   0  0  0  0  0  0  0  0  0  0  0  0
   -9.1150   20.3530  -31.8590 C   0  0  0  0  0  0  0  0  0  0  0  0
   -8.2450   21.4380  -32.0110 C   0  0  0  0  0  0  0  0  0  0  0  0
   -4.4820   23.6870  -31.2550 N   0  0  0  0  0  0  0  0  0  0  0  0
   -4.2110   24.6450  -30.3310 C   0  0  0  0  0  0  0  0  0  0  0  0
   -3.0150   24.9230  -30.0520 O   0  0  0  0  0  0  0  0  0  0  0  0
   -5.2280   25.3020  -29.7100 N   0  0  0  0  0  0  0  0  0  0  0  0
   -7.8633   23.7559  -31.1730 H   0  0  0  0  0  0  0  0  0  0  0  0
   -5.4680   22.3750  -33.4530 H   0  0  0  0  0  0  0  0  0  0  0  0
   -5.4073   19.7375  -32.8897 H   0  0  0  0  0  0  0  0  0  0  0  0
   -6.9586   17.8060  -32.6007 H   0  0  0  0  0  0  0  0  0  0  0  0
   -9.3352   18.1971  -31.9401 H   0  0  0  0  0  0  0  0  0  0  0  0
  -10.1641   20.5251  -31.5764 H   0  0  0  0  0  0  0  0  0  0  0  0
   -8.6157   22.4624  -31.8587 H   0  0  0  0  0  0  0  0  0  0  0  0
   -5.0130   26.0380  -29.0000 H   0  0  0  0  0  0  0  0  0  0  0  0
  1  2  2  0
  2  3  1  0
  3  4  2  0
  4  5  1  0
  5  6  1  0
  6  7  2  0
  7  8  1  0
  8  9  2  0
  9 10  1  0
 10 11  2  0
  4 12  1  0
 12 13  1  0
 13 14  2  0
 13 15  1  0
 15  2  1  0
 11  6  1  0
  3 16  1  0
  5 17  1  0
  7 18  1  0
  8 19  1  0
  9 20  1  0
 10 21  1  0
 11 22  1  0
 15 23  1  0
M  CHG  1  12  -1
M  END
>  <UniqueID>  (31) 
29

>  <SMILES>  (31) 
O=c1cc(Nc2ccccc2)[n-]c(=O)[nH]1

>  <Energy>  (31) 
30.006276736403237

>  <Genealogy>  (31) 
O=c1cc(Nc2ccccc2)[n-]c(=O)[nH]1 (protonated)
O=c1cc(Nc2ccccc2)[n-]c(=O)[nH]1 (3D coordinates assigned)
O=c1cc(Nc2ccccc2)[n-]c(=O)[nH]1 (optimized conformer: 30.006276736403237 kcal/mol)

>  <smiles>  (31) 
O=c1cc(Nc2ccccc2)[nH]c(=O)[nH]1

>  <score_type>  (31) 
oracle

>  <origin>  (31) 
adgpu

>  <m_score__min__energy>  (31) 
-7.9500000000000002

>  <m_primary>  (31) 
energy

$$$$
31:0
     RDKit          3D

 31 33  0  0  0  0  0  0  0  0999 V2000
   -8.0287   18.4813  -32.9773 H   0  0  0  0  0  0  0  0  0  0  0  0
   -8.0080   19.5140  -32.5990 C   0  0  0  0  0  0  0  0  0  0  0  0
   -9.0940   20.0250  -31.9610 N   0  0  0  0  0  0  0  0  0  0  0  0
   -9.1060   21.2970  -31.4810 C   0  0  0  0  0  0  0  0  0  0  0  0
  -10.0004   21.6827  -30.9699 H   0  0  0  0  0  0  0  0  0  0  0  0
   -7.9840   22.1150  -31.6360 C   0  0  0  0  0  0  0  0  0  0  0  0
   -7.9920   23.1453  -31.2508 H   0  0  0  0  0  0  0  0  0  0  0  0
   -6.8480   21.6130  -32.2860 C   0  0  0  0  0  0  0  0  0  0  0  0
   -5.6400   22.4900  -32.4790 C   0  0  0  0  0  0  0  0  0  0  0  0
   -5.9647   23.5363  -32.5785 H   0  0  0  0  0  0  0  0  0  0  0  0
   -5.1094   22.1691  -33.3876 H   0  0  0  0  0  0  0  0  0  0  0  0
   -4.7340   22.3740  -31.3370 N   0  0  0  0  0  0  0  0  0  0  0  0
   -4.2560   23.3850  -30.6760 C   0  0  0  0  0  0  0  0  0  0  0  0
   -3.4300   23.2410  -29.6220 N   0  0  0  0  0  0  0  0  0  0  0  0
   -3.2020   24.5240  -29.2690 C   0  0  0  0  0  0  0  0  0  0  0  0
   -2.3320   24.9150  -28.1300 C   0  0  0  0  0  0  0  0  0  0  0  0
   -0.9930   25.2810  -28.3680 C   0  0  0  0  0  0  0  0  0  0  0  0
   -0.6000   25.2751  -29.3954 H   0  0  0  0  0  0  0  0  0  0  0  0
   -0.1590   25.6520  -27.3080 C   0  0  0  0  0  0  0  0  0  0  0  0
    0.8857   25.9348  -27.5044 H   0  0  0  0  0  0  0  0  0  0  0  0
   -0.6500   25.6640  -26.0020 C   0  0  0  0  0  0  0  0  0  0  0  0
    0.0072   25.9572  -25.1701 H   0  0  0  0  0  0  0  0  0  0  0  0
   -1.9750   25.3040  -25.7510 C   0  0  0  0  0  0  0  0  0  0  0  0
   -2.3602   25.3134  -24.7207 H   0  0  0  0  0  0  0  0  0  0  0  0
   -2.8150   24.9310  -26.8070 C   0  0  0  0  0  0  0  0  0  0  0  0
   -3.8583   24.6488  -26.6023 H   0  0  0  0  0  0  0  0  0  0  0  0
   -3.8600   25.3810  -30.0770 N   0  0  0  0  0  0  0  0  0  0  0  0
   -3.8700   26.4230  -30.0410 H   0  0  0  0  0  0  0  0  0  0  0  0
   -4.5270   24.6720  -30.9680 N   0  0  0  0  0  0  0  0  0  0  0  0
   -6.8650   20.2990  -32.7750 C   0  0  0  0  0  0  0  0  0  0  0  0
   -5.9855   19.8891  -33.2932 H   0  0  0  0  0  0  0  0  0  0  0  0
  1  2  1  0
  2  3  2  0
  3  4  1  0
  4  5  1  0
  4  6  2  0
  6  7  1  0
  6  8  1  0
  8  9  1  0
  9 10  1  0
  9 11  1  0
  9 12  1  0
 12 13  2  0
 13 14  1  0
 14 15  2  0
 15 16  1  0
 16 17  2  0
 17 18  1  0
 17 19  1  0
 19 20  1  0
 19 21  2  0
 21 22  1  0
 21 23  1  0
 23 24  1  0
 23 25  2  0
 25 26  1  0
 15 27  1  0
 27 28  1  0
 27 29  1  0
  8 30  2  0
 30 31  1  0
 30  2  1  0
 29 13  1  0
 25 16  1  0
M  CHG  1  29  -1
M  END
>  <UniqueID>  (32) 
30

>  <SMILES>  (32) 
c1ccc(-c2n/c(=N/Cc3ccncc3)[n-][nH]2)cc1

>  <Energy>  (32) 
68.08132892612568

>  <Genealogy>  (32) 
c1ccc(-c2nc(=NCc3ccncc3)[n-][nH]2)cc1 (protonated)
c1ccc(-c2n/c(=N/Cc3ccncc3)[n-][nH]2)cc1 (cis-trans isomerization)
c1ccc(-c2n/c(=N/Cc3ccncc3)[n-][nH]2)cc1 (3D coordinates assigned)
c1ccc(-c2n/c(=N/Cc3ccncc3)[n-][nH]2)cc1 (optimized conformer: 68.08132892612568 kcal/mol)

>  <smiles>  (32) 
c1ccc(-c2nc(=NCc3ccncc3)[nH][nH]2)cc1

>  <score_type>  (32) 
oracle

>  <origin>  (32) 
adgpu

>  <m_score__min__energy>  (32) 
-8.2699999999999996

>  <m_primary>  (32) 
energy

$$$$
32:0
     RDKit          3D

 57 60  0  0  0  0  0  0  0  0999 V2000
   -2.3690   20.5130  -27.0100 C   0  0  0  0  0  0  0  0  0  0  0  0
   -2.1780   21.8560  -27.6520 C   0  0  0  0  0  0  0  0  0  0  0  0
   -1.2480   22.7610  -27.1250 C   0  0  0  0  0  0  0  0  0  0  0  0
   -1.0930   24.0220  -27.7010 C   0  0  0  0  0  0  0  0  0  0  0  0
   -1.8740   24.4040  -28.7990 C   0  0  0  0  0  0  0  0  0  0  0  0
   -1.6760   25.6690  -29.3420 O   0  0  0  0  0  0  0  0  0  0  0  0
   -2.8400   23.5150  -29.3270 C   0  0  0  0  0  0  0  0  0  0  0  0
   -3.7230   23.8890  -30.4650 C   0  0  0  0  0  0  0  0  0  0  0  0
   -3.8050   25.0970  -30.8200 O   0  0  0  0  0  0  0  0  0  0  0  0
   -4.5110   22.8950  -31.1360 N   0  0  0  0  0  0  0  0  0  0  0  0
   -4.0420   21.9240  -32.0820 C   0  0  0  0  0  0  0  0  0  0  0  0
   -2.7230   21.9560  -32.5740 C   0  0  0  0  0  0  0  0  0  0  0  0
   -2.2700   20.9690  -33.4570 C   0  0  0  0  0  0  0  0  0  0  0  0
   -0.6070   21.0040  -34.0370 S   0  0  0  0  0  0  0  0  0  0  0  0
   -0.3760   19.8790  -35.0080 O   0  0  0  0  0  0  0  0  0  0  0  0
   -0.3750   22.3020  -34.7560 O   0  0  0  0  0  0  0  0  0  0  0  0
    0.5300   20.8740  -32.7350 N   0  0  0  0  0  0  0  0  0  0  0  0
    0.3210   20.0430  -31.5900 C   0  0  0  0  0  0  0  0  0  0  0  0
   -0.1220   20.5810  -30.3700 C   0  0  0  0  0  0  0  0  0  0  0  0
   -0.2980   19.7500  -29.2590 C   0  0  0  0  0  0  0  0  0  0  0  0
   -0.0200   18.3820  -29.3560 C   0  0  0  0  0  0  0  0  0  0  0  0
    0.4430   17.8460  -30.5620 C   0  0  0  0  0  0  0  0  0  0  0  0
    0.6240   18.6760  -31.6740 C   0  0  0  0  0  0  0  0  0  0  0  0
   -3.1280   19.9310  -33.8370 C   0  0  0  0  0  0  0  0  0  0  0  0
   -4.4270   19.8740  -33.3310 C   0  0  0  0  0  0  0  0  0  0  0  0
   -4.8910   20.8630  -32.4530 C   0  0  0  0  0  0  0  0  0  0  0  0
   -6.2310   20.7820  -31.9420 N   0  0  0  0  0  0  0  0  0  0  0  0
   -7.0640   21.9920  -31.8990 C   0  0  0  0  0  0  0  0  0  0  0  0
   -8.5290   21.6530  -31.5920 C   0  0  0  0  0  0  0  0  0  0  0  0
   -9.0090   20.4930  -32.4730 C   0  0  0  0  0  0  0  0  0  0  0  0
   -8.1020   19.2420  -32.3920 C   0  0  0  0  0  0  0  0  0  0  0  0
   -6.8060   19.4760  -31.6000 C   0  0  0  0  0  0  0  0  0  0  0  0
   -2.9790   22.2410  -28.7370 C   0  0  0  0  0  0  0  0  0  0  0  0
   -2.3532   20.6241  -25.9157 H   0  0  0  0  0  0  0  0  0  0  0  0
   -3.3361   20.0917  -27.3219 H   0  0  0  0  0  0  0  0  0  0  0  0
   -1.5577   19.8388  -27.3219 H   0  0  0  0  0  0  0  0  0  0  0  0
   -0.6383   22.4767  -26.2547 H   0  0  0  0  0  0  0  0  0  0  0  0
   -0.3512   24.7222  -27.2894 H   0  0  0  0  0  0  0  0  0  0  0  0
   -2.0435   22.7628  -32.2620 H   0  0  0  0  0  0  0  0  0  0  0  0
   -0.3308   21.6579  -30.2886 H   0  0  0  0  0  0  0  0  0  0  0  0
   -0.6553   20.1721  -28.3081 H   0  0  0  0  0  0  0  0  0  0  0  0
   -0.1656   17.7281  -28.4836 H   0  0  0  0  0  0  0  0  0  0  0  0
    0.6650   16.7712  -30.6365 H   0  0  0  0  0  0  0  0  0  0  0  0
    1.0049   18.2554  -32.6164 H   0  0  0  0  0  0  0  0  0  0  0  0
   -2.7774   19.1579  -34.5365 H   0  0  0  0  0  0  0  0  0  0  0  0
   -5.0914   19.0474  -33.6231 H   0  0  0  0  0  0  0  0  0  0  0  0
   -6.6804   22.6629  -31.1163 H   0  0  0  0  0  0  0  0  0  0  0  0
   -7.0204   22.4774  -32.8852 H   0  0  0  0  0  0  0  0  0  0  0  0
   -8.6198   21.3655  -30.5341 H   0  0  0  0  0  0  0  0  0  0  0  0
   -9.1494   22.5373  -31.7998 H   0  0  0  0  0  0  0  0  0  0  0  0
  -10.0229   20.2096  -32.1540 H   0  0  0  0  0  0  0  0  0  0  0  0
   -8.9834   20.8451  -33.5148 H   0  0  0  0  0  0  0  0  0  0  0  0
   -8.6666   18.4333  -31.9050 H   0  0  0  0  0  0  0  0  0  0  0  0
   -7.8109   18.9857  -33.4213 H   0  0  0  0  0  0  0  0  0  0  0  0
   -7.0284   19.4478  -30.5231 H   0  0  0  0  0  0  0  0  0  0  0  0
   -6.0825   18.6877  -31.8552 H   0  0  0  0  0  0  0  0  0  0  0  0
   -3.7270   21.5390  -29.1340 H   0  0  0  0  0  0  0  0  0  0  0  0
  1  2  1  0
  2  3  2  0
  3  4  1  0
  4  5  2  0
  5  6  1  0
  5  7  1  0
  7  8  1  0
  8  9  2  0
  8 10  1  0
 10 11  1  0
 11 12  2  0
 12 13  1  0
 13 14  1  0
 14 15  2  0
 14 16  2  0
 14 17  1  0
 17 18  1  0
 18 19  2  0
 19 20  1  0
 20 21  2  0
 21 22  1  0
 22 23  2  0
 13 24  2  0
 24 25  1  0
 25 26  2  0
 26 27  1  0
 27 28  1  0
 28 29  1  0
 29 30  1  0
 30 31  1  0
 31 32  1  0
  7 33  2  0
 33  2  1  0
 26 11  1  0
 32 27  1  0
 23 18  1  0
  1 34  1  0
  1 35  1  0
  1 36  1  0
  3 37  1  0
  4 38  1  0
 12 39  1  0
 19 40  1  0
 20 41  1  0
 21 42  1  0
 22 43  1  0
 23 44  1  0
 24 45  1  0
 25 46  1  0
 28 47  1  0
 28 48  1  0
 29 49  1  0
 29 50  1  0
 30 51  1  0
 30 52  1  0
 31 53  1  0
 31 54  1  0
 32 55  1  0
 32 56  1  0
 33 57  1  0
M  CHG  3   6  -1  10  -1  17  -1
M  END
>  <UniqueID>  (33) 
31

>  <SMILES>  (33) 
Cc1ccc([O-])c(C(=O)[N-]c2cc(S(=O)(=O)[N-]c3ccccc3)ccc2N2CCCCC2)c1

>  <Energy>  (33) 
80.05987310033717

>  <Genealogy>  (33) 
Cc1ccc([O-])c(C(=O)[N-]c2cc(S(=O)(=O)[N-]c3ccccc3)ccc2N2CCCCC2)c1 (protonated)
Cc1ccc([O-])c(C(=O)[N-]c2cc(S(=O)(=O)[N-]c3ccccc3)ccc2N2CCCCC2)c1 (3D coordinates assigned)
Cc1ccc([O-])c(C(=O)[N-]c2cc(S(=O)(=O)[N-]c3ccccc3)ccc2N2CCCCC2)c1 (nonaromatic ring conformer: 80.05987310033717 kcal/mol)

>  <smiles>  (33) 
Cc1ccc(O)c(C(=O)Nc2cc(S(=O)(=O)Nc3ccccc3)ccc2N2CCCCC2)c1

>  <score_type>  (33) 
oracle

>  <origin>  (33) 
adgpu

>  <m_score__min__energy>  (33) 
-14.44

>  <m_primary>  (33) 
energy

$$$$
33:0
     RDKit          3D

 43 45  0  0  0  0  0  0  0  0999 V2000
   -0.0230   20.5260  -34.2410 C   0  0  0  0  0  0  0  0  0  0  0  0
   -1.0930   20.8770  -33.2570 C   0  0  0  0  0  0  0  0  0  0  0  0
   -0.8020   20.9500  -31.8900 C   0  0  0  0  0  0  0  0  0  0  0  0
   -1.8130   21.2930  -30.9920 C   0  0  0  0  0  0  0  0  0  0  0  0
   -3.1100   21.5520  -31.4550 C   0  0  0  0  0  0  0  0  0  0  0  0
   -4.1420   21.9150  -30.5210 N   0  0  0  0  0  0  0  0  0  0  0  0
   -5.4860   22.2460  -30.9120 C   0  0  0  0  0  0  0  0  0  0  0  0
   -6.3070   21.2610  -31.4780 C   0  0  0  0  0  0  0  0  0  0  0  0
   -7.6050   21.5600  -31.8990 C   0  0  0  0  0  0  0  0  0  0  0  0
   -8.5550   20.2690  -32.7160 S   0  0  0  0  0  0  0  0  0  0  0  0
   -7.1190   19.2100  -32.8970 C   0  0  0  0  0  0  0  0  0  0  0  0
   -6.8870   18.1800  -31.9760 C   0  0  0  0  0  0  0  0  0  0  0  0
   -5.7530   17.3700  -32.1000 C   0  0  0  0  0  0  0  0  0  0  0  0
   -4.8530   17.5820  -33.1480 C   0  0  0  0  0  0  0  0  0  0  0  0
   -5.0860   18.6050  -34.0730 C   0  0  0  0  0  0  0  0  0  0  0  0
   -6.2180   19.4190  -33.9490 C   0  0  0  0  0  0  0  0  0  0  0  0
   -8.1230   22.8550  -31.7000 C   0  0  0  0  0  0  0  0  0  0  0  0
   -9.4600   23.1950  -32.0930 N   0  0  0  0  0  0  0  0  0  0  0  0
   -7.3170   23.8330  -31.1010 C   0  0  0  0  0  0  0  0  0  0  0  0
   -6.0000   23.5440  -30.7110 C   0  0  0  0  0  0  0  0  0  0  0  0
   -5.0050   24.8230  -30.0030 S   0  0  0  0  0  0  0  0  0  0  0  0
   -3.4920   24.9050  -30.8340 N   0  0  0  0  0  0  0  0  0  0  0  0
   -4.7510   24.5420  -28.5480 O   0  0  0  0  0  0  0  0  0  0  0  0
   -5.7170   26.1410  -30.1190 O   0  0  0  0  0  0  0  0  0  0  0  0
   -3.3510   21.4930  -32.8380 C   0  0  0  0  0  0  0  0  0  0  0  0
   -2.3500   21.1590  -33.6950 N   0  0  0  0  0  0  0  0  0  0  0  0
    0.8878   20.2272  -33.7013 H   0  0  0  0  0  0  0  0  0  0  0  0
   -0.3648   19.6929  -34.8727 H   0  0  0  0  0  0  0  0  0  0  0  0
    0.1951   21.3997  -34.8727 H   0  0  0  0  0  0  0  0  0  0  0  0
    0.2147   20.7388  -31.5269 H   0  0  0  0  0  0  0  0  0  0  0  0
   -1.5913   21.3604  -29.9167 H   0  0  0  0  0  0  0  0  0  0  0  0
   -3.9110   21.9140  -29.5020 H   0  0  0  0  0  0  0  0  0  0  0  0
   -5.9232   20.2365  -31.5925 H   0  0  0  0  0  0  0  0  0  0  0  0
   -7.5976   18.0079  -31.1541 H   0  0  0  0  0  0  0  0  0  0  0  0
   -5.5697   16.5658  -31.3722 H   0  0  0  0  0  0  0  0  0  0  0  0
   -3.9618   16.9446  -33.2454 H   0  0  0  0  0  0  0  0  0  0  0  0
   -4.3787   18.7701  -34.8991 H   0  0  0  0  0  0  0  0  0  0  0  0
   -6.4000   20.2227  -34.6776 H   0  0  0  0  0  0  0  0  0  0  0  0
   -9.7750   24.1850  -32.1840 H   0  0  0  0  0  0  0  0  0  0  0  0
  -10.1520   22.4470  -32.3190 H   0  0  0  0  0  0  0  0  0  0  0  0
   -7.7226   24.8418  -30.9341 H   0  0  0  0  0  0  0  0  0  0  0  0
   -2.7950   25.2920  -30.1600 H   0  0  0  0  0  0  0  0  0  0  0  0
   -4.3542   21.7181  -33.2290 H   0  0  0  0  0  0  0  0  0  0  0  0
  1  2  1  0
  2  3  2  0
  3  4  1  0
  4  5  2  0
  5  6  1  0
  6  7  1  0
  7  8  2  0
  8  9  1  0
  9 10  1  0
 10 11  1  0
 11 12  2  0
 12 13  1  0
 13 14  2  0
 14 15  1  0
 15 16  2  0
  9 17  2  0
 17 18  1  0
 17 19  1  0
 19 20  2  0
 20 21  1  0
 21 22  1  0
 21 23  2  0
 21 24  2  0
  5 25  1  0
 25 26  2  0
 26  2  1  0
 20  7  1  0
 16 11  1  0
  1 27  1  0
  1 28  1  0
  1 29  1  0
  3 30  1  0
  4 31  1  0
  6 32  1  0
  8 33  1  0
 12 34  1  0
 13 35  1  0
 14 36  1  0
 15 37  1  0
 16 38  1  0
 18 39  1  0
 18 40  1  0
 19 41  1  0
 22 42  1  0
 25 43  1  0
M  CHG  1  22  -1
M  END
>  <UniqueID>  (34) 
32

>  <SMILES>  (34) 
Cc1ccc(Nc2cc(Sc3ccccc3)c(N)cc2S([NH-])(=O)=O)cn1

>  <Energy>  (34) 
46.09790911238612

>  <Genealogy>  (34) 
Cc1ccc(Nc2cc(Sc3ccccc3)c(N)cc2S([NH-])(=O)=O)cn1 (protonated)
Cc1ccc(Nc2cc(Sc3ccccc3)c(N)cc2S([NH-])(=O)=O)cn1 (3D coordinates assigned)
Cc1ccc(Nc2cc(Sc3ccccc3)c(N)cc2S([NH-])(=O)=O)cn1 (optimized conformer: 46.09790911238612 kcal/mol)

>  <smiles>  (34) 
Cc1ccc(Nc2cc(Sc3ccccc3)c(N)cc2S(N)(=O)=O)cn1

>  <score_type>  (34) 
oracle

>  <origin>  (34) 
adgpu

>  <m_score__min__energy>  (34) 
-10.869999999999999

>  <m_primary>  (34) 
energy

$$$$
34:0
     RDKit          3D

 70 73  0  0  0  0  0  0  0  0999 V2000
   -1.2600   20.7690  -25.7470 C   0  0  0  0  0  0  0  0  0  0  0  0
   -0.7880   20.0640  -27.0110 C   0  0  0  0  0  0  0  0  0  0  0  0
   -1.6390   20.4370  -28.1460 N   0  0  0  0  0  0  0  0  0  0  0  0
   -3.0200   20.8780  -27.9120 C   0  0  0  0  0  0  0  0  0  0  0  0
   -3.2840   22.1550  -28.6630 C   0  0  0  0  0  0  0  0  0  0  0  0
   -2.5220   23.2990  -28.3870 C   0  0  0  0  0  0  0  0  0  0  0  0
   -2.7200   24.4820  -29.1200 C   0  0  0  0  0  0  0  0  0  0  0  0
   -1.9760   25.6480  -28.8720 O   0  0  0  0  0  0  0  0  0  0  0  0
   -1.1410   25.8440  -27.7350 C   0  0  0  0  0  0  0  0  0  0  0  0
   -3.6850   24.5070  -30.1370 C   0  0  0  0  0  0  0  0  0  0  0  0
   -3.8900   25.6770  -30.8620 O   0  0  0  0  0  0  0  0  0  0  0  0
   -4.4420   23.3660  -30.4350 C   0  0  0  0  0  0  0  0  0  0  0  0
   -5.3850   23.4390  -31.4720 O   0  0  0  0  0  0  0  0  0  0  0  0
   -6.7610   23.7590  -31.2900 C   0  0  0  0  0  0  0  0  0  0  0  0
   -4.2340   22.1890  -29.6940 C   0  0  0  0  0  0  0  0  0  0  0  0
   -1.1230   20.3780  -29.4890 C   0  0  0  0  0  0  0  0  0  0  0  0
   -0.7450   19.1460  -30.0440 C   0  0  0  0  0  0  0  0  0  0  0  0
   -0.2180   19.0870  -31.3360 C   0  0  0  0  0  0  0  0  0  0  0  0
   -0.0630   20.2560  -32.0930 C   0  0  0  0  0  0  0  0  0  0  0  0
    0.5840   20.1680  -33.7290 S   0  0  0  0  0  0  0  0  0  0  0  0
    1.1690   21.4960  -34.1180 O   0  0  0  0  0  0  0  0  0  0  0  0
    1.6700   19.1340  -33.7900 O   0  0  0  0  0  0  0  0  0  0  0  0
   -0.6900   19.7860  -34.8410 N   0  0  0  0  0  0  0  0  0  0  0  0
   -1.8920   19.1420  -34.4100 C   0  0  0  0  0  0  0  0  0  0  0  0
   -2.2050   17.7950  -34.5210 C   0  0  0  0  0  0  0  0  0  0  0  0
   -1.3520   16.7330  -35.1510 C   0  0  0  0  0  0  0  0  0  0  0  0
   -3.4600   17.6050  -34.0400 N   0  0  0  0  0  0  0  0  0  0  0  0
   -4.1910   16.3370  -33.9910 C   0  0  0  0  0  0  0  0  0  0  0  0
   -3.9450   18.7790  -33.6360 N   0  0  0  0  0  0  0  0  0  0  0  0
   -5.2520   19.0020  -33.0830 C   0  0  0  0  0  0  0  0  0  0  0  0
   -5.7520   18.1490  -32.0870 C   0  0  0  0  0  0  0  0  0  0  0  0
   -7.0190   18.3730  -31.5390 C   0  0  0  0  0  0  0  0  0  0  0  0
   -7.7890   19.4540  -31.9780 C   0  0  0  0  0  0  0  0  0  0  0  0
   -7.2910   20.3160  -32.9590 C   0  0  0  0  0  0  0  0  0  0  0  0
   -6.0260   20.0930  -33.5090 C   0  0  0  0  0  0  0  0  0  0  0  0
   -3.0070   19.7230  -33.8440 C   0  0  0  0  0  0  0  0  0  0  0  0
   -3.1460   20.9410  -33.5550 O   0  0  0  0  0  0  0  0  0  0  0  0
   -0.4210   21.4900  -31.5330 C   0  0  0  0  0  0  0  0  0  0  0  0
   -0.9440   21.5500  -30.2380 C   0  0  0  0  0  0  0  0  0  0  0  0
   -0.8946   20.2233  -24.8646 H   0  0  0  0  0  0  0  0  0  0  0  0
   -0.8669   21.7962  -25.7315 H   0  0  0  0  0  0  0  0  0  0  0  0
   -2.3595   20.7969  -25.7315 H   0  0  0  0  0  0  0  0  0  0  0  0
    0.2508   20.3565  -27.2240 H   0  0  0  0  0  0  0  0  0  0  0  0
   -0.8479   18.9762  -26.8593 H   0  0  0  0  0  0  0  0  0  0  0  0
   -3.7153   20.0998  -28.2599 H   0  0  0  0  0  0  0  0  0  0  0  0
   -3.1667   21.0536  -26.8361 H   0  0  0  0  0  0  0  0  0  0  0  0
   -1.7635   23.2706  -27.5909 H   0  0  0  0  0  0  0  0  0  0  0  0
   -1.7321   25.7053  -26.8177 H   0  0  0  0  0  0  0  0  0  0  0  0
   -0.3178   25.1147  -27.7546 H   0  0  0  0  0  0  0  0  0  0  0  0
   -0.7283   26.8634  -27.7546 H   0  0  0  0  0  0  0  0  0  0  0  0
   -6.9861   23.8114  -30.2146 H   0  0  0  0  0  0  0  0  0  0  0  0
   -6.9763   24.7312  -31.7574 H   0  0  0  0  0  0  0  0  0  0  0  0
   -7.3832   22.9816  -31.7574 H   0  0  0  0  0  0  0  0  0  0  0  0
   -4.8211   21.2879  -29.9249 H   0  0  0  0  0  0  0  0  0  0  0  0
   -0.8643   18.2223  -29.4587 H   0  0  0  0  0  0  0  0  0  0  0  0
    0.0773   18.1168  -31.7621 H   0  0  0  0  0  0  0  0  0  0  0  0
   -0.6990   20.3040  -35.7480 H   0  0  0  0  0  0  0  0  0  0  0  0
   -0.8710   16.1341  -34.3636 H   0  0  0  0  0  0  0  0  0  0  0  0
   -1.9801   16.0808  -35.7756 H   0  0  0  0  0  0  0  0  0  0  0  0
   -0.5797   17.2057  -35.7756 H   0  0  0  0  0  0  0  0  0  0  0  0
   -4.3567   16.0496  -32.9422 H   0  0  0  0  0  0  0  0  0  0  0  0
   -5.1608   16.4531  -34.4970 H   0  0  0  0  0  0  0  0  0  0  0  0
   -3.6046   15.5559  -34.4970 H   0  0  0  0  0  0  0  0  0  0  0  0
   -5.1452   17.3013  -31.7361 H   0  0  0  0  0  0  0  0  0  0  0  0
   -7.4096   17.6987  -30.7626 H   0  0  0  0  0  0  0  0  0  0  0  0
   -8.7879   19.6264  -31.5509 H   0  0  0  0  0  0  0  0  0  0  0  0
   -7.8952   21.1703  -33.2983 H   0  0  0  0  0  0  0  0  0  0  0  0
   -5.6352   20.7748  -34.2786 H   0  0  0  0  0  0  0  0  0  0  0  0
   -0.2900   22.4145  -32.1146 H   0  0  0  0  0  0  0  0  0  0  0  0
   -1.2170   22.5230  -29.8036 H   0  0  0  0  0  0  0  0  0  0  0  0
  1  2  1  0
  2  3  1  0
  3  4  1  0
  4  5  1  0
  5  6  2  0
  6  7  1  0
  7  8  1  0
  8  9  1  0
  7 10  2  0
 10 11  1  0
 10 12  1  0
 12 13  1  0
 13 14  1  0
 12 15  2  0
  3 16  1  0
 16 17  2  0
 17 18  1  0
 18 19  2  0
 19 20  1  0
 20 21  2  0
 20 22  2  0
 20 23  1  0
 23 24  1  0
 24 25  2  0
 25 26  1  0
 25 27  1  0
 27 28  1  0
 27 29  1  0
 29 30  1  0
 30 31  2  0
 31 32  1  0
 32 33  2  0
 33 34  1  0
 34 35  2  0
 29 36  1  0
 36 37  2  0
 19 38  1  0
 38 39  2  0
 15  5  1  0
 39 16  1  0
 36 24  1  0
 35 30  1  0
  1 40  1  0
  1 41  1  0
  1 42  1  0
  2 43  1  0
  2 44  1  0
  4 45  1  0
  4 46  1  0
  6 47  1  0
  9 48  1  0
  9 49  1  0
  9 50  1  0
 14 51  1  0
 14 52  1  0
 14 53  1  0
 15 54  1  0
 17 55  1  0
 18 56  1  0
 23 57  1  0
 26 58  1  0
 26 59  1  0
 26 60  1  0
 28 61  1  0
 28 62  1  0
 28 63  1  0
 31 64  1  0
 32 65  1  0
 33 66  1  0
 34 67  1  0
 35 68  1  0
 38 69  1  0
 39 70  1  0
M  CHG  1  11  -1
M  END
>  <UniqueID>  (35) 
33

>  <SMILES>  (35) 
CCN(Cc1cc(OC)c([O-])c(OC)c1)c1ccc(S(=O)(=O)Nc2c(C)n(C)n(-c3ccccc3)c2=O)cc1

>  <Energy>  (35) 
118.38271158564756

>  <Genealogy>  (35) 
CCN(Cc1cc(OC)c([O-])c(OC)c1)c1ccc(S(=O)(=O)Nc2c(C)n(C)n(-c3ccccc3)c2=O)cc1 (protonated)
CCN(Cc1cc(OC)c([O-])c(OC)c1)c1ccc(S(=O)(=O)Nc2c(C)n(C)n(-c3ccccc3)c2=O)cc1 (3D coordinates assigned)
CCN(Cc1cc(OC)c([O-])c(OC)c1)c1ccc(S(=O)(=O)Nc2c(C)n(C)n(-c3ccccc3)c2=O)cc1 (optimized conformer: 118.38271158564756 kcal/mol)

>  <smiles>  (35) 
CCN(Cc1cc(OC)c(O)c(OC)c1)c1ccc(S(=O)(=O)Nc2c(C)n(C)n(-c3ccccc3)c2=O)cc1

>  <score_type>  (35) 
oracle

>  <origin>  (35) 
adgpu

>  <m_score__min__energy>  (35) 
-14.43

>  <m_primary>  (35) 
energy

$$$$
35:0
     RDKit          3D

 50 54  0  0  0  0  0  0  0  0999 V2000
   -8.5922   23.1995  -32.0378 H   0  0  0  0  0  0  0  0  0  0  0  0
   -7.6300   22.7240  -31.7970 C   0  0  0  0  0  0  0  0  0  0  0  0
   -6.5840   23.3290  -31.2080 N   0  0  0  0  0  0  0  0  0  0  0  0
   -5.6490   22.3570  -31.1130 C   0  0  0  0  0  0  0  0  0  0  0  0
   -4.3130   22.5720  -30.5120 C   0  0  0  0  0  0  0  0  0  0  0  0
   -3.3760   21.5320  -30.4710 C   0  0  0  0  0  0  0  0  0  0  0  0
   -3.6352   20.5500  -30.8934 H   0  0  0  0  0  0  0  0  0  0  0  0
   -2.1160   21.7270  -29.9000 C   0  0  0  0  0  0  0  0  0  0  0  0
   -1.3811   20.9087  -29.9144 H   0  0  0  0  0  0  0  0  0  0  0  0
   -1.7730   22.9620  -29.3040 C   0  0  0  0  0  0  0  0  0  0  0  0
   -0.5200   23.2250  -28.6640 C   0  0  0  0  0  0  0  0  0  0  0  0
    0.3330   22.3160  -28.2670 N   0  0  0  0  0  0  0  0  0  0  0  0
    0.1660   20.8980  -28.1090 C   0  0  0  0  0  0  0  0  0  0  0  0
    0.8690   20.0080  -28.9380 C   0  0  0  0  0  0  0  0  0  0  0  0
    1.5784   20.3984  -29.6825 H   0  0  0  0  0  0  0  0  0  0  0  0
    0.6720   18.6300  -28.8220 C   0  0  0  0  0  0  0  0  0  0  0  0
    1.2410   17.9374  -29.4596 H   0  0  0  0  0  0  0  0  0  0  0  0
   -0.2470   18.1320  -27.8970 C   0  0  0  0  0  0  0  0  0  0  0  0
   -0.3962   17.0464  -27.8014 H   0  0  0  0  0  0  0  0  0  0  0  0
   -0.9780   19.0100  -27.0920 C   0  0  0  0  0  0  0  0  0  0  0  0
   -1.7057   18.6119  -26.3695 H   0  0  0  0  0  0  0  0  0  0  0  0
   -0.7890   20.3990  -27.2000 C   0  0  0  0  0  0  0  0  0  0  0  0
   -1.5780   21.3370  -26.3310 C   0  0  0  0  0  0  0  0  0  0  0  0
   -1.3844   21.1069  -25.2729 H   0  0  0  0  0  0  0  0  0  0  0  0
   -1.2763   22.3736  -26.5419 H   0  0  0  0  0  0  0  0  0  0  0  0
   -2.6509   21.2173  -26.5419 H   0  0  0  0  0  0  0  0  0  0  0  0
   -0.1790   24.5570  -28.3870 C   0  0  0  0  0  0  0  0  0  0  0  0
    0.8264   24.7964  -28.0105 H   0  0  0  0  0  0  0  0  0  0  0  0
   -1.1030   25.5770  -28.5850 C   0  0  0  0  0  0  0  0  0  0  0  0
   -0.8358   26.6149  -28.3373 H   0  0  0  0  0  0  0  0  0  0  0  0
   -2.3310   25.2960  -29.0820 N   0  0  0  0  0  0  0  0  0  0  0  0
   -2.6880   24.0380  -29.4490 C   0  0  0  0  0  0  0  0  0  0  0  0
   -3.9520   23.8310  -30.0140 C   0  0  0  0  0  0  0  0  0  0  0  0
   -4.6682   24.6642  -30.0675 H   0  0  0  0  0  0  0  0  0  0  0  0
   -6.0540   21.1680  -31.6100 N   0  0  0  0  0  0  0  0  0  0  0  0
   -7.3000   21.4140  -32.0490 C   0  0  0  0  0  0  0  0  0  0  0  0
   -8.2050   20.3740  -32.6280 C   0  0  0  0  0  0  0  0  0  0  0  0
   -8.9163   20.0405  -31.8580 H   0  0  0  0  0  0  0  0  0  0  0  0
   -8.7519   20.8049  -33.4796 H   0  0  0  0  0  0  0  0  0  0  0  0
   -7.3980   19.1970  -33.1040 C   0  0  0  0  0  0  0  0  0  0  0  0
   -7.6520   17.9120  -32.5950 C   0  0  0  0  0  0  0  0  0  0  0  0
   -8.4233   17.7698  -31.8237 H   0  0  0  0  0  0  0  0  0  0  0  0
   -6.9260   16.8130  -33.0670 C   0  0  0  0  0  0  0  0  0  0  0  0
   -7.1235   15.8093  -32.6625 H   0  0  0  0  0  0  0  0  0  0  0  0
   -5.9500   16.9890  -34.0520 C   0  0  0  0  0  0  0  0  0  0  0  0
   -5.3766   16.1245  -34.4179 H   0  0  0  0  0  0  0  0  0  0  0  0
   -5.7020   18.2610  -34.5720 C   0  0  0  0  0  0  0  0  0  0  0  0
   -4.9367   18.3965  -35.3504 H   0  0  0  0  0  0  0  0  0  0  0  0
   -6.4260   19.3640  -34.1040 C   0  0  0  0  0  0  0  0  0  0  0  0
   -6.2332   20.3637  -34.5204 H   0  0  0  0  0  0  0  0  0  0  0  0
  1  2  1  0
  2  3  1  0
  3  4  1  0
  4  5  1  0
  5  6  2  0
  6  7  1  0
  6  8  1  0
  8  9  1  0
  8 10  2  0
 10 11  1  0
 11 12  2  0
 12 13  1  0
 13 14  2  0
 14 15  1  0
 14 16  1  0
 16 17  1  0
 16 18  2  0
 18 19  1  0
 18 20  1  0
 20 21  1  0
 20 22  2  0
 22 23  1  0
 23 24  1  0
 23 25  1  0
 23 26  1  0
 11 27  1  0
 27 28  1  0
 27 29  2  0
 29 30  1  0
 29 31  1  0
 31 32  1  0
 32 33  2  0
 33 34  1  0
  4 35  2  0
 35 36  1  0
 36 37  1  0
 37 38  1  0
 37 39  1  0
 37 40  1  0
 40 41  2  0
 41 42  1  0
 41 43  1  0
 43 44  1  0
 43 45  2  0
 45 46  1  0
 45 47  1  0
 47 48  1  0
 47 49  2  0
 49 50  1  0
 36  2  2  0
 49 40  1  0
 33  5  1  0
 32 10  1  0
 22 13  1  0
M  CHG  2   3  -1  31  -1
M  END
>  <UniqueID>  (36) 
34

>  <SMILES>  (36) 
Cc1ccccc1/N=c1/cc[n-]c2cc(-c3nc(Cc4ccccc4)c[n-]3)ccc12

>  <Energy>  (36) 
106.00962015816509

>  <Genealogy>  (36) 
Cc1ccccc1N=c1cc[n-]c2cc(-c3nc(Cc4ccccc4)c[n-]3)ccc12 (protonated)
Cc1ccccc1/N=c1/cc[n-]c2cc(-c3nc(Cc4ccccc4)c[n-]3)ccc12 (cis-trans isomerization)
Cc1ccccc1/N=c1/cc[n-]c2cc(-c3nc(Cc4ccccc4)c[n-]3)ccc12 (3D coordinates assigned)
Cc1ccccc1/N=c1/cc[n-]c2cc(-c3nc(Cc4ccccc4)c[n-]3)ccc12 (optimized conformer: 106.00962015816509 kcal/mol)

>  <smiles>  (36) 
Cc1ccccc1N=c1cc[nH]c2cc(-c3nc(Cc4ccccc4)c[nH]3)ccc12

>  <score_type>  (36) 
oracle

>  <origin>  (36) 
adgpu

>  <m_score__min__energy>  (36) 
-11.890000000000001

>  <m_primary>  (36) 
energy

$$$$
36:0
     RDKit          3D

 60 63  0  0  0  0  0  0  0  0999 V2000
   -0.8910   29.6070  -25.2370 C   0  0  0  0  0  0  0  0  0  0  0  0
    0.4200   29.0070  -24.6960 C   0  0  0  0  0  0  0  0  0  0  0  0
    0.1820   27.8320  -23.7170 C   0  0  0  0  0  0  0  0  0  0  0  0
   -0.7380   26.7520  -24.2970 C   0  0  0  0  0  0  0  0  0  0  0  0
   -0.3640   26.4840  -25.6520 O   0  0  0  0  0  0  0  0  0  0  0  0
   -1.1350   25.7550  -26.5680 C   0  0  0  0  0  0  0  0  0  0  0  0
   -0.8230   25.8530  -27.9290 C   0  0  0  0  0  0  0  0  0  0  0  0
   -1.5490   25.1300  -28.8800 C   0  0  0  0  0  0  0  0  0  0  0  0
   -2.5990   24.2870  -28.4850 C   0  0  0  0  0  0  0  0  0  0  0  0
   -3.2970   23.5130  -29.4790 N   0  0  0  0  0  0  0  0  0  0  0  0
   -4.1960   24.0740  -30.4540 C   0  0  0  0  0  0  0  0  0  0  0  0
   -4.0620   25.2770  -30.8060 O   0  0  0  0  0  0  0  0  0  0  0  0
   -5.2620   23.2430  -31.0710 C   0  0  0  0  0  0  0  0  0  0  0  0
   -6.5250   23.7950  -31.3390 C   0  0  0  0  0  0  0  0  0  0  0  0
   -7.5330   23.0200  -31.9140 C   0  0  0  0  0  0  0  0  0  0  0  0
   -7.3070   21.6660  -32.2260 C   0  0  0  0  0  0  0  0  0  0  0  0
   -8.2930   20.8640  -32.8260 O   0  0  0  0  0  0  0  0  0  0  0  0
   -9.4140   20.2920  -32.1650 C   0  0  0  0  0  0  0  0  0  0  0  0
   -9.7980   19.1500  -32.8400 F   0  0  0  0  0  0  0  0  0  0  0  0
   -9.0840   19.9470  -30.8680 F   0  0  0  0  0  0  0  0  0  0  0  0
  -10.4670   21.1880  -32.1550 F   0  0  0  0  0  0  0  0  0  0  0  0
   -6.0470   21.0980  -31.9460 C   0  0  0  0  0  0  0  0  0  0  0  0
   -5.7550   19.6850  -32.2830 C   0  0  0  0  0  0  0  0  0  0  0  0
   -6.6340   18.6630  -31.8970 C   0  0  0  0  0  0  0  0  0  0  0  0
   -6.3470   17.3350  -32.2140 C   0  0  0  0  0  0  0  0  0  0  0  0
   -5.1830   17.0130  -32.9180 C   0  0  0  0  0  0  0  0  0  0  0  0
   -4.2830   18.0180  -33.3080 C   0  0  0  0  0  0  0  0  0  0  0  0
   -3.0910   17.6740  -34.0470 N   0  0  0  0  0  0  0  0  0  0  0  0
   -2.9080   16.5960  -34.8420 C   0  0  0  0  0  0  0  0  0  0  0  0
   -1.6240   16.6290  -35.3410 C   0  0  0  0  0  0  0  0  0  0  0  0
   -1.0670   17.7730  -34.7990 C   0  0  0  0  0  0  0  0  0  0  0  0
   -1.9750   18.3900  -34.0190 N   0  0  0  0  0  0  0  0  0  0  0  0
   -4.5820   19.3570  -32.9840 C   0  0  0  0  0  0  0  0  0  0  0  0
   -5.0390   21.8890  -31.3700 C   0  0  0  0  0  0  0  0  0  0  0  0
   -2.8900   24.1570  -27.1140 C   0  0  0  0  0  0  0  0  0  0  0  0
   -2.1720   24.8930  -26.1640 C   0  0  0  0  0  0  0  0  0  0  0  0
   -1.5344   29.9015  -24.3948 H   0  0  0  0  0  0  0  0  0  0  0  0
   -0.6637   30.4907  -25.8513 H   0  0  0  0  0  0  0  0  0  0  0  0
   -1.4113   28.8574  -25.8513 H   0  0  0  0  0  0  0  0  0  0  0  0
    1.0163   28.6418  -25.5452 H   0  0  0  0  0  0  0  0  0  0  0  0
    0.9433   29.7998  -24.1413 H   0  0  0  0  0  0  0  0  0  0  0  0
    1.1525   27.3741  -23.4752 H   0  0  0  0  0  0  0  0  0  0  0  0
   -0.3107   28.2410  -22.8226 H   0  0  0  0  0  0  0  0  0  0  0  0
   -0.6438   25.8318  -23.7018 H   0  0  0  0  0  0  0  0  0  0  0  0
   -1.7800   27.1032  -24.2669 H   0  0  0  0  0  0  0  0  0  0  0  0
    0.0013   26.5052  -28.2533 H   0  0  0  0  0  0  0  0  0  0  0  0
   -1.2952   25.2226  -29.9463 H   0  0  0  0  0  0  0  0  0  0  0  0
   -3.0610   22.4980  -29.5570 H   0  0  0  0  0  0  0  0  0  0  0  0
   -6.7218   24.8490  -31.0932 H   0  0  0  0  0  0  0  0  0  0  0  0
   -8.5136   23.4714  -32.1255 H   0  0  0  0  0  0  0  0  0  0  0  0
   -7.5519   18.9089  -31.3430 H   0  0  0  0  0  0  0  0  0  0  0  0
   -7.0401   16.5373  -31.9085 H   0  0  0  0  0  0  0  0  0  0  0  0
   -4.9702   15.9633  -33.1687 H   0  0  0  0  0  0  0  0  0  0  0  0
   -3.6592   15.8213  -35.0551 H   0  0  0  0  0  0  0  0  0  0  0  0
   -1.1478   15.9061  -36.0197 H   0  0  0  0  0  0  0  0  0  0  0  0
   -0.0402   18.1248  -34.9776 H   0  0  0  0  0  0  0  0  0  0  0  0
   -3.8878   20.1558  -33.2839 H   0  0  0  0  0  0  0  0  0  0  0  0
   -4.0591   21.4405  -31.1496 H   0  0  0  0  0  0  0  0  0  0  0  0
   -3.6867   23.4727  -26.7870 H   0  0  0  0  0  0  0  0  0  0  0  0
   -2.4194   24.7973  -25.0965 H   0  0  0  0  0  0  0  0  0  0  0  0
  1  2  1  0
  2  3  1  0
  3  4  1  0
  4  5  1  0
  5  6  1  0
  6  7  2  0
  7  8  1  0
  8  9  2  0
  9 10  1  0
 10 11  1  0
 11 12  2  0
 11 13  1  0
 13 14  2  0
 14 15  1  0
 15 16  2  0
 16 17  1  0
 17 18  1  0
 18 19  1  0
 18 20  1  0
 18 21  1  0
 16 22  1  0
 22 23  1  0
 23 24  2  0
 24 25  1  0
 25 26  2  0
 26 27  1  0
 27 28  1  0
 28 29  1  0
 29 30  2  0
 30 31  1  0
 31 32  2  0
 27 33  2  0
 22 34  2  0
  9 35  1  0
 35 36  2  0
 36  6  1  0
 34 13  1  0
 33 23  1  0
 32 28  1  0
  1 37  1  0
  1 38  1  0
  1 39  1  0
  2 40  1  0
  2 41  1  0
  3 42  1  0
  3 43  1  0
  4 44  1  0
  4 45  1  0
  7 46  1  0
  8 47  1  0
 10 48  1  0
 14 49  1  0
 15 50  1  0
 24 51  1  0
 25 52  1  0
 26 53  1  0
 29 54  1  0
 30 55  1  0
 31 56  1  0
 33 57  1  0
 34 58  1  0
 35 59  1  0
 36 60  1  0
M  END
>  <UniqueID>  (37) 
35

>  <SMILES>  (37) 
CCCCOc1ccc(NC(=O)c2ccc(OC(F)(F)F)c(-c3cccc(-n4cccn4)c3)c2)cc1

>  <Energy>  (37) 
106.28392900444216

>  <Genealogy>  (37) 
CCCCOc1ccc(NC(=O)c2ccc(OC(F)(F)F)c(-c3cccc(-n4cccn4)c3)c2)cc1 (3D coordinates assigned)
CCCCOc1ccc(NC(=O)c2ccc(OC(F)(F)F)c(-c3cccc(-n4cccn4)c3)c2)cc1 (optimized conformer: 106.28392900444216 kcal/mol)

>  <smiles>  (37) 
CCCCOc1ccc(NC(=O)c2ccc(OC(F)(F)F)c(-c3cccc(-n4cccn4)c3)c2)cc1

>  <score_type>  (37) 
oracle

>  <origin>  (37) 
adgpu

>  <m_score__min__energy>  (37) 
-9.3699999999999992

>  <m_primary>  (37) 
energy

$$$$
37:0
     RDKit          3D

 55 58  0  0  0  0  0  0  0  0999 V2000
   -0.1590   20.7330  -31.1020 C   0  0  0  0  0  0  0  0  0  0  0  0
   -0.0870   20.6610  -29.6810 O   0  0  0  0  0  0  0  0  0  0  0  0
   -1.1480   20.4390  -28.7800 C   0  0  0  0  0  0  0  0  0  0  0  0
   -1.2280   19.1540  -28.2260 C   0  0  0  0  0  0  0  0  0  0  0  0
   -2.2220   18.8260  -27.3050 C   0  0  0  0  0  0  0  0  0  0  0  0
   -3.1620   19.7800  -26.9230 C   0  0  0  0  0  0  0  0  0  0  0  0
   -3.1140   21.0630  -27.4680 C   0  0  0  0  0  0  0  0  0  0  0  0
   -2.1210   21.4090  -28.3980 C   0  0  0  0  0  0  0  0  0  0  0  0
   -2.1790   22.7690  -28.9640 C   0  0  0  0  0  0  0  0  0  0  0  0
   -1.4450   23.8670  -28.5020 C   0  0  0  0  0  0  0  0  0  0  0  0
   -0.4520   23.9230  -27.4050 C   0  0  0  0  0  0  0  0  0  0  0  0
    0.7150   24.3230  -27.6650 O   0  0  0  0  0  0  0  0  0  0  0  0
   -0.7610   23.4530  -26.0080 C   0  0  0  0  0  0  0  0  0  0  0  0
   -0.9940   24.6360  -25.0430 C   0  0  0  0  0  0  0  0  0  0  0  0
   -2.0080   25.6180  -25.6460 C   0  0  0  0  0  0  0  0  0  0  0  0
    0.3150   25.3710  -24.7170 C   0  0  0  0  0  0  0  0  0  0  0  0
   -1.9980   24.9700  -29.1220 C   0  0  0  0  0  0  0  0  0  0  0  0
   -1.6070   26.2930  -28.9540 O   0  0  0  0  0  0  0  0  0  0  0  0
   -3.0340   24.5280  -29.9080 C   0  0  0  0  0  0  0  0  0  0  0  0
   -3.8660   25.3350  -30.6820 O   0  0  0  0  0  0  0  0  0  0  0  0
   -3.1630   23.1890  -29.8040 N   0  0  0  0  0  0  0  0  0  0  0  0
   -4.2830   22.4170  -30.2820 C   0  0  0  0  0  0  0  0  0  0  0  0
   -4.0630   21.2380  -31.0130 C   0  0  0  0  0  0  0  0  0  0  0  0
   -5.1400   20.4970  -31.5070 C   0  0  0  0  0  0  0  0  0  0  0  0
   -6.4610   20.9200  -31.2800 C   0  0  0  0  0  0  0  0  0  0  0  0
   -7.6170   20.1530  -31.8050 C   0  0  0  0  0  0  0  0  0  0  0  0
   -7.8830   18.8070  -31.6190 C   0  0  0  0  0  0  0  0  0  0  0  0
   -9.0580   18.6000  -32.3060 C   0  0  0  0  0  0  0  0  0  0  0  0
   -9.4330   19.7380  -32.8420 O   0  0  0  0  0  0  0  0  0  0  0  0
   -8.5930   20.6920  -32.5620 N   0  0  0  0  0  0  0  0  0  0  0  0
   -6.6780   22.0980  -30.5440 C   0  0  0  0  0  0  0  0  0  0  0  0
   -5.6000   22.8370  -30.0500 C   0  0  0  0  0  0  0  0  0  0  0  0
   -0.9090   21.4830  -31.3936 H   0  0  0  0  0  0  0  0  0  0  0  0
    0.8233   21.0209  -31.5048 H   0  0  0  0  0  0  0  0  0  0  0  0
   -0.4469   19.7507  -31.5048 H   0  0  0  0  0  0  0  0  0  0  0  0
   -0.4936   18.3909  -28.5231 H   0  0  0  0  0  0  0  0  0  0  0  0
   -2.2638   17.8125  -26.8795 H   0  0  0  0  0  0  0  0  0  0  0  0
   -3.9421   19.5217  -26.1917 H   0  0  0  0  0  0  0  0  0  0  0  0
   -3.8617   21.8112  -27.1661 H   0  0  0  0  0  0  0  0  0  0  0  0
   -1.6678   22.8309  -26.0341 H   0  0  0  0  0  0  0  0  0  0  0  0
    0.1025   22.8782  -25.6419 H   0  0  0  0  0  0  0  0  0  0  0  0
   -1.3932   24.2254  -24.1038 H   0  0  0  0  0  0  0  0  0  0  0  0
   -2.5429   26.1360  -24.8363 H   0  0  0  0  0  0  0  0  0  0  0  0
   -1.4791   26.3560  -26.2669 H   0  0  0  0  0  0  0  0  0  0  0  0
   -2.7287   25.0657  -26.2669 H   0  0  0  0  0  0  0  0  0  0  0  0
    0.4355   25.4387  -23.6257 H   0  0  0  0  0  0  0  0  0  0  0  0
    1.1631   24.8172  -25.1459 H   0  0  0  0  0  0  0  0  0  0  0  0
    0.2837   26.3834  -25.1459 H   0  0  0  0  0  0  0  0  0  0  0  0
   -3.5690   25.6710  -31.5890 H   0  0  0  0  0  0  0  0  0  0  0  0
   -3.0344   20.8950  -31.1982 H   0  0  0  0  0  0  0  0  0  0  0  0
   -4.9524   19.5756  -32.0779 H   0  0  0  0  0  0  0  0  0  0  0  0
   -7.2917   18.0723  -31.0528 H   0  0  0  0  0  0  0  0  0  0  0  0
   -9.5925   17.6424  -32.3913 H   0  0  0  0  0  0  0  0  0  0  0  0
   -7.7060   22.4411  -30.3553 H   0  0  0  0  0  0  0  0  0  0  0  0
   -5.7863   23.7557  -29.4744 H   0  0  0  0  0  0  0  0  0  0  0  0
  1  2  1  0
  2  3  1  0
  3  4  2  0
  4  5  1  0
  5  6  2  0
  6  7  1  0
  7  8  2  0
  8  9  1  0
  9 10  2  0
 10 11  1  0
 11 12  2  0
 11 13  1  0
 13 14  1  0
 14 15  1  0
 14 16  1  0
 10 17  1  0
 17 18  1  0
 17 19  2  0
 19 20  1  0
 19 21  1  0
 21 22  1  0
 22 23  2  0
 23 24  1  0
 24 25  2  0
 25 26  1  0
 26 27  1  0
 27 28  2  0
 28 29  1  0
 29 30  1  0
 25 31  1  0
 31 32  2  0
  8  3  1  0
 21  9  1  0
 32 22  1  0
 30 26  2  0
  1 33  1  0
  1 34  1  0
  1 35  1  0
  4 36  1  0
  5 37  1  0
  6 38  1  0
  7 39  1  0
 13 40  1  0
 13 41  1  0
 14 42  1  0
 15 43  1  0
 15 44  1  0
 15 45  1  0
 16 46  1  0
 16 47  1  0
 16 48  1  0
 20 49  1  0
 23 50  1  0
 24 51  1  0
 27 52  1  0
 28 53  1  0
 31 54  1  0
 32 55  1  0
M  CHG  1  18  -1
M  END
>  <UniqueID>  (38) 
36

>  <SMILES>  (38) 
COc1ccccc1-c1c(C(=O)CC(C)C)c([O-])c(O)n1-c1ccc(-c2ccon2)cc1

>  <Energy>  (38) 
133.5510305453819

>  <Genealogy>  (38) 
COc1ccccc1-c1c(C(=O)CC(C)C)c([O-])c(O)n1-c1ccc(-c2ccon2)cc1 (protonated)
COc1ccccc1-c1c(C(=O)CC(C)C)c([O-])c(O)n1-c1ccc(-c2ccon2)cc1 (3D coordinates assigned)
COc1ccccc1-c1c(C(=O)CC(C)C)c([O-])c(O)n1-c1ccc(-c2ccon2)cc1 (optimized conformer: 133.5510305453819 kcal/mol)

>  <smiles>  (38) 
COc1ccccc1-c1c(C(=O)CC(C)C)c(O)c(O)n1-c1ccc(-c2ccon2)cc1

>  <score_type>  (38) 
oracle

>  <origin>  (38) 
adgpu

>  <m_score__min__energy>  (38) 
-12.6

>  <m_primary>  (38) 
energy

$$$$
38:0
     RDKit          3D

 43 46  0  0  0  0  0  0  0  0999 V2000
   -9.3950   21.8610  -31.2010 C   0  0  0  0  0  0  0  0  0  0  0  0
   -7.9540   22.1970  -31.4470 C   0  0  0  0  0  0  0  0  0  0  0  0
   -7.1840   21.4240  -32.3290 C   0  0  0  0  0  0  0  0  0  0  0  0
   -5.8510   21.7630  -32.5820 C   0  0  0  0  0  0  0  0  0  0  0  0
   -5.2820   22.8790  -31.9620 C   0  0  0  0  0  0  0  0  0  0  0  0
   -6.0450   23.6650  -31.0880 C   0  0  0  0  0  0  0  0  0  0  0  0
   -5.3070   25.0550  -30.3000 S   0  0  0  0  0  0  0  0  0  0  0  0
   -5.7330   25.1470  -28.8610 O   0  0  0  0  0  0  0  0  0  0  0  0
   -5.7390   26.3050  -31.0130 O   0  0  0  0  0  0  0  0  0  0  0  0
   -3.5790   24.9220  -30.3750 N   0  0  0  0  0  0  0  0  0  0  0  0
   -2.8000   23.9260  -29.6970 C   0  0  0  0  0  0  0  0  0  0  0  0
   -2.8450   23.8750  -28.2970 C   0  0  0  0  0  0  0  0  0  0  0  0
   -2.1200   22.9020  -27.6010 C   0  0  0  0  0  0  0  0  0  0  0  0
   -1.3400   21.9750  -28.2990 C   0  0  0  0  0  0  0  0  0  0  0  0
   -1.2760   22.0250  -29.6950 C   0  0  0  0  0  0  0  0  0  0  0  0
   -0.2700   20.8450  -30.5940 S   0  0  0  0  0  0  0  0  0  0  0  0
   -1.5180   20.6150  -31.8520 C   0  0  0  0  0  0  0  0  0  0  0  0
   -1.5540   21.3120  -33.0030 N   0  0  0  0  0  0  0  0  0  0  0  0
   -2.5930   20.8430  -33.6680 N   0  0  0  0  0  0  0  0  0  0  0  0
   -3.1580   19.8790  -32.9200 C   0  0  0  0  0  0  0  0  0  0  0  0
   -4.3340   19.1030  -33.3270 C   0  0  0  0  0  0  0  0  0  0  0  0
   -5.2350   18.4950  -32.4750 C   0  0  0  0  0  0  0  0  0  0  0  0
   -6.1620   17.8850  -33.2930 C   0  0  0  0  0  0  0  0  0  0  0  0
   -5.7710   18.1590  -34.5890 C   0  0  0  0  0  0  0  0  0  0  0  0
   -4.6780   18.8870  -34.5770 O   0  0  0  0  0  0  0  0  0  0  0  0
   -2.5070   19.7020  -31.7540 N   0  0  0  0  0  0  0  0  0  0  0  0
   -2.0010   23.0000  -30.3940 C   0  0  0  0  0  0  0  0  0  0  0  0
   -7.3850   23.3270  -30.8400 C   0  0  0  0  0  0  0  0  0  0  0  0
   -9.5816   21.8175  -30.1178 H   0  0  0  0  0  0  0  0  0  0  0  0
  -10.0340   22.6342  -31.6524 H   0  0  0  0  0  0  0  0  0  0  0  0
   -9.6261   20.8849  -31.6524 H   0  0  0  0  0  0  0  0  0  0  0  0
   -7.6302   20.5484  -32.8232 H   0  0  0  0  0  0  0  0  0  0  0  0
   -5.2495   21.1505  -33.2698 H   0  0  0  0  0  0  0  0  0  0  0  0
   -4.2323   23.1411  -32.1607 H   0  0  0  0  0  0  0  0  0  0  0  0
   -3.4539   24.6042  -27.7425 H   0  0  0  0  0  0  0  0  0  0  0  0
   -2.1636   22.8661  -26.5025 H   0  0  0  0  0  0  0  0  0  0  0  0
   -0.7766   21.2062  -27.7499 H   0  0  0  0  0  0  0  0  0  0  0  0
   -2.8960   21.1740  -34.6110 H   0  0  0  0  0  0  0  0  0  0  0  0
   -5.2168   18.4970  -31.3752 H   0  0  0  0  0  0  0  0  0  0  0  0
   -7.0371   17.2981  -32.9771 H   0  0  0  0  0  0  0  0  0  0  0  0
   -6.2956   17.8190  -35.4941 H   0  0  0  0  0  0  0  0  0  0  0  0
   -1.9454   23.0417  -31.4918 H   0  0  0  0  0  0  0  0  0  0  0  0
   -7.9915   23.9508  -30.1669 H   0  0  0  0  0  0  0  0  0  0  0  0
  1  2  1  0
  2  3  2  0
  3  4  1  0
  4  5  2  0
  5  6  1  0
  6  7  1  0
  7  8  2  0
  7  9  2  0
  7 10  1  0
 10 11  1  0
 11 12  2  0
 12 13  1  0
 13 14  2  0
 14 15  1  0
 15 16  1  0
 16 17  1  0
 17 18  2  0
 18 19  1  0
 19 20  1  0
 20 21  1  0
 21 22  2  0
 22 23  1  0
 23 24  2  0
 24 25  1  0
 20 26  2  0
 15 27  2  0
  6 28  2  0
 28  2  1  0
 27 11  1  0
 26 17  1  0
 25 21  1  0
  1 29  1  0
  1 30  1  0
  1 31  1  0
  3 32  1  0
  4 33  1  0
  5 34  1  0
 12 35  1  0
 13 36  1  0
 14 37  1  0
 19 38  1  0
 22 39  1  0
 23 40  1  0
 24 41  1  0
 27 42  1  0
 28 43  1  0
M  CHG  1  10  -1
M  END
>  <UniqueID>  (39) 
37

>  <SMILES>  (39) 
Cc1cccc(S(=O)(=O)[N-]c2cccc(Sc3n[nH]c(-c4ccco4)n3)c2)c1

>  <Energy>  (39) 
102.41391271106845

>  <Genealogy>  (39) 
Cc1cccc(S(=O)(=O)[N-]c2cccc(Sc3n[nH]c(-c4ccco4)n3)c2)c1 (protonated)
Cc1cccc(S(=O)(=O)[N-]c2cccc(Sc3n[nH]c(-c4ccco4)n3)c2)c1 (3D coordinates assigned)
Cc1cccc(S(=O)(=O)[N-]c2cccc(Sc3n[nH]c(-c4ccco4)n3)c2)c1 (optimized conformer: 102.41391271106845 kcal/mol)

>  <smiles>  (39) 
Cc1cccc(S(=O)(=O)Nc2cccc(Sc3n[nH]c(-c4ccco4)n3)c2)c1

>  <score_type>  (39) 
oracle

>  <origin>  (39) 
adgpu

>  <m_score__min__energy>  (39) 
-10.9

>  <m_primary>  (39) 
energy

$$$$
39:0
     RDKit          3D

 31 32  0  0  0  0  0  0  0  0999 V2000
   -0.1190   23.0460  -29.2520 C   0  0  0  0  0  0  0  0  0  0  0  0
    0.4540   24.1760  -28.6030 O   0  0  0  0  0  0  0  0  0  0  0  0
   -0.1010   24.8160  -27.4830 C   0  0  0  0  0  0  0  0  0  0  0  0
    0.5630   24.8570  -26.2410 C   0  0  0  0  0  0  0  0  0  0  0  0
   -0.0240   25.4960  -25.1480 C   0  0  0  0  0  0  0  0  0  0  0  0
   -1.2800   26.0900  -25.2760 C   0  0  0  0  0  0  0  0  0  0  0  0
   -1.9480   26.0560  -26.5010 C   0  0  0  0  0  0  0  0  0  0  0  0
   -1.3560   25.4360  -27.6170 C   0  0  0  0  0  0  0  0  0  0  0  0
   -2.0310   25.3650  -28.8830 N   0  0  0  0  0  0  0  0  0  0  0  0
   -3.1790   24.5670  -29.1900 C   0  0  0  0  0  0  0  0  0  0  0  0
   -3.7290   23.8670  -28.2980 O   0  0  0  0  0  0  0  0  0  0  0  0
   -3.7390   24.6250  -30.5080 N   0  0  0  0  0  0  0  0  0  0  0  0
   -4.8720   23.8350  -30.9010 C   0  0  0  0  0  0  0  0  0  0  0  0
   -4.6730   22.6240  -31.5930 C   0  0  0  0  0  0  0  0  0  0  0  0
   -3.0570   22.0770  -32.0180 Cl  0  0  0  0  0  0  0  0  0  0  0  0
   -5.7720   21.8490  -31.9750 C   0  0  0  0  0  0  0  0  0  0  0  0
   -7.0680   22.2620  -31.6640 C   0  0  0  0  0  0  0  0  0  0  0  0
   -7.2730   23.4500  -30.9600 C   0  0  0  0  0  0  0  0  0  0  0  0
   -6.1840   24.2370  -30.5710 C   0  0  0  0  0  0  0  0  0  0  0  0
   -6.4910   25.6810  -29.6130 Cl  0  0  0  0  0  0  0  0  0  0  0  0
   -0.4804   22.3332  -28.4961 H   0  0  0  0  0  0  0  0  0  0  0  0
   -0.9607   23.3720  -29.8807 H   0  0  0  0  0  0  0  0  0  0  0  0
    0.6414   22.5596  -29.8807 H   0  0  0  0  0  0  0  0  0  0  0  0
    1.5495   24.3827  -26.1323 H   0  0  0  0  0  0  0  0  0  0  0  0
    0.5044   25.5314  -24.1839 H   0  0  0  0  0  0  0  0  0  0  0  0
   -1.7442   26.5856  -24.4106 H   0  0  0  0  0  0  0  0  0  0  0  0
   -2.9426   26.5163  -26.5946 H   0  0  0  0  0  0  0  0  0  0  0  0
   -3.4020   25.3730  -31.1550 H   0  0  0  0  0  0  0  0  0  0  0  0
   -5.6142   20.9087  -32.5236 H   0  0  0  0  0  0  0  0  0  0  0  0
   -7.9288   21.6511  -31.9737 H   0  0  0  0  0  0  0  0  0  0  0  0
   -8.2957   23.7687  -30.7100 H   0  0  0  0  0  0  0  0  0  0  0  0
  1  2  1  0
  2  3  1  0
  3  4  2  0
  4  5  1  0
  5  6  2  0
  6  7  1  0
  7  8  2  0
  8  9  1  0
  9 10  1  0
 10 11  2  0
 10 12  1  0
 12 13  1  0
 13 14  2  0
 14 15  1  0
 14 16  1  0
 16 17  2  0
 17 18  1  0
 18 19  2  0
 19 20  1  0
  8  3  1  0
 19 13  1  0
  1 21  1  0
  1 22  1  0
  1 23  1  0
  4 24  1  0
  5 25  1  0
  6 26  1  0
  7 27  1  0
 12 28  1  0
 16 29  1  0
 17 30  1  0
 18 31  1  0
M  CHG  1   9  -1
M  END
>  <UniqueID>  (40) 
38

>  <SMILES>  (40) 
COc1ccccc1[N-]C(=O)Nc1c(Cl)cccc1Cl

>  <Energy>  (40) 
41.122153297566214

>  <Genealogy>  (40) 
COc1ccccc1[N-]C(=O)Nc1c(Cl)cccc1Cl (protonated)
COc1ccccc1[N-]C(=O)Nc1c(Cl)cccc1Cl (3D coordinates assigned)
COc1ccccc1[N-]C(=O)Nc1c(Cl)cccc1Cl (optimized conformer: 41.122153297566214 kcal/mol)

>  <smiles>  (40) 
COc1ccccc1NC(=O)Nc1c(Cl)cccc1Cl

>  <score_type>  (40) 
oracle

>  <origin>  (40) 
adgpu

>  <m_score__min__energy>  (40) 
-8.5299999999999994

>  <m_primary>  (40) 
energy

$$$$
40:0
     RDKit          3D

 60 63  0  0  0  0  0  0  0  0999 V2000
   -0.0010   21.0070  -35.2110 C   0  0  0  0  0  0  0  0  0  0  0  0
   -0.6760   21.7620  -34.2110 O   0  0  0  0  0  0  0  0  0  0  0  0
   -0.9040   21.3160  -32.9010 C   0  0  0  0  0  0  0  0  0  0  0  0
   -2.1910   21.0170  -32.4190 C   0  0  0  0  0  0  0  0  0  0  0  0
   -2.3630   20.5440  -31.1150 C   0  0  0  0  0  0  0  0  0  0  0  0
   -1.2590   20.3700  -30.2670 C   0  0  0  0  0  0  0  0  0  0  0  0
   -1.4670   19.8650  -28.9390 N   0  0  0  0  0  0  0  0  0  0  0  0
   -2.0450   20.8380  -27.6240 S   0  0  0  0  0  0  0  0  0  0  0  0
   -3.4750   20.4730  -27.3370 O   0  0  0  0  0  0  0  0  0  0  0  0
   -1.2140   20.5500  -26.4040 O   0  0  0  0  0  0  0  0  0  0  0  0
   -1.9230   22.5520  -28.0060 C   0  0  0  0  0  0  0  0  0  0  0  0
   -0.9320   23.3300  -27.3900 C   0  0  0  0  0  0  0  0  0  0  0  0
   -0.7860   24.6770  -27.7260 C   0  0  0  0  0  0  0  0  0  0  0  0
   -1.6300   25.2560  -28.6770 C   0  0  0  0  0  0  0  0  0  0  0  0
   -2.6380   24.4940  -29.2810 C   0  0  0  0  0  0  0  0  0  0  0  0
   -3.4830   25.1040  -30.2560 N   0  0  0  0  0  0  0  0  0  0  0  0
   -5.2050   24.9080  -30.2410 S   0  0  0  0  0  0  0  0  0  0  0  0
   -5.6810   24.9390  -28.8130 O   0  0  0  0  0  0  0  0  0  0  0  0
   -5.8350   26.0560  -30.9820 O   0  0  0  0  0  0  0  0  0  0  0  0
   -5.6840   23.4050  -31.0190 C   0  0  0  0  0  0  0  0  0  0  0  0
   -6.8660   22.7550  -30.6400 C   0  0  0  0  0  0  0  0  0  0  0  0
   -7.2620   21.5830  -31.2890 C   0  0  0  0  0  0  0  0  0  0  0  0
   -6.4690   21.0270  -32.3100 C   0  0  0  0  0  0  0  0  0  0  0  0
   -6.8880   19.8190  -32.9810 N   0  0  0  0  0  0  0  0  0  0  0  0
   -5.9750   19.1460  -33.9210 C   0  0  0  0  0  0  0  0  0  0  0  0
   -6.4000   17.6930  -34.1830 C   0  0  0  0  0  0  0  0  0  0  0  0
   -6.8460   17.0210  -32.8780 C   0  0  0  0  0  0  0  0  0  0  0  0
   -8.0080   17.7690  -32.1860 C   0  0  0  0  0  0  0  0  0  0  0  0
   -8.1960   19.2040  -32.7040 C   0  0  0  0  0  0  0  0  0  0  0  0
   -5.2880   21.6930  -32.6890 C   0  0  0  0  0  0  0  0  0  0  0  0
   -4.9000   22.8740  -32.0500 C   0  0  0  0  0  0  0  0  0  0  0  0
   -2.7790   23.1370  -28.9500 C   0  0  0  0  0  0  0  0  0  0  0  0
    0.0250   20.6800  -30.7470 C   0  0  0  0  0  0  0  0  0  0  0  0
    0.1960   21.1530  -32.0500 C   0  0  0  0  0  0  0  0  0  0  0  0
    0.6586   20.2693  -34.7307 H   0  0  0  0  0  0  0  0  0  0  0  0
   -0.7395   20.4855  -35.8376 H   0  0  0  0  0  0  0  0  0  0  0  0
    0.5996   21.6827  -35.8376 H   0  0  0  0  0  0  0  0  0  0  0  0
   -3.0660   21.1560  -33.0710 H   0  0  0  0  0  0  0  0  0  0  0  0
   -3.3732   20.3060  -30.7504 H   0  0  0  0  0  0  0  0  0  0  0  0
   -1.4050   18.8360  -28.7780 H   0  0  0  0  0  0  0  0  0  0  0  0
   -0.2674   22.8772  -26.6394 H   0  0  0  0  0  0  0  0  0  0  0  0
   -0.0060   25.2829  -27.2418 H   0  0  0  0  0  0  0  0  0  0  0  0
   -1.5024   26.3134  -28.9521 H   0  0  0  0  0  0  0  0  0  0  0  0
   -7.4838   23.1686  -29.8293 H   0  0  0  0  0  0  0  0  0  0  0  0
   -8.2019   21.0904  -30.9994 H   0  0  0  0  0  0  0  0  0  0  0  0
   -5.9760   19.6952  -34.8741 H   0  0  0  0  0  0  0  0  0  0  0  0
   -4.9699   19.1343  -33.4742 H   0  0  0  0  0  0  0  0  0  0  0  0
   -7.2350   17.6834  -34.8991 H   0  0  0  0  0  0  0  0  0  0  0  0
   -5.5426   17.1396  -34.5936 H   0  0  0  0  0  0  0  0  0  0  0  0
   -7.1736   15.9957  -33.1048 H   0  0  0  0  0  0  0  0  0  0  0  0
   -5.9881   17.0324  -32.1896 H   0  0  0  0  0  0  0  0  0  0  0  0
   -8.9384   17.2090  -32.3614 H   0  0  0  0  0  0  0  0  0  0  0  0
   -7.7629   17.8365  -31.1158 H   0  0  0  0  0  0  0  0  0  0  0  0
   -8.7903   19.1815  -33.6293 H   0  0  0  0  0  0  0  0  0  0  0  0
   -8.7168   19.7971  -31.9379 H   0  0  0  0  0  0  0  0  0  0  0  0
   -4.6646   21.2800  -33.4957 H   0  0  0  0  0  0  0  0  0  0  0  0
   -3.9770   23.3871  -32.3578 H   0  0  0  0  0  0  0  0  0  0  0  0
   -3.5616   22.5322  -29.4315 H   0  0  0  0  0  0  0  0  0  0  0  0
    0.8998   20.5494  -30.0931 H   0  0  0  0  0  0  0  0  0  0  0  0
    1.2051   21.4000  -32.4114 H   0  0  0  0  0  0  0  0  0  0  0  0
  1  2  1  0
  2  3  1  0
  3  4  2  0
  4  5  1  0
  5  6  2  0
  6  7  1  0
  7  8  1  0
  8  9  2  0
  8 10  2  0
  8 11  1  0
 11 12  2  0
 12 13  1  0
 13 14  2  0
 14 15  1  0
 15 16  1  0
 16 17  1  0
 17 18  2  0
 17 19  2  0
 17 20  1  0
 20 21  2  0
 21 22  1  0
 22 23  2  0
 23 24  1  0
 24 25  1  0
 25 26  1  0
 26 27  1  0
 27 28  1  0
 28 29  1  0
 23 30  1  0
 30 31  2  0
 15 32  2  0
  6 33  1  0
 33 34  2  0
 34  3  1  0
 32 11  1  0
 31 20  1  0
 29 24  1  0
  1 35  1  0
  1 36  1  0
  1 37  1  0
  4 38  1  0
  5 39  1  0
  7 40  1  0
 12 41  1  0
 13 42  1  0
 14 43  1  0
 21 44  1  0
 22 45  1  0
 25 46  1  0
 25 47  1  0
 26 48  1  0
 26 49  1  0
 27 50  1  0
 27 51  1  0
 28 52  1  0
 28 53  1  0
 29 54  1  0
 29 55  1  0
 30 56  1  0
 31 57  1  0
 32 58  1  0
 33 59  1  0
 34 60  1  0
M  CHG  1  16  -1
M  END
>  <UniqueID>  (41) 
39

>  <SMILES>  (41) 
COc1ccc(NS(=O)(=O)c2cccc([N-]S(=O)(=O)c3ccc(N4CCCCC4)cc3)c2)cc1

>  <Energy>  (41) 
72.10449219312633

>  <Genealogy>  (41) 
COc1ccc(NS(=O)(=O)c2cccc([N-]S(=O)(=O)c3ccc(N4CCCCC4)cc3)c2)cc1 (protonated)
COc1ccc(NS(=O)(=O)c2cccc([N-]S(=O)(=O)c3ccc(N4CCCCC4)cc3)c2)cc1 (3D coordinates assigned)
COc1ccc(NS(=O)(=O)c2cccc([N-]S(=O)(=O)c3ccc(N4CCCCC4)cc3)c2)cc1 (nonaromatic ring conformer: 72.10449219312633 kcal/mol)

>  <smiles>  (41) 
COc1ccc(NS(=O)(=O)c2cccc(NS(=O)(=O)c3ccc(N4CCCCC4)cc3)c2)cc1

>  <score_type>  (41) 
oracle

>  <origin>  (41) 
adgpu

>  <m_score__min__energy>  (41) 
-11.529999999999999

>  <m_primary>  (41) 
energy

$$$$
41:0
     RDKit          3D

 44 46  0  0  0  0  0  0  0  0999 V2000
  -10.8750   21.0264  -32.3437 H   0  0  0  0  0  0  0  0  0  0  0  0
   -9.7950   20.8180  -32.3290 C   0  0  0  0  0  0  0  0  0  0  0  0
   -9.3330   19.6090  -32.7370 N   0  0  0  0  0  0  0  0  0  0  0  0
   -8.0050   19.3250  -32.7260 C   0  0  0  0  0  0  0  0  0  0  0  0
   -7.5990   18.1640  -33.1540 N   0  0  0  0  0  0  0  0  0  0  0  0
   -6.2450   17.6800  -33.1770 C   0  0  0  0  0  0  0  0  0  0  0  0
   -6.0040   16.3470  -32.8280 C   0  0  0  0  0  0  0  0  0  0  0  0
   -6.8448   15.6937  -32.5518 H   0  0  0  0  0  0  0  0  0  0  0  0
   -4.7040   15.8410  -32.8280 C   0  0  0  0  0  0  0  0  0  0  0  0
   -4.5270   14.7862  -32.5710 H   0  0  0  0  0  0  0  0  0  0  0  0
   -3.6260   16.6680  -33.1530 C   0  0  0  0  0  0  0  0  0  0  0  0
   -2.6056   16.2574  -33.1657 H   0  0  0  0  0  0  0  0  0  0  0  0
   -3.8390   18.0230  -33.4640 C   0  0  0  0  0  0  0  0  0  0  0  0
   -2.7070   18.9190  -33.8030 C   0  0  0  0  0  0  0  0  0  0  0  0
   -1.7560   18.4750  -34.5040 O   0  0  0  0  0  0  0  0  0  0  0  0
   -2.6790   20.2850  -33.3590 N   0  0  0  0  0  0  0  0  0  0  0  0
   -3.5240   20.7130  -32.9190 H   0  0  0  0  0  0  0  0  0  0  0  0
   -1.5100   21.1310  -33.5670 C   0  0  0  0  0  0  0  0  0  0  0  0
   -1.0961   21.4305  -32.5928 H   0  0  0  0  0  0  0  0  0  0  0  0
   -0.7494   20.5728  -34.1326 H   0  0  0  0  0  0  0  0  0  0  0  0
   -1.8025   22.0280  -34.1326 H   0  0  0  0  0  0  0  0  0  0  0  0
   -5.1540   18.5220  -33.4680 C   0  0  0  0  0  0  0  0  0  0  0  0
   -5.3325   19.5821  -33.7011 H   0  0  0  0  0  0  0  0  0  0  0  0
   -7.1210   20.2730  -32.3110 N   0  0  0  0  0  0  0  0  0  0  0  0
   -7.5290   21.4960  -31.8770 C   0  0  0  0  0  0  0  0  0  0  0  0
   -6.5080   22.4710  -31.4250 C   0  0  0  0  0  0  0  0  0  0  0  0
   -6.8640   23.6210  -30.6990 C   0  0  0  0  0  0  0  0  0  0  0  0
   -7.9226   23.8194  -30.4752 H   0  0  0  0  0  0  0  0  0  0  0  0
   -5.8820   24.5150  -30.2590 C   0  0  0  0  0  0  0  0  0  0  0  0
   -6.1742   25.4213  -29.7083 H   0  0  0  0  0  0  0  0  0  0  0  0
   -4.5240   24.2610  -30.5170 C   0  0  0  0  0  0  0  0  0  0  0  0
   -3.4870   25.1620  -30.1010 N   0  0  0  0  0  0  0  0  0  0  0  0
   -2.5010   24.9190  -29.0910 C   0  0  0  0  0  0  0  0  0  0  0  0
   -1.5070   25.6830  -28.9610 O   0  0  0  0  0  0  0  0  0  0  0  0
   -2.7130   23.8170  -28.1080 C   0  0  0  0  0  0  0  0  0  0  0  0
   -2.6360   24.2172  -27.0863 H   0  0  0  0  0  0  0  0  0  0  0  0
   -3.7116   23.3803  -28.2565 H   0  0  0  0  0  0  0  0  0  0  0  0
   -1.9477   23.0410  -28.2565 H   0  0  0  0  0  0  0  0  0  0  0  0
   -4.1690   23.1210  -31.2450 C   0  0  0  0  0  0  0  0  0  0  0  0
   -3.1107   22.9275  -31.4742 H   0  0  0  0  0  0  0  0  0  0  0  0
   -5.1490   22.2250  -31.6840 C   0  0  0  0  0  0  0  0  0  0  0  0
   -4.8537   21.3207  -32.2363 H   0  0  0  0  0  0  0  0  0  0  0  0
   -8.9030   21.7970  -31.8910 C   0  0  0  0  0  0  0  0  0  0  0  0
   -9.3710   23.0220  -31.5430 F   0  0  0  0  0  0  0  0  0  0  0  0
  1  2  1  0
  2  3  2  0
  3  4  1  0
  4  5  2  0
  5  6  1  0
  6  7  2  0
  7  8  1  0
  7  9  1  0
  9 10  1  0
  9 11  2  0
 11 12  1  0
 11 13  1  0
 13 14  1  0
 14 15  2  0
 14 16  1  0
 16 17  1  0
 16 18  1  0
 18 19  1  0
 18 20  1  0
 18 21  1  0
 13 22  2  0
 22 23  1  0
  4 24  1  0
 24 25  1  0
 25 26  1  0
 26 27  2  0
 27 28  1  0
 27 29  1  0
 29 30  1  0
 29 31  2  0
 31 32  1  0
 32 33  1  0
 33 34  2  0
 33 35  1  0
 35 36  1  0
 35 37  1  0
 35 38  1  0
 31 39  1  0
 39 40  1  0
 39 41  2  0
 41 42  1  0
 25 43  2  0
 43 44  1  0
 43  2  1  0
 22  6  1  0
 41 26  1  0
M  CHG  2  24  -1  32  -1
M  END
>  <UniqueID>  (42) 
40

>  <SMILES>  (42) 
CNC(=O)c1cccc(/N=c2/ncc(F)c(-c3ccc([N-]C(C)=O)cc3)[n-]2)c1

>  <Energy>  (42) 
59.57628449221154

>  <Genealogy>  (42) 
CNC(=O)c1cccc(N=c2ncc(F)c(-c3ccc([N-]C(C)=O)cc3)[n-]2)c1 (protonated)
CNC(=O)c1cccc(/N=c2/ncc(F)c(-c3ccc([N-]C(C)=O)cc3)[n-]2)c1 (cis-trans isomerization)
CNC(=O)c1cccc(/N=c2/ncc(F)c(-c3ccc([N-]C(C)=O)cc3)[n-]2)c1 (3D coordinates assigned)
CNC(=O)c1cccc(/N=c2/ncc(F)c(-c3ccc([N-]C(C)=O)cc3)[n-]2)c1 (optimized conformer: 59.57628449221154 kcal/mol)

>  <smiles>  (42) 
CNC(=O)c1cccc(N=c2ncc(F)c(-c3ccc(NC(C)=O)cc3)[nH]2)c1

>  <score_type>  (42) 
oracle

>  <origin>  (42) 
adgpu

>  <m_score__min__energy>  (42) 
-11.08

>  <m_primary>  (42) 
energy

$$$$
42:0
     RDKit          3D

 52 55  0  0  0  0  0  0  0  0999 V2000
   -7.0220   15.3560  -34.2340 C   0  0  0  0  0  0  0  0  0  0  0  0
   -6.4050   16.6810  -33.8850 C   0  0  0  0  0  0  0  0  0  0  0  0
   -7.1830   17.6770  -33.2790 C   0  0  0  0  0  0  0  0  0  0  0  0
   -6.6350   18.9330  -32.9970 C   0  0  0  0  0  0  0  0  0  0  0  0
   -7.5020   20.0010  -32.4700 C   0  0  0  0  0  0  0  0  0  0  0  0
   -8.6520   19.7050  -32.0520 O   0  0  0  0  0  0  0  0  0  0  0  0
   -7.1040   21.3800  -32.4950 N   0  0  0  0  0  0  0  0  0  0  0  0
   -5.7440   21.8810  -32.6990 C   0  0  0  0  0  0  0  0  0  0  0  0
   -5.3890   22.9620  -31.7060 C   0  0  0  0  0  0  0  0  0  0  0  0
   -6.1300   24.1550  -31.6690 C   0  0  0  0  0  0  0  0  0  0  0  0
   -5.8500   25.1300  -30.7100 C   0  0  0  0  0  0  0  0  0  0  0  0
   -4.8230   24.9310  -29.7860 C   0  0  0  0  0  0  0  0  0  0  0  0
   -4.0570   23.7550  -29.8220 C   0  0  0  0  0  0  0  0  0  0  0  0
   -2.9950   23.5240  -28.8170 C   0  0  0  0  0  0  0  0  0  0  0  0
   -2.9940   22.3290  -28.0790 C   0  0  0  0  0  0  0  0  0  0  0  0
   -2.0240   22.1040  -27.1030 C   0  0  0  0  0  0  0  0  0  0  0  0
   -1.0370   23.0600  -26.8590 C   0  0  0  0  0  0  0  0  0  0  0  0
   -1.0020   24.2530  -27.6010 C   0  0  0  0  0  0  0  0  0  0  0  0
    0.0760   25.2370  -27.3450 C   0  0  0  0  0  0  0  0  0  0  0  0
   -0.1580   26.5810  -27.0020 C   0  0  0  0  0  0  0  0  0  0  0  0
    1.0020   27.3270  -26.8430 C   0  0  0  0  0  0  0  0  0  0  0  0
    2.3150   26.3200  -27.1380 S   0  0  0  0  0  0  0  0  0  0  0  0
    1.4300   24.9310  -27.4670 C   0  0  0  0  0  0  0  0  0  0  0  0
   -1.9930   24.4870  -28.5800 C   0  0  0  0  0  0  0  0  0  0  0  0
   -1.9840   25.6700  -29.3140 O   0  0  0  0  0  0  0  0  0  0  0  0
   -4.3380   22.7780  -30.7930 C   0  0  0  0  0  0  0  0  0  0  0  0
   -5.2880   19.1830  -33.2840 C   0  0  0  0  0  0  0  0  0  0  0  0
   -4.4900   18.1960  -33.8830 C   0  0  0  0  0  0  0  0  0  0  0  0
   -3.0540   18.5060  -34.2110 C   0  0  0  0  0  0  0  0  0  0  0  0
   -5.0540   16.9360  -34.1890 C   0  0  0  0  0  0  0  0  0  0  0  0
   -4.2990   15.9270  -34.7970 O   0  0  0  0  0  0  0  0  0  0  0  0
   -7.2742   14.8143  -33.3104 H   0  0  0  0  0  0  0  0  0  0  0  0
   -7.9359   15.5210  -34.8235 H   0  0  0  0  0  0  0  0  0  0  0  0
   -6.3075   14.7627  -34.8235 H   0  0  0  0  0  0  0  0  0  0  0  0
   -8.2325   17.4695  -33.0232 H   0  0  0  0  0  0  0  0  0  0  0  0
   -5.0364   21.0465  -32.5849 H   0  0  0  0  0  0  0  0  0  0  0  0
   -5.6869   22.3129  -33.7091 H   0  0  0  0  0  0  0  0  0  0  0  0
   -6.9352   24.3217  -32.3997 H   0  0  0  0  0  0  0  0  0  0  0  0
   -6.4404   26.0577  -30.6825 H   0  0  0  0  0  0  0  0  0  0  0  0
   -4.6130   25.6986  -29.0266 H   0  0  0  0  0  0  0  0  0  0  0  0
   -3.7628   21.5663  -28.2721 H   0  0  0  0  0  0  0  0  0  0  0  0
   -2.0368   21.1694  -26.5231 H   0  0  0  0  0  0  0  0  0  0  0  0
   -0.2813   22.8785  -26.0806 H   0  0  0  0  0  0  0  0  0  0  0  0
   -1.1660   27.0017  -26.8719 H   0  0  0  0  0  0  0  0  0  0  0  0
    1.0529   28.3917  -26.5713 H   0  0  0  0  0  0  0  0  0  0  0  0
    1.8474   23.9487  -27.7330 H   0  0  0  0  0  0  0  0  0  0  0  0
   -3.7300   21.8624  -30.8379 H   0  0  0  0  0  0  0  0  0  0  0  0
   -4.8509   20.1620  -33.0378 H   0  0  0  0  0  0  0  0  0  0  0  0
   -2.4833   18.6292  -33.2787 H   0  0  0  0  0  0  0  0  0  0  0  0
   -2.6251   17.6798  -34.7970 H   0  0  0  0  0  0  0  0  0  0  0  0
   -3.0042   19.4356  -34.7970 H   0  0  0  0  0  0  0  0  0  0  0  0
   -3.3570   16.0670  -35.1360 H   0  0  0  0  0  0  0  0  0  0  0  0
  1  2  1  0
  2  3  2  0
  3  4  1  0
  4  5  1  0
  5  6  2  0
  5  7  1  0
  7  8  1  0
  8  9  1  0
  9 10  2  0
 10 11  1  0
 11 12  2  0
 12 13  1  0
 13 14  1  0
 14 15  2  0
 15 16  1  0
 16 17  2  0
 17 18  1  0
 18 19  1  0
 19 20  1  0
 20 21  2  0
 21 22  1  0
 22 23  1  0
 18 24  2  0
 24 25  1  0
 13 26  2  0
  4 27  2  0
 27 28  1  0
 28 29  1  0
 28 30  2  0
 30 31  1  0
 30  2  1  0
 26  9  1  0
 24 14  1  0
 23 19  2  0
  1 32  1  0
  1 33  1  0
  1 34  1  0
  3 35  1  0
  8 36  1  0
  8 37  1  0
 10 38  1  0
 11 39  1  0
 12 40  1  0
 15 41  1  0
 16 42  1  0
 17 43  1  0
 20 44  1  0
 21 45  1  0
 23 46  1  0
 26 47  1  0
 27 48  1  0
 29 49  1  0
 29 50  1  0
 29 51  1  0
 31 52  1  0
M  CHG  2   7  -1  25  -1
M  END
>  <UniqueID>  (43) 
41

>  <SMILES>  (43) 
Cc1cc(C(=O)[N-]Cc2cccc(-c3cccc(-c4ccsc4)c3[O-])c2)cc(C)c1O

>  <Energy>  (43) 
95.55417533007476

>  <Genealogy>  (43) 
Cc1cc(C(=O)[N-]Cc2cccc(-c3cccc(-c4ccsc4)c3[O-])c2)cc(C)c1O (protonated)
Cc1cc(C(=O)[N-]Cc2cccc(-c3cccc(-c4ccsc4)c3[O-])c2)cc(C)c1O (3D coordinates assigned)
Cc1cc(C(=O)[N-]Cc2cccc(-c3cccc(-c4ccsc4)c3[O-])c2)cc(C)c1O (optimized conformer: 95.55417533007476 kcal/mol)

>  <smiles>  (43) 
Cc1cc(C(=O)NCc2cccc(-c3cccc(-c4ccsc4)c3O)c2)cc(C)c1O

>  <score_type>  (43) 
oracle

>  <origin>  (43) 
adgpu

>  <m_score__min__energy>  (43) 
-12.6

>  <m_primary>  (43) 
energy

$$$$
43:0
     RDKit          3D

 43 45  0  0  0  0  0  0  0  0999 V2000
   -4.1470   18.4940  -26.0480 C   0  0  0  0  0  0  0  0  0  0  0  0
   -2.7260   18.1930  -25.8510 N   0  0  0  0  0  0  0  0  0  0  0  0
   -1.8990   18.7310  -26.9410 C   0  0  0  0  0  0  0  0  0  0  0  0
   -1.5740   20.1870  -26.7360 C   0  0  0  0  0  0  0  0  0  0  0  0
   -1.6610   21.0960  -27.7960 C   0  0  0  0  0  0  0  0  0  0  0  0
   -1.3690   22.4470  -27.5670 C   0  0  0  0  0  0  0  0  0  0  0  0
   -1.4360   23.3880  -28.6150 C   0  0  0  0  0  0  0  0  0  0  0  0
   -1.7900   22.9620  -29.9030 O   0  0  0  0  0  0  0  0  0  0  0  0
   -3.1040   22.8440  -30.3840 C   0  0  0  0  0  0  0  0  0  0  0  0
   -3.5570   21.5660  -30.7300 C   0  0  0  0  0  0  0  0  0  0  0  0
   -4.8620   21.3700  -31.2000 C   0  0  0  0  0  0  0  0  0  0  0  0
   -5.3220   19.9970  -31.5980 C   0  0  0  0  0  0  0  0  0  0  0  0
   -5.7130   22.4710  -31.3590 C   0  0  0  0  0  0  0  0  0  0  0  0
   -5.2750   23.7620  -31.0250 C   0  0  0  0  0  0  0  0  0  0  0  0
   -6.1880   24.9400  -31.2260 C   0  0  0  0  0  0  0  0  0  0  0  0
   -3.9640   23.9530  -30.5540 C   0  0  0  0  0  0  0  0  0  0  0  0
   -3.5150   25.2440  -30.2880 O   0  0  0  0  0  0  0  0  0  0  0  0
   -1.1630   24.7470  -28.3520 C   0  0  0  0  0  0  0  0  0  0  0  0
   -1.2930   25.7250  -29.3380 O   0  0  0  0  0  0  0  0  0  0  0  0
   -0.7730   25.1420  -27.0730 C   0  0  0  0  0  0  0  0  0  0  0  0
   -0.6820   24.2160  -26.0320 C   0  0  0  0  0  0  0  0  0  0  0  0
   -0.2920   24.6660  -24.7750 O   0  0  0  0  0  0  0  0  0  0  0  0
   -0.9880   22.8570  -26.2650 C   0  0  0  0  0  0  0  0  0  0  0  0
   -0.9270   21.8730  -25.2520 C   0  0  0  0  0  0  0  0  0  0  0  0
   -0.5980   22.1720  -24.0730 O   0  0  0  0  0  0  0  0  0  0  0  0
   -1.2190   20.6060  -25.5270 O   0  0  0  0  0  0  0  0  0  0  0  0
   -4.6388   18.5982  -25.0696 H   0  0  0  0  0  0  0  0  0  0  0  0
   -4.2482   19.4335  -26.6111 H   0  0  0  0  0  0  0  0  0  0  0  0
   -4.6204   17.6762  -26.6111 H   0  0  0  0  0  0  0  0  0  0  0  0
   -2.4190   18.6130  -24.9410 H   0  0  0  0  0  0  0  0  0  0  0  0
   -0.9596   18.1607  -26.9889 H   0  0  0  0  0  0  0  0  0  0  0  0
   -2.4686   18.6384  -27.8775 H   0  0  0  0  0  0  0  0  0  0  0  0
   -1.9556   20.7535  -28.7989 H   0  0  0  0  0  0  0  0  0  0  0  0
   -2.8800   20.7046  -30.6317 H   0  0  0  0  0  0  0  0  0  0  0  0
   -5.5216   19.4011  -30.6952 H   0  0  0  0  0  0  0  0  0  0  0  0
   -6.2423   20.0774  -32.1952 H   0  0  0  0  0  0  0  0  0  0  0  0
   -4.5390   19.5067  -32.1952 H   0  0  0  0  0  0  0  0  0  0  0  0
   -6.7312   22.3230  -31.7481 H   0  0  0  0  0  0  0  0  0  0  0  0
   -6.4955   25.3368  -30.2472 H   0  0  0  0  0  0  0  0  0  0  0  0
   -5.6583   25.7226  -31.7889 H   0  0  0  0  0  0  0  0  0  0  0  0
   -7.0780   24.6222  -31.7889 H   0  0  0  0  0  0  0  0  0  0  0  0
   -1.9880   25.6760  -30.0710 H   0  0  0  0  0  0  0  0  0  0  0  0
   -0.5336   26.1984  -26.8813 H   0  0  0  0  0  0  0  0  0  0  0  0
  1  2  1  0
  2  3  1  0
  3  4  1  0
  4  5  2  0
  5  6  1  0
  6  7  2  0
  7  8  1  0
  8  9  1  0
  9 10  2  0
 10 11  1  0
 11 12  1  0
 11 13  2  0
 13 14  1  0
 14 15  1  0
 14 16  2  0
 16 17  1  0
  7 18  1  0
 18 19  1  0
 18 20  2  0
 20 21  1  0
 21 22  1  0
 21 23  2  0
 23 24  1  0
 24 25  2  0
 24 26  1  0
 26  4  1  0
 23  6  1  0
 16  9  1  0
  1 27  1  0
  1 28  1  0
  1 29  1  0
  2 30  1  0
  3 31  1  0
  3 32  1  0
  5 33  1  0
 10 34  1  0
 12 35  1  0
 12 36  1  0
 12 37  1  0
 13 38  1  0
 15 39  1  0
 15 40  1  0
 15 41  1  0
 19 42  1  0
 20 43  1  0
M  CHG  2  17  -1  22  -1
M  END
>  <UniqueID>  (44) 
42

>  <SMILES>  (44) 
CNCc1cc2c(Oc3cc(C)cc(C)c3[O-])c(O)cc([O-])c2c(=O)o1

>  <Energy>  (44) 
61.610162309191836

>  <Genealogy>  (44) 
CNCc1cc2c(Oc3cc(C)cc(C)c3[O-])c(O)cc([O-])c2c(=O)o1 (protonated)
CNCc1cc2c(Oc3cc(C)cc(C)c3[O-])c(O)cc([O-])c2c(=O)o1 (3D coordinates assigned)
CNCc1cc2c(Oc3cc(C)cc(C)c3[O-])c(O)cc([O-])c2c(=O)o1 (optimized conformer: 61.610162309191836 kcal/mol)

>  <smiles>  (44) 
CNCc1cc2c(Oc3cc(C)cc(C)c3O)c(O)cc(O)c2c(=O)o1

>  <score_type>  (44) 
oracle

>  <origin>  (44) 
adgpu

>  <m_score__min__energy>  (44) 
-10.9

>  <m_primary>  (44) 
energy

$$$$
44:0
     RDKit          3D

 47 49  0  0  0  0  0  0  0  0999 V2000
   -2.4210   24.5420  -28.6840 C   0  0  0  0  0  0  0  0  0  0  0  0
   -3.1860   25.1500  -29.7200 O   0  0  0  0  0  0  0  0  0  0  0  0
   -4.3590   24.6050  -30.2620 C   0  0  0  0  0  0  0  0  0  0  0  0
   -5.6330   25.1420  -30.0000 C   0  0  0  0  0  0  0  0  0  0  0  0
   -6.7730   24.5600  -30.5630 C   0  0  0  0  0  0  0  0  0  0  0  0
   -6.6620   23.4260  -31.3850 C   0  0  0  0  0  0  0  0  0  0  0  0
   -7.9000   22.7950  -31.9910 C   0  0  0  0  0  0  0  0  0  0  0  0
   -7.8820   21.3150  -31.9870 N   0  0  0  0  0  0  0  0  0  0  0  0
   -9.2200   20.7040  -31.9980 C   0  0  0  0  0  0  0  0  0  0  0  0
   -9.1120   19.2230  -31.6060 C   0  0  0  0  0  0  0  0  0  0  0  0
   -7.7620   18.6210  -32.0400 C   0  0  0  0  0  0  0  0  0  0  0  0
   -7.2610   19.2920  -33.2510 N   0  0  2  0  0  0  0  0  0  0  0  0
   -5.8280   18.4870  -33.8400 S   0  0  0  0  0  0  0  0  0  0  0  0
   -5.7880   18.5510  -35.3420 O   0  0  0  0  0  0  0  0  0  0  0  0
   -5.8380   17.0420  -33.4210 O   0  0  0  0  0  0  0  0  0  0  0  0
   -4.3980   19.2910  -33.1950 C   0  0  0  0  0  0  0  0  0  0  0  0
   -3.3150   19.5700  -34.0420 C   0  0  0  0  0  0  0  0  0  0  0  0
   -2.1930   20.2420  -33.5470 C   0  0  0  0  0  0  0  0  0  0  0  0
   -2.1500   20.6430  -32.2090 C   0  0  0  0  0  0  0  0  0  0  0  0
   -3.2310   20.3740  -31.3630 C   0  0  0  0  0  0  0  0  0  0  0  0
   -4.3540   19.7010  -31.8540 C   0  0  0  0  0  0  0  0  0  0  0  0
   -6.9790   20.7300  -33.0080 C   0  0  0  0  0  0  0  0  0  0  0  0
   -5.3880   22.9040  -31.6590 C   0  0  0  0  0  0  0  0  0  0  0  0
   -4.2490   23.4870  -31.0980 C   0  0  0  0  0  0  0  0  0  0  0  0
   -2.8147   24.8549  -27.7057 H   0  0  0  0  0  0  0  0  0  0  0  0
   -2.4876   23.4476  -28.7731 H   0  0  0  0  0  0  0  0  0  0  0  0
   -1.3699   24.8539  -28.7731 H   0  0  0  0  0  0  0  0  0  0  0  0
   -5.7325   26.0234  -29.3495 H   0  0  0  0  0  0  0  0  0  0  0  0
   -7.7637   24.9931  -30.3609 H   0  0  0  0  0  0  0  0  0  0  0  0
   -8.7764   23.1323  -31.4181 H   0  0  0  0  0  0  0  0  0  0  0  0
   -7.9366   23.1110  -33.0440 H   0  0  0  0  0  0  0  0  0  0  0  0
   -9.8674   21.2270  -31.2788 H   0  0  0  0  0  0  0  0  0  0  0  0
   -9.6508   20.7849  -33.0069 H   0  0  0  0  0  0  0  0  0  0  0  0
   -9.2082   19.1344  -30.5138 H   0  0  0  0  0  0  0  0  0  0  0  0
   -9.9156   18.6716  -32.1160 H   0  0  0  0  0  0  0  0  0  0  0  0
   -7.0314   18.7484  -31.2276 H   0  0  0  0  0  0  0  0  0  0  0  0
   -7.9042   17.5526  -32.2596 H   0  0  0  0  0  0  0  0  0  0  0  0
   -7.9840   19.2070  -34.0060 H   0  0  0  0  0  0  0  0  0  0  0  0
   -3.3485   19.2598  -35.0968 H   0  0  0  0  0  0  0  0  0  0  0  0
   -1.3430   20.4553  -34.2118 H   0  0  0  0  0  0  0  0  0  0  0  0
   -1.2660   21.1702  -31.8210 H   0  0  0  0  0  0  0  0  0  0  0  0
   -3.1976   20.6922  -30.3106 H   0  0  0  0  0  0  0  0  0  0  0  0
   -5.2042   19.4927  -31.1879 H   0  0  0  0  0  0  0  0  0  0  0  0
   -5.9398   20.8334  -32.6624 H   0  0  0  0  0  0  0  0  0  0  0  0
   -7.1434   21.2699  -33.9522 H   0  0  0  0  0  0  0  0  0  0  0  0
   -5.2858   22.0304  -32.3196 H   0  0  0  0  0  0  0  0  0  0  0  0
   -3.2570   23.0640  -31.3149 H   0  0  0  0  0  0  0  0  0  0  0  0
  1  2  1  0
  2  3  1  0
  3  4  2  0
  4  5  1  0
  5  6  2  0
  6  7  1  0
  7  8  1  0
  8  9  1  0
  9 10  1  0
 10 11  1  0
 11 12  1  0
 12 13  1  0
 13 14  2  0
 13 15  2  0
 13 16  1  0
 16 17  2  0
 17 18  1  0
 18 19  2  0
 19 20  1  0
 20 21  2  0
 12 22  1  0
  6 23  1  0
 23 24  2  0
 24  3  1  0
 22  8  1  0
 21 16  1  0
  1 25  1  0
  1 26  1  0
  1 27  1  0
  4 28  1  0
  5 29  1  0
  7 30  1  0
  7 31  1  0
  9 32  1  0
  9 33  1  0
 10 34  1  0
 10 35  1  0
 11 36  1  0
 11 37  1  0
 12 38  1  6
 17 39  1  0
 18 40  1  0
 19 41  1  0
 20 42  1  0
 21 43  1  0
 22 44  1  0
 22 45  1  0
 23 46  1  0
 24 47  1  0
M  CHG  1  12   1
M  END
>  <UniqueID>  (45) 
43

>  <SMILES>  (45) 
COc1ccc(CN2CCC[N@H+](S(=O)(=O)c3ccccc3)C2)cc1

>  <Energy>  (45) 
56.2636508889859

>  <Genealogy>  (45) 
COc1ccc(CN2CCC[NH+](S(=O)(=O)c3ccccc3)C2)cc1 (protonated)
COc1ccc(CN2CCC[N@H+](S(=O)(=O)c3ccccc3)C2)cc1 (chirality)
COc1ccc(CN2CCC[N@H+](S(=O)(=O)c3ccccc3)C2)cc1 (3D coordinates assigned)
COc1ccc(CN2CCC[N@H+](S(=O)(=O)c3ccccc3)C2)cc1 (nonaromatic ring conformer: 56.2636508889859 kcal/mol)

>  <smiles>  (45) 
COc1ccc(CN2CCCN(S(=O)(=O)c3ccccc3)C2)cc1

>  <score_type>  (45) 
oracle

>  <origin>  (45) 
adgpu

>  <m_score__min__energy>  (45) 
-9.2699999999999996

>  <m_primary>  (45) 
energy

$$$$
45:0
     RDKit          3D

 49 52  0  0  0  0  0  0  0  0999 V2000
   -1.9630   19.4040  -25.6700 H   0  0  0  0  0  0  0  0  0  0  0  0
   -1.4530   18.8070  -26.3580 N   0  0  0  0  0  0  0  0  0  0  0  0
   -1.3330   19.1570  -27.5970 C   0  0  0  0  0  0  0  0  0  0  0  0
   -1.8750   20.3220  -28.0360 N   0  0  0  0  0  0  0  0  0  0  0  0
   -1.7680   20.7190  -29.3330 C   0  0  0  0  0  0  0  0  0  0  0  0
   -2.4400   21.9750  -29.7330 C   0  0  0  0  0  0  0  0  0  0  0  0
   -3.6520   21.9520  -30.4430 C   0  0  0  0  0  0  0  0  0  0  0  0
   -4.1000   20.9891  -30.7295 H   0  0  0  0  0  0  0  0  0  0  0  0
   -4.2910   23.1450  -30.7870 C   0  0  0  0  0  0  0  0  0  0  0  0
   -5.2387   23.1167  -31.3447 H   0  0  0  0  0  0  0  0  0  0  0  0
   -3.7290   24.3840  -30.4240 C   0  0  0  0  0  0  0  0  0  0  0  0
   -4.3350   25.6060  -30.7570 O   0  0  0  0  0  0  0  0  0  0  0  0
   -5.6900   25.9380  -30.4680 C   0  0  0  0  0  0  0  0  0  0  0  0
   -5.8344   25.9734  -29.3781 H   0  0  0  0  0  0  0  0  0  0  0  0
   -5.9272   26.9208  -30.9014 H   0  0  0  0  0  0  0  0  0  0  0  0
   -6.3546   25.1761  -30.9014 H   0  0  0  0  0  0  0  0  0  0  0  0
   -2.5280   24.4040  -29.7040 C   0  0  0  0  0  0  0  0  0  0  0  0
   -1.9610   25.6180  -29.3320 O   0  0  0  0  0  0  0  0  0  0  0  0
   -1.8920   23.2080  -29.3530 C   0  0  0  0  0  0  0  0  0  0  0  0
   -0.9563   23.2356  -28.7754 H   0  0  0  0  0  0  0  0  0  0  0  0
   -1.0520   19.9070  -30.2460 C   0  0  0  0  0  0  0  0  0  0  0  0
   -0.7890   20.3070  -31.6500 C   0  0  0  0  0  0  0  0  0  0  0  0
   -1.5540   19.7640  -32.6950 C   0  0  0  0  0  0  0  0  0  0  0  0
   -2.3691   19.0614  -32.4672 H   0  0  0  0  0  0  0  0  0  0  0  0
   -1.2870   20.1100  -34.0220 C   0  0  0  0  0  0  0  0  0  0  0  0
   -1.8851   19.6702  -34.8337 H   0  0  0  0  0  0  0  0  0  0  0  0
   -0.2570   21.0180  -34.3240 C   0  0  0  0  0  0  0  0  0  0  0  0
    0.0590   21.3780  -35.6770 N   0  0  0  0  0  0  0  0  0  0  0  0
    1.3670   21.6660  -36.1890 C   0  0  0  0  0  0  0  0  0  0  0  0
    1.9030   20.8530  -36.9850 O   0  0  0  0  0  0  0  0  0  0  0  0
    2.0810   22.8530  -35.8200 N   0  0  0  0  0  0  0  0  0  0  0  0
    1.5860   24.1950  -35.9280 C   0  0  0  0  0  0  0  0  0  0  0  0
    0.2900   24.4010  -36.4190 C   0  0  0  0  0  0  0  0  0  0  0  0
   -0.3320   23.5392  -36.7025 H   0  0  0  0  0  0  0  0  0  0  0  0
   -0.2160   25.6990  -36.5500 C   0  0  0  0  0  0  0  0  0  0  0  0
   -1.2392   25.8547  -36.9226 H   0  0  0  0  0  0  0  0  0  0  0  0
    0.5770   26.7980  -36.2080 C   0  0  0  0  0  0  0  0  0  0  0  0
    0.1772   27.8177  -36.3095 H   0  0  0  0  0  0  0  0  0  0  0  0
    1.8780   26.6010  -35.7370 C   0  0  0  0  0  0  0  0  0  0  0  0
    2.5039   27.4664  -35.4738 H   0  0  0  0  0  0  0  0  0  0  0  0
    2.3850   25.3050  -35.6000 C   0  0  0  0  0  0  0  0  0  0  0  0
    3.4114   25.1533  -35.2347 H   0  0  0  0  0  0  0  0  0  0  0  0
    0.5210   21.5420  -33.2850 C   0  0  0  0  0  0  0  0  0  0  0  0
    1.3441   22.2347  -33.5146 H   0  0  0  0  0  0  0  0  0  0  0  0
    0.2590   21.1910  -31.9580 C   0  0  0  0  0  0  0  0  0  0  0  0
    0.8768   21.6092  -31.1497 H   0  0  0  0  0  0  0  0  0  0  0  0
   -0.5170   18.7020  -29.7660 C   0  0  0  0  0  0  0  0  0  0  0  0
    0.0261   18.0342  -30.4509 H   0  0  0  0  0  0  0  0  0  0  0  0
   -0.6650   18.3550  -28.4630 N   0  0  0  0  0  0  0  0  0  0  0  0
  1  2  1  0
  2  3  2  0
  3  4  1  0
  4  5  2  0
  5  6  1  0
  6  7  2  0
  7  8  1  0
  7  9  1  0
  9 10  1  0
  9 11  2  0
 11 12  1  0
 12 13  1  0
 13 14  1  0
 13 15  1  0
 13 16  1  0
 11 17  1  0
 17 18  1  0
 17 19  2  0
 19 20  1  0
  5 21  1  0
 21 22  1  0
 22 23  2  0
 23 24  1  0
 23 25  1  0
 25 26  1  0
 25 27  2  0
 27 28  1  0
 28 29  1  0
 29 30  2  0
 29 31  1  0
 31 32  1  0
 32 33  2  0
 33 34  1  0
 33 35  1  0
 35 36  1  0
 35 37  2  0
 37 38  1  0
 37 39  1  0
 39 40  1  0
 39 41  2  0
 41 42  1  0
 27 43  1  0
 43 44  1  0
 43 45  2  0
 45 46  1  0
 21 47  2  0
 47 48  1  0
 47 49  1  0
 49  3  1  0
 19  6  1  0
 45 22  1  0
 41 32  1  0
M  CHG  4  18  -1  28  -1  31  -1  49  -1
M  END
>  <UniqueID>  (46) 
44

>  <SMILES>  (46) 
[H]/N=c1\nc(-c2ccc(OC)c([O-])c2)c(-c2ccc([N-]C(=O)[N-]c3ccccc3)cc2)c[n-]1

>  <Energy>  (46) 
70.9842119654488

>  <Genealogy>  (46) 
COc1ccc(-c2nc(=N)[n-]cc2-c2ccc([N-]C(=O)[N-]c3ccccc3)cc2)cc1[O-] (protonated)
[H]/N=c1\nc(-c2ccc(OC)c([O-])c2)c(-c2ccc([N-]C(=O)[N-]c3ccccc3)cc2)c[n-]1 (cis-trans isomerization)
[H]/N=c1\nc(-c2ccc(OC)c([O-])c2)c(-c2ccc([N-]C(=O)[N-]c3ccccc3)cc2)c[n-]1 (3D coordinates assigned)
[H]/N=c1\nc(-c2ccc(OC)c([O-])c2)c(-c2ccc([N-]C(=O)[N-]c3ccccc3)cc2)c[n-]1 (optimized conformer: 70.9842119654488 kcal/mol)

>  <smiles>  (46) 
COc1ccc(-c2nc(=N)[nH]cc2-c2ccc(NC(=O)Nc3ccccc3)cc2)cc1O

>  <score_type>  (46) 
oracle

>  <origin>  (46) 
adgpu

>  <m_score__min__energy>  (46) 
-13.369999999999999

>  <m_primary>  (46) 
energy

$$$$
46:0
     RDKit          3D

 62 65  0  0  1  0  0  0  0  0999 V2000
   -0.7410   23.5330  -27.7520 C   0  0  0  0  0  0  0  0  0  0  0  0
   -1.8350   24.2450  -28.9460 S   0  0  0  0  0  0  0  0  0  0  0  0
   -1.3020   25.6130  -29.3170 O   0  0  0  0  0  0  0  0  0  0  0  0
   -1.9410   23.4170  -30.1840 O   0  0  0  0  0  0  0  0  0  0  0  0
   -3.4400   24.4270  -28.1640 C   0  0  0  0  0  0  0  0  0  0  0  0
   -4.4570   24.0550  -29.1960 C   0  0  0  0  0  0  0  0  0  0  0  0
   -4.3200   24.9430  -30.3280 N   0  0  0  0  0  0  0  0  0  0  0  0
   -5.4250   24.9060  -31.2390 C   0  0  0  0  0  0  0  0  0  0  0  0
   -5.6900   23.4890  -31.5990 C   0  0  0  0  0  0  0  0  0  0  0  0
   -6.8780   22.8480  -31.3250 C   0  0  0  0  0  0  0  0  0  0  0  0
   -7.0180   21.5100  -31.7080 C   0  0  0  0  0  0  0  0  0  0  0  0
   -6.0250   20.8280  -32.3380 C   0  0  0  0  0  0  0  0  0  0  0  0
   -6.1020   19.4340  -32.7540 C   0  0  0  0  0  0  0  0  0  0  0  0
   -7.1630   18.6360  -32.3900 C   0  0  0  0  0  0  0  0  0  0  0  0
   -7.2350   17.2960  -32.7870 C   0  0  0  0  0  0  0  0  0  0  0  0
   -6.2410   16.7190  -33.5630 C   0  0  0  0  0  0  0  0  0  0  0  0
   -6.3090   15.3160  -33.9740 C   0  0  0  0  0  0  0  0  0  0  0  0
   -5.2910   14.4330  -33.7170 C   0  0  0  0  0  0  0  0  0  0  0  0
   -5.3470   13.1100  -34.1070 C   0  0  0  0  0  0  0  0  0  0  0  0
   -4.4170   12.2740  -33.8890 N   0  0  0  0  0  0  0  0  0  0  0  0
   -3.2220   12.6380  -33.2140 C   0  0  0  0  0  0  0  0  0  0  0  0
   -2.2130   13.3710  -33.8100 C   0  0  0  0  0  0  0  0  0  0  0  0
   -1.0520   13.7050  -33.1200 C   0  0  0  0  0  0  0  0  0  0  0  0
   -0.8960   13.2990  -31.8100 C   0  0  0  0  0  0  0  0  0  0  0  0
    0.3450   13.6460  -31.0470 C   0  0  0  0  0  0  0  0  0  0  0  0
    0.2750   14.9560  -30.6460 F   0  0  0  0  0  0  0  0  0  0  0  0
    0.4220   12.8600  -29.9040 F   0  0  0  0  0  0  0  0  0  0  0  0
    1.4770   13.4100  -31.7740 F   0  0  0  0  0  0  0  0  0  0  0  0
   -1.9000   12.5650  -31.2050 C   0  0  0  0  0  0  0  0  0  0  0  0
   -3.0460   12.2370  -31.8900 C   0  0  0  0  0  0  0  0  0  0  0  0
   -6.4470   12.6560  -34.7710 N   0  0  0  0  0  0  0  0  0  0  0  0
   -7.4620   13.5290  -35.0280 C   0  0  0  0  0  0  0  0  0  0  0  0
   -7.3810   14.8290  -34.6320 N   0  0  0  0  0  0  0  0  0  0  0  0
   -5.1880   17.5320  -33.9180 C   0  0  0  0  0  0  0  0  0  0  0  0
   -5.1120   18.8690  -33.5250 C   0  0  0  0  0  0  0  0  0  0  0  0
   -4.8290   21.4910  -32.6090 C   0  0  0  0  0  0  0  0  0  0  0  0
   -4.6780   22.8060  -32.2390 C   0  0  0  0  0  0  0  0  0  0  0  0
   -1.1009   23.7672  -26.7393 H   0  0  0  0  0  0  0  0  0  0  0  0
   -0.7108   22.4418  -27.8871 H   0  0  0  0  0  0  0  0  0  0  0  0
    0.2690   23.9473  -27.8871 H   0  0  0  0  0  0  0  0  0  0  0  0
   -3.5177   23.7576  -27.2946 H   0  0  0  0  0  0  0  0  0  0  0  0
   -3.5942   25.4551  -27.8044 H   0  0  0  0  0  0  0  0  0  0  0  0
   -4.2927   23.0164  -29.5191 H   0  0  0  0  0  0  0  0  0  0  0  0
   -5.4683   24.1437  -28.7724 H   0  0  0  0  0  0  0  0  0  0  0  0
   -3.4400   24.8310  -30.8600 H   0  0  0  0  0  0  0  0  0  0  0  0
   -6.3153   25.3404  -30.7607 H   0  0  0  0  0  0  0  0  0  0  0  0
   -5.1890   25.4873  -32.1425 H   0  0  0  0  0  0  0  0  0  0  0  0
   -7.6980   23.3763  -30.8166 H   0  0  0  0  0  0  0  0  0  0  0  0
   -7.9640   20.9919  -31.4920 H   0  0  0  0  0  0  0  0  0  0  0  0
   -7.9703   19.0601  -31.7748 H   0  0  0  0  0  0  0  0  0  0  0  0
   -8.0977   16.6879  -32.4772 H   0  0  0  0  0  0  0  0  0  0  0  0
   -4.3994   14.7916  -33.1817 H   0  0  0  0  0  0  0  0  0  0  0  0
   -2.3307   13.6977  -34.8537 H   0  0  0  0  0  0  0  0  0  0  0  0
   -0.2628   14.2894  -33.6156 H   0  0  0  0  0  0  0  0  0  0  0  0
   -1.7799   12.2391  -30.1613 H   0  0  0  0  0  0  0  0  0  0  0  0
   -3.8317   11.6526  -31.3889 H   0  0  0  0  0  0  0  0  0  0  0  0
   -8.3576   13.1787  -35.5620 H   0  0  0  0  0  0  0  0  0  0  0  0
   -8.2110   15.4110  -34.8790 H   0  0  0  0  0  0  0  0  0  0  0  0
   -4.3780   17.1129  -34.5331 H   0  0  0  0  0  0  0  0  0  0  0  0
   -4.2504   19.4785  -33.8353 H   0  0  0  0  0  0  0  0  0  0  0  0
   -4.0086   20.9633  -33.1174 H   0  0  0  0  0  0  0  0  0  0  0  0
   -3.7320   23.3231  -32.4576 H   0  0  0  0  0  0  0  0  0  0  0  0
  1  2  1  0
  2  3  2  0
  2  4  2  0
  2  5  1  0
  5  6  1  0
  6  7  1  0
  7  8  1  0
  8  9  1  0
  9 10  2  0
 10 11  1  0
 11 12  2  0
 12 13  1  0
 13 14  2  0
 14 15  1  0
 15 16  2  0
 16 17  1  0
 17 18  2  0
 18 19  1  0
 19 20  2  0
 20 21  1  0
 21 22  2  0
 22 23  1  0
 23 24  2  0
 24 25  1  0
 25 26  1  0
 25 27  1  0
 25 28  1  0
 24 29  1  0
 29 30  2  0
 19 31  1  0
 31 32  2  0
 32 33  1  0
 16 34  1  0
 34 35  2  0
 12 36  1  0
 36 37  2  0
 37  9  1  0
 35 13  1  0
 33 17  1  0
 30 21  1  0
  1 38  1  0
  1 39  1  0
  1 40  1  0
  5 41  1  0
  5 42  1  0
  6 43  1  0
  6 44  1  0
  7 45  1  0
  8 46  1  0
  8 47  1  0
 10 48  1  0
 11 49  1  0
 14 50  1  0
 15 51  1  0
 18 52  1  0
 22 53  1  0
 23 54  1  0
 29 55  1  0
 30 56  1  0
 32 57  1  0
 33 58  1  0
 34 59  1  0
 35 60  1  0
 36 61  1  0
 37 62  1  0
M  END
>  <smiles>  (47) 
CS(=O)(=O)CCNCc1ccc(-c2ccc(-c3cc(=Nc4ccc(C(F)(F)F)cc4)nc[nH]3)cc2)cc1

>  <score_type>  (47) 
oracle

>  <origin>  (47) 
adgpu

>  <m_score__min__energy>  (47) 
-10.119999999999999

>  <m_primary>  (47) 
energy

$$$$
47:0
     RDKit          3D

 24 25  0  0  0  0  0  0  0  0999 V2000
   -5.5810   26.2030  -30.3950 O   0  0  0  0  0  0  0  0  0  0  0  0
   -4.9700   25.1410  -30.6960 C   0  0  0  0  0  0  0  0  0  0  0  0
   -3.5490   25.0530  -30.5150 N   0  0  0  0  0  0  0  0  0  0  0  0
   -2.8590   24.3290  -29.4850 C   0  0  0  0  0  0  0  0  0  0  0  0
   -3.1610   22.9850  -29.1930 C   0  0  0  0  0  0  0  0  0  0  0  0
   -2.4850   22.3180  -28.1650 C   0  0  0  0  0  0  0  0  0  0  0  0
   -2.8650   20.6430  -27.8080 Cl  0  0  0  0  0  0  0  0  0  0  0  0
   -1.5140   22.9880  -27.4160 C   0  0  0  0  0  0  0  0  0  0  0  0
   -1.2270   24.3280  -27.6840 C   0  0  0  0  0  0  0  0  0  0  0  0
   -1.9000   25.0000  -28.7090 C   0  0  0  0  0  0  0  0  0  0  0  0
   -1.6080   26.3360  -28.9610 O   0  0  0  0  0  0  0  0  0  0  0  0
   -5.7280   23.9680  -31.1850 C   0  0  0  0  0  0  0  0  0  0  0  0
   -7.0920   23.8130  -30.8790 C   0  0  0  0  0  0  0  0  0  0  0  0
   -7.7960   22.7030  -31.3470 C   0  0  0  0  0  0  0  0  0  0  0  0
   -7.1330   21.7490  -32.1230 C   0  0  0  0  0  0  0  0  0  0  0  0
   -7.7520   20.7410  -32.5540 O   0  0  0  0  0  0  0  0  0  0  0  0
   -5.8140   21.9090  -32.4150 N   0  0  0  0  0  0  0  0  0  0  0  0
   -5.1060   22.9810  -31.9710 C   0  0  0  0  0  0  0  0  0  0  0  0
   -3.9310   22.4574  -29.7750 H   0  0  0  0  0  0  0  0  0  0  0  0
   -0.9757   22.4598  -26.6152 H   0  0  0  0  0  0  0  0  0  0  0  0
   -0.4692   24.8565  -27.0870 H   0  0  0  0  0  0  0  0  0  0  0  0
   -7.6058   24.5699  -30.2682 H   0  0  0  0  0  0  0  0  0  0  0  0
   -8.8625   22.5802  -31.1073 H   0  0  0  0  0  0  0  0  0  0  0  0
   -4.0407   23.0773  -32.2277 H   0  0  0  0  0  0  0  0  0  0  0  0
  1  2  2  0
  2  3  1  0
  3  4  1  0
  4  5  2  0
  5  6  1  0
  6  7  1  0
  6  8  2  0
  8  9  1  0
  9 10  2  0
 10 11  1  0
  2 12  1  0
 12 13  1  0
 13 14  2  0
 14 15  1  0
 15 16  2  0
 15 17  1  0
 17 18  1  0
 10  4  1  0
 18 12  2  0
  5 19  1  0
  8 20  1  0
  9 21  1  0
 13 22  1  0
 14 23  1  0
 18 24  1  0
M  CHG  3   3  -1  11  -1  17  -1
M  END
>  <UniqueID>  (48) 
45

>  <SMILES>  (48) 
O=C([N-]c1cc(Cl)ccc1[O-])c1ccc(=O)[n-]c1

>  <Energy>  (48) 
30.540486131418998

>  <Genealogy>  (48) 
O=C([N-]c1cc(Cl)ccc1[O-])c1ccc(=O)[n-]c1 (protonated)
O=C([N-]c1cc(Cl)ccc1[O-])c1ccc(=O)[n-]c1 (3D coordinates assigned)
O=C([N-]c1cc(Cl)ccc1[O-])c1ccc(=O)[n-]c1 (optimized conformer: 30.540486131418998 kcal/mol)

>  <smiles>  (48) 
O=C(Nc1cc(Cl)ccc1O)c1ccc(=O)[nH]c1

>  <score_type>  (48) 
oracle

>  <origin>  (48) 
adgpu

>  <m_score__min__energy>  (48) 
-11.630000000000001

>  <m_primary>  (48) 
energy

$$$$
48:0
     RDKit          3D

 39 40  0  0  0  0  0  0  0  0999 V2000
   -0.4730   26.3020  -23.7610 C   0  0  0  0  0  0  0  0  0  0  0  0
   -1.1170   26.8750  -24.8940 O   0  0  0  0  0  0  0  0  0  0  0  0
   -1.5840   26.1430  -25.9950 C   0  0  0  0  0  0  0  0  0  0  0  0
   -2.7490   25.3560  -25.9420 C   0  0  0  0  0  0  0  0  0  0  0  0
   -3.1760   24.6480  -27.0700 C   0  0  0  0  0  0  0  0  0  0  0  0
   -2.4480   24.7180  -28.2680 C   0  0  0  0  0  0  0  0  0  0  0  0
   -2.9120   23.9710  -29.4910 C   0  0  0  0  0  0  0  0  0  0  0  0
   -3.4820   24.8880  -30.4810 N   0  0  0  0  0  0  0  0  0  0  0  0
   -5.2220   24.8310  -30.4730 S   0  0  0  0  0  0  0  0  0  0  0  0
   -5.7290   24.8050  -29.0570 O   0  0  0  0  0  0  0  0  0  0  0  0
   -5.7550   26.0600  -31.1540 O   0  0  0  0  0  0  0  0  0  0  0  0
   -5.7990   23.4170  -31.3340 C   0  0  0  0  0  0  0  0  0  0  0  0
   -5.0900   22.6460  -32.2320 C   0  0  0  0  0  0  0  0  0  0  0  0
   -5.8860   21.6570  -32.6810 N   0  0  0  0  0  0  0  0  0  0  0  0
   -7.0690   21.7950  -32.0970 N   0  0  0  0  0  0  0  0  0  0  0  0
   -8.2080   20.9020  -32.3250 C   0  0  0  0  0  0  0  0  0  0  0  0
   -7.9570   19.5440  -31.6640 C   0  0  0  0  0  0  0  0  0  0  0  0
   -9.4900   21.5430  -31.7920 C   0  0  0  0  0  0  0  0  0  0  0  0
   -7.0520   22.8540  -31.2660 C   0  0  0  0  0  0  0  0  0  0  0  0
   -1.2910   25.5090  -28.3230 C   0  0  0  0  0  0  0  0  0  0  0  0
   -0.8600   26.2080  -27.1920 C   0  0  0  0  0  0  0  0  0  0  0  0
   -0.9238   26.7031  -22.8412 H   0  0  0  0  0  0  0  0  0  0  0  0
   -0.5958   25.2091  -23.7832 H   0  0  0  0  0  0  0  0  0  0  0  0
    0.5982   26.5511  -23.7832 H   0  0  0  0  0  0  0  0  0  0  0  0
   -3.3273   25.2972  -25.0081 H   0  0  0  0  0  0  0  0  0  0  0  0
   -4.0868   24.0333  -27.0181 H   0  0  0  0  0  0  0  0  0  0  0  0
   -2.0553   23.4458  -29.9384 H   0  0  0  0  0  0  0  0  0  0  0  0
   -3.6892   23.2533  -29.1896 H   0  0  0  0  0  0  0  0  0  0  0  0
   -4.0449   22.8121  -32.5322 H   0  0  0  0  0  0  0  0  0  0  0  0
   -8.3270   20.7383  -33.4062 H   0  0  0  0  0  0  0  0  0  0  0  0
   -7.9783   19.6591  -30.5702 H   0  0  0  0  0  0  0  0  0  0  0  0
   -8.7394   18.8354  -31.9734 H   0  0  0  0  0  0  0  0  0  0  0  0
   -6.9730   19.1619  -31.9734 H   0  0  0  0  0  0  0  0  0  0  0  0
   -9.4741   21.5350  -30.6921 H   0  0  0  0  0  0  0  0  0  0  0  0
   -9.5574   22.5808  -32.1502 H   0  0  0  0  0  0  0  0  0  0  0  0
  -10.3607   20.9742  -32.1502 H   0  0  0  0  0  0  0  0  0  0  0  0
   -7.8890   23.2055  -30.6448 H   0  0  0  0  0  0  0  0  0  0  0  0
   -0.7202   25.5795  -29.2606 H   0  0  0  0  0  0  0  0  0  0  0  0
    0.0562   26.8147  -27.2426 H   0  0  0  0  0  0  0  0  0  0  0  0
  1  2  1  0
  2  3  1  0
  3  4  2  0
  4  5  1  0
  5  6  2  0
  6  7  1  0
  7  8  1  0
  8  9  1  0
  9 10  2  0
  9 11  2  0
  9 12  1  0
 12 13  1  0
 13 14  2  0
 14 15  1  0
 15 16  1  0
 16 17  1  0
 16 18  1  0
 15 19  1  0
  6 20  1  0
 20 21  2  0
 21  3  1  0
 19 12  2  0
  1 22  1  0
  1 23  1  0
  1 24  1  0
  4 25  1  0
  5 26  1  0
  7 27  1  0
  7 28  1  0
 13 29  1  0
 16 30  1  0
 17 31  1  0
 17 32  1  0
 17 33  1  0
 18 34  1  0
 18 35  1  0
 18 36  1  0
 19 37  1  0
 20 38  1  0
 21 39  1  0
M  CHG  1   8  -1
M  END
>  <UniqueID>  (49) 
46

>  <SMILES>  (49) 
COc1ccc(C[N-]S(=O)(=O)c2cnn(C(C)C)c2)cc1

>  <Energy>  (49) 
58.418472677465786

>  <Genealogy>  (49) 
COc1ccc(C[N-]S(=O)(=O)c2cnn(C(C)C)c2)cc1 (protonated)
COc1ccc(C[N-]S(=O)(=O)c2cnn(C(C)C)c2)cc1 (3D coordinates assigned)
COc1ccc(C[N-]S(=O)(=O)c2cnn(C(C)C)c2)cc1 (optimized conformer: 58.418472677465786 kcal/mol)

>  <smiles>  (49) 
COc1ccc(CNS(=O)(=O)c2cnn(C(C)C)c2)cc1

>  <score_type>  (49) 
oracle

>  <origin>  (49) 
adgpu

>  <m_score__min__energy>  (49) 
-8.5299999999999994

>  <m_primary>  (49) 
energy

$$$$
