0:0
     RDKit          3D

 61 64  0  0  0  0  0  0  0  0999 V2000
   -0.2990   22.6970  -26.0830 C   0  0  0  0  0  0  0  0  0  0  0  0
   -1.4270   22.8880  -27.0650 C   0  0  0  0  0  0  0  0  0  0  0  0
   -2.3970   21.8780  -27.1710 C   0  0  0  0  0  0  0  0  0  0  0  0
   -3.4810   22.0190  -28.0330 C   0  0  0  0  0  0  0  0  0  0  0  0
   -3.6310   23.1790  -28.7950 C   0  0  0  0  0  0  0  0  0  0  0  0
   -4.7650   23.2980  -29.6660 N   0  0  0  0  0  0  0  0  0  0  0  0
   -4.6490   23.2760  -31.0990 C   0  0  0  0  0  0  0  0  0  0  0  0
   -3.5330   23.0620  -31.6440 O   0  0  0  0  0  0  0  0  0  0  0  0
   -5.7980   23.4590  -31.9340 N   0  0  0  0  0  0  0  0  0  0  0  0
   -6.9870   22.6580  -31.9110 C   0  0  0  0  0  0  0  0  0  0  0  0
   -8.2660   23.2390  -31.9440 C   0  0  0  0  0  0  0  0  0  0  0  0
   -9.4050   22.4300  -31.9670 C   0  0  0  0  0  0  0  0  0  0  0  0
   -9.2770   21.0390  -31.9700 C   0  0  0  0  0  0  0  0  0  0  0  0
   -8.0060   20.4480  -31.9540 C   0  0  0  0  0  0  0  0  0  0  0  0
   -7.8430   18.6880  -31.9820 S   0  0  0  0  0  0  0  0  0  0  0  0
   -9.1970   18.0670  -31.7700 O   0  0  0  0  0  0  0  0  0  0  0  0
   -6.9540   18.2610  -30.8470 O   0  0  0  0  0  0  0  0  0  0  0  0
   -7.1760   18.0920  -33.4830 N   0  0  0  0  0  0  0  0  0  0  0  0
   -6.5160   16.7980  -33.3160 C   0  0  0  0  0  0  0  0  0  0  0  0
   -5.4870   16.6950  -34.4310 C   0  0  0  0  0  0  0  0  0  0  0  0
   -5.2560   18.1250  -34.8990 C   0  0  0  0  0  0  0  0  0  0  0  0
   -6.1540   18.9850  -34.0240 C   0  0  0  0  0  0  0  0  0  0  0  0
   -6.8650   21.2630  -31.9420 C   0  0  0  0  0  0  0  0  0  0  0  0
   -2.6540   24.1880  -28.7310 C   0  0  0  0  0  0  0  0  0  0  0  0
   -2.7690   25.2930  -29.5670 O   0  0  0  0  0  0  0  0  0  0  0  0
   -1.5570   24.0660  -27.8470 C   0  0  0  0  0  0  0  0  0  0  0  0
   -0.3590   25.3790  -27.7110 S   0  0  0  0  0  0  0  0  0  0  0  0
   -0.7600   26.5750  -28.5330 O   0  0  0  0  0  0  0  0  0  0  0  0
    0.9650   24.8800  -28.2180 O   0  0  0  0  0  0  0  0  0  0  0  0
   -0.2090   25.8610  -26.0390 N   0  0  0  0  0  0  0  0  0  0  0  0
   -1.5110   26.3210  -25.5310 C   0  0  0  0  0  0  0  0  0  0  0  0
   -1.3730   26.8160  -24.0760 C   0  0  0  0  0  0  0  0  0  0  0  0
   -0.0340   26.7490  -23.6190 O   0  0  0  0  0  0  0  0  0  0  0  0
    0.7990   27.5030  -24.4790 C   0  0  0  0  0  0  0  0  0  0  0  0
    0.7960   26.9280  -25.9100 C   0  0  0  0  0  0  0  0  0  0  0  0
   -0.6907   22.7633  -25.0572 H   0  0  0  0  0  0  0  0  0  0  0  0
    0.1584   21.7086  -26.2377 H   0  0  0  0  0  0  0  0  0  0  0  0
    0.4583   23.4797  -26.2377 H   0  0  0  0  0  0  0  0  0  0  0  0
   -2.2991   20.9647  -26.5658 H   0  0  0  0  0  0  0  0  0  0  0  0
   -4.2237   21.2116  -28.1142 H   0  0  0  0  0  0  0  0  0  0  0  0
   -5.6860   23.5270  -29.2320 H   0  0  0  0  0  0  0  0  0  0  0  0
   -8.3709   24.3340  -31.9518 H   0  0  0  0  0  0  0  0  0  0  0  0
  -10.4044   22.8894  -31.9828 H   0  0  0  0  0  0  0  0  0  0  0  0
  -10.1762   20.4056  -31.9850 H   0  0  0  0  0  0  0  0  0  0  0  0
   -6.0207   16.7471  -32.3351 H   0  0  0  0  0  0  0  0  0  0  0  0
   -7.2402   15.9714  -33.3635 H   0  0  0  0  0  0  0  0  0  0  0  0
   -4.5513   16.2578  -34.0524 H   0  0  0  0  0  0  0  0  0  0  0  0
   -5.8333   16.0469  -35.2495 H   0  0  0  0  0  0  0  0  0  0  0  0
   -4.2017   18.4085  -34.7647 H   0  0  0  0  0  0  0  0  0  0  0  0
   -5.4858   18.2483  -35.9676 H   0  0  0  0  0  0  0  0  0  0  0  0
   -5.5712   19.4360  -33.2073 H   0  0  0  0  0  0  0  0  0  0  0  0
   -6.6050   19.8067  -34.5996 H   0  0  0  0  0  0  0  0  0  0  0  0
   -5.8659   20.8030  -31.9571 H   0  0  0  0  0  0  0  0  0  0  0  0
   -1.8761   27.1450  -26.1616 H   0  0  0  0  0  0  0  0  0  0  0  0
   -2.2224   25.4824  -25.5580 H   0  0  0  0  0  0  0  0  0  0  0  0
   -1.7152   27.8600  -24.0218 H   0  0  0  0  0  0  0  0  0  0  0  0
   -1.9845   26.1638  -23.4351 H   0  0  0  0  0  0  0  0  0  0  0  0
    0.4363   28.5410  -24.5094 H   0  0  0  0  0  0  0  0  0  0  0  0
    1.8272   27.4606  -24.0905 H   0  0  0  0  0  0  0  0  0  0  0  0
    0.5617   27.7329  -26.6222 H   0  0  0  0  0  0  0  0  0  0  0  0
    1.7892   26.5065  -26.1241 H   0  0  0  0  0  0  0  0  0  0  0  0
  1  2  1  0
  2  3  2  0
  3  4  1  0
  4  5  2  0
  5  6  1  0
  6  7  1  0
  7  8  2  0
  7  9  1  0
  9 10  1  0
 10 11  2  0
 11 12  1  0
 12 13  2  0
 13 14  1  0
 14 15  1  0
 15 16  2  0
 15 17  2  0
 15 18  1  0
 18 19  1  0
 19 20  1  0
 20 21  1  0
 21 22  1  0
 14 23  2  0
  5 24  1  0
 24 25  1  0
 24 26  2  0
 26 27  1  0
 27 28  2  0
 27 29  2  0
 27 30  1  0
 30 31  1  0
 31 32  1  0
 32 33  1  0
 33 34  1  0
 34 35  1  0
 26  2  1  0
 35 30  1  0
 23 10  1  0
 22 18  1  0
  1 36  1  0
  1 37  1  0
  1 38  1  0
  3 39  1  0
  4 40  1  0
  6 41  1  0
 11 42  1  0
 12 43  1  0
 13 44  1  0
 19 45  1  0
 19 46  1  0
 20 47  1  0
 20 48  1  0
 21 49  1  0
 21 50  1  0
 22 51  1  0
 22 52  1  0
 23 53  1  0
 31 54  1  0
 31 55  1  0
 32 56  1  0
 32 57  1  0
 34 58  1  0
 34 59  1  0
 35 60  1  0
 35 61  1  0
M  CHG  2   9  -1  25  -1
M  END
>  <UniqueID>  (1) 
1

>  <SMILES>  (1) 
Cc1ccc(NC(=O)[N-]c2cccc(S(=O)(=O)N3CCCC3)c2)c([O-])c1S(=O)(=O)N1CCOCC1

>  <Energy>  (1) 
84.1380600705373

>  <Genealogy>  (1) 
Cc1ccc(NC(=O)[N-]c2cccc(S(=O)(=O)N3CCCC3)c2)c([O-])c1S(=O)(=O)N1CCOCC1 (protonated)
Cc1ccc(NC(=O)[N-]c2cccc(S(=O)(=O)N3CCCC3)c2)c([O-])c1S(=O)(=O)N1CCOCC1 (3D coordinates assigned)
Cc1ccc(NC(=O)[N-]c2cccc(S(=O)(=O)N3CCCC3)c2)c([O-])c1S(=O)(=O)N1CCOCC1 (nonaromatic ring conformer: 84.1380600705373 kcal/mol)

>  <smiles>  (1) 
Cc1ccc(NC(=O)Nc2cccc(S(=O)(=O)N3CCCC3)c2)c(O)c1S(=O)(=O)N1CCOCC1

>  <score_type>  (1) 
oracle

>  <origin>  (1) 
adgpu

>  <m_score__min__energy>  (1) 
-15.26

>  <m_primary>  (1) 
energy

$$$$
1:0
     RDKit          3D

 30 31  0  0  0  0  0  0  0  0999 V2000
   -5.4140   19.2290  -33.8600 C   0  0  0  0  0  0  0  0  0  0  0  0
   -5.1430   20.6140  -32.7090 S   0  0  0  0  0  0  0  0  0  0  0  0
   -6.8940   20.8530  -32.3540 C   0  0  0  0  0  0  0  0  0  0  0  0
   -7.7700   19.7800  -32.5730 C   0  0  0  0  0  0  0  0  0  0  0  0
   -9.1430   19.9350  -32.3730 C   0  0  0  0  0  0  0  0  0  0  0  0
   -9.6570   21.1690  -31.9750 C   0  0  0  0  0  0  0  0  0  0  0  0
   -8.7980   22.2530  -31.7760 C   0  0  0  0  0  0  0  0  0  0  0  0
   -7.4120   22.1080  -31.9510 C   0  0  0  0  0  0  0  0  0  0  0  0
   -6.5490   23.2940  -31.7890 C   0  0  0  0  0  0  0  0  0  0  0  0
   -5.5190   23.4100  -32.5070 O   0  0  0  0  0  0  0  0  0  0  0  0
   -6.8910   24.3260  -30.8530 N   0  0  0  0  0  0  0  0  0  0  0  0
   -5.9260   25.3280  -30.4090 C   0  0  0  0  0  0  0  0  0  0  0  0
   -4.6830   24.6510  -29.9250 C   0  0  0  0  0  0  0  0  0  0  0  0
   -4.6160   23.6860  -28.9420 C   0  0  0  0  0  0  0  0  0  0  0  0
   -3.2770   23.3920  -28.8040 C   0  0  0  0  0  0  0  0  0  0  0  0
   -2.6120   24.1970  -29.7060 C   0  0  0  0  0  0  0  0  0  0  0  0
   -3.4780   24.9390  -30.3590 O   0  0  0  0  0  0  0  0  0  0  0  0
   -5.5944   18.3069  -33.2881 H   0  0  0  0  0  0  0  0  0  0  0  0
   -6.2871   19.4442  -34.4936 H   0  0  0  0  0  0  0  0  0  0  0  0
   -4.5242   19.0993  -34.4936 H   0  0  0  0  0  0  0  0  0  0  0  0
   -7.3725   18.8094  -32.9047 H   0  0  0  0  0  0  0  0  0  0  0  0
   -9.8204   19.0826  -32.5295 H   0  0  0  0  0  0  0  0  0  0  0  0
  -10.7391   21.2889  -31.8177 H   0  0  0  0  0  0  0  0  0  0  0  0
   -9.2109   23.2285  -31.4797 H   0  0  0  0  0  0  0  0  0  0  0  0
   -7.8620   24.3710  -30.4780 H   0  0  0  0  0  0  0  0  0  0  0  0
   -5.6768   25.9931  -31.2490 H   0  0  0  0  0  0  0  0  0  0  0  0
   -6.3632   25.9166  -29.5890 H   0  0  0  0  0  0  0  0  0  0  0  0
   -5.4553   23.2439  -28.3851 H   0  0  0  0  0  0  0  0  0  0  0  0
   -2.8284   22.6624  -28.1137 H   0  0  0  0  0  0  0  0  0  0  0  0
   -1.5224   24.2149  -29.8558 H   0  0  0  0  0  0  0  0  0  0  0  0
  1  2  1  0
  2  3  1  0
  3  4  2  0
  4  5  1  0
  5  6  2  0
  6  7  1  0
  7  8  2  0
  8  9  1  0
  9 10  2  0
  9 11  1  0
 11 12  1  0
 12 13  1  0
 13 14  2  0
 14 15  1  0
 15 16  2  0
 16 17  1  0
  8  3  1  0
 17 13  1  0
  1 18  1  0
  1 19  1  0
  1 20  1  0
  4 21  1  0
  5 22  1  0
  6 23  1  0
  7 24  1  0
 11 25  1  0
 12 26  1  0
 12 27  1  0
 14 28  1  0
 15 29  1  0
 16 30  1  0
M  END
>  <UniqueID>  (2) 
2

>  <SMILES>  (2) 
CSc1ccccc1C(=O)NCc1ccco1

>  <Energy>  (2) 
55.2544100643039

>  <Genealogy>  (2) 
CSc1ccccc1C(=O)NCc1ccco1 (3D coordinates assigned)
CSc1ccccc1C(=O)NCc1ccco1 (optimized conformer: 55.2544100643039 kcal/mol)

>  <smiles>  (2) 
CSc1ccccc1C(=O)NCc1ccco1

>  <score_type>  (2) 
oracle

>  <origin>  (2) 
adgpu

>  <m_score__min__energy>  (2) 
-7.3799999999999999

>  <m_primary>  (2) 
energy

$$$$
2:0
     RDKit          3D

 50 52  0  0  0  0  0  0  0  0999 V2000
   -8.9890   19.7130  -32.1100 C   0  0  0  0  0  0  0  0  0  0  0  0
   -8.1220   20.9430  -32.0490 C   0  0  0  0  0  0  0  0  0  0  0  0
   -8.7320   22.1810  -31.7850 C   0  0  0  0  0  0  0  0  0  0  0  0
   -7.9770   23.3510  -31.7420 C   0  0  0  0  0  0  0  0  0  0  0  0
   -6.5990   23.3250  -31.9730 C   0  0  0  0  0  0  0  0  0  0  0  0
   -5.8930   24.5780  -31.9230 N   0  0  0  0  0  0  0  0  0  0  0  0
   -5.2990   25.3010  -30.8330 C   0  0  0  0  0  0  0  0  0  0  0  0
   -6.0410   25.9980  -30.0950 O   0  0  0  0  0  0  0  0  0  0  0  0
   -3.8990   25.2670  -30.5590 N   0  0  0  0  0  0  0  0  0  0  0  0
   -3.2260   24.3790  -29.6490 C   0  0  0  0  0  0  0  0  0  0  0  0
   -3.7370   23.0870  -29.5140 C   0  0  0  0  0  0  0  0  0  0  0  0
   -3.1540   22.1810  -28.6340 C   0  0  0  0  0  0  0  0  0  0  0  0
   -2.0410   22.5440  -27.8740 C   0  0  0  0  0  0  0  0  0  0  0  0
   -1.4260   21.3500  -26.7370 Cl  0  0  0  0  0  0  0  0  0  0  0  0
   -1.4920   23.8420  -28.0010 C   0  0  0  0  0  0  0  0  0  0  0  0
   -0.1080   24.3690  -27.0170 S   0  0  0  0  0  0  0  0  0  0  0  0
    0.8200   23.2220  -26.7310 O   0  0  0  0  0  0  0  0  0  0  0  0
    0.6770   25.4140  -27.7610 O   0  0  0  0  0  0  0  0  0  0  0  0
   -0.7430   25.0940  -25.5070 C   0  0  0  0  0  0  0  0  0  0  0  0
   -2.1400   25.6770  -25.6160 C   0  0  0  0  0  0  0  0  0  0  0  0
   -0.9350   26.6000  -25.5440 C   0  0  0  0  0  0  0  0  0  0  0  0
   -2.1040   24.7630  -28.8800 C   0  0  0  0  0  0  0  0  0  0  0  0
   -1.6070   26.0600  -28.9690 O   0  0  0  0  0  0  0  0  0  0  0  0
   -5.9830   22.0900  -32.2440 C   0  0  0  0  0  0  0  0  0  0  0  0
   -6.7190   20.8940  -32.2400 C   0  0  0  0  0  0  0  0  0  0  0  0
   -5.8170   19.3870  -32.4980 S   0  0  0  0  0  0  0  0  0  0  0  0
   -5.8380   18.5970  -31.2190 O   0  0  0  0  0  0  0  0  0  0  0  0
   -4.3880   19.6500  -32.8870 O   0  0  0  0  0  0  0  0  0  0  0  0
   -6.5920   18.4770  -33.7730 N   0  0  0  0  0  0  0  0  0  0  0  0
   -5.7260   18.4720  -34.9600 C   0  0  0  0  0  0  0  0  0  0  0  0
   -6.8300   17.1020  -33.3210 C   0  0  0  0  0  0  0  0  0  0  0  0
   -9.2243   19.3792  -31.0886 H   0  0  0  0  0  0  0  0  0  0  0  0
   -9.9221   19.9482  -32.6430 H   0  0  0  0  0  0  0  0  0  0  0  0
   -8.4539   18.9133  -32.6430 H   0  0  0  0  0  0  0  0  0  0  0  0
   -9.8171   22.2268  -31.6104 H   0  0  0  0  0  0  0  0  0  0  0  0
   -8.4723   24.3085  -31.5232 H   0  0  0  0  0  0  0  0  0  0  0  0
   -4.6099   22.7821  -30.1098 H   0  0  0  0  0  0  0  0  0  0  0  0
   -3.5741   21.1691  -28.5362 H   0  0  0  0  0  0  0  0  0  0  0  0
   -0.2413   24.3903  -24.8265 H   0  0  0  0  0  0  0  0  0  0  0  0
   -2.7042   25.5813  -26.5555 H   0  0  0  0  0  0  0  0  0  0  0  0
   -3.0738   25.5710  -25.0444 H   0  0  0  0  0  0  0  0  0  0  0  0
   -0.6266   27.1723  -26.4313 H   0  0  0  0  0  0  0  0  0  0  0  0
   -0.6347   27.4388  -24.8989 H   0  0  0  0  0  0  0  0  0  0  0  0
   -4.9054   22.0604  -32.4630 H   0  0  0  0  0  0  0  0  0  0  0  0
   -4.6721   18.4659  -34.6450 H   0  0  0  0  0  0  0  0  0  0  0  0
   -5.9340   17.5750  -35.5618 H   0  0  0  0  0  0  0  0  0  0  0  0
   -5.9236   19.3713  -35.5618 H   0  0  0  0  0  0  0  0  0  0  0  0
   -6.8350   17.0732  -32.2214 H   0  0  0  0  0  0  0  0  0  0  0  0
   -7.8017   16.7540  -33.7013 H   0  0  0  0  0  0  0  0  0  0  0  0
   -6.0318   16.4477  -33.7013 H   0  0  0  0  0  0  0  0  0  0  0  0
  1  2  1  0
  2  3  2  0
  3  4  1  0
  4  5  2  0
  5  6  1  0
  6  7  1  0
  7  8  2  0
  7  9  1  0
  9 10  1  0
 10 11  2  0
 11 12  1  0
 12 13  2  0
 13 14  1  0
 13 15  1  0
 15 16  1  0
 16 17  2  0
 16 18  2  0
 16 19  1  0
 19 20  1  0
 20 21  1  0
 15 22  2  0
 22 23  1  0
  5 24  1  0
 24 25  2  0
 25 26  1  0
 26 27  2  0
 26 28  2  0
 26 29  1  0
 29 30  1  0
 29 31  1  0
 25  2  1  0
 22 10  1  0
 21 19  1  0
  1 32  1  0
  1 33  1  0
  1 34  1  0
  3 35  1  0
  4 36  1  0
 11 37  1  0
 12 38  1  0
 19 39  1  0
 20 40  1  0
 20 41  1  0
 21 42  1  0
 21 43  1  0
 24 44  1  0
 30 45  1  0
 30 46  1  0
 30 47  1  0
 31 48  1  0
 31 49  1  0
 31 50  1  0
M  CHG  3   6  -1   9  -1  23  -1
M  END
>  <UniqueID>  (3) 
3

>  <SMILES>  (3) 
Cc1ccc([N-]C(=O)[N-]c2ccc(Cl)c(S(=O)(=O)C3CC3)c2[O-])cc1S(=O)(=O)N(C)C

>  <Energy>  (3) 
328.628620889511

>  <Genealogy>  (3) 
Cc1ccc([N-]C(=O)[N-]c2ccc(Cl)c(S(=O)(=O)C3CC3)c2[O-])cc1S(=O)(=O)N(C)C (protonated)
Cc1ccc([N-]C(=O)[N-]c2ccc(Cl)c(S(=O)(=O)C3CC3)c2[O-])cc1S(=O)(=O)N(C)C (3D coordinates assigned)
Cc1ccc([N-]C(=O)[N-]c2ccc(Cl)c(S(=O)(=O)C3CC3)c2[O-])cc1S(=O)(=O)N(C)C (nonaromatic ring conformer: 328.628620889511 kcal/mol)

>  <smiles>  (3) 
Cc1ccc(NC(=O)Nc2ccc(Cl)c(S(=O)(=O)C3CC3)c2O)cc1S(=O)(=O)N(C)C

>  <score_type>  (3) 
oracle

>  <origin>  (3) 
adgpu

>  <m_score__min__energy>  (3) 
-16.52

>  <m_primary>  (3) 
energy

$$$$
3:0
     RDKit          3D

 53 58  0  0  0  0  0  0  0  0999 V2000
   -0.0280   23.7350  -27.9850 C   0  0  0  0  0  0  0  0  0  0  0  0
   -1.1560   24.2700  -28.6080 C   0  0  0  0  0  0  0  0  0  0  0  0
   -1.9660   23.4400  -29.3960 C   0  0  0  0  0  0  0  0  0  0  0  0
   -3.1730   23.9690  -30.0670 C   0  0  0  0  0  0  0  0  0  0  0  0
   -3.5690   25.2650  -30.0070 N   0  0  0  0  0  0  0  0  0  0  0  0
   -4.6890   25.4150  -30.7090 N   0  0  0  0  0  0  0  0  0  0  0  0
   -5.0020   24.2110  -31.2150 C   0  0  0  0  0  0  0  0  0  0  0  0
   -6.0880   23.8710  -32.0120 C   0  0  0  0  0  0  0  0  0  0  0  0
   -6.2090   22.5710  -32.4100 N   0  0  0  0  0  0  0  0  0  0  0  0
   -5.3040   21.6010  -32.0520 C   0  0  0  0  0  0  0  0  0  0  0  0
   -5.4950   20.2480  -32.5030 N   0  0  0  0  0  0  0  0  0  0  0  0
   -6.7310   19.4770  -32.3330 C   0  0  0  0  0  0  0  0  0  0  0  0
   -6.4090   18.1800  -32.9720 C   0  0  0  0  0  0  0  0  0  0  0  0
   -7.2320   17.0600  -33.1010 C   0  0  0  0  0  0  0  0  0  0  0  0
   -6.7210   15.9240  -33.7490 C   0  0  0  0  0  0  0  0  0  0  0  0
   -5.4050   15.9260  -34.2530 C   0  0  0  0  0  0  0  0  0  0  0  0
   -4.5950   17.0640  -34.1110 C   0  0  0  0  0  0  0  0  0  0  0  0
   -5.1240   18.1820  -33.4640 C   0  0  0  0  0  0  0  0  0  0  0  0
   -4.4610   19.4830  -33.2030 C   0  0  0  0  0  0  0  0  0  0  0  0
   -4.1960   21.9460  -31.2430 C   0  0  0  0  0  0  0  0  0  0  0  0
   -4.0850   23.2770  -30.8430 C   0  0  0  0  0  0  0  0  0  0  0  0
   -1.6310   22.1300  -29.5390 N   0  0  0  0  0  0  0  0  0  0  0  0
   -0.5370   21.5740  -28.9500 C   0  0  0  0  0  0  0  0  0  0  0  0
   -0.2500   20.1730  -29.1550 N   0  0  0  0  0  0  0  0  0  0  0  0
   -0.5910   19.1960  -28.1120 C   0  0  0  0  0  0  0  0  0  0  0  0
    0.4000   18.0250  -28.1450 C   0  0  0  0  0  0  0  0  0  0  0  0
    0.5490   17.4060  -29.4850 N   0  0  0  0  0  0  0  0  0  0  0  0
   -0.0290   18.1800  -30.5980 C   0  0  0  0  0  0  0  0  0  0  0  0
    0.2370   19.6830  -30.4520 C   0  0  0  0  0  0  0  0  0  0  0  0
    0.2890   22.3850  -28.1510 C   0  0  0  0  0  0  0  0  0  0  0  0
    0.6123   24.3772  -27.3624 H   0  0  0  0  0  0  0  0  0  0  0  0
   -1.4076   25.3334  -28.4821 H   0  0  0  0  0  0  0  0  0  0  0  0
   -6.8282   24.6269  -32.3133 H   0  0  0  0  0  0  0  0  0  0  0  0
   -6.9698   19.3437  -31.2675 H   0  0  0  0  0  0  0  0  0  0  0  0
   -7.6111   19.9688  -32.7728 H   0  0  0  0  0  0  0  0  0  0  0  0
   -8.2578   17.0672  -32.7039 H   0  0  0  0  0  0  0  0  0  0  0  0
   -7.3503   15.0291  -33.8637 H   0  0  0  0  0  0  0  0  0  0  0  0
   -5.0109   15.0326  -34.7596 H   0  0  0  0  0  0  0  0  0  0  0  0
   -3.5665   17.0743  -34.5009 H   0  0  0  0  0  0  0  0  0  0  0  0
   -3.5703   19.3525  -32.5708 H   0  0  0  0  0  0  0  0  0  0  0  0
   -4.1026   19.9770  -34.1182 H   0  0  0  0  0  0  0  0  0  0  0  0
   -3.4517   21.1942  -30.9416 H   0  0  0  0  0  0  0  0  0  0  0  0
   -0.5456   19.6839  -27.1271 H   0  0  0  0  0  0  0  0  0  0  0  0
   -1.6067   18.8144  -28.2931 H   0  0  0  0  0  0  0  0  0  0  0  0
    1.3845   18.3943  -27.8219 H   0  0  0  0  0  0  0  0  0  0  0  0
    0.0018   17.2486  -27.4752 H   0  0  0  0  0  0  0  0  0  0  0  0
    0.0970   16.4620  -29.4760 H   0  0  0  0  0  0  0  0  0  0  0  0
    1.5680   17.2580  -29.6760 H   0  0  0  0  0  0  0  0  0  0  0  0
    0.4153   17.8308  -31.5417 H   0  0  0  0  0  0  0  0  0  0  0  0
   -1.1181   18.0255  -30.5896 H   0  0  0  0  0  0  0  0  0  0  0  0
    1.3191   19.8669  -30.5243 H   0  0  0  0  0  0  0  0  0  0  0  0
   -0.2951   20.2159  -31.2538 H   0  0  0  0  0  0  0  0  0  0  0  0
    1.1772   21.9595  -27.6610 H   0  0  0  0  0  0  0  0  0  0  0  0
  1  2  2  0
  2  3  1  0
  3  4  1  0
  4  5  1  0
  5  6  1  0
  6  7  2  0
  7  8  1  0
  8  9  2  0
  9 10  1  0
 10 11  1  0
 11 12  1  0
 12 13  1  0
 13 14  2  0
 14 15  1  0
 15 16  2  0
 16 17  1  0
 17 18  2  0
 18 19  1  0
 10 20  2  0
 20 21  1  0
  3 22  2  0
 22 23  1  0
 23 24  1  0
 24 25  1  0
 25 26  1  0
 26 27  1  0
 27 28  1  0
 28 29  1  0
 23 30  2  0
 30  1  1  0
 21  4  2  0
 29 24  1  0
 21  7  1  0
 19 11  1  0
 18 13  1  0
  1 31  1  0
  2 32  1  0
  8 33  1  0
 12 34  1  0
 12 35  1  0
 14 36  1  0
 15 37  1  0
 16 38  1  0
 17 39  1  0
 19 40  1  0
 19 41  1  0
 20 42  1  0
 25 43  1  0
 25 44  1  0
 26 45  1  0
 26 46  1  0
 27 47  1  0
 27 48  1  0
 28 49  1  0
 28 50  1  0
 29 51  1  0
 29 52  1  0
 30 53  1  0
M  CHG  2   5  -1  27   1
M  END
>  <UniqueID>  (4) 
4

>  <SMILES>  (4) 
c1cc(-c2[n-]nc3cnc(N4Cc5ccccc5C4)cc23)nc(N2CC[NH2+]CC2)c1

>  <Energy>  (4) 
116.18190380212761

>  <Genealogy>  (4) 
c1cc(-c2[n-]nc3cnc(N4Cc5ccccc5C4)cc23)nc(N2CC[NH2+]CC2)c1 (protonated)
c1cc(-c2[n-]nc3cnc(N4Cc5ccccc5C4)cc23)nc(N2CC[NH2+]CC2)c1 (3D coordinates assigned)
c1cc(-c2[n-]nc3cnc(N4Cc5ccccc5C4)cc23)nc(N2CC[NH2+]CC2)c1 (nonaromatic ring conformer: 116.18190380212761 kcal/mol)

>  <smiles>  (4) 
c1cc(-c2[nH]nc3cnc(N4Cc5ccccc5C4)cc23)nc(N2CCNCC2)c1

>  <score_type>  (4) 
oracle

>  <origin>  (4) 
adgpu

>  <m_score__min__energy>  (4) 
-11.59

>  <m_primary>  (4) 
energy

$$$$
4:0
     RDKit          3D

 51 54  0  0  0  0  0  0  0  0999 V2000
   -3.4330   17.7690  -35.3430 O   0  0  0  0  0  0  0  0  0  0  0  0
   -4.1730   17.8860  -34.3300 C   0  0  0  0  0  0  0  0  0  0  0  0
   -3.6030   18.4210  -33.1200 N   0  0  0  0  0  0  0  0  0  0  0  0
   -3.9370   19.7140  -32.6050 C   0  0  0  0  0  0  0  0  0  0  0  0
   -4.4050   19.8590  -31.2910 C   0  0  0  0  0  0  0  0  0  0  0  0
   -4.8000   21.1140  -30.8200 C   0  0  0  0  0  0  0  0  0  0  0  0
   -4.7430   22.2330  -31.6630 C   0  0  0  0  0  0  0  0  0  0  0  0
   -5.2780   23.8060  -31.0800 S   0  0  0  0  0  0  0  0  0  0  0  0
   -5.9550   24.5340  -32.2060 O   0  0  0  0  0  0  0  0  0  0  0  0
   -6.2530   23.6430  -29.9460 O   0  0  0  0  0  0  0  0  0  0  0  0
   -3.9210   24.7490  -30.5340 N   0  0  0  0  0  0  0  0  0  0  0  0
   -3.0830   24.4290  -29.5890 C   0  0  0  0  0  0  0  0  0  0  0  0
   -3.1740   23.2200  -28.8660 C   0  0  0  0  0  0  0  0  0  0  0  0
   -2.2280   22.9390  -27.8790 C   0  0  0  0  0  0  0  0  0  0  0  0
   -1.2070   23.8500  -27.6110 C   0  0  0  0  0  0  0  0  0  0  0  0
   -1.1480   25.0400  -28.3360 C   0  0  0  0  0  0  0  0  0  0  0  0
   -2.0750   25.2970  -29.2990 N   0  0  0  0  0  0  0  0  0  0  0  0
   -4.2490   22.0920  -32.9690 C   0  0  0  0  0  0  0  0  0  0  0  0
   -3.8400   20.8380  -33.4350 C   0  0  0  0  0  0  0  0  0  0  0  0
   -5.6390   17.4880  -34.3970 C   0  0  0  0  0  0  0  0  0  0  0  0
   -5.8300   15.9970  -34.1660 C   0  0  0  0  0  0  0  0  0  0  0  0
   -7.0260   15.3740  -34.5710 C   0  0  0  0  0  0  0  0  0  0  0  0
   -7.2010   13.9990  -34.3970 C   0  0  0  0  0  0  0  0  0  0  0  0
   -6.1890   13.2320  -33.8110 C   0  0  0  0  0  0  0  0  0  0  0  0
   -5.0070   13.8390  -33.3860 C   0  0  0  0  0  0  0  0  0  0  0  0
   -4.8270   15.2120  -33.5570 C   0  0  0  0  0  0  0  0  0  0  0  0
   -6.5400   18.2830  -33.4620 C   0  0  0  0  0  0  0  0  0  0  0  0
   -7.1340   17.6910  -32.3280 C   0  0  0  0  0  0  0  0  0  0  0  0
   -8.0010   18.4320  -31.5160 C   0  0  0  0  0  0  0  0  0  0  0  0
   -8.2910   19.7670  -31.8250 C   0  0  0  0  0  0  0  0  0  0  0  0
   -7.7090   20.3660  -32.9450 C   0  0  0  0  0  0  0  0  0  0  0  0
   -6.8400   19.6290  -33.7610 C   0  0  0  0  0  0  0  0  0  0  0  0
   -4.4613   18.9822  -30.6291 H   0  0  0  0  0  0  0  0  0  0  0  0
   -5.1566   21.2243  -29.7853 H   0  0  0  0  0  0  0  0  0  0  0  0
   -3.9832   22.5058  -29.0786 H   0  0  0  0  0  0  0  0  0  0  0  0
   -2.2879   21.9982  -27.3122 H   0  0  0  0  0  0  0  0  0  0  0  0
   -0.4566   23.6326  -26.8366 H   0  0  0  0  0  0  0  0  0  0  0  0
   -0.3523   25.7709  -28.1296 H   0  0  0  0  0  0  0  0  0  0  0  0
   -4.1832   22.9701  -33.6282 H   0  0  0  0  0  0  0  0  0  0  0  0
   -3.4415   20.7345  -34.4551 H   0  0  0  0  0  0  0  0  0  0  0  0
   -5.9512   17.7366  -35.4220 H   0  0  0  0  0  0  0  0  0  0  0  0
   -7.8274   15.9737  -35.0272 H   0  0  0  0  0  0  0  0  0  0  0  0
   -8.1361   13.5189  -34.7213 H   0  0  0  0  0  0  0  0  0  0  0  0
   -6.3253   12.1478  -33.6849 H   0  0  0  0  0  0  0  0  0  0  0  0
   -4.2168   13.2351  -32.9160 H   0  0  0  0  0  0  0  0  0  0  0  0
   -3.8958   15.6868  -33.2144 H   0  0  0  0  0  0  0  0  0  0  0  0
   -6.9150   16.6419  -32.0803 H   0  0  0  0  0  0  0  0  0  0  0  0
   -8.4566   17.9635  -30.6312 H   0  0  0  0  0  0  0  0  0  0  0  0
   -8.9765   20.3434  -31.1863 H   0  0  0  0  0  0  0  0  0  0  0  0
   -7.9327   21.4156  -33.1863 H   0  0  0  0  0  0  0  0  0  0  0  0
   -6.3872   20.1046  -34.6435 H   0  0  0  0  0  0  0  0  0  0  0  0
  1  2  2  0
  2  3  1  0
  3  4  1  0
  4  5  2  0
  5  6  1  0
  6  7  2  0
  7  8  1  0
  8  9  2  0
  8 10  2  0
  8 11  1  0
 11 12  2  3
 12 13  1  0
 13 14  2  0
 14 15  1  0
 15 16  2  0
 16 17  1  0
  7 18  1  0
 18 19  2  0
  2 20  1  0
 20 21  1  0
 21 22  2  0
 22 23  1  0
 23 24  2  0
 24 25  1  0
 25 26  2  0
 20 27  1  0
 27 28  2  0
 28 29  1  0
 29 30  2  0
 30 31  1  0
 31 32  2  0
 19  4  1  0
 26 21  1  0
 32 27  1  0
 17 12  1  0
  5 33  1  0
  6 34  1  0
 13 35  1  0
 14 36  1  0
 15 37  1  0
 16 38  1  0
 18 39  1  0
 19 40  1  0
 20 41  1  0
 22 42  1  0
 23 43  1  0
 24 44  1  0
 25 45  1  0
 26 46  1  0
 28 47  1  0
 29 48  1  0
 30 49  1  0
 31 50  1  0
 32 51  1  0
M  CHG  2   3  -1  17  -1
M  END
>  <UniqueID>  (5) 
5

>  <SMILES>  (5) 
O=C([N-]c1ccc(S(=O)(=O)N=c2cccc[n-]2)cc1)C(c1ccccc1)c1ccccc1

>  <Energy>  (5) 
67.85417262141954

>  <Genealogy>  (5) 
O=C([N-]c1ccc(S(=O)(=O)N=c2cccc[n-]2)cc1)C(c1ccccc1)c1ccccc1 (protonated)
O=C([N-]c1ccc(S(=O)(=O)N=c2cccc[n-]2)cc1)C(c1ccccc1)c1ccccc1 (3D coordinates assigned)
O=C([N-]c1ccc(S(=O)(=O)N=c2cccc[n-]2)cc1)C(c1ccccc1)c1ccccc1 (optimized conformer: 67.85417262141954 kcal/mol)

>  <smiles>  (5) 
O=C(Nc1ccc(S(=O)(=O)N=c2cccc[nH]2)cc1)C(c1ccccc1)c1ccccc1

>  <score_type>  (5) 
oracle

>  <origin>  (5) 
adgpu

>  <m_score__min__energy>  (5) 
-12.25

>  <m_primary>  (5) 
energy

$$$$
5:0
     RDKit          3D

 48 51  0  0  0  0  0  0  0  0999 V2000
   -1.2750   21.1260  -26.9480 C   0  0  0  0  0  0  0  0  0  0  0  0
   -2.1470   22.0530  -27.7520 C   0  0  0  0  0  0  0  0  0  0  0  0
   -3.5390   22.0020  -27.5760 C   0  0  0  0  0  0  0  0  0  0  0  0
   -4.3820   22.8190  -28.3320 C   0  0  0  0  0  0  0  0  0  0  0  0
   -3.8470   23.6910  -29.2860 C   0  0  0  0  0  0  0  0  0  0  0  0
   -4.9240   24.7110  -30.2330 S   0  0  0  0  0  0  0  0  0  0  0  0
   -6.1990   24.9740  -29.4800 O   0  0  0  0  0  0  0  0  0  0  0  0
   -4.2560   26.0290  -30.5070 O   0  0  0  0  0  0  0  0  0  0  0  0
   -5.2830   23.9310  -31.7310 N   0  0  0  0  0  0  0  0  0  0  0  0
   -6.1420   22.7920  -31.7810 C   0  0  0  0  0  0  0  0  0  0  0  0
   -7.5170   22.9620  -31.5760 C   0  0  0  0  0  0  0  0  0  0  0  0
   -8.3780   21.8650  -31.6110 C   0  0  0  0  0  0  0  0  0  0  0  0
   -7.8710   20.5870  -31.8540 C   0  0  0  0  0  0  0  0  0  0  0  0
   -6.5010   20.4040  -32.0600 C   0  0  0  0  0  0  0  0  0  0  0  0
   -5.6200   21.5000  -32.0230 C   0  0  0  0  0  0  0  0  0  0  0  0
   -4.1650   21.2810  -32.2310 C   0  0  0  0  0  0  0  0  0  0  0  0
   -3.5760   21.6170  -33.4590 C   0  0  0  0  0  0  0  0  0  0  0  0
   -2.2460   21.4300  -33.6680 N   0  0  0  0  0  0  0  0  0  0  0  0
   -1.4400   20.8970  -32.7070 C   0  0  0  0  0  0  0  0  0  0  0  0
   -0.0700   20.7140  -32.9530 C   0  0  0  0  0  0  0  0  0  0  0  0
    0.7540   20.1600  -31.9730 C   0  0  0  0  0  0  0  0  0  0  0  0
    0.2210   19.7810  -30.7400 C   0  0  0  0  0  0  0  0  0  0  0  0
    1.0260   19.2430  -29.7910 F   0  0  0  0  0  0  0  0  0  0  0  0
   -1.1400   19.9640  -30.4760 C   0  0  0  0  0  0  0  0  0  0  0  0
   -1.9830   20.5250  -31.4550 C   0  0  0  0  0  0  0  0  0  0  0  0
   -3.3550   20.7330  -31.2180 C   0  0  0  0  0  0  0  0  0  0  0  0
   -3.8550   20.4460  -30.0950 O   0  0  0  0  0  0  0  0  0  0  0  0
   -2.4610   23.7550  -29.4670 C   0  0  0  0  0  0  0  0  0  0  0  0
   -1.6010   22.9300  -28.7200 C   0  0  0  0  0  0  0  0  0  0  0  0
   -0.1150   23.0270  -28.9420 C   0  0  0  0  0  0  0  0  0  0  0  0
   -1.4421   21.3037  -25.8754 H   0  0  0  0  0  0  0  0  0  0  0  0
   -1.5270   20.0831  -27.1906 H   0  0  0  0  0  0  0  0  0  0  0  0
   -0.2187   21.3139  -27.1906 H   0  0  0  0  0  0  0  0  0  0  0  0
   -3.9696   21.3119  -26.8355 H   0  0  0  0  0  0  0  0  0  0  0  0
   -5.4702   22.7768  -28.1769 H   0  0  0  0  0  0  0  0  0  0  0  0
   -7.9208   23.9674  -31.3861 H   0  0  0  0  0  0  0  0  0  0  0  0
   -9.4564   22.0068  -31.4471 H   0  0  0  0  0  0  0  0  0  0  0  0
   -8.5510   19.7229  -31.8833 H   0  0  0  0  0  0  0  0  0  0  0  0
   -6.1083   19.3947  -32.2527 H   0  0  0  0  0  0  0  0  0  0  0  0
   -4.1983   22.0371  -34.2629 H   0  0  0  0  0  0  0  0  0  0  0  0
   -1.8480   21.7020  -34.5950 H   0  0  0  0  0  0  0  0  0  0  0  0
    0.3559   21.0089  -33.9234 H   0  0  0  0  0  0  0  0  0  0  0  0
    1.8268   20.0215  -32.1726 H   0  0  0  0  0  0  0  0  0  0  0  0
   -1.5536   19.6688  -29.5004 H   0  0  0  0  0  0  0  0  0  0  0  0
   -2.0397   24.4577  -30.2010 H   0  0  0  0  0  0  0  0  0  0  0  0
    0.3995   23.0606  -27.9703 H   0  0  0  0  0  0  0  0  0  0  0  0
    0.2291   22.1494  -29.5089 H   0  0  0  0  0  0  0  0  0  0  0  0
    0.1121   23.9419  -29.5089 H   0  0  0  0  0  0  0  0  0  0  0  0
  1  2  1  0
  2  3  2  0
  3  4  1  0
  4  5  2  0
  5  6  1  0
  6  7  2  0
  6  8  2  0
  6  9  1  0
  9 10  1  0
 10 11  2  0
 11 12  1  0
 12 13  2  0
 13 14  1  0
 14 15  2  0
 15 16  1  0
 16 17  2  0
 17 18  1  0
 18 19  1  0
 19 20  2  0
 20 21  1  0
 21 22  2  0
 22 23  1  0
 22 24  1  0
 24 25  2  0
 25 26  1  0
 26 27  2  0
  5 28  1  0
 28 29  2  0
 29 30  1  0
 29  2  1  0
 15 10  1  0
 26 16  1  0
 25 19  1  0
  1 31  1  0
  1 32  1  0
  1 33  1  0
  3 34  1  0
  4 35  1  0
 11 36  1  0
 12 37  1  0
 13 38  1  0
 14 39  1  0
 17 40  1  0
 18 41  1  0
 20 42  1  0
 21 43  1  0
 24 44  1  0
 28 45  1  0
 30 46  1  0
 30 47  1  0
 30 48  1  0
M  CHG  1   9  -1
M  END
>  <UniqueID>  (6) 
6

>  <SMILES>  (6) 
Cc1ccc(S(=O)(=O)[N-]c2ccccc2-c2c[nH]c3ccc(F)cc3c2=O)cc1C

>  <Energy>  (6) 
67.02109033771436

>  <Genealogy>  (6) 
Cc1ccc(S(=O)(=O)[N-]c2ccccc2-c2c[nH]c3ccc(F)cc3c2=O)cc1C (protonated)
Cc1ccc(S(=O)(=O)[N-]c2ccccc2-c2c[nH]c3ccc(F)cc3c2=O)cc1C (3D coordinates assigned)
Cc1ccc(S(=O)(=O)[N-]c2ccccc2-c2c[nH]c3ccc(F)cc3c2=O)cc1C (optimized conformer: 67.02109033771436 kcal/mol)

>  <smiles>  (6) 
Cc1ccc(S(=O)(=O)Nc2ccccc2-c2c[nH]c3ccc(F)cc3c2=O)cc1C

>  <score_type>  (6) 
oracle

>  <origin>  (6) 
adgpu

>  <m_score__min__energy>  (6) 
-10.960000000000001

>  <m_primary>  (6) 
energy

$$$$
6:0
     RDKit          3D

 44 46  0  0  0  0  0  0  0  0999 V2000
   -7.6080   18.1990  -31.2280 C   0  0  0  0  0  0  0  0  0  0  0  0
   -6.8020   18.6980  -32.3440 N   0  0  0  0  0  0  0  0  0  0  0  0
   -5.5850   18.0220  -32.7280 C   0  0  0  0  0  0  0  0  0  0  0  0
   -5.4130   16.6500  -32.4640 C   0  0  0  0  0  0  0  0  0  0  0  0
   -4.2330   15.9960  -32.8300 C   0  0  0  0  0  0  0  0  0  0  0  0
   -3.2040   16.7040  -33.4610 C   0  0  0  0  0  0  0  0  0  0  0  0
   -1.9890   16.0300  -33.8380 C   0  0  0  0  0  0  0  0  0  0  0  0
   -1.0130   15.4890  -34.1410 N   0  0  0  0  0  0  0  0  0  0  0  0
   -3.3610   18.0690  -33.7240 C   0  0  0  0  0  0  0  0  0  0  0  0
   -4.5410   18.7240  -33.3600 C   0  0  0  0  0  0  0  0  0  0  0  0
   -7.3320   20.1260  -33.1920 S   0  0  0  0  0  0  0  0  0  0  0  0
   -6.8810   20.0380  -34.6230 O   0  0  0  0  0  0  0  0  0  0  0  0
   -8.8320   20.2050  -33.1670 O   0  0  0  0  0  0  0  0  0  0  0  0
   -6.6600   21.5730  -32.4450 C   0  0  0  0  0  0  0  0  0  0  0  0
   -7.4890   22.6550  -32.1170 C   0  0  0  0  0  0  0  0  0  0  0  0
   -6.9490   23.7990  -31.5230 C   0  0  0  0  0  0  0  0  0  0  0  0
   -5.5720   23.8830  -31.2610 C   0  0  0  0  0  0  0  0  0  0  0  0
   -5.0100   25.1010  -30.6290 C   0  0  0  0  0  0  0  0  0  0  0  0
   -5.7830   26.0410  -30.3030 O   0  0  0  0  0  0  0  0  0  0  0  0
   -3.6130   25.2240  -30.3240 N   0  0  0  0  0  0  0  0  0  0  0  0
   -2.9190   24.5700  -29.2520 C   0  0  0  0  0  0  0  0  0  0  0  0
   -3.3920   23.3680  -28.6930 C   0  0  0  0  0  0  0  0  0  0  0  0
   -2.6870   22.7450  -27.6600 C   0  0  0  0  0  0  0  0  0  0  0  0
   -1.4990   23.3070  -27.1860 C   0  0  0  0  0  0  0  0  0  0  0  0
   -1.0100   24.4880  -27.7500 C   0  0  0  0  0  0  0  0  0  0  0  0
   -1.7120   25.1160  -28.7840 C   0  0  0  0  0  0  0  0  0  0  0  0
   -1.2130   26.2880  -29.3400 O   0  0  0  0  0  0  0  0  0  0  0  0
   -4.7480   22.7910  -31.5800 C   0  0  0  0  0  0  0  0  0  0  0  0
   -5.2880   21.6470  -32.1750 C   0  0  0  0  0  0  0  0  0  0  0  0
   -7.1378   18.4901  -30.2771 H   0  0  0  0  0  0  0  0  0  0  0  0
   -8.6186   18.6296  -31.2842 H   0  0  0  0  0  0  0  0  0  0  0  0
   -7.6731   17.1024  -31.2842 H   0  0  0  0  0  0  0  0  0  0  0  0
   -6.2152   16.0869  -31.9647 H   0  0  0  0  0  0  0  0  0  0  0  0
   -4.1131   14.9226  -32.6216 H   0  0  0  0  0  0  0  0  0  0  0  0
   -2.5534   18.6285  -34.2187 H   0  0  0  0  0  0  0  0  0  0  0  0
   -4.6550   19.7979  -33.5693 H   0  0  0  0  0  0  0  0  0  0  0  0
   -8.5674   22.6034  -32.3278 H   0  0  0  0  0  0  0  0  0  0  0  0
   -7.6074   24.6397  -31.2588 H   0  0  0  0  0  0  0  0  0  0  0  0
   -4.3212   22.9169  -29.0712 H   0  0  0  0  0  0  0  0  0  0  0  0
   -3.0675   21.8115  -27.2197 H   0  0  0  0  0  0  0  0  0  0  0  0
   -0.9482   22.8193  -26.3682 H   0  0  0  0  0  0  0  0  0  0  0  0
   -0.0708   24.9250  -27.3800 H   0  0  0  0  0  0  0  0  0  0  0  0
   -3.6711   22.8363  -31.3603 H   0  0  0  0  0  0  0  0  0  0  0  0
   -4.6326   20.8018  -32.4320 H   0  0  0  0  0  0  0  0  0  0  0  0
  1  2  1  0
  2  3  1  0
  3  4  2  0
  4  5  1  0
  5  6  2  0
  6  7  1  0
  7  8  3  0
  6  9  1  0
  9 10  2  0
  2 11  1  0
 11 12  2  0
 11 13  2  0
 11 14  1  0
 14 15  2  0
 15 16  1  0
 16 17  2  0
 17 18  1  0
 18 19  2  0
 18 20  1  0
 20 21  1  0
 21 22  2  0
 22 23  1  0
 23 24  2  0
 24 25  1  0
 25 26  2  0
 26 27  1  0
 17 28  1  0
 28 29  2  0
 10  3  1  0
 29 14  1  0
 26 21  1  0
  1 30  1  0
  1 31  1  0
  1 32  1  0
  4 33  1  0
  5 34  1  0
  9 35  1  0
 10 36  1  0
 15 37  1  0
 16 38  1  0
 22 39  1  0
 23 40  1  0
 24 41  1  0
 25 42  1  0
 28 43  1  0
 29 44  1  0
M  CHG  2  20  -1  27  -1
M  END
>  <UniqueID>  (7) 
7

>  <SMILES>  (7) 
CN(c1ccc(C#N)cc1)S(=O)(=O)c1ccc(C(=O)[N-]c2ccccc2[O-])cc1

>  <Energy>  (7) 
57.3704479368917

>  <Genealogy>  (7) 
CN(c1ccc(C#N)cc1)S(=O)(=O)c1ccc(C(=O)[N-]c2ccccc2[O-])cc1 (protonated)
CN(c1ccc(C#N)cc1)S(=O)(=O)c1ccc(C(=O)[N-]c2ccccc2[O-])cc1 (3D coordinates assigned)
CN(c1ccc(C#N)cc1)S(=O)(=O)c1ccc(C(=O)[N-]c2ccccc2[O-])cc1 (optimized conformer: 57.3704479368917 kcal/mol)

>  <smiles>  (7) 
CN(c1ccc(C#N)cc1)S(=O)(=O)c1ccc(C(=O)Nc2ccccc2O)cc1

>  <score_type>  (7) 
oracle

>  <origin>  (7) 
adgpu

>  <m_score__min__energy>  (7) 
-14.720000000000001

>  <m_primary>  (7) 
energy

$$$$
7:0
     RDKit          3D

 54 57  0  0  0  0  0  0  0  0999 V2000
   -1.6360   26.9427  -24.1817 H   0  0  0  0  0  0  0  0  0  0  0  0
   -1.6190   26.5630  -25.2140 C   0  0  0  0  0  0  0  0  0  0  0  0
   -0.8970   27.2410  -26.2060 C   0  0  0  0  0  0  0  0  0  0  0  0
   -0.1330   28.4910  -25.8790 C   0  0  0  0  0  0  0  0  0  0  0  0
    0.9451   28.2804  -25.9372 H   0  0  0  0  0  0  0  0  0  0  0  0
   -0.4055   28.8154  -24.8639 H   0  0  0  0  0  0  0  0  0  0  0  0
   -0.4780   29.6090  -26.8590 C   0  0  0  0  0  0  0  0  0  0  0  0
   -0.7572   30.5139  -26.2994 H   0  0  0  0  0  0  0  0  0  0  0  0
    0.3955   29.8243  -27.4920 H   0  0  0  0  0  0  0  0  0  0  0  0
   -1.3209   29.2946  -27.4920 H   0  0  0  0  0  0  0  0  0  0  0  0
   -0.9180   26.7830  -27.4900 N   0  0  0  0  0  0  0  0  0  0  0  0
   -1.6040   25.6650  -27.8560 C   0  0  0  0  0  0  0  0  0  0  0  0
   -1.5490   25.2870  -29.1050 N   0  0  0  0  0  0  0  0  0  0  0  0
   -2.2440   24.1920  -29.7240 C   0  0  0  0  0  0  0  0  0  0  0  0
   -1.5340   23.0310  -30.0380 C   0  0  0  0  0  0  0  0  0  0  0  0
   -0.4622   22.9644  -29.7998 H   0  0  0  0  0  0  0  0  0  0  0  0
   -2.1760   21.9550  -30.6520 C   0  0  0  0  0  0  0  0  0  0  0  0
   -1.6106   21.0410  -30.8864 H   0  0  0  0  0  0  0  0  0  0  0  0
   -3.5370   22.0340  -30.9710 C   0  0  0  0  0  0  0  0  0  0  0  0
   -4.1570   20.9650  -31.5370 N   0  0  0  0  0  0  0  0  0  0  0  0
   -5.4820   20.9630  -31.8590 C   0  0  0  0  0  0  0  0  0  0  0  0
   -6.0820   19.7730  -32.4290 N   0  0  0  0  0  0  0  0  0  0  0  0
   -6.3280   19.6780  -33.8760 C   0  0  0  0  0  0  0  0  0  0  0  0
   -7.3796   19.9218  -34.0874 H   0  0  0  0  0  0  0  0  0  0  0  0
   -5.6770   20.3864  -34.4093 H   0  0  0  0  0  0  0  0  0  0  0  0
   -6.0280   18.2470  -34.3450 C   0  0  0  0  0  0  0  0  0  0  0  0
   -6.2634   18.1740  -35.4170 H   0  0  0  0  0  0  0  0  0  0  0  0
   -4.9647   18.0525  -34.1410 H   0  0  0  0  0  0  0  0  0  0  0  0
   -6.8170   17.2100  -33.6140 N   0  0  0  0  0  0  0  0  0  0  0  0
   -7.6130   16.9240  -34.2340 H   0  0  0  0  0  0  0  0  0  0  0  0
   -6.0020   15.9960  -33.3960 C   0  0  0  0  0  0  0  0  0  0  0  0
   -5.8851   15.8219  -32.3162 H   0  0  0  0  0  0  0  0  0  0  0  0
   -6.5029   15.1308  -33.8548 H   0  0  0  0  0  0  0  0  0  0  0  0
   -5.0115   16.1320  -33.8548 H   0  0  0  0  0  0  0  0  0  0  0  0
   -7.4190   17.6820  -32.3380 C   0  0  0  0  0  0  0  0  0  0  0  0
   -8.3667   18.1924  -32.5647 H   0  0  0  0  0  0  0  0  0  0  0  0
   -7.5718   16.7998  -31.6989 H   0  0  0  0  0  0  0  0  0  0  0  0
   -6.5100   18.6540  -31.5720 C   0  0  0  0  0  0  0  0  0  0  0  0
   -7.0606   19.0544  -30.7080 H   0  0  0  0  0  0  0  0  0  0  0  0
   -5.6148   18.1063  -31.2425 H   0  0  0  0  0  0  0  0  0  0  0  0
   -6.2420   22.1190  -31.6050 C   0  0  0  0  0  0  0  0  0  0  0  0
   -7.3122   22.1362  -31.8589 H   0  0  0  0  0  0  0  0  0  0  0  0
   -5.6430   23.2520  -31.0290 C   0  0  0  0  0  0  0  0  0  0  0  0
   -6.4930   24.4680  -30.7570 C   0  0  0  0  0  0  0  0  0  0  0  0
   -6.5925   24.6103  -29.6708 H   0  0  0  0  0  0  0  0  0  0  0  0
   -6.0171   25.3548  -31.2009 H   0  0  0  0  0  0  0  0  0  0  0  0
   -7.4893   24.3257  -31.2009 H   0  0  0  0  0  0  0  0  0  0  0  0
   -4.2650   23.2140  -30.6990 C   0  0  0  0  0  0  0  0  0  0  0  0
   -3.5960   24.3030  -30.0990 C   0  0  0  0  0  0  0  0  0  0  0  0
   -4.1356   25.2453  -29.9233 H   0  0  0  0  0  0  0  0  0  0  0  0
   -2.3010   24.9350  -26.8660 C   0  0  0  0  0  0  0  0  0  0  0  0
   -2.8280   24.0063  -27.1300 H   0  0  0  0  0  0  0  0  0  0  0  0
   -2.3150   25.4030  -25.5490 C   0  0  0  0  0  0  0  0  0  0  0  0
   -2.8755   24.8556  -24.7768 H   0  0  0  0  0  0  0  0  0  0  0  0
  1  2  1  0
  2  3  2  0
  3  4  1  0
  4  5  1  0
  4  6  1  0
  4  7  1  0
  7  8  1  0
  7  9  1  0
  7 10  1  0
  3 11  1  0
 11 12  1  0
 12 13  2  0
 13 14  1  0
 14 15  2  0
 15 16  1  0
 15 17  1  0
 17 18  1  0
 17 19  2  0
 19 20  1  0
 20 21  2  0
 21 22  1  0
 22 23  1  0
 23 24  1  0
 23 25  1  0
 23 26  1  0
 26 27  1  0
 26 28  1  0
 26 29  1  0
 29 30  1  0
 29 31  1  0
 31 32  1  0
 31 33  1  0
 31 34  1  0
 29 35  1  0
 35 36  1  0
 35 37  1  0
 35 38  1  0
 38 39  1  0
 38 40  1  0
 21 41  1  0
 41 42  1  0
 41 43  2  0
 43 44  1  0
 44 45  1  0
 44 46  1  0
 44 47  1  0
 43 48  1  0
 48 49  2  0
 49 50  1  0
 12 51  1  0
 51 52  1  0
 51 53  2  0
 53 54  1  0
 53  2  1  0
 49 14  1  0
 48 19  1  0
 38 22  1  0
M  CHG  2  11  -1  29   1
M  END
>  <UniqueID>  (8) 
8

>  <SMILES>  (8) 
CCc1ccc/c(=N\c2ccc3nc(N4CC[NH+](C)CC4)cc(C)c3c2)[n-]1

>  <Energy>  (8) 
76.92186822688802

>  <Genealogy>  (8) 
CCc1cccc(=Nc2ccc3nc(N4CC[NH+](C)CC4)cc(C)c3c2)[n-]1 (protonated)
CCc1ccc/c(=N\c2ccc3nc(N4CC[NH+](C)CC4)cc(C)c3c2)[n-]1 (cis-trans isomerization)
CCc1ccc/c(=N\c2ccc3nc(N4CC[NH+](C)CC4)cc(C)c3c2)[n-]1 (3D coordinates assigned)
CCc1ccc/c(=N\c2ccc3nc(N4CC[NH+](C)CC4)cc(C)c3c2)[n-]1 (nonaromatic ring conformer: 76.92186822688802 kcal/mol)

>  <smiles>  (8) 
CCc1cccc(=Nc2ccc3nc(N4CCN(C)CC4)cc(C)c3c2)[nH]1

>  <score_type>  (8) 
oracle

>  <origin>  (8) 
adgpu

>  <m_score__min__energy>  (8) 
-9.1300000000000008

>  <m_primary>  (8) 
energy

$$$$
8:0
     RDKit          3D

 26 27  0  0  0  0  0  0  0  0999 V2000
   -1.1930   26.3220  -29.0410 O   0  0  0  0  0  0  0  0  0  0  0  0
   -1.5060   25.1520  -28.6970 C   0  0  0  0  0  0  0  0  0  0  0  0
   -0.7050   24.4720  -27.8330 N   0  0  0  0  0  0  0  0  0  0  0  0
   -0.9970   23.2080  -27.4290 C   0  0  0  0  0  0  0  0  0  0  0  0
   -2.1450   22.5720  -27.9020 C   0  0  0  0  0  0  0  0  0  0  0  0
   -2.9860   23.2460  -28.7890 C   0  0  0  0  0  0  0  0  0  0  0  0
   -2.6710   24.5520  -29.2000 C   0  0  0  0  0  0  0  0  0  0  0  0
   -3.5030   25.2880  -30.1100 N   0  0  0  0  0  0  0  0  0  0  0  0
   -5.2360   25.2430  -30.1380 S   0  0  0  0  0  0  0  0  0  0  0  0
   -5.7470   26.4410  -30.8900 O   0  0  0  0  0  0  0  0  0  0  0  0
   -5.7810   25.2650  -28.7380 O   0  0  0  0  0  0  0  0  0  0  0  0
   -5.7570   23.7550  -30.9380 C   0  0  0  0  0  0  0  0  0  0  0  0
   -7.1100   23.3820  -30.8760 C   0  0  0  0  0  0  0  0  0  0  0  0
   -7.5550   22.2150  -31.5010 C   0  0  0  0  0  0  0  0  0  0  0  0
   -9.2480   21.7630  -31.4140 Cl  0  0  0  0  0  0  0  0  0  0  0  0
   -6.6530   21.4070  -32.1960 C   0  0  0  0  0  0  0  0  0  0  0  0
   -5.3030   21.7630  -32.2680 C   0  0  0  0  0  0  0  0  0  0  0  0
   -4.1920   20.7270  -33.1500 Cl  0  0  0  0  0  0  0  0  0  0  0  0
   -4.8440   22.9340  -31.6430 C   0  0  0  0  0  0  0  0  0  0  0  0
   -3.4860   23.2500  -31.7400 O   0  0  0  0  0  0  0  0  0  0  0  0
   -0.3281   22.6861  -26.7289 H   0  0  0  0  0  0  0  0  0  0  0  0
   -2.3853   21.5484  -27.5788 H   0  0  0  0  0  0  0  0  0  0  0  0
   -3.8951   22.7548  -29.1661 H   0  0  0  0  0  0  0  0  0  0  0  0
   -7.8254   24.0148  -30.3303 H   0  0  0  0  0  0  0  0  0  0  0  0
   -7.0053   20.4884  -32.6879 H   0  0  0  0  0  0  0  0  0  0  0  0
   -3.1160   24.1780  -31.5900 H   0  0  0  0  0  0  0  0  0  0  0  0
  1  2  2  0
  2  3  1  0
  3  4  1  0
  4  5  2  0
  5  6  1  0
  6  7  2  0
  7  8  1  0
  8  9  1  0
  9 10  2  0
  9 11  2  0
  9 12  1  0
 12 13  2  0
 13 14  1  0
 14 15  1  0
 14 16  2  0
 16 17  1  0
 17 18  1  0
 17 19  2  0
 19 20  1  0
  7  2  1  0
 19 12  1  0
  4 21  1  0
  5 22  1  0
  6 23  1  0
 13 24  1  0
 16 25  1  0
 20 26  1  0
M  CHG  2   3  -1   8  -1
M  END
>  <UniqueID>  (9) 
9

>  <SMILES>  (9) 
O=c1[n-]cccc1[N-]S(=O)(=O)c1cc(Cl)cc(Cl)c1O

>  <Energy>  (9) 
34.31339947632845

>  <Genealogy>  (9) 
O=c1[n-]cccc1[N-]S(=O)(=O)c1cc(Cl)cc(Cl)c1O (protonated)
O=c1[n-]cccc1[N-]S(=O)(=O)c1cc(Cl)cc(Cl)c1O (3D coordinates assigned)
O=c1[n-]cccc1[N-]S(=O)(=O)c1cc(Cl)cc(Cl)c1O (optimized conformer: 34.31339947632845 kcal/mol)

>  <smiles>  (9) 
O=c1[nH]cccc1NS(=O)(=O)c1cc(Cl)cc(Cl)c1O

>  <score_type>  (9) 
oracle

>  <origin>  (9) 
adgpu

>  <m_score__min__energy>  (9) 
-10.029999999999999

>  <m_primary>  (9) 
energy

$$$$
9:0
     RDKit          3D

 37 39  0  0  0  0  0  0  0  0999 V2000
   -7.1070   19.4980  -34.3730 H   0  0  0  0  0  0  0  0  0  0  0  0
   -7.2310   20.4180  -34.0170 O   0  0  0  0  0  0  0  0  0  0  0  0
   -6.2080   20.6280  -33.0840 C   0  0  0  0  0  0  0  0  0  0  0  0
   -5.3522   19.9881  -33.3450 H   0  0  0  0  0  0  0  0  0  0  0  0
   -5.9322   21.6924  -33.1151 H   0  0  0  0  0  0  0  0  0  0  0  0
   -6.6670   20.2890  -31.6260 C   0  0  2  0  0  0  0  0  0  0  0  0
   -5.7767   19.8263  -31.1753 H   0  0  0  0  0  0  0  0  0  0  0  0
   -7.8990   19.3730  -31.6230 C   0  0  2  0  0  0  0  0  0  0  0  0
   -7.9364   18.7459  -30.7200 H   0  0  0  0  0  0  0  0  0  0  0  0
   -7.8980   18.4360  -32.6700 O   0  0  0  0  0  0  0  0  0  0  0  0
   -8.3500   18.8720  -33.4380 H   0  0  0  0  0  0  0  0  0  0  0  0
   -9.0680   20.3380  -31.7240 C   0  0  0  0  0  0  0  0  0  0  0  0
   -9.4490   20.3766  -32.7552 H   0  0  0  0  0  0  0  0  0  0  0  0
   -9.9112   20.0325  -31.0871 H   0  0  0  0  0  0  0  0  0  0  0  0
   -8.4990   21.6970  -31.3100 C   0  0  0  0  0  0  0  0  0  0  0  0
   -8.5068   22.3840  -32.1690 H   0  0  0  0  0  0  0  0  0  0  0  0
   -9.1061   22.1410  -30.5073 H   0  0  0  0  0  0  0  0  0  0  0  0
   -7.1120   21.4810  -30.8510 N   0  0  2  0  0  0  0  0  0  0  0  0
   -7.1720   21.1900  -29.8450 H   0  0  0  0  0  0  0  0  0  0  0  0
   -6.1750   22.6140  -30.8790 C   0  0  0  0  0  0  0  0  0  0  0  0
   -6.6630   23.8420  -31.3730 C   0  0  0  0  0  0  0  0  0  0  0  0
   -7.6810   23.8935  -31.7866 H   0  0  0  0  0  0  0  0  0  0  0  0
   -5.8780   24.9860  -31.3450 C   0  0  0  0  0  0  0  0  0  0  0  0
   -6.2767   25.9374  -31.7270 H   0  0  0  0  0  0  0  0  0  0  0  0
   -4.6240   24.9290  -30.8480 N   0  0  0  0  0  0  0  0  0  0  0  0
   -4.0460   23.7720  -30.4390 C   0  0  0  0  0  0  0  0  0  0  0  0
   -2.8460   23.8630  -29.9330 N   0  0  0  0  0  0  0  0  0  0  0  0
   -2.0230   22.8260  -29.3170 C   0  0  0  0  0  0  0  0  0  0  0  0
   -2.1710   22.0419  -30.0741 H   0  0  0  0  0  0  0  0  0  0  0  0
   -2.0540   22.9100  -27.8010 C   0  0  0  0  0  0  0  0  0  0  0  0
   -2.6919   23.6561  -27.3045 H   0  0  0  0  0  0  0  0  0  0  0  0
   -2.2528   22.1979  -26.9866 H   0  0  0  0  0  0  0  0  0  0  0  0
   -0.8170   23.3540  -28.5600 C   0  0  0  0  0  0  0  0  0  0  0  0
   -0.5584   24.4218  -28.6135 H   0  0  0  0  0  0  0  0  0  0  0  0
    0.2519   23.0969  -28.5234 H   0  0  0  0  0  0  0  0  0  0  0  0
   -4.7760   22.5490  -30.5640 C   0  0  0  0  0  0  0  0  0  0  0  0
   -3.8760   21.0300  -30.7180 Cl  0  0  0  0  0  0  0  0  0  0  0  0
  1  2  1  0
  2  3  1  0
  3  4  1  0
  3  5  1  0
  3  6  1  0
  6  7  1  1
  6  8  1  0
  8  9  1  1
  8 10  1  0
 10 11  1  0
  8 12  1  0
 12 13  1  0
 12 14  1  0
 12 15  1  0
 15 16  1  0
 15 17  1  0
 15 18  1  0
 18 19  1  1
 18 20  1  0
 20 21  1  0
 21 22  1  0
 21 23  2  0
 23 24  1  0
 23 25  1  0
 25 26  1  0
 26 27  2  0
 27 28  1  0
 28 29  1  0
 28 30  1  0
 30 31  1  0
 30 32  1  0
 30 33  1  0
 33 34  1  0
 33 35  1  0
 26 36  1  0
 36 37  1  0
 18  6  1  0
 36 20  2  0
 33 28  1  0
M  CHG  2  18   1  25  -1
M  END
>  <UniqueID>  (10) 
10

>  <SMILES>  (10) 
OC[C@@H]1[C@H](O)CC[NH+]1c1cc[n-]/c(=N/C2CC2)c1Cl

>  <Energy>  (10) 
341.73406157200975

>  <Genealogy>  (10) 
OCC1C(O)CC[NH+]1c1cc[n-]c(=NC2CC2)c1Cl (protonated)
OC[C@@H]1[C@H](O)CC[NH+]1c1cc[n-]c(=NC2CC2)c1Cl (chirality)
OC[C@@H]1[C@H](O)CC[NH+]1c1cc[n-]/c(=N/C2CC2)c1Cl (cis-trans isomerization)
OC[C@@H]1[C@H](O)CC[NH+]1c1cc[n-]/c(=N/C2CC2)c1Cl (3D coordinates assigned)
OC[C@@H]1[C@H](O)CC[NH+]1c1cc[n-]/c(=N/C2CC2)c1Cl (nonaromatic ring conformer: 341.73406157200975 kcal/mol)

>  <smiles>  (10) 
OCC1C(O)CCN1c1cc[nH]c(=NC2CC2)c1Cl

>  <score_type>  (10) 
oracle

>  <origin>  (10) 
adgpu

>  <m_score__min__energy>  (10) 
-7.2599999999999998

>  <m_primary>  (10) 
energy

$$$$
10:0
     RDKit          3D

 54 57  0  0  0  0  0  0  0  0999 V2000
   -7.1360   23.8440  -30.2020 C   0  0  0  0  0  0  0  0  0  0  0  0
   -7.5770   23.2090  -31.8050 S   0  0  0  0  0  0  0  0  0  0  0  0
   -9.0020   23.5760  -32.1080 O   0  0  0  0  0  0  0  0  0  0  0  0
   -6.6880   23.8220  -32.8500 O   0  0  0  0  0  0  0  0  0  0  0  0
   -7.3780   21.4600  -31.8290 C   0  0  0  0  0  0  0  0  0  0  0  0
   -8.4670   20.6140  -32.0830 C   0  0  0  0  0  0  0  0  0  0  0  0
   -8.2790   19.2300  -32.1610 C   0  0  0  0  0  0  0  0  0  0  0  0
   -7.0040   18.6710  -31.9640 C   0  0  0  0  0  0  0  0  0  0  0  0
   -6.7820   17.1760  -32.1030 C   0  0  0  0  0  0  0  0  0  0  0  0
   -5.8360   16.8000  -33.1780 N   0  0  0  0  0  0  0  0  0  0  0  0
   -5.9340   17.6170  -34.4120 C   0  0  0  0  0  0  0  0  0  0  0  0
   -4.7100   18.5300  -34.5860 C   0  0  0  0  0  0  0  0  0  0  0  0
   -3.4590   17.7330  -34.6860 N   0  0  0  0  0  0  0  0  0  0  0  0
   -2.2400   18.5570  -34.4740 C   0  0  0  0  0  0  0  0  0  0  0  0
   -2.3010   19.4810  -33.2720 C   0  0  0  0  0  0  0  0  0  0  0  0
   -1.6540   19.1320  -32.0560 C   0  0  0  0  0  0  0  0  0  0  0  0
   -1.6880   19.9980  -30.9480 C   0  0  0  0  0  0  0  0  0  0  0  0
   -2.3450   21.2140  -31.0940 C   0  0  0  0  0  0  0  0  0  0  0  0
   -2.4900   22.2600  -30.2170 C   0  0  0  0  0  0  0  0  0  0  0  0
   -3.1830   23.2270  -30.9380 C   0  0  0  0  0  0  0  0  0  0  0  0
   -3.5430   24.5560  -30.4280 C   0  0  0  0  0  0  0  0  0  0  0  0
   -4.5800   25.1340  -30.8460 O   0  0  0  0  0  0  0  0  0  0  0  0
   -2.7420   25.1840  -29.4820 O   0  0  0  0  0  0  0  0  0  0  0  0
   -3.4660   22.8150  -32.1990 N   0  0  0  0  0  0  0  0  0  0  0  0
   -2.9460   21.5780  -32.2680 C   0  0  0  0  0  0  0  0  0  0  0  0
   -2.9460   20.7360  -33.3780 C   0  0  0  0  0  0  0  0  0  0  0  0
   -3.4750   16.4860  -33.8690 C   0  0  0  0  0  0  0  0  0  0  0  0
   -4.4560   16.5800  -32.6920 C   0  0  0  0  0  0  0  0  0  0  0  0
   -5.9180   19.5270  -31.7100 C   0  0  0  0  0  0  0  0  0  0  0  0
   -6.1060   20.9090  -31.6380 C   0  0  0  0  0  0  0  0  0  0  0  0
   -7.5780   23.2076  -29.4212 H   0  0  0  0  0  0  0  0  0  0  0  0
   -6.0410   23.8461  -30.0970 H   0  0  0  0  0  0  0  0  0  0  0  0
   -7.5164   24.8708  -30.0970 H   0  0  0  0  0  0  0  0  0  0  0  0
   -9.4718   21.0397  -32.2213 H   0  0  0  0  0  0  0  0  0  0  0  0
   -9.1350   18.5742  -32.3781 H   0  0  0  0  0  0  0  0  0  0  0  0
   -6.3887   16.7955  -31.1488 H   0  0  0  0  0  0  0  0  0  0  0  0
   -7.7542   16.7356  -32.3694 H   0  0  0  0  0  0  0  0  0  0  0  0
   -6.0042   16.9451  -35.2801 H   0  0  0  0  0  0  0  0  0  0  0  0
   -6.8283   18.2526  -34.3332 H   0  0  0  0  0  0  0  0  0  0  0  0
   -4.8322   19.1239  -35.5038 H   0  0  0  0  0  0  0  0  0  0  0  0
   -4.6365   19.1878  -33.7074 H   0  0  0  0  0  0  0  0  0  0  0  0
   -3.4010   17.4170  -35.6850 H   0  0  0  0  0  0  0  0  0  0  0  0
   -1.3856   17.8771  -34.3406 H   0  0  0  0  0  0  0  0  0  0  0  0
   -2.1441   19.2037  -35.3587 H   0  0  0  0  0  0  0  0  0  0  0  0
   -1.1202   18.1732  -31.9802 H   0  0  0  0  0  0  0  0  0  0  0  0
   -1.2100   19.7217  -29.9966 H   0  0  0  0  0  0  0  0  0  0  0  0
   -2.1372   22.3201  -29.1769 H   0  0  0  0  0  0  0  0  0  0  0  0
   -3.4359   21.0397  -34.3149 H   0  0  0  0  0  0  0  0  0  0  0  0
   -3.7719   15.6443  -34.5120 H   0  0  0  0  0  0  0  0  0  0  0  0
   -2.4656   16.3371  -33.4579 H   0  0  0  0  0  0  0  0  0  0  0  0
   -4.4208   15.6430  -32.1168 H   0  0  0  0  0  0  0  0  0  0  0  0
   -4.1653   17.4292  -32.0561 H   0  0  0  0  0  0  0  0  0  0  0  0
   -4.9123   19.1049  -31.5669 H   0  0  0  0  0  0  0  0  0  0  0  0
   -5.2499   21.5677  -31.4301 H   0  0  0  0  0  0  0  0  0  0  0  0
  1  2  1  0
  2  3  2  0
  2  4  2  0
  2  5  1  0
  5  6  2  0
  6  7  1  0
  7  8  2  0
  8  9  1  0
  9 10  1  0
 10 11  1  0
 11 12  1  0
 12 13  1  0
 13 14  1  0
 14 15  1  0
 15 16  2  0
 16 17  1  0
 17 18  2  0
 18 19  1  0
 19 20  2  0
 20 21  1  0
 21 22  2  0
 21 23  1  0
 20 24  1  0
 24 25  1  0
 25 26  2  0
 13 27  1  0
 27 28  1  0
  8 29  1  0
 29 30  2  0
 30  5  1  0
 28 10  1  0
 26 15  1  0
 25 18  1  0
  1 31  1  0
  1 32  1  0
  1 33  1  0
  6 34  1  0
  7 35  1  0
  9 36  1  0
  9 37  1  0
 11 38  1  0
 11 39  1  0
 12 40  1  0
 12 41  1  0
 13 42  1  0
 14 43  1  0
 14 44  1  0
 16 45  1  0
 17 46  1  0
 19 47  1  0
 26 48  1  0
 27 49  1  0
 27 50  1  0
 28 51  1  0
 28 52  1  0
 29 53  1  0
 30 54  1  0
M  CHG  3  13   1  23  -1  24  -1
M  END
>  <UniqueID>  (11) 
11

>  <SMILES>  (11) 
CS(=O)(=O)c1ccc(CN2CC[NH+](Cc3ccc4cc(C(=O)[O-])[n-]c4c3)CC2)cc1

>  <Energy>  (11) 
98.43407835762108

>  <Genealogy>  (11) 
CS(=O)(=O)c1ccc(CN2CC[NH+](Cc3ccc4cc(C(=O)[O-])[n-]c4c3)CC2)cc1 (protonated)
CS(=O)(=O)c1ccc(CN2CC[NH+](Cc3ccc4cc(C(=O)[O-])[n-]c4c3)CC2)cc1 (3D coordinates assigned)
CS(=O)(=O)c1ccc(CN2CC[NH+](Cc3ccc4cc(C(=O)[O-])[n-]c4c3)CC2)cc1 (nonaromatic ring conformer: 98.43407835762108 kcal/mol)

>  <smiles>  (11) 
CS(=O)(=O)c1ccc(CN2CCN(Cc3ccc4cc(C(=O)O)[nH]c4c3)CC2)cc1

>  <score_type>  (11) 
oracle

>  <origin>  (11) 
adgpu

>  <m_score__min__energy>  (11) 
-11.24

>  <m_primary>  (11) 
energy

$$$$
11:0
     RDKit          3D

 71 75  0  0  0  0  0  0  0  0999 V2000
   -5.0360   12.1920  -36.6250 C   0  0  0  0  0  0  0  0  0  0  0  0
   -5.0930   13.3260  -35.6040 C   0  0  0  0  0  0  0  0  0  0  0  0
   -3.8430   14.1640  -35.6590 C   0  0  0  0  0  0  0  0  0  0  0  0
   -3.0320   13.9740  -36.7370 N   0  0  0  0  0  0  0  0  0  0  0  0
   -1.8830   14.6650  -36.9210 C   0  0  0  0  0  0  0  0  0  0  0  0
   -1.4930   15.6220  -35.9950 C   0  0  0  0  0  0  0  0  0  0  0  0
   -2.2830   15.8580  -34.8650 C   0  0  0  0  0  0  0  0  0  0  0  0
   -1.8550   16.9250  -33.9420 C   0  0  0  0  0  0  0  0  0  0  0  0
   -1.2350   16.5970  -32.7310 C   0  0  0  0  0  0  0  0  0  0  0  0
   -0.8740   17.6040  -31.8350 C   0  0  0  0  0  0  0  0  0  0  0  0
   -1.1120   18.9530  -32.1440 C   0  0  0  0  0  0  0  0  0  0  0  0
   -0.7030   20.0120  -31.1480 C   0  0  0  0  0  0  0  0  0  0  0  0
   -1.2490   19.7010  -29.8140 N   0  0  0  0  0  0  0  0  0  0  0  0
   -2.1030   20.7840  -29.3140 C   0  0  0  0  0  0  0  0  0  0  0  0
   -2.0450   20.7360  -27.7900 C   0  0  0  0  0  0  0  0  0  0  0  0
   -0.8580   19.8320  -27.4570 C   0  0  1  0  0  0  0  0  0  0  0  0
   -1.2770   18.6490  -26.8190 O   0  0  0  0  0  0  0  0  0  0  0  0
   -0.2020   19.5320  -28.8000 C   0  0  0  0  0  0  0  0  0  0  0  0
   -1.6880   19.2960  -33.3850 C   0  0  0  0  0  0  0  0  0  0  0  0
   -1.8730   20.6510  -33.7030 O   0  0  0  0  0  0  0  0  0  0  0  0
   -0.8350   21.5360  -34.1120 C   0  0  0  0  0  0  0  0  0  0  0  0
   -2.0630   18.2700  -34.2770 C   0  0  0  0  0  0  0  0  0  0  0  0
   -3.4680   15.1030  -34.6540 C   0  0  0  0  0  0  0  0  0  0  0  0
   -4.4420   15.3910  -33.1790 S   0  0  0  0  0  0  0  0  0  0  0  0
   -5.6650   14.5230  -33.1010 O   0  0  0  0  0  0  0  0  0  0  0  0
   -3.6020   15.0760  -31.9730 O   0  0  0  0  0  0  0  0  0  0  0  0
   -4.9400   17.0800  -33.1320 C   0  0  0  0  0  0  0  0  0  0  0  0
   -5.1590   17.7080  -31.8980 C   0  0  0  0  0  0  0  0  0  0  0  0
   -5.5560   19.0480  -31.8490 C   0  0  0  0  0  0  0  0  0  0  0  0
   -5.7180   19.7810  -33.0300 C   0  0  0  0  0  0  0  0  0  0  0  0
   -6.1550   21.1110  -32.9400 O   0  0  0  0  0  0  0  0  0  0  0  0
   -5.5150   22.1300  -32.2230 C   0  0  0  0  0  0  0  0  0  0  0  0
   -4.1480   22.0050  -31.9480 C   0  0  0  0  0  0  0  0  0  0  0  0
   -3.4700   23.0150  -31.2570 C   0  0  0  0  0  0  0  0  0  0  0  0
   -4.1530   24.1630  -30.8470 C   0  0  0  0  0  0  0  0  0  0  0  0
   -3.4770   25.1670  -30.1650 O   0  0  0  0  0  0  0  0  0  0  0  0
   -5.5160   24.3020  -31.1300 C   0  0  0  0  0  0  0  0  0  0  0  0
   -6.1950   23.2940  -31.8190 C   0  0  0  0  0  0  0  0  0  0  0  0
   -5.4970   19.1500  -34.2690 C   0  0  0  0  0  0  0  0  0  0  0  0
   -5.1060   17.8080  -34.3170 C   0  0  0  0  0  0  0  0  0  0  0  0
   -4.9875   11.2271  -36.0990 H   0  0  0  0  0  0  0  0  0  0  0  0
   -5.9367   12.2209  -37.2558 H   0  0  0  0  0  0  0  0  0  0  0  0
   -4.1427   12.3111  -37.2558 H   0  0  0  0  0  0  0  0  0  0  0  0
   -5.9631   13.9629  -35.8217 H   0  0  0  0  0  0  0  0  0  0  0  0
   -5.1781   12.8886  -34.5983 H   0  0  0  0  0  0  0  0  0  0  0  0
   -1.2582   14.4680  -37.8047 H   0  0  0  0  0  0  0  0  0  0  0  0
   -0.5656   16.1932  -36.1490 H   0  0  0  0  0  0  0  0  0  0  0  0
   -1.0320   15.5442  -32.4852 H   0  0  0  0  0  0  0  0  0  0  0  0
   -0.3991   17.3389  -30.8788 H   0  0  0  0  0  0  0  0  0  0  0  0
    0.3948   20.0507  -31.0903 H   0  0  0  0  0  0  0  0  0  0  0  0
   -1.0986   20.9840  -31.4778 H   0  0  0  0  0  0  0  0  0  0  0  0
   -1.7315   21.7544  -29.6751 H   0  0  0  0  0  0  0  0  0  0  0  0
   -3.1368   20.6626  -29.6698 H   0  0  0  0  0  0  0  0  0  0  0  0
   -1.8881   21.7442  -27.3789 H   0  0  0  0  0  0  0  0  0  0  0  0
   -2.9822   20.3566  -27.3568 H   0  0  0  0  0  0  0  0  0  0  0  0
   -0.1602   20.3151  -26.7572 H   0  0  0  0  0  0  0  0  0  0  0  0
   -1.5980   18.0220  -27.5190 H   0  0  0  0  0  0  0  0  0  0  0  0
    0.6251   20.2331  -28.9854 H   0  0  0  0  0  0  0  0  0  0  0  0
    0.2177   18.5155  -28.8228 H   0  0  0  0  0  0  0  0  0  0  0  0
   -0.3411   21.9571  -33.2239 H   0  0  0  0  0  0  0  0  0  0  0  0
   -0.0984   20.9838  -34.7140 H   0  0  0  0  0  0  0  0  0  0  0  0
   -1.2638   22.3507  -34.7140 H   0  0  0  0  0  0  0  0  0  0  0  0
   -2.5222   18.5273  -35.2429 H   0  0  0  0  0  0  0  0  0  0  0  0
   -5.0179   17.1442  -30.9641 H   0  0  0  0  0  0  0  0  0  0  0  0
   -5.7419   19.5284  -30.8771 H   0  0  0  0  0  0  0  0  0  0  0  0
   -3.6038   21.1075  -32.2771 H   0  0  0  0  0  0  0  0  0  0  0  0
   -2.3980   22.9053  -31.0362 H   0  0  0  0  0  0  0  0  0  0  0  0
   -6.0539   25.2064  -30.8095 H   0  0  0  0  0  0  0  0  0  0  0  0
   -7.2649   23.4106  -32.0465 H   0  0  0  0  0  0  0  0  0  0  0  0
   -5.6324   19.7148  -35.2032 H   0  0  0  0  0  0  0  0  0  0  0  0
   -4.9284   17.3229  -35.2881 H   0  0  0  0  0  0  0  0  0  0  0  0
  1  2  1  0
  2  3  1  0
  3  4  2  0
  4  5  1  0
  5  6  2  0
  6  7  1  0
  7  8  1  0
  8  9  2  0
  9 10  1  0
 10 11  2  0
 11 12  1  0
 12 13  1  0
 13 14  1  0
 14 15  1  0
 15 16  1  0
 16 17  1  0
 16 18  1  0
 11 19  1  0
 19 20  1  0
 20 21  1  0
 19 22  2  0
  7 23  2  0
 23 24  1  0
 24 25  2  0
 24 26  2  0
 24 27  1  0
 27 28  2  0
 28 29  1  0
 29 30  2  0
 30 31  1  0
 31 32  1  0
 32 33  2  0
 33 34  1  0
 34 35  2  0
 35 36  1  0
 35 37  1  0
 37 38  2  0
 30 39  1  0
 39 40  2  0
 23  3  1  0
 40 27  1  0
 22  8  1  0
 38 32  1  0
 18 13  1  0
  1 41  1  0
  1 42  1  0
  1 43  1  0
  2 44  1  0
  2 45  1  0
  5 46  1  0
  6 47  1  0
  9 48  1  0
 10 49  1  0
 12 50  1  0
 12 51  1  0
 14 52  1  0
 14 53  1  0
 15 54  1  0
 15 55  1  0
 16 56  1  1
 17 57  1  0
 18 58  1  0
 18 59  1  0
 21 60  1  0
 21 61  1  0
 21 62  1  0
 22 63  1  0
 28 64  1  0
 29 65  1  0
 33 66  1  0
 34 67  1  0
 37 68  1  0
 38 69  1  0
 39 70  1  0
 40 71  1  0
M  CHG  1  36  -1
M  END
>  <UniqueID>  (12) 
12

>  <SMILES>  (12) 
CCc1nccc(-c2ccc(CN3CC[C@@H](O)C3)c(OC)c2)c1S(=O)(=O)c1ccc(Oc2ccc([O-])cc2)cc1

>  <Energy>  (12) 
96.0169070248943

>  <Genealogy>  (12) 
CCc1nccc(-c2ccc(CN3CCC(O)C3)c(OC)c2)c1S(=O)(=O)c1ccc(Oc2ccc([O-])cc2)cc1 (protonated)
CCc1nccc(-c2ccc(CN3CC[C@@H](O)C3)c(OC)c2)c1S(=O)(=O)c1ccc(Oc2ccc([O-])cc2)cc1 (chirality)
CCc1nccc(-c2ccc(CN3CC[C@@H](O)C3)c(OC)c2)c1S(=O)(=O)c1ccc(Oc2ccc([O-])cc2)cc1 (3D coordinates assigned)
CCc1nccc(-c2ccc(CN3CC[C@@H](O)C3)c(OC)c2)c1S(=O)(=O)c1ccc(Oc2ccc([O-])cc2)cc1 (nonaromatic ring conformer: 96.0169070248943 kcal/mol)

>  <smiles>  (12) 
CCc1nccc(-c2ccc(CN3CCC(O)C3)c(OC)c2)c1S(=O)(=O)c1ccc(Oc2ccc(O)cc2)cc1

>  <score_type>  (12) 
oracle

>  <origin>  (12) 
adgpu

>  <m_score__min__energy>  (12) 
-10.82

>  <m_primary>  (12) 
energy

$$$$
12:0
     RDKit          3D

 35 36  0  0  0  0  0  0  0  0999 V2000
   -7.9570   20.9550  -31.9490 C   0  0  0  0  0  0  0  0  0  0  0  0
   -7.8240   19.4960  -32.2350 C   0  0  0  0  0  0  0  0  0  0  0  0
   -8.8180   18.6040  -32.0510 N   0  0  0  0  0  0  0  0  0  0  0  0
   -8.3420   17.4300  -32.3550 O   0  0  0  0  0  0  0  0  0  0  0  0
   -7.0840   17.5090  -32.7240 C   0  0  0  0  0  0  0  0  0  0  0  0
   -6.2500   16.3350  -33.1200 C   0  0  0  0  0  0  0  0  0  0  0  0
   -6.6960   18.8310  -32.6780 C   0  0  0  0  0  0  0  0  0  0  0  0
   -5.0940   19.4930  -33.0010 S   0  0  0  0  0  0  0  0  0  0  0  0
   -5.1910   20.6990  -33.8920 O   0  0  0  0  0  0  0  0  0  0  0  0
   -4.2600   18.4560  -33.6980 O   0  0  0  0  0  0  0  0  0  0  0  0
   -4.3430   19.9130  -31.5010 N   0  0  0  0  0  0  0  0  0  0  0  0
   -4.0980   21.2750  -31.1500 C   0  0  0  0  0  0  0  0  0  0  0  0
   -5.1410   22.2000  -31.2390 C   0  0  0  0  0  0  0  0  0  0  0  0
   -4.9200   23.5370  -30.9140 C   0  0  0  0  0  0  0  0  0  0  0  0
   -3.6540   23.9600  -30.5010 C   0  0  0  0  0  0  0  0  0  0  0  0
   -3.4500   25.3000  -30.1880 O   0  0  0  0  0  0  0  0  0  0  0  0
   -2.5940   23.0440  -30.4050 C   0  0  0  0  0  0  0  0  0  0  0  0
   -1.3140   23.5360  -29.9740 N   0  0  0  0  0  0  0  0  0  0  0  0
   -0.9820   24.5430  -28.6000 S   0  0  0  0  0  0  0  0  0  0  0  0
   -1.9870   24.0590  -27.2110 C   0  0  0  0  0  0  0  0  0  0  0  0
    0.4600   24.3640  -28.2180 O   0  0  0  0  0  0  0  0  0  0  0  0
   -1.2140   25.9880  -28.9450 O   0  0  0  0  0  0  0  0  0  0  0  0
   -2.8300   21.6850  -30.7080 C   0  0  0  0  0  0  0  0  0  0  0  0
   -1.8740   20.7470  -30.5100 F   0  0  0  0  0  0  0  0  0  0  0  0
   -7.9716   21.1155  -30.8609 H   0  0  0  0  0  0  0  0  0  0  0  0
   -7.1043   21.4939  -32.3877 H   0  0  0  0  0  0  0  0  0  0  0  0
   -8.8931   21.3308  -32.3877 H   0  0  0  0  0  0  0  0  0  0  0  0
   -5.8860   15.8226  -32.2172 H   0  0  0  0  0  0  0  0  0  0  0  0
   -6.8571   15.6387  -33.7172 H   0  0  0  0  0  0  0  0  0  0  0  0
   -5.3927   16.6790  -33.7172 H   0  0  0  0  0  0  0  0  0  0  0  0
   -6.1388   21.8724  -31.5663 H   0  0  0  0  0  0  0  0  0  0  0  0
   -5.7448   24.2616  -30.9828 H   0  0  0  0  0  0  0  0  0  0  0  0
   -1.4653   24.3102  -26.2757 H   0  0  0  0  0  0  0  0  0  0  0  0
   -2.9478   24.5931  -27.2498 H   0  0  0  0  0  0  0  0  0  0  0  0
   -2.1684   22.9748  -27.2498 H   0  0  0  0  0  0  0  0  0  0  0  0
  1  2  1  0
  2  3  2  0
  3  4  1  0
  4  5  1  0
  5  6  1  0
  5  7  2  0
  7  8  1  0
  8  9  2  0
  8 10  2  0
  8 11  1  0
 11 12  1  0
 12 13  2  0
 13 14  1  0
 14 15  2  0
 15 16  1  0
 15 17  1  0
 17 18  1  0
 18 19  1  0
 19 20  1  0
 19 21  2  0
 19 22  2  0
 17 23  2  0
 23 24  1  0
  7  2  1  0
 23 12  1  0
  1 25  1  0
  1 26  1  0
  1 27  1  0
  6 28  1  0
  6 29  1  0
  6 30  1  0
 13 31  1  0
 14 32  1  0
 20 33  1  0
 20 34  1  0
 20 35  1  0
M  CHG  3  11  -1  16  -1  18  -1
M  END
>  <UniqueID>  (13) 
13

>  <SMILES>  (13) 
Cc1noc(C)c1S(=O)(=O)[N-]c1ccc([O-])c([N-]S(C)(=O)=O)c1F

>  <Energy>  (13) 
73.95243746108869

>  <Genealogy>  (13) 
Cc1noc(C)c1S(=O)(=O)[N-]c1ccc([O-])c([N-]S(C)(=O)=O)c1F (protonated)
Cc1noc(C)c1S(=O)(=O)[N-]c1ccc([O-])c([N-]S(C)(=O)=O)c1F (3D coordinates assigned)
Cc1noc(C)c1S(=O)(=O)[N-]c1ccc([O-])c([N-]S(C)(=O)=O)c1F (optimized conformer: 73.95243746108869 kcal/mol)

>  <smiles>  (13) 
Cc1noc(C)c1S(=O)(=O)Nc1ccc(O)c(NS(C)(=O)=O)c1F

>  <score_type>  (13) 
oracle

>  <origin>  (13) 
adgpu

>  <m_score__min__energy>  (13) 
-11.789999999999999

>  <m_primary>  (13) 
energy

$$$$
13:0
     RDKit          3D

 42 44  0  0  0  0  0  0  0  0999 V2000
    2.3640   17.9270  -31.0900 N   0  0  0  0  0  0  0  0  0  0  0  0
    0.6590   18.2040  -31.0450 S   0  0  0  0  0  0  0  0  0  0  0  0
    0.2490   19.0190  -32.2390 O   0  0  0  0  0  0  0  0  0  0  0  0
   -0.0620   16.8850  -31.0910 O   0  0  0  0  0  0  0  0  0  0  0  0
    0.2420   19.0600  -29.5650 C   0  0  0  0  0  0  0  0  0  0  0  0
   -0.4790   18.4110  -28.5530 C   0  0  0  0  0  0  0  0  0  0  0  0
   -0.8430   19.1050  -27.3930 C   0  0  0  0  0  0  0  0  0  0  0  0
   -0.5190   20.4590  -27.2500 C   0  0  0  0  0  0  0  0  0  0  0  0
   -0.9220   21.1600  -26.0630 N   0  0  0  0  0  0  0  0  0  0  0  0
   -1.5160   22.2930  -26.0430 N   0  0  0  0  0  0  0  0  0  0  0  0
   -2.0240   22.9840  -27.1980 C   0  0  0  0  0  0  0  0  0  0  0  0
   -1.5530   24.2630  -27.5360 C   0  0  0  0  0  0  0  0  0  0  0  0
   -2.0620   24.9360  -28.6490 C   0  0  0  0  0  0  0  0  0  0  0  0
   -1.5590   26.1920  -28.9680 O   0  0  0  0  0  0  0  0  0  0  0  0
   -3.0540   24.3290  -29.4440 C   0  0  0  0  0  0  0  0  0  0  0  0
   -3.6380   25.0040  -30.5670 N   0  0  0  0  0  0  0  0  0  0  0  0
   -5.0440   25.1020  -30.8280 C   0  0  0  0  0  0  0  0  0  0  0  0
   -5.5990   26.2310  -30.7450 O   0  0  0  0  0  0  0  0  0  0  0  0
   -5.8490   23.9240  -31.2260 C   0  0  0  0  0  0  0  0  0  0  0  0
   -5.2720   22.8790  -31.9730 C   0  0  0  0  0  0  0  0  0  0  0  0
   -6.0380   21.7720  -32.3480 C   0  0  0  0  0  0  0  0  0  0  0  0
   -7.3820   21.6910  -31.9760 C   0  0  0  0  0  0  0  0  0  0  0  0
   -7.9670   22.7280  -31.2430 C   0  0  0  0  0  0  0  0  0  0  0  0
   -7.2080   23.8440  -30.8770 C   0  0  0  0  0  0  0  0  0  0  0  0
   -3.4580   23.0190  -29.1560 C   0  0  0  0  0  0  0  0  0  0  0  0
   -2.9500   22.3470  -28.0350 C   0  0  0  0  0  0  0  0  0  0  0  0
   -3.3740   21.0520  -27.7400 O   0  0  0  0  0  0  0  0  0  0  0  0
    0.2330   21.0980  -28.2500 C   0  0  0  0  0  0  0  0  0  0  0  0
    0.6050   20.4030  -29.4030 C   0  0  0  0  0  0  0  0  0  0  0  0
    2.6470   17.9280  -32.0960 H   0  0  0  0  0  0  0  0  0  0  0  0
   -0.7594   17.3539  -28.6707 H   0  0  0  0  0  0  0  0  0  0  0  0
   -1.3859   18.5840  -26.5906 H   0  0  0  0  0  0  0  0  0  0  0  0
   -0.7766   24.7389  -26.9190 H   0  0  0  0  0  0  0  0  0  0  0  0
   -4.2124   22.9344  -32.2630 H   0  0  0  0  0  0  0  0  0  0  0  0
   -5.5818   20.9629  -32.9372 H   0  0  0  0  0  0  0  0  0  0  0  0
   -7.9796   20.8121  -32.2595 H   0  0  0  0  0  0  0  0  0  0  0  0
   -9.0264   22.6659  -30.9536 H   0  0  0  0  0  0  0  0  0  0  0  0
   -7.6771   24.6636  -30.3129 H   0  0  0  0  0  0  0  0  0  0  0  0
   -4.1796   22.5134  -29.8145 H   0  0  0  0  0  0  0  0  0  0  0  0
   -2.9460   20.5100  -26.9980 H   0  0  0  0  0  0  0  0  0  0  0  0
    0.5299   22.1497  -28.1244 H   0  0  0  0  0  0  0  0  0  0  0  0
    1.1852   20.9122  -30.1866 H   0  0  0  0  0  0  0  0  0  0  0  0
  1  2  1  0
  2  3  2  0
  2  4  2  0
  2  5  1  0
  5  6  2  0
  6  7  1  0
  7  8  2  0
  8  9  1  0
  9 10  2  3
 10 11  1  0
 11 12  2  0
 12 13  1  0
 13 14  1  0
 13 15  2  0
 15 16  1  0
 16 17  1  0
 17 18  2  0
 17 19  1  0
 19 20  2  0
 20 21  1  0
 21 22  2  0
 22 23  1  0
 23 24  2  0
 15 25  1  0
 25 26  2  0
 26 27  1  0
  8 28  1  0
 28 29  2  0
 29  5  1  0
 26 11  1  0
 24 19  1  0
  1 30  1  0
  6 31  1  0
  7 32  1  0
 12 33  1  0
 20 34  1  0
 21 35  1  0
 22 36  1  0
 23 37  1  0
 24 38  1  0
 25 39  1  0
 27 40  1  0
 28 41  1  0
 29 42  1  0
M  CHG  3   1  -1  14  -1  16  -1
M  END
>  <UniqueID>  (14) 
14

>  <SMILES>  (14) 
[NH-]S(=O)(=O)c1ccc(N=Nc2cc([O-])c([N-]C(=O)c3ccccc3)cc2O)cc1

>  <Energy>  (14) 
63.732379893997376

>  <Genealogy>  (14) 
[NH-]S(=O)(=O)c1ccc(N=Nc2cc([O-])c([N-]C(=O)c3ccccc3)cc2O)cc1 (protonated)
[NH-]S(=O)(=O)c1ccc(N=Nc2cc([O-])c([N-]C(=O)c3ccccc3)cc2O)cc1 (3D coordinates assigned)
[NH-]S(=O)(=O)c1ccc(N=Nc2cc([O-])c([N-]C(=O)c3ccccc3)cc2O)cc1 (optimized conformer: 63.732379893997376 kcal/mol)

>  <smiles>  (14) 
NS(=O)(=O)c1ccc(N=Nc2cc(O)c(NC(=O)c3ccccc3)cc2O)cc1

>  <score_type>  (14) 
oracle

>  <origin>  (14) 
adgpu

>  <m_score__min__energy>  (14) 
-13.08

>  <m_primary>  (14) 
energy

$$$$
14:0
     RDKit          3D

 39 41  0  0  0  0  0  0  0  0999 V2000
   -2.2220   20.4100  -28.1590 C   0  0  0  0  0  0  0  0  0  0  0  0
   -1.0080   21.3130  -28.3690 C   0  0  0  0  0  0  0  0  0  0  0  0
   -0.7600   21.5340  -29.8030 N   0  0  0  0  0  0  0  0  0  0  0  0
   -1.1030   22.9060  -30.2170 C   0  0  0  0  0  0  0  0  0  0  0  0
   -2.6000   23.0950  -30.3810 C   0  0  0  0  0  0  0  0  0  0  0  0
   -3.2250   24.2770  -29.9380 C   0  0  0  0  0  0  0  0  0  0  0  0
   -2.4840   25.2990  -29.3540 O   0  0  0  0  0  0  0  0  0  0  0  0
   -4.6040   24.4410  -30.0820 C   0  0  0  0  0  0  0  0  0  0  0  0
   -5.3820   23.4340  -30.6520 C   0  0  0  0  0  0  0  0  0  0  0  0
   -4.7890   22.2320  -31.0790 C   0  0  0  0  0  0  0  0  0  0  0  0
   -5.5350   21.1760  -31.6550 C   0  0  0  0  0  0  0  0  0  0  0  0
   -7.0090   21.2150  -31.7830 C   0  0  0  0  0  0  0  0  0  0  0  0
   -7.6820   22.4430  -31.8930 C   0  0  0  0  0  0  0  0  0  0  0  0
   -9.0770   22.4760  -31.9910 C   0  0  0  0  0  0  0  0  0  0  0  0
   -9.8080   21.2860  -31.9690 C   0  0  0  0  0  0  0  0  0  0  0  0
   -9.1470   20.0600  -31.8470 C   0  0  0  0  0  0  0  0  0  0  0  0
   -7.7530   20.0230  -31.7480 C   0  0  0  0  0  0  0  0  0  0  0  0
   -4.8550   20.0400  -32.1070 C   0  0  0  0  0  0  0  0  0  0  0  0
   -3.4710   19.9620  -31.9550 C   0  0  0  0  0  0  0  0  0  0  0  0
   -2.8520   18.9390  -32.3480 O   0  0  0  0  0  0  0  0  0  0  0  0
   -2.8000   20.9600  -31.3940 O   0  0  0  0  0  0  0  0  0  0  0  0
   -3.3840   22.0740  -30.9570 C   0  0  0  0  0  0  0  0  0  0  0  0
   -2.3990   20.2783  -27.0813 H   0  0  0  0  0  0  0  0  0  0  0  0
   -3.1066   20.8713  -28.6222 H   0  0  0  0  0  0  0  0  0  0  0  0
   -2.0346   19.4300  -28.6222 H   0  0  0  0  0  0  0  0  0  0  0  0
   -1.1912   22.2820  -27.8816 H   0  0  0  0  0  0  0  0  0  0  0  0
   -0.1257   20.8235  -27.9309 H   0  0  0  0  0  0  0  0  0  0  0  0
    0.2570   21.3850  -29.9980 H   0  0  0  0  0  0  0  0  0  0  0  0
   -1.3080   20.8430  -30.3680 H   0  0  0  0  0  0  0  0  0  0  0  0
   -0.7383   23.6087  -29.4533 H   0  0  0  0  0  0  0  0  0  0  0  0
   -0.6288   23.0945  -31.1915 H   0  0  0  0  0  0  0  0  0  0  0  0
   -5.0808   25.3725  -29.7429 H   0  0  0  0  0  0  0  0  0  0  0  0
   -6.4660   23.5804  -30.7685 H   0  0  0  0  0  0  0  0  0  0  0  0
   -7.1098   23.3824  -31.9021 H   0  0  0  0  0  0  0  0  0  0  0  0
   -9.5987   23.4398  -32.0855 H   0  0  0  0  0  0  0  0  0  0  0  0
  -10.9048   21.3134  -32.0477 H   0  0  0  0  0  0  0  0  0  0  0  0
   -9.7243   19.1238  -31.8289 H   0  0  0  0  0  0  0  0  0  0  0  0
   -7.2365   19.0575  -31.6423 H   0  0  0  0  0  0  0  0  0  0  0  0
   -5.4080   19.2144  -32.5788 H   0  0  0  0  0  0  0  0  0  0  0  0
  1  2  1  0
  2  3  1  0
  3  4  1  0
  4  5  1  0
  5  6  2  0
  6  7  1  0
  6  8  1  0
  8  9  2  0
  9 10  1  0
 10 11  1  0
 11 12  1  0
 12 13  2  0
 13 14  1  0
 14 15  2  0
 15 16  1  0
 16 17  2  0
 11 18  2  0
 18 19  1  0
 19 20  2  0
 19 21  1  0
 21 22  1  0
 22  5  1  0
 22 10  2  0
 17 12  1  0
  1 23  1  0
  1 24  1  0
  1 25  1  0
  2 26  1  0
  2 27  1  0
  3 28  1  0
  3 29  1  0
  4 30  1  0
  4 31  1  0
  8 32  1  0
  9 33  1  0
 13 34  1  0
 14 35  1  0
 15 36  1  0
 16 37  1  0
 17 38  1  0
 18 39  1  0
M  CHG  2   3   1   7  -1
M  END
>  <UniqueID>  (15) 
15

>  <SMILES>  (15) 
CC[NH2+]Cc1c([O-])ccc2c(-c3ccccc3)cc(=O)oc12

>  <Energy>  (15) 
52.19341952657116

>  <Genealogy>  (15) 
CC[NH2+]Cc1c([O-])ccc2c(-c3ccccc3)cc(=O)oc12 (protonated)
CC[NH2+]Cc1c([O-])ccc2c(-c3ccccc3)cc(=O)oc12 (3D coordinates assigned)
CC[NH2+]Cc1c([O-])ccc2c(-c3ccccc3)cc(=O)oc12 (optimized conformer: 52.19341952657116 kcal/mol)

>  <smiles>  (15) 
CCNCc1c(O)ccc2c(-c3ccccc3)cc(=O)oc12

>  <score_type>  (15) 
oracle

>  <origin>  (15) 
adgpu

>  <m_score__min__energy>  (15) 
-9.4100000000000001

>  <m_primary>  (15) 
energy

$$$$
15:0
     RDKit          3D

 33 35  0  0  0  0  0  0  0  0999 V2000
   -9.8060   18.2850  -32.3560 N   0  0  0  0  0  0  0  0  0  0  0  0
   -8.9510   18.9930  -32.0300 C   0  0  0  0  0  0  0  0  0  0  0  0
   -7.8810   19.8770  -31.6220 C   0  0  0  0  0  0  0  0  0  0  0  0
   -6.5310   19.5800  -31.9130 C   0  0  0  0  0  0  0  0  0  0  0  0
   -6.1330   18.3270  -32.6000 C   0  0  0  0  0  0  0  0  0  0  0  0
   -6.1190   18.2660  -34.0040 C   0  0  0  0  0  0  0  0  0  0  0  0
   -5.7320   17.0910  -34.6550 C   0  0  0  0  0  0  0  0  0  0  0  0
   -5.3500   15.9690  -33.9130 C   0  0  0  0  0  0  0  0  0  0  0  0
   -4.9680   14.8050  -34.5690 O   0  0  0  0  0  0  0  0  0  0  0  0
   -5.3480   16.0220  -32.5130 C   0  0  0  0  0  0  0  0  0  0  0  0
   -4.9600   14.9020  -31.7800 O   0  0  0  0  0  0  0  0  0  0  0  0
   -5.7370   17.2000  -31.8600 C   0  0  0  0  0  0  0  0  0  0  0  0
   -5.5340   20.5000  -31.5500 C   0  0  0  0  0  0  0  0  0  0  0  0
   -5.8810   21.6890  -30.8870 C   0  0  0  0  0  0  0  0  0  0  0  0
   -4.8560   22.6840  -30.4820 C   0  0  0  0  0  0  0  0  0  0  0  0
   -3.6380   22.2480  -29.9270 C   0  0  0  0  0  0  0  0  0  0  0  0
   -2.6600   23.1700  -29.5460 C   0  0  0  0  0  0  0  0  0  0  0  0
   -2.8800   24.5390  -29.7190 C   0  0  0  0  0  0  0  0  0  0  0  0
   -1.9030   25.4510  -29.3360 O   0  0  0  0  0  0  0  0  0  0  0  0
   -4.0800   24.9870  -30.2810 C   0  0  0  0  0  0  0  0  0  0  0  0
   -4.2990   26.3470  -30.4660 O   0  0  0  0  0  0  0  0  0  0  0  0
   -5.0620   24.0670  -30.6630 C   0  0  0  0  0  0  0  0  0  0  0  0
   -7.1930   21.9420  -30.6250 N   0  0  0  0  0  0  0  0  0  0  0  0
   -8.1860   21.0830  -30.9700 C   0  0  0  0  0  0  0  0  0  0  0  0
   -9.3800   21.3840  -30.7000 O   0  0  0  0  0  0  0  0  0  0  0  0
   -6.4139   19.1468  -34.5933 H   0  0  0  0  0  0  0  0  0  0  0  0
   -5.7280   17.0489  -35.7542 H   0  0  0  0  0  0  0  0  0  0  0  0
   -4.6470   14.0530  -32.2340 H   0  0  0  0  0  0  0  0  0  0  0  0
   -5.7322   17.2424  -30.7608 H   0  0  0  0  0  0  0  0  0  0  0  0
   -4.4802   20.2894  -31.7850 H   0  0  0  0  0  0  0  0  0  0  0  0
   -3.4547   21.1718  -29.7921 H   0  0  0  0  0  0  0  0  0  0  0  0
   -1.7143   22.8173  -29.1087 H   0  0  0  0  0  0  0  0  0  0  0  0
   -6.0020   24.4252  -31.1080 H   0  0  0  0  0  0  0  0  0  0  0  0
  1  2  3  0
  2  3  1  0
  3  4  2  0
  4  5  1  0
  5  6  2  0
  6  7  1  0
  7  8  2  0
  8  9  1  0
  8 10  1  0
 10 11  1  0
 10 12  2  0
  4 13  1  0
 13 14  2  0
 14 15  1  0
 15 16  2  0
 16 17  1  0
 17 18  2  0
 18 19  1  0
 18 20  1  0
 20 21  1  0
 20 22  2  0
 14 23  1  0
 23 24  1  0
 24 25  2  0
 24  3  1  0
 12  5  1  0
 22 15  1  0
  6 26  1  0
  7 27  1  0
 11 28  1  0
 12 29  1  0
 13 30  1  0
 16 31  1  0
 17 32  1  0
 22 33  1  0
M  CHG  4   9  -1  19  -1  21  -1  23  -1
M  END
>  <UniqueID>  (16) 
16

>  <SMILES>  (16) 
N#Cc1c(-c2ccc([O-])c(O)c2)cc(-c2ccc([O-])c([O-])c2)[n-]c1=O

>  <Energy>  (16) 
49.092290338223776

>  <Genealogy>  (16) 
N#Cc1c(-c2ccc([O-])c(O)c2)cc(-c2ccc([O-])c([O-])c2)[n-]c1=O (protonated)
N#Cc1c(-c2ccc([O-])c(O)c2)cc(-c2ccc([O-])c([O-])c2)[n-]c1=O (3D coordinates assigned)
N#Cc1c(-c2ccc([O-])c(O)c2)cc(-c2ccc([O-])c([O-])c2)[n-]c1=O (optimized conformer: 49.092290338223776 kcal/mol)

>  <smiles>  (16) 
N#Cc1c(-c2ccc(O)c(O)c2)cc(-c2ccc(O)c(O)c2)[nH]c1=O

>  <score_type>  (16) 
oracle

>  <origin>  (16) 
adgpu

>  <m_score__min__energy>  (16) 
-12.26

>  <m_primary>  (16) 
energy

$$$$
16:0
     RDKit          3D

 49 51  0  0  0  0  0  0  0  0999 V2000
   -6.4540   17.1850  -31.6930 C   0  0  0  0  0  0  0  0  0  0  0  0
   -7.3200   17.8000  -32.8030 C   0  0  1  0  0  0  0  0  0  0  0  0
   -8.7190   18.1750  -32.2780 C   0  0  0  0  0  0  0  0  0  0  0  0
   -8.7060   19.4200  -31.3630 C   0  0  0  0  0  0  0  0  0  0  0  0
   -7.6270   20.3870  -31.6860 N   0  0  2  0  0  0  0  0  0  0  0  0
   -8.0940   22.0050  -31.2130 S   0  0  0  0  0  0  0  0  0  0  0  0
   -8.8300   22.6640  -32.3450 O   0  0  0  0  0  0  0  0  0  0  0  0
   -9.0230   21.9310  -30.0330 O   0  0  0  0  0  0  0  0  0  0  0  0
   -6.6900   22.9850  -30.7790 C   0  0  0  0  0  0  0  0  0  0  0  0
   -5.3990   22.5730  -31.1360 C   0  0  0  0  0  0  0  0  0  0  0  0
   -4.2900   23.3480  -30.7830 C   0  0  0  0  0  0  0  0  0  0  0  0
   -4.4580   24.5500  -30.0860 C   0  0  0  0  0  0  0  0  0  0  0  0
   -3.3190   25.2900  -29.7360 O   0  0  0  0  0  0  0  0  0  0  0  0
   -2.2000   24.7890  -29.0550 C   0  0  0  0  0  0  0  0  0  0  0  0
   -1.7690   25.4430  -27.8950 C   0  0  0  0  0  0  0  0  0  0  0  0
   -0.6660   24.9660  -27.1810 C   0  0  0  0  0  0  0  0  0  0  0  0
    0.0130   23.8210  -27.6160 C   0  0  0  0  0  0  0  0  0  0  0  0
    1.3920   23.2120  -26.7060 S   0  0  0  0  0  0  0  0  0  0  0  0
    2.7530   24.2450  -26.9570 N   0  0  0  0  0  0  0  0  0  0  0  0
    1.7270   21.8190  -27.1610 O   0  0  0  0  0  0  0  0  0  0  0  0
    1.0600   23.1730  -25.2410 O   0  0  0  0  0  0  0  0  0  0  0  0
   -0.4320   23.1450  -28.7600 C   0  0  0  0  0  0  0  0  0  0  0  0
   -1.5340   23.6230  -29.4750 C   0  0  0  0  0  0  0  0  0  0  0  0
   -5.7520   24.9550  -29.7140 C   0  0  0  0  0  0  0  0  0  0  0  0
   -6.8610   24.1800  -30.0660 C   0  0  0  0  0  0  0  0  0  0  0  0
   -7.2560   20.3600  -33.1120 C   0  0  0  0  0  0  0  0  0  0  0  0
   -6.6240   19.0070  -33.4850 C   0  0  0  0  0  0  0  0  0  0  0  0
   -6.8582   17.4721  -30.7111 H   0  0  0  0  0  0  0  0  0  0  0  0
   -6.4619   16.0890  -31.7866 H   0  0  0  0  0  0  0  0  0  0  0  0
   -5.4218   17.5536  -31.7866 H   0  0  0  0  0  0  0  0  0  0  0  0
   -7.4494   17.0291  -33.5769 H   0  0  0  0  0  0  0  0  0  0  0  0
   -9.1189   17.3242  -31.7068 H   0  0  0  0  0  0  0  0  0  0  0  0
   -9.3450   18.4140  -33.1504 H   0  0  0  0  0  0  0  0  0  0  0  0
   -8.5729   19.0856  -30.3235 H   0  0  0  0  0  0  0  0  0  0  0  0
   -9.6620   19.9419  -31.5169 H   0  0  0  0  0  0  0  0  0  0  0  0
   -6.7790   20.1540  -31.1190 H   0  0  0  0  0  0  0  0  0  0  0  0
   -5.2576   21.6367  -31.6958 H   0  0  0  0  0  0  0  0  0  0  0  0
   -3.2789   23.0108  -31.0549 H   0  0  0  0  0  0  0  0  0  0  0  0
   -2.3019   26.3385  -27.5428 H   0  0  0  0  0  0  0  0  0  0  0  0
   -0.3304   25.4915  -26.2748 H   0  0  0  0  0  0  0  0  0  0  0  0
    3.5760   23.7790  -26.5130 H   0  0  0  0  0  0  0  0  0  0  0  0
    0.0874   22.2355  -29.0964 H   0  0  0  0  0  0  0  0  0  0  0  0
   -1.8818   23.0854  -30.3695 H   0  0  0  0  0  0  0  0  0  0  0  0
   -5.8923   25.8852  -29.1438 H   0  0  0  0  0  0  0  0  0  0  0  0
   -7.8716   24.5090  -29.7825 H   0  0  0  0  0  0  0  0  0  0  0  0
   -6.5322   21.1638  -33.3119 H   0  0  0  0  0  0  0  0  0  0  0  0
   -8.1639   20.5044  -33.7161 H   0  0  0  0  0  0  0  0  0  0  0  0
   -5.5670   19.0189  -33.1808 H   0  0  0  0  0  0  0  0  0  0  0  0
   -6.7393   18.8803  -34.5716 H   0  0  0  0  0  0  0  0  0  0  0  0
  1  2  1  0
  2  3  1  0
  3  4  1  0
  4  5  1  0
  5  6  1  0
  6  7  2  0
  6  8  2  0
  6  9  1  0
  9 10  2  0
 10 11  1  0
 11 12  2  0
 12 13  1  0
 13 14  1  0
 14 15  2  0
 15 16  1  0
 16 17  2  0
 17 18  1  0
 18 19  1  0
 18 20  2  0
 18 21  2  0
 17 22  1  0
 22 23  2  0
 12 24  1  0
 24 25  2  0
  5 26  1  0
 26 27  1  0
 27  2  1  0
 25  9  1  0
 23 14  1  0
  1 28  1  0
  1 29  1  0
  1 30  1  0
  2 31  1  6
  3 32  1  0
  3 33  1  0
  4 34  1  0
  4 35  1  0
  5 36  1  1
 10 37  1  0
 11 38  1  0
 15 39  1  0
 16 40  1  0
 19 41  1  0
 22 42  1  0
 23 43  1  0
 24 44  1  0
 25 45  1  0
 26 46  1  0
 26 47  1  0
 27 48  1  0
 27 49  1  0
M  CHG  2   5   1  19  -1
M  END
>  <UniqueID>  (17) 
17

>  <SMILES>  (17) 
CC1CC[NH+](S(=O)(=O)c2ccc(Oc3ccc(S([NH-])(=O)=O)cc3)cc2)CC1

>  <Energy>  (17) 
59.967917155255286

>  <Genealogy>  (17) 
CC1CC[NH+](S(=O)(=O)c2ccc(Oc3ccc(S([NH-])(=O)=O)cc3)cc2)CC1 (protonated)
CC1CC[NH+](S(=O)(=O)c2ccc(Oc3ccc(S([NH-])(=O)=O)cc3)cc2)CC1 (3D coordinates assigned)
CC1CC[NH+](S(=O)(=O)c2ccc(Oc3ccc(S([NH-])(=O)=O)cc3)cc2)CC1 (nonaromatic ring conformer: 59.967917155255286 kcal/mol)

>  <smiles>  (17) 
CC1CCN(S(=O)(=O)c2ccc(Oc3ccc(S(N)(=O)=O)cc3)cc2)CC1

>  <score_type>  (17) 
oracle

>  <origin>  (17) 
adgpu

>  <m_score__min__energy>  (17) 
-10.369999999999999

>  <m_primary>  (17) 
energy

$$$$
17:0
     RDKit          3D

 43 45  0  0  0  0  0  0  0  0999 V2000
   -4.0730   20.9400  -32.0850 C   0  0  0  0  0  0  0  0  0  0  0  0
   -2.7600   22.1830  -31.8870 S   0  0  0  0  0  0  0  0  0  0  0  0
   -2.6340   21.9570  -30.1060 C   0  0  0  0  0  0  0  0  0  0  0  0
   -2.5300   20.6840  -29.6340 N   0  0  0  0  0  0  0  0  0  0  0  0
   -2.4390   20.4090  -28.3070 C   0  0  0  0  0  0  0  0  0  0  0  0
   -2.4430   21.4470  -27.3780 C   0  0  0  0  0  0  0  0  0  0  0  0
   -2.5420   22.7630  -27.8260 C   0  0  0  0  0  0  0  0  0  0  0  0
   -2.6500   23.0440  -29.2000 C   0  0  0  0  0  0  0  0  0  0  0  0
   -2.7580   24.4540  -29.6500 C   0  0  0  0  0  0  0  0  0  0  0  0
   -1.8670   25.2800  -29.3220 O   0  0  0  0  0  0  0  0  0  0  0  0
   -3.8990   24.9340  -30.3770 N   0  0  0  0  0  0  0  0  0  0  0  0
   -5.1010   24.2060  -30.6720 C   0  0  0  0  0  0  0  0  0  0  0  0
   -5.7730   23.5610  -29.6270 C   0  0  0  0  0  0  0  0  0  0  0  0
   -6.9410   22.8350  -29.8780 C   0  0  0  0  0  0  0  0  0  0  0  0
   -7.4550   22.7550  -31.1800 C   0  0  0  0  0  0  0  0  0  0  0  0
   -8.9200   21.8200  -31.5030 S   0  0  0  0  0  0  0  0  0  0  0  0
   -9.6070   21.5190  -30.2000 O   0  0  0  0  0  0  0  0  0  0  0  0
   -9.8540   22.6470  -32.3410 O   0  0  0  0  0  0  0  0  0  0  0  0
   -8.5920   20.3160  -32.3320 N   0  0  0  0  0  0  0  0  0  0  0  0
   -8.6840   19.1640  -31.4370 C   0  0  0  0  0  0  0  0  0  0  0  0
   -7.8060   18.0790  -32.0420 C   0  0  0  0  0  0  0  0  0  0  0  0
   -6.8600   18.8070  -32.9870 C   0  0  0  0  0  0  0  0  0  0  0  0
   -7.2380   20.2760  -32.8830 C   0  0  0  0  0  0  0  0  0  0  0  0
   -6.8090   23.4370  -32.2190 C   0  0  0  0  0  0  0  0  0  0  0  0
   -5.6410   24.1610  -31.9680 C   0  0  0  0  0  0  0  0  0  0  0  0
   -4.4197   20.6118  -31.0940 H   0  0  0  0  0  0  0  0  0  0  0  0
   -4.9142   21.3805  -32.6404 H   0  0  0  0  0  0  0  0  0  0  0  0
   -3.6792   20.0760  -32.6404 H   0  0  0  0  0  0  0  0  0  0  0  0
   -2.3621   19.3661  -27.9657 H   0  0  0  0  0  0  0  0  0  0  0  0
   -2.3688   21.2303  -26.3021 H   0  0  0  0  0  0  0  0  0  0  0  0
   -2.5356   23.5886  -27.0992 H   0  0  0  0  0  0  0  0  0  0  0  0
   -5.3795   23.6258  -28.6018 H   0  0  0  0  0  0  0  0  0  0  0  0
   -7.4582   22.3251  -29.0518 H   0  0  0  0  0  0  0  0  0  0  0  0
   -8.3210   19.4317  -30.4337 H   0  0  0  0  0  0  0  0  0  0  0  0
   -9.7244   18.8227  -31.3320 H   0  0  0  0  0  0  0  0  0  0  0  0
   -7.2397   17.5587  -31.2555 H   0  0  0  0  0  0  0  0  0  0  0  0
   -8.4003   17.3153  -32.5651 H   0  0  0  0  0  0  0  0  0  0  0  0
   -5.8152   18.6555  -32.6780 H   0  0  0  0  0  0  0  0  0  0  0  0
   -6.9449   18.4345  -34.0185 H   0  0  0  0  0  0  0  0  0  0  0  0
   -6.5399   20.8021  -32.2153 H   0  0  0  0  0  0  0  0  0  0  0  0
   -7.1923   20.7700  -33.8648 H   0  0  0  0  0  0  0  0  0  0  0  0
   -7.2234   23.4023  -33.2374 H   0  0  0  0  0  0  0  0  0  0  0  0
   -5.1422   24.6979  -32.7883 H   0  0  0  0  0  0  0  0  0  0  0  0
  1  2  1  0
  2  3  1  0
  3  4  2  0
  4  5  1  0
  5  6  2  0
  6  7  1  0
  7  8  2  0
  8  9  1  0
  9 10  2  0
  9 11  1  0
 11 12  1  0
 12 13  2  0
 13 14  1  0
 14 15  2  0
 15 16  1  0
 16 17  2  0
 16 18  2  0
 16 19  1  0
 19 20  1  0
 20 21  1  0
 21 22  1  0
 22 23  1  0
 15 24  1  0
 24 25  2  0
  8  3  1  0
 25 12  1  0
 23 19  1  0
  1 26  1  0
  1 27  1  0
  1 28  1  0
  5 29  1  0
  6 30  1  0
  7 31  1  0
 13 32  1  0
 14 33  1  0
 20 34  1  0
 20 35  1  0
 21 36  1  0
 21 37  1  0
 22 38  1  0
 22 39  1  0
 23 40  1  0
 23 41  1  0
 24 42  1  0
 25 43  1  0
M  CHG  1  11  -1
M  END
>  <UniqueID>  (18) 
18

>  <SMILES>  (18) 
CSc1ncccc1C(=O)[N-]c1ccc(S(=O)(=O)N2CCCC2)cc1

>  <Energy>  (18) 
50.33324329632765

>  <Genealogy>  (18) 
CSc1ncccc1C(=O)[N-]c1ccc(S(=O)(=O)N2CCCC2)cc1 (protonated)
CSc1ncccc1C(=O)[N-]c1ccc(S(=O)(=O)N2CCCC2)cc1 (3D coordinates assigned)
CSc1ncccc1C(=O)[N-]c1ccc(S(=O)(=O)N2CCCC2)cc1 (nonaromatic ring conformer: 50.33324329632765 kcal/mol)

>  <smiles>  (18) 
CSc1ncccc1C(=O)Nc1ccc(S(=O)(=O)N2CCCC2)cc1

>  <score_type>  (18) 
oracle

>  <origin>  (18) 
adgpu

>  <m_score__min__energy>  (18) 
-10.880000000000001

>  <m_primary>  (18) 
energy

$$$$
18:0
     RDKit          3D

 29 31  0  0  0  0  0  0  0  0999 V2000
   -3.8090   25.2940  -30.7850 N   0  0  0  0  0  0  0  0  0  0  0  0
   -5.2690   24.8290  -29.9860 S   0  0  0  0  0  0  0  0  0  0  0  0
   -6.2620   25.9530  -30.0670 O   0  0  0  0  0  0  0  0  0  0  0  0
   -4.9810   24.5440  -28.5390 O   0  0  0  0  0  0  0  0  0  0  0  0
   -5.9290   23.3910  -30.7580 C   0  0  0  0  0  0  0  0  0  0  0  0
   -5.1930   22.7170  -31.7430 C   0  0  0  0  0  0  0  0  0  0  0  0
   -5.7130   21.5690  -32.3480 C   0  0  0  0  0  0  0  0  0  0  0  0
   -6.9660   21.0650  -31.9540 C   0  0  0  0  0  0  0  0  0  0  0  0
   -7.5480   19.9140  -32.5830 N   0  0  0  0  0  0  0  0  0  0  0  0
   -6.9670   18.7670  -32.7860 C   0  0  0  0  0  0  0  0  0  0  0  0
   -7.5870   17.7520  -33.4230 N   0  0  0  0  0  0  0  0  0  0  0  0
   -6.8470   16.6460  -33.4910 N   0  0  0  0  0  0  0  0  0  0  0  0
   -5.6380   16.7690  -32.8980 C   0  0  0  0  0  0  0  0  0  0  0  0
   -4.6480   15.6860  -32.8390 C   0  0  0  0  0  0  0  0  0  0  0  0
   -4.6650   14.6160  -31.9510 C   0  0  0  0  0  0  0  0  0  0  0  0
   -3.5920   13.7350  -32.1280 C   0  0  0  0  0  0  0  0  0  0  0  0
   -2.7290   14.1040  -33.1520 C   0  0  0  0  0  0  0  0  0  0  0  0
   -3.3030   15.5290  -33.8380 S   0  0  0  0  0  0  0  0  0  0  0  0
   -5.4330   18.3090  -32.2410 S   0  0  0  0  0  0  0  0  0  0  0  0
   -7.7090   21.7580  -30.9890 C   0  0  0  0  0  0  0  0  0  0  0  0
   -7.1890   22.9050  -30.3840 C   0  0  0  0  0  0  0  0  0  0  0  0
   -3.9850   26.2260  -31.2230 H   0  0  0  0  0  0  0  0  0  0  0  0
   -4.2030   23.0929  -32.0407 H   0  0  0  0  0  0  0  0  0  0  0  0
   -5.1400   21.0576  -33.1355 H   0  0  0  0  0  0  0  0  0  0  0  0
   -5.4434   14.4761  -31.1864 H   0  0  0  0  0  0  0  0  0  0  0  0
   -3.4457   12.8344  -31.5135 H   0  0  0  0  0  0  0  0  0  0  0  0
   -1.8254   13.5582  -33.4613 H   0  0  0  0  0  0  0  0  0  0  0  0
   -8.7086   21.3965  -30.7058 H   0  0  0  0  0  0  0  0  0  0  0  0
   -7.7709   23.4285  -29.6111 H   0  0  0  0  0  0  0  0  0  0  0  0
  1  2  1  0
  2  3  2  0
  2  4  2  0
  2  5  1  0
  5  6  2  0
  6  7  1  0
  7  8  2  0
  8  9  1  0
  9 10  2  3
 10 11  1  0
 11 12  1  0
 12 13  2  0
 13 14  1  0
 14 15  2  0
 15 16  1  0
 16 17  2  0
 17 18  1  0
 13 19  1  0
  8 20  1  0
 20 21  2  0
 21  5  1  0
 19 10  1  0
 18 14  1  0
  1 22  1  0
  6 23  1  0
  7 24  1  0
 15 25  1  0
 16 26  1  0
 17 27  1  0
 20 28  1  0
 21 29  1  0
M  CHG  2   1  -1  11  -1
M  END
>  <UniqueID>  (19) 
19

>  <SMILES>  (19) 
[NH-]S(=O)(=O)c1ccc(N=c2[n-]nc(-c3cccs3)s2)cc1

>  <Energy>  (19) 
98.24996512879406

>  <Genealogy>  (19) 
[NH-]S(=O)(=O)c1ccc(N=c2[n-]nc(-c3cccs3)s2)cc1 (protonated)
[NH-]S(=O)(=O)c1ccc(N=c2[n-]nc(-c3cccs3)s2)cc1 (3D coordinates assigned)
[NH-]S(=O)(=O)c1ccc(N=c2[n-]nc(-c3cccs3)s2)cc1 (optimized conformer: 98.24996512879406 kcal/mol)

>  <smiles>  (19) 
NS(=O)(=O)c1ccc(N=c2[nH]nc(-c3cccs3)s2)cc1

>  <score_type>  (19) 
oracle

>  <origin>  (19) 
adgpu

>  <m_score__min__energy>  (19) 
-9.6199999999999992

>  <m_primary>  (19) 
energy

$$$$
19:0
     RDKit          3D

 49 52  0  0  0  0  0  0  0  0999 V2000
   -8.8210   23.2280  -32.0500 C   0  0  0  0  0  0  0  0  0  0  0  0
   -7.8810   23.1500  -30.9850 O   0  0  0  0  0  0  0  0  0  0  0  0
   -6.4850   23.1450  -31.1470 C   0  0  0  0  0  0  0  0  0  0  0  0
   -5.6910   24.2480  -30.7310 C   0  0  0  0  0  0  0  0  0  0  0  0
   -4.2930   24.2080  -30.8420 C   0  0  0  0  0  0  0  0  0  0  0  0
   -3.5140   25.2830  -30.4330 O   0  0  0  0  0  0  0  0  0  0  0  0
   -3.7100   23.0570  -31.3520 C   0  0  0  0  0  0  0  0  0  0  0  0
   -2.4300   22.8090  -31.4750 O   0  0  0  0  0  0  0  0  0  0  0  0
   -2.3000   21.5850  -31.9540 C   0  0  0  0  0  0  0  0  0  0  0  0
   -0.9870   20.9510  -32.2180 C   0  0  0  0  0  0  0  0  0  0  0  0
   -0.3260   20.2670  -31.1820 C   0  0  0  0  0  0  0  0  0  0  0  0
    0.9150   19.6630  -31.4090 C   0  0  0  0  0  0  0  0  0  0  0  0
    1.5100   19.7360  -32.6710 C   0  0  0  0  0  0  0  0  0  0  0  0
    2.7420   19.1350  -32.8950 O   0  0  0  0  0  0  0  0  0  0  0  0
    0.8640   20.4150  -33.7080 C   0  0  0  0  0  0  0  0  0  0  0  0
   -0.3770   21.0210  -33.4850 C   0  0  0  0  0  0  0  0  0  0  0  0
   -3.5570   21.0130  -32.1490 C   0  0  0  0  0  0  0  0  0  0  0  0
   -4.4590   21.9900  -31.7730 C   0  0  0  0  0  0  0  0  0  0  0  0
   -5.8660   22.0050  -31.7310 C   0  0  0  0  0  0  0  0  0  0  0  0
   -6.6960   20.8410  -32.2520 C   0  0  0  0  0  0  0  0  0  0  0  0
   -5.9260   19.5890  -32.4580 N   0  0  0  0  0  0  0  0  0  0  0  0
   -5.4420   19.3670  -33.8410 C   0  0  0  0  0  0  0  0  0  0  0  0
   -6.1050   18.1470  -34.4950 C   0  0  0  0  0  0  0  0  0  0  0  0
   -5.8380   16.9120  -33.7210 N   0  0  0  0  0  0  0  0  0  0  0  0
   -6.8180   15.8710  -34.0710 C   0  0  0  0  0  0  0  0  0  0  0  0
   -5.7750   17.1260  -32.2520 C   0  0  0  0  0  0  0  0  0  0  0  0
   -6.5200   18.3950  -31.8190 C   0  0  0  0  0  0  0  0  0  0  0  0
   -9.8370   23.3123  -31.6369 H   0  0  0  0  0  0  0  0  0  0  0  0
   -8.6021   24.1111  -32.6683 H   0  0  0  0  0  0  0  0  0  0  0  0
   -8.7507   22.3209  -32.6683 H   0  0  0  0  0  0  0  0  0  0  0  0
   -6.1782   25.1433  -30.3173 H   0  0  0  0  0  0  0  0  0  0  0  0
   -0.7884   20.2066  -30.1858 H   0  0  0  0  0  0  0  0  0  0  0  0
    1.4235   19.1295  -30.5924 H   0  0  0  0  0  0  0  0  0  0  0  0
    1.3324   20.4730  -34.7016 H   0  0  0  0  0  0  0  0  0  0  0  0
   -0.8794   21.5555  -34.3047 H   0  0  0  0  0  0  0  0  0  0  0  0
   -3.7817   20.0027  -32.5215 H   0  0  0  0  0  0  0  0  0  0  0  0
   -7.4980   20.6375  -31.5272 H   0  0  0  0  0  0  0  0  0  0  0  0
   -7.0792   21.1423  -33.2381 H   0  0  0  0  0  0  0  0  0  0  0  0
   -5.6679   20.2592  -34.4435 H   0  0  0  0  0  0  0  0  0  0  0  0
   -4.3589   19.1805  -33.7954 H   0  0  0  0  0  0  0  0  0  0  0  0
   -7.1915   18.3121  -34.5434 H   0  0  0  0  0  0  0  0  0  0  0  0
   -5.6859   18.0225  -35.5044 H   0  0  0  0  0  0  0  0  0  0  0  0
   -7.2312   15.4321  -33.1508 H   0  0  0  0  0  0  0  0  0  0  0  0
   -7.6316   16.3171  -34.6619 H   0  0  0  0  0  0  0  0  0  0  0  0
   -6.3237   15.0858  -34.6619 H   0  0  0  0  0  0  0  0  0  0  0  0
   -6.2283   16.2597  -31.7480 H   0  0  0  0  0  0  0  0  0  0  0  0
   -4.7175   17.2433  -31.9728 H   0  0  0  0  0  0  0  0  0  0  0  0
   -7.5761   18.3135  -32.1157 H   0  0  0  0  0  0  0  0  0  0  0  0
   -6.4393   18.4992  -30.7269 H   0  0  0  0  0  0  0  0  0  0  0  0
  1  2  1  0
  2  3  1  0
  3  4  2  0
  4  5  1  0
  5  6  1  0
  5  7  2  0
  7  8  1  0
  8  9  1  0
  9 10  1  0
 10 11  2  0
 11 12  1  0
 12 13  2  0
 13 14  1  0
 13 15  1  0
 15 16  2  0
  9 17  2  0
 17 18  1  0
 18 19  2  0
 19 20  1  0
 20 21  1  0
 21 22  1  0
 22 23  1  0
 23 24  1  0
 24 25  1  0
 24 26  1  0
 26 27  1  0
 19  3  1  0
 27 21  1  0
 18  7  1  0
 16 10  1  0
  1 28  1  0
  1 29  1  0
  1 30  1  0
  4 31  1  0
 11 32  1  0
 12 33  1  0
 15 34  1  0
 16 35  1  0
 17 36  1  0
 20 37  1  0
 20 38  1  0
 22 39  1  0
 22 40  1  0
 23 41  1  0
 23 42  1  0
 25 43  1  0
 25 44  1  0
 25 45  1  0
 26 46  1  0
 26 47  1  0
 27 48  1  0
 27 49  1  0
M  CHG  2   6  -1  14  -1
M  END
>  <UniqueID>  (20) 
20

>  <SMILES>  (20) 
COc1cc([O-])c2oc(-c3ccc([O-])cc3)cc2c1CN1CCN(C)CC1

>  <Energy>  (20) 
102.68382169660596

>  <Genealogy>  (20) 
COc1cc([O-])c2oc(-c3ccc([O-])cc3)cc2c1CN1CCN(C)CC1 (protonated)
COc1cc([O-])c2oc(-c3ccc([O-])cc3)cc2c1CN1CCN(C)CC1 (3D coordinates assigned)
COc1cc([O-])c2oc(-c3ccc([O-])cc3)cc2c1CN1CCN(C)CC1 (nonaromatic ring conformer: 102.68382169660596 kcal/mol)

>  <smiles>  (20) 
COc1cc(O)c2oc(-c3ccc(O)cc3)cc2c1CN1CCN(C)CC1

>  <score_type>  (20) 
oracle

>  <origin>  (20) 
adgpu

>  <m_score__min__energy>  (20) 
-10.960000000000001

>  <m_primary>  (20) 
energy

$$$$
20:0
     RDKit          3D

 39 41  0  0  0  0  0  0  0  0999 V2000
   -6.3674   17.5505  -33.5702 H   0  0  0  0  0  0  0  0  0  0  0  0
   -6.9580   18.3440  -33.0890 C   0  0  0  0  0  0  0  0  0  0  0  0
   -7.9850   18.0100  -32.2020 C   0  0  0  0  0  0  0  0  0  0  0  0
   -8.2001   16.9537  -31.9831 H   0  0  0  0  0  0  0  0  0  0  0  0
   -8.7400   19.0180  -31.5920 C   0  0  0  0  0  0  0  0  0  0  0  0
   -9.5428   18.7521  -30.8886 H   0  0  0  0  0  0  0  0  0  0  0  0
   -8.4760   20.3680  -31.8750 C   0  0  0  0  0  0  0  0  0  0  0  0
   -9.2610   21.4520  -31.1950 C   0  0  0  0  0  0  0  0  0  0  0  0
   -8.9306   21.5433  -30.1498 H   0  0  0  0  0  0  0  0  0  0  0  0
  -10.3316   21.2005  -31.2206 H   0  0  0  0  0  0  0  0  0  0  0  0
   -8.9880   23.0320  -32.0580 S   0  0  0  0  0  0  0  0  0  0  0  0
   -7.4310   23.3420  -31.2340 C   0  0  0  0  0  0  0  0  0  0  0  0
   -7.2630   23.2510  -29.8970 N   0  0  0  0  0  0  0  0  0  0  0  0
   -6.0180   23.5280  -29.5140 N   0  0  0  0  0  0  0  0  0  0  0  0
   -5.7380   23.4950  -28.5100 H   0  0  0  0  0  0  0  0  0  0  0  0
   -5.1960   23.8400  -30.5440 C   0  0  0  0  0  0  0  0  0  0  0  0
   -3.9410   24.1520  -30.4270 N   0  0  0  0  0  0  0  0  0  0  0  0
   -3.0790   24.2320  -28.9240 S   0  0  0  0  0  0  0  0  0  0  0  0
   -4.0350   24.6090  -27.8290 O   0  0  0  0  0  0  0  0  0  0  0  0
   -2.0100   25.2850  -29.0260 O   0  0  0  0  0  0  0  0  0  0  0  0
   -2.3700   22.6640  -28.5470 C   0  0  0  0  0  0  0  0  0  0  0  0
   -1.0520   22.3730  -28.9250 C   0  0  0  0  0  0  0  0  0  0  0  0
   -0.4545   23.1277  -29.4574 H   0  0  0  0  0  0  0  0  0  0  0  0
   -0.4950   21.1260  -28.6270 C   0  0  0  0  0  0  0  0  0  0  0  0
    0.5431   20.9063  -28.9171 H   0  0  0  0  0  0  0  0  0  0  0  0
   -1.2550   20.1530  -27.9590 C   0  0  0  0  0  0  0  0  0  0  0  0
   -0.6440   18.8290  -27.6070 C   0  0  0  0  0  0  0  0  0  0  0  0
   -0.5966   18.7263  -26.5128 H   0  0  0  0  0  0  0  0  0  0  0  0
   -1.2592   18.0185  -28.0250 H   0  0  0  0  0  0  0  0  0  0  0  0
    0.3718   18.7712  -28.0250 H   0  0  0  0  0  0  0  0  0  0  0  0
   -2.5650   20.4560  -27.5620 C   0  0  0  0  0  0  0  0  0  0  0  0
   -3.1577   19.7081  -27.0148 H   0  0  0  0  0  0  0  0  0  0  0  0
   -3.1220   21.7040  -27.8580 C   0  0  0  0  0  0  0  0  0  0  0  0
   -4.1528   21.9322  -27.5491 H   0  0  0  0  0  0  0  0  0  0  0  0
   -6.0050   23.7840  -32.0180 S   0  0  0  0  0  0  0  0  0  0  0  0
   -7.4330   20.6960  -32.7570 C   0  0  0  0  0  0  0  0  0  0  0  0
   -7.2070   21.7512  -32.9701 H   0  0  0  0  0  0  0  0  0  0  0  0
   -6.6810   19.6860  -33.3650 C   0  0  0  0  0  0  0  0  0  0  0  0
   -5.8706   19.9478  -34.0612 H   0  0  0  0  0  0  0  0  0  0  0  0
  1  2  1  0
  2  3  2  0
  3  4  1  0
  3  5  1  0
  5  6  1  0
  5  7  2  0
  7  8  1  0
  8  9  1  0
  8 10  1  0
  8 11  1  0
 11 12  1  0
 12 13  2  0
 13 14  1  0
 14 15  1  0
 14 16  1  0
 16 17  2  0
 17 18  1  0
 18 19  2  0
 18 20  2  0
 18 21  1  0
 21 22  2  0
 22 23  1  0
 22 24  1  0
 24 25  1  0
 24 26  2  0
 26 27  1  0
 27 28  1  0
 27 29  1  0
 27 30  1  0
 26 31  1  0
 31 32  1  0
 31 33  2  0
 33 34  1  0
 16 35  1  0
  7 36  1  0
 36 37  1  0
 36 38  2  0
 38 39  1  0
 38  2  1  0
 35 12  1  0
 33 21  1  0
M  END
>  <UniqueID>  (21) 
21

>  <SMILES>  (21) 
Cc1ccc(S(=O)(=O)/N=c2\[nH]nc(SCc3ccccc3)s2)cc1

>  <Energy>  (21) 
73.66612344554751

>  <Genealogy>  (21) 
Cc1ccc(S(=O)(=O)/N=c2\[nH]nc(SCc3ccccc3)s2)cc1 (cis-trans isomerization)
Cc1ccc(S(=O)(=O)/N=c2\[nH]nc(SCc3ccccc3)s2)cc1 (3D coordinates assigned)
Cc1ccc(S(=O)(=O)/N=c2\[nH]nc(SCc3ccccc3)s2)cc1 (optimized conformer: 73.66612344554751 kcal/mol)

>  <smiles>  (21) 
Cc1ccc(S(=O)(=O)N=c2[nH]nc(SCc3ccccc3)s2)cc1

>  <score_type>  (21) 
oracle

>  <origin>  (21) 
adgpu

>  <m_score__min__energy>  (21) 
-10.619999999999999

>  <m_primary>  (21) 
energy

$$$$
21:0
     RDKit          3D

 63 65  0  0  0  0  0  0  0  0999 V2000
   -1.3350   21.5140  -26.8980 C   0  0  0  0  0  0  0  0  0  0  0  0
   -1.9200   22.5220  -27.8520 C   0  0  0  0  0  0  0  0  0  0  0  0
   -3.0580   22.1460  -28.5830 C   0  0  0  0  0  0  0  0  0  0  0  0
   -3.6820   23.0410  -29.4460 C   0  0  0  0  0  0  0  0  0  0  0  0
   -3.1910   24.3430  -29.5890 C   0  0  0  0  0  0  0  0  0  0  0  0
   -3.8510   25.2860  -30.4460 N   0  0  0  0  0  0  0  0  0  0  0  0
   -5.1200   25.0590  -31.0560 C   0  0  0  0  0  0  0  0  0  0  0  0
   -6.0690   25.8500  -30.8210 O   0  0  0  0  0  0  0  0  0  0  0  0
   -5.2950   23.9580  -31.9570 N   0  0  0  0  0  0  0  0  0  0  0  0
   -6.4010   23.0460  -31.9570 C   0  0  0  0  0  0  0  0  0  0  0  0
   -7.6410   23.4970  -31.4950 C   0  0  0  0  0  0  0  0  0  0  0  0
   -8.7510   22.6540  -31.5250 C   0  0  0  0  0  0  0  0  0  0  0  0
   -8.6070   21.3570  -32.0140 C   0  0  0  0  0  0  0  0  0  0  0  0
   -7.3870   20.9110  -32.4140 N   0  0  0  0  0  0  0  0  0  0  0  0
   -6.2810   21.7020  -32.3690 C   0  0  0  0  0  0  0  0  0  0  0  0
   -5.0410   21.1560  -32.7330 O   0  0  0  0  0  0  0  0  0  0  0  0
   -3.8150   20.6160  -33.0930 C   0  0  0  0  0  0  0  0  0  0  0  0
   -2.7300   21.5020  -33.0900 C   0  0  0  0  0  0  0  0  0  0  0  0
   -1.4380   21.0470  -33.3200 C   0  0  0  0  0  0  0  0  0  0  0  0
   -1.2130   19.7010  -33.5730 C   0  0  0  0  0  0  0  0  0  0  0  0
   -2.2840   18.8090  -33.6350 C   0  0  0  0  0  0  0  0  0  0  0  0
   -3.6230   19.2380  -33.4260 C   0  0  0  0  0  0  0  0  0  0  0  0
   -4.8130   18.2720  -33.6780 C   0  0  0  0  0  0  0  0  0  0  0  0
   -5.5050   17.8940  -32.3570 C   0  0  0  0  0  0  0  0  0  0  0  0
   -5.8290   18.9480  -34.6220 C   0  0  0  0  0  0  0  0  0  0  0  0
   -4.3870   16.9410  -34.3490 C   0  0  0  0  0  0  0  0  0  0  0  0
   -2.0700   24.7450  -28.8540 C   0  0  0  0  0  0  0  0  0  0  0  0
   -1.6110   26.0520  -28.9990 O   0  0  0  0  0  0  0  0  0  0  0  0
   -1.4030   23.8410  -27.9950 C   0  0  0  0  0  0  0  0  0  0  0  0
    0.0820   24.3860  -27.1630 S   0  0  0  0  0  0  0  0  0  0  0  0
    1.1310   24.8090  -28.1500 O   0  0  0  0  0  0  0  0  0  0  0  0
    0.6570   23.2450  -26.3680 O   0  0  0  0  0  0  0  0  0  0  0  0
   -0.2550   25.7460  -26.0350 C   0  0  0  0  0  0  0  0  0  0  0  0
    0.0290   27.0940  -26.6950 C   0  0  0  0  0  0  0  0  0  0  0  0
   -1.6960   25.6940  -25.5220 C   0  0  0  0  0  0  0  0  0  0  0  0
   -1.5223   21.8368  -25.8632 H   0  0  0  0  0  0  0  0  0  0  0  0
   -1.8045   20.5337  -27.0670 H   0  0  0  0  0  0  0  0  0  0  0  0
   -0.2509   21.4353  -27.0670 H   0  0  0  0  0  0  0  0  0  0  0  0
   -3.4621   21.1290  -28.4718 H   0  0  0  0  0  0  0  0  0  0  0  0
   -4.5658   22.7233  -30.0187 H   0  0  0  0  0  0  0  0  0  0  0  0
   -7.7413   24.5211  -31.1063 H   0  0  0  0  0  0  0  0  0  0  0  0
   -9.7288   23.0084  -31.1669 H   0  0  0  0  0  0  0  0  0  0  0  0
   -9.4820   20.6932  -32.0763 H   0  0  0  0  0  0  0  0  0  0  0  0
   -2.9035   22.5720  -32.9031 H   0  0  0  0  0  0  0  0  0  0  0  0
   -0.5942   21.7525  -33.3017 H   0  0  0  0  0  0  0  0  0  0  0  0
   -0.1865   19.3362  -33.7252 H   0  0  0  0  0  0  0  0  0  0  0  0
   -2.0875   17.7484  -33.8508 H   0  0  0  0  0  0  0  0  0  0  0  0
   -4.8884   18.2308  -31.5106 H   0  0  0  0  0  0  0  0  0  0  0  0
   -6.4912   18.3787  -32.3079 H   0  0  0  0  0  0  0  0  0  0  0  0
   -5.6301   16.8022  -32.3079 H   0  0  0  0  0  0  0  0  0  0  0  0
   -6.5988   19.4602  -34.0260 H   0  0  0  0  0  0  0  0  0  0  0  0
   -5.3088   19.6807  -35.2565 H   0  0  0  0  0  0  0  0  0  0  0  0
   -6.3038   18.1851  -35.2565 H   0  0  0  0  0  0  0  0  0  0  0  0
   -4.1494   16.1987  -33.5728 H   0  0  0  0  0  0  0  0  0  0  0  0
   -5.2101   16.5662  -34.9752 H   0  0  0  0  0  0  0  0  0  0  0  0
   -3.4993   17.1137  -34.9752 H   0  0  0  0  0  0  0  0  0  0  0  0
    0.4208   25.6361  -25.1740 H   0  0  0  0  0  0  0  0  0  0  0  0
    0.1895   27.8560  -25.9181 H   0  0  0  0  0  0  0  0  0  0  0  0
    0.9298   27.0132  -27.3211 H   0  0  0  0  0  0  0  0  0  0  0  0
   -0.8279   27.3835  -27.3211 H   0  0  0  0  0  0  0  0  0  0  0  0
   -1.6938   25.6941  -24.4220 H   0  0  0  0  0  0  0  0  0  0  0  0
   -2.2473   26.5728  -25.8876 H   0  0  0  0  0  0  0  0  0  0  0  0
   -2.1825   24.7777  -25.8876 H   0  0  0  0  0  0  0  0  0  0  0  0
  1  2  1  0
  2  3  2  0
  3  4  1  0
  4  5  2  0
  5  6  1  0
  6  7  1  0
  7  8  2  0
  7  9  1  0
  9 10  1  0
 10 11  2  0
 11 12  1  0
 12 13  2  0
 13 14  1  0
 14 15  2  0
 15 16  1  0
 16 17  1  0
 17 18  2  0
 18 19  1  0
 19 20  2  0
 20 21  1  0
 21 22  2  0
 22 23  1  0
 23 24  1  0
 23 25  1  0
 23 26  1  0
  5 27  1  0
 27 28  1  0
 27 29  2  0
 29 30  1  0
 30 31  2  0
 30 32  2  0
 30 33  1  0
 33 34  1  0
 33 35  1  0
 29  2  1  0
 15 10  1  0
 22 17  1  0
  1 36  1  0
  1 37  1  0
  1 38  1  0
  3 39  1  0
  4 40  1  0
 11 41  1  0
 12 42  1  0
 13 43  1  0
 18 44  1  0
 19 45  1  0
 20 46  1  0
 21 47  1  0
 24 48  1  0
 24 49  1  0
 24 50  1  0
 25 51  1  0
 25 52  1  0
 25 53  1  0
 26 54  1  0
 26 55  1  0
 26 56  1  0
 33 57  1  0
 34 58  1  0
 34 59  1  0
 34 60  1  0
 35 61  1  0
 35 62  1  0
 35 63  1  0
M  CHG  3   6  -1   9  -1  28  -1
M  END
>  <UniqueID>  (22) 
22

>  <SMILES>  (22) 
Cc1ccc([N-]C(=O)[N-]c2cccnc2Oc2ccccc2C(C)(C)C)c([O-])c1S(=O)(=O)C(C)C

>  <Energy>  (22) 
138.6401139072567

>  <Genealogy>  (22) 
Cc1ccc([N-]C(=O)[N-]c2cccnc2Oc2ccccc2C(C)(C)C)c([O-])c1S(=O)(=O)C(C)C (protonated)
Cc1ccc([N-]C(=O)[N-]c2cccnc2Oc2ccccc2C(C)(C)C)c([O-])c1S(=O)(=O)C(C)C (3D coordinates assigned)
Cc1ccc([N-]C(=O)[N-]c2cccnc2Oc2ccccc2C(C)(C)C)c([O-])c1S(=O)(=O)C(C)C (optimized conformer: 138.6401139072567 kcal/mol)

>  <smiles>  (22) 
Cc1ccc(NC(=O)Nc2cccnc2Oc2ccccc2C(C)(C)C)c(O)c1S(=O)(=O)C(C)C

>  <score_type>  (22) 
oracle

>  <origin>  (22) 
adgpu

>  <m_score__min__energy>  (22) 
-16.399999999999999

>  <m_primary>  (22) 
energy

$$$$
22:0
     RDKit          3D

 40 41  0  0  0  0  0  0  0  0999 V2000
   -2.6860   19.7700  -27.1240 C   0  0  0  0  0  0  0  0  0  0  0  0
   -1.5970   20.6860  -26.5780 C   0  0  0  0  0  0  0  0  0  0  0  0
   -1.6150   22.0200  -27.2840 C   0  0  0  0  0  0  0  0  0  0  0  0
   -2.4560   22.2000  -28.3930 C   0  0  0  0  0  0  0  0  0  0  0  0
   -2.4860   23.4190  -29.0840 C   0  0  0  0  0  0  0  0  0  0  0  0
   -3.5960   23.6120  -30.4520 S   0  0  0  0  0  0  0  0  0  0  0  0
   -3.8690   25.0710  -30.6870 O   0  0  0  0  0  0  0  0  0  0  0  0
   -2.9430   23.0630  -31.6900 O   0  0  0  0  0  0  0  0  0  0  0  0
   -5.1110   22.7770  -30.1830 N   0  0  0  0  0  0  0  0  0  0  0  0
   -5.2820   21.6320  -31.1090 C   0  0  0  0  0  0  0  0  0  0  0  0
   -6.2400   21.9390  -32.2680 C   0  0  0  0  0  0  0  0  0  0  0  0
   -7.6330   22.3330  -31.7460 C   0  0  0  0  0  0  0  0  0  0  0  0
   -7.5800   23.0310  -30.3750 C   0  0  0  0  0  0  0  0  0  0  0  0
   -6.2370   23.7380  -30.1700 C   0  0  0  0  0  0  0  0  0  0  0  0
   -1.6340   24.4600  -28.6750 C   0  0  0  0  0  0  0  0  0  0  0  0
   -1.6170   25.6770  -29.3470 O   0  0  0  0  0  0  0  0  0  0  0  0
   -0.7810   24.2820  -27.5820 C   0  0  0  0  0  0  0  0  0  0  0  0
   -0.7590   23.0630  -26.8790 C   0  0  0  0  0  0  0  0  0  0  0  0
    0.0970   22.8560  -25.7840 O   0  0  0  0  0  0  0  0  0  0  0  0
   -0.1140   23.3860  -24.4800 C   0  0  0  0  0  0  0  0  0  0  0  0
   -3.2323   19.3105  -26.2871 H   0  0  0  0  0  0  0  0  0  0  0  0
   -3.3840   20.3565  -27.7395 H   0  0  0  0  0  0  0  0  0  0  0  0
   -2.2277   18.9819  -27.7395 H   0  0  0  0  0  0  0  0  0  0  0  0
   -1.7650   20.8448  -25.5026 H   0  0  0  0  0  0  0  0  0  0  0  0
   -0.6193   20.2109  -26.7467 H   0  0  0  0  0  0  0  0  0  0  0  0
   -3.1007   21.3727  -28.7246 H   0  0  0  0  0  0  0  0  0  0  0  0
   -4.2990   21.3685  -31.5266 H   0  0  0  0  0  0  0  0  0  0  0  0
   -5.7173   20.8029  -30.5318 H   0  0  0  0  0  0  0  0  0  0  0  0
   -5.8308   22.7695  -32.8619 H   0  0  0  0  0  0  0  0  0  0  0  0
   -6.3415   21.0348  -32.8862 H   0  0  0  0  0  0  0  0  0  0  0  0
   -8.0997   23.0164  -32.4707 H   0  0  0  0  0  0  0  0  0  0  0  0
   -8.2154   21.4078  -31.6247 H   0  0  0  0  0  0  0  0  0  0  0  0
   -8.3897   23.7734  -30.3179 H   0  0  0  0  0  0  0  0  0  0  0  0
   -7.6986   22.2699  -29.5897 H   0  0  0  0  0  0  0  0  0  0  0  0
   -6.0914   24.4702  -30.9779 H   0  0  0  0  0  0  0  0  0  0  0  0
   -6.2549   24.2358  -29.1892 H   0  0  0  0  0  0  0  0  0  0  0  0
   -0.1200   25.1033  -27.2681 H   0  0  0  0  0  0  0  0  0  0  0  0
    0.1831   22.6398  -23.7284 H   0  0  0  0  0  0  0  0  0  0  0  0
    0.4904   24.2961  -24.3519 H   0  0  0  0  0  0  0  0  0  0  0  0
   -1.1785   23.6317  -24.3519 H   0  0  0  0  0  0  0  0  0  0  0  0
  1  2  1  0
  2  3  1  0
  3  4  2  0
  4  5  1  0
  5  6  1  0
  6  7  2  0
  6  8  2  0
  6  9  1  0
  9 10  1  0
 10 11  1  0
 11 12  1  0
 12 13  1  0
 13 14  1  0
  5 15  2  0
 15 16  1  0
 15 17  1  0
 17 18  2  0
 18 19  1  0
 19 20  1  0
 18  3  1  0
 14  9  1  0
  1 21  1  0
  1 22  1  0
  1 23  1  0
  2 24  1  0
  2 25  1  0
  4 26  1  0
 10 27  1  0
 10 28  1  0
 11 29  1  0
 11 30  1  0
 12 31  1  0
 12 32  1  0
 13 33  1  0
 13 34  1  0
 14 35  1  0
 14 36  1  0
 17 37  1  0
 20 38  1  0
 20 39  1  0
 20 40  1  0
M  CHG  1  16  -1
M  END
>  <UniqueID>  (23) 
23

>  <SMILES>  (23) 
CCc1cc(S(=O)(=O)N2CCCCC2)c([O-])cc1OC

>  <Energy>  (23) 
41.29582645165533

>  <Genealogy>  (23) 
CCc1cc(S(=O)(=O)N2CCCCC2)c([O-])cc1OC (protonated)
CCc1cc(S(=O)(=O)N2CCCCC2)c([O-])cc1OC (3D coordinates assigned)
CCc1cc(S(=O)(=O)N2CCCCC2)c([O-])cc1OC (nonaromatic ring conformer: 41.29582645165533 kcal/mol)

>  <smiles>  (23) 
CCc1cc(S(=O)(=O)N2CCCCC2)c(O)cc1OC

>  <score_type>  (23) 
oracle

>  <origin>  (23) 
adgpu

>  <m_score__min__energy>  (23) 
-10.470000000000001

>  <m_primary>  (23) 
energy

$$$$
23:0
     RDKit          3D

 33 35  0  0  0  0  0  0  0  0999 V2000
   -7.5250   23.4210  -32.2860 C   0  0  0  0  0  0  0  0  0  0  0  0
   -6.2320   23.1750  -31.5670 C   0  0  0  0  0  0  0  0  0  0  0  0
   -5.8280   21.8660  -31.2650 C   0  0  0  0  0  0  0  0  0  0  0  0
   -4.6420   21.6350  -30.5640 C   0  0  0  0  0  0  0  0  0  0  0  0
   -3.8460   22.7150  -30.1390 C   0  0  0  0  0  0  0  0  0  0  0  0
   -2.6440   22.5220  -29.4300 C   0  0  0  0  0  0  0  0  0  0  0  0
   -2.2410   21.3540  -29.1760 O   0  0  0  0  0  0  0  0  0  0  0  0
   -1.8910   23.6360  -29.0110 C   0  0  0  0  0  0  0  0  0  0  0  0
   -0.3680   23.4230  -28.1290 S   0  0  0  0  0  0  0  0  0  0  0  0
    0.7490   24.1470  -28.8280 O   0  0  0  0  0  0  0  0  0  0  0  0
    0.0010   21.9660  -28.0700 O   0  0  0  0  0  0  0  0  0  0  0  0
   -0.5590   24.0600  -26.5000 C   0  0  0  0  0  0  0  0  0  0  0  0
   -0.8920   25.4080  -26.3020 C   0  0  0  0  0  0  0  0  0  0  0  0
   -1.0240   25.9160  -25.0060 C   0  0  0  0  0  0  0  0  0  0  0  0
   -0.8180   25.0810  -23.9030 C   0  0  0  0  0  0  0  0  0  0  0  0
   -0.4780   23.7390  -24.0960 C   0  0  0  0  0  0  0  0  0  0  0  0
   -0.3470   23.2290  -25.3910 C   0  0  0  0  0  0  0  0  0  0  0  0
   -2.3440   24.9250  -29.3440 C   0  0  0  0  0  0  0  0  0  0  0  0
   -1.6120   26.0510  -28.9870 O   0  0  0  0  0  0  0  0  0  0  0  0
   -3.5040   25.0860  -30.0300 N   0  0  0  0  0  0  0  0  0  0  0  0
   -4.2620   24.0320  -30.4290 C   0  0  0  0  0  0  0  0  0  0  0  0
   -5.4510   24.2570  -31.1330 C   0  0  0  0  0  0  0  0  0  0  0  0
   -8.3295   23.5741  -31.5516 H   0  0  0  0  0  0  0  0  0  0  0  0
   -7.4290   24.3170  -32.9169 H   0  0  0  0  0  0  0  0  0  0  0  0
   -7.7648   22.5524  -32.9169 H   0  0  0  0  0  0  0  0  0  0  0  0
   -6.4494   21.0156  -31.5824 H   0  0  0  0  0  0  0  0  0  0  0  0
   -4.3287   20.6040  -30.3431 H   0  0  0  0  0  0  0  0  0  0  0  0
   -1.0497   26.0672  -27.1684 H   0  0  0  0  0  0  0  0  0  0  0  0
   -1.2899   26.9725  -24.8539 H   0  0  0  0  0  0  0  0  0  0  0  0
   -0.9236   25.4804  -22.8835 H   0  0  0  0  0  0  0  0  0  0  0  0
   -0.3134   23.0836  -23.2281 H   0  0  0  0  0  0  0  0  0  0  0  0
   -0.0769   22.1732  -25.5402 H   0  0  0  0  0  0  0  0  0  0  0  0
   -5.7744   25.2864  -31.3469 H   0  0  0  0  0  0  0  0  0  0  0  0
  1  2  1  0
  2  3  2  0
  3  4  1  0
  4  5  2  0
  5  6  1  0
  6  7  2  0
  6  8  1  0
  8  9  1  0
  9 10  2  0
  9 11  2  0
  9 12  1  0
 12 13  2  0
 13 14  1  0
 14 15  2  0
 15 16  1  0
 16 17  2  0
  8 18  2  0
 18 19  1  0
 18 20  1  0
 20 21  1  0
 21 22  2  0
 22  2  1  0
 21  5  1  0
 17 12  1  0
  1 23  1  0
  1 24  1  0
  1 25  1  0
  3 26  1  0
  4 27  1  0
 13 28  1  0
 14 29  1  0
 15 30  1  0
 16 31  1  0
 17 32  1  0
 22 33  1  0
M  CHG  2  19  -1  20  -1
M  END
>  <UniqueID>  (24) 
24

>  <SMILES>  (24) 
Cc1ccc2c(=O)c(S(=O)(=O)c3ccccc3)c([O-])[n-]c2c1

>  <Energy>  (24) 
43.99493936106133

>  <Genealogy>  (24) 
Cc1ccc2c(=O)c(S(=O)(=O)c3ccccc3)c([O-])[n-]c2c1 (protonated)
Cc1ccc2c(=O)c(S(=O)(=O)c3ccccc3)c([O-])[n-]c2c1 (3D coordinates assigned)
Cc1ccc2c(=O)c(S(=O)(=O)c3ccccc3)c([O-])[n-]c2c1 (optimized conformer: 43.99493936106133 kcal/mol)

>  <smiles>  (24) 
Cc1ccc2c(=O)c(S(=O)(=O)c3ccccc3)c(O)[nH]c2c1

>  <score_type>  (24) 
oracle

>  <origin>  (24) 
adgpu

>  <m_score__min__energy>  (24) 
-12.43

>  <m_primary>  (24) 
energy

$$$$
24:0
     RDKit          3D

 30 31  0  0  0  0  0  0  0  0999 V2000
   -5.1786   20.3838  -33.3743 H   0  0  0  0  0  0  0  0  0  0  0  0
   -5.8350   21.0290  -32.7720 C   0  0  0  0  0  0  0  0  0  0  0  0
   -7.2130   20.7960  -32.7520 C   0  0  0  0  0  0  0  0  0  0  0  0
   -7.6370   19.9636  -33.3328 H   0  0  0  0  0  0  0  0  0  0  0  0
   -8.0570   21.6210  -31.9930 C   0  0  0  0  0  0  0  0  0  0  0  0
   -9.5300   21.3450  -31.9340 C   0  0  0  0  0  0  0  0  0  0  0  0
   -9.8500   21.2850  -30.8833 H   0  0  0  0  0  0  0  0  0  0  0  0
  -10.0756   22.1565  -32.4377 H   0  0  0  0  0  0  0  0  0  0  0  0
   -9.7448   20.3910  -32.4377 H   0  0  0  0  0  0  0  0  0  0  0  0
   -7.5030   22.6640  -31.2330 C   0  0  0  0  0  0  0  0  0  0  0  0
   -8.1562   23.2968  -30.6142 H   0  0  0  0  0  0  0  0  0  0  0  0
   -6.1210   22.9030  -31.2590 C   0  0  0  0  0  0  0  0  0  0  0  0
   -5.4320   24.2080  -30.3000 S   0  0  0  0  0  0  0  0  0  0  0  0
   -4.4650   24.9930  -31.1410 O   0  0  0  0  0  0  0  0  0  0  0  0
   -6.5330   25.1170  -29.8310 O   0  0  0  0  0  0  0  0  0  0  0  0
   -4.6090   23.5240  -28.9370 N   0  0  0  0  0  0  0  0  0  0  0  0
   -3.4970   23.9840  -28.4490 C   0  0  0  0  0  0  0  0  0  0  0  0
   -2.8370   23.4480  -27.3610 C   0  0  0  0  0  0  0  0  0  0  0  0
   -3.1250   22.5740  -26.7584 H   0  0  0  0  0  0  0  0  0  0  0  0
   -1.7300   24.2630  -27.2030 C   0  0  0  0  0  0  0  0  0  0  0  0
   -0.9620   24.1565  -26.4227 H   0  0  0  0  0  0  0  0  0  0  0  0
   -1.7480   25.2100  -28.1640 N   0  0  0  0  0  0  0  0  0  0  0  0
   -0.8000   26.3090  -28.3000 C   0  0  0  0  0  0  0  0  0  0  0  0
   -0.4984   26.6587  -27.3016 H   0  0  0  0  0  0  0  0  0  0  0  0
    0.0869   25.9622  -28.8505 H   0  0  0  0  0  0  0  0  0  0  0  0
   -1.2732   27.1354  -28.8505 H   0  0  0  0  0  0  0  0  0  0  0  0
   -2.8250   25.0550  -28.9170 N   0  0  0  0  0  0  0  0  0  0  0  0
   -3.0840   25.6760  -29.7160 H   0  0  0  0  0  0  0  0  0  0  0  0
   -5.2890   22.0780  -32.0300 C   0  0  0  0  0  0  0  0  0  0  0  0
   -4.2040   22.2579  -32.0501 H   0  0  0  0  0  0  0  0  0  0  0  0
  1  2  1  0
  2  3  2  0
  3  4  1  0
  3  5  1  0
  5  6  1  0
  6  7  1  0
  6  8  1  0
  6  9  1  0
  5 10  2  0
 10 11  1  0
 10 12  1  0
 12 13  1  0
 13 14  2  0
 13 15  2  0
 13 16  1  0
 16 17  2  0
 17 18  1  0
 18 19  1  0
 18 20  2  0
 20 21  1  0
 20 22  1  0
 22 23  1  0
 23 24  1  0
 23 25  1  0
 23 26  1  0
 22 27  1  0
 27 28  1  0
 12 29  2  0
 29 30  1  0
 29  2  1  0
 27 17  1  0
M  END
>  <UniqueID>  (25) 
25

>  <SMILES>  (25) 
Cc1cccc(S(=O)(=O)/N=c2/ccn(C)[nH]2)c1

>  <Energy>  (25) 
63.57843368506659

>  <Genealogy>  (25) 
Cc1cccc(S(=O)(=O)/N=c2/ccn(C)[nH]2)c1 (cis-trans isomerization)
Cc1cccc(S(=O)(=O)/N=c2/ccn(C)[nH]2)c1 (3D coordinates assigned)
Cc1cccc(S(=O)(=O)/N=c2/ccn(C)[nH]2)c1 (optimized conformer: 63.57843368506659 kcal/mol)

>  <smiles>  (25) 
Cc1cccc(S(=O)(=O)N=c2ccn(C)[nH]2)c1

>  <score_type>  (25) 
oracle

>  <origin>  (25) 
adgpu

>  <m_score__min__energy>  (25) 
-7.5499999999999998

>  <m_primary>  (25) 
energy

$$$$
25:0
     RDKit          3D

 45 48  0  0  0  0  0  0  0  0999 V2000
   -0.1230   18.9770  -28.8160 C   0  0  0  0  0  0  0  0  0  0  0  0
   -0.7070   20.3560  -28.9160 C   0  0  0  0  0  0  0  0  0  0  0  0
   -1.4600   20.8730  -27.8500 C   0  0  0  0  0  0  0  0  0  0  0  0
   -1.9880   22.1650  -27.9230 C   0  0  0  0  0  0  0  0  0  0  0  0
   -1.7730   22.9530  -29.0610 C   0  0  0  0  0  0  0  0  0  0  0  0
   -2.4230   24.5880  -29.1230 S   0  0  0  0  0  0  0  0  0  0  0  0
   -3.1530   24.9260  -27.8530 O   0  0  0  0  0  0  0  0  0  0  0  0
   -1.2910   25.5580  -29.3060 O   0  0  0  0  0  0  0  0  0  0  0  0
   -3.5190   24.7320  -30.4610 N   0  0  0  0  0  0  0  0  0  0  0  0
   -4.5970   23.8300  -30.7430 C   0  0  0  0  0  0  0  0  0  0  0  0
   -4.4620   22.4220  -30.5920 C   0  0  0  0  0  0  0  0  0  0  0  0
   -5.5390   21.5640  -30.8790 C   0  0  0  0  0  0  0  0  0  0  0  0
   -6.7330   22.1420  -31.3060 C   0  0  0  0  0  0  0  0  0  0  0  0
   -6.8700   23.4910  -31.4530 C   0  0  0  0  0  0  0  0  0  0  0  0
   -5.8230   24.3690  -31.1830 C   0  0  0  0  0  0  0  0  0  0  0  0
   -8.1170   23.8000  -31.8530 N   0  0  0  0  0  0  0  0  0  0  0  0
   -8.7190   22.5840  -31.9450 C   0  0  0  0  0  0  0  0  0  0  0  0
   -7.8970   21.5550  -31.6290 N   0  0  0  0  0  0  0  0  0  0  0  0
   -8.2570   20.1380  -31.5600 C   0  0  0  0  0  0  0  0  0  0  0  0
   -7.3900   19.3390  -32.4930 C   0  0  0  0  0  0  0  0  0  0  0  0
   -7.2340   17.9550  -32.3130 C   0  0  0  0  0  0  0  0  0  0  0  0
   -6.4600   17.2090  -33.2080 C   0  0  0  0  0  0  0  0  0  0  0  0
   -5.8420   17.8380  -34.2930 C   0  0  0  0  0  0  0  0  0  0  0  0
   -5.0910   17.1150  -35.1590 F   0  0  0  0  0  0  0  0  0  0  0  0
   -6.0010   19.2150  -34.4840 C   0  0  0  0  0  0  0  0  0  0  0  0
   -6.7770   19.9620  -33.5930 C   0  0  0  0  0  0  0  0  0  0  0  0
   -1.0260   22.4370  -30.1310 C   0  0  0  0  0  0  0  0  0  0  0  0
   -0.4930   21.1470  -30.0570 C   0  0  0  0  0  0  0  0  0  0  0  0
   -0.0073   18.7037  -27.7568 H   0  0  0  0  0  0  0  0  0  0  0  0
   -0.7939   18.2581  -29.3090 H   0  0  0  0  0  0  0  0  0  0  0  0
    0.8602   18.9585  -29.3090 H   0  0  0  0  0  0  0  0  0  0  0  0
   -1.6351   20.2591  -26.9542 H   0  0  0  0  0  0  0  0  0  0  0  0
   -2.5750   22.5649  -27.0831 H   0  0  0  0  0  0  0  0  0  0  0  0
   -3.5063   22.0002  -30.2475 H   0  0  0  0  0  0  0  0  0  0  0  0
   -5.4421   20.4737  -30.7701 H   0  0  0  0  0  0  0  0  0  0  0  0
   -5.9495   25.4543  -31.3098 H   0  0  0  0  0  0  0  0  0  0  0  0
   -9.7685   22.4496  -32.2459 H   0  0  0  0  0  0  0  0  0  0  0  0
   -8.1144   19.7760  -30.5311 H   0  0  0  0  0  0  0  0  0  0  0  0
   -9.3097   20.0190  -31.8559 H   0  0  0  0  0  0  0  0  0  0  0  0
   -7.7230   17.4551  -31.4639 H   0  0  0  0  0  0  0  0  0  0  0  0
   -6.3374   16.1262  -33.0580 H   0  0  0  0  0  0  0  0  0  0  0  0
   -5.5144   19.7107  -35.3370 H   0  0  0  0  0  0  0  0  0  0  0  0
   -6.9083   21.0422  -33.7538 H   0  0  0  0  0  0  0  0  0  0  0  0
   -0.8596   23.0490  -31.0298 H   0  0  0  0  0  0  0  0  0  0  0  0
    0.0968   20.7493  -30.8961 H   0  0  0  0  0  0  0  0  0  0  0  0
  1  2  1  0
  2  3  2  0
  3  4  1  0
  4  5  2  0
  5  6  1  0
  6  7  2  0
  6  8  2  0
  6  9  1  0
  9 10  1  0
 10 11  2  0
 11 12  1  0
 12 13  2  0
 13 14  1  0
 14 15  2  0
 14 16  1  0
 16 17  2  0
 17 18  1  0
 18 19  1  0
 19 20  1  0
 20 21  2  0
 21 22  1  0
 22 23  2  0
 23 24  1  0
 23 25  1  0
 25 26  2  0
  5 27  1  0
 27 28  2  0
 28  2  1  0
 15 10  1  0
 26 20  1  0
 18 13  1  0
  1 29  1  0
  1 30  1  0
  1 31  1  0
  3 32  1  0
  4 33  1  0
 11 34  1  0
 12 35  1  0
 15 36  1  0
 17 37  1  0
 19 38  1  0
 19 39  1  0
 21 40  1  0
 22 41  1  0
 25 42  1  0
 26 43  1  0
 27 44  1  0
 28 45  1  0
M  CHG  1   9  -1
M  END
>  <UniqueID>  (26) 
26

>  <SMILES>  (26) 
Cc1ccc(S(=O)(=O)[N-]c2ccc3c(c2)ncn3Cc2ccc(F)cc2)cc1

>  <Energy>  (26) 
87.61163475280455

>  <Genealogy>  (26) 
Cc1ccc(S(=O)(=O)[N-]c2ccc3c(c2)ncn3Cc2ccc(F)cc2)cc1 (protonated)
Cc1ccc(S(=O)(=O)[N-]c2ccc3c(c2)ncn3Cc2ccc(F)cc2)cc1 (3D coordinates assigned)
Cc1ccc(S(=O)(=O)[N-]c2ccc3c(c2)ncn3Cc2ccc(F)cc2)cc1 (optimized conformer: 87.61163475280455 kcal/mol)

>  <smiles>  (26) 
Cc1ccc(S(=O)(=O)Nc2ccc3c(c2)ncn3Cc2ccc(F)cc2)cc1

>  <score_type>  (26) 
oracle

>  <origin>  (26) 
adgpu

>  <m_score__min__energy>  (26) 
-10.710000000000001

>  <m_primary>  (26) 
energy

$$$$
26:0
     RDKit          3D

 42 43  0  0  0  0  0  0  0  0999 V2000
   -9.0680   19.7040  -32.3820 O   0  0  0  0  0  0  0  0  0  0  0  0
   -7.5750   19.5430  -32.2950 S   0  0  0  0  0  0  0  0  0  0  0  0
   -7.2460   18.3740  -31.4090 O   0  0  0  0  0  0  0  0  0  0  0  0
   -6.8860   19.2790  -33.8730 N   0  0  0  0  0  0  0  0  0  0  0  0
   -5.4200   19.1640  -33.8370 C   0  0  0  0  0  0  0  0  0  0  0  0
   -4.9030   17.7600  -33.4640 C   0  0  0  0  0  0  0  0  0  0  0  0
   -5.6810   16.6280  -34.1470 C   0  0  0  0  0  0  0  0  0  0  0  0
   -6.9260   16.4550  -33.5270 O   0  0  0  0  0  0  0  0  0  0  0  0
   -6.8840   21.0100  -31.6090 C   0  0  0  0  0  0  0  0  0  0  0  0
   -7.7130   21.9450  -30.9760 C   0  0  0  0  0  0  0  0  0  0  0  0
   -7.1680   23.1070  -30.4220 C   0  0  0  0  0  0  0  0  0  0  0  0
   -5.7880   23.3420  -30.4920 C   0  0  0  0  0  0  0  0  0  0  0  0
   -5.0860   24.7990  -29.7970 S   0  0  0  0  0  0  0  0  0  0  0  0
   -4.2780   25.5000  -30.8520 O   0  0  0  0  0  0  0  0  0  0  0  0
   -6.1790   25.7190  -29.3230 O   0  0  0  0  0  0  0  0  0  0  0  0
   -4.0520   24.3620  -28.4600 N   0  0  0  0  0  0  0  0  0  0  0  0
   -2.6390   24.4990  -28.8130 C   0  0  0  0  0  0  0  0  0  0  0  0
   -1.8770   23.5090  -27.9460 C   0  0  0  0  0  0  0  0  0  0  0  0
   -2.9170   22.5090  -27.4630 C   0  0  0  0  0  0  0  0  0  0  0  0
   -4.2280   22.9610  -28.0870 C   0  0  0  0  0  0  0  0  0  0  0  0
   -4.9590   22.4050  -31.1230 C   0  0  0  0  0  0  0  0  0  0  0  0
   -5.5030   21.2420  -31.6760 C   0  0  0  0  0  0  0  0  0  0  0  0
   -7.1790   20.0560  -34.5050 H   0  0  0  0  0  0  0  0  0  0  0  0
   -5.0296   19.4217  -34.8326 H   0  0  0  0  0  0  0  0  0  0  0  0
   -5.0694   19.8482  -33.0503 H   0  0  0  0  0  0  0  0  0  0  0  0
   -3.8463   17.6864  -33.7606 H   0  0  0  0  0  0  0  0  0  0  0  0
   -5.0370   17.6401  -32.3788 H   0  0  0  0  0  0  0  0  0  0  0  0
   -5.8345   16.8802  -35.2066 H   0  0  0  0  0  0  0  0  0  0  0  0
   -5.1050   15.6946  -34.0632 H   0  0  0  0  0  0  0  0  0  0  0  0
   -7.2650   17.3630  -33.3110 H   0  0  0  0  0  0  0  0  0  0  0  0
   -8.7963   21.7643  -30.9147 H   0  0  0  0  0  0  0  0  0  0  0  0
   -7.8244   23.8394  -29.9294 H   0  0  0  0  0  0  0  0  0  0  0  0
   -2.4892   24.2652  -29.8774 H   0  0  0  0  0  0  0  0  0  0  0  0
   -2.2859   25.5272  -28.6453 H   0  0  0  0  0  0  0  0  0  0  0  0
   -1.0993   23.0009  -28.5351 H   0  0  0  0  0  0  0  0  0  0  0  0
   -1.3687   24.0072  -27.1073 H   0  0  0  0  0  0  0  0  0  0  0  0
   -2.6603   21.4935  -27.7989 H   0  0  0  0  0  0  0  0  0  0  0  0
   -2.9752   22.4757  -26.3650 H   0  0  0  0  0  0  0  0  0  0  0  0
   -4.4524   22.3564  -28.9781 H   0  0  0  0  0  0  0  0  0  0  0  0
   -5.0646   22.8402  -27.3831 H   0  0  0  0  0  0  0  0  0  0  0  0
   -3.8756   22.5853  -31.1835 H   0  0  0  0  0  0  0  0  0  0  0  0
   -4.8461   20.5074  -32.1647 H   0  0  0  0  0  0  0  0  0  0  0  0
  1  2  2  0
  2  3  2  0
  2  4  1  0
  4  5  1  0
  5  6  1  0
  6  7  1  0
  7  8  1  0
  2  9  1  0
  9 10  2  0
 10 11  1  0
 11 12  2  0
 12 13  1  0
 13 14  2  0
 13 15  2  0
 13 16  1  0
 16 17  1  0
 17 18  1  0
 18 19  1  0
 19 20  1  0
 12 21  1  0
 21 22  2  0
 22  9  1  0
 20 16  1  0
  4 23  1  0
  5 24  1  0
  5 25  1  0
  6 26  1  0
  6 27  1  0
  7 28  1  0
  7 29  1  0
  8 30  1  0
 10 31  1  0
 11 32  1  0
 17 33  1  0
 17 34  1  0
 18 35  1  0
 18 36  1  0
 19 37  1  0
 19 38  1  0
 20 39  1  0
 20 40  1  0
 21 41  1  0
 22 42  1  0
M  END
>  <UniqueID>  (27) 
27

>  <SMILES>  (27) 
O=S(=O)(NCCCO)c1ccc(S(=O)(=O)N2CCCC2)cc1

>  <Energy>  (27) 
38.791489265746876

>  <Genealogy>  (27) 
O=S(=O)(NCCCO)c1ccc(S(=O)(=O)N2CCCC2)cc1 (3D coordinates assigned)
O=S(=O)(NCCCO)c1ccc(S(=O)(=O)N2CCCC2)cc1 (nonaromatic ring conformer: 38.791489265746876 kcal/mol)

>  <smiles>  (27) 
O=S(=O)(NCCCO)c1ccc(S(=O)(=O)N2CCCC2)cc1

>  <score_type>  (27) 
oracle

>  <origin>  (27) 
adgpu

>  <m_score__min__energy>  (27) 
-9.5899999999999999

>  <m_primary>  (27) 
energy

$$$$
27:0
     RDKit          3D

 44 46  0  0  0  0  0  0  0  0999 V2000
   -0.8600   26.9690  -26.5320 C   0  0  0  0  0  0  0  0  0  0  0  0
   -1.3030   25.6740  -25.9980 N   0  0  0  0  0  0  0  0  0  0  0  0
   -0.8570   25.5250  -24.6060 C   0  0  0  0  0  0  0  0  0  0  0  0
   -0.6460   24.3760  -26.9630 S   0  0  0  0  0  0  0  0  0  0  0  0
    0.3170   24.9450  -27.9680 O   0  0  0  0  0  0  0  0  0  0  0  0
    0.1120   23.4250  -26.0830 O   0  0  0  0  0  0  0  0  0  0  0  0
   -1.9180   23.4920  -27.8080 C   0  0  0  0  0  0  0  0  0  0  0  0
   -1.9930   22.0960  -27.7130 C   0  0  0  0  0  0  0  0  0  0  0  0
   -2.9680   21.3970  -28.4260 C   0  0  0  0  0  0  0  0  0  0  0  0
   -3.8600   22.0850  -29.2530 C   0  0  0  0  0  0  0  0  0  0  0  0
   -3.7880   23.4770  -29.3560 C   0  0  0  0  0  0  0  0  0  0  0  0
   -4.8240   24.3490  -30.4770 S   0  0  0  0  0  0  0  0  0  0  0  0
   -6.1710   24.6150  -29.8660 O   0  0  0  0  0  0  0  0  0  0  0  0
   -4.1700   25.6560  -30.8260 O   0  0  0  0  0  0  0  0  0  0  0  0
   -5.0280   23.4100  -31.9220 N   0  0  0  0  0  0  0  0  0  0  0  0
   -6.0550   22.4240  -32.1300 C   0  0  0  0  0  0  0  0  0  0  0  0
   -7.3940   22.6970  -31.8050 C   0  0  0  0  0  0  0  0  0  0  0  0
   -8.3820   21.7290  -31.9760 C   0  0  0  0  0  0  0  0  0  0  0  0
   -8.0620   20.4700  -32.4930 C   0  0  0  0  0  0  0  0  0  0  0  0
   -9.0630   19.5120  -32.6490 O   0  0  0  0  0  0  0  0  0  0  0  0
   -6.7320   20.1800  -32.8520 C   0  0  0  0  0  0  0  0  0  0  0  0
   -6.3880   18.9240  -33.3870 C   0  0  0  0  0  0  0  0  0  0  0  0
   -5.0650   18.6410  -33.7390 C   0  0  0  0  0  0  0  0  0  0  0  0
   -4.0730   19.6040  -33.5600 C   0  0  0  0  0  0  0  0  0  0  0  0
   -4.3930   20.8590  -33.0320 C   0  0  0  0  0  0  0  0  0  0  0  0
   -5.7190   21.1640  -32.6750 C   0  0  0  0  0  0  0  0  0  0  0  0
   -2.8300   24.1800  -28.6160 C   0  0  0  0  0  0  0  0  0  0  0  0
   -0.6274   27.6489  -25.6991 H   0  0  0  0  0  0  0  0  0  0  0  0
    0.0394   26.8232  -27.1484 H   0  0  0  0  0  0  0  0  0  0  0  0
   -1.6602   27.4046  -27.1484 H   0  0  0  0  0  0  0  0  0  0  0  0
   -1.6776   25.7992  -23.9267 H   0  0  0  0  0  0  0  0  0  0  0  0
   -0.5643   24.4803  -24.4246 H   0  0  0  0  0  0  0  0  0  0  0  0
    0.0049   26.1840  -24.4246 H   0  0  0  0  0  0  0  0  0  0  0  0
   -1.2821   21.5501  -27.0753 H   0  0  0  0  0  0  0  0  0  0  0  0
   -3.0345   20.3026  -28.3369 H   0  0  0  0  0  0  0  0  0  0  0  0
   -4.6196   21.5304  -29.8235 H   0  0  0  0  0  0  0  0  0  0  0  0
   -7.6662   23.6871  -31.4106 H   0  0  0  0  0  0  0  0  0  0  0  0
   -9.4225   21.9575  -31.7019 H   0  0  0  0  0  0  0  0  0  0  0  0
   -9.1750   18.9950  -33.5160 H   0  0  0  0  0  0  0  0  0  0  0  0
   -7.1661   18.1596  -33.5291 H   0  0  0  0  0  0  0  0  0  0  0  0
   -4.8064   17.6572  -34.1577 H   0  0  0  0  0  0  0  0  0  0  0  0
   -3.0329   19.3756  -33.8355 H   0  0  0  0  0  0  0  0  0  0  0  0
   -3.6030   21.6121  -32.8951 H   0  0  0  0  0  0  0  0  0  0  0  0
   -2.7940   25.2781  -28.6699 H   0  0  0  0  0  0  0  0  0  0  0  0
  1  2  1  0
  2  3  1  0
  2  4  1  0
  4  5  2  0
  4  6  2  0
  4  7  1  0
  7  8  2  0
  8  9  1  0
  9 10  2  0
 10 11  1  0
 11 12  1  0
 12 13  2  0
 12 14  2  0
 12 15  1  0
 15 16  1  0
 16 17  2  0
 17 18  1  0
 18 19  2  0
 19 20  1  0
 19 21  1  0
 21 22  2  0
 22 23  1  0
 23 24  2  0
 24 25  1  0
 25 26  2  0
 11 27  2  0
 27  7  1  0
 26 16  1  0
 26 21  1  0
  1 28  1  0
  1 29  1  0
  1 30  1  0
  3 31  1  0
  3 32  1  0
  3 33  1  0
  8 34  1  0
  9 35  1  0
 10 36  1  0
 17 37  1  0
 18 38  1  0
 20 39  1  0
 22 40  1  0
 23 41  1  0
 24 42  1  0
 25 43  1  0
 27 44  1  0
M  CHG  1  15  -1
M  END
>  <UniqueID>  (28) 
28

>  <SMILES>  (28) 
CN(C)S(=O)(=O)c1cccc(S(=O)(=O)[N-]c2ccc(O)c3ccccc23)c1

>  <Energy>  (28) 
49.06933662751646

>  <Genealogy>  (28) 
CN(C)S(=O)(=O)c1cccc(S(=O)(=O)[N-]c2ccc(O)c3ccccc23)c1 (protonated)
CN(C)S(=O)(=O)c1cccc(S(=O)(=O)[N-]c2ccc(O)c3ccccc23)c1 (3D coordinates assigned)
CN(C)S(=O)(=O)c1cccc(S(=O)(=O)[N-]c2ccc(O)c3ccccc23)c1 (optimized conformer: 49.06933662751646 kcal/mol)

>  <smiles>  (28) 
CN(C)S(=O)(=O)c1cccc(S(=O)(=O)Nc2ccc(O)c3ccccc23)c1

>  <score_type>  (28) 
oracle

>  <origin>  (28) 
adgpu

>  <m_score__min__energy>  (28) 
-10.57

>  <m_primary>  (28) 
energy

$$$$
28:0
     RDKit          3D

 53 56  0  0  0  0  0  0  0  0999 V2000
   -3.3500   24.5520  -27.8330 O   0  0  0  0  0  0  0  0  0  0  0  0
   -2.5160   24.5800  -29.0820 S   0  0  0  0  0  0  0  0  0  0  0  0
   -1.5050   25.6860  -28.9620 O   0  0  0  0  0  0  0  0  0  0  0  0
   -3.5140   24.8810  -30.4660 N   0  0  0  0  0  0  0  0  0  0  0  0
   -4.7380   24.1740  -30.6660 C   0  0  0  0  0  0  0  0  0  0  0  0
   -4.7030   22.8960  -31.2340 C   0  0  0  0  0  0  0  0  0  0  0  0
   -5.8860   22.1630  -31.4010 C   0  0  0  0  0  0  0  0  0  0  0  0
   -7.1140   22.7130  -30.9990 C   0  0  0  0  0  0  0  0  0  0  0  0
   -7.1470   23.9930  -30.4280 C   0  0  0  0  0  0  0  0  0  0  0  0
   -5.9670   24.7310  -30.2730 C   0  0  0  0  0  0  0  0  0  0  0  0
   -6.0110   26.0130  -29.7310 O   0  0  0  0  0  0  0  0  0  0  0  0
   -8.3690   21.8800  -31.0840 C   0  0  0  0  0  0  0  0  0  0  0  0
   -8.4080   20.9210  -32.3010 C   0  0  0  0  0  0  0  0  0  0  0  0
   -7.0400   20.6400  -32.9680 C   0  0  0  0  0  0  0  0  0  0  0  0
   -5.8660   20.7850  -31.9970 C   0  0  0  0  0  0  0  0  0  0  0  0
   -1.6850   23.0400  -29.2910 C   0  0  0  0  0  0  0  0  0  0  0  0
   -0.9760   22.4610  -28.2300 C   0  0  0  0  0  0  0  0  0  0  0  0
   -0.2750   21.2680  -28.4240 C   0  0  0  0  0  0  0  0  0  0  0  0
   -0.2690   20.6530  -29.6780 C   0  0  0  0  0  0  0  0  0  0  0  0
   -0.9710   21.2270  -30.7470 C   0  0  0  0  0  0  0  0  0  0  0  0
   -0.9250   20.4870  -32.3450 S   0  0  0  0  0  0  0  0  0  0  0  0
    0.3860   19.7710  -32.5110 O   0  0  0  0  0  0  0  0  0  0  0  0
   -1.0210   21.5570  -33.3990 O   0  0  0  0  0  0  0  0  0  0  0  0
   -2.2390   19.3480  -32.5220 N   0  0  0  0  0  0  0  0  0  0  0  0
   -3.2220   19.8570  -33.5000 C   0  0  0  0  0  0  0  0  0  0  0  0
   -4.0530   18.7070  -34.0910 C   0  0  0  0  0  0  0  0  0  0  0  0
   -3.2820   17.7280  -34.7770 O   0  0  0  0  0  0  0  0  0  0  0  0
   -1.9250   17.6720  -34.3590 C   0  0  0  0  0  0  0  0  0  0  0  0
   -1.7300   18.0010  -32.8670 C   0  0  0  0  0  0  0  0  0  0  0  0
   -1.6820   22.4170  -30.5470 C   0  0  0  0  0  0  0  0  0  0  0  0
   -3.7423   22.4642  -31.5511 H   0  0  0  0  0  0  0  0  0  0  0  0
   -8.1059   24.4203  -30.0996 H   0  0  0  0  0  0  0  0  0  0  0  0
   -5.3640   26.3080  -29.0090 H   0  0  0  0  0  0  0  0  0  0  0  0
   -8.4474   21.2781  -30.1667 H   0  0  0  0  0  0  0  0  0  0  0  0
   -9.2085   22.5807  -31.2040 H   0  0  0  0  0  0  0  0  0  0  0  0
   -8.8247   19.9606  -31.9632 H   0  0  0  0  0  0  0  0  0  0  0  0
   -9.0200   21.4240  -33.0642 H   0  0  0  0  0  0  0  0  0  0  0  0
   -7.0454   19.6130  -33.3620 H   0  0  0  0  0  0  0  0  0  0  0  0
   -6.9024   21.3830  -33.7674 H   0  0  0  0  0  0  0  0  0  0  0  0
   -5.9562   20.0364  -31.1961 H   0  0  0  0  0  0  0  0  0  0  0  0
   -4.9195   20.6287  -32.5353 H   0  0  0  0  0  0  0  0  0  0  0  0
   -0.9713   22.9464  -27.2429 H   0  0  0  0  0  0  0  0  0  0  0  0
    0.2737   20.8119  -27.5868 H   0  0  0  0  0  0  0  0  0  0  0  0
    0.2878   19.7161  -29.8271 H   0  0  0  0  0  0  0  0  0  0  0  0
   -3.8955   20.5669  -32.9976 H   0  0  0  0  0  0  0  0  0  0  0  0
   -2.6795   20.3549  -34.3172 H   0  0  0  0  0  0  0  0  0  0  0  0
   -4.5900   18.2106  -33.2692 H   0  0  0  0  0  0  0  0  0  0  0  0
   -4.7318   19.1537  -34.8324 H   0  0  0  0  0  0  0  0  0  0  0  0
   -1.5447   16.6567  -34.5447 H   0  0  0  0  0  0  0  0  0  0  0  0
   -1.3768   18.4332  -34.9335 H   0  0  0  0  0  0  0  0  0  0  0  0
   -2.2686   17.2537  -32.2658 H   0  0  0  0  0  0  0  0  0  0  0  0
   -0.6509   17.9822  -32.6544 H   0  0  0  0  0  0  0  0  0  0  0  0
   -2.2417   22.8658  -31.3808 H   0  0  0  0  0  0  0  0  0  0  0  0
  1  2  2  0
  2  3  2  0
  2  4  1  0
  4  5  1  0
  5  6  2  0
  6  7  1  0
  7  8  2  0
  8  9  1  0
  9 10  2  0
 10 11  1  0
  8 12  1  0
 12 13  1  0
 13 14  1  0
 14 15  1  0
  2 16  1  0
 16 17  2  0
 17 18  1  0
 18 19  2  0
 19 20  1  0
 20 21  1  0
 21 22  2  0
 21 23  2  0
 21 24  1  0
 24 25  1  0
 25 26  1  0
 26 27  1  0
 27 28  1  0
 28 29  1  0
 20 30  2  0
 10  5  1  0
 30 16  1  0
 15  7  1  0
 29 24  1  0
  6 31  1  0
  9 32  1  0
 11 33  1  0
 12 34  1  0
 12 35  1  0
 13 36  1  0
 13 37  1  0
 14 38  1  0
 14 39  1  0
 15 40  1  0
 15 41  1  0
 17 42  1  0
 18 43  1  0
 19 44  1  0
 25 45  1  0
 25 46  1  0
 26 47  1  0
 26 48  1  0
 28 49  1  0
 28 50  1  0
 29 51  1  0
 29 52  1  0
 30 53  1  0
M  CHG  1   4  -1
M  END
>  <UniqueID>  (29) 
29

>  <SMILES>  (29) 
O=S(=O)([N-]c1cc2c(cc1O)CCCC2)c1cccc(S(=O)(=O)N2CCOCC2)c1

>  <Energy>  (29) 
75.69232149598959

>  <Genealogy>  (29) 
O=S(=O)([N-]c1cc2c(cc1O)CCCC2)c1cccc(S(=O)(=O)N2CCOCC2)c1 (protonated)
O=S(=O)([N-]c1cc2c(cc1O)CCCC2)c1cccc(S(=O)(=O)N2CCOCC2)c1 (3D coordinates assigned)
O=S(=O)([N-]c1cc2c(cc1O)CCCC2)c1cccc(S(=O)(=O)N2CCOCC2)c1 (nonaromatic ring conformer: 75.69232149598959 kcal/mol)

>  <smiles>  (29) 
O=S(=O)(Nc1cc2c(cc1O)CCCC2)c1cccc(S(=O)(=O)N2CCOCC2)c1

>  <score_type>  (29) 
oracle

>  <origin>  (29) 
adgpu

>  <m_score__min__energy>  (29) 
-13.01

>  <m_primary>  (29) 
energy

$$$$
29:0
     RDKit          3D

 44 47  0  0  0  0  0  0  0  0999 V2000
  -10.0920   21.3510  -31.5190 O   0  0  0  0  0  0  0  0  0  0  0  0
   -8.8690   21.1500  -31.2940 C   0  0  0  0  0  0  0  0  0  0  0  0
   -8.2290   21.8820  -30.2390 N   0  0  0  0  0  0  0  0  0  0  0  0
   -7.1100   22.7680  -30.3960 C   0  0  0  0  0  0  0  0  0  0  0  0
   -7.1390   23.7300  -31.4330 C   0  0  0  0  0  0  0  0  0  0  0  0
   -6.0720   24.6330  -31.6060 C   0  0  0  0  0  0  0  0  0  0  0  0
   -4.9910   24.5320  -30.7350 C   0  0  0  0  0  0  0  0  0  0  0  0
   -3.8820   25.2860  -30.7130 N   0  0  0  0  0  0  0  0  0  0  0  0
   -3.1910   24.7430  -29.6780 C   0  0  0  0  0  0  0  0  0  0  0  0
   -2.0660   25.1760  -29.3180 O   0  0  0  0  0  0  0  0  0  0  0  0
   -3.8000   23.7000  -29.0590 N   0  0  0  0  0  0  0  0  0  0  0  0
   -4.9430   23.5920  -29.7520 C   0  0  0  0  0  0  0  0  0  0  0  0
   -5.9750   22.6790  -29.5530 C   0  0  0  0  0  0  0  0  0  0  0  0
   -8.1350   20.1490  -32.1000 C   0  0  0  0  0  0  0  0  0  0  0  0
   -7.2450   20.5640  -33.1030 C   0  0  0  0  0  0  0  0  0  0  0  0
   -6.4730   19.6260  -33.7910 C   0  0  0  0  0  0  0  0  0  0  0  0
   -6.5870   18.2600  -33.4940 C   0  0  0  0  0  0  0  0  0  0  0  0
   -5.5220   17.0870  -34.2700 S   0  0  0  0  0  0  0  0  0  0  0  0
   -6.1680   15.7290  -34.2290 O   0  0  0  0  0  0  0  0  0  0  0  0
   -5.3320   17.4690  -35.7120 O   0  0  0  0  0  0  0  0  0  0  0  0
   -3.9620   17.0190  -33.4780 N   0  0  0  0  0  0  0  0  0  0  0  0
   -3.0840   15.9960  -34.0980 C   0  0  0  0  0  0  0  0  0  0  0  0
   -2.0120   16.6310  -35.0030 C   0  0  0  0  0  0  0  0  0  0  0  0
   -1.1620   17.5350  -34.3090 O   0  0  0  0  0  0  0  0  0  0  0  0
   -1.8160   18.2570  -33.2720 C   0  0  0  0  0  0  0  0  0  0  0  0
   -3.3420   18.3620  -33.4450 C   0  0  0  0  0  0  0  0  0  0  0  0
   -7.5220   17.8390  -32.5400 C   0  0  0  0  0  0  0  0  0  0  0  0
   -8.2910   18.7760  -31.8460 C   0  0  0  0  0  0  0  0  0  0  0  0
   -8.0039   23.7732  -32.1113 H   0  0  0  0  0  0  0  0  0  0  0  0
   -6.0923   25.3919  -32.4020 H   0  0  0  0  0  0  0  0  0  0  0  0
   -5.9111   21.9129  -28.7662 H   0  0  0  0  0  0  0  0  0  0  0  0
   -7.1554   21.6326  -33.3479 H   0  0  0  0  0  0  0  0  0  0  0  0
   -5.7718   19.9600  -34.5699 H   0  0  0  0  0  0  0  0  0  0  0  0
   -4.1460   16.7270  -32.4890 H   0  0  0  0  0  0  0  0  0  0  0  0
   -2.5842   15.4261  -33.3009 H   0  0  0  0  0  0  0  0  0  0  0  0
   -3.7111   15.3410  -34.7206 H   0  0  0  0  0  0  0  0  0  0  0  0
   -1.3942   15.8277  -35.4309 H   0  0  0  0  0  0  0  0  0  0  0  0
   -2.5368   17.2050  -35.7809 H   0  0  0  0  0  0  0  0  0  0  0  0
   -1.6106   17.7517  -32.3167 H   0  0  0  0  0  0  0  0  0  0  0  0
   -1.4219   19.2835  -33.3031 H   0  0  0  0  0  0  0  0  0  0  0  0
   -3.7618   18.9321  -32.6031 H   0  0  0  0  0  0  0  0  0  0  0  0
   -3.5542   18.8711  -34.3967 H   0  0  0  0  0  0  0  0  0  0  0  0
   -7.6513   16.7658  -32.3364 H   0  0  0  0  0  0  0  0  0  0  0  0
   -9.0221   18.4374  -31.0971 H   0  0  0  0  0  0  0  0  0  0  0  0
  1  2  2  0
  2  3  1  0
  3  4  1  0
  4  5  2  0
  5  6  1  0
  6  7  2  0
  7  8  1  0
  8  9  1  0
  9 10  2  0
  9 11  1  0
 11 12  1  0
 12 13  2  0
  2 14  1  0
 14 15  2  0
 15 16  1  0
 16 17  2  0
 17 18  1  0
 18 19  2  0
 18 20  2  0
 18 21  1  0
 21 22  1  0
 22 23  1  0
 23 24  1  0
 24 25  1  0
 25 26  1  0
 17 27  1  0
 27 28  2  0
 13  4  1  0
 28 14  1  0
 12  7  1  0
 26 21  1  0
  5 29  1  0
  6 30  1  0
 13 31  1  0
 15 32  1  0
 16 33  1  0
 21 34  1  0
 22 35  1  0
 22 36  1  0
 23 37  1  0
 23 38  1  0
 25 39  1  0
 25 40  1  0
 26 41  1  0
 26 42  1  0
 27 43  1  0
 28 44  1  0
M  CHG  4   3  -1   8  -1  11  -1  21   1
M  END
>  <UniqueID>  (30) 
30

>  <SMILES>  (30) 
O=C([N-]c1ccc2[n-]c(=O)[n-]c2c1)c1ccc(S(=O)(=O)[NH+]2CCOCC2)cc1

>  <Energy>  (30) 
99.75498239991713

>  <Genealogy>  (30) 
O=C([N-]c1ccc2[n-]c(=O)[n-]c2c1)c1ccc(S(=O)(=O)[NH+]2CCOCC2)cc1 (protonated)
O=C([N-]c1ccc2[n-]c(=O)[n-]c2c1)c1ccc(S(=O)(=O)[NH+]2CCOCC2)cc1 (3D coordinates assigned)
O=C([N-]c1ccc2[n-]c(=O)[n-]c2c1)c1ccc(S(=O)(=O)[NH+]2CCOCC2)cc1 (nonaromatic ring conformer: 99.75498239991713 kcal/mol)

>  <smiles>  (30) 
O=C(Nc1ccc2[nH]c(=O)[nH]c2c1)c1ccc(S(=O)(=O)N2CCOCC2)cc1

>  <score_type>  (30) 
oracle

>  <origin>  (30) 
adgpu

>  <m_score__min__energy>  (30) 
-11.609999999999999

>  <m_primary>  (30) 
energy

$$$$
30:0
     RDKit          3D

 45 47  0  0  1  0  0  0  0  0999 V2000
   -2.2090   21.6270  -31.8260 C   0  0  0  0  0  0  0  0  0  0  0  0
   -2.6440   22.6390  -30.8410 C   0  0  0  0  0  0  0  0  0  0  0  0
   -1.7660   22.9190  -29.7990 C   0  0  0  0  0  0  0  0  0  0  0  0
   -2.1350   23.8630  -28.8610 C   0  0  0  0  0  0  0  0  0  0  0  0
   -0.9610   24.1580  -27.5680 S   0  0  0  0  0  0  0  0  0  0  0  0
   -0.5980   22.8800  -26.9130 O   0  0  0  0  0  0  0  0  0  0  0  0
    0.3100   24.7530  -28.1170 O   0  0  0  0  0  0  0  0  0  0  0  0
   -1.6160   25.2760  -26.4290 N   0  0  0  0  0  0  0  0  0  0  0  0
   -0.8550   25.6510  -25.4530 C   0  0  0  0  0  0  0  0  0  0  0  0
   -1.3060   26.5540  -24.4830 C   0  0  0  0  0  0  0  0  0  0  0  0
   -0.4930   26.9520  -23.4420 C   0  0  0  0  0  0  0  0  0  0  0  0
    0.7420   26.4550  -23.3750 N   0  0  0  0  0  0  0  0  0  0  0  0
    1.1860   25.5900  -24.2960 C   0  0  0  0  0  0  0  0  0  0  0  0
    0.4050   25.1900  -25.3190 N   0  0  0  0  0  0  0  0  0  0  0  0
   -3.3300   24.5460  -28.8990 C   0  0  0  0  0  0  0  0  0  0  0  0
   -4.1910   24.2500  -29.9480 C   0  0  0  0  0  0  0  0  0  0  0  0
   -3.8520   23.2990  -30.9180 C   0  0  0  0  0  0  0  0  0  0  0  0
   -4.7300   23.0500  -31.9170 O   0  0  0  0  0  0  0  0  0  0  0  0
   -5.7810   22.2100  -32.0330 C   0  0  0  0  0  0  0  0  0  0  0  0
   -5.5580   20.9720  -32.6540 C   0  0  0  0  0  0  0  0  0  0  0  0
   -6.5740   20.0590  -32.8120 C   0  0  0  0  0  0  0  0  0  0  0  0
   -6.3830   18.7370  -33.4620 C   0  0  0  0  0  0  0  0  0  0  0  0
   -7.8670   20.3330  -32.3580 C   0  0  0  0  0  0  0  0  0  0  0  0
   -9.1780   19.1960  -32.5440 Cl  0  0  0  0  0  0  0  0  0  0  0  0
   -8.0940   21.5380  -31.7510 C   0  0  0  0  0  0  0  0  0  0  0  0
   -9.4300   21.8960  -31.2480 C   0  0  0  0  0  0  0  0  0  0  0  0
   -7.0720   22.4470  -31.5960 C   0  0  0  0  0  0  0  0  0  0  0  0
   -1.8281   20.7408  -31.2973 H   0  0  0  0  0  0  0  0  0  0  0  0
   -3.0627   21.3388  -32.4570 H   0  0  0  0  0  0  0  0  0  0  0  0
   -1.4124   22.0481  -32.4570 H   0  0  0  0  0  0  0  0  0  0  0  0
   -0.7991   22.3999  -29.7238 H   0  0  0  0  0  0  0  0  0  0  0  0
   -2.3284   26.9539  -24.5522 H   0  0  0  0  0  0  0  0  0  0  0  0
   -0.8554   27.6629  -22.6849 H   0  0  0  0  0  0  0  0  0  0  0  0
    1.3520   26.7650  -22.5830 H   0  0  0  0  0  0  0  0  0  0  0  0
    2.2104   25.1974  -24.2158 H   0  0  0  0  0  0  0  0  0  0  0  0
   -3.5908   25.2918  -28.1337 H   0  0  0  0  0  0  0  0  0  0  0  0
   -5.1566   24.7722  -30.0179 H   0  0  0  0  0  0  0  0  0  0  0  0
   -4.5507   20.7268  -33.0217 H   0  0  0  0  0  0  0  0  0  0  0  0
   -6.2710   17.9616  -32.6899 H   0  0  0  0  0  0  0  0  0  0  0  0
   -7.2572   18.5068  -34.0887 H   0  0  0  0  0  0  0  0  0  0  0  0
   -5.4794   18.7637  -34.0887 H   0  0  0  0  0  0  0  0  0  0  0  0
   -9.4205   21.8934  -30.1480 H   0  0  0  0  0  0  0  0  0  0  0  0
   -9.7016   22.8986  -31.6100 H   0  0  0  0  0  0  0  0  0  0  0  0
  -10.1665   21.1635  -31.6100 H   0  0  0  0  0  0  0  0  0  0  0  0
   -7.2917   23.4051  -31.1024 H   0  0  0  0  0  0  0  0  0  0  0  0
  1  2  1  0
  2  3  2  0
  3  4  1  0
  4  5  1  0
  5  6  2  0
  5  7  2  0
  5  8  1  0
  8  9  2  0
  9 10  1  0
 10 11  2  0
 11 12  1  0
 12 13  1  0
 13 14  2  0
  4 15  2  0
 15 16  1  0
 16 17  2  0
 17 18  1  0
 18 19  1  0
 19 20  2  0
 20 21  1  0
 21 22  1  0
 21 23  2  0
 23 24  1  0
 23 25  1  0
 25 26  1  0
 25 27  2  0
 17  2  1  0
 27 19  1  0
 14  9  1  0
  1 28  1  0
  1 29  1  0
  1 30  1  0
  3 31  1  0
 10 32  1  0
 11 33  1  0
 12 34  1  0
 13 35  1  0
 15 36  1  0
 16 37  1  0
 20 38  1  0
 22 39  1  0
 22 40  1  0
 22 41  1  0
 26 42  1  0
 26 43  1  0
 26 44  1  0
 27 45  1  0
M  END
>  <smiles>  (31) 
Cc1cc(S(=O)(=O)N=c2cc[nH]cn2)ccc1Oc1cc(C)c(Cl)c(C)c1

>  <score_type>  (31) 
oracle

>  <origin>  (31) 
adgpu

>  <m_score__min__energy>  (31) 
-9.8900000000000006

>  <m_primary>  (31) 
energy

$$$$
31:0
     RDKit          3D

 50 52  0  0  0  0  0  0  0  0999 V2000
   -1.5800   22.8790  -27.6560 O   0  0  0  0  0  0  0  0  0  0  0  0
   -1.4190   23.4750  -29.0270 S   0  0  0  0  0  0  0  0  0  0  0  0
   -0.0310   24.0370  -29.1480 O   0  0  0  0  0  0  0  0  0  0  0  0
   -2.5760   24.7500  -29.2490 N   0  0  0  0  0  0  0  0  0  0  0  0
   -3.8270   24.4070  -28.5780 C   0  0  0  0  0  0  0  0  0  0  0  0
   -4.8280   23.9550  -29.6020 C   0  0  0  0  0  0  0  0  0  0  0  0
   -5.7260   22.9170  -29.2990 C   0  0  0  0  0  0  0  0  0  0  0  0
   -6.6790   22.5100  -30.2360 C   0  0  0  0  0  0  0  0  0  0  0  0
   -6.7520   23.1410  -31.4790 C   0  0  0  0  0  0  0  0  0  0  0  0
   -5.8780   24.1880  -31.7850 C   0  0  0  0  0  0  0  0  0  0  0  0
   -4.9190   24.6040  -30.8510 C   0  0  0  0  0  0  0  0  0  0  0  0
   -4.0590   25.6590  -31.1560 O   0  0  0  0  0  0  0  0  0  0  0  0
   -1.6500   22.2480  -30.2680 C   0  0  0  0  0  0  0  0  0  0  0  0
   -0.9370   21.0420  -30.2280 C   0  0  0  0  0  0  0  0  0  0  0  0
   -1.1480   20.0670  -31.2070 C   0  0  0  0  0  0  0  0  0  0  0  0
   -2.0680   20.2930  -32.2420 C   0  0  0  0  0  0  0  0  0  0  0  0
   -2.3320   19.0860  -33.5010 S   0  0  0  0  0  0  0  0  0  0  0  0
   -1.3120   19.2410  -34.5940 O   0  0  0  0  0  0  0  0  0  0  0  0
   -2.1350   17.7300  -32.8830 O   0  0  0  0  0  0  0  0  0  0  0  0
   -3.9460   19.1480  -34.1740 N   0  0  0  0  0  0  0  0  0  0  0  0
   -5.0650   19.1220  -33.2130 C   0  0  0  0  0  0  0  0  0  0  0  0
   -5.8610   17.8010  -33.1990 C   0  0  0  0  0  0  0  0  0  0  0  0
   -6.8890   17.7840  -32.0520 C   0  0  0  0  0  0  0  0  0  0  0  0
   -7.5760   19.1490  -31.8170 C   0  0  0  0  0  0  0  0  0  0  0  0
   -7.4450   20.0910  -33.0190 C   0  0  0  0  0  0  0  0  0  0  0  0
   -5.9670   20.3760  -33.3410 C   0  0  0  0  0  0  0  0  0  0  0  0
   -2.7960   21.4900  -32.2670 C   0  0  0  0  0  0  0  0  0  0  0  0
   -2.5860   22.4640  -31.2870 C   0  0  0  0  0  0  0  0  0  0  0  0
   -3.6473   23.5966  -27.8562 H   0  0  0  0  0  0  0  0  0  0  0  0
   -4.2147   25.2880  -28.0455 H   0  0  0  0  0  0  0  0  0  0  0  0
   -5.6781   22.4220  -28.3179 H   0  0  0  0  0  0  0  0  0  0  0  0
   -7.3727   21.6913  -29.9940 H   0  0  0  0  0  0  0  0  0  0  0  0
   -7.4980   22.8140  -32.2183 H   0  0  0  0  0  0  0  0  0  0  0  0
   -5.9430   24.6876  -32.7628 H   0  0  0  0  0  0  0  0  0  0  0  0
   -3.0960   25.6700  -30.8400 H   0  0  0  0  0  0  0  0  0  0  0  0
   -0.2088   20.8622  -29.4234 H   0  0  0  0  0  0  0  0  0  0  0  0
   -0.5910   19.1194  -31.1659 H   0  0  0  0  0  0  0  0  0  0  0  0
   -4.5988   19.1630  -32.2175 H   0  0  0  0  0  0  0  0  0  0  0  0
   -6.3901   17.6904  -34.1570 H   0  0  0  0  0  0  0  0  0  0  0  0
   -5.1559   16.9703  -33.0480 H   0  0  0  0  0  0  0  0  0  0  0  0
   -7.6642   17.0409  -32.2906 H   0  0  0  0  0  0  0  0  0  0  0  0
   -6.3411   17.5356  -31.1311 H   0  0  0  0  0  0  0  0  0  0  0  0
   -8.6443   18.9762  -31.6200 H   0  0  0  0  0  0  0  0  0  0  0  0
   -7.0776   19.6294  -30.9621 H   0  0  0  0  0  0  0  0  0  0  0  0
   -7.9200   19.6244  -33.8946 H   0  0  0  0  0  0  0  0  0  0  0  0
   -7.9388   21.0426  -32.7727 H   0  0  0  0  0  0  0  0  0  0  0  0
   -5.8995   20.7522  -34.3725 H   0  0  0  0  0  0  0  0  0  0  0  0
   -5.6081   21.1148  -32.6093 H   0  0  0  0  0  0  0  0  0  0  0  0
   -3.5363   21.6639  -33.0618 H   0  0  0  0  0  0  0  0  0  0  0  0
   -3.1578   23.4033  -31.3162 H   0  0  0  0  0  0  0  0  0  0  0  0
  1  2  2  0
  2  3  2  0
  2  4  1  0
  4  5  1  0
  5  6  1  0
  6  7  2  0
  7  8  1  0
  8  9  2  0
  9 10  1  0
 10 11  2  0
 11 12  1  0
  2 13  1  0
 13 14  2  0
 14 15  1  0
 15 16  2  0
 16 17  1  0
 17 18  2  0
 17 19  2  0
 17 20  1  0
 20 21  1  0
 21 22  1  0
 22 23  1  0
 23 24  1  0
 24 25  1  0
 25 26  1  0
 16 27  1  0
 27 28  2  0
 11  6  1  0
 28 13  1  0
 26 21  1  0
  5 29  1  0
  5 30  1  0
  7 31  1  0
  8 32  1  0
  9 33  1  0
 10 34  1  0
 12 35  1  0
 14 36  1  0
 15 37  1  0
 21 38  1  0
 22 39  1  0
 22 40  1  0
 23 41  1  0
 23 42  1  0
 24 43  1  0
 24 44  1  0
 25 45  1  0
 25 46  1  0
 26 47  1  0
 26 48  1  0
 27 49  1  0
 28 50  1  0
M  CHG  2   4  -1  20  -1
M  END
>  <UniqueID>  (32) 
31

>  <SMILES>  (32) 
O=S(=O)([N-]Cc1ccccc1O)c1ccc(S(=O)(=O)[N-]C2CCCCC2)cc1

>  <Energy>  (32) 
55.61905909564233

>  <Genealogy>  (32) 
O=S(=O)([N-]Cc1ccccc1O)c1ccc(S(=O)(=O)[N-]C2CCCCC2)cc1 (protonated)
O=S(=O)([N-]Cc1ccccc1O)c1ccc(S(=O)(=O)[N-]C2CCCCC2)cc1 (3D coordinates assigned)
O=S(=O)([N-]Cc1ccccc1O)c1ccc(S(=O)(=O)[N-]C2CCCCC2)cc1 (nonaromatic ring conformer: 55.61905909564233 kcal/mol)

>  <smiles>  (32) 
O=S(=O)(NCc1ccccc1O)c1ccc(S(=O)(=O)NC2CCCCC2)cc1

>  <score_type>  (32) 
oracle

>  <origin>  (32) 
adgpu

>  <m_score__min__energy>  (32) 
-11.66

>  <m_primary>  (32) 
energy

$$$$
32:0
     RDKit          3D

 36 38  0  0  0  0  0  0  0  0999 V2000
   -4.3070   21.7550  -31.4730 C   0  0  0  0  0  0  0  0  0  0  0  0
   -4.5630   23.1560  -31.0090 C   0  0  0  0  0  0  0  0  0  0  0  0
   -3.5270   24.0360  -30.8400 N   0  0  0  0  0  0  0  0  0  0  0  0
   -3.8860   25.2630  -30.4710 N   0  0  0  0  0  0  0  0  0  0  0  0
   -5.5390   25.2860  -30.3430 S   0  0  0  0  0  0  0  0  0  0  0  0
   -5.8320   23.6930  -30.7430 C   0  0  0  0  0  0  0  0  0  0  0  0
   -7.1610   23.0630  -30.8400 C   0  0  0  0  0  0  0  0  0  0  0  0
   -7.7670   22.7420  -29.7820 O   0  0  0  0  0  0  0  0  0  0  0  0
   -7.7540   22.7870  -32.1130 N   0  0  0  0  0  0  0  0  0  0  0  0
   -9.1940   22.5750  -32.2550 C   0  0  0  0  0  0  0  0  0  0  0  0
   -9.5720   21.1100  -32.0080 C   0  0  0  0  0  0  0  0  0  0  0  0
   -8.4960   20.1820  -32.5070 C   0  0  0  0  0  0  0  0  0  0  0  0
   -7.4400   20.6350  -33.2340 N   0  0  0  0  0  0  0  0  0  0  0  0
   -6.7170   19.5220  -33.4470 C   0  0  0  0  0  0  0  0  0  0  0  0
   -5.5200   19.4140  -34.1520 C   0  0  0  0  0  0  0  0  0  0  0  0
   -4.9360   18.1390  -34.2600 C   0  0  0  0  0  0  0  0  0  0  0  0
   -5.5580   17.0160  -33.6690 C   0  0  0  0  0  0  0  0  0  0  0  0
   -6.7670   17.1580  -32.9630 C   0  0  0  0  0  0  0  0  0  0  0  0
   -7.3160   18.4400  -32.8690 C   0  0  0  0  0  0  0  0  0  0  0  0
   -8.4420   18.8440  -32.2530 N   0  0  0  0  0  0  0  0  0  0  0  0
   -9.4380   18.0120  -31.5760 C   0  0  0  0  0  0  0  0  0  0  0  0
   -4.1866   21.0960  -30.6005 H   0  0  0  0  0  0  0  0  0  0  0  0
   -5.1567   21.4086  -32.0796 H   0  0  0  0  0  0  0  0  0  0  0  0
   -3.3897   21.7315  -32.0796 H   0  0  0  0  0  0  0  0  0  0  0  0
   -7.1360   22.7410  -32.9530 H   0  0  0  0  0  0  0  0  0  0  0  0
   -9.7223   23.2083  -31.5271 H   0  0  0  0  0  0  0  0  0  0  0  0
   -9.4823   22.8377  -33.2835 H   0  0  0  0  0  0  0  0  0  0  0  0
   -9.7109   20.9517  -30.9283 H   0  0  0  0  0  0  0  0  0  0  0  0
  -10.5023   20.8921  -32.5530 H   0  0  0  0  0  0  0  0  0  0  0  0
   -5.0476   20.2962  -34.6087 H   0  0  0  0  0  0  0  0  0  0  0  0
   -3.9900   18.0153  -34.8075 H   0  0  0  0  0  0  0  0  0  0  0  0
   -5.0935   16.0232  -33.7616 H   0  0  0  0  0  0  0  0  0  0  0  0
   -7.2624   16.2910  -32.5016 H   0  0  0  0  0  0  0  0  0  0  0  0
   -9.3194   18.1111  -30.4869 H   0  0  0  0  0  0  0  0  0  0  0  0
  -10.4474   18.3391  -31.8662 H   0  0  0  0  0  0  0  0  0  0  0  0
   -9.2958   16.9605  -31.8662 H   0  0  0  0  0  0  0  0  0  0  0  0
  1  2  1  0
  2  3  1  0
  3  4  2  0
  4  5  1  0
  5  6  1  0
  6  7  1  0
  7  8  2  0
  7  9  1  0
  9 10  1  0
 10 11  1  0
 11 12  1  0
 12 13  2  0
 13 14  1  0
 14 15  2  0
 15 16  1  0
 16 17  2  0
 17 18  1  0
 18 19  2  0
 19 20  1  0
 20 21  1  0
  6  2  2  0
 20 12  1  0
 19 14  1  0
  1 22  1  0
  1 23  1  0
  1 24  1  0
  9 25  1  0
 10 26  1  0
 10 27  1  0
 11 28  1  0
 11 29  1  0
 15 30  1  0
 16 31  1  0
 17 32  1  0
 18 33  1  0
 21 34  1  0
 21 35  1  0
 21 36  1  0
M  END
>  <UniqueID>  (33) 
32

>  <SMILES>  (33) 
Cc1nnsc1C(=O)NCCc1nc2ccccc2n1C

>  <Energy>  (33) 
108.0509688015616

>  <Genealogy>  (33) 
Cc1nnsc1C(=O)NCCc1nc2ccccc2n1C (3D coordinates assigned)
Cc1nnsc1C(=O)NCCc1nc2ccccc2n1C (optimized conformer: 108.0509688015616 kcal/mol)

>  <smiles>  (33) 
Cc1nnsc1C(=O)NCCc1nc2ccccc2n1C

>  <score_type>  (33) 
oracle

>  <origin>  (33) 
adgpu

>  <m_score__min__energy>  (33) 
-8.8300000000000001

>  <m_primary>  (33) 
energy

$$$$
33:0
     RDKit          3D

 48 51  0  0  0  0  0  0  0  0999 V2000
   -6.7690   17.8880  -31.7360 C   0  0  0  0  0  0  0  0  0  0  0  0
   -7.9560   18.7980  -31.8780 C   0  0  0  0  0  0  0  0  0  0  0  0
   -8.9140   18.6210  -31.1370 O   0  0  0  0  0  0  0  0  0  0  0  0
   -7.9710   19.8670  -32.8660 N   0  0  1  0  0  0  0  0  0  0  0  0
   -8.6510   21.0820  -32.3440 C   0  0  0  0  0  0  0  0  0  0  0  0
   -7.8800   21.7780  -31.1990 C   0  0  0  0  0  0  0  0  0  0  0  0
   -6.4150   21.8130  -31.5060 C   0  0  0  0  0  0  0  0  0  0  0  0
   -5.8320   21.0390  -32.4720 C   0  0  0  0  0  0  0  0  0  0  0  0
   -4.4650   21.2430  -32.3230 C   0  0  0  0  0  0  0  0  0  0  0  0
   -3.3610   20.6200  -33.0860 C   0  0  0  0  0  0  0  0  0  0  0  0
   -3.4110   19.2460  -33.3780 C   0  0  0  0  0  0  0  0  0  0  0  0
   -2.3770   18.6370  -34.0950 C   0  0  0  0  0  0  0  0  0  0  0  0
   -1.2780   19.3880  -34.5170 C   0  0  0  0  0  0  0  0  0  0  0  0
   -1.2070   20.7530  -34.2180 C   0  0  0  0  0  0  0  0  0  0  0  0
   -0.0660   21.5240  -34.6380 C   0  0  0  0  0  0  0  0  0  0  0  0
    0.8510   22.1450  -34.9760 N   0  0  0  0  0  0  0  0  0  0  0  0
   -2.2430   21.3670  -33.4990 C   0  0  0  0  0  0  0  0  0  0  0  0
   -4.2640   22.0800  -31.2800 N   0  0  0  0  0  0  0  0  0  0  0  0
   -5.4480   22.4240  -30.7930 N   0  0  0  0  0  0  0  0  0  0  0  0
   -5.6180   23.2580  -29.6030 C   0  0  0  0  0  0  0  0  0  0  0  0
   -4.2780   23.5650  -28.9790 C   0  0  0  0  0  0  0  0  0  0  0  0
   -3.4600   24.5700  -29.5300 C   0  0  0  0  0  0  0  0  0  0  0  0
   -3.8730   25.2890  -30.6050 F   0  0  0  0  0  0  0  0  0  0  0  0
   -2.2060   24.8420  -28.9720 C   0  0  0  0  0  0  0  0  0  0  0  0
   -1.7600   24.1200  -27.8640 C   0  0  0  0  0  0  0  0  0  0  0  0
   -2.5660   23.1260  -27.3070 C   0  0  0  0  0  0  0  0  0  0  0  0
   -3.8220   22.8480  -27.8560 C   0  0  0  0  0  0  0  0  0  0  0  0
   -4.5850   21.8770  -27.2920 F   0  0  0  0  0  0  0  0  0  0  0  0
   -6.6120   20.1490  -33.3960 C   0  0  0  0  0  0  0  0  0  0  0  0
   -6.5571   17.7256  -30.6689 H   0  0  0  0  0  0  0  0  0  0  0  0
   -6.9869   16.9233  -32.2176 H   0  0  0  0  0  0  0  0  0  0  0  0
   -5.8940   18.3489  -32.2176 H   0  0  0  0  0  0  0  0  0  0  0  0
   -8.5400   19.5420  -33.6830 H   0  0  0  0  0  0  0  0  0  0  0  0
   -8.7670   21.7981  -33.1709 H   0  0  0  0  0  0  0  0  0  0  0  0
   -9.6184   20.7588  -31.9321 H   0  0  0  0  0  0  0  0  0  0  0  0
   -8.2515   22.8070  -31.0842 H   0  0  0  0  0  0  0  0  0  0  0  0
   -8.0373   21.2148  -30.2673 H   0  0  0  0  0  0  0  0  0  0  0  0
   -4.2690   18.6463  -33.0402 H   0  0  0  0  0  0  0  0  0  0  0  0
   -2.4292   17.5631  -34.3274 H   0  0  0  0  0  0  0  0  0  0  0  0
   -0.4680   18.9064  -35.0845 H   0  0  0  0  0  0  0  0  0  0  0  0
   -2.1809   22.4382  -33.2569 H   0  0  0  0  0  0  0  0  0  0  0  0
   -6.1094   24.2000  -29.8879 H   0  0  0  0  0  0  0  0  0  0  0  0
   -6.2356   22.7151  -28.8724 H   0  0  0  0  0  0  0  0  0  0  0  0
   -1.5702   25.6268  -29.4077 H   0  0  0  0  0  0  0  0  0  0  0  0
   -0.7725   24.3345  -27.4294 H   0  0  0  0  0  0  0  0  0  0  0  0
   -2.2122   22.5592  -26.4332 H   0  0  0  0  0  0  0  0  0  0  0  0
   -6.7058   20.6442  -34.3738 H   0  0  0  0  0  0  0  0  0  0  0  0
   -6.0741   19.1940  -33.4892 H   0  0  0  0  0  0  0  0  0  0  0  0
  1  2  1  0
  2  3  2  0
  2  4  1  0
  4  5  1  0
  5  6  1  0
  6  7  1  0
  7  8  2  0
  8  9  1  0
  9 10  1  0
 10 11  2  0
 11 12  1  0
 12 13  2  0
 13 14  1  0
 14 15  1  0
 15 16  3  0
 14 17  2  0
  9 18  2  0
 18 19  1  0
 19 20  1  0
 20 21  1  0
 21 22  2  0
 22 23  1  0
 22 24  1  0
 24 25  2  0
 25 26  1  0
 26 27  2  0
 27 28  1  0
  8 29  1  0
 29  4  1  0
 19  7  1  0
 27 21  1  0
 17 10  1  0
  1 30  1  0
  1 31  1  0
  1 32  1  0
  4 33  1  6
  5 34  1  0
  5 35  1  0
  6 36  1  0
  6 37  1  0
 11 38  1  0
 12 39  1  0
 13 40  1  0
 17 41  1  0
 20 42  1  0
 20 43  1  0
 24 44  1  0
 25 45  1  0
 26 46  1  0
 29 47  1  0
 29 48  1  0
M  CHG  1   4   1
M  END
>  <UniqueID>  (34) 
33

>  <SMILES>  (34) 
CC(=O)[N@H+]1CCc2c(c(-c3cccc(C#N)c3)nn2Cc2c(F)cccc2F)C1

>  <Energy>  (34) 
90.09256035628081

>  <Genealogy>  (34) 
CC(=O)[NH+]1CCc2c(c(-c3cccc(C#N)c3)nn2Cc2c(F)cccc2F)C1 (protonated)
CC(=O)[N@H+]1CCc2c(c(-c3cccc(C#N)c3)nn2Cc2c(F)cccc2F)C1 (chirality)
CC(=O)[N@H+]1CCc2c(c(-c3cccc(C#N)c3)nn2Cc2c(F)cccc2F)C1 (3D coordinates assigned)
CC(=O)[N@H+]1CCc2c(c(-c3cccc(C#N)c3)nn2Cc2c(F)cccc2F)C1 (nonaromatic ring conformer: 90.09256035628081 kcal/mol)

>  <smiles>  (34) 
CC(=O)N1CCc2c(c(-c3cccc(C#N)c3)nn2Cc2c(F)cccc2F)C1

>  <score_type>  (34) 
oracle

>  <origin>  (34) 
adgpu

>  <m_score__min__energy>  (34) 
-9.0999999999999996

>  <m_primary>  (34) 
energy

$$$$
34:0
     RDKit          3D

 41 43  0  0  0  0  0  0  0  0999 V2000
   -6.0940   17.0040  -34.2630 C   0  0  0  0  0  0  0  0  0  0  0  0
   -5.3990   18.2810  -33.9080 C   0  0  0  0  0  0  0  0  0  0  0  0
   -6.0970   19.3140  -33.2810 C   0  0  0  0  0  0  0  0  0  0  0  0
   -5.4090   20.4880  -32.9450 C   0  0  0  0  0  0  0  0  0  0  0  0
   -6.1180   21.6050  -32.2710 C   0  0  0  0  0  0  0  0  0  0  0  0
   -7.5190   21.7140  -32.3440 C   0  0  0  0  0  0  0  0  0  0  0  0
   -8.1780   22.7740  -31.7170 C   0  0  0  0  0  0  0  0  0  0  0  0
   -7.4510   23.7340  -31.0080 C   0  0  0  0  0  0  0  0  0  0  0  0
   -6.0570   23.6330  -30.9180 C   0  0  0  0  0  0  0  0  0  0  0  0
   -5.1330   24.8460  -30.0380 S   0  0  0  0  0  0  0  0  0  0  0  0
   -4.5970   24.1660  -28.4850 C   0  0  0  0  0  0  0  0  0  0  0  0
   -5.9910   26.0550  -29.7900 O   0  0  0  0  0  0  0  0  0  0  0  0
   -3.9330   25.2630  -30.8430 O   0  0  0  0  0  0  0  0  0  0  0  0
   -5.3940   22.5760  -31.5540 C   0  0  0  0  0  0  0  0  0  0  0  0
   -4.0770   20.5900  -33.2360 N   0  0  0  0  0  0  0  0  0  0  0  0
   -3.4070   19.5630  -33.8430 C   0  0  0  0  0  0  0  0  0  0  0  0
   -2.1380   19.6400  -34.1250 N   0  0  0  0  0  0  0  0  0  0  0  0
   -1.2650   20.7780  -33.8480 C   0  0  0  0  0  0  0  0  0  0  0  0
   -1.3590   21.1280  -32.4000 C   0  0  0  0  0  0  0  0  0  0  0  0
   -0.5970   20.5800  -31.3870 C   0  0  0  0  0  0  0  0  0  0  0  0
   -1.0030   21.2190  -30.2340 C   0  0  0  0  0  0  0  0  0  0  0  0
   -1.9790   22.1170  -30.6170 C   0  0  0  0  0  0  0  0  0  0  0  0
   -2.1670   22.0410  -31.9140 O   0  0  0  0  0  0  0  0  0  0  0  0
   -4.0750   18.4260  -34.1680 N   0  0  0  0  0  0  0  0  0  0  0  0
   -6.3819   16.4751  -33.3425 H   0  0  0  0  0  0  0  0  0  0  0  0
   -6.9944   17.2285  -34.8537 H   0  0  0  0  0  0  0  0  0  0  0  0
   -5.4166   16.3698  -34.8537 H   0  0  0  0  0  0  0  0  0  0  0  0
   -7.1683   19.2087  -33.0545 H   0  0  0  0  0  0  0  0  0  0  0  0
   -8.0983   20.9605  -32.8978 H   0  0  0  0  0  0  0  0  0  0  0  0
   -9.2732   22.8534  -31.7816 H   0  0  0  0  0  0  0  0  0  0  0  0
   -7.9740   24.5697  -30.5202 H   0  0  0  0  0  0  0  0  0  0  0  0
   -5.0472   24.7372  -27.6597 H   0  0  0  0  0  0  0  0  0  0  0  0
   -4.9115   23.1141  -28.4173 H   0  0  0  0  0  0  0  0  0  0  0  0
   -3.5007   24.2261  -28.4173 H   0  0  0  0  0  0  0  0  0  0  0  0
   -4.2981   22.5040  -31.4927 H   0  0  0  0  0  0  0  0  0  0  0  0
   -3.5830   21.4800  -33.0030 H   0  0  0  0  0  0  0  0  0  0  0  0
   -0.2264   20.5138  -34.0959 H   0  0  0  0  0  0  0  0  0  0  0  0
   -1.5763   21.6393  -34.4573 H   0  0  0  0  0  0  0  0  0  0  0  0
    0.1717   19.7987  -31.4800 H   0  0  0  0  0  0  0  0  0  0  0  0
   -0.6254   21.0477  -29.2152 H   0  0  0  0  0  0  0  0  0  0  0  0
   -2.5179   22.7941  -29.9379 H   0  0  0  0  0  0  0  0  0  0  0  0
  1  2  1  0
  2  3  1  0
  3  4  2  0
  4  5  1  0
  5  6  2  0
  6  7  1  0
  7  8  2  0
  8  9  1  0
  9 10  1  0
 10 11  1  0
 10 12  2  0
 10 13  2  0
  9 14  2  0
  4 15  1  0
 15 16  1  0
 16 17  2  3
 17 18  1  0
 18 19  1  0
 19 20  2  0
 20 21  1  0
 21 22  2  0
 22 23  1  0
 16 24  1  0
 24  2  2  0
 14  5  1  0
 23 19  1  0
  1 25  1  0
  1 26  1  0
  1 27  1  0
  3 28  1  0
  6 29  1  0
  7 30  1  0
  8 31  1  0
 11 32  1  0
 11 33  1  0
 11 34  1  0
 14 35  1  0
 15 36  1  0
 18 37  1  0
 18 38  1  0
 20 39  1  0
 21 40  1  0
 22 41  1  0
M  END
>  <UniqueID>  (35) 
34

>  <SMILES>  (35) 
Cc1cc(-c2cccc(S(C)(=O)=O)c2)[nH]c(=NCc2ccco2)n1

>  <Energy>  (35) 
69.78820162765858

>  <Genealogy>  (35) 
Cc1cc(-c2cccc(S(C)(=O)=O)c2)[nH]c(=NCc2ccco2)n1 (3D coordinates assigned)
Cc1cc(-c2cccc(S(C)(=O)=O)c2)[nH]c(=NCc2ccco2)n1 (optimized conformer: 69.78820162765858 kcal/mol)

>  <smiles>  (35) 
Cc1cc(-c2cccc(S(C)(=O)=O)c2)[nH]c(=NCc2ccco2)n1

>  <score_type>  (35) 
oracle

>  <origin>  (35) 
adgpu

>  <m_score__min__energy>  (35) 
-9.0800000000000001

>  <m_primary>  (35) 
energy

$$$$
35:0
     RDKit          3D

 42 44  0  0  0  0  0  0  0  0999 V2000
   -5.6200   26.4080  -30.7310 O   0  0  0  0  0  0  0  0  0  0  0  0
   -5.0140   25.3050  -30.7910 C   0  0  0  0  0  0  0  0  0  0  0  0
   -3.6160   25.2670  -30.4650 N   0  0  0  0  0  0  0  0  0  0  0  0
   -3.0190   24.5020  -29.4060 C   0  0  0  0  0  0  0  0  0  0  0  0
   -3.5980   23.3030  -28.9490 C   0  0  0  0  0  0  0  0  0  0  0  0
   -2.9960   22.5780  -27.9160 C   0  0  0  0  0  0  0  0  0  0  0  0
   -1.8050   23.0300  -27.3460 C   0  0  0  0  0  0  0  0  0  0  0  0
   -1.2080   24.2040  -27.8120 C   0  0  0  0  0  0  0  0  0  0  0  0
   -1.8080   24.9400  -28.8450 C   0  0  0  0  0  0  0  0  0  0  0  0
   -1.2130   26.1110  -29.3120 O   0  0  0  0  0  0  0  0  0  0  0  0
   -5.7620   24.0820  -31.1550 C   0  0  0  0  0  0  0  0  0  0  0  0
   -5.3020   23.2550  -32.1920 C   0  0  0  0  0  0  0  0  0  0  0  0
   -5.9640   22.0600  -32.4890 C   0  0  0  0  0  0  0  0  0  0  0  0
   -7.0990   21.6820  -31.7590 C   0  0  0  0  0  0  0  0  0  0  0  0
   -7.8710   20.1230  -32.0560 S   0  0  0  0  0  0  0  0  0  0  0  0
   -8.7350   20.2210  -33.2840 O   0  0  0  0  0  0  0  0  0  0  0  0
   -8.7550   19.7770  -30.8910 O   0  0  0  0  0  0  0  0  0  0  0  0
   -6.6840   18.8570  -32.2790 N   0  0  0  0  0  0  0  0  0  0  0  0
   -7.3480   17.5690  -32.5570 C   0  0  0  0  0  0  0  0  0  0  0  0
   -6.3860   16.6010  -33.2630 C   0  0  0  0  0  0  0  0  0  0  0  0
   -5.9040   17.0760  -34.5140 O   0  0  0  0  0  0  0  0  0  0  0  0
   -5.9240   18.4910  -34.6380 C   0  0  0  0  0  0  0  0  0  0  0  0
   -5.6810   19.2230  -33.3050 C   0  0  0  0  0  0  0  0  0  0  0  0
   -7.5930   22.5330  -30.7620 C   0  0  0  0  0  0  0  0  0  0  0  0
   -6.9300   23.7240  -30.4610 C   0  0  0  0  0  0  0  0  0  0  0  0
   -4.5281   22.9348  -29.4066 H   0  0  0  0  0  0  0  0  0  0  0  0
   -3.4617   21.6502  -27.5522 H   0  0  0  0  0  0  0  0  0  0  0  0
   -1.3360   22.4616  -26.5293 H   0  0  0  0  0  0  0  0  0  0  0  0
   -0.2642   24.5526  -27.3675 H   0  0  0  0  0  0  0  0  0  0  0  0
   -1.2270   26.3570  -30.2950 H   0  0  0  0  0  0  0  0  0  0  0  0
   -4.4160   23.5488  -32.7739 H   0  0  0  0  0  0  0  0  0  0  0  0
   -5.5927   21.4142  -33.2984 H   0  0  0  0  0  0  0  0  0  0  0  0
   -7.6783   17.1212  -31.6081 H   0  0  0  0  0  0  0  0  0  0  0  0
   -8.2106   17.7515  -33.2147 H   0  0  0  0  0  0  0  0  0  0  0  0
   -5.5233   16.4275  -32.6030 H   0  0  0  0  0  0  0  0  0  0  0  0
   -6.9531   15.6811  -33.4683 H   0  0  0  0  0  0  0  0  0  0  0  0
   -5.1395   18.7903  -35.3487 H   0  0  0  0  0  0  0  0  0  0  0  0
   -6.9285   18.7733  -34.9862 H   0  0  0  0  0  0  0  0  0  0  0  0
   -4.6800   18.9595  -32.9327 H   0  0  0  0  0  0  0  0  0  0  0  0
   -5.7651   20.3039  -33.4913 H   0  0  0  0  0  0  0  0  0  0  0  0
   -8.5073   22.2616  -30.2139 H   0  0  0  0  0  0  0  0  0  0  0  0
   -7.3243   24.3860  -29.6760 H   0  0  0  0  0  0  0  0  0  0  0  0
  1  2  2  0
  2  3  1  0
  3  4  1  0
  4  5  2  0
  5  6  1  0
  6  7  2  0
  7  8  1  0
  8  9  2  0
  9 10  1  0
  2 11  1  0
 11 12  2  0
 12 13  1  0
 13 14  2  0
 14 15  1  0
 15 16  2  0
 15 17  2  0
 15 18  1  0
 18 19  1  0
 19 20  1  0
 20 21  1  0
 21 22  1  0
 22 23  1  0
 14 24  1  0
 24 25  2  0
  9  4  1  0
 25 11  1  0
 23 18  1  0
  5 26  1  0
  6 27  1  0
  7 28  1  0
  8 29  1  0
 10 30  1  0
 12 31  1  0
 13 32  1  0
 19 33  1  0
 19 34  1  0
 20 35  1  0
 20 36  1  0
 22 37  1  0
 22 38  1  0
 23 39  1  0
 23 40  1  0
 24 41  1  0
 25 42  1  0
M  CHG  1   3  -1
M  END
>  <UniqueID>  (36) 
35

>  <SMILES>  (36) 
O=C([N-]c1ccccc1O)c1ccc(S(=O)(=O)N2CCOCC2)cc1

>  <Energy>  (36) 
61.00732409581162

>  <Genealogy>  (36) 
O=C([N-]c1ccccc1O)c1ccc(S(=O)(=O)N2CCOCC2)cc1 (protonated)
O=C([N-]c1ccccc1O)c1ccc(S(=O)(=O)N2CCOCC2)cc1 (3D coordinates assigned)
O=C([N-]c1ccccc1O)c1ccc(S(=O)(=O)N2CCOCC2)cc1 (nonaromatic ring conformer: 61.00732409581162 kcal/mol)

>  <smiles>  (36) 
O=C(Nc1ccccc1O)c1ccc(S(=O)(=O)N2CCOCC2)cc1

>  <score_type>  (36) 
oracle

>  <origin>  (36) 
adgpu

>  <m_score__min__energy>  (36) 
-12.359999999999999

>  <m_primary>  (36) 
energy

$$$$
36:0
     RDKit          3D

 44 47  0  0  0  0  0  0  0  0999 V2000
   -0.8570   26.9420  -28.3540 N   0  0  0  0  0  0  0  0  0  0  0  0
   -0.5500   25.3470  -27.7660 S   0  0  0  0  0  0  0  0  0  0  0  0
    0.9170   25.0420  -27.8820 O   0  0  0  0  0  0  0  0  0  0  0  0
   -0.9480   25.2620  -26.3200 O   0  0  0  0  0  0  0  0  0  0  0  0
   -1.4770   24.1850  -28.7100 C   0  0  0  0  0  0  0  0  0  0  0  0
   -2.7700   24.4990  -29.1460 C   0  0  0  0  0  0  0  0  0  0  0  0
   -3.5020   23.5820  -29.9050 C   0  0  0  0  0  0  0  0  0  0  0  0
   -2.9480   22.3330  -30.2490 C   0  0  0  0  0  0  0  0  0  0  0  0
   -3.6860   21.3700  -31.0300 N   0  0  0  0  0  0  0  0  0  0  0  0
   -3.1810   20.4110  -31.8370 C   0  0  0  0  0  0  0  0  0  0  0  0
   -4.2300   19.7120  -32.4000 C   0  0  0  0  0  0  0  0  0  0  0  0
   -4.1130   18.6510  -33.4240 C   0  0  0  0  0  0  0  0  0  0  0  0
   -5.1140   18.4750  -34.3940 C   0  0  0  0  0  0  0  0  0  0  0  0
   -4.9870   17.4780  -35.3660 C   0  0  0  0  0  0  0  0  0  0  0  0
   -3.8570   16.6580  -35.3850 C   0  0  0  0  0  0  0  0  0  0  0  0
   -2.8440   16.8360  -34.4350 C   0  0  0  0  0  0  0  0  0  0  0  0
   -1.7090   16.0280  -34.4470 O   0  0  0  0  0  0  0  0  0  0  0  0
   -2.9710   17.8330  -33.4620 C   0  0  0  0  0  0  0  0  0  0  0  0
   -5.3740   20.3000  -31.8680 C   0  0  0  0  0  0  0  0  0  0  0  0
   -6.7820   19.8990  -32.0640 C   0  0  0  0  0  0  0  0  0  0  0  0
   -7.7590   20.8800  -32.3080 C   0  0  0  0  0  0  0  0  0  0  0  0
   -9.0980   20.5150  -32.4790 C   0  0  0  0  0  0  0  0  0  0  0  0
   -9.4760   19.1720  -32.3920 C   0  0  0  0  0  0  0  0  0  0  0  0
   -8.5160   18.1920  -32.1280 C   0  0  0  0  0  0  0  0  0  0  0  0
   -7.1760   18.5520  -31.9570 C   0  0  0  0  0  0  0  0  0  0  0  0
   -5.0100   21.3040  -31.0450 N   0  0  0  0  0  0  0  0  0  0  0  0
   -1.6460   22.0270  -29.8070 C   0  0  0  0  0  0  0  0  0  0  0  0
   -0.9170   22.9480  -29.0490 C   0  0  0  0  0  0  0  0  0  0  0  0
   -1.1740   26.8460  -29.3450 H   0  0  0  0  0  0  0  0  0  0  0  0
   -3.2121   25.4731  -28.8896 H   0  0  0  0  0  0  0  0  0  0  0  0
   -4.5192   23.8374  -30.2367 H   0  0  0  0  0  0  0  0  0  0  0  0
   -2.1126   20.2193  -32.0155 H   0  0  0  0  0  0  0  0  0  0  0  0
   -6.0017   19.1246  -34.3887 H   0  0  0  0  0  0  0  0  0  0  0  0
   -5.7787   17.3394  -36.1170 H   0  0  0  0  0  0  0  0  0  0  0  0
   -3.7625   15.8709  -36.1476 H   0  0  0  0  0  0  0  0  0  0  0  0
   -1.2090   15.8310  -35.3070 H   0  0  0  0  0  0  0  0  0  0  0  0
   -2.1709   17.9778  -32.7211 H   0  0  0  0  0  0  0  0  0  0  0  0
   -7.4688   21.9395  -32.3647 H   0  0  0  0  0  0  0  0  0  0  0  0
   -9.8554   21.2863  -32.6824 H   0  0  0  0  0  0  0  0  0  0  0  0
  -10.5292   18.8869  -32.5314 H   0  0  0  0  0  0  0  0  0  0  0  0
   -8.8148   17.1359  -32.0546 H   0  0  0  0  0  0  0  0  0  0  0  0
   -6.4255   17.7783  -31.7376 H   0  0  0  0  0  0  0  0  0  0  0  0
   -1.1988   21.0545  -30.0606 H   0  0  0  0  0  0  0  0  0  0  0  0
    0.1019   22.6992  -28.7173 H   0  0  0  0  0  0  0  0  0  0  0  0
  1  2  1  0
  2  3  2  0
  2  4  2  0
  2  5  1  0
  5  6  2  0
  6  7  1  0
  7  8  2  0
  8  9  1  0
  9 10  1  0
 10 11  2  0
 11 12  1  0
 12 13  2  0
 13 14  1  0
 14 15  2  0
 15 16  1  0
 16 17  1  0
 16 18  2  0
 11 19  1  0
 19 20  1  0
 20 21  2  0
 21 22  1  0
 22 23  2  0
 23 24  1  0
 24 25  2  0
 19 26  2  0
  8 27  1  0
 27 28  2  0
 28  5  1  0
 26  9  1  0
 18 12  1  0
 25 20  1  0
  1 29  1  0
  6 30  1  0
  7 31  1  0
 10 32  1  0
 13 33  1  0
 14 34  1  0
 15 35  1  0
 17 36  1  0
 18 37  1  0
 21 38  1  0
 22 39  1  0
 23 40  1  0
 24 41  1  0
 25 42  1  0
 27 43  1  0
 28 44  1  0
M  CHG  1   1  -1
M  END
>  <UniqueID>  (37) 
36

>  <SMILES>  (37) 
[NH-]S(=O)(=O)c1ccc(-n2cc(-c3cccc(O)c3)c(-c3ccccc3)n2)cc1

>  <Energy>  (37) 
88.73486527888092

>  <Genealogy>  (37) 
[NH-]S(=O)(=O)c1ccc(-n2cc(-c3cccc(O)c3)c(-c3ccccc3)n2)cc1 (protonated)
[NH-]S(=O)(=O)c1ccc(-n2cc(-c3cccc(O)c3)c(-c3ccccc3)n2)cc1 (3D coordinates assigned)
[NH-]S(=O)(=O)c1ccc(-n2cc(-c3cccc(O)c3)c(-c3ccccc3)n2)cc1 (optimized conformer: 88.73486527888092 kcal/mol)

>  <smiles>  (37) 
NS(=O)(=O)c1ccc(-n2cc(-c3cccc(O)c3)c(-c3ccccc3)n2)cc1

>  <score_type>  (37) 
oracle

>  <origin>  (37) 
adgpu

>  <m_score__min__energy>  (37) 
-9.7200000000000006

>  <m_primary>  (37) 
energy

$$$$
37:0
     RDKit          3D

 53 55  0  0  0  0  0  0  0  0999 V2000
   -1.2010   26.2890  -28.2220 C   0  0  0  0  0  0  0  0  0  0  0  0
   -2.0050   25.2890  -28.9140 N   0  0  0  0  0  0  0  0  0  0  0  0
   -1.4430   24.0400  -29.3380 C   0  0  0  0  0  0  0  0  0  0  0  0
   -0.2940   23.7040  -28.9470 O   0  0  0  0  0  0  0  0  0  0  0  0
   -2.1660   23.1530  -30.1980 N   0  0  0  0  0  0  0  0  0  0  0  0
   -2.2500   21.4340  -29.9910 S   0  0  0  0  0  0  0  0  0  0  0  0
   -3.6820   20.9910  -30.1120 O   0  0  0  0  0  0  0  0  0  0  0  0
   -1.7550   21.0820  -28.6160 O   0  0  0  0  0  0  0  0  0  0  0  0
   -1.2340   20.6210  -31.1930 C   0  0  0  0  0  0  0  0  0  0  0  0
    0.1650   20.6960  -31.0690 C   0  0  0  0  0  0  0  0  0  0  0  0
    0.9950   20.0530  -31.9890 C   0  0  0  0  0  0  0  0  0  0  0  0
    0.4400   19.3370  -33.0470 C   0  0  0  0  0  0  0  0  0  0  0  0
   -0.9440   19.2680  -33.1960 C   0  0  0  0  0  0  0  0  0  0  0  0
   -1.7960   19.9140  -32.2820 C   0  0  0  0  0  0  0  0  0  0  0  0
   -3.2210   19.8220  -32.4510 N   0  0  0  0  0  0  0  0  0  0  0  0
   -3.8460   19.5620  -33.7470 C   0  0  0  0  0  0  0  0  0  0  0  0
   -5.1970   18.9180  -33.5440 C   0  0  0  0  0  0  0  0  0  0  0  0
   -5.4130   17.6350  -34.0780 C   0  0  0  0  0  0  0  0  0  0  0  0
   -6.6180   16.9630  -33.8590 C   0  0  0  0  0  0  0  0  0  0  0  0
   -7.6160   17.5530  -33.0860 C   0  0  0  0  0  0  0  0  0  0  0  0
   -7.4160   18.8180  -32.5300 C   0  0  0  0  0  0  0  0  0  0  0  0
   -6.2150   19.5150  -32.7510 C   0  0  0  0  0  0  0  0  0  0  0  0
   -6.0640   20.8530  -32.1350 C   0  0  0  0  0  0  0  0  0  0  0  0
   -5.1560   21.7770  -32.6770 C   0  0  0  0  0  0  0  0  0  0  0  0
   -4.9630   23.0190  -32.0650 C   0  0  0  0  0  0  0  0  0  0  0  0
   -5.6590   23.3440  -30.8950 C   0  0  0  0  0  0  0  0  0  0  0  0
   -5.3610   24.8890  -30.0990 S   0  0  0  0  0  0  0  0  0  0  0  0
   -4.8650   24.6280  -28.4640 N   0  0  0  0  0  0  0  0  0  0  0  0
   -4.2840   25.6430  -30.8260 O   0  0  0  0  0  0  0  0  0  0  0  0
   -6.6190   25.7090  -30.1180 O   0  0  0  0  0  0  0  0  0  0  0  0
   -6.5640   22.4230  -30.3490 C   0  0  0  0  0  0  0  0  0  0  0  0
   -6.7570   21.1800  -30.9600 C   0  0  0  0  0  0  0  0  0  0  0  0
   -1.3072   26.1569  -27.1351 H   0  0  0  0  0  0  0  0  0  0  0  0
   -0.1446   26.1696  -28.5044 H   0  0  0  0  0  0  0  0  0  0  0  0
   -1.5445   27.2951  -28.5044 H   0  0  0  0  0  0  0  0  0  0  0  0
   -3.0130   25.4980  -29.0790 H   0  0  0  0  0  0  0  0  0  0  0  0
    0.6090   21.2663  -30.2398 H   0  0  0  0  0  0  0  0  0  0  0  0
    2.0878   20.1118  -31.8783 H   0  0  0  0  0  0  0  0  0  0  0  0
    1.0956   18.8248  -33.7666 H   0  0  0  0  0  0  0  0  0  0  0  0
   -1.3741   18.7031  -34.0362 H   0  0  0  0  0  0  0  0  0  0  0  0
   -3.8510   20.1350  -31.6800 H   0  0  0  0  0  0  0  0  0  0  0  0
   -3.9717   20.5111  -34.2887 H   0  0  0  0  0  0  0  0  0  0  0  0
   -3.2048   18.8844  -34.3298 H   0  0  0  0  0  0  0  0  0  0  0  0
   -4.6238   17.1549  -34.6752 H   0  0  0  0  0  0  0  0  0  0  0  0
   -6.7792   15.9670  -34.2973 H   0  0  0  0  0  0  0  0  0  0  0  0
   -8.5633   17.0211  -32.9135 H   0  0  0  0  0  0  0  0  0  0  0  0
   -8.2050   19.2734  -31.9136 H   0  0  0  0  0  0  0  0  0  0  0  0
   -4.5939   21.5223  -33.5876 H   0  0  0  0  0  0  0  0  0  0  0  0
   -4.2616   23.7434  -32.5046 H   0  0  0  0  0  0  0  0  0  0  0  0
   -5.6770   24.2030  -27.9620 H   0  0  0  0  0  0  0  0  0  0  0  0
   -4.7020   25.5680  -28.0420 H   0  0  0  0  0  0  0  0  0  0  0  0
   -7.1239   22.6788  -29.4374 H   0  0  0  0  0  0  0  0  0  0  0  0
   -7.4557   20.4551  -30.5170 H   0  0  0  0  0  0  0  0  0  0  0  0
  1  2  1  0
  2  3  1  0
  3  4  2  0
  3  5  1  0
  5  6  1  0
  6  7  2  0
  6  8  2  0
  6  9  1  0
  9 10  2  0
 10 11  1  0
 11 12  2  0
 12 13  1  0
 13 14  2  0
 14 15  1  0
 15 16  1  0
 16 17  1  0
 17 18  2  0
 18 19  1  0
 19 20  2  0
 20 21  1  0
 21 22  2  0
 22 23  1  0
 23 24  2  0
 24 25  1  0
 25 26  2  0
 26 27  1  0
 27 28  1  0
 27 29  2  0
 27 30  2  0
 26 31  1  0
 31 32  2  0
 14  9  1  0
 22 17  1  0
 32 23  1  0
  1 33  1  0
  1 34  1  0
  1 35  1  0
  2 36  1  0
 10 37  1  0
 11 38  1  0
 12 39  1  0
 13 40  1  0
 15 41  1  0
 16 42  1  0
 16 43  1  0
 18 44  1  0
 19 45  1  0
 20 46  1  0
 21 47  1  0
 24 48  1  0
 25 49  1  0
 28 50  1  0
 28 51  1  0
 31 52  1  0
 32 53  1  0
M  CHG  1   5  -1
M  END
>  <UniqueID>  (38) 
37

>  <SMILES>  (38) 
CNC(=O)[N-]S(=O)(=O)c1ccccc1NCc1ccccc1-c1ccc(S(N)(=O)=O)cc1

>  <Energy>  (38) 
58.54166768196156

>  <Genealogy>  (38) 
CNC(=O)[N-]S(=O)(=O)c1ccccc1NCc1ccccc1-c1ccc(S(N)(=O)=O)cc1 (protonated)
CNC(=O)[N-]S(=O)(=O)c1ccccc1NCc1ccccc1-c1ccc(S(N)(=O)=O)cc1 (3D coordinates assigned)
CNC(=O)[N-]S(=O)(=O)c1ccccc1NCc1ccccc1-c1ccc(S(N)(=O)=O)cc1 (optimized conformer: 58.54166768196156 kcal/mol)

>  <smiles>  (38) 
CNC(=O)NS(=O)(=O)c1ccccc1NCc1ccccc1-c1ccc(S(N)(=O)=O)cc1

>  <score_type>  (38) 
oracle

>  <origin>  (38) 
adgpu

>  <m_score__min__energy>  (38) 
-11.26

>  <m_primary>  (38) 
energy

$$$$
38:0
     RDKit          3D

 57 59  0  0  0  0  0  0  0  0999 V2000
    1.0920   22.6310  -35.7360 C   0  0  0  0  0  0  0  0  0  0  0  0
    0.7710   21.9480  -34.5290 O   0  0  0  0  0  0  0  0  0  0  0  0
    0.0540   20.7430  -34.4630 C   0  0  0  0  0  0  0  0  0  0  0  0
    0.2370   19.7120  -35.4030 C   0  0  0  0  0  0  0  0  0  0  0  0
   -0.4950   18.5290  -35.3050 C   0  0  0  0  0  0  0  0  0  0  0  0
   -1.4200   18.3540  -34.2700 C   0  0  0  0  0  0  0  0  0  0  0  0
   -2.3410   16.8560  -34.1360 S   0  0  0  0  0  0  0  0  0  0  0  0
   -2.4030   16.2050  -35.4890 O   0  0  0  0  0  0  0  0  0  0  0  0
   -1.6500   15.9190  -33.1830 O   0  0  0  0  0  0  0  0  0  0  0  0
   -3.9620   17.1780  -33.5670 N   0  0  0  0  0  0  0  0  0  0  0  0
   -4.3960   18.5390  -33.9780 C   0  0  0  0  0  0  0  0  0  0  0  0
   -5.8830   18.6250  -34.3870 C   0  0  0  0  0  0  0  0  0  0  0  0
   -6.7600   17.7390  -33.6000 N   0  0  0  0  0  0  0  0  0  0  0  0
   -7.3090   18.4640  -32.1010 S   0  0  0  0  0  0  0  0  0  0  0  0
   -6.5890   17.8150  -30.9510 O   0  0  0  0  0  0  0  0  0  0  0  0
   -8.7700   18.1600  -31.9320 O   0  0  0  0  0  0  0  0  0  0  0  0
   -7.0030   20.2170  -32.0270 C   0  0  0  0  0  0  0  0  0  0  0  0
   -5.6630   20.6380  -31.9650 C   0  0  0  0  0  0  0  0  0  0  0  0
   -5.3300   21.9970  -31.9170 C   0  0  0  0  0  0  0  0  0  0  0  0
   -3.8960   22.4340  -31.8990 C   0  0  0  0  0  0  0  0  0  0  0  0
   -6.3470   22.9540  -31.9360 C   0  0  0  0  0  0  0  0  0  0  0  0
   -7.6830   22.5600  -31.9710 C   0  0  0  0  0  0  0  0  0  0  0  0
   -8.0320   21.1990  -32.0160 C   0  0  0  0  0  0  0  0  0  0  0  0
   -9.4970   20.8470  -32.0160 C   0  0  0  0  0  0  0  0  0  0  0  0
   -6.2770   16.3480  -33.4480 C   0  0  0  0  0  0  0  0  0  0  0  0
   -4.8770   16.1280  -34.0380 C   0  0  0  0  0  0  0  0  0  0  0  0
   -1.6050   19.3740  -33.3270 C   0  0  0  0  0  0  0  0  0  0  0  0
   -0.8690   20.5730  -33.4190 C   0  0  0  0  0  0  0  0  0  0  0  0
   -1.0260   21.6170  -32.4940 O   0  0  0  0  0  0  0  0  0  0  0  0
   -0.6720   21.5380  -31.1200 C   0  0  0  0  0  0  0  0  0  0  0  0
    1.5487   23.6028  -35.4971 H   0  0  0  0  0  0  0  0  0  0  0  0
    1.8005   22.0270  -36.3218 H   0  0  0  0  0  0  0  0  0  0  0  0
    0.1748   22.7910  -36.3218 H   0  0  0  0  0  0  0  0  0  0  0  0
    0.9620   19.8399  -36.2203 H   0  0  0  0  0  0  0  0  0  0  0  0
   -0.3443   17.7294  -36.0452 H   0  0  0  0  0  0  0  0  0  0  0  0
   -3.9250   17.1350  -32.5220 H   0  0  0  0  0  0  0  0  0  0  0  0
   -4.2285   19.2253  -33.1348 H   0  0  0  0  0  0  0  0  0  0  0  0
   -3.8047   18.8082  -34.8656 H   0  0  0  0  0  0  0  0  0  0  0  0
   -6.2226   19.6623  -34.2504 H   0  0  0  0  0  0  0  0  0  0  0  0
   -5.9502   18.2996  -35.4356 H   0  0  0  0  0  0  0  0  0  0  0  0
   -4.8609   19.8853  -31.9540 H   0  0  0  0  0  0  0  0  0  0  0  0
   -3.5572   22.5372  -30.8576 H   0  0  0  0  0  0  0  0  0  0  0  0
   -3.2775   21.6836  -32.4131 H   0  0  0  0  0  0  0  0  0  0  0  0
   -3.8011   23.4018  -32.4131 H   0  0  0  0  0  0  0  0  0  0  0  0
   -6.0920   24.0240  -31.9233 H   0  0  0  0  0  0  0  0  0  0  0  0
   -8.4747   23.3236  -31.9633 H   0  0  0  0  0  0  0  0  0  0  0  0
   -9.8535   20.7613  -30.9789 H   0  0  0  0  0  0  0  0  0  0  0  0
  -10.0633   21.6346  -32.5345 H   0  0  0  0  0  0  0  0  0  0  0  0
   -9.6437   19.8880  -32.5345 H   0  0  0  0  0  0  0  0  0  0  0  0
   -6.2475   16.1030  -32.3760 H   0  0  0  0  0  0  0  0  0  0  0  0
   -6.9713   15.6979  -34.0005 H   0  0  0  0  0  0  0  0  0  0  0  0
   -4.4982   15.1454  -33.7204 H   0  0  0  0  0  0  0  0  0  0  0  0
   -4.9375   16.1676  -35.1356 H   0  0  0  0  0  0  0  0  0  0  0  0
   -2.3289   19.2383  -32.5100 H   0  0  0  0  0  0  0  0  0  0  0  0
   -1.5593   21.7360  -30.5008 H   0  0  0  0  0  0  0  0  0  0  0  0
   -0.2869   20.5318  -30.8978 H   0  0  0  0  0  0  0  0  0  0  0  0
    0.1043   22.2850  -30.8978 H   0  0  0  0  0  0  0  0  0  0  0  0
  1  2  1  0
  2  3  1  0
  3  4  2  0
  4  5  1  0
  5  6  2  0
  6  7  1  0
  7  8  2  0
  7  9  2  0
  7 10  1  0
 10 11  1  0
 11 12  1  0
 12 13  1  0
 13 14  1  0
 14 15  2  0
 14 16  2  0
 14 17  1  0
 17 18  2  0
 18 19  1  0
 19 20  1  0
 19 21  2  0
 21 22  1  0
 22 23  2  0
 23 24  1  0
 13 25  1  0
 25 26  1  0
  6 27  1  0
 27 28  2  0
 28 29  1  0
 29 30  1  0
 28  3  1  0
 26 10  1  0
 23 17  1  0
  1 31  1  0
  1 32  1  0
  1 33  1  0
  4 34  1  0
  5 35  1  0
 10 36  1  0
 11 37  1  0
 11 38  1  0
 12 39  1  0
 12 40  1  0
 18 41  1  0
 20 42  1  0
 20 43  1  0
 20 44  1  0
 21 45  1  0
 22 46  1  0
 24 47  1  0
 24 48  1  0
 24 49  1  0
 25 50  1  0
 25 51  1  0
 26 52  1  0
 26 53  1  0
 27 54  1  0
 30 55  1  0
 30 56  1  0
 30 57  1  0
M  CHG  1  10   1
M  END
>  <UniqueID>  (39) 
38

>  <SMILES>  (39) 
COc1ccc(S(=O)(=O)[NH+]2CCN(S(=O)(=O)c3cc(C)ccc3C)CC2)cc1OC

>  <Energy>  (39) 
67.79458123220977

>  <Genealogy>  (39) 
COc1ccc(S(=O)(=O)[NH+]2CCN(S(=O)(=O)c3cc(C)ccc3C)CC2)cc1OC (protonated)
COc1ccc(S(=O)(=O)[NH+]2CCN(S(=O)(=O)c3cc(C)ccc3C)CC2)cc1OC (3D coordinates assigned)
COc1ccc(S(=O)(=O)[NH+]2CCN(S(=O)(=O)c3cc(C)ccc3C)CC2)cc1OC (nonaromatic ring conformer: 67.79458123220977 kcal/mol)

>  <smiles>  (39) 
COc1ccc(S(=O)(=O)N2CCN(S(=O)(=O)c3cc(C)ccc3C)CC2)cc1OC

>  <score_type>  (39) 
oracle

>  <origin>  (39) 
adgpu

>  <m_score__min__energy>  (39) 
-9.1899999999999995

>  <m_primary>  (39) 
energy

$$$$
39:0
     RDKit          3D

 38 40  0  0  0  0  0  0  0  0999 V2000
    0.7760   23.4490  -26.1280 C   0  0  0  0  0  0  0  0  0  0  0  0
    0.2720   23.9740  -27.4390 C   0  0  0  0  0  0  0  0  0  0  0  0
    1.0840   24.5700  -28.1970 O   0  0  0  0  0  0  0  0  0  0  0  0
   -1.1480   23.8130  -27.8580 C   0  0  0  0  0  0  0  0  0  0  0  0
   -1.9940   22.9370  -27.1530 C   0  0  0  0  0  0  0  0  0  0  0  0
   -3.3300   22.7840  -27.5290 C   0  0  0  0  0  0  0  0  0  0  0  0
   -3.8400   23.4910  -28.6190 C   0  0  0  0  0  0  0  0  0  0  0  0
   -3.0070   24.3520  -29.3530 C   0  0  0  0  0  0  0  0  0  0  0  0
   -3.4900   25.1090  -30.4720 N   0  0  0  0  0  0  0  0  0  0  0  0
   -4.8590   25.3320  -30.8380 C   0  0  0  0  0  0  0  0  0  0  0  0
   -5.4690   26.3600  -30.4420 O   0  0  0  0  0  0  0  0  0  0  0  0
   -5.5500   24.3920  -31.6670 N   0  0  0  0  0  0  0  0  0  0  0  0
   -5.1610   23.0300  -31.9090 C   0  0  0  0  0  0  0  0  0  0  0  0
   -3.8030   22.6610  -31.9180 C   0  0  0  0  0  0  0  0  0  0  0  0
   -3.4270   21.3340  -32.1300 C   0  0  0  0  0  0  0  0  0  0  0  0
   -4.3960   20.3500  -32.3150 C   0  0  0  0  0  0  0  0  0  0  0  0
   -5.7570   20.6840  -32.2820 C   0  0  0  0  0  0  0  0  0  0  0  0
   -6.7330   19.6900  -32.4560 C   0  0  0  0  0  0  0  0  0  0  0  0
   -8.0910   20.0200  -32.4240 C   0  0  0  0  0  0  0  0  0  0  0  0
   -9.0440   19.0190  -32.5960 O   0  0  0  0  0  0  0  0  0  0  0  0
   -8.4810   21.3480  -32.2190 C   0  0  0  0  0  0  0  0  0  0  0  0
   -7.5210   22.3470  -32.0420 C   0  0  0  0  0  0  0  0  0  0  0  0
   -6.1490   22.0320  -32.0710 C   0  0  0  0  0  0  0  0  0  0  0  0
   -1.6740   24.5250  -28.9550 C   0  0  0  0  0  0  0  0  0  0  0  0
    0.2713   23.9747  -25.3041 H   0  0  0  0  0  0  0  0  0  0  0  0
    0.5653   22.3716  -26.0591 H   0  0  0  0  0  0  0  0  0  0  0  0
    1.8611   23.6156  -26.0591 H   0  0  0  0  0  0  0  0  0  0  0  0
   -1.5995   22.3679  -26.2984 H   0  0  0  0  0  0  0  0  0  0  0  0
   -3.9834   22.1033  -26.9637 H   0  0  0  0  0  0  0  0  0  0  0  0
   -4.8960   23.3739  -28.9039 H   0  0  0  0  0  0  0  0  0  0  0  0
   -3.0299   23.4266  -31.7562 H   0  0  0  0  0  0  0  0  0  0  0  0
   -2.3610   21.0636  -32.1512 H   0  0  0  0  0  0  0  0  0  0  0  0
   -4.0918   19.3071  -32.4876 H   0  0  0  0  0  0  0  0  0  0  0  0
   -6.4275   18.6458  -32.6184 H   0  0  0  0  0  0  0  0  0  0  0  0
   -9.4740   18.8450  -33.4960 H   0  0  0  0  0  0  0  0  0  0  0  0
   -9.5499   21.6068  -32.1971 H   0  0  0  0  0  0  0  0  0  0  0  0
   -7.8391   23.3873  -31.8788 H   0  0  0  0  0  0  0  0  0  0  0  0
   -1.0298   25.2258  -29.5062 H   0  0  0  0  0  0  0  0  0  0  0  0
  1  2  1  0
  2  3  2  0
  2  4  1  0
  4  5  2  0
  5  6  1  0
  6  7  2  0
  7  8  1  0
  8  9  1  0
  9 10  1  0
 10 11  2  0
 10 12  1  0
 12 13  1  0
 13 14  2  0
 14 15  1  0
 15 16  2  0
 16 17  1  0
 17 18  2  0
 18 19  1  0
 19 20  1  0
 19 21  2  0
 21 22  1  0
 22 23  2  0
  8 24  2  0
 24  4  1  0
 23 13  1  0
 23 17  1  0
  1 25  1  0
  1 26  1  0
  1 27  1  0
  5 28  1  0
  6 29  1  0
  7 30  1  0
 14 31  1  0
 15 32  1  0
 16 33  1  0
 18 34  1  0
 20 35  1  0
 21 36  1  0
 22 37  1  0
 24 38  1  0
M  CHG  2   9  -1  12  -1
M  END
>  <UniqueID>  (40) 
39

>  <SMILES>  (40) 
CC(=O)c1cccc([N-]C(=O)[N-]c2cccc3cc(O)ccc23)c1

>  <Energy>  (40) 
52.01874971622005

>  <Genealogy>  (40) 
CC(=O)c1cccc([N-]C(=O)[N-]c2cccc3cc(O)ccc23)c1 (protonated)
CC(=O)c1cccc([N-]C(=O)[N-]c2cccc3cc(O)ccc23)c1 (3D coordinates assigned)
CC(=O)c1cccc([N-]C(=O)[N-]c2cccc3cc(O)ccc23)c1 (optimized conformer: 52.01874971622005 kcal/mol)

>  <smiles>  (40) 
CC(=O)c1cccc(NC(=O)Nc2cccc3cc(O)ccc23)c1

>  <score_type>  (40) 
oracle

>  <origin>  (40) 
adgpu

>  <m_score__min__energy>  (40) 
-10.99

>  <m_primary>  (40) 
energy

$$$$
40:0
     RDKit          3D

 44 46  0  0  0  0  0  0  0  0999 V2000
   -5.7420   26.2470  -30.9300 O   0  0  0  0  0  0  0  0  0  0  0  0
   -5.1660   25.1400  -30.7610 C   0  0  0  0  0  0  0  0  0  0  0  0
   -3.8500   25.1320  -30.1910 N   0  0  0  0  0  0  0  0  0  0  0  0
   -3.3470   24.1840  -29.2370 C   0  0  0  0  0  0  0  0  0  0  0  0
   -4.1000   23.0580  -28.8540 C   0  0  0  0  0  0  0  0  0  0  0  0
   -3.5820   22.1450  -27.9310 C   0  0  0  0  0  0  0  0  0  0  0  0
   -2.3060   22.3360  -27.3970 C   0  0  0  0  0  0  0  0  0  0  0  0
   -1.5420   23.4380  -27.7900 C   0  0  0  0  0  0  0  0  0  0  0  0
   -2.0560   24.3600  -28.7130 C   0  0  0  0  0  0  0  0  0  0  0  0
   -1.2930   25.4570  -29.1090 O   0  0  0  0  0  0  0  0  0  0  0  0
   -5.8800   23.8900  -31.1080 C   0  0  0  0  0  0  0  0  0  0  0  0
   -7.1320   23.5950  -30.5410 C   0  0  0  0  0  0  0  0  0  0  0  0
   -7.7900   22.4040  -30.8590 C   0  0  0  0  0  0  0  0  0  0  0  0
   -7.2120   21.4980  -31.7580 C   0  0  0  0  0  0  0  0  0  0  0  0
   -8.0070   19.9700  -32.1270 S   0  0  0  0  0  0  0  0  0  0  0  0
   -9.0810   20.2210  -33.1510 O   0  0  0  0  0  0  0  0  0  0  0  0
   -8.6480   19.4090  -30.8870 O   0  0  0  0  0  0  0  0  0  0  0  0
   -6.8350   18.8430  -32.7600 N   0  0  0  0  0  0  0  0  0  0  0  0
   -7.3940   17.4800  -32.7550 C   0  0  0  0  0  0  0  0  0  0  0  0
   -6.3030   16.4500  -33.1040 C   0  0  0  0  0  0  0  0  0  0  0  0
   -5.1490   17.0670  -33.9110 C   0  0  0  0  0  0  0  0  0  0  0  0
   -5.6630   18.1410  -34.8720 C   0  0  0  0  0  0  0  0  0  0  0  0
   -6.4430   19.2470  -34.1280 C   0  0  0  0  0  0  0  0  0  0  0  0
   -5.9750   21.7950  -32.3390 C   0  0  0  0  0  0  0  0  0  0  0  0
   -5.3150   22.9860  -32.0240 C   0  0  0  0  0  0  0  0  0  0  0  0
   -5.1000   22.8960  -29.2827 H   0  0  0  0  0  0  0  0  0  0  0  0
   -4.1806   21.2745  -27.6247 H   0  0  0  0  0  0  0  0  0  0  0  0
   -1.9023   21.6190  -26.6670 H   0  0  0  0  0  0  0  0  0  0  0  0
   -0.5341   23.5827  -27.3739 H   0  0  0  0  0  0  0  0  0  0  0  0
   -1.6130   26.0940  -29.8300 H   0  0  0  0  0  0  0  0  0  0  0  0
   -7.5968   24.3063  -29.8424 H   0  0  0  0  0  0  0  0  0  0  0  0
   -8.7646   22.1771  -30.4022 H   0  0  0  0  0  0  0  0  0  0  0  0
   -7.7964   17.2571  -31.7558 H   0  0  0  0  0  0  0  0  0  0  0  0
   -8.1944   17.4202  -33.5072 H   0  0  0  0  0  0  0  0  0  0  0  0
   -5.8977   16.0347  -32.1695 H   0  0  0  0  0  0  0  0  0  0  0  0
   -6.7661   15.6694  -33.7254 H   0  0  0  0  0  0  0  0  0  0  0  0
   -4.4274   17.5218  -33.2163 H   0  0  0  0  0  0  0  0  0  0  0  0
   -4.6692   16.2713  -34.4998 H   0  0  0  0  0  0  0  0  0  0  0  0
   -4.8057   18.5960  -35.3897 H   0  0  0  0  0  0  0  0  0  0  0  0
   -6.3467   17.6617  -35.5881 H   0  0  0  0  0  0  0  0  0  0  0  0
   -5.8082   20.1430  -34.0627 H   0  0  0  0  0  0  0  0  0  0  0  0
   -7.3649   19.4441  -34.6948 H   0  0  0  0  0  0  0  0  0  0  0  0
   -5.5192   21.0877  -33.0475 H   0  0  0  0  0  0  0  0  0  0  0  0
   -4.3484   23.2171  -32.4954 H   0  0  0  0  0  0  0  0  0  0  0  0
  1  2  2  0
  2  3  1  0
  3  4  1  0
  4  5  2  0
  5  6  1  0
  6  7  2  0
  7  8  1  0
  8  9  2  0
  9 10  1  0
  2 11  1  0
 11 12  2  0
 12 13  1  0
 13 14  2  0
 14 15  1  0
 15 16  2  0
 15 17  2  0
 15 18  1  0
 18 19  1  0
 19 20  1  0
 20 21  1  0
 21 22  1  0
 22 23  1  0
 14 24  1  0
 24 25  2  0
  9  4  1  0
 25 11  1  0
 23 18  1  0
  5 26  1  0
  6 27  1  0
  7 28  1  0
  8 29  1  0
 10 30  1  0
 12 31  1  0
 13 32  1  0
 19 33  1  0
 19 34  1  0
 20 35  1  0
 20 36  1  0
 21 37  1  0
 21 38  1  0
 22 39  1  0
 22 40  1  0
 23 41  1  0
 23 42  1  0
 24 43  1  0
 25 44  1  0
M  CHG  1   3  -1
M  END
>  <UniqueID>  (41) 
40

>  <SMILES>  (41) 
O=C([N-]c1ccccc1O)c1ccc(S(=O)(=O)N2CCCCC2)cc1

>  <Energy>  (41) 
54.500899297650655

>  <Genealogy>  (41) 
O=C([N-]c1ccccc1O)c1ccc(S(=O)(=O)N2CCCCC2)cc1 (protonated)
O=C([N-]c1ccccc1O)c1ccc(S(=O)(=O)N2CCCCC2)cc1 (3D coordinates assigned)
O=C([N-]c1ccccc1O)c1ccc(S(=O)(=O)N2CCCCC2)cc1 (nonaromatic ring conformer: 54.500899297650655 kcal/mol)

>  <smiles>  (41) 
O=C(Nc1ccccc1O)c1ccc(S(=O)(=O)N2CCCCC2)cc1

>  <score_type>  (41) 
oracle

>  <origin>  (41) 
adgpu

>  <m_score__min__energy>  (41) 
-12.85

>  <m_primary>  (41) 
energy

$$$$
41:0
     RDKit          3D

 57 61  0  0  0  0  0  0  0  0999 V2000
   -4.0870   25.5060  -30.0940 O   0  0  0  0  0  0  0  0  0  0  0  0
   -3.6750   24.4170  -30.5710 C   0  0  0  0  0  0  0  0  0  0  0  0
   -4.4520   23.7500  -31.5730 N   0  0  0  0  0  0  0  0  0  0  0  0
   -4.4740   22.3290  -31.7650 C   0  0  0  0  0  0  0  0  0  0  0  0
   -3.7390   21.4680  -30.9300 C   0  0  0  0  0  0  0  0  0  0  0  0
   -3.7670   20.0870  -31.1420 C   0  0  0  0  0  0  0  0  0  0  0  0
   -4.5340   19.5550  -32.1880 C   0  0  0  0  0  0  0  0  0  0  0  0
   -5.2580   20.4050  -33.0330 C   0  0  0  0  0  0  0  0  0  0  0  0
   -5.2030   21.7940  -32.8360 C   0  0  0  0  0  0  0  0  0  0  0  0
   -5.9890   19.8220  -34.2100 C   0  0  0  0  0  0  0  0  0  0  0  0
   -6.5160   18.3740  -33.9780 C   0  0  0  0  0  0  0  0  0  0  0  0
   -6.0000   17.6880  -32.7650 N   0  0  0  0  0  0  0  0  0  0  0  0
   -6.9010   17.8270  -31.5990 C   0  0  0  0  0  0  0  0  0  0  0  0
   -7.8520   18.9790  -31.7930 C   0  0  0  0  0  0  0  0  0  0  0  0
   -7.5610   20.2420  -31.2490 C   0  0  0  0  0  0  0  0  0  0  0  0
   -8.4450   21.3030  -31.4420 C   0  0  0  0  0  0  0  0  0  0  0  0
   -9.6060   21.1000  -32.1910 C   0  0  0  0  0  0  0  0  0  0  0  0
   -9.8720   19.8750  -32.7220 N   0  0  0  0  0  0  0  0  0  0  0  0
   -9.0310   18.8230  -32.5430 C   0  0  0  0  0  0  0  0  0  0  0  0
   -4.6140   18.0780  -32.4360 C   0  0  0  0  0  0  0  0  0  0  0  0
   -2.4410   23.8680  -30.0990 N   0  0  0  0  0  0  0  0  0  0  0  0
   -1.9370   24.0530  -28.7690 C   0  0  0  0  0  0  0  0  0  0  0  0
   -2.0130   22.9910  -27.8670 C   0  0  0  0  0  0  0  0  0  0  0  0
   -1.5690   23.1490  -26.5570 C   0  0  0  0  0  0  0  0  0  0  0  0
   -1.0010   24.3570  -26.1370 C   0  0  0  0  0  0  0  0  0  0  0  0
   -0.5070   24.4790  -24.4510 Cl  0  0  0  0  0  0  0  0  0  0  0  0
   -0.8550   25.4260  -27.0540 C   0  0  0  0  0  0  0  0  0  0  0  0
   -0.0750   26.9540  -26.5670 S   0  0  0  0  0  0  0  0  0  0  0  0
   -0.3160   28.0060  -27.6100 O   0  0  0  0  0  0  0  0  0  0  0  0
    1.4110   26.7530  -26.4740 O   0  0  0  0  0  0  0  0  0  0  0  0
   -0.6630   27.5880  -24.9950 C   0  0  0  0  0  0  0  0  0  0  0  0
    0.3960   28.3260  -24.1930 C   0  0  0  0  0  0  0  0  0  0  0  0
   -0.7330   29.0980  -24.8530 C   0  0  0  0  0  0  0  0  0  0  0  0
   -1.3460   25.2680  -28.3690 C   0  0  0  0  0  0  0  0  0  0  0  0
   -1.2310   26.3050  -29.2910 O   0  0  0  0  0  0  0  0  0  0  0  0
   -3.1396   21.8836  -30.1066 H   0  0  0  0  0  0  0  0  0  0  0  0
   -3.1877   19.4179  -30.4887 H   0  0  0  0  0  0  0  0  0  0  0  0
   -5.7348   22.4659  -33.5257 H   0  0  0  0  0  0  0  0  0  0  0  0
   -6.8481   20.4698  -34.4385 H   0  0  0  0  0  0  0  0  0  0  0  0
   -5.2660   19.7677  -35.0372 H   0  0  0  0  0  0  0  0  0  0  0  0
   -7.6121   18.4217  -33.8990 H   0  0  0  0  0  0  0  0  0  0  0  0
   -6.1562   17.7830  -34.8331 H   0  0  0  0  0  0  0  0  0  0  0  0
   -7.4787   16.8989  -31.4769 H   0  0  0  0  0  0  0  0  0  0  0  0
   -6.2920   18.0192  -30.7034 H   0  0  0  0  0  0  0  0  0  0  0  0
   -6.6370   20.3932  -30.6717 H   0  0  0  0  0  0  0  0  0  0  0  0
   -8.2298   22.2907  -31.0083 H   0  0  0  0  0  0  0  0  0  0  0  0
  -10.3073   21.9319  -32.3523 H   0  0  0  0  0  0  0  0  0  0  0  0
   -9.2733   17.8459  -32.9864 H   0  0  0  0  0  0  0  0  0  0  0  0
   -4.2904   17.5403  -31.5326 H   0  0  0  0  0  0  0  0  0  0  0  0
   -3.9595   17.8212  -33.2820 H   0  0  0  0  0  0  0  0  0  0  0  0
   -2.4256   22.0246  -28.1925 H   0  0  0  0  0  0  0  0  0  0  0  0
   -1.6656   22.3161  -25.8451 H   0  0  0  0  0  0  0  0  0  0  0  0
   -1.3739   26.7693  -24.8098 H   0  0  0  0  0  0  0  0  0  0  0  0
    0.4267   28.2248  -23.0981 H   0  0  0  0  0  0  0  0  0  0  0  0
    1.4944   28.3799  -24.2187 H   0  0  0  0  0  0  0  0  0  0  0  0
   -1.5199   29.5564  -24.2360 H   0  0  0  0  0  0  0  0  0  0  0  0
   -0.7907   29.9431  -25.5548 H   0  0  0  0  0  0  0  0  0  0  0  0
  1  2  2  0
  2  3  1  0
  3  4  1  0
  4  5  2  0
  5  6  1  0
  6  7  2  0
  7  8  1  0
  8  9  2  0
  8 10  1  0
 10 11  1  0
 11 12  1  0
 12 13  1  0
 13 14  1  0
 14 15  2  0
 15 16  1  0
 16 17  2  0
 17 18  1  0
 18 19  2  0
 12 20  1  0
  2 21  1  0
 21 22  1  0
 22 23  2  0
 23 24  1  0
 24 25  2  0
 25 26  1  0
 25 27  1  0
 27 28  1  0
 28 29  2  0
 28 30  2  0
 28 31  1  0
 31 32  1  0
 32 33  1  0
 27 34  2  0
 34 35  1  0
  9  4  1  0
 19 14  1  0
 34 22  1  0
 20  7  1  0
 33 31  1  0
  5 36  1  0
  6 37  1  0
  9 38  1  0
 10 39  1  0
 10 40  1  0
 11 41  1  0
 11 42  1  0
 13 43  1  0
 13 44  1  0
 15 45  1  0
 16 46  1  0
 17 47  1  0
 19 48  1  0
 20 49  1  0
 20 50  1  0
 23 51  1  0
 24 52  1  0
 31 53  1  0
 32 54  1  0
 32 55  1  0
 33 56  1  0
 33 57  1  0
M  CHG  3   3  -1  21  -1  35  -1
M  END
>  <UniqueID>  (42) 
41

>  <SMILES>  (42) 
O=C([N-]c1ccc2c(c1)CCN(Cc1cccnc1)C2)[N-]c1ccc(Cl)c(S(=O)(=O)C2CC2)c1[O-]

>  <Energy>  (42) 
343.65718058885824

>  <Genealogy>  (42) 
O=C([N-]c1ccc2c(c1)CCN(Cc1cccnc1)C2)[N-]c1ccc(Cl)c(S(=O)(=O)C2CC2)c1[O-] (protonated)
O=C([N-]c1ccc2c(c1)CCN(Cc1cccnc1)C2)[N-]c1ccc(Cl)c(S(=O)(=O)C2CC2)c1[O-] (3D coordinates assigned)
O=C([N-]c1ccc2c(c1)CCN(Cc1cccnc1)C2)[N-]c1ccc(Cl)c(S(=O)(=O)C2CC2)c1[O-] (nonaromatic ring conformer: 343.65718058885824 kcal/mol)

>  <smiles>  (42) 
O=C(Nc1ccc2c(c1)CCN(Cc1cccnc1)C2)Nc1ccc(Cl)c(S(=O)(=O)C2CC2)c1O

>  <score_type>  (42) 
oracle

>  <origin>  (42) 
adgpu

>  <m_score__min__energy>  (42) 
-16.940000000000001

>  <m_primary>  (42) 
energy

$$$$
42:0
     RDKit          3D

 49 52  0  0  0  0  0  0  0  0999 V2000
   -9.5140   19.8640  -32.6870 C   0  0  0  0  0  0  0  0  0  0  0  0
   -8.3850   20.7180  -32.1730 C   0  0  0  0  0  0  0  0  0  0  0  0
   -8.6430   22.0740  -31.9100 C   0  0  0  0  0  0  0  0  0  0  0  0
   -7.6480   22.9090  -31.4040 C   0  0  0  0  0  0  0  0  0  0  0  0
   -6.3680   22.4060  -31.1350 C   0  0  0  0  0  0  0  0  0  0  0  0
   -5.2940   23.2740  -30.5990 C   0  0  0  0  0  0  0  0  0  0  0  0
   -4.5970   23.1210  -29.4140 C   0  0  0  0  0  0  0  0  0  0  0  0
   -3.7220   24.1940  -29.4020 C   0  0  0  0  0  0  0  0  0  0  0  0
   -2.7270   24.5270  -28.3540 C   0  0  0  0  0  0  0  0  0  0  0  0
   -1.3590   24.6670  -28.6590 C   0  0  0  0  0  0  0  0  0  0  0  0
   -0.4370   24.9820  -27.6550 C   0  0  0  0  0  0  0  0  0  0  0  0
   -0.8670   25.1630  -26.3400 C   0  0  0  0  0  0  0  0  0  0  0  0
   -2.2200   25.0270  -26.0230 C   0  0  0  0  0  0  0  0  0  0  0  0
   -3.1460   24.7120  -27.0220 C   0  0  0  0  0  0  0  0  0  0  0  0
   -3.9060   24.9260  -30.5200 N   0  0  0  0  0  0  0  0  0  0  0  0
   -4.8470   24.3500  -31.2070 O   0  0  0  0  0  0  0  0  0  0  0  0
   -6.1050   21.0510  -31.3810 C   0  0  0  0  0  0  0  0  0  0  0  0
   -7.0930   20.1960  -31.8990 C   0  0  0  0  0  0  0  0  0  0  0  0
   -6.6350   18.4990  -32.1850 S   0  0  0  0  0  0  0  0  0  0  0  0
   -7.6010   17.8230  -33.1170 O   0  0  0  0  0  0  0  0  0  0  0  0
   -6.6940   17.7660  -30.8740 O   0  0  0  0  0  0  0  0  0  0  0  0
   -5.0190   18.3650  -32.8380 N   0  0  0  0  0  0  0  0  0  0  0  0
   -4.9360   17.2330  -33.7840 C   0  0  0  0  0  0  0  0  0  0  0  0
   -3.5880   17.1980  -34.5380 C   0  0  0  0  0  0  0  0  0  0  0  0
   -2.5610   18.1530  -33.9210 C   0  0  0  0  0  0  0  0  0  0  0  0
   -3.1150   19.5860  -33.8430 C   0  0  0  0  0  0  0  0  0  0  0  0
   -4.6160   19.6180  -33.4960 C   0  0  0  0  0  0  0  0  0  0  0  0
  -10.0712   19.4426  -31.8373 H   0  0  0  0  0  0  0  0  0  0  0  0
  -10.1896   20.4791  -33.2996 H   0  0  0  0  0  0  0  0  0  0  0  0
   -9.1059   19.0465  -33.2996 H   0  0  0  0  0  0  0  0  0  0  0  0
   -9.6452   22.4828  -32.1063 H   0  0  0  0  0  0  0  0  0  0  0  0
   -7.8691   23.9698  -31.2146 H   0  0  0  0  0  0  0  0  0  0  0  0
   -4.7113   22.3308  -28.6573 H   0  0  0  0  0  0  0  0  0  0  0  0
   -1.0132   24.5277  -29.6939 H   0  0  0  0  0  0  0  0  0  0  0  0
    0.6295   25.0872  -27.9029 H   0  0  0  0  0  0  0  0  0  0  0  0
   -0.1401   25.4128  -25.5531 H   0  0  0  0  0  0  0  0  0  0  0  0
   -2.5579   25.1679  -24.9857 H   0  0  0  0  0  0  0  0  0  0  0  0
   -4.2106   24.6078  -26.7656 H   0  0  0  0  0  0  0  0  0  0  0  0
   -5.1045   20.6486  -31.1641 H   0  0  0  0  0  0  0  0  0  0  0  0
   -5.0524   16.2939  -33.2232 H   0  0  0  0  0  0  0  0  0  0  0  0
   -5.7357   17.3571  -34.5290 H   0  0  0  0  0  0  0  0  0  0  0  0
   -3.1874   16.1742  -34.5022 H   0  0  0  0  0  0  0  0  0  0  0  0
   -3.7698   17.5178  -35.5747 H   0  0  0  0  0  0  0  0  0  0  0  0
   -2.3134   17.8077  -32.9064 H   0  0  0  0  0  0  0  0  0  0  0  0
   -1.6634   18.1593  -34.5568 H   0  0  0  0  0  0  0  0  0  0  0  0
   -2.5616   20.1369  -33.0682 H   0  0  0  0  0  0  0  0  0  0  0  0
   -2.9900   20.0480  -34.8334 H   0  0  0  0  0  0  0  0  0  0  0  0
   -4.8132   20.4622  -32.8190 H   0  0  0  0  0  0  0  0  0  0  0  0
   -5.1938   19.7342  -34.4248 H   0  0  0  0  0  0  0  0  0  0  0  0
  1  2  1  0
  2  3  2  0
  3  4  1  0
  4  5  2  0
  5  6  1  0
  6  7  2  0
  7  8  1  0
  8  9  1  0
  9 10  2  0
 10 11  1  0
 11 12  2  0
 12 13  1  0
 13 14  2  0
  8 15  2  0
 15 16  1  0
  5 17  1  0
 17 18  2  0
 18 19  1  0
 19 20  2  0
 19 21  2  0
 19 22  1  0
 22 23  1  0
 23 24  1  0
 24 25  1  0
 25 26  1  0
 26 27  1  0
 18  2  1  0
 27 22  1  0
 16  6  1  0
 14  9  1  0
  1 28  1  0
  1 29  1  0
  1 30  1  0
  3 31  1  0
  4 32  1  0
  7 33  1  0
 10 34  1  0
 11 35  1  0
 12 36  1  0
 13 37  1  0
 14 38  1  0
 17 39  1  0
 23 40  1  0
 23 41  1  0
 24 42  1  0
 24 43  1  0
 25 44  1  0
 25 45  1  0
 26 46  1  0
 26 47  1  0
 27 48  1  0
 27 49  1  0
M  END
>  <UniqueID>  (43) 
42

>  <SMILES>  (43) 
Cc1ccc(-c2cc(-c3ccccc3)no2)cc1S(=O)(=O)N1CCCCC1

>  <Energy>  (43) 
90.2951121095779

>  <Genealogy>  (43) 
Cc1ccc(-c2cc(-c3ccccc3)no2)cc1S(=O)(=O)N1CCCCC1 (3D coordinates assigned)
Cc1ccc(-c2cc(-c3ccccc3)no2)cc1S(=O)(=O)N1CCCCC1 (nonaromatic ring conformer: 90.2951121095779 kcal/mol)

>  <smiles>  (43) 
Cc1ccc(-c2cc(-c3ccccc3)no2)cc1S(=O)(=O)N1CCCCC1

>  <score_type>  (43) 
oracle

>  <origin>  (43) 
adgpu

>  <m_score__min__energy>  (43) 
-10.67

>  <m_primary>  (43) 
energy

$$$$
43:0
     RDKit          3D

 54 57  0  0  0  0  0  0  0  0999 V2000
   -3.8840   22.3540  -32.8020 C   0  0  0  0  0  0  0  0  0  0  0  0
   -3.0870   22.2740  -31.5310 C   0  0  0  0  0  0  0  0  0  0  0  0
   -2.9720   23.2530  -30.5480 C   0  0  0  0  0  0  0  0  0  0  0  0
   -3.4880   24.5910  -30.5380 N   0  0  0  0  0  0  0  0  0  0  0  0
   -4.8730   24.9500  -30.6240 C   0  0  0  0  0  0  0  0  0  0  0  0
   -5.1950   26.1600  -30.4810 O   0  0  0  0  0  0  0  0  0  0  0  0
   -5.9270   23.9460  -30.8980 C   0  0  0  0  0  0  0  0  0  0  0  0
   -6.2730   23.0040  -29.9140 C   0  0  0  0  0  0  0  0  0  0  0  0
   -7.2080   22.0040  -30.1930 C   0  0  0  0  0  0  0  0  0  0  0  0
   -7.8240   21.9440  -31.4510 C   0  0  0  0  0  0  0  0  0  0  0  0
   -8.9210   20.6220  -31.8310 S   0  0  0  0  0  0  0  0  0  0  0  0
   -9.1690   19.8080  -30.5930 O   0  0  0  0  0  0  0  0  0  0  0  0
  -10.2350   21.1740  -32.3130 O   0  0  0  0  0  0  0  0  0  0  0  0
   -8.1920   19.6160  -33.0570 N   0  0  0  0  0  0  0  0  0  0  0  0
   -6.8670   20.1080  -33.4330 C   0  0  0  0  0  0  0  0  0  0  0  0
   -6.0750   18.9020  -33.9130 C   0  0  0  0  0  0  0  0  0  0  0  0
   -6.8030   17.6890  -33.3500 C   0  0  0  0  0  0  0  0  0  0  0  0
   -7.9790   18.2540  -32.5690 C   0  0  0  0  0  0  0  0  0  0  0  0
   -7.5080   22.9020  -32.4220 C   0  0  0  0  0  0  0  0  0  0  0  0
   -6.5730   23.9020  -32.1450 C   0  0  0  0  0  0  0  0  0  0  0  0
   -2.1790   22.6940  -29.5770 C   0  0  0  0  0  0  0  0  0  0  0  0
   -1.8070   23.2620  -28.5150 O   0  0  0  0  0  0  0  0  0  0  0  0
   -1.8010   21.4580  -29.9580 N   0  0  0  0  0  0  0  0  0  0  0  0
   -0.9060   20.5950  -29.2340 C   0  0  0  0  0  0  0  0  0  0  0  0
    0.4090   20.3950  -29.6860 C   0  0  0  0  0  0  0  0  0  0  0  0
    1.2790   19.5650  -28.9720 C   0  0  0  0  0  0  0  0  0  0  0  0
    0.8450   18.9380  -27.8000 C   0  0  0  0  0  0  0  0  0  0  0  0
   -0.4570   19.1430  -27.3390 C   0  0  0  0  0  0  0  0  0  0  0  0
   -1.3300   19.9740  -28.0500 C   0  0  0  0  0  0  0  0  0  0  0  0
   -2.3580   21.1960  -31.1400 N   0  0  0  0  0  0  0  0  0  0  0  0
   -2.1620   19.9650  -31.9120 C   0  0  0  0  0  0  0  0  0  0  0  0
   -4.9515   22.4612  -32.5593 H   0  0  0  0  0  0  0  0  0  0  0  0
   -3.5523   23.2234  -33.3887 H   0  0  0  0  0  0  0  0  0  0  0  0
   -3.7317   21.4361  -33.3887 H   0  0  0  0  0  0  0  0  0  0  0  0
   -5.8055   23.0543  -28.9196 H   0  0  0  0  0  0  0  0  0  0  0  0
   -7.4618   21.2609  -29.4227 H   0  0  0  0  0  0  0  0  0  0  0  0
   -6.9530   20.8509  -34.2396 H   0  0  0  0  0  0  0  0  0  0  0  0
   -6.3692   20.5960  -32.5821 H   0  0  0  0  0  0  0  0  0  0  0  0
   -6.0589   18.8650  -35.0123 H   0  0  0  0  0  0  0  0  0  0  0  0
   -5.0277   18.9415  -33.5790 H   0  0  0  0  0  0  0  0  0  0  0  0
   -7.1574   17.0400  -34.1644 H   0  0  0  0  0  0  0  0  0  0  0  0
   -6.1468   17.0745  -32.7161 H   0  0  0  0  0  0  0  0  0  0  0  0
   -8.8777   17.6441  -32.7429 H   0  0  0  0  0  0  0  0  0  0  0  0
   -7.7755   18.2483  -31.4880 H   0  0  0  0  0  0  0  0  0  0  0  0
   -7.9978   22.8670  -33.4063 H   0  0  0  0  0  0  0  0  0  0  0  0
   -6.3410   24.6598  -32.9078 H   0  0  0  0  0  0  0  0  0  0  0  0
    0.7552   20.8926  -30.6039 H   0  0  0  0  0  0  0  0  0  0  0  0
    2.3058   19.4052  -29.3328 H   0  0  0  0  0  0  0  0  0  0  0  0
    1.5295   18.2830  -27.2410 H   0  0  0  0  0  0  0  0  0  0  0  0
   -0.7968   18.6507  -26.4159 H   0  0  0  0  0  0  0  0  0  0  0  0
   -2.3521   20.1407  -27.6791 H   0  0  0  0  0  0  0  0  0  0  0  0
   -2.0271   19.1179  -31.2234 H   0  0  0  0  0  0  0  0  0  0  0  0
   -3.0429   19.7856  -32.5459 H   0  0  0  0  0  0  0  0  0  0  0  0
   -1.2689   20.0680  -32.5459 H   0  0  0  0  0  0  0  0  0  0  0  0
  1  2  1  0
  2  3  2  0
  3  4  1  0
  4  5  1  0
  5  6  2  0
  5  7  1  0
  7  8  2  0
  8  9  1  0
  9 10  2  0
 10 11  1  0
 11 12  2  0
 11 13  2  0
 11 14  1  0
 14 15  1  0
 15 16  1  0
 16 17  1  0
 17 18  1  0
 10 19  1  0
 19 20  2  0
  3 21  1  0
 21 22  2  0
 21 23  1  0
 23 24  1  0
 24 25  2  0
 25 26  1  0
 26 27  2  0
 27 28  1  0
 28 29  2  0
 23 30  1  0
 30 31  1  0
 30  2  1  0
 20  7  1  0
 29 24  1  0
 18 14  1  0
  1 32  1  0
  1 33  1  0
  1 34  1  0
  8 35  1  0
  9 36  1  0
 15 37  1  0
 15 38  1  0
 16 39  1  0
 16 40  1  0
 17 41  1  0
 17 42  1  0
 18 43  1  0
 18 44  1  0
 19 45  1  0
 20 46  1  0
 25 47  1  0
 26 48  1  0
 27 49  1  0
 28 50  1  0
 29 51  1  0
 31 52  1  0
 31 53  1  0
 31 54  1  0
M  CHG  1   4  -1
M  END
>  <UniqueID>  (44) 
43

>  <SMILES>  (44) 
Cc1c([N-]C(=O)c2ccc(S(=O)(=O)N3CCCC3)cc2)c(=O)n(-c2ccccc2)n1C

>  <Energy>  (44) 
105.44631664743575

>  <Genealogy>  (44) 
Cc1c([N-]C(=O)c2ccc(S(=O)(=O)N3CCCC3)cc2)c(=O)n(-c2ccccc2)n1C (protonated)
Cc1c([N-]C(=O)c2ccc(S(=O)(=O)N3CCCC3)cc2)c(=O)n(-c2ccccc2)n1C (3D coordinates assigned)
Cc1c([N-]C(=O)c2ccc(S(=O)(=O)N3CCCC3)cc2)c(=O)n(-c2ccccc2)n1C (nonaromatic ring conformer: 105.44631664743575 kcal/mol)

>  <smiles>  (44) 
Cc1c(NC(=O)c2ccc(S(=O)(=O)N3CCCC3)cc2)c(=O)n(-c2ccccc2)n1C

>  <score_type>  (44) 
oracle

>  <origin>  (44) 
adgpu

>  <m_score__min__energy>  (44) 
-12.300000000000001

>  <m_primary>  (44) 
energy

$$$$
44:0
     RDKit          3D

 31 32  0  0  0  0  0  0  0  0999 V2000
   -6.0500   18.9040  -34.1590 C   0  0  0  0  0  0  0  0  0  0  0  0
   -5.9390   20.2460  -33.6990 O   0  0  0  0  0  0  0  0  0  0  0  0
   -6.7300   20.8130  -32.6860 C   0  0  0  0  0  0  0  0  0  0  0  0
   -7.9510   20.2300  -32.2920 C   0  0  0  0  0  0  0  0  0  0  0  0
   -8.7190   20.8070  -31.2790 C   0  0  0  0  0  0  0  0  0  0  0  0
   -8.2820   21.9710  -30.6480 C   0  0  0  0  0  0  0  0  0  0  0  0
   -7.0760   22.5620  -31.0280 C   0  0  0  0  0  0  0  0  0  0  0  0
   -6.2910   21.9950  -32.0470 C   0  0  0  0  0  0  0  0  0  0  0  0
   -5.0020   22.6750  -32.4470 C   0  0  0  0  0  0  0  0  0  0  0  0
   -3.8980   22.3470  -31.4720 C   0  0  0  0  0  0  0  0  0  0  0  0
   -3.2350   23.1810  -30.5710 C   0  0  0  0  0  0  0  0  0  0  0  0
   -3.4980   24.5980  -30.2590 C   0  0  0  0  0  0  0  0  0  0  0  0
   -4.4400   25.1950  -30.8420 O   0  0  0  0  0  0  0  0  0  0  0  0
   -2.7220   25.2970  -29.3470 O   0  0  0  0  0  0  0  0  0  0  0  0
   -2.2430   22.4890  -29.9740 N   0  0  0  0  0  0  0  0  0  0  0  0
   -2.2470   21.2580  -30.4580 N   0  0  0  0  0  0  0  0  0  0  0  0
   -3.2340   21.1350  -31.3630 C   0  0  0  0  0  0  0  0  0  0  0  0
   -3.4780   19.8970  -32.1660 C   0  0  0  0  0  0  0  0  0  0  0  0
   -6.1062   18.2241  -33.2961 H   0  0  0  0  0  0  0  0  0  0  0  0
   -6.9599   18.7993  -34.7682 H   0  0  0  0  0  0  0  0  0  0  0  0
   -5.1697   18.6512  -34.7682 H   0  0  0  0  0  0  0  0  0  0  0  0
   -8.3019   19.3124  -32.7869 H   0  0  0  0  0  0  0  0  0  0  0  0
   -9.6699   20.3428  -30.9783 H   0  0  0  0  0  0  0  0  0  0  0  0
   -8.8884   22.4240  -29.8498 H   0  0  0  0  0  0  0  0  0  0  0  0
   -6.7367   23.4798  -30.5255 H   0  0  0  0  0  0  0  0  0  0  0  0
   -4.7101   22.3326  -33.4508 H   0  0  0  0  0  0  0  0  0  0  0  0
   -5.1622   23.7633  -32.4451 H   0  0  0  0  0  0  0  0  0  0  0  0
   -1.5680   20.5170  -30.1780 H   0  0  0  0  0  0  0  0  0  0  0  0
   -3.6455   19.0472  -31.4879 H   0  0  0  0  0  0  0  0  0  0  0  0
   -4.3652   20.0403  -32.8003 H   0  0  0  0  0  0  0  0  0  0  0  0
   -2.6028   19.6930  -32.8003 H   0  0  0  0  0  0  0  0  0  0  0  0
  1  2  1  0
  2  3  1  0
  3  4  2  0
  4  5  1  0
  5  6  2  0
  6  7  1  0
  7  8  2  0
  8  9  1  0
  9 10  1  0
 10 11  1  0
 11 12  1  0
 12 13  2  0
 12 14  1  0
 11 15  2  0
 15 16  1  0
 16 17  1  0
 17 18  1  0
  8  3  1  0
 17 10  2  0
  1 19  1  0
  1 20  1  0
  1 21  1  0
  4 22  1  0
  5 23  1  0
  6 24  1  0
  7 25  1  0
  9 26  1  0
  9 27  1  0
 16 28  1  0
 18 29  1  0
 18 30  1  0
 18 31  1  0
M  CHG  1  14  -1
M  END
>  <UniqueID>  (45) 
44

>  <SMILES>  (45) 
COc1ccccc1Cc1c(C(=O)[O-])n[nH]c1C

>  <Energy>  (45) 
59.639596973099195

>  <Genealogy>  (45) 
COc1ccccc1Cc1c(C(=O)[O-])n[nH]c1C (protonated)
COc1ccccc1Cc1c(C(=O)[O-])n[nH]c1C (3D coordinates assigned)
COc1ccccc1Cc1c(C(=O)[O-])n[nH]c1C (optimized conformer: 59.639596973099195 kcal/mol)

>  <smiles>  (45) 
COc1ccccc1Cc1c(C(=O)O)n[nH]c1C

>  <score_type>  (45) 
oracle

>  <origin>  (45) 
adgpu

>  <m_score__min__energy>  (45) 
-8.3300000000000001

>  <m_primary>  (45) 
energy

$$$$
45:0
     RDKit          3D

 44 47  0  0  0  0  0  0  0  0999 V2000
   -6.5640   19.3130  -35.8880 H   0  0  0  0  0  0  0  0  0  0  0  0
   -6.0980   18.8050  -35.1040 N   0  0  0  0  0  0  0  0  0  0  0  0
   -6.3580   19.0970  -33.8700 C   0  0  0  0  0  0  0  0  0  0  0  0
   -7.2400   20.0410  -33.4970 N   0  0  0  0  0  0  0  0  0  0  0  0
   -7.2710   20.0380  -32.1740 N   0  0  0  0  0  0  0  0  0  0  0  0
   -7.8710   20.6710  -31.5990 H   0  0  0  0  0  0  0  0  0  0  0  0
   -6.4210   19.1080  -31.6950 C   0  0  0  0  0  0  0  0  0  0  0  0
   -6.2412   18.8900  -30.6319 H   0  0  0  0  0  0  0  0  0  0  0  0
   -5.8130   18.4740  -32.7620 C   0  0  0  0  0  0  0  0  0  0  0  0
   -4.8060   17.3910  -32.7130 C   0  0  0  0  0  0  0  0  0  0  0  0
   -5.2140   16.0920  -32.3600 C   0  0  0  0  0  0  0  0  0  0  0  0
   -6.2558   15.9109  -32.0570 H   0  0  0  0  0  0  0  0  0  0  0  0
   -4.3070   15.0300  -32.3910 C   0  0  0  0  0  0  0  0  0  0  0  0
   -4.6351   14.0196  -32.1057 H   0  0  0  0  0  0  0  0  0  0  0  0
   -2.9860   15.2480  -32.7830 C   0  0  0  0  0  0  0  0  0  0  0  0
   -2.2778   14.4072  -32.8219 H   0  0  0  0  0  0  0  0  0  0  0  0
   -2.5630   16.5340  -33.1260 C   0  0  0  0  0  0  0  0  0  0  0  0
   -1.5231   16.6991  -33.4445 H   0  0  0  0  0  0  0  0  0  0  0  0
   -3.4510   17.6150  -33.0680 C   0  0  0  0  0  0  0  0  0  0  0  0
   -2.9560   18.8920  -33.3690 O   0  0  0  0  0  0  0  0  0  0  0  0
   -3.3270   20.0690  -32.7020 C   0  0  0  0  0  0  0  0  0  0  0  0
   -3.8200   21.1410  -33.4530 C   0  0  0  0  0  0  0  0  0  0  0  0
   -3.8753   21.0605  -34.5487 H   0  0  0  0  0  0  0  0  0  0  0  0
   -4.2430   22.3140  -32.8210 C   0  0  0  0  0  0  0  0  0  0  0  0
   -4.6378   23.1483  -33.4194 H   0  0  0  0  0  0  0  0  0  0  0  0
   -4.1650   22.4290  -31.4270 C   0  0  0  0  0  0  0  0  0  0  0  0
   -4.7520   23.8730  -30.6100 S   0  0  0  0  0  0  0  0  0  0  0  0
   -5.6460   24.6330  -31.5480 O   0  0  0  0  0  0  0  0  0  0  0  0
   -5.5360   23.5140  -29.3770 O   0  0  0  0  0  0  0  0  0  0  0  0
   -3.4090   24.8800  -30.1610 N   0  0  0  0  0  0  0  0  0  0  0  0
   -2.6190   24.7080  -29.1410 C   0  0  0  0  0  0  0  0  0  0  0  0
   -1.5980   25.5910  -28.9570 N   0  0  0  0  0  0  0  0  0  0  0  0
   -0.7210   25.4840  -27.9250 C   0  0  0  0  0  0  0  0  0  0  0  0
    0.0910   26.2179  -27.8151 H   0  0  0  0  0  0  0  0  0  0  0  0
   -0.8500   24.4430  -27.0040 C   0  0  0  0  0  0  0  0  0  0  0  0
    0.0210   24.3300  -25.9710 F   0  0  0  0  0  0  0  0  0  0  0  0
   -1.8870   23.5230  -27.1570 C   0  0  0  0  0  0  0  0  0  0  0  0
   -2.0046   22.7015  -26.4350 H   0  0  0  0  0  0  0  0  0  0  0  0
   -2.7760   23.6450  -28.2270 C   0  0  0  0  0  0  0  0  0  0  0  0
   -3.5917   22.9184  -28.3560 H   0  0  0  0  0  0  0  0  0  0  0  0
   -3.6380   21.3730  -30.6730 C   0  0  0  0  0  0  0  0  0  0  0  0
   -3.5578   21.4662  -29.5799 H   0  0  0  0  0  0  0  0  0  0  0  0
   -3.2140   20.2020  -31.3050 C   0  0  0  0  0  0  0  0  0  0  0  0
   -2.7901   19.3804  -30.7090 H   0  0  0  0  0  0  0  0  0  0  0  0
  1  2  1  0
  2  3  2  3
  3  4  1  0
  4  5  1  0
  5  6  1  0
  5  7  1  0
  7  8  1  0
  7  9  2  0
  9 10  1  0
 10 11  2  0
 11 12  1  0
 11 13  1  0
 13 14  1  0
 13 15  2  0
 15 16  1  0
 15 17  1  0
 17 18  1  0
 17 19  2  0
 19 20  1  0
 20 21  1  0
 21 22  2  0
 22 23  1  0
 22 24  1  0
 24 25  1  0
 24 26  2  0
 26 27  1  0
 27 28  2  0
 27 29  2  0
 27 30  1  0
 30 31  2  0
 31 32  1  0
 32 33  1  0
 33 34  1  0
 33 35  2  0
 35 36  1  0
 35 37  1  0
 37 38  1  0
 37 39  2  0
 39 40  1  0
 26 41  1  0
 41 42  1  0
 41 43  2  0
 43 44  1  0
  9  3  1  0
 19 10  1  0
 43 21  1  0
 39 31  1  0
M  CHG  2   4  -1  32  -1
M  END
>  <UniqueID>  (46) 
45

>  <SMILES>  (46) 
N=c1[n-][nH]cc1-c1ccccc1Oc1ccc(S(=O)(=O)/N=c2\ccc(F)c[n-]2)cc1

>  <Energy>  (46) 
95.99521002717894

>  <Genealogy>  (46) 
N=c1[n-][nH]cc1-c1ccccc1Oc1ccc(S(=O)(=O)N=c2ccc(F)c[n-]2)cc1 (protonated)
N=c1[n-][nH]cc1-c1ccccc1Oc1ccc(S(=O)(=O)/N=c2\ccc(F)c[n-]2)cc1 (cis-trans isomerization)
N=c1[n-][nH]cc1-c1ccccc1Oc1ccc(S(=O)(=O)/N=c2\ccc(F)c[n-]2)cc1 (3D coordinates assigned)
N=c1[n-][nH]cc1-c1ccccc1Oc1ccc(S(=O)(=O)/N=c2\ccc(F)c[n-]2)cc1 (optimized conformer: 95.99521002717894 kcal/mol)

>  <smiles>  (46) 
N=c1[nH][nH]cc1-c1ccccc1Oc1ccc(S(=O)(=O)N=c2ccc(F)c[nH]2)cc1

>  <score_type>  (46) 
oracle

>  <origin>  (46) 
adgpu

>  <m_score__min__energy>  (46) 
-11.119999999999999

>  <m_primary>  (46) 
energy

$$$$
46:0
     RDKit          3D

 47 49  0  0  0  0  0  0  0  0999 V2000
   -3.0650   22.1670  -31.7280 H   0  0  0  0  0  0  0  0  0  0  0  0
   -2.3110   22.1750  -32.4040 O   0  0  0  0  0  0  0  0  0  0  0  0
   -1.7760   20.9980  -32.9210 C   0  0  0  0  0  0  0  0  0  0  0  0
   -0.3840   20.8420  -32.9820 C   0  0  0  0  0  0  0  0  0  0  0  0
    0.2704   21.6649  -32.6586 H   0  0  0  0  0  0  0  0  0  0  0  0
    0.1830   19.6480  -33.4510 C   0  0  0  0  0  0  0  0  0  0  0  0
    1.6750   19.4960  -33.5300 C   0  0  0  0  0  0  0  0  0  0  0  0
    2.0935   19.4534  -32.5136 H   0  0  0  0  0  0  0  0  0  0  0  0
    1.9211   18.5681  -34.0671 H   0  0  0  0  0  0  0  0  0  0  0  0
    2.1032   20.3552  -34.0671 H   0  0  0  0  0  0  0  0  0  0  0  0
   -0.6570   18.6190  -33.8930 C   0  0  0  0  0  0  0  0  0  0  0  0
   -0.2217   17.6896  -34.2889 H   0  0  0  0  0  0  0  0  0  0  0  0
   -2.0450   18.7660  -33.8340 C   0  0  0  0  0  0  0  0  0  0  0  0
   -2.6939   17.9403  -34.1613 H   0  0  0  0  0  0  0  0  0  0  0  0
   -2.6200   19.9550  -33.3620 C   0  0  0  0  0  0  0  0  0  0  0  0
   -4.0950   20.0650  -33.3100 C   0  0  0  0  0  0  0  0  0  0  0  0
   -4.7030   21.0720  -32.6300 N   0  0  0  0  0  0  0  0  0  0  0  0
   -6.0490   20.9790  -32.6900 C   0  0  0  0  0  0  0  0  0  0  0  0
   -6.8690   21.7960  -32.1010 N   0  0  0  0  0  0  0  0  0  0  0  0
   -6.5140   22.9820  -31.3720 C   0  0  0  0  0  0  0  0  0  0  0  0
   -7.5370   23.7660  -30.8300 C   0  0  0  0  0  0  0  0  0  0  0  0
   -8.5862   23.4675  -30.9715 H   0  0  0  0  0  0  0  0  0  0  0  0
   -7.2380   24.9240  -30.1110 C   0  0  0  0  0  0  0  0  0  0  0  0
   -8.0501   25.5211  -29.6706 H   0  0  0  0  0  0  0  0  0  0  0  0
   -5.9110   25.3270  -29.9490 C   0  0  0  0  0  0  0  0  0  0  0  0
   -5.6783   26.2259  -29.3592 H   0  0  0  0  0  0  0  0  0  0  0  0
   -4.8690   24.5840  -30.5400 C   0  0  0  0  0  0  0  0  0  0  0  0
   -3.4880   24.9670  -30.4440 N   0  0  0  0  0  0  0  0  0  0  0  0
   -2.5740   24.7560  -29.3640 C   0  0  0  0  0  0  0  0  0  0  0  0
   -1.8110   25.6740  -28.9690 O   0  0  0  0  0  0  0  0  0  0  0  0
   -2.5110   23.4060  -28.7130 C   0  0  0  0  0  0  0  0  0  0  0  0
   -1.6889   23.3953  -27.9822 H   0  0  0  0  0  0  0  0  0  0  0  0
   -3.4698   23.2099  -28.2109 H   0  0  0  0  0  0  0  0  0  0  0  0
   -2.2780   22.3530  -29.7200 N   0  0  0  0  0  0  0  0  0  0  0  0
   -0.8640   21.9390  -29.7330 C   0  0  0  0  0  0  0  0  0  0  0  0
   -0.5033   21.8334  -28.6992 H   0  0  0  0  0  0  0  0  0  0  0  0
   -0.7689   20.9753  -30.2548 H   0  0  0  0  0  0  0  0  0  0  0  0
   -0.2641   22.6992  -30.2548 H   0  0  0  0  0  0  0  0  0  0  0  0
   -3.1240   21.1880  -29.4310 C   0  0  0  0  0  0  0  0  0  0  0  0
   -3.2153   21.0623  -28.3420 H   0  0  0  0  0  0  0  0  0  0  0  0
   -4.1219   21.3423  -29.8672 H   0  0  0  0  0  0  0  0  0  0  0  0
   -2.6685   20.2868  -29.8672 H   0  0  0  0  0  0  0  0  0  0  0  0
   -5.1790   23.4110  -31.2410 C   0  0  0  0  0  0  0  0  0  0  0  0
   -4.3705   22.8185  -31.6941 H   0  0  0  0  0  0  0  0  0  0  0  0
   -6.5440   19.6320  -33.5510 S   0  0  0  0  0  0  0  0  0  0  0  0
   -4.9690   19.1470  -33.8920 C   0  0  0  0  0  0  0  0  0  0  0  0
   -4.6790   18.2594  -34.4734 H   0  0  0  0  0  0  0  0  0  0  0  0
  1  2  1  0
  2  3  1  0
  3  4  2  0
  4  5  1  0
  4  6  1  0
  6  7  1  0
  7  8  1  0
  7  9  1  0
  7 10  1  0
  6 11  2  0
 11 12  1  0
 11 13  1  0
 13 14  1  0
 13 15  2  0
 15 16  1  0
 16 17  1  0
 17 18  1  0
 18 19  2  0
 19 20  1  0
 20 21  2  0
 21 22  1  0
 21 23  1  0
 23 24  1  0
 23 25  2  0
 25 26  1  0
 25 27  1  0
 27 28  1  0
 28 29  1  0
 29 30  2  0
 29 31  1  0
 31 32  1  0
 31 33  1  0
 31 34  1  0
 34 35  1  0
 35 36  1  0
 35 37  1  0
 35 38  1  0
 34 39  1  0
 39 40  1  0
 39 41  1  0
 39 42  1  0
 27 43  2  0
 43 44  1  0
 18 45  1  0
 45 46  1  0
 46 47  1  0
 15  3  1  0
 46 16  2  0
 43 20  1  0
M  CHG  2  17  -1  28  -1
M  END
>  <UniqueID>  (47) 
46

>  <SMILES>  (47) 
Cc1ccc(-c2cs/c(=N/c3cccc([N-]C(=O)CN(C)C)c3)[n-]2)c(O)c1

>  <Energy>  (47) 
90.99488876544324

>  <Genealogy>  (47) 
Cc1ccc(-c2csc(=Nc3cccc([N-]C(=O)CN(C)C)c3)[n-]2)c(O)c1 (protonated)
Cc1ccc(-c2cs/c(=N/c3cccc([N-]C(=O)CN(C)C)c3)[n-]2)c(O)c1 (cis-trans isomerization)
Cc1ccc(-c2cs/c(=N/c3cccc([N-]C(=O)CN(C)C)c3)[n-]2)c(O)c1 (3D coordinates assigned)
Cc1ccc(-c2cs/c(=N/c3cccc([N-]C(=O)CN(C)C)c3)[n-]2)c(O)c1 (optimized conformer: 90.99488876544324 kcal/mol)

>  <smiles>  (47) 
Cc1ccc(-c2csc(=Nc3cccc(NC(=O)CN(C)C)c3)[nH]2)c(O)c1

>  <score_type>  (47) 
oracle

>  <origin>  (47) 
adgpu

>  <m_score__min__energy>  (47) 
-9.25

>  <m_primary>  (47) 
energy

$$$$
47:0
     RDKit          3D

 66 70  0  0  0  0  0  0  0  0999 V2000
   -1.4760   17.1220  -35.2560 C   0  0  0  0  0  0  0  0  0  0  0  0
   -2.3630   17.8930  -34.3250 C   0  0  0  0  0  0  0  0  0  0  0  0
   -1.9420   19.1330  -33.7950 C   0  0  0  0  0  0  0  0  0  0  0  0
   -2.7470   19.8390  -32.8770 C   0  0  0  0  0  0  0  0  0  0  0  0
   -2.2810   21.1590  -32.3270 C   0  0  0  0  0  0  0  0  0  0  0  0
   -3.9770   19.2650  -32.4910 C   0  0  0  0  0  0  0  0  0  0  0  0
   -4.3660   18.0500  -33.0040 C   0  0  0  0  0  0  0  0  0  0  0  0
   -3.5870   17.3410  -33.9130 C   0  0  0  0  0  0  0  0  0  0  0  0
   -5.8680   17.5590  -32.3140 S   0  0  0  0  0  0  0  0  0  0  0  0
   -5.7100   16.3250  -31.4710 O   0  0  0  0  0  0  0  0  0  0  0  0
   -6.9180   17.3620  -33.3730 O   0  0  0  0  0  0  0  0  0  0  0  0
   -6.1570   18.9660  -31.3160 N   0  0  2  0  0  0  0  0  0  0  0  0
   -7.3840   19.6680  -31.7460 C   0  0  0  0  0  0  0  0  0  0  0  0
   -7.0930   20.7830  -32.7820 C   0  0  0  0  0  0  0  0  0  0  0  0
   -7.2630   22.1510  -32.2430 N   0  0  0  0  0  0  0  0  0  0  0  0
   -7.6440   22.1800  -30.8060 C   0  0  0  0  0  0  0  0  0  0  0  0
   -6.6170   22.9090  -29.9270 C   0  0  0  0  0  0  0  0  0  0  0  0
   -6.3970   24.3490  -30.4330 C   0  0  0  0  0  0  0  0  0  0  0  0
   -5.2580   25.0080  -29.7560 N   0  0  0  0  0  0  0  0  0  0  0  0
   -4.9890   24.5690  -28.3710 C   0  0  0  0  0  0  0  0  0  0  0  0
   -3.8100   23.6310  -28.3190 C   0  0  0  0  0  0  0  0  0  0  0  0
   -3.9780   22.3280  -27.7970 C   0  0  0  0  0  0  0  0  0  0  0  0
   -2.8780   21.4780  -27.7850 C   0  0  0  0  0  0  0  0  0  0  0  0
   -2.7510   20.1820  -27.3380 C   0  0  0  0  0  0  0  0  0  0  0  0
   -1.4260   19.8520  -27.5940 C   0  0  0  0  0  0  0  0  0  0  0  0
   -0.8000   20.8730  -28.1520 O   0  0  0  0  0  0  0  0  0  0  0  0
   -1.6610   21.8570  -28.2740 C   0  0  0  0  0  0  0  0  0  0  0  0
   -1.4480   23.1280  -28.8190 C   0  0  0  0  0  0  0  0  0  0  0  0
   -0.1060   23.5350  -29.3530 C   0  0  0  0  0  0  0  0  0  0  0  0
   -2.5450   24.0250  -28.8380 C   0  0  0  0  0  0  0  0  0  0  0  0
   -2.3820   25.2990  -29.3770 O   0  0  0  0  0  0  0  0  0  0  0  0
   -6.3430   24.4440  -31.9830 C   0  0  0  0  0  0  0  0  0  0  0  0
   -6.1700   23.0690  -32.6380 C   0  0  0  0  0  0  0  0  0  0  0  0
   -4.9690   19.7760  -31.5190 C   0  0  0  0  0  0  0  0  0  0  0  0
   -4.7700   20.8300  -30.8570 O   0  0  0  0  0  0  0  0  0  0  0  0
   -0.7731   16.5110  -34.6708 H   0  0  0  0  0  0  0  0  0  0  0  0
   -2.0913   16.4668  -35.8901 H   0  0  0  0  0  0  0  0  0  0  0  0
   -0.9129   17.8225  -35.8901 H   0  0  0  0  0  0  0  0  0  0  0  0
   -0.9732   19.5536  -34.1025 H   0  0  0  0  0  0  0  0  0  0  0  0
   -2.2936   21.1232  -31.2277 H   0  0  0  0  0  0  0  0  0  0  0  0
   -1.2573   21.3606  -32.6755 H   0  0  0  0  0  0  0  0  0  0  0  0
   -2.9512   21.9586  -32.6755 H   0  0  0  0  0  0  0  0  0  0  0  0
   -3.9229   16.3681  -34.3010 H   0  0  0  0  0  0  0  0  0  0  0  0
   -6.2190   18.6670  -30.3140 H   0  0  0  0  0  0  0  0  0  0  0  0
   -8.0701   18.9363  -32.1975 H   0  0  0  0  0  0  0  0  0  0  0  0
   -7.8284   20.1419  -30.8584 H   0  0  0  0  0  0  0  0  0  0  0  0
   -6.0552   20.6726  -33.1297 H   0  0  0  0  0  0  0  0  0  0  0  0
   -7.8219   20.6644  -33.5972 H   0  0  0  0  0  0  0  0  0  0  0  0
   -8.6130   22.6918  -30.7106 H   0  0  0  0  0  0  0  0  0  0  0  0
   -7.6938   21.1377  -30.4579 H   0  0  0  0  0  0  0  0  0  0  0  0
   -6.9858   22.9418  -28.8912 H   0  0  0  0  0  0  0  0  0  0  0  0
   -5.6613   22.3664  -29.9727 H   0  0  0  0  0  0  0  0  0  0  0  0
   -7.2893   24.9252  -30.1472 H   0  0  0  0  0  0  0  0  0  0  0  0
   -4.4000   24.8270  -30.3280 H   0  0  0  0  0  0  0  0  0  0  0  0
   -4.7742   25.4510  -27.7497 H   0  0  0  0  0  0  0  0  0  0  0  0
   -5.8754   24.0377  -27.9942 H   0  0  0  0  0  0  0  0  0  0  0  0
   -4.9529   21.9956  -27.4107 H   0  0  0  0  0  0  0  0  0  0  0  0
   -3.5257   19.5492  -26.8804 H   0  0  0  0  0  0  0  0  0  0  0  0
   -0.9643   18.8802  -27.3650 H   0  0  0  0  0  0  0  0  0  0  0  0
    0.5751   23.7416  -28.5143 H   0  0  0  0  0  0  0  0  0  0  0  0
    0.3060   22.7214  -29.9681 H   0  0  0  0  0  0  0  0  0  0  0  0
   -0.2153   24.4404  -29.9681 H   0  0  0  0  0  0  0  0  0  0  0  0
   -7.2798   24.8937  -32.3439 H   0  0  0  0  0  0  0  0  0  0  0  0
   -5.4740   25.0612  -32.2550 H   0  0  0  0  0  0  0  0  0  0  0  0
   -6.1779   23.1880  -33.7315 H   0  0  0  0  0  0  0  0  0  0  0  0
   -5.2140   22.6396  -32.3037 H   0  0  0  0  0  0  0  0  0  0  0  0
  1  2  1  0
  2  3  2  0
  3  4  1  0
  4  5  1  0
  4  6  2  0
  6  7  1  0
  7  8  2  0
  7  9  1  0
  9 10  2  0
  9 11  2  0
  9 12  1  0
 12 13  1  0
 13 14  1  0
 14 15  1  0
 15 16  1  0
 16 17  1  0
 17 18  1  0
 18 19  1  0
 19 20  1  0
 20 21  1  0
 21 22  2  0
 22 23  1  0
 23 24  1  0
 24 25  2  0
 25 26  1  0
 26 27  1  0
 27 28  1  0
 28 29  1  0
 28 30  2  0
 30 31  1  0
 18 32  1  0
 32 33  1  0
 12 34  1  0
 34 35  2  0
  8  2  1  0
 33 15  1  0
 34  6  1  0
 30 21  1  0
 27 23  2  0
  1 36  1  0
  1 37  1  0
  1 38  1  0
  3 39  1  0
  5 40  1  0
  5 41  1  0
  5 42  1  0
  8 43  1  0
 12 44  1  1
 13 45  1  0
 13 46  1  0
 14 47  1  0
 14 48  1  0
 16 49  1  0
 16 50  1  0
 17 51  1  0
 17 52  1  0
 18 53  1  0
 19 54  1  0
 20 55  1  0
 20 56  1  0
 22 57  1  0
 24 58  1  0
 25 59  1  0
 29 60  1  0
 29 61  1  0
 29 62  1  0
 32 63  1  0
 32 64  1  0
 33 65  1  0
 33 66  1  0
M  CHG  2  12   1  31  -1
M  END
>  <UniqueID>  (48) 
47

>  <SMILES>  (48) 
Cc1cc(C)c2c(c1)S(=O)(=O)[N@H+](CCN1CCC(NCc3cc4ccoc4c(C)c3[O-])CC1)C2=O

>  <Energy>  (48) 
133.03127745675178

>  <Genealogy>  (48) 
Cc1cc(C)c2c(c1)S(=O)(=O)[NH+](CCN1CCC(NCc3cc4ccoc4c(C)c3[O-])CC1)C2=O (protonated)
Cc1cc(C)c2c(c1)S(=O)(=O)[N@H+](CCN1CCC(NCc3cc4ccoc4c(C)c3[O-])CC1)C2=O (chirality)
Cc1cc(C)c2c(c1)S(=O)(=O)[N@H+](CCN1CCC(NCc3cc4ccoc4c(C)c3[O-])CC1)C2=O (3D coordinates assigned)
Cc1cc(C)c2c(c1)S(=O)(=O)[N@H+](CCN1CCC(NCc3cc4ccoc4c(C)c3[O-])CC1)C2=O (nonaromatic ring conformer: 133.03127745675178 kcal/mol)

>  <smiles>  (48) 
Cc1cc(C)c2c(c1)S(=O)(=O)N(CCN1CCC(NCc3cc4ccoc4c(C)c3O)CC1)C2=O

>  <score_type>  (48) 
oracle

>  <origin>  (48) 
adgpu

>  <m_score__min__energy>  (48) 
-13.67

>  <m_primary>  (48) 
energy

$$$$
48:0
     RDKit          3D

 41 43  0  0  0  0  0  0  0  0999 V2000
   -4.4392   16.4842  -35.0274 H   0  0  0  0  0  0  0  0  0  0  0  0
   -5.2260   17.0310  -34.4870 C   0  0  0  0  0  0  0  0  0  0  0  0
   -6.1140   16.3530  -33.7140 N   0  0  0  0  0  0  0  0  0  0  0  0
   -7.0980   16.9940  -33.0270 C   0  0  0  0  0  0  0  0  0  0  0  0
   -7.8044   16.4166  -32.4125 H   0  0  0  0  0  0  0  0  0  0  0  0
   -7.2130   18.3890  -33.1010 C   0  0  0  0  0  0  0  0  0  0  0  0
   -8.4990   19.2270  -32.2430 S   0  0  0  0  0  0  0  0  0  0  0  0
   -8.8630   18.4670  -30.9980 O   0  0  0  0  0  0  0  0  0  0  0  0
   -9.7230   19.3180  -33.1110 O   0  0  0  0  0  0  0  0  0  0  0  0
   -7.9420   20.8410  -31.8180 C   0  0  0  0  0  0  0  0  0  0  0  0
   -6.6570   21.0280  -31.2910 C   0  0  0  0  0  0  0  0  0  0  0  0
   -5.9845   20.1664  -31.1673 H   0  0  0  0  0  0  0  0  0  0  0  0
   -6.2270   22.3060  -30.9220 C   0  0  0  0  0  0  0  0  0  0  0  0
   -5.2175   22.4467  -30.5082 H   0  0  0  0  0  0  0  0  0  0  0  0
   -7.0800   23.4110  -31.0780 C   0  0  0  0  0  0  0  0  0  0  0  0
   -6.6460   24.7810  -30.6330 C   0  0  0  0  0  0  0  0  0  0  0  0
   -7.5325   25.3768  -30.3700 H   0  0  0  0  0  0  0  0  0  0  0  0
   -6.0980   25.2708  -31.4514 H   0  0  0  0  0  0  0  0  0  0  0  0
   -5.7730   24.6720  -29.4680 N   0  0  0  0  0  0  0  0  0  0  0  0
   -6.2140   24.5570  -28.5280 H   0  0  0  0  0  0  0  0  0  0  0  0
   -4.3430   24.7410  -29.5740 C   0  0  0  0  0  0  0  0  0  0  0  0
   -3.8140   25.2720  -30.5860 O   0  0  0  0  0  0  0  0  0  0  0  0
   -3.4940   24.2610  -28.5220 N   0  0  0  0  0  0  0  0  0  0  0  0
   -2.2690   24.6360  -28.3060 C   0  0  0  0  0  0  0  0  0  0  0  0
   -1.6240   25.6030  -28.9900 N   0  0  0  0  0  0  0  0  0  0  0  0
   -0.4460   25.7100  -28.4490 O   0  0  0  0  0  0  0  0  0  0  0  0
   -0.3070   24.8690  -27.4490 C   0  0  0  0  0  0  0  0  0  0  0  0
    0.9270   24.7320  -26.6220 C   0  0  0  0  0  0  0  0  0  0  0  0
    0.6589   24.7618  -25.5556 H   0  0  0  0  0  0  0  0  0  0  0  0
    1.4169   23.7739  -26.8503 H   0  0  0  0  0  0  0  0  0  0  0  0
    1.6151   25.5593  -26.8503 H   0  0  0  0  0  0  0  0  0  0  0  0
   -1.4680   24.1390  -27.3030 C   0  0  0  0  0  0  0  0  0  0  0  0
   -1.6971   23.3540  -26.5672 H   0  0  0  0  0  0  0  0  0  0  0  0
   -8.3710   23.2190  -31.5920 C   0  0  0  0  0  0  0  0  0  0  0  0
   -9.0491   24.0777  -31.7052 H   0  0  0  0  0  0  0  0  0  0  0  0
   -8.7990   21.9400  -31.9610 C   0  0  0  0  0  0  0  0  0  0  0  0
   -9.8120   21.7963  -32.3649 H   0  0  0  0  0  0  0  0  0  0  0  0
   -6.3120   19.1010  -33.9010 C   0  0  0  0  0  0  0  0  0  0  0  0
   -6.3929   20.1951  -33.9816 H   0  0  0  0  0  0  0  0  0  0  0  0
   -5.3100   18.4210  -34.5970 C   0  0  0  0  0  0  0  0  0  0  0  0
   -4.5953   18.9736  -35.2245 H   0  0  0  0  0  0  0  0  0  0  0  0
  1  2  1  0
  2  3  2  0
  3  4  1  0
  4  5  1  0
  4  6  2  0
  6  7  1  0
  7  8  2  0
  7  9  2  0
  7 10  1  0
 10 11  2  0
 11 12  1  0
 11 13  1  0
 13 14  1  0
 13 15  2  0
 15 16  1  0
 16 17  1  0
 16 18  1  0
 16 19  1  0
 19 20  1  0
 19 21  1  0
 21 22  2  0
 21 23  1  0
 23 24  2  0
 24 25  1  0
 25 26  1  0
 26 27  1  0
 27 28  1  0
 28 29  1  0
 28 30  1  0
 28 31  1  0
 27 32  2  0
 32 33  1  0
 15 34  1  0
 34 35  1  0
 34 36  2  0
 36 37  1  0
  6 38  1  0
 38 39  1  0
 38 40  2  0
 40 41  1  0
 40  2  1  0
 36 10  1  0
 32 24  1  0
M  CHG  1  25  -1
M  END
>  <UniqueID>  (49) 
48

>  <SMILES>  (49) 
Cc1c/c(=N/C(=O)NCc2ccc(S(=O)(=O)c3cccnc3)cc2)[n-]o1

>  <Energy>  (49) 
76.98464893507816

>  <Genealogy>  (49) 
Cc1cc(=NC(=O)NCc2ccc(S(=O)(=O)c3cccnc3)cc2)[n-]o1 (protonated)
Cc1c/c(=N/C(=O)NCc2ccc(S(=O)(=O)c3cccnc3)cc2)[n-]o1 (cis-trans isomerization)
Cc1c/c(=N/C(=O)NCc2ccc(S(=O)(=O)c3cccnc3)cc2)[n-]o1 (3D coordinates assigned)
Cc1c/c(=N/C(=O)NCc2ccc(S(=O)(=O)c3cccnc3)cc2)[n-]o1 (optimized conformer: 76.98464893507816 kcal/mol)

>  <smiles>  (49) 
Cc1cc(=NC(=O)NCc2ccc(S(=O)(=O)c3cccnc3)cc2)[nH]o1

>  <score_type>  (49) 
oracle

>  <origin>  (49) 
adgpu

>  <m_score__min__energy>  (49) 
-11.880000000000001

>  <m_primary>  (49) 
energy

$$$$
