0:0
     RDKit          3D

 82 84  0  0  0  0  0  0  0  0999 V2000
   -9.2350   21.7500  -31.5770 C   0  0  0  0  0  0  0  0  0  0  0  0
   -9.2460   20.3910  -32.2730 C   0  0  0  0  0  0  0  0  0  0  0  0
   -8.7580   19.2510  -31.3650 C   0  0  0  0  0  0  0  0  0  0  0  0
   -7.5440   18.4520  -31.8950 C   0  0  0  0  0  0  0  0  0  0  0  0
   -7.4040   18.4210  -33.3750 N   0  0  1  0  0  0  0  0  0  0  0  0
   -6.5480   19.5220  -33.8540 C   0  0  0  0  0  0  0  0  0  0  0  0
   -6.8340   17.1100  -33.7950 C   0  0  0  0  0  0  0  0  0  0  0  0
   -5.3210   17.1140  -33.8140 C   0  0  0  0  0  0  0  0  0  0  0  0
   -4.6350   17.4850  -34.9810 C   0  0  0  0  0  0  0  0  0  0  0  0
   -3.2400   17.4450  -35.0260 C   0  0  0  0  0  0  0  0  0  0  0  0
   -2.5000   17.0740  -33.8960 C   0  0  0  0  0  0  0  0  0  0  0  0
   -1.1000   17.0470  -33.9990 O   0  0  0  0  0  0  0  0  0  0  0  0
   -0.2820   18.1010  -34.5120 C   0  0  0  0  0  0  0  0  0  0  0  0
    0.4690   18.8100  -33.3790 C   0  0  0  0  0  0  0  0  0  0  0  0
   -0.4560   19.4430  -32.4280 N   0  0  0  0  0  0  0  0  0  0  0  0
   -0.3160   19.5020  -31.0820 C   0  0  0  0  0  0  0  0  0  0  0  0
    0.8650   18.9760  -30.3210 C   0  0  0  0  0  0  0  0  0  0  0  0
   -1.3540   20.2390  -30.5330 C   0  0  0  0  0  0  0  0  0  0  0  0
   -1.4780   20.6510  -29.1270 C   0  0  0  0  0  0  0  0  0  0  0  0
   -0.5980   21.4010  -28.6310 O   0  0  0  0  0  0  0  0  0  0  0  0
   -2.6810   20.2480  -28.3180 C   0  0  0  0  0  0  0  0  0  0  0  0
   -2.3130   19.6000  -26.9610 C   0  0  0  0  0  0  0  0  0  0  0  0
   -1.1680   18.5880  -27.1060 C   0  0  0  0  0  0  0  0  0  0  0  0
   -3.5390   18.9140  -26.3470 C   0  0  0  0  0  0  0  0  0  0  0  0
   -2.1820   20.6120  -31.5810 C   0  0  0  0  0  0  0  0  0  0  0  0
   -3.4120   21.4290  -31.4870 C   0  0  0  0  0  0  0  0  0  0  0  0
   -4.6760   20.8280  -31.5840 C   0  0  0  0  0  0  0  0  0  0  0  0
   -5.8330   21.5950  -31.4490 C   0  0  0  0  0  0  0  0  0  0  0  0
   -5.7400   22.9660  -31.1990 C   0  0  0  0  0  0  0  0  0  0  0  0
   -4.4890   23.5850  -31.0970 C   0  0  0  0  0  0  0  0  0  0  0  0
   -4.4480   24.9590  -30.8210 O   0  0  0  0  0  0  0  0  0  0  0  0
   -5.5730   25.7340  -30.4120 C   0  0  0  0  0  0  0  0  0  0  0  0
   -3.3240   22.8140  -31.2650 C   0  0  0  0  0  0  0  0  0  0  0  0
   -1.5960   20.1090  -32.7390 C   0  0  0  0  0  0  0  0  0  0  0  0
   -2.0210   20.4220  -34.1480 C   0  0  0  0  0  0  0  0  0  0  0  0
   -3.1860   16.7150  -32.7190 C   0  0  0  0  0  0  0  0  0  0  0  0
   -4.5840   16.7200  -32.6880 C   0  0  0  0  0  0  0  0  0  0  0  0
   -9.2362   21.6036  -30.4868 H   0  0  0  0  0  0  0  0  0  0  0  0
   -8.3323   22.3054  -31.8714 H   0  0  0  0  0  0  0  0  0  0  0  0
  -10.1286   22.3200  -31.8714 H   0  0  0  0  0  0  0  0  0  0  0  0
  -10.2746   20.1689  -32.5934 H   0  0  0  0  0  0  0  0  0  0  0  0
   -8.5557   20.4516  -33.1273 H   0  0  0  0  0  0  0  0  0  0  0  0
   -8.4796   19.6864  -30.3940 H   0  0  0  0  0  0  0  0  0  0  0  0
   -9.5899   18.5337  -31.3065 H   0  0  0  0  0  0  0  0  0  0  0  0
   -6.6316   18.9016  -31.4762 H   0  0  0  0  0  0  0  0  0  0  0  0
   -7.7040   17.4098  -31.5816 H   0  0  0  0  0  0  0  0  0  0  0  0
   -8.3550   18.5270  -33.8020 H   0  0  0  0  0  0  0  0  0  0  0  0
   -6.1284   20.0617  -32.9923 H   0  0  0  0  0  0  0  0  0  0  0  0
   -5.7295   19.1115  -34.4635 H   0  0  0  0  0  0  0  0  0  0  0  0
   -7.1476   20.2141  -34.4635 H   0  0  0  0  0  0  0  0  0  0  0  0
   -7.1757   16.3357  -33.0924 H   0  0  0  0  0  0  0  0  0  0  0  0
   -7.1801   16.9085  -34.8195 H   0  0  0  0  0  0  0  0  0  0  0  0
   -5.2006   17.8097  -35.8668 H   0  0  0  0  0  0  0  0  0  0  0  0
   -2.7172   17.7073  -35.9576 H   0  0  0  0  0  0  0  0  0  0  0  0
    0.4474   17.6794  -35.2192 H   0  0  0  0  0  0  0  0  0  0  0  0
   -0.9281   18.8333  -35.0182 H   0  0  0  0  0  0  0  0  0  0  0  0
    1.0833   18.0723  -32.8419 H   0  0  0  0  0  0  0  0  0  0  0  0
    1.0969   19.5967  -33.8227 H   0  0  0  0  0  0  0  0  0  0  0  0
    0.6731   19.0615  -29.2413 H   0  0  0  0  0  0  0  0  0  0  0  0
    1.0285   17.9200  -30.5819 H   0  0  0  0  0  0  0  0  0  0  0  0
    1.7594   19.5609  -30.5819 H   0  0  0  0  0  0  0  0  0  0  0  0
   -3.2885   21.1443  -28.1243 H   0  0  0  0  0  0  0  0  0  0  0  0
   -3.2308   19.4951  -28.9018 H   0  0  0  0  0  0  0  0  0  0  0  0
   -1.9721   20.4051  -26.2935 H   0  0  0  0  0  0  0  0  0  0  0  0
   -0.8211   18.2814  -26.1082 H   0  0  0  0  0  0  0  0  0  0  0  0
   -1.5260   17.7057  -27.6569 H   0  0  0  0  0  0  0  0  0  0  0  0
   -0.3364   19.0517  -27.6569 H   0  0  0  0  0  0  0  0  0  0  0  0
   -3.4698   18.9527  -25.2499 H   0  0  0  0  0  0  0  0  0  0  0  0
   -4.4520   19.4323  -26.6753 H   0  0  0  0  0  0  0  0  0  0  0  0
   -3.5749   17.8647  -26.6753 H   0  0  0  0  0  0  0  0  0  0  0  0
   -4.7549   19.7463  -31.7675 H   0  0  0  0  0  0  0  0  0  0  0  0
   -6.8207   21.1193  -31.5396 H   0  0  0  0  0  0  0  0  0  0  0  0
   -6.6562   23.5633  -31.0815 H   0  0  0  0  0  0  0  0  0  0  0  0
   -5.6173   25.7645  -29.3133 H   0  0  0  0  0  0  0  0  0  0  0  0
   -5.4752   26.7573  -30.8036 H   0  0  0  0  0  0  0  0  0  0  0  0
   -6.4943   25.2780  -30.8036 H   0  0  0  0  0  0  0  0  0  0  0  0
   -2.3375   23.2987  -31.2223 H   0  0  0  0  0  0  0  0  0  0  0  0
   -2.9066   21.0742  -34.1275 H   0  0  0  0  0  0  0  0  0  0  0  0
   -1.2010   20.9335  -34.6733 H   0  0  0  0  0  0  0  0  0  0  0  0
   -2.2662   19.4871  -34.6733 H   0  0  0  0  0  0  0  0  0  0  0  0
   -2.6194   16.4295  -31.8204 H   0  0  0  0  0  0  0  0  0  0  0  0
   -5.1102   16.4122  -31.7724 H   0  0  0  0  0  0  0  0  0  0  0  0
  1  2  1  0
  2  3  1  0
  3  4  1  0
  4  5  1  0
  5  6  1  0
  5  7  1  0
  7  8  1  0
  8  9  2  0
  9 10  1  0
 10 11  2  0
 11 12  1  0
 12 13  1  0
 13 14  1  0
 14 15  1  0
 15 16  1  0
 16 17  1  0
 16 18  2  0
 18 19  1  0
 19 20  2  0
 19 21  1  0
 21 22  1  0
 22 23  1  0
 22 24  1  0
 18 25  1  0
 25 26  1  0
 26 27  2  0
 27 28  1  0
 28 29  2  0
 29 30  1  0
 30 31  1  0
 31 32  1  0
 30 33  2  0
 25 34  2  0
 34 35  1  0
 11 36  1  0
 36 37  2  0
 37  8  1  0
 34 15  1  0
 33 26  1  0
  1 38  1  0
  1 39  1  0
  1 40  1  0
  2 41  1  0
  2 42  1  0
  3 43  1  0
  3 44  1  0
  4 45  1  0
  4 46  1  0
  5 47  1  6
  6 48  1  0
  6 49  1  0
  6 50  1  0
  7 51  1  0
  7 52  1  0
  9 53  1  0
 10 54  1  0
 13 55  1  0
 13 56  1  0
 14 57  1  0
 14 58  1  0
 17 59  1  0
 17 60  1  0
 17 61  1  0
 21 62  1  0
 21 63  1  0
 22 64  1  0
 23 65  1  0
 23 66  1  0
 23 67  1  0
 24 68  1  0
 24 69  1  0
 24 70  1  0
 27 71  1  0
 28 72  1  0
 29 73  1  0
 32 74  1  0
 32 75  1  0
 32 76  1  0
 33 77  1  0
 35 78  1  0
 35 79  1  0
 35 80  1  0
 36 81  1  0
 37 82  1  0
M  CHG  1   5   1
M  END
>  <UniqueID>  (1) 
1

>  <SMILES>  (1) 
CCCC[N@@H+](C)Cc1ccc(OCCn2c(C)c(C(=O)CC(C)C)c(-c3cccc(OC)c3)c2C)cc1

>  <Energy>  (1) 
105.78052726111248

>  <Genealogy>  (1) 
CCCC[NH+](C)Cc1ccc(OCCn2c(C)c(C(=O)CC(C)C)c(-c3cccc(OC)c3)c2C)cc1 (protonated)
CCCC[N@@H+](C)Cc1ccc(OCCn2c(C)c(C(=O)CC(C)C)c(-c3cccc(OC)c3)c2C)cc1 (chirality)
CCCC[N@@H+](C)Cc1ccc(OCCn2c(C)c(C(=O)CC(C)C)c(-c3cccc(OC)c3)c2C)cc1 (3D coordinates assigned)
CCCC[N@@H+](C)Cc1ccc(OCCn2c(C)c(C(=O)CC(C)C)c(-c3cccc(OC)c3)c2C)cc1 (optimized conformer: 105.78052726111248 kcal/mol)

>  <smiles>  (1) 
CCCCN(C)Cc1ccc(OCCn2c(C)c(C(=O)CC(C)C)c(-c3cccc(OC)c3)c2C)cc1

>  <score_type>  (1) 
oracle

>  <origin>  (1) 
adgpu

>  <m_score__min__energy>  (1) 
-9.2300000000000004

>  <m_primary>  (1) 
energy

$$$$
1:0
     RDKit          3D

 49 51  0  0  0  0  0  0  0  0999 V2000
   -1.6120   20.2710  -26.7440 C   0  0  0  0  0  0  0  0  0  0  0  0
   -2.0800   21.4990  -27.4650 C   0  0  0  0  0  0  0  0  0  0  0  0
   -3.0460   21.3980  -28.4780 C   0  0  0  0  0  0  0  0  0  0  0  0
   -3.4360   22.5330  -29.1940 C   0  0  0  0  0  0  0  0  0  0  0  0
   -2.8420   23.7760  -28.9280 C   0  0  0  0  0  0  0  0  0  0  0  0
   -3.1640   24.9370  -29.7020 N   0  0  0  0  0  0  0  0  0  0  0  0
   -4.2960   25.0740  -30.5740 C   0  0  0  0  0  0  0  0  0  0  0  0
   -5.0190   26.0990  -30.4740 O   0  0  0  0  0  0  0  0  0  0  0  0
   -4.6110   24.1020  -31.5840 N   0  0  0  0  0  0  0  0  0  0  0  0
   -5.7630   23.2460  -31.6000 C   0  0  0  0  0  0  0  0  0  0  0  0
   -6.8440   23.5900  -30.7920 C   0  0  0  0  0  0  0  0  0  0  0  0
   -7.9040   22.7090  -30.6200 C   0  0  0  0  0  0  0  0  0  0  0  0
   -7.9240   21.4680  -31.2740 C   0  0  0  0  0  0  0  0  0  0  0  0
   -9.0470   20.5220  -30.9400 C   0  0  0  0  0  0  0  0  0  0  0  0
   -6.8710   21.1340  -32.1730 C   0  0  0  0  0  0  0  0  0  0  0  0
   -6.8310   19.5900  -33.0800 S   0  0  0  0  0  0  0  0  0  0  0  0
   -6.4480   19.8260  -34.5140 O   0  0  0  0  0  0  0  0  0  0  0  0
   -8.2210   19.0170  -33.1020 O   0  0  0  0  0  0  0  0  0  0  0  0
   -5.7370   18.3940  -32.4050 N   0  0  0  0  0  0  0  0  0  0  0  0
   -6.3120   17.0400  -32.3570 C   0  0  0  0  0  0  0  0  0  0  0  0
   -6.2180   16.3050  -33.7140 C   0  0  0  0  0  0  0  0  0  0  0  0
   -5.4420   17.0020  -34.6690 O   0  0  0  0  0  0  0  0  0  0  0  0
   -4.2010   17.3640  -34.1060 C   0  0  0  0  0  0  0  0  0  0  0  0
   -4.3860   18.4200  -32.9990 C   0  0  0  0  0  0  0  0  0  0  0  0
   -5.8010   22.0470  -32.3450 C   0  0  0  0  0  0  0  0  0  0  0  0
   -4.7930   21.7560  -33.2650 O   0  0  0  0  0  0  0  0  0  0  0  0
   -1.9000   23.8830  -27.8970 C   0  0  0  0  0  0  0  0  0  0  0  0
   -1.5070   22.7480  -27.1820 C   0  0  0  0  0  0  0  0  0  0  0  0
   -1.6752   20.4368  -25.6584 H   0  0  0  0  0  0  0  0  0  0  0  0
   -2.2480   19.4177  -27.0222 H   0  0  0  0  0  0  0  0  0  0  0  0
   -0.5694   20.0574  -27.0222 H   0  0  0  0  0  0  0  0  0  0  0  0
   -3.4978   20.4221  -28.7092 H   0  0  0  0  0  0  0  0  0  0  0  0
   -4.2120   22.4515  -29.9694 H   0  0  0  0  0  0  0  0  0  0  0  0
   -6.8584   24.5667  -30.2862 H   0  0  0  0  0  0  0  0  0  0  0  0
   -8.7397   22.9883  -29.9616 H   0  0  0  0  0  0  0  0  0  0  0  0
   -9.1445   20.4399  -29.8474 H   0  0  0  0  0  0  0  0  0  0  0  0
   -9.9870   20.9045  -31.3643 H   0  0  0  0  0  0  0  0  0  0  0  0
   -8.8298   19.5306  -31.3643 H   0  0  0  0  0  0  0  0  0  0  0  0
   -5.7697   16.4537  -31.6006 H   0  0  0  0  0  0  0  0  0  0  0  0
   -7.3782   17.1398  -32.1056 H   0  0  0  0  0  0  0  0  0  0  0  0
   -5.7633   15.3174  -33.5467 H   0  0  0  0  0  0  0  0  0  0  0  0
   -7.2390   16.2252  -34.1156 H   0  0  0  0  0  0  0  0  0  0  0  0
   -3.7266   16.4700  -33.6751 H   0  0  0  0  0  0  0  0  0  0  0  0
   -3.5677   17.7917  -34.8972 H   0  0  0  0  0  0  0  0  0  0  0  0
   -3.6490   18.2298  -32.2049 H   0  0  0  0  0  0  0  0  0  0  0  0
   -4.2445   19.4097  -33.4578 H   0  0  0  0  0  0  0  0  0  0  0  0
   -4.9800   21.4000  -34.1940 H   0  0  0  0  0  0  0  0  0  0  0  0
   -1.4679   24.8637  -27.6491 H   0  0  0  0  0  0  0  0  0  0  0  0
   -0.7448   22.8345  -26.3936 H   0  0  0  0  0  0  0  0  0  0  0  0
  1  2  1  0
  2  3  2  0
  3  4  1  0
  4  5  2  0
  5  6  1  0
  6  7  1  0
  7  8  2  0
  7  9  1  0
  9 10  1  0
 10 11  2  0
 11 12  1  0
 12 13  2  0
 13 14  1  0
 13 15  1  0
 15 16  1  0
 16 17  2  0
 16 18  2  0
 16 19  1  0
 19 20  1  0
 20 21  1  0
 21 22  1  0
 22 23  1  0
 23 24  1  0
 15 25  2  0
 25 26  1  0
  5 27  1  0
 27 28  2  0
 28  2  1  0
 25 10  1  0
 24 19  1  0
  1 29  1  0
  1 30  1  0
  1 31  1  0
  3 32  1  0
  4 33  1  0
 11 34  1  0
 12 35  1  0
 14 36  1  0
 14 37  1  0
 14 38  1  0
 20 39  1  0
 20 40  1  0
 21 41  1  0
 21 42  1  0
 23 43  1  0
 23 44  1  0
 24 45  1  0
 24 46  1  0
 26 47  1  0
 27 48  1  0
 28 49  1  0
M  CHG  2   6  -1   9  -1
M  END
>  <UniqueID>  (2) 
2

>  <SMILES>  (2) 
Cc1ccc([N-]C(=O)[N-]c2ccc(C)c(S(=O)(=O)N3CCOCC3)c2O)cc1

>  <Energy>  (2) 
74.26463102148894

>  <Genealogy>  (2) 
Cc1ccc([N-]C(=O)[N-]c2ccc(C)c(S(=O)(=O)N3CCOCC3)c2O)cc1 (protonated)
Cc1ccc([N-]C(=O)[N-]c2ccc(C)c(S(=O)(=O)N3CCOCC3)c2O)cc1 (3D coordinates assigned)
Cc1ccc([N-]C(=O)[N-]c2ccc(C)c(S(=O)(=O)N3CCOCC3)c2O)cc1 (nonaromatic ring conformer: 74.26463102148894 kcal/mol)

>  <smiles>  (2) 
Cc1ccc(NC(=O)Nc2ccc(C)c(S(=O)(=O)N3CCOCC3)c2O)cc1

>  <score_type>  (2) 
oracle

>  <origin>  (2) 
adgpu

>  <m_score__min__energy>  (2) 
-12.800000000000001

>  <m_primary>  (2) 
energy

$$$$
2:0
     RDKit          3D

 46 48  0  0  0  0  0  0  0  0999 V2000
    2.1750   26.0390  -23.3660 N   0  0  0  0  0  0  0  0  0  0  0  0
    0.9350   26.7150  -23.6100 C   0  0  0  0  0  0  0  0  0  0  0  0
    0.4800   27.5540  -22.7280 N   0  0  0  0  0  0  0  0  0  0  0  0
    0.1790   26.4440  -24.8580 C   0  0  0  0  0  0  0  0  0  0  0  0
   -1.2080   26.6640  -24.9080 C   0  0  0  0  0  0  0  0  0  0  0  0
   -1.9250   26.4090  -26.0800 C   0  0  0  0  0  0  0  0  0  0  0  0
   -1.2640   25.9390  -27.2290 C   0  0  0  0  0  0  0  0  0  0  0  0
   -1.9500   25.6610  -28.4200 O   0  0  0  0  0  0  0  0  0  0  0  0
   -2.8120   24.5730  -28.6260 C   0  0  0  0  0  0  0  0  0  0  0  0
   -3.1990   23.8050  -27.5220 C   0  0  0  0  0  0  0  0  0  0  0  0
   -4.0350   22.7000  -27.6890 C   0  0  0  0  0  0  0  0  0  0  0  0
   -4.4920   22.3520  -28.9620 C   0  0  0  0  0  0  0  0  0  0  0  0
   -4.1130   23.1060  -30.0860 C   0  0  0  0  0  0  0  0  0  0  0  0
   -4.5890   22.7240  -31.4360 C   0  0  0  0  0  0  0  0  0  0  0  0
   -5.1250   23.5940  -32.1750 O   0  0  0  0  0  0  0  0  0  0  0  0
   -4.4340   21.3790  -31.9180 N   0  0  0  0  0  0  0  0  0  0  0  0
   -5.1320   20.8920  -33.1050 C   0  0  0  0  0  0  0  0  0  0  0  0
   -6.4990   20.3910  -32.7310 C   0  0  0  0  0  0  0  0  0  0  0  0
   -7.5010   21.2860  -32.3170 C   0  0  0  0  0  0  0  0  0  0  0  0
   -8.7600   20.8080  -31.9440 C   0  0  0  0  0  0  0  0  0  0  0  0
   -9.0270   19.4360  -31.9750 C   0  0  0  0  0  0  0  0  0  0  0  0
   -8.0340   18.5400  -32.3780 C   0  0  0  0  0  0  0  0  0  0  0  0
   -6.7730   19.0140  -32.7530 C   0  0  0  0  0  0  0  0  0  0  0  0
   -3.2550   24.2070  -29.9100 C   0  0  0  0  0  0  0  0  0  0  0  0
    0.1120   25.6940  -27.1740 C   0  0  0  0  0  0  0  0  0  0  0  0
    0.8310   25.9500  -26.0030 C   0  0  0  0  0  0  0  0  0  0  0  0
    2.6100   25.4310  -24.0950 H   0  0  0  0  0  0  0  0  0  0  0  0
    2.6960   26.1840  -22.4730 H   0  0  0  0  0  0  0  0  0  0  0  0
   -0.4360   28.0390  -22.8510 H   0  0  0  0  0  0  0  0  0  0  0  0
    1.0130   27.7480  -21.8500 H   0  0  0  0  0  0  0  0  0  0  0  0
   -1.7334   27.0399  -24.0177 H   0  0  0  0  0  0  0  0  0  0  0  0
   -3.0119   26.5767  -26.1040 H   0  0  0  0  0  0  0  0  0  0  0  0
   -2.8422   24.0738  -26.5168 H   0  0  0  0  0  0  0  0  0  0  0  0
   -4.3347   22.1018  -26.8159 H   0  0  0  0  0  0  0  0  0  0  0  0
   -5.1532   21.4817  -29.0859 H   0  0  0  0  0  0  0  0  0  0  0  0
   -3.7840   20.7240  -31.4290 H   0  0  0  0  0  0  0  0  0  0  0  0
   -5.2312   21.7124  -33.8310 H   0  0  0  0  0  0  0  0  0  0  0  0
   -4.5552   20.0672  -33.5489 H   0  0  0  0  0  0  0  0  0  0  0  0
   -7.2933   22.3658  -32.2866 H   0  0  0  0  0  0  0  0  0  0  0  0
   -9.5424   21.5125  -31.6254 H   0  0  0  0  0  0  0  0  0  0  0  0
  -10.0191   19.0621  -31.6820 H   0  0  0  0  0  0  0  0  0  0  0  0
   -8.2442   17.4605  -32.4004 H   0  0  0  0  0  0  0  0  0  0  0  0
   -5.9924   18.3052  -33.0665 H   0  0  0  0  0  0  0  0  0  0  0  0
   -2.9273   24.7874  -30.7851 H   0  0  0  0  0  0  0  0  0  0  0  0
    0.6319   25.2971  -28.0584 H   0  0  0  0  0  0  0  0  0  0  0  0
    1.9148   25.7639  -25.9763 H   0  0  0  0  0  0  0  0  0  0  0  0
  1  2  1  0
  2  3  2  0
  2  4  1  0
  4  5  2  0
  5  6  1  0
  6  7  2  0
  7  8  1  0
  8  9  1  0
  9 10  2  0
 10 11  1  0
 11 12  2  0
 12 13  1  0
 13 14  1  0
 14 15  2  0
 14 16  1  0
 16 17  1  0
 17 18  1  0
 18 19  2  0
 19 20  1  0
 20 21  2  0
 21 22  1  0
 22 23  2  0
 13 24  2  0
  7 25  1  0
 25 26  2  0
 26  4  1  0
 24  9  1  0
 23 18  1  0
  1 27  1  0
  1 28  1  0
  3 29  1  0
  3 30  1  0
  5 31  1  0
  6 32  1  0
 10 33  1  0
 11 34  1  0
 12 35  1  0
 16 36  1  0
 17 37  1  0
 17 38  1  0
 19 39  1  0
 20 40  1  0
 21 41  1  0
 22 42  1  0
 23 43  1  0
 24 44  1  0
 25 45  1  0
 26 46  1  0
M  CHG  1   3   1
M  END
>  <UniqueID>  (3) 
3

>  <SMILES>  (3) 
NC(=[NH2+])c1ccc(Oc2cccc(C(=O)NCc3ccccc3)c2)cc1

>  <Energy>  (3) 
56.58085554799173

>  <Genealogy>  (3) 
NC(=[NH2+])c1ccc(Oc2cccc(C(=O)NCc3ccccc3)c2)cc1 (protonated)
NC(=[NH2+])c1ccc(Oc2cccc(C(=O)NCc3ccccc3)c2)cc1 (3D coordinates assigned)
NC(=[NH2+])c1ccc(Oc2cccc(C(=O)NCc3ccccc3)c2)cc1 (optimized conformer: 56.58085554799173 kcal/mol)

>  <smiles>  (3) 
N=C(N)c1ccc(Oc2cccc(C(=O)NCc3ccccc3)c2)cc1

>  <score_type>  (3) 
oracle

>  <origin>  (3) 
adgpu

>  <m_score__min__energy>  (3) 
-9.9499999999999993

>  <m_primary>  (3) 
energy

$$$$
3:0
     RDKit          3D

 44 46  0  0  0  0  0  0  0  0999 V2000
    0.6620   24.4610  -27.3640 C   0  0  0  0  0  0  0  0  0  0  0  0
   -0.7620   24.2920  -27.8030 C   0  0  0  0  0  0  0  0  0  0  0  0
   -1.0520   23.7120  -29.0450 C   0  0  0  0  0  0  0  0  0  0  0  0
   -2.3770   23.5100  -29.4350 C   0  0  0  0  0  0  0  0  0  0  0  0
   -3.4320   23.8650  -28.5840 C   0  0  0  0  0  0  0  0  0  0  0  0
   -4.7790   23.6210  -29.0160 N   0  0  0  0  0  0  0  0  0  0  0  0
   -5.3280   24.2370  -30.1890 C   0  0  0  0  0  0  0  0  0  0  0  0
   -4.5990   24.9300  -30.9480 O   0  0  0  0  0  0  0  0  0  0  0  0
   -6.7800   24.0670  -30.5160 C   0  0  0  0  0  0  0  0  0  0  0  0
   -7.0120   23.7990  -32.3070 S   0  0  0  0  0  0  0  0  0  0  0  0
   -6.7480   22.0160  -32.2350 C   0  0  0  0  0  0  0  0  0  0  0  0
   -7.8560   21.1960  -32.0000 C   0  0  0  0  0  0  0  0  0  0  0  0
   -7.6950   19.8080  -31.9220 C   0  0  0  0  0  0  0  0  0  0  0  0
   -8.8720   18.9280  -31.6440 C   0  0  0  0  0  0  0  0  0  0  0  0
   -6.4620   19.2600  -32.0850 N   0  0  0  0  0  0  0  0  0  0  0  0
   -5.3620   20.0200  -32.3320 C   0  0  0  0  0  0  0  0  0  0  0  0
   -4.1180   19.4040  -32.5000 C   0  0  0  0  0  0  0  0  0  0  0  0
   -2.9820   20.1750  -32.7550 C   0  0  0  0  0  0  0  0  0  0  0  0
   -3.0840   21.5650  -32.8440 C   0  0  0  0  0  0  0  0  0  0  0  0
   -4.3220   22.1940  -32.6770 C   0  0  0  0  0  0  0  0  0  0  0  0
   -5.4770   21.4300  -32.4180 C   0  0  0  0  0  0  0  0  0  0  0  0
   -3.1510   24.4760  -27.3400 C   0  0  0  0  0  0  0  0  0  0  0  0
   -4.2490   24.9260  -26.4160 C   0  0  0  0  0  0  0  0  0  0  0  0
   -1.8140   24.6550  -26.9490 C   0  0  0  0  0  0  0  0  0  0  0  0
    0.7087   24.4665  -26.2650 H   0  0  0  0  0  0  0  0  0  0  0  0
    1.2667   23.6283  -27.7525 H   0  0  0  0  0  0  0  0  0  0  0  0
    1.0550   25.4121  -27.7525 H   0  0  0  0  0  0  0  0  0  0  0  0
   -0.2322   23.4146  -29.7155 H   0  0  0  0  0  0  0  0  0  0  0  0
   -2.5947   23.0684  -30.4187 H   0  0  0  0  0  0  0  0  0  0  0  0
   -5.4350   23.1770  -28.3350 H   0  0  0  0  0  0  0  0  0  0  0  0
   -7.1744   23.1992  -29.9671 H   0  0  0  0  0  0  0  0  0  0  0  0
   -7.3175   24.9809  -30.2229 H   0  0  0  0  0  0  0  0  0  0  0  0
   -8.8540   21.6418  -31.8765 H   0  0  0  0  0  0  0  0  0  0  0  0
   -9.0062   18.8277  -30.5568 H   0  0  0  0  0  0  0  0  0  0  0  0
   -9.7756   19.3739  -32.0854 H   0  0  0  0  0  0  0  0  0  0  0  0
   -8.6999   17.9352  -32.0854 H   0  0  0  0  0  0  0  0  0  0  0  0
   -4.0340   18.3094  -32.4311 H   0  0  0  0  0  0  0  0  0  0  0  0
   -2.0051   19.6867  -32.8860 H   0  0  0  0  0  0  0  0  0  0  0  0
   -2.1865   22.1679  -33.0464 H   0  0  0  0  0  0  0  0  0  0  0  0
   -4.3941   23.2893  -32.7481 H   0  0  0  0  0  0  0  0  0  0  0  0
   -3.9271   24.7941  -25.3725 H   0  0  0  0  0  0  0  0  0  0  0  0
   -4.4709   25.9876  -26.5999 H   0  0  0  0  0  0  0  0  0  0  0  0
   -5.1521   24.3255  -26.5999 H   0  0  0  0  0  0  0  0  0  0  0  0
   -1.5892   25.0848  -25.9617 H   0  0  0  0  0  0  0  0  0  0  0  0
  1  2  1  0
  2  3  2  0
  3  4  1  0
  4  5  2  0
  5  6  1  0
  6  7  1  0
  7  8  2  0
  7  9  1  0
  9 10  1  0
 10 11  1  0
 11 12  2  0
 12 13  1  0
 13 14  1  0
 13 15  2  0
 15 16  1  0
 16 17  2  0
 17 18  1  0
 18 19  2  0
 19 20  1  0
 20 21  2  0
  5 22  1  0
 22 23  1  0
 22 24  2  0
 24  2  1  0
 21 11  1  0
 21 16  1  0
  1 25  1  0
  1 26  1  0
  1 27  1  0
  3 28  1  0
  4 29  1  0
  6 30  1  0
  9 31  1  0
  9 32  1  0
 12 33  1  0
 14 34  1  0
 14 35  1  0
 14 36  1  0
 17 37  1  0
 18 38  1  0
 19 39  1  0
 20 40  1  0
 23 41  1  0
 23 42  1  0
 23 43  1  0
 24 44  1  0
M  END
>  <UniqueID>  (4) 
4

>  <SMILES>  (4) 
Cc1ccc(NC(=O)CSc2cc(C)nc3ccccc23)c(C)c1

>  <Energy>  (4) 
48.31847648477029

>  <Genealogy>  (4) 
Cc1ccc(NC(=O)CSc2cc(C)nc3ccccc23)c(C)c1 (3D coordinates assigned)
Cc1ccc(NC(=O)CSc2cc(C)nc3ccccc23)c(C)c1 (optimized conformer: 48.31847648477029 kcal/mol)

>  <smiles>  (4) 
Cc1ccc(NC(=O)CSc2cc(C)nc3ccccc23)c(C)c1

>  <score_type>  (4) 
oracle

>  <origin>  (4) 
adgpu

>  <m_score__min__energy>  (4) 
-9.8599999999999994

>  <m_primary>  (4) 
energy

$$$$
4:0
     RDKit          3D

 50 53  0  0  0  0  0  0  0  0999 V2000
    0.0660   17.0680  -27.4810 C   0  0  0  0  0  0  0  0  0  0  0  0
   -0.1410   18.5470  -27.6250 C   0  0  0  0  0  0  0  0  0  0  0  0
   -1.3150   19.1460  -27.1480 C   0  0  0  0  0  0  0  0  0  0  0  0
   -1.5250   20.5180  -27.3130 C   0  0  0  0  0  0  0  0  0  0  0  0
   -0.5710   21.3130  -27.9750 C   0  0  0  0  0  0  0  0  0  0  0  0
   -0.7700   22.7750  -28.1500 C   0  0  0  0  0  0  0  0  0  0  0  0
   -1.9060   23.2930  -28.7930 C   0  0  0  0  0  0  0  0  0  0  0  0
   -2.0440   24.6840  -28.9120 C   0  0  0  0  0  0  0  0  0  0  0  0
   -3.1490   25.2670  -29.5480 O   0  0  0  0  0  0  0  0  0  0  0  0
   -4.1530   24.5680  -30.2360 C   0  0  0  0  0  0  0  0  0  0  0  0
   -5.5160   24.8170  -30.0150 C   0  0  0  0  0  0  0  0  0  0  0  0
   -6.4850   24.1110  -30.7290 C   0  0  0  0  0  0  0  0  0  0  0  0
   -6.1150   23.1490  -31.6880 C   0  0  0  0  0  0  0  0  0  0  0  0
   -7.1240   22.4670  -32.4580 N   0  0  0  0  0  0  0  0  0  0  0  0
   -8.1040   21.5650  -31.8510 C   0  0  0  0  0  0  0  0  0  0  0  0
   -7.8120   20.1400  -32.2320 C   0  0  0  0  0  0  0  0  0  0  0  0
   -6.7570   19.8340  -33.1040 C   0  0  0  0  0  0  0  0  0  0  0  0
   -6.4760   18.5040  -33.4190 C   0  0  0  0  0  0  0  0  0  0  0  0
   -7.2470   17.4880  -32.8490 C   0  0  0  0  0  0  0  0  0  0  0  0
   -8.2560   17.7980  -31.9930 N   0  0  0  0  0  0  0  0  0  0  0  0
   -8.5500   19.0860  -31.6710 C   0  0  0  0  0  0  0  0  0  0  0  0
   -4.7390   22.9000  -31.9140 C   0  0  0  0  0  0  0  0  0  0  0  0
   -4.3000   21.8910  -32.8340 N   0  0  0  0  0  0  0  0  0  0  0  0
   -3.7760   23.6270  -31.1970 C   0  0  0  0  0  0  0  0  0  0  0  0
   -1.0590   25.4930  -28.4410 N   0  0  0  0  0  0  0  0  0  0  0  0
    0.0420   24.9810  -27.8360 C   0  0  0  0  0  0  0  0  0  0  0  0
    0.1790   23.6390  -27.6940 N   0  0  0  0  0  0  0  0  0  0  0  0
    0.6010   20.7040  -28.4570 C   0  0  0  0  0  0  0  0  0  0  0  0
    0.8080   19.3320  -28.2930 C   0  0  0  0  0  0  0  0  0  0  0  0
    0.1028   16.8051  -26.4135 H   0  0  0  0  0  0  0  0  0  0  0  0
   -0.7660   16.5328  -27.9620 H   0  0  0  0  0  0  0  0  0  0  0  0
    1.0130   16.7818  -27.9620 H   0  0  0  0  0  0  0  0  0  0  0  0
   -2.0750   18.5332  -26.6412 H   0  0  0  0  0  0  0  0  0  0  0  0
   -2.4435   20.9801  -26.9222 H   0  0  0  0  0  0  0  0  0  0  0  0
   -2.6755   22.6187  -29.1970 H   0  0  0  0  0  0  0  0  0  0  0  0
   -5.8220   25.5719  -29.2758 H   0  0  0  0  0  0  0  0  0  0  0  0
   -7.5506   24.3084  -30.5403 H   0  0  0  0  0  0  0  0  0  0  0  0
   -7.2160   22.6830  -33.4750 H   0  0  0  0  0  0  0  0  0  0  0  0
   -8.0584   21.6641  -30.7564 H   0  0  0  0  0  0  0  0  0  0  0  0
   -9.1075   21.8326  -32.2135 H   0  0  0  0  0  0  0  0  0  0  0  0
   -6.1512   20.6423  -33.5395 H   0  0  0  0  0  0  0  0  0  0  0  0
   -5.6556   18.2580  -34.1092 H   0  0  0  0  0  0  0  0  0  0  0  0
   -7.0372   16.4362  -33.0932 H   0  0  0  0  0  0  0  0  0  0  0  0
   -9.3686   19.3026  -30.9688 H   0  0  0  0  0  0  0  0  0  0  0  0
   -3.6120   21.1550  -32.5660 H   0  0  0  0  0  0  0  0  0  0  0  0
   -4.5880   21.9290  -33.8380 H   0  0  0  0  0  0  0  0  0  0  0  0
   -2.7080   23.4531  -31.3949 H   0  0  0  0  0  0  0  0  0  0  0  0
    0.8253   25.6555  -27.4598 H   0  0  0  0  0  0  0  0  0  0  0  0
    1.3615   21.3130  -28.9676 H   0  0  0  0  0  0  0  0  0  0  0  0
    1.7213   18.8654  -28.6906 H   0  0  0  0  0  0  0  0  0  0  0  0
  1  2  1  0
  2  3  2  0
  3  4  1  0
  4  5  2  0
  5  6  1  0
  6  7  2  0
  7  8  1  0
  8  9  1  0
  9 10  1  0
 10 11  2  0
 11 12  1  0
 12 13  2  0
 13 14  1  0
 14 15  1  0
 15 16  1  0
 16 17  2  0
 17 18  1  0
 18 19  2  0
 19 20  1  0
 20 21  2  0
 13 22  1  0
 22 23  1  0
 22 24  2  0
  8 25  2  0
 25 26  1  0
 26 27  2  0
  5 28  1  0
 28 29  2  0
 29  2  1  0
 27  6  1  0
 24 10  1  0
 21 16  1  0
  1 30  1  0
  1 31  1  0
  1 32  1  0
  3 33  1  0
  4 34  1  0
  7 35  1  0
 11 36  1  0
 12 37  1  0
 14 38  1  0
 15 39  1  0
 15 40  1  0
 17 41  1  0
 18 42  1  0
 19 43  1  0
 21 44  1  0
 23 45  1  0
 23 46  1  0
 24 47  1  0
 26 48  1  0
 28 49  1  0
 29 50  1  0
M  END
>  <UniqueID>  (5) 
5

>  <SMILES>  (5) 
Cc1ccc(-c2cc(Oc3ccc(NCc4cccnc4)c(N)c3)ncn2)cc1

>  <Energy>  (5) 
68.26275258662237

>  <Genealogy>  (5) 
Cc1ccc(-c2cc(Oc3ccc(NCc4cccnc4)c(N)c3)ncn2)cc1 (3D coordinates assigned)
Cc1ccc(-c2cc(Oc3ccc(NCc4cccnc4)c(N)c3)ncn2)cc1 (optimized conformer: 68.26275258662237 kcal/mol)

>  <smiles>  (5) 
Cc1ccc(-c2cc(Oc3ccc(NCc4cccnc4)c(N)c3)ncn2)cc1

>  <score_type>  (5) 
oracle

>  <origin>  (5) 
adgpu

>  <m_score__min__energy>  (5) 
-9.8800000000000008

>  <m_primary>  (5) 
energy

$$$$
5:0
     RDKit          3D

 46 48  0  0  0  0  0  0  0  0999 V2000
   -8.0400   20.1670  -32.7670 C   0  0  0  0  0  0  0  0  0  0  0  0
   -7.3630   21.3530  -32.1450 C   0  0  0  0  0  0  0  0  0  0  0  0
   -6.0050   21.5940  -32.3990 C   0  0  0  0  0  0  0  0  0  0  0  0
   -5.3730   22.7140  -31.8500 C   0  0  0  0  0  0  0  0  0  0  0  0
   -6.0920   23.6040  -31.0410 C   0  0  0  0  0  0  0  0  0  0  0  0
   -5.3200   25.0530  -30.4030 S   0  0  0  0  0  0  0  0  0  0  0  0
   -5.7230   26.2560  -31.2090 O   0  0  0  0  0  0  0  0  0  0  0  0
   -5.7380   25.2690  -28.9770 O   0  0  0  0  0  0  0  0  0  0  0  0
   -3.6050   24.8350  -30.4660 N   0  0  0  0  0  0  0  0  0  0  0  0
   -2.9370   24.0280  -29.4950 C   0  0  0  0  0  0  0  0  0  0  0  0
   -3.5060   22.8200  -29.0880 C   0  0  0  0  0  0  0  0  0  0  0  0
   -2.8970   22.0540  -28.1000 C   0  0  0  0  0  0  0  0  0  0  0  0
   -1.7120   22.4870  -27.4850 C   0  0  0  0  0  0  0  0  0  0  0  0
   -1.1120   21.6280  -26.4020 C   0  0  0  0  0  0  0  0  0  0  0  0
   -1.1070   23.7000  -27.9090 C   0  0  0  0  0  0  0  0  0  0  0  0
    0.3680   24.3090  -27.1180 S   0  0  0  0  0  0  0  0  0  0  0  0
    1.0790   23.1640  -26.4500 O   0  0  0  0  0  0  0  0  0  0  0  0
    1.3150   24.9260  -28.1080 O   0  0  0  0  0  0  0  0  0  0  0  0
   -0.0800   25.5290  -25.9290 C   0  0  0  0  0  0  0  0  0  0  0  0
   -0.1200   25.2100  -24.5640 C   0  0  0  0  0  0  0  0  0  0  0  0
   -0.4930   26.1800  -23.6270 C   0  0  0  0  0  0  0  0  0  0  0  0
   -0.8260   27.4700  -24.0490 C   0  0  0  0  0  0  0  0  0  0  0  0
   -0.7830   27.7940  -25.4090 C   0  0  0  0  0  0  0  0  0  0  0  0
   -0.4060   26.8280  -26.3460 C   0  0  0  0  0  0  0  0  0  0  0  0
   -1.7370   24.4720  -28.9130 C   0  0  0  0  0  0  0  0  0  0  0  0
   -1.1850   25.6940  -29.3030 O   0  0  0  0  0  0  0  0  0  0  0  0
   -7.4530   23.3750  -30.8010 C   0  0  0  0  0  0  0  0  0  0  0  0
   -8.0870   22.2580  -31.3530 C   0  0  0  0  0  0  0  0  0  0  0  0
   -8.4185   19.5039  -31.9752 H   0  0  0  0  0  0  0  0  0  0  0  0
   -8.8789   20.5091  -33.3909 H   0  0  0  0  0  0  0  0  0  0  0  0
   -7.3189   19.6186  -33.3909 H   0  0  0  0  0  0  0  0  0  0  0  0
   -5.4346   20.8990  -33.0328 H   0  0  0  0  0  0  0  0  0  0  0  0
   -4.3077   22.8971  -32.0539 H   0  0  0  0  0  0  0  0  0  0  0  0
   -4.4411   22.4722  -29.5513 H   0  0  0  0  0  0  0  0  0  0  0  0
   -3.3490   21.0980  -27.7971 H   0  0  0  0  0  0  0  0  0  0  0  0
   -1.3928   22.0300  -25.4174 H   0  0  0  0  0  0  0  0  0  0  0  0
   -1.4889   20.5992  -26.4990 H   0  0  0  0  0  0  0  0  0  0  0  0
   -0.0163   21.6278  -26.4990 H   0  0  0  0  0  0  0  0  0  0  0  0
    0.1423   24.1955  -24.2293 H   0  0  0  0  0  0  0  0  0  0  0  0
   -0.5242   25.9269  -22.5570 H   0  0  0  0  0  0  0  0  0  0  0  0
   -1.1220   28.2306  -23.3115 H   0  0  0  0  0  0  0  0  0  0  0  0
   -1.0459   28.8092  -25.7411 H   0  0  0  0  0  0  0  0  0  0  0  0
   -0.3648   27.0873  -27.4142 H   0  0  0  0  0  0  0  0  0  0  0  0
   -0.1860   25.8650  -29.3170 H   0  0  0  0  0  0  0  0  0  0  0  0
   -8.0249   24.0766  -30.1760 H   0  0  0  0  0  0  0  0  0  0  0  0
   -9.1575   22.0876  -31.1660 H   0  0  0  0  0  0  0  0  0  0  0  0
  1  2  1  0
  2  3  2  0
  3  4  1  0
  4  5  2  0
  5  6  1  0
  6  7  2  0
  6  8  2  0
  6  9  1  0
  9 10  1  0
 10 11  2  0
 11 12  1  0
 12 13  2  0
 13 14  1  0
 13 15  1  0
 15 16  1  0
 16 17  2  0
 16 18  2  0
 16 19  1  0
 19 20  2  0
 20 21  1  0
 21 22  2  0
 22 23  1  0
 23 24  2  0
 15 25  2  0
 25 26  1  0
  5 27  1  0
 27 28  2  0
 28  2  1  0
 25 10  1  0
 24 19  1  0
  1 29  1  0
  1 30  1  0
  1 31  1  0
  3 32  1  0
  4 33  1  0
 11 34  1  0
 12 35  1  0
 14 36  1  0
 14 37  1  0
 14 38  1  0
 20 39  1  0
 21 40  1  0
 22 41  1  0
 23 42  1  0
 24 43  1  0
 26 44  1  0
 27 45  1  0
 28 46  1  0
M  CHG  1   9  -1
M  END
>  <UniqueID>  (6) 
6

>  <SMILES>  (6) 
Cc1ccc(S(=O)(=O)[N-]c2ccc(C)c(S(=O)(=O)c3ccccc3)c2O)cc1

>  <Energy>  (6) 
58.71281896680856

>  <Genealogy>  (6) 
Cc1ccc(S(=O)(=O)[N-]c2ccc(C)c(S(=O)(=O)c3ccccc3)c2O)cc1 (protonated)
Cc1ccc(S(=O)(=O)[N-]c2ccc(C)c(S(=O)(=O)c3ccccc3)c2O)cc1 (3D coordinates assigned)
Cc1ccc(S(=O)(=O)[N-]c2ccc(C)c(S(=O)(=O)c3ccccc3)c2O)cc1 (optimized conformer: 58.71281896680856 kcal/mol)

>  <smiles>  (6) 
Cc1ccc(S(=O)(=O)Nc2ccc(C)c(S(=O)(=O)c3ccccc3)c2O)cc1

>  <score_type>  (6) 
oracle

>  <origin>  (6) 
adgpu

>  <m_score__min__energy>  (6) 
-12.08

>  <m_primary>  (6) 
energy

$$$$
6:0
     RDKit          3D

 42 44  0  0  0  0  0  0  0  0999 V2000
    0.4037   27.6965  -25.2618 H   0  0  0  0  0  0  0  0  0  0  0  0
   -0.2830   27.0500  -25.8280 C   0  0  0  0  0  0  0  0  0  0  0  0
   -1.1160   26.1580  -25.1530 C   0  0  0  0  0  0  0  0  0  0  0  0
   -1.0905   26.1069  -24.0545 H   0  0  0  0  0  0  0  0  0  0  0  0
   -1.9830   25.3290  -25.8700 C   0  0  0  0  0  0  0  0  0  0  0  0
   -2.6420   24.6324  -25.3310 H   0  0  0  0  0  0  0  0  0  0  0  0
   -2.0200   25.3780  -27.2760 C   0  0  0  0  0  0  0  0  0  0  0  0
   -2.9410   24.4800  -28.0140 C   0  0  0  0  0  0  0  0  0  0  0  0
   -3.1090   23.2980  -27.6060 O   0  0  0  0  0  0  0  0  0  0  0  0
   -3.5840   24.9190  -29.2220 N   0  0  0  0  0  0  0  0  0  0  0  0
   -3.1160   25.6710  -29.7760 H   0  0  0  0  0  0  0  0  0  0  0  0
   -4.7400   24.2790  -29.7920 C   0  0  0  0  0  0  0  0  0  0  0  0
   -5.4100   23.2410  -29.1190 C   0  0  0  0  0  0  0  0  0  0  0  0
   -5.0408   22.8933  -28.1429 H   0  0  0  0  0  0  0  0  0  0  0  0
   -6.5440   22.6490  -29.6860 C   0  0  0  0  0  0  0  0  0  0  0  0
   -7.0586   21.8329  -29.1576 H   0  0  0  0  0  0  0  0  0  0  0  0
   -7.0260   23.0920  -30.9240 C   0  0  0  0  0  0  0  0  0  0  0  0
   -8.4600   22.3470  -31.6230 S   0  0  0  0  0  0  0  0  0  0  0  0
   -9.0140   23.2280  -32.7080 O   0  0  0  0  0  0  0  0  0  0  0  0
   -9.4900   22.1560  -30.5460 O   0  0  0  0  0  0  0  0  0  0  0  0
   -8.0270   20.8150  -32.3070 N   0  0  0  0  0  0  0  0  0  0  0  0
   -6.8310   20.5590  -32.7390 C   0  0  0  0  0  0  0  0  0  0  0  0
   -5.8270   21.4060  -32.7100 O   0  0  0  0  0  0  0  0  0  0  0  0
   -4.7490   20.8550  -33.1920 N   0  0  0  0  0  0  0  0  0  0  0  0
   -5.0750   19.5940  -33.5510 C   0  0  0  0  0  0  0  0  0  0  0  0
   -4.1020   18.6070  -34.1070 C   0  0  0  0  0  0  0  0  0  0  0  0
   -3.5920   18.0897  -33.2810 H   0  0  0  0  0  0  0  0  0  0  0  0
   -4.6382   17.8716  -34.7248 H   0  0  0  0  0  0  0  0  0  0  0  0
   -3.3590   19.1327  -34.7248 H   0  0  0  0  0  0  0  0  0  0  0  0
   -6.4140   19.3680  -33.2860 C   0  0  0  0  0  0  0  0  0  0  0  0
   -7.1830   18.0930  -33.4270 C   0  0  0  0  0  0  0  0  0  0  0  0
   -7.4220   17.6967  -32.4291 H   0  0  0  0  0  0  0  0  0  0  0  0
   -8.1154   18.2861  -33.9778 H   0  0  0  0  0  0  0  0  0  0  0  0
   -6.5772   17.3584  -33.9778 H   0  0  0  0  0  0  0  0  0  0  0  0
   -6.3790   24.1440  -31.5840 C   0  0  0  0  0  0  0  0  0  0  0  0
   -6.7632   24.5055  -32.5493 H   0  0  0  0  0  0  0  0  0  0  0  0
   -5.2450   24.7360  -31.0180 C   0  0  0  0  0  0  0  0  0  0  0  0
   -4.7455   25.5664  -31.5385 H   0  0  0  0  0  0  0  0  0  0  0  0
   -1.1870   26.2990  -27.9490 C   0  0  0  0  0  0  0  0  0  0  0  0
   -1.2310   26.4280  -29.3340 O   0  0  0  0  0  0  0  0  0  0  0  0
   -0.3200   27.1230  -27.2220 C   0  0  0  0  0  0  0  0  0  0  0  0
    0.3349   27.8310  -27.7510 H   0  0  0  0  0  0  0  0  0  0  0  0
  1  2  1  0
  2  3  2  0
  3  4  1  0
  3  5  1  0
  5  6  1  0
  5  7  2  0
  7  8  1  0
  8  9  2  0
  8 10  1  0
 10 11  1  0
 10 12  1  0
 12 13  2  0
 13 14  1  0
 13 15  1  0
 15 16  1  0
 15 17  2  0
 17 18  1  0
 18 19  2  0
 18 20  2  0
 18 21  1  0
 21 22  2  0
 22 23  1  0
 23 24  1  0
 24 25  1  0
 25 26  1  0
 26 27  1  0
 26 28  1  0
 26 29  1  0
 25 30  2  0
 30 31  1  0
 31 32  1  0
 31 33  1  0
 31 34  1  0
 17 35  1  0
 35 36  1  0
 35 37  2  0
 37 38  1  0
  7 39  1  0
 39 40  1  0
 39 41  2  0
 41 42  1  0
 41  2  1  0
 37 12  1  0
 30 22  1  0
M  CHG  2  24  -1  40  -1
M  END
>  <UniqueID>  (7) 
7

>  <SMILES>  (7) 
Cc1[n-]o/c(=N\S(=O)(=O)c2ccc(NC(=O)c3ccccc3[O-])cc2)c1C

>  <Energy>  (7) 
84.92116195289773

>  <Genealogy>  (7) 
Cc1[n-]oc(=NS(=O)(=O)c2ccc(NC(=O)c3ccccc3[O-])cc2)c1C (protonated)
Cc1[n-]o/c(=N\S(=O)(=O)c2ccc(NC(=O)c3ccccc3[O-])cc2)c1C (cis-trans isomerization)
Cc1[n-]o/c(=N\S(=O)(=O)c2ccc(NC(=O)c3ccccc3[O-])cc2)c1C (3D coordinates assigned)
Cc1[n-]o/c(=N\S(=O)(=O)c2ccc(NC(=O)c3ccccc3[O-])cc2)c1C (optimized conformer: 84.92116195289773 kcal/mol)

>  <smiles>  (7) 
Cc1[nH]oc(=NS(=O)(=O)c2ccc(NC(=O)c3ccccc3O)cc2)c1C

>  <score_type>  (7) 
oracle

>  <origin>  (7) 
adgpu

>  <m_score__min__energy>  (7) 
-11.77

>  <m_primary>  (7) 
energy

$$$$
7:0
     RDKit          3D

 58 61  0  0  0  0  0  0  0  0999 V2000
   -2.1920   20.7290  -27.8760 C   0  0  0  0  0  0  0  0  0  0  0  0
   -2.0000   22.1810  -28.2110 C   0  0  0  0  0  0  0  0  0  0  0  0
   -0.9140   22.8960  -27.6750 C   0  0  0  0  0  0  0  0  0  0  0  0
   -0.7310   24.2470  -27.9970 C   0  0  0  0  0  0  0  0  0  0  0  0
   -1.6080   24.8810  -28.8820 C   0  0  0  0  0  0  0  0  0  0  0  0
   -2.6600   24.1660  -29.4710 C   0  0  0  0  0  0  0  0  0  0  0  0
   -3.5040   24.8500  -30.4080 N   0  0  0  0  0  0  0  0  0  0  0  0
   -5.2440   24.8780  -30.3870 S   0  0  0  0  0  0  0  0  0  0  0  0
   -5.7210   24.9510  -28.9590 O   0  0  0  0  0  0  0  0  0  0  0  0
   -5.7090   26.1120  -31.1160 O   0  0  0  0  0  0  0  0  0  0  0  0
   -5.9490   23.4720  -31.1880 C   0  0  0  0  0  0  0  0  0  0  0  0
   -7.2980   23.4760  -31.5750 C   0  0  0  0  0  0  0  0  0  0  0  0
   -7.8620   22.3440  -32.1680 C   0  0  0  0  0  0  0  0  0  0  0  0
   -7.0870   21.1980  -32.3900 C   0  0  0  0  0  0  0  0  0  0  0  0
   -7.7100   20.0670  -32.9260 O   0  0  0  0  0  0  0  0  0  0  0  0
   -5.7120   21.2060  -32.0510 C   0  0  0  0  0  0  0  0  0  0  0  0
   -4.8630   20.0740  -32.3140 N   0  0  0  0  0  0  0  0  0  0  0  0
   -3.4970   20.1890  -32.7490 C   0  0  0  0  0  0  0  0  0  0  0  0
   -2.6050   20.9800  -32.0110 C   0  0  0  0  0  0  0  0  0  0  0  0
   -1.2740   21.1140  -32.4170 C   0  0  0  0  0  0  0  0  0  0  0  0
   -0.8150   20.4590  -33.5700 C   0  0  0  0  0  0  0  0  0  0  0  0
    0.8600   20.6490  -34.0990 S   0  0  0  0  0  0  0  0  0  0  0  0
    1.1450   19.6650  -35.2000 O   0  0  0  0  0  0  0  0  0  0  0  0
    1.7760   20.3380  -32.9480 O   0  0  0  0  0  0  0  0  0  0  0  0
    1.1920   22.2670  -34.6690 N   0  0  0  0  0  0  0  0  0  0  0  0
    0.2460   22.6520  -35.7220 C   0  0  0  0  0  0  0  0  0  0  0  0
    0.4880   24.1240  -36.1110 C   0  0  0  0  0  0  0  0  0  0  0  0
    1.7590   24.6050  -35.6880 O   0  0  0  0  0  0  0  0  0  0  0  0
    2.7710   23.6590  -35.9920 C   0  0  0  0  0  0  0  0  0  0  0  0
    2.5770   22.3700  -35.1620 C   0  0  0  0  0  0  0  0  0  0  0  0
   -1.7030   19.6750  -34.3160 C   0  0  0  0  0  0  0  0  0  0  0  0
   -3.0350   19.5420  -33.9140 C   0  0  0  0  0  0  0  0  0  0  0  0
   -5.1630   22.3350  -31.4260 C   0  0  0  0  0  0  0  0  0  0  0  0
   -2.8740   22.8220  -29.1070 C   0  0  0  0  0  0  0  0  0  0  0  0
   -2.2085   20.6039  -26.7833 H   0  0  0  0  0  0  0  0  0  0  0  0
   -3.1444   20.3778  -28.2997 H   0  0  0  0  0  0  0  0  0  0  0  0
   -1.3636   20.1423  -28.2997 H   0  0  0  0  0  0  0  0  0  0  0  0
   -0.2057   22.3926  -27.0005 H   0  0  0  0  0  0  0  0  0  0  0  0
    0.1036   24.8095  -27.5531 H   0  0  0  0  0  0  0  0  0  0  0  0
   -1.4718   25.9468  -29.1175 H   0  0  0  0  0  0  0  0  0  0  0  0
   -7.9130   24.3732  -31.4109 H   0  0  0  0  0  0  0  0  0  0  0  0
   -8.9218   22.3523  -32.4627 H   0  0  0  0  0  0  0  0  0  0  0  0
   -8.0310   20.0240  -33.8850 H   0  0  0  0  0  0  0  0  0  0  0  0
   -5.2190   19.1250  -32.0430 H   0  0  0  0  0  0  0  0  0  0  0  0
   -2.9549   21.4987  -31.1063 H   0  0  0  0  0  0  0  0  0  0  0  0
   -0.5828   21.7362  -31.8295 H   0  0  0  0  0  0  0  0  0  0  0  0
    0.3951   22.0099  -36.6026 H   0  0  0  0  0  0  0  0  0  0  0  0
   -0.7837   22.5326  -35.3539 H   0  0  0  0  0  0  0  0  0  0  0  0
    0.4251   24.2130  -37.2056 H   0  0  0  0  0  0  0  0  0  0  0  0
   -0.2795   24.7299  -35.6073 H   0  0  0  0  0  0  0  0  0  0  0  0
    2.7237   23.4103  -37.0625 H   0  0  0  0  0  0  0  0  0  0  0  0
    3.7502   24.0955  -35.7459 H   0  0  0  0  0  0  0  0  0  0  0  0
    2.8005   21.4976  -35.7936 H   0  0  0  0  0  0  0  0  0  0  0  0
    3.2568   22.4021  -34.2978 H   0  0  0  0  0  0  0  0  0  0  0  0
   -1.3509   19.1613  -35.2227 H   0  0  0  0  0  0  0  0  0  0  0  0
   -3.7272   18.9290  -34.5099 H   0  0  0  0  0  0  0  0  0  0  0  0
   -4.1065   22.3288  -31.1197 H   0  0  0  0  0  0  0  0  0  0  0  0
   -3.7291   22.2712  -29.5258 H   0  0  0  0  0  0  0  0  0  0  0  0
  1  2  1  0
  2  3  2  0
  3  4  1  0
  4  5  2  0
  5  6  1  0
  6  7  1  0
  7  8  1  0
  8  9  2  0
  8 10  2  0
  8 11  1  0
 11 12  2  0
 12 13  1  0
 13 14  2  0
 14 15  1  0
 14 16  1  0
 16 17  1  0
 17 18  1  0
 18 19  2  0
 19 20  1  0
 20 21  2  0
 21 22  1  0
 22 23  2  0
 22 24  2  0
 22 25  1  0
 25 26  1  0
 26 27  1  0
 27 28  1  0
 28 29  1  0
 29 30  1  0
 21 31  1  0
 31 32  2  0
 16 33  2  0
  6 34  2  0
 34  2  1  0
 33 11  1  0
 32 18  1  0
 30 25  1  0
  1 35  1  0
  1 36  1  0
  1 37  1  0
  3 38  1  0
  4 39  1  0
  5 40  1  0
 12 41  1  0
 13 42  1  0
 15 43  1  0
 17 44  1  0
 19 45  1  0
 20 46  1  0
 26 47  1  0
 26 48  1  0
 27 49  1  0
 27 50  1  0
 29 51  1  0
 29 52  1  0
 30 53  1  0
 30 54  1  0
 31 55  1  0
 32 56  1  0
 33 57  1  0
 34 58  1  0
M  CHG  1   7  -1
M  END
>  <UniqueID>  (8) 
8

>  <SMILES>  (8) 
Cc1cccc([N-]S(=O)(=O)c2ccc(O)c(Nc3ccc(S(=O)(=O)N4CCOCC4)cc3)c2)c1

>  <Energy>  (8) 
81.46505745691134

>  <Genealogy>  (8) 
Cc1cccc([N-]S(=O)(=O)c2ccc(O)c(Nc3ccc(S(=O)(=O)N4CCOCC4)cc3)c2)c1 (protonated)
Cc1cccc([N-]S(=O)(=O)c2ccc(O)c(Nc3ccc(S(=O)(=O)N4CCOCC4)cc3)c2)c1 (3D coordinates assigned)
Cc1cccc([N-]S(=O)(=O)c2ccc(O)c(Nc3ccc(S(=O)(=O)N4CCOCC4)cc3)c2)c1 (nonaromatic ring conformer: 81.46505745691134 kcal/mol)

>  <smiles>  (8) 
Cc1cccc(NS(=O)(=O)c2ccc(O)c(Nc3ccc(S(=O)(=O)N4CCOCC4)cc3)c2)c1

>  <score_type>  (8) 
oracle

>  <origin>  (8) 
adgpu

>  <m_score__min__energy>  (8) 
-11.1

>  <m_primary>  (8) 
energy

$$$$
8:0
     RDKit          3D

 48 50  0  0  0  0  0  0  0  0999 V2000
   -9.3100   18.2140  -31.5780 C   0  0  0  0  0  0  0  0  0  0  0  0
   -8.2460   19.1000  -32.1620 C   0  0  0  0  0  0  0  0  0  0  0  0
   -7.2670   18.5560  -33.0060 C   0  0  0  0  0  0  0  0  0  0  0  0
   -6.2640   19.3640  -33.5530 C   0  0  0  0  0  0  0  0  0  0  0  0
   -5.2620   18.7700  -34.3990 N   0  0  0  0  0  0  0  0  0  0  0  0
   -4.6090   17.5220  -34.1110 C   0  0  0  0  0  0  0  0  0  0  0  0
   -5.3330   16.3230  -34.2290 C   0  0  0  0  0  0  0  0  0  0  0  0
   -4.7540   15.1050  -33.8750 C   0  0  0  0  0  0  0  0  0  0  0  0
   -3.4490   15.0680  -33.3870 C   0  0  0  0  0  0  0  0  0  0  0  0
   -2.7160   16.2490  -33.2560 C   0  0  0  0  0  0  0  0  0  0  0  0
   -3.2780   17.4900  -33.6180 C   0  0  0  0  0  0  0  0  0  0  0  0
   -2.4420   18.7130  -33.5140 C   0  0  0  0  0  0  0  0  0  0  0  0
   -2.1090   19.3470  -34.5520 O   0  0  0  0  0  0  0  0  0  0  0  0
   -2.0290   19.1840  -32.2240 N   0  0  0  0  0  0  0  0  0  0  0  0
   -2.3370   20.4590  -31.6400 C   0  0  0  0  0  0  0  0  0  0  0  0
   -3.3950   21.2040  -32.1740 C   0  0  0  0  0  0  0  0  0  0  0  0
   -3.7370   22.4430  -31.6250 C   0  0  0  0  0  0  0  0  0  0  0  0
   -3.0320   22.9450  -30.5230 C   0  0  0  0  0  0  0  0  0  0  0  0
   -3.4720   24.4970  -29.8190 S   0  0  0  0  0  0  0  0  0  0  0  0
   -2.0510   25.2880  -29.2350 N   0  0  0  0  0  0  0  0  0  0  0  0
   -4.4340   24.2880  -28.6830 O   0  0  0  0  0  0  0  0  0  0  0  0
   -4.1330   25.3570  -30.8590 O   0  0  0  0  0  0  0  0  0  0  0  0
   -1.9950   22.1870  -29.9630 C   0  0  0  0  0  0  0  0  0  0  0  0
   -1.6510   20.9490  -30.5130 C   0  0  0  0  0  0  0  0  0  0  0  0
   -6.2220   20.7280  -33.2210 C   0  0  0  0  0  0  0  0  0  0  0  0
   -7.1890   21.2910  -32.3720 C   0  0  0  0  0  0  0  0  0  0  0  0
   -7.1130   22.7560  -32.0370 C   0  0  0  0  0  0  0  0  0  0  0  0
   -8.2090   20.4700  -31.8380 C   0  0  0  0  0  0  0  0  0  0  0  0
   -9.1870   20.9880  -30.9820 O   0  0  0  0  0  0  0  0  0  0  0  0
   -9.2599   18.2557  -30.4799 H   0  0  0  0  0  0  0  0  0  0  0  0
  -10.2992   18.5590  -31.9133 H   0  0  0  0  0  0  0  0  0  0  0  0
   -9.1498   17.1787  -31.9133 H   0  0  0  0  0  0  0  0  0  0  0  0
   -7.2878   17.4815  -33.2408 H   0  0  0  0  0  0  0  0  0  0  0  0
   -4.9510   19.2970  -35.2460 H   0  0  0  0  0  0  0  0  0  0  0  0
   -6.3667   16.3458  -34.6044 H   0  0  0  0  0  0  0  0  0  0  0  0
   -5.3277   14.1724  -33.9810 H   0  0  0  0  0  0  0  0  0  0  0  0
   -2.9957   14.1064  -33.1045 H   0  0  0  0  0  0  0  0  0  0  0  0
   -1.6882   16.2106  -32.8659 H   0  0  0  0  0  0  0  0  0  0  0  0
   -3.9611   20.8116  -33.0316 H   0  0  0  0  0  0  0  0  0  0  0  0
   -4.5624   23.0260  -32.0595 H   0  0  0  0  0  0  0  0  0  0  0  0
   -1.5500   25.6690  -30.0690 H   0  0  0  0  0  0  0  0  0  0  0  0
   -1.4495   22.5678  -29.0870 H   0  0  0  0  0  0  0  0  0  0  0  0
   -0.8412   20.3555  -30.0634 H   0  0  0  0  0  0  0  0  0  0  0  0
   -5.4225   21.3628  -33.6306 H   0  0  0  0  0  0  0  0  0  0  0  0
   -7.1064   22.8824  -30.9443 H   0  0  0  0  0  0  0  0  0  0  0  0
   -6.1916   23.1817  -32.4609 H   0  0  0  0  0  0  0  0  0  0  0  0
   -7.9854   23.2748  -32.4609 H   0  0  0  0  0  0  0  0  0  0  0  0
   -8.9750   21.4090  -30.0870 H   0  0  0  0  0  0  0  0  0  0  0  0
  1  2  1  0
  2  3  2  0
  3  4  1  0
  4  5  1  0
  5  6  1  0
  6  7  2  0
  7  8  1  0
  8  9  2  0
  9 10  1  0
 10 11  2  0
 11 12  1  0
 12 13  2  0
 12 14  1  0
 14 15  1  0
 15 16  2  0
 16 17  1  0
 17 18  2  0
 18 19  1  0
 19 20  1  0
 19 21  2  0
 19 22  2  0
 18 23  1  0
 23 24  2  0
  4 25  2  0
 25 26  1  0
 26 27  1  0
 26 28  2  0
 28 29  1  0
 28  2  1  0
 11  6  1  0
 24 15  1  0
  1 30  1  0
  1 31  1  0
  1 32  1  0
  3 33  1  0
  5 34  1  0
  7 35  1  0
  8 36  1  0
  9 37  1  0
 10 38  1  0
 16 39  1  0
 17 40  1  0
 20 41  1  0
 23 42  1  0
 24 43  1  0
 25 44  1  0
 27 45  1  0
 27 46  1  0
 27 47  1  0
 29 48  1  0
M  CHG  2  14  -1  20  -1
M  END
>  <UniqueID>  (9) 
9

>  <SMILES>  (9) 
Cc1cc(Nc2ccccc2C(=O)[N-]c2ccc(S([NH-])(=O)=O)cc2)cc(C)c1O

>  <Energy>  (9) 
63.67899541730138

>  <Genealogy>  (9) 
Cc1cc(Nc2ccccc2C(=O)[N-]c2ccc(S([NH-])(=O)=O)cc2)cc(C)c1O (protonated)
Cc1cc(Nc2ccccc2C(=O)[N-]c2ccc(S([NH-])(=O)=O)cc2)cc(C)c1O (3D coordinates assigned)
Cc1cc(Nc2ccccc2C(=O)[N-]c2ccc(S([NH-])(=O)=O)cc2)cc(C)c1O (optimized conformer: 63.67899541730138 kcal/mol)

>  <smiles>  (9) 
Cc1cc(Nc2ccccc2C(=O)Nc2ccc(S(N)(=O)=O)cc2)cc(C)c1O

>  <score_type>  (9) 
oracle

>  <origin>  (9) 
adgpu

>  <m_score__min__energy>  (9) 
-11.050000000000001

>  <m_primary>  (9) 
energy

$$$$
9:0
     RDKit          3D

 44 46  0  0  0  0  0  0  0  0999 V2000
   -3.4580   21.4750  -32.9060 O   0  0  0  0  0  0  0  0  0  0  0  0
   -3.6970   22.3400  -32.0210 C   0  0  0  0  0  0  0  0  0  0  0  0
   -2.6250   22.9050  -31.2550 N   0  0  0  0  0  0  0  0  0  0  0  0
   -2.5120   22.8670  -29.8260 C   0  0  0  0  0  0  0  0  0  0  0  0
   -2.3320   21.6260  -29.2020 C   0  0  0  0  0  0  0  0  0  0  0  0
   -2.2030   21.5400  -27.8090 C   0  0  0  0  0  0  0  0  0  0  0  0
   -1.9860   19.9670  -27.0370 S   0  0  0  0  0  0  0  0  0  0  0  0
   -1.5850   20.1680  -25.6020 O   0  0  0  0  0  0  0  0  0  0  0  0
   -3.2910   19.2240  -27.0560 O   0  0  0  0  0  0  0  0  0  0  0  0
   -0.7680   19.0150  -27.8520 N   0  0  0  0  0  0  0  0  0  0  0  0
   -0.4700   17.7940  -27.0750 C   0  0  0  0  0  0  0  0  0  0  0  0
    0.7890   17.0600  -27.5920 C   0  0  0  0  0  0  0  0  0  0  0  0
    1.1990   17.5480  -28.9840 C   0  0  0  0  0  0  0  0  0  0  0  0
    1.4260   19.0690  -28.9930 C   0  0  0  0  0  0  0  0  0  0  0  0
    0.4490   19.8150  -28.0630 C   0  0  0  0  0  0  0  0  0  0  0  0
   -2.2420   22.7070  -27.0380 C   0  0  0  0  0  0  0  0  0  0  0  0
   -2.3870   23.9530  -27.6550 C   0  0  0  0  0  0  0  0  0  0  0  0
   -2.5060   24.0410  -29.0450 C   0  0  0  0  0  0  0  0  0  0  0  0
   -2.5800   25.2970  -29.6390 O   0  0  0  0  0  0  0  0  0  0  0  0
   -5.0920   22.7560  -31.7650 C   0  0  0  0  0  0  0  0  0  0  0  0
   -6.1180   21.8140  -31.9580 C   0  0  0  0  0  0  0  0  0  0  0  0
   -7.4440   22.1350  -31.6570 C   0  0  0  0  0  0  0  0  0  0  0  0
   -7.7620   23.3980  -31.1580 C   0  0  0  0  0  0  0  0  0  0  0  0
   -6.7580   24.3520  -30.9810 C   0  0  0  0  0  0  0  0  0  0  0  0
   -5.4260   24.0530  -31.2990 C   0  0  0  0  0  0  0  0  0  0  0  0
   -4.4810   25.0740  -31.1760 O   0  0  0  0  0  0  0  0  0  0  0  0
   -2.2915   20.7106  -29.8107 H   0  0  0  0  0  0  0  0  0  0  0  0
   -0.3087   18.0747  -26.0237 H   0  0  0  0  0  0  0  0  0  0  0  0
   -1.3251   17.1105  -27.1826 H   0  0  0  0  0  0  0  0  0  0  0  0
    1.6187   17.2401  -26.8927 H   0  0  0  0  0  0  0  0  0  0  0  0
    0.5560   15.9871  -27.6602 H   0  0  0  0  0  0  0  0  0  0  0  0
    2.1304   17.0440  -29.2814 H   0  0  0  0  0  0  0  0  0  0  0  0
    0.3890   17.3115  -29.6897 H   0  0  0  0  0  0  0  0  0  0  0  0
    2.4548   19.2745  -28.6624 H   0  0  0  0  0  0  0  0  0  0  0  0
    1.2526   19.4277  -30.0183 H   0  0  0  0  0  0  0  0  0  0  0  0
    0.9370   19.9954  -27.0938 H   0  0  0  0  0  0  0  0  0  0  0  0
    0.1715   20.7717  -28.5295 H   0  0  0  0  0  0  0  0  0  0  0  0
   -2.1583   22.6438  -25.9430 H   0  0  0  0  0  0  0  0  0  0  0  0
   -2.4075   24.8677  -27.0443 H   0  0  0  0  0  0  0  0  0  0  0  0
   -5.8744   20.8153  -32.3495 H   0  0  0  0  0  0  0  0  0  0  0  0
   -8.2384   21.3905  -31.8138 H   0  0  0  0  0  0  0  0  0  0  0  0
   -8.8039   23.6425  -30.9039 H   0  0  0  0  0  0  0  0  0  0  0  0
   -7.0146   25.3470  -30.5885 H   0  0  0  0  0  0  0  0  0  0  0  0
   -3.4840   24.9130  -31.2170 H   0  0  0  0  0  0  0  0  0  0  0  0
  1  2  2  0
  2  3  1  0
  3  4  1  0
  4  5  2  0
  5  6  1  0
  6  7  1  0
  7  8  2  0
  7  9  2  0
  7 10  1  0
 10 11  1  0
 11 12  1  0
 12 13  1  0
 13 14  1  0
 14 15  1  0
  6 16  2  0
 16 17  1  0
 17 18  2  0
 18 19  1  0
  2 20  1  0
 20 21  2  0
 21 22  1  0
 22 23  2  0
 23 24  1  0
 24 25  2  0
 25 26  1  0
 18  4  1  0
 25 20  1  0
 15 10  1  0
  5 27  1  0
 11 28  1  0
 11 29  1  0
 12 30  1  0
 12 31  1  0
 13 32  1  0
 13 33  1  0
 14 34  1  0
 14 35  1  0
 15 36  1  0
 15 37  1  0
 16 38  1  0
 17 39  1  0
 21 40  1  0
 22 41  1  0
 23 42  1  0
 24 43  1  0
 26 44  1  0
M  CHG  2   3  -1  19  -1
M  END
>  <UniqueID>  (10) 
10

>  <SMILES>  (10) 
O=C([N-]c1cc(S(=O)(=O)N2CCCCC2)ccc1[O-])c1ccccc1O

>  <Energy>  (10) 
59.32043546499942

>  <Genealogy>  (10) 
O=C([N-]c1cc(S(=O)(=O)N2CCCCC2)ccc1[O-])c1ccccc1O (protonated)
O=C([N-]c1cc(S(=O)(=O)N2CCCCC2)ccc1[O-])c1ccccc1O (3D coordinates assigned)
O=C([N-]c1cc(S(=O)(=O)N2CCCCC2)ccc1[O-])c1ccccc1O (nonaromatic ring conformer: 59.32043546499942 kcal/mol)

>  <smiles>  (10) 
O=C(Nc1cc(S(=O)(=O)N2CCCCC2)ccc1O)c1ccccc1O

>  <score_type>  (10) 
oracle

>  <origin>  (10) 
adgpu

>  <m_score__min__energy>  (10) 
-12.369999999999999

>  <m_primary>  (10) 
energy

$$$$
10:0
     RDKit          3D

 50 52  0  0  0  0  0  0  0  0999 V2000
   -2.5770   24.2380  -26.8700 C   0  0  0  0  0  0  0  0  0  0  0  0
   -1.9440   23.4610  -27.9910 C   0  0  0  0  0  0  0  0  0  0  0  0
   -1.1510   22.3420  -27.6910 C   0  0  0  0  0  0  0  0  0  0  0  0
   -0.5450   21.6070  -28.7110 C   0  0  0  0  0  0  0  0  0  0  0  0
   -0.7340   21.9710  -30.0530 C   0  0  0  0  0  0  0  0  0  0  0  0
   -0.1190   21.2400  -31.1250 N   0  0  0  0  0  0  0  0  0  0  0  0
   -0.6350   21.1090  -32.4560 C   0  0  0  0  0  0  0  0  0  0  0  0
    0.0910   21.4690  -33.4210 O   0  0  0  0  0  0  0  0  0  0  0  0
   -2.0050   20.6100  -32.7220 C   0  0  0  0  0  0  0  0  0  0  0  0
   -3.0590   21.5180  -32.9230 C   0  0  0  0  0  0  0  0  0  0  0  0
   -4.3540   21.0550  -33.1770 C   0  0  0  0  0  0  0  0  0  0  0  0
   -4.6140   19.6810  -33.2290 C   0  0  0  0  0  0  0  0  0  0  0  0
   -6.2540   19.1150  -33.5380 S   0  0  0  0  0  0  0  0  0  0  0  0
   -6.9000   20.0450  -34.5280 O   0  0  0  0  0  0  0  0  0  0  0  0
   -6.2190   17.7320  -34.1310 O   0  0  0  0  0  0  0  0  0  0  0  0
   -7.1670   19.1140  -32.0440 N   0  0  0  0  0  0  0  0  0  0  0  0
   -8.5240   18.6040  -32.2680 C   0  0  0  0  0  0  0  0  0  0  0  0
   -9.4380   19.7890  -32.5400 C   0  0  0  0  0  0  0  0  0  0  0  0
   -8.6710   21.0110  -32.0710 C   0  0  0  0  0  0  0  0  0  0  0  0
   -7.3410   20.4840  -31.5500 C   0  0  0  0  0  0  0  0  0  0  0  0
   -3.5720   18.7700  -33.0100 C   0  0  0  0  0  0  0  0  0  0  0  0
   -2.2780   19.2310  -32.7520 C   0  0  0  0  0  0  0  0  0  0  0  0
   -1.5100   23.0930  -30.3570 C   0  0  0  0  0  0  0  0  0  0  0  0
   -2.1450   23.8200  -29.3420 C   0  0  0  0  0  0  0  0  0  0  0  0
   -2.9810   24.9200  -29.7090 N   0  0  0  0  0  0  0  0  0  0  0  0
   -4.6570   24.7130  -30.0950 S   0  0  0  0  0  0  0  0  0  0  0  0
   -4.9760   23.0310  -30.5900 C   0  0  0  0  0  0  0  0  0  0  0  0
   -5.5020   25.0590  -28.9020 O   0  0  0  0  0  0  0  0  0  0  0  0
   -5.0120   25.6220  -31.2370 O   0  0  0  0  0  0  0  0  0  0  0  0
   -2.2430   23.8280  -25.9054 H   0  0  0  0  0  0  0  0  0  0  0  0
   -2.2792   25.2945  -26.9423 H   0  0  0  0  0  0  0  0  0  0  0  0
   -3.6718   24.1599  -26.9423 H   0  0  0  0  0  0  0  0  0  0  0  0
   -1.0060   22.0419  -26.6427 H   0  0  0  0  0  0  0  0  0  0  0  0
    0.0832   20.7390  -28.4620 H   0  0  0  0  0  0  0  0  0  0  0  0
   -2.8640   22.5997  -32.8802 H   0  0  0  0  0  0  0  0  0  0  0  0
   -5.1713   21.7737  -33.3365 H   0  0  0  0  0  0  0  0  0  0  0  0
   -8.5283   17.9242  -33.1328 H   0  0  0  0  0  0  0  0  0  0  0  0
   -8.8726   18.0502  -31.3838 H   0  0  0  0  0  0  0  0  0  0  0  0
   -9.6601   19.8640  -33.6147 H   0  0  0  0  0  0  0  0  0  0  0  0
  -10.4016   19.6882  -32.0191 H   0  0  0  0  0  0  0  0  0  0  0  0
   -8.5074   21.7062  -32.9076 H   0  0  0  0  0  0  0  0  0  0  0  0
   -9.2214   21.5645  -31.2960 H   0  0  0  0  0  0  0  0  0  0  0  0
   -6.5200   21.1187  -31.9149 H   0  0  0  0  0  0  0  0  0  0  0  0
   -7.3316   20.4959  -30.4501 H   0  0  0  0  0  0  0  0  0  0  0  0
   -3.7730   17.6890  -33.0412 H   0  0  0  0  0  0  0  0  0  0  0  0
   -1.4673   18.5098  -32.5711 H   0  0  0  0  0  0  0  0  0  0  0  0
   -1.6233   23.4085  -31.4047 H   0  0  0  0  0  0  0  0  0  0  0  0
   -5.0953   22.4019  -29.6956 H   0  0  0  0  0  0  0  0  0  0  0  0
   -5.8972   22.9938  -31.1900 H   0  0  0  0  0  0  0  0  0  0  0  0
   -4.1324   22.6591  -31.1900 H   0  0  0  0  0  0  0  0  0  0  0  0
  1  2  1  0
  2  3  2  0
  3  4  1  0
  4  5  2  0
  5  6  1  0
  6  7  1  0
  7  8  2  0
  7  9  1  0
  9 10  2  0
 10 11  1  0
 11 12  2  0
 12 13  1  0
 13 14  2  0
 13 15  2  0
 13 16  1  0
 16 17  1  0
 17 18  1  0
 18 19  1  0
 19 20  1  0
 12 21  1  0
 21 22  2  0
  5 23  1  0
 23 24  2  0
 24 25  1  0
 25 26  1  0
 26 27  1  0
 26 28  2  0
 26 29  2  0
 24  2  1  0
 22  9  1  0
 20 16  1  0
  1 30  1  0
  1 31  1  0
  1 32  1  0
  3 33  1  0
  4 34  1  0
 10 35  1  0
 11 36  1  0
 17 37  1  0
 17 38  1  0
 18 39  1  0
 18 40  1  0
 19 41  1  0
 19 42  1  0
 20 43  1  0
 20 44  1  0
 21 45  1  0
 22 46  1  0
 23 47  1  0
 27 48  1  0
 27 49  1  0
 27 50  1  0
M  CHG  2   6  -1  25  -1
M  END
>  <UniqueID>  (11) 
11

>  <SMILES>  (11) 
Cc1ccc([N-]C(=O)c2ccc(S(=O)(=O)N3CCCC3)cc2)cc1[N-]S(C)(=O)=O

>  <Energy>  (11) 
63.20382395196312

>  <Genealogy>  (11) 
Cc1ccc([N-]C(=O)c2ccc(S(=O)(=O)N3CCCC3)cc2)cc1[N-]S(C)(=O)=O (protonated)
Cc1ccc([N-]C(=O)c2ccc(S(=O)(=O)N3CCCC3)cc2)cc1[N-]S(C)(=O)=O (3D coordinates assigned)
Cc1ccc([N-]C(=O)c2ccc(S(=O)(=O)N3CCCC3)cc2)cc1[N-]S(C)(=O)=O (nonaromatic ring conformer: 63.20382395196312 kcal/mol)

>  <smiles>  (11) 
Cc1ccc(NC(=O)c2ccc(S(=O)(=O)N3CCCC3)cc2)cc1NS(C)(=O)=O

>  <score_type>  (11) 
oracle

>  <origin>  (11) 
adgpu

>  <m_score__min__energy>  (11) 
-12.220000000000001

>  <m_primary>  (11) 
energy

$$$$
11:0
     RDKit          3D

 63 66  0  0  0  0  0  0  0  0999 V2000
   -8.4040   18.8240  -32.1620 C   0  0  0  0  0  0  0  0  0  0  0  0
   -7.8880   20.2270  -31.9820 C   0  0  0  0  0  0  0  0  0  0  0  0
   -8.7140   21.1800  -31.3660 C   0  0  0  0  0  0  0  0  0  0  0  0
   -8.2880   22.5020  -31.2120 C   0  0  0  0  0  0  0  0  0  0  0  0
   -7.0220   22.8980  -31.6690 C   0  0  0  0  0  0  0  0  0  0  0  0
   -6.5570   24.2540  -31.5380 N   0  0  0  0  0  0  0  0  0  0  0  0
   -5.4680   24.7860  -30.2980 S   0  0  0  0  0  0  0  0  0  0  0  0
   -4.6120   25.8970  -30.8420 O   0  0  0  0  0  0  0  0  0  0  0  0
   -6.2600   25.3100  -29.1340 O   0  0  0  0  0  0  0  0  0  0  0  0
   -4.4680   23.4440  -29.7560 C   0  0  0  0  0  0  0  0  0  0  0  0
   -4.4680   23.0730  -28.4040 C   0  0  0  0  0  0  0  0  0  0  0  0
   -3.6780   22.0060  -27.9700 C   0  0  0  0  0  0  0  0  0  0  0  0
   -2.8850   21.3040  -28.8830 C   0  0  0  0  0  0  0  0  0  0  0  0
   -2.1170   20.2700  -28.4590 F   0  0  0  0  0  0  0  0  0  0  0  0
   -2.8790   21.6720  -30.2310 C   0  0  0  0  0  0  0  0  0  0  0  0
   -3.6660   22.7420  -30.6670 C   0  0  0  0  0  0  0  0  0  0  0  0
   -6.1890   21.9470  -32.2770 C   0  0  0  0  0  0  0  0  0  0  0  0
   -6.5940   20.6090  -32.4150 C   0  0  0  0  0  0  0  0  0  0  0  0
   -5.6420   19.6500  -33.0130 C   0  0  0  0  0  0  0  0  0  0  0  0
   -6.0400   18.3490  -33.3430 C   0  0  0  0  0  0  0  0  0  0  0  0
   -5.0890   17.4600  -33.8700 C   0  0  0  0  0  0  0  0  0  0  0  0
   -5.4320   16.1000  -34.2260 N   0  0  0  0  0  0  0  0  0  0  0  0
   -4.3600   15.1730  -34.6040 C   0  0  0  0  0  0  0  0  0  0  0  0
   -6.8210   15.6360  -34.2050 C   0  0  0  0  0  0  0  0  0  0  0  0
   -3.8100   17.8930  -34.0320 N   0  0  0  0  0  0  0  0  0  0  0  0
   -3.4250   19.1520  -33.6910 C   0  0  0  0  0  0  0  0  0  0  0  0
   -2.0540   19.5570  -33.8530 N   0  0  0  0  0  0  0  0  0  0  0  0
   -1.6470   20.9270  -33.5070 C   0  0  0  0  0  0  0  0  0  0  0  0
   -0.1170   21.0500  -33.4380 C   0  0  0  0  0  0  0  0  0  0  0  0
    0.5670   20.5390  -34.6510 N   0  0  0  0  0  0  0  0  0  0  0  0
    0.8320   21.6210  -35.6170 C   0  0  0  0  0  0  0  0  0  0  0  0
   -0.1010   19.3900  -35.3120 C   0  0  0  0  0  0  0  0  0  0  0  0
   -1.0440   18.6290  -34.3720 C   0  0  0  0  0  0  0  0  0  0  0  0
   -4.3440   20.0150  -33.1820 N   0  0  0  0  0  0  0  0  0  0  0  0
   -8.5725   18.3660  -31.1762 H   0  0  0  0  0  0  0  0  0  0  0  0
   -9.3512   18.8505  -32.7207 H   0  0  0  0  0  0  0  0  0  0  0  0
   -7.6653   18.2305  -32.7207 H   0  0  0  0  0  0  0  0  0  0  0  0
   -9.7080   20.8829  -31.0003 H   0  0  0  0  0  0  0  0  0  0  0  0
   -8.9494   23.2367  -30.7295 H   0  0  0  0  0  0  0  0  0  0  0  0
   -6.8130   24.9520  -32.2750 H   0  0  0  0  0  0  0  0  0  0  0  0
   -5.0913   23.6232  -27.6837 H   0  0  0  0  0  0  0  0  0  0  0  0
   -3.6797   21.7175  -26.9085 H   0  0  0  0  0  0  0  0  0  0  0  0
   -2.2550   21.1198  -30.9491 H   0  0  0  0  0  0  0  0  0  0  0  0
   -3.6560   23.0339  -31.7275 H   0  0  0  0  0  0  0  0  0  0  0  0
   -5.2017   22.2543  -32.6521 H   0  0  0  0  0  0  0  0  0  0  0  0
   -7.0812   18.0281  -33.1919 H   0  0  0  0  0  0  0  0  0  0  0  0
   -3.8899   14.7664  -33.6964 H   0  0  0  0  0  0  0  0  0  0  0  0
   -4.7806   14.3493  -35.1995 H   0  0  0  0  0  0  0  0  0  0  0  0
   -3.6056   15.7080  -35.1995 H   0  0  0  0  0  0  0  0  0  0  0  0
   -7.1546   15.5245  -33.1628 H   0  0  0  0  0  0  0  0  0  0  0  0
   -7.4604   16.3694  -34.7182 H   0  0  0  0  0  0  0  0  0  0  0  0
   -6.8912   14.6656  -34.7182 H   0  0  0  0  0  0  0  0  0  0  0  0
   -2.0287   21.6190  -34.2721 H   0  0  0  0  0  0  0  0  0  0  0  0
   -2.0619   21.1752  -32.5189 H   0  0  0  0  0  0  0  0  0  0  0  0
    0.1428   22.1114  -33.3114 H   0  0  0  0  0  0  0  0  0  0  0  0
    0.2217   20.4369  -32.5898 H   0  0  0  0  0  0  0  0  0  0  0  0
    1.0595   22.5500  -35.0737 H   0  0  0  0  0  0  0  0  0  0  0  0
    1.6894   21.3464  -36.2490 H   0  0  0  0  0  0  0  0  0  0  0  0
   -0.0553   21.7738  -36.2490 H   0  0  0  0  0  0  0  0  0  0  0  0
   -0.6840   19.7661  -36.1656 H   0  0  0  0  0  0  0  0  0  0  0  0
    0.6846   18.6893  -35.6311 H   0  0  0  0  0  0  0  0  0  0  0  0
   -1.5390   17.8169  -34.9247 H   0  0  0  0  0  0  0  0  0  0  0  0
   -0.4698   18.2007  -33.5373 H   0  0  0  0  0  0  0  0  0  0  0  0
  1  2  1  0
  2  3  2  0
  3  4  1  0
  4  5  2  0
  5  6  1  0
  6  7  1  0
  7  8  2  0
  7  9  2  0
  7 10  1  0
 10 11  2  0
 11 12  1  0
 12 13  2  0
 13 14  1  0
 13 15  1  0
 15 16  2  0
  5 17  1  0
 17 18  2  0
 18 19  1  0
 19 20  2  0
 20 21  1  0
 21 22  1  0
 22 23  1  0
 22 24  1  0
 21 25  2  0
 25 26  1  0
 26 27  1  0
 27 28  1  0
 28 29  1  0
 29 30  1  0
 30 31  1  0
 30 32  1  0
 32 33  1  0
 26 34  2  0
 18  2  1  0
 34 19  1  0
 16 10  1  0
 33 27  1  0
  1 35  1  0
  1 36  1  0
  1 37  1  0
  3 38  1  0
  4 39  1  0
  6 40  1  0
 11 41  1  0
 12 42  1  0
 15 43  1  0
 16 44  1  0
 17 45  1  0
 20 46  1  0
 23 47  1  0
 23 48  1  0
 23 49  1  0
 24 50  1  0
 24 51  1  0
 24 52  1  0
 28 53  1  0
 28 54  1  0
 29 55  1  0
 29 56  1  0
 31 57  1  0
 31 58  1  0
 31 59  1  0
 32 60  1  0
 32 61  1  0
 33 62  1  0
 33 63  1  0
M  END
>  <UniqueID>  (12) 
12

>  <SMILES>  (12) 
Cc1ccc(NS(=O)(=O)c2ccc(F)cc2)cc1-c1cc(N(C)C)nc(N2CCN(C)CC2)n1

>  <Energy>  (12) 
81.91239524106993

>  <Genealogy>  (12) 
Cc1ccc(NS(=O)(=O)c2ccc(F)cc2)cc1-c1cc(N(C)C)nc(N2CCN(C)CC2)n1 (3D coordinates assigned)
Cc1ccc(NS(=O)(=O)c2ccc(F)cc2)cc1-c1cc(N(C)C)nc(N2CCN(C)CC2)n1 (nonaromatic ring conformer: 81.91239524106993 kcal/mol)

>  <smiles>  (12) 
Cc1ccc(NS(=O)(=O)c2ccc(F)cc2)cc1-c1cc(N(C)C)nc(N2CCN(C)CC2)n1

>  <score_type>  (12) 
oracle

>  <origin>  (12) 
adgpu

>  <m_score__min__energy>  (12) 
-10.15

>  <m_primary>  (12) 
energy

$$$$
12:0
     RDKit          3D

 49 52  0  0  0  0  0  0  0  0999 V2000
   -7.2870   17.7390  -32.3670 C   0  0  0  0  0  0  0  0  0  0  0  0
   -6.9710   19.1430  -32.1150 N   0  0  0  0  0  0  0  0  0  0  0  0
   -5.6380   19.6180  -32.3330 C   0  0  0  0  0  0  0  0  0  0  0  0
   -4.8910   20.1430  -31.2670 C   0  0  0  0  0  0  0  0  0  0  0  0
   -3.5750   20.5650  -31.4750 C   0  0  0  0  0  0  0  0  0  0  0  0
   -3.0010   20.4710  -32.7460 C   0  0  0  0  0  0  0  0  0  0  0  0
   -3.7430   19.9480  -33.8120 C   0  0  0  0  0  0  0  0  0  0  0  0
   -5.0580   19.5200  -33.6050 C   0  0  0  0  0  0  0  0  0  0  0  0
   -8.2340   20.3080  -31.8660 S   0  0  0  0  0  0  0  0  0  0  0  0
   -9.1050   19.8800  -30.7190 O   0  0  0  0  0  0  0  0  0  0  0  0
   -9.0950   20.4220  -33.0940 O   0  0  0  0  0  0  0  0  0  0  0  0
   -7.4820   21.8540  -31.5040 C   0  0  0  0  0  0  0  0  0  0  0  0
   -6.8430   22.5860  -32.5130 C   0  0  0  0  0  0  0  0  0  0  0  0
   -6.1360   23.7510  -32.1950 C   0  0  0  0  0  0  0  0  0  0  0  0
   -6.0440   24.1820  -30.8620 C   0  0  0  0  0  0  0  0  0  0  0  0
   -5.2130   25.3580  -30.5150 C   0  0  0  0  0  0  0  0  0  0  0  0
   -5.7710   26.4510  -30.2330 O   0  0  0  0  0  0  0  0  0  0  0  0
   -3.7810   25.2790  -30.4650 N   0  0  0  0  0  0  0  0  0  0  0  0
   -3.0220   24.4320  -29.5890 C   0  0  0  0  0  0  0  0  0  0  0  0
   -1.8770   24.9060  -28.9170 C   0  0  0  0  0  0  0  0  0  0  0  0
   -1.1350   24.0500  -28.0970 C   0  0  0  0  0  0  0  0  0  0  0  0
   -1.5370   22.7220  -27.9350 C   0  0  0  0  0  0  0  0  0  0  0  0
   -2.7070   22.2610  -28.5540 C   0  0  0  0  0  0  0  0  0  0  0  0
   -3.4440   23.1120  -29.3830 C   0  0  0  0  0  0  0  0  0  0  0  0
   -3.1190   20.9430  -28.3320 O   0  0  0  0  0  0  0  0  0  0  0  0
   -2.5260   20.1450  -27.3040 C   0  0  0  0  0  0  0  0  0  0  0  0
   -1.0200   20.4270  -27.2140 C   0  0  0  0  0  0  0  0  0  0  0  0
   -0.7870   21.8370  -27.1550 O   0  0  0  0  0  0  0  0  0  0  0  0
   -6.7220   23.4650  -29.8610 C   0  0  0  0  0  0  0  0  0  0  0  0
   -7.4280   22.3050  -30.1800 C   0  0  0  0  0  0  0  0  0  0  0  0
   -7.4056   17.2121  -31.4087 H   0  0  0  0  0  0  0  0  0  0  0  0
   -8.2229   17.6711  -32.9410 H   0  0  0  0  0  0  0  0  0  0  0  0
   -6.4704   17.2767  -32.9410 H   0  0  0  0  0  0  0  0  0  0  0  0
   -5.3418   20.2224  -30.2668 H   0  0  0  0  0  0  0  0  0  0  0  0
   -2.9899   20.9718  -30.6370 H   0  0  0  0  0  0  0  0  0  0  0  0
   -1.9666   20.8078  -32.9087 H   0  0  0  0  0  0  0  0  0  0  0  0
   -3.2915   19.8738  -34.8123 H   0  0  0  0  0  0  0  0  0  0  0  0
   -5.6385   19.1055  -34.4424 H   0  0  0  0  0  0  0  0  0  0  0  0
   -6.8971   22.2444  -33.5572 H   0  0  0  0  0  0  0  0  0  0  0  0
   -5.6502   24.3317  -32.9930 H   0  0  0  0  0  0  0  0  0  0  0  0
   -1.5657   25.9541  -29.0382 H   0  0  0  0  0  0  0  0  0  0  0  0
   -0.2373   24.4214  -27.5810 H   0  0  0  0  0  0  0  0  0  0  0  0
   -4.3569   22.7445  -29.8744 H   0  0  0  0  0  0  0  0  0  0  0  0
   -2.9985   20.3850  -26.3401 H   0  0  0  0  0  0  0  0  0  0  0  0
   -2.6777   19.0821  -27.5433 H   0  0  0  0  0  0  0  0  0  0  0  0
   -0.6145   19.9529  -26.3080 H   0  0  0  0  0  0  0  0  0  0  0  0
   -0.5228   20.0168  -28.1054 H   0  0  0  0  0  0  0  0  0  0  0  0
   -6.6957   23.8206  -28.8204 H   0  0  0  0  0  0  0  0  0  0  0  0
   -7.9443   21.7425  -29.3881 H   0  0  0  0  0  0  0  0  0  0  0  0
  1  2  1  0
  2  3  1  0
  3  4  2  0
  4  5  1  0
  5  6  2  0
  6  7  1  0
  7  8  2  0
  2  9  1  0
  9 10  2  0
  9 11  2  0
  9 12  1  0
 12 13  2  0
 13 14  1  0
 14 15  2  0
 15 16  1  0
 16 17  2  0
 16 18  1  0
 18 19  1  0
 19 20  2  0
 20 21  1  0
 21 22  2  0
 22 23  1  0
 23 24  2  0
 23 25  1  0
 25 26  1  0
 26 27  1  0
 27 28  1  0
 15 29  1  0
 29 30  2  0
  8  3  1  0
 30 12  1  0
 24 19  1  0
 28 22  1  0
  1 31  1  0
  1 32  1  0
  1 33  1  0
  4 34  1  0
  5 35  1  0
  6 36  1  0
  7 37  1  0
  8 38  1  0
 13 39  1  0
 14 40  1  0
 20 41  1  0
 21 42  1  0
 24 43  1  0
 26 44  1  0
 26 45  1  0
 27 46  1  0
 27 47  1  0
 29 48  1  0
 30 49  1  0
M  CHG  1  18  -1
M  END
>  <UniqueID>  (13) 
13

>  <SMILES>  (13) 
CN(c1ccccc1)S(=O)(=O)c1ccc(C(=O)[N-]c2ccc3c(c2)OCCO3)cc1

>  <Energy>  (13) 
64.72644277286369

>  <Genealogy>  (13) 
CN(c1ccccc1)S(=O)(=O)c1ccc(C(=O)[N-]c2ccc3c(c2)OCCO3)cc1 (protonated)
CN(c1ccccc1)S(=O)(=O)c1ccc(C(=O)[N-]c2ccc3c(c2)OCCO3)cc1 (3D coordinates assigned)
CN(c1ccccc1)S(=O)(=O)c1ccc(C(=O)[N-]c2ccc3c(c2)OCCO3)cc1 (nonaromatic ring conformer: 64.72644277286369 kcal/mol)

>  <smiles>  (13) 
CN(c1ccccc1)S(=O)(=O)c1ccc(C(=O)Nc2ccc3c(c2)OCCO3)cc1

>  <score_type>  (13) 
oracle

>  <origin>  (13) 
adgpu

>  <m_score__min__energy>  (13) 
-11.119999999999999

>  <m_primary>  (13) 
energy

$$$$
13:0
     RDKit          3D

 50 52  0  0  0  0  0  0  0  0999 V2000
    0.8250   18.6450  -30.0050 C   0  0  0  0  0  0  0  0  0  0  0  0
    0.8320   18.8080  -28.2340 S   0  0  0  0  0  0  0  0  0  0  0  0
    1.7840   19.9070  -27.8500 O   0  0  0  0  0  0  0  0  0  0  0  0
    1.3160   17.5280  -27.6130 O   0  0  0  0  0  0  0  0  0  0  0  0
   -0.7870   19.2100  -27.6440 C   0  0  0  0  0  0  0  0  0  0  0  0
   -1.4150   18.3370  -26.7410 C   0  0  0  0  0  0  0  0  0  0  0  0
   -2.7290   18.5690  -26.3280 C   0  0  0  0  0  0  0  0  0  0  0  0
   -3.4270   19.6770  -26.8130 C   0  0  0  0  0  0  0  0  0  0  0  0
   -2.8090   20.5620  -27.7000 C   0  0  0  0  0  0  0  0  0  0  0  0
   -1.4840   20.3500  -28.1030 C   0  0  0  0  0  0  0  0  0  0  0  0
   -0.8920   21.2670  -28.9770 O   0  0  0  0  0  0  0  0  0  0  0  0
   -1.2600   22.6170  -29.0610 C   0  0  0  0  0  0  0  0  0  0  0  0
   -2.4700   22.9240  -29.5950 N   0  0  0  0  0  0  0  0  0  0  0  0
   -2.8940   24.2110  -29.7200 C   0  0  0  0  0  0  0  0  0  0  0  0
   -4.0230   24.4950  -30.2990 N   0  0  0  0  0  0  0  0  0  0  0  0
   -4.9820   23.5530  -30.8080 C   0  0  0  0  0  0  0  0  0  0  0  0
   -6.3140   23.5250  -30.3560 C   0  0  0  0  0  0  0  0  0  0  0  0
   -7.2090   22.5760  -30.8570 C   0  0  0  0  0  0  0  0  0  0  0  0
   -6.7890   21.6520  -31.8210 C   0  0  0  0  0  0  0  0  0  0  0  0
   -7.9160   20.4420  -32.4300 S   0  0  0  0  0  0  0  0  0  0  0  0
   -7.5470   20.0980  -33.8460 O   0  0  0  0  0  0  0  0  0  0  0  0
   -9.3110   20.9950  -32.4270 O   0  0  0  0  0  0  0  0  0  0  0  0
   -7.8540   19.0060  -31.4560 N   0  0  0  0  0  0  0  0  0  0  0  0
   -6.5090   18.4320  -31.5060 C   0  0  0  0  0  0  0  0  0  0  0  0
   -6.3820   17.4930  -32.7080 C   0  0  0  0  0  0  0  0  0  0  0  0
   -7.5860   17.4340  -33.4250 O   0  0  0  0  0  0  0  0  0  0  0  0
   -5.4770   21.7100  -32.3090 C   0  0  0  0  0  0  0  0  0  0  0  0
   -4.5830   22.6620  -31.8120 C   0  0  0  0  0  0  0  0  0  0  0  0
   -2.0940   25.2200  -29.2940 N   0  0  0  0  0  0  0  0  0  0  0  0
   -0.8800   24.9680  -28.7370 C   0  0  0  0  0  0  0  0  0  0  0  0
   -0.4300   23.6530  -28.6070 C   0  0  0  0  0  0  0  0  0  0  0  0
    0.7790   23.4110  -28.0410 F   0  0  0  0  0  0  0  0  0  0  0  0
    0.7792   17.5796  -30.2750 H   0  0  0  0  0  0  0  0  0  0  0  0
   -0.0516   19.1658  -30.4177 H   0  0  0  0  0  0  0  0  0  0  0  0
    1.7430   19.0887  -30.4177 H   0  0  0  0  0  0  0  0  0  0  0  0
   -0.8680   17.4638  -26.3560 H   0  0  0  0  0  0  0  0  0  0  0  0
   -3.2137   17.8794  -25.6212 H   0  0  0  0  0  0  0  0  0  0  0  0
   -4.4655   19.8533  -26.4960 H   0  0  0  0  0  0  0  0  0  0  0  0
   -3.3655   21.4297  -28.0839 H   0  0  0  0  0  0  0  0  0  0  0  0
   -6.6525   24.2536  -29.6046 H   0  0  0  0  0  0  0  0  0  0  0  0
   -8.2467   22.5550  -30.4928 H   0  0  0  0  0  0  0  0  0  0  0  0
   -8.5190   18.3230  -31.8860 H   0  0  0  0  0  0  0  0  0  0  0  0
   -5.7708   19.2423  -31.5978 H   0  0  0  0  0  0  0  0  0  0  0  0
   -6.3264   17.8620  -30.5831 H   0  0  0  0  0  0  0  0  0  0  0  0
   -5.5855   17.8619  -33.3709 H   0  0  0  0  0  0  0  0  0  0  0  0
   -6.1402   16.4841  -32.3425 H   0  0  0  0  0  0  0  0  0  0  0  0
   -7.9060   18.3690  -33.5240 H   0  0  0  0  0  0  0  0  0  0  0  0
   -5.1495   21.0037  -33.0861 H   0  0  0  0  0  0  0  0  0  0  0  0
   -3.5595   22.7119  -32.2119 H   0  0  0  0  0  0  0  0  0  0  0  0
   -0.2517   25.8009  -28.3884 H   0  0  0  0  0  0  0  0  0  0  0  0
  1  2  1  0
  2  3  2  0
  2  4  2  0
  2  5  1  0
  5  6  2  0
  6  7  1  0
  7  8  2  0
  8  9  1  0
  9 10  2  0
 10 11  1  0
 11 12  1  0
 12 13  1  0
 13 14  1  0
 14 15  2  3
 15 16  1  0
 16 17  2  0
 17 18  1  0
 18 19  2  0
 19 20  1  0
 20 21  2  0
 20 22  2  0
 20 23  1  0
 23 24  1  0
 24 25  1  0
 25 26  1  0
 19 27  1  0
 27 28  2  0
 14 29  1  0
 29 30  2  0
 30 31  1  0
 31 32  1  0
 10  5  1  0
 31 12  2  0
 28 16  1  0
  1 33  1  0
  1 34  1  0
  1 35  1  0
  6 36  1  0
  7 37  1  0
  8 38  1  0
  9 39  1  0
 17 40  1  0
 18 41  1  0
 23 42  1  0
 24 43  1  0
 24 44  1  0
 25 45  1  0
 25 46  1  0
 26 47  1  0
 27 48  1  0
 28 49  1  0
 30 50  1  0
M  CHG  1  13  -1
M  END
>  <UniqueID>  (14) 
14

>  <SMILES>  (14) 
CS(=O)(=O)c1ccccc1Oc1[n-]c(=Nc2ccc(S(=O)(=O)NCCO)cc2)ncc1F

>  <Energy>  (14) 
63.339298961137416

>  <Genealogy>  (14) 
CS(=O)(=O)c1ccccc1Oc1[n-]c(=Nc2ccc(S(=O)(=O)NCCO)cc2)ncc1F (protonated)
CS(=O)(=O)c1ccccc1Oc1[n-]c(=Nc2ccc(S(=O)(=O)NCCO)cc2)ncc1F (3D coordinates assigned)
CS(=O)(=O)c1ccccc1Oc1[n-]c(=Nc2ccc(S(=O)(=O)NCCO)cc2)ncc1F (optimized conformer: 63.339298961137416 kcal/mol)

>  <smiles>  (14) 
CS(=O)(=O)c1ccccc1Oc1[nH]c(=Nc2ccc(S(=O)(=O)NCCO)cc2)ncc1F

>  <score_type>  (14) 
oracle

>  <origin>  (14) 
adgpu

>  <m_score__min__energy>  (14) 
-9.9100000000000001

>  <m_primary>  (14) 
energy

$$$$
14:0
     RDKit          3D

 36 38  0  0  0  0  0  0  0  0999 V2000
   -7.3890   18.0370  -32.9870 C   0  0  0  0  0  0  0  0  0  0  0  0
   -8.5320   18.8860  -32.5210 C   0  0  0  0  0  0  0  0  0  0  0  0
   -9.5220   18.3300  -31.9760 O   0  0  0  0  0  0  0  0  0  0  0  0
   -8.5540   20.3070  -32.7130 N   0  0  0  0  0  0  0  0  0  0  0  0
   -7.7190   21.2730  -32.0600 C   0  0  0  0  0  0  0  0  0  0  0  0
   -8.2590   22.3880  -31.3970 C   0  0  0  0  0  0  0  0  0  0  0  0
   -7.4140   23.3280  -30.7970 C   0  0  0  0  0  0  0  0  0  0  0  0
   -6.0250   23.1700  -30.8630 C   0  0  0  0  0  0  0  0  0  0  0  0
   -4.9700   24.3710  -30.1280 S   0  0  0  0  0  0  0  0  0  0  0  0
   -4.4610   25.3070  -31.1880 O   0  0  0  0  0  0  0  0  0  0  0  0
   -5.7230   25.1770  -29.1060 O   0  0  0  0  0  0  0  0  0  0  0  0
   -3.6380   23.5690  -29.3660 N   0  0  0  0  0  0  0  0  0  0  0  0
   -3.6010   22.2930  -28.9410 C   0  0  0  0  0  0  0  0  0  0  0  0
   -2.3620   22.0790  -28.3580 C   0  0  0  0  0  0  0  0  0  0  0  0
   -1.8830   20.8290  -27.7520 C   0  0  0  0  0  0  0  0  0  0  0  0
   -2.6580   19.8770  -27.1180 C   0  0  0  0  0  0  0  0  0  0  0  0
   -1.7800   18.8930  -26.7170 C   0  0  0  0  0  0  0  0  0  0  0  0
   -0.5280   19.3030  -27.1290 C   0  0  0  0  0  0  0  0  0  0  0  0
   -0.6220   20.4600  -27.7420 O   0  0  0  0  0  0  0  0  0  0  0  0
   -1.6400   23.2170  -28.4180 N   0  0  0  0  0  0  0  0  0  0  0  0
   -2.4470   24.1010  -29.0330 C   0  0  0  0  0  0  0  0  0  0  0  0
   -2.1230   25.2960  -29.2630 O   0  0  0  0  0  0  0  0  0  0  0  0
   -5.4840   22.0780  -31.5560 C   0  0  0  0  0  0  0  0  0  0  0  0
   -6.3290   21.1400  -32.1560 C   0  0  0  0  0  0  0  0  0  0  0  0
   -6.8503   17.6369  -32.1154 H   0  0  0  0  0  0  0  0  0  0  0  0
   -7.7743   17.2044  -33.5939 H   0  0  0  0  0  0  0  0  0  0  0  0
   -6.7032   18.6464  -33.5939 H   0  0  0  0  0  0  0  0  0  0  0  0
   -9.3497   22.5223  -31.3495 H   0  0  0  0  0  0  0  0  0  0  0  0
   -7.8428   24.1941  -30.2717 H   0  0  0  0  0  0  0  0  0  0  0  0
   -4.4088   21.5528  -29.0387 H   0  0  0  0  0  0  0  0  0  0  0  0
   -3.7471   19.8996  -26.9653 H   0  0  0  0  0  0  0  0  0  0  0  0
   -2.0273   17.9671  -26.1771 H   0  0  0  0  0  0  0  0  0  0  0  0
    0.4063   18.7451  -26.9681 H   0  0  0  0  0  0  0  0  0  0  0  0
   -0.6720   23.3810  -28.0600 H   0  0  0  0  0  0  0  0  0  0  0  0
   -4.3928   21.9591  -31.6277 H   0  0  0  0  0  0  0  0  0  0  0  0
   -5.8985   20.2912  -32.7076 H   0  0  0  0  0  0  0  0  0  0  0  0
  1  2  1  0
  2  3  2  0
  2  4  1  0
  4  5  1  0
  5  6  2  0
  6  7  1  0
  7  8  2  0
  8  9  1  0
  9 10  2  0
  9 11  2  0
  9 12  1  0
 12 13  1  0
 13 14  2  0
 14 15  1  0
 15 16  2  0
 16 17  1  0
 17 18  2  0
 18 19  1  0
 14 20  1  0
 20 21  1  0
 21 22  2  0
  8 23  1  0
 23 24  2  0
 24  5  1  0
 21 12  1  0
 19 15  1  0
  1 25  1  0
  1 26  1  0
  1 27  1  0
  6 28  1  0
  7 29  1  0
 13 30  1  0
 16 31  1  0
 17 32  1  0
 18 33  1  0
 20 34  1  0
 23 35  1  0
 24 36  1  0
M  CHG  1   4  -1
M  END
>  <UniqueID>  (15) 
15

>  <SMILES>  (15) 
CC(=O)[N-]c1ccc(S(=O)(=O)n2cc(-c3ccco3)[nH]c2=O)cc1

>  <Energy>  (15) 
101.00449782369132

>  <Genealogy>  (15) 
CC(=O)[N-]c1ccc(S(=O)(=O)n2cc(-c3ccco3)[nH]c2=O)cc1 (protonated)
CC(=O)[N-]c1ccc(S(=O)(=O)n2cc(-c3ccco3)[nH]c2=O)cc1 (3D coordinates assigned)
CC(=O)[N-]c1ccc(S(=O)(=O)n2cc(-c3ccco3)[nH]c2=O)cc1 (optimized conformer: 101.00449782369132 kcal/mol)

>  <smiles>  (15) 
CC(=O)Nc1ccc(S(=O)(=O)n2cc(-c3ccco3)[nH]c2=O)cc1

>  <score_type>  (15) 
oracle

>  <origin>  (15) 
adgpu

>  <m_score__min__energy>  (15) 
-10.31

>  <m_primary>  (15) 
energy

$$$$
15:0
     RDKit          3D

 45 47  0  0  0  0  0  0  0  0999 V2000
   -0.2877   25.3990  -29.6769 H   0  0  0  0  0  0  0  0  0  0  0  0
   -1.0390   25.0720  -28.9430 C   0  0  0  0  0  0  0  0  0  0  0  0
   -2.3390   24.9380  -29.3160 N   0  0  0  0  0  0  0  0  0  0  0  0
   -3.3070   24.5400  -28.4420 C   0  0  0  0  0  0  0  0  0  0  0  0
   -4.5510   24.4100  -28.8070 N   0  0  0  0  0  0  0  0  0  0  0  0
   -5.1700   24.6690  -30.0830 C   0  0  0  0  0  0  0  0  0  0  0  0
   -4.4980   25.2850  -30.9520 O   0  0  0  0  0  0  0  0  0  0  0  0
   -6.5580   24.1990  -30.4560 C   0  0  0  0  0  0  0  0  0  0  0  0
   -6.9335   23.5371  -29.6617 H   0  0  0  0  0  0  0  0  0  0  0  0
   -7.1964   25.0874  -30.5711 H   0  0  0  0  0  0  0  0  0  0  0  0
   -6.5710   23.4580  -31.7420 N   0  0  0  0  0  0  0  0  0  0  0  0
   -6.0480   24.0210  -32.4550 H   0  0  0  0  0  0  0  0  0  0  0  0
   -5.8330   22.1760  -31.5880 C   0  0  0  0  0  0  0  0  0  0  0  0
   -4.7535   22.3740  -31.6617 H   0  0  0  0  0  0  0  0  0  0  0  0
   -6.0866   21.7475  -30.6071 H   0  0  0  0  0  0  0  0  0  0  0  0
   -6.2300   21.1640  -32.6730 C   0  0  0  0  0  0  0  0  0  0  0  0
   -5.9975   21.5901  -33.6601 H   0  0  0  0  0  0  0  0  0  0  0  0
   -5.6639   20.2367  -32.5006 H   0  0  0  0  0  0  0  0  0  0  0  0
   -7.6750   20.8400  -32.6180 N   0  0  0  0  0  0  0  0  0  0  0  0
   -7.9800   19.4620  -32.1690 C   0  0  0  0  0  0  0  0  0  0  0  0
   -8.0343   19.4605  -31.0703 H   0  0  0  0  0  0  0  0  0  0  0  0
   -8.9319   19.1773  -32.6411 H   0  0  0  0  0  0  0  0  0  0  0  0
   -6.9530   18.4310  -32.5970 C   0  0  0  0  0  0  0  0  0  0  0  0
   -6.4450   17.4970  -31.6770 C   0  0  0  0  0  0  0  0  0  0  0  0
   -6.7915   17.5138  -30.6331 H   0  0  0  0  0  0  0  0  0  0  0  0
   -5.5020   16.5470  -32.0810 C   0  0  0  0  0  0  0  0  0  0  0  0
   -5.1181   15.8121  -31.3581 H   0  0  0  0  0  0  0  0  0  0  0  0
   -5.0470   16.5300  -33.4010 C   0  0  0  0  0  0  0  0  0  0  0  0
   -4.3121   15.7762  -33.7199 H   0  0  0  0  0  0  0  0  0  0  0  0
   -5.5250   17.4700  -34.3160 C   0  0  0  0  0  0  0  0  0  0  0  0
   -5.1586   17.4615  -35.3532 H   0  0  0  0  0  0  0  0  0  0  0  0
   -6.4670   18.4210  -33.9180 C   0  0  0  0  0  0  0  0  0  0  0  0
   -6.8311   19.1662  -34.6406 H   0  0  0  0  0  0  0  0  0  0  0  0
   -8.5110   21.8740  -31.9710 C   0  0  0  0  0  0  0  0  0  0  0  0
   -9.5380   21.8028  -32.3585 H   0  0  0  0  0  0  0  0  0  0  0  0
   -8.5015   21.7077  -30.8837 H   0  0  0  0  0  0  0  0  0  0  0  0
   -7.9590   23.2760  -32.2610 C   0  0  0  0  0  0  0  0  0  0  0  0
   -7.9533   23.4356  -33.3493 H   0  0  0  0  0  0  0  0  0  0  0  0
   -8.6067   24.0043  -31.7511 H   0  0  0  0  0  0  0  0  0  0  0  0
   -2.9550   24.2470  -27.1180 C   0  0  0  0  0  0  0  0  0  0  0  0
   -3.7215   23.9151  -26.4022 H   0  0  0  0  0  0  0  0  0  0  0  0
   -1.6240   24.3790  -26.7120 C   0  0  0  0  0  0  0  0  0  0  0  0
   -1.3396   24.1559  -25.6731 H   0  0  0  0  0  0  0  0  0  0  0  0
   -0.6560   24.7950  -27.6290 C   0  0  0  0  0  0  0  0  0  0  0  0
    1.0180   24.9650  -27.1360 Cl  0  0  0  0  0  0  0  0  0  0  0  0
  1  2  1  0
  2  3  1  0
  3  4  1  0
  4  5  2  0
  5  6  1  0
  6  7  2  0
  6  8  1  0
  8  9  1  0
  8 10  1  0
  8 11  1  0
 11 12  1  0
 11 13  1  0
 13 14  1  0
 13 15  1  0
 13 16  1  0
 16 17  1  0
 16 18  1  0
 16 19  1  0
 19 20  1  0
 20 21  1  0
 20 22  1  0
 20 23  1  0
 23 24  2  0
 24 25  1  0
 24 26  1  0
 26 27  1  0
 26 28  2  0
 28 29  1  0
 28 30  1  0
 30 31  1  0
 30 32  2  0
 32 33  1  0
 19 34  1  0
 34 35  1  0
 34 36  1  0
 34 37  1  0
 37 38  1  0
 37 39  1  0
  4 40  1  0
 40 41  1  0
 40 42  2  0
 42 43  1  0
 42 44  1  0
 44 45  1  0
 44  2  2  0
 37 11  1  0
 32 23  1  0
M  CHG  2   3  -1  11   1
M  END
>  <UniqueID>  (16) 
16

>  <SMILES>  (16) 
O=C(C[NH+]1CCN(Cc2ccccc2)CC1)/N=c1/ccc(Cl)c[n-]1

>  <Energy>  (16) 
67.9027547306153

>  <Genealogy>  (16) 
O=C(C[NH+]1CCN(Cc2ccccc2)CC1)N=c1ccc(Cl)c[n-]1 (protonated)
O=C(C[NH+]1CCN(Cc2ccccc2)CC1)/N=c1/ccc(Cl)c[n-]1 (cis-trans isomerization)
O=C(C[NH+]1CCN(Cc2ccccc2)CC1)/N=c1/ccc(Cl)c[n-]1 (3D coordinates assigned)
O=C(C[NH+]1CCN(Cc2ccccc2)CC1)/N=c1/ccc(Cl)c[n-]1 (nonaromatic ring conformer: 67.9027547306153 kcal/mol)

>  <smiles>  (16) 
O=C(CN1CCN(Cc2ccccc2)CC1)N=c1ccc(Cl)c[nH]1

>  <score_type>  (16) 
oracle

>  <origin>  (16) 
adgpu

>  <m_score__min__energy>  (16) 
-9.4199999999999999

>  <m_primary>  (16) 
energy

$$$$
16:0
     RDKit          3D

 50 53  0  0  0  0  0  0  0  0999 V2000
   -2.9460   11.8480  -31.9250 C   0  0  0  0  0  0  0  0  0  0  0  0
   -3.8200   13.0570  -32.0010 C   0  0  0  0  0  0  0  0  0  0  0  0
   -4.2680   13.5650  -30.9380 O   0  0  0  0  0  0  0  0  0  0  0  0
   -4.2130   13.5730  -33.2820 N   0  0  0  0  0  0  0  0  0  0  0  0
   -4.8810   14.8330  -33.4740 C   0  0  0  0  0  0  0  0  0  0  0  0
   -6.2280   14.8410  -33.8650 C   0  0  0  0  0  0  0  0  0  0  0  0
   -6.8950   16.0500  -34.0800 C   0  0  0  0  0  0  0  0  0  0  0  0
   -6.2200   17.2620  -33.9200 C   0  0  0  0  0  0  0  0  0  0  0  0
   -4.8650   17.2750  -33.5500 C   0  0  0  0  0  0  0  0  0  0  0  0
   -4.1400   18.5530  -33.3980 C   0  0  0  0  0  0  0  0  0  0  0  0
   -4.5300   19.5430  -32.5620 N   0  0  0  0  0  0  0  0  0  0  0  0
   -3.5960   20.4980  -32.7380 C   0  0  0  0  0  0  0  0  0  0  0  0
   -3.5660   21.7550  -31.9620 C   0  0  0  0  0  0  0  0  0  0  0  0
   -2.4110   22.1030  -31.2440 C   0  0  0  0  0  0  0  0  0  0  0  0
   -2.3760   23.2810  -30.4920 C   0  0  0  0  0  0  0  0  0  0  0  0
   -3.4880   24.1280  -30.4630 C   0  0  0  0  0  0  0  0  0  0  0  0
   -3.4550   25.2940  -29.7100 O   0  0  0  0  0  0  0  0  0  0  0  0
   -4.6330   23.8000  -31.1950 C   0  0  0  0  0  0  0  0  0  0  0  0
   -4.6710   22.6240  -31.9490 C   0  0  0  0  0  0  0  0  0  0  0  0
   -2.6910   20.0540  -33.6880 C   0  0  0  0  0  0  0  0  0  0  0  0
   -1.5570   20.7490  -34.2250 N   0  0  0  0  0  0  0  0  0  0  0  0
   -0.1920   20.3920  -33.9510 C   0  0  0  0  0  0  0  0  0  0  0  0
    0.0960   19.5390  -32.8770 C   0  0  0  0  0  0  0  0  0  0  0  0
    1.4170   19.1910  -32.5820 C   0  0  0  0  0  0  0  0  0  0  0  0
    2.4720   19.6920  -33.3610 C   0  0  0  0  0  0  0  0  0  0  0  0
    3.8860   19.2980  -33.0590 C   0  0  0  0  0  0  0  0  0  0  0  0
    2.1840   20.5090  -34.4640 C   0  0  0  0  0  0  0  0  0  0  0  0
    0.8620   20.8560  -34.7590 C   0  0  0  0  0  0  0  0  0  0  0  0
   -3.0430   18.8520  -34.0620 O   0  0  0  0  0  0  0  0  0  0  0  0
   -4.2000   16.0560  -33.3360 C   0  0  0  0  0  0  0  0  0  0  0  0
   -2.7624   11.5940  -30.8706 H   0  0  0  0  0  0  0  0  0  0  0  0
   -3.4439   11.0037  -32.4242 H   0  0  0  0  0  0  0  0  0  0  0  0
   -1.9881   12.0560  -32.4242 H   0  0  0  0  0  0  0  0  0  0  0  0
   -4.0870   12.9520  -34.1130 H   0  0  0  0  0  0  0  0  0  0  0  0
   -6.7627   13.8897  -34.0033 H   0  0  0  0  0  0  0  0  0  0  0  0
   -7.9544   16.0470  -34.3760 H   0  0  0  0  0  0  0  0  0  0  0  0
   -6.7518   18.2108  -34.0844 H   0  0  0  0  0  0  0  0  0  0  0  0
   -1.5294   21.4458  -31.2732 H   0  0  0  0  0  0  0  0  0  0  0  0
   -1.4720   23.5420  -29.9221 H   0  0  0  0  0  0  0  0  0  0  0  0
   -5.5059   24.4691  -31.1774 H   0  0  0  0  0  0  0  0  0  0  0  0
   -5.5689   22.3773  -32.5346 H   0  0  0  0  0  0  0  0  0  0  0  0
   -1.7410   21.6060  -34.7920 H   0  0  0  0  0  0  0  0  0  0  0  0
   -0.7239   19.1404  -32.2615 H   0  0  0  0  0  0  0  0  0  0  0  0
    1.6310   18.5216  -31.7358 H   0  0  0  0  0  0  0  0  0  0  0  0
    4.0306   19.2577  -31.9693 H   0  0  0  0  0  0  0  0  0  0  0  0
    4.0916   18.3084  -33.4930 H   0  0  0  0  0  0  0  0  0  0  0  0
    4.5737   20.0387  -33.4930 H   0  0  0  0  0  0  0  0  0  0  0  0
    3.0019   20.8785  -35.1000 H   0  0  0  0  0  0  0  0  0  0  0  0
    0.6450   21.4952  -35.6275 H   0  0  0  0  0  0  0  0  0  0  0  0
   -3.1358   16.0581  -33.0577 H   0  0  0  0  0  0  0  0  0  0  0  0
  1  2  1  0
  2  3  2  0
  2  4  1  0
  4  5  1  0
  5  6  2  0
  6  7  1  0
  7  8  2  0
  8  9  1  0
  9 10  1  0
 10 11  2  0
 11 12  1  0
 12 13  1  0
 13 14  2  0
 14 15  1  0
 15 16  2  0
 16 17  1  0
 16 18  1  0
 18 19  2  0
 12 20  2  0
 20 21  1  0
 21 22  1  0
 22 23  2  0
 23 24  1  0
 24 25  2  0
 25 26  1  0
 25 27  1  0
 27 28  2  0
 20 29  1  0
  9 30  2  0
 30  5  1  0
 29 10  1  0
 19 13  1  0
 28 22  1  0
  1 31  1  0
  1 32  1  0
  1 33  1  0
  4 34  1  0
  6 35  1  0
  7 36  1  0
  8 37  1  0
 14 38  1  0
 15 39  1  0
 18 40  1  0
 19 41  1  0
 21 42  1  0
 23 43  1  0
 24 44  1  0
 26 45  1  0
 26 46  1  0
 26 47  1  0
 27 48  1  0
 28 49  1  0
 30 50  1  0
M  CHG  1  17  -1
M  END
>  <UniqueID>  (17) 
17

>  <SMILES>  (17) 
CC(=O)Nc1cccc(-c2nc(-c3ccc([O-])cc3)c(Nc3ccc(C)cc3)o2)c1

>  <Energy>  (17) 
93.78791152711239

>  <Genealogy>  (17) 
CC(=O)Nc1cccc(-c2nc(-c3ccc([O-])cc3)c(Nc3ccc(C)cc3)o2)c1 (protonated)
CC(=O)Nc1cccc(-c2nc(-c3ccc([O-])cc3)c(Nc3ccc(C)cc3)o2)c1 (3D coordinates assigned)
CC(=O)Nc1cccc(-c2nc(-c3ccc([O-])cc3)c(Nc3ccc(C)cc3)o2)c1 (optimized conformer: 93.78791152711239 kcal/mol)

>  <smiles>  (17) 
CC(=O)Nc1cccc(-c2nc(-c3ccc(O)cc3)c(Nc3ccc(C)cc3)o2)c1

>  <score_type>  (17) 
oracle

>  <origin>  (17) 
adgpu

>  <m_score__min__energy>  (17) 
-9.8599999999999994

>  <m_primary>  (17) 
energy

$$$$
17:0
     RDKit          3D

 47 49  0  0  0  0  0  0  0  0999 V2000
   -3.5069   21.6386  -26.7433 H   0  0  0  0  0  0  0  0  0  0  0  0
   -3.4980   22.3960  -27.5410 C   0  0  0  0  0  0  0  0  0  0  0  0
   -2.3730   23.2000  -27.7250 C   0  0  0  0  0  0  0  0  0  0  0  0
   -1.4976   23.0756  -27.0707 H   0  0  0  0  0  0  0  0  0  0  0  0
   -2.3540   24.1690  -28.7440 C   0  0  0  0  0  0  0  0  0  0  0  0
   -1.1340   25.0250  -28.9470 C   0  0  0  0  0  0  0  0  0  0  0  0
   -0.7220   25.3141  -27.9689 H   0  0  0  0  0  0  0  0  0  0  0  0
   -0.3780   24.4583  -29.5103 H   0  0  0  0  0  0  0  0  0  0  0  0
   -1.4097   25.9287  -29.5103 H   0  0  0  0  0  0  0  0  0  0  0  0
   -3.4840   24.3310  -29.5720 C   0  0  0  0  0  0  0  0  0  0  0  0
   -3.4740   25.2980  -30.5730 O   0  0  0  0  0  0  0  0  0  0  0  0
   -4.6210   23.5200  -29.3860 C   0  0  0  0  0  0  0  0  0  0  0  0
   -5.8550   23.7070  -30.2480 C   0  0  0  0  0  0  0  0  0  0  0  0
   -6.6948   24.0236  -29.6120 H   0  0  0  0  0  0  0  0  0  0  0  0
   -5.6416   24.4725  -31.0086 H   0  0  0  0  0  0  0  0  0  0  0  0
   -6.2110   22.4520  -30.9280 N   0  0  0  0  0  0  0  0  0  0  0  0
   -7.1230   22.0090  -30.6780 H   0  0  0  0  0  0  0  0  0  0  0  0
   -5.2830   21.7100  -31.7380 C   0  0  0  0  0  0  0  0  0  0  0  0
   -4.1830   22.3350  -32.3490 C   0  0  0  0  0  0  0  0  0  0  0  0
   -4.0749   23.4283  -32.2942 H   0  0  0  0  0  0  0  0  0  0  0  0
   -3.2270   21.5760  -33.0250 C   0  0  0  0  0  0  0  0  0  0  0  0
   -2.3658   22.0730  -33.4955 H   0  0  0  0  0  0  0  0  0  0  0  0
   -3.3590   20.1860  -33.1070 C   0  0  0  0  0  0  0  0  0  0  0  0
   -2.0480   19.2350  -33.7970 S   0  0  0  0  0  0  0  0  0  0  0  0
   -1.2270   20.1060  -34.7000 O   0  0  0  0  0  0  0  0  0  0  0  0
   -2.5900   18.0760  -34.5830 O   0  0  0  0  0  0  0  0  0  0  0  0
   -1.0560   18.6290  -32.5120 N   0  0  0  0  0  0  0  0  0  0  0  0
   -0.8200   19.3250  -31.4380 C   0  0  0  0  0  0  0  0  0  0  0  0
   -1.2980   20.5280  -31.2030 O   0  0  0  0  0  0  0  0  0  0  0  0
   -0.8570   20.9700  -30.0600 N   0  0  0  0  0  0  0  0  0  0  0  0
   -1.0780   21.9080  -29.6580 H   0  0  0  0  0  0  0  0  0  0  0  0
   -0.0580   20.0230  -29.5270 C   0  0  0  0  0  0  0  0  0  0  0  0
    0.7030   20.1840  -28.2520 C   0  0  0  0  0  0  0  0  0  0  0  0
    0.0237   20.0403  -27.3989 H   0  0  0  0  0  0  0  0  0  0  0  0
    1.5088   19.4365  -28.2090 H   0  0  0  0  0  0  0  0  0  0  0  0
    1.1370   21.1938  -28.2090 H   0  0  0  0  0  0  0  0  0  0  0  0
   -0.0180   18.9340  -30.3840 C   0  0  0  0  0  0  0  0  0  0  0  0
    0.8290   17.7040  -30.2820 C   0  0  0  0  0  0  0  0  0  0  0  0
    0.9964   17.4609  -29.2223 H   0  0  0  0  0  0  0  0  0  0  0  0
    0.3168   16.8642  -30.7744 H   0  0  0  0  0  0  0  0  0  0  0  0
    1.7962   17.8830  -30.7744 H   0  0  0  0  0  0  0  0  0  0  0  0
   -4.4880   19.5650  -32.5580 C   0  0  0  0  0  0  0  0  0  0  0  0
   -4.6196   18.4775  -32.6581 H   0  0  0  0  0  0  0  0  0  0  0  0
   -5.4480   20.3250  -31.8830 C   0  0  0  0  0  0  0  0  0  0  0  0
   -6.3381   19.8336  -31.4632 H   0  0  0  0  0  0  0  0  0  0  0  0
   -4.6150   22.5510  -28.3690 C   0  0  0  0  0  0  0  0  0  0  0  0
   -5.4959   21.9087  -28.2224 H   0  0  0  0  0  0  0  0  0  0  0  0
  1  2  1  0
  2  3  2  0
  3  4  1  0
  3  5  1  0
  5  6  1  0
  6  7  1  0
  6  8  1  0
  6  9  1  0
  5 10  2  0
 10 11  1  0
 10 12  1  0
 12 13  1  0
 13 14  1  0
 13 15  1  0
 13 16  1  0
 16 17  1  0
 16 18  1  0
 18 19  2  0
 19 20  1  0
 19 21  1  0
 21 22  1  0
 21 23  2  0
 23 24  1  0
 24 25  2  0
 24 26  2  0
 24 27  1  0
 27 28  2  0
 28 29  1  0
 29 30  1  0
 30 31  1  0
 30 32  1  0
 32 33  1  0
 33 34  1  0
 33 35  1  0
 33 36  1  0
 32 37  2  0
 37 38  1  0
 38 39  1  0
 38 40  1  0
 38 41  1  0
 23 42  1  0
 42 43  1  0
 42 44  2  0
 44 45  1  0
 12 46  2  0
 46 47  1  0
 46  2  1  0
 44 18  1  0
 37 28  1  0
M  CHG  1  11  -1
M  END
>  <UniqueID>  (18) 
18

>  <SMILES>  (18) 
Cc1cccc(CNc2ccc(S(=O)(=O)/N=c3\o[nH]c(C)c3C)cc2)c1[O-]

>  <Energy>  (18) 
80.5887922107623

>  <Genealogy>  (18) 
Cc1cccc(CNc2ccc(S(=O)(=O)N=c3o[nH]c(C)c3C)cc2)c1[O-] (protonated)
Cc1cccc(CNc2ccc(S(=O)(=O)/N=c3\o[nH]c(C)c3C)cc2)c1[O-] (cis-trans isomerization)
Cc1cccc(CNc2ccc(S(=O)(=O)/N=c3\o[nH]c(C)c3C)cc2)c1[O-] (3D coordinates assigned)
Cc1cccc(CNc2ccc(S(=O)(=O)/N=c3\o[nH]c(C)c3C)cc2)c1[O-] (optimized conformer: 80.5887922107623 kcal/mol)

>  <smiles>  (18) 
Cc1cccc(CNc2ccc(S(=O)(=O)N=c3o[nH]c(C)c3C)cc2)c1O

>  <score_type>  (18) 
oracle

>  <origin>  (18) 
adgpu

>  <m_score__min__energy>  (18) 
-12.59

>  <m_primary>  (18) 
energy

$$$$
18:0
     RDKit          3D

 43 45  0  0  0  0  0  0  0  0999 V2000
   -5.4020   16.5800  -31.7290 C   0  0  0  0  0  0  0  0  0  0  0  0
   -5.0630   16.9700  -33.1020 N   0  0  0  0  0  0  0  0  0  0  0  0
   -3.9870   17.9690  -33.0950 C   0  0  0  0  0  0  0  0  0  0  0  0
   -6.4750   17.6260  -33.8960 S   0  0  0  0  0  0  0  0  0  0  0  0
   -7.5160   16.5520  -34.0310 O   0  0  0  0  0  0  0  0  0  0  0  0
   -6.1020   18.0880  -35.2780 O   0  0  0  0  0  0  0  0  0  0  0  0
   -7.1530   18.9840  -32.9940 C   0  0  0  0  0  0  0  0  0  0  0  0
   -8.5210   19.2760  -33.0800 C   0  0  0  0  0  0  0  0  0  0  0  0
   -9.0540   20.3530  -32.3700 C   0  0  0  0  0  0  0  0  0  0  0  0
   -8.2280   21.1390  -31.5620 C   0  0  0  0  0  0  0  0  0  0  0  0
   -6.8620   20.8450  -31.4440 C   0  0  0  0  0  0  0  0  0  0  0  0
   -6.0290   21.6740  -30.6150 N   0  0  0  0  0  0  0  0  0  0  0  0
   -4.7210   22.1280  -31.0010 C   0  0  0  0  0  0  0  0  0  0  0  0
   -4.1050   21.5620  -31.9450 O   0  0  0  0  0  0  0  0  0  0  0  0
   -4.0610   23.2300  -30.2800 C   0  0  0  0  0  0  0  0  0  0  0  0
   -3.2960   23.1280  -29.1350 C   0  0  0  0  0  0  0  0  0  0  0  0
   -2.9240   24.4340  -28.8590 C   0  0  0  0  0  0  0  0  0  0  0  0
   -2.0880   24.9010  -27.7210 C   0  0  0  0  0  0  0  0  0  0  0  0
   -2.0910   24.1940  -26.5010 C   0  0  0  0  0  0  0  0  0  0  0  0
   -1.3120   24.6260  -25.4250 C   0  0  0  0  0  0  0  0  0  0  0  0
   -0.5210   25.7690  -25.5450 C   0  0  0  0  0  0  0  0  0  0  0  0
   -0.5070   26.4820  -26.7440 C   0  0  0  0  0  0  0  0  0  0  0  0
   -1.2810   26.0570  -27.8300 C   0  0  0  0  0  0  0  0  0  0  0  0
   -1.2290   26.7900  -29.0110 O   0  0  0  0  0  0  0  0  0  0  0  0
   -3.4510   25.2490  -29.7960 N   0  0  0  0  0  0  0  0  0  0  0  0
   -4.1420   24.5190  -30.6560 N   0  0  0  0  0  0  0  0  0  0  0  0
   -6.3250   19.7740  -32.1830 C   0  0  0  0  0  0  0  0  0  0  0  0
   -4.8500   17.2151  -31.0205 H   0  0  0  0  0  0  0  0  0  0  0  0
   -6.4830   16.7055  -31.5685 H   0  0  0  0  0  0  0  0  0  0  0  0
   -5.1273   15.5270  -31.5685 H   0  0  0  0  0  0  0  0  0  0  0  0
   -3.7219   18.2151  -32.0562 H   0  0  0  0  0  0  0  0  0  0  0  0
   -3.1054   17.5620  -33.6118 H   0  0  0  0  0  0  0  0  0  0  0  0
   -4.3276   18.8784  -33.6118 H   0  0  0  0  0  0  0  0  0  0  0  0
   -9.1762   18.6550  -33.7085 H   0  0  0  0  0  0  0  0  0  0  0  0
  -10.1268   20.5837  -32.4466 H   0  0  0  0  0  0  0  0  0  0  0  0
   -8.6522   21.9939  -31.0150 H   0  0  0  0  0  0  0  0  0  0  0  0
   -6.3520   21.8660  -29.6400 H   0  0  0  0  0  0  0  0  0  0  0  0
   -3.0405   22.2186  -28.5713 H   0  0  0  0  0  0  0  0  0  0  0  0
   -2.7132   23.2930  -26.3955 H   0  0  0  0  0  0  0  0  0  0  0  0
   -1.3222   24.0632  -24.4800 H   0  0  0  0  0  0  0  0  0  0  0  0
    0.0906   26.1074  -24.6956 H   0  0  0  0  0  0  0  0  0  0  0  0
    0.1161   27.3837  -26.8365 H   0  0  0  0  0  0  0  0  0  0  0  0
   -5.2486   19.5551  -32.1241 H   0  0  0  0  0  0  0  0  0  0  0  0
  1  2  1  0
  2  3  1  0
  2  4  1  0
  4  5  2  0
  4  6  2  0
  4  7  1  0
  7  8  2  0
  8  9  1  0
  9 10  2  0
 10 11  1  0
 11 12  1  0
 12 13  1  0
 13 14  2  0
 13 15  1  0
 15 16  1  0
 16 17  2  0
 17 18  1  0
 18 19  2  0
 19 20  1  0
 20 21  2  0
 21 22  1  0
 22 23  2  0
 23 24  1  0
 17 25  1  0
 25 26  1  0
 11 27  2  0
 27  7  1  0
 26 15  2  0
 23 18  1  0
  1 28  1  0
  1 29  1  0
  1 30  1  0
  3 31  1  0
  3 32  1  0
  3 33  1  0
  8 34  1  0
  9 35  1  0
 10 36  1  0
 12 37  1  0
 16 38  1  0
 19 39  1  0
 20 40  1  0
 21 41  1  0
 22 42  1  0
 27 43  1  0
M  CHG  2  24  -1  25  -1
M  END
>  <UniqueID>  (19) 
19

>  <SMILES>  (19) 
CN(C)S(=O)(=O)c1cccc(NC(=O)c2cc(-c3ccccc3[O-])[n-]n2)c1

>  <Energy>  (19) 
78.31962243166045

>  <Genealogy>  (19) 
CN(C)S(=O)(=O)c1cccc(NC(=O)c2cc(-c3ccccc3[O-])[n-]n2)c1 (protonated)
CN(C)S(=O)(=O)c1cccc(NC(=O)c2cc(-c3ccccc3[O-])[n-]n2)c1 (3D coordinates assigned)
CN(C)S(=O)(=O)c1cccc(NC(=O)c2cc(-c3ccccc3[O-])[n-]n2)c1 (optimized conformer: 78.31962243166045 kcal/mol)

>  <smiles>  (19) 
CN(C)S(=O)(=O)c1cccc(NC(=O)c2cc(-c3ccccc3O)[nH]n2)c1

>  <score_type>  (19) 
oracle

>  <origin>  (19) 
adgpu

>  <m_score__min__energy>  (19) 
-13.92

>  <m_primary>  (19) 
energy

$$$$
19:0
     RDKit          3D

 44 46  0  0  0  0  0  0  0  0999 V2000
   -0.5140   25.3540  -27.9560 C   0  0  0  0  0  0  0  0  0  0  0  0
   -1.5980   24.7250  -28.4160 C   0  0  0  0  0  0  0  0  0  0  0  0
   -2.4110   25.2930  -29.3330 N   0  0  0  0  0  0  0  0  0  0  0  0
   -3.3900   24.3990  -29.5830 C   0  0  0  0  0  0  0  0  0  0  0  0
   -4.3810   24.6620  -30.4490 C   0  0  0  0  0  0  0  0  0  0  0  0
   -5.4130   23.7010  -30.8750 C   0  0  0  0  0  0  0  0  0  0  0  0
   -6.7510   23.9950  -31.0500 C   0  0  0  0  0  0  0  0  0  0  0  0
   -7.3270   22.8600  -31.5900 C   0  0  0  0  0  0  0  0  0  0  0  0
   -8.7720   22.7440  -31.9700 C   0  0  0  0  0  0  0  0  0  0  0  0
   -6.3900   21.8960  -31.7590 N   0  0  0  0  0  0  0  0  0  0  0  0
   -6.5660   20.5790  -32.3080 C   0  0  0  0  0  0  0  0  0  0  0  0
   -5.7810   20.1560  -33.3930 C   0  0  0  0  0  0  0  0  0  0  0  0
   -5.9390   18.8710  -33.9220 C   0  0  0  0  0  0  0  0  0  0  0  0
   -6.8730   17.9920  -33.3670 C   0  0  0  0  0  0  0  0  0  0  0  0
   -7.0210   16.7150  -33.9040 O   0  0  0  0  0  0  0  0  0  0  0  0
   -7.6510   18.4020  -32.2760 C   0  0  0  0  0  0  0  0  0  0  0  0
   -7.4950   19.6870  -31.7460 C   0  0  0  0  0  0  0  0  0  0  0  0
   -5.2150   22.4180  -31.3510 C   0  0  0  0  0  0  0  0  0  0  0  0
   -3.2070   23.2690  -28.8000 C   0  0  0  0  0  0  0  0  0  0  0  0
   -4.0520   22.1680  -28.7090 O   0  0  0  0  0  0  0  0  0  0  0  0
   -2.0580   23.4570  -28.0570 C   0  0  0  0  0  0  0  0  0  0  0  0
   -1.5040   22.4880  -27.0830 C   0  0  0  0  0  0  0  0  0  0  0  0
   -1.2050   22.8480  -25.9130 O   0  0  0  0  0  0  0  0  0  0  0  0
   -1.3160   21.1580  -27.4730 O   0  0  0  0  0  0  0  0  0  0  0  0
   -2.3840   20.2210  -27.5560 C   0  0  0  0  0  0  0  0  0  0  0  0
   -2.3500   19.3030  -26.3440 C   0  0  0  0  0  0  0  0  0  0  0  0
    0.1295   24.8661  -27.2091 H   0  0  0  0  0  0  0  0  0  0  0  0
   -0.2643   26.3602  -28.3239 H   0  0  0  0  0  0  0  0  0  0  0  0
   -4.4262   25.6754  -30.8744 H   0  0  0  0  0  0  0  0  0  0  0  0
   -7.2566   24.9416  -30.8084 H   0  0  0  0  0  0  0  0  0  0  0  0
   -9.3877   22.6946  -31.0598 H   0  0  0  0  0  0  0  0  0  0  0  0
   -9.0664   23.6214  -32.5646 H   0  0  0  0  0  0  0  0  0  0  0  0
   -8.9226   21.8309  -32.5646 H   0  0  0  0  0  0  0  0  0  0  0  0
   -5.0376   20.8393  -33.8293 H   0  0  0  0  0  0  0  0  0  0  0  0
   -5.3261   18.5512  -34.7776 H   0  0  0  0  0  0  0  0  0  0  0  0
   -6.8030   16.5190  -34.8730 H   0  0  0  0  0  0  0  0  0  0  0  0
   -8.3858   17.7120  -31.8356 H   0  0  0  0  0  0  0  0  0  0  0  0
   -8.1028   20.0010  -30.8846 H   0  0  0  0  0  0  0  0  0  0  0  0
   -4.2450   21.9007  -31.3910 H   0  0  0  0  0  0  0  0  0  0  0  0
   -3.3428   20.7595  -27.5810 H   0  0  0  0  0  0  0  0  0  0  0  0
   -2.2752   19.6220  -28.4722 H   0  0  0  0  0  0  0  0  0  0  0  0
   -2.3724   19.9076  -25.4253 H   0  0  0  0  0  0  0  0  0  0  0  0
   -3.2240   18.6355  -26.3650 H   0  0  0  0  0  0  0  0  0  0  0  0
   -1.4290   18.7019  -26.3650 H   0  0  0  0  0  0  0  0  0  0  0  0
  1  2  2  0
  2  3  1  0
  3  4  1  0
  4  5  2  3
  5  6  1  0
  6  7  1  0
  7  8  2  0
  8  9  1  0
  8 10  1  0
 10 11  1  0
 11 12  2  0
 12 13  1  0
 13 14  2  0
 14 15  1  0
 14 16  1  0
 16 17  2  0
 10 18  1  0
  4 19  1  0
 19 20  1  0
 19 21  2  0
 21 22  1  0
 22 23  2  0
 22 24  1  0
 24 25  1  0
 25 26  1  0
 21  2  1  0
 18  6  2  0
 17 11  1  0
  1 27  1  0
  1 28  1  0
  5 29  1  0
  7 30  1  0
  9 31  1  0
  9 32  1  0
  9 33  1  0
 12 34  1  0
 13 35  1  0
 15 36  1  0
 16 37  1  0
 17 38  1  0
 18 39  1  0
 25 40  1  0
 25 41  1  0
 26 42  1  0
 26 43  1  0
 26 44  1  0
M  CHG  2   3  -1  20  -1
M  END
>  <UniqueID>  (20) 
20

>  <SMILES>  (20) 
C=c1[n-]c(=Cc2cc(C)n(-c3ccc(O)cc3)c2)c([O-])c1C(=O)OCC

>  <Energy>  (20) 
107.16873562251764

>  <Genealogy>  (20) 
C=c1[n-]c(=Cc2cc(C)n(-c3ccc(O)cc3)c2)c([O-])c1C(=O)OCC (protonated)
C=c1[n-]c(=Cc2cc(C)n(-c3ccc(O)cc3)c2)c([O-])c1C(=O)OCC (3D coordinates assigned)
C=c1[n-]c(=Cc2cc(C)n(-c3ccc(O)cc3)c2)c([O-])c1C(=O)OCC (optimized conformer: 107.16873562251764 kcal/mol)

>  <smiles>  (20) 
C=c1[nH]c(=Cc2cc(C)n(-c3ccc(O)cc3)c2)c(O)c1C(=O)OCC

>  <score_type>  (20) 
oracle

>  <origin>  (20) 
adgpu

>  <m_score__min__energy>  (20) 
-9.6199999999999992

>  <m_primary>  (20) 
energy

$$$$
20:0
     RDKit          3D

 44 46  0  0  0  0  0  0  0  0999 V2000
    0.4660   19.0420  -35.4980 C   0  0  0  0  0  0  0  0  0  0  0  0
   -0.6100   19.5840  -34.6050 C   0  0  0  0  0  0  0  0  0  0  0  0
   -1.6790   18.7680  -34.2110 C   0  0  0  0  0  0  0  0  0  0  0  0
   -2.7040   19.2820  -33.4090 C   0  0  0  0  0  0  0  0  0  0  0  0
   -2.6840   20.6290  -33.0040 C   0  0  0  0  0  0  0  0  0  0  0  0
   -3.7610   21.1840  -32.1490 C   0  0  0  0  0  0  0  0  0  0  0  0
   -4.6650   20.4180  -31.7140 O   0  0  0  0  0  0  0  0  0  0  0  0
   -3.7640   22.5710  -31.7720 N   0  0  0  0  0  0  0  0  0  0  0  0
   -4.9250   23.2440  -31.2510 C   0  0  0  0  0  0  0  0  0  0  0  0
   -6.2060   22.6860  -31.4120 C   0  0  0  0  0  0  0  0  0  0  0  0
   -7.3330   23.3420  -30.9140 C   0  0  0  0  0  0  0  0  0  0  0  0
   -7.1970   24.5700  -30.2660 C   0  0  0  0  0  0  0  0  0  0  0  0
   -5.9340   25.1440  -30.1120 C   0  0  0  0  0  0  0  0  0  0  0  0
   -4.7880   24.4840  -30.5930 C   0  0  0  0  0  0  0  0  0  0  0  0
   -3.4830   25.0630  -30.4350 N   0  0  0  0  0  0  0  0  0  0  0  0
   -2.5100   24.6760  -29.4600 C   0  0  0  0  0  0  0  0  0  0  0  0
   -1.4850   25.3920  -29.3080 O   0  0  0  0  0  0  0  0  0  0  0  0
   -2.6540   23.4420  -28.6580 C   0  0  0  0  0  0  0  0  0  0  0  0
   -2.1080   22.1990  -28.9240 C   0  0  0  0  0  0  0  0  0  0  0  0
   -1.2310   21.8330  -30.0780 C   0  0  0  0  0  0  0  0  0  0  0  0
   -2.4910   21.3270  -27.9710 N   0  0  0  0  0  0  0  0  0  0  0  0
   -3.2520   21.9810  -27.1400 O   0  0  0  0  0  0  0  0  0  0  0  0
   -3.3910   23.2350  -27.5030 C   0  0  0  0  0  0  0  0  0  0  0  0
   -4.2280   24.2230  -26.7570 C   0  0  0  0  0  0  0  0  0  0  0  0
   -1.6120   21.4450  -33.4090 C   0  0  0  0  0  0  0  0  0  0  0  0
   -0.5900   20.9290  -34.2100 C   0  0  0  0  0  0  0  0  0  0  0  0
    1.2806   18.6317  -34.8832 H   0  0  0  0  0  0  0  0  0  0  0  0
    0.0493   18.2463  -36.1329 H   0  0  0  0  0  0  0  0  0  0  0  0
    0.8574   19.8505  -36.1329 H   0  0  0  0  0  0  0  0  0  0  0  0
   -1.7125   17.7171  -34.5341 H   0  0  0  0  0  0  0  0  0  0  0  0
   -3.5307   18.6286  -33.0932 H   0  0  0  0  0  0  0  0  0  0  0  0
   -2.8520   23.0810  -31.7630 H   0  0  0  0  0  0  0  0  0  0  0  0
   -6.3207   21.7249  -31.9346 H   0  0  0  0  0  0  0  0  0  0  0  0
   -8.3290   22.8904  -31.0326 H   0  0  0  0  0  0  0  0  0  0  0  0
   -8.0863   25.0866  -29.8759 H   0  0  0  0  0  0  0  0  0  0  0  0
   -5.8339   26.1184  -29.6115 H   0  0  0  0  0  0  0  0  0  0  0  0
   -0.2771   21.4349  -29.7018 H   0  0  0  0  0  0  0  0  0  0  0  0
   -1.7312   21.0685  -30.6907 H   0  0  0  0  0  0  0  0  0  0  0  0
   -1.0394   22.7263  -30.6907 H   0  0  0  0  0  0  0  0  0  0  0  0
   -4.0987   24.0704  -25.6753 H   0  0  0  0  0  0  0  0  0  0  0  0
   -3.9154   25.2435  -27.0233 H   0  0  0  0  0  0  0  0  0  0  0  0
   -5.2860   24.0824  -27.0233 H   0  0  0  0  0  0  0  0  0  0  0  0
   -1.5781   22.4979  -33.0925 H   0  0  0  0  0  0  0  0  0  0  0  0
    0.2347   21.5816  -34.5324 H   0  0  0  0  0  0  0  0  0  0  0  0
  1  2  1  0
  2  3  2  0
  3  4  1  0
  4  5  2  0
  5  6  1  0
  6  7  2  0
  6  8  1  0
  8  9  1  0
  9 10  2  0
 10 11  1  0
 11 12  2  0
 12 13  1  0
 13 14  2  0
 14 15  1  0
 15 16  1  0
 16 17  2  0
 16 18  1  0
 18 19  1  0
 19 20  1  0
 19 21  2  0
 21 22  1  0
 22 23  1  0
 23 24  1  0
  5 25  1  0
 25 26  2  0
 26  2  1  0
 14  9  1  0
 23 18  2  0
  1 27  1  0
  1 28  1  0
  1 29  1  0
  3 30  1  0
  4 31  1  0
  8 32  1  0
 10 33  1  0
 11 34  1  0
 12 35  1  0
 13 36  1  0
 20 37  1  0
 20 38  1  0
 20 39  1  0
 24 40  1  0
 24 41  1  0
 24 42  1  0
 25 43  1  0
 26 44  1  0
M  CHG  1  15  -1
M  END
>  <UniqueID>  (21) 
21

>  <SMILES>  (21) 
Cc1ccc(C(=O)Nc2ccccc2[N-]C(=O)c2c(C)noc2C)cc1

>  <Energy>  (21) 
86.80792465951714

>  <Genealogy>  (21) 
Cc1ccc(C(=O)Nc2ccccc2[N-]C(=O)c2c(C)noc2C)cc1 (protonated)
Cc1ccc(C(=O)Nc2ccccc2[N-]C(=O)c2c(C)noc2C)cc1 (3D coordinates assigned)
Cc1ccc(C(=O)Nc2ccccc2[N-]C(=O)c2c(C)noc2C)cc1 (optimized conformer: 86.80792465951714 kcal/mol)

>  <smiles>  (21) 
Cc1ccc(C(=O)Nc2ccccc2NC(=O)c2c(C)noc2C)cc1

>  <score_type>  (21) 
oracle

>  <origin>  (21) 
adgpu

>  <m_score__min__energy>  (21) 
-9.2599999999999998

>  <m_primary>  (21) 
energy

$$$$
21:0
     RDKit          3D

 34 36  0  0  0  0  0  0  0  0999 V2000
   -6.1720   26.2030  -31.4200 H   0  0  0  0  0  0  0  0  0  0  0  0
   -5.3240   26.0460  -30.8310 N   0  0  0  0  0  0  0  0  0  0  0  0
   -4.6910   24.9150  -30.7490 C   0  0  0  0  0  0  0  0  0  0  0  0
   -3.6000   24.8430  -29.9440 N   0  0  0  0  0  0  0  0  0  0  0  0
   -2.8730   23.7050  -29.7840 C   0  0  0  0  0  0  0  0  0  0  0  0
   -1.6970   23.7080  -28.8770 C   0  0  0  0  0  0  0  0  0  0  0  0
   -1.3340   22.5380  -28.1820 C   0  0  0  0  0  0  0  0  0  0  0  0
   -1.9179   21.6166  -28.3238 H   0  0  0  0  0  0  0  0  0  0  0  0
   -0.2390   22.5370  -27.3140 C   0  0  0  0  0  0  0  0  0  0  0  0
    0.0365   21.6167  -26.7782 H   0  0  0  0  0  0  0  0  0  0  0  0
    0.5060   23.7030  -27.1260 C   0  0  0  0  0  0  0  0  0  0  0  0
    1.3687   23.7004  -26.4436 H   0  0  0  0  0  0  0  0  0  0  0  0
    0.1560   24.8720  -27.8040 C   0  0  0  0  0  0  0  0  0  0  0  0
    0.7429   25.7898  -27.6514 H   0  0  0  0  0  0  0  0  0  0  0  0
   -0.9380   24.8820  -28.6770 C   0  0  0  0  0  0  0  0  0  0  0  0
   -1.2480   26.0580  -29.3530 O   0  0  0  0  0  0  0  0  0  0  0  0
   -3.2490   22.5510  -30.4830 C   0  0  0  0  0  0  0  0  0  0  0  0
   -2.6682   21.6243  -30.3649 H   0  0  0  0  0  0  0  0  0  0  0  0
   -4.3640   22.5740  -31.3330 C   0  0  0  0  0  0  0  0  0  0  0  0
   -4.7220   21.3360  -32.0690 C   0  0  0  0  0  0  0  0  0  0  0  0
   -3.7430   20.6380  -32.7950 C   0  0  0  0  0  0  0  0  0  0  0  0
   -2.7065   21.0060  -32.8097 H   0  0  0  0  0  0  0  0  0  0  0  0
   -4.0790   19.4780  -33.4990 C   0  0  0  0  0  0  0  0  0  0  0  0
   -3.3054   18.9330  -34.0598 H   0  0  0  0  0  0  0  0  0  0  0  0
   -5.3960   19.0090  -33.4920 C   0  0  0  0  0  0  0  0  0  0  0  0
   -5.7220   17.8550  -34.1950 O   0  0  0  0  0  0  0  0  0  0  0  0
   -6.3840   19.7030  -32.7820 C   0  0  0  0  0  0  0  0  0  0  0  0
   -7.6970   19.2330  -32.7860 O   0  0  0  0  0  0  0  0  0  0  0  0
   -8.0170   18.5630  -33.4750 H   0  0  0  0  0  0  0  0  0  0  0  0
   -6.0470   20.8650  -32.0750 C   0  0  0  0  0  0  0  0  0  0  0  0
   -6.8240   21.4123  -31.5211 H   0  0  0  0  0  0  0  0  0  0  0  0
   -5.1090   23.7680  -31.4660 C   0  0  0  0  0  0  0  0  0  0  0  0
   -6.3040   23.8000  -32.2840 C   0  0  0  0  0  0  0  0  0  0  0  0
   -7.2580   23.8240  -32.9380 N   0  0  0  0  0  0  0  0  0  0  0  0
  1  2  1  0
  2  3  2  0
  3  4  1  0
  4  5  1  0
  5  6  1  0
  6  7  2  0
  7  8  1  0
  7  9  1  0
  9 10  1  0
  9 11  2  0
 11 12  1  0
 11 13  1  0
 13 14  1  0
 13 15  2  0
 15 16  1  0
  5 17  2  0
 17 18  1  0
 17 19  1  0
 19 20  1  0
 20 21  2  0
 21 22  1  0
 21 23  1  0
 23 24  1  0
 23 25  2  0
 25 26  1  0
 25 27  1  0
 27 28  1  0
 28 29  1  0
 27 30  2  0
 30 31  1  0
 19 32  2  0
 32 33  1  0
 33 34  3  0
 32  3  1  0
 15  6  1  0
 30 20  1  0
M  CHG  3   4  -1  16  -1  26  -1
M  END
>  <UniqueID>  (22) 
22

>  <SMILES>  (22) 
[H]/N=c1/[n-]c(-c2ccccc2[O-])cc(-c2ccc([O-])c(O)c2)c1C#N

>  <Energy>  (22) 
52.428346322432965

>  <Genealogy>  (22) 
N#Cc1c(-c2ccc([O-])c(O)c2)cc(-c2ccccc2[O-])[n-]c1=N (protonated)
[H]/N=c1/[n-]c(-c2ccccc2[O-])cc(-c2ccc([O-])c(O)c2)c1C#N (cis-trans isomerization)
[H]/N=c1/[n-]c(-c2ccccc2[O-])cc(-c2ccc([O-])c(O)c2)c1C#N (3D coordinates assigned)
[H]/N=c1/[n-]c(-c2ccccc2[O-])cc(-c2ccc([O-])c(O)c2)c1C#N (optimized conformer: 52.428346322432965 kcal/mol)

>  <smiles>  (22) 
N#Cc1c(-c2ccc(O)c(O)c2)cc(-c2ccccc2O)[nH]c1=N

>  <score_type>  (22) 
oracle

>  <origin>  (22) 
adgpu

>  <m_score__min__energy>  (22) 
-11.85

>  <m_primary>  (22) 
energy

$$$$
22:0
     RDKit          3D

 47 50  0  0  0  0  0  0  0  0999 V2000
    1.8710   19.4720  -29.6580 N   0  0  0  0  0  0  0  0  0  0  0  0
    0.9010   19.6110  -30.2740 C   0  0  0  0  0  0  0  0  0  0  0  0
   -0.3040   19.7850  -31.0410 C   0  0  0  0  0  0  0  0  0  0  0  0
   -1.5080   20.0950  -30.3970 C   0  0  0  0  0  0  0  0  0  0  0  0
   -2.6810   20.2470  -31.1410 C   0  0  0  0  0  0  0  0  0  0  0  0
   -2.6550   20.0980  -32.5330 C   0  0  0  0  0  0  0  0  0  0  0  0
   -4.1720   20.2500  -33.4770 S   0  0  0  0  0  0  0  0  0  0  0  0
   -4.7840   21.5980  -32.4630 C   0  0  0  0  0  0  0  0  0  0  0  0
   -4.0220   22.6520  -32.1190 N   0  0  0  0  0  0  0  0  0  0  0  0
   -4.8450   23.3430  -31.2990 C   0  0  0  0  0  0  0  0  0  0  0  0
   -4.4800   24.6410  -30.7100 C   0  0  0  0  0  0  0  0  0  0  0  0
   -5.2910   25.6000  -30.8090 O   0  0  0  0  0  0  0  0  0  0  0  0
   -3.2410   24.8600  -30.0250 N   0  0  0  0  0  0  0  0  0  0  0  0
   -2.3180   23.6380  -29.2110 S   0  0  0  0  0  0  0  0  0  0  0  0
   -1.3350   23.0430  -30.1800 O   0  0  0  0  0  0  0  0  0  0  0  0
   -3.2490   22.5600  -28.7350 O   0  0  0  0  0  0  0  0  0  0  0  0
   -1.4820   24.3110  -27.8070 C   0  0  0  0  0  0  0  0  0  0  0  0
   -1.2970   23.5110  -26.6700 C   0  0  0  0  0  0  0  0  0  0  0  0
   -0.6190   24.0110  -25.5570 C   0  0  0  0  0  0  0  0  0  0  0  0
   -0.3700   22.9910  -24.1510 Cl  0  0  0  0  0  0  0  0  0  0  0  0
   -0.1420   25.3220  -25.5620 C   0  0  0  0  0  0  0  0  0  0  0  0
   -0.3290   26.1380  -26.6820 C   0  0  0  0  0  0  0  0  0  0  0  0
    0.3030   27.7780  -26.6370 Cl  0  0  0  0  0  0  0  0  0  0  0  0
   -1.0120   25.6390  -27.8100 C   0  0  0  0  0  0  0  0  0  0  0  0
   -1.2390   26.4440  -28.9280 O   0  0  0  0  0  0  0  0  0  0  0  0
   -6.0480   22.7520  -31.1530 N   0  0  0  0  0  0  0  0  0  0  0  0
   -6.0050   21.6600  -31.8950 N   0  0  0  0  0  0  0  0  0  0  0  0
   -7.0990   20.7370  -32.0200 C   0  0  0  0  0  0  0  0  0  0  0  0
   -6.8680   19.3580  -31.9050 C   0  0  0  0  0  0  0  0  0  0  0  0
   -7.9210   18.4490  -32.0420 C   0  0  0  0  0  0  0  0  0  0  0  0
   -9.2180   18.9120  -32.2740 C   0  0  0  0  0  0  0  0  0  0  0  0
   -9.4640   20.2850  -32.3600 C   0  0  0  0  0  0  0  0  0  0  0  0
   -8.4120   21.1950  -32.2270 C   0  0  0  0  0  0  0  0  0  0  0  0
   -1.4500   19.7980  -33.1790 C   0  0  0  0  0  0  0  0  0  0  0  0
   -0.2760   19.6430  -32.4350 C   0  0  0  0  0  0  0  0  0  0  0  0
   -1.5305   20.2190  -29.3042 H   0  0  0  0  0  0  0  0  0  0  0  0
   -3.6269   20.4842  -30.6320 H   0  0  0  0  0  0  0  0  0  0  0  0
   -1.6886   22.4832  -26.6552 H   0  0  0  0  0  0  0  0  0  0  0  0
    0.3841   25.7160  -24.6800 H   0  0  0  0  0  0  0  0  0  0  0  0
   -1.6160   26.0870  -29.7970 H   0  0  0  0  0  0  0  0  0  0  0  0
   -5.8509   18.9895  -31.7056 H   0  0  0  0  0  0  0  0  0  0  0  0
   -7.7280   17.3687  -31.9671 H   0  0  0  0  0  0  0  0  0  0  0  0
  -10.0455   18.1964  -32.3890 H   0  0  0  0  0  0  0  0  0  0  0  0
  -10.4873   20.6499  -32.5326 H   0  0  0  0  0  0  0  0  0  0  0  0
   -8.6121   22.2751  -32.2845 H   0  0  0  0  0  0  0  0  0  0  0  0
   -1.4264   19.6841  -34.2728 H   0  0  0  0  0  0  0  0  0  0  0  0
    0.6705   19.4094  -32.9445 H   0  0  0  0  0  0  0  0  0  0  0  0
  1  2  3  0
  2  3  1  0
  3  4  2  0
  4  5  1  0
  5  6  2  0
  6  7  1  0
  7  8  1  0
  8  9  2  0
  9 10  1  0
 10 11  1  0
 11 12  2  0
 11 13  1  0
 13 14  1  0
 14 15  2  0
 14 16  2  0
 14 17  1  0
 17 18  2  0
 18 19  1  0
 19 20  1  0
 19 21  2  0
 21 22  1  0
 22 23  1  0
 22 24  2  0
 24 25  1  0
 10 26  2  0
 26 27  1  0
 27 28  1  0
 28 29  2  0
 29 30  1  0
 30 31  2  0
 31 32  1  0
 32 33  2  0
  6 34  1  0
 34 35  2  0
 35  3  1  0
 27  8  1  0
 33 28  1  0
 24 17  1  0
  4 36  1  0
  5 37  1  0
 18 38  1  0
 21 39  1  0
 25 40  1  0
 29 41  1  0
 30 42  1  0
 31 43  1  0
 32 44  1  0
 33 45  1  0
 34 46  1  0
 35 47  1  0
M  CHG  1  13  -1
M  END
>  <UniqueID>  (23) 
23

>  <SMILES>  (23) 
N#Cc1ccc(Sc2nc(C(=O)[N-]S(=O)(=O)c3cc(Cl)cc(Cl)c3O)nn2-c2ccccc2)cc1

>  <Energy>  (23) 
83.32168899469357

>  <Genealogy>  (23) 
N#Cc1ccc(Sc2nc(C(=O)[N-]S(=O)(=O)c3cc(Cl)cc(Cl)c3O)nn2-c2ccccc2)cc1 (protonated)
N#Cc1ccc(Sc2nc(C(=O)[N-]S(=O)(=O)c3cc(Cl)cc(Cl)c3O)nn2-c2ccccc2)cc1 (3D coordinates assigned)
N#Cc1ccc(Sc2nc(C(=O)[N-]S(=O)(=O)c3cc(Cl)cc(Cl)c3O)nn2-c2ccccc2)cc1 (optimized conformer: 83.32168899469357 kcal/mol)

>  <smiles>  (23) 
N#Cc1ccc(Sc2nc(C(=O)NS(=O)(=O)c3cc(Cl)cc(Cl)c3O)nn2-c2ccccc2)cc1

>  <score_type>  (23) 
oracle

>  <origin>  (23) 
adgpu

>  <m_score__min__energy>  (23) 
-12.65

>  <m_primary>  (23) 
energy

$$$$
23:0
     RDKit          3D

 49 51  0  0  0  0  0  0  0  0999 V2000
   -3.4830   16.3100  -34.3340 H   0  0  0  0  0  0  0  0  0  0  0  0
   -4.4810   16.0880  -34.1200 N   0  0  0  0  0  0  0  0  0  0  0  0
   -5.4030   17.5060  -34.4780 S   0  0  0  0  0  0  0  0  0  0  0  0
   -5.3660   17.7650  -35.9570 O   0  0  0  0  0  0  0  0  0  0  0  0
   -6.8250   17.2790  -34.0460 O   0  0  0  0  0  0  0  0  0  0  0  0
   -4.7360   18.8940  -33.6260 C   0  0  0  0  0  0  0  0  0  0  0  0
   -5.5650   19.9680  -33.2740 C   0  0  0  0  0  0  0  0  0  0  0  0
   -6.6357   19.9388  -33.5243 H   0  0  0  0  0  0  0  0  0  0  0  0
   -5.0360   21.0760  -32.6060 C   0  0  0  0  0  0  0  0  0  0  0  0
   -5.6922   21.9149  -32.3311 H   0  0  0  0  0  0  0  0  0  0  0  0
   -3.6670   21.1220  -32.2840 C   0  0  0  0  0  0  0  0  0  0  0  0
   -3.0980   22.2370  -31.5900 N   0  0  0  0  0  0  0  0  0  0  0  0
   -2.6920   22.1420  -30.3880 N   0  0  0  0  0  0  0  0  0  0  0  0
   -2.0960   23.2270  -29.6590 C   0  0  0  0  0  0  0  0  0  0  0  0
   -0.9870   22.9640  -28.8260 C   0  0  0  0  0  0  0  0  0  0  0  0
   -0.4300   21.6820  -28.7090 O   0  0  0  0  0  0  0  0  0  0  0  0
   -1.0130   20.6110  -28.0160 C   0  0  0  0  0  0  0  0  0  0  0  0
   -2.2980   20.7050  -27.4490 C   0  0  0  0  0  0  0  0  0  0  0  0
   -2.8766   21.6347  -27.5533 H   0  0  0  0  0  0  0  0  0  0  0  0
   -2.8410   19.6210  -26.7540 C   0  0  0  0  0  0  0  0  0  0  0  0
   -3.8414   19.7025  -26.3040 H   0  0  0  0  0  0  0  0  0  0  0  0
   -2.1150   18.4340  -26.6300 C   0  0  0  0  0  0  0  0  0  0  0  0
   -2.5412   17.5851  -26.0753 H   0  0  0  0  0  0  0  0  0  0  0  0
   -0.8450   18.3230  -27.2110 C   0  0  0  0  0  0  0  0  0  0  0  0
   -0.1130   17.1440  -27.0980 O   0  0  0  0  0  0  0  0  0  0  0  0
   -0.4270   16.3800  -26.5110 H   0  0  0  0  0  0  0  0  0  0  0  0
   -0.3030   19.4080  -27.9100 C   0  0  0  0  0  0  0  0  0  0  0  0
    0.6875   19.3153  -28.3794 H   0  0  0  0  0  0  0  0  0  0  0  0
   -0.4460   23.9930  -28.0520 C   0  0  0  0  0  0  0  0  0  0  0  0
    0.3928   23.7882  -27.3705 H   0  0  0  0  0  0  0  0  0  0  0  0
   -0.9730   25.2820  -28.1460 C   0  0  0  0  0  0  0  0  0  0  0  0
   -0.2800   26.6170  -27.1700 S   0  0  0  0  0  0  0  0  0  0  0  0
   -0.9400   26.0210  -25.5680 C   0  0  0  0  0  0  0  0  0  0  0  0
   -0.3752   25.1335  -25.2465 H   0  0  0  0  0  0  0  0  0  0  0  0
   -2.4120   25.6500  -25.7420 C   0  0  0  0  0  0  0  0  0  0  0  0
   -2.8797   25.5321  -24.7534 H   0  0  0  0  0  0  0  0  0  0  0  0
   -2.9275   26.4463  -26.2989 H   0  0  0  0  0  0  0  0  0  0  0  0
   -2.4885   24.7045  -26.2989 H   0  0  0  0  0  0  0  0  0  0  0  0
   -0.7820   27.0970  -24.4910 C   0  0  0  0  0  0  0  0  0  0  0  0
   -0.8502   26.6328  -23.4961 H   0  0  0  0  0  0  0  0  0  0  0  0
    0.1975   27.5853  -24.6014 H   0  0  0  0  0  0  0  0  0  0  0  0
   -1.5798   27.8463  -24.6014 H   0  0  0  0  0  0  0  0  0  0  0  0
   -2.0280   25.5240  -28.9650 N   0  0  0  0  0  0  0  0  0  0  0  0
   -2.6000   24.5470  -29.7170 C   0  0  0  0  0  0  0  0  0  0  0  0
   -3.5780   24.8390  -30.4540 O   0  0  0  0  0  0  0  0  0  0  0  0
   -2.8410   20.0500  -32.6420 C   0  0  0  0  0  0  0  0  0  0  0  0
   -1.7698   20.0783  -32.3935 H   0  0  0  0  0  0  0  0  0  0  0  0
   -3.3700   18.9430  -33.3140 C   0  0  0  0  0  0  0  0  0  0  0  0
   -2.7123   18.1085  -33.5985 H   0  0  0  0  0  0  0  0  0  0  0  0
  1  2  1  0
  2  3  1  0
  3  4  2  0
  3  5  2  0
  3  6  1  0
  6  7  2  0
  7  8  1  0
  7  9  1  0
  9 10  1  0
  9 11  2  0
 11 12  1  0
 12 13  2  0
 13 14  1  0
 14 15  2  0
 15 16  1  0
 16 17  1  0
 17 18  2  0
 18 19  1  0
 18 20  1  0
 20 21  1  0
 20 22  2  0
 22 23  1  0
 22 24  1  0
 24 25  1  0
 25 26  1  0
 24 27  2  0
 27 28  1  0
 15 29  1  0
 29 30  1  0
 29 31  2  0
 31 32  1  0
 32 33  1  0
 33 34  1  0
 33 35  1  0
 35 36  1  0
 35 37  1  0
 35 38  1  0
 33 39  1  0
 39 40  1  0
 39 41  1  0
 39 42  1  0
 31 43  1  0
 43 44  1  0
 44 45  2  0
 11 46  1  0
 46 47  1  0
 46 48  2  0
 48 49  1  0
 48  6  1  0
 44 14  1  0
 27 17  1  0
M  CHG  2   2  -1  43  -1
M  END
>  <UniqueID>  (24) 
24

>  <SMILES>  (24) 
CC(C)Sc1cc(Oc2cccc(O)c2)c(/N=N/c2ccc(S([NH-])(=O)=O)cc2)c(=O)[n-]1

>  <Energy>  (24) 
51.404153555967206

>  <Genealogy>  (24) 
CC(C)Sc1cc(Oc2cccc(O)c2)c(N=Nc2ccc(S([NH-])(=O)=O)cc2)c(=O)[n-]1 (protonated)
CC(C)Sc1cc(Oc2cccc(O)c2)c(/N=N/c2ccc(S([NH-])(=O)=O)cc2)c(=O)[n-]1 (cis-trans isomerization)
CC(C)Sc1cc(Oc2cccc(O)c2)c(/N=N/c2ccc(S([NH-])(=O)=O)cc2)c(=O)[n-]1 (3D coordinates assigned)
CC(C)Sc1cc(Oc2cccc(O)c2)c(/N=N/c2ccc(S([NH-])(=O)=O)cc2)c(=O)[n-]1 (optimized conformer: 51.404153555967206 kcal/mol)

>  <smiles>  (24) 
CC(C)Sc1cc(Oc2cccc(O)c2)c(N=Nc2ccc(S(N)(=O)=O)cc2)c(=O)[nH]1

>  <score_type>  (24) 
oracle

>  <origin>  (24) 
adgpu

>  <m_score__min__energy>  (24) 
-10.42

>  <m_primary>  (24) 
energy

$$$$
24:0
     RDKit          3D

 38 40  0  0  0  0  0  0  0  0999 V2000
   -6.6400   15.8370  -34.2030 C   0  0  0  0  0  0  0  0  0  0  0  0
   -6.6080   17.1480  -33.4670 C   0  0  0  0  0  0  0  0  0  0  0  0
   -7.6060   17.4480  -32.5270 C   0  0  0  0  0  0  0  0  0  0  0  0
   -7.6020   18.6700  -31.8510 C   0  0  0  0  0  0  0  0  0  0  0  0
   -6.5810   19.6110  -32.0840 C   0  0  0  0  0  0  0  0  0  0  0  0
   -6.5750   20.9070  -31.4550 N   0  0  0  0  0  0  0  0  0  0  0  0
   -7.7390   21.6140  -30.9960 C   0  0  0  0  0  0  0  0  0  0  0  0
   -8.7560   20.9870  -30.5930 O   0  0  0  0  0  0  0  0  0  0  0  0
   -7.7450   23.1140  -30.9840 C   0  0  0  0  0  0  0  0  0  0  0  0
   -6.8870   23.7960  -32.4490 S   0  0  0  0  0  0  0  0  0  0  0  0
   -5.3620   24.1620  -31.5820 C   0  0  0  0  0  0  0  0  0  0  0  0
   -5.0000   25.3990  -31.1990 N   0  0  0  0  0  0  0  0  0  0  0  0
   -3.8860   25.2600  -30.5000 N   0  0  0  0  0  0  0  0  0  0  0  0
   -3.6000   23.9440  -30.4820 C   0  0  0  0  0  0  0  0  0  0  0  0
   -2.4720   23.3530  -29.7330 C   0  0  0  0  0  0  0  0  0  0  0  0
   -2.2220   21.9700  -29.7910 C   0  0  0  0  0  0  0  0  0  0  0  0
   -1.1240   21.4220  -29.1200 C   0  0  0  0  0  0  0  0  0  0  0  0
   -0.2710   22.2460  -28.3830 C   0  0  0  0  0  0  0  0  0  0  0  0
   -0.5160   23.6190  -28.3110 C   0  0  0  0  0  0  0  0  0  0  0  0
   -1.6090   24.1720  -28.9830 C   0  0  0  0  0  0  0  0  0  0  0  0
   -4.5090   23.2130  -31.1590 N   0  0  0  0  0  0  0  0  0  0  0  0
   -5.5920   19.3130  -33.0330 C   0  0  0  0  0  0  0  0  0  0  0  0
   -5.6000   18.0970  -33.7240 C   0  0  0  0  0  0  0  0  0  0  0  0
   -4.3440   17.8000  -34.9220 Cl  0  0  0  0  0  0  0  0  0  0  0  0
   -6.6602   15.0099  -33.4781 H   0  0  0  0  0  0  0  0  0  0  0  0
   -7.5395   15.7930  -34.8347 H   0  0  0  0  0  0  0  0  0  0  0  0
   -5.7437   15.7491  -34.8347 H   0  0  0  0  0  0  0  0  0  0  0  0
   -8.3987   16.7138  -32.3208 H   0  0  0  0  0  0  0  0  0  0  0  0
   -8.4020   18.8989  -31.1316 H   0  0  0  0  0  0  0  0  0  0  0  0
   -5.6600   21.4100  -31.3930 H   0  0  0  0  0  0  0  0  0  0  0  0
   -8.7865   23.4678  -30.9822 H   0  0  0  0  0  0  0  0  0  0  0  0
   -7.2155   23.4554  -30.0823 H   0  0  0  0  0  0  0  0  0  0  0  0
   -2.8934   21.3162  -30.3670 H   0  0  0  0  0  0  0  0  0  0  0  0
   -0.9321   20.3402  -29.1729 H   0  0  0  0  0  0  0  0  0  0  0  0
    0.5941   21.8136  -27.8590 H   0  0  0  0  0  0  0  0  0  0  0  0
    0.1526   24.2661  -27.7243 H   0  0  0  0  0  0  0  0  0  0  0  0
   -1.7957   25.2545  -28.9251 H   0  0  0  0  0  0  0  0  0  0  0  0
   -4.7982   20.0467  -33.2368 H   0  0  0  0  0  0  0  0  0  0  0  0
  1  2  1  0
  2  3  2  0
  3  4  1  0
  4  5  2  0
  5  6  1  0
  6  7  1  0
  7  8  2  0
  7  9  1  0
  9 10  1  0
 10 11  1  0
 11 12  2  0
 12 13  1  0
 13 14  1  0
 14 15  1  0
 15 16  2  0
 16 17  1  0
 17 18  2  0
 18 19  1  0
 19 20  2  0
 14 21  2  0
  5 22  1  0
 22 23  2  0
 23 24  1  0
 23  2  1  0
 21 11  1  0
 20 15  1  0
  1 25  1  0
  1 26  1  0
  1 27  1  0
  3 28  1  0
  4 29  1  0
  6 30  1  0
  9 31  1  0
  9 32  1  0
 16 33  1  0
 17 34  1  0
 18 35  1  0
 19 36  1  0
 20 37  1  0
 22 38  1  0
M  CHG  1  13  -1
M  END
>  <UniqueID>  (25) 
25

>  <SMILES>  (25) 
Cc1ccc(NC(=O)CSc2n[n-]c(-c3ccccc3)n2)cc1Cl

>  <Energy>  (25) 
66.93791503947585

>  <Genealogy>  (25) 
Cc1ccc(NC(=O)CSc2n[n-]c(-c3ccccc3)n2)cc1Cl (protonated)
Cc1ccc(NC(=O)CSc2n[n-]c(-c3ccccc3)n2)cc1Cl (3D coordinates assigned)
Cc1ccc(NC(=O)CSc2n[n-]c(-c3ccccc3)n2)cc1Cl (optimized conformer: 66.93791503947585 kcal/mol)

>  <smiles>  (25) 
Cc1ccc(NC(=O)CSc2n[nH]c(-c3ccccc3)n2)cc1Cl

>  <score_type>  (25) 
oracle

>  <origin>  (25) 
adgpu

>  <m_score__min__energy>  (25) 
-9.5999999999999996

>  <m_primary>  (25) 
energy

$$$$
25:0
     RDKit          3D

 36 38  0  0  0  0  0  0  0  0999 V2000
   -1.6979   20.6191  -27.6216 H   0  0  0  0  0  0  0  0  0  0  0  0
   -2.2570   21.3670  -28.2030 C   0  0  0  0  0  0  0  0  0  0  0  0
   -3.5210   21.7820  -27.7760 C   0  0  0  0  0  0  0  0  0  0  0  0
   -3.9560   21.3602  -26.8579 H   0  0  0  0  0  0  0  0  0  0  0  0
   -4.2340   22.7320  -28.5130 C   0  0  0  0  0  0  0  0  0  0  0  0
   -5.2287   23.0544  -28.1715 H   0  0  0  0  0  0  0  0  0  0  0  0
   -3.6870   23.2790  -29.6900 C   0  0  0  0  0  0  0  0  0  0  0  0
   -4.4360   24.2900  -30.4710 C   0  0  0  0  0  0  0  0  0  0  0  0
   -3.8640   25.3530  -30.8420 O   0  0  0  0  0  0  0  0  0  0  0  0
   -5.7820   24.0230  -30.8930 N   0  0  0  0  0  0  0  0  0  0  0  0
   -6.2860   22.9790  -31.5030 C   0  0  0  0  0  0  0  0  0  0  0  0
   -5.5140   21.9860  -32.1740 C   0  0  0  0  0  0  0  0  0  0  0  0
   -4.1940   22.2180  -32.6290 C   0  0  0  0  0  0  0  0  0  0  0  0
   -3.7362   23.2070  -32.4797 H   0  0  0  0  0  0  0  0  0  0  0  0
   -3.4650   21.2140  -33.2630 C   0  0  0  0  0  0  0  0  0  0  0  0
   -2.4241   21.4001  -33.5663 H   0  0  0  0  0  0  0  0  0  0  0  0
   -4.0490   19.9790  -33.5130 C   0  0  0  0  0  0  0  0  0  0  0  0
   -3.4588   19.1767  -33.9799 H   0  0  0  0  0  0  0  0  0  0  0  0
   -5.3820   19.7550  -33.1730 C   0  0  0  0  0  0  0  0  0  0  0  0
   -5.8483   18.7876  -33.4110 H   0  0  0  0  0  0  0  0  0  0  0  0
   -6.1420   20.7560  -32.5260 C   0  0  0  0  0  0  0  0  0  0  0  0
   -7.5290   20.5860  -32.2910 C   0  0  0  0  0  0  0  0  0  0  0  0
   -8.1810   19.3290  -32.5520 N   0  0  0  0  0  0  0  0  0  0  0  0
   -8.3310   18.6230  -31.8000 H   0  0  0  0  0  0  0  0  0  0  0  0
   -8.6460   19.1300  -33.4640 H   0  0  0  0  0  0  0  0  0  0  0  0
   -8.2740   21.6810  -31.8110 C   0  0  0  0  0  0  0  0  0  0  0  0
   -9.7660   21.5820  -31.6230 C   0  0  0  0  0  0  0  0  0  0  0  0
   -9.9999   21.5665  -30.5483 H   0  0  0  0  0  0  0  0  0  0  0  0
  -10.2530   22.4498  -32.0918 H   0  0  0  0  0  0  0  0  0  0  0  0
  -10.1341   20.6575  -32.0918 H   0  0  0  0  0  0  0  0  0  0  0  0
   -7.6390   22.8310  -31.4510 N   0  0  0  0  0  0  0  0  0  0  0  0
   -8.2020   23.6060  -31.0320 H   0  0  0  0  0  0  0  0  0  0  0  0
   -2.4120   22.8530  -30.1090 C   0  0  0  0  0  0  0  0  0  0  0  0
   -1.9701   23.2712  -31.0254 H   0  0  0  0  0  0  0  0  0  0  0  0
   -1.7040   21.9020  -29.3680 C   0  0  0  0  0  0  0  0  0  0  0  0
   -0.7090   21.5745  -29.7037 H   0  0  0  0  0  0  0  0  0  0  0  0
  1  2  1  0
  2  3  2  0
  3  4  1  0
  3  5  1  0
  5  6  1  0
  5  7  2  0
  7  8  1  0
  8  9  2  0
  8 10  1  0
 10 11  2  0
 11 12  1  0
 12 13  2  0
 13 14  1  0
 13 15  1  0
 15 16  1  0
 15 17  2  0
 17 18  1  0
 17 19  1  0
 19 20  1  0
 19 21  2  0
 21 22  1  0
 22 23  1  0
 23 24  1  0
 23 25  1  0
 22 26  2  0
 26 27  1  0
 27 28  1  0
 27 29  1  0
 27 30  1  0
 26 31  1  0
 31 32  1  0
  7 33  1  0
 33 34  1  0
 33 35  2  0
 35 36  1  0
 35  2  1  0
 31 11  1  0
 21 12  1  0
M  END
>  <UniqueID>  (26) 
26

>  <SMILES>  (26) 
Cc1[nH]/c(=N/C(=O)c2ccccc2)c2ccccc2c1N

>  <Energy>  (26) 
68.07493576584405

>  <Genealogy>  (26) 
Cc1[nH]/c(=N/C(=O)c2ccccc2)c2ccccc2c1N (cis-trans isomerization)
Cc1[nH]/c(=N/C(=O)c2ccccc2)c2ccccc2c1N (3D coordinates assigned)
Cc1[nH]/c(=N/C(=O)c2ccccc2)c2ccccc2c1N (optimized conformer: 68.07493576584405 kcal/mol)

>  <smiles>  (26) 
Cc1[nH]c(=NC(=O)c2ccccc2)c2ccccc2c1N

>  <score_type>  (26) 
oracle

>  <origin>  (26) 
adgpu

>  <m_score__min__energy>  (26) 
-8.0600000000000005

>  <m_primary>  (26) 
energy

$$$$
26:0
     RDKit          3D

 43 45  0  0  0  0  0  0  0  0999 V2000
   -0.2540   24.5520  -28.9740 O   0  0  0  0  0  0  0  0  0  0  0  0
   -1.2490   25.2030  -28.5530 C   0  0  0  0  0  0  0  0  0  0  0  0
   -2.4440   25.2810  -29.3420 N   0  0  0  0  0  0  0  0  0  0  0  0
   -3.0960   24.1950  -30.0180 C   0  0  0  0  0  0  0  0  0  0  0  0
   -2.3370   23.0750  -30.3760 C   0  0  0  0  0  0  0  0  0  0  0  0
   -2.9280   22.0030  -31.0500 C   0  0  0  0  0  0  0  0  0  0  0  0
   -4.2860   22.0480  -31.3920 C   0  0  0  0  0  0  0  0  0  0  0  0
   -5.0260   20.6800  -32.2200 S   0  0  0  0  0  0  0  0  0  0  0  0
   -5.1500   19.5460  -31.2400 O   0  0  0  0  0  0  0  0  0  0  0  0
   -4.1410   20.2300  -33.3490 O   0  0  0  0  0  0  0  0  0  0  0  0
   -6.6180   21.1040  -32.8190 N   0  0  0  0  0  0  0  0  0  0  0  0
   -7.5260   21.5110  -31.7080 C   0  0  0  0  0  0  0  0  0  0  0  0
   -8.7310   20.5740  -31.5030 C   0  0  0  0  0  0  0  0  0  0  0  0
   -8.3010   19.1110  -31.5860 C   0  0  0  0  0  0  0  0  0  0  0  0
   -7.6080   18.7900  -32.9220 C   0  0  0  0  0  0  0  0  0  0  0  0
   -7.1720   20.0480  -33.6960 C   0  0  0  0  0  0  0  0  0  0  0  0
   -5.0470   23.1750  -31.0540 C   0  0  0  0  0  0  0  0  0  0  0  0
   -4.4550   24.2470  -30.3780 C   0  0  0  0  0  0  0  0  0  0  0  0
   -1.1610   25.9340  -27.2680 C   0  0  0  0  0  0  0  0  0  0  0  0
   -1.7350   25.4060  -26.0980 C   0  0  0  0  0  0  0  0  0  0  0  0
   -1.6460   26.1060  -24.8940 C   0  0  0  0  0  0  0  0  0  0  0  0
   -0.9840   27.3330  -24.8630 C   0  0  0  0  0  0  0  0  0  0  0  0
   -0.4320   27.8360  -25.9980 N   0  0  0  0  0  0  0  0  0  0  0  0
   -0.5040   27.1750  -27.1840 C   0  0  0  0  0  0  0  0  0  0  0  0
   -1.2667   23.0383  -30.1248 H   0  0  0  0  0  0  0  0  0  0  0  0
   -2.3253   21.1212  -31.3128 H   0  0  0  0  0  0  0  0  0  0  0  0
   -6.4670   21.9450  -33.4260 H   0  0  0  0  0  0  0  0  0  0  0  0
   -6.9426   21.5320  -30.7757 H   0  0  0  0  0  0  0  0  0  0  0  0
   -7.9337   22.4965  -31.9775 H   0  0  0  0  0  0  0  0  0  0  0  0
   -9.1718   20.7647  -30.5134 H   0  0  0  0  0  0  0  0  0  0  0  0
   -9.4687   20.7700  -32.2951 H   0  0  0  0  0  0  0  0  0  0  0  0
   -7.6024   18.8987  -30.7633 H   0  0  0  0  0  0  0  0  0  0  0  0
   -9.2034   18.4864  -31.5120 H   0  0  0  0  0  0  0  0  0  0  0  0
   -6.7164   18.1797  -32.7157 H   0  0  0  0  0  0  0  0  0  0  0  0
   -8.3374   18.2564  -33.5491 H   0  0  0  0  0  0  0  0  0  0  0  0
   -6.4023   19.7603  -34.4273 H   0  0  0  0  0  0  0  0  0  0  0  0
   -8.0675   20.4613  -34.1831 H   0  0  0  0  0  0  0  0  0  0  0  0
   -6.1133   23.2168  -31.3211 H   0  0  0  0  0  0  0  0  0  0  0  0
   -5.0546   25.1344  -30.1268 H   0  0  0  0  0  0  0  0  0  0  0  0
   -2.2560   24.4378  -26.1319 H   0  0  0  0  0  0  0  0  0  0  0  0
   -2.0939   25.6937  -23.9778 H   0  0  0  0  0  0  0  0  0  0  0  0
   -0.9087   27.8936  -23.9196 H   0  0  0  0  0  0  0  0  0  0  0  0
   -0.0459   27.6132  -28.0830 H   0  0  0  0  0  0  0  0  0  0  0  0
  1  2  2  0
  2  3  1  0
  3  4  1  0
  4  5  2  0
  5  6  1  0
  6  7  2  0
  7  8  1  0
  8  9  2  0
  8 10  2  0
  8 11  1  0
 11 12  1  0
 12 13  1  0
 13 14  1  0
 14 15  1  0
 15 16  1  0
  7 17  1  0
 17 18  2  0
  2 19  1  0
 19 20  2  0
 20 21  1  0
 21 22  2  0
 22 23  1  0
 23 24  2  0
 18  4  1  0
 24 19  1  0
 16 11  1  0
  5 25  1  0
  6 26  1  0
 11 27  1  0
 12 28  1  0
 12 29  1  0
 13 30  1  0
 13 31  1  0
 14 32  1  0
 14 33  1  0
 15 34  1  0
 15 35  1  0
 16 36  1  0
 16 37  1  0
 17 38  1  0
 18 39  1  0
 20 40  1  0
 21 41  1  0
 22 42  1  0
 24 43  1  0
M  CHG  2   3  -1  11   1
M  END
>  <UniqueID>  (27) 
27

>  <SMILES>  (27) 
O=C([N-]c1ccc(S(=O)(=O)[NH+]2CCCCC2)cc1)c1cccnc1

>  <Energy>  (27) 
56.39042774346871

>  <Genealogy>  (27) 
O=C([N-]c1ccc(S(=O)(=O)[NH+]2CCCCC2)cc1)c1cccnc1 (protonated)
O=C([N-]c1ccc(S(=O)(=O)[NH+]2CCCCC2)cc1)c1cccnc1 (3D coordinates assigned)
O=C([N-]c1ccc(S(=O)(=O)[NH+]2CCCCC2)cc1)c1cccnc1 (nonaromatic ring conformer: 56.39042774346871 kcal/mol)

>  <smiles>  (27) 
O=C(Nc1ccc(S(=O)(=O)N2CCCCC2)cc1)c1cccnc1

>  <score_type>  (27) 
oracle

>  <origin>  (27) 
adgpu

>  <m_score__min__energy>  (27) 
-9.8200000000000003

>  <m_primary>  (27) 
energy

$$$$
27:0
     RDKit          3D

 30 31  0  0  0  0  0  0  0  0999 V2000
   -7.3930   20.4010  -33.4420 N   0  0  0  0  0  0  0  0  0  0  0  0
   -8.0920   21.0320  -31.9930 S   0  0  0  0  0  0  0  0  0  0  0  0
   -8.5370   19.8940  -31.1170 O   0  0  0  0  0  0  0  0  0  0  0  0
   -9.2900   21.8730  -32.3360 O   0  0  0  0  0  0  0  0  0  0  0  0
   -6.9010   22.0100  -31.1420 C   0  0  0  0  0  0  0  0  0  0  0  0
   -5.5350   21.7380  -31.2790 C   0  0  0  0  0  0  0  0  0  0  0  0
   -4.5880   22.5230  -30.6140 C   0  0  0  0  0  0  0  0  0  0  0  0
   -5.0000   23.5880  -29.7930 C   0  0  0  0  0  0  0  0  0  0  0  0
   -4.0500   24.4290  -29.1190 N   0  0  0  0  0  0  0  0  0  0  0  0
   -3.5500   24.1790  -27.7930 C   0  0  0  0  0  0  0  0  0  0  0  0
   -3.9580   23.1830  -27.1360 O   0  0  0  0  0  0  0  0  0  0  0  0
   -2.5480   25.0770  -27.1790 C   0  0  0  0  0  0  0  0  0  0  0  0
   -2.5630   25.2700  -25.7860 C   0  0  0  0  0  0  0  0  0  0  0  0
   -1.6240   26.1060  -25.1780 C   0  0  0  0  0  0  0  0  0  0  0  0
   -0.6670   26.7660  -25.9510 C   0  0  0  0  0  0  0  0  0  0  0  0
   -0.6560   26.6010  -27.3380 C   0  0  0  0  0  0  0  0  0  0  0  0
   -1.5970   25.7700  -27.9580 C   0  0  0  0  0  0  0  0  0  0  0  0
   -1.5940   25.6660  -29.3440 O   0  0  0  0  0  0  0  0  0  0  0  0
   -6.3690   23.8780  -29.6880 C   0  0  0  0  0  0  0  0  0  0  0  0
   -7.3140   23.0910  -30.3520 C   0  0  0  0  0  0  0  0  0  0  0  0
   -8.1100   19.7790  -33.8790 H   0  0  0  0  0  0  0  0  0  0  0  0
   -5.2046   20.9022  -31.9132 H   0  0  0  0  0  0  0  0  0  0  0  0
   -3.5161   22.3066  -30.7335 H   0  0  0  0  0  0  0  0  0  0  0  0
   -3.7470   25.2990  -29.6120 H   0  0  0  0  0  0  0  0  0  0  0  0
   -3.3191   24.7593  -25.1715 H   0  0  0  0  0  0  0  0  0  0  0  0
   -1.6385   26.2449  -24.0869 H   0  0  0  0  0  0  0  0  0  0  0  0
    0.0779   27.4156  -25.4681 H   0  0  0  0  0  0  0  0  0  0  0  0
    0.0953   27.1263  -27.9459 H   0  0  0  0  0  0  0  0  0  0  0  0
   -6.7009   24.7313  -29.0784 H   0  0  0  0  0  0  0  0  0  0  0  0
   -8.3852   23.3209  -30.2541 H   0  0  0  0  0  0  0  0  0  0  0  0
  1  2  1  0
  2  3  2  0
  2  4  2  0
  2  5  1  0
  5  6  2  0
  6  7  1  0
  7  8  2  0
  8  9  1  0
  9 10  1  0
 10 11  2  0
 10 12  1  0
 12 13  2  0
 13 14  1  0
 14 15  2  0
 15 16  1  0
 16 17  2  0
 17 18  1  0
  8 19  1  0
 19 20  2  0
 20  5  1  0
 17 12  1  0
  1 21  1  0
  6 22  1  0
  7 23  1  0
  9 24  1  0
 13 25  1  0
 14 26  1  0
 15 27  1  0
 16 28  1  0
 19 29  1  0
 20 30  1  0
M  CHG  2   1  -1  18  -1
M  END
>  <UniqueID>  (28) 
28

>  <SMILES>  (28) 
[NH-]S(=O)(=O)c1ccc(NC(=O)c2ccccc2[O-])cc1

>  <Energy>  (28) 
39.537829553072555

>  <Genealogy>  (28) 
[NH-]S(=O)(=O)c1ccc(NC(=O)c2ccccc2[O-])cc1 (protonated)
[NH-]S(=O)(=O)c1ccc(NC(=O)c2ccccc2[O-])cc1 (3D coordinates assigned)
[NH-]S(=O)(=O)c1ccc(NC(=O)c2ccccc2[O-])cc1 (optimized conformer: 39.537829553072555 kcal/mol)

>  <smiles>  (28) 
NS(=O)(=O)c1ccc(NC(=O)c2ccccc2O)cc1

>  <score_type>  (28) 
oracle

>  <origin>  (28) 
adgpu

>  <m_score__min__energy>  (28) 
-9.5800000000000001

>  <m_primary>  (28) 
energy

$$$$
28:0
     RDKit          3D

 45 46  0  0  0  0  0  0  0  0999 V2000
   -4.3730   14.9770  -32.3150 C   0  0  0  0  0  0  0  0  0  0  0  0
   -5.0790   15.7130  -33.3080 O   0  0  0  0  0  0  0  0  0  0  0  0
   -5.7790   16.9050  -33.0660 C   0  0  0  0  0  0  0  0  0  0  0  0
   -6.4880   17.1260  -31.8710 C   0  0  0  0  0  0  0  0  0  0  0  0
   -7.1740   18.3240  -31.6660 C   0  0  0  0  0  0  0  0  0  0  0  0
   -7.1760   19.3230  -32.6530 C   0  0  0  0  0  0  0  0  0  0  0  0
   -7.9010   20.6000  -32.4410 C   0  0  0  0  0  0  0  0  0  0  0  0
   -9.1330   20.6640  -32.7030 O   0  0  0  0  0  0  0  0  0  0  0  0
   -7.2220   21.8120  -31.9380 C   0  0  0  0  0  0  0  0  0  0  0  0
   -7.7980   23.0550  -31.7360 C   0  0  0  0  0  0  0  0  0  0  0  0
   -9.1530   23.4070  -32.0260 N   0  0  0  0  0  0  0  0  0  0  0  0
   -6.8930   23.9340  -31.2730 N   0  0  0  0  0  0  0  0  0  0  0  0
   -5.7240   23.2700  -31.1620 C   0  0  0  0  0  0  0  0  0  0  0  0
   -4.4760   23.9090  -30.7040 C   0  0  0  0  0  0  0  0  0  0  0  0
   -4.2420   25.1090  -31.0150 O   0  0  0  0  0  0  0  0  0  0  0  0
   -3.5540   23.1860  -29.9420 O   0  0  0  0  0  0  0  0  0  0  0  0
   -3.4560   23.3080  -28.5270 C   0  0  0  0  0  0  0  0  0  0  0  0
   -2.7340   24.6010  -28.1740 C   0  0  0  0  0  0  0  0  0  0  0  0
   -2.2140   25.1860  -29.3340 O   0  0  0  0  0  0  0  0  0  0  0  0
   -5.8920   21.9410  -31.5510 C   0  0  0  0  0  0  0  0  0  0  0  0
   -4.8530   20.8570  -31.5140 C   0  0  0  0  0  0  0  0  0  0  0  0
   -6.4570   19.1080  -33.8410 C   0  0  0  0  0  0  0  0  0  0  0  0
   -5.7620   17.9010  -34.0540 C   0  0  0  0  0  0  0  0  0  0  0  0
   -5.0430   17.6540  -35.2350 O   0  0  0  0  0  0  0  0  0  0  0  0
   -3.6990   17.1860  -35.2810 C   0  0  0  0  0  0  0  0  0  0  0  0
   -4.6920   15.3095  -31.3162 H   0  0  0  0  0  0  0  0  0  0  0  0
   -4.5889   13.9046  -32.4307 H   0  0  0  0  0  0  0  0  0  0  0  0
   -3.2926   15.1481  -32.4307 H   0  0  0  0  0  0  0  0  0  0  0  0
   -6.5017   16.3489  -31.0926 H   0  0  0  0  0  0  0  0  0  0  0  0
   -7.7175   18.4870  -30.7237 H   0  0  0  0  0  0  0  0  0  0  0  0
   -9.4840   24.3930  -31.9460 H   0  0  0  0  0  0  0  0  0  0  0  0
   -9.8370   22.6680  -32.2990 H   0  0  0  0  0  0  0  0  0  0  0  0
   -7.0640   24.9420  -31.0590 H   0  0  0  0  0  0  0  0  0  0  0  0
   -4.4654   23.3215  -28.0901 H   0  0  0  0  0  0  0  0  0  0  0  0
   -2.8918   22.4535  -28.1252 H   0  0  0  0  0  0  0  0  0  0  0  0
   -3.4420   25.2968  -27.7000 H   0  0  0  0  0  0  0  0  0  0  0  0
   -1.9107   24.3790  -27.4791 H   0  0  0  0  0  0  0  0  0  0  0  0
   -2.3650   24.5320  -30.0640 H   0  0  0  0  0  0  0  0  0  0  0  0
   -4.6170   20.6108  -30.4682 H   0  0  0  0  0  0  0  0  0  0  0  0
   -5.2389   19.9617  -32.0234 H   0  0  0  0  0  0  0  0  0  0  0  0
   -3.9421   21.2046  -32.0234 H   0  0  0  0  0  0  0  0  0  0  0  0
   -6.4365   19.8909  -34.6135 H   0  0  0  0  0  0  0  0  0  0  0  0
   -3.3213   17.0545  -34.2563 H   0  0  0  0  0  0  0  0  0  0  0  0
   -3.6641   16.2228  -35.8111 H   0  0  0  0  0  0  0  0  0  0  0  0
   -3.0734   17.9192  -35.8111 H   0  0  0  0  0  0  0  0  0  0  0  0
  1  2  1  0
  2  3  1  0
  3  4  2  0
  4  5  1  0
  5  6  2  0
  6  7  1  0
  7  8  2  0
  7  9  1  0
  9 10  2  0
 10 11  1  0
 10 12  1  0
 12 13  1  0
 13 14  1  0
 14 15  2  0
 14 16  1  0
 16 17  1  0
 17 18  1  0
 18 19  1  0
 13 20  2  0
 20 21  1  0
  6 22  1  0
 22 23  2  0
 23 24  1  0
 24 25  1  0
 23  3  1  0
 20  9  1  0
  1 26  1  0
  1 27  1  0
  1 28  1  0
  4 29  1  0
  5 30  1  0
 11 31  1  0
 11 32  1  0
 12 33  1  0
 17 34  1  0
 17 35  1  0
 18 36  1  0
 18 37  1  0
 19 38  1  0
 21 39  1  0
 21 40  1  0
 21 41  1  0
 22 42  1  0
 25 43  1  0
 25 44  1  0
 25 45  1  0
M  END
>  <UniqueID>  (29) 
29

>  <SMILES>  (29) 
COc1ccc(C(=O)c2c(N)[nH]c(C(=O)OCCO)c2C)cc1OC

>  <Energy>  (29) 
69.86433150028013

>  <Genealogy>  (29) 
COc1ccc(C(=O)c2c(N)[nH]c(C(=O)OCCO)c2C)cc1OC (3D coordinates assigned)
COc1ccc(C(=O)c2c(N)[nH]c(C(=O)OCCO)c2C)cc1OC (optimized conformer: 69.86433150028013 kcal/mol)

>  <smiles>  (29) 
COc1ccc(C(=O)c2c(N)[nH]c(C(=O)OCCO)c2C)cc1OC

>  <score_type>  (29) 
oracle

>  <origin>  (29) 
adgpu

>  <m_score__min__energy>  (29) 
-6.9400000000000004

>  <m_primary>  (29) 
energy

$$$$
29:0
     RDKit          3D

 60 63  0  0  0  0  0  0  0  0999 V2000
   -0.4520   21.5930  -32.6100 O   0  0  0  0  0  0  0  0  0  0  0  0
   -1.0490   20.9540  -33.5190 C   0  0  0  0  0  0  0  0  0  0  0  0
   -0.3550   20.6330  -34.7370 N   0  0  0  0  0  0  0  0  0  0  0  0
    0.7940   21.3560  -35.2120 C   0  0  0  0  0  0  0  0  0  0  0  0
    2.0260   20.6920  -35.3290 C   0  0  0  0  0  0  0  0  0  0  0  0
    3.1520   21.3710  -35.8000 C   0  0  0  0  0  0  0  0  0  0  0  0
    3.0570   22.7140  -36.1740 C   0  0  0  0  0  0  0  0  0  0  0  0
    1.8280   23.3810  -36.0900 C   0  0  0  0  0  0  0  0  0  0  0  0
    1.6900   25.0750  -36.5540 S   0  0  0  0  0  0  0  0  0  0  0  0
    2.8900   25.8430  -36.0680 O   0  0  0  0  0  0  0  0  0  0  0  0
    1.6400   25.1620  -38.0540 O   0  0  0  0  0  0  0  0  0  0  0  0
    0.2320   25.7580  -35.8770 N   0  0  0  0  0  0  0  0  0  0  0  0
    0.5040   27.1150  -35.3630 C   0  0  0  0  0  0  0  0  0  0  0  0
   -0.7980   27.9250  -35.2550 C   0  0  0  0  0  0  0  0  0  0  0  0
   -1.4830   28.0930  -36.4910 O   0  0  0  0  0  0  0  0  0  0  0  0
   -1.1590   27.1090  -37.4630 C   0  0  0  0  0  0  0  0  0  0  0  0
   -0.8770   25.7230  -36.8560 C   0  0  0  0  0  0  0  0  0  0  0  0
    0.7000   22.7010  -35.6120 C   0  0  0  0  0  0  0  0  0  0  0  0
   -2.4430   20.5000  -33.2980 C   0  0  0  0  0  0  0  0  0  0  0  0
   -3.2390   21.1120  -32.3130 C   0  0  0  0  0  0  0  0  0  0  0  0
   -4.5570   20.6950  -32.1040 C   0  0  0  0  0  0  0  0  0  0  0  0
   -5.1010   19.6630  -32.8790 C   0  0  0  0  0  0  0  0  0  0  0  0
   -6.7710   19.1500  -32.6470 S   0  0  0  0  0  0  0  0  0  0  0  0
   -6.9890   18.7560  -31.2110 O   0  0  0  0  0  0  0  0  0  0  0  0
   -7.0200   17.9440  -33.5090 O   0  0  0  0  0  0  0  0  0  0  0  0
   -7.8800   20.4250  -33.1050 N   0  0  0  0  0  0  0  0  0  0  0  0
   -7.3880   21.7610  -32.7120 C   0  0  0  0  0  0  0  0  0  0  0  0
   -7.4980   22.0180  -31.1980 C   0  0  0  0  0  0  0  0  0  0  0  0
   -8.7930   21.4590  -30.5820 C   0  0  0  0  0  0  0  0  0  0  0  0
   -9.8360   21.1320  -31.6480 C   0  0  0  0  0  0  0  0  0  0  0  0
   -9.2710   20.1330  -32.6740 C   0  0  0  0  0  0  0  0  0  0  0  0
   -4.3220   19.0610  -33.8730 C   0  0  0  0  0  0  0  0  0  0  0  0
   -3.0030   19.4740  -34.0820 C   0  0  0  0  0  0  0  0  0  0  0  0
   -0.6280   19.7610  -35.2430 H   0  0  0  0  0  0  0  0  0  0  0  0
    2.1046   19.6314  -35.0482 H   0  0  0  0  0  0  0  0  0  0  0  0
    4.1162   20.8471  -35.8767 H   0  0  0  0  0  0  0  0  0  0  0  0
    3.9484   23.2481  -36.5348 H   0  0  0  0  0  0  0  0  0  0  0  0
    0.9655   27.0385  -34.3674 H   0  0  0  0  0  0  0  0  0  0  0  0
    1.1834   27.6279  -36.0596 H   0  0  0  0  0  0  0  0  0  0  0  0
   -1.4702   27.4065  -34.5554 H   0  0  0  0  0  0  0  0  0  0  0  0
   -0.5176   28.9308  -34.9090 H   0  0  0  0  0  0  0  0  0  0  0  0
   -2.0028   27.0185  -38.1628 H   0  0  0  0  0  0  0  0  0  0  0  0
   -0.2374   27.4383  -37.9651 H   0  0  0  0  0  0  0  0  0  0  0  0
   -1.7859   25.3663  -36.3494 H   0  0  0  0  0  0  0  0  0  0  0  0
   -0.5846   25.0485  -37.6743 H   0  0  0  0  0  0  0  0  0  0  0  0
   -0.2662   23.2230  -35.5491 H   0  0  0  0  0  0  0  0  0  0  0  0
   -2.8210   21.9256  -31.7020 H   0  0  0  0  0  0  0  0  0  0  0  0
   -5.1687   21.1790  -31.3284 H   0  0  0  0  0  0  0  0  0  0  0  0
   -6.3317   21.8468  -33.0068 H   0  0  0  0  0  0  0  0  0  0  0  0
   -8.0166   22.5071  -33.2202 H   0  0  0  0  0  0  0  0  0  0  0  0
   -6.6401   21.5433  -30.6993 H   0  0  0  0  0  0  0  0  0  0  0  0
   -7.5093   23.1081  -31.0509 H   0  0  0  0  0  0  0  0  0  0  0  0
   -8.5543   20.5411  -30.0247 H   0  0  0  0  0  0  0  0  0  0  0  0
   -9.2141   22.2282  -29.9179 H   0  0  0  0  0  0  0  0  0  0  0  0
  -10.7205   20.6916  -31.1646 H   0  0  0  0  0  0  0  0  0  0  0  0
  -10.1094   22.0600  -32.1716 H   0  0  0  0  0  0  0  0  0  0  0  0
   -9.2895   19.1292  -32.2245 H   0  0  0  0  0  0  0  0  0  0  0  0
   -9.9028   20.2096  -33.5712 H   0  0  0  0  0  0  0  0  0  0  0  0
   -4.7494   18.2591  -34.4929 H   0  0  0  0  0  0  0  0  0  0  0  0
   -2.3982   18.9935  -34.8651 H   0  0  0  0  0  0  0  0  0  0  0  0
  1  2  2  0
  2  3  1  0
  3  4  1  0
  4  5  2  0
  5  6  1  0
  6  7  2  0
  7  8  1  0
  8  9  1  0
  9 10  2  0
  9 11  2  0
  9 12  1  0
 12 13  1  0
 13 14  1  0
 14 15  1  0
 15 16  1  0
 16 17  1  0
  8 18  2  0
  2 19  1  0
 19 20  2  0
 20 21  1  0
 21 22  2  0
 22 23  1  0
 23 24  2  0
 23 25  2  0
 23 26  1  0
 26 27  1  0
 27 28  1  0
 28 29  1  0
 29 30  1  0
 30 31  1  0
 22 32  1  0
 32 33  2  0
 18  4  1  0
 33 19  1  0
 17 12  1  0
 31 26  1  0
  3 34  1  0
  5 35  1  0
  6 36  1  0
  7 37  1  0
 13 38  1  0
 13 39  1  0
 14 40  1  0
 14 41  1  0
 16 42  1  0
 16 43  1  0
 17 44  1  0
 17 45  1  0
 18 46  1  0
 20 47  1  0
 21 48  1  0
 27 49  1  0
 27 50  1  0
 28 51  1  0
 28 52  1  0
 29 53  1  0
 29 54  1  0
 30 55  1  0
 30 56  1  0
 31 57  1  0
 31 58  1  0
 32 59  1  0
 33 60  1  0
M  END
>  <UniqueID>  (30) 
30

>  <SMILES>  (30) 
O=C(Nc1cccc(S(=O)(=O)N2CCOCC2)c1)c1ccc(S(=O)(=O)N2CCCCC2)cc1

>  <Energy>  (30) 
86.55483331459668

>  <Genealogy>  (30) 
O=C(Nc1cccc(S(=O)(=O)N2CCOCC2)c1)c1ccc(S(=O)(=O)N2CCCCC2)cc1 (3D coordinates assigned)
O=C(Nc1cccc(S(=O)(=O)N2CCOCC2)c1)c1ccc(S(=O)(=O)N2CCCCC2)cc1 (nonaromatic ring conformer: 86.55483331459668 kcal/mol)

>  <smiles>  (30) 
O=C(Nc1cccc(S(=O)(=O)N2CCOCC2)c1)c1ccc(S(=O)(=O)N2CCCCC2)cc1

>  <score_type>  (30) 
oracle

>  <origin>  (30) 
adgpu

>  <m_score__min__energy>  (30) 
-10.56

>  <m_primary>  (30) 
energy

$$$$
30:0
     RDKit          3D

 52 54  0  0  0  0  0  0  0  0999 V2000
    0.0430   21.5970  -27.9550 C   0  0  0  0  0  0  0  0  0  0  0  0
   -1.0910   22.1240  -27.0690 C   0  0  2  0  0  0  0  0  0  0  0  0
   -1.5360   21.0590  -26.1450 N   0  0  0  0  0  0  0  0  0  0  0  0
   -1.9780   19.6060  -27.0000 S   0  0  0  0  0  0  0  0  0  0  0  0
   -3.4540   18.8770  -26.3230 C   0  0  0  0  0  0  0  0  0  0  0  0
   -0.8560   18.6140  -26.8810 O   0  0  0  0  0  0  0  0  0  0  0  0
   -2.2000   19.9190  -28.4540 O   0  0  0  0  0  0  0  0  0  0  0  0
   -2.2340   22.6070  -27.9470 C   0  0  0  0  0  0  0  0  0  0  0  0
   -1.9840   23.0380  -29.2610 C   0  0  0  0  0  0  0  0  0  0  0  0
   -3.0350   23.4560  -30.0820 C   0  0  0  0  0  0  0  0  0  0  0  0
   -4.3520   23.4410  -29.6040 C   0  0  0  0  0  0  0  0  0  0  0  0
   -5.6660   23.9470  -30.6600 S   0  0  0  0  0  0  0  0  0  0  0  0
   -6.5340   24.9760  -29.9920 O   0  0  0  0  0  0  0  0  0  0  0  0
   -5.0430   24.5810  -31.8730 O   0  0  0  0  0  0  0  0  0  0  0  0
   -6.6670   22.5600  -31.1390 C   0  0  0  0  0  0  0  0  0  0  0  0
   -8.0610   22.6870  -30.9990 C   0  0  0  0  0  0  0  0  0  0  0  0
   -8.9170   21.6570  -31.3850 C   0  0  0  0  0  0  0  0  0  0  0  0
   -8.3990   20.4830  -31.9230 C   0  0  0  0  0  0  0  0  0  0  0  0
   -9.4800   19.1950  -32.4230 Cl  0  0  0  0  0  0  0  0  0  0  0  0
   -7.0200   20.3330  -32.0660 C   0  0  0  0  0  0  0  0  0  0  0  0
   -6.1330   21.3490  -31.6650 C   0  0  0  0  0  0  0  0  0  0  0  0
   -4.3930   21.0540  -31.8830 S   0  0  0  0  0  0  0  0  0  0  0  0
   -3.7060   20.8290  -30.5670 O   0  0  0  0  0  0  0  0  0  0  0  0
   -3.7670   22.2370  -32.5680 O   0  0  0  0  0  0  0  0  0  0  0  0
   -4.1220   19.6090  -32.8560 C   0  0  0  0  0  0  0  0  0  0  0  0
   -3.1060   19.6010  -33.8230 C   0  0  0  0  0  0  0  0  0  0  0  0
   -2.8700   18.4530  -34.5850 C   0  0  0  0  0  0  0  0  0  0  0  0
   -3.6460   17.3080  -34.3850 C   0  0  0  0  0  0  0  0  0  0  0  0
   -4.6560   17.3080  -33.4190 C   0  0  0  0  0  0  0  0  0  0  0  0
   -4.8940   18.4540  -32.6530 C   0  0  0  0  0  0  0  0  0  0  0  0
   -4.6080   23.0230  -28.2920 C   0  0  0  0  0  0  0  0  0  0  0  0
   -3.5580   22.6030  -27.4710 C   0  0  0  0  0  0  0  0  0  0  0  0
    0.8580   21.2182  -27.3208 H   0  0  0  0  0  0  0  0  0  0  0  0
   -0.3361   20.7828  -28.5901 H   0  0  0  0  0  0  0  0  0  0  0  0
    0.4210   22.4117  -28.5901 H   0  0  0  0  0  0  0  0  0  0  0  0
   -0.7353   22.9723  -26.4658 H   0  0  0  0  0  0  0  0  0  0  0  0
   -0.7520   20.7740  -25.5120 H   0  0  0  0  0  0  0  0  0  0  0  0
   -3.4044   18.9015  -25.2244 H   0  0  0  0  0  0  0  0  0  0  0  0
   -4.3326   19.4448  -26.6631 H   0  0  0  0  0  0  0  0  0  0  0  0
   -3.5372   17.8342  -26.6631 H   0  0  0  0  0  0  0  0  0  0  0  0
   -0.9537   23.0464  -29.6462 H   0  0  0  0  0  0  0  0  0  0  0  0
   -2.8276   23.7979  -31.1067 H   0  0  0  0  0  0  0  0  0  0  0  0
   -8.4815   23.6125  -30.5788 H   0  0  0  0  0  0  0  0  0  0  0  0
  -10.0042   21.7724  -31.2641 H   0  0  0  0  0  0  0  0  0  0  0  0
   -6.6190   19.4050  -32.4995 H   0  0  0  0  0  0  0  0  0  0  0  0
   -2.4932   20.5005  -33.9822 H   0  0  0  0  0  0  0  0  0  0  0  0
   -2.0727   18.4509  -35.3428 H   0  0  0  0  0  0  0  0  0  0  0  0
   -3.4618   16.4066  -34.9880 H   0  0  0  0  0  0  0  0  0  0  0  0
   -5.2647   16.4055  -33.2608 H   0  0  0  0  0  0  0  0  0  0  0  0
   -5.6870   18.4503  -31.8907 H   0  0  0  0  0  0  0  0  0  0  0  0
   -5.6383   23.0253  -27.9068 H   0  0  0  0  0  0  0  0  0  0  0  0
   -3.7682   22.2668  -26.4450 H   0  0  0  0  0  0  0  0  0  0  0  0
  1  2  1  0
  2  3  1  0
  3  4  1  0
  4  5  1  0
  4  6  2  0
  4  7  2  0
  2  8  1  0
  8  9  2  0
  9 10  1  0
 10 11  2  0
 11 12  1  0
 12 13  2  0
 12 14  2  0
 12 15  1  0
 15 16  2  0
 16 17  1  0
 17 18  2  0
 18 19  1  0
 18 20  1  0
 20 21  2  0
 21 22  1  0
 22 23  2  0
 22 24  2  0
 22 25  1  0
 25 26  2  0
 26 27  1  0
 27 28  2  0
 28 29  1  0
 29 30  2  0
 11 31  1  0
 31 32  2  0
 32  8  1  0
 21 15  1  0
 30 25  1  0
  1 33  1  0
  1 34  1  0
  1 35  1  0
  2 36  1  1
  3 37  1  0
  5 38  1  0
  5 39  1  0
  5 40  1  0
  9 41  1  0
 10 42  1  0
 16 43  1  0
 17 44  1  0
 20 45  1  0
 26 46  1  0
 27 47  1  0
 28 48  1  0
 29 49  1  0
 30 50  1  0
 31 51  1  0
 32 52  1  0
M  END
>  <UniqueID>  (31) 
31

>  <SMILES>  (31) 
C[C@H](NS(C)(=O)=O)c1ccc(S(=O)(=O)c2ccc(Cl)cc2S(=O)(=O)c2ccccc2)cc1

>  <Energy>  (31) 
57.11617782775966

>  <Genealogy>  (31) 
C[C@H](NS(C)(=O)=O)c1ccc(S(=O)(=O)c2ccc(Cl)cc2S(=O)(=O)c2ccccc2)cc1 (chirality)
C[C@H](NS(C)(=O)=O)c1ccc(S(=O)(=O)c2ccc(Cl)cc2S(=O)(=O)c2ccccc2)cc1 (3D coordinates assigned)
C[C@H](NS(C)(=O)=O)c1ccc(S(=O)(=O)c2ccc(Cl)cc2S(=O)(=O)c2ccccc2)cc1 (optimized conformer: 57.11617782775966 kcal/mol)

>  <smiles>  (31) 
CC(NS(C)(=O)=O)c1ccc(S(=O)(=O)c2ccc(Cl)cc2S(=O)(=O)c2ccccc2)cc1

>  <score_type>  (31) 
oracle

>  <origin>  (31) 
adgpu

>  <m_score__min__energy>  (31) 
-11.44

>  <m_primary>  (31) 
energy

$$$$
31:0
     RDKit          3D

 57 60  0  0  0  0  0  0  0  0999 V2000
   -0.0180   26.6880  -26.6450 C   0  0  0  0  0  0  0  0  0  0  0  0
   -0.4690   25.9440  -27.8670 C   0  0  0  0  0  0  0  0  0  0  0  0
   -1.1510   26.5480  -28.7400 O   0  0  0  0  0  0  0  0  0  0  0  0
   -0.1150   24.5710  -28.0940 N   0  0  0  0  0  0  0  0  0  0  0  0
   -0.9830   23.5660  -28.6240 C   0  0  0  0  0  0  0  0  0  0  0  0
   -2.2960   23.8640  -29.0270 C   0  0  0  0  0  0  0  0  0  0  0  0
   -3.1000   22.8700  -29.5880 C   0  0  0  0  0  0  0  0  0  0  0  0
   -2.5970   21.5730  -29.7700 C   0  0  0  0  0  0  0  0  0  0  0  0
   -3.6200   20.3200  -30.5590 S   0  0  0  0  0  0  0  0  0  0  0  0
   -2.7150   20.3880  -32.1160 C   0  0  0  0  0  0  0  0  0  0  0  0
   -1.6390   21.2800  -32.2400 C   0  0  0  0  0  0  0  0  0  0  0  0
   -0.8850   21.3220  -33.4160 C   0  0  0  0  0  0  0  0  0  0  0  0
   -1.2060   20.4800  -34.4820 C   0  0  0  0  0  0  0  0  0  0  0  0
   -2.3000   19.6180  -34.3880 C   0  0  0  0  0  0  0  0  0  0  0  0
   -3.0730   19.5760  -33.2160 C   0  0  0  0  0  0  0  0  0  0  0  0
   -4.3320   18.8030  -33.2240 C   0  0  0  0  0  0  0  0  0  0  0  0
   -5.4490   19.2950  -32.5330 C   0  0  0  0  0  0  0  0  0  0  0  0
   -6.6610   18.5900  -32.5370 C   0  0  0  0  0  0  0  0  0  0  0  0
   -7.8750   19.1500  -31.9010 C   0  0  0  0  0  0  0  0  0  0  0  0
   -8.6150   18.4010  -31.2100 O   0  0  0  0  0  0  0  0  0  0  0  0
   -8.2140   20.5300  -32.1160 N   0  0  0  0  0  0  0  0  0  0  0  0
   -7.4690   21.7170  -31.7960 C   0  0  0  0  0  0  0  0  0  0  0  0
   -6.5200   22.2950  -32.6600 C   0  0  0  0  0  0  0  0  0  0  0  0
   -5.8200   23.4410  -32.2740 C   0  0  0  0  0  0  0  0  0  0  0  0
   -6.0400   24.0210  -31.0180 C   0  0  0  0  0  0  0  0  0  0  0  0
   -5.2930   25.2360  -30.6030 C   0  0  0  0  0  0  0  0  0  0  0  0
   -3.8840   25.3250  -30.8080 N   0  0  0  0  0  0  0  0  0  0  0  0
   -5.8980   26.2030  -30.0610 O   0  0  0  0  0  0  0  0  0  0  0  0
   -6.9790   23.4330  -30.1550 C   0  0  0  0  0  0  0  0  0  0  0  0
   -7.6860   22.2980  -30.5460 C   0  0  0  0  0  0  0  0  0  0  0  0
   -6.7290   17.3500  -33.1990 C   0  0  0  0  0  0  0  0  0  0  0  0
   -5.6160   16.8540  -33.8750 C   0  0  0  0  0  0  0  0  0  0  0  0
   -4.4140   17.5760  -33.9060 C   0  0  0  0  0  0  0  0  0  0  0  0
   -3.2990   17.0500  -34.6400 N   0  0  0  0  0  0  0  0  0  0  0  0
   -1.2980   21.2700  -29.3440 C   0  0  0  0  0  0  0  0  0  0  0  0
   -0.4900   22.2690  -28.7910 C   0  0  0  0  0  0  0  0  0  0  0  0
   -0.3457   26.1474  -25.7448 H   0  0  0  0  0  0  0  0  0  0  0  0
    1.0793   26.7655  -26.6471 H   0  0  0  0  0  0  0  0  0  0  0  0
   -0.4568   27.6967  -26.6471 H   0  0  0  0  0  0  0  0  0  0  0  0
   -2.6911   24.8827  -28.9001 H   0  0  0  0  0  0  0  0  0  0  0  0
   -4.1318   23.1046  -29.8885 H   0  0  0  0  0  0  0  0  0  0  0  0
   -1.3871   21.9511  -31.4056 H   0  0  0  0  0  0  0  0  0  0  0  0
   -0.0382   22.0189  -33.5016 H   0  0  0  0  0  0  0  0  0  0  0  0
   -0.5961   20.4957  -35.3973 H   0  0  0  0  0  0  0  0  0  0  0  0
   -2.5582   18.9678  -35.2368 H   0  0  0  0  0  0  0  0  0  0  0  0
   -5.3734   20.2441  -31.9821 H   0  0  0  0  0  0  0  0  0  0  0  0
   -6.3285   21.8422  -33.6440 H   0  0  0  0  0  0  0  0  0  0  0  0
   -5.0899   23.8917  -32.9623 H   0  0  0  0  0  0  0  0  0  0  0  0
   -3.4810   26.0480  -31.4470 H   0  0  0  0  0  0  0  0  0  0  0  0
   -7.1577   23.8721  -29.1624 H   0  0  0  0  0  0  0  0  0  0  0  0
   -8.4240   21.8546  -29.8613 H   0  0  0  0  0  0  0  0  0  0  0  0
   -7.6638   16.7704  -33.1828 H   0  0  0  0  0  0  0  0  0  0  0  0
   -5.6809   15.8845  -34.3906 H   0  0  0  0  0  0  0  0  0  0  0  0
   -2.4930   16.6180  -34.1410 H   0  0  0  0  0  0  0  0  0  0  0  0
   -3.2840   17.0210  -35.6840 H   0  0  0  0  0  0  0  0  0  0  0  0
   -0.9123   20.2447  -29.4444 H   0  0  0  0  0  0  0  0  0  0  0  0
    0.5399   22.0322  -28.4857 H   0  0  0  0  0  0  0  0  0  0  0  0
  1  2  1  0
  2  3  2  0
  2  4  1  0
  4  5  1  0
  5  6  2  0
  6  7  1  0
  7  8  2  0
  8  9  1  0
  9 10  1  0
 10 11  2  0
 11 12  1  0
 12 13  2  0
 13 14  1  0
 14 15  2  0
 15 16  1  0
 16 17  2  0
 17 18  1  0
 18 19  1  0
 19 20  2  0
 19 21  1  0
 21 22  1  0
 22 23  2  0
 23 24  1  0
 24 25  2  0
 25 26  1  0
 26 27  1  0
 26 28  2  0
 25 29  1  0
 29 30  2  0
 18 31  2  0
 31 32  1  0
 32 33  2  0
 33 34  1  0
  8 35  1  0
 35 36  2  0
 36  5  1  0
 15 10  1  0
 33 16  1  0
 30 22  1  0
  1 37  1  0
  1 38  1  0
  1 39  1  0
  6 40  1  0
  7 41  1  0
 11 42  1  0
 12 43  1  0
 13 44  1  0
 14 45  1  0
 17 46  1  0
 23 47  1  0
 24 48  1  0
 27 49  1  0
 29 50  1  0
 30 51  1  0
 31 52  1  0
 32 53  1  0
 34 54  1  0
 34 55  1  0
 35 56  1  0
 36 57  1  0
M  CHG  3   4  -1  21  -1  27  -1
M  END
>  <UniqueID>  (32) 
32

>  <SMILES>  (32) 
CC(=O)[N-]c1ccc(Sc2ccccc2-c2cc(C(=O)[N-]c3ccc(C([NH-])=O)cc3)ccc2N)cc1

>  <Energy>  (32) 
76.24973967277336

>  <Genealogy>  (32) 
CC(=O)[N-]c1ccc(Sc2ccccc2-c2cc(C(=O)[N-]c3ccc(C([NH-])=O)cc3)ccc2N)cc1 (protonated)
CC(=O)[N-]c1ccc(Sc2ccccc2-c2cc(C(=O)[N-]c3ccc(C([NH-])=O)cc3)ccc2N)cc1 (3D coordinates assigned)
CC(=O)[N-]c1ccc(Sc2ccccc2-c2cc(C(=O)[N-]c3ccc(C([NH-])=O)cc3)ccc2N)cc1 (optimized conformer: 76.24973967277336 kcal/mol)

>  <smiles>  (32) 
CC(=O)Nc1ccc(Sc2ccccc2-c2cc(C(=O)Nc3ccc(C(N)=O)cc3)ccc2N)cc1

>  <score_type>  (32) 
oracle

>  <origin>  (32) 
adgpu

>  <m_score__min__energy>  (32) 
-13.789999999999999

>  <m_primary>  (32) 
energy

$$$$
32:0
     RDKit          3D

 47 49  0  0  0  0  0  0  0  0999 V2000
   -6.0830   25.6640  -29.5590 C   0  0  0  0  0  0  0  0  0  0  0  0
   -5.4720   24.4750  -30.2520 C   0  0  0  0  0  0  0  0  0  0  0  0
   -6.3180   23.5530  -30.8920 C   0  0  0  0  0  0  0  0  0  0  0  0
   -5.7960   22.4060  -31.5000 C   0  0  0  0  0  0  0  0  0  0  0  0
   -6.8890   21.2570  -32.2660 S   0  0  0  0  0  0  0  0  0  0  0  0
   -8.2130   21.9340  -32.4880 O   0  0  0  0  0  0  0  0  0  0  0  0
   -6.3350   20.8260  -33.5960 O   0  0  0  0  0  0  0  0  0  0  0  0
   -7.0840   19.8720  -31.2130 N   0  0  0  0  0  0  0  0  0  0  0  0
   -6.0200   18.8580  -31.4240 C   0  0  0  0  0  0  0  0  0  0  0  0
   -6.5400   17.4960  -31.9170 C   0  0  0  0  0  0  0  0  0  0  0  0
   -7.5830   17.6860  -33.0160 C   0  0  0  0  0  0  0  0  0  0  0  0
   -8.7630   18.5550  -32.5440 C   0  0  0  0  0  0  0  0  0  0  0  0
   -8.4610   19.3400  -31.2540 C   0  0  0  0  0  0  0  0  0  0  0  0
   -4.4160   22.1720  -31.4690 C   0  0  0  0  0  0  0  0  0  0  0  0
   -3.5630   23.0900  -30.8540 C   0  0  0  0  0  0  0  0  0  0  0  0
   -4.0730   24.2570  -30.2740 C   0  0  0  0  0  0  0  0  0  0  0  0
   -3.1540   25.1750  -29.6700 N   0  0  0  0  0  0  0  0  0  0  0  0
   -2.1600   24.7970  -28.7110 C   0  0  0  0  0  0  0  0  0  0  0  0
   -1.5400   23.7060  -28.8320 O   0  0  0  0  0  0  0  0  0  0  0  0
   -1.8370   25.7120  -27.5750 C   0  0  0  0  0  0  0  0  0  0  0  0
   -0.8830   25.0650  -26.6680 N   0  0  0  0  0  0  0  0  0  0  0  0
   -1.1420   24.8880  -25.3400 C   0  0  0  0  0  0  0  0  0  0  0  0
   -0.1540   24.2080  -24.6350 C   0  0  0  0  0  0  0  0  0  0  0  0
    1.0760   23.8020  -25.7110 S   0  0  0  0  0  0  0  0  0  0  0  0
    0.3060   24.5070  -27.0230 C   0  0  0  0  0  0  0  0  0  0  0  0
    0.7940   24.4970  -28.2240 N   0  0  0  0  0  0  0  0  0  0  0  0
   -6.0136   25.5290  -28.4695 H   0  0  0  0  0  0  0  0  0  0  0  0
   -5.5420   26.5763  -29.8506 H   0  0  0  0  0  0  0  0  0  0  0  0
   -7.1397   25.7553  -29.8506 H   0  0  0  0  0  0  0  0  0  0  0  0
   -7.4026   23.7352  -30.9152 H   0  0  0  0  0  0  0  0  0  0  0  0
   -5.3132   19.2490  -32.1707 H   0  0  0  0  0  0  0  0  0  0  0  0
   -5.5496   18.6829  -30.4452 H   0  0  0  0  0  0  0  0  0  0  0  0
   -5.6983   16.9098  -32.3145 H   0  0  0  0  0  0  0  0  0  0  0  0
   -7.0061   16.9671  -31.0726 H   0  0  0  0  0  0  0  0  0  0  0  0
   -7.1055   18.1731  -33.8790 H   0  0  0  0  0  0  0  0  0  0  0  0
   -7.9765   16.6953  -33.2873 H   0  0  0  0  0  0  0  0  0  0  0  0
   -9.0090   19.2728  -33.3404 H   0  0  0  0  0  0  0  0  0  0  0  0
   -9.6011   17.8769  -32.3252 H   0  0  0  0  0  0  0  0  0  0  0  0
   -9.1648   20.1824  -31.1831 H   0  0  0  0  0  0  0  0  0  0  0  0
   -8.5702   18.6425  -30.4104 H   0  0  0  0  0  0  0  0  0  0  0  0
   -4.0030   21.2628  -31.9303 H   0  0  0  0  0  0  0  0  0  0  0  0
   -2.4809   22.8945  -30.8250 H   0  0  0  0  0  0  0  0  0  0  0  0
   -1.3949   26.6394  -27.9681 H   0  0  0  0  0  0  0  0  0  0  0  0
   -2.7601   25.9444  -27.0237 H   0  0  0  0  0  0  0  0  0  0  0  0
   -2.0626   25.2553  -24.8628 H   0  0  0  0  0  0  0  0  0  0  0  0
   -0.1730   23.9756  -23.5600 H   0  0  0  0  0  0  0  0  0  0  0  0
    0.3130   24.9260  -29.0430 H   0  0  0  0  0  0  0  0  0  0  0  0
  1  2  1  0
  2  3  2  0
  3  4  1  0
  4  5  1  0
  5  6  2  0
  5  7  2  0
  5  8  1  0
  8  9  1  0
  9 10  1  0
 10 11  1  0
 11 12  1  0
 12 13  1  0
  4 14  2  0
 14 15  1  0
 15 16  2  0
 16 17  1  0
 17 18  1  0
 18 19  2  0
 18 20  1  0
 20 21  1  0
 21 22  1  0
 22 23  2  0
 23 24  1  0
 24 25  1  0
 25 26  2  3
 16  2  1  0
 25 21  1  0
 13  8  1  0
  1 27  1  0
  1 28  1  0
  1 29  1  0
  3 30  1  0
  9 31  1  0
  9 32  1  0
 10 33  1  0
 10 34  1  0
 11 35  1  0
 11 36  1  0
 12 37  1  0
 12 38  1  0
 13 39  1  0
 13 40  1  0
 14 41  1  0
 15 42  1  0
 20 43  1  0
 20 44  1  0
 22 45  1  0
 23 46  1  0
 26 47  1  0
M  CHG  1  17  -1
M  END
>  <UniqueID>  (33) 
33

>  <SMILES>  (33) 
Cc1cc(S(=O)(=O)N2CCCCC2)ccc1[N-]C(=O)Cn1ccsc1=N

>  <Energy>  (33) 
90.34628723804815

>  <Genealogy>  (33) 
Cc1cc(S(=O)(=O)N2CCCCC2)ccc1[N-]C(=O)Cn1ccsc1=N (protonated)
Cc1cc(S(=O)(=O)N2CCCCC2)ccc1[N-]C(=O)Cn1ccsc1=N (3D coordinates assigned)
Cc1cc(S(=O)(=O)N2CCCCC2)ccc1[N-]C(=O)Cn1ccsc1=N (nonaromatic ring conformer: 90.34628723804815 kcal/mol)

>  <smiles>  (33) 
Cc1cc(S(=O)(=O)N2CCCCC2)ccc1NC(=O)Cn1ccsc1=N

>  <score_type>  (33) 
oracle

>  <origin>  (33) 
adgpu

>  <m_score__min__energy>  (33) 
-10.25

>  <m_primary>  (33) 
energy

$$$$
33:0
     RDKit          3D

 43 45  0  0  0  0  0  0  0  0999 V2000
   -2.7170   21.9010  -33.6490 O   0  0  0  0  0  0  0  0  0  0  0  0
   -3.2070   21.5910  -32.2620 S   0  0  0  0  0  0  0  0  0  0  0  0
   -2.7790   20.1990  -31.8930 O   0  0  0  0  0  0  0  0  0  0  0  0
   -2.5050   22.7210  -31.1470 N   0  0  0  0  0  0  0  0  0  0  0  0
   -3.0390   22.9850  -29.8350 C   0  0  0  0  0  0  0  0  0  0  0  0
   -3.0980   21.9790  -28.8490 C   0  0  0  0  0  0  0  0  0  0  0  0
   -3.6160   22.2580  -27.5810 C   0  0  0  0  0  0  0  0  0  0  0  0
   -4.0870   23.5360  -27.2820 C   0  0  0  0  0  0  0  0  0  0  0  0
   -4.0450   24.5400  -28.2520 C   0  0  0  0  0  0  0  0  0  0  0  0
   -3.5260   24.2710  -29.5230 C   0  0  0  0  0  0  0  0  0  0  0  0
   -3.4900   25.2890  -30.4690 O   0  0  0  0  0  0  0  0  0  0  0  0
   -4.9630   21.6830  -32.1800 C   0  0  0  0  0  0  0  0  0  0  0  0
   -5.5990   22.9260  -32.2910 C   0  0  0  0  0  0  0  0  0  0  0  0
   -6.9940   23.0080  -32.2380 C   0  0  0  0  0  0  0  0  0  0  0  0
   -7.7580   21.8500  -32.0750 C   0  0  0  0  0  0  0  0  0  0  0  0
   -7.1300   20.6010  -31.9680 C   0  0  0  0  0  0  0  0  0  0  0  0
   -8.0830   19.1370  -31.7470 S   0  0  0  0  0  0  0  0  0  0  0  0
   -8.7060   18.7560  -33.0600 O   0  0  0  0  0  0  0  0  0  0  0  0
   -9.1700   19.3900  -30.7390 O   0  0  0  0  0  0  0  0  0  0  0  0
   -7.0420   17.8670  -31.1880 N   0  0  0  0  0  0  0  0  0  0  0  0
   -6.2430   17.1990  -31.9680 C   0  0  0  0  0  0  0  0  0  0  0  0
   -6.0900   17.4080  -33.4300 C   0  0  0  0  0  0  0  0  0  0  0  0
   -5.0560   16.3490  -33.8420 C   0  0  0  0  0  0  0  0  0  0  0  0
   -4.6120   15.6170  -32.5620 C   0  0  0  0  0  0  0  0  0  0  0  0
   -5.4000   16.1750  -31.4830 N   0  0  0  0  0  0  0  0  0  0  0  0
   -5.7310   20.5220  -32.0120 C   0  0  0  0  0  0  0  0  0  0  0  0
   -1.5950   23.1500  -31.4280 H   0  0  0  0  0  0  0  0  0  0  0  0
   -2.7337   20.9669  -29.0793 H   0  0  0  0  0  0  0  0  0  0  0  0
   -3.6522   21.4674  -26.8171 H   0  0  0  0  0  0  0  0  0  0  0  0
   -4.4915   23.7533  -26.2824 H   0  0  0  0  0  0  0  0  0  0  0  0
   -4.4215   25.5462  -28.0157 H   0  0  0  0  0  0  0  0  0  0  0  0
   -5.0000   23.8395  -32.4201 H   0  0  0  0  0  0  0  0  0  0  0  0
   -7.4904   23.9858  -32.3248 H   0  0  0  0  0  0  0  0  0  0  0  0
   -8.8550   21.9182  -32.0305 H   0  0  0  0  0  0  0  0  0  0  0  0
   -7.0670   17.6380  -30.1680 H   0  0  0  0  0  0  0  0  0  0  0  0
   -7.0452   17.2475  -33.9514 H   0  0  0  0  0  0  0  0  0  0  0  0
   -5.7771   18.4314  -33.6843 H   0  0  0  0  0  0  0  0  0  0  0  0
   -5.5089   15.6350  -34.5456 H   0  0  0  0  0  0  0  0  0  0  0  0
   -4.1949   16.8195  -34.3391 H   0  0  0  0  0  0  0  0  0  0  0  0
   -4.8026   14.5376  -32.6545 H   0  0  0  0  0  0  0  0  0  0  0  0
   -3.5349   15.7461  -32.3798 H   0  0  0  0  0  0  0  0  0  0  0  0
   -5.3320   15.8750  -30.4850 H   0  0  0  0  0  0  0  0  0  0  0  0
   -5.2340   19.5456  -31.9144 H   0  0  0  0  0  0  0  0  0  0  0  0
  1  2  2  0
  2  3  2  0
  2  4  1  0
  4  5  1  0
  5  6  2  0
  6  7  1  0
  7  8  2  0
  8  9  1  0
  9 10  2  0
 10 11  1  0
  2 12  1  0
 12 13  2  0
 13 14  1  0
 14 15  2  0
 15 16  1  0
 16 17  1  0
 17 18  2  0
 17 19  2  0
 17 20  1  0
 20 21  2  3
 21 22  1  0
 22 23  1  0
 23 24  1  0
 24 25  1  0
 16 26  2  0
 10  5  1  0
 26 12  1  0
 25 21  1  0
  4 27  1  0
  6 28  1  0
  7 29  1  0
  8 30  1  0
  9 31  1  0
 13 32  1  0
 14 33  1  0
 15 34  1  0
 20 35  1  0
 22 36  1  0
 22 37  1  0
 23 38  1  0
 23 39  1  0
 24 40  1  0
 24 41  1  0
 25 42  1  0
 26 43  1  0
M  CHG  2  11  -1  20   1
M  END
>  <UniqueID>  (34) 
34

>  <SMILES>  (34) 
O=S(=O)(Nc1ccccc1[O-])c1cccc(S(=O)(=O)[NH+]=C2CCCN2)c1

>  <Energy>  (34) 
56.06562253750274

>  <Genealogy>  (34) 
O=S(=O)(Nc1ccccc1[O-])c1cccc(S(=O)(=O)[NH+]=C2CCCN2)c1 (protonated)
O=S(=O)(Nc1ccccc1[O-])c1cccc(S(=O)(=O)[NH+]=C2CCCN2)c1 (3D coordinates assigned)
O=S(=O)(Nc1ccccc1[O-])c1cccc(S(=O)(=O)[NH+]=C2CCCN2)c1 (nonaromatic ring conformer: 56.06562253750274 kcal/mol)

>  <smiles>  (34) 
O=S(=O)(N=C1CCCN1)c1cccc(S(=O)(=O)Nc2ccccc2O)c1

>  <score_type>  (34) 
oracle

>  <origin>  (34) 
adgpu

>  <m_score__min__energy>  (34) 
-12.699999999999999

>  <m_primary>  (34) 
energy

$$$$
34:0
     RDKit          3D

 63 67  0  0  0  0  0  0  0  0999 V2000
   -1.6990   25.2880  -27.8220 C   0  0  0  0  0  0  0  0  0  0  0  0
   -2.3420   25.2660  -29.0910 O   0  0  0  0  0  0  0  0  0  0  0  0
   -3.2590   24.2860  -29.4970 C   0  0  0  0  0  0  0  0  0  0  0  0
   -4.1110   23.7330  -28.5350 C   0  0  0  0  0  0  0  0  0  0  0  0
   -5.0350   22.7480  -28.8890 C   0  0  0  0  0  0  0  0  0  0  0  0
   -5.1140   22.3010  -30.2100 C   0  0  0  0  0  0  0  0  0  0  0  0
   -4.2640   22.8370  -31.1880 C   0  0  0  0  0  0  0  0  0  0  0  0
   -4.3330   22.3340  -32.6060 C   0  0  0  0  0  0  0  0  0  0  0  0
   -3.7790   20.9760  -32.7000 N   0  0  0  0  0  0  0  0  0  0  0  0
   -4.4660   19.8060  -32.6620 C   0  0  0  0  0  0  0  0  0  0  0  0
   -5.9780   19.6710  -32.5900 C   0  0  0  0  0  0  0  0  0  0  0  0
   -6.3990   18.5530  -31.5970 C   0  0  0  0  0  0  0  0  0  0  0  0
   -6.7570   17.2230  -32.2890 C   0  0  0  0  0  0  0  0  0  0  0  0
   -5.9630   17.0540  -33.5140 N   0  0  0  0  0  0  0  0  0  0  0  0
   -4.9220   16.0550  -33.6020 C   0  0  0  0  0  0  0  0  0  0  0  0
   -4.8650   15.0340  -32.7020 N   0  0  0  0  0  0  0  0  0  0  0  0
   -3.8580   14.1240  -32.7290 C   0  0  0  0  0  0  0  0  0  0  0  0
   -2.8490   14.2300  -33.6840 C   0  0  0  0  0  0  0  0  0  0  0  0
   -2.9140   15.2790  -34.6010 C   0  0  0  0  0  0  0  0  0  0  0  0
   -1.8870   15.4440  -35.5920 C   0  0  0  0  0  0  0  0  0  0  0  0
   -1.0610   15.5770  -36.3900 N   0  0  0  0  0  0  0  0  0  0  0  0
   -3.9430   16.1630  -34.5430 N   0  0  0  0  0  0  0  0  0  0  0  0
   -6.1200   18.0660  -34.5760 C   0  0  0  0  0  0  0  0  0  0  0  0
   -6.5680   19.4230  -33.9970 C   0  0  0  0  0  0  0  0  0  0  0  0
   -3.6610   18.7330  -32.7890 N   0  0  0  0  0  0  0  0  0  0  0  0
   -2.4230   19.2360  -32.9220 C   0  0  0  0  0  0  0  0  0  0  0  0
   -1.2470   18.3710  -33.1310 C   0  0  0  0  0  0  0  0  0  0  0  0
   -0.4600   18.5390  -34.2810 C   0  0  0  0  0  0  0  0  0  0  0  0
    0.6990   17.7760  -34.4400 C   0  0  0  0  0  0  0  0  0  0  0  0
    1.0710   16.8920  -33.4780 N   0  0  0  0  0  0  0  0  0  0  0  0
    0.3410   16.7250  -32.3430 C   0  0  0  0  0  0  0  0  0  0  0  0
   -0.8250   17.4690  -32.1440 C   0  0  0  0  0  0  0  0  0  0  0  0
   -2.4820   20.6210  -32.8710 C   0  0  0  0  0  0  0  0  0  0  0  0
   -1.3090   21.5640  -32.7750 C   0  0  0  0  0  0  0  0  0  0  0  0
   -0.8310   21.8660  -34.0560 O   0  0  0  0  0  0  0  0  0  0  0  0
   -3.3470   23.8410  -30.8320 C   0  0  0  0  0  0  0  0  0  0  0  0
   -2.4578   25.2620  -27.0260 H   0  0  0  0  0  0  0  0  0  0  0  0
   -1.0403   24.4119  -27.7294 H   0  0  0  0  0  0  0  0  0  0  0  0
   -1.1018   26.2071  -27.7294 H   0  0  0  0  0  0  0  0  0  0  0  0
   -4.0525   24.0768  -27.4918 H   0  0  0  0  0  0  0  0  0  0  0  0
   -5.7028   22.3227  -28.1253 H   0  0  0  0  0  0  0  0  0  0  0  0
   -5.8452   21.5262  -30.4839 H   0  0  0  0  0  0  0  0  0  0  0  0
   -5.3829   22.3198  -32.9340 H   0  0  0  0  0  0  0  0  0  0  0  0
   -3.7428   23.0034  -33.2491 H   0  0  0  0  0  0  0  0  0  0  0  0
   -6.3876   20.6181  -32.2089 H   0  0  0  0  0  0  0  0  0  0  0  0
   -5.5655   18.3715  -30.9025 H   0  0  0  0  0  0  0  0  0  0  0  0
   -7.3036   18.9031  -31.0782 H   0  0  0  0  0  0  0  0  0  0  0  0
   -6.5471   16.3892  -31.6029 H   0  0  0  0  0  0  0  0  0  0  0  0
   -7.8246   17.2342  -32.5540 H   0  0  0  0  0  0  0  0  0  0  0  0
   -3.8386   13.3031  -31.9971 H   0  0  0  0  0  0  0  0  0  0  0  0
   -2.0223   13.5050  -33.7140 H   0  0  0  0  0  0  0  0  0  0  0  0
   -5.1569   18.1969  -35.0911 H   0  0  0  0  0  0  0  0  0  0  0  0
   -6.8925   17.7161  -35.2766 H   0  0  0  0  0  0  0  0  0  0  0  0
   -6.2321   20.2255  -34.6702 H   0  0  0  0  0  0  0  0  0  0  0  0
   -7.6645   19.4119  -33.9103 H   0  0  0  0  0  0  0  0  0  0  0  0
   -0.7540   19.2666  -35.0518 H   0  0  0  0  0  0  0  0  0  0  0  0
    1.3119   17.8912  -35.3462 H   0  0  0  0  0  0  0  0  0  0  0  0
    0.6688   16.0032  -31.5804 H   0  0  0  0  0  0  0  0  0  0  0  0
   -1.4080   17.3478  -31.2191 H   0  0  0  0  0  0  0  0  0  0  0  0
   -1.6273   22.4917  -32.2769 H   0  0  0  0  0  0  0  0  0  0  0  0
   -0.5071   21.0848  -32.1942 H   0  0  0  0  0  0  0  0  0  0  0  0
   -1.6190   21.9000  -34.6580 H   0  0  0  0  0  0  0  0  0  0  0  0
   -2.6941   24.2822  -31.5995 H   0  0  0  0  0  0  0  0  0  0  0  0
  1  2  1  0
  2  3  1  0
  3  4  2  0
  4  5  1  0
  5  6  2  0
  6  7  1  0
  7  8  1  0
  8  9  1  0
  9 10  1  0
 10 11  1  0
 11 12  1  0
 12 13  1  0
 13 14  1  0
 14 15  1  0
 15 16  2  0
 16 17  1  0
 17 18  2  0
 18 19  1  0
 19 20  1  0
 20 21  3  0
 19 22  2  0
 14 23  1  0
 23 24  1  0
 10 25  2  0
 25 26  1  0
 26 27  1  0
 27 28  2  0
 28 29  1  0
 29 30  2  0
 30 31  1  0
 31 32  2  0
 26 33  2  0
 33 34  1  0
 34 35  1  0
  7 36  2  0
 36  3  1  0
 33  9  1  0
 24 11  1  0
 32 27  1  0
 22 15  1  0
  1 37  1  0
  1 38  1  0
  1 39  1  0
  4 40  1  0
  5 41  1  0
  6 42  1  0
  8 43  1  0
  8 44  1  0
 11 45  1  0
 12 46  1  0
 12 47  1  0
 13 48  1  0
 13 49  1  0
 17 50  1  0
 18 51  1  0
 23 52  1  0
 23 53  1  0
 24 54  1  0
 24 55  1  0
 28 56  1  0
 29 57  1  0
 31 58  1  0
 32 59  1  0
 34 60  1  0
 34 61  1  0
 35 62  1  0
 36 63  1  0
M  END
>  <UniqueID>  (35) 
35

>  <SMILES>  (35) 
COc1cccc(Cn2c(C3CCN(c4nccc(C#N)n4)CC3)nc(-c3ccncc3)c2CO)c1

>  <Energy>  (35) 
103.09481721134357

>  <Genealogy>  (35) 
COc1cccc(Cn2c(C3CCN(c4nccc(C#N)n4)CC3)nc(-c3ccncc3)c2CO)c1 (3D coordinates assigned)
COc1cccc(Cn2c(C3CCN(c4nccc(C#N)n4)CC3)nc(-c3ccncc3)c2CO)c1 (nonaromatic ring conformer: 103.09481721134357 kcal/mol)

>  <smiles>  (35) 
COc1cccc(Cn2c(C3CCN(c4nccc(C#N)n4)CC3)nc(-c3ccncc3)c2CO)c1

>  <score_type>  (35) 
oracle

>  <origin>  (35) 
adgpu

>  <m_score__min__energy>  (35) 
-9.6799999999999997

>  <m_primary>  (35) 
energy

$$$$
35:0
     RDKit          3D

 66 69  0  0  0  0  0  0  0  0999 V2000
   -3.8500   21.1780  -31.4840 C   0  0  0  0  0  0  0  0  0  0  0  0
   -2.7920   22.0310  -30.8320 C   0  0  0  0  0  0  0  0  0  0  0  0
   -1.5040   21.4870  -30.6960 C   0  0  0  0  0  0  0  0  0  0  0  0
   -0.4840   22.2080  -30.0840 C   0  0  0  0  0  0  0  0  0  0  0  0
   -0.7220   23.4990  -29.6000 C   0  0  0  0  0  0  0  0  0  0  0  0
    0.3150   24.2620  -28.9620 N   0  0  0  0  0  0  0  0  0  0  0  0
    0.9100   23.9860  -27.6870 C   0  0  0  0  0  0  0  0  0  0  0  0
    1.1280   24.9410  -26.8960 O   0  0  0  0  0  0  0  0  0  0  0  0
    1.2620   22.6550  -27.2850 N   0  0  0  0  0  0  0  0  0  0  0  0
    0.3660   21.5360  -27.2370 C   0  0  0  0  0  0  0  0  0  0  0  0
    0.7590   20.3260  -27.8240 C   0  0  0  0  0  0  0  0  0  0  0  0
   -0.0990   19.2210  -27.8060 C   0  0  0  0  0  0  0  0  0  0  0  0
   -1.3640   19.3280  -27.2230 C   0  0  0  0  0  0  0  0  0  0  0  0
   -1.7740   20.5400  -26.6620 C   0  0  0  0  0  0  0  0  0  0  0  0
   -0.9120   21.6410  -26.6610 C   0  0  0  0  0  0  0  0  0  0  0  0
   -2.0120   24.0410  -29.6830 C   0  0  0  0  0  0  0  0  0  0  0  0
   -2.2380   25.3040  -29.1480 O   0  0  0  0  0  0  0  0  0  0  0  0
   -3.0610   23.3250  -30.3030 C   0  0  0  0  0  0  0  0  0  0  0  0
   -4.6760   24.0830  -30.4040 S   0  0  0  0  0  0  0  0  0  0  0  0
   -5.2650   24.2750  -29.0350 O   0  0  0  0  0  0  0  0  0  0  0  0
   -4.5400   25.4510  -31.0150 O   0  0  0  0  0  0  0  0  0  0  0  0
   -5.8330   23.1100  -31.3870 C   0  0  0  0  0  0  0  0  0  0  0  0
   -6.4530   21.9370  -30.5870 C   0  0  0  0  0  0  0  0  0  0  0  0
   -7.8760   22.2640  -30.1130 C   0  0  0  0  0  0  0  0  0  0  0  0
   -8.8000   22.5660  -31.2380 N   0  0  0  0  0  0  0  0  0  0  0  0
   -9.6010   21.3820  -31.6140 C   0  0  0  0  0  0  0  0  0  0  0  0
   -8.7110   20.2310  -32.0090 C   0  0  0  0  0  0  0  0  0  0  0  0
   -8.7370   19.0270  -31.2890 C   0  0  0  0  0  0  0  0  0  0  0  0
   -7.8870   17.9760  -31.6450 C   0  0  0  0  0  0  0  0  0  0  0  0
   -6.9980   18.1180  -32.7180 C   0  0  0  0  0  0  0  0  0  0  0  0
   -5.9190   16.7930  -33.1410 S   0  0  0  0  0  0  0  0  0  0  0  0
   -4.5950   17.4110  -34.1550 C   0  0  0  0  0  0  0  0  0  0  0  0
   -5.3560   16.1850  -31.8880 O   0  0  0  0  0  0  0  0  0  0  0  0
   -6.6700   15.7340  -33.8980 O   0  0  0  0  0  0  0  0  0  0  0  0
   -6.9630   19.3240  -33.4330 C   0  0  0  0  0  0  0  0  0  0  0  0
   -7.8170   20.3740  -33.0810 C   0  0  0  0  0  0  0  0  0  0  0  0
   -8.1340   23.1700  -32.4220 C   0  0  0  0  0  0  0  0  0  0  0  0
   -6.9140   24.0060  -32.0260 C   0  0  0  0  0  0  0  0  0  0  0  0
   -4.4566   20.6889  -30.7075 H   0  0  0  0  0  0  0  0  0  0  0  0
   -4.4965   21.8105  -32.1101 H   0  0  0  0  0  0  0  0  0  0  0  0
   -3.3690   20.4121  -32.1101 H   0  0  0  0  0  0  0  0  0  0  0  0
   -1.2991   20.4764  -31.0790 H   0  0  0  0  0  0  0  0  0  0  0  0
    0.5155   21.7606  -29.9799 H   0  0  0  0  0  0  0  0  0  0  0  0
    1.7467   20.2444  -28.3012 H   0  0  0  0  0  0  0  0  0  0  0  0
    0.2226   18.2678  -28.2510 H   0  0  0  0  0  0  0  0  0  0  0  0
   -2.0371   18.4582  -27.2057 H   0  0  0  0  0  0  0  0  0  0  0  0
   -2.7774   20.6284  -26.2200 H   0  0  0  0  0  0  0  0  0  0  0  0
   -1.2344   22.5906  -26.2089 H   0  0  0  0  0  0  0  0  0  0  0  0
   -5.2542   22.6522  -32.2027 H   0  0  0  0  0  0  0  0  0  0  0  0
   -6.4874   21.0453  -31.2303 H   0  0  0  0  0  0  0  0  0  0  0  0
   -5.8280   21.7583  -29.6996 H   0  0  0  0  0  0  0  0  0  0  0  0
   -8.2690   21.4001  -29.5570 H   0  0  0  0  0  0  0  0  0  0  0  0
   -7.8175   23.1622  -29.4806 H   0  0  0  0  0  0  0  0  0  0  0  0
  -10.2207   21.0799  -30.7568 H   0  0  0  0  0  0  0  0  0  0  0  0
  -10.2347   21.6461  -32.4735 H   0  0  0  0  0  0  0  0  0  0  0  0
   -9.4285   18.9098  -30.4416 H   0  0  0  0  0  0  0  0  0  0  0  0
   -7.9164   17.0328  -31.0797 H   0  0  0  0  0  0  0  0  0  0  0  0
   -3.7862   17.7885  -33.5120 H   0  0  0  0  0  0  0  0  0  0  0  0
   -4.2101   16.5995  -34.7901 H   0  0  0  0  0  0  0  0  0  0  0  0
   -4.9698   18.2272  -34.7901 H   0  0  0  0  0  0  0  0  0  0  0  0
   -6.2624   19.4443  -34.2724 H   0  0  0  0  0  0  0  0  0  0  0  0
   -7.7877   21.3166  -33.6473 H   0  0  0  0  0  0  0  0  0  0  0  0
   -7.8092   22.3643  -33.0969 H   0  0  0  0  0  0  0  0  0  0  0  0
   -8.8567   23.8350  -32.9174 H   0  0  0  0  0  0  0  0  0  0  0  0
   -6.4999   24.4903  -32.9226 H   0  0  0  0  0  0  0  0  0  0  0  0
   -7.2248   24.7670  -31.2950 H   0  0  0  0  0  0  0  0  0  0  0  0
  1  2  1  0
  2  3  2  0
  3  4  1  0
  4  5  2  0
  5  6  1  0
  6  7  1  0
  7  8  2  0
  7  9  1  0
  9 10  1  0
 10 11  2  0
 11 12  1  0
 12 13  2  0
 13 14  1  0
 14 15  2  0
  5 16  1  0
 16 17  1  0
 16 18  2  0
 18 19  1  0
 19 20  2  0
 19 21  2  0
 19 22  1  0
 22 23  1  0
 23 24  1  0
 24 25  1  0
 25 26  1  0
 26 27  1  0
 27 28  2  0
 28 29  1  0
 29 30  2  0
 30 31  1  0
 31 32  1  0
 31 33  2  0
 31 34  2  0
 30 35  1  0
 35 36  2  0
 25 37  1  0
 37 38  1  0
 18  2  1  0
 38 22  1  0
 15 10  1  0
 36 27  1  0
  1 39  1  0
  1 40  1  0
  1 41  1  0
  3 42  1  0
  4 43  1  0
 11 44  1  0
 12 45  1  0
 13 46  1  0
 14 47  1  0
 15 48  1  0
 22 49  1  0
 23 50  1  0
 23 51  1  0
 24 52  1  0
 24 53  1  0
 26 54  1  0
 26 55  1  0
 28 56  1  0
 29 57  1  0
 32 58  1  0
 32 59  1  0
 32 60  1  0
 35 61  1  0
 36 62  1  0
 37 63  1  0
 37 64  1  0
 38 65  1  0
 38 66  1  0
M  CHG  3   6  -1   9  -1  17  -1
M  END
>  <UniqueID>  (36) 
36

>  <SMILES>  (36) 
Cc1ccc([N-]C(=O)[N-]c2ccccc2)c([O-])c1S(=O)(=O)C1CCN(Cc2ccc(S(C)(=O)=O)cc2)CC1

>  <Energy>  (36) 
80.62774431452716

>  <Genealogy>  (36) 
Cc1ccc([N-]C(=O)[N-]c2ccccc2)c([O-])c1S(=O)(=O)C1CCN(Cc2ccc(S(C)(=O)=O)cc2)CC1 (protonated)
Cc1ccc([N-]C(=O)[N-]c2ccccc2)c([O-])c1S(=O)(=O)C1CCN(Cc2ccc(S(C)(=O)=O)cc2)CC1 (3D coordinates assigned)
Cc1ccc([N-]C(=O)[N-]c2ccccc2)c([O-])c1S(=O)(=O)C1CCN(Cc2ccc(S(C)(=O)=O)cc2)CC1 (nonaromatic ring conformer: 80.62774431452716 kcal/mol)

>  <smiles>  (36) 
Cc1ccc(NC(=O)Nc2ccccc2)c(O)c1S(=O)(=O)C1CCN(Cc2ccc(S(C)(=O)=O)cc2)CC1

>  <score_type>  (36) 
oracle

>  <origin>  (36) 
adgpu

>  <m_score__min__energy>  (36) 
-15.449999999999999

>  <m_primary>  (36) 
energy

$$$$
36:0
     RDKit          3D

 26 28  0  0  0  0  0  0  0  0999 V2000
   -8.2314   24.4667  -30.1564 H   0  0  0  0  0  0  0  0  0  0  0  0
   -7.1900   24.1510  -30.3170 C   0  0  0  0  0  0  0  0  0  0  0  0
   -6.8730   22.7900  -30.3740 C   0  0  0  0  0  0  0  0  0  0  0  0
   -7.6642   22.0359  -30.2504 H   0  0  0  0  0  0  0  0  0  0  0  0
   -5.5510   22.3870  -30.5880 C   0  0  0  0  0  0  0  0  0  0  0  0
   -5.3020   21.3159  -30.6158 H   0  0  0  0  0  0  0  0  0  0  0  0
   -4.5430   23.3430  -30.7670 C   0  0  0  0  0  0  0  0  0  0  0  0
   -3.1900   22.9140  -30.9460 N   0  0  0  0  0  0  0  0  0  0  0  0
   -2.2420   22.9980  -30.0580 C   0  0  0  0  0  0  0  0  0  0  0  0
   -0.9060   22.4410  -30.2080 C   0  0  0  0  0  0  0  0  0  0  0  0
   -0.4860   21.8290  -31.2240 O   0  0  0  0  0  0  0  0  0  0  0  0
   -0.1160   22.6580  -29.0410 N   0  0  0  0  0  0  0  0  0  0  0  0
   -0.9920   23.3850  -28.1780 C   0  0  0  0  0  0  0  0  0  0  0  0
   -0.6530   23.8810  -26.9200 C   0  0  0  0  0  0  0  0  0  0  0  0
    0.3378   23.6820  -26.4855 H   0  0  0  0  0  0  0  0  0  0  0  0
   -1.6040   24.6400  -26.2200 C   0  0  0  0  0  0  0  0  0  0  0  0
   -1.3650   25.0274  -25.2186 H   0  0  0  0  0  0  0  0  0  0  0  0
   -2.8610   24.9080  -26.7920 C   0  0  0  0  0  0  0  0  0  0  0  0
   -3.5943   25.5136  -26.2392 H   0  0  0  0  0  0  0  0  0  0  0  0
   -3.1870   24.4080  -28.0640 C   0  0  0  0  0  0  0  0  0  0  0  0
   -4.1609   24.6308  -28.5242 H   0  0  0  0  0  0  0  0  0  0  0  0
   -2.2430   23.6200  -28.7310 C   0  0  0  0  0  0  0  0  0  0  0  0
   -4.8590   24.7110  -30.6780 C   0  0  0  0  0  0  0  0  0  0  0  0
   -3.8630   25.6740  -30.7990 O   0  0  0  0  0  0  0  0  0  0  0  0
   -6.1840   25.1100  -30.4640 C   0  0  0  0  0  0  0  0  0  0  0  0
   -6.4335   26.1800  -30.4115 H   0  0  0  0  0  0  0  0  0  0  0  0
  1  2  1  0
  2  3  2  0
  3  4  1  0
  3  5  1  0
  5  6  1  0
  5  7  2  0
  7  8  1  0
  8  9  2  0
  9 10  1  0
 10 11  2  0
 10 12  1  0
 12 13  1  0
 13 14  2  0
 14 15  1  0
 14 16  1  0
 16 17  1  0
 16 18  2  0
 18 19  1  0
 18 20  1  0
 20 21  1  0
 20 22  2  0
  7 23  1  0
 23 24  1  0
 23 25  2  0
 25 26  1  0
 25  2  1  0
 22  9  1  0
 22 13  1  0
M  CHG  2  12  -1  24  -1
M  END
>  <UniqueID>  (37) 
37

>  <SMILES>  (37) 
O=C1[N-]c2ccccc2/C1=N\c1ccccc1[O-]

>  <Energy>  (37) 
69.14277868220788

>  <Genealogy>  (37) 
O=C1[N-]c2ccccc2C1=Nc1ccccc1[O-] (protonated)
O=C1[N-]c2ccccc2/C1=N\c1ccccc1[O-] (cis-trans isomerization)
O=C1[N-]c2ccccc2/C1=N\c1ccccc1[O-] (3D coordinates assigned)
O=C1[N-]c2ccccc2/C1=N\c1ccccc1[O-] (nonaromatic ring conformer: 69.14277868220788 kcal/mol)

>  <smiles>  (37) 
O=C1Nc2ccccc2C1=Nc1ccccc1O

>  <score_type>  (37) 
oracle

>  <origin>  (37) 
adgpu

>  <m_score__min__energy>  (37) 
-9.8499999999999996

>  <m_primary>  (37) 
energy

$$$$
37:0
     RDKit          3D

 35 37  0  0  0  0  0  0  0  0999 V2000
   -9.8767   19.7078  -33.0193 H   0  0  0  0  0  0  0  0  0  0  0  0
   -9.1090   20.4140  -32.6700 C   0  0  0  0  0  0  0  0  0  0  0  0
   -9.4840   21.5610  -31.9710 C   0  0  0  0  0  0  0  0  0  0  0  0
  -10.5469   21.7563  -31.7659 H   0  0  0  0  0  0  0  0  0  0  0  0
   -8.5120   22.4620  -31.5310 C   0  0  0  0  0  0  0  0  0  0  0  0
   -8.8138   23.3671  -30.9835 H   0  0  0  0  0  0  0  0  0  0  0  0
   -7.1510   22.2200  -31.7830 C   0  0  0  0  0  0  0  0  0  0  0  0
   -6.1490   23.1990  -31.3090 C   0  0  0  0  0  0  0  0  0  0  0  0
   -5.9200   24.2240  -32.0040 O   0  0  0  0  0  0  0  0  0  0  0  0
   -5.4670   23.0520  -30.0530 N   0  0  0  0  0  0  0  0  0  0  0  0
   -4.3650   23.6460  -29.6990 C   0  0  0  0  0  0  0  0  0  0  0  0
   -3.7870   23.4450  -28.4970 N   0  0  0  0  0  0  0  0  0  0  0  0
   -2.7320   24.2810  -28.5550 C   0  0  0  0  0  0  0  0  0  0  0  0
   -1.9967   24.4041  -27.7462 H   0  0  0  0  0  0  0  0  0  0  0  0
   -2.6880   24.9450  -29.7200 N   0  0  0  0  0  0  0  0  0  0  0  0
   -1.9800   25.6530  -30.0140 H   0  0  0  0  0  0  0  0  0  0  0  0
   -3.7150   24.5570  -30.4510 N   0  0  0  0  0  0  0  0  0  0  0  0
   -6.7740   21.0540  -32.4870 C   0  0  0  0  0  0  0  0  0  0  0  0
   -5.0480   20.6420  -32.8020 S   0  0  0  0  0  0  0  0  0  0  0  0
   -5.4280   18.9390  -33.2220 C   0  0  0  0  0  0  0  0  0  0  0  0
   -5.4840   18.5380  -34.5630 C   0  0  0  0  0  0  0  0  0  0  0  0
   -5.2655   19.2619  -35.3619 H   0  0  0  0  0  0  0  0  0  0  0  0
   -5.8170   17.2200  -34.8880 C   0  0  0  0  0  0  0  0  0  0  0  0
   -5.8584   16.9092  -35.9424 H   0  0  0  0  0  0  0  0  0  0  0  0
   -6.0990   16.2910  -33.8730 C   0  0  0  0  0  0  0  0  0  0  0  0
   -6.4320   14.8700  -34.2180 C   0  0  0  0  0  0  0  0  0  0  0  0
   -6.5678   14.2903  -33.2931 H   0  0  0  0  0  0  0  0  0  0  0  0
   -7.3607   14.8436  -34.8070 H   0  0  0  0  0  0  0  0  0  0  0  0
   -5.6117   14.4338  -34.8070 H   0  0  0  0  0  0  0  0  0  0  0  0
   -6.0010   16.6870  -32.5300 C   0  0  0  0  0  0  0  0  0  0  0  0
   -6.1870   15.9571  -31.7283 H   0  0  0  0  0  0  0  0  0  0  0  0
   -5.6680   18.0050  -32.2080 C   0  0  0  0  0  0  0  0  0  0  0  0
   -5.5942   18.3097  -31.1536 H   0  0  0  0  0  0  0  0  0  0  0  0
   -7.7600   20.1610  -32.9270 C   0  0  0  0  0  0  0  0  0  0  0  0
   -7.4695   19.2547  -33.4785 H   0  0  0  0  0  0  0  0  0  0  0  0
  1  2  1  0
  2  3  2  0
  3  4  1  0
  3  5  1  0
  5  6  1  0
  5  7  2  0
  7  8  1  0
  8  9  2  0
  8 10  1  0
 10 11  2  0
 11 12  1  0
 12 13  2  0
 13 14  1  0
 13 15  1  0
 15 16  1  0
 15 17  1  0
  7 18  1  0
 18 19  1  0
 19 20  1  0
 20 21  2  0
 21 22  1  0
 21 23  1  0
 23 24  1  0
 23 25  2  0
 25 26  1  0
 26 27  1  0
 26 28  1  0
 26 29  1  0
 25 30  1  0
 30 31  1  0
 30 32  2  0
 32 33  1  0
 18 34  2  0
 34 35  1  0
 34  2  1  0
 17 11  1  0
 32 20  1  0
M  CHG  1  17  -1
M  END
>  <UniqueID>  (38) 
38

>  <SMILES>  (38) 
Cc1ccc(Sc2ccccc2C(=O)/N=c2/nc[nH][n-]2)cc1

>  <Energy>  (38) 
72.35930494424346

>  <Genealogy>  (38) 
Cc1ccc(Sc2ccccc2C(=O)N=c2nc[nH][n-]2)cc1 (protonated)
Cc1ccc(Sc2ccccc2C(=O)/N=c2/nc[nH][n-]2)cc1 (cis-trans isomerization)
Cc1ccc(Sc2ccccc2C(=O)/N=c2/nc[nH][n-]2)cc1 (3D coordinates assigned)
Cc1ccc(Sc2ccccc2C(=O)/N=c2/nc[nH][n-]2)cc1 (optimized conformer: 72.35930494424346 kcal/mol)

>  <smiles>  (38) 
Cc1ccc(Sc2ccccc2C(=O)N=c2nc[nH][nH]2)cc1

>  <score_type>  (38) 
oracle

>  <origin>  (38) 
adgpu

>  <m_score__min__energy>  (38) 
-10.02

>  <m_primary>  (38) 
energy

$$$$
38:0
     RDKit          3D

 49 51  0  0  0  0  0  0  0  0999 V2000
   -2.7170   20.3630  -27.6270 C   0  0  0  0  0  0  0  0  0  0  0  0
   -2.2470   21.7880  -27.6410 C   0  0  0  0  0  0  0  0  0  0  0  0
   -1.3280   22.2500  -26.6860 C   0  0  0  0  0  0  0  0  0  0  0  0
   -0.8800   23.5730  -26.7280 C   0  0  0  0  0  0  0  0  0  0  0  0
   -1.3500   24.4430  -27.7140 C   0  0  0  0  0  0  0  0  0  0  0  0
   -2.2860   24.0050  -28.6580 C   0  0  0  0  0  0  0  0  0  0  0  0
   -2.7270   24.9250  -29.6670 N   0  0  0  0  0  0  0  0  0  0  0  0
   -3.9170   24.8140  -30.4560 C   0  0  0  0  0  0  0  0  0  0  0  0
   -4.7340   25.7720  -30.5270 O   0  0  0  0  0  0  0  0  0  0  0  0
   -4.1340   23.6270  -31.2230 N   0  0  0  0  0  0  0  0  0  0  0  0
   -5.4200   23.0320  -31.4380 C   0  0  0  0  0  0  0  0  0  0  0  0
   -6.5260   23.8710  -31.5250 C   0  0  0  0  0  0  0  0  0  0  0  0
   -7.8040   23.3430  -31.6670 C   0  0  0  0  0  0  0  0  0  0  0  0
   -8.0060   21.9570  -31.7540 C   0  0  0  0  0  0  0  0  0  0  0  0
   -9.4280   21.4630  -31.8170 C   0  0  0  0  0  0  0  0  0  0  0  0
   -6.8820   21.0820  -31.7310 C   0  0  0  0  0  0  0  0  0  0  0  0
   -7.0470   19.3030  -31.8560 S   0  0  0  0  0  0  0  0  0  0  0  0
   -8.3790   18.8600  -31.3190 O   0  0  0  0  0  0  0  0  0  0  0  0
   -6.0060   18.6680  -30.9750 O   0  0  0  0  0  0  0  0  0  0  0  0
   -6.8510   18.6620  -33.4790 N   0  0  0  0  0  0  0  0  0  0  0  0
   -5.7760   19.3010  -34.2570 C   0  0  0  0  0  0  0  0  0  0  0  0
   -4.4230   18.6110  -34.0410 C   0  0  0  0  0  0  0  0  0  0  0  0
   -4.5200   17.2340  -34.3360 O   0  0  0  0  0  0  0  0  0  0  0  0
   -5.3970   16.6220  -33.4150 C   0  0  0  0  0  0  0  0  0  0  0  0
   -6.8210   17.1890  -33.5490 C   0  0  0  0  0  0  0  0  0  0  0  0
   -5.5860   21.6350  -31.5740 C   0  0  0  0  0  0  0  0  0  0  0  0
   -4.4750   20.7890  -31.5960 O   0  0  0  0  0  0  0  0  0  0  0  0
   -2.7160   22.6650  -28.6310 C   0  0  0  0  0  0  0  0  0  0  0  0
   -2.8288   20.0240  -26.5865 H   0  0  0  0  0  0  0  0  0  0  0  0
   -3.6863   20.2915  -28.1421 H   0  0  0  0  0  0  0  0  0  0  0  0
   -1.9804   19.7289  -28.1421 H   0  0  0  0  0  0  0  0  0  0  0  0
   -0.9600   21.5699  -25.9036 H   0  0  0  0  0  0  0  0  0  0  0  0
   -0.1548   23.9302  -25.9820 H   0  0  0  0  0  0  0  0  0  0  0  0
   -0.9823   25.4791  -27.7490 H   0  0  0  0  0  0  0  0  0  0  0  0
   -6.3882   24.9614  -31.4811 H   0  0  0  0  0  0  0  0  0  0  0  0
   -8.6690   24.0210  -31.7118 H   0  0  0  0  0  0  0  0  0  0  0  0
   -9.8150   21.3285  -30.7961 H   0  0  0  0  0  0  0  0  0  0  0  0
  -10.0483   22.1983  -32.3504 H   0  0  0  0  0  0  0  0  0  0  0  0
   -9.4588   20.5015  -32.3504 H   0  0  0  0  0  0  0  0  0  0  0  0
   -6.0333   19.2519  -35.3254 H   0  0  0  0  0  0  0  0  0  0  0  0
   -5.6841   20.3433  -33.9177 H   0  0  0  0  0  0  0  0  0  0  0  0
   -3.6723   19.0709  -34.7005 H   0  0  0  0  0  0  0  0  0  0  0  0
   -4.1257   18.7303  -32.9887 H   0  0  0  0  0  0  0  0  0  0  0  0
   -5.4215   15.5391  -33.6067 H   0  0  0  0  0  0  0  0  0  0  0  0
   -5.0334   16.8251  -32.3969 H   0  0  0  0  0  0  0  0  0  0  0  0
   -7.2368   16.8732  -34.5172 H   0  0  0  0  0  0  0  0  0  0  0  0
   -7.4155   16.8021  -32.7082 H   0  0  0  0  0  0  0  0  0  0  0  0
   -3.5280   21.1110  -31.4460 H   0  0  0  0  0  0  0  0  0  0  0  0
   -3.4242   22.3029  -29.3908 H   0  0  0  0  0  0  0  0  0  0  0  0
  1  2  1  0
  2  3  2  0
  3  4  1  0
  4  5  2  0
  5  6  1  0
  6  7  1  0
  7  8  1  0
  8  9  2  0
  8 10  1  0
 10 11  1  0
 11 12  2  0
 12 13  1  0
 13 14  2  0
 14 15  1  0
 14 16  1  0
 16 17  1  0
 17 18  2  0
 17 19  2  0
 17 20  1  0
 20 21  1  0
 21 22  1  0
 22 23  1  0
 23 24  1  0
 24 25  1  0
 16 26  2  0
 26 27  1  0
  6 28  2  0
 28  2  1  0
 26 11  1  0
 25 20  1  0
  1 29  1  0
  1 30  1  0
  1 31  1  0
  3 32  1  0
  4 33  1  0
  5 34  1  0
 12 35  1  0
 13 36  1  0
 15 37  1  0
 15 38  1  0
 15 39  1  0
 21 40  1  0
 21 41  1  0
 22 42  1  0
 22 43  1  0
 24 44  1  0
 24 45  1  0
 25 46  1  0
 25 47  1  0
 27 48  1  0
 28 49  1  0
M  CHG  2   7  -1  10  -1
M  END
>  <UniqueID>  (39) 
39

>  <SMILES>  (39) 
Cc1cccc([N-]C(=O)[N-]c2ccc(C)c(S(=O)(=O)N3CCOCC3)c2O)c1

>  <Energy>  (39) 
70.56905567387098

>  <Genealogy>  (39) 
Cc1cccc([N-]C(=O)[N-]c2ccc(C)c(S(=O)(=O)N3CCOCC3)c2O)c1 (protonated)
Cc1cccc([N-]C(=O)[N-]c2ccc(C)c(S(=O)(=O)N3CCOCC3)c2O)c1 (3D coordinates assigned)
Cc1cccc([N-]C(=O)[N-]c2ccc(C)c(S(=O)(=O)N3CCOCC3)c2O)c1 (nonaromatic ring conformer: 70.56905567387098 kcal/mol)

>  <smiles>  (39) 
Cc1cccc(NC(=O)Nc2ccc(C)c(S(=O)(=O)N3CCOCC3)c2O)c1

>  <score_type>  (39) 
oracle

>  <origin>  (39) 
adgpu

>  <m_score__min__energy>  (39) 
-12.43

>  <m_primary>  (39) 
energy

$$$$
39:0
     RDKit          3D

 56 59  0  0  0  0  0  0  0  0999 V2000
   -6.8360   17.0280  -33.2780 C   0  0  0  0  0  0  0  0  0  0  0  0
   -7.5520   18.0620  -32.4690 C   0  0  0  0  0  0  0  0  0  0  0  0
   -7.6420   17.9170  -31.2170 O   0  0  0  0  0  0  0  0  0  0  0  0
   -8.0820   19.2340  -33.1070 N   0  0  0  0  0  0  0  0  0  0  0  0
   -8.8200   20.2630  -32.3750 C   0  0  0  0  0  0  0  0  0  0  0  0
   -7.8640   21.2320  -31.7330 C   0  0  0  0  0  0  0  0  0  0  0  0
   -6.4890   20.9490  -31.7000 C   0  0  0  0  0  0  0  0  0  0  0  0
   -5.5970   21.8590  -31.1280 C   0  0  0  0  0  0  0  0  0  0  0  0
   -6.0660   23.0650  -30.5880 C   0  0  0  0  0  0  0  0  0  0  0  0
   -4.9380   24.1790  -29.8160 S   0  0  0  0  0  0  0  0  0  0  0  0
   -3.8890   24.5810  -30.8190 O   0  0  0  0  0  0  0  0  0  0  0  0
   -5.6790   25.4130  -29.3700 O   0  0  0  0  0  0  0  0  0  0  0  0
   -4.1600   23.4530  -28.4420 N   0  0  0  0  0  0  0  0  0  0  0  0
   -3.2200   24.1350  -27.6030 C   0  0  0  0  0  0  0  0  0  0  0  0
   -3.6640   24.9910  -26.5750 C   0  0  0  0  0  0  0  0  0  0  0  0
   -2.7420   25.6390  -25.7440 C   0  0  0  0  0  0  0  0  0  0  0  0
   -1.3740   25.4470  -25.9600 C   0  0  0  0  0  0  0  0  0  0  0  0
   -0.9270   24.6130  -26.9660 C   0  0  0  0  0  0  0  0  0  0  0  0
   -1.8360   23.9610  -27.8180 C   0  0  0  0  0  0  0  0  0  0  0  0
   -1.3570   23.0630  -28.8860 C   0  0  0  0  0  0  0  0  0  0  0  0
   -1.3080   23.5050  -30.0650 O   0  0  0  0  0  0  0  0  0  0  0  0
   -0.9770   21.6970  -28.6070 N   0  0  0  0  0  0  0  0  0  0  0  0
   -0.1270   20.9580  -29.5510 C   0  0  0  0  0  0  0  0  0  0  0  0
   -0.5100   19.4750  -29.5490 C   0  0  0  0  0  0  0  0  0  0  0  0
   -0.5200   18.9580  -28.2320 O   0  0  0  0  0  0  0  0  0  0  0  0
   -1.5380   19.5910  -27.4760 C   0  0  0  0  0  0  0  0  0  0  0  0
   -1.2390   21.0830  -27.2990 C   0  0  0  0  0  0  0  0  0  0  0  0
    0.8500   24.5180  -27.1000 S   0  0  0  0  0  0  0  0  0  0  0  0
    0.9790   25.9850  -26.0110 C   0  0  0  0  0  0  0  0  0  0  0  0
   -0.3000   26.1070  -25.1760 C   0  0  0  0  0  0  0  0  0  0  0  0
   -7.4360   23.3590  -30.6380 C   0  0  0  0  0  0  0  0  0  0  0  0
   -8.3310   22.4460  -31.2030 C   0  0  0  0  0  0  0  0  0  0  0  0
   -6.3410   16.3132  -32.6041 H   0  0  0  0  0  0  0  0  0  0  0  0
   -7.5585   16.4938  -33.9125 H   0  0  0  0  0  0  0  0  0  0  0  0
   -6.0817   17.5164  -33.9125 H   0  0  0  0  0  0  0  0  0  0  0  0
   -7.9350   19.3640  -34.1340 H   0  0  0  0  0  0  0  0  0  0  0  0
   -9.4741   20.8065  -33.0727 H   0  0  0  0  0  0  0  0  0  0  0  0
   -9.4235   19.7821  -31.5911 H   0  0  0  0  0  0  0  0  0  0  0  0
   -6.1130   20.0072  -32.1262 H   0  0  0  0  0  0  0  0  0  0  0  0
   -4.5218   21.6285  -31.1010 H   0  0  0  0  0  0  0  0  0  0  0  0
   -4.7419   25.1510  -26.4246 H   0  0  0  0  0  0  0  0  0  0  0  0
   -3.0901   26.2920  -24.9301 H   0  0  0  0  0  0  0  0  0  0  0  0
   -0.2635   21.3683  -30.5625 H   0  0  0  0  0  0  0  0  0  0  0  0
    0.9250   21.0600  -29.2463 H   0  0  0  0  0  0  0  0  0  0  0  0
   -1.5121   19.3612  -29.9882 H   0  0  0  0  0  0  0  0  0  0  0  0
    0.2335   18.9192  -30.1392 H   0  0  0  0  0  0  0  0  0  0  0  0
   -2.4992   19.4757  -27.9984 H   0  0  0  0  0  0  0  0  0  0  0  0
   -1.5822   19.1209  -26.4825 H   0  0  0  0  0  0  0  0  0  0  0  0
   -2.1041   21.5757  -26.8311 H   0  0  0  0  0  0  0  0  0  0  0  0
   -0.3529   21.2021  -26.6581 H   0  0  0  0  0  0  0  0  0  0  0  0
    1.8453   25.8719  -25.3426 H   0  0  0  0  0  0  0  0  0  0  0  0
    1.1081   26.8896  -26.6235 H   0  0  0  0  0  0  0  0  0  0  0  0
   -0.1715   25.6031  -24.2067 H   0  0  0  0  0  0  0  0  0  0  0  0
   -0.5443   27.1596  -24.9704 H   0  0  0  0  0  0  0  0  0  0  0  0
   -7.8077   24.3111  -30.2313 H   0  0  0  0  0  0  0  0  0  0  0  0
   -9.4056   22.6792  -31.2327 H   0  0  0  0  0  0  0  0  0  0  0  0
  1  2  1  0
  2  3  2  0
  2  4  1  0
  4  5  1  0
  5  6  1  0
  6  7  2  0
  7  8  1  0
  8  9  2  0
  9 10  1  0
 10 11  2  0
 10 12  2  0
 10 13  1  0
 13 14  1  0
 14 15  2  0
 15 16  1  0
 16 17  2  0
 17 18  1  0
 18 19  2  0
 19 20  1  0
 20 21  2  0
 20 22  1  0
 22 23  1  0
 23 24  1  0
 24 25  1  0
 25 26  1  0
 26 27  1  0
 18 28  1  0
 28 29  1  0
 29 30  1  0
  9 31  1  0
 31 32  2  0
 32  6  1  0
 19 14  1  0
 27 22  1  0
 30 17  1  0
  1 33  1  0
  1 34  1  0
  1 35  1  0
  4 36  1  0
  5 37  1  0
  5 38  1  0
  7 39  1  0
  8 40  1  0
 15 41  1  0
 16 42  1  0
 23 43  1  0
 23 44  1  0
 24 45  1  0
 24 46  1  0
 26 47  1  0
 26 48  1  0
 27 49  1  0
 27 50  1  0
 29 51  1  0
 29 52  1  0
 30 53  1  0
 30 54  1  0
 31 55  1  0
 32 56  1  0
M  CHG  1  13  -1
M  END
>  <UniqueID>  (40) 
40

>  <SMILES>  (40) 
CC(=O)NCc1ccc(S(=O)(=O)[N-]c2ccc3c(c2C(=O)N2CCOCC2)SCC3)cc1

>  <Energy>  (40) 
76.86586921575325

>  <Genealogy>  (40) 
CC(=O)NCc1ccc(S(=O)(=O)[N-]c2ccc3c(c2C(=O)N2CCOCC2)SCC3)cc1 (protonated)
CC(=O)NCc1ccc(S(=O)(=O)[N-]c2ccc3c(c2C(=O)N2CCOCC2)SCC3)cc1 (3D coordinates assigned)
CC(=O)NCc1ccc(S(=O)(=O)[N-]c2ccc3c(c2C(=O)N2CCOCC2)SCC3)cc1 (nonaromatic ring conformer: 76.86586921575325 kcal/mol)

>  <smiles>  (40) 
CC(=O)NCc1ccc(S(=O)(=O)Nc2ccc3c(c2C(=O)N2CCOCC2)SCC3)cc1

>  <score_type>  (40) 
oracle

>  <origin>  (40) 
adgpu

>  <m_score__min__energy>  (40) 
-11.34

>  <m_primary>  (40) 
energy

$$$$
40:0
     RDKit          3D

 38 40  0  0  0  0  0  0  0  0999 V2000
   -3.0110   24.9190  -27.7120 O   0  0  0  0  0  0  0  0  0  0  0  0
   -2.4150   24.6400  -29.0630 S   0  0  0  0  0  0  0  0  0  0  0  0
   -1.1530   25.4430  -29.2210 O   0  0  0  0  0  0  0  0  0  0  0  0
   -3.5490   25.1450  -30.2760 N   0  0  0  0  0  0  0  0  0  0  0  0
   -4.6150   24.3410  -30.8010 C   0  0  0  0  0  0  0  0  0  0  0  0
   -4.3770   23.1470  -31.5070 C   0  0  0  0  0  0  0  0  0  0  0  0
   -5.4470   22.3870  -31.9870 C   0  0  0  0  0  0  0  0  0  0  0  0
   -6.7660   22.7950  -31.7610 C   0  0  0  0  0  0  0  0  0  0  0  0
   -7.8110   22.0110  -32.2690 O   0  0  0  0  0  0  0  0  0  0  0  0
   -7.8350   20.6090  -32.3030 C   0  0  0  0  0  0  0  0  0  0  0  0
   -8.7540   19.8620  -31.5400 C   0  0  0  0  0  0  0  0  0  0  0  0
   -8.7350   18.4640  -31.5880 C   0  0  0  0  0  0  0  0  0  0  0  0
   -7.7960   17.8030  -32.3850 C   0  0  0  0  0  0  0  0  0  0  0  0
   -6.8690   18.5390  -33.1280 C   0  0  0  0  0  0  0  0  0  0  0  0
   -6.8860   19.9370  -33.0820 C   0  0  0  0  0  0  0  0  0  0  0  0
   -7.0050   23.9970  -31.0720 C   0  0  0  0  0  0  0  0  0  0  0  0
   -5.9350   24.7580  -30.5910 C   0  0  0  0  0  0  0  0  0  0  0  0
   -2.0670   22.9100  -29.1900 C   0  0  0  0  0  0  0  0  0  0  0  0
   -1.3510   22.4340  -30.3010 C   0  0  0  0  0  0  0  0  0  0  0  0
   -1.0300   21.0800  -30.4140 C   0  0  0  0  0  0  0  0  0  0  0  0
   -0.1200   20.5070  -31.8010 Cl  0  0  0  0  0  0  0  0  0  0  0  0
   -1.4300   20.1820  -29.4230 C   0  0  0  0  0  0  0  0  0  0  0  0
   -2.1610   20.6340  -28.3230 C   0  0  0  0  0  0  0  0  0  0  0  0
   -2.6660   19.4760  -27.0990 Cl  0  0  0  0  0  0  0  0  0  0  0  0
   -2.4950   21.9920  -28.1990 C   0  0  0  0  0  0  0  0  0  0  0  0
   -3.2530   22.3920  -27.0960 O   0  0  0  0  0  0  0  0  0  0  0  0
   -3.3444   22.8106  -31.6817 H   0  0  0  0  0  0  0  0  0  0  0  0
   -5.2506   21.4607  -32.5469 H   0  0  0  0  0  0  0  0  0  0  0  0
   -9.4883   20.3793  -30.9050 H   0  0  0  0  0  0  0  0  0  0  0  0
   -9.4599   17.8842  -30.9978 H   0  0  0  0  0  0  0  0  0  0  0  0
   -7.7867   16.7039  -32.4274 H   0  0  0  0  0  0  0  0  0  0  0  0
   -6.1254   18.0186  -33.7495 H   0  0  0  0  0  0  0  0  0  0  0  0
   -6.1488   20.5119  -33.6618 H   0  0  0  0  0  0  0  0  0  0  0  0
   -8.0376   24.3401  -30.9107 H   0  0  0  0  0  0  0  0  0  0  0  0
   -6.1319   25.6915  -30.0434 H   0  0  0  0  0  0  0  0  0  0  0  0
   -1.0402   23.1350  -31.0897 H   0  0  0  0  0  0  0  0  0  0  0  0
   -1.1689   19.1169  -29.5090 H   0  0  0  0  0  0  0  0  0  0  0  0
   -3.5250   23.3500  -26.9230 H   0  0  0  0  0  0  0  0  0  0  0  0
  1  2  2  0
  2  3  2  0
  2  4  1  0
  4  5  1  0
  5  6  2  0
  6  7  1  0
  7  8  2  0
  8  9  1  0
  9 10  1  0
 10 11  2  0
 11 12  1  0
 12 13  2  0
 13 14  1  0
 14 15  2  0
  8 16  1  0
 16 17  2  0
  2 18  1  0
 18 19  2  0
 19 20  1  0
 20 21  1  0
 20 22  2  0
 22 23  1  0
 23 24  1  0
 23 25  2  0
 25 26  1  0
 17  5  1  0
 25 18  1  0
 15 10  1  0
  6 27  1  0
  7 28  1  0
 11 29  1  0
 12 30  1  0
 13 31  1  0
 14 32  1  0
 15 33  1  0
 16 34  1  0
 17 35  1  0
 19 36  1  0
 22 37  1  0
 26 38  1  0
M  CHG  1   4  -1
M  END
>  <UniqueID>  (41) 
41

>  <SMILES>  (41) 
O=S(=O)([N-]c1ccc(Oc2ccccc2)cc1)c1cc(Cl)cc(Cl)c1O

>  <Energy>  (41) 
52.908246206671286

>  <Genealogy>  (41) 
O=S(=O)([N-]c1ccc(Oc2ccccc2)cc1)c1cc(Cl)cc(Cl)c1O (protonated)
O=S(=O)([N-]c1ccc(Oc2ccccc2)cc1)c1cc(Cl)cc(Cl)c1O (3D coordinates assigned)
O=S(=O)([N-]c1ccc(Oc2ccccc2)cc1)c1cc(Cl)cc(Cl)c1O (optimized conformer: 52.908246206671286 kcal/mol)

>  <smiles>  (41) 
O=S(=O)(Nc1ccc(Oc2ccccc2)cc1)c1cc(Cl)cc(Cl)c1O

>  <score_type>  (41) 
oracle

>  <origin>  (41) 
adgpu

>  <m_score__min__energy>  (41) 
-10.140000000000001

>  <m_primary>  (41) 
energy

$$$$
41:0
     RDKit          3D

 52 55  0  0  0  0  0  0  0  0999 V2000
    0.4390   20.4000  -31.2560 C   0  0  0  0  0  0  0  0  0  0  0  0
   -0.4790   20.6920  -30.1140 C   0  0  0  0  0  0  0  0  0  0  0  0
   -0.7480   19.6950  -29.1500 C   0  0  0  0  0  0  0  0  0  0  0  0
   -1.6060   19.9990  -28.0760 C   0  0  0  0  0  0  0  0  0  0  0  0
   -1.9210   18.9820  -27.0220 C   0  0  0  0  0  0  0  0  0  0  0  0
   -2.1600   21.2400  -28.0450 N   0  0  0  0  0  0  0  0  0  0  0  0
   -2.9610   21.7400  -27.1160 N   0  0  0  0  0  0  0  0  0  0  0  0
   -3.2210   23.0220  -27.4710 C   0  0  0  0  0  0  0  0  0  0  0  0
   -2.5720   23.3270  -28.6650 C   0  0  0  0  0  0  0  0  0  0  0  0
   -2.5440   24.6280  -29.3580 C   0  0  0  0  0  0  0  0  0  0  0  0
   -1.6490   25.4620  -29.0600 O   0  0  0  0  0  0  0  0  0  0  0  0
   -3.4780   24.9550  -30.3940 N   0  0  0  0  0  0  0  0  0  0  0  0
   -4.7920   24.3970  -30.5540 C   0  0  0  0  0  0  0  0  0  0  0  0
   -5.9490   25.1210  -30.2170 C   0  0  0  0  0  0  0  0  0  0  0  0
   -7.2130   24.5730  -30.4520 C   0  0  0  0  0  0  0  0  0  0  0  0
   -7.3340   23.3110  -31.0380 C   0  0  0  0  0  0  0  0  0  0  0  0
   -6.1880   22.5850  -31.3910 C   0  0  0  0  0  0  0  0  0  0  0  0
   -6.3390   21.0040  -32.1680 S   0  0  0  0  0  0  0  0  0  0  0  0
   -7.4820   21.0420  -33.1420 O   0  0  0  0  0  0  0  0  0  0  0  0
   -6.6540   19.9710  -31.1220 O   0  0  0  0  0  0  0  0  0  0  0  0
   -4.8820   20.5550  -33.0250 N   0  0  0  0  0  0  0  0  0  0  0  0
   -3.7440   20.4720  -32.0900 C   0  0  0  0  0  0  0  0  0  0  0  0
   -2.4120   20.3030  -32.8500 C   0  0  0  0  0  0  0  0  0  0  0  0
   -2.5910   19.5770  -34.1960 C   0  0  0  0  0  0  0  0  0  0  0  0
   -3.7560   18.5850  -34.1420 C   0  0  0  0  0  0  0  0  0  0  0  0
   -5.0830   19.2820  -33.7620 C   0  0  0  0  0  0  0  0  0  0  0  0
   -4.9190   23.1320  -31.1430 C   0  0  0  0  0  0  0  0  0  0  0  0
   -1.9100   22.1620  -28.9810 C   0  0  0  0  0  0  0  0  0  0  0  0
   -1.0690   21.9200  -30.0160 N   0  0  0  0  0  0  0  0  0  0  0  0
    1.4197   20.0880  -30.8676 H   0  0  0  0  0  0  0  0  0  0  0  0
    0.0143   19.5926  -31.8706 H   0  0  0  0  0  0  0  0  0  0  0  0
    0.5588   21.3044  -31.8706 H   0  0  0  0  0  0  0  0  0  0  0  0
   -0.2942   18.6968  -29.2372 H   0  0  0  0  0  0  0  0  0  0  0  0
   -1.7822   19.4301  -26.0270 H   0  0  0  0  0  0  0  0  0  0  0  0
   -2.9640   18.6503  -27.1325 H   0  0  0  0  0  0  0  0  0  0  0  0
   -1.2481   18.1189  -27.1325 H   0  0  0  0  0  0  0  0  0  0  0  0
   -3.8519   23.7191  -26.9000 H   0  0  0  0  0  0  0  0  0  0  0  0
   -5.8592   26.1209  -29.7674 H   0  0  0  0  0  0  0  0  0  0  0  0
   -8.1155   25.1374  -30.1745 H   0  0  0  0  0  0  0  0  0  0  0  0
   -8.3314   22.8856  -31.2230 H   0  0  0  0  0  0  0  0  0  0  0  0
   -4.6950   21.3210  -33.7160 H   0  0  0  0  0  0  0  0  0  0  0  0
   -3.7021   21.3945  -31.4923 H   0  0  0  0  0  0  0  0  0  0  0  0
   -3.8889   19.5965  -31.4400 H   0  0  0  0  0  0  0  0  0  0  0  0
   -1.9851   21.2988  -33.0400 H   0  0  0  0  0  0  0  0  0  0  0  0
   -1.7453   19.6906  -32.2252 H   0  0  0  0  0  0  0  0  0  0  0  0
   -2.7902   20.3214  -34.9810 H   0  0  0  0  0  0  0  0  0  0  0  0
   -1.6690   19.0184  -34.4146 H   0  0  0  0  0  0  0  0  0  0  0  0
   -3.8703   18.1151  -35.1300 H   0  0  0  0  0  0  0  0  0  0  0  0
   -3.5307   17.8328  -33.3716 H   0  0  0  0  0  0  0  0  0  0  0  0
   -5.6426   19.4962  -34.6845 H   0  0  0  0  0  0  0  0  0  0  0  0
   -5.6323   18.6005  -33.0958 H   0  0  0  0  0  0  0  0  0  0  0  0
   -4.0173   22.5629  -31.4132 H   0  0  0  0  0  0  0  0  0  0  0  0
  1  2  1  0
  2  3  1  0
  3  4  2  0
  4  5  1  0
  4  6  1  0
  6  7  1  0
  7  8  2  0
  8  9  1  0
  9 10  1  0
 10 11  2  0
 10 12  1  0
 12 13  1  0
 13 14  2  0
 14 15  1  0
 15 16  2  0
 16 17  1  0
 17 18  1  0
 18 19  2  0
 18 20  2  0
 18 21  1  0
 21 22  1  0
 22 23  1  0
 23 24  1  0
 24 25  1  0
 25 26  1  0
 17 27  2  0
  9 28  2  0
 28 29  1  0
 29  2  2  0
 28  6  1  0
 27 13  1  0
 26 21  1  0
  1 30  1  0
  1 31  1  0
  1 32  1  0
  3 33  1  0
  5 34  1  0
  5 35  1  0
  5 36  1  0
  8 37  1  0
 14 38  1  0
 15 39  1  0
 16 40  1  0
 21 41  1  0
 22 42  1  0
 22 43  1  0
 23 44  1  0
 23 45  1  0
 24 46  1  0
 24 47  1  0
 25 48  1  0
 25 49  1  0
 26 50  1  0
 26 51  1  0
 27 52  1  0
M  CHG  2  12  -1  21   1
M  END
>  <UniqueID>  (42) 
42

>  <SMILES>  (42) 
Cc1cc(C)n2ncc(C(=O)[N-]c3cccc(S(=O)(=O)[NH+]4CCCCC4)c3)c2n1

>  <Energy>  (42) 
97.35239579635436

>  <Genealogy>  (42) 
Cc1cc(C)n2ncc(C(=O)[N-]c3cccc(S(=O)(=O)[NH+]4CCCCC4)c3)c2n1 (protonated)
Cc1cc(C)n2ncc(C(=O)[N-]c3cccc(S(=O)(=O)[NH+]4CCCCC4)c3)c2n1 (3D coordinates assigned)
Cc1cc(C)n2ncc(C(=O)[N-]c3cccc(S(=O)(=O)[NH+]4CCCCC4)c3)c2n1 (nonaromatic ring conformer: 97.35239579635436 kcal/mol)

>  <smiles>  (42) 
Cc1cc(C)n2ncc(C(=O)Nc3cccc(S(=O)(=O)N4CCCCC4)c3)c2n1

>  <score_type>  (42) 
oracle

>  <origin>  (42) 
adgpu

>  <m_score__min__energy>  (42) 
-11.359999999999999

>  <m_primary>  (42) 
energy

$$$$
42:0
     RDKit          3D

 44 46  0  0  0  0  0  0  0  0999 V2000
   -9.4830   19.4300  -32.7030 C   0  0  0  0  0  0  0  0  0  0  0  0
   -8.2000   20.1510  -32.6530 N   0  0  2  0  0  0  0  0  0  0  0  0
   -7.1820   19.3320  -31.9550 C   0  0  0  0  0  0  0  0  0  0  0  0
   -5.9070   19.2230  -32.7580 C   0  0  0  0  0  0  0  0  0  0  0  0
   -5.8000   18.2860  -33.8000 C   0  0  0  0  0  0  0  0  0  0  0  0
   -4.5990   18.1490  -34.5030 C   0  0  0  0  0  0  0  0  0  0  0  0
   -3.4980   18.9430  -34.1710 C   0  0  0  0  0  0  0  0  0  0  0  0
   -3.5950   19.8750  -33.1340 C   0  0  0  0  0  0  0  0  0  0  0  0
   -4.7940   20.0140  -32.4280 C   0  0  0  0  0  0  0  0  0  0  0  0
   -8.3870   21.4260  -31.9850 C   0  0  0  0  0  0  0  0  0  0  0  0
   -9.5600   21.8220  -31.7270 O   0  0  0  0  0  0  0  0  0  0  0  0
   -7.2420   22.2960  -31.5950 C   0  0  0  0  0  0  0  0  0  0  0  0
   -6.8420   23.3980  -32.3750 C   0  0  0  0  0  0  0  0  0  0  0  0
   -5.7490   24.1810  -31.9910 C   0  0  0  0  0  0  0  0  0  0  0  0
   -5.0320   23.8830  -30.8290 C   0  0  0  0  0  0  0  0  0  0  0  0
   -3.9180   24.7140  -30.4770 N   0  0  0  0  0  0  0  0  0  0  0  0
   -2.7620   24.3620  -29.2330 S   0  0  0  0  0  0  0  0  0  0  0  0
   -1.6150   25.3290  -29.3160 O   0  0  0  0  0  0  0  0  0  0  0  0
   -3.4290   24.4610  -27.8900 O   0  0  0  0  0  0  0  0  0  0  0  0
   -2.1580   22.7320  -29.4540 C   0  0  0  0  0  0  0  0  0  0  0  0
   -1.2680   22.3200  -30.4360 C   0  0  0  0  0  0  0  0  0  0  0  0
   -0.9630   20.9570  -30.3560 C   0  0  0  0  0  0  0  0  0  0  0  0
   -1.6080   20.3010  -29.3140 C   0  0  0  0  0  0  0  0  0  0  0  0
   -2.5600   21.4180  -28.4900 S   0  0  0  0  0  0  0  0  0  0  0  0
   -5.4190   22.7810  -30.0490 C   0  0  0  0  0  0  0  0  0  0  0  0
   -6.5100   21.9960  -30.4320 C   0  0  0  0  0  0  0  0  0  0  0  0
   -9.8332   19.2332  -31.6790 H   0  0  0  0  0  0  0  0  0  0  0  0
  -10.2271   20.0421  -33.2337 H   0  0  0  0  0  0  0  0  0  0  0  0
   -9.3471   18.4761  -33.2337 H   0  0  0  0  0  0  0  0  0  0  0  0
   -7.9070   20.2880  -33.6480 H   0  0  0  0  0  0  0  0  0  0  0  0
   -6.9537   19.7975  -30.9849 H   0  0  0  0  0  0  0  0  0  0  0  0
   -7.5900   18.3195  -31.8197 H   0  0  0  0  0  0  0  0  0  0  0  0
   -6.6640   17.6582  -34.0635 H   0  0  0  0  0  0  0  0  0  0  0  0
   -4.5208   17.4151  -35.3186 H   0  0  0  0  0  0  0  0  0  0  0  0
   -2.5546   18.8344  -34.7261 H   0  0  0  0  0  0  0  0  0  0  0  0
   -2.7278   20.4994  -32.8731 H   0  0  0  0  0  0  0  0  0  0  0  0
   -4.8660   20.7462  -31.6103 H   0  0  0  0  0  0  0  0  0  0  0  0
   -7.3939   23.6449  -33.2939 H   0  0  0  0  0  0  0  0  0  0  0  0
   -5.4505   25.0401  -32.6097 H   0  0  0  0  0  0  0  0  0  0  0  0
   -0.8470   22.9938  -31.1967 H   0  0  0  0  0  0  0  0  0  0  0  0
   -0.2773   20.4520  -31.0522 H   0  0  0  0  0  0  0  0  0  0  0  0
   -1.5124   19.2328  -29.0694 H   0  0  0  0  0  0  0  0  0  0  0  0
   -4.8614   22.5349  -29.1333 H   0  0  0  0  0  0  0  0  0  0  0  0
   -6.8001   21.1322  -29.8158 H   0  0  0  0  0  0  0  0  0  0  0  0
  1  2  1  0
  2  3  1  0
  3  4  1  0
  4  5  2  0
  5  6  1  0
  6  7  2  0
  7  8  1  0
  8  9  2  0
  2 10  1  0
 10 11  2  0
 10 12  1  0
 12 13  2  0
 13 14  1  0
 14 15  2  0
 15 16  1  0
 16 17  1  0
 17 18  2  0
 17 19  2  0
 17 20  1  0
 20 21  2  0
 21 22  1  0
 22 23  2  0
 23 24  1  0
 15 25  1  0
 25 26  2  0
  9  4  1  0
 26 12  1  0
 24 20  1  0
  1 27  1  0
  1 28  1  0
  1 29  1  0
  2 30  1  6
  3 31  1  0
  3 32  1  0
  5 33  1  0
  6 34  1  0
  7 35  1  0
  8 36  1  0
  9 37  1  0
 13 38  1  0
 14 39  1  0
 21 40  1  0
 22 41  1  0
 23 42  1  0
 25 43  1  0
 26 44  1  0
M  CHG  2   2   1  16  -1
M  END
>  <UniqueID>  (43) 
43

>  <SMILES>  (43) 
C[N@H+](Cc1ccccc1)C(=O)c1ccc([N-]S(=O)(=O)c2cccs2)cc1

>  <Energy>  (43) 
80.19656347866695

>  <Genealogy>  (43) 
C[NH+](Cc1ccccc1)C(=O)c1ccc([N-]S(=O)(=O)c2cccs2)cc1 (protonated)
C[N@H+](Cc1ccccc1)C(=O)c1ccc([N-]S(=O)(=O)c2cccs2)cc1 (chirality)
C[N@H+](Cc1ccccc1)C(=O)c1ccc([N-]S(=O)(=O)c2cccs2)cc1 (3D coordinates assigned)
C[N@H+](Cc1ccccc1)C(=O)c1ccc([N-]S(=O)(=O)c2cccs2)cc1 (optimized conformer: 80.19656347866695 kcal/mol)

>  <smiles>  (43) 
CN(Cc1ccccc1)C(=O)c1ccc(NS(=O)(=O)c2cccs2)cc1

>  <score_type>  (43) 
oracle

>  <origin>  (43) 
adgpu

>  <m_score__min__energy>  (43) 
-10.23

>  <m_primary>  (43) 
energy

$$$$
43:0
     RDKit          3D

 64 67  0  0  0  0  0  0  0  0999 V2000
    1.5850   19.0750  -27.9170 C   0  0  0  0  0  0  0  0  0  0  0  0
    0.8770   20.3090  -27.9940 O   0  0  0  0  0  0  0  0  0  0  0  0
   -0.0160   20.6520  -29.0240 C   0  0  0  0  0  0  0  0  0  0  0  0
   -0.4060   19.7170  -30.0020 C   0  0  0  0  0  0  0  0  0  0  0  0
   -1.2930   20.0790  -31.0170 C   0  0  0  0  0  0  0  0  0  0  0  0
   -1.8200   21.3760  -31.0700 C   0  0  0  0  0  0  0  0  0  0  0  0
   -2.8040   21.7480  -32.1140 C   0  0  0  0  0  0  0  0  0  0  0  0
   -2.9700   20.9880  -33.1060 O   0  0  0  0  0  0  0  0  0  0  0  0
   -3.5990   22.9380  -32.0160 N   0  0  0  0  0  0  0  0  0  0  0  0
   -4.9830   22.9890  -31.6280 C   0  0  0  0  0  0  0  0  0  0  0  0
   -5.8210   21.8780  -31.8240 C   0  0  0  0  0  0  0  0  0  0  0  0
   -7.1900   21.9460  -31.5400 C   0  0  0  0  0  0  0  0  0  0  0  0
   -8.2860   20.6240  -31.9840 S   0  0  0  0  0  0  0  0  0  0  0  0
   -9.4650   21.2140  -32.7070 O   0  0  0  0  0  0  0  0  0  0  0  0
   -8.7850   19.9780  -30.7200 O   0  0  0  0  0  0  0  0  0  0  0  0
   -7.5580   19.3690  -32.9660 N   0  0  0  0  0  0  0  0  0  0  0  0
   -6.4960   19.9080  -33.8490 C   0  0  0  0  0  0  0  0  0  0  0  0
   -5.4640   18.8280  -34.2180 C   0  0  0  0  0  0  0  0  0  0  0  0
   -6.0930   17.5680  -34.3070 O   0  0  0  0  0  0  0  0  0  0  0  0
   -6.5030   17.1230  -33.0220 C   0  0  0  0  0  0  0  0  0  0  0  0
   -7.0860   18.2490  -32.1330 C   0  0  0  0  0  0  0  0  0  0  0  0
   -7.7160   23.1370  -31.0210 C   0  0  0  0  0  0  0  0  0  0  0  0
   -6.8820   24.2280  -30.7660 C   0  0  0  0  0  0  0  0  0  0  0  0
   -5.5130   24.1620  -31.0590 C   0  0  0  0  0  0  0  0  0  0  0  0
   -4.6820   25.3020  -30.8200 N   0  0  0  0  0  0  0  0  0  0  0  0
   -1.4290   22.3130  -30.1030 C   0  0  0  0  0  0  0  0  0  0  0  0
   -0.5330   21.9610  -29.0800 C   0  0  0  0  0  0  0  0  0  0  0  0
   -0.0900   23.1740  -27.8680 S   0  0  0  0  0  0  0  0  0  0  0  0
    0.8410   22.5690  -26.8530 O   0  0  0  0  0  0  0  0  0  0  0  0
    0.6410   24.2940  -28.5580 O   0  0  0  0  0  0  0  0  0  0  0  0
   -1.5300   23.7980  -27.0920 N   0  0  0  0  0  0  0  0  0  0  0  0
   -2.6240   23.9120  -28.0710 C   0  0  0  0  0  0  0  0  0  0  0  0
   -3.8850   24.5060  -27.4070 C   0  0  0  0  0  0  0  0  0  0  0  0
   -3.6570   24.8680  -26.0570 O   0  0  0  0  0  0  0  0  0  0  0  0
   -2.5670   25.7650  -25.9810 C   0  0  0  0  0  0  0  0  0  0  0  0
   -1.2600   25.1090  -26.4770 C   0  0  0  0  0  0  0  0  0  0  0  0
    1.7393   18.8060  -26.8616 H   0  0  0  0  0  0  0  0  0  0  0  0
    1.0021   18.2862  -28.4150 H   0  0  0  0  0  0  0  0  0  0  0  0
    2.5602   19.1801  -28.4150 H   0  0  0  0  0  0  0  0  0  0  0  0
   -0.0080   18.6921  -29.9657 H   0  0  0  0  0  0  0  0  0  0  0  0
   -1.5802   19.3410  -31.7805 H   0  0  0  0  0  0  0  0  0  0  0  0
   -5.3940   20.9394  -32.2070 H   0  0  0  0  0  0  0  0  0  0  0  0
   -8.3210   18.9980  -33.5820 H   0  0  0  0  0  0  0  0  0  0  0  0
   -6.9583   20.2900  -34.7712 H   0  0  0  0  0  0  0  0  0  0  0  0
   -5.9745   20.7119  -33.3088 H   0  0  0  0  0  0  0  0  0  0  0  0
   -5.0079   19.0765  -35.1877 H   0  0  0  0  0  0  0  0  0  0  0  0
   -4.6883   18.7895  -33.4390 H   0  0  0  0  0  0  0  0  0  0  0  0
   -7.2731   16.3483  -33.1516 H   0  0  0  0  0  0  0  0  0  0  0  0
   -5.6066   16.7406  -32.5118 H   0  0  0  0  0  0  0  0  0  0  0  0
   -7.9293   17.8504  -31.5500 H   0  0  0  0  0  0  0  0  0  0  0  0
   -6.2983   18.6141  -31.4575 H   0  0  0  0  0  0  0  0  0  0  0  0
   -8.7935   23.2130  -30.8130 H   0  0  0  0  0  0  0  0  0  0  0  0
   -7.3031   25.1467  -30.3316 H   0  0  0  0  0  0  0  0  0  0  0  0
   -4.6700   25.7840  -29.8920 H   0  0  0  0  0  0  0  0  0  0  0  0
   -4.0880   25.6920  -31.5840 H   0  0  0  0  0  0  0  0  0  0  0  0
   -1.8290   23.3368  -30.1460 H   0  0  0  0  0  0  0  0  0  0  0  0
   -2.3057   24.5679  -28.8947 H   0  0  0  0  0  0  0  0  0  0  0  0
   -2.8633   22.9094  -28.4551 H   0  0  0  0  0  0  0  0  0  0  0  0
   -4.1922   25.4015  -27.9671 H   0  0  0  0  0  0  0  0  0  0  0  0
   -4.6703   23.7359  -27.4228 H   0  0  0  0  0  0  0  0  0  0  0  0
   -2.7841   26.6452  -26.6039 H   0  0  0  0  0  0  0  0  0  0  0  0
   -2.4306   26.0547  -24.9286 H   0  0  0  0  0  0  0  0  0  0  0  0
   -0.7877   25.7659  -27.2222 H   0  0  0  0  0  0  0  0  0  0  0  0
   -0.5918   24.9621  -25.6157 H   0  0  0  0  0  0  0  0  0  0  0  0
  1  2  1  0
  2  3  1  0
  3  4  2  0
  4  5  1  0
  5  6  2  0
  6  7  1  0
  7  8  2  0
  7  9  1  0
  9 10  1  0
 10 11  2  0
 11 12  1  0
 12 13  1  0
 13 14  2  0
 13 15  2  0
 13 16  1  0
 16 17  1  0
 17 18  1  0
 18 19  1  0
 19 20  1  0
 20 21  1  0
 12 22  2  0
 22 23  1  0
 23 24  2  0
 24 25  1  0
  6 26  1  0
 26 27  2  0
 27 28  1  0
 28 29  2  0
 28 30  2  0
 28 31  1  0
 31 32  1  0
 32 33  1  0
 33 34  1  0
 34 35  1  0
 35 36  1  0
 27  3  1  0
 36 31  1  0
 24 10  1  0
 21 16  1  0
  1 37  1  0
  1 38  1  0
  1 39  1  0
  4 40  1  0
  5 41  1  0
 11 42  1  0
 16 43  1  0
 17 44  1  0
 17 45  1  0
 18 46  1  0
 18 47  1  0
 20 48  1  0
 20 49  1  0
 21 50  1  0
 21 51  1  0
 22 52  1  0
 23 53  1  0
 25 54  1  0
 25 55  1  0
 26 56  1  0
 32 57  1  0
 32 58  1  0
 33 59  1  0
 33 60  1  0
 35 61  1  0
 35 62  1  0
 36 63  1  0
 36 64  1  0
M  CHG  2   9  -1  16   1
M  END
>  <UniqueID>  (44) 
44

>  <SMILES>  (44) 
COc1ccc(C(=O)[N-]c2cc(S(=O)(=O)[NH+]3CCOCC3)ccc2N)cc1S(=O)(=O)N1CCOCC1

>  <Energy>  (44) 
87.06421006438654

>  <Genealogy>  (44) 
COc1ccc(C(=O)[N-]c2cc(S(=O)(=O)[NH+]3CCOCC3)ccc2N)cc1S(=O)(=O)N1CCOCC1 (protonated)
COc1ccc(C(=O)[N-]c2cc(S(=O)(=O)[NH+]3CCOCC3)ccc2N)cc1S(=O)(=O)N1CCOCC1 (3D coordinates assigned)
COc1ccc(C(=O)[N-]c2cc(S(=O)(=O)[NH+]3CCOCC3)ccc2N)cc1S(=O)(=O)N1CCOCC1 (nonaromatic ring conformer: 87.06421006438654 kcal/mol)

>  <smiles>  (44) 
COc1ccc(C(=O)Nc2cc(S(=O)(=O)N3CCOCC3)ccc2N)cc1S(=O)(=O)N1CCOCC1

>  <score_type>  (44) 
oracle

>  <origin>  (44) 
adgpu

>  <m_score__min__energy>  (44) 
-11.35

>  <m_primary>  (44) 
energy

$$$$
44:0
     RDKit          3D

 38 39  0  0  0  0  0  0  0  0999 V2000
   -6.4130   15.3280  -34.1800 C   0  0  0  0  0  0  0  0  0  0  0  0
   -6.6490   16.7300  -33.7140 C   0  0  0  0  0  0  0  0  0  0  0  0
   -5.9060   17.7880  -34.2460 C   0  0  0  0  0  0  0  0  0  0  0  0
   -6.1330   19.0840  -33.7840 C   0  0  0  0  0  0  0  0  0  0  0  0
   -7.1020   19.3270  -32.7980 C   0  0  0  0  0  0  0  0  0  0  0  0
   -7.3330   20.7150  -32.3300 C   0  0  0  0  0  0  0  0  0  0  0  0
   -7.0160   21.6780  -33.0800 O   0  0  0  0  0  0  0  0  0  0  0  0
   -7.9430   20.9740  -31.0550 N   0  0  0  0  0  0  0  0  0  0  0  0
   -8.1170   22.3260  -30.5330 C   0  0  0  0  0  0  0  0  0  0  0  0
   -6.7880   23.0230  -30.4340 C   0  0  0  0  0  0  0  0  0  0  0  0
   -6.7200   24.4060  -30.2140 C   0  0  0  0  0  0  0  0  0  0  0  0
   -5.4810   25.0440  -30.1000 C   0  0  0  0  0  0  0  0  0  0  0  0
   -4.2880   24.3050  -30.2030 C   0  0  0  0  0  0  0  0  0  0  0  0
   -3.0010   24.9290  -30.0900 N   0  0  0  0  0  0  0  0  0  0  0  0
   -2.0520   25.0160  -28.6420 S   0  0  0  0  0  0  0  0  0  0  0  0
   -0.8870   23.6730  -28.6370 C   0  0  0  0  0  0  0  0  0  0  0  0
   -1.3030   26.3170  -28.5990 O   0  0  0  0  0  0  0  0  0  0  0  0
   -2.9440   24.8970  -27.4390 O   0  0  0  0  0  0  0  0  0  0  0  0
   -4.3570   22.9180  -30.4210 C   0  0  0  0  0  0  0  0  0  0  0  0
   -2.8930   21.9530  -30.5500 Cl  0  0  0  0  0  0  0  0  0  0  0  0
   -5.6000   22.2840  -30.5340 C   0  0  0  0  0  0  0  0  0  0  0  0
   -7.8070   18.2260  -32.2670 C   0  0  0  0  0  0  0  0  0  0  0  0
   -8.6440   18.3780  -31.3380 O   0  0  0  0  0  0  0  0  0  0  0  0
   -7.5640   16.9730  -32.7380 N   0  0  0  0  0  0  0  0  0  0  0  0
   -6.3015   14.6659  -33.3087 H   0  0  0  0  0  0  0  0  0  0  0  0
   -7.2677   14.9946  -34.7870 H   0  0  0  0  0  0  0  0  0  0  0  0
   -5.4963   15.2928  -34.7870 H   0  0  0  0  0  0  0  0  0  0  0  0
   -5.1493   17.5999  -35.0219 H   0  0  0  0  0  0  0  0  0  0  0  0
   -5.5492   19.9209  -34.1947 H   0  0  0  0  0  0  0  0  0  0  0  0
   -8.3450   20.1830  -30.5030 H   0  0  0  0  0  0  0  0  0  0  0  0
   -8.7749   22.8935  -31.2077 H   0  0  0  0  0  0  0  0  0  0  0  0
   -8.5655   22.2672  -29.5303 H   0  0  0  0  0  0  0  0  0  0  0  0
   -7.6468   24.9926  -30.1306 H   0  0  0  0  0  0  0  0  0  0  0  0
   -5.4387   26.1298  -29.9288 H   0  0  0  0  0  0  0  0  0  0  0  0
   -0.6486   23.3982  -27.5989 H   0  0  0  0  0  0  0  0  0  0  0  0
   -1.3242   22.8064  -29.1545 H   0  0  0  0  0  0  0  0  0  0  0  0
    0.0327   23.9835  -29.1545 H   0  0  0  0  0  0  0  0  0  0  0  0
   -5.6454   21.1979  -30.7025 H   0  0  0  0  0  0  0  0  0  0  0  0
  1  2  1  0
  2  3  2  0
  3  4  1  0
  4  5  2  0
  5  6  1  0
  6  7  2  0
  6  8  1  0
  8  9  1  0
  9 10  1  0
 10 11  2  0
 11 12  1  0
 12 13  2  0
 13 14  1  0
 14 15  1  0
 15 16  1  0
 15 17  2  0
 15 18  2  0
 13 19  1  0
 19 20  1  0
 19 21  2  0
  5 22  1  0
 22 23  2  0
 22 24  1  0
 24  2  1  0
 21 10  1  0
  1 25  1  0
  1 26  1  0
  1 27  1  0
  3 28  1  0
  4 29  1  0
  8 30  1  0
  9 31  1  0
  9 32  1  0
 11 33  1  0
 12 34  1  0
 16 35  1  0
 16 36  1  0
 16 37  1  0
 21 38  1  0
M  CHG  2  14  -1  24  -1
M  END
>  <UniqueID>  (45) 
45

>  <SMILES>  (45) 
Cc1ccc(C(=O)NCc2ccc([N-]S(C)(=O)=O)c(Cl)c2)c(=O)[n-]1

>  <Energy>  (45) 
39.38852275030598

>  <Genealogy>  (45) 
Cc1ccc(C(=O)NCc2ccc([N-]S(C)(=O)=O)c(Cl)c2)c(=O)[n-]1 (protonated)
Cc1ccc(C(=O)NCc2ccc([N-]S(C)(=O)=O)c(Cl)c2)c(=O)[n-]1 (3D coordinates assigned)
Cc1ccc(C(=O)NCc2ccc([N-]S(C)(=O)=O)c(Cl)c2)c(=O)[n-]1 (optimized conformer: 39.38852275030598 kcal/mol)

>  <smiles>  (45) 
Cc1ccc(C(=O)NCc2ccc(NS(C)(=O)=O)c(Cl)c2)c(=O)[nH]1

>  <score_type>  (45) 
oracle

>  <origin>  (45) 
adgpu

>  <m_score__min__energy>  (45) 
-10.130000000000001

>  <m_primary>  (45) 
energy

$$$$
45:0
     RDKit          3D

 52 55  0  0  0  0  0  0  0  0999 V2000
   -6.7740   17.5620  -32.6100 C   0  0  0  0  0  0  0  0  0  0  0  0
   -7.4650   18.8520  -32.3620 C   0  0  0  0  0  0  0  0  0  0  0  0
   -8.8390   18.8690  -32.3790 C   0  0  0  0  0  0  0  0  0  0  0  0
   -9.4430   20.0810  -32.1470 C   0  0  0  0  0  0  0  0  0  0  0  0
   -8.7180   21.2410  -31.9070 C   0  0  0  0  0  0  0  0  0  0  0  0
   -9.4730   22.3830  -31.6960 O   0  0  0  0  0  0  0  0  0  0  0  0
   -7.3170   21.2380  -31.8870 C   0  0  0  0  0  0  0  0  0  0  0  0
   -6.6510   22.4740  -31.5510 C   0  0  0  0  0  0  0  0  0  0  0  0
   -7.2880   23.6790  -31.6230 N   0  0  0  0  0  0  0  0  0  0  0  0
   -6.4800   24.6680  -31.3730 N   0  0  0  0  0  0  0  0  0  0  0  0
   -5.2830   24.1450  -31.1260 C   0  0  0  0  0  0  0  0  0  0  0  0
   -4.2770   24.8580  -30.8420 O   0  0  0  0  0  0  0  0  0  0  0  0
   -5.3420   22.7420  -31.2290 C   0  0  0  0  0  0  0  0  0  0  0  0
   -4.1980   21.9210  -30.9910 C   0  0  0  0  0  0  0  0  0  0  0  0
   -3.8760   20.8330  -31.5000 O   0  0  0  0  0  0  0  0  0  0  0  0
   -3.2080   22.4150  -29.9840 C   0  0  0  0  0  0  0  0  0  0  0  0
   -1.9330   22.5940  -30.4610 C   0  0  0  0  0  0  0  0  0  0  0  0
   -0.9870   23.0920  -29.5540 C   0  0  0  0  0  0  0  0  0  0  0  0
   -1.3270   23.3850  -28.2510 C   0  0  0  0  0  0  0  0  0  0  0  0
   -0.2030   24.0100  -27.0760 S   0  0  0  0  0  0  0  0  0  0  0  0
    0.7490   24.9350  -27.7910 O   0  0  0  0  0  0  0  0  0  0  0  0
    0.5800   22.8630  -26.5080 O   0  0  0  0  0  0  0  0  0  0  0  0
   -0.9780   24.8410  -25.8080 N   0  0  0  0  0  0  0  0  0  0  0  0
   -1.7410   25.9730  -26.2150 C   0  0  0  0  0  0  0  0  0  0  0  0
   -1.2360   27.2860  -25.6990 C   0  0  0  0  0  0  0  0  0  0  0  0
   -0.6820   27.2580  -24.4470 O   0  0  0  0  0  0  0  0  0  0  0  0
   -0.8270   26.0640  -23.7840 C   0  0  0  0  0  0  0  0  0  0  0  0
   -0.1790   24.9950  -24.6390 C   0  0  0  0  0  0  0  0  0  0  0  0
   -2.6330   23.1820  -27.8300 C   0  0  0  0  0  0  0  0  0  0  0  0
   -3.5940   22.6940  -28.6910 C   0  0  0  0  0  0  0  0  0  0  0  0
   -6.7300   20.0250  -32.1180 C   0  0  0  0  0  0  0  0  0  0  0  0
   -6.5215   17.0906  -31.6488 H   0  0  0  0  0  0  0  0  0  0  0  0
   -7.4359   16.8956  -33.1825 H   0  0  0  0  0  0  0  0  0  0  0  0
   -5.8525   17.7438  -33.1825 H   0  0  0  0  0  0  0  0  0  0  0  0
   -9.4257   17.9581  -32.5688 H   0  0  0  0  0  0  0  0  0  0  0  0
  -10.5417   20.1346  -32.1515 H   0  0  0  0  0  0  0  0  0  0  0  0
  -10.1440   22.3160  -30.9210 H   0  0  0  0  0  0  0  0  0  0  0  0
   -8.3140   23.8560  -31.8350 H   0  0  0  0  0  0  0  0  0  0  0  0
   -6.7200   25.7000  -31.3660 H   0  0  0  0  0  0  0  0  0  0  0  0
   -1.6672   22.3586  -31.5021 H   0  0  0  0  0  0  0  0  0  0  0  0
    0.0483   23.2522  -29.8894 H   0  0  0  0  0  0  0  0  0  0  0  0
   -1.7365   26.0121  -27.3143 H   0  0  0  0  0  0  0  0  0  0  0  0
   -2.7471   25.8385  -25.7912 H   0  0  0  0  0  0  0  0  0  0  0  0
   -0.4709   27.6527  -26.3991 H   0  0  0  0  0  0  0  0  0  0  0  0
   -2.1188   27.9377  -25.6220 H   0  0  0  0  0  0  0  0  0  0  0  0
   -0.3306   26.1146  -22.8037 H   0  0  0  0  0  0  0  0  0  0  0  0
   -1.8902   25.8377  -23.6155 H   0  0  0  0  0  0  0  0  0  0  0  0
    0.8395   25.3030  -24.9178 H   0  0  0  0  0  0  0  0  0  0  0  0
   -0.1110   24.0456  -24.0877 H   0  0  0  0  0  0  0  0  0  0  0  0
   -2.9074   23.4144  -26.7904 H   0  0  0  0  0  0  0  0  0  0  0  0
   -4.6300   22.5336  -28.3577 H   0  0  0  0  0  0  0  0  0  0  0  0
   -5.6317   19.9642  -32.1127 H   0  0  0  0  0  0  0  0  0  0  0  0
  1  2  1  0
  2  3  2  0
  3  4  1  0
  4  5  2  0
  5  6  1  0
  5  7  1  0
  7  8  1  0
  8  9  1  0
  9 10  1  0
 10 11  1  0
 11 12  2  0
 11 13  1  0
 13 14  1  0
 14 15  2  0
 14 16  1  0
 16 17  2  0
 17 18  1  0
 18 19  2  0
 19 20  1  0
 20 21  2  0
 20 22  2  0
 20 23  1  0
 23 24  1  0
 24 25  1  0
 25 26  1  0
 26 27  1  0
 27 28  1  0
 19 29  1  0
 29 30  2  0
  7 31  2  0
 31  2  1  0
 13  8  2  0
 30 16  1  0
 28 23  1  0
  1 32  1  0
  1 33  1  0
  1 34  1  0
  3 35  1  0
  4 36  1  0
  6 37  1  0
  9 38  1  0
 10 39  1  0
 17 40  1  0
 18 41  1  0
 24 42  1  0
 24 43  1  0
 25 44  1  0
 25 45  1  0
 27 46  1  0
 27 47  1  0
 28 48  1  0
 28 49  1  0
 29 50  1  0
 30 51  1  0
 31 52  1  0
M  END
>  <smiles>  (46) 
Cc1ccc(O)c(-c2[nH][nH]c(=O)c2C(=O)c2ccc(S(=O)(=O)N3CCOCC3)cc2)c1

>  <score_type>  (46) 
oracle

>  <origin>  (46) 
adgpu

>  <m_score__min__energy>  (46) 
-9.75

>  <m_primary>  (46) 
energy

$$$$
46:0
     RDKit          3D

 41 43  0  0  0  0  0  0  0  0999 V2000
   -4.4240   16.9720  -33.8800 N   0  0  0  0  0  0  0  0  0  0  0  0
   -3.6050   17.9610  -33.7340 C   0  0  0  0  0  0  0  0  0  0  0  0
   -2.4780   18.0900  -34.4640 N   0  0  0  0  0  0  0  0  0  0  0  0
   -1.7950   19.2120  -34.1110 C   0  0  0  0  0  0  0  0  0  0  0  0
   -0.5950   19.5560  -34.7190 O   0  0  0  0  0  0  0  0  0  0  0  0
   -2.3840   19.9770  -33.1050 C   0  0  0  0  0  0  0  0  0  0  0  0
   -1.8270   21.2310  -32.5000 C   0  0  0  0  0  0  0  0  0  0  0  0
   -2.7510   21.7930  -31.4510 C   0  0  0  0  0  0  0  0  0  0  0  0
   -2.9170   21.1630  -30.3720 O   0  0  0  0  0  0  0  0  0  0  0  0
   -3.3250   23.1020  -31.5750 N   0  0  0  0  0  0  0  0  0  0  0  0
   -4.6350   23.4820  -31.1410 C   0  0  0  0  0  0  0  0  0  0  0  0
   -5.7010   22.5960  -31.3390 C   0  0  0  0  0  0  0  0  0  0  0  0
   -6.9980   22.9440  -30.9380 C   0  0  0  0  0  0  0  0  0  0  0  0
   -8.3400   21.8310  -31.1890 S   0  0  0  0  0  0  0  0  0  0  0  0
   -9.1640   21.7340  -29.9350 O   0  0  0  0  0  0  0  0  0  0  0  0
   -9.2110   22.3620  -32.2940 O   0  0  0  0  0  0  0  0  0  0  0  0
   -7.7260   20.2580  -31.6320 N   0  0  0  0  0  0  0  0  0  0  0  0
   -8.7480   19.2270  -31.3760 C   0  0  0  0  0  0  0  0  0  0  0  0
   -8.3570   17.8870  -32.0310 C   0  0  0  0  0  0  0  0  0  0  0  0
   -7.0000   17.8950  -32.4290 O   0  0  0  0  0  0  0  0  0  0  0  0
   -6.8050   18.8590  -33.4480 C   0  0  0  0  0  0  0  0  0  0  0  0
   -7.3400   20.2520  -33.0500 C   0  0  0  0  0  0  0  0  0  0  0  0
   -7.2320   24.2000  -30.3650 C   0  0  0  0  0  0  0  0  0  0  0  0
   -6.1780   25.1020  -30.1950 C   0  0  0  0  0  0  0  0  0  0  0  0
   -4.8840   24.7540  -30.5930 C   0  0  0  0  0  0  0  0  0  0  0  0
   -3.8600   25.6850  -30.4680 O   0  0  0  0  0  0  0  0  0  0  0  0
   -3.8080   19.2130  -32.6260 S   0  0  0  0  0  0  0  0  0  0  0  0
   -5.2890   16.8960  -33.2990 H   0  0  0  0  0  0  0  0  0  0  0  0
   -0.8556   21.0039  -32.0366 H   0  0  0  0  0  0  0  0  0  0  0  0
   -1.7135   21.9795  -33.2981 H   0  0  0  0  0  0  0  0  0  0  0  0
   -5.5192   21.6200  -31.8126 H   0  0  0  0  0  0  0  0  0  0  0  0
   -8.8478   19.0811  -30.2903 H   0  0  0  0  0  0  0  0  0  0  0  0
   -9.7016   19.5636  -31.8088 H   0  0  0  0  0  0  0  0  0  0  0  0
   -8.5151   17.0733  -31.3078 H   0  0  0  0  0  0  0  0  0  0  0  0
   -8.9832   17.7366  -32.9228 H   0  0  0  0  0  0  0  0  0  0  0  0
   -5.7279   18.9403  -33.6560 H   0  0  0  0  0  0  0  0  0  0  0  0
   -7.3627   18.5264  -34.3359 H   0  0  0  0  0  0  0  0  0  0  0  0
   -6.5552   21.0045  -33.2167 H   0  0  0  0  0  0  0  0  0  0  0  0
   -8.2214   20.4884  -33.6643 H   0  0  0  0  0  0  0  0  0  0  0  0
   -8.2481   24.4775  -30.0478 H   0  0  0  0  0  0  0  0  0  0  0  0
   -6.3673   26.0885  -29.7467 H   0  0  0  0  0  0  0  0  0  0  0  0
  1  2  2  3
  2  3  1  0
  3  4  1  0
  4  5  1  0
  4  6  2  0
  6  7  1  0
  7  8  1  0
  8  9  2  0
  8 10  1  0
 10 11  1  0
 11 12  2  0
 12 13  1  0
 13 14  1  0
 14 15  2  0
 14 16  2  0
 14 17  1  0
 17 18  1  0
 18 19  1  0
 19 20  1  0
 20 21  1  0
 21 22  1  0
 13 23  2  0
 23 24  1  0
 24 25  2  0
 25 26  1  0
  6 27  1  0
 27  2  1  0
 25 11  1  0
 22 17  1  0
  1 28  1  0
  7 29  1  0
  7 30  1  0
 12 31  1  0
 18 32  1  0
 18 33  1  0
 19 34  1  0
 19 35  1  0
 21 36  1  0
 21 37  1  0
 22 38  1  0
 22 39  1  0
 23 40  1  0
 24 41  1  0
M  CHG  4   3  -1   5  -1  10  -1  26  -1
M  END
>  <UniqueID>  (47) 
46

>  <SMILES>  (47) 
N=c1[n-]c([O-])c(CC(=O)[N-]c2cc(S(=O)(=O)N3CCOCC3)ccc2[O-])s1

>  <Energy>  (47) 
85.71114235818438

>  <Genealogy>  (47) 
N=c1[n-]c([O-])c(CC(=O)[N-]c2cc(S(=O)(=O)N3CCOCC3)ccc2[O-])s1 (protonated)
N=c1[n-]c([O-])c(CC(=O)[N-]c2cc(S(=O)(=O)N3CCOCC3)ccc2[O-])s1 (3D coordinates assigned)
N=c1[n-]c([O-])c(CC(=O)[N-]c2cc(S(=O)(=O)N3CCOCC3)ccc2[O-])s1 (nonaromatic ring conformer: 85.71114235818438 kcal/mol)

>  <smiles>  (47) 
N=c1[nH]c(O)c(CC(=O)Nc2cc(S(=O)(=O)N3CCOCC3)ccc2O)s1

>  <score_type>  (47) 
oracle

>  <origin>  (47) 
adgpu

>  <m_score__min__energy>  (47) 
-16.370000000000001

>  <m_primary>  (47) 
energy

$$$$
47:0
     RDKit          3D

 73 77  0  0  0  0  0  0  0  0999 V2000
   -0.0780   19.8730  -27.8420 C   0  0  0  0  0  0  0  0  0  0  0  0
   -0.3790   18.8760  -28.9560 C   0  0  0  0  0  0  0  0  0  0  0  0
   -0.6110   19.5830  -30.2240 N   0  0  0  0  0  0  0  0  0  0  0  0
   -0.1460   19.0280  -31.4750 C   0  0  0  0  0  0  0  0  0  0  0  0
    0.2780   17.8410  -31.5180 O   0  0  0  0  0  0  0  0  0  0  0  0
   -0.1340   19.8170  -32.7200 C   0  0  0  0  0  0  0  0  0  0  0  0
    0.8980   20.6230  -33.1480 C   0  0  0  0  0  0  0  0  0  0  0  0
    0.5140   21.2470  -34.2840 N   0  0  0  0  0  0  0  0  0  0  0  0
    1.2700   22.2040  -35.0580 C   0  0  0  0  0  0  0  0  0  0  0  0
    2.6690   22.0720  -35.1670 C   0  0  0  0  0  0  0  0  0  0  0  0
    3.4150   22.9850  -35.9190 C   0  0  0  0  0  0  0  0  0  0  0  0
    2.7760   24.0390  -36.5750 C   0  0  0  0  0  0  0  0  0  0  0  0
    1.3910   24.1850  -36.4770 C   0  0  0  0  0  0  0  0  0  0  0  0
    0.6400   23.2760  -35.7250 C   0  0  0  0  0  0  0  0  0  0  0  0
   -0.7120   20.8580  -34.6030 N   0  0  0  0  0  0  0  0  0  0  0  0
   -1.1310   19.9760  -33.6750 C   0  0  0  0  0  0  0  0  0  0  0  0
   -2.4420   19.2950  -33.7420 C   0  0  0  0  0  0  0  0  0  0  0  0
   -3.6140   20.0130  -33.4660 C   0  0  0  0  0  0  0  0  0  0  0  0
   -4.8590   19.3800  -33.5170 C   0  0  0  0  0  0  0  0  0  0  0  0
   -4.9560   18.0270  -33.8590 C   0  0  0  0  0  0  0  0  0  0  0  0
   -6.2280   17.4360  -33.8890 O   0  0  0  0  0  0  0  0  0  0  0  0
   -7.1870   17.5430  -32.8410 C   0  0  0  0  0  0  0  0  0  0  0  0
   -3.7830   17.3110  -34.1620 C   0  0  0  0  0  0  0  0  0  0  0  0
   -2.5370   17.9420  -34.1070 C   0  0  0  0  0  0  0  0  0  0  0  0
   -1.5510   20.6720  -30.2240 C   0  0  0  0  0  0  0  0  0  0  0  0
   -1.2130   21.9110  -30.7910 C   0  0  0  0  0  0  0  0  0  0  0  0
   -2.1440   22.9510  -30.8190 C   0  0  0  0  0  0  0  0  0  0  0  0
   -3.4270   22.7650  -30.2860 C   0  0  0  0  0  0  0  0  0  0  0  0
   -4.5970   24.0800  -30.3560 S   0  0  0  0  0  0  0  0  0  0  0  0
   -3.8990   25.3200  -30.8390 O   0  0  0  0  0  0  0  0  0  0  0  0
   -5.1580   24.3480  -28.9850 O   0  0  0  0  0  0  0  0  0  0  0  0
   -5.8850   23.6520  -31.4560 N   0  0  0  0  0  0  0  0  0  0  0  0
   -5.6230   22.3470  -32.1100 C   0  0  0  0  0  0  0  0  0  0  0  0
   -6.4370   21.1980  -31.4870 C   0  0  0  0  0  0  0  0  0  0  0  0
   -7.8980   21.4590  -31.5180 N   0  0  0  0  0  0  0  0  0  0  0  0
   -8.5370   20.7880  -32.6600 C   0  0  0  0  0  0  0  0  0  0  0  0
   -8.2460   22.8990  -31.5000 C   0  0  0  0  0  0  0  0  0  0  0  0
   -7.1870   23.7200  -30.7590 C   0  0  0  0  0  0  0  0  0  0  0  0
   -3.7740   21.5230  -29.7350 C   0  0  0  0  0  0  0  0  0  0  0  0
   -2.8430   20.4820  -29.7100 C   0  0  0  0  0  0  0  0  0  0  0  0
   -0.2246   19.3875  -26.8659 H   0  0  0  0  0  0  0  0  0  0  0  0
    0.9637   20.2158  -27.9283 H   0  0  0  0  0  0  0  0  0  0  0  0
   -0.7560   20.7349  -27.9283 H   0  0  0  0  0  0  0  0  0  0  0  0
    0.4753   18.1929  -29.0723 H   0  0  0  0  0  0  0  0  0  0  0  0
   -1.2829   18.3071  -28.6927 H   0  0  0  0  0  0  0  0  0  0  0  0
    1.8714   20.7393  -32.6490 H   0  0  0  0  0  0  0  0  0  0  0  0
    3.1792   21.2425  -34.6554 H   0  0  0  0  0  0  0  0  0  0  0  0
    4.5067   22.8727  -35.9938 H   0  0  0  0  0  0  0  0  0  0  0  0
    3.3638   24.7543  -37.1690 H   0  0  0  0  0  0  0  0  0  0  0  0
    0.8892   25.0171  -36.9926 H   0  0  0  0  0  0  0  0  0  0  0  0
   -0.4509   23.3977  -35.6529 H   0  0  0  0  0  0  0  0  0  0  0  0
   -3.5534   21.0806  -33.2079 H   0  0  0  0  0  0  0  0  0  0  0  0
   -5.7706   19.9507  -33.2862 H   0  0  0  0  0  0  0  0  0  0  0  0
   -6.6756   17.4859  -31.8688 H   0  0  0  0  0  0  0  0  0  0  0  0
   -7.7134   18.5054  -32.9225 H   0  0  0  0  0  0  0  0  0  0  0  0
   -7.9125   16.7202  -32.9225 H   0  0  0  0  0  0  0  0  0  0  0  0
   -3.8470   16.2496  -34.4435 H   0  0  0  0  0  0  0  0  0  0  0  0
   -1.6259   17.3759  -34.3509 H   0  0  0  0  0  0  0  0  0  0  0  0
   -0.2096   22.0632  -31.2153 H   0  0  0  0  0  0  0  0  0  0  0  0
   -1.8696   23.9202  -31.2611 H   0  0  0  0  0  0  0  0  0  0  0  0
   -5.8858   22.4277  -33.1751 H   0  0  0  0  0  0  0  0  0  0  0  0
   -4.5571   22.1132  -31.9715 H   0  0  0  0  0  0  0  0  0  0  0  0
   -6.2310   20.2744  -32.0478 H   0  0  0  0  0  0  0  0  0  0  0  0
   -6.1348   21.1052  -30.4334 H   0  0  0  0  0  0  0  0  0  0  0  0
   -9.2517   20.0375  -32.2913 H   0  0  0  0  0  0  0  0  0  0  0  0
   -9.0690   21.5317  -33.2715 H   0  0  0  0  0  0  0  0  0  0  0  0
   -7.7682   20.2929  -33.2715 H   0  0  0  0  0  0  0  0  0  0  0  0
   -8.3206   23.2622  -32.5356 H   0  0  0  0  0  0  0  0  0  0  0  0
   -9.2055   23.0169  -30.9752 H   0  0  0  0  0  0  0  0  0  0  0  0
   -7.5144   24.7689  -30.7087 H   0  0  0  0  0  0  0  0  0  0  0  0
   -7.0662   23.3067  -29.7468 H   0  0  0  0  0  0  0  0  0  0  0  0
   -4.7815   21.3682  -29.3216 H   0  0  0  0  0  0  0  0  0  0  0  0
   -3.1242   19.5073  -29.2848 H   0  0  0  0  0  0  0  0  0  0  0  0
  1  2  1  0
  2  3  1  0
  3  4  1  0
  4  5  2  0
  4  6  1  0
  6  7  2  0
  7  8  1  0
  8  9  1  0
  9 10  2  0
 10 11  1  0
 11 12  2  0
 12 13  1  0
 13 14  2  0
  8 15  1  0
 15 16  2  0
 16 17  1  0
 17 18  2  0
 18 19  1  0
 19 20  2  0
 20 21  1  0
 21 22  1  0
 20 23  1  0
 23 24  2  0
  3 25  1  0
 25 26  2  0
 26 27  1  0
 27 28  2  0
 28 29  1  0
 29 30  2  0
 29 31  2  0
 29 32  1  0
 32 33  1  0
 33 34  1  0
 34 35  1  0
 35 36  1  0
 35 37  1  0
 37 38  1  0
 28 39  1  0
 39 40  2  0
 16  6  1  0
 24 17  1  0
 40 25  1  0
 14  9  1  0
 38 32  1  0
  1 41  1  0
  1 42  1  0
  1 43  1  0
  2 44  1  0
  2 45  1  0
  7 46  1  0
 10 47  1  0
 11 48  1  0
 12 49  1  0
 13 50  1  0
 14 51  1  0
 18 52  1  0
 19 53  1  0
 22 54  1  0
 22 55  1  0
 22 56  1  0
 23 57  1  0
 24 58  1  0
 26 59  1  0
 27 60  1  0
 33 61  1  0
 33 62  1  0
 34 63  1  0
 34 64  1  0
 36 65  1  0
 36 66  1  0
 36 67  1  0
 37 68  1  0
 37 69  1  0
 38 70  1  0
 38 71  1  0
 39 72  1  0
 40 73  1  0
M  END
>  <UniqueID>  (48) 
47

>  <SMILES>  (48) 
CCN(C(=O)c1cn(-c2ccccc2)nc1-c1ccc(OC)cc1)c1ccc(S(=O)(=O)N2CCN(C)CC2)cc1

>  <Energy>  (48) 
131.01009206037372

>  <Genealogy>  (48) 
CCN(C(=O)c1cn(-c2ccccc2)nc1-c1ccc(OC)cc1)c1ccc(S(=O)(=O)N2CCN(C)CC2)cc1 (3D coordinates assigned)
CCN(C(=O)c1cn(-c2ccccc2)nc1-c1ccc(OC)cc1)c1ccc(S(=O)(=O)N2CCN(C)CC2)cc1 (nonaromatic ring conformer: 131.01009206037372 kcal/mol)

>  <smiles>  (48) 
CCN(C(=O)c1cn(-c2ccccc2)nc1-c1ccc(OC)cc1)c1ccc(S(=O)(=O)N2CCN(C)CC2)cc1

>  <score_type>  (48) 
oracle

>  <origin>  (48) 
adgpu

>  <m_score__min__energy>  (48) 
-9.9100000000000001

>  <m_primary>  (48) 
energy

$$$$
