0:0
     RDKit          3D

 57 60  0  0  0  0  0  0  0  0999 V2000
   -3.8740   25.6040  -30.7600 O   0  0  0  0  0  0  0  0  0  0  0  0
   -3.7480   24.4550  -30.2560 C   0  0  0  0  0  0  0  0  0  0  0  0
   -4.4550   23.3410  -30.8160 N   0  0  0  0  0  0  0  0  0  0  0  0
   -3.9150   22.3050  -31.6490 C   0  0  0  0  0  0  0  0  0  0  0  0
   -2.5260   22.1450  -31.8050 C   0  0  0  0  0  0  0  0  0  0  0  0
   -2.0190   21.1690  -32.6660 C   0  0  0  0  0  0  0  0  0  0  0  0
   -2.8890   20.3550  -33.3920 C   0  0  0  0  0  0  0  0  0  0  0  0
   -4.2700   20.5200  -33.2650 C   0  0  0  0  0  0  0  0  0  0  0  0
   -4.7960   21.4920  -32.3990 C   0  0  0  0  0  0  0  0  0  0  0  0
   -6.2240   21.6430  -32.2820 N   0  0  0  0  0  0  0  0  0  0  0  0
   -6.8470   22.9670  -32.4310 C   0  0  0  0  0  0  0  0  0  0  0  0
   -7.9990   23.1160  -31.4340 C   0  0  0  0  0  0  0  0  0  0  0  0
   -9.0460   21.9910  -31.5650 C   0  0  0  0  0  0  0  0  0  0  0  0
   -8.5330   20.7450  -32.3110 C   0  0  0  0  0  0  0  0  0  0  0  0
   -7.0570   20.4640  -32.0060 C   0  0  0  0  0  0  0  0  0  0  0  0
   -2.8190   24.2440  -29.1210 C   0  0  0  0  0  0  0  0  0  0  0  0
   -3.3130   24.1050  -27.8100 C   0  0  0  0  0  0  0  0  0  0  0  0
   -2.4340   23.9190  -26.7380 C   0  0  0  0  0  0  0  0  0  0  0  0
   -1.0530   23.8650  -26.9580 C   0  0  0  0  0  0  0  0  0  0  0  0
    0.0370   23.6160  -25.5940 S   0  0  0  0  0  0  0  0  0  0  0  0
    1.3830   23.2060  -26.1260 O   0  0  0  0  0  0  0  0  0  0  0  0
   -0.4860   22.5200  -24.7080 O   0  0  0  0  0  0  0  0  0  0  0  0
    0.1850   25.0960  -24.6750 N   0  0  0  0  0  0  0  0  0  0  0  0
   -1.1460   25.7160  -24.5110 C   0  0  0  0  0  0  0  0  0  0  0  0
   -1.0120   27.2130  -24.1790 C   0  0  0  0  0  0  0  0  0  0  0  0
   -0.3160   27.9730  -25.1610 O   0  0  0  0  0  0  0  0  0  0  0  0
    0.5010   27.1900  -26.0190 C   0  0  0  0  0  0  0  0  0  0  0  0
    1.1770   26.0130  -25.2940 C   0  0  0  0  0  0  0  0  0  0  0  0
   -0.5550   23.9970  -28.2600 C   0  0  0  0  0  0  0  0  0  0  0  0
   -1.4300   24.1840  -29.3340 C   0  0  0  0  0  0  0  0  0  0  0  0
   -1.8350   22.7926  -31.2454 H   0  0  0  0  0  0  0  0  0  0  0  0
   -0.9315   21.0419  -32.7719 H   0  0  0  0  0  0  0  0  0  0  0  0
   -2.4871   19.5830  -34.0647 H   0  0  0  0  0  0  0  0  0  0  0  0
   -4.9513   19.8831  -33.8483 H   0  0  0  0  0  0  0  0  0  0  0  0
   -6.0957   23.7473  -32.2394 H   0  0  0  0  0  0  0  0  0  0  0  0
   -7.2378   23.0702  -33.4540 H   0  0  0  0  0  0  0  0  0  0  0  0
   -7.5871   23.0969  -30.4142 H   0  0  0  0  0  0  0  0  0  0  0  0
   -8.5049   24.0687  -31.6494 H   0  0  0  0  0  0  0  0  0  0  0  0
   -9.3556   21.6866  -30.5543 H   0  0  0  0  0  0  0  0  0  0  0  0
   -9.8790   22.3974  -32.1573 H   0  0  0  0  0  0  0  0  0  0  0  0
   -9.1316   19.8748  -32.0037 H   0  0  0  0  0  0  0  0  0  0  0  0
   -8.6288   20.9305  -33.3910 H   0  0  0  0  0  0  0  0  0  0  0  0
   -6.9551   20.1930  -30.9448 H   0  0  0  0  0  0  0  0  0  0  0  0
   -6.7187   19.6395  -32.6508 H   0  0  0  0  0  0  0  0  0  0  0  0
   -4.3971   24.1429  -27.6276 H   0  0  0  0  0  0  0  0  0  0  0  0
   -2.8301   23.8147  -25.7171 H   0  0  0  0  0  0  0  0  0  0  0  0
    0.5360   24.8290  -23.7250 H   0  0  0  0  0  0  0  0  0  0  0  0
   -1.7146   25.6030  -25.4458 H   0  0  0  0  0  0  0  0  0  0  0  0
   -1.6694   25.2157  -23.6829 H   0  0  0  0  0  0  0  0  0  0  0  0
   -2.0228   27.6334  -24.0713 H   0  0  0  0  0  0  0  0  0  0  0  0
   -0.4200   27.2777  -23.2542 H   0  0  0  0  0  0  0  0  0  0  0  0
   -0.1249   26.7895  -26.8301 H   0  0  0  0  0  0  0  0  0  0  0  0
    1.2988   27.8436  -26.4014 H   0  0  0  0  0  0  0  0  0  0  0  0
    1.7787   25.4470  -26.0204 H   0  0  0  0  0  0  0  0  0  0  0  0
    1.8058   26.4249  -24.4910 H   0  0  0  0  0  0  0  0  0  0  0  0
    0.5295   23.9534  -28.4385 H   0  0  0  0  0  0  0  0  0  0  0  0
   -1.0292   24.2850  -30.3534 H   0  0  0  0  0  0  0  0  0  0  0  0
  1  2  2  0
  2  3  1  0
  3  4  1  0
  4  5  2  0
  5  6  1  0
  6  7  2  0
  7  8  1  0
  8  9  2  0
  9 10  1  0
 10 11  1  0
 11 12  1  0
 12 13  1  0
 13 14  1  0
 14 15  1  0
  2 16  1  0
 16 17  2  0
 17 18  1  0
 18 19  2  0
 19 20  1  0
 20 21  2  0
 20 22  2  0
 20 23  1  0
 23 24  1  0
 24 25  1  0
 25 26  1  0
 26 27  1  0
 27 28  1  0
 19 29  1  0
 29 30  2  0
  9  4  1  0
 15 10  1  0
 30 16  1  0
 28 23  1  0
  5 31  1  0
  6 32  1  0
  7 33  1  0
  8 34  1  0
 11 35  1  0
 11 36  1  0
 12 37  1  0
 12 38  1  0
 13 39  1  0
 13 40  1  0
 14 41  1  0
 14 42  1  0
 15 43  1  0
 15 44  1  0
 17 45  1  0
 18 46  1  0
 23 47  1  0
 24 48  1  0
 24 49  1  0
 25 50  1  0
 25 51  1  0
 27 52  1  0
 27 53  1  0
 28 54  1  0
 28 55  1  0
 29 56  1  0
 30 57  1  0
M  CHG  2   3  -1  23   1
M  END
>  <UniqueID>  (1) 
1

>  <SMILES>  (1) 
O=C([N-]c1ccccc1N1CCCCC1)c1ccc(S(=O)(=O)[NH+]2CCOCC2)cc1

>  <Energy>  (1) 
80.76584620907373

>  <Genealogy>  (1) 
O=C([N-]c1ccccc1N1CCCCC1)c1ccc(S(=O)(=O)[NH+]2CCOCC2)cc1 (protonated)
O=C([N-]c1ccccc1N1CCCCC1)c1ccc(S(=O)(=O)[NH+]2CCOCC2)cc1 (3D coordinates assigned)
O=C([N-]c1ccccc1N1CCCCC1)c1ccc(S(=O)(=O)[NH+]2CCOCC2)cc1 (nonaromatic ring conformer: 80.76584620907373 kcal/mol)

>  <smiles>  (1) 
O=C(Nc1ccccc1N1CCCCC1)c1ccc(S(=O)(=O)N2CCOCC2)cc1

>  <score_type>  (1) 
oracle

>  <origin>  (1) 
adgpu

>  <m_score__min__energy>  (1) 
-11.67

>  <m_primary>  (1) 
energy

$$$$
1:0
     RDKit          3D

 37 38  0  0  0  0  0  0  0  0999 V2000
   -2.9160   25.2980  -30.6610 H   0  0  0  0  0  0  0  0  0  0  0  0
   -3.8880   25.6360  -30.8360 N   0  0  0  0  0  0  0  0  0  0  0  0
   -4.9430   24.2850  -30.6100 S   0  0  0  0  0  0  0  0  0  0  0  0
   -5.5550   23.9480  -31.9410 O   0  0  0  0  0  0  0  0  0  0  0  0
   -6.0230   24.6750  -29.6410 O   0  0  0  0  0  0  0  0  0  0  0  0
   -4.0380   22.9020  -29.9660 C   0  0  0  0  0  0  0  0  0  0  0  0
   -4.1670   22.6130  -28.5960 C   0  0  0  0  0  0  0  0  0  0  0  0
   -4.8227   23.2355  -27.9695 H   0  0  0  0  0  0  0  0  0  0  0  0
   -3.4750   21.5480  -28.0210 C   0  0  0  0  0  0  0  0  0  0  0  0
   -3.5869   21.3353  -26.9476 H   0  0  0  0  0  0  0  0  0  0  0  0
   -2.6420   20.7530  -28.8050 C   0  0  0  0  0  0  0  0  0  0  0  0
   -2.0887   19.9193  -28.3481 H   0  0  0  0  0  0  0  0  0  0  0  0
   -2.5090   21.0130  -30.1680 C   0  0  0  0  0  0  0  0  0  0  0  0
   -1.8449   20.3830  -30.7780 H   0  0  0  0  0  0  0  0  0  0  0  0
   -3.2130   22.0710  -30.7750 C   0  0  0  0  0  0  0  0  0  0  0  0
   -3.0410   22.2800  -32.2660 C   0  0  0  0  0  0  0  0  0  0  0  0
   -2.2869   21.5725  -32.6411 H   0  0  0  0  0  0  0  0  0  0  0  0
   -2.7218   23.3193  -32.4335 H   0  0  0  0  0  0  0  0  0  0  0  0
   -4.2960   22.0640  -32.9880 N   0  0  0  0  0  0  0  0  0  0  0  0
   -4.6830   22.8640  -33.5360 H   0  0  0  0  0  0  0  0  0  0  0  0
   -5.0590   20.8450  -32.9560 C   0  0  0  0  0  0  0  0  0  0  0  0
   -4.5490   19.7370  -33.5490 N   0  0  0  0  0  0  0  0  0  0  0  0
   -5.1980   18.5700  -33.5680 N   0  0  0  0  0  0  0  0  0  0  0  0
   -4.5660   17.4350  -34.2410 C   0  0  0  0  0  0  0  0  0  0  0  0
   -4.1755   16.7338  -33.4888 H   0  0  0  0  0  0  0  0  0  0  0  0
   -5.3083   16.9220  -34.8701 H   0  0  0  0  0  0  0  0  0  0  0  0
   -3.7390   17.7959  -34.8701 H   0  0  0  0  0  0  0  0  0  0  0  0
   -6.4260   18.4380  -32.9750 C   0  0  0  0  0  0  0  0  0  0  0  0
   -7.0180   17.3250  -33.0130 O   0  0  0  0  0  0  0  0  0  0  0  0
   -7.0090   19.5550  -32.3260 C   0  0  0  0  0  0  0  0  0  0  0  0
   -8.1690   19.5310  -31.7260 N   0  0  0  0  0  0  0  0  0  0  0  0
   -9.0930   18.4090  -31.5890 C   0  0  0  0  0  0  0  0  0  0  0  0
   -9.2632   18.2023  -30.5221 H   0  0  0  0  0  0  0  0  0  0  0  0
  -10.0493   18.6606  -32.0709 H   0  0  0  0  0  0  0  0  0  0  0  0
   -8.6627   17.5187  -32.0709 H   0  0  0  0  0  0  0  0  0  0  0  0
   -6.3030   20.7590  -32.3230 C   0  0  0  0  0  0  0  0  0  0  0  0
   -6.7260   21.6421  -31.8217 H   0  0  0  0  0  0  0  0  0  0  0  0
  1  2  1  0
  2  3  1  0
  3  4  2  0
  3  5  2  0
  3  6  1  0
  6  7  2  0
  7  8  1  0
  7  9  1  0
  9 10  1  0
  9 11  2  0
 11 12  1  0
 11 13  1  0
 13 14  1  0
 13 15  2  0
 15 16  1  0
 16 17  1  0
 16 18  1  0
 16 19  1  0
 19 20  1  0
 19 21  1  0
 21 22  1  0
 22 23  1  0
 23 24  1  0
 24 25  1  0
 24 26  1  0
 24 27  1  0
 23 28  1  0
 28 29  2  0
 28 30  1  0
 30 31  2  0
 31 32  1  0
 32 33  1  0
 32 34  1  0
 32 35  1  0
 30 36  1  0
 36 37  1  0
 15  6  1  0
 36 21  2  0
M  CHG  2   2  -1  22  -1
M  END
>  <UniqueID>  (2) 
2

>  <SMILES>  (2) 
C/N=c1/cc(NCc2ccccc2S([NH-])(=O)=O)[n-]n(C)c1=O

>  <Energy>  (2) 
44.33232532923909

>  <Genealogy>  (2) 
CN=c1cc(NCc2ccccc2S([NH-])(=O)=O)[n-]n(C)c1=O (protonated)
C/N=c1/cc(NCc2ccccc2S([NH-])(=O)=O)[n-]n(C)c1=O (cis-trans isomerization)
C/N=c1/cc(NCc2ccccc2S([NH-])(=O)=O)[n-]n(C)c1=O (3D coordinates assigned)
C/N=c1/cc(NCc2ccccc2S([NH-])(=O)=O)[n-]n(C)c1=O (optimized conformer: 44.33232532923909 kcal/mol)

>  <smiles>  (2) 
CN=c1cc(NCc2ccccc2S(N)(=O)=O)[nH]n(C)c1=O

>  <score_type>  (2) 
oracle

>  <origin>  (2) 
adgpu

>  <m_score__min__energy>  (2) 
-10.27

>  <m_primary>  (2) 
energy

$$$$
2:0
     RDKit          3D

 45 47  0  0  0  0  0  0  0  0999 V2000
   -3.8421   21.2795  -33.5509 H   0  0  0  0  0  0  0  0  0  0  0  0
   -2.8310   20.9180  -33.3120 C   0  0  0  0  0  0  0  0  0  0  0  0
   -2.4020   20.9040  -32.0250 N   0  0  0  0  0  0  0  0  0  0  0  0
   -1.1530   20.4630  -31.7060 C   0  0  0  0  0  0  0  0  0  0  0  0
   -0.7410   20.4520  -30.4730 N   0  0  0  0  0  0  0  0  0  0  0  0
   -1.5350   20.8800  -29.3220 C   0  0  0  0  0  0  0  0  0  0  0  0
   -2.5734   20.5416  -29.4533 H   0  0  0  0  0  0  0  0  0  0  0  0
   -1.1037   20.4403  -28.4106 H   0  0  0  0  0  0  0  0  0  0  0  0
   -1.5160   22.3800  -29.1930 C   0  0  0  0  0  0  0  0  0  0  0  0
   -0.4960   23.0250  -28.4740 C   0  0  0  0  0  0  0  0  0  0  0  0
    0.2890   22.4301  -27.9843 H   0  0  0  0  0  0  0  0  0  0  0  0
   -0.4740   24.4190  -28.3780 C   0  0  0  0  0  0  0  0  0  0  0  0
    0.3264   24.9180  -27.8120 H   0  0  0  0  0  0  0  0  0  0  0  0
   -1.4690   25.1810  -29.0010 C   0  0  0  0  0  0  0  0  0  0  0  0
   -1.4420   26.5670  -28.9010 O   0  0  0  0  0  0  0  0  0  0  0  0
   -2.4870   24.5470  -29.7210 C   0  0  0  0  0  0  0  0  0  0  0  0
   -3.4760   25.2980  -30.3430 O   0  0  0  0  0  0  0  0  0  0  0  0
   -2.5100   23.1500  -29.8190 C   0  0  0  0  0  0  0  0  0  0  0  0
   -3.3097   22.6539  -30.3885 H   0  0  0  0  0  0  0  0  0  0  0  0
   -0.3230   20.0290  -32.6890 N   0  0  0  0  0  0  0  0  0  0  0  0
   -0.7060   20.0140  -33.9970 C   0  0  0  0  0  0  0  0  0  0  0  0
    0.2470   19.5310  -35.0290 C   0  0  0  0  0  0  0  0  0  0  0  0
    0.0860   18.2760  -35.6470 C   0  0  0  0  0  0  0  0  0  0  0  0
   -0.7613   17.6332  -35.3662 H   0  0  0  0  0  0  0  0  0  0  0  0
    0.9960   17.8420  -36.6150 C   0  0  0  0  0  0  0  0  0  0  0  0
    0.8579   16.8626  -37.0965 H   0  0  0  0  0  0  0  0  0  0  0  0
    2.0780   18.6450  -36.9730 C   0  0  0  0  0  0  0  0  0  0  0  0
    2.7863   18.3011  -37.7412 H   0  0  0  0  0  0  0  0  0  0  0  0
    2.2650   19.8880  -36.3570 C   0  0  0  0  0  0  0  0  0  0  0  0
    3.6270   20.9030  -36.8270 S   0  0  0  0  0  0  0  0  0  0  0  0
    4.8040   20.6270  -35.9300 O   0  0  0  0  0  0  0  0  0  0  0  0
    4.0140   20.5640  -38.2400 O   0  0  0  0  0  0  0  0  0  0  0  0
    3.1750   22.5870  -36.7270 N   0  0  0  0  0  0  0  0  0  0  0  0
    2.8520   22.9270  -35.3350 C   0  0  0  0  0  0  0  0  0  0  0  0
    3.4483   22.2993  -34.6564 H   0  0  0  0  0  0  0  0  0  0  0  0
    3.0841   23.9867  -35.1531 H   0  0  0  0  0  0  0  0  0  0  0  0
    1.7818   22.7495  -35.1531 H   0  0  0  0  0  0  0  0  0  0  0  0
    4.2900   23.4160  -37.2020 C   0  0  0  0  0  0  0  0  0  0  0  0
    4.8377   23.8232  -36.3393 H   0  0  0  0  0  0  0  0  0  0  0  0
    4.9697   22.8022  -37.8113 H   0  0  0  0  0  0  0  0  0  0  0  0
    3.8979   24.2437  -37.8113 H   0  0  0  0  0  0  0  0  0  0  0  0
    1.3510   20.3280  -35.3890 C   0  0  0  0  0  0  0  0  0  0  0  0
    1.4977   21.3053  -34.9060 H   0  0  0  0  0  0  0  0  0  0  0  0
   -1.9900   20.4740  -34.3320 C   0  0  0  0  0  0  0  0  0  0  0  0
   -2.3260   20.4839  -35.3794 H   0  0  0  0  0  0  0  0  0  0  0  0
  1  2  1  0
  2  3  2  0
  3  4  1  0
  4  5  2  0
  5  6  1  0
  6  7  1  0
  6  8  1  0
  6  9  1  0
  9 10  2  0
 10 11  1  0
 10 12  1  0
 12 13  1  0
 12 14  2  0
 14 15  1  0
 14 16  1  0
 16 17  1  0
 16 18  2  0
 18 19  1  0
  4 20  1  0
 20 21  1  0
 21 22  1  0
 22 23  2  0
 23 24  1  0
 23 25  1  0
 25 26  1  0
 25 27  2  0
 27 28  1  0
 27 29  1  0
 29 30  1  0
 30 31  2  0
 30 32  2  0
 30 33  1  0
 33 34  1  0
 34 35  1  0
 34 36  1  0
 34 37  1  0
 33 38  1  0
 38 39  1  0
 38 40  1  0
 38 41  1  0
 29 42  2  0
 42 43  1  0
 21 44  2  0
 44 45  1  0
 44  2  1  0
 18  9  1  0
 42 22  1  0
M  CHG  3  15  -1  17  -1  20  -1
M  END
>  <UniqueID>  (3) 
3

>  <SMILES>  (3) 
CN(C)S(=O)(=O)c1cccc(-c2ccn/c(=N\Cc3ccc([O-])c([O-])c3)[n-]2)c1

>  <Energy>  (3) 
49.49141338580442

>  <Genealogy>  (3) 
CN(C)S(=O)(=O)c1cccc(-c2ccnc(=NCc3ccc([O-])c([O-])c3)[n-]2)c1 (protonated)
CN(C)S(=O)(=O)c1cccc(-c2ccn/c(=N\Cc3ccc([O-])c([O-])c3)[n-]2)c1 (cis-trans isomerization)
CN(C)S(=O)(=O)c1cccc(-c2ccn/c(=N\Cc3ccc([O-])c([O-])c3)[n-]2)c1 (3D coordinates assigned)
CN(C)S(=O)(=O)c1cccc(-c2ccn/c(=N\Cc3ccc([O-])c([O-])c3)[n-]2)c1 (optimized conformer: 49.49141338580442 kcal/mol)

>  <smiles>  (3) 
CN(C)S(=O)(=O)c1cccc(-c2ccnc(=NCc3ccc(O)c(O)c3)[nH]2)c1

>  <score_type>  (3) 
oracle

>  <origin>  (3) 
adgpu

>  <m_score__min__energy>  (3) 
-13.56

>  <m_primary>  (3) 
energy

$$$$
3:0
     RDKit          3D

 30 32  0  0  0  0  0  0  0  0999 V2000
   -5.3650   15.6340  -32.6790 N   0  0  0  0  0  0  0  0  0  0  0  0
   -5.5710   16.7740  -33.2420 C   0  0  0  0  0  0  0  0  0  0  0  0
   -5.2240   16.9830  -34.5230 N   0  0  0  0  0  0  0  0  0  0  0  0
   -5.4270   18.1540  -35.1540 C   0  0  0  0  0  0  0  0  0  0  0  0
   -6.0010   19.2210  -34.5330 N   0  0  0  0  0  0  0  0  0  0  0  0
   -6.3670   19.0530  -33.2370 C   0  0  0  0  0  0  0  0  0  0  0  0
   -6.1580   17.8360  -32.5770 C   0  0  0  0  0  0  0  0  0  0  0  0
   -6.6300   17.9990  -31.3050 C   0  0  0  0  0  0  0  0  0  0  0  0
   -7.0920   19.2390  -31.2160 N   0  0  0  0  0  0  0  0  0  0  0  0
   -6.9470   19.9080  -32.3710 N   0  0  0  0  0  0  0  0  0  0  0  0
   -7.3690   21.2660  -32.5240 C   0  0  0  0  0  0  0  0  0  0  0  0
   -6.4350   22.2640  -31.9440 C   0  0  0  0  0  0  0  0  0  0  0  0
   -5.1140   21.9860  -31.6520 C   0  0  0  0  0  0  0  0  0  0  0  0
   -4.2700   22.9660  -31.1120 C   0  0  0  0  0  0  0  0  0  0  0  0
   -4.7700   24.2460  -30.8660 C   0  0  0  0  0  0  0  0  0  0  0  0
   -3.9610   25.2840  -30.3250 N   0  0  0  0  0  0  0  0  0  0  0  0
   -6.1110   24.5370  -31.1590 C   0  0  0  0  0  0  0  0  0  0  0  0
   -6.9300   23.5360  -31.6980 C   0  0  0  0  0  0  0  0  0  0  0  0
   -8.2380   23.8160  -31.9840 F   0  0  0  0  0  0  0  0  0  0  0  0
   -4.9380   14.8250  -33.1410 H   0  0  0  0  0  0  0  0  0  0  0  0
   -4.7670   16.2290  -35.1180 H   0  0  0  0  0  0  0  0  0  0  0  0
   -5.1193   18.2524  -36.2055 H   0  0  0  0  0  0  0  0  0  0  0  0
   -6.6273   17.2438  -30.5053 H   0  0  0  0  0  0  0  0  0  0  0  0
   -7.4734   21.4755  -33.5988 H   0  0  0  0  0  0  0  0  0  0  0  0
   -8.3173   21.3654  -31.9756 H   0  0  0  0  0  0  0  0  0  0  0  0
   -4.7177   20.9785  -31.8465 H   0  0  0  0  0  0  0  0  0  0  0  0
   -3.2206   22.7282  -30.8835 H   0  0  0  0  0  0  0  0  0  0  0  0
   -3.1140   25.6680  -30.8060 H   0  0  0  0  0  0  0  0  0  0  0  0
   -4.1920   25.7230  -29.3830 H   0  0  0  0  0  0  0  0  0  0  0  0
   -6.5156   25.5418  -30.9673 H   0  0  0  0  0  0  0  0  0  0  0  0
  1  2  2  3
  2  3  1  0
  3  4  1  0
  4  5  2  0
  5  6  1  0
  6  7  2  0
  7  8  1  0
  8  9  2  0
  9 10  1  0
 10 11  1  0
 11 12  1  0
 12 13  2  0
 13 14  1  0
 14 15  2  0
 15 16  1  0
 15 17  1  0
 17 18  2  0
 18 19  1  0
  7  2  1  0
 18 12  1  0
 10  6  1  0
  1 20  1  0
  3 21  1  0
  4 22  1  0
  8 23  1  0
 11 24  1  0
 11 25  1  0
 13 26  1  0
 14 27  1  0
 16 28  1  0
 16 29  1  0
 17 30  1  0
M  END
>  <smiles>  (4) 
N=c1[nH]cnc2c1cnn2Cc1ccc(N)cc1F

>  <score_type>  (4) 
oracle

>  <origin>  (4) 
adgpu

>  <m_score__min__energy>  (4) 
-7.0499999999999998

>  <m_primary>  (4) 
energy

$$$$
4:0
     RDKit          3D

 30 32  0  0  0  0  0  0  0  0999 V2000
   -6.7400   20.0270  -33.7870 N   0  0  0  0  0  0  0  0  0  0  0  0
   -7.0210   20.9920  -32.7700 C   0  0  0  0  0  0  0  0  0  0  0  0
   -8.3260   21.1420  -32.2850 C   0  0  0  0  0  0  0  0  0  0  0  0
   -8.6020   22.0840  -31.2930 C   0  0  0  0  0  0  0  0  0  0  0  0
   -7.5770   22.8820  -30.7780 C   0  0  0  0  0  0  0  0  0  0  0  0
   -6.2590   22.7470  -31.2510 C   0  0  0  0  0  0  0  0  0  0  0  0
   -5.1830   23.6030  -30.6930 C   0  0  0  0  0  0  0  0  0  0  0  0
   -4.3910   23.3360  -29.5900 C   0  0  0  0  0  0  0  0  0  0  0  0
   -3.5580   24.4370  -29.4940 C   0  0  0  0  0  0  0  0  0  0  0  0
   -2.5000   24.6750  -28.4800 C   0  0  0  0  0  0  0  0  0  0  0  0
   -2.8550   24.9070  -27.1380 C   0  0  0  0  0  0  0  0  0  0  0  0
   -1.8710   25.1330  -26.1710 C   0  0  0  0  0  0  0  0  0  0  0  0
   -0.5220   25.1290  -26.5310 C   0  0  0  0  0  0  0  0  0  0  0  0
   -0.1540   24.9000  -27.8590 C   0  0  0  0  0  0  0  0  0  0  0  0
    1.1890   24.8960  -28.2160 O   0  0  0  0  0  0  0  0  0  0  0  0
   -1.1350   24.6730  -28.8300 C   0  0  0  0  0  0  0  0  0  0  0  0
   -3.8460   25.3000  -30.4880 N   0  0  0  0  0  0  0  0  0  0  0  0
   -4.8310   24.7950  -31.2140 N   0  0  0  0  0  0  0  0  0  0  0  0
   -5.9920   21.7930  -32.2530 C   0  0  0  0  0  0  0  0  0  0  0  0
   -7.3470   19.9500  -34.6340 H   0  0  0  0  0  0  0  0  0  0  0  0
   -5.9230   19.3810  -33.7010 H   0  0  0  0  0  0  0  0  0  0  0  0
   -9.1359   20.5156  -32.6870 H   0  0  0  0  0  0  0  0  0  0  0  0
   -9.6289   22.1986  -30.9156 H   0  0  0  0  0  0  0  0  0  0  0  0
   -7.8026   23.6221  -29.9961 H   0  0  0  0  0  0  0  0  0  0  0  0
   -4.4175   22.4504  -28.9381 H   0  0  0  0  0  0  0  0  0  0  0  0
   -3.9159   24.9105  -26.8475 H   0  0  0  0  0  0  0  0  0  0  0  0
   -2.1599   25.3142  -25.1252 H   0  0  0  0  0  0  0  0  0  0  0  0
    0.2511   25.3062  -25.7688 H   0  0  0  0  0  0  0  0  0  0  0  0
   -0.8389   24.4917  -29.8738 H   0  0  0  0  0  0  0  0  0  0  0  0
   -4.9667   21.6752  -32.6335 H   0  0  0  0  0  0  0  0  0  0  0  0
  1  2  1  0
  2  3  2  0
  3  4  1  0
  4  5  2  0
  5  6  1  0
  6  7  1  0
  7  8  1  0
  8  9  2  0
  9 10  1  0
 10 11  2  0
 11 12  1  0
 12 13  2  0
 13 14  1  0
 14 15  1  0
 14 16  2  0
  9 17  1  0
 17 18  1  0
  6 19  2  0
 19  2  1  0
 18  7  2  0
 16 10  1  0
  1 20  1  0
  1 21  1  0
  3 22  1  0
  4 23  1  0
  5 24  1  0
  8 25  1  0
 11 26  1  0
 12 27  1  0
 13 28  1  0
 16 29  1  0
 19 30  1  0
M  CHG  2  15  -1  17  -1
M  END
>  <UniqueID>  (5) 
4

>  <SMILES>  (5) 
Nc1cccc(-c2cc(-c3cccc([O-])c3)[n-]n2)c1

>  <Energy>  (5) 
64.3053699986003

>  <Genealogy>  (5) 
Nc1cccc(-c2cc(-c3cccc([O-])c3)[n-]n2)c1 (protonated)
Nc1cccc(-c2cc(-c3cccc([O-])c3)[n-]n2)c1 (3D coordinates assigned)
Nc1cccc(-c2cc(-c3cccc([O-])c3)[n-]n2)c1 (optimized conformer: 64.3053699986003 kcal/mol)

>  <smiles>  (5) 
Nc1cccc(-c2cc(-c3cccc(O)c3)[nH]n2)c1

>  <score_type>  (5) 
oracle

>  <origin>  (5) 
adgpu

>  <m_score__min__energy>  (5) 
-10.65

>  <m_primary>  (5) 
energy

$$$$
5:0
     RDKit          3D

 46 48  0  0  0  0  0  0  0  0999 V2000
   -1.2180   20.6360  -26.5880 C   0  0  0  0  0  0  0  0  0  0  0  0
   -1.4180   21.9870  -27.2100 C   0  0  0  0  0  0  0  0  0  0  0  0
   -0.3420   22.8750  -27.3500 C   0  0  0  0  0  0  0  0  0  0  0  0
   -0.5410   24.1340  -27.9240 C   0  0  0  0  0  0  0  0  0  0  0  0
   -1.8150   24.5150  -28.3650 C   0  0  0  0  0  0  0  0  0  0  0  0
   -2.0080   25.7690  -28.9440 O   0  0  0  0  0  0  0  0  0  0  0  0
   -2.9000   23.6350  -28.2290 C   0  0  0  0  0  0  0  0  0  0  0  0
   -4.1880   24.0540  -28.7030 N   0  0  0  0  0  0  0  0  0  0  0  0
   -4.6760   24.1080  -30.3670 S   0  0  0  0  0  0  0  0  0  0  0  0
   -6.1780   24.0770  -30.4370 O   0  0  0  0  0  0  0  0  0  0  0  0
   -4.1840   25.3850  -30.9850 O   0  0  0  0  0  0  0  0  0  0  0  0
   -3.9790   22.7470  -31.2400 C   0  0  0  0  0  0  0  0  0  0  0  0
   -2.5920   22.6730  -31.4200 C   0  0  0  0  0  0  0  0  0  0  0  0
   -2.0280   21.5730  -32.0720 C   0  0  0  0  0  0  0  0  0  0  0  0
   -2.8450   20.5430  -32.5450 C   0  0  0  0  0  0  0  0  0  0  0  0
   -4.2350   20.6150  -32.3790 C   0  0  0  0  0  0  0  0  0  0  0  0
   -5.2620   19.2950  -32.9340 S   0  0  0  0  0  0  0  0  0  0  0  0
   -4.6640   17.9900  -32.4890 O   0  0  0  0  0  0  0  0  0  0  0  0
   -5.3270   19.3040  -34.4360 O   0  0  0  0  0  0  0  0  0  0  0  0
   -6.8610   19.4690  -32.2550 N   0  0  0  0  0  0  0  0  0  0  0  0
   -7.6430   20.4390  -33.0440 C   0  0  0  0  0  0  0  0  0  0  0  0
   -9.1340   20.3910  -32.6560 C   0  0  0  0  0  0  0  0  0  0  0  0
   -9.3220   19.6730  -31.4530 O   0  0  0  0  0  0  0  0  0  0  0  0
   -8.9590   18.3160  -31.6440 C   0  0  0  0  0  0  0  0  0  0  0  0
   -7.5410   18.1650  -32.2350 C   0  0  0  0  0  0  0  0  0  0  0  0
   -4.7990   21.7200  -31.7270 C   0  0  0  0  0  0  0  0  0  0  0  0
   -2.6950   22.3730  -27.6410 C   0  0  0  0  0  0  0  0  0  0  0  0
   -1.2321   20.7311  -25.4922 H   0  0  0  0  0  0  0  0  0  0  0  0
   -2.0261   19.9618  -26.9079 H   0  0  0  0  0  0  0  0  0  0  0  0
   -0.2492   20.2248  -26.9079 H   0  0  0  0  0  0  0  0  0  0  0  0
    0.6609   22.5803  -27.0074 H   0  0  0  0  0  0  0  0  0  0  0  0
    0.3058   24.8281  -28.0298 H   0  0  0  0  0  0  0  0  0  0  0  0
   -2.8980   26.0350  -29.3500 H   0  0  0  0  0  0  0  0  0  0  0  0
   -1.9458   23.4816  -31.0478 H   0  0  0  0  0  0  0  0  0  0  0  0
   -0.9385   21.5180  -32.2131 H   0  0  0  0  0  0  0  0  0  0  0  0
   -2.3966   19.6739  -33.0486 H   0  0  0  0  0  0  0  0  0  0  0  0
   -7.2549   21.4511  -32.8570 H   0  0  0  0  0  0  0  0  0  0  0  0
   -7.5492   20.1815  -34.1093 H   0  0  0  0  0  0  0  0  0  0  0  0
   -9.5043   21.4183  -32.5233 H   0  0  0  0  0  0  0  0  0  0  0  0
   -9.6884   19.8818  -33.4581 H   0  0  0  0  0  0  0  0  0  0  0  0
   -8.9939   17.8007  -30.6728 H   0  0  0  0  0  0  0  0  0  0  0  0
   -9.6695   17.8757  -32.3590 H   0  0  0  0  0  0  0  0  0  0  0  0
   -6.9623   17.4622  -31.6176 H   0  0  0  0  0  0  0  0  0  0  0  0
   -7.6182   17.7831  -33.2637 H   0  0  0  0  0  0  0  0  0  0  0  0
   -5.8896   21.7815  -31.5970 H   0  0  0  0  0  0  0  0  0  0  0  0
   -3.5436   21.6838  -27.5186 H   0  0  0  0  0  0  0  0  0  0  0  0
  1  2  1  0
  2  3  2  0
  3  4  1  0
  4  5  2  0
  5  6  1  0
  5  7  1  0
  7  8  1  0
  8  9  1  0
  9 10  2  0
  9 11  2  0
  9 12  1  0
 12 13  2  0
 13 14  1  0
 14 15  2  0
 15 16  1  0
 16 17  1  0
 17 18  2  0
 17 19  2  0
 17 20  1  0
 20 21  1  0
 21 22  1  0
 22 23  1  0
 23 24  1  0
 24 25  1  0
 16 26  2  0
  7 27  2  0
 27  2  1  0
 26 12  1  0
 25 20  1  0
  1 28  1  0
  1 29  1  0
  1 30  1  0
  3 31  1  0
  4 32  1  0
  6 33  1  0
 13 34  1  0
 14 35  1  0
 15 36  1  0
 21 37  1  0
 21 38  1  0
 22 39  1  0
 22 40  1  0
 24 41  1  0
 24 42  1  0
 25 43  1  0
 25 44  1  0
 26 45  1  0
 27 46  1  0
M  CHG  1   8  -1
M  END
>  <UniqueID>  (6) 
5

>  <SMILES>  (6) 
Cc1ccc(O)c([N-]S(=O)(=O)c2cccc(S(=O)(=O)N3CCOCC3)c2)c1

>  <Energy>  (6) 
54.73034264648229

>  <Genealogy>  (6) 
Cc1ccc(O)c([N-]S(=O)(=O)c2cccc(S(=O)(=O)N3CCOCC3)c2)c1 (protonated)
Cc1ccc(O)c([N-]S(=O)(=O)c2cccc(S(=O)(=O)N3CCOCC3)c2)c1 (3D coordinates assigned)
Cc1ccc(O)c([N-]S(=O)(=O)c2cccc(S(=O)(=O)N3CCOCC3)c2)c1 (nonaromatic ring conformer: 54.73034264648229 kcal/mol)

>  <smiles>  (6) 
Cc1ccc(O)c(NS(=O)(=O)c2cccc(S(=O)(=O)N3CCOCC3)c2)c1

>  <score_type>  (6) 
oracle

>  <origin>  (6) 
adgpu

>  <m_score__min__energy>  (6) 
-11.869999999999999

>  <m_primary>  (6) 
energy

$$$$
6:0
     RDKit          3D

 36 38  0  0  0  0  0  0  0  0999 V2000
   -3.8340   20.2090  -32.7760 C   0  0  0  0  0  0  0  0  0  0  0  0
   -5.1040   20.4990  -33.3480 O   0  0  0  0  0  0  0  0  0  0  0  0
   -6.3360   20.2230  -32.7350 C   0  0  0  0  0  0  0  0  0  0  0  0
   -7.0820   19.0680  -33.0480 C   0  0  0  0  0  0  0  0  0  0  0  0
   -8.3220   18.8430  -32.4460 C   0  0  0  0  0  0  0  0  0  0  0  0
   -8.8350   19.7640  -31.5320 C   0  0  0  0  0  0  0  0  0  0  0  0
   -8.1050   20.9090  -31.2110 C   0  0  0  0  0  0  0  0  0  0  0  0
   -6.8490   21.1390  -31.7920 C   0  0  0  0  0  0  0  0  0  0  0  0
   -6.1210   22.3300  -31.4490 N   0  0  0  0  0  0  0  0  0  0  0  0
   -5.0440   22.2070  -30.6680 N   0  0  0  0  0  0  0  0  0  0  0  0
   -4.2860   23.2720  -30.2910 C   0  0  0  0  0  0  0  0  0  0  0  0
   -3.1100   23.0400  -29.4180 C   0  0  0  0  0  0  0  0  0  0  0  0
   -3.0750   21.9640  -28.5140 C   0  0  0  0  0  0  0  0  0  0  0  0
   -1.9470   21.7490  -27.7140 C   0  0  0  0  0  0  0  0  0  0  0  0
   -0.8400   22.6010  -27.8140 C   0  0  0  0  0  0  0  0  0  0  0  0
    0.2860   22.3930  -27.0190 O   0  0  0  0  0  0  0  0  0  0  0  0
   -0.8620   23.6640  -28.7250 C   0  0  0  0  0  0  0  0  0  0  0  0
    0.2360   24.5100  -28.8350 O   0  0  0  0  0  0  0  0  0  0  0  0
   -1.9890   23.8790  -29.5260 C   0  0  0  0  0  0  0  0  0  0  0  0
   -4.6320   24.5470  -30.7640 C   0  0  0  0  0  0  0  0  0  0  0  0
   -3.8640   25.6670  -30.4640 O   0  0  0  0  0  0  0  0  0  0  0  0
   -5.7500   24.6860  -31.5830 C   0  0  0  0  0  0  0  0  0  0  0  0
   -6.4920   23.5580  -31.9300 C   0  0  0  0  0  0  0  0  0  0  0  0
   -7.4830   23.6810  -32.7010 O   0  0  0  0  0  0  0  0  0  0  0  0
   -3.9132   20.2271  -31.6790 H   0  0  0  0  0  0  0  0  0  0  0  0
   -3.5034   19.2122  -33.1034 H   0  0  0  0  0  0  0  0  0  0  0  0
   -3.1035   20.9635  -33.1034 H   0  0  0  0  0  0  0  0  0  0  0  0
   -6.6849   18.3399  -33.7706 H   0  0  0  0  0  0  0  0  0  0  0  0
   -8.8956   17.9375  -32.6930 H   0  0  0  0  0  0  0  0  0  0  0  0
   -9.8149   19.5874  -31.0645 H   0  0  0  0  0  0  0  0  0  0  0  0
   -8.5175   21.6369  -30.4969 H   0  0  0  0  0  0  0  0  0  0  0  0
   -3.9388   21.2875  -28.4350 H   0  0  0  0  0  0  0  0  0  0  0  0
   -1.9298   20.9084  -27.0047 H   0  0  0  0  0  0  0  0  0  0  0  0
    1.0870   23.0110  -27.0640 H   0  0  0  0  0  0  0  0  0  0  0  0
   -1.9970   24.7111  -30.2454 H   0  0  0  0  0  0  0  0  0  0  0  0
   -6.0453   25.6788  -31.9534 H   0  0  0  0  0  0  0  0  0  0  0  0
  1  2  1  0
  2  3  1  0
  3  4  2  0
  4  5  1  0
  5  6  2  0
  6  7  1  0
  7  8  2  0
  8  9  1  0
  9 10  1  0
 10 11  2  0
 11 12  1  0
 12 13  2  0
 13 14  1  0
 14 15  2  0
 15 16  1  0
 15 17  1  0
 17 18  1  0
 17 19  2  0
 11 20  1  0
 20 21  1  0
 20 22  2  0
 22 23  1  0
 23 24  2  0
  8  3  1  0
 23  9  1  0
 19 12  1  0
  1 25  1  0
  1 26  1  0
  1 27  1  0
  4 28  1  0
  5 29  1  0
  6 30  1  0
  7 31  1  0
 13 32  1  0
 14 33  1  0
 16 34  1  0
 19 35  1  0
 22 36  1  0
M  CHG  2  18  -1  21  -1
M  END
>  <UniqueID>  (7) 
6

>  <SMILES>  (7) 
COc1ccccc1-n1nc(-c2ccc(O)c([O-])c2)c([O-])cc1=O

>  <Energy>  (7) 
52.60586806010797

>  <Genealogy>  (7) 
COc1ccccc1-n1nc(-c2ccc(O)c([O-])c2)c([O-])cc1=O (protonated)
COc1ccccc1-n1nc(-c2ccc(O)c([O-])c2)c([O-])cc1=O (3D coordinates assigned)
COc1ccccc1-n1nc(-c2ccc(O)c([O-])c2)c([O-])cc1=O (optimized conformer: 52.60586806010797 kcal/mol)

>  <smiles>  (7) 
COc1ccccc1-n1nc(-c2ccc(O)c(O)c2)c(O)cc1=O

>  <score_type>  (7) 
oracle

>  <origin>  (7) 
adgpu

>  <m_score__min__energy>  (7) 
-11.220000000000001

>  <m_primary>  (7) 
energy

$$$$
7:0
     RDKit          3D

 61 64  0  0  0  0  0  0  0  0999 V2000
   -1.7700   21.5970  -30.4590 C   0  0  0  0  0  0  0  0  0  0  0  0
   -1.7410   21.7190  -31.9790 C   0  0  0  0  0  0  0  0  0  0  0  0
   -0.9860   20.6050  -32.5730 N   0  0  0  0  0  0  0  0  0  0  0  0
   -1.3900   19.2480  -32.2710 C   0  0  0  0  0  0  0  0  0  0  0  0
   -0.8830   18.6530  -31.2800 O   0  0  0  0  0  0  0  0  0  0  0  0
   -2.4030   18.5290  -33.0840 C   0  0  0  0  0  0  0  0  0  0  0  0
   -3.7500   18.6460  -32.7040 C   0  0  0  0  0  0  0  0  0  0  0  0
   -4.7650   18.0590  -33.4680 C   0  0  0  0  0  0  0  0  0  0  0  0
   -6.4570   18.2510  -33.0210 S   0  0  0  0  0  0  0  0  0  0  0  0
   -6.6660   17.9770  -31.5580 O   0  0  0  0  0  0  0  0  0  0  0  0
   -7.2780   17.2720  -33.8120 O   0  0  0  0  0  0  0  0  0  0  0  0
   -6.9780   19.8640  -33.3900 N   0  0  0  0  0  0  0  0  0  0  0  0
   -6.6090   21.0170  -32.6140 C   0  0  0  0  0  0  0  0  0  0  0  0
   -7.5290   21.6690  -31.7730 C   0  0  0  0  0  0  0  0  0  0  0  0
   -7.1410   22.7900  -31.0340 C   0  0  0  0  0  0  0  0  0  0  0  0
   -5.8290   23.2730  -31.1210 C   0  0  0  0  0  0  0  0  0  0  0  0
   -5.3200   24.6720  -30.1800 S   0  0  0  0  0  0  0  0  0  0  0  0
   -3.8440   25.2970  -30.8250 N   0  0  0  0  0  0  0  0  0  0  0  0
   -6.3840   25.7290  -30.2440 O   0  0  0  0  0  0  0  0  0  0  0  0
   -5.0960   24.2840  -28.7450 O   0  0  0  0  0  0  0  0  0  0  0  0
   -4.9150   22.6380  -31.9690 C   0  0  0  0  0  0  0  0  0  0  0  0
   -5.3040   21.5210  -32.7130 C   0  0  0  0  0  0  0  0  0  0  0  0
   -4.4340   17.3380  -34.6160 C   0  0  0  0  0  0  0  0  0  0  0  0
   -3.1000   17.1830  -34.9920 C   0  0  0  0  0  0  0  0  0  0  0  0
   -2.0670   17.7600  -34.2310 C   0  0  0  0  0  0  0  0  0  0  0  0
   -0.6610   17.5010  -34.6390 C   0  0  0  0  0  0  0  0  0  0  0  0
    0.1650   16.6810  -33.8490 C   0  0  0  0  0  0  0  0  0  0  0  0
    1.4840   16.4240  -34.2350 C   0  0  0  0  0  0  0  0  0  0  0  0
    1.9930   16.9870  -35.4070 C   0  0  0  0  0  0  0  0  0  0  0  0
    1.1880   17.8200  -36.1910 C   0  0  0  0  0  0  0  0  0  0  0  0
    1.8300   18.5320  -37.6600 Cl  0  0  0  0  0  0  0  0  0  0  0  0
   -0.1290   18.0870  -35.8030 C   0  0  0  0  0  0  0  0  0  0  0  0
   -0.0080   20.8740  -33.6030 C   0  0  0  0  0  0  0  0  0  0  0  0
   -0.3740   21.5730  -34.7700 C   0  0  0  0  0  0  0  0  0  0  0  0
    0.5690   21.8130  -35.7750 C   0  0  0  0  0  0  0  0  0  0  0  0
    1.8840   21.3690  -35.6240 C   0  0  0  0  0  0  0  0  0  0  0  0
    2.2600   20.6840  -34.4670 C   0  0  0  0  0  0  0  0  0  0  0  0
    1.3230   20.4400  -33.4600 C   0  0  0  0  0  0  0  0  0  0  0  0
   -1.5379   22.5732  -30.0083 H   0  0  0  0  0  0  0  0  0  0  0  0
   -2.7703   21.2726  -30.1362 H   0  0  0  0  0  0  0  0  0  0  0  0
   -1.0227   20.8572  -30.1362 H   0  0  0  0  0  0  0  0  0  0  0  0
   -2.7717   21.7026  -32.3628 H   0  0  0  0  0  0  0  0  0  0  0  0
   -1.2494   22.6651  -32.2497 H   0  0  0  0  0  0  0  0  0  0  0  0
   -4.0106   19.2063  -31.7940 H   0  0  0  0  0  0  0  0  0  0  0  0
   -7.4750   20.0030  -34.2980 H   0  0  0  0  0  0  0  0  0  0  0  0
   -8.5603   21.2942  -31.6965 H   0  0  0  0  0  0  0  0  0  0  0  0
   -7.8686   23.2949  -30.3816 H   0  0  0  0  0  0  0  0  0  0  0  0
   -4.0490   26.2530  -31.1910 H   0  0  0  0  0  0  0  0  0  0  0  0
   -3.8865   23.0195  -32.0503 H   0  0  0  0  0  0  0  0  0  0  0  0
   -4.5803   21.0327  -33.3822 H   0  0  0  0  0  0  0  0  0  0  0  0
   -5.2302   16.8892  -35.2281 H   0  0  0  0  0  0  0  0  0  0  0  0
   -2.8528   16.6032  -35.8935 H   0  0  0  0  0  0  0  0  0  0  0  0
   -0.2292   16.2393  -32.9219 H   0  0  0  0  0  0  0  0  0  0  0  0
    2.1217   15.7773  -33.6144 H   0  0  0  0  0  0  0  0  0  0  0  0
    3.0279   16.7753  -35.7140 H   0  0  0  0  0  0  0  0  0  0  0  0
   -0.7526   18.7588  -36.4110 H   0  0  0  0  0  0  0  0  0  0  0  0
   -1.4066   21.9320  -34.8916 H   0  0  0  0  0  0  0  0  0  0  0  0
    0.2736   22.3530  -36.6867 H   0  0  0  0  0  0  0  0  0  0  0  0
    2.6233   21.5587  -36.4161 H   0  0  0  0  0  0  0  0  0  0  0  0
    3.2966   20.3356  -34.3481 H   0  0  0  0  0  0  0  0  0  0  0  0
    1.6278   19.9047  -32.5486 H   0  0  0  0  0  0  0  0  0  0  0  0
  1  2  1  0
  2  3  1  0
  3  4  1  0
  4  5  2  0
  4  6  1  0
  6  7  2  0
  7  8  1  0
  8  9  1  0
  9 10  2  0
  9 11  2  0
  9 12  1  0
 12 13  1  0
 13 14  2  0
 14 15  1  0
 15 16  2  0
 16 17  1  0
 17 18  1  0
 17 19  2  0
 17 20  2  0
 16 21  1  0
 21 22  2  0
  8 23  2  0
 23 24  1  0
 24 25  2  0
 25 26  1  0
 26 27  2  0
 27 28  1  0
 28 29  2  0
 29 30  1  0
 30 31  1  0
 30 32  2  0
  3 33  1  0
 33 34  2  0
 34 35  1  0
 35 36  2  0
 36 37  1  0
 37 38  2  0
 25  6  1  0
 32 26  1  0
 38 33  1  0
 22 13  1  0
  1 39  1  0
  1 40  1  0
  1 41  1  0
  2 42  1  0
  2 43  1  0
  7 44  1  0
 12 45  1  0
 14 46  1  0
 15 47  1  0
 18 48  1  0
 21 49  1  0
 22 50  1  0
 23 51  1  0
 24 52  1  0
 27 53  1  0
 28 54  1  0
 29 55  1  0
 32 56  1  0
 34 57  1  0
 35 58  1  0
 36 59  1  0
 37 60  1  0
 38 61  1  0
M  CHG  1  18  -1
M  END
>  <UniqueID>  (8) 
7

>  <SMILES>  (8) 
CCN(C(=O)c1cc(S(=O)(=O)Nc2ccc(S([NH-])(=O)=O)cc2)ccc1-c1cccc(Cl)c1)c1ccccc1

>  <Energy>  (8) 
76.24700995414042

>  <Genealogy>  (8) 
CCN(C(=O)c1cc(S(=O)(=O)Nc2ccc(S([NH-])(=O)=O)cc2)ccc1-c1cccc(Cl)c1)c1ccccc1 (protonated)
CCN(C(=O)c1cc(S(=O)(=O)Nc2ccc(S([NH-])(=O)=O)cc2)ccc1-c1cccc(Cl)c1)c1ccccc1 (3D coordinates assigned)
CCN(C(=O)c1cc(S(=O)(=O)Nc2ccc(S([NH-])(=O)=O)cc2)ccc1-c1cccc(Cl)c1)c1ccccc1 (optimized conformer: 76.24700995414042 kcal/mol)

>  <smiles>  (8) 
CCN(C(=O)c1cc(S(=O)(=O)Nc2ccc(S(N)(=O)=O)cc2)ccc1-c1cccc(Cl)c1)c1ccccc1

>  <score_type>  (8) 
oracle

>  <origin>  (8) 
adgpu

>  <m_score__min__energy>  (8) 
-13.300000000000001

>  <m_primary>  (8) 
energy

$$$$
8:0
     RDKit          3D

 37 38  0  0  0  0  0  0  0  0999 V2000
   -8.7530   18.2110  -31.3670 C   0  0  0  0  0  0  0  0  0  0  0  0
   -7.4080   18.5050  -31.8770 N   0  0  0  0  0  0  0  0  0  0  0  0
   -6.8550   17.3230  -32.5490 C   0  0  0  0  0  0  0  0  0  0  0  0
   -7.4920   19.8280  -33.0130 S   0  0  0  0  0  0  0  0  0  0  0  0
   -6.6450   19.5190  -34.2160 O   0  0  0  0  0  0  0  0  0  0  0  0
   -8.9110   20.0340  -33.4660 O   0  0  0  0  0  0  0  0  0  0  0  0
   -6.8820   21.3010  -32.2610 C   0  0  0  0  0  0  0  0  0  0  0  0
   -7.7620   22.2150  -31.6640 C   0  0  0  0  0  0  0  0  0  0  0  0
   -7.2670   23.3730  -31.0570 C   0  0  0  0  0  0  0  0  0  0  0  0
   -5.8900   23.6270  -31.0410 C   0  0  0  0  0  0  0  0  0  0  0  0
   -5.2610   25.0900  -30.2890 S   0  0  0  0  0  0  0  0  0  0  0  0
   -5.7450   25.1520  -28.8680 O   0  0  0  0  0  0  0  0  0  0  0  0
   -5.7390   26.3110  -31.0240 O   0  0  0  0  0  0  0  0  0  0  0  0
   -3.5280   25.0670  -30.2970 N   0  0  0  0  0  0  0  0  0  0  0  0
   -2.7020   24.4200  -29.3190 C   0  0  0  0  0  0  0  0  0  0  0  0
   -3.0090   23.1420  -28.8130 C   0  0  0  0  0  0  0  0  0  0  0  0
   -2.1820   22.5460  -27.8550 C   0  0  0  0  0  0  0  0  0  0  0  0
   -1.0460   23.2160  -27.3960 C   0  0  0  0  0  0  0  0  0  0  0  0
   -0.7320   24.4820  -27.8940 C   0  0  0  0  0  0  0  0  0  0  0  0
   -1.5560   25.0840  -28.8530 C   0  0  0  0  0  0  0  0  0  0  0  0
   -1.2320   26.3460  -29.3400 O   0  0  0  0  0  0  0  0  0  0  0  0
   -5.0090   22.7070  -31.6270 C   0  0  0  0  0  0  0  0  0  0  0  0
   -5.5040   21.5490  -32.2340 C   0  0  0  0  0  0  0  0  0  0  0  0
   -8.7370   18.2145  -30.2671 H   0  0  0  0  0  0  0  0  0  0  0  0
   -9.4567   18.9765  -31.7259 H   0  0  0  0  0  0  0  0  0  0  0  0
   -9.0731   17.2217  -31.7259 H   0  0  0  0  0  0  0  0  0  0  0  0
   -6.5157   16.5977  -31.7948 H   0  0  0  0  0  0  0  0  0  0  0  0
   -7.6310   16.8622  -33.1779 H   0  0  0  0  0  0  0  0  0  0  0  0
   -6.0039   17.6234  -33.1779 H   0  0  0  0  0  0  0  0  0  0  0  0
   -8.8446   22.0204  -31.6733 H   0  0  0  0  0  0  0  0  0  0  0  0
   -7.9616   24.0870  -30.5904 H   0  0  0  0  0  0  0  0  0  0  0  0
   -3.9025   22.6105  -29.1725 H   0  0  0  0  0  0  0  0  0  0  0  0
   -2.4269   21.5480  -27.4626 H   0  0  0  0  0  0  0  0  0  0  0  0
   -0.3981   22.7460  -26.6415 H   0  0  0  0  0  0  0  0  0  0  0  0
    0.1642   25.0075  -27.5324 H   0  0  0  0  0  0  0  0  0  0  0  0
   -3.9257   22.8969  -31.6091 H   0  0  0  0  0  0  0  0  0  0  0  0
   -4.8087   20.8302  -32.6920 H   0  0  0  0  0  0  0  0  0  0  0  0
  1  2  1  0
  2  3  1  0
  2  4  1  0
  4  5  2  0
  4  6  2  0
  4  7  1  0
  7  8  2  0
  8  9  1  0
  9 10  2  0
 10 11  1  0
 11 12  2  0
 11 13  2  0
 11 14  1  0
 14 15  1  0
 15 16  2  0
 16 17  1  0
 17 18  2  0
 18 19  1  0
 19 20  2  0
 20 21  1  0
 10 22  1  0
 22 23  2  0
 23  7  1  0
 20 15  1  0
  1 24  1  0
  1 25  1  0
  1 26  1  0
  3 27  1  0
  3 28  1  0
  3 29  1  0
  8 30  1  0
  9 31  1  0
 16 32  1  0
 17 33  1  0
 18 34  1  0
 19 35  1  0
 22 36  1  0
 23 37  1  0
M  CHG  2  14  -1  21  -1
M  END
>  <UniqueID>  (9) 
8

>  <SMILES>  (9) 
CN(C)S(=O)(=O)c1ccc(S(=O)(=O)[N-]c2ccccc2[O-])cc1

>  <Energy>  (9) 
38.41561820085865

>  <Genealogy>  (9) 
CN(C)S(=O)(=O)c1ccc(S(=O)(=O)[N-]c2ccccc2[O-])cc1 (protonated)
CN(C)S(=O)(=O)c1ccc(S(=O)(=O)[N-]c2ccccc2[O-])cc1 (3D coordinates assigned)
CN(C)S(=O)(=O)c1ccc(S(=O)(=O)[N-]c2ccccc2[O-])cc1 (optimized conformer: 38.41561820085865 kcal/mol)

>  <smiles>  (9) 
CN(C)S(=O)(=O)c1ccc(S(=O)(=O)Nc2ccccc2O)cc1

>  <score_type>  (9) 
oracle

>  <origin>  (9) 
adgpu

>  <m_score__min__energy>  (9) 
-13.49

>  <m_primary>  (9) 
energy

$$$$
9:0
     RDKit          3D

 59 62  0  0  0  0  0  0  0  0999 V2000
    2.4020   18.1050  -31.3110 C   0  0  0  0  0  0  0  0  0  0  0  0
    1.3630   18.6030  -30.4200 N   0  0  0  0  0  0  0  0  0  0  0  0
    1.3810   18.3250  -29.0120 C   0  0  0  0  0  0  0  0  0  0  0  0
    2.3450   17.6800  -28.5130 O   0  0  0  0  0  0  0  0  0  0  0  0
    0.2750   18.7730  -28.1460 C   0  0  0  0  0  0  0  0  0  0  0  0
    0.0580   20.1410  -27.8990 C   0  0  0  0  0  0  0  0  0  0  0  0
   -0.9790   20.5370  -27.0330 C   0  0  0  0  0  0  0  0  0  0  0  0
   -1.2790   21.8850  -26.7750 O   0  0  0  0  0  0  0  0  0  0  0  0
   -1.9080   22.7740  -27.6600 C   0  0  0  0  0  0  0  0  0  0  0  0
   -3.2960   22.6920  -27.8220 C   0  0  0  0  0  0  0  0  0  0  0  0
   -3.9570   23.5370  -28.7240 C   0  0  0  0  0  0  0  0  0  0  0  0
   -3.2240   24.4650  -29.4860 C   0  0  0  0  0  0  0  0  0  0  0  0
   -3.8470   25.2990  -30.4740 N   0  0  0  0  0  0  0  0  0  0  0  0
   -5.2350   25.3280  -30.8480 C   0  0  0  0  0  0  0  0  0  0  0  0
   -6.0220   26.0490  -30.1790 O   0  0  0  0  0  0  0  0  0  0  0  0
   -5.7590   24.5820  -31.9600 N   0  0  0  0  0  0  0  0  0  0  0  0
   -6.2750   23.2400  -31.9630 C   0  0  0  0  0  0  0  0  0  0  0  0
   -7.6090   23.0350  -31.5900 C   0  0  0  0  0  0  0  0  0  0  0  0
   -8.1450   21.7450  -31.5640 C   0  0  0  0  0  0  0  0  0  0  0  0
   -7.3480   20.6490  -31.9020 C   0  0  0  0  0  0  0  0  0  0  0  0
   -6.0170   20.8390  -32.2890 C   0  0  0  0  0  0  0  0  0  0  0  0
   -5.0020   19.4430  -32.6400 S   0  0  0  0  0  0  0  0  0  0  0  0
   -5.0910   19.1500  -34.1130 O   0  0  0  0  0  0  0  0  0  0  0  0
   -5.5060   18.2430  -31.8800 O   0  0  0  0  0  0  0  0  0  0  0  0
   -3.3400   19.7690  -32.2150 N   0  0  0  0  0  0  0  0  0  0  0  0
   -2.7010   20.5910  -33.2560 C   0  0  0  0  0  0  0  0  0  0  0  0
   -1.2360   20.8840  -32.8700 C   0  0  0  0  0  0  0  0  0  0  0  0
   -0.9400   20.4850  -31.5400 O   0  0  0  0  0  0  0  0  0  0  0  0
   -1.8880   21.0430  -30.6520 C   0  0  0  0  0  0  0  0  0  0  0  0
   -3.2900   20.4600  -30.9130 C   0  0  0  0  0  0  0  0  0  0  0  0
   -5.4910   22.1380  -32.3540 C   0  0  0  0  0  0  0  0  0  0  0  0
   -1.8480   24.6010  -29.2650 C   0  0  0  0  0  0  0  0  0  0  0  0
   -1.1910   23.7660  -28.3540 C   0  0  0  0  0  0  0  0  0  0  0  0
   -1.7890   19.5530  -26.4490 C   0  0  0  0  0  0  0  0  0  0  0  0
   -1.5620   18.2060  -26.7370 C   0  0  0  0  0  0  0  0  0  0  0  0
   -0.5480   17.8480  -27.5660 N   0  0  0  0  0  0  0  0  0  0  0  0
    3.2357   17.7054  -30.7149 H   0  0  0  0  0  0  0  0  0  0  0  0
    1.9893   17.3068  -31.9455 H   0  0  0  0  0  0  0  0  0  0  0  0
    2.7657   18.9267  -31.9455 H   0  0  0  0  0  0  0  0  0  0  0  0
    0.5960   19.1930  -30.8240 H   0  0  0  0  0  0  0  0  0  0  0  0
    0.6954   20.8974  -28.3801 H   0  0  0  0  0  0  0  0  0  0  0  0
   -3.8719   21.9594  -27.2374 H   0  0  0  0  0  0  0  0  0  0  0  0
   -5.0495   23.4745  -28.8361 H   0  0  0  0  0  0  0  0  0  0  0  0
   -8.2385   23.8944  -31.3159 H   0  0  0  0  0  0  0  0  0  0  0  0
   -9.1959   21.5924  -31.2770 H   0  0  0  0  0  0  0  0  0  0  0  0
   -7.7681   19.6331  -31.8638 H   0  0  0  0  0  0  0  0  0  0  0  0
   -2.7244   20.0497  -34.2133 H   0  0  0  0  0  0  0  0  0  0  0  0
   -3.2466   21.5413  -33.3520 H   0  0  0  0  0  0  0  0  0  0  0  0
   -0.5729   20.3398  -33.5586 H   0  0  0  0  0  0  0  0  0  0  0  0
   -1.0805   21.9708  -32.9382 H   0  0  0  0  0  0  0  0  0  0  0  0
   -1.5901   20.8170  -29.6175 H   0  0  0  0  0  0  0  0  0  0  0  0
   -1.9229   22.1309  -30.8109 H   0  0  0  0  0  0  0  0  0  0  0  0
   -3.5360   19.7434  -30.1155 H   0  0  0  0  0  0  0  0  0  0  0  0
   -4.0166   21.2858  -30.9259 H   0  0  0  0  0  0  0  0  0  0  0  0
   -4.4628   22.2959  -32.7116 H   0  0  0  0  0  0  0  0  0  0  0  0
   -1.2800   25.3688  -29.8107 H   0  0  0  0  0  0  0  0  0  0  0  0
   -0.1114   23.8855  -28.1801 H   0  0  0  0  0  0  0  0  0  0  0  0
   -2.6013   19.8415  -25.7656 H   0  0  0  0  0  0  0  0  0  0  0  0
   -2.2058   17.4333  -26.2915 H   0  0  0  0  0  0  0  0  0  0  0  0
  1  2  1  0
  2  3  1  0
  3  4  2  0
  3  5  1  0
  5  6  2  0
  6  7  1  0
  7  8  1  0
  8  9  1  0
  9 10  2  0
 10 11  1  0
 11 12  2  0
 12 13  1  0
 13 14  1  0
 14 15  2  0
 14 16  1  0
 16 17  1  0
 17 18  2  0
 18 19  1  0
 19 20  2  0
 20 21  1  0
 21 22  1  0
 22 23  2  0
 22 24  2  0
 22 25  1  0
 25 26  1  0
 26 27  1  0
 27 28  1  0
 28 29  1  0
 29 30  1  0
 21 31  2  0
 12 32  1  0
 32 33  2  0
  7 34  2  0
 34 35  1  0
 35 36  2  0
 36  5  1  0
 33  9  1  0
 31 17  1  0
 30 25  1  0
  1 37  1  0
  1 38  1  0
  1 39  1  0
  2 40  1  0
  6 41  1  0
 10 42  1  0
 11 43  1  0
 18 44  1  0
 19 45  1  0
 20 46  1  0
 26 47  1  0
 26 48  1  0
 27 49  1  0
 27 50  1  0
 29 51  1  0
 29 52  1  0
 30 53  1  0
 30 54  1  0
 31 55  1  0
 32 56  1  0
 33 57  1  0
 34 58  1  0
 35 59  1  0
M  CHG  2  13  -1  16  -1
M  END
>  <UniqueID>  (10) 
9

>  <SMILES>  (10) 
CNC(=O)c1cc(Oc2ccc([N-]C(=O)[N-]c3cccc(S(=O)(=O)N4CCOCC4)c3)cc2)ccn1

>  <Energy>  (10) 
79.28353058937562

>  <Genealogy>  (10) 
CNC(=O)c1cc(Oc2ccc([N-]C(=O)[N-]c3cccc(S(=O)(=O)N4CCOCC4)c3)cc2)ccn1 (protonated)
CNC(=O)c1cc(Oc2ccc([N-]C(=O)[N-]c3cccc(S(=O)(=O)N4CCOCC4)c3)cc2)ccn1 (3D coordinates assigned)
CNC(=O)c1cc(Oc2ccc([N-]C(=O)[N-]c3cccc(S(=O)(=O)N4CCOCC4)c3)cc2)ccn1 (nonaromatic ring conformer: 79.28353058937562 kcal/mol)

>  <smiles>  (10) 
CNC(=O)c1cc(Oc2ccc(NC(=O)Nc3cccc(S(=O)(=O)N4CCOCC4)c3)cc2)ccn1

>  <score_type>  (10) 
oracle

>  <origin>  (10) 
adgpu

>  <m_score__min__energy>  (10) 
-12.67

>  <m_primary>  (10) 
energy

$$$$
10:0
     RDKit          3D

 54 56  0  0  0  0  0  0  0  0999 V2000
   -5.5520   15.6500  -33.2440 C   0  0  0  0  0  0  0  0  0  0  0  0
   -6.6820   16.4100  -33.6620 O   0  0  0  0  0  0  0  0  0  0  0  0
   -6.8980   17.7590  -33.3400 C   0  0  0  0  0  0  0  0  0  0  0  0
   -7.9950   18.1750  -32.5620 C   0  0  0  0  0  0  0  0  0  0  0  0
   -8.1750   19.5270  -32.2580 C   0  0  0  0  0  0  0  0  0  0  0  0
   -9.2600   19.9230  -31.5430 N   0  0  0  0  0  0  0  0  0  0  0  0
   -9.4620   21.2320  -31.2450 C   0  0  0  0  0  0  0  0  0  0  0  0
   -8.5610   22.1680  -31.6370 N   0  0  0  0  0  0  0  0  0  0  0  0
   -7.4450   21.8280  -32.3330 C   0  0  0  0  0  0  0  0  0  0  0  0
   -6.5190   22.8270  -32.6530 O   0  0  0  0  0  0  0  0  0  0  0  0
   -5.4890   23.2370  -31.7910 C   0  0  0  0  0  0  0  0  0  0  0  0
   -5.7030   24.3570  -30.9810 C   0  0  0  0  0  0  0  0  0  0  0  0
   -4.6900   24.8310  -30.1430 C   0  0  0  0  0  0  0  0  0  0  0  0
   -3.4490   24.1780  -30.0830 C   0  0  0  0  0  0  0  0  0  0  0  0
   -2.4070   24.7180  -29.2460 N   0  0  0  0  0  0  0  0  0  0  0  0
   -2.4770   24.7950  -27.7850 C   0  0  0  0  0  0  0  0  0  0  0  0
   -1.2620   25.4750  -27.2250 C   0  0  0  0  0  0  0  0  0  0  0  0
   -0.2980   25.7420  -27.9920 O   0  0  0  0  0  0  0  0  0  0  0  0
   -1.1950   25.8030  -25.8260 N   0  0  0  0  0  0  0  0  0  0  0  0
   -0.2920   26.8260  -25.2700 C   0  0  0  0  0  0  0  0  0  0  0  0
   -0.6440   27.0940  -23.7950 C   0  0  0  0  0  0  0  0  0  0  0  0
    1.1630   26.3350  -25.3660 C   0  0  0  0  0  0  0  0  0  0  0  0
   -0.4130   28.0750  -26.0450 C   0  0  0  0  0  0  0  0  0  0  0  0
   -0.5070   29.0560  -26.6520 N   0  0  0  0  0  0  0  0  0  0  0  0
   -3.2530   23.0200  -30.8570 C   0  0  0  0  0  0  0  0  0  0  0  0
   -4.2580   22.5550  -31.7100 C   0  0  0  0  0  0  0  0  0  0  0  0
   -4.0310   21.4290  -32.4310 F   0  0  0  0  0  0  0  0  0  0  0  0
   -7.2400   20.4820  -32.7010 C   0  0  0  0  0  0  0  0  0  0  0  0
   -6.1620   20.0720  -33.5040 C   0  0  0  0  0  0  0  0  0  0  0  0
   -5.9910   18.7130  -33.8290 C   0  0  0  0  0  0  0  0  0  0  0  0
   -4.9350   18.2700  -34.6430 O   0  0  0  0  0  0  0  0  0  0  0  0
   -3.5680   18.2370  -34.2430 C   0  0  0  0  0  0  0  0  0  0  0  0
   -5.5137   15.6242  -32.1450 H   0  0  0  0  0  0  0  0  0  0  0  0
   -5.6361   14.6242  -33.6321 H   0  0  0  0  0  0  0  0  0  0  0  0
   -4.6336   16.1147  -33.6321 H   0  0  0  0  0  0  0  0  0  0  0  0
   -8.7152   17.4309  -32.1910 H   0  0  0  0  0  0  0  0  0  0  0  0
  -10.3586   21.5348  -30.6842 H   0  0  0  0  0  0  0  0  0  0  0  0
   -6.6764   24.8688  -31.0037 H   0  0  0  0  0  0  0  0  0  0  0  0
   -4.8668   25.7237  -29.5250 H   0  0  0  0  0  0  0  0  0  0  0  0
   -1.5160   25.0290  -29.6970 H   0  0  0  0  0  0  0  0  0  0  0  0
   -3.3731   25.3643  -27.4970 H   0  0  0  0  0  0  0  0  0  0  0  0
   -2.5246   23.7728  -27.3814 H   0  0  0  0  0  0  0  0  0  0  0  0
   -1.8960   25.3500  -25.1950 H   0  0  0  0  0  0  0  0  0  0  0  0
    0.0626   26.5561  -23.1458 H   0  0  0  0  0  0  0  0  0  0  0  0
   -0.5789   28.1733  -23.5928 H   0  0  0  0  0  0  0  0  0  0  0  0
   -1.6671   26.7441  -23.5928 H   0  0  0  0  0  0  0  0  0  0  0  0
    1.5710   26.1973  -24.3538 H   0  0  0  0  0  0  0  0  0  0  0  0
    1.1919   25.3773  -25.9064 H   0  0  0  0  0  0  0  0  0  0  0  0
    1.7663   27.0793  -25.9064 H   0  0  0  0  0  0  0  0  0  0  0  0
   -2.2998   22.4751  -30.7904 H   0  0  0  0  0  0  0  0  0  0  0  0
   -5.4470   20.8180  -33.8811 H   0  0  0  0  0  0  0  0  0  0  0  0
   -3.5073   18.2355  -33.1447 H   0  0  0  0  0  0  0  0  0  0  0  0
   -3.0923   17.3271  -34.6377 H   0  0  0  0  0  0  0  0  0  0  0  0
   -3.0490   19.1229  -34.6377 H   0  0  0  0  0  0  0  0  0  0  0  0
  1  2  1  0
  2  3  1  0
  3  4  2  0
  4  5  1  0
  5  6  2  0
  6  7  1  0
  7  8  2  0
  8  9  1  0
  9 10  1  0
 10 11  1  0
 11 12  2  0
 12 13  1  0
 13 14  2  0
 14 15  1  0
 15 16  1  0
 16 17  1  0
 17 18  2  0
 17 19  1  0
 19 20  1  0
 20 21  1  0
 20 22  1  0
 20 23  1  0
 23 24  3  0
 14 25  1  0
 25 26  2  0
 26 27  1  0
  9 28  2  0
 28 29  1  0
 29 30  2  0
 30 31  1  0
 31 32  1  0
 30  3  1  0
 28  5  1  0
 26 11  1  0
  1 33  1  0
  1 34  1  0
  1 35  1  0
  4 36  1  0
  7 37  1  0
 12 38  1  0
 13 39  1  0
 15 40  1  0
 16 41  1  0
 16 42  1  0
 19 43  1  0
 21 44  1  0
 21 45  1  0
 21 46  1  0
 22 47  1  0
 22 48  1  0
 22 49  1  0
 25 50  1  0
 29 51  1  0
 32 52  1  0
 32 53  1  0
 32 54  1  0
M  END
>  <UniqueID>  (11) 
10

>  <SMILES>  (11) 
COc1cc2ncnc(Oc3ccc(NCC(=O)NC(C)(C)C#N)cc3F)c2cc1OC

>  <Energy>  (11) 
59.696743270990474

>  <Genealogy>  (11) 
COc1cc2ncnc(Oc3ccc(NCC(=O)NC(C)(C)C#N)cc3F)c2cc1OC (3D coordinates assigned)
COc1cc2ncnc(Oc3ccc(NCC(=O)NC(C)(C)C#N)cc3F)c2cc1OC (optimized conformer: 59.696743270990474 kcal/mol)

>  <smiles>  (11) 
COc1cc2ncnc(Oc3ccc(NCC(=O)NC(C)(C)C#N)cc3F)c2cc1OC

>  <score_type>  (11) 
oracle

>  <origin>  (11) 
adgpu

>  <m_score__min__energy>  (11) 
-8.4600000000000009

>  <m_primary>  (11) 
energy

$$$$
11:0
     RDKit          3D

 47 50  0  0  0  0  0  0  0  0999 V2000
   -6.4460   16.5920  -34.2380 C   0  0  0  0  0  0  0  0  0  0  0  0
   -6.7570   17.6000  -33.2320 N   0  0  0  0  0  0  0  0  0  0  0  0
   -7.6950   17.4700  -32.3060 N   0  0  0  0  0  0  0  0  0  0  0  0
   -7.7340   18.6460  -31.6430 C   0  0  0  0  0  0  0  0  0  0  0  0
   -6.8380   19.5290  -32.1390 N   0  0  0  0  0  0  0  0  0  0  0  0
   -6.6180   20.8900  -31.7240 C   0  0  0  0  0  0  0  0  0  0  0  0
   -5.4680   21.5810  -32.1400 C   0  0  0  0  0  0  0  0  0  0  0  0
   -5.2260   22.8850  -31.6990 C   0  0  0  0  0  0  0  0  0  0  0  0
   -6.1380   23.5210  -30.8450 C   0  0  0  0  0  0  0  0  0  0  0  0
   -5.7590   25.0880  -30.1300 S   0  0  0  0  0  0  0  0  0  0  0  0
   -5.1340   25.9980  -31.1500 O   0  0  0  0  0  0  0  0  0  0  0  0
   -7.0310   25.7110  -29.6270 O   0  0  0  0  0  0  0  0  0  0  0  0
   -4.6530   24.8760  -28.8070 N   0  0  0  0  0  0  0  0  0  0  0  0
   -3.5940   23.9060  -28.8490 C   0  0  0  0  0  0  0  0  0  0  0  0
   -3.8600   22.5430  -28.6230 C   0  0  0  0  0  0  0  0  0  0  0  0
   -2.8080   21.6240  -28.5240 C   0  0  0  0  0  0  0  0  0  0  0  0
   -1.4860   22.0490  -28.7080 C   0  0  0  0  0  0  0  0  0  0  0  0
   -1.2210   23.3910  -29.0130 C   0  0  0  0  0  0  0  0  0  0  0  0
   -2.2670   24.3190  -29.0720 C   0  0  0  0  0  0  0  0  0  0  0  0
   -1.9780   25.6530  -29.3300 O   0  0  0  0  0  0  0  0  0  0  0  0
   -0.3830   21.0290  -28.6200 C   0  0  0  0  0  0  0  0  0  0  0  0
   -0.5890   20.0860  -27.4150 C   0  0  0  0  0  0  0  0  0  0  0  0
   -2.0670   19.6960  -27.1330 C   0  0  0  0  0  0  0  0  0  0  0  0
   -3.0590   20.1760  -28.2040 C   0  0  0  0  0  0  0  0  0  0  0  0
   -7.3090   22.8530  -30.4650 C   0  0  0  0  0  0  0  0  0  0  0  0
   -7.5470   21.5470  -30.8960 C   0  0  0  0  0  0  0  0  0  0  0  0
   -6.2570   18.8430  -33.1420 C   0  0  0  0  0  0  0  0  0  0  0  0
   -5.3910   19.3150  -33.9270 O   0  0  0  0  0  0  0  0  0  0  0  0
   -6.1568   15.6545  -33.7405 H   0  0  0  0  0  0  0  0  0  0  0  0
   -7.3315   16.4156  -34.8663 H   0  0  0  0  0  0  0  0  0  0  0  0
   -5.6151   16.9452  -34.8663 H   0  0  0  0  0  0  0  0  0  0  0  0
   -8.4113   18.8593  -30.8029 H   0  0  0  0  0  0  0  0  0  0  0  0
   -4.7527   21.0923  -32.8178 H   0  0  0  0  0  0  0  0  0  0  0  0
   -4.3174   23.4138  -32.0229 H   0  0  0  0  0  0  0  0  0  0  0  0
   -4.9160   25.3100  -27.8950 H   0  0  0  0  0  0  0  0  0  0  0  0
   -4.8996   22.1975  -28.5236 H   0  0  0  0  0  0  0  0  0  0  0  0
   -0.1880   23.7158  -29.2066 H   0  0  0  0  0  0  0  0  0  0  0  0
   -0.3712   20.4327  -29.5443 H   0  0  0  0  0  0  0  0  0  0  0  0
    0.5718   21.5591  -28.4881 H   0  0  0  0  0  0  0  0  0  0  0  0
   -0.0221   19.1624  -27.6033 H   0  0  0  0  0  0  0  0  0  0  0  0
   -0.2416   20.6378  -26.5291 H   0  0  0  0  0  0  0  0  0  0  0  0
   -2.1290   18.5995  -27.0716 H   0  0  0  0  0  0  0  0  0  0  0  0
   -2.3515   20.1915  -26.1930 H   0  0  0  0  0  0  0  0  0  0  0  0
   -2.9309   19.5738  -29.1155 H   0  0  0  0  0  0  0  0  0  0  0  0
   -4.0848   20.0624  -27.8235 H   0  0  0  0  0  0  0  0  0  0  0  0
   -8.0448   23.3602  -29.8236 H   0  0  0  0  0  0  0  0  0  0  0  0
   -8.4663   21.0282  -30.5866 H   0  0  0  0  0  0  0  0  0  0  0  0
  1  2  1  0
  2  3  1  0
  3  4  2  0
  4  5  1  0
  5  6  1  0
  6  7  2  0
  7  8  1  0
  8  9  2  0
  9 10  1  0
 10 11  2  0
 10 12  2  0
 10 13  1  0
 13 14  1  0
 14 15  2  0
 15 16  1  0
 16 17  2  0
 17 18  1  0
 18 19  2  0
 19 20  1  0
 17 21  1  0
 21 22  1  0
 22 23  1  0
 23 24  1  0
  9 25  1  0
 25 26  2  0
  5 27  1  0
 27 28  2  0
 27  2  1  0
 26  6  1  0
 19 14  1  0
 24 16  1  0
  1 29  1  0
  1 30  1  0
  1 31  1  0
  4 32  1  0
  7 33  1  0
  8 34  1  0
 13 35  1  0
 15 36  1  0
 18 37  1  0
 21 38  1  0
 21 39  1  0
 22 40  1  0
 22 41  1  0
 23 42  1  0
 23 43  1  0
 24 44  1  0
 24 45  1  0
 25 46  1  0
 26 47  1  0
M  CHG  1  20  -1
M  END
>  <UniqueID>  (12) 
11

>  <SMILES>  (12) 
Cn1ncn(-c2ccc(S(=O)(=O)Nc3cc4c(cc3[O-])CCCC4)cc2)c1=O

>  <Energy>  (12) 
98.30141679413427

>  <Genealogy>  (12) 
Cn1ncn(-c2ccc(S(=O)(=O)Nc3cc4c(cc3[O-])CCCC4)cc2)c1=O (protonated)
Cn1ncn(-c2ccc(S(=O)(=O)Nc3cc4c(cc3[O-])CCCC4)cc2)c1=O (3D coordinates assigned)
Cn1ncn(-c2ccc(S(=O)(=O)Nc3cc4c(cc3[O-])CCCC4)cc2)c1=O (nonaromatic ring conformer: 98.30141679413427 kcal/mol)

>  <smiles>  (12) 
Cn1ncn(-c2ccc(S(=O)(=O)Nc3cc4c(cc3O)CCCC4)cc2)c1=O

>  <score_type>  (12) 
oracle

>  <origin>  (12) 
adgpu

>  <m_score__min__energy>  (12) 
-13.27

>  <m_primary>  (12) 
energy

$$$$
12:0
     RDKit          3D

 83 87  0  0  0  0  0  0  0  0999 V2000
   -2.9113   22.0449  -31.2339 H   0  0  0  0  0  0  0  0  0  0  0  0
   -3.7210   22.6950  -30.8710 C   0  0  0  0  0  0  0  0  0  0  0  0
   -3.3600   23.8970  -30.0870 C   0  0  0  0  0  0  0  0  0  0  0  0
   -3.7380   25.0210  -30.5070 O   0  0  0  0  0  0  0  0  0  0  0  0
   -2.6150   23.8190  -28.8550 N   0  0  0  0  0  0  0  0  0  0  0  0
   -3.0400   22.9250  -27.7740 C   0  0  0  0  0  0  0  0  0  0  0  0
   -3.5982   23.5042  -27.0236 H   0  0  0  0  0  0  0  0  0  0  0  0
   -3.6791   22.1354  -28.1959 H   0  0  0  0  0  0  0  0  0  0  0  0
   -1.8160   22.2700  -27.1020 C   0  0  0  0  0  0  0  0  0  0  0  0
   -2.0774   22.0388  -26.0588 H   0  0  0  0  0  0  0  0  0  0  0  0
   -1.5751   21.3716  -27.6893 H   0  0  0  0  0  0  0  0  0  0  0  0
   -0.5990   23.1180  -27.1000 N   0  0  0  0  0  0  0  0  0  0  0  0
    0.3960   22.6550  -28.0840 C   0  0  0  0  0  0  0  0  0  0  0  0
    1.2712   22.2477  -27.5566 H   0  0  0  0  0  0  0  0  0  0  0  0
   -0.0493   21.8716  -28.7149 H   0  0  0  0  0  0  0  0  0  0  0  0
    0.7086   23.5002  -28.7149 H   0  0  0  0  0  0  0  0  0  0  0  0
   -0.8870   24.5630  -27.2450 C   0  0  0  0  0  0  0  0  0  0  0  0
   -1.5066   24.8892  -26.3967 H   0  0  0  0  0  0  0  0  0  0  0  0
    0.0718   25.1018  -27.2654 H   0  0  0  0  0  0  0  0  0  0  0  0
   -1.6340   24.8690  -28.5530 C   0  0  0  0  0  0  0  0  0  0  0  0
   -2.1566   25.8317  -28.4524 H   0  0  0  0  0  0  0  0  0  0  0  0
   -0.9024   24.9124  -29.3733 H   0  0  0  0  0  0  0  0  0  0  0  0
   -4.9870   22.3590  -31.1610 C   0  0  0  0  0  0  0  0  0  0  0  0
   -5.8051   22.9685  -30.7497 H   0  0  0  0  0  0  0  0  0  0  0  0
   -5.3220   21.1970  -32.0150 C   0  0  0  0  0  0  0  0  0  0  0  0
   -4.5490   20.9470  -33.1570 C   0  0  0  0  0  0  0  0  0  0  0  0
   -3.7526   21.6496  -33.4435 H   0  0  0  0  0  0  0  0  0  0  0  0
   -4.7850   19.8100  -33.9330 C   0  0  0  0  0  0  0  0  0  0  0  0
   -4.1563   19.6070  -34.8125 H   0  0  0  0  0  0  0  0  0  0  0  0
   -5.8190   18.9270  -33.5960 C   0  0  0  0  0  0  0  0  0  0  0  0
   -6.0210   17.4080  -34.5330 S   0  0  0  0  0  0  0  0  0  0  0  0
   -4.4830   16.6900  -33.9560 C   0  0  0  0  0  0  0  0  0  0  0  0
   -3.3110   17.4540  -33.9820 C   0  0  0  0  0  0  0  0  0  0  0  0
   -3.3189   18.4554  -34.4372 H   0  0  0  0  0  0  0  0  0  0  0  0
   -2.1300   16.9480  -33.4310 C   0  0  0  0  0  0  0  0  0  0  0  0
   -1.2126   17.5546  -33.4519 H   0  0  0  0  0  0  0  0  0  0  0  0
   -2.1090   15.6670  -32.8500 C   0  0  0  0  0  0  0  0  0  0  0  0
   -0.8970   15.1380  -32.1910 C   0  0  0  0  0  0  0  0  0  0  0  0
   -0.6624   14.0671  -32.2817 H   0  0  0  0  0  0  0  0  0  0  0  0
   -0.0750   15.9290  -31.4850 C   0  0  0  0  0  0  0  0  0  0  0  0
   -0.3190   17.0001  -31.4279 H   0  0  0  0  0  0  0  0  0  0  0  0
    1.1370   15.4600  -30.7780 C   0  0  0  0  0  0  0  0  0  0  0  0
    1.1040   14.3100  -30.2620 O   0  0  0  0  0  0  0  0  0  0  0  0
    2.3250   16.2620  -30.6220 N   0  0  0  0  0  0  0  0  0  0  0  0
    3.0740   16.1530  -29.3670 C   0  0  0  0  0  0  0  0  0  0  0  0
    2.3904   16.3472  -28.5274 H   0  0  0  0  0  0  0  0  0  0  0  0
    3.4959   15.1387  -29.3099 H   0  0  0  0  0  0  0  0  0  0  0  0
    4.2400   17.1580  -29.3020 C   0  0  0  0  0  0  0  0  0  0  0  0
    4.4368   17.3982  -28.2467 H   0  0  0  0  0  0  0  0  0  0  0  0
    5.1078   16.6855  -29.7855 H   0  0  0  0  0  0  0  0  0  0  0  0
    3.9620   18.4160  -30.0270 N   0  0  0  0  0  0  0  0  0  0  0  0
    3.3590   19.5030  -29.2240 C   0  0  0  0  0  0  0  0  0  0  0  0
    3.8634   19.5331  -28.2469 H   0  0  0  0  0  0  0  0  0  0  0  0
    3.4910   20.4340  -29.7949 H   0  0  0  0  0  0  0  0  0  0  0  0
    1.8730   19.3370  -28.9890 C   0  0  0  0  0  0  0  0  0  0  0  0
    0.9390   19.8620  -29.9000 C   0  0  0  0  0  0  0  0  0  0  0  0
    1.2881   20.4206  -30.7810 H   0  0  0  0  0  0  0  0  0  0  0  0
   -0.4330   19.6770  -29.6910 C   0  0  0  0  0  0  0  0  0  0  0  0
   -1.1589   20.0792  -30.4129 H   0  0  0  0  0  0  0  0  0  0  0  0
   -0.8800   18.9800  -28.5630 C   0  0  0  0  0  0  0  0  0  0  0  0
   -1.9569   18.8172  -28.4089 H   0  0  0  0  0  0  0  0  0  0  0  0
    0.0390   18.4910  -27.6330 C   0  0  0  0  0  0  0  0  0  0  0  0
   -0.3161   17.9573  -26.7391 H   0  0  0  0  0  0  0  0  0  0  0  0
    1.4100   18.6780  -27.8350 C   0  0  0  0  0  0  0  0  0  0  0  0
    2.1292   18.3086  -27.0891 H   0  0  0  0  0  0  0  0  0  0  0  0
    3.4610   18.2840  -31.4150 C   0  0  0  0  0  0  0  0  0  0  0  0
    2.6077   18.9663  -31.5427 H   0  0  0  0  0  0  0  0  0  0  0  0
    4.2986   18.5302  -32.0842 H   0  0  0  0  0  0  0  0  0  0  0  0
    3.0030   16.8620  -31.7730 C   0  0  0  0  0  0  0  0  0  0  0  0
    2.3095   16.9042  -32.6258 H   0  0  0  0  0  0  0  0  0  0  0  0
    3.8782   16.2521  -32.0413 H   0  0  0  0  0  0  0  0  0  0  0  0
   -3.2740   14.8830  -32.8820 C   0  0  0  0  0  0  0  0  0  0  0  0
   -3.2527   13.8565  -32.4871 H   0  0  0  0  0  0  0  0  0  0  0  0
   -4.4620   15.3990  -33.4130 C   0  0  0  0  0  0  0  0  0  0  0  0
   -5.3786   14.7909  -33.4038 H   0  0  0  0  0  0  0  0  0  0  0  0
   -6.6430   19.1900  -32.4890 C   0  0  0  0  0  0  0  0  0  0  0  0
   -7.6890   18.2970  -32.1970 O   0  0  0  0  0  0  0  0  0  0  0  0
   -9.0280   18.6810  -31.9020 C   0  0  0  0  0  0  0  0  0  0  0  0
   -9.1663   18.7207  -30.8114 H   0  0  0  0  0  0  0  0  0  0  0  0
   -9.2285   19.6728  -32.3333 H   0  0  0  0  0  0  0  0  0  0  0  0
   -9.7237   17.9462  -32.3333 H   0  0  0  0  0  0  0  0  0  0  0  0
   -6.3840   20.3300  -31.7000 C   0  0  0  0  0  0  0  0  0  0  0  0
   -7.0199   20.5436  -30.8282 H   0  0  0  0  0  0  0  0  0  0  0  0
  1  2  1  0
  2  3  1  0
  3  4  2  0
  3  5  1  0
  5  6  1  0
  6  7  1  0
  6  8  1  0
  6  9  1  0
  9 10  1  0
  9 11  1  0
  9 12  1  0
 12 13  1  0
 13 14  1  0
 13 15  1  0
 13 16  1  0
 12 17  1  0
 17 18  1  0
 17 19  1  0
 17 20  1  0
 20 21  1  0
 20 22  1  0
  2 23  2  3
 23 24  1  0
 23 25  1  0
 25 26  2  0
 26 27  1  0
 26 28  1  0
 28 29  1  0
 28 30  2  0
 30 31  1  0
 31 32  1  0
 32 33  2  0
 33 34  1  0
 33 35  1  0
 35 36  1  0
 35 37  2  0
 37 38  1  0
 38 39  1  0
 38 40  2  0
 40 41  1  0
 40 42  1  0
 42 43  2  0
 42 44  1  0
 44 45  1  0
 45 46  1  0
 45 47  1  0
 45 48  1  0
 48 49  1  0
 48 50  1  0
 48 51  1  0
 51 52  1  0
 52 53  1  0
 52 54  1  0
 52 55  1  0
 55 56  2  0
 56 57  1  0
 56 58  1  0
 58 59  1  0
 58 60  2  0
 60 61  1  0
 60 62  1  0
 62 63  1  0
 62 64  2  0
 64 65  1  0
 51 66  1  0
 66 67  1  0
 66 68  1  0
 66 69  1  0
 69 70  1  0
 69 71  1  0
 37 72  1  0
 72 73  1  0
 72 74  2  0
 74 75  1  0
 30 76  1  0
 76 77  1  0
 77 78  1  0
 78 79  1  0
 78 80  1  0
 78 81  1  0
 76 82  2  0
 82 83  1  0
 20  5  1  0
 82 25  1  0
 74 32  1  0
 69 44  1  0
 64 55  1  0
M  END
>  <UniqueID>  (13) 
12

>  <SMILES>  (13) 
COc1cc(C=CC(=O)N2CCN(C)CC2)ccc1Sc1ccc(/C=C/C(=O)N2CCN(Cc3ccccc3)CC2)cc1

>  <Energy>  (13) 
113.35133514402528

>  <Genealogy>  (13) 
COc1cc(C=CC(=O)N2CCN(C)CC2)ccc1Sc1ccc(/C=C/C(=O)N2CCN(Cc3ccccc3)CC2)cc1 (cis-trans isomerization)
COc1cc(C=CC(=O)N2CCN(C)CC2)ccc1Sc1ccc(/C=C/C(=O)N2CCN(Cc3ccccc3)CC2)cc1 (3D coordinates assigned)
COc1cc(C=CC(=O)N2CCN(C)CC2)ccc1Sc1ccc(/C=C/C(=O)N2CCN(Cc3ccccc3)CC2)cc1 (nonaromatic ring conformer: 113.35133514402528 kcal/mol)

>  <smiles>  (13) 
COc1cc(C=CC(=O)N2CCN(C)CC2)ccc1Sc1ccc(C=CC(=O)N2CCN(Cc3ccccc3)CC2)cc1

>  <score_type>  (13) 
oracle

>  <origin>  (13) 
adgpu

>  <m_score__min__energy>  (13) 
-9.4199999999999999

>  <m_primary>  (13) 
energy

$$$$
13:0
     RDKit          3D

 55 58  0  0  0  0  0  0  0  0999 V2000
   -7.2850   17.5120  -32.7610 C   0  0  0  0  0  0  0  0  0  0  0  0
   -6.3570   18.6780  -32.5980 C   0  0  0  0  0  0  0  0  0  0  0  0
   -5.6630   18.8680  -31.3930 C   0  0  0  0  0  0  0  0  0  0  0  0
   -4.8300   19.9790  -31.2290 C   0  0  0  0  0  0  0  0  0  0  0  0
   -4.7020   20.9200  -32.2580 C   0  0  0  0  0  0  0  0  0  0  0  0
   -3.6500   22.3560  -32.0360 S   0  0  0  0  0  0  0  0  0  0  0  0
   -4.9510   23.3080  -31.2400 C   0  0  0  0  0  0  0  0  0  0  0  0
   -6.2790   22.8710  -31.3480 C   0  0  0  0  0  0  0  0  0  0  0  0
   -7.3070   23.5880  -30.7330 C   0  0  0  0  0  0  0  0  0  0  0  0
   -7.0160   24.7500  -30.0170 C   0  0  0  0  0  0  0  0  0  0  0  0
   -5.6960   25.1950  -29.9060 C   0  0  0  0  0  0  0  0  0  0  0  0
   -4.6490   24.4680  -30.5030 C   0  0  0  0  0  0  0  0  0  0  0  0
   -3.2870   24.9110  -30.4190 N   0  0  0  0  0  0  0  0  0  0  0  0
   -2.3830   24.6940  -29.3270 C   0  0  0  0  0  0  0  0  0  0  0  0
   -2.0330   25.6600  -28.5950 O   0  0  0  0  0  0  0  0  0  0  0  0
   -1.9080   23.3240  -29.0230 C   0  0  0  0  0  0  0  0  0  0  0  0
   -2.8240   22.3000  -28.7240 C   0  0  0  0  0  0  0  0  0  0  0  0
   -2.3730   21.0080  -28.4320 C   0  0  0  0  0  0  0  0  0  0  0  0
   -1.0020   20.7210  -28.4380 C   0  0  0  0  0  0  0  0  0  0  0  0
   -0.4380   19.0960  -28.0640 S   0  0  0  0  0  0  0  0  0  0  0  0
    0.9310   19.1990  -27.4470 O   0  0  0  0  0  0  0  0  0  0  0  0
   -1.3750   18.4750  -27.0650 O   0  0  0  0  0  0  0  0  0  0  0  0
   -0.4020   18.1600  -29.5500 N   0  0  0  0  0  0  0  0  0  0  0  0
   -0.5020   19.0000  -30.7570 C   0  0  0  0  0  0  0  0  0  0  0  0
    0.8470   19.6420  -31.1130 C   0  0  0  0  0  0  0  0  0  0  0  0
    1.8420   18.6520  -31.2750 O   0  0  0  0  0  0  0  0  0  0  0  0
    2.0350   17.9750  -30.0500 C   0  0  0  0  0  0  0  0  0  0  0  0
    0.7520   17.2440  -29.6230 C   0  0  0  0  0  0  0  0  0  0  0  0
   -0.0840   21.7380  -28.7270 C   0  0  0  0  0  0  0  0  0  0  0  0
   -0.5330   23.0290  -29.0200 C   0  0  0  0  0  0  0  0  0  0  0  0
   -5.3980   20.7380  -33.4580 C   0  0  0  0  0  0  0  0  0  0  0  0
   -6.2300   19.6260  -33.6250 C   0  0  0  0  0  0  0  0  0  0  0  0
   -7.5822   17.1386  -31.7699 H   0  0  0  0  0  0  0  0  0  0  0  0
   -8.1796   17.8302  -33.3163 H   0  0  0  0  0  0  0  0  0  0  0  0
   -6.7741   16.7116  -33.3163 H   0  0  0  0  0  0  0  0  0  0  0  0
   -5.7747   18.1408  -30.5752 H   0  0  0  0  0  0  0  0  0  0  0  0
   -4.2740   20.1141  -30.2895 H   0  0  0  0  0  0  0  0  0  0  0  0
   -6.5116   21.9602  -31.9192 H   0  0  0  0  0  0  0  0  0  0  0  0
   -8.3464   23.2370  -30.8128 H   0  0  0  0  0  0  0  0  0  0  0  0
   -7.8280   25.3172  -29.5386 H   0  0  0  0  0  0  0  0  0  0  0  0
   -5.4742   26.1176  -29.3496 H   0  0  0  0  0  0  0  0  0  0  0  0
   -3.9026   22.5161  -28.7196 H   0  0  0  0  0  0  0  0  0  0  0  0
   -3.0978   20.2147  -28.1968 H   0  0  0  0  0  0  0  0  0  0  0  0
   -0.8336   18.3757  -31.5998 H   0  0  0  0  0  0  0  0  0  0  0  0
   -1.2238   19.8054  -30.5565 H   0  0  0  0  0  0  0  0  0  0  0  0
    0.7423   20.2062  -32.0515 H   0  0  0  0  0  0  0  0  0  0  0  0
    1.1461   20.3147  -30.2957 H   0  0  0  0  0  0  0  0  0  0  0  0
    2.8462   17.2414  -30.1672 H   0  0  0  0  0  0  0  0  0  0  0  0
    2.2950   18.7125  -29.2764 H   0  0  0  0  0  0  0  0  0  0  0  0
    0.5327   16.4527  -30.3549 H   0  0  0  0  0  0  0  0  0  0  0  0
    0.9168   16.8212  -28.6210 H   0  0  0  0  0  0  0  0  0  0  0  0
    0.9942   21.5203  -28.7235 H   0  0  0  0  0  0  0  0  0  0  0  0
    0.1952   23.8207  -29.2501 H   0  0  0  0  0  0  0  0  0  0  0  0
   -5.2907   21.4706  -34.2715 H   0  0  0  0  0  0  0  0  0  0  0  0
   -6.7867   19.4941  -34.5645 H   0  0  0  0  0  0  0  0  0  0  0  0
  1  2  1  0
  2  3  2  0
  3  4  1  0
  4  5  2  0
  5  6  1  0
  6  7  1  0
  7  8  2  0
  8  9  1  0
  9 10  2  0
 10 11  1  0
 11 12  2  0
 12 13  1  0
 13 14  1  0
 14 15  2  0
 14 16  1  0
 16 17  2  0
 17 18  1  0
 18 19  2  0
 19 20  1  0
 20 21  2  0
 20 22  2  0
 20 23  1  0
 23 24  1  0
 24 25  1  0
 25 26  1  0
 26 27  1  0
 27 28  1  0
 19 29  1  0
 29 30  2  0
  5 31  1  0
 31 32  2  0
 32  2  1  0
 12  7  1  0
 30 16  1  0
 28 23  1  0
  1 33  1  0
  1 34  1  0
  1 35  1  0
  3 36  1  0
  4 37  1  0
  8 38  1  0
  9 39  1  0
 10 40  1  0
 11 41  1  0
 17 42  1  0
 18 43  1  0
 24 44  1  0
 24 45  1  0
 25 46  1  0
 25 47  1  0
 27 48  1  0
 27 49  1  0
 28 50  1  0
 28 51  1  0
 29 52  1  0
 30 53  1  0
 31 54  1  0
 32 55  1  0
M  CHG  1  13  -1
M  END
>  <UniqueID>  (14) 
13

>  <SMILES>  (14) 
Cc1ccc(Sc2ccccc2[N-]C(=O)c2ccc(S(=O)(=O)N3CCOCC3)cc2)cc1

>  <Energy>  (14) 
63.46999718117616

>  <Genealogy>  (14) 
Cc1ccc(Sc2ccccc2[N-]C(=O)c2ccc(S(=O)(=O)N3CCOCC3)cc2)cc1 (protonated)
Cc1ccc(Sc2ccccc2[N-]C(=O)c2ccc(S(=O)(=O)N3CCOCC3)cc2)cc1 (3D coordinates assigned)
Cc1ccc(Sc2ccccc2[N-]C(=O)c2ccc(S(=O)(=O)N3CCOCC3)cc2)cc1 (nonaromatic ring conformer: 63.46999718117616 kcal/mol)

>  <smiles>  (14) 
Cc1ccc(Sc2ccccc2NC(=O)c2ccc(S(=O)(=O)N3CCOCC3)cc2)cc1

>  <score_type>  (14) 
oracle

>  <origin>  (14) 
adgpu

>  <m_score__min__energy>  (14) 
-11.75

>  <m_primary>  (14) 
energy

$$$$
14:0
     RDKit          3D

 77 81  0  0  0  0  0  0  0  0999 V2000
    4.2790   17.6610  -26.3490 C   0  0  0  0  0  0  0  0  0  0  0  0
    3.3970   17.9060  -27.5450 C   0  0  0  0  0  0  0  0  0  0  0  0
    3.7570   18.9010  -28.4680 C   0  0  0  0  0  0  0  0  0  0  0  0
    2.9640   19.1530  -29.5890 C   0  0  0  0  0  0  0  0  0  0  0  0
    1.8000   18.4030  -29.8220 C   0  0  0  0  0  0  0  0  0  0  0  0
    0.9760   18.6620  -31.0250 C   0  0  0  0  0  0  0  0  0  0  0  0
    1.4850   19.2660  -32.0080 O   0  0  0  0  0  0  0  0  0  0  0  0
   -0.3890   18.2120  -31.0940 N   0  0  0  0  0  0  0  0  0  0  0  0
   -1.2890   18.6310  -32.1320 C   0  0  0  0  0  0  0  0  0  0  0  0
   -2.1350   17.6790  -32.7210 C   0  0  0  0  0  0  0  0  0  0  0  0
   -2.9900   18.0360  -33.7720 C   0  0  0  0  0  0  0  0  0  0  0  0
   -4.0420   16.8260  -34.5140 S   0  0  0  0  0  0  0  0  0  0  0  0
   -3.5640   15.4520  -34.1310 O   0  0  0  0  0  0  0  0  0  0  0  0
   -3.9550   16.9490  -36.0110 O   0  0  0  0  0  0  0  0  0  0  0  0
   -5.7050   17.0130  -34.0030 N   0  0  0  0  0  0  0  0  0  0  0  0
   -6.0670   18.4470  -33.9290 C   0  0  0  0  0  0  0  0  0  0  0  0
   -7.3410   18.6590  -33.1050 C   0  0  0  0  0  0  0  0  0  0  0  0
   -7.1460   18.1990  -31.6510 C   0  0  0  0  0  0  0  0  0  0  0  0
   -6.0640   17.1110  -31.5110 C   0  0  0  0  0  0  0  0  0  0  0  0
   -5.9910   16.2330  -32.7710 C   0  0  0  0  0  0  0  0  0  0  0  0
   -3.0040   19.3570  -34.2320 C   0  0  0  0  0  0  0  0  0  0  0  0
   -2.2000   20.3220  -33.6230 C   0  0  0  0  0  0  0  0  0  0  0  0
   -1.3380   19.9740  -32.5680 C   0  0  0  0  0  0  0  0  0  0  0  0
   -0.6020   20.9950  -31.8690 N   0  0  0  0  0  0  0  0  0  0  0  0
   -1.1530   21.8020  -30.8160 C   0  0  0  0  0  0  0  0  0  0  0  0
   -0.5090   21.8480  -29.5730 C   0  0  0  0  0  0  0  0  0  0  0  0
   -1.0320   22.6240  -28.5360 C   0  0  0  0  0  0  0  0  0  0  0  0
   -2.1920   23.3780  -28.7350 C   0  0  0  0  0  0  0  0  0  0  0  0
   -2.6980   24.1300  -27.6820 O   0  0  0  0  0  0  0  0  0  0  0  0
   -2.8290   23.3720  -29.9920 C   0  0  0  0  0  0  0  0  0  0  0  0
   -4.2980   24.3190  -30.2840 S   0  0  0  0  0  0  0  0  0  0  0  0
   -5.0190   24.5150  -28.9780 O   0  0  0  0  0  0  0  0  0  0  0  0
   -3.9230   25.6770  -30.8070 O   0  0  0  0  0  0  0  0  0  0  0  0
   -5.3860   23.5560  -31.4180 N   0  0  0  0  0  0  0  0  0  0  0  0
   -5.4220   22.1060  -31.2650 C   0  0  0  0  0  0  0  0  0  0  0  0
   -6.7350   21.6580  -31.8850 C   0  0  0  0  0  0  0  0  0  0  0  0
   -7.6470   22.8740  -31.7870 C   0  0  0  0  0  0  0  0  0  0  0  0
   -6.7690   23.9950  -31.2430 C   0  0  0  0  0  0  0  0  0  0  0  0
   -2.3040   22.5820  -31.0260 C   0  0  0  0  0  0  0  0  0  0  0  0
    1.4260   17.4190  -28.8930 C   0  0  0  0  0  0  0  0  0  0  0  0
    2.2000   17.1760  -27.7450 C   0  0  0  0  0  0  0  0  0  0  0  0
    1.7680   16.0950  -26.7880 C   0  0  0  0  0  0  0  0  0  0  0  0
    3.7002   17.8218  -25.4275 H   0  0  0  0  0  0  0  0  0  0  0  0
    4.6501   16.6258  -26.3730 H   0  0  0  0  0  0  0  0  0  0  0  0
    5.1309   18.3565  -26.3730 H   0  0  0  0  0  0  0  0  0  0  0  0
    4.6732   19.4879  -28.3062 H   0  0  0  0  0  0  0  0  0  0  0  0
    3.2533   19.9452  -30.2952 H   0  0  0  0  0  0  0  0  0  0  0  0
   -0.6600   17.3820  -30.5210 H   0  0  0  0  0  0  0  0  0  0  0  0
   -2.1269   16.6421  -32.3539 H   0  0  0  0  0  0  0  0  0  0  0  0
   -5.2407   19.0012  -33.4598 H   0  0  0  0  0  0  0  0  0  0  0  0
   -6.2502   18.8114  -34.9506 H   0  0  0  0  0  0  0  0  0  0  0  0
   -7.5986   19.7284  -33.1115 H   0  0  0  0  0  0  0  0  0  0  0  0
   -8.1491   18.0625  -33.5535 H   0  0  0  0  0  0  0  0  0  0  0  0
   -6.8521   19.0677  -31.0436 H   0  0  0  0  0  0  0  0  0  0  0  0
   -8.0979   17.7666  -31.3091 H   0  0  0  0  0  0  0  0  0  0  0  0
   -5.0883   17.5937  -31.3532 H   0  0  0  0  0  0  0  0  0  0  0  0
   -6.3232   16.4705  -30.6551 H   0  0  0  0  0  0  0  0  0  0  0  0
   -5.1933   15.4880  -32.6341 H   0  0  0  0  0  0  0  0  0  0  0  0
   -6.9753   15.7593  -32.9010 H   0  0  0  0  0  0  0  0  0  0  0  0
   -3.6509   19.6363  -35.0767 H   0  0  0  0  0  0  0  0  0  0  0  0
   -2.2412   21.3645  -33.9717 H   0  0  0  0  0  0  0  0  0  0  0  0
    0.4080   21.1290  -32.1130 H   0  0  0  0  0  0  0  0  0  0  0  0
    0.4132   21.2702  -29.4127 H   0  0  0  0  0  0  0  0  0  0  0  0
   -0.5286   22.6418  -27.5581 H   0  0  0  0  0  0  0  0  0  0  0  0
   -4.5729   21.6440  -31.7900 H   0  0  0  0  0  0  0  0  0  0  0  0
   -5.3500   21.8079  -30.2086 H   0  0  0  0  0  0  0  0  0  0  0  0
   -6.5881   21.3676  -32.9358 H   0  0  0  0  0  0  0  0  0  0  0  0
   -7.1572   20.7803  -31.3738 H   0  0  0  0  0  0  0  0  0  0  0  0
   -8.0411   23.1405  -32.7788 H   0  0  0  0  0  0  0  0  0  0  0  0
   -8.5153   22.6832  -31.1392 H   0  0  0  0  0  0  0  0  0  0  0  0
   -6.9472   24.9244  -31.8038 H   0  0  0  0  0  0  0  0  0  0  0  0
   -6.9922   24.1997  -30.1855 H   0  0  0  0  0  0  0  0  0  0  0  0
   -2.7970   22.5728  -32.0093 H   0  0  0  0  0  0  0  0  0  0  0  0
    0.5136   16.8294  -29.0661 H   0  0  0  0  0  0  0  0  0  0  0  0
    1.9073   16.4436  -25.7540 H   0  0  0  0  0  0  0  0  0  0  0  0
    0.7067   15.8595  -26.9557 H   0  0  0  0  0  0  0  0  0  0  0  0
    2.3747   15.1929  -26.9557 H   0  0  0  0  0  0  0  0  0  0  0  0
  1  2  1  0
  2  3  2  0
  3  4  1  0
  4  5  2  0
  5  6  1  0
  6  7  2  0
  6  8  1  0
  8  9  1  0
  9 10  2  0
 10 11  1  0
 11 12  1  0
 12 13  2  0
 12 14  2  0
 12 15  1  0
 15 16  1  0
 16 17  1  0
 17 18  1  0
 18 19  1  0
 19 20  1  0
 11 21  2  0
 21 22  1  0
 22 23  2  0
 23 24  1  0
 24 25  1  0
 25 26  2  0
 26 27  1  0
 27 28  2  0
 28 29  1  0
 28 30  1  0
 30 31  1  0
 31 32  2  0
 31 33  2  0
 31 34  1  0
 34 35  1  0
 35 36  1  0
 36 37  1  0
 37 38  1  0
 30 39  2  0
  5 40  1  0
 40 41  2  0
 41 42  1  0
 41  2  1  0
 23  9  1  0
 39 25  1  0
 20 15  1  0
 38 34  1  0
  1 43  1  0
  1 44  1  0
  1 45  1  0
  3 46  1  0
  4 47  1  0
  8 48  1  0
 10 49  1  0
 16 50  1  0
 16 51  1  0
 17 52  1  0
 17 53  1  0
 18 54  1  0
 18 55  1  0
 19 56  1  0
 19 57  1  0
 20 58  1  0
 20 59  1  0
 21 60  1  0
 22 61  1  0
 24 62  1  0
 26 63  1  0
 27 64  1  0
 35 65  1  0
 35 66  1  0
 36 67  1  0
 36 68  1  0
 37 69  1  0
 37 70  1  0
 38 71  1  0
 38 72  1  0
 39 73  1  0
 40 74  1  0
 42 75  1  0
 42 76  1  0
 42 77  1  0
M  CHG  1  29  -1
M  END
>  <UniqueID>  (15) 
14

>  <SMILES>  (15) 
Cc1ccc(C(=O)Nc2cc(S(=O)(=O)N3CCCCC3)ccc2Nc2ccc([O-])c(S(=O)(=O)N3CCCC3)c2)cc1C

>  <Energy>  (15) 
99.27520914415803

>  <Genealogy>  (15) 
Cc1ccc(C(=O)Nc2cc(S(=O)(=O)N3CCCCC3)ccc2Nc2ccc([O-])c(S(=O)(=O)N3CCCC3)c2)cc1C (protonated)
Cc1ccc(C(=O)Nc2cc(S(=O)(=O)N3CCCCC3)ccc2Nc2ccc([O-])c(S(=O)(=O)N3CCCC3)c2)cc1C (3D coordinates assigned)
Cc1ccc(C(=O)Nc2cc(S(=O)(=O)N3CCCCC3)ccc2Nc2ccc([O-])c(S(=O)(=O)N3CCCC3)c2)cc1C (nonaromatic ring conformer: 99.27520914415803 kcal/mol)

>  <smiles>  (15) 
Cc1ccc(C(=O)Nc2cc(S(=O)(=O)N3CCCCC3)ccc2Nc2ccc(O)c(S(=O)(=O)N3CCCC3)c2)cc1C

>  <score_type>  (15) 
oracle

>  <origin>  (15) 
adgpu

>  <m_score__min__energy>  (15) 
-13.84

>  <m_primary>  (15) 
energy

$$$$
15:0
     RDKit          3D

 58 61  0  0  0  0  0  0  0  0999 V2000
   -4.7750   18.3200  -34.8900 O   0  0  0  0  0  0  0  0  0  0  0  0
   -4.8340   19.2540  -34.0440 C   0  0  0  0  0  0  0  0  0  0  0  0
   -3.6900   20.0900  -33.8280 N   0  0  0  0  0  0  0  0  0  0  0  0
   -2.8990   20.1620  -32.6330 C   0  0  0  0  0  0  0  0  0  0  0  0
   -1.5170   19.8980  -32.6370 C   0  0  0  0  0  0  0  0  0  0  0  0
   -0.7780   20.0000  -31.4550 C   0  0  0  0  0  0  0  0  0  0  0  0
   -1.4040   20.3750  -30.2590 C   0  0  0  0  0  0  0  0  0  0  0  0
   -0.4570   20.5200  -28.7820 S   0  0  0  0  0  0  0  0  0  0  0  0
    0.9740   20.1780  -29.0900 O   0  0  0  0  0  0  0  0  0  0  0  0
   -0.9690   19.5520  -27.7500 O   0  0  0  0  0  0  0  0  0  0  0  0
   -0.5540   22.1550  -28.1780 N   0  0  0  0  0  0  0  0  0  0  0  0
    0.7160   22.5260  -27.5340 C   0  0  0  0  0  0  0  0  0  0  0  0
    0.6600   23.9930  -27.0910 C   0  0  0  0  0  0  0  0  0  0  0  0
    0.4100   24.8410  -28.1950 O   0  0  0  0  0  0  0  0  0  0  0  0
   -0.8410   24.5200  -28.7730 C   0  0  0  0  0  0  0  0  0  0  0  0
   -0.8450   23.0760  -29.2870 C   0  0  0  0  0  0  0  0  0  0  0  0
   -2.7740   20.6690  -30.2610 C   0  0  0  0  0  0  0  0  0  0  0  0
   -3.5140   20.5700  -31.4430 C   0  0  0  0  0  0  0  0  0  0  0  0
   -6.0690   19.4320  -33.2340 C   0  0  0  0  0  0  0  0  0  0  0  0
   -6.3460   20.6930  -32.6680 C   0  0  0  0  0  0  0  0  0  0  0  0
   -7.4990   20.9010  -31.9010 C   0  0  0  0  0  0  0  0  0  0  0  0
   -7.8410   22.4820  -31.2030 S   0  0  0  0  0  0  0  0  0  0  0  0
   -8.3830   22.2860  -29.8150 O   0  0  0  0  0  0  0  0  0  0  0  0
   -8.8690   23.2000  -32.0340 O   0  0  0  0  0  0  0  0  0  0  0  0
   -6.3740   23.4280  -31.1370 N   0  0  0  0  0  0  0  0  0  0  0  0
   -6.6630   24.7720  -30.6130 C   0  0  0  0  0  0  0  0  0  0  0  0
   -5.3620   25.6010  -30.5360 C   0  0  0  0  0  0  0  0  0  0  0  0
   -4.2120   24.8230  -30.8190 O   0  0  0  0  0  0  0  0  0  0  0  0
   -4.1870   23.6830  -29.9840 C   0  0  0  0  0  0  0  0  0  0  0  0
   -5.3820   22.7520  -30.2810 C   0  0  0  0  0  0  0  0  0  0  0  0
   -8.3940   19.8480  -31.6990 C   0  0  0  0  0  0  0  0  0  0  0  0
   -8.1340   18.5920  -32.2460 C   0  0  0  0  0  0  0  0  0  0  0  0
   -6.9770   18.3710  -33.0070 C   0  0  0  0  0  0  0  0  0  0  0  0
   -6.7350   17.0980  -33.5230 O   0  0  0  0  0  0  0  0  0  0  0  0
   -1.0165   19.6104  -33.5734 H   0  0  0  0  0  0  0  0  0  0  0  0
    0.3007   19.7847  -31.4638 H   0  0  0  0  0  0  0  0  0  0  0  0
    0.8820   21.8847  -26.6558 H   0  0  0  0  0  0  0  0  0  0  0  0
    1.5407   22.3921  -28.2495 H   0  0  0  0  0  0  0  0  0  0  0  0
   -0.1453   24.1162  -26.3518 H   0  0  0  0  0  0  0  0  0  0  0  0
    1.6298   24.2655  -26.6491 H   0  0  0  0  0  0  0  0  0  0  0  0
   -1.6295   24.6357  -28.0148 H   0  0  0  0  0  0  0  0  0  0  0  0
   -1.0239   25.1977  -29.6199 H   0  0  0  0  0  0  0  0  0  0  0  0
   -1.8334   22.8405  -29.7083 H   0  0  0  0  0  0  0  0  0  0  0  0
   -0.0758   22.9639  -30.0653 H   0  0  0  0  0  0  0  0  0  0  0  0
   -3.2692   20.9789  -29.3289 H   0  0  0  0  0  0  0  0  0  0  0  0
   -4.5865   20.8142  -31.4382 H   0  0  0  0  0  0  0  0  0  0  0  0
   -5.6462   21.5258  -32.8312 H   0  0  0  0  0  0  0  0  0  0  0  0
   -7.3775   25.2769  -31.2797 H   0  0  0  0  0  0  0  0  0  0  0  0
   -7.0931   24.6812  -29.6046 H   0  0  0  0  0  0  0  0  0  0  0  0
   -5.4220   26.4222  -31.2654 H   0  0  0  0  0  0  0  0  0  0  0  0
   -5.2661   25.9827  -29.5088 H   0  0  0  0  0  0  0  0  0  0  0  0
   -3.2506   23.1320  -30.1558 H   0  0  0  0  0  0  0  0  0  0  0  0
   -4.2533   24.0144  -28.9372 H   0  0  0  0  0  0  0  0  0  0  0  0
   -5.0174   21.8504  -30.7949 H   0  0  0  0  0  0  0  0  0  0  0  0
   -5.8635   22.4828  -29.3293 H   0  0  0  0  0  0  0  0  0  0  0  0
   -9.3066   20.0100  -31.1067 H   0  0  0  0  0  0  0  0  0  0  0  0
   -8.8426   17.7674  -32.0791 H   0  0  0  0  0  0  0  0  0  0  0  0
   -5.9440   16.9080  -34.1280 H   0  0  0  0  0  0  0  0  0  0  0  0
  1  2  2  0
  2  3  1  0
  3  4  1  0
  4  5  2  0
  5  6  1  0
  6  7  2  0
  7  8  1  0
  8  9  2  0
  8 10  2  0
  8 11  1  0
 11 12  1  0
 12 13  1  0
 13 14  1  0
 14 15  1  0
 15 16  1  0
  7 17  1  0
 17 18  2  0
  2 19  1  0
 19 20  2  0
 20 21  1  0
 21 22  1  0
 22 23  2  0
 22 24  2  0
 22 25  1  0
 25 26  1  0
 26 27  1  0
 27 28  1  0
 28 29  1  0
 29 30  1  0
 21 31  2  0
 31 32  1  0
 32 33  2  0
 33 34  1  0
 18  4  1  0
 33 19  1  0
 16 11  1  0
 30 25  1  0
  5 35  1  0
  6 36  1  0
 12 37  1  0
 12 38  1  0
 13 39  1  0
 13 40  1  0
 15 41  1  0
 15 42  1  0
 16 43  1  0
 16 44  1  0
 17 45  1  0
 18 46  1  0
 20 47  1  0
 26 48  1  0
 26 49  1  0
 27 50  1  0
 27 51  1  0
 29 52  1  0
 29 53  1  0
 30 54  1  0
 30 55  1  0
 31 56  1  0
 32 57  1  0
 34 58  1  0
M  CHG  1   3  -1
M  END
>  <UniqueID>  (16) 
15

>  <SMILES>  (16) 
O=C([N-]c1ccc(S(=O)(=O)N2CCOCC2)cc1)c1cc(S(=O)(=O)N2CCOCC2)ccc1O

>  <Energy>  (16) 
73.70364240723798

>  <Genealogy>  (16) 
O=C([N-]c1ccc(S(=O)(=O)N2CCOCC2)cc1)c1cc(S(=O)(=O)N2CCOCC2)ccc1O (protonated)
O=C([N-]c1ccc(S(=O)(=O)N2CCOCC2)cc1)c1cc(S(=O)(=O)N2CCOCC2)ccc1O (3D coordinates assigned)
O=C([N-]c1ccc(S(=O)(=O)N2CCOCC2)cc1)c1cc(S(=O)(=O)N2CCOCC2)ccc1O (nonaromatic ring conformer: 73.70364240723798 kcal/mol)

>  <smiles>  (16) 
O=C(Nc1ccc(S(=O)(=O)N2CCOCC2)cc1)c1cc(S(=O)(=O)N2CCOCC2)ccc1O

>  <score_type>  (16) 
oracle

>  <origin>  (16) 
adgpu

>  <m_score__min__energy>  (16) 
-11.58

>  <m_primary>  (16) 
energy

$$$$
16:0
     RDKit          3D

 47 49  0  0  0  0  0  0  0  0999 V2000
   -6.2760   19.9480  -34.1820 O   0  0  0  0  0  0  0  0  0  0  0  0
   -6.2150   18.9900  -33.3650 C   0  0  0  0  0  0  0  0  0  0  0  0
   -6.7210   19.1550  -32.0370 N   0  0  0  0  0  0  0  0  0  0  0  0
   -8.0410   18.6990  -31.6180 C   0  0  0  0  0  0  0  0  0  0  0  0
   -9.0990   19.7050  -32.0780 C   0  0  0  0  0  0  0  0  0  0  0  0
   -8.4710   20.9020  -32.6510 N   0  0  0  0  0  0  0  0  0  0  0  0
   -8.7540   22.2770  -31.6240 S   0  0  0  0  0  0  0  0  0  0  0  0
   -9.5870   23.2840  -32.3650 O   0  0  0  0  0  0  0  0  0  0  0  0
   -9.4940   21.8670  -30.3810 O   0  0  0  0  0  0  0  0  0  0  0  0
   -7.2040   22.9990  -31.2010 C   0  0  0  0  0  0  0  0  0  0  0  0
   -6.0080   22.4610  -31.6930 C   0  0  0  0  0  0  0  0  0  0  0  0
   -4.7910   23.0940  -31.4220 C   0  0  0  0  0  0  0  0  0  0  0  0
   -4.7540   24.2720  -30.6660 C   0  0  0  0  0  0  0  0  0  0  0  0
   -3.4920   24.9190  -30.4610 N   0  0  0  0  0  0  0  0  0  0  0  0
   -2.3520   24.5080  -29.2190 S   0  0  0  0  0  0  0  0  0  0  0  0
   -1.2110   25.4850  -29.2480 O   0  0  0  0  0  0  0  0  0  0  0  0
   -3.0360   24.5840  -27.8830 O   0  0  0  0  0  0  0  0  0  0  0  0
   -1.7530   22.8740  -29.4590 C   0  0  0  0  0  0  0  0  0  0  0  0
   -1.5770   22.2440  -30.6820 C   0  0  0  0  0  0  0  0  0  0  0  0
   -1.0700   20.9440  -30.5570 C   0  0  0  0  0  0  0  0  0  0  0  0
   -0.8570   20.5540  -29.2410 C   0  0  0  0  0  0  0  0  0  0  0  0
   -1.2910   21.8290  -28.2310 S   0  0  0  0  0  0  0  0  0  0  0  0
   -5.9550   24.7980  -30.1560 C   0  0  0  0  0  0  0  0  0  0  0  0
   -7.1720   24.1680  -30.4290 C   0  0  0  0  0  0  0  0  0  0  0  0
   -5.6250   17.6960  -33.7760 C   0  0  0  0  0  0  0  0  0  0  0  0
   -4.4320   17.6600  -34.5250 C   0  0  0  0  0  0  0  0  0  0  0  0
   -3.8880   16.4370  -34.9290 C   0  0  0  0  0  0  0  0  0  0  0  0
   -4.5260   15.2400  -34.5980 C   0  0  0  0  0  0  0  0  0  0  0  0
   -5.7110   15.2640  -33.8610 C   0  0  0  0  0  0  0  0  0  0  0  0
   -6.2550   16.4820  -33.4420 C   0  0  0  0  0  0  0  0  0  0  0  0
   -8.2492   17.7168  -32.0674 H   0  0  0  0  0  0  0  0  0  0  0  0
   -8.0683   18.6142  -30.5216 H   0  0  0  0  0  0  0  0  0  0  0  0
   -9.7369   19.2334  -32.8400 H   0  0  0  0  0  0  0  0  0  0  0  0
   -9.6991   20.0063  -31.2068 H   0  0  0  0  0  0  0  0  0  0  0  0
   -7.4330   20.7690  -32.6780 H   0  0  0  0  0  0  0  0  0  0  0  0
   -6.0262   21.5394  -32.2933 H   0  0  0  0  0  0  0  0  0  0  0  0
   -3.8547   22.6629  -31.8060 H   0  0  0  0  0  0  0  0  0  0  0  0
   -1.8108   22.7153  -31.6480 H   0  0  0  0  0  0  0  0  0  0  0  0
   -0.8605   20.2938  -31.4192 H   0  0  0  0  0  0  0  0  0  0  0  0
   -0.4703   19.5775  -28.9141 H   0  0  0  0  0  0  0  0  0  0  0  0
   -5.9359   25.7090  -29.5398 H   0  0  0  0  0  0  0  0  0  0  0  0
   -8.1084   24.5913  -30.0365 H   0  0  0  0  0  0  0  0  0  0  0  0
   -3.9260   18.5991  -34.7933 H   0  0  0  0  0  0  0  0  0  0  0  0
   -2.9540   16.4178  -35.5097 H   0  0  0  0  0  0  0  0  0  0  0  0
   -4.0954   14.2796  -34.9176 H   0  0  0  0  0  0  0  0  0  0  0  0
   -6.2188   14.3213  -33.6089 H   0  0  0  0  0  0  0  0  0  0  0  0
   -7.1807   16.4918  -32.8479 H   0  0  0  0  0  0  0  0  0  0  0  0
  1  2  2  0
  2  3  1  0
  3  4  1  0
  4  5  1  0
  5  6  1  0
  6  7  1  0
  7  8  2  0
  7  9  2  0
  7 10  1  0
 10 11  2  0
 11 12  1  0
 12 13  2  0
 13 14  1  0
 14 15  1  0
 15 16  2  0
 15 17  2  0
 15 18  1  0
 18 19  2  0
 19 20  1  0
 20 21  2  0
 21 22  1  0
 13 23  1  0
 23 24  2  0
  2 25  1  0
 25 26  2  0
 26 27  1  0
 27 28  2  0
 28 29  1  0
 29 30  2  0
 24 10  1  0
 30 25  1  0
 22 18  1  0
  4 31  1  0
  4 32  1  0
  5 33  1  0
  5 34  1  0
  6 35  1  0
 11 36  1  0
 12 37  1  0
 19 38  1  0
 20 39  1  0
 21 40  1  0
 23 41  1  0
 24 42  1  0
 26 43  1  0
 27 44  1  0
 28 45  1  0
 29 46  1  0
 30 47  1  0
M  CHG  2   3  -1  14  -1
M  END
>  <UniqueID>  (17) 
16

>  <SMILES>  (17) 
O=C([N-]CCNS(=O)(=O)c1ccc([N-]S(=O)(=O)c2cccs2)cc1)c1ccccc1

>  <Energy>  (17) 
71.69862613158409

>  <Genealogy>  (17) 
O=C([N-]CCNS(=O)(=O)c1ccc([N-]S(=O)(=O)c2cccs2)cc1)c1ccccc1 (protonated)
O=C([N-]CCNS(=O)(=O)c1ccc([N-]S(=O)(=O)c2cccs2)cc1)c1ccccc1 (3D coordinates assigned)
O=C([N-]CCNS(=O)(=O)c1ccc([N-]S(=O)(=O)c2cccs2)cc1)c1ccccc1 (optimized conformer: 71.69862613158409 kcal/mol)

>  <smiles>  (17) 
O=C(NCCNS(=O)(=O)c1ccc(NS(=O)(=O)c2cccs2)cc1)c1ccccc1

>  <score_type>  (17) 
oracle

>  <origin>  (17) 
adgpu

>  <m_score__min__energy>  (17) 
-11.26

>  <m_primary>  (17) 
energy

$$$$
17:0
     RDKit          3D

 38 40  0  0  0  0  0  0  0  0999 V2000
   -4.3490   20.0560  -26.2760 H   0  0  0  0  0  0  0  0  0  0  0  0
   -3.8170   20.4150  -27.0590 O   0  0  0  0  0  0  0  0  0  0  0  0
   -2.4380   20.3540  -27.1190 N   0  0  0  0  0  0  0  0  0  0  0  0
   -1.9780   19.5340  -26.6650 H   0  0  0  0  0  0  0  0  0  0  0  0
   -1.6970   21.2840  -27.6590 C   0  0  0  0  0  0  0  0  0  0  0  0
   -2.2830   22.4270  -28.3930 C   0  0  0  0  0  0  0  0  0  0  0  0
   -1.6680   23.6840  -28.3360 C   0  0  0  0  0  0  0  0  0  0  0  0
   -0.7617   23.8233  -27.7283 H   0  0  0  0  0  0  0  0  0  0  0  0
   -2.2010   24.7620  -29.0480 C   0  0  0  0  0  0  0  0  0  0  0  0
   -1.5890   26.0080  -28.9710 O   0  0  0  0  0  0  0  0  0  0  0  0
   -3.3470   24.5900  -29.8330 C   0  0  0  0  0  0  0  0  0  0  0  0
   -3.8680   25.6740  -30.5320 O   0  0  0  0  0  0  0  0  0  0  0  0
   -3.9600   23.3280  -29.9150 C   0  0  0  0  0  0  0  0  0  0  0  0
   -5.4090   23.1030  -30.8980 S   0  0  0  0  0  0  0  0  0  0  0  0
   -5.5300   24.1900  -31.9280 O   0  0  0  0  0  0  0  0  0  0  0  0
   -6.6180   23.1490  -30.0070 O   0  0  0  0  0  0  0  0  0  0  0  0
   -5.3300   21.5690  -31.7010 N   0  0  0  0  0  0  0  0  0  0  0  0
   -6.4200   20.6980  -31.9330 C   0  0  0  0  0  0  0  0  0  0  0  0
   -7.7310   20.8350  -31.4690 C   0  0  0  0  0  0  0  0  0  0  0  0
   -8.0216   21.6924  -30.8441 H   0  0  0  0  0  0  0  0  0  0  0  0
   -8.6680   19.8500  -31.8210 C   0  0  0  0  0  0  0  0  0  0  0  0
   -9.7079   19.9338  -31.4724 H   0  0  0  0  0  0  0  0  0  0  0  0
   -8.2820   18.7560  -32.6180 C   0  0  0  0  0  0  0  0  0  0  0  0
   -9.0217   17.9890  -32.8912 H   0  0  0  0  0  0  0  0  0  0  0  0
   -6.9550   18.6400  -33.0660 C   0  0  0  0  0  0  0  0  0  0  0  0
   -6.6425   17.7878  -33.6874 H   0  0  0  0  0  0  0  0  0  0  0  0
   -6.0430   19.6330  -32.7030 C   0  0  0  0  0  0  0  0  0  0  0  0
   -4.5950   19.7250  -33.0510 C   0  0  0  0  0  0  0  0  0  0  0  0
   -4.4547   19.7759  -34.1408 H   0  0  0  0  0  0  0  0  0  0  0  0
   -4.0169   18.8509  -32.7169 H   0  0  0  0  0  0  0  0  0  0  0  0
   -4.1450   21.0430  -32.3720 C   0  0  0  0  0  0  0  0  0  0  0  0
   -3.7824   21.7577  -33.1254 H   0  0  0  0  0  0  0  0  0  0  0  0
   -3.3206   20.8729  -31.6639 H   0  0  0  0  0  0  0  0  0  0  0  0
   -3.4200   22.2500  -29.1980 C   0  0  0  0  0  0  0  0  0  0  0  0
   -3.8909   21.2583  -29.2668 H   0  0  0  0  0  0  0  0  0  0  0  0
   -0.2710   21.1960  -27.5570 N   0  0  0  0  0  0  0  0  0  0  0  0
    0.1820   20.4110  -27.0390 H   0  0  0  0  0  0  0  0  0  0  0  0
    0.3400   21.9120  -28.0080 H   0  0  0  0  0  0  0  0  0  0  0  0
  1  2  1  0
  2  3  1  0
  3  4  1  0
  3  5  2  0
  5  6  1  0
  6  7  2  0
  7  8  1  0
  7  9  1  0
  9 10  1  0
  9 11  2  0
 11 12  1  0
 11 13  1  0
 13 14  1  0
 14 15  2  0
 14 16  2  0
 14 17  1  0
 17 18  1  0
 18 19  2  0
 19 20  1  0
 19 21  1  0
 21 22  1  0
 21 23  2  0
 23 24  1  0
 23 25  1  0
 25 26  1  0
 25 27  2  0
 27 28  1  0
 28 29  1  0
 28 30  1  0
 28 31  1  0
 31 32  1  0
 31 33  1  0
 13 34  2  0
 34 35  1  0
  5 36  1  0
 36 37  1  0
 36 38  1  0
 34  6  1  0
 31 17  1  0
 27 18  1  0
M  CHG  3   3   1  10  -1  12  -1
M  END
>  <UniqueID>  (18) 
17

>  <SMILES>  (18) 
N/C(=[NH+]/O)c1cc([O-])c([O-])c(S(=O)(=O)N2CCc3ccccc32)c1

>  <Energy>  (18) 
61.934748601477

>  <Genealogy>  (18) 
NC(=[NH+]O)c1cc([O-])c([O-])c(S(=O)(=O)N2CCc3ccccc32)c1 (protonated)
N/C(=[NH+]/O)c1cc([O-])c([O-])c(S(=O)(=O)N2CCc3ccccc32)c1 (cis-trans isomerization)
N/C(=[NH+]/O)c1cc([O-])c([O-])c(S(=O)(=O)N2CCc3ccccc32)c1 (3D coordinates assigned)
N/C(=[NH+]/O)c1cc([O-])c([O-])c(S(=O)(=O)N2CCc3ccccc32)c1 (nonaromatic ring conformer: 61.934748601477 kcal/mol)

>  <smiles>  (18) 
NC(=NO)c1cc(O)c(O)c(S(=O)(=O)N2CCc3ccccc32)c1

>  <score_type>  (18) 
oracle

>  <origin>  (18) 
adgpu

>  <m_score__min__energy>  (18) 
-14.130000000000001

>  <m_primary>  (18) 
energy

$$$$
18:0
     RDKit          3D

 64 68  0  0  0  0  0  0  0  0999 V2000
   -3.3850   22.3110  -30.2750 O   0  0  0  0  0  0  0  0  0  0  0  0
   -3.4080   22.1640  -31.5280 C   0  0  0  0  0  0  0  0  0  0  0  0
   -4.4720   22.8670  -32.2040 N   0  0  0  0  0  0  0  0  0  0  0  0
   -5.3400   23.6190  -31.3830 C   0  0  0  0  0  0  0  0  0  0  0  0
   -6.6590   23.3570  -31.0930 C   0  0  0  0  0  0  0  0  0  0  0  0
   -7.5310   22.2900  -31.5500 C   0  0  0  0  0  0  0  0  0  0  0  0
   -8.9060   22.3330  -31.4740 C   0  0  0  0  0  0  0  0  0  0  0  0
   -9.7060   21.2870  -31.9170 C   0  0  0  0  0  0  0  0  0  0  0  0
   -9.0600   20.1950  -32.4410 C   0  0  0  0  0  0  0  0  0  0  0  0
   -7.6870   20.1240  -32.5300 C   0  0  0  0  0  0  0  0  0  0  0  0
   -6.9870   19.0120  -33.0680 N   0  0  0  0  0  0  0  0  0  0  0  0
   -7.1490   17.6930  -32.4590 C   0  0  0  0  0  0  0  0  0  0  0  0
   -5.7760   17.1380  -32.1790 C   0  0  0  0  0  0  0  0  0  0  0  0
   -5.1150   16.9500  -33.4470 N   0  0  0  0  0  0  0  0  0  0  0  0
   -4.8390   18.2570  -34.0060 C   0  0  0  0  0  0  0  0  0  0  0  0
   -6.0990   19.0900  -34.2030 C   0  0  0  0  0  0  0  0  0  0  0  0
   -6.9900   21.1800  -32.0780 N   0  0  0  0  0  0  0  0  0  0  0  0
   -7.0310   24.3560  -30.2560 N   0  0  0  0  0  0  0  0  0  0  0  0
   -6.0210   25.1750  -30.0430 N   0  0  0  0  0  0  0  0  0  0  0  0
   -4.9240   24.7740  -30.7200 C   0  0  0  0  0  0  0  0  0  0  0  0
   -3.7770   25.3020  -30.7620 O   0  0  0  0  0  0  0  0  0  0  0  0
   -2.4420   21.3500  -32.2540 C   0  0  0  0  0  0  0  0  0  0  0  0
   -1.1540   21.1270  -31.8220 C   0  0  0  0  0  0  0  0  0  0  0  0
   -0.3410   20.3440  -32.5920 C   0  0  0  0  0  0  0  0  0  0  0  0
   -0.7320   19.7640  -33.7780 C   0  0  0  0  0  0  0  0  0  0  0  0
    0.3350   18.7660  -34.7400 S   0  0  0  0  0  0  0  0  0  0  0  0
    0.1390   19.1530  -36.1760 O   0  0  0  0  0  0  0  0  0  0  0  0
    1.7670   18.9320  -34.3890 O   0  0  0  0  0  0  0  0  0  0  0  0
   -0.1850   17.1110  -34.6050 N   0  0  0  0  0  0  0  0  0  0  0  0
   -1.4370   17.0190  -35.3390 C   0  0  0  0  0  0  0  0  0  0  0  0
   -1.8100   15.5730  -35.4550 C   0  0  0  0  0  0  0  0  0  0  0  0
   -1.5340   14.8110  -34.2640 N   0  0  0  0  0  0  0  0  0  0  0  0
   -1.4020   15.6230  -33.0830 C   0  0  0  0  0  0  0  0  0  0  0  0
   -0.4710   16.7940  -33.2340 C   0  0  0  0  0  0  0  0  0  0  0  0
   -2.0250   19.9990  -34.1930 C   0  0  0  0  0  0  0  0  0  0  0  0
   -2.8660   20.7830  -33.4360 C   0  0  0  0  0  0  0  0  0  0  0  0
   -4.5760   22.8090  -33.2370 H   0  0  0  0  0  0  0  0  0  0  0  0
   -9.3868   23.2260  -31.0481 H   0  0  0  0  0  0  0  0  0  0  0  0
  -10.8031   21.3317  -31.8511 H   0  0  0  0  0  0  0  0  0  0  0  0
   -9.6597   19.3467  -32.8026 H   0  0  0  0  0  0  0  0  0  0  0  0
   -7.7143   17.7824  -31.5196 H   0  0  0  0  0  0  0  0  0  0  0  0
   -7.7009   17.0244  -33.1361 H   0  0  0  0  0  0  0  0  0  0  0  0
   -5.2048   17.8450  -31.5594 H   0  0  0  0  0  0  0  0  0  0  0  0
   -5.8481   16.1843  -31.6357 H   0  0  0  0  0  0  0  0  0  0  0  0
   -5.6010   16.3000  -34.0730 H   0  0  0  0  0  0  0  0  0  0  0  0
   -4.1639   18.7957  -33.3248 H   0  0  0  0  0  0  0  0  0  0  0  0
   -4.3827   18.1056  -34.9954 H   0  0  0  0  0  0  0  0  0  0  0  0
   -5.8092   20.1403  -34.3546 H   0  0  0  0  0  0  0  0  0  0  0  0
   -6.6336   18.6920  -35.0781 H   0  0  0  0  0  0  0  0  0  0  0  0
   -7.9840   24.4720  -29.8320 H   0  0  0  0  0  0  0  0  0  0  0  0
   -5.9900   26.0450  -29.4430 H   0  0  0  0  0  0  0  0  0  0  0  0
   -0.7892   21.5673  -30.8823 H   0  0  0  0  0  0  0  0  0  0  0  0
    0.6872   20.1664  -32.2436 H   0  0  0  0  0  0  0  0  0  0  0  0
   -2.2253   17.5642  -34.7993 H   0  0  0  0  0  0  0  0  0  0  0  0
   -1.3229   17.4620  -36.3394 H   0  0  0  0  0  0  0  0  0  0  0  0
   -2.8871   15.5073  -35.6686 H   0  0  0  0  0  0  0  0  0  0  0  0
   -1.1977   15.1447  -36.2623 H   0  0  0  0  0  0  0  0  0  0  0  0
   -2.3770   14.2030  -34.1050 H   0  0  0  0  0  0  0  0  0  0  0  0
   -2.3977   16.0074  -32.8170 H   0  0  0  0  0  0  0  0  0  0  0  0
   -0.9693   14.9768  -32.3050 H   0  0  0  0  0  0  0  0  0  0  0  0
   -0.9333   17.6726  -32.7603 H   0  0  0  0  0  0  0  0  0  0  0  0
    0.4806   16.5215  -32.7542 H   0  0  0  0  0  0  0  0  0  0  0  0
   -2.3867   19.5580  -35.1336 H   0  0  0  0  0  0  0  0  0  0  0  0
   -3.8954   20.9600  -33.7811 H   0  0  0  0  0  0  0  0  0  0  0  0
  1  2  2  0
  2  3  1  0
  3  4  1  0
  4  5  2  0
  5  6  1  0
  6  7  2  0
  7  8  1  0
  8  9  2  0
  9 10  1  0
 10 11  1  0
 11 12  1  0
 12 13  1  0
 13 14  1  0
 14 15  1  0
 15 16  1  0
 10 17  2  0
  5 18  1  0
 18 19  1  0
 19 20  1  0
 20 21  2  0
  2 22  1  0
 22 23  2  0
 23 24  1  0
 24 25  2  0
 25 26  1  0
 26 27  2  0
 26 28  2  0
 26 29  1  0
 29 30  1  0
 30 31  1  0
 31 32  1  0
 32 33  1  0
 33 34  1  0
 25 35  1  0
 35 36  2  0
 20  4  1  0
 36 22  1  0
 17  6  1  0
 34 29  1  0
 16 11  1  0
  3 37  1  0
  7 38  1  0
  8 39  1  0
  9 40  1  0
 12 41  1  0
 12 42  1  0
 13 43  1  0
 13 44  1  0
 14 45  1  0
 15 46  1  0
 15 47  1  0
 16 48  1  0
 16 49  1  0
 18 50  1  0
 19 51  1  0
 23 52  1  0
 24 53  1  0
 30 54  1  0
 30 55  1  0
 31 56  1  0
 31 57  1  0
 32 58  1  0
 33 59  1  0
 33 60  1  0
 34 61  1  0
 34 62  1  0
 35 63  1  0
 36 64  1  0
M  END
>  <smiles>  (19) 
O=C(Nc1c(-c2cccc(N3CCNCC3)n2)[nH][nH]c1=O)c1ccc(S(=O)(=O)N2CCNCC2)cc1

>  <score_type>  (19) 
oracle

>  <origin>  (19) 
adgpu

>  <m_score__min__energy>  (19) 
-10.67

>  <m_primary>  (19) 
energy

$$$$
19:0
     RDKit          3D

 40 42  0  0  0  0  0  0  0  0999 V2000
    1.6550   26.0250  -26.9470 C   0  0  0  0  0  0  0  0  0  0  0  0
    0.6110   25.0750  -27.4410 C   0  0  0  0  0  0  0  0  0  0  0  0
    0.6940   23.7110  -27.1370 C   0  0  0  0  0  0  0  0  0  0  0  0
   -0.3010   22.8490  -27.5930 C   0  0  0  0  0  0  0  0  0  0  0  0
   -1.3650   23.3460  -28.3490 C   0  0  0  0  0  0  0  0  0  0  0  0
   -1.4160   24.7220  -28.6530 C   0  0  0  0  0  0  0  0  0  0  0  0
   -2.3860   25.2560  -29.3420 N   0  0  0  0  0  0  0  0  0  0  0  0
   -3.4620   24.5810  -30.0110 C   0  0  0  0  0  0  0  0  0  0  0  0
   -4.7630   25.0980  -30.0020 C   0  0  0  0  0  0  0  0  0  0  0  0
   -5.7740   24.3670  -30.6230 C   0  0  0  0  0  0  0  0  0  0  0  0
   -5.4900   23.1690  -31.1940 N   0  0  0  0  0  0  0  0  0  0  0  0
   -4.2290   22.6540  -31.1620 C   0  0  0  0  0  0  0  0  0  0  0  0
   -3.9500   21.5110  -31.7180 N   0  0  0  0  0  0  0  0  0  0  0  0
   -4.8760   20.6040  -32.3400 C   0  0  0  0  0  0  0  0  0  0  0  0
   -4.3960   19.7110  -33.3050 C   0  0  0  0  0  0  0  0  0  0  0  0
   -5.2560   18.7890  -33.9070 C   0  0  0  0  0  0  0  0  0  0  0  0
   -6.6030   18.7420  -33.5370 C   0  0  0  0  0  0  0  0  0  0  0  0
   -7.0930   19.6120  -32.5550 C   0  0  0  0  0  0  0  0  0  0  0  0
   -8.7790   19.5220  -32.0530 S   0  0  0  0  0  0  0  0  0  0  0  0
   -9.6070   18.9420  -33.1650 O   0  0  0  0  0  0  0  0  0  0  0  0
   -8.9040   18.6340  -30.8470 O   0  0  0  0  0  0  0  0  0  0  0  0
   -9.3720   21.1530  -31.6570 C   0  0  0  0  0  0  0  0  0  0  0  0
   -9.4710   21.2890  -30.2850 F   0  0  0  0  0  0  0  0  0  0  0  0
   -8.4900   22.0970  -32.1480 F   0  0  0  0  0  0  0  0  0  0  0  0
  -10.6150   21.3460  -32.2280 F   0  0  0  0  0  0  0  0  0  0  0  0
   -6.2260   20.5310  -31.9460 C   0  0  0  0  0  0  0  0  0  0  0  0
   -3.2320   23.3640  -30.5700 N   0  0  0  0  0  0  0  0  0  0  0  0
   -0.4350   25.5380  -28.1780 N   0  0  0  0  0  0  0  0  0  0  0  0
    1.6576   26.0274  -25.8470 H   0  0  0  0  0  0  0  0  0  0  0  0
    2.6421   25.7089  -27.3153 H   0  0  0  0  0  0  0  0  0  0  0  0
    1.4332   27.0375  -27.3153 H   0  0  0  0  0  0  0  0  0  0  0  0
    1.5360   23.3239  -26.5443 H   0  0  0  0  0  0  0  0  0  0  0  0
   -0.2485   21.7758  -27.3574 H   0  0  0  0  0  0  0  0  0  0  0  0
   -2.1565   22.6698  -28.7043 H   0  0  0  0  0  0  0  0  0  0  0  0
   -4.9824   26.0599  -29.5155 H   0  0  0  0  0  0  0  0  0  0  0  0
   -6.8009   24.7605  -30.6503 H   0  0  0  0  0  0  0  0  0  0  0  0
   -3.3342   19.7353  -33.5914 H   0  0  0  0  0  0  0  0  0  0  0  0
   -4.8725   18.0992  -34.6732 H   0  0  0  0  0  0  0  0  0  0  0  0
   -7.2795   18.0203  -34.0180 H   0  0  0  0  0  0  0  0  0  0  0  0
   -6.6025   21.1981  -31.1566 H   0  0  0  0  0  0  0  0  0  0  0  0
  1  2  1  0
  2  3  2  0
  3  4  1  0
  4  5  2  0
  5  6  1  0
  6  7  2  3
  7  8  1  0
  8  9  1  0
  9 10  2  0
 10 11  1  0
 11 12  1  0
 12 13  2  3
 13 14  1  0
 14 15  2  0
 15 16  1  0
 16 17  2  0
 17 18  1  0
 18 19  1  0
 19 20  2  0
 19 21  2  0
 19 22  1  0
 22 23  1  0
 22 24  1  0
 22 25  1  0
 18 26  2  0
 12 27  1  0
  6 28  1  0
 28  2  1  0
 27  8  2  0
 26 14  1  0
  1 29  1  0
  1 30  1  0
  1 31  1  0
  3 32  1  0
  4 33  1  0
  5 34  1  0
  9 35  1  0
 10 36  1  0
 15 37  1  0
 16 38  1  0
 17 39  1  0
 26 40  1  0
M  CHG  2  11  -1  28  -1
M  END
>  <UniqueID>  (20) 
18

>  <SMILES>  (20) 
Cc1cccc(=Nc2cc[n-]c(=Nc3cccc(S(=O)(=O)C(F)(F)F)c3)n2)[n-]1

>  <Energy>  (20) 
56.1127986193316

>  <Genealogy>  (20) 
Cc1cccc(=Nc2cc[n-]c(=Nc3cccc(S(=O)(=O)C(F)(F)F)c3)n2)[n-]1 (protonated)
Cc1cccc(=Nc2cc[n-]c(=Nc3cccc(S(=O)(=O)C(F)(F)F)c3)n2)[n-]1 (3D coordinates assigned)
Cc1cccc(=Nc2cc[n-]c(=Nc3cccc(S(=O)(=O)C(F)(F)F)c3)n2)[n-]1 (optimized conformer: 56.1127986193316 kcal/mol)

>  <smiles>  (20) 
Cc1cccc(=Nc2cc[nH]c(=Nc3cccc(S(=O)(=O)C(F)(F)F)c3)n2)[nH]1

>  <score_type>  (20) 
oracle

>  <origin>  (20) 
adgpu

>  <m_score__min__energy>  (20) 
-10.720000000000001

>  <m_primary>  (20) 
energy

$$$$
20:0
     RDKit          3D

 51 53  0  0  0  0  0  0  0  0999 V2000
   -2.5630   23.0140  -29.4830 C   0  0  0  0  0  0  0  0  0  0  0  0
   -2.7860   24.4720  -29.7110 C   0  0  0  0  0  0  0  0  0  0  0  0
   -1.9910   25.3080  -29.2030 O   0  0  0  0  0  0  0  0  0  0  0  0
   -3.9600   24.9020  -30.4080 N   0  0  0  0  0  0  0  0  0  0  0  0
   -5.1770   24.1580  -30.5580 C   0  0  0  0  0  0  0  0  0  0  0  0
   -5.7280   23.4080  -29.5040 C   0  0  0  0  0  0  0  0  0  0  0  0
   -6.9020   22.6770  -29.7030 C   0  0  0  0  0  0  0  0  0  0  0  0
   -7.5400   22.6850  -30.9500 C   0  0  0  0  0  0  0  0  0  0  0  0
   -8.9470   21.6570  -31.2130 S   0  0  0  0  0  0  0  0  0  0  0  0
   -9.7600   22.1660  -32.3720 O   0  0  0  0  0  0  0  0  0  0  0  0
   -9.8010   21.6840  -29.9770 O   0  0  0  0  0  0  0  0  0  0  0  0
   -8.4320   20.0200  -31.5170 N   0  0  0  0  0  0  0  0  0  0  0  0
   -8.1800   19.7860  -32.9430 C   0  0  0  0  0  0  0  0  0  0  0  0
   -6.7040   19.7870  -33.2450 C   0  0  0  0  0  0  0  0  0  0  0  0
   -5.9250   20.9240  -32.9860 C   0  0  0  0  0  0  0  0  0  0  0  0
   -4.5410   20.8900  -33.1750 C   0  0  0  0  0  0  0  0  0  0  0  0
   -3.9100   19.7150  -33.6190 C   0  0  0  0  0  0  0  0  0  0  0  0
   -2.4350   19.6400  -33.7550 C   0  0  0  0  0  0  0  0  0  0  0  0
   -1.8380   18.5820  -33.4150 O   0  0  0  0  0  0  0  0  0  0  0  0
   -1.6730   20.7720  -34.2130 N   0  0  0  0  0  0  0  0  0  0  0  0
   -0.2740   20.6960  -34.5420 C   0  0  0  0  0  0  0  0  0  0  0  0
    0.1540   20.9880  -35.8500 C   0  0  0  0  0  0  0  0  0  0  0  0
    1.5110   20.9500  -36.1800 C   0  0  0  0  0  0  0  0  0  0  0  0
    2.4580   20.6300  -35.2070 C   0  0  0  0  0  0  0  0  0  0  0  0
    2.0520   20.3530  -33.9020 C   0  0  0  0  0  0  0  0  0  0  0  0
    0.6920   20.3830  -33.5540 C   0  0  0  0  0  0  0  0  0  0  0  0
    0.3160   20.0580  -32.2090 N   0  0  0  0  0  0  0  0  0  0  0  0
   -4.7020   18.5950  -33.9290 C   0  0  0  0  0  0  0  0  0  0  0  0
   -6.0860   18.6310  -33.7460 C   0  0  0  0  0  0  0  0  0  0  0  0
   -7.0160   23.4700  -31.9870 C   0  0  0  0  0  0  0  0  0  0  0  0
   -5.8460   24.2080  -31.7860 C   0  0  0  0  0  0  0  0  0  0  0  0
   -2.5322   22.8124  -28.4021 H   0  0  0  0  0  0  0  0  0  0  0  0
   -3.3841   22.4417  -29.9394 H   0  0  0  0  0  0  0  0  0  0  0  0
   -1.6084   22.7133  -29.9394 H   0  0  0  0  0  0  0  0  0  0  0  0
   -5.2340   23.3967  -28.5212 H   0  0  0  0  0  0  0  0  0  0  0  0
   -7.3280   22.0914  -28.8750 H   0  0  0  0  0  0  0  0  0  0  0  0
   -8.6032   18.8110  -33.2265 H   0  0  0  0  0  0  0  0  0  0  0  0
   -8.6525   20.5968  -33.5169 H   0  0  0  0  0  0  0  0  0  0  0  0
   -6.4062   21.8477  -32.6321 H   0  0  0  0  0  0  0  0  0  0  0  0
   -3.9406   21.7897  -32.9748 H   0  0  0  0  0  0  0  0  0  0  0  0
   -2.1370   21.7040  -34.2430 H   0  0  0  0  0  0  0  0  0  0  0  0
   -0.5869   21.2487  -36.6202 H   0  0  0  0  0  0  0  0  0  0  0  0
    1.8330   21.1726  -37.2080 H   0  0  0  0  0  0  0  0  0  0  0  0
    3.5257   20.5961  -35.4693 H   0  0  0  0  0  0  0  0  0  0  0  0
    2.8045   20.1086  -33.1378 H   0  0  0  0  0  0  0  0  0  0  0  0
    0.8690   20.4240  -31.4020 H   0  0  0  0  0  0  0  0  0  0  0  0
   -0.4710   19.4140  -31.9880 H   0  0  0  0  0  0  0  0  0  0  0  0
   -4.2272   17.6826  -34.3190 H   0  0  0  0  0  0  0  0  0  0  0  0
   -6.6944   17.7493  -33.9957 H   0  0  0  0  0  0  0  0  0  0  0  0
   -7.5267   23.5051  -32.9606 H   0  0  0  0  0  0  0  0  0  0  0  0
   -5.4482   24.8328  -32.5993 H   0  0  0  0  0  0  0  0  0  0  0  0
  1  2  1  0
  2  3  2  0
  2  4  1  0
  4  5  1  0
  5  6  2  0
  6  7  1  0
  7  8  2  0
  8  9  1  0
  9 10  2  0
  9 11  2  0
  9 12  1  0
 12 13  1  0
 13 14  1  0
 14 15  2  0
 15 16  1  0
 16 17  2  0
 17 18  1  0
 18 19  2  0
 18 20  1  0
 20 21  1  0
 21 22  2  0
 22 23  1  0
 23 24  2  0
 24 25  1  0
 25 26  2  0
 26 27  1  0
 17 28  1  0
 28 29  2  0
  8 30  1  0
 30 31  2  0
 31  5  1  0
 29 14  1  0
 26 21  1  0
  1 32  1  0
  1 33  1  0
  1 34  1  0
  6 35  1  0
  7 36  1  0
 13 37  1  0
 13 38  1  0
 15 39  1  0
 16 40  1  0
 20 41  1  0
 22 42  1  0
 23 43  1  0
 24 44  1  0
 25 45  1  0
 27 46  1  0
 27 47  1  0
 28 48  1  0
 29 49  1  0
 30 50  1  0
 31 51  1  0
M  CHG  2   4  -1  12  -1
M  END
>  <UniqueID>  (21) 
19

>  <SMILES>  (21) 
CC(=O)[N-]c1ccc(S(=O)(=O)[N-]Cc2ccc(C(=O)Nc3ccccc3N)cc2)cc1

>  <Energy>  (21) 
53.505949001102586

>  <Genealogy>  (21) 
CC(=O)[N-]c1ccc(S(=O)(=O)[N-]Cc2ccc(C(=O)Nc3ccccc3N)cc2)cc1 (protonated)
CC(=O)[N-]c1ccc(S(=O)(=O)[N-]Cc2ccc(C(=O)Nc3ccccc3N)cc2)cc1 (3D coordinates assigned)
CC(=O)[N-]c1ccc(S(=O)(=O)[N-]Cc2ccc(C(=O)Nc3ccccc3N)cc2)cc1 (optimized conformer: 53.505949001102586 kcal/mol)

>  <smiles>  (21) 
CC(=O)Nc1ccc(S(=O)(=O)NCc2ccc(C(=O)Nc3ccccc3N)cc2)cc1

>  <score_type>  (21) 
oracle

>  <origin>  (21) 
adgpu

>  <m_score__min__energy>  (21) 
-10.970000000000001

>  <m_primary>  (21) 
energy

$$$$
21:0
     RDKit          3D

 43 45  0  0  0  0  0  0  0  0999 V2000
   -5.2170   14.5970  -34.2610 C   0  0  0  0  0  0  0  0  0  0  0  0
   -5.0630   16.0690  -34.0490 C   0  0  0  0  0  0  0  0  0  0  0  0
   -6.0710   16.8080  -33.4270 C   0  0  0  0  0  0  0  0  0  0  0  0
   -5.8640   18.1840  -33.2350 C   0  0  0  0  0  0  0  0  0  0  0  0
   -6.8820   19.0470  -32.5860 C   0  0  0  0  0  0  0  0  0  0  0  0
   -8.0950   18.5260  -32.1110 C   0  0  0  0  0  0  0  0  0  0  0  0
   -9.0300   19.3590  -31.4980 C   0  0  0  0  0  0  0  0  0  0  0  0
   -8.7870   20.7340  -31.3570 C   0  0  0  0  0  0  0  0  0  0  0  0
   -9.8180   21.5730  -30.6490 C   0  0  0  0  0  0  0  0  0  0  0  0
   -7.5980   21.2870  -31.8960 C   0  0  0  0  0  0  0  0  0  0  0  0
   -7.2220   23.0260  -31.8110 S   0  0  0  0  0  0  0  0  0  0  0  0
   -6.5780   23.4940  -33.0860 O   0  0  0  0  0  0  0  0  0  0  0  0
   -8.5120   23.7730  -31.6130 O   0  0  0  0  0  0  0  0  0  0  0  0
   -6.1330   23.3890  -30.4860 N   0  0  0  0  0  0  0  0  0  0  0  0
   -4.7400   23.0620  -30.8700 C   0  0  0  0  0  0  0  0  0  0  0  0
   -3.7360   23.8820  -30.0400 C   0  0  0  0  0  0  0  0  0  0  0  0
   -3.8670   25.2880  -30.1990 O   0  0  0  0  0  0  0  0  0  0  0  0
   -5.1670   25.7000  -30.5980 C   0  0  0  0  0  0  0  0  0  0  0  0
   -6.2890   24.8000  -30.0480 C   0  0  0  0  0  0  0  0  0  0  0  0
   -6.6470   20.4270  -32.4720 C   0  0  0  0  0  0  0  0  0  0  0  0
   -4.7160   18.7300  -33.6340 O   0  0  0  0  0  0  0  0  0  0  0  0
   -3.7560   18.0230  -34.2190 C   0  0  0  0  0  0  0  0  0  0  0  0
   -2.6910   18.5890  -34.5770 O   0  0  0  0  0  0  0  0  0  0  0  0
   -3.9180   16.6920  -34.4300 N   0  0  0  0  0  0  0  0  0  0  0  0
   -5.2701   14.0898  -33.2864 H   0  0  0  0  0  0  0  0  0  0  0  0
   -6.1404   14.4026  -34.8263 H   0  0  0  0  0  0  0  0  0  0  0  0
   -4.3538   14.2157  -34.8263 H   0  0  0  0  0  0  0  0  0  0  0  0
   -7.0025   16.3256  -33.0961 H   0  0  0  0  0  0  0  0  0  0  0  0
   -8.3098   17.4530  -32.2230 H   0  0  0  0  0  0  0  0  0  0  0  0
   -9.9709   18.9327  -31.1198 H   0  0  0  0  0  0  0  0  0  0  0  0
   -9.6909   21.4695  -29.5613 H   0  0  0  0  0  0  0  0  0  0  0  0
   -9.6912   22.6278  -30.9343 H   0  0  0  0  0  0  0  0  0  0  0  0
  -10.8250   21.2345  -30.9343 H   0  0  0  0  0  0  0  0  0  0  0  0
   -6.4070   22.7780  -29.6810 H   0  0  0  0  0  0  0  0  0  0  0  0
   -4.5605   21.9906  -30.6970 H   0  0  0  0  0  0  0  0  0  0  0  0
   -4.6011   23.3074  -31.9333 H   0  0  0  0  0  0  0  0  0  0  0  0
   -3.8851   23.6386  -28.9777 H   0  0  0  0  0  0  0  0  0  0  0  0
   -2.7316   23.6133  -30.3991 H   0  0  0  0  0  0  0  0  0  0  0  0
   -5.3340   26.7256  -30.2370 H   0  0  0  0  0  0  0  0  0  0  0  0
   -5.2062   25.6342  -31.6953 H   0  0  0  0  0  0  0  0  0  0  0  0
   -6.2667   24.8356  -28.9488 H   0  0  0  0  0  0  0  0  0  0  0  0
   -7.2474   25.1737  -30.4378 H   0  0  0  0  0  0  0  0  0  0  0  0
   -5.6984   20.8437  -32.8414 H   0  0  0  0  0  0  0  0  0  0  0  0
  1  2  1  0
  2  3  1  0
  3  4  2  0
  4  5  1  0
  5  6  2  0
  6  7  1  0
  7  8  2  0
  8  9  1  0
  8 10  1  0
 10 11  1  0
 11 12  2  0
 11 13  2  0
 11 14  1  0
 14 15  1  0
 15 16  1  0
 16 17  1  0
 17 18  1  0
 18 19  1  0
 10 20  2  0
  4 21  1  0
 21 22  1  0
 22 23  2  0
 22 24  1  0
 24  2  2  0
 20  5  1  0
 19 14  1  0
  1 25  1  0
  1 26  1  0
  1 27  1  0
  3 28  1  0
  6 29  1  0
  7 30  1  0
  9 31  1  0
  9 32  1  0
  9 33  1  0
 14 34  1  0
 15 35  1  0
 15 36  1  0
 16 37  1  0
 16 38  1  0
 18 39  1  0
 18 40  1  0
 19 41  1  0
 19 42  1  0
 20 43  1  0
M  CHG  1  14   1
M  END
>  <UniqueID>  (22) 
20

>  <SMILES>  (22) 
Cc1cc(-c2ccc(C)c(S(=O)(=O)[NH+]3CCOCC3)c2)oc(=O)n1

>  <Energy>  (22) 
63.29512895724585

>  <Genealogy>  (22) 
Cc1cc(-c2ccc(C)c(S(=O)(=O)[NH+]3CCOCC3)c2)oc(=O)n1 (protonated)
Cc1cc(-c2ccc(C)c(S(=O)(=O)[NH+]3CCOCC3)c2)oc(=O)n1 (3D coordinates assigned)
Cc1cc(-c2ccc(C)c(S(=O)(=O)[NH+]3CCOCC3)c2)oc(=O)n1 (nonaromatic ring conformer: 63.29512895724585 kcal/mol)

>  <smiles>  (22) 
Cc1cc(-c2ccc(C)c(S(=O)(=O)N3CCOCC3)c2)oc(=O)n1

>  <score_type>  (22) 
oracle

>  <origin>  (22) 
adgpu

>  <m_score__min__energy>  (22) 
-8.2899999999999991

>  <m_primary>  (22) 
energy

$$$$
22:0
     RDKit          3D

 43 45  0  0  0  0  0  0  0  0999 V2000
   -3.7880   25.1250  -30.6160 N   0  0  0  0  0  0  0  0  0  0  0  0
   -4.0220   23.4130  -30.6080 S   0  0  0  0  0  0  0  0  0  0  0  0
   -3.7970   22.8800  -29.2210 O   0  0  0  0  0  0  0  0  0  0  0  0
   -3.0300   22.7700  -31.5380 O   0  0  0  0  0  0  0  0  0  0  0  0
   -5.6620   23.0430  -31.1290 C   0  0  0  0  0  0  0  0  0  0  0  0
   -6.6530   24.0350  -31.1100 C   0  0  0  0  0  0  0  0  0  0  0  0
   -7.9590   23.7300  -31.5040 C   0  0  0  0  0  0  0  0  0  0  0  0
   -8.2820   22.4340  -31.9160 C   0  0  0  0  0  0  0  0  0  0  0  0
   -7.2960   21.4370  -31.9410 C   0  0  0  0  0  0  0  0  0  0  0  0
   -7.7050   19.7950  -32.4220 S   0  0  0  0  0  0  0  0  0  0  0  0
   -8.1420   18.9970  -31.2260 O   0  0  0  0  0  0  0  0  0  0  0  0
   -8.8410   19.8240  -33.4070 O   0  0  0  0  0  0  0  0  0  0  0  0
   -6.2880   19.0470  -33.1490 C   0  0  0  0  0  0  0  0  0  0  0  0
   -6.4260   17.9260  -33.9750 C   0  0  0  0  0  0  0  0  0  0  0  0
   -5.3030   17.3480  -34.5670 C   0  0  0  0  0  0  0  0  0  0  0  0
   -4.0280   17.8900  -34.3480 C   0  0  0  0  0  0  0  0  0  0  0  0
   -2.9090   17.2830  -34.9210 O   0  0  0  0  0  0  0  0  0  0  0  0
   -3.8810   19.0340  -33.5360 C   0  0  0  0  0  0  0  0  0  0  0  0
   -2.5510   19.6470  -33.3030 C   0  0  0  0  0  0  0  0  0  0  0  0
   -1.7020   19.9430  -34.3820 C   0  0  0  0  0  0  0  0  0  0  0  0
   -0.4500   20.5170  -34.1560 C   0  0  0  0  0  0  0  0  0  0  0  0
   -0.0360   20.8150  -32.8560 C   0  0  0  0  0  0  0  0  0  0  0  0
   -0.8850   20.5600  -31.7650 C   0  0  0  0  0  0  0  0  0  0  0  0
   -0.4230   20.8380  -30.3560 C   0  0  0  0  0  0  0  0  0  0  0  0
   -1.3190   20.3170  -29.4390 F   0  0  0  0  0  0  0  0  0  0  0  0
   -0.3190   22.2000  -30.1330 F   0  0  0  0  0  0  0  0  0  0  0  0
    0.8150   20.2540  -30.1600 F   0  0  0  0  0  0  0  0  0  0  0  0
   -2.1330   19.9570  -31.9970 C   0  0  0  0  0  0  0  0  0  0  0  0
   -5.0200   19.6010  -32.9380 C   0  0  0  0  0  0  0  0  0  0  0  0
   -5.9900   21.7430  -31.5380 C   0  0  0  0  0  0  0  0  0  0  0  0
   -2.7590   25.2920  -30.5500 H   0  0  0  0  0  0  0  0  0  0  0  0
   -6.4021   25.0553  -30.7844 H   0  0  0  0  0  0  0  0  0  0  0  0
   -8.7336   24.5109  -31.4898 H   0  0  0  0  0  0  0  0  0  0  0  0
   -9.3116   22.1956  -32.2212 H   0  0  0  0  0  0  0  0  0  0  0  0
   -7.4232   17.4992  -34.1581 H   0  0  0  0  0  0  0  0  0  0  0  0
   -5.4179   16.4623  -35.2091 H   0  0  0  0  0  0  0  0  0  0  0  0
   -2.8830   16.2870  -35.1080 H   0  0  0  0  0  0  0  0  0  0  0  0
   -2.0253   19.7214  -35.4098 H   0  0  0  0  0  0  0  0  0  0  0  0
    0.2136   20.7356  -35.0056 H   0  0  0  0  0  0  0  0  0  0  0  0
    0.9592   21.2513  -32.6849 H   0  0  0  0  0  0  0  0  0  0  0  0
   -2.7907   19.7248  -31.1465 H   0  0  0  0  0  0  0  0  0  0  0  0
   -4.9136   20.4891  -32.2977 H   0  0  0  0  0  0  0  0  0  0  0  0
   -5.2180   20.9594  -31.5425 H   0  0  0  0  0  0  0  0  0  0  0  0
  1  2  1  0
  2  3  2  0
  2  4  2  0
  2  5  1  0
  5  6  2  0
  6  7  1  0
  7  8  2  0
  8  9  1  0
  9 10  1  0
 10 11  2  0
 10 12  2  0
 10 13  1  0
 13 14  2  0
 14 15  1  0
 15 16  2  0
 16 17  1  0
 16 18  1  0
 18 19  1  0
 19 20  2  0
 20 21  1  0
 21 22  2  0
 22 23  1  0
 23 24  1  0
 24 25  1  0
 24 26  1  0
 24 27  1  0
 23 28  2  0
 18 29  2  0
  9 30  2  0
 30  5  1  0
 29 13  1  0
 28 19  1  0
  1 31  1  0
  6 32  1  0
  7 33  1  0
  8 34  1  0
 14 35  1  0
 15 36  1  0
 17 37  1  0
 20 38  1  0
 21 39  1  0
 22 40  1  0
 28 41  1  0
 29 42  1  0
 30 43  1  0
M  CHG  1   1  -1
M  END
>  <UniqueID>  (23) 
21

>  <SMILES>  (23) 
[NH-]S(=O)(=O)c1cccc(S(=O)(=O)c2ccc(O)c(-c3cccc(C(F)(F)F)c3)c2)c1

>  <Energy>  (23) 
53.66623640873387

>  <Genealogy>  (23) 
[NH-]S(=O)(=O)c1cccc(S(=O)(=O)c2ccc(O)c(-c3cccc(C(F)(F)F)c3)c2)c1 (protonated)
[NH-]S(=O)(=O)c1cccc(S(=O)(=O)c2ccc(O)c(-c3cccc(C(F)(F)F)c3)c2)c1 (3D coordinates assigned)
[NH-]S(=O)(=O)c1cccc(S(=O)(=O)c2ccc(O)c(-c3cccc(C(F)(F)F)c3)c2)c1 (optimized conformer: 53.66623640873387 kcal/mol)

>  <smiles>  (23) 
NS(=O)(=O)c1cccc(S(=O)(=O)c2ccc(O)c(-c3cccc(C(F)(F)F)c3)c2)c1

>  <score_type>  (23) 
oracle

>  <origin>  (23) 
adgpu

>  <m_score__min__energy>  (23) 
-12.199999999999999

>  <m_primary>  (23) 
energy

$$$$
23:0
     RDKit          3D

 40 42  0  0  0  0  0  0  0  0999 V2000
   -5.8320   18.7980  -34.0590 C   0  0  0  0  0  0  0  0  0  0  0  0
   -6.8380   19.3300  -33.1320 N   0  0  0  0  0  0  0  0  0  0  0  0
   -6.9400   20.6820  -32.9460 C   0  0  0  0  0  0  0  0  0  0  0  0
   -7.8980   21.2200  -32.0720 C   0  0  0  0  0  0  0  0  0  0  0  0
   -8.0030   22.6830  -31.8680 C   0  0  0  0  0  0  0  0  0  0  0  0
   -9.1170   23.2510  -32.0400 O   0  0  0  0  0  0  0  0  0  0  0  0
   -6.8680   23.4660  -31.4570 N   0  0  0  0  0  0  0  0  0  0  0  0
   -7.0610   24.5310  -30.4620 C   0  0  0  0  0  0  0  0  0  0  0  0
   -5.7700   25.3210  -30.2280 C   0  0  0  0  0  0  0  0  0  0  0  0
   -4.6340   24.3940  -30.1160 N   0  0  0  0  0  0  0  0  0  0  0  0
   -3.6690   24.5120  -29.0550 C   0  0  0  0  0  0  0  0  0  0  0  0
   -3.9970   24.1760  -27.7300 C   0  0  0  0  0  0  0  0  0  0  0  0
   -3.0270   24.2870  -26.7320 C   0  0  0  0  0  0  0  0  0  0  0  0
   -1.7400   24.7170  -27.0570 C   0  0  0  0  0  0  0  0  0  0  0  0
   -1.4390   25.0240  -28.3850 C   0  0  0  0  0  0  0  0  0  0  0  0
   -2.3970   24.9120  -29.3430 N   0  0  0  0  0  0  0  0  0  0  0  0
   -4.4220   23.3800  -31.1600 C   0  0  0  0  0  0  0  0  0  0  0  0
   -5.5840   23.3430  -32.1630 C   0  0  0  0  0  0  0  0  0  0  0  0
   -8.7300   20.3430  -31.3670 C   0  0  0  0  0  0  0  0  0  0  0  0
   -8.6180   18.9690  -31.5610 C   0  0  0  0  0  0  0  0  0  0  0  0
   -7.6650   18.4710  -32.4530 C   0  0  0  0  0  0  0  0  0  0  0  0
   -7.5760   17.2240  -32.6230 O   0  0  0  0  0  0  0  0  0  0  0  0
   -5.0017   18.3589  -33.4865 H   0  0  0  0  0  0  0  0  0  0  0  0
   -6.2901   18.0242  -34.6926 H   0  0  0  0  0  0  0  0  0  0  0  0
   -5.4503   19.6122  -34.6926 H   0  0  0  0  0  0  0  0  0  0  0  0
   -6.2618   21.3567  -33.4890 H   0  0  0  0  0  0  0  0  0  0  0  0
   -7.8408   25.2187  -30.8212 H   0  0  0  0  0  0  0  0  0  0  0  0
   -7.3578   24.0650  -29.5108 H   0  0  0  0  0  0  0  0  0  0  0  0
   -5.6017   26.0048  -31.0730 H   0  0  0  0  0  0  0  0  0  0  0  0
   -5.8610   25.8993  -29.2967 H   0  0  0  0  0  0  0  0  0  0  0  0
   -5.0105   23.8282  -27.4813 H   0  0  0  0  0  0  0  0  0  0  0  0
   -3.2771   24.0358  -25.6907 H   0  0  0  0  0  0  0  0  0  0  0  0
   -0.9715   24.8129  -26.2758 H   0  0  0  0  0  0  0  0  0  0  0  0
   -0.4263   25.3567  -28.6564 H   0  0  0  0  0  0  0  0  0  0  0  0
   -3.4927   23.6139  -31.7001 H   0  0  0  0  0  0  0  0  0  0  0  0
   -4.3591   22.3957  -30.6730 H   0  0  0  0  0  0  0  0  0  0  0  0
   -5.4782   24.1768  -32.8727 H   0  0  0  0  0  0  0  0  0  0  0  0
   -5.5616   22.3850  -32.7032 H   0  0  0  0  0  0  0  0  0  0  0  0
   -9.4728   20.7395  -30.6592 H   0  0  0  0  0  0  0  0  0  0  0  0
   -9.2770   18.2784  -31.0143 H   0  0  0  0  0  0  0  0  0  0  0  0
  1  2  1  0
  2  3  1  0
  3  4  2  0
  4  5  1  0
  5  6  2  0
  5  7  1  0
  7  8  1  0
  8  9  1  0
  9 10  1  0
 10 11  1  0
 11 12  2  0
 12 13  1  0
 13 14  2  0
 14 15  1  0
 15 16  2  0
 10 17  1  0
 17 18  1  0
  4 19  1  0
 19 20  2  0
 20 21  1  0
 21 22  2  0
 21  2  1  0
 18  7  1  0
 16 11  1  0
  1 23  1  0
  1 24  1  0
  1 25  1  0
  3 26  1  0
  8 27  1  0
  8 28  1  0
  9 29  1  0
  9 30  1  0
 12 31  1  0
 13 32  1  0
 14 33  1  0
 15 34  1  0
 17 35  1  0
 17 36  1  0
 18 37  1  0
 18 38  1  0
 19 39  1  0
 20 40  1  0
M  END
>  <UniqueID>  (24) 
22

>  <SMILES>  (24) 
Cn1cc(C(=O)N2CCN(c3ccccn3)CC2)ccc1=O

>  <Energy>  (24) 
52.48028698681807

>  <Genealogy>  (24) 
Cn1cc(C(=O)N2CCN(c3ccccn3)CC2)ccc1=O (3D coordinates assigned)
Cn1cc(C(=O)N2CCN(c3ccccn3)CC2)ccc1=O (nonaromatic ring conformer: 52.48028698681807 kcal/mol)

>  <smiles>  (24) 
Cn1cc(C(=O)N2CCN(c3ccccn3)CC2)ccc1=O

>  <score_type>  (24) 
oracle

>  <origin>  (24) 
adgpu

>  <m_score__min__energy>  (24) 
-8.3100000000000005

>  <m_primary>  (24) 
energy

$$$$
24:0
     RDKit          3D

 44 46  0  0  0  0  0  0  0  0999 V2000
   -0.5066   27.6833  -27.3303 H   0  0  0  0  0  0  0  0  0  0  0  0
   -0.8270   26.6440  -27.4950 C   0  0  0  0  0  0  0  0  0  0  0  0
   -1.5670   26.3280  -28.5890 N   0  0  0  0  0  0  0  0  0  0  0  0
   -1.9880   25.0620  -28.8610 C   0  0  0  0  0  0  0  0  0  0  0  0
   -2.7680   24.9010  -29.9010 N   0  0  0  0  0  0  0  0  0  0  0  0
   -3.5480   23.7560  -30.2760 C   0  0  0  0  0  0  0  0  0  0  0  0
   -3.0110   22.8430  -31.1970 C   0  0  0  0  0  0  0  0  0  0  0  0
   -1.9888   22.9870  -31.5768 H   0  0  0  0  0  0  0  0  0  0  0  0
   -3.7700   21.7480  -31.6360 C   0  0  0  0  0  0  0  0  0  0  0  0
   -3.2710   20.8070  -32.5510 O   0  0  0  0  0  0  0  0  0  0  0  0
   -2.2110   21.0590  -33.4700 C   0  0  0  0  0  0  0  0  0  0  0  0
   -1.2878   21.2785  -32.9137 H   0  0  0  0  0  0  0  0  0  0  0  0
   -2.0559   20.1727  -34.1028 H   0  0  0  0  0  0  0  0  0  0  0  0
   -2.4713   21.9203  -34.1028 H   0  0  0  0  0  0  0  0  0  0  0  0
   -5.0770   21.5900  -31.1570 C   0  0  0  0  0  0  0  0  0  0  0  0
   -5.6744   20.7269  -31.4857 H   0  0  0  0  0  0  0  0  0  0  0  0
   -5.6320   22.5130  -30.2680 C   0  0  0  0  0  0  0  0  0  0  0  0
   -6.6631   22.3778  -29.9093 H   0  0  0  0  0  0  0  0  0  0  0  0
   -4.8770   23.6130  -29.8310 C   0  0  0  0  0  0  0  0  0  0  0  0
   -5.4050   24.5770  -28.9670 O   0  0  0  0  0  0  0  0  0  0  0  0
   -6.2420   25.6600  -29.3660 C   0  0  0  0  0  0  0  0  0  0  0  0
   -6.6347   26.1682  -28.4730 H   0  0  0  0  0  0  0  0  0  0  0  0
   -5.6579   26.3729  -29.9664 H   0  0  0  0  0  0  0  0  0  0  0  0
   -7.0792   25.2745  -29.9664 H   0  0  0  0  0  0  0  0  0  0  0  0
   -1.5810   24.0060  -27.9860 C   0  0  0  0  0  0  0  0  0  0  0  0
   -1.6960   22.5750  -28.3250 C   0  0  0  0  0  0  0  0  0  0  0  0
   -2.4540   21.7480  -27.5570 N   0  0  0  0  0  0  0  0  0  0  0  0
   -2.4980   20.4200  -27.8290 C   0  0  0  0  0  0  0  0  0  0  0  0
   -3.4790   19.3340  -26.7960 S   0  0  0  0  0  0  0  0  0  0  0  0
   -2.0640   18.2630  -26.3510 C   0  0  0  0  0  0  0  0  0  0  0  0
   -1.9816   18.2006  -25.2559 H   0  0  0  0  0  0  0  0  0  0  0  0
   -2.2219   17.2561  -26.7648 H   0  0  0  0  0  0  0  0  0  0  0  0
   -1.1378   18.6884  -26.7648 H   0  0  0  0  0  0  0  0  0  0  0  0
   -1.7660   19.9120  -28.8580 N   0  0  0  0  0  0  0  0  0  0  0  0
   -1.0220   20.7350  -29.6410 C   0  0  0  0  0  0  0  0  0  0  0  0
   -0.1490   20.1600  -30.7150 C   0  0  0  0  0  0  0  0  0  0  0  0
    0.6852   19.6105  -30.2544 H   0  0  0  0  0  0  0  0  0  0  0  0
   -0.7398   19.4737  -31.3394 H   0  0  0  0  0  0  0  0  0  0  0  0
    0.2483   20.9738  -31.3394 H   0  0  0  0  0  0  0  0  0  0  0  0
   -0.9700   22.0610  -29.3560 N   0  0  0  0  0  0  0  0  0  0  0  0
   -0.8440   24.3350  -26.8380 C   0  0  0  0  0  0  0  0  0  0  0  0
   -0.5554   23.5422  -26.1321 H   0  0  0  0  0  0  0  0  0  0  0  0
   -0.4730   25.6540  -26.5810 C   0  0  0  0  0  0  0  0  0  0  0  0
    0.0902   25.9090  -25.6712 H   0  0  0  0  0  0  0  0  0  0  0  0
  1  2  1  0
  2  3  1  0
  3  4  1  0
  4  5  2  0
  5  6  1  0
  6  7  2  0
  7  8  1  0
  7  9  1  0
  9 10  1  0
 10 11  1  0
 11 12  1  0
 11 13  1  0
 11 14  1  0
  9 15  2  0
 15 16  1  0
 15 17  1  0
 17 18  1  0
 17 19  2  0
 19 20  1  0
 20 21  1  0
 21 22  1  0
 21 23  1  0
 21 24  1  0
  4 25  1  0
 25 26  1  0
 26 27  2  0
 27 28  1  0
 28 29  1  0
 29 30  1  0
 30 31  1  0
 30 32  1  0
 30 33  1  0
 28 34  2  0
 34 35  1  0
 35 36  1  0
 36 37  1  0
 36 38  1  0
 36 39  1  0
 35 40  2  0
 25 41  2  0
 41 42  1  0
 41 43  1  0
 43 44  1  0
 43  2  2  0
 19  6  1  0
 40 26  1  0
M  CHG  1   3  -1
M  END
>  <UniqueID>  (25) 
23

>  <SMILES>  (25) 
COc1ccc(OC)c(/N=c2/[n-]cccc2-c2nc(C)nc(SC)n2)c1

>  <Energy>  (25) 
59.287051428032036

>  <Genealogy>  (25) 
COc1ccc(OC)c(N=c2[n-]cccc2-c2nc(C)nc(SC)n2)c1 (protonated)
COc1ccc(OC)c(/N=c2/[n-]cccc2-c2nc(C)nc(SC)n2)c1 (cis-trans isomerization)
COc1ccc(OC)c(/N=c2/[n-]cccc2-c2nc(C)nc(SC)n2)c1 (3D coordinates assigned)
COc1ccc(OC)c(/N=c2/[n-]cccc2-c2nc(C)nc(SC)n2)c1 (optimized conformer: 59.287051428032036 kcal/mol)

>  <smiles>  (25) 
COc1ccc(OC)c(N=c2[nH]cccc2-c2nc(C)nc(SC)n2)c1

>  <score_type>  (25) 
oracle

>  <origin>  (25) 
adgpu

>  <m_score__min__energy>  (25) 
-7.3300000000000001

>  <m_primary>  (25) 
energy

$$$$
25:0
     RDKit          3D

 50 52  0  0  0  0  0  0  0  0999 V2000
    4.5860   24.9570  -22.7260 C   0  0  0  0  0  0  0  0  0  0  0  0
    4.6630   24.5680  -24.0930 O   0  0  0  0  0  0  0  0  0  0  0  0
    3.5960   24.6470  -25.0010 C   0  0  0  0  0  0  0  0  0  0  0  0
    3.8870   24.7910  -26.3620 C   0  0  0  0  0  0  0  0  0  0  0  0
    2.8590   24.8750  -27.3040 C   0  0  0  0  0  0  0  0  0  0  0  0
    1.5170   24.8330  -26.9000 C   0  0  0  0  0  0  0  0  0  0  0  0
    0.4780   24.8970  -27.8910 N   0  0  0  0  0  0  0  0  0  0  0  0
   -0.5940   25.8540  -27.8700 C   0  0  0  0  0  0  0  0  0  0  0  0
   -0.4710   26.9290  -27.2260 O   0  0  0  0  0  0  0  0  0  0  0  0
   -1.7710   25.6510  -28.6590 N   0  0  0  0  0  0  0  0  0  0  0  0
   -2.2390   24.3930  -29.1650 C   0  0  0  0  0  0  0  0  0  0  0  0
   -1.6900   23.1820  -28.7230 C   0  0  0  0  0  0  0  0  0  0  0  0
   -2.1680   21.9710  -29.2160 C   0  0  0  0  0  0  0  0  0  0  0  0
   -3.2150   21.9390  -30.1500 C   0  0  0  0  0  0  0  0  0  0  0  0
   -3.6930   20.5990  -30.6470 C   0  0  0  0  0  0  0  0  0  0  0  0
   -3.8190   23.1550  -30.5660 C   0  0  0  0  0  0  0  0  0  0  0  0
   -5.1730   23.1460  -31.7220 S   0  0  0  0  0  0  0  0  0  0  0  0
   -5.6460   24.5570  -31.9330 O   0  0  0  0  0  0  0  0  0  0  0  0
   -4.7500   22.5950  -33.0570 O   0  0  0  0  0  0  0  0  0  0  0  0
   -6.4740   22.1730  -31.0790 N   0  0  0  0  0  0  0  0  0  0  0  0
   -6.4900   20.8240  -31.6890 C   0  0  0  0  0  0  0  0  0  0  0  0
   -7.6380   20.6570  -32.7010 C   0  0  0  0  0  0  0  0  0  0  0  0
   -8.9200   20.8850  -32.1330 O   0  0  0  0  0  0  0  0  0  0  0  0
   -8.9350   21.9060  -31.1410 C   0  0  0  0  0  0  0  0  0  0  0  0
   -7.7560   22.8880  -31.2270 C   0  0  0  0  0  0  0  0  0  0  0  0
   -3.3130   24.3770  -30.0670 C   0  0  0  0  0  0  0  0  0  0  0  0
   -3.8580   25.5910  -30.4710 O   0  0  0  0  0  0  0  0  0  0  0  0
    1.2210   24.6680  -25.5340 C   0  0  0  0  0  0  0  0  0  0  0  0
    2.2500   24.5830  -24.5920 C   0  0  0  0  0  0  0  0  0  0  0  0
    4.7596   24.0801  -22.0849 H   0  0  0  0  0  0  0  0  0  0  0  0
    5.3505   25.7201  -22.5183 H   0  0  0  0  0  0  0  0  0  0  0  0
    3.5884   25.3713  -22.5183 H   0  0  0  0  0  0  0  0  0  0  0  0
    4.9349   24.8385  -26.6932 H   0  0  0  0  0  0  0  0  0  0  0  0
    3.1043   24.9749  -28.3716 H   0  0  0  0  0  0  0  0  0  0  0  0
    0.5520   24.2700  -28.7240 H   0  0  0  0  0  0  0  0  0  0  0  0
   -0.8768   23.1882  -27.9823 H   0  0  0  0  0  0  0  0  0  0  0  0
   -1.7198   21.0281  -28.8694 H   0  0  0  0  0  0  0  0  0  0  0  0
   -3.9242   19.9508  -29.7889 H   0  0  0  0  0  0  0  0  0  0  0  0
   -4.5978   20.7358  -31.2575 H   0  0  0  0  0  0  0  0  0  0  0  0
   -2.9059   20.1323  -31.2575 H   0  0  0  0  0  0  0  0  0  0  0  0
   -5.5340   20.6582  -32.2072 H   0  0  0  0  0  0  0  0  0  0  0  0
   -6.6409   20.0907  -30.8831 H   0  0  0  0  0  0  0  0  0  0  0  0
   -7.4870   21.3725  -33.5227 H   0  0  0  0  0  0  0  0  0  0  0  0
   -7.6160   19.6149  -33.0526 H   0  0  0  0  0  0  0  0  0  0  0  0
   -9.8684   22.4779  -31.2492 H   0  0  0  0  0  0  0  0  0  0  0  0
   -8.8540   21.4007  -30.1673 H   0  0  0  0  0  0  0  0  0  0  0  0
   -7.7773   23.3940  -32.2035 H   0  0  0  0  0  0  0  0  0  0  0  0
   -7.8475   23.6246  -30.4151 H   0  0  0  0  0  0  0  0  0  0  0  0
    0.1730   24.6055  -25.2056 H   0  0  0  0  0  0  0  0  0  0  0  0
    2.0072   24.4655  -23.5256 H   0  0  0  0  0  0  0  0  0  0  0  0
  1  2  1  0
  2  3  1  0
  3  4  2  0
  4  5  1  0
  5  6  2  0
  6  7  1  0
  7  8  1  0
  8  9  2  0
  8 10  1  0
 10 11  1  0
 11 12  2  0
 12 13  1  0
 13 14  2  0
 14 15  1  0
 14 16  1  0
 16 17  1  0
 17 18  2  0
 17 19  2  0
 17 20  1  0
 20 21  1  0
 21 22  1  0
 22 23  1  0
 23 24  1  0
 24 25  1  0
 16 26  2  0
 26 27  1  0
  6 28  1  0
 28 29  2  0
 29  3  1  0
 26 11  1  0
 25 20  1  0
  1 30  1  0
  1 31  1  0
  1 32  1  0
  4 33  1  0
  5 34  1  0
  7 35  1  0
 12 36  1  0
 13 37  1  0
 15 38  1  0
 15 39  1  0
 15 40  1  0
 21 41  1  0
 21 42  1  0
 22 43  1  0
 22 44  1  0
 24 45  1  0
 24 46  1  0
 25 47  1  0
 25 48  1  0
 28 49  1  0
 29 50  1  0
M  CHG  2  10  -1  27  -1
M  END
>  <UniqueID>  (26) 
24

>  <SMILES>  (26) 
COc1ccc(NC(=O)[N-]c2ccc(C)c(S(=O)(=O)N3CCOCC3)c2[O-])cc1

>  <Energy>  (26) 
73.20794578304533

>  <Genealogy>  (26) 
COc1ccc(NC(=O)[N-]c2ccc(C)c(S(=O)(=O)N3CCOCC3)c2[O-])cc1 (protonated)
COc1ccc(NC(=O)[N-]c2ccc(C)c(S(=O)(=O)N3CCOCC3)c2[O-])cc1 (3D coordinates assigned)
COc1ccc(NC(=O)[N-]c2ccc(C)c(S(=O)(=O)N3CCOCC3)c2[O-])cc1 (nonaromatic ring conformer: 73.20794578304533 kcal/mol)

>  <smiles>  (26) 
COc1ccc(NC(=O)Nc2ccc(C)c(S(=O)(=O)N3CCOCC3)c2O)cc1

>  <score_type>  (26) 
oracle

>  <origin>  (26) 
adgpu

>  <m_score__min__energy>  (26) 
-12.41

>  <m_primary>  (26) 
energy

$$$$
26:0
     RDKit          3D

 47 49  0  0  0  0  0  0  0  0999 V2000
   -1.2150   18.9610  -34.5840 C   0  0  0  0  0  0  0  0  0  0  0  0
   -1.7720   19.8420  -33.5170 C   0  0  0  0  0  0  0  0  0  0  0  0
   -2.9770   20.5130  -33.5730 C   0  0  0  0  0  0  0  0  0  0  0  0
   -3.0960   21.1040  -32.3310 C   0  0  0  0  0  0  0  0  0  0  0  0
   -4.2870   21.8560  -31.8770 C   0  0  0  0  0  0  0  0  0  0  0  0
   -4.3770   23.0780  -32.1670 O   0  0  0  0  0  0  0  0  0  0  0  0
   -5.3550   21.2440  -31.1410 N   0  0  0  0  0  0  0  0  0  0  0  0
   -6.7610   21.3850  -31.3940 C   0  0  0  0  0  0  0  0  0  0  0  0
   -7.5200   20.2200  -31.5700 C   0  0  0  0  0  0  0  0  0  0  0  0
   -8.8700   20.2980  -31.9180 C   0  0  0  0  0  0  0  0  0  0  0  0
   -9.4790   21.5440  -32.0740 C   0  0  0  0  0  0  0  0  0  0  0  0
   -8.7480   22.7120  -31.8480 C   0  0  0  0  0  0  0  0  0  0  0  0
   -7.3990   22.6450  -31.4750 C   0  0  0  0  0  0  0  0  0  0  0  0
   -6.7450   23.8340  -31.1540 O   0  0  0  0  0  0  0  0  0  0  0  0
   -1.9980   20.7970  -31.5970 N   0  0  0  0  0  0  0  0  0  0  0  0
   -1.6490   21.2630  -30.2850 C   0  0  0  0  0  0  0  0  0  0  0  0
   -1.3560   20.3570  -29.2540 C   0  0  0  0  0  0  0  0  0  0  0  0
   -1.0200   20.8230  -27.9810 C   0  0  0  0  0  0  0  0  0  0  0  0
   -0.9750   22.1960  -27.7260 C   0  0  0  0  0  0  0  0  0  0  0  0
   -1.2730   23.1140  -28.7450 C   0  0  0  0  0  0  0  0  0  0  0  0
   -1.2290   24.5910  -28.4640 C   0  0  0  0  0  0  0  0  0  0  0  0
   -2.1630   25.2980  -29.3330 N   0  0  0  0  0  0  0  0  0  0  0  0
   -3.5150   24.8810  -29.5460 C   0  0  0  0  0  0  0  0  0  0  0  0
   -4.0860   25.0980  -30.6500 O   0  0  0  0  0  0  0  0  0  0  0  0
   -4.2400   24.1420  -28.4690 C   0  0  0  0  0  0  0  0  0  0  0  0
   -5.2440   23.2650  -29.0600 N   0  0  0  0  0  0  0  0  0  0  0  0
   -1.6280   22.6400  -30.0180 C   0  0  0  0  0  0  0  0  0  0  0  0
   -1.2010   20.0170  -32.3110 N   0  0  0  0  0  0  0  0  0  0  0  0
   -0.6816   18.1174  -34.1216 H   0  0  0  0  0  0  0  0  0  0  0  0
   -2.0354   18.5780  -35.2086 H   0  0  0  0  0  0  0  0  0  0  0  0
   -0.5172   19.5379  -35.2086 H   0  0  0  0  0  0  0  0  0  0  0  0
   -3.6821   20.5650  -34.4157 H   0  0  0  0  0  0  0  0  0  0  0  0
   -7.0482   19.2358  -31.4328 H   0  0  0  0  0  0  0  0  0  0  0  0
   -9.4533   19.3777  -32.0691 H   0  0  0  0  0  0  0  0  0  0  0  0
  -10.5352   21.6060  -32.3751 H   0  0  0  0  0  0  0  0  0  0  0  0
   -9.2346   23.6917  -31.9636 H   0  0  0  0  0  0  0  0  0  0  0  0
   -5.7390   23.9000  -31.0730 H   0  0  0  0  0  0  0  0  0  0  0  0
   -1.3911   19.2751  -29.4494 H   0  0  0  0  0  0  0  0  0  0  0  0
   -0.7903   20.1077  -27.1775 H   0  0  0  0  0  0  0  0  0  0  0  0
   -0.7051   22.5587  -26.7232 H   0  0  0  0  0  0  0  0  0  0  0  0
   -1.5039   24.7693  -27.4139 H   0  0  0  0  0  0  0  0  0  0  0  0
   -0.2111   24.9620  -28.6544 H   0  0  0  0  0  0  0  0  0  0  0  0
   -3.5223   23.5392  -27.8932 H   0  0  0  0  0  0  0  0  0  0  0  0
   -4.7357   24.8644  -27.8039 H   0  0  0  0  0  0  0  0  0  0  0  0
   -5.0000   23.1360  -30.0680 H   0  0  0  0  0  0  0  0  0  0  0  0
   -6.1660   23.7610  -29.0390 H   0  0  0  0  0  0  0  0  0  0  0  0
   -1.8917   23.3540  -30.8122 H   0  0  0  0  0  0  0  0  0  0  0  0
  1  2  1  0
  2  3  1  0
  3  4  2  0
  4  5  1  0
  5  6  2  0
  5  7  1  0
  7  8  1  0
  8  9  2  0
  9 10  1  0
 10 11  2  0
 11 12  1  0
 12 13  2  0
 13 14  1  0
  4 15  1  0
 15 16  1  0
 16 17  2  0
 17 18  1  0
 18 19  2  0
 19 20  1  0
 20 21  1  0
 21 22  1  0
 22 23  1  0
 23 24  2  0
 23 25  1  0
 25 26  1  0
 20 27  2  0
 15 28  1  0
 28  2  2  0
 13  8  1  0
 27 16  1  0
  1 29  1  0
  1 30  1  0
  1 31  1  0
  3 32  1  0
  9 33  1  0
 10 34  1  0
 11 35  1  0
 12 36  1  0
 14 37  1  0
 17 38  1  0
 18 39  1  0
 19 40  1  0
 21 41  1  0
 21 42  1  0
 25 43  1  0
 25 44  1  0
 26 45  1  0
 26 46  1  0
 27 47  1  0
M  CHG  2   7  -1  22  -1
M  END
>  <UniqueID>  (27) 
25

>  <SMILES>  (27) 
Cc1cc(C(=O)[N-]c2ccccc2O)n(-c2cccc(C[N-]C(=O)CN)c2)n1

>  <Energy>  (27) 
83.85803223494477

>  <Genealogy>  (27) 
Cc1cc(C(=O)[N-]c2ccccc2O)n(-c2cccc(C[N-]C(=O)CN)c2)n1 (protonated)
Cc1cc(C(=O)[N-]c2ccccc2O)n(-c2cccc(C[N-]C(=O)CN)c2)n1 (3D coordinates assigned)
Cc1cc(C(=O)[N-]c2ccccc2O)n(-c2cccc(C[N-]C(=O)CN)c2)n1 (optimized conformer: 83.85803223494477 kcal/mol)

>  <smiles>  (27) 
Cc1cc(C(=O)Nc2ccccc2O)n(-c2cccc(CNC(=O)CN)c2)n1

>  <score_type>  (27) 
oracle

>  <origin>  (27) 
adgpu

>  <m_score__min__energy>  (27) 
-8.7599999999999998

>  <m_primary>  (27) 
energy

$$$$
27:0
     RDKit          3D

 57 60  0  0  0  0  0  0  0  0999 V2000
   -5.7210   26.5030  -30.8320 O   0  0  0  0  0  0  0  0  0  0  0  0
   -5.3030   25.2010  -30.2080 S   0  0  0  0  0  0  0  0  0  0  0  0
   -5.5600   25.2710  -28.7290 O   0  0  0  0  0  0  0  0  0  0  0  0
   -3.6150   24.9190  -30.4850 N   0  0  0  0  0  0  0  0  0  0  0  0
   -2.7820   24.1320  -29.6220 C   0  0  0  0  0  0  0  0  0  0  0  0
   -3.0850   22.7890  -29.3340 C   0  0  0  0  0  0  0  0  0  0  0  0
   -2.2560   22.0430  -28.4840 C   0  0  0  0  0  0  0  0  0  0  0  0
   -1.1280   22.6410  -27.9040 C   0  0  0  0  0  0  0  0  0  0  0  0
   -0.8270   23.9800  -28.1860 C   0  0  0  0  0  0  0  0  0  0  0  0
   -1.6410   24.7170  -29.0520 C   0  0  0  0  0  0  0  0  0  0  0  0
   -1.3200   26.0390  -29.3370 O   0  0  0  0  0  0  0  0  0  0  0  0
   -0.2900   21.8270  -26.9570 C   0  0  0  0  0  0  0  0  0  0  0  0
   -0.0440   20.4130  -27.5130 C   0  0  0  0  0  0  0  0  0  0  0  0
   -1.2710   19.7630  -28.2090 C   0  0  0  0  0  0  0  0  0  0  0  0
   -2.5560   20.6060  -28.1560 C   0  0  0  0  0  0  0  0  0  0  0  0
   -6.2040   23.8500  -30.8850 C   0  0  0  0  0  0  0  0  0  0  0  0
   -5.7920   23.2410  -32.0780 C   0  0  0  0  0  0  0  0  0  0  0  0
   -6.3990   22.0570  -32.5070 C   0  0  0  0  0  0  0  0  0  0  0  0
   -7.4310   21.4810  -31.7540 C   0  0  0  0  0  0  0  0  0  0  0  0
   -8.0750   19.8990  -32.1880 S   0  0  0  0  0  0  0  0  0  0  0  0
   -8.7900   19.3140  -31.0020 O   0  0  0  0  0  0  0  0  0  0  0  0
   -9.0750   20.0530  -33.3010 O   0  0  0  0  0  0  0  0  0  0  0  0
   -6.7910   18.8270  -32.7100 N   0  0  0  0  0  0  0  0  0  0  0  0
   -6.3030   19.2000  -34.0640 C   0  0  0  0  0  0  0  0  0  0  0  0
   -5.0880   18.3950  -34.5860 C   0  0  0  0  0  0  0  0  0  0  0  0
   -3.6870   18.9510  -34.2210 C   0  0  0  0  0  0  0  0  0  0  0  0
   -3.4020   19.0870  -32.7150 C   0  0  0  0  0  0  0  0  0  0  0  0
   -4.5690   19.6730  -31.8970 C   0  0  0  0  0  0  0  0  0  0  0  0
   -5.7590   18.7280  -31.6590 C   0  0  0  0  0  0  0  0  0  0  0  0
   -7.8810   22.1230  -30.5930 C   0  0  0  0  0  0  0  0  0  0  0  0
   -7.2630   23.2970  -30.1550 C   0  0  0  0  0  0  0  0  0  0  0  0
   -3.9765   22.3217  -29.7777 H   0  0  0  0  0  0  0  0  0  0  0  0
    0.0524   24.4531  -27.7247 H   0  0  0  0  0  0  0  0  0  0  0  0
    0.6777   22.3292  -26.8106 H   0  0  0  0  0  0  0  0  0  0  0  0
   -0.8274   21.7388  -26.0012 H   0  0  0  0  0  0  0  0  0  0  0  0
    0.7739   20.4713  -28.2462 H   0  0  0  0  0  0  0  0  0  0  0  0
    0.1930   19.7773  -26.6472 H   0  0  0  0  0  0  0  0  0  0  0  0
   -1.0159   19.5919  -29.2652 H   0  0  0  0  0  0  0  0  0  0  0  0
   -1.4845   18.8332  -27.6614 H   0  0  0  0  0  0  0  0  0  0  0  0
   -3.2785   20.2112  -28.8855 H   0  0  0  0  0  0  0  0  0  0  0  0
   -2.9755   20.5525  -27.1405 H   0  0  0  0  0  0  0  0  0  0  0  0
   -4.9897   23.6953  -32.6779 H   0  0  0  0  0  0  0  0  0  0  0  0
   -6.0656   21.5761  -33.4384 H   0  0  0  0  0  0  0  0  0  0  0  0
   -7.1321   19.0580  -34.7729 H   0  0  0  0  0  0  0  0  0  0  0  0
   -5.9591   20.2416  -33.9819 H   0  0  0  0  0  0  0  0  0  0  0  0
   -5.1608   17.3761  -34.1780 H   0  0  0  0  0  0  0  0  0  0  0  0
   -5.1488   18.4506  -35.6829 H   0  0  0  0  0  0  0  0  0  0  0  0
   -2.9318   18.2757  -34.6495 H   0  0  0  0  0  0  0  0  0  0  0  0
   -3.6505   19.9717  -34.6295 H   0  0  0  0  0  0  0  0  0  0  0  0
   -3.1703   18.0880  -32.3170 H   0  0  0  0  0  0  0  0  0  0  0  0
   -2.5639   19.7926  -32.6164 H   0  0  0  0  0  0  0  0  0  0  0  0
   -4.1753   19.9743  -30.9150 H   0  0  0  0  0  0  0  0  0  0  0  0
   -4.9643   20.5074  -32.4950 H   0  0  0  0  0  0  0  0  0  0  0  0
   -5.3855   17.6938  -31.6303 H   0  0  0  0  0  0  0  0  0  0  0  0
   -6.2277   19.0208  -30.7079 H   0  0  0  0  0  0  0  0  0  0  0  0
   -8.7233   21.7016  -30.0246 H   0  0  0  0  0  0  0  0  0  0  0  0
   -7.6095   23.7883  -29.2338 H   0  0  0  0  0  0  0  0  0  0  0  0
  1  2  2  0
  2  3  2  0
  2  4  1  0
  4  5  1  0
  5  6  2  0
  6  7  1  0
  7  8  2  0
  8  9  1  0
  9 10  2  0
 10 11  1  0
  8 12  1  0
 12 13  1  0
 13 14  1  0
 14 15  1  0
  2 16  1  0
 16 17  2  0
 17 18  1  0
 18 19  2  0
 19 20  1  0
 20 21  2  0
 20 22  2  0
 20 23  1  0
 23 24  1  0
 24 25  1  0
 25 26  1  0
 26 27  1  0
 27 28  1  0
 28 29  1  0
 19 30  1  0
 30 31  2  0
 10  5  1  0
 31 16  1  0
 15  7  1  0
 29 23  1  0
  6 32  1  0
  9 33  1  0
 12 34  1  0
 12 35  1  0
 13 36  1  0
 13 37  1  0
 14 38  1  0
 14 39  1  0
 15 40  1  0
 15 41  1  0
 17 42  1  0
 18 43  1  0
 24 44  1  0
 24 45  1  0
 25 46  1  0
 25 47  1  0
 26 48  1  0
 26 49  1  0
 27 50  1  0
 27 51  1  0
 28 52  1  0
 28 53  1  0
 29 54  1  0
 29 55  1  0
 30 56  1  0
 31 57  1  0
M  CHG  2   4  -1  11  -1
M  END
>  <UniqueID>  (28) 
26

>  <SMILES>  (28) 
O=S(=O)([N-]c1cc2c(cc1[O-])CCCC2)c1ccc(S(=O)(=O)N2CCCCCC2)cc1

>  <Energy>  (28) 
76.04060888807012

>  <Genealogy>  (28) 
O=S(=O)([N-]c1cc2c(cc1[O-])CCCC2)c1ccc(S(=O)(=O)N2CCCCCC2)cc1 (protonated)
O=S(=O)([N-]c1cc2c(cc1[O-])CCCC2)c1ccc(S(=O)(=O)N2CCCCCC2)cc1 (3D coordinates assigned)
O=S(=O)([N-]c1cc2c(cc1[O-])CCCC2)c1ccc(S(=O)(=O)N2CCCCCC2)cc1 (nonaromatic ring conformer: 76.04060888807012 kcal/mol)

>  <smiles>  (28) 
O=S(=O)(Nc1cc2c(cc1O)CCCC2)c1ccc(S(=O)(=O)N2CCCCCC2)cc1

>  <score_type>  (28) 
oracle

>  <origin>  (28) 
adgpu

>  <m_score__min__energy>  (28) 
-13.970000000000001

>  <m_primary>  (28) 
energy

$$$$
28:0
     RDKit          3D

 36 37  0  0  0  0  0  0  0  0999 V2000
    2.0750   17.0520  -27.8440 C   0  0  0  0  0  0  0  0  0  0  0  0
    1.0800   18.1590  -27.7910 C   0  0  0  0  0  0  0  0  0  0  0  0
   -0.1110   18.0620  -27.1630 N   0  0  0  0  0  0  0  0  0  0  0  0
   -0.8710   19.1800  -27.3220 C   0  0  0  0  0  0  0  0  0  0  0  0
   -2.2430   19.2630  -26.7270 C   0  0  0  0  0  0  0  0  0  0  0  0
   -0.2710   20.1890  -28.0900 C   0  0  0  0  0  0  0  0  0  0  0  0
   -0.8310   21.5100  -28.4470 C   0  0  0  0  0  0  0  0  0  0  0  0
   -0.0460   22.6640  -28.3110 C   0  0  0  0  0  0  0  0  0  0  0  0
   -0.5660   23.9140  -28.6490 C   0  0  0  0  0  0  0  0  0  0  0  0
   -1.8760   24.0310  -29.1250 C   0  0  0  0  0  0  0  0  0  0  0  0
   -2.3650   25.2910  -29.4480 O   0  0  0  0  0  0  0  0  0  0  0  0
   -2.6780   22.8820  -29.2610 C   0  0  0  0  0  0  0  0  0  0  0  0
   -4.3410   22.9680  -29.8650 S   0  0  0  0  0  0  0  0  0  0  0  0
   -4.8010   21.5780  -30.2060 O   0  0  0  0  0  0  0  0  0  0  0  0
   -5.2620   23.5380  -28.8230 O   0  0  0  0  0  0  0  0  0  0  0  0
   -4.4350   23.9620  -31.2880 N   0  0  0  0  0  0  0  0  0  0  0  0
   -5.8150   24.4100  -31.4950 C   0  0  0  0  0  0  0  0  0  0  0  0
   -6.1030   25.6570  -30.6580 C   0  0  0  0  0  0  0  0  0  0  0  0
   -4.9180   26.1570  -30.0960 O   0  0  0  0  0  0  0  0  0  0  0  0
   -2.1550   21.6330  -28.8960 C   0  0  0  0  0  0  0  0  0  0  0  0
    1.2320   19.6240  -28.6000 S   0  0  0  0  0  0  0  0  0  0  0  0
    2.3446   16.7520  -26.8206 H   0  0  0  0  0  0  0  0  0  0  0  0
    1.6396   16.1928  -28.3753 H   0  0  0  0  0  0  0  0  0  0  0  0
    2.9756   17.3936  -28.3753 H   0  0  0  0  0  0  0  0  0  0  0  0
   -2.1676   19.2584  -25.6296 H   0  0  0  0  0  0  0  0  0  0  0  0
   -2.7303   20.1923  -27.0572 H   0  0  0  0  0  0  0  0  0  0  0  0
   -2.8387   18.3993  -27.0572 H   0  0  0  0  0  0  0  0  0  0  0  0
    0.9849   22.5834  -27.9360 H   0  0  0  0  0  0  0  0  0  0  0  0
    0.0583   24.8131  -28.5404 H   0  0  0  0  0  0  0  0  0  0  0  0
   -3.8330   24.8020  -31.1260 H   0  0  0  0  0  0  0  0  0  0  0  0
   -5.9636   24.6457  -32.5591 H   0  0  0  0  0  0  0  0  0  0  0  0
   -6.5005   23.6072  -31.1858 H   0  0  0  0  0  0  0  0  0  0  0  0
   -6.5523   26.4284  -31.3007 H   0  0  0  0  0  0  0  0  0  0  0  0
   -6.7955   25.3884  -29.8467 H   0  0  0  0  0  0  0  0  0  0  0  0
   -4.5040   25.4100  -29.5910 H   0  0  0  0  0  0  0  0  0  0  0  0
   -2.7909   20.7379  -28.9625 H   0  0  0  0  0  0  0  0  0  0  0  0
  1  2  1  0
  2  3  2  0
  3  4  1  0
  4  5  1  0
  4  6  2  0
  6  7  1  0
  7  8  2  0
  8  9  1  0
  9 10  2  0
 10 11  1  0
 10 12  1  0
 12 13  1  0
 13 14  2  0
 13 15  2  0
 13 16  1  0
 16 17  1  0
 17 18  1  0
 18 19  1  0
 12 20  2  0
  6 21  1  0
 21  2  1  0
 20  7  1  0
  1 22  1  0
  1 23  1  0
  1 24  1  0
  5 25  1  0
  5 26  1  0
  5 27  1  0
  8 28  1  0
  9 29  1  0
 16 30  1  0
 17 31  1  0
 17 32  1  0
 18 33  1  0
 18 34  1  0
 19 35  1  0
 20 36  1  0
M  CHG  1  11  -1
M  END
>  <UniqueID>  (29) 
27

>  <SMILES>  (29) 
Cc1nc(C)c(-c2ccc([O-])c(S(=O)(=O)NCCO)c2)s1

>  <Energy>  (29) 
63.93756444923937

>  <Genealogy>  (29) 
Cc1nc(C)c(-c2ccc([O-])c(S(=O)(=O)NCCO)c2)s1 (protonated)
Cc1nc(C)c(-c2ccc([O-])c(S(=O)(=O)NCCO)c2)s1 (3D coordinates assigned)
Cc1nc(C)c(-c2ccc([O-])c(S(=O)(=O)NCCO)c2)s1 (optimized conformer: 63.93756444923937 kcal/mol)

>  <smiles>  (29) 
Cc1nc(C)c(-c2ccc(O)c(S(=O)(=O)NCCO)c2)s1

>  <score_type>  (29) 
oracle

>  <origin>  (29) 
adgpu

>  <m_score__min__energy>  (29) 
-10.42

>  <m_primary>  (29) 
energy

$$$$
29:0
     RDKit          3D

 60 64  0  0  0  0  0  0  0  0999 V2000
   -8.9920   23.2450  -32.4420 O   0  0  0  0  0  0  0  0  0  0  0  0
   -8.1420   22.3330  -31.6020 S   0  0  0  0  0  0  0  0  0  0  0  0
   -9.0080   21.7690  -30.5080 O   0  0  0  0  0  0  0  0  0  0  0  0
   -6.8240   23.2600  -30.8800 C   0  0  0  0  0  0  0  0  0  0  0  0
   -6.5210   24.5460  -31.3550 C   0  0  0  0  0  0  0  0  0  0  0  0
   -5.4840   25.2860  -30.7770 C   0  0  0  0  0  0  0  0  0  0  0  0
   -4.7390   24.7430  -29.7260 C   0  0  0  0  0  0  0  0  0  0  0  0
   -5.0310   23.4610  -29.2530 C   0  0  0  0  0  0  0  0  0  0  0  0
   -6.0670   22.7190  -29.8300 C   0  0  0  0  0  0  0  0  0  0  0  0
   -7.5330   21.0270  -32.5960 N   0  0  0  0  0  0  0  0  0  0  0  0
   -8.0480   19.7330  -32.0980 C   0  0  0  0  0  0  0  0  0  0  0  0
   -7.3410   18.5500  -32.7670 C   0  0  0  0  0  0  0  0  0  0  0  0
   -5.8870   18.6740  -32.6230 N   0  0  0  0  0  0  0  0  0  0  0  0
   -5.0380   17.5660  -32.9640 C   0  0  0  0  0  0  0  0  0  0  0  0
   -5.0610   16.4930  -32.2270 N   0  0  0  0  0  0  0  0  0  0  0  0
   -4.3410   15.2490  -32.4270 C   0  0  0  0  0  0  0  0  0  0  0  0
   -4.9720   14.1040  -31.8950 C   0  0  0  0  0  0  0  0  0  0  0  0
   -4.3860   12.8430  -31.9640 C   0  0  0  0  0  0  0  0  0  0  0  0
   -3.1470   12.6880  -32.5630 C   0  0  0  0  0  0  0  0  0  0  0  0
   -2.4880   13.7930  -33.0930 C   0  0  0  0  0  0  0  0  0  0  0  0
   -3.0420   15.0910  -33.0400 C   0  0  0  0  0  0  0  0  0  0  0  0
   -2.2410   16.1240  -33.6770 N   0  0  0  0  0  0  0  0  0  0  0  0
   -2.6490   17.5220  -33.4970 C   0  0  1  0  0  0  0  0  0  0  0  0
   -1.6500   18.4510  -34.1760 C   0  0  0  0  0  0  0  0  0  0  0  0
   -0.6600   17.9250  -35.0260 C   0  0  0  0  0  0  0  0  0  0  0  0
    0.2550   18.7740  -35.6570 C   0  0  0  0  0  0  0  0  0  0  0  0
    0.1910   20.1540  -35.4490 C   0  0  0  0  0  0  0  0  0  0  0  0
   -0.7890   20.6890  -34.6100 C   0  0  0  0  0  0  0  0  0  0  0  0
   -1.7060   19.8450  -33.9770 C   0  0  0  0  0  0  0  0  0  0  0  0
   -4.0570   17.7360  -34.0680 C   0  0  0  0  0  0  0  0  0  0  0  0
   -5.3130   19.9220  -32.1200 C   0  0  0  0  0  0  0  0  0  0  0  0
   -6.0570   21.1060  -32.7470 C   0  0  0  0  0  0  0  0  0  0  0  0
   -7.1017   24.9737  -32.1855 H   0  0  0  0  0  0  0  0  0  0  0  0
   -5.2547   26.2953  -31.1495 H   0  0  0  0  0  0  0  0  0  0  0  0
   -3.9234   25.3247  -29.2716 H   0  0  0  0  0  0  0  0  0  0  0  0
   -4.4451   23.0345  -28.4254 H   0  0  0  0  0  0  0  0  0  0  0  0
   -6.2890   21.7075  -29.4590 H   0  0  0  0  0  0  0  0  0  0  0  0
   -7.8852   19.6782  -31.0115 H   0  0  0  0  0  0  0  0  0  0  0  0
   -9.1199   19.6738  -32.3379 H   0  0  0  0  0  0  0  0  0  0  0  0
   -7.6734   17.6145  -32.2934 H   0  0  0  0  0  0  0  0  0  0  0  0
   -7.5937   18.5430  -33.8376 H   0  0  0  0  0  0  0  0  0  0  0  0
   -5.7410   16.4990  -31.4320 H   0  0  0  0  0  0  0  0  0  0  0  0
   -5.9546   14.2110  -31.4122 H   0  0  0  0  0  0  0  0  0  0  0  0
   -4.9068   11.9703  -31.5430 H   0  0  0  0  0  0  0  0  0  0  0  0
   -2.6840   11.6918  -32.6198 H   0  0  0  0  0  0  0  0  0  0  0  0
   -1.5058   13.6513  -33.5676 H   0  0  0  0  0  0  0  0  0  0  0  0
   -2.2010   15.9010  -34.7000 H   0  0  0  0  0  0  0  0  0  0  0  0
   -1.2640   16.0390  -33.3050 H   0  0  0  0  0  0  0  0  0  0  0  0
   -2.6673   17.7547  -32.4221 H   0  0  0  0  0  0  0  0  0  0  0  0
   -0.6052   16.8395  -35.1953 H   0  0  0  0  0  0  0  0  0  0  0  0
    1.0269   18.3541  -36.3187 H   0  0  0  0  0  0  0  0  0  0  0  0
    0.9125   20.8192  -35.9460 H   0  0  0  0  0  0  0  0  0  0  0  0
   -0.8393   21.7757  -34.4471 H   0  0  0  0  0  0  0  0  0  0  0  0
   -2.4769   20.2720  -33.3188 H   0  0  0  0  0  0  0  0  0  0  0  0
   -4.1390   18.7503  -34.4858 H   0  0  0  0  0  0  0  0  0  0  0  0
   -4.2566   17.0083  -34.8684 H   0  0  0  0  0  0  0  0  0  0  0  0
   -5.4165   19.9600  -31.0255 H   0  0  0  0  0  0  0  0  0  0  0  0
   -4.2467   19.9724  -32.3855 H   0  0  0  0  0  0  0  0  0  0  0  0
   -5.7070   22.0312  -32.2658 H   0  0  0  0  0  0  0  0  0  0  0  0
   -5.8412   21.0886  -33.8255 H   0  0  0  0  0  0  0  0  0  0  0  0
  1  2  2  0
  2  3  2  0
  2  4  1  0
  4  5  2  0
  5  6  1  0
  6  7  2  0
  7  8  1  0
  8  9  2  0
  2 10  1  0
 10 11  1  0
 11 12  1  0
 12 13  1  0
 13 14  1  0
 14 15  2  0
 15 16  1  0
 16 17  2  0
 17 18  1  0
 18 19  2  0
 19 20  1  0
 20 21  2  0
 21 22  1  0
 22 23  1  0
 23 24  1  0
 24 25  2  0
 25 26  1  0
 26 27  2  0
 27 28  1  0
 28 29  2  0
 23 30  1  0
 13 31  1  0
 31 32  1  0
  9  4  1  0
 32 10  1  0
 30 14  1  0
 21 16  1  0
 29 24  1  0
  5 33  1  0
  6 34  1  0
  7 35  1  0
  8 36  1  0
  9 37  1  0
 11 38  1  0
 11 39  1  0
 12 40  1  0
 12 41  1  0
 15 42  1  0
 17 43  1  0
 18 44  1  0
 19 45  1  0
 20 46  1  0
 22 47  1  0
 22 48  1  0
 23 49  1  1
 25 50  1  0
 26 51  1  0
 27 52  1  0
 28 53  1  0
 29 54  1  0
 30 55  1  0
 30 56  1  0
 31 57  1  0
 31 58  1  0
 32 59  1  0
 32 60  1  0
M  CHG  2  15   1  22   1
M  END
>  <UniqueID>  (30) 
28

>  <SMILES>  (30) 
O=S(=O)(c1ccccc1)N1CCN(C2=[NH+]c3ccccc3[NH2+][C@@H](c3ccccc3)C2)CC1

>  <Energy>  (30) 
98.40372440156344

>  <Genealogy>  (30) 
O=S(=O)(c1ccccc1)N1CCN(C2=[NH+]c3ccccc3[NH2+]C(c3ccccc3)C2)CC1 (protonated)
O=S(=O)(c1ccccc1)N1CCN(C2=[NH+]c3ccccc3[NH2+][C@@H](c3ccccc3)C2)CC1 (chirality)
O=S(=O)(c1ccccc1)N1CCN(C2=[NH+]c3ccccc3[NH2+][C@@H](c3ccccc3)C2)CC1 (3D coordinates assigned)
O=S(=O)(c1ccccc1)N1CCN(C2=[NH+]c3ccccc3[NH2+][C@@H](c3ccccc3)C2)CC1 (nonaromatic ring conformer: 98.40372440156344 kcal/mol)

>  <smiles>  (30) 
O=S(=O)(c1ccccc1)N1CCN(C2=Nc3ccccc3NC(c3ccccc3)C2)CC1

>  <score_type>  (30) 
oracle

>  <origin>  (30) 
adgpu

>  <m_score__min__energy>  (30) 
-7.9500000000000002

>  <m_primary>  (30) 
energy

$$$$
30:0
     RDKit          3D

 42 44  0  0  0  0  0  0  0  0999 V2000
   -5.7380   25.6810  -30.3310 C   0  0  0  0  0  0  0  0  0  0  0  0
   -5.8430   24.3600  -30.9390 N   0  0  0  0  0  0  0  0  0  0  0  0
   -6.7750   23.3830  -30.4560 C   0  0  0  0  0  0  0  0  0  0  0  0
   -7.3840   23.5840  -29.3700 O   0  0  0  0  0  0  0  0  0  0  0  0
   -7.0160   22.1240  -31.1860 C   0  0  0  0  0  0  0  0  0  0  0  0
   -8.3400   21.1180  -30.9130 S   0  0  0  0  0  0  0  0  0  0  0  0
   -7.9540   19.9770  -32.0840 C   0  0  0  0  0  0  0  0  0  0  0  0
   -8.7010   18.7100  -32.3330 C   0  0  0  0  0  0  0  0  0  0  0  0
   -6.7710   20.3550  -32.7040 C   0  0  0  0  0  0  0  0  0  0  0  0
   -6.2600   21.5740  -32.2250 C   0  0  0  0  0  0  0  0  0  0  0  0
   -5.0760   22.1930  -32.7430 N   0  0  0  0  0  0  0  0  0  0  0  0
   -3.8240   22.2960  -32.0540 C   0  0  0  0  0  0  0  0  0  0  0  0
   -3.5160   23.3920  -31.5180 O   0  0  0  0  0  0  0  0  0  0  0  0
   -2.8620   21.1770  -32.0370 C   0  0  0  0  0  0  0  0  0  0  0  0
   -2.6700   20.0640  -33.2860 S   0  0  0  0  0  0  0  0  0  0  0  0
   -1.4260   19.1850  -32.5790 C   0  0  0  0  0  0  0  0  0  0  0  0
   -1.1390   19.7540  -31.3460 C   0  0  0  0  0  0  0  0  0  0  0  0
   -1.9340   20.8670  -31.0370 C   0  0  0  0  0  0  0  0  0  0  0  0
   -1.8060   21.7190  -29.5020 S   0  0  0  0  0  0  0  0  0  0  0  0
   -0.5650   21.2570  -28.7920 O   0  0  0  0  0  0  0  0  0  0  0  0
   -3.0210   21.4210  -28.6690 O   0  0  0  0  0  0  0  0  0  0  0  0
   -1.7280   23.4220  -29.8230 N   0  0  0  0  0  0  0  0  0  0  0  0
   -1.5170   24.3850  -28.9730 C   0  0  0  0  0  0  0  0  0  0  0  0
   -1.4740   25.6430  -29.3430 O   0  0  0  0  0  0  0  0  0  0  0  0
   -1.2500   26.4260  -28.3280 N   0  0  0  0  0  0  0  0  0  0  0  0
   -1.1410   25.6380  -27.2400 C   0  0  0  0  0  0  0  0  0  0  0  0
   -0.8760   26.1530  -25.8640 C   0  0  0  0  0  0  0  0  0  0  0  0
   -1.3040   24.3140  -27.6000 C   0  0  0  0  0  0  0  0  0  0  0  0
   -1.2450   22.9450  -26.4980 Cl  0  0  0  0  0  0  0  0  0  0  0  0
   -5.7459   25.5821  -29.2355 H   0  0  0  0  0  0  0  0  0  0  0  0
   -4.7991   26.1576  -30.6494 H   0  0  0  0  0  0  0  0  0  0  0  0
   -6.5898   26.2999  -30.6494 H   0  0  0  0  0  0  0  0  0  0  0  0
   -5.1750   24.1170  -31.7030 H   0  0  0  0  0  0  0  0  0  0  0  0
   -8.9725   18.2495  -31.3717 H   0  0  0  0  0  0  0  0  0  0  0  0
   -9.6143   18.9293  -32.9055 H   0  0  0  0  0  0  0  0  0  0  0  0
   -8.0670   18.0170  -32.9055 H   0  0  0  0  0  0  0  0  0  0  0  0
   -6.2827   19.7609  -33.4905 H   0  0  0  0  0  0  0  0  0  0  0  0
   -0.9250   18.3093  -33.0174 H   0  0  0  0  0  0  0  0  0  0  0  0
   -0.3595   19.3674  -30.6730 H   0  0  0  0  0  0  0  0  0  0  0  0
   -1.2483   25.4295  -25.1237 H   0  0  0  0  0  0  0  0  0  0  0  0
    0.2064   26.2935  -25.7272 H   0  0  0  0  0  0  0  0  0  0  0  0
   -1.3909   27.1154  -25.7272 H   0  0  0  0  0  0  0  0  0  0  0  0
  1  2  1  0
  2  3  1  0
  3  4  2  0
  3  5  1  0
  5  6  1  0
  6  7  1  0
  7  8  1  0
  7  9  2  0
  9 10  1  0
 10 11  1  0
 11 12  1  0
 12 13  2  0
 12 14  1  0
 14 15  1  0
 15 16  1  0
 16 17  2  0
 17 18  1  0
 18 19  1  0
 19 20  2  0
 19 21  2  0
 19 22  1  0
 22 23  2  3
 23 24  1  0
 24 25  1  0
 25 26  1  0
 26 27  1  0
 26 28  2  0
 28 29  1  0
 10  5  2  0
 18 14  2  0
 28 23  1  0
  1 30  1  0
  1 31  1  0
  1 32  1  0
  2 33  1  0
  8 34  1  0
  8 35  1  0
  8 36  1  0
  9 37  1  0
 16 38  1  0
 17 39  1  0
 27 40  1  0
 27 41  1  0
 27 42  1  0
M  CHG  2  11  -1  25  -1
M  END
>  <UniqueID>  (31) 
29

>  <SMILES>  (31) 
CNC(=O)c1sc(C)cc1[N-]C(=O)c1sccc1S(=O)(=O)N=c1o[n-]c(C)c1Cl

>  <Energy>  (31) 
138.7252629844131

>  <Genealogy>  (31) 
CNC(=O)c1sc(C)cc1[N-]C(=O)c1sccc1S(=O)(=O)N=c1o[n-]c(C)c1Cl (protonated)
CNC(=O)c1sc(C)cc1[N-]C(=O)c1sccc1S(=O)(=O)N=c1o[n-]c(C)c1Cl (3D coordinates assigned)
CNC(=O)c1sc(C)cc1[N-]C(=O)c1sccc1S(=O)(=O)N=c1o[n-]c(C)c1Cl (optimized conformer: 138.7252629844131 kcal/mol)

>  <smiles>  (31) 
CNC(=O)c1sc(C)cc1NC(=O)c1sccc1S(=O)(=O)N=c1o[nH]c(C)c1Cl

>  <score_type>  (31) 
oracle

>  <origin>  (31) 
adgpu

>  <m_score__min__energy>  (31) 
-11.199999999999999

>  <m_primary>  (31) 
energy

$$$$
31:0
     RDKit          3D

 20 20  0  0  0  0  0  0  0  0999 V2000
   -2.1350   25.2850  -29.3310 O   0  0  0  0  0  0  0  0  0  0  0  0
   -3.2330   24.8130  -29.7230 C   0  0  0  0  0  0  0  0  0  0  0  0
   -3.8780   25.3820  -30.8150 O   0  0  0  0  0  0  0  0  0  0  0  0
   -3.8680   23.6700  -28.9920 C   0  0  0  0  0  0  0  0  0  0  0  0
   -4.4890   22.6570  -29.9590 C   0  0  0  0  0  0  0  0  0  0  0  0
   -3.5070   22.2040  -30.9610 N   0  0  0  0  0  0  0  0  0  0  0  0
   -2.3050   21.7150  -30.5330 C   0  0  0  0  0  0  0  0  0  0  0  0
   -1.3590   21.2580  -31.4460 C   0  0  0  0  0  0  0  0  0  0  0  0
   -1.6650   21.3050  -32.8040 C   0  0  0  0  0  0  0  0  0  0  0  0
   -0.5750   20.7740  -33.9060 S   0  0  0  0  0  0  0  0  0  0  0  0
   -2.8690   21.7900  -33.2080 N   0  0  0  0  0  0  0  0  0  0  0  0
   -3.7880   22.2340  -32.3050 C   0  0  0  0  0  0  0  0  0  0  0  0
   -4.8970   22.6690  -32.7210 O   0  0  0  0  0  0  0  0  0  0  0  0
   -3.1015   23.1629  -28.3876 H   0  0  0  0  0  0  0  0  0  0  0  0
   -4.6689   24.0722  -28.3541 H   0  0  0  0  0  0  0  0  0  0  0  0
   -4.8453   21.7874  -29.3874 H   0  0  0  0  0  0  0  0  0  0  0  0
   -5.3233   23.1443  -30.4849 H   0  0  0  0  0  0  0  0  0  0  0  0
   -2.0828   21.6822  -29.4562 H   0  0  0  0  0  0  0  0  0  0  0  0
   -0.3897   20.8678  -31.1022 H   0  0  0  0  0  0  0  0  0  0  0  0
   -3.1000   21.8210  -34.2280 H   0  0  0  0  0  0  0  0  0  0  0  0
  1  2  2  0
  2  3  1  0
  2  4  1  0
  4  5  1  0
  5  6  1  0
  6  7  1  0
  7  8  2  0
  8  9  1  0
  9 10  2  0
  9 11  1  0
 11 12  1  0
 12 13  2  0
 12  6  1  0
  4 14  1  0
  4 15  1  0
  5 16  1  0
  5 17  1  0
  7 18  1  0
  8 19  1  0
 11 20  1  0
M  CHG  1   3  -1
M  END
>  <UniqueID>  (32) 
30

>  <SMILES>  (32) 
O=C([O-])CCn1ccc(=S)[nH]c1=O

>  <Energy>  (32) 
17.87162283706106

>  <Genealogy>  (32) 
O=C([O-])CCn1ccc(=S)[nH]c1=O (protonated)
O=C([O-])CCn1ccc(=S)[nH]c1=O (3D coordinates assigned)
O=C([O-])CCn1ccc(=S)[nH]c1=O (optimized conformer: 17.87162283706106 kcal/mol)

>  <smiles>  (32) 
O=C(O)CCn1ccc(=S)[nH]c1=O

>  <score_type>  (32) 
oracle

>  <origin>  (32) 
adgpu

>  <m_score__min__energy>  (32) 
-7.9100000000000001

>  <m_primary>  (32) 
energy

$$$$
32:0
     RDKit          3D

 53 56  0  0  0  0  0  0  0  0999 V2000
   -0.4810   27.0420  -23.5440 C   0  0  0  0  0  0  0  0  0  0  0  0
   -1.0380   27.5200  -24.7650 O   0  0  0  0  0  0  0  0  0  0  0  0
   -1.3580   26.7050  -25.8610 C   0  0  0  0  0  0  0  0  0  0  0  0
   -2.3760   25.7590  -25.7100 C   0  0  0  0  0  0  0  0  0  0  0  0
   -2.7350   24.9230  -26.7720 C   0  0  0  0  0  0  0  0  0  0  0  0
   -2.0780   25.0230  -28.0100 C   0  0  0  0  0  0  0  0  0  0  0  0
   -2.4340   24.1570  -29.1040 N   0  0  0  0  0  0  0  0  0  0  0  0
   -2.0130   22.8870  -29.2820 C   0  0  0  0  0  0  0  0  0  0  0  0
   -2.5710   22.3660  -30.4370 C   0  0  0  0  0  0  0  0  0  0  0  0
   -2.3740   21.0100  -30.9680 C   0  0  0  0  0  0  0  0  0  0  0  0
   -2.0920   20.0640  -30.1830 O   0  0  0  0  0  0  0  0  0  0  0  0
   -2.4560   20.7820  -32.3800 N   0  0  0  0  0  0  0  0  0  0  0  0
   -3.1880   19.7230  -33.0150 C   0  0  0  0  0  0  0  0  0  0  0  0
   -4.4610   19.4050  -32.5220 C   0  0  0  0  0  0  0  0  0  0  0  0
   -5.2100   18.3690  -33.0970 C   0  0  0  0  0  0  0  0  0  0  0  0
   -6.8080   17.9720  -32.4710 S   0  0  0  0  0  0  0  0  0  0  0  0
   -6.7540   17.8700  -30.9700 O   0  0  0  0  0  0  0  0  0  0  0  0
   -7.2240   16.6450  -33.0440 O   0  0  0  0  0  0  0  0  0  0  0  0
   -7.9540   19.2090  -32.9410 N   0  0  0  0  0  0  0  0  0  0  0  0
   -7.2540   20.4080  -33.4240 C   0  0  0  0  0  0  0  0  0  0  0  0
   -7.2700   21.4620  -32.3210 C   0  0  0  0  0  0  0  0  0  0  0  0
   -8.0560   20.8510  -31.1810 C   0  0  0  0  0  0  0  0  0  0  0  0
   -8.7450   19.6440  -31.7850 C   0  0  0  0  0  0  0  0  0  0  0  0
   -4.6700   17.6300  -34.1560 C   0  0  0  0  0  0  0  0  0  0  0  0
   -3.3910   17.9190  -34.6330 C   0  0  0  0  0  0  0  0  0  0  0  0
   -2.6350   18.9510  -34.0580 C   0  0  0  0  0  0  0  0  0  0  0  0
   -1.3310   19.1800  -34.4970 O   0  0  0  0  0  0  0  0  0  0  0  0
   -3.3600   23.3560  -30.9940 C   0  0  0  0  0  0  0  0  0  0  0  0
   -3.2470   24.4370  -30.1470 C   0  0  0  0  0  0  0  0  0  0  0  0
   -3.8640   25.6660  -30.3560 O   0  0  0  0  0  0  0  0  0  0  0  0
   -1.0500   25.9680  -28.1600 C   0  0  0  0  0  0  0  0  0  0  0  0
   -0.6940   26.8060  -27.0970 C   0  0  0  0  0  0  0  0  0  0  0  0
   -1.0122   27.4978  -22.6954 H   0  0  0  0  0  0  0  0  0  0  0  0
   -0.5853   25.9480  -23.4969 H   0  0  0  0  0  0  0  0  0  0  0  0
    0.5845   27.3111  -23.4969 H   0  0  0  0  0  0  0  0  0  0  0  0
   -2.8997   25.6713  -24.7466 H   0  0  0  0  0  0  0  0  0  0  0  0
   -3.5370   24.1823  -26.6373 H   0  0  0  0  0  0  0  0  0  0  0  0
   -1.3293   22.3471  -28.6104 H   0  0  0  0  0  0  0  0  0  0  0  0
   -4.8759   19.9734  -31.6765 H   0  0  0  0  0  0  0  0  0  0  0  0
   -6.2143   20.1528  -33.6770 H   0  0  0  0  0  0  0  0  0  0  0  0
   -7.7552   20.7981  -34.3221 H   0  0  0  0  0  0  0  0  0  0  0  0
   -6.2445   21.6948  -31.9982 H   0  0  0  0  0  0  0  0  0  0  0  0
   -7.7216   22.4037  -32.6663 H   0  0  0  0  0  0  0  0  0  0  0  0
   -7.3825   20.5450  -30.3669 H   0  0  0  0  0  0  0  0  0  0  0  0
   -8.7732   21.5619  -30.7448 H   0  0  0  0  0  0  0  0  0  0  0  0
   -8.7999   18.8340  -31.0428 H   0  0  0  0  0  0  0  0  0  0  0  0
   -9.7690   19.9005  -32.0943 H   0  0  0  0  0  0  0  0  0  0  0  0
   -5.2556   16.8190  -34.6135 H   0  0  0  0  0  0  0  0  0  0  0  0
   -2.9730   17.3337  -35.4653 H   0  0  0  0  0  0  0  0  0  0  0  0
   -0.7350   19.8690  -34.0520 H   0  0  0  0  0  0  0  0  0  0  0  0
   -3.9529   23.2936  -31.9185 H   0  0  0  0  0  0  0  0  0  0  0  0
   -0.5204   26.0502  -29.1206 H   0  0  0  0  0  0  0  0  0  0  0  0
    0.1085   27.5468  -27.2286 H   0  0  0  0  0  0  0  0  0  0  0  0
  1  2  1  0
  2  3  1  0
  3  4  2  0
  4  5  1  0
  5  6  2  0
  6  7  1  0
  7  8  1  0
  8  9  2  0
  9 10  1  0
 10 11  2  0
 10 12  1  0
 12 13  1  0
 13 14  2  0
 14 15  1  0
 15 16  1  0
 16 17  2  0
 16 18  2  0
 16 19  1  0
 19 20  1  0
 20 21  1  0
 21 22  1  0
 22 23  1  0
 15 24  2  0
 24 25  1  0
 25 26  2  0
 26 27  1  0
  9 28  1  0
 28 29  2  0
 29 30  1  0
  6 31  1  0
 31 32  2  0
 32  3  1  0
 29  7  1  0
 26 13  1  0
 23 19  1  0
  1 33  1  0
  1 34  1  0
  1 35  1  0
  4 36  1  0
  5 37  1  0
  8 38  1  0
 14 39  1  0
 20 40  1  0
 20 41  1  0
 21 42  1  0
 21 43  1  0
 22 44  1  0
 22 45  1  0
 23 46  1  0
 23 47  1  0
 24 48  1  0
 25 49  1  0
 27 50  1  0
 28 51  1  0
 31 52  1  0
 32 53  1  0
M  CHG  2  12  -1  30  -1
M  END
>  <UniqueID>  (33) 
31

>  <SMILES>  (33) 
COc1ccc(-n2cc(C(=O)[N-]c3cc(S(=O)(=O)N4CCCC4)ccc3O)cc2[O-])cc1

>  <Energy>  (33) 
93.06542770798377

>  <Genealogy>  (33) 
COc1ccc(-n2cc(C(=O)[N-]c3cc(S(=O)(=O)N4CCCC4)ccc3O)cc2[O-])cc1 (protonated)
COc1ccc(-n2cc(C(=O)[N-]c3cc(S(=O)(=O)N4CCCC4)ccc3O)cc2[O-])cc1 (3D coordinates assigned)
COc1ccc(-n2cc(C(=O)[N-]c3cc(S(=O)(=O)N4CCCC4)ccc3O)cc2[O-])cc1 (nonaromatic ring conformer: 93.06542770798377 kcal/mol)

>  <smiles>  (33) 
COc1ccc(-n2cc(C(=O)Nc3cc(S(=O)(=O)N4CCCC4)ccc3O)cc2O)cc1

>  <score_type>  (33) 
oracle

>  <origin>  (33) 
adgpu

>  <m_score__min__energy>  (33) 
-11.67

>  <m_primary>  (33) 
energy

$$$$
33:0
     RDKit          3D

 32 33  0  0  0  0  0  0  0  0999 V2000
   -9.0940   18.8190  -31.7430 C   0  0  0  0  0  0  0  0  0  0  0  0
   -7.7800   18.8240  -32.4500 C   0  0  0  0  0  0  0  0  0  0  0  0
   -7.0430   17.8040  -32.3950 O   0  0  0  0  0  0  0  0  0  0  0  0
   -7.3280   20.0240  -33.0900 N   0  0  0  0  0  0  0  0  0  0  0  0
   -6.8070   21.1930  -32.4400 C   0  0  0  0  0  0  0  0  0  0  0  0
   -5.4270   21.3960  -32.2620 C   0  0  0  0  0  0  0  0  0  0  0  0
   -4.9600   22.5580  -31.6420 C   0  0  0  0  0  0  0  0  0  0  0  0
   -5.8620   23.5340  -31.2010 C   0  0  0  0  0  0  0  0  0  0  0  0
   -5.2690   24.9900  -30.4070 S   0  0  0  0  0  0  0  0  0  0  0  0
   -5.8200   25.0950  -29.0130 O   0  0  0  0  0  0  0  0  0  0  0  0
   -5.7080   26.1880  -31.1990 O   0  0  0  0  0  0  0  0  0  0  0  0
   -3.5370   24.9630  -30.3310 N   0  0  0  0  0  0  0  0  0  0  0  0
   -2.7620   24.3260  -29.3040 C   0  0  0  0  0  0  0  0  0  0  0  0
   -3.1230   23.0740  -28.7670 C   0  0  0  0  0  0  0  0  0  0  0  0
   -2.3390   22.4830  -27.7720 C   0  0  0  0  0  0  0  0  0  0  0  0
   -1.1950   23.1320  -27.3030 C   0  0  0  0  0  0  0  0  0  0  0  0
   -0.8310   24.3730  -27.8290 C   0  0  0  0  0  0  0  0  0  0  0  0
   -1.6110   24.9700  -28.8260 C   0  0  0  0  0  0  0  0  0  0  0  0
   -1.2350   26.2060  -29.3410 O   0  0  0  0  0  0  0  0  0  0  0  0
   -7.2350   23.3480  -31.4040 C   0  0  0  0  0  0  0  0  0  0  0  0
   -7.7030   22.1880  -32.0270 C   0  0  0  0  0  0  0  0  0  0  0  0
   -8.9255   18.8196  -30.6560 H   0  0  0  0  0  0  0  0  0  0  0  0
   -9.6660   19.7150  -32.0259 H   0  0  0  0  0  0  0  0  0  0  0  0
   -9.6592   17.9187  -32.0259 H   0  0  0  0  0  0  0  0  0  0  0  0
   -4.7121   20.6369  -32.6123 H   0  0  0  0  0  0  0  0  0  0  0  0
   -3.8794   22.7066  -31.4998 H   0  0  0  0  0  0  0  0  0  0  0  0
   -4.0246   22.5602  -29.1320 H   0  0  0  0  0  0  0  0  0  0  0  0
   -2.6238   21.5047  -27.3576 H   0  0  0  0  0  0  0  0  0  0  0  0
   -0.5805   22.6654  -26.5190 H   0  0  0  0  0  0  0  0  0  0  0  0
    0.0708   24.8827  -27.4590 H   0  0  0  0  0  0  0  0  0  0  0  0
   -7.9475   24.1175  -31.0720 H   0  0  0  0  0  0  0  0  0  0  0  0
   -8.7820   22.0551  -32.1943 H   0  0  0  0  0  0  0  0  0  0  0  0
  1  2  1  0
  2  3  2  0
  2  4  1  0
  4  5  1  0
  5  6  2  0
  6  7  1  0
  7  8  2  0
  8  9  1  0
  9 10  2  0
  9 11  2  0
  9 12  1  0
 12 13  1  0
 13 14  2  0
 14 15  1  0
 15 16  2  0
 16 17  1  0
 17 18  2  0
 18 19  1  0
  8 20  1  0
 20 21  2  0
 21  5  1  0
 18 13  1  0
  1 22  1  0
  1 23  1  0
  1 24  1  0
  6 25  1  0
  7 26  1  0
 14 27  1  0
 15 28  1  0
 16 29  1  0
 17 30  1  0
 20 31  1  0
 21 32  1  0
M  CHG  3   4  -1  12  -1  19  -1
M  END
>  <UniqueID>  (34) 
32

>  <SMILES>  (34) 
CC(=O)[N-]c1ccc(S(=O)(=O)[N-]c2ccccc2[O-])cc1

>  <Energy>  (34) 
37.54939747186225

>  <Genealogy>  (34) 
CC(=O)[N-]c1ccc(S(=O)(=O)[N-]c2ccccc2[O-])cc1 (protonated)
CC(=O)[N-]c1ccc(S(=O)(=O)[N-]c2ccccc2[O-])cc1 (3D coordinates assigned)
CC(=O)[N-]c1ccc(S(=O)(=O)[N-]c2ccccc2[O-])cc1 (optimized conformer: 37.54939747186225 kcal/mol)

>  <smiles>  (34) 
CC(=O)Nc1ccc(S(=O)(=O)Nc2ccccc2O)cc1

>  <score_type>  (34) 
oracle

>  <origin>  (34) 
adgpu

>  <m_score__min__energy>  (34) 
-12.390000000000001

>  <m_primary>  (34) 
energy

$$$$
34:0
     RDKit          3D

 68 71  0  0  0  0  0  0  0  0999 V2000
   -4.6160   14.8830  -34.6620 C   0  0  0  0  0  0  0  0  0  0  0  0
   -3.6710   15.8440  -33.9880 C   0  0  0  0  0  0  0  0  0  0  0  0
   -2.3880   15.3940  -33.6390 C   0  0  0  0  0  0  0  0  0  0  0  0
   -1.4780   16.2440  -33.0110 C   0  0  0  0  0  0  0  0  0  0  0  0
   -1.8260   17.5740  -32.7330 C   0  0  0  0  0  0  0  0  0  0  0  0
   -0.9120   18.4700  -32.0760 N   0  0  0  0  0  0  0  0  0  0  0  0
   -0.1200   18.1250  -30.9250 C   0  0  0  0  0  0  0  0  0  0  0  0
    0.0250   16.9220  -30.5820 O   0  0  0  0  0  0  0  0  0  0  0  0
    0.6000   19.1950  -30.1620 C   0  0  0  0  0  0  0  0  0  0  0  0
   -0.2930   20.3880  -29.9650 C   0  0  0  0  0  0  0  0  0  0  0  0
   -0.8890   20.6330  -28.7180 C   0  0  0  0  0  0  0  0  0  0  0  0
   -1.7020   21.7550  -28.5330 C   0  0  0  0  0  0  0  0  0  0  0  0
   -1.9150   22.6560  -29.5850 C   0  0  0  0  0  0  0  0  0  0  0  0
   -2.9120   24.0920  -29.3390 S   0  0  0  0  0  0  0  0  0  0  0  0
   -3.6980   23.9370  -28.0680 O   0  0  0  0  0  0  0  0  0  0  0  0
   -2.0200   25.2950  -29.1900 O   0  0  0  0  0  0  0  0  0  0  0  0
   -4.0160   24.3420  -30.6720 N   0  0  0  0  0  0  0  0  0  0  0  0
   -5.0790   25.3150  -30.3230 C   0  0  0  0  0  0  0  0  0  0  0  0
   -6.4190   24.6430  -29.9870 C   0  0  0  0  0  0  0  0  0  0  0  0
   -6.9280   23.7930  -31.1650 C   0  0  0  0  0  0  0  0  0  0  0  0
   -5.7840   23.2150  -32.0180 C   0  0  0  0  0  0  0  0  0  0  0  0
   -4.5090   23.0450  -31.1840 C   0  0  0  0  0  0  0  0  0  0  0  0
   -1.3160   22.4160  -30.8300 C   0  0  0  0  0  0  0  0  0  0  0  0
   -0.5070   21.2930  -31.0190 C   0  0  0  0  0  0  0  0  0  0  0  0
   -3.1200   18.0170  -33.0380 C   0  0  0  0  0  0  0  0  0  0  0  0
   -4.0550   17.1650  -33.6480 C   0  0  0  0  0  0  0  0  0  0  0  0
   -5.6790   17.7870  -33.9870 S   0  0  0  0  0  0  0  0  0  0  0  0
   -6.6880   16.7050  -33.7150 O   0  0  0  0  0  0  0  0  0  0  0  0
   -5.7760   18.1450  -35.4450 O   0  0  0  0  0  0  0  0  0  0  0  0
   -5.9610   19.1780  -32.9500 N   0  0  0  0  0  0  0  0  0  0  0  0
   -6.9690   20.1370  -33.4620 C   0  0  0  0  0  0  0  0  0  0  0  0
   -8.3690   19.9750  -32.8370 C   0  0  0  0  0  0  0  0  0  0  0  0
   -8.5960   18.5610  -32.3160 C   0  0  0  0  0  0  0  0  0  0  0  0
   -7.5520   18.2020  -31.2500 C   0  0  0  0  0  0  0  0  0  0  0  0
   -6.1580   18.8060  -31.5370 C   0  0  0  0  0  0  0  0  0  0  0  0
   -5.1712   14.3184  -33.8984 H   0  0  0  0  0  0  0  0  0  0  0  0
   -5.3237   15.4443  -35.2898 H   0  0  0  0  0  0  0  0  0  0  0  0
   -4.0429   14.1848  -35.2898 H   0  0  0  0  0  0  0  0  0  0  0  0
   -2.0965   14.3574  -33.8638 H   0  0  0  0  0  0  0  0  0  0  0  0
   -0.4820   15.8694  -32.7322 H   0  0  0  0  0  0  0  0  0  0  0  0
   -0.7710   19.4180  -32.4930 H   0  0  0  0  0  0  0  0  0  0  0  0
    0.9001   18.8006  -29.1800 H   0  0  0  0  0  0  0  0  0  0  0  0
    1.4884   19.5041  -30.7323 H   0  0  0  0  0  0  0  0  0  0  0  0
   -0.7155   19.9389  -27.8825 H   0  0  0  0  0  0  0  0  0  0  0  0
   -2.1770   21.9316  -27.5567 H   0  0  0  0  0  0  0  0  0  0  0  0
   -4.7493   25.8964  -29.4493 H   0  0  0  0  0  0  0  0  0  0  0  0
   -5.2424   25.9545  -31.2030 H   0  0  0  0  0  0  0  0  0  0  0  0
   -6.2846   23.9945  -29.1087 H   0  0  0  0  0  0  0  0  0  0  0  0
   -7.1599   25.4292  -29.7799 H   0  0  0  0  0  0  0  0  0  0  0  0
   -7.5250   22.9598  -30.7658 H   0  0  0  0  0  0  0  0  0  0  0  0
   -7.5276   24.4487  -31.8134 H   0  0  0  0  0  0  0  0  0  0  0  0
   -6.0893   22.2346  -32.4124 H   0  0  0  0  0  0  0  0  0  0  0  0
   -5.5736   23.9131  -32.8417 H   0  0  0  0  0  0  0  0  0  0  0  0
   -4.7254   22.3839  -30.3319 H   0  0  0  0  0  0  0  0  0  0  0  0
   -3.7309   22.6119  -31.8297 H   0  0  0  0  0  0  0  0  0  0  0  0
   -1.4840   23.1156  -31.6620 H   0  0  0  0  0  0  0  0  0  0  0  0
   -0.0354   21.1162  -31.9969 H   0  0  0  0  0  0  0  0  0  0  0  0
   -3.4085   19.0504  -32.7953 H   0  0  0  0  0  0  0  0  0  0  0  0
   -6.6132   21.1565  -33.2521 H   0  0  0  0  0  0  0  0  0  0  0  0
   -7.0779   19.9371  -34.5382 H   0  0  0  0  0  0  0  0  0  0  0  0
   -8.4699   20.6829  -32.0011 H   0  0  0  0  0  0  0  0  0  0  0  0
   -9.1173   20.1760  -33.6178 H   0  0  0  0  0  0  0  0  0  0  0  0
   -9.6010   18.4961  -31.8735 H   0  0  0  0  0  0  0  0  0  0  0  0
   -8.5022   17.8556  -33.1548 H   0  0  0  0  0  0  0  0  0  0  0  0
   -7.9022   18.5770  -30.2770 H   0  0  0  0  0  0  0  0  0  0  0  0
   -7.4420   17.1075  -31.2549 H   0  0  0  0  0  0  0  0  0  0  0  0
   -6.0344   19.7073  -30.9186 H   0  0  0  0  0  0  0  0  0  0  0  0
   -5.4133   18.0325  -31.2978 H   0  0  0  0  0  0  0  0  0  0  0  0
  1  2  1  0
  2  3  2  0
  3  4  1  0
  4  5  2  0
  5  6  1  0
  6  7  1  0
  7  8  2  0
  7  9  1  0
  9 10  1  0
 10 11  2  0
 11 12  1  0
 12 13  2  0
 13 14  1  0
 14 15  2  0
 14 16  2  0
 14 17  1  0
 17 18  1  0
 18 19  1  0
 19 20  1  0
 20 21  1  0
 21 22  1  0
 13 23  1  0
 23 24  2  0
  5 25  1  0
 25 26  2  0
 26 27  1  0
 27 28  2  0
 27 29  2  0
 27 30  1  0
 30 31  1  0
 31 32  1  0
 32 33  1  0
 33 34  1  0
 34 35  1  0
 26  2  1  0
 35 30  1  0
 24 10  1  0
 22 17  1  0
  1 36  1  0
  1 37  1  0
  1 38  1  0
  3 39  1  0
  4 40  1  0
  6 41  1  0
  9 42  1  0
  9 43  1  0
 11 44  1  0
 12 45  1  0
 18 46  1  0
 18 47  1  0
 19 48  1  0
 19 49  1  0
 20 50  1  0
 20 51  1  0
 21 52  1  0
 21 53  1  0
 22 54  1  0
 22 55  1  0
 23 56  1  0
 24 57  1  0
 25 58  1  0
 31 59  1  0
 31 60  1  0
 32 61  1  0
 32 62  1  0
 33 63  1  0
 33 64  1  0
 34 65  1  0
 34 66  1  0
 35 67  1  0
 35 68  1  0
M  END
>  <UniqueID>  (35) 
33

>  <SMILES>  (35) 
Cc1ccc(NC(=O)Cc2ccc(S(=O)(=O)N3CCCCC3)cc2)cc1S(=O)(=O)N1CCCCC1

>  <Energy>  (35) 
86.37903050022521

>  <Genealogy>  (35) 
Cc1ccc(NC(=O)Cc2ccc(S(=O)(=O)N3CCCCC3)cc2)cc1S(=O)(=O)N1CCCCC1 (3D coordinates assigned)
Cc1ccc(NC(=O)Cc2ccc(S(=O)(=O)N3CCCCC3)cc2)cc1S(=O)(=O)N1CCCCC1 (nonaromatic ring conformer: 86.37903050022521 kcal/mol)

>  <smiles>  (35) 
Cc1ccc(NC(=O)Cc2ccc(S(=O)(=O)N3CCCCC3)cc2)cc1S(=O)(=O)N1CCCCC1

>  <score_type>  (35) 
oracle

>  <origin>  (35) 
adgpu

>  <m_score__min__energy>  (35) 
-12.960000000000001

>  <m_primary>  (35) 
energy

$$$$
35:0
     RDKit          3D

 54 58  0  0  0  0  0  0  0  0999 V2000
   -2.7960   19.8340  -27.1070 C   0  0  0  0  0  0  0  0  0  0  0  0
   -2.7610   21.2070  -27.6910 C   0  0  0  0  0  0  0  0  0  0  0  0
   -3.7200   21.5880  -28.5970 N   0  0  0  0  0  0  0  0  0  0  0  0
   -3.7140   22.8270  -29.1770 C   0  0  0  0  0  0  0  0  0  0  0  0
   -4.7370   23.1890  -30.1230 N   0  0  0  0  0  0  0  0  0  0  0  0
   -5.8990   23.9930  -29.7200 C   0  0  0  0  0  0  0  0  0  0  0  0
   -7.1990   23.3870  -30.2670 C   0  0  0  0  0  0  0  0  0  0  0  0
   -7.1020   22.9340  -31.7540 C   0  0  0  0  0  0  0  0  0  0  0  0
   -7.4720   21.4700  -31.9510 C   0  0  0  0  0  0  0  0  0  0  0  0
   -8.6940   20.9870  -31.4460 C   0  0  0  0  0  0  0  0  0  0  0  0
   -9.0710   19.6550  -31.6460 C   0  0  0  0  0  0  0  0  0  0  0  0
   -8.2380   18.7920  -32.3610 C   0  0  0  0  0  0  0  0  0  0  0  0
   -7.0280   19.2590  -32.8790 C   0  0  0  0  0  0  0  0  0  0  0  0
   -6.6470   20.5890  -32.6820 C   0  0  0  0  0  0  0  0  0  0  0  0
   -5.7370   23.2510  -32.3990 C   0  0  0  0  0  0  0  0  0  0  0  0
   -4.5610   22.7940  -31.5280 C   0  0  0  0  0  0  0  0  0  0  0  0
   -2.6690   23.6850  -28.8310 C   0  0  0  0  0  0  0  0  0  0  0  0
   -2.3920   24.9280  -29.2730 N   0  0  0  0  0  0  0  0  0  0  0  0
   -1.2500   25.2430  -28.6020 C   0  0  0  0  0  0  0  0  0  0  0  0
   -0.8120   24.2450  -27.7940 N   0  0  0  0  0  0  0  0  0  0  0  0
    0.3310   24.2690  -26.8860 C   0  0  0  0  0  0  0  0  0  0  0  0
    0.0510   25.1970  -25.7360 C   0  0  0  0  0  0  0  0  0  0  0  0
   -1.2620   25.6250  -25.4790 C   0  0  0  0  0  0  0  0  0  0  0  0
   -1.5300   26.4530  -24.3840 C   0  0  0  0  0  0  0  0  0  0  0  0
   -0.4930   26.8500  -23.5360 C   0  0  0  0  0  0  0  0  0  0  0  0
    0.8140   26.4180  -23.7790 C   0  0  0  0  0  0  0  0  0  0  0  0
    1.0860   25.5890  -24.8720 C   0  0  0  0  0  0  0  0  0  0  0  0
   -1.7250   23.2800  -27.9500 C   0  0  0  0  0  0  0  0  0  0  0  0
   -1.7400   22.0570  -27.3700 N   0  0  0  0  0  0  0  0  0  0  0  0
   -2.7943   19.9024  -26.0091 H   0  0  0  0  0  0  0  0  0  0  0  0
   -3.7076   19.3167  -27.4407 H   0  0  0  0  0  0  0  0  0  0  0  0
   -1.9119   19.2709  -27.4407 H   0  0  0  0  0  0  0  0  0  0  0  0
   -5.9510   24.0260  -28.6217 H   0  0  0  0  0  0  0  0  0  0  0  0
   -5.7841   25.0076  -30.1292 H   0  0  0  0  0  0  0  0  0  0  0  0
   -7.4590   22.5117  -29.6537 H   0  0  0  0  0  0  0  0  0  0  0  0
   -7.9652   24.1749  -30.2205 H   0  0  0  0  0  0  0  0  0  0  0  0
   -7.8544   23.5377  -32.2827 H   0  0  0  0  0  0  0  0  0  0  0  0
   -9.3587   21.6635  -30.8888 H   0  0  0  0  0  0  0  0  0  0  0  0
  -10.0246   19.2869  -31.2396 H   0  0  0  0  0  0  0  0  0  0  0  0
   -8.5349   17.7443  -32.5163 H   0  0  0  0  0  0  0  0  0  0  0  0
   -6.3735   18.5784  -33.4433 H   0  0  0  0  0  0  0  0  0  0  0  0
   -5.6965   20.9520  -33.1001 H   0  0  0  0  0  0  0  0  0  0  0  0
   -5.6775   22.7387  -33.3706 H   0  0  0  0  0  0  0  0  0  0  0  0
   -5.6653   24.3425  -32.5149 H   0  0  0  0  0  0  0  0  0  0  0  0
   -4.4820   21.6982  -31.5827 H   0  0  0  0  0  0  0  0  0  0  0  0
   -3.6473   23.2754  -31.9068 H   0  0  0  0  0  0  0  0  0  0  0  0
   -0.7344   26.2093  -28.7046 H   0  0  0  0  0  0  0  0  0  0  0  0
    0.5122   23.2548  -26.5006 H   0  0  0  0  0  0  0  0  0  0  0  0
    1.2187   24.6238  -27.4301 H   0  0  0  0  0  0  0  0  0  0  0  0
   -2.0816   25.3081  -26.1407 H   0  0  0  0  0  0  0  0  0  0  0  0
   -2.5584   26.7920  -24.1903 H   0  0  0  0  0  0  0  0  0  0  0  0
   -0.7052   27.5029  -22.6766 H   0  0  0  0  0  0  0  0  0  0  0  0
    1.6293   26.7304  -23.1099 H   0  0  0  0  0  0  0  0  0  0  0  0
    2.1139   25.2430  -25.0554 H   0  0  0  0  0  0  0  0  0  0  0  0
  1  2  1  0
  2  3  2  0
  3  4  1  0
  4  5  1  0
  5  6  1  0
  6  7  1  0
  7  8  1  0
  8  9  1  0
  9 10  2  0
 10 11  1  0
 11 12  2  0
 12 13  1  0
 13 14  2  0
  8 15  1  0
 15 16  1  0
  4 17  2  0
 17 18  1  0
 18 19  2  0
 19 20  1  0
 20 21  1  0
 21 22  1  0
 22 23  2  0
 23 24  1  0
 24 25  2  0
 25 26  1  0
 26 27  2  0
 20 28  1  0
 28 29  2  0
 29  2  1  0
 16  5  1  0
 28 17  1  0
 14  9  1  0
 27 22  1  0
  1 30  1  0
  1 31  1  0
  1 32  1  0
  6 33  1  0
  6 34  1  0
  7 35  1  0
  7 36  1  0
  8 37  1  0
 10 38  1  0
 11 39  1  0
 12 40  1  0
 13 41  1  0
 14 42  1  0
 15 43  1  0
 15 44  1  0
 16 45  1  0
 16 46  1  0
 19 47  1  0
 21 48  1  0
 21 49  1  0
 23 50  1  0
 24 51  1  0
 25 52  1  0
 26 53  1  0
 27 54  1  0
M  END
>  <UniqueID>  (36) 
34

>  <SMILES>  (36) 
Cc1nc(N2CCC(c3ccccc3)CC2)c2ncn(Cc3ccccc3)c2n1

>  <Energy>  (36) 
103.91299628986198

>  <Genealogy>  (36) 
Cc1nc(N2CCC(c3ccccc3)CC2)c2ncn(Cc3ccccc3)c2n1 (3D coordinates assigned)
Cc1nc(N2CCC(c3ccccc3)CC2)c2ncn(Cc3ccccc3)c2n1 (nonaromatic ring conformer: 103.91299628986198 kcal/mol)

>  <smiles>  (36) 
Cc1nc(N2CCC(c3ccccc3)CC2)c2ncn(Cc3ccccc3)c2n1

>  <score_type>  (36) 
oracle

>  <origin>  (36) 
adgpu

>  <m_score__min__energy>  (36) 
-9.4600000000000009

>  <m_primary>  (36) 
energy

$$$$
36:0
     RDKit          3D

 55 58  0  0  0  0  0  0  0  0999 V2000
   -6.4060   18.3710  -33.9380 C   0  0  0  0  0  0  0  0  0  0  0  0
   -7.2190   19.1660  -32.9670 C   0  0  0  0  0  0  0  0  0  0  0  0
   -8.5520   19.0290  -32.8350 N   0  0  0  0  0  0  0  0  0  0  0  0
   -8.9440   19.9070  -31.9240 N   0  0  0  0  0  0  0  0  0  0  0  0
   -7.8430   20.5650  -31.5120 C   0  0  0  0  0  0  0  0  0  0  0  0
   -7.8950   21.9350  -30.3490 S   0  0  0  0  0  0  0  0  0  0  0  0
   -7.1870   23.1670  -31.4980 C   0  0  0  0  0  0  0  0  0  0  0  0
   -5.9610   23.8070  -30.9220 C   0  0  0  0  0  0  0  0  0  0  0  0
   -5.3650   24.7000  -31.5840 O   0  0  0  0  0  0  0  0  0  0  0  0
   -5.4300   23.3410  -29.6700 N   0  0  0  0  0  0  0  0  0  0  0  0
   -4.2200   23.8370  -29.0760 C   0  0  0  0  0  0  0  0  0  0  0  0
   -4.2010   24.1400  -27.7070 C   0  0  0  0  0  0  0  0  0  0  0  0
   -3.0370   24.6250  -27.1050 C   0  0  0  0  0  0  0  0  0  0  0  0
   -1.8780   24.8220  -27.8670 C   0  0  0  0  0  0  0  0  0  0  0  0
   -0.3990   25.3990  -27.0990 S   0  0  0  0  0  0  0  0  0  0  0  0
   -0.3440   26.8960  -27.2180 O   0  0  0  0  0  0  0  0  0  0  0  0
    0.7880   24.8370  -27.8310 O   0  0  0  0  0  0  0  0  0  0  0  0
   -0.3020   24.9510  -25.4070 N   0  0  0  0  0  0  0  0  0  0  0  0
   -1.1770   25.7760  -24.5520 C   0  0  0  0  0  0  0  0  0  0  0  0
   -0.5430   27.1330  -24.1640 C   0  0  0  0  0  0  0  0  0  0  0  0
    0.8210   27.2370  -24.5230 O   0  0  0  0  0  0  0  0  0  0  0  0
    1.5140   26.0890  -24.0910 C   0  0  0  0  0  0  0  0  0  0  0  0
    1.0900   24.8630  -24.9170 C   0  0  0  0  0  0  0  0  0  0  0  0
   -1.9040   24.5570  -29.2420 C   0  0  0  0  0  0  0  0  0  0  0  0
   -3.0670   24.0710  -29.8460 C   0  0  0  0  0  0  0  0  0  0  0  0
   -6.7400   20.1280  -32.1510 N   0  0  0  0  0  0  0  0  0  0  0  0
   -5.3980   20.6290  -32.0410 C   0  0  0  0  0  0  0  0  0  0  0  0
   -4.6230   20.3450  -30.9050 C   0  0  0  0  0  0  0  0  0  0  0  0
   -3.3110   20.8180  -30.8090 C   0  0  0  0  0  0  0  0  0  0  0  0
   -2.7630   21.5750  -31.8490 C   0  0  0  0  0  0  0  0  0  0  0  0
   -3.5270   21.8580  -32.9850 C   0  0  0  0  0  0  0  0  0  0  0  0
   -4.8400   21.3880  -33.0830 C   0  0  0  0  0  0  0  0  0  0  0  0
   -5.7251   17.7052  -33.3874 H   0  0  0  0  0  0  0  0  0  0  0  0
   -7.0753   17.7693  -34.5704 H   0  0  0  0  0  0  0  0  0  0  0  0
   -5.8195   19.0536  -34.5704 H   0  0  0  0  0  0  0  0  0  0  0  0
   -6.9207   22.6664  -32.4406 H   0  0  0  0  0  0  0  0  0  0  0  0
   -7.9385   23.9510  -31.6726 H   0  0  0  0  0  0  0  0  0  0  0  0
   -5.8610   22.4880  -29.2480 H   0  0  0  0  0  0  0  0  0  0  0  0
   -5.1087   23.9949  -27.1028 H   0  0  0  0  0  0  0  0  0  0  0  0
   -3.0307   24.8529  -26.0289 H   0  0  0  0  0  0  0  0  0  0  0  0
   -2.1142   25.9699  -25.0943 H   0  0  0  0  0  0  0  0  0  0  0  0
   -1.3478   25.2159  -23.6208 H   0  0  0  0  0  0  0  0  0  0  0  0
   -1.0993   27.9356  -24.6703 H   0  0  0  0  0  0  0  0  0  0  0  0
   -0.5986   27.2169  -23.0686 H   0  0  0  0  0  0  0  0  0  0  0  0
    2.5951   26.2514  -24.2125 H   0  0  0  0  0  0  0  0  0  0  0  0
    1.2753   25.9057  -23.0330 H   0  0  0  0  0  0  0  0  0  0  0  0
    1.7619   24.7745  -25.7835 H   0  0  0  0  0  0  0  0  0  0  0  0
    1.1524   23.9843  -24.2582 H   0  0  0  0  0  0  0  0  0  0  0  0
   -1.0042   24.7323  -29.8499 H   0  0  0  0  0  0  0  0  0  0  0  0
   -3.0803   23.8709  -30.9276 H   0  0  0  0  0  0  0  0  0  0  0  0
   -5.0504   19.7473  -30.0865 H   0  0  0  0  0  0  0  0  0  0  0  0
   -2.7098   20.5946  -29.9153 H   0  0  0  0  0  0  0  0  0  0  0  0
   -1.7309   21.9478  -31.7733 H   0  0  0  0  0  0  0  0  0  0  0  0
   -3.0941   22.4518  -33.8036 H   0  0  0  0  0  0  0  0  0  0  0  0
   -5.4378   21.6132  -33.9785 H   0  0  0  0  0  0  0  0  0  0  0  0
  1  2  1  0
  2  3  2  0
  3  4  1  0
  4  5  2  0
  5  6  1  0
  6  7  1  0
  7  8  1  0
  8  9  2  0
  8 10  1  0
 10 11  1  0
 11 12  2  0
 12 13  1  0
 13 14  2  0
 14 15  1  0
 15 16  2  0
 15 17  2  0
 15 18  1  0
 18 19  1  0
 19 20  1  0
 20 21  1  0
 21 22  1  0
 22 23  1  0
 14 24  1  0
 24 25  2  0
  5 26  1  0
 26 27  1  0
 27 28  2  0
 28 29  1  0
 29 30  2  0
 30 31  1  0
 31 32  2  0
 26  2  1  0
 32 27  1  0
 25 11  1  0
 23 18  1  0
  1 33  1  0
  1 34  1  0
  1 35  1  0
  7 36  1  0
  7 37  1  0
 10 38  1  0
 12 39  1  0
 13 40  1  0
 19 41  1  0
 19 42  1  0
 20 43  1  0
 20 44  1  0
 22 45  1  0
 22 46  1  0
 23 47  1  0
 23 48  1  0
 24 49  1  0
 25 50  1  0
 28 51  1  0
 29 52  1  0
 30 53  1  0
 31 54  1  0
 32 55  1  0
M  END
>  <UniqueID>  (37) 
35

>  <SMILES>  (37) 
Cc1nnc(SCC(=O)Nc2ccc(S(=O)(=O)N3CCOCC3)cc2)n1-c1ccccc1

>  <Energy>  (37) 
104.98555097687063

>  <Genealogy>  (37) 
Cc1nnc(SCC(=O)Nc2ccc(S(=O)(=O)N3CCOCC3)cc2)n1-c1ccccc1 (3D coordinates assigned)
Cc1nnc(SCC(=O)Nc2ccc(S(=O)(=O)N3CCOCC3)cc2)n1-c1ccccc1 (nonaromatic ring conformer: 104.98555097687063 kcal/mol)

>  <smiles>  (37) 
Cc1nnc(SCC(=O)Nc2ccc(S(=O)(=O)N3CCOCC3)cc2)n1-c1ccccc1

>  <score_type>  (37) 
oracle

>  <origin>  (37) 
adgpu

>  <m_score__min__energy>  (37) 
-11.199999999999999

>  <m_primary>  (37) 
energy

$$$$
37:0
     RDKit          3D

 39 41  0  0  0  0  0  0  0  0999 V2000
   -4.8460   21.3940  -33.0980 O   0  0  0  0  0  0  0  0  0  0  0  0
   -3.7450   21.7060  -32.5680 C   0  0  0  0  0  0  0  0  0  0  0  0
   -3.7020   22.7220  -31.5480 N   0  0  0  0  0  0  0  0  0  0  0  0
   -4.8660   23.4100  -31.0570 C   0  0  0  0  0  0  0  0  0  0  0  0
   -6.1350   22.8020  -31.0870 C   0  0  0  0  0  0  0  0  0  0  0  0
   -7.2520   23.4750  -30.5850 C   0  0  0  0  0  0  0  0  0  0  0  0
   -7.1130   24.7520  -30.0360 C   0  0  0  0  0  0  0  0  0  0  0  0
   -5.8540   25.3550  -29.9810 C   0  0  0  0  0  0  0  0  0  0  0  0
   -4.7320   24.6870  -30.4840 C   0  0  0  0  0  0  0  0  0  0  0  0
   -3.4860   25.3030  -30.4210 O   0  0  0  0  0  0  0  0  0  0  0  0
   -2.5120   21.0210  -33.0220 C   0  0  0  0  0  0  0  0  0  0  0  0
   -1.2420   21.6000  -32.8340 C   0  0  0  0  0  0  0  0  0  0  0  0
   -0.0930   20.9440  -33.2840 C   0  0  0  0  0  0  0  0  0  0  0  0
   -0.1910   19.7080  -33.9330 C   0  0  0  0  0  0  0  0  0  0  0  0
    1.2670   18.9050  -34.5070 S   0  0  0  0  0  0  0  0  0  0  0  0
    0.9980   17.4560  -34.8070 O   0  0  0  0  0  0  0  0  0  0  0  0
    2.3240   18.9940  -33.4430 O   0  0  0  0  0  0  0  0  0  0  0  0
    1.8390   19.6870  -35.9450 N   0  0  0  0  0  0  0  0  0  0  0  0
    2.1440   21.0850  -36.0600 C   0  0  0  0  0  0  0  0  0  0  0  0
    3.4560   21.5780  -35.9400 C   0  0  0  0  0  0  0  0  0  0  0  0
    3.7030   22.9460  -36.0600 C   0  0  0  0  0  0  0  0  0  0  0  0
    2.6380   23.8160  -36.2970 C   0  0  0  0  0  0  0  0  0  0  0  0
    1.3760   23.3280  -36.4110 N   0  0  0  0  0  0  0  0  0  0  0  0
    1.1070   21.9990  -36.3010 C   0  0  0  0  0  0  0  0  0  0  0  0
   -0.0810   21.5960  -36.4170 O   0  0  0  0  0  0  0  0  0  0  0  0
   -1.4510   19.1290  -34.1290 C   0  0  0  0  0  0  0  0  0  0  0  0
   -2.6030   19.7840  -33.6840 C   0  0  0  0  0  0  0  0  0  0  0  0
   -2.7780   23.0200  -31.1640 H   0  0  0  0  0  0  0  0  0  0  0  0
   -6.2481   21.7920  -31.5077 H   0  0  0  0  0  0  0  0  0  0  0  0
   -8.2427   22.9983  -30.6222 H   0  0  0  0  0  0  0  0  0  0  0  0
   -7.9946   25.2826  -29.6471 H   0  0  0  0  0  0  0  0  0  0  0  0
   -5.7444   26.3573  -29.5412 H   0  0  0  0  0  0  0  0  0  0  0  0
   -1.1540   22.5739  -32.3302 H   0  0  0  0  0  0  0  0  0  0  0  0
    0.8947   21.4021  -33.1271 H   0  0  0  0  0  0  0  0  0  0  0  0
    4.2884   20.8841  -35.7513 H   0  0  0  0  0  0  0  0  0  0  0  0
    4.7278   23.3351  -35.9686 H   0  0  0  0  0  0  0  0  0  0  0  0
    2.8207   24.8966  -36.3914 H   0  0  0  0  0  0  0  0  0  0  0  0
   -1.5345   18.1557  -34.6347 H   0  0  0  0  0  0  0  0  0  0  0  0
   -3.5894   19.3276  -33.8533 H   0  0  0  0  0  0  0  0  0  0  0  0
  1  2  2  0
  2  3  1  0
  3  4  1  0
  4  5  2  0
  5  6  1  0
  6  7  2  0
  7  8  1  0
  8  9  2  0
  9 10  1  0
  2 11  1  0
 11 12  2  0
 12 13  1  0
 13 14  2  0
 14 15  1  0
 15 16  2  0
 15 17  2  0
 15 18  1  0
 18 19  1  0
 19 20  2  0
 20 21  1  0
 21 22  2  0
 22 23  1  0
 23 24  1  0
 24 25  2  0
 14 26  1  0
 26 27  2  0
  9  4  1  0
 27 11  1  0
 24 19  1  0
  3 28  1  0
  5 29  1  0
  6 30  1  0
  7 31  1  0
  8 32  1  0
 12 33  1  0
 13 34  1  0
 20 35  1  0
 21 36  1  0
 22 37  1  0
 26 38  1  0
 27 39  1  0
M  CHG  3  10  -1  18  -1  23  -1
M  END
>  <UniqueID>  (38) 
36

>  <SMILES>  (38) 
O=C(Nc1ccccc1[O-])c1ccc(S(=O)(=O)[N-]c2ccc[n-]c2=O)cc1

>  <Energy>  (38) 
54.01831972419039

>  <Genealogy>  (38) 
O=C(Nc1ccccc1[O-])c1ccc(S(=O)(=O)[N-]c2ccc[n-]c2=O)cc1 (protonated)
O=C(Nc1ccccc1[O-])c1ccc(S(=O)(=O)[N-]c2ccc[n-]c2=O)cc1 (3D coordinates assigned)
O=C(Nc1ccccc1[O-])c1ccc(S(=O)(=O)[N-]c2ccc[n-]c2=O)cc1 (optimized conformer: 54.01831972419039 kcal/mol)

>  <smiles>  (38) 
O=C(Nc1ccccc1O)c1ccc(S(=O)(=O)Nc2ccc[nH]c2=O)cc1

>  <score_type>  (38) 
oracle

>  <origin>  (38) 
adgpu

>  <m_score__min__energy>  (38) 
-11.16

>  <m_primary>  (38) 
energy

$$$$
38:0
     RDKit          3D

 48 51  0  0  0  0  0  0  0  0999 V2000
   -3.4720   25.3090  -30.4930 O   0  0  0  0  0  0  0  0  0  0  0  0
   -3.4780   23.9440  -30.2330 C   0  0  0  0  0  0  0  0  0  0  0  0
   -3.7210   23.4820  -28.9370 C   0  0  0  0  0  0  0  0  0  0  0  0
   -3.7400   22.1090  -28.6770 C   0  0  0  0  0  0  0  0  0  0  0  0
   -3.5210   21.1950  -29.7120 C   0  0  0  0  0  0  0  0  0  0  0  0
   -3.2680   21.6510  -31.0170 C   0  0  0  0  0  0  0  0  0  0  0  0
   -3.0010   20.6850  -32.1010 C   0  0  0  0  0  0  0  0  0  0  0  0
   -2.8090   19.3650  -31.8930 N   0  0  0  0  0  0  0  0  0  0  0  0
   -2.6720   18.8730  -33.1380 C   0  0  0  0  0  0  0  0  0  0  0  0
   -2.5380   17.4100  -33.4630 C   0  0  0  0  0  0  0  0  0  0  0  0
   -3.6980   16.8300  -34.1850 N   0  0  0  0  0  0  0  0  0  0  0  0
   -4.3650   17.6750  -35.1810 C   0  0  0  0  0  0  0  0  0  0  0  0
   -5.4130   18.6340  -34.5790 C   0  0  0  0  0  0  0  0  0  0  0  0
   -5.9330   18.2720  -33.2390 N   0  0  0  0  0  0  0  0  0  0  0  0
   -6.7690   19.2390  -32.5250 C   0  0  0  0  0  0  0  0  0  0  0  0
   -7.9500   18.8370  -31.8560 C   0  0  0  0  0  0  0  0  0  0  0  0
   -8.7680   19.7680  -31.2170 C   0  0  0  0  0  0  0  0  0  0  0  0
   -8.4330   21.1180  -31.2150 C   0  0  0  0  0  0  0  0  0  0  0  0
   -7.2720   21.5590  -31.8630 C   0  0  0  0  0  0  0  0  0  0  0  0
   -6.8720   23.0130  -31.7970 C   0  0  0  0  0  0  0  0  0  0  0  0
   -5.7480   23.2450  -32.5710 F   0  0  0  0  0  0  0  0  0  0  0  0
   -7.9120   23.7910  -32.2720 F   0  0  0  0  0  0  0  0  0  0  0  0
   -6.5870   23.3870  -30.4960 F   0  0  0  0  0  0  0  0  0  0  0  0
   -6.4380   20.6170  -32.4920 C   0  0  0  0  0  0  0  0  0  0  0  0
   -5.5740   17.0060  -32.5640 C   0  0  0  0  0  0  0  0  0  0  0  0
   -4.6670   16.0860  -33.3770 C   0  0  0  0  0  0  0  0  0  0  0  0
   -2.7560   19.9040  -34.0500 C   0  0  0  0  0  0  0  0  0  0  0  0
   -2.9650   21.0070  -33.3760 O   0  0  0  0  0  0  0  0  0  0  0  0
   -3.2430   23.0340  -31.2700 C   0  0  0  0  0  0  0  0  0  0  0  0
   -3.8973   24.1988  -28.1215 H   0  0  0  0  0  0  0  0  0  0  0  0
   -3.9277   21.7466  -27.6555 H   0  0  0  0  0  0  0  0  0  0  0  0
   -3.5468   20.1151  -29.5041 H   0  0  0  0  0  0  0  0  0  0  0  0
   -1.6431   17.2779  -34.0888 H   0  0  0  0  0  0  0  0  0  0  0  0
   -2.4727   16.8810  -32.5008 H   0  0  0  0  0  0  0  0  0  0  0  0
   -3.6000   18.2752  -35.6954 H   0  0  0  0  0  0  0  0  0  0  0  0
   -4.9013   17.0020  -35.8661 H   0  0  0  0  0  0  0  0  0  0  0  0
   -4.9529   19.6303  -34.5033 H   0  0  0  0  0  0  0  0  0  0  0  0
   -6.2794   18.5877  -35.2551 H   0  0  0  0  0  0  0  0  0  0  0  0
   -8.2270   17.7726  -31.8400 H   0  0  0  0  0  0  0  0  0  0  0  0
   -9.6851   19.4323  -30.7107 H   0  0  0  0  0  0  0  0  0  0  0  0
   -9.0827   21.8426  -30.7023 H   0  0  0  0  0  0  0  0  0  0  0  0
   -5.5073   20.9575  -32.9694 H   0  0  0  0  0  0  0  0  0  0  0  0
   -5.0583   17.2528  -31.6242 H   0  0  0  0  0  0  0  0  0  0  0  0
   -6.5152   16.4580  -32.4095 H   0  0  0  0  0  0  0  0  0  0  0  0
   -4.1197   15.4283  -32.6857 H   0  0  0  0  0  0  0  0  0  0  0  0
   -5.3034   15.5084  -34.0636 H   0  0  0  0  0  0  0  0  0  0  0  0
   -2.6643   19.8160  -35.1426 H   0  0  0  0  0  0  0  0  0  0  0  0
   -3.0381   23.4018  -32.2862 H   0  0  0  0  0  0  0  0  0  0  0  0
  1  2  1  0
  2  3  2  0
  3  4  1  0
  4  5  2  0
  5  6  1  0
  6  7  1  0
  7  8  2  0
  8  9  1  0
  9 10  1  0
 10 11  1  0
 11 12  1  0
 12 13  1  0
 13 14  1  0
 14 15  1  0
 15 16  2  0
 16 17  1  0
 17 18  2  0
 18 19  1  0
 19 20  1  0
 20 21  1  0
 20 22  1  0
 20 23  1  0
 19 24  2  0
 14 25  1  0
 25 26  1  0
  9 27  2  0
 27 28  1  0
  6 29  2  0
 29  2  1  0
 28  7  1  0
 26 11  1  0
 24 15  1  0
  3 30  1  0
  4 31  1  0
  5 32  1  0
 10 33  1  0
 10 34  1  0
 12 35  1  0
 12 36  1  0
 13 37  1  0
 13 38  1  0
 16 39  1  0
 17 40  1  0
 18 41  1  0
 24 42  1  0
 25 43  1  0
 25 44  1  0
 26 45  1  0
 26 46  1  0
 27 47  1  0
 29 48  1  0
M  CHG  1   1  -1
M  END
>  <UniqueID>  (39) 
37

>  <SMILES>  (39) 
[O-]c1cccc(-c2nc(CN3CCN(c4cccc(C(F)(F)F)c4)CC3)co2)c1

>  <Energy>  (39) 
93.69072210690962

>  <Genealogy>  (39) 
[O-]c1cccc(-c2nc(CN3CCN(c4cccc(C(F)(F)F)c4)CC3)co2)c1 (protonated)
[O-]c1cccc(-c2nc(CN3CCN(c4cccc(C(F)(F)F)c4)CC3)co2)c1 (3D coordinates assigned)
[O-]c1cccc(-c2nc(CN3CCN(c4cccc(C(F)(F)F)c4)CC3)co2)c1 (nonaromatic ring conformer: 93.69072210690962 kcal/mol)

>  <smiles>  (39) 
Oc1cccc(-c2nc(CN3CCN(c4cccc(C(F)(F)F)c4)CC3)co2)c1

>  <score_type>  (39) 
oracle

>  <origin>  (39) 
adgpu

>  <m_score__min__energy>  (39) 
-11

>  <m_primary>  (39) 
energy

$$$$
39:0
     RDKit          3D

 51 53  0  0  0  0  0  0  0  0999 V2000
   -2.1799   19.4863  -35.1460 H   0  0  0  0  0  0  0  0  0  0  0  0
   -2.7430   19.6230  -34.2110 C   0  0  0  0  0  0  0  0  0  0  0  0
   -3.9500   18.9450  -34.0210 C   0  0  0  0  0  0  0  0  0  0  0  0
   -4.3402   18.2886  -34.8128 H   0  0  0  0  0  0  0  0  0  0  0  0
   -4.6650   19.0980  -32.8260 C   0  0  0  0  0  0  0  0  0  0  0  0
   -6.1950   18.2580  -32.5760 S   0  0  0  0  0  0  0  0  0  0  0  0
   -6.2780   17.0580  -33.4800 O   0  0  0  0  0  0  0  0  0  0  0  0
   -6.2570   17.7910  -31.1480 O   0  0  0  0  0  0  0  0  0  0  0  0
   -7.5290   19.3400  -32.9060 N   0  0  0  0  0  0  0  0  0  0  0  0
   -7.6720   19.3260  -33.9430 H   0  0  0  0  0  0  0  0  0  0  0  0
   -7.1510   20.7230  -32.5240 C   0  0  0  0  0  0  0  0  0  0  0  0
   -6.5820   20.6907  -31.5832 H   0  0  0  0  0  0  0  0  0  0  0  0
   -6.5438   21.1506  -33.3355 H   0  0  0  0  0  0  0  0  0  0  0  0
   -8.3850   21.6110  -32.3290 C   0  0  0  0  0  0  0  0  0  0  0  0
   -8.0577   22.6339  -32.0912 H   0  0  0  0  0  0  0  0  0  0  0  0
   -8.9740   21.6000  -33.2579 H   0  0  0  0  0  0  0  0  0  0  0  0
   -9.2680   21.0870  -31.1840 C   0  0  0  0  0  0  0  0  0  0  0  0
   -8.9929   21.6135  -30.2582 H   0  0  0  0  0  0  0  0  0  0  0  0
  -10.3163   21.2724  -31.4611 H   0  0  0  0  0  0  0  0  0  0  0  0
   -9.1080   19.5740  -30.9560 C   0  0  0  0  0  0  0  0  0  0  0  0
   -8.2910   19.4031  -30.2396 H   0  0  0  0  0  0  0  0  0  0  0  0
  -10.0560   19.1777  -30.5632 H   0  0  0  0  0  0  0  0  0  0  0  0
   -8.7830   18.8480  -32.2700 C   0  0  0  0  0  0  0  0  0  0  0  0
   -8.6727   17.7738  -32.0602 H   0  0  0  0  0  0  0  0  0  0  0  0
   -9.6086   19.0442  -32.9699 H   0  0  0  0  0  0  0  0  0  0  0  0
   -4.1690   19.9420  -31.8270 C   0  0  0  0  0  0  0  0  0  0  0  0
   -4.7110   20.0388  -30.8747 H   0  0  0  0  0  0  0  0  0  0  0  0
   -2.9880   20.6640  -32.0310 C   0  0  0  0  0  0  0  0  0  0  0  0
   -2.4860   21.4890  -30.9770 N   0  0  0  0  0  0  0  0  0  0  0  0
   -2.8200   22.7110  -30.6620 C   0  0  0  0  0  0  0  0  0  0  0  0
   -2.1020   23.4130  -29.7630 N   0  0  0  0  0  0  0  0  0  0  0  0
   -2.7440   24.5950  -29.7570 C   0  0  0  0  0  0  0  0  0  0  0  0
   -2.3570   25.6700  -28.9700 O   0  0  0  0  0  0  0  0  0  0  0  0
   -3.8060   24.6260  -30.5800 N   0  0  0  0  0  0  0  0  0  0  0  0
   -3.8620   23.4380  -31.1590 N   0  0  0  0  0  0  0  0  0  0  0  0
   -5.0380   23.0490  -31.9500 C   0  0  0  0  0  0  0  0  0  0  0  0
   -5.2940   22.0037  -31.7225 H   0  0  0  0  0  0  0  0  0  0  0  0
   -4.7950   23.1647  -33.0166 H   0  0  0  0  0  0  0  0  0  0  0  0
   -6.2420   23.9410  -31.6260 C   0  0  0  0  0  0  0  0  0  0  0  0
   -7.0357   23.7441  -32.3617 H   0  0  0  0  0  0  0  0  0  0  0  0
   -5.9049   24.9873  -31.6670 H   0  0  0  0  0  0  0  0  0  0  0  0
   -6.7960   23.6850  -30.2270 C   0  0  0  0  0  0  0  0  0  0  0  0
   -6.0662   24.0222  -29.4762 H   0  0  0  0  0  0  0  0  0  0  0  0
   -7.7373   24.2394  -30.0983 H   0  0  0  0  0  0  0  0  0  0  0  0
   -6.9838   22.6088  -30.0983 H   0  0  0  0  0  0  0  0  0  0  0  0
   -2.2440   20.4800  -33.2120 C   0  0  0  0  0  0  0  0  0  0  0  0
   -1.0290   21.1680  -33.3580 O   0  0  0  0  0  0  0  0  0  0  0  0
   -0.2440   21.1740  -34.5440 C   0  0  0  0  0  0  0  0  0  0  0  0
    0.8232   21.1822  -34.2773 H   0  0  0  0  0  0  0  0  0  0  0  0
   -0.4671   20.2741  -35.1360 H   0  0  0  0  0  0  0  0  0  0  0  0
   -0.4809   22.0704  -35.1360 H   0  0  0  0  0  0  0  0  0  0  0  0
  1  2  1  0
  2  3  2  0
  3  4  1  0
  3  5  1  0
  5  6  1  0
  6  7  2  0
  6  8  2  0
  6  9  1  0
  9 10  1  0
  9 11  1  0
 11 12  1  0
 11 13  1  0
 11 14  1  0
 14 15  1  0
 14 16  1  0
 14 17  1  0
 17 18  1  0
 17 19  1  0
 17 20  1  0
 20 21  1  0
 20 22  1  0
 20 23  1  0
 23 24  1  0
 23 25  1  0
  5 26  2  0
 26 27  1  0
 26 28  1  0
 28 29  1  0
 29 30  2  0
 30 31  1  0
 31 32  1  0
 32 33  1  0
 32 34  2  0
 34 35  1  0
 35 36  1  0
 36 37  1  0
 36 38  1  0
 36 39  1  0
 39 40  1  0
 39 41  1  0
 39 42  1  0
 42 43  1  0
 42 44  1  0
 42 45  1  0
 28 46  2  0
 46 47  1  0
 47 48  1  0
 48 49  1  0
 48 50  1  0
 48 51  1  0
 46  2  1  0
 23  9  1  0
 35 30  1  0
M  CHG  3   9   1  31  -1  33  -1
M  END
>  <UniqueID>  (40) 
38

>  <SMILES>  (40) 
CCCn1nc([O-])[n-]/c1=N/c1cc(S(=O)(=O)[NH+]2CCCCC2)ccc1OC

>  <Energy>  (40) 
98.7139677399321

>  <Genealogy>  (40) 
CCCn1nc([O-])[n-]c1=Nc1cc(S(=O)(=O)[NH+]2CCCCC2)ccc1OC (protonated)
CCCn1nc([O-])[n-]/c1=N/c1cc(S(=O)(=O)[NH+]2CCCCC2)ccc1OC (cis-trans isomerization)
CCCn1nc([O-])[n-]/c1=N/c1cc(S(=O)(=O)[NH+]2CCCCC2)ccc1OC (3D coordinates assigned)
CCCn1nc([O-])[n-]/c1=N/c1cc(S(=O)(=O)[NH+]2CCCCC2)ccc1OC (nonaromatic ring conformer: 98.7139677399321 kcal/mol)

>  <smiles>  (40) 
CCCn1nc(O)[nH]c1=Nc1cc(S(=O)(=O)N2CCCCC2)ccc1OC

>  <score_type>  (40) 
oracle

>  <origin>  (40) 
adgpu

>  <m_score__min__energy>  (40) 
-11.859999999999999

>  <m_primary>  (40) 
energy

$$$$
40:0
     RDKit          3D

 52 55  0  0  0  0  0  0  0  0999 V2000
   -0.0850   23.6060  -25.3100 C   0  0  0  0  0  0  0  0  0  0  0  0
   -0.8190   23.9900  -26.5690 C   0  0  0  0  0  0  0  0  0  0  0  0
   -1.6700   23.0400  -27.1550 C   0  0  0  0  0  0  0  0  0  0  0  0
   -2.4080   23.3540  -28.2910 C   0  0  0  0  0  0  0  0  0  0  0  0
   -2.3210   24.6210  -28.8660 C   0  0  0  0  0  0  0  0  0  0  0  0
   -3.1580   24.9130  -29.9900 N   0  0  0  0  0  0  0  0  0  0  0  0
   -3.7430   23.9180  -30.8400 C   0  0  0  0  0  0  0  0  0  0  0  0
   -3.1070   22.8670  -31.1140 O   0  0  0  0  0  0  0  0  0  0  0  0
   -5.0200   24.1390  -31.4480 N   0  0  0  0  0  0  0  0  0  0  0  0
   -6.0890   23.1860  -31.5260 C   0  0  0  0  0  0  0  0  0  0  0  0
   -7.4370   23.5860  -31.5330 C   0  0  0  0  0  0  0  0  0  0  0  0
   -8.4550   22.6300  -31.5900 C   0  0  0  0  0  0  0  0  0  0  0  0
   -8.1350   21.2680  -31.6380 C   0  0  0  0  0  0  0  0  0  0  0  0
   -6.7970   20.8600  -31.6070 C   0  0  0  0  0  0  0  0  0  0  0  0
   -5.7770   21.8210  -31.5260 C   0  0  0  0  0  0  0  0  0  0  0  0
   -6.4820   19.3830  -31.5480 C   0  0  0  0  0  0  0  0  0  0  0  0
   -7.4250   18.5270  -32.3280 N   0  0  0  0  0  0  0  0  0  0  0  0
   -6.7600   17.9320  -33.4990 C   0  0  0  0  0  0  0  0  0  0  0  0
   -8.7090   19.1550  -32.7350 C   0  0  0  0  0  0  0  0  0  0  0  0
   -9.1890   20.2130  -31.7370 C   0  0  0  0  0  0  0  0  0  0  0  0
   -1.4100   25.5670  -28.3430 C   0  0  0  0  0  0  0  0  0  0  0  0
   -1.2290   26.7990  -28.9740 O   0  0  0  0  0  0  0  0  0  0  0  0
   -0.6530   25.2570  -27.1880 C   0  0  0  0  0  0  0  0  0  0  0  0
    0.4600   26.4730  -26.5010 S   0  0  0  0  0  0  0  0  0  0  0  0
    1.8770   25.9980  -26.6550 O   0  0  0  0  0  0  0  0  0  0  0  0
    0.3440   27.7740  -27.2440 O   0  0  0  0  0  0  0  0  0  0  0  0
    0.1480   26.7830  -24.7600 C   0  0  0  0  0  0  0  0  0  0  0  0
   -1.2680   26.5450  -24.2530 C   0  0  0  0  0  0  0  0  0  0  0  0
   -0.7830   27.9610  -24.5100 C   0  0  0  0  0  0  0  0  0  0  0  0
   -0.6741   23.9142  -24.4336 H   0  0  0  0  0  0  0  0  0  0  0  0
    0.0611   22.5160  -25.2887 H   0  0  0  0  0  0  0  0  0  0  0  0
    0.8938   24.1076  -25.2887 H   0  0  0  0  0  0  0  0  0  0  0  0
   -1.7540   22.0370  -26.7112 H   0  0  0  0  0  0  0  0  0  0  0  0
   -3.0664   22.5958  -28.7400 H   0  0  0  0  0  0  0  0  0  0  0  0
   -7.6913   24.6555  -31.4935 H   0  0  0  0  0  0  0  0  0  0  0  0
   -9.5080   22.9479  -31.5971 H   0  0  0  0  0  0  0  0  0  0  0  0
   -4.7268   21.5000  -31.4622 H   0  0  0  0  0  0  0  0  0  0  0  0
   -5.4676   19.2300  -31.9450 H   0  0  0  0  0  0  0  0  0  0  0  0
   -6.5760   19.0803  -30.4946 H   0  0  0  0  0  0  0  0  0  0  0  0
   -5.9796   17.2338  -33.1621 H   0  0  0  0  0  0  0  0  0  0  0  0
   -7.5006   17.3895  -34.1049 H   0  0  0  0  0  0  0  0  0  0  0  0
   -6.3029   18.7282  -34.1049 H   0  0  0  0  0  0  0  0  0  0  0  0
   -8.5722   19.6327  -33.7164 H   0  0  0  0  0  0  0  0  0  0  0  0
   -9.4707   18.3623  -32.7726 H   0  0  0  0  0  0  0  0  0  0  0  0
  -10.1309   20.6585  -32.0897 H   0  0  0  0  0  0  0  0  0  0  0  0
   -9.3655   19.7563  -30.7520 H   0  0  0  0  0  0  0  0  0  0  0  0
   -0.8080   27.5990  -28.5200 H   0  0  0  0  0  0  0  0  0  0  0  0
    1.1418   26.4597  -24.4168 H   0  0  0  0  0  0  0  0  0  0  0  0
   -2.0205   26.0928  -24.9157 H   0  0  0  0  0  0  0  0  0  0  0  0
   -1.7077   26.0178  -23.3935 H   0  0  0  0  0  0  0  0  0  0  0  0
   -1.1846   28.5341  -25.3587 H   0  0  0  0  0  0  0  0  0  0  0  0
   -0.7264   28.8834  -23.9134 H   0  0  0  0  0  0  0  0  0  0  0  0
  1  2  1  0
  2  3  2  0
  3  4  1  0
  4  5  2  0
  5  6  1  0
  6  7  1  0
  7  8  2  0
  7  9  1  0
  9 10  1  0
 10 11  2  0
 11 12  1  0
 12 13  2  0
 13 14  1  0
 14 15  2  0
 14 16  1  0
 16 17  1  0
 17 18  1  0
 17 19  1  0
 19 20  1  0
  5 21  1  0
 21 22  1  0
 21 23  2  0
 23 24  1  0
 24 25  2  0
 24 26  2  0
 24 27  1  0
 27 28  1  0
 28 29  1  0
 23  2  1  0
 29 27  1  0
 15 10  1  0
 20 13  1  0
  1 30  1  0
  1 31  1  0
  1 32  1  0
  3 33  1  0
  4 34  1  0
 11 35  1  0
 12 36  1  0
 15 37  1  0
 16 38  1  0
 16 39  1  0
 18 40  1  0
 18 41  1  0
 18 42  1  0
 19 43  1  0
 19 44  1  0
 20 45  1  0
 20 46  1  0
 22 47  1  0
 27 48  1  0
 28 49  1  0
 28 50  1  0
 29 51  1  0
 29 52  1  0
M  CHG  2   6  -1   9  -1
M  END
>  <UniqueID>  (41) 
39

>  <SMILES>  (41) 
Cc1ccc([N-]C(=O)[N-]c2ccc3c(c2)CN(C)CC3)c(O)c1S(=O)(=O)C1CC1

>  <Energy>  (41) 
341.4502824230523

>  <Genealogy>  (41) 
Cc1ccc([N-]C(=O)[N-]c2ccc3c(c2)CN(C)CC3)c(O)c1S(=O)(=O)C1CC1 (protonated)
Cc1ccc([N-]C(=O)[N-]c2ccc3c(c2)CN(C)CC3)c(O)c1S(=O)(=O)C1CC1 (3D coordinates assigned)
Cc1ccc([N-]C(=O)[N-]c2ccc3c(c2)CN(C)CC3)c(O)c1S(=O)(=O)C1CC1 (nonaromatic ring conformer: 341.4502824230523 kcal/mol)

>  <smiles>  (41) 
Cc1ccc(NC(=O)Nc2ccc3c(c2)CN(C)CC3)c(O)c1S(=O)(=O)C1CC1

>  <score_type>  (41) 
oracle

>  <origin>  (41) 
adgpu

>  <m_score__min__energy>  (41) 
-14.01

>  <m_primary>  (41) 
energy

$$$$
41:0
     RDKit          3D

 42 44  0  0  0  0  0  0  0  0999 V2000
   -1.8940   24.7120  -27.1640 C   0  0  0  0  0  0  0  0  0  0  0  0
   -0.9860   24.4550  -28.3260 C   0  0  0  0  0  0  0  0  0  0  0  0
    0.2280   24.7760  -28.2340 O   0  0  0  0  0  0  0  0  0  0  0  0
   -1.4440   23.8180  -29.5270 N   0  0  0  0  0  0  0  0  0  0  0  0
   -1.2330   22.4510  -29.9080 C   0  0  0  0  0  0  0  0  0  0  0  0
   -1.1460   21.4200  -28.9610 C   0  0  0  0  0  0  0  0  0  0  0  0
   -0.9870   20.1330  -29.3670 N   0  0  0  0  0  0  0  0  0  0  0  0
   -0.9160   19.7980  -30.6830 C   0  0  0  0  0  0  0  0  0  0  0  0
   -1.0230   20.7880  -31.6740 C   0  0  0  0  0  0  0  0  0  0  0  0
   -0.9680   20.4350  -33.1110 C   0  0  0  0  0  0  0  0  0  0  0  0
   -0.4590   21.2370  -33.9410 O   0  0  0  0  0  0  0  0  0  0  0  0
   -1.4970   19.1820  -33.5650 N   0  0  0  0  0  0  0  0  0  0  0  0
   -2.8580   19.0100  -34.0630 C   0  0  1  0  0  0  0  0  0  0  0  0
   -3.1560   17.5210  -34.2220 C   0  0  0  0  0  0  0  0  0  0  0  0
   -3.8410   19.6350  -33.1160 C   0  0  0  0  0  0  0  0  0  0  0  0
   -3.8950   20.9640  -32.8880 N   0  0  0  0  0  0  0  0  0  0  0  0
   -4.9120   21.1040  -32.0180 C   0  0  0  0  0  0  0  0  0  0  0  0
   -5.3580   22.4110  -31.4760 C   0  0  0  0  0  0  0  0  0  0  0  0
   -6.7160   22.6670  -31.2040 C   0  0  0  0  0  0  0  0  0  0  0  0
   -7.1150   23.9090  -30.7010 C   0  0  0  0  0  0  0  0  0  0  0  0
   -6.1690   24.9080  -30.4650 C   0  0  0  0  0  0  0  0  0  0  0  0
   -4.8180   24.6650  -30.7220 C   0  0  0  0  0  0  0  0  0  0  0  0
   -3.8770   25.6580  -30.4830 O   0  0  0  0  0  0  0  0  0  0  0  0
   -4.4130   23.4240  -31.2240 C   0  0  0  0  0  0  0  0  0  0  0  0
   -5.4520   19.8610  -31.7510 C   0  0  0  0  0  0  0  0  0  0  0  0
   -4.7790   18.9310  -32.4490 N   0  0  0  0  0  0  0  0  0  0  0  0
   -1.1920   22.1220  -31.2670 C   0  0  0  0  0  0  0  0  0  0  0  0
   -1.3418   24.5557  -26.2256 H   0  0  0  0  0  0  0  0  0  0  0  0
   -2.2591   25.7488  -27.2063 H   0  0  0  0  0  0  0  0  0  0  0  0
   -2.7483   24.0204  -27.2063 H   0  0  0  0  0  0  0  0  0  0  0  0
   -1.2066   21.6537  -27.8878 H   0  0  0  0  0  0  0  0  0  0  0  0
   -0.7741   18.7465  -30.9731 H   0  0  0  0  0  0  0  0  0  0  0  0
   -2.9510   19.5066  -35.0401 H   0  0  0  0  0  0  0  0  0  0  0  0
   -3.2488   17.0575  -33.2287 H   0  0  0  0  0  0  0  0  0  0  0  0
   -4.0976   17.3926  -34.7759 H   0  0  0  0  0  0  0  0  0  0  0  0
   -2.3363   17.0401  -34.7759 H   0  0  0  0  0  0  0  0  0  0  0  0
   -7.4673   21.8850  -31.3884 H   0  0  0  0  0  0  0  0  0  0  0  0
   -8.1777   24.0995  -30.4906 H   0  0  0  0  0  0  0  0  0  0  0  0
   -6.4877   25.8866  -30.0766 H   0  0  0  0  0  0  0  0  0  0  0  0
   -3.3474   23.2378  -31.4236 H   0  0  0  0  0  0  0  0  0  0  0  0
   -6.2974   19.6641  -31.0753 H   0  0  0  0  0  0  0  0  0  0  0  0
   -1.2929   22.9144  -32.0233 H   0  0  0  0  0  0  0  0  0  0  0  0
  1  2  1  0
  2  3  2  0
  2  4  1  0
  4  5  1  0
  5  6  2  0
  6  7  1  0
  7  8  2  0
  8  9  1  0
  9 10  1  0
 10 11  2  0
 10 12  1  0
 12 13  1  0
 13 14  1  0
 13 15  1  0
 15 16  2  0
 16 17  1  0
 17 18  1  0
 18 19  2  0
 19 20  1  0
 20 21  2  0
 21 22  1  0
 22 23  1  0
 22 24  2  0
 17 25  2  0
 25 26  1  0
  9 27  2  0
 27  5  1  0
 26 15  1  0
 24 18  1  0
  1 28  1  0
  1 29  1  0
  1 30  1  0
  6 31  1  0
  8 32  1  0
 13 33  1  6
 14 34  1  0
 14 35  1  0
 14 36  1  0
 19 37  1  0
 20 38  1  0
 21 39  1  0
 24 40  1  0
 25 41  1  0
 27 42  1  0
M  CHG  4   4  -1  12  -1  23  -1  26  -1
M  END
>  <UniqueID>  (42) 
40

>  <SMILES>  (42) 
CC(=O)[N-]c1cncc(C(=O)[N-][C@@H](C)c2nc(-c3cccc([O-])c3)c[n-]2)c1

>  <Energy>  (42) 
73.1706867056856

>  <Genealogy>  (42) 
CC(=O)[N-]c1cncc(C(=O)[N-]C(C)c2nc(-c3cccc([O-])c3)c[n-]2)c1 (protonated)
CC(=O)[N-]c1cncc(C(=O)[N-][C@@H](C)c2nc(-c3cccc([O-])c3)c[n-]2)c1 (chirality)
CC(=O)[N-]c1cncc(C(=O)[N-][C@@H](C)c2nc(-c3cccc([O-])c3)c[n-]2)c1 (3D coordinates assigned)
CC(=O)[N-]c1cncc(C(=O)[N-][C@@H](C)c2nc(-c3cccc([O-])c3)c[n-]2)c1 (optimized conformer: 73.1706867056856 kcal/mol)

>  <smiles>  (42) 
CC(=O)Nc1cncc(C(=O)NC(C)c2nc(-c3cccc(O)c3)c[nH]2)c1

>  <score_type>  (42) 
oracle

>  <origin>  (42) 
adgpu

>  <m_score__min__energy>  (42) 
-11.640000000000001

>  <m_primary>  (42) 
energy

$$$$
42:0
     RDKit          3D

 39 42  0  0  0  0  0  0  0  0999 V2000
   -0.8196   25.4585  -27.9211 H   0  0  0  0  0  0  0  0  0  0  0  0
   -1.7820   25.0190  -28.2220 C   0  0  0  0  0  0  0  0  0  0  0  0
   -2.4250   25.2960  -29.3340 O   0  0  0  0  0  0  0  0  0  0  0  0
   -3.5290   24.5860  -29.3630 C   0  0  0  0  0  0  0  0  0  0  0  0
   -4.5370   24.6520  -30.4610 C   0  0  0  0  0  0  0  0  0  0  0  0
   -4.2392   25.4221  -31.1878 H   0  0  0  0  0  0  0  0  0  0  0  0
   -5.5219   24.9075  -30.0430 H   0  0  0  0  0  0  0  0  0  0  0  0
   -4.6090   23.3560  -31.1260 N   0  0  0  0  0  0  0  0  0  0  0  0
   -5.7230   22.7400  -31.3830 C   0  0  0  0  0  0  0  0  0  0  0  0
   -6.9460   23.2420  -31.0610 N   0  0  0  0  0  0  0  0  0  0  0  0
   -7.7840   22.2940  -31.5220 C   0  0  0  0  0  0  0  0  0  0  0  0
   -9.1760   22.2950  -31.4710 C   0  0  0  0  0  0  0  0  0  0  0  0
   -9.7276   23.1255  -31.0063 H   0  0  0  0  0  0  0  0  0  0  0  0
   -9.8530   21.1960  -32.0350 C   0  0  0  0  0  0  0  0  0  0  0  0
  -10.9522   21.1605  -32.0109 H   0  0  0  0  0  0  0  0  0  0  0  0
   -9.1290   20.1380  -32.6320 C   0  0  0  0  0  0  0  0  0  0  0  0
   -9.6688   19.2860  -33.0711 H   0  0  0  0  0  0  0  0  0  0  0  0
   -7.7230   20.1680  -32.6680 C   0  0  0  0  0  0  0  0  0  0  0  0
   -7.1473   19.3527  -33.1305 H   0  0  0  0  0  0  0  0  0  0  0  0
   -7.0850   21.2690  -32.0960 C   0  0  0  0  0  0  0  0  0  0  0  0
   -5.7740   21.5380  -32.0100 N   0  0  0  0  0  0  0  0  0  0  0  0
   -4.4590   20.5830  -32.6250 S   0  0  0  0  0  0  0  0  0  0  0  0
   -3.8310   21.2570  -33.8120 O   0  0  0  0  0  0  0  0  0  0  0  0
   -3.4250   20.4340  -31.5440 O   0  0  0  0  0  0  0  0  0  0  0  0
   -5.0670   19.0070  -33.1160 C   0  0  0  0  0  0  0  0  0  0  0  0
   -5.3770   18.0440  -32.1430 C   0  0  0  0  0  0  0  0  0  0  0  0
   -5.2451   18.2789  -31.0765 H   0  0  0  0  0  0  0  0  0  0  0  0
   -5.8530   16.7870  -32.5270 C   0  0  0  0  0  0  0  0  0  0  0  0
   -6.0919   16.0333  -31.7623 H   0  0  0  0  0  0  0  0  0  0  0  0
   -6.0260   16.4860  -33.8820 C   0  0  0  0  0  0  0  0  0  0  0  0
   -6.4880   15.2670  -34.2530 F   0  0  0  0  0  0  0  0  0  0  0  0
   -5.7220   17.4450  -34.8540 C   0  0  0  0  0  0  0  0  0  0  0  0
   -5.8591   17.2093  -35.9197 H   0  0  0  0  0  0  0  0  0  0  0  0
   -5.2440   18.7030  -34.4730 C   0  0  0  0  0  0  0  0  0  0  0  0
   -5.0065   19.4553  -35.2396 H   0  0  0  0  0  0  0  0  0  0  0  0
   -3.6280   23.8140  -28.2230 C   0  0  0  0  0  0  0  0  0  0  0  0
   -4.4397   23.1211  -27.9566 H   0  0  0  0  0  0  0  0  0  0  0  0
   -2.4960   24.0940  -27.4890 C   0  0  0  0  0  0  0  0  0  0  0  0
   -2.2177   23.6660  -26.5146 H   0  0  0  0  0  0  0  0  0  0  0  0
  1  2  1  0
  2  3  1  0
  3  4  1  0
  4  5  1  0
  5  6  1  0
  5  7  1  0
  5  8  1  0
  8  9  2  0
  9 10  1  0
 10 11  1  0
 11 12  2  0
 12 13  1  0
 12 14  1  0
 14 15  1  0
 14 16  2  0
 16 17  1  0
 16 18  1  0
 18 19  1  0
 18 20  2  0
 20 21  1  0
 21 22  1  0
 22 23  2  0
 22 24  2  0
 22 25  1  0
 25 26  2  0
 26 27  1  0
 26 28  1  0
 28 29  1  0
 28 30  2  0
 30 31  1  0
 30 32  1  0
 32 33  1  0
 32 34  2  0
 34 35  1  0
  4 36  2  0
 36 37  1  0
 36 38  1  0
 38 39  1  0
 38  2  2  0
 21  9  1  0
 34 25  1  0
 20 11  1  0
M  CHG  1  10  -1
M  END
>  <UniqueID>  (43) 
41

>  <SMILES>  (43) 
O=S(=O)(c1ccc(F)cc1)n1/c(=N/Cc2ccco2)[n-]c2ccccc21

>  <Energy>  (43) 
107.06987680057205

>  <Genealogy>  (43) 
O=S(=O)(c1ccc(F)cc1)n1c(=NCc2ccco2)[n-]c2ccccc21 (protonated)
O=S(=O)(c1ccc(F)cc1)n1/c(=N/Cc2ccco2)[n-]c2ccccc21 (cis-trans isomerization)
O=S(=O)(c1ccc(F)cc1)n1/c(=N/Cc2ccco2)[n-]c2ccccc21 (3D coordinates assigned)
O=S(=O)(c1ccc(F)cc1)n1/c(=N/Cc2ccco2)[n-]c2ccccc21 (optimized conformer: 107.06987680057205 kcal/mol)

>  <smiles>  (43) 
O=S(=O)(c1ccc(F)cc1)n1c(=NCc2ccco2)[nH]c2ccccc21

>  <score_type>  (43) 
oracle

>  <origin>  (43) 
adgpu

>  <m_score__min__energy>  (43) 
-9.9100000000000001

>  <m_primary>  (43) 
energy

$$$$
43:0
     RDKit          3D

 63 66  0  0  0  0  0  0  0  0999 V2000
    0.1260   24.5030  -29.2790 O   0  0  0  0  0  0  0  0  0  0  0  0
   -1.0450   24.8030  -28.9270 C   0  0  0  0  0  0  0  0  0  0  0  0
   -1.2880   26.1230  -28.4090 N   0  0  0  0  0  0  0  0  0  0  0  0
   -0.8880   26.6280  -27.1260 C   0  0  0  0  0  0  0  0  0  0  0  0
   -0.1510   27.8160  -27.0690 C   0  0  0  0  0  0  0  0  0  0  0  0
    0.3580   28.2750  -25.8510 C   0  0  0  0  0  0  0  0  0  0  0  0
    0.1340   27.5460  -24.6740 C   0  0  0  0  0  0  0  0  0  0  0  0
    0.7760   27.9610  -23.4120 C   0  0  0  0  0  0  0  0  0  0  0  0
    0.2670   27.5840  -22.3130 O   0  0  0  0  0  0  0  0  0  0  0  0
    1.9500   28.8000  -23.4130 N   0  0  0  0  0  0  0  0  0  0  0  0
    2.0320   29.9280  -24.3490 C   0  0  0  0  0  0  0  0  0  0  0  0
    3.4900   30.3680  -24.5300 C   0  0  0  0  0  0  0  0  0  0  0  0
    4.1100   30.5840  -23.2800 O   0  0  0  0  0  0  0  0  0  0  0  0
    4.1810   29.3630  -22.5660 C   0  0  0  0  0  0  0  0  0  0  0  0
    2.7840   28.8600  -22.2070 C   0  0  0  0  0  0  0  0  0  0  0  0
   -0.6880   26.4100  -24.7160 C   0  0  0  0  0  0  0  0  0  0  0  0
   -1.2050   25.9590  -25.9330 C   0  0  0  0  0  0  0  0  0  0  0  0
   -2.1230   23.7940  -29.0700 C   0  0  0  0  0  0  0  0  0  0  0  0
   -2.0040   22.5770  -28.3840 C   0  0  0  0  0  0  0  0  0  0  0  0
   -2.9520   21.5590  -28.5560 C   0  0  0  0  0  0  0  0  0  0  0  0
   -2.8070   20.3060  -27.8620 N   0  0  0  0  0  0  0  0  0  0  0  0
   -3.5800   20.0010  -26.9320 O   0  0  0  0  0  0  0  0  0  0  0  0
   -1.7990   19.4330  -28.1990 O   0  0  0  0  0  0  0  0  0  0  0  0
   -4.0270   21.7700  -29.4320 C   0  0  0  0  0  0  0  0  0  0  0  0
   -4.1720   22.9800  -30.1160 C   0  0  0  0  0  0  0  0  0  0  0  0
   -5.5440   23.1650  -31.2170 S   0  0  0  0  0  0  0  0  0  0  0  0
   -6.8480   23.0580  -30.4780 O   0  0  0  0  0  0  0  0  0  0  0  0
   -5.4640   24.5310  -31.8370 O   0  0  0  0  0  0  0  0  0  0  0  0
   -5.4680   21.9510  -32.4710 N   0  0  0  0  0  0  0  0  0  0  0  0
   -4.2030   22.1030  -33.2210 C   0  0  0  0  0  0  0  0  0  0  0  0
   -2.9600   21.6960  -32.4140 C   0  0  0  0  0  0  0  0  0  0  0  0
   -2.8450   20.1820  -32.1670 C   0  0  0  0  0  0  0  0  0  0  0  0
   -3.7300   19.2910  -33.0810 C   0  0  0  0  0  0  0  0  0  0  0  0
   -5.2470   19.4870  -32.8960 C   0  0  0  0  0  0  0  0  0  0  0  0
   -5.6260   20.6020  -31.8880 C   0  0  0  0  0  0  0  0  0  0  0  0
   -3.2420   24.0130  -29.9010 C   0  0  0  0  0  0  0  0  0  0  0  0
   -3.4320   25.2550  -30.4970 O   0  0  0  0  0  0  0  0  0  0  0  0
    0.0289   28.3923  -27.9885 H   0  0  0  0  0  0  0  0  0  0  0  0
    0.9358   29.2104  -25.8154 H   0  0  0  0  0  0  0  0  0  0  0  0
    1.6224   29.6214  -25.3228 H   0  0  0  0  0  0  0  0  0  0  0  0
    1.4528   30.7707  -23.9436 H   0  0  0  0  0  0  0  0  0  0  0  0
    4.0380   29.5840  -25.0731 H   0  0  0  0  0  0  0  0  0  0  0  0
    3.5049   31.3104  -25.0972 H   0  0  0  0  0  0  0  0  0  0  0  0
    4.6858   28.6101  -23.1891 H   0  0  0  0  0  0  0  0  0  0  0  0
    4.7438   29.5317  -21.6360 H   0  0  0  0  0  0  0  0  0  0  0  0
    2.8602   27.8552  -21.7658 H   0  0  0  0  0  0  0  0  0  0  0  0
    2.3254   29.5498  -21.4833 H   0  0  0  0  0  0  0  0  0  0  0  0
   -0.9265   25.8720  -23.7867 H   0  0  0  0  0  0  0  0  0  0  0  0
   -1.8623   25.0773  -25.9566 H   0  0  0  0  0  0  0  0  0  0  0  0
   -1.1556   22.4191  -27.7019 H   0  0  0  0  0  0  0  0  0  0  0  0
   -4.7674   20.9706  -29.5829 H   0  0  0  0  0  0  0  0  0  0  0  0
   -4.2546   21.4741  -34.1220 H   0  0  0  0  0  0  0  0  0  0  0  0
   -4.0965   23.1707  -33.4634 H   0  0  0  0  0  0  0  0  0  0  0  0
   -2.0665   22.0259  -32.9643 H   0  0  0  0  0  0  0  0  0  0  0  0
   -3.0492   22.1744  -31.4275 H   0  0  0  0  0  0  0  0  0  0  0  0
   -1.7956   19.8911  -32.3222 H   0  0  0  0  0  0  0  0  0  0  0  0
   -3.2020   20.0134  -31.1403 H   0  0  0  0  0  0  0  0  0  0  0  0
   -3.4801   19.5189  -34.1277 H   0  0  0  0  0  0  0  0  0  0  0  0
   -3.5147   18.2489  -32.8021 H   0  0  0  0  0  0  0  0  0  0  0  0
   -5.6834   19.7424  -33.8729 H   0  0  0  0  0  0  0  0  0  0  0  0
   -5.6396   18.5445  -32.4867 H   0  0  0  0  0  0  0  0  0  0  0  0
   -6.6749   20.4662  -31.5857 H   0  0  0  0  0  0  0  0  0  0  0  0
   -4.9500   20.5235  -31.0238 H   0  0  0  0  0  0  0  0  0  0  0  0
  1  2  2  0
  2  3  1  0
  3  4  1  0
  4  5  2  0
  5  6  1  0
  6  7  2  0
  7  8  1  0
  8  9  2  0
  8 10  1  0
 10 11  1  0
 11 12  1  0
 12 13  1  0
 13 14  1  0
 14 15  1  0
  7 16  1  0
 16 17  2  0
  2 18  1  0
 18 19  2  0
 19 20  1  0
 20 21  1  0
 21 22  2  0
 21 23  1  0
 20 24  2  0
 24 25  1  0
 25 26  1  0
 26 27  2  0
 26 28  2  0
 26 29  1  0
 29 30  1  0
 30 31  1  0
 31 32  1  0
 32 33  1  0
 33 34  1  0
 34 35  1  0
 25 36  2  0
 36 37  1  0
 17  4  1  0
 36 18  1  0
 15 10  1  0
 35 29  1  0
  5 38  1  0
  6 39  1  0
 11 40  1  0
 11 41  1  0
 12 42  1  0
 12 43  1  0
 14 44  1  0
 14 45  1  0
 15 46  1  0
 15 47  1  0
 16 48  1  0
 17 49  1  0
 19 50  1  0
 24 51  1  0
 30 52  1  0
 30 53  1  0
 31 54  1  0
 31 55  1  0
 32 56  1  0
 32 57  1  0
 33 58  1  0
 33 59  1  0
 34 60  1  0
 34 61  1  0
 35 62  1  0
 35 63  1  0
M  CHG  4   3  -1  21   1  23  -1  37  -1
M  END
>  <UniqueID>  (44) 
42

>  <SMILES>  (44) 
O=C([N-]c1ccc(C(=O)N2CCOCC2)cc1)c1cc([N+](=O)[O-])cc(S(=O)(=O)N2CCCCCC2)c1[O-]

>  <Energy>  (44) 
88.76885813179655

>  <Genealogy>  (44) 
O=C([N-]c1ccc(C(=O)N2CCOCC2)cc1)c1cc([N+](=O)[O-])cc(S(=O)(=O)N2CCCCCC2)c1[O-] (protonated)
O=C([N-]c1ccc(C(=O)N2CCOCC2)cc1)c1cc([N+](=O)[O-])cc(S(=O)(=O)N2CCCCCC2)c1[O-] (3D coordinates assigned)
O=C([N-]c1ccc(C(=O)N2CCOCC2)cc1)c1cc([N+](=O)[O-])cc(S(=O)(=O)N2CCCCCC2)c1[O-] (nonaromatic ring conformer: 88.76885813179655 kcal/mol)

>  <smiles>  (44) 
O=C(Nc1ccc(C(=O)N2CCOCC2)cc1)c1cc([N+](=O)[O-])cc(S(=O)(=O)N2CCCCCC2)c1O

>  <score_type>  (44) 
oracle

>  <origin>  (44) 
adgpu

>  <m_score__min__energy>  (44) 
-11.09

>  <m_primary>  (44) 
energy

$$$$
44:0
     RDKit          3D

 59 63  0  0  0  0  0  0  0  0999 V2000
   -5.3200   26.0850  -30.7010 O   0  0  0  0  0  0  0  0  0  0  0  0
   -4.9080   24.8980  -30.7910 C   0  0  0  0  0  0  0  0  0  0  0  0
   -3.5310   24.6240  -30.5000 N   0  0  0  0  0  0  0  0  0  0  0  0
   -3.0590   23.6240  -29.5860 C   0  0  0  0  0  0  0  0  0  0  0  0
   -3.0130   22.2880  -30.0010 C   0  0  0  0  0  0  0  0  0  0  0  0
   -2.5490   21.2950  -29.1330 C   0  0  0  0  0  0  0  0  0  0  0  0
   -2.1490   21.6260  -27.8320 C   0  0  0  0  0  0  0  0  0  0  0  0
   -1.5730   20.3740  -26.7320 S   0  0  0  0  0  0  0  0  0  0  0  0
   -2.6540   19.3440  -26.5590 O   0  0  0  0  0  0  0  0  0  0  0  0
   -1.2730   20.9810  -25.3890 O   0  0  0  0  0  0  0  0  0  0  0  0
   -0.1400   19.6150  -27.3850 N   0  0  0  0  0  0  0  0  0  0  0  0
   -0.4760   18.2870  -27.9310 C   0  0  0  0  0  0  0  0  0  0  0  0
    0.5820   17.8340  -28.9510 C   0  0  0  0  0  0  0  0  0  0  0  0
    0.7220   18.7020  -30.0680 O   0  0  0  0  0  0  0  0  0  0  0  0
    0.2810   20.0300  -29.8210 C   0  0  0  0  0  0  0  0  0  0  0  0
    0.5260   20.4930  -28.3730 C   0  0  0  0  0  0  0  0  0  0  0  0
   -2.2330   22.9560  -27.4000 C   0  0  0  0  0  0  0  0  0  0  0  0
   -2.6800   23.9520  -28.2720 C   0  0  0  0  0  0  0  0  0  0  0  0
   -5.8620   23.8190  -31.1450 C   0  0  0  0  0  0  0  0  0  0  0  0
   -7.2340   23.9770  -30.8860 C   0  0  0  0  0  0  0  0  0  0  0  0
   -8.1390   22.9690  -31.2310 C   0  0  0  0  0  0  0  0  0  0  0  0
   -7.6840   21.7910  -31.8260 C   0  0  0  0  0  0  0  0  0  0  0  0
   -6.3170   21.6090  -32.0690 C   0  0  0  0  0  0  0  0  0  0  0  0
   -5.7600   20.1230  -32.8290 S   0  0  0  0  0  0  0  0  0  0  0  0
   -6.3340   20.0330  -34.2150 O   0  0  0  0  0  0  0  0  0  0  0  0
   -6.2060   18.9210  -32.0450 O   0  0  0  0  0  0  0  0  0  0  0  0
   -4.0310   20.1370  -32.9070 N   0  0  0  0  0  0  0  0  0  0  0  0
   -3.1650   18.9960  -32.6010 C   0  0  0  0  0  0  0  0  0  0  0  0
   -1.8010   19.4930  -32.9910 C   0  0  0  0  0  0  0  0  0  0  0  0
   -0.5810   18.8230  -32.9020 C   0  0  0  0  0  0  0  0  0  0  0  0
    0.5830   19.4860  -33.3330 C   0  0  0  0  0  0  0  0  0  0  0  0
    0.5080   20.7950  -33.8490 C   0  0  0  0  0  0  0  0  0  0  0  0
   -0.7290   21.4560  -33.9340 C   0  0  0  0  0  0  0  0  0  0  0  0
   -1.8640   20.7770  -33.4940 C   0  0  0  0  0  0  0  0  0  0  0  0
   -3.2430   21.1870  -33.4500 C   0  0  0  0  0  0  0  0  0  0  0  0
   -3.6990   22.2980  -33.8280 O   0  0  0  0  0  0  0  0  0  0  0  0
   -5.4090   22.6220  -31.7280 C   0  0  0  0  0  0  0  0  0  0  0  0
   -3.3435   22.0181  -31.0149 H   0  0  0  0  0  0  0  0  0  0  0  0
   -2.4979   20.2501  -29.4729 H   0  0  0  0  0  0  0  0  0  0  0  0
   -0.5188   17.5586  -27.1078 H   0  0  0  0  0  0  0  0  0  0  0  0
   -1.4507   18.3494  -28.4371 H   0  0  0  0  0  0  0  0  0  0  0  0
    1.5528   17.7730  -28.4374 H   0  0  0  0  0  0  0  0  0  0  0  0
    0.2471   16.8630  -29.3446 H   0  0  0  0  0  0  0  0  0  0  0  0
    0.8181   20.7084  -30.5002 H   0  0  0  0  0  0  0  0  0  0  0  0
   -0.8057   20.0495  -29.9901 H   0  0  0  0  0  0  0  0  0  0  0  0
    1.6086   20.4884  -28.1780 H   0  0  0  0  0  0  0  0  0  0  0  0
    0.1041   21.5032  -28.2655 H   0  0  0  0  0  0  0  0  0  0  0  0
   -1.9460   23.2171  -26.3707 H   0  0  0  0  0  0  0  0  0  0  0  0
   -2.7356   24.9959  -27.9297 H   0  0  0  0  0  0  0  0  0  0  0  0
   -7.5979   24.8990  -30.4091 H   0  0  0  0  0  0  0  0  0  0  0  0
   -9.2125   23.1044  -31.0331 H   0  0  0  0  0  0  0  0  0  0  0  0
   -8.4006   21.0043  -32.1045 H   0  0  0  0  0  0  0  0  0  0  0  0
   -3.2036   18.7462  -31.5304 H   0  0  0  0  0  0  0  0  0  0  0  0
   -3.4581   18.0757  -33.1275 H   0  0  0  0  0  0  0  0  0  0  0  0
   -0.5298   17.7989  -32.5037 H   0  0  0  0  0  0  0  0  0  0  0  0
    1.5571   18.9794  -33.2667 H   0  0  0  0  0  0  0  0  0  0  0  0
    1.4234   21.3025  -34.1873 H   0  0  0  0  0  0  0  0  0  0  0  0
   -0.7995   22.4777  -34.3354 H   0  0  0  0  0  0  0  0  0  0  0  0
   -4.3350   22.4793  -31.9179 H   0  0  0  0  0  0  0  0  0  0  0  0
  1  2  2  0
  2  3  1  0
  3  4  1  0
  4  5  2  0
  5  6  1  0
  6  7  2  0
  7  8  1  0
  8  9  2  0
  8 10  2  0
  8 11  1  0
 11 12  1  0
 12 13  1  0
 13 14  1  0
 14 15  1  0
 15 16  1  0
  7 17  1  0
 17 18  2  0
  2 19  1  0
 19 20  2  0
 20 21  1  0
 21 22  2  0
 22 23  1  0
 23 24  1  0
 24 25  2  0
 24 26  2  0
 24 27  1  0
 27 28  1  0
 28 29  1  0
 29 30  2  0
 30 31  1  0
 31 32  2  0
 32 33  1  0
 33 34  2  0
 34 35  1  0
 35 36  2  0
 23 37  2  0
 18  4  1  0
 37 19  1  0
 16 11  1  0
 35 27  1  0
 34 29  1  0
  5 38  1  0
  6 39  1  0
 12 40  1  0
 12 41  1  0
 13 42  1  0
 13 43  1  0
 15 44  1  0
 15 45  1  0
 16 46  1  0
 16 47  1  0
 17 48  1  0
 18 49  1  0
 20 50  1  0
 21 51  1  0
 22 52  1  0
 28 53  1  0
 28 54  1  0
 30 55  1  0
 31 56  1  0
 32 57  1  0
 33 58  1  0
 37 59  1  0
M  CHG  1   3  -1
M  END
>  <UniqueID>  (45) 
43

>  <SMILES>  (45) 
O=C([N-]c1ccc(S(=O)(=O)N2CCOCC2)cc1)c1cccc(S(=O)(=O)N2Cc3ccccc3C2=O)c1

>  <Energy>  (45) 
104.39322579808787

>  <Genealogy>  (45) 
O=C([N-]c1ccc(S(=O)(=O)N2CCOCC2)cc1)c1cccc(S(=O)(=O)N2Cc3ccccc3C2=O)c1 (protonated)
O=C([N-]c1ccc(S(=O)(=O)N2CCOCC2)cc1)c1cccc(S(=O)(=O)N2Cc3ccccc3C2=O)c1 (3D coordinates assigned)
O=C([N-]c1ccc(S(=O)(=O)N2CCOCC2)cc1)c1cccc(S(=O)(=O)N2Cc3ccccc3C2=O)c1 (nonaromatic ring conformer: 104.39322579808787 kcal/mol)

>  <smiles>  (45) 
O=C(Nc1ccc(S(=O)(=O)N2CCOCC2)cc1)c1cccc(S(=O)(=O)N2Cc3ccccc3C2=O)c1

>  <score_type>  (45) 
oracle

>  <origin>  (45) 
adgpu

>  <m_score__min__energy>  (45) 
-13.300000000000001

>  <m_primary>  (45) 
energy

$$$$
45:0
     RDKit          3D

 48 51  0  0  0  0  0  0  0  0999 V2000
   -5.4700   25.6640  -31.2130 O   0  0  0  0  0  0  0  0  0  0  0  0
   -5.1340   24.3800  -30.5080 S   0  0  0  0  0  0  0  0  0  0  0  0
   -5.4400   24.5250  -29.0440 O   0  0  0  0  0  0  0  0  0  0  0  0
   -3.4430   24.0450  -30.7070 N   0  0  0  0  0  0  0  0  0  0  0  0
   -2.7820   22.8760  -30.2030 C   0  0  0  0  0  0  0  0  0  0  0  0
   -1.6650   22.3130  -30.8450 C   0  0  0  0  0  0  0  0  0  0  0  0
   -1.0530   21.2160  -30.3220 N   0  0  0  0  0  0  0  0  0  0  0  0
   -1.4910   20.6290  -29.1760 C   0  0  0  0  0  0  0  0  0  0  0  0
   -0.8300   19.5070  -28.6650 C   0  0  0  0  0  0  0  0  0  0  0  0
   -1.2790   18.9100  -27.4810 C   0  0  0  0  0  0  0  0  0  0  0  0
   -2.3890   19.4310  -26.8080 C   0  0  0  0  0  0  0  0  0  0  0  0
   -3.0590   20.5490  -27.3160 C   0  0  0  0  0  0  0  0  0  0  0  0
   -2.6150   21.1550  -28.5010 C   0  0  0  0  0  0  0  0  0  0  0  0
   -3.2610   22.2780  -29.0330 C   0  0  0  0  0  0  0  0  0  0  0  0
   -6.0780   23.0740  -31.2210 C   0  0  0  0  0  0  0  0  0  0  0  0
   -7.4670   23.0730  -31.0840 C   0  0  0  0  0  0  0  0  0  0  0  0
   -8.2290   22.0750  -31.6910 C   0  0  0  0  0  0  0  0  0  0  0  0
   -7.6180   21.0700  -32.4480 C   0  0  0  0  0  0  0  0  0  0  0  0
   -8.4570   20.1440  -33.0700 O   0  0  0  0  0  0  0  0  0  0  0  0
   -6.2030   21.0440  -32.5690 C   0  0  0  0  0  0  0  0  0  0  0  0
   -5.3130   19.7760  -33.4400 S   0  0  0  0  0  0  0  0  0  0  0  0
   -3.9470   20.2570  -33.8410 O   0  0  0  0  0  0  0  0  0  0  0  0
   -6.0560   19.4810  -34.7150 O   0  0  0  0  0  0  0  0  0  0  0  0
   -5.1670   18.2890  -32.5220 N   0  0  0  0  0  0  0  0  0  0  0  0
   -6.0610   18.2450  -31.3510 C   0  0  0  0  0  0  0  0  0  0  0  0
   -7.5030   17.8110  -31.7060 C   0  0  0  0  0  0  0  0  0  0  0  0
   -7.6330   17.3400  -33.0320 O   0  0  0  0  0  0  0  0  0  0  0  0
   -6.6250   16.3940  -33.2980 C   0  0  0  0  0  0  0  0  0  0  0  0
   -5.2500   17.0790  -33.3680 C   0  0  0  0  0  0  0  0  0  0  0  0
   -5.4510   22.0560  -31.9470 C   0  0  0  0  0  0  0  0  0  0  0  0
   -1.2841   22.7614  -31.7744 H   0  0  0  0  0  0  0  0  0  0  0  0
    0.0421   19.0941  -29.1932 H   0  0  0  0  0  0  0  0  0  0  0  0
   -0.7575   18.0289  -27.0789 H   0  0  0  0  0  0  0  0  0  0  0  0
   -2.7361   18.9602  -25.8764 H   0  0  0  0  0  0  0  0  0  0  0  0
   -3.9342   20.9532  -26.7863 H   0  0  0  0  0  0  0  0  0  0  0  0
   -4.1475   22.6908  -28.5293 H   0  0  0  0  0  0  0  0  0  0  0  0
   -7.9614   23.8606  -30.4964 H   0  0  0  0  0  0  0  0  0  0  0  0
   -9.3227   22.0783  -31.5731 H   0  0  0  0  0  0  0  0  0  0  0  0
   -8.1310   19.3990  -33.6650 H   0  0  0  0  0  0  0  0  0  0  0  0
   -5.6494   17.5307  -30.6227 H   0  0  0  0  0  0  0  0  0  0  0  0
   -6.1161   19.2643  -30.9412 H   0  0  0  0  0  0  0  0  0  0  0  0
   -7.8053   17.0073  -31.0185 H   0  0  0  0  0  0  0  0  0  0  0  0
   -8.1442   18.6997  -31.6109 H   0  0  0  0  0  0  0  0  0  0  0  0
   -6.6142   15.6411  -32.4961 H   0  0  0  0  0  0  0  0  0  0  0  0
   -6.8334   15.9138  -34.2655 H   0  0  0  0  0  0  0  0  0  0  0  0
   -4.4840   16.3638  -33.0339 H   0  0  0  0  0  0  0  0  0  0  0  0
   -5.0898   17.3928  -34.4101 H   0  0  0  0  0  0  0  0  0  0  0  0
   -4.3544   22.0471  -32.0325 H   0  0  0  0  0  0  0  0  0  0  0  0
  1  2  2  0
  2  3  2  0
  2  4  1  0
  4  5  1  0
  5  6  2  0
  6  7  1  0
  7  8  2  0
  8  9  1  0
  9 10  2  0
 10 11  1  0
 11 12  2  0
 12 13  1  0
 13 14  2  0
  2 15  1  0
 15 16  2  0
 16 17  1  0
 17 18  2  0
 18 19  1  0
 18 20  1  0
 20 21  1  0
 21 22  2  0
 21 23  2  0
 21 24  1  0
 24 25  1  0
 25 26  1  0
 26 27  1  0
 27 28  1  0
 28 29  1  0
 20 30  2  0
 14  5  1  0
 30 15  1  0
 13  8  1  0
 29 24  1  0
  6 31  1  0
  9 32  1  0
 10 33  1  0
 11 34  1  0
 12 35  1  0
 14 36  1  0
 16 37  1  0
 17 38  1  0
 19 39  1  0
 25 40  1  0
 25 41  1  0
 26 42  1  0
 26 43  1  0
 28 44  1  0
 28 45  1  0
 29 46  1  0
 29 47  1  0
 30 48  1  0
M  CHG  1   4  -1
M  END
>  <UniqueID>  (46) 
44

>  <SMILES>  (46) 
O=S(=O)([N-]c1cnc2ccccc2c1)c1ccc(O)c(S(=O)(=O)N2CCOCC2)c1

>  <Energy>  (46) 
71.4490494841006

>  <Genealogy>  (46) 
O=S(=O)([N-]c1cnc2ccccc2c1)c1ccc(O)c(S(=O)(=O)N2CCOCC2)c1 (protonated)
O=S(=O)([N-]c1cnc2ccccc2c1)c1ccc(O)c(S(=O)(=O)N2CCOCC2)c1 (3D coordinates assigned)
O=S(=O)([N-]c1cnc2ccccc2c1)c1ccc(O)c(S(=O)(=O)N2CCOCC2)c1 (nonaromatic ring conformer: 71.4490494841006 kcal/mol)

>  <smiles>  (46) 
O=S(=O)(Nc1cnc2ccccc2c1)c1ccc(O)c(S(=O)(=O)N2CCOCC2)c1

>  <score_type>  (46) 
oracle

>  <origin>  (46) 
adgpu

>  <m_score__min__energy>  (46) 
-10.73

>  <m_primary>  (46) 
energy

$$$$
46:0
     RDKit          3D

 76 80  0  0  0  0  0  0  0  0999 V2000
    0.4820   17.5640  -28.5240 C   0  0  0  0  0  0  0  0  0  0  0  0
    0.0720   18.7420  -27.8390 O   0  0  0  0  0  0  0  0  0  0  0  0
   -0.9670   19.5840  -28.2620 C   0  0  0  0  0  0  0  0  0  0  0  0
   -2.0700   19.8890  -27.4410 C   0  0  0  0  0  0  0  0  0  0  0  0
   -3.0750   20.7480  -27.8970 C   0  0  0  0  0  0  0  0  0  0  0  0
   -2.9970   21.3100  -29.1810 C   0  0  0  0  0  0  0  0  0  0  0  0
   -4.0350   22.2480  -29.6600 C   0  0  0  0  0  0  0  0  0  0  0  0
   -4.9820   21.9290  -30.6110 C   0  0  0  0  0  0  0  0  0  0  0  0
   -5.7330   23.0690  -30.8180 C   0  0  0  0  0  0  0  0  0  0  0  0
   -6.8270   23.1880  -31.8030 C   0  0  0  0  0  0  0  0  0  0  0  0
   -6.7330   23.9980  -32.7600 O   0  0  0  0  0  0  0  0  0  0  0  0
   -8.0240   22.4160  -31.6540 N   0  0  0  0  0  0  0  0  0  0  0  0
   -8.0730   20.9960  -31.8450 C   0  0  0  0  0  0  0  0  0  0  0  0
   -9.0730   20.2230  -31.2320 C   0  0  0  0  0  0  0  0  0  0  0  0
   -9.1090   18.8410  -31.4250 C   0  0  0  0  0  0  0  0  0  0  0  0
   -8.1620   18.2240  -32.2420 C   0  0  0  0  0  0  0  0  0  0  0  0
   -7.1700   18.9860  -32.8740 C   0  0  0  0  0  0  0  0  0  0  0  0
   -6.0370   18.2150  -33.9880 S   0  0  0  0  0  0  0  0  0  0  0  0
   -6.4440   16.7830  -34.1970 O   0  0  0  0  0  0  0  0  0  0  0  0
   -6.0930   18.9160  -35.3170 O   0  0  0  0  0  0  0  0  0  0  0  0
   -4.4000   18.2660  -33.3690 N   0  0  0  0  0  0  0  0  0  0  0  0
   -4.1890   19.4310  -32.4740 C   0  0  0  0  0  0  0  0  0  0  0  0
   -3.4410   20.5830  -33.1590 C   0  0  0  0  0  0  0  0  0  0  0  0
   -2.0670   20.1310  -33.6850 C   0  0  0  0  0  0  0  0  0  0  0  0
   -2.0330   18.6380  -34.0530 C   0  0  0  0  0  0  0  0  0  0  0  0
   -3.4220   18.1470  -34.4730 C   0  0  0  0  0  0  0  0  0  0  0  0
   -7.1130   20.3710  -32.6500 C   0  0  0  0  0  0  0  0  0  0  0  0
   -5.2330   24.0410  -29.9610 C   0  0  0  0  0  0  0  0  0  0  0  0
   -5.7670   25.4410  -29.8310 C   0  0  0  0  0  0  0  0  0  0  0  0
   -4.1800   23.5370  -29.2680 N   0  0  0  0  0  0  0  0  0  0  0  0
   -3.3910   24.2160  -28.2740 C   0  0  0  0  0  0  0  0  0  0  0  0
   -3.9640   24.5900  -27.0520 C   0  0  0  0  0  0  0  0  0  0  0  0
   -3.2130   25.2920  -26.1070 C   0  0  0  0  0  0  0  0  0  0  0  0
   -1.8770   25.6440  -26.3800 C   0  0  0  0  0  0  0  0  0  0  0  0
   -1.0930   26.3590  -25.4600 O   0  0  0  0  0  0  0  0  0  0  0  0
   -0.8780   25.9650  -24.1090 C   0  0  0  0  0  0  0  0  0  0  0  0
   -1.2990   25.2810  -27.6070 C   0  0  0  0  0  0  0  0  0  0  0  0
    0.0290   25.6600  -27.8580 O   0  0  0  0  0  0  0  0  0  0  0  0
    1.1680   25.0450  -27.2640 C   0  0  0  0  0  0  0  0  0  0  0  0
   -2.0600   24.5620  -28.5470 C   0  0  0  0  0  0  0  0  0  0  0  0
   -1.9000   21.0040  -29.9980 C   0  0  0  0  0  0  0  0  0  0  0  0
   -0.8950   20.1450  -29.5440 C   0  0  0  0  0  0  0  0  0  0  0  0
    0.1850   19.8560  -30.3710 O   0  0  0  0  0  0  0  0  0  0  0  0
    0.7517   16.7890  -27.7915 H   0  0  0  0  0  0  0  0  0  0  0  0
   -0.3426   17.2010  -29.1550 H   0  0  0  0  0  0  0  0  0  0  0  0
    1.3538   17.7914  -29.1550 H   0  0  0  0  0  0  0  0  0  0  0  0
   -2.1414   19.4490  -26.4353 H   0  0  0  0  0  0  0  0  0  0  0  0
   -3.9302   20.9843  -27.2468 H   0  0  0  0  0  0  0  0  0  0  0  0
   -5.1132   20.9563  -31.1075 H   0  0  0  0  0  0  0  0  0  0  0  0
   -9.8298   20.7081  -30.5981 H   0  0  0  0  0  0  0  0  0  0  0  0
   -9.8855   18.2377  -30.9319 H   0  0  0  0  0  0  0  0  0  0  0  0
   -8.1938   17.1346  -32.3910 H   0  0  0  0  0  0  0  0  0  0  0  0
   -5.1703   19.7992  -32.1400 H   0  0  0  0  0  0  0  0  0  0  0  0
   -3.5703   19.0912  -31.6304 H   0  0  0  0  0  0  0  0  0  0  0  0
   -4.0441   20.9486  -34.0032 H   0  0  0  0  0  0  0  0  0  0  0  0
   -3.2812   21.3795  -32.4173 H   0  0  0  0  0  0  0  0  0  0  0  0
   -1.8225   20.7198  -34.5814 H   0  0  0  0  0  0  0  0  0  0  0  0
   -1.3345   20.2911  -32.8801 H   0  0  0  0  0  0  0  0  0  0  0  0
   -1.3308   18.4884  -34.8864 H   0  0  0  0  0  0  0  0  0  0  0  0
   -1.7097   18.0658  -33.1709 H   0  0  0  0  0  0  0  0  0  0  0  0
   -3.7707   18.7492  -35.3249 H   0  0  0  0  0  0  0  0  0  0  0  0
   -3.3422   17.0850  -34.7482 H   0  0  0  0  0  0  0  0  0  0  0  0
   -6.3107   20.9675  -33.1089 H   0  0  0  0  0  0  0  0  0  0  0  0
   -5.8652   25.6985  -28.7661 H   0  0  0  0  0  0  0  0  0  0  0  0
   -5.0740   26.1443  -30.3159 H   0  0  0  0  0  0  0  0  0  0  0  0
   -6.7523   25.5041  -30.3159 H   0  0  0  0  0  0  0  0  0  0  0  0
   -5.0106   24.3295  -26.8356 H   0  0  0  0  0  0  0  0  0  0  0  0
   -3.6670   25.5714  -25.1448 H   0  0  0  0  0  0  0  0  0  0  0  0
   -1.2941   26.7275  -23.4341 H   0  0  0  0  0  0  0  0  0  0  0  0
   -1.3753   25.0013  -23.9245 H   0  0  0  0  0  0  0  0  0  0  0  0
    0.2015   25.8618  -23.9245 H   0  0  0  0  0  0  0  0  0  0  0  0
    1.0806   25.0922  -26.1685 H   0  0  0  0  0  0  0  0  0  0  0  0
    1.2248   23.9936  -27.5824 H   0  0  0  0  0  0  0  0  0  0  0  0
    2.0783   25.5742  -27.5824 H   0  0  0  0  0  0  0  0  0  0  0  0
   -1.6064   24.2686  -29.5052 H   0  0  0  0  0  0  0  0  0  0  0  0
   -1.8294   21.4431  -31.0041 H   0  0  0  0  0  0  0  0  0  0  0  0
  1  2  1  0
  2  3  1  0
  3  4  2  0
  4  5  1  0
  5  6  2  0
  6  7  1  0
  7  8  2  0
  8  9  1  0
  9 10  1  0
 10 11  2  0
 10 12  1  0
 12 13  1  0
 13 14  2  0
 14 15  1  0
 15 16  2  0
 16 17  1  0
 17 18  1  0
 18 19  2  0
 18 20  2  0
 18 21  1  0
 21 22  1  0
 22 23  1  0
 23 24  1  0
 24 25  1  0
 25 26  1  0
 17 27  2  0
  9 28  2  0
 28 29  1  0
 28 30  1  0
 30 31  1  0
 31 32  2  0
 32 33  1  0
 33 34  2  0
 34 35  1  0
 35 36  1  0
 34 37  1  0
 37 38  1  0
 38 39  1  0
 37 40  2  0
  6 41  1  0
 41 42  2  0
 42 43  1  0
 42  3  1  0
 30  7  1  0
 40 31  1  0
 27 13  1  0
 26 21  1  0
  1 44  1  0
  1 45  1  0
  1 46  1  0
  4 47  1  0
  5 48  1  0
  8 49  1  0
 14 50  1  0
 15 51  1  0
 16 52  1  0
 22 53  1  0
 22 54  1  0
 23 55  1  0
 23 56  1  0
 24 57  1  0
 24 58  1  0
 25 59  1  0
 25 60  1  0
 26 61  1  0
 26 62  1  0
 27 63  1  0
 29 64  1  0
 29 65  1  0
 29 66  1  0
 32 67  1  0
 33 68  1  0
 36 69  1  0
 36 70  1  0
 36 71  1  0
 39 72  1  0
 39 73  1  0
 39 74  1  0
 40 75  1  0
 41 76  1  0
M  CHG  2  12  -1  43  -1
M  END
>  <UniqueID>  (47) 
45

>  <SMILES>  (47) 
COc1ccc(-c2cc(C(=O)[N-]c3cccc(S(=O)(=O)N4CCCCC4)c3)c(C)n2-c2ccc(OC)c(OC)c2)cc1[O-]

>  <Energy>  (47) 
122.38114577701806

>  <Genealogy>  (47) 
COc1ccc(-c2cc(C(=O)[N-]c3cccc(S(=O)(=O)N4CCCCC4)c3)c(C)n2-c2ccc(OC)c(OC)c2)cc1[O-] (protonated)
COc1ccc(-c2cc(C(=O)[N-]c3cccc(S(=O)(=O)N4CCCCC4)c3)c(C)n2-c2ccc(OC)c(OC)c2)cc1[O-] (3D coordinates assigned)
COc1ccc(-c2cc(C(=O)[N-]c3cccc(S(=O)(=O)N4CCCCC4)c3)c(C)n2-c2ccc(OC)c(OC)c2)cc1[O-] (nonaromatic ring conformer: 122.38114577701806 kcal/mol)

>  <smiles>  (47) 
COc1ccc(-c2cc(C(=O)Nc3cccc(S(=O)(=O)N4CCCCC4)c3)c(C)n2-c2ccc(OC)c(OC)c2)cc1O

>  <score_type>  (47) 
oracle

>  <origin>  (47) 
adgpu

>  <m_score__min__energy>  (47) 
-14

>  <m_primary>  (47) 
energy

$$$$
47:0
     RDKit          3D

 46 49  0  0  0  0  0  0  0  0999 V2000
   -6.2720   14.8730  -34.2300 C   0  0  0  0  0  0  0  0  0  0  0  0
   -6.0000   16.2860  -33.8060 C   0  0  0  0  0  0  0  0  0  0  0  0
   -5.7330   17.2780  -34.7610 C   0  0  0  0  0  0  0  0  0  0  0  0
   -5.4500   18.5870  -34.3580 C   0  0  0  0  0  0  0  0  0  0  0  0
   -5.4060   18.9150  -32.9960 C   0  0  0  0  0  0  0  0  0  0  0  0
   -5.1340   20.2660  -32.5950 N   0  0  0  0  0  0  0  0  0  0  0  0
   -3.9150   20.7860  -32.6100 N   0  0  0  0  0  0  0  0  0  0  0  0
   -4.0070   22.0810  -32.2460 C   0  0  0  0  0  0  0  0  0  0  0  0
   -5.3270   22.3910  -31.9810 C   0  0  0  0  0  0  0  0  0  0  0  0
   -5.8220   23.6700  -31.4510 C   0  0  0  0  0  0  0  0  0  0  0  0
   -6.3850   24.4750  -32.2370 O   0  0  0  0  0  0  0  0  0  0  0  0
   -5.6240   24.0580  -30.0840 N   0  0  0  0  0  0  0  0  0  0  0  0
   -5.0120   23.2410  -29.0390 C   0  0  0  0  0  0  0  0  0  0  0  0
   -3.5460   23.5570  -28.8850 C   0  0  0  0  0  0  0  0  0  0  0  0
   -2.6560   22.5740  -28.4250 C   0  0  0  0  0  0  0  0  0  0  0  0
   -1.3020   22.8750  -28.2500 C   0  0  0  0  0  0  0  0  0  0  0  0
   -0.8250   24.1590  -28.5380 C   0  0  0  0  0  0  0  0  0  0  0  0
    0.5210   24.4540  -28.3560 O   0  0  0  0  0  0  0  0  0  0  0  0
   -1.7040   25.1420  -29.0080 C   0  0  0  0  0  0  0  0  0  0  0  0
   -1.2370   26.4190  -29.2950 O   0  0  0  0  0  0  0  0  0  0  0  0
   -3.0580   24.8400  -29.1890 C   0  0  0  0  0  0  0  0  0  0  0  0
   -6.0190   21.2170  -32.2140 C   0  0  0  0  0  0  0  0  0  0  0  0
   -7.4290   21.0130  -32.0320 N   0  0  0  0  0  0  0  0  0  0  0  0
   -8.2340   21.6860  -31.1850 C   0  0  0  0  0  0  0  0  0  0  0  0
   -9.5340   21.2490  -31.3310 C   0  0  0  0  0  0  0  0  0  0  0  0
   -9.5150   20.2740  -32.3100 C   0  0  0  0  0  0  0  0  0  0  0  0
   -8.2050   20.1570  -32.7250 C   0  0  0  0  0  0  0  0  0  0  0  0
   -5.6770   17.9230  -32.0400 C   0  0  0  0  0  0  0  0  0  0  0  0
   -5.9600   16.6140  -32.4430 C   0  0  0  0  0  0  0  0  0  0  0  0
   -6.3939   14.2398  -33.3388 H   0  0  0  0  0  0  0  0  0  0  0  0
   -7.1927   14.8413  -34.8310 H   0  0  0  0  0  0  0  0  0  0  0  0
   -5.4288   14.5018  -34.8310 H   0  0  0  0  0  0  0  0  0  0  0  0
   -5.7463   17.0253  -35.8315 H   0  0  0  0  0  0  0  0  0  0  0  0
   -5.2609   19.3633  -35.1140 H   0  0  0  0  0  0  0  0  0  0  0  0
   -3.1624   22.7817  -32.1716 H   0  0  0  0  0  0  0  0  0  0  0  0
   -5.5231   23.4376  -28.0850 H   0  0  0  0  0  0  0  0  0  0  0  0
   -5.1112   22.1829  -29.3227 H   0  0  0  0  0  0  0  0  0  0  0  0
   -3.0254   21.5624  -28.2012 H   0  0  0  0  0  0  0  0  0  0  0  0
   -0.6103   22.1014  -27.8853 H   0  0  0  0  0  0  0  0  0  0  0  0
   -3.7442   25.6102  -29.5711 H   0  0  0  0  0  0  0  0  0  0  0  0
   -7.9036   22.4660  -30.4833 H   0  0  0  0  0  0  0  0  0  0  0  0
  -10.4140   21.6067  -30.7764 H   0  0  0  0  0  0  0  0  0  0  0  0
  -10.3768   19.7025  -32.6852 H   0  0  0  0  0  0  0  0  0  0  0  0
   -7.8474   19.4683  -33.5046 H   0  0  0  0  0  0  0  0  0  0  0  0
   -5.6667   18.1764  -30.9696 H   0  0  0  0  0  0  0  0  0  0  0  0
   -6.1521   15.8380  -31.6874 H   0  0  0  0  0  0  0  0  0  0  0  0
  1  2  1  0
  2  3  2  0
  3  4  1  0
  4  5  2  0
  5  6  1  0
  6  7  1  0
  7  8  2  0
  8  9  1  0
  9 10  1  0
 10 11  2  0
 10 12  1  0
 12 13  1  0
 13 14  1  0
 14 15  2  0
 15 16  1  0
 16 17  2  0
 17 18  1  0
 17 19  1  0
 19 20  1  0
 19 21  2  0
  9 22  2  0
 22 23  1  0
 23 24  1  0
 24 25  2  0
 25 26  1  0
 26 27  2  0
  5 28  1  0
 28 29  2  0
 29  2  1  0
 22  6  1  0
 27 23  1  0
 21 14  1  0
  1 30  1  0
  1 31  1  0
  1 32  1  0
  3 33  1  0
  4 34  1  0
  8 35  1  0
 13 36  1  0
 13 37  1  0
 15 38  1  0
 16 39  1  0
 21 40  1  0
 24 41  1  0
 25 42  1  0
 26 43  1  0
 27 44  1  0
 28 45  1  0
 29 46  1  0
M  CHG  3  12  -1  18  -1  20  -1
M  END
>  <UniqueID>  (48) 
46

>  <SMILES>  (48) 
Cc1ccc(-n2ncc(C(=O)[N-]Cc3ccc([O-])c([O-])c3)c2-n2cccc2)cc1

>  <Energy>  (48) 
115.86956016231277

>  <Genealogy>  (48) 
Cc1ccc(-n2ncc(C(=O)[N-]Cc3ccc([O-])c([O-])c3)c2-n2cccc2)cc1 (protonated)
Cc1ccc(-n2ncc(C(=O)[N-]Cc3ccc([O-])c([O-])c3)c2-n2cccc2)cc1 (3D coordinates assigned)
Cc1ccc(-n2ncc(C(=O)[N-]Cc3ccc([O-])c([O-])c3)c2-n2cccc2)cc1 (optimized conformer: 115.86956016231277 kcal/mol)

>  <smiles>  (48) 
Cc1ccc(-n2ncc(C(=O)NCc3ccc(O)c(O)c3)c2-n2cccc2)cc1

>  <score_type>  (48) 
oracle

>  <origin>  (48) 
adgpu

>  <m_score__min__energy>  (48) 
-13.199999999999999

>  <m_primary>  (48) 
energy

$$$$
48:0
     RDKit          3D

 52 54  0  0  0  0  0  0  0  0999 V2000
   -7.6730   21.7560  -32.2190 C   0  0  0  0  0  0  0  0  0  0  0  0
   -6.5740   22.7450  -31.7880 C   0  0  1  0  0  0  0  0  0  0  0  0
   -6.8100   23.2760  -30.4320 N   0  0  0  0  0  0  0  0  0  0  0  0
   -5.6530   24.5050  -30.0000 S   0  0  0  0  0  0  0  0  0  0  0  0
   -4.5180   23.8750  -28.7850 C   0  0  0  0  0  0  0  0  0  0  0  0
   -6.3900   25.6760  -29.4080 O   0  0  0  0  0  0  0  0  0  0  0  0
   -4.8910   24.9650  -31.2170 O   0  0  0  0  0  0  0  0  0  0  0  0
   -5.2150   22.0770  -31.8230 C   0  0  0  0  0  0  0  0  0  0  0  0
   -4.2350   22.5080  -32.7310 C   0  0  0  0  0  0  0  0  0  0  0  0
   -2.9680   21.9200  -32.7410 C   0  0  0  0  0  0  0  0  0  0  0  0
   -2.6660   20.8790  -31.8490 C   0  0  0  0  0  0  0  0  0  0  0  0
   -1.0780   20.1170  -31.8570 S   0  0  0  0  0  0  0  0  0  0  0  0
   -1.2670   18.6920  -31.4030 O   0  0  0  0  0  0  0  0  0  0  0  0
   -0.1460   20.7930  -30.8840 O   0  0  0  0  0  0  0  0  0  0  0  0
   -0.3560   20.1530  -33.4820 C   0  0  0  0  0  0  0  0  0  0  0  0
    0.3250   21.3230  -33.8650 C   0  0  0  0  0  0  0  0  0  0  0  0
    0.9390   21.4220  -35.1120 C   0  0  0  0  0  0  0  0  0  0  0  0
    0.8890   20.3540  -35.9990 C   0  0  0  0  0  0  0  0  0  0  0  0
    1.5120   20.4490  -37.2370 O   0  0  0  0  0  0  0  0  0  0  0  0
    0.2120   19.1870  -35.6460 C   0  0  0  0  0  0  0  0  0  0  0  0
   -0.4330   19.0700  -34.4030 C   0  0  0  0  0  0  0  0  0  0  0  0
   -1.2720   17.5400  -34.0590 S   0  0  0  0  0  0  0  0  0  0  0  0
   -1.1670   16.6370  -35.2560 O   0  0  0  0  0  0  0  0  0  0  0  0
   -0.6820   16.8460  -32.8670 O   0  0  0  0  0  0  0  0  0  0  0  0
   -2.9680   17.8270  -33.6800 C   0  0  0  0  0  0  0  0  0  0  0  0
   -3.6640   16.9050  -32.8830 C   0  0  0  0  0  0  0  0  0  0  0  0
   -5.0170   17.1030  -32.5930 C   0  0  0  0  0  0  0  0  0  0  0  0
   -5.6820   18.2260  -33.0970 C   0  0  0  0  0  0  0  0  0  0  0  0
   -7.3840   18.4720  -32.7360 Cl  0  0  0  0  0  0  0  0  0  0  0  0
   -4.9890   19.1510  -33.8870 C   0  0  0  0  0  0  0  0  0  0  0  0
   -3.6350   18.9570  -34.1750 C   0  0  0  0  0  0  0  0  0  0  0  0
   -3.6330   20.4530  -30.9320 C   0  0  0  0  0  0  0  0  0  0  0  0
   -4.8970   21.0490  -30.9180 C   0  0  0  0  0  0  0  0  0  0  0  0
   -8.1504   21.3264  -31.3260 H   0  0  0  0  0  0  0  0  0  0  0  0
   -8.4276   22.2852  -32.8194 H   0  0  0  0  0  0  0  0  0  0  0  0
   -7.2260   20.9500  -32.8194 H   0  0  0  0  0  0  0  0  0  0  0  0
   -6.6013   23.5821  -32.5011 H   0  0  0  0  0  0  0  0  0  0  0  0
   -7.7680   23.6870  -30.3530 H   0  0  0  0  0  0  0  0  0  0  0  0
   -4.9036   24.0890  -27.7773 H   0  0  0  0  0  0  0  0  0  0  0  0
   -4.4100   22.7878  -28.9130 H   0  0  0  0  0  0  0  0  0  0  0  0
   -3.5382   24.3584  -28.9130 H   0  0  0  0  0  0  0  0  0  0  0  0
   -4.4668   23.3158  -33.4408 H   0  0  0  0  0  0  0  0  0  0  0  0
   -2.2048   22.2737  -33.4498 H   0  0  0  0  0  0  0  0  0  0  0  0
    0.3735   22.1733  -33.1689 H   0  0  0  0  0  0  0  0  0  0  0  0
    1.4637   22.3466  -35.3943 H   0  0  0  0  0  0  0  0  0  0  0  0
    0.1824   18.3442  -36.3522 H   0  0  0  0  0  0  0  0  0  0  0  0
   -3.1423   16.0223  -32.4846 H   0  0  0  0  0  0  0  0  0  0  0  0
   -5.5584   16.3766  -31.9691 H   0  0  0  0  0  0  0  0  0  0  0  0
   -5.5121   20.0340  -34.2827 H   0  0  0  0  0  0  0  0  0  0  0  0
   -3.0928   19.6905  -34.7898 H   0  0  0  0  0  0  0  0  0  0  0  0
   -3.3980   19.6475  -30.2207 H   0  0  0  0  0  0  0  0  0  0  0  0
   -5.6506   20.7105  -30.1917 H   0  0  0  0  0  0  0  0  0  0  0  0
  1  2  1  0
  2  3  1  0
  3  4  1  0
  4  5  1  0
  4  6  2  0
  4  7  2  0
  2  8  1  0
  8  9  2  0
  9 10  1  0
 10 11  2  0
 11 12  1  0
 12 13  2  0
 12 14  2  0
 12 15  1  0
 15 16  2  0
 16 17  1  0
 17 18  2  0
 18 19  1  0
 18 20  1  0
 20 21  2  0
 21 22  1  0
 22 23  2  0
 22 24  2  0
 22 25  1  0
 25 26  2  0
 26 27  1  0
 27 28  2  0
 28 29  1  0
 28 30  1  0
 30 31  2  0
 11 32  1  0
 32 33  2  0
 33  8  1  0
 21 15  1  0
 31 25  1  0
  1 34  1  0
  1 35  1  0
  1 36  1  0
  2 37  1  6
  3 38  1  0
  5 39  1  0
  5 40  1  0
  5 41  1  0
  9 42  1  0
 10 43  1  0
 16 44  1  0
 17 45  1  0
 20 46  1  0
 26 47  1  0
 27 48  1  0
 30 49  1  0
 31 50  1  0
 32 51  1  0
 33 52  1  0
M  CHG  1  19  -1
M  END
>  <UniqueID>  (49) 
47

>  <SMILES>  (49) 
C[C@@H](NS(C)(=O)=O)c1ccc(S(=O)(=O)c2ccc([O-])cc2S(=O)(=O)c2ccc(Cl)cc2)cc1

>  <Energy>  (49) 
57.463090376165766

>  <Genealogy>  (49) 
CC(NS(C)(=O)=O)c1ccc(S(=O)(=O)c2ccc([O-])cc2S(=O)(=O)c2ccc(Cl)cc2)cc1 (protonated)
C[C@@H](NS(C)(=O)=O)c1ccc(S(=O)(=O)c2ccc([O-])cc2S(=O)(=O)c2ccc(Cl)cc2)cc1 (chirality)
C[C@@H](NS(C)(=O)=O)c1ccc(S(=O)(=O)c2ccc([O-])cc2S(=O)(=O)c2ccc(Cl)cc2)cc1 (3D coordinates assigned)
C[C@@H](NS(C)(=O)=O)c1ccc(S(=O)(=O)c2ccc([O-])cc2S(=O)(=O)c2ccc(Cl)cc2)cc1 (optimized conformer: 57.463090376165766 kcal/mol)

>  <smiles>  (49) 
CC(NS(C)(=O)=O)c1ccc(S(=O)(=O)c2ccc(O)cc2S(=O)(=O)c2ccc(Cl)cc2)cc1

>  <score_type>  (49) 
oracle

>  <origin>  (49) 
adgpu

>  <m_score__min__energy>  (49) 
-10.380000000000001

>  <m_primary>  (49) 
energy

$$$$
49:0
     RDKit          3D

 48 51  0  0  0  0  0  0  0  0999 V2000
   -3.5030   20.4240  -31.2630 O   0  0  0  0  0  0  0  0  0  0  0  0
   -2.7260   21.3210  -31.6890 C   0  0  0  0  0  0  0  0  0  0  0  0
   -3.0710   22.7080  -31.5230 N   0  0  0  0  0  0  0  0  0  0  0  0
   -4.3930   23.1650  -31.1840 C   0  0  0  0  0  0  0  0  0  0  0  0
   -5.5190   22.3520  -31.4070 C   0  0  0  0  0  0  0  0  0  0  0  0
   -6.8060   22.8180  -31.1070 C   0  0  0  0  0  0  0  0  0  0  0  0
   -8.2150   21.7980  -31.4140 S   0  0  0  0  0  0  0  0  0  0  0  0
   -9.1600   22.5220  -32.3330 O   0  0  0  0  0  0  0  0  0  0  0  0
   -8.9330   21.5440  -30.1170 O   0  0  0  0  0  0  0  0  0  0  0  0
   -7.7590   20.2730  -32.1380 N   0  0  0  0  0  0  0  0  0  0  0  0
   -7.2110   20.4590  -33.5050 C   0  0  0  0  0  0  0  0  0  0  0  0
   -5.6810   20.3380  -33.5590 C   0  0  0  0  0  0  0  0  0  0  0  0
   -5.2140   18.9670  -33.0410 C   0  0  0  0  0  0  0  0  0  0  0  0
   -6.1440   18.3910  -31.9580 C   0  0  0  0  0  0  0  0  0  0  0  0
   -6.8880   19.5070  -31.2210 C   0  0  0  0  0  0  0  0  0  0  0  0
   -6.9700   24.1050  -30.5790 C   0  0  0  0  0  0  0  0  0  0  0  0
   -5.8590   24.9250  -30.3720 C   0  0  0  0  0  0  0  0  0  0  0  0
   -4.5760   24.4640  -30.6780 C   0  0  0  0  0  0  0  0  0  0  0  0
   -3.4840   25.2980  -30.4650 O   0  0  0  0  0  0  0  0  0  0  0  0
   -1.4450   20.9410  -32.3240 C   0  0  0  0  0  0  0  0  0  0  0  0
   -0.5730   20.0230  -31.7140 C   0  0  0  0  0  0  0  0  0  0  0  0
    0.5940   19.6920  -32.3280 N   0  0  0  0  0  0  0  0  0  0  0  0
    0.9370   20.2320  -33.5270 C   0  0  0  0  0  0  0  0  0  0  0  0
    2.1400   19.8830  -34.1500 C   0  0  0  0  0  0  0  0  0  0  0  0
    2.4740   20.4500  -35.3850 C   0  0  0  0  0  0  0  0  0  0  0  0
    1.6070   21.3620  -35.9980 C   0  0  0  0  0  0  0  0  0  0  0  0
    0.4020   21.7140  -35.3790 C   0  0  0  0  0  0  0  0  0  0  0  0
    0.0640   21.1500  -34.1430 C   0  0  0  0  0  0  0  0  0  0  0  0
   -1.1010   21.4780  -33.5260 N   0  0  0  0  0  0  0  0  0  0  0  0
   -2.3070   23.4170  -31.5800 H   0  0  0  0  0  0  0  0  0  0  0  0
   -5.3881   21.3412  -31.8207 H   0  0  0  0  0  0  0  0  0  0  0  0
   -7.6467   19.6941  -34.1645 H   0  0  0  0  0  0  0  0  0  0  0  0
   -7.4725   21.4772  -33.8289 H   0  0  0  0  0  0  0  0  0  0  0  0
   -5.3476   20.4610  -34.6000 H   0  0  0  0  0  0  0  0  0  0  0  0
   -5.2465   21.1195  -32.9183 H   0  0  0  0  0  0  0  0  0  0  0  0
   -5.1814   18.2642  -33.8866 H   0  0  0  0  0  0  0  0  0  0  0  0
   -4.2216   19.1047  -32.5868 H   0  0  0  0  0  0  0  0  0  0  0  0
   -6.8775   17.7226  -32.4326 H   0  0  0  0  0  0  0  0  0  0  0  0
   -5.5323   17.8384  -31.2297 H   0  0  0  0  0  0  0  0  0  0  0  0
   -7.5071   19.0614  -30.4284 H   0  0  0  0  0  0  0  0  0  0  0  0
   -6.1438   20.1959  -30.7949 H   0  0  0  0  0  0  0  0  0  0  0  0
   -7.9764   24.4705  -30.3269 H   0  0  0  0  0  0  0  0  0  0  0  0
   -5.9944   25.9384  -29.9662 H   0  0  0  0  0  0  0  0  0  0  0  0
   -0.8335   19.5743  -30.7441 H   0  0  0  0  0  0  0  0  0  0  0  0
    2.8214   19.1649  -33.6704 H   0  0  0  0  0  0  0  0  0  0  0  0
    3.4204   20.1783  -35.8753 H   0  0  0  0  0  0  0  0  0  0  0  0
    1.8736   21.8036  -36.9696 H   0  0  0  0  0  0  0  0  0  0  0  0
   -0.2774   22.4316  -35.8622 H   0  0  0  0  0  0  0  0  0  0  0  0
  1  2  2  0
  2  3  1  0
  3  4  1  0
  4  5  2  0
  5  6  1  0
  6  7  1  0
  7  8  2  0
  7  9  2  0
  7 10  1  0
 10 11  1  0
 11 12  1  0
 12 13  1  0
 13 14  1  0
 14 15  1  0
  6 16  2  0
 16 17  1  0
 17 18  2  0
 18 19  1  0
  2 20  1  0
 20 21  2  0
 21 22  1  0
 22 23  2  0
 23 24  1  0
 24 25  2  0
 25 26  1  0
 26 27  2  0
 27 28  1  0
 28 29  2  0
 18  4  1  0
 29 20  1  0
 15 10  1  0
 28 23  1  0
  3 30  1  0
  5 31  1  0
 11 32  1  0
 11 33  1  0
 12 34  1  0
 12 35  1  0
 13 36  1  0
 13 37  1  0
 14 38  1  0
 14 39  1  0
 15 40  1  0
 15 41  1  0
 16 42  1  0
 17 43  1  0
 21 44  1  0
 24 45  1  0
 25 46  1  0
 26 47  1  0
 27 48  1  0
M  CHG  1  19  -1
M  END
>  <UniqueID>  (50) 
48

>  <SMILES>  (50) 
O=C(Nc1cc(S(=O)(=O)N2CCCCC2)ccc1[O-])c1cnc2ccccc2n1

>  <Energy>  (50) 
64.00908592966222

>  <Genealogy>  (50) 
O=C(Nc1cc(S(=O)(=O)N2CCCCC2)ccc1[O-])c1cnc2ccccc2n1 (protonated)
O=C(Nc1cc(S(=O)(=O)N2CCCCC2)ccc1[O-])c1cnc2ccccc2n1 (3D coordinates assigned)
O=C(Nc1cc(S(=O)(=O)N2CCCCC2)ccc1[O-])c1cnc2ccccc2n1 (nonaromatic ring conformer: 64.00908592966222 kcal/mol)

>  <smiles>  (50) 
O=C(Nc1cc(S(=O)(=O)N2CCCCC2)ccc1O)c1cnc2ccccc2n1

>  <score_type>  (50) 
oracle

>  <origin>  (50) 
adgpu

>  <m_score__min__energy>  (50) 
-12.67

>  <m_primary>  (50) 
energy

$$$$
