0:0
     RDKit          3D

 34 35  0  0  0  0  0  0  0  0999 V2000
   -5.7440   23.9360  -28.2960 H   0  0  0  0  0  0  0  0  0  0  0  0
   -4.9710   23.3350  -28.6600 N   0  0  0  0  0  0  0  0  0  0  0  0
   -3.7240   23.5870  -28.4080 C   0  0  0  0  0  0  0  0  0  0  0  0
   -2.7090   22.7510  -28.9140 C   0  0  0  0  0  0  0  0  0  0  0  0
   -3.0170   21.5170  -29.7200 C   0  0  0  0  0  0  0  0  0  0  0  0
   -2.0962   21.1632  -30.2068 H   0  0  0  0  0  0  0  0  0  0  0  0
   -3.4116   20.7413  -29.0473 H   0  0  0  0  0  0  0  0  0  0  0  0
   -4.0200   21.8120  -30.7430 N   0  0  0  0  0  0  0  0  0  0  0  0
   -4.9730   22.1200  -30.4410 H   0  0  0  0  0  0  0  0  0  0  0  0
   -3.7700   21.6370  -32.1480 C   0  0  0  0  0  0  0  0  0  0  0  0
   -2.2340   21.5350  -32.7180 S   0  0  0  0  0  0  0  0  0  0  0  0
   -4.8590   21.6090  -33.0850 N   0  0  0  0  0  0  0  0  0  0  0  0
   -4.6560   21.8160  -34.0900 H   0  0  0  0  0  0  0  0  0  0  0  0
   -6.2330   21.4990  -32.6870 C   0  0  0  0  0  0  0  0  0  0  0  0
   -6.9210   22.6670  -32.3320 C   0  0  0  0  0  0  0  0  0  0  0  0
   -6.4153   23.6411  -32.4060 H   0  0  0  0  0  0  0  0  0  0  0  0
   -8.2400   22.6060  -31.8860 C   0  0  0  0  0  0  0  0  0  0  0  0
   -8.7693   23.5295  -31.6086 H   0  0  0  0  0  0  0  0  0  0  0  0
   -8.8890   21.3770  -31.7910 C   0  0  0  0  0  0  0  0  0  0  0  0
   -9.9230   21.3320  -31.4183 H   0  0  0  0  0  0  0  0  0  0  0  0
   -8.2330   20.1990  -32.1670 C   0  0  0  0  0  0  0  0  0  0  0  0
   -9.1070   18.6780  -32.0060 Cl  0  0  0  0  0  0  0  0  0  0  0  0
   -6.9070   20.2500  -32.6550 C   0  0  0  0  0  0  0  0  0  0  0  0
   -6.2280   18.9830  -33.1170 C   0  0  0  0  0  0  0  0  0  0  0  0
   -5.9132   18.3956  -32.2418 H   0  0  0  0  0  0  0  0  0  0  0  0
   -6.9297   18.3909  -33.7229 H   0  0  0  0  0  0  0  0  0  0  0  0
   -5.3464   19.2394  -33.7229 H   0  0  0  0  0  0  0  0  0  0  0  0
   -1.4130   23.0260  -28.6030 N   0  0  0  0  0  0  0  0  0  0  0  0
   -1.0760   24.0970  -27.8410 C   0  0  0  0  0  0  0  0  0  0  0  0
    0.6080   24.4100  -27.4700 Cl  0  0  0  0  0  0  0  0  0  0  0  0
   -2.0780   24.9350  -27.3550 C   0  0  0  0  0  0  0  0  0  0  0  0
   -1.8181   25.8096  -26.7405 H   0  0  0  0  0  0  0  0  0  0  0  0
   -3.3790   24.6650  -27.6450 N   0  0  0  0  0  0  0  0  0  0  0  0
   -4.1170   25.3000  -27.2650 H   0  0  0  0  0  0  0  0  0  0  0  0
  1  2  1  0
  2  3  2  0
  3  4  1  0
  4  5  1  0
  5  6  1  0
  5  7  1  0
  5  8  1  0
  8  9  1  0
  8 10  1  0
 10 11  2  0
 10 12  1  0
 12 13  1  0
 12 14  1  0
 14 15  2  0
 15 16  1  0
 15 17  1  0
 17 18  1  0
 17 19  2  0
 19 20  1  0
 19 21  1  0
 21 22  1  0
 21 23  2  0
 23 24  1  0
 24 25  1  0
 24 26  1  0
 24 27  1  0
  4 28  2  0
 28 29  1  0
 29 30  1  0
 29 31  2  0
 31 32  1  0
 31 33  1  0
 33 34  1  0
 33  3  1  0
 23 14  1  0
M  END
>  <UniqueID>  (1) 
1

>  <SMILES>  (1) 
[H]/N=c1\[nH]cc(Cl)nc1CNC(=S)Nc1cccc(Cl)c1C

>  <Energy>  (1) 
41.683648631803756

>  <Genealogy>  (1) 
[H]/N=c1\[nH]cc(Cl)nc1CNC(=S)Nc1cccc(Cl)c1C (cis-trans isomerization)
[H]/N=c1\[nH]cc(Cl)nc1CNC(=S)Nc1cccc(Cl)c1C (3D coordinates assigned)
[H]/N=c1\[nH]cc(Cl)nc1CNC(=S)Nc1cccc(Cl)c1C (optimized conformer: 41.683648631803756 kcal/mol)

>  <smiles>  (1) 
Cc1c(Cl)cccc1NC(=S)NCc1nc(Cl)c[nH]c1=N

>  <score_type>  (1) 
oracle

>  <origin>  (1) 
adgpu

>  <m_score__min__energy>  (1) 
-8.2899999999999991

>  <m_primary>  (1) 
energy

$$$$
1:0
     RDKit          3D

 43 45  0  0  0  0  0  0  0  0999 V2000
   -0.1840   23.4910  -24.5510 C   0  0  0  0  0  0  0  0  0  0  0  0
   -0.1330   24.7290  -25.3400 N   0  0  0  0  0  0  0  0  0  0  0  0
   -1.4740   25.3180  -25.4440 C   0  0  0  0  0  0  0  0  0  0  0  0
    0.4800   24.3790  -26.9380 S   0  0  0  0  0  0  0  0  0  0  0  0
    1.0270   25.6340  -27.5630 O   0  0  0  0  0  0  0  0  0  0  0  0
    1.5740   23.3520  -26.8560 O   0  0  0  0  0  0  0  0  0  0  0  0
   -0.8260   23.7300  -27.9240 C   0  0  0  0  0  0  0  0  0  0  0  0
   -1.0210   22.3490  -28.0490 C   0  0  0  0  0  0  0  0  0  0  0  0
   -2.0390   21.8580  -28.8740 C   0  0  0  0  0  0  0  0  0  0  0  0
   -2.8540   22.7430  -29.5870 C   0  0  0  0  0  0  0  0  0  0  0  0
   -2.6660   24.1270  -29.4730 C   0  0  0  0  0  0  0  0  0  0  0  0
   -3.4950   25.0030  -30.2500 N   0  0  0  0  0  0  0  0  0  0  0  0
   -5.2190   24.8800  -30.3840 S   0  0  0  0  0  0  0  0  0  0  0  0
   -5.7280   26.0260  -31.2140 O   0  0  0  0  0  0  0  0  0  0  0  0
   -5.8290   24.9630  -29.0140 O   0  0  0  0  0  0  0  0  0  0  0  0
   -5.6560   23.3350  -31.1090 C   0  0  0  0  0  0  0  0  0  0  0  0
   -6.8150   22.6740  -30.6860 C   0  0  0  0  0  0  0  0  0  0  0  0
   -7.1430   21.4210  -31.2080 C   0  0  0  0  0  0  0  0  0  0  0  0
   -6.3100   20.8040  -32.1630 C   0  0  0  0  0  0  0  0  0  0  0  0
   -6.6210   19.5020  -32.6980 N   0  0  0  0  0  0  0  0  0  0  0  0
   -7.6120   18.6660  -32.3300 C   0  0  0  0  0  0  0  0  0  0  0  0
   -7.5960   17.5340  -33.0600 N   0  0  0  0  0  0  0  0  0  0  0  0
   -6.5460   17.7330  -33.8850 C   0  0  0  0  0  0  0  0  0  0  0  0
   -5.9490   18.9210  -33.6780 N   0  0  0  0  0  0  0  0  0  0  0  0
   -5.1470   21.4740  -32.5790 C   0  0  0  0  0  0  0  0  0  0  0  0
   -4.8270   22.7310  -32.0610 C   0  0  0  0  0  0  0  0  0  0  0  0
   -1.6630   24.6140  -28.6170 C   0  0  0  0  0  0  0  0  0  0  0  0
   -0.1738   23.7386  -23.4793 H   0  0  0  0  0  0  0  0  0  0  0  0
   -1.1056   22.9407  -24.7914 H   0  0  0  0  0  0  0  0  0  0  0  0
    0.6892   22.8667  -24.7914 H   0  0  0  0  0  0  0  0  0  0  0  0
   -1.8761   25.4946  -24.4355 H   0  0  0  0  0  0  0  0  0  0  0  0
   -1.4141   26.2726  -25.9872 H   0  0  0  0  0  0  0  0  0  0  0  0
   -2.1364   24.6280  -25.9872 H   0  0  0  0  0  0  0  0  0  0  0  0
   -0.3739   21.6501  -27.4987 H   0  0  0  0  0  0  0  0  0  0  0  0
   -2.1986   20.7732  -28.9619 H   0  0  0  0  0  0  0  0  0  0  0  0
   -3.6468   22.3506  -30.2408 H   0  0  0  0  0  0  0  0  0  0  0  0
   -7.4709   23.1440  -29.9384 H   0  0  0  0  0  0  0  0  0  0  0  0
   -8.0581   20.9118  -30.8714 H   0  0  0  0  0  0  0  0  0  0  0  0
   -8.3411   18.8807  -31.5348 H   0  0  0  0  0  0  0  0  0  0  0  0
   -6.2157   17.0058  -34.6413 H   0  0  0  0  0  0  0  0  0  0  0  0
   -4.4826   21.0043  -33.3193 H   0  0  0  0  0  0  0  0  0  0  0  0
   -3.9188   23.2488  -32.4031 H   0  0  0  0  0  0  0  0  0  0  0  0
   -1.5342   25.6990  -28.4902 H   0  0  0  0  0  0  0  0  0  0  0  0
  1  2  1  0
  2  3  1  0
  2  4  1  0
  4  5  2  0
  4  6  2  0
  4  7  1  0
  7  8  2  0
  8  9  1  0
  9 10  2  0
 10 11  1  0
 11 12  1  0
 12 13  1  0
 13 14  2  0
 13 15  2  0
 13 16  1  0
 16 17  2  0
 17 18  1  0
 18 19  2  0
 19 20  1  0
 20 21  1  0
 21 22  2  0
 22 23  1  0
 23 24  2  0
 19 25  1  0
 25 26  2  0
 11 27  2  0
 27  7  1  0
 26 16  1  0
 24 20  1  0
  1 28  1  0
  1 29  1  0
  1 30  1  0
  3 31  1  0
  3 32  1  0
  3 33  1  0
  8 34  1  0
  9 35  1  0
 10 36  1  0
 17 37  1  0
 18 38  1  0
 21 39  1  0
 23 40  1  0
 25 41  1  0
 26 42  1  0
 27 43  1  0
M  CHG  1  12  -1
M  END
>  <UniqueID>  (2) 
2

>  <SMILES>  (2) 
CN(C)S(=O)(=O)c1cccc([N-]S(=O)(=O)c2ccc(-n3cncn3)cc2)c1

>  <Energy>  (2) 
78.07019005712529

>  <Genealogy>  (2) 
CN(C)S(=O)(=O)c1cccc([N-]S(=O)(=O)c2ccc(-n3cncn3)cc2)c1 (protonated)
CN(C)S(=O)(=O)c1cccc([N-]S(=O)(=O)c2ccc(-n3cncn3)cc2)c1 (3D coordinates assigned)
CN(C)S(=O)(=O)c1cccc([N-]S(=O)(=O)c2ccc(-n3cncn3)cc2)c1 (optimized conformer: 78.07019005712529 kcal/mol)

>  <smiles>  (2) 
CN(C)S(=O)(=O)c1cccc(NS(=O)(=O)c2ccc(-n3cncn3)cc2)c1

>  <score_type>  (2) 
oracle

>  <origin>  (2) 
adgpu

>  <m_score__min__energy>  (2) 
-10.08

>  <m_primary>  (2) 
energy

$$$$
2:0
     RDKit          3D

 38 40  0  0  0  0  0  0  0  0999 V2000
   -7.6350   22.3250  -30.9420 C   0  0  0  0  0  0  0  0  0  0  0  0
   -6.6140   21.6290  -31.7860 C   0  0  0  0  0  0  0  0  0  0  0  0
   -6.9870   20.6280  -33.0840 S   0  0  0  0  0  0  0  0  0  0  0  0
   -5.4060   20.2290  -33.4820 C   0  0  0  0  0  0  0  0  0  0  0  0
   -4.5560   20.8830  -32.6010 C   0  0  0  0  0  0  0  0  0  0  0  0
   -5.2210   21.6820  -31.6540 C   0  0  0  0  0  0  0  0  0  0  0  0
   -4.4950   22.4710  -30.6340 C   0  0  0  0  0  0  0  0  0  0  0  0
   -4.7530   23.8440  -30.4930 C   0  0  0  0  0  0  0  0  0  0  0  0
   -4.0790   24.5960  -29.5260 C   0  0  0  0  0  0  0  0  0  0  0  0
   -3.1370   23.9880  -28.6800 C   0  0  0  0  0  0  0  0  0  0  0  0
   -2.4310   24.7860  -27.6490 C   0  0  0  0  0  0  0  0  0  0  0  0
   -2.6970   24.5600  -26.2890 C   0  0  0  0  0  0  0  0  0  0  0  0
   -2.0350   25.2950  -25.3020 C   0  0  0  0  0  0  0  0  0  0  0  0
   -1.0930   26.2750  -25.6550 C   0  0  0  0  0  0  0  0  0  0  0  0
   -0.3880   27.0610  -24.6110 C   0  0  0  0  0  0  0  0  0  0  0  0
    0.2340   26.3870  -23.5100 N   0  0  0  0  0  0  0  0  0  0  0  0
   -0.3350   28.3590  -24.6800 N   0  0  0  0  0  0  0  0  0  0  0  0
   -0.8340   26.5110  -27.0150 C   0  0  0  0  0  0  0  0  0  0  0  0
   -1.4960   25.7790  -28.0070 C   0  0  0  0  0  0  0  0  0  0  0  0
   -1.2320   26.0600  -29.3430 O   0  0  0  0  0  0  0  0  0  0  0  0
   -2.8950   22.6100  -28.8080 C   0  0  0  0  0  0  0  0  0  0  0  0
   -3.5690   21.8580  -29.7750 C   0  0  0  0  0  0  0  0  0  0  0  0
   -7.4019   22.1661  -29.8788 H   0  0  0  0  0  0  0  0  0  0  0  0
   -7.6210   23.4024  -31.1634 H   0  0  0  0  0  0  0  0  0  0  0  0
   -8.6327   21.9182  -31.1634 H   0  0  0  0  0  0  0  0  0  0  0  0
   -5.0965   19.5631  -34.3010 H   0  0  0  0  0  0  0  0  0  0  0  0
   -3.4611   20.7851  -32.6400 H   0  0  0  0  0  0  0  0  0  0  0  0
   -5.4904   24.3313  -31.1478 H   0  0  0  0  0  0  0  0  0  0  0  0
   -4.2880   25.6714  -29.4271 H   0  0  0  0  0  0  0  0  0  0  0  0
   -3.4337   23.7969  -25.9976 H   0  0  0  0  0  0  0  0  0  0  0  0
   -2.2533   25.1046  -24.2408 H   0  0  0  0  0  0  0  0  0  0  0  0
    0.6940   26.9280  -22.7440 H   0  0  0  0  0  0  0  0  0  0  0  0
    0.2850   25.3460  -23.4750 H   0  0  0  0  0  0  0  0  0  0  0  0
    0.1630   28.9110  -23.9470 H   0  0  0  0  0  0  0  0  0  0  0  0
   -0.8060   28.8880  -25.4460 H   0  0  0  0  0  0  0  0  0  0  0  0
   -0.1024   27.2800  -27.3037 H   0  0  0  0  0  0  0  0  0  0  0  0
   -2.1698   22.1190  -28.1424 H   0  0  0  0  0  0  0  0  0  0  0  0
   -3.3725   20.7793  -29.8633 H   0  0  0  0  0  0  0  0  0  0  0  0
  1  2  1  0
  2  3  1  0
  3  4  1  0
  4  5  2  0
  5  6  1  0
  6  7  1  0
  7  8  2  0
  8  9  1  0
  9 10  2  0
 10 11  1  0
 11 12  2  0
 12 13  1  0
 13 14  2  0
 14 15  1  0
 15 16  1  0
 15 17  2  0
 14 18  1  0
 18 19  2  0
 19 20  1  0
 10 21  1  0
 21 22  2  0
  6  2  2  0
 22  7  1  0
 19 11  1  0
  1 23  1  0
  1 24  1  0
  1 25  1  0
  4 26  1  0
  5 27  1  0
  8 28  1  0
  9 29  1  0
 12 30  1  0
 13 31  1  0
 16 32  1  0
 16 33  1  0
 17 34  1  0
 17 35  1  0
 18 36  1  0
 21 37  1  0
 22 38  1  0
M  CHG  2  17   1  20  -1
M  END
>  <UniqueID>  (3) 
3

>  <SMILES>  (3) 
Cc1sccc1-c1ccc(-c2ccc(C(N)=[NH2+])cc2[O-])cc1

>  <Energy>  (3) 
79.44079423720613

>  <Genealogy>  (3) 
Cc1sccc1-c1ccc(-c2ccc(C(N)=[NH2+])cc2[O-])cc1 (protonated)
Cc1sccc1-c1ccc(-c2ccc(C(N)=[NH2+])cc2[O-])cc1 (3D coordinates assigned)
Cc1sccc1-c1ccc(-c2ccc(C(N)=[NH2+])cc2[O-])cc1 (optimized conformer: 79.44079423720613 kcal/mol)

>  <smiles>  (3) 
Cc1sccc1-c1ccc(-c2ccc(C(=N)N)cc2O)cc1

>  <score_type>  (3) 
oracle

>  <origin>  (3) 
adgpu

>  <m_score__min__energy>  (3) 
-11.460000000000001

>  <m_primary>  (3) 
energy

$$$$
3:0
     RDKit          3D

 29 30  0  0  0  0  0  0  0  0999 V2000
   -5.3580   14.6880  -34.9830 H   0  0  0  0  0  0  0  0  0  0  0  0
   -6.0840   15.0210  -34.3590 O   0  0  0  0  0  0  0  0  0  0  0  0
   -6.1720   16.3620  -33.9910 C   0  0  0  0  0  0  0  0  0  0  0  0
   -7.1600   16.7890  -33.0950 C   0  0  0  0  0  0  0  0  0  0  0  0
   -7.8727   16.0622  -32.6782 H   0  0  0  0  0  0  0  0  0  0  0  0
   -7.2440   18.1360  -32.7280 C   0  0  0  0  0  0  0  0  0  0  0  0
   -8.0275   18.4644  -32.0292 H   0  0  0  0  0  0  0  0  0  0  0  0
   -6.3310   19.0750  -33.2480 C   0  0  0  0  0  0  0  0  0  0  0  0
   -6.3790   20.5180  -32.9010 C   0  0  0  0  0  0  0  0  0  0  0  0
   -5.5096   21.1409  -33.1580 H   0  0  0  0  0  0  0  0  0  0  0  0
   -7.4190   21.1070  -32.2930 C   0  0  0  0  0  0  0  0  0  0  0  0
   -8.2915   20.4920  -32.0274 H   0  0  0  0  0  0  0  0  0  0  0  0
   -7.4420   22.5470  -31.9650 C   0  0  0  0  0  0  0  0  0  0  0  0
   -8.5120   23.1840  -32.1660 O   0  0  0  0  0  0  0  0  0  0  0  0
   -6.2760   23.2690  -31.3990 C   0  0  0  0  0  0  0  0  0  0  0  0
   -6.4750   24.4340  -30.6370 C   0  0  0  0  0  0  0  0  0  0  0  0
   -7.4943   24.8156  -30.4775 H   0  0  0  0  0  0  0  0  0  0  0  0
   -5.3850   25.1100  -30.0810 C   0  0  0  0  0  0  0  0  0  0  0  0
   -5.5483   26.0265  -29.4951 H   0  0  0  0  0  0  0  0  0  0  0  0
   -4.0890   24.6240  -30.2680 C   0  0  0  0  0  0  0  0  0  0  0  0
   -3.0060   25.2990  -29.7160 O   0  0  0  0  0  0  0  0  0  0  0  0
   -3.8810   23.4570  -31.0100 C   0  0  0  0  0  0  0  0  0  0  0  0
   -2.8605   23.0731  -31.1554 H   0  0  0  0  0  0  0  0  0  0  0  0
   -4.9680   22.7780  -31.5670 C   0  0  0  0  0  0  0  0  0  0  0  0
   -4.8002   21.8542  -32.1402 H   0  0  0  0  0  0  0  0  0  0  0  0
   -5.3540   18.6370  -34.1570 C   0  0  0  0  0  0  0  0  0  0  0  0
   -4.6467   19.3620  -34.5860 H   0  0  0  0  0  0  0  0  0  0  0  0
   -5.2700   17.2900  -34.5230 C   0  0  0  0  0  0  0  0  0  0  0  0
   -4.2900   16.8760  -35.4170 O   0  0  0  0  0  0  0  0  0  0  0  0
  1  2  1  0
  2  3  1  0
  3  4  2  0
  4  5  1  0
  4  6  1  0
  6  7  1  0
  6  8  2  0
  8  9  1  0
  9 10  1  0
  9 11  2  0
 11 12  1  0
 11 13  1  0
 13 14  2  0
 13 15  1  0
 15 16  2  0
 16 17  1  0
 16 18  1  0
 18 19  1  0
 18 20  2  0
 20 21  1  0
 20 22  1  0
 22 23  1  0
 22 24  2  0
 24 25  1  0
  8 26  1  0
 26 27  1  0
 26 28  2  0
 28 29  1  0
 28  3  1  0
 24 15  1  0
M  CHG  2  21  -1  29  -1
M  END
>  <UniqueID>  (4) 
4

>  <SMILES>  (4) 
O=C(/C=C/c1ccc(O)c([O-])c1)c1ccc([O-])cc1

>  <Energy>  (4) 
37.08088998417962

>  <Genealogy>  (4) 
O=C(C=Cc1ccc(O)c([O-])c1)c1ccc([O-])cc1 (protonated)
O=C(/C=C/c1ccc(O)c([O-])c1)c1ccc([O-])cc1 (cis-trans isomerization)
O=C(/C=C/c1ccc(O)c([O-])c1)c1ccc([O-])cc1 (3D coordinates assigned)
O=C(/C=C/c1ccc(O)c([O-])c1)c1ccc([O-])cc1 (optimized conformer: 37.08088998417962 kcal/mol)

>  <smiles>  (4) 
O=C(C=Cc1ccc(O)c(O)c1)c1ccc(O)cc1

>  <score_type>  (4) 
oracle

>  <origin>  (4) 
adgpu

>  <m_score__min__energy>  (4) 
-10.050000000000001

>  <m_primary>  (4) 
energy

$$$$
4:0
     RDKit          3D

 36 38  0  0  0  0  0  0  0  0999 V2000
    4.4980   21.4390  -38.5030 N   0  0  0  0  0  0  0  0  0  0  0  0
    3.8100   19.9890  -37.8630 S   0  0  0  0  0  0  0  0  0  0  0  0
    3.3020   19.1340  -38.9900 O   0  0  0  0  0  0  0  0  0  0  0  0
    4.8610   19.2220  -37.1110 O   0  0  0  0  0  0  0  0  0  0  0  0
    2.4850   20.4010  -36.7810 C   0  0  0  0  0  0  0  0  0  0  0  0
    2.6370   21.4240  -35.8360 C   0  0  0  0  0  0  0  0  0  0  0  0
    1.5880   21.7430  -34.9700 C   0  0  0  0  0  0  0  0  0  0  0  0
    0.3700   21.0520  -35.0410 C   0  0  0  0  0  0  0  0  0  0  0  0
   -0.6860   21.3840  -34.1230 N   0  0  0  0  0  0  0  0  0  0  0  0
   -0.7920   20.8510  -32.7930 C   0  0  0  0  0  0  0  0  0  0  0  0
   -0.0880   19.8650  -32.4430 O   0  0  0  0  0  0  0  0  0  0  0  0
   -1.7530   21.4250  -31.8380 C   0  0  0  0  0  0  0  0  0  0  0  0
   -2.9020   22.1200  -32.1580 C   0  0  0  0  0  0  0  0  0  0  0  0
   -3.4490   22.4370  -30.9270 C   0  0  0  0  0  0  0  0  0  0  0  0
   -4.7040   23.1900  -30.6630 C   0  0  0  0  0  0  0  0  0  0  0  0
   -5.9450   22.5220  -30.6270 C   0  0  0  0  0  0  0  0  0  0  0  0
   -7.1250   23.2280  -30.3800 C   0  0  0  0  0  0  0  0  0  0  0  0
   -7.0870   24.6070  -30.1670 C   0  0  0  0  0  0  0  0  0  0  0  0
   -5.8660   25.2830  -30.2000 C   0  0  0  0  0  0  0  0  0  0  0  0
   -4.6780   24.5860  -30.4460 C   0  0  0  0  0  0  0  0  0  0  0  0
   -3.4820   25.2940  -30.4730 O   0  0  0  0  0  0  0  0  0  0  0  0
   -2.6620   21.9540  -29.9910 O   0  0  0  0  0  0  0  0  0  0  0  0
   -1.6350   21.3390  -30.5000 N   0  0  0  0  0  0  0  0  0  0  0  0
    0.2320   20.0040  -35.9710 C   0  0  0  0  0  0  0  0  0  0  0  0
    1.2820   19.6850  -36.8360 C   0  0  0  0  0  0  0  0  0  0  0  0
    4.1710   22.2250  -37.8990 H   0  0  0  0  0  0  0  0  0  0  0  0
    3.5854   21.9780  -35.7756 H   0  0  0  0  0  0  0  0  0  0  0  0
    1.7187   22.5429  -34.2263 H   0  0  0  0  0  0  0  0  0  0  0  0
   -1.4670   21.9820  -34.4760 H   0  0  0  0  0  0  0  0  0  0  0  0
   -3.2915   22.3645  -33.1573 H   0  0  0  0  0  0  0  0  0  0  0  0
   -5.9845   21.4356  -30.7948 H   0  0  0  0  0  0  0  0  0  0  0  0
   -8.0871   22.6955  -30.3533 H   0  0  0  0  0  0  0  0  0  0  0  0
   -8.0178   25.1603  -29.9734 H   0  0  0  0  0  0  0  0  0  0  0  0
   -5.8377   26.3697  -30.0317 H   0  0  0  0  0  0  0  0  0  0  0  0
   -0.7073   19.4334  -36.0169 H   0  0  0  0  0  0  0  0  0  0  0  0
    1.1636   18.8682  -37.5632 H   0  0  0  0  0  0  0  0  0  0  0  0
  1  2  1  0
  2  3  2  0
  2  4  2  0
  2  5  1  0
  5  6  2  0
  6  7  1  0
  7  8  2  0
  8  9  1  0
  9 10  1  0
 10 11  2  0
 10 12  1  0
 12 13  1  0
 13 14  2  0
 14 15  1  0
 15 16  2  0
 16 17  1  0
 17 18  2  0
 18 19  1  0
 19 20  2  0
 20 21  1  0
 14 22  1  0
 22 23  1  0
  8 24  1  0
 24 25  2  0
 25  5  1  0
 23 12  2  0
 20 15  1  0
  1 26  1  0
  6 27  1  0
  7 28  1  0
  9 29  1  0
 13 30  1  0
 16 31  1  0
 17 32  1  0
 18 33  1  0
 19 34  1  0
 24 35  1  0
 25 36  1  0
M  CHG  2   1  -1  21  -1
M  END
>  <UniqueID>  (5) 
5

>  <SMILES>  (5) 
[NH-]S(=O)(=O)c1ccc(NC(=O)c2cc(-c3ccccc3[O-])on2)cc1

>  <Energy>  (5) 
74.2432480666897

>  <Genealogy>  (5) 
[NH-]S(=O)(=O)c1ccc(NC(=O)c2cc(-c3ccccc3[O-])on2)cc1 (protonated)
[NH-]S(=O)(=O)c1ccc(NC(=O)c2cc(-c3ccccc3[O-])on2)cc1 (3D coordinates assigned)
[NH-]S(=O)(=O)c1ccc(NC(=O)c2cc(-c3ccccc3[O-])on2)cc1 (optimized conformer: 74.2432480666897 kcal/mol)

>  <smiles>  (5) 
NS(=O)(=O)c1ccc(NC(=O)c2cc(-c3ccccc3O)on2)cc1

>  <score_type>  (5) 
oracle

>  <origin>  (5) 
adgpu

>  <m_score__min__energy>  (5) 
-10.9

>  <m_primary>  (5) 
energy

$$$$
5:0
     RDKit          3D

 46 48  0  0  0  0  0  0  0  0999 V2000
   -6.1270   19.5220  -34.1360 O   0  0  0  0  0  0  0  0  0  0  0  0
   -5.1620   18.7120  -34.0760 C   0  0  0  0  0  0  0  0  0  0  0  0
   -5.1960   17.4700  -34.9130 C   0  0  0  0  0  0  0  0  0  0  0  0
   -4.8540   16.2700  -34.0730 C   0  0  0  0  0  0  0  0  0  0  0  0
   -5.3110   16.1820  -32.7460 C   0  0  0  0  0  0  0  0  0  0  0  0
   -4.9690   15.0800  -31.9560 C   0  0  0  0  0  0  0  0  0  0  0  0
   -4.1610   14.0660  -32.4790 C   0  0  0  0  0  0  0  0  0  0  0  0
   -3.8280   13.0010  -31.7110 F   0  0  0  0  0  0  0  0  0  0  0  0
   -3.6930   14.1540  -33.7940 C   0  0  0  0  0  0  0  0  0  0  0  0
   -4.0350   15.2520  -34.5890 C   0  0  0  0  0  0  0  0  0  0  0  0
   -4.0840   18.9240  -33.1500 N   0  0  0  0  0  0  0  0  0  0  0  0
   -3.8830   20.1420  -32.4130 C   0  0  0  0  0  0  0  0  0  0  0  0
   -2.9240   21.0920  -32.8080 C   0  0  0  0  0  0  0  0  0  0  0  0
   -2.7360   22.2590  -32.0610 C   0  0  0  0  0  0  0  0  0  0  0  0
   -3.4950   22.4870  -30.9060 C   0  0  0  0  0  0  0  0  0  0  0  0
   -3.2650   23.9500  -29.9510 S   0  0  0  0  0  0  0  0  0  0  0  0
   -3.9520   23.8160  -28.6210 O   0  0  0  0  0  0  0  0  0  0  0  0
   -1.7940   24.1370  -29.7050 O   0  0  0  0  0  0  0  0  0  0  0  0
   -3.8780   25.3400  -30.7970 N   0  0  0  0  0  0  0  0  0  0  0  0
   -5.2810   25.5920  -30.4630 C   0  0  0  0  0  0  0  0  0  0  0  0
   -6.1370   24.3950  -30.7800 C   0  0  0  0  0  0  0  0  0  0  0  0
   -6.2460   23.9240  -32.0990 C   0  0  0  0  0  0  0  0  0  0  0  0
   -7.0370   22.8050  -32.3840 C   0  0  0  0  0  0  0  0  0  0  0  0
   -7.7250   22.1530  -31.3570 C   0  0  0  0  0  0  0  0  0  0  0  0
   -7.6240   22.6190  -30.0430 C   0  0  0  0  0  0  0  0  0  0  0  0
   -6.8350   23.7370  -29.7540 C   0  0  0  0  0  0  0  0  0  0  0  0
   -4.4300   21.5300  -30.4930 C   0  0  0  0  0  0  0  0  0  0  0  0
   -4.6170   20.3630  -31.2380 C   0  0  0  0  0  0  0  0  0  0  0  0
   -6.2039   17.3433  -35.3349 H   0  0  0  0  0  0  0  0  0  0  0  0
   -4.4591   17.5628  -35.7244 H   0  0  0  0  0  0  0  0  0  0  0  0
   -5.9394   16.9824  -32.3282 H   0  0  0  0  0  0  0  0  0  0  0  0
   -5.3363   15.0108  -30.9214 H   0  0  0  0  0  0  0  0  0  0  0  0
   -3.0544   13.3575  -34.2037 H   0  0  0  0  0  0  0  0  0  0  0  0
   -3.6617   15.3190  -35.6215 H   0  0  0  0  0  0  0  0  0  0  0  0
   -3.4660   18.1110  -32.9310 H   0  0  0  0  0  0  0  0  0  0  0  0
   -2.3186   20.9160  -33.7094 H   0  0  0  0  0  0  0  0  0  0  0  0
   -1.9895   23.0006  -32.3815 H   0  0  0  0  0  0  0  0  0  0  0  0
   -5.3600   25.8158  -29.3889 H   0  0  0  0  0  0  0  0  0  0  0  0
   -5.6353   26.4435  -31.0625 H   0  0  0  0  0  0  0  0  0  0  0  0
   -5.7080   24.4362  -32.9103 H   0  0  0  0  0  0  0  0  0  0  0  0
   -7.1173   22.4382  -33.4179 H   0  0  0  0  0  0  0  0  0  0  0  0
   -8.3458   21.2734  -31.5826 H   0  0  0  0  0  0  0  0  0  0  0  0
   -8.1659   22.1056  -29.2351 H   0  0  0  0  0  0  0  0  0  0  0  0
   -6.7608   24.1024  -28.7191 H   0  0  0  0  0  0  0  0  0  0  0  0
   -5.0191   21.6975  -29.5792 H   0  0  0  0  0  0  0  0  0  0  0  0
   -5.3457   19.6113  -30.9005 H   0  0  0  0  0  0  0  0  0  0  0  0
  1  2  2  0
  2  3  1  0
  3  4  1  0
  4  5  2  0
  5  6  1  0
  6  7  2  0
  7  8  1  0
  7  9  1  0
  9 10  2  0
  2 11  1  0
 11 12  1  0
 12 13  2  0
 13 14  1  0
 14 15  2  0
 15 16  1  0
 16 17  2  0
 16 18  2  0
 16 19  1  0
 19 20  1  0
 20 21  1  0
 21 22  2  0
 22 23  1  0
 23 24  2  0
 24 25  1  0
 25 26  2  0
 15 27  1  0
 27 28  2  0
 10  4  1  0
 28 12  1  0
 26 21  1  0
  3 29  1  0
  3 30  1  0
  5 31  1  0
  6 32  1  0
  9 33  1  0
 10 34  1  0
 11 35  1  0
 13 36  1  0
 14 37  1  0
 20 38  1  0
 20 39  1  0
 22 40  1  0
 23 41  1  0
 24 42  1  0
 25 43  1  0
 26 44  1  0
 27 45  1  0
 28 46  1  0
M  CHG  1  19  -1
M  END
>  <UniqueID>  (6) 
6

>  <SMILES>  (6) 
O=C(Cc1ccc(F)cc1)Nc1ccc(S(=O)(=O)[N-]Cc2ccccc2)cc1

>  <Energy>  (6) 
48.25212729512616

>  <Genealogy>  (6) 
O=C(Cc1ccc(F)cc1)Nc1ccc(S(=O)(=O)[N-]Cc2ccccc2)cc1 (protonated)
O=C(Cc1ccc(F)cc1)Nc1ccc(S(=O)(=O)[N-]Cc2ccccc2)cc1 (3D coordinates assigned)
O=C(Cc1ccc(F)cc1)Nc1ccc(S(=O)(=O)[N-]Cc2ccccc2)cc1 (optimized conformer: 48.25212729512616 kcal/mol)

>  <smiles>  (6) 
O=C(Cc1ccc(F)cc1)Nc1ccc(S(=O)(=O)NCc2ccccc2)cc1

>  <score_type>  (6) 
oracle

>  <origin>  (6) 
adgpu

>  <m_score__min__energy>  (6) 
-10.31

>  <m_primary>  (6) 
energy

$$$$
6:0
     RDKit          3D

 30 33  0  0  0  0  0  0  0  0999 V2000
   -0.6230   25.2330  -26.4800 C   0  0  0  0  0  0  0  0  0  0  0  0
   -0.2690   25.1520  -27.8280 C   0  0  0  0  0  0  0  0  0  0  0  0
   -1.2470   24.9170  -28.7990 C   0  0  0  0  0  0  0  0  0  0  0  0
   -2.5970   24.7590  -28.4300 C   0  0  0  0  0  0  0  0  0  0  0  0
   -3.6520   24.5090  -29.4430 C   0  0  0  0  0  0  0  0  0  0  0  0
   -4.5610   23.4670  -29.4620 C   0  0  0  0  0  0  0  0  0  0  0  0
   -5.3140   23.6910  -30.6010 C   0  0  0  0  0  0  0  0  0  0  0  0
   -6.4380   22.8680  -31.1060 C   0  0  0  0  0  0  0  0  0  0  0  0
   -7.6630   23.4940  -31.4700 C   0  0  0  0  0  0  0  0  0  0  0  0
   -8.7460   22.7360  -31.9520 C   0  0  0  0  0  0  0  0  0  0  0  0
   -8.5760   21.3610  -32.0600 C   0  0  0  0  0  0  0  0  0  0  0  0
   -9.4660   20.4550  -32.4910 N   0  0  0  0  0  0  0  0  0  0  0  0
   -8.7750   19.2900  -32.3870 C   0  0  0  0  0  0  0  0  0  0  0  0
   -7.5090   19.4290  -31.9130 N   0  0  0  0  0  0  0  0  0  0  0  0
   -7.4130   20.7510  -31.7170 C   0  0  0  0  0  0  0  0  0  0  0  0
   -6.3170   21.4620  -31.2350 C   0  0  0  0  0  0  0  0  0  0  0  0
   -4.8680   24.8060  -31.2150 N   0  0  0  0  0  0  0  0  0  0  0  0
   -3.8610   25.3010  -30.5130 N   0  0  0  0  0  0  0  0  0  0  0  0
   -2.9400   24.8430  -27.0660 C   0  0  0  0  0  0  0  0  0  0  0  0
   -1.9580   25.0770  -26.0990 C   0  0  0  0  0  0  0  0  0  0  0  0
    0.1486   25.4195  -25.7185 H   0  0  0  0  0  0  0  0  0  0  0  0
    0.7826   25.2734  -28.1270 H   0  0  0  0  0  0  0  0  0  0  0  0
   -0.9600   24.8550  -29.8591 H   0  0  0  0  0  0  0  0  0  0  0  0
   -4.6624   22.6465  -28.7364 H   0  0  0  0  0  0  0  0  0  0  0  0
   -7.7646   24.5850  -31.3733 H   0  0  0  0  0  0  0  0  0  0  0  0
   -9.6950   23.2155  -32.2338 H   0  0  0  0  0  0  0  0  0  0  0  0
   -9.2043   18.3157  -32.6634 H   0  0  0  0  0  0  0  0  0  0  0  0
   -5.3841   20.9470  -30.9622 H   0  0  0  0  0  0  0  0  0  0  0  0
   -3.9896   24.7234  -26.7594 H   0  0  0  0  0  0  0  0  0  0  0  0
   -2.2368   25.1384  -25.0367 H   0  0  0  0  0  0  0  0  0  0  0  0
  1  2  2  0
  2  3  1  0
  3  4  2  0
  4  5  1  0
  5  6  2  0
  6  7  1  0
  7  8  1  0
  8  9  2  0
  9 10  1  0
 10 11  2  0
 11 12  1  0
 12 13  1  0
 13 14  2  0
 14 15  1  0
 15 16  2  0
  7 17  2  0
 17 18  1  0
  4 19  1  0
 19 20  2  0
 20  1  1  0
 18  5  1  0
 16  8  1  0
 15 11  1  0
  1 21  1  0
  2 22  1  0
  3 23  1  0
  6 24  1  0
  9 25  1  0
 10 26  1  0
 13 27  1  0
 16 28  1  0
 19 29  1  0
 20 30  1  0
M  CHG  2  12  -1  18  -1
M  END
>  <UniqueID>  (7) 
7

>  <SMILES>  (7) 
c1ccc(-c2cc(-c3ccc4[n-]cnc4c3)n[n-]2)cc1

>  <Energy>  (7) 
101.88989712238154

>  <Genealogy>  (7) 
c1ccc(-c2cc(-c3ccc4[n-]cnc4c3)n[n-]2)cc1 (protonated)
c1ccc(-c2cc(-c3ccc4[n-]cnc4c3)n[n-]2)cc1 (3D coordinates assigned)
c1ccc(-c2cc(-c3ccc4[n-]cnc4c3)n[n-]2)cc1 (optimized conformer: 101.88989712238154 kcal/mol)

>  <smiles>  (7) 
c1ccc(-c2cc(-c3ccc4[nH]cnc4c3)n[nH]2)cc1

>  <score_type>  (7) 
oracle

>  <origin>  (7) 
adgpu

>  <m_score__min__energy>  (7) 
-10.01

>  <m_primary>  (7) 
energy

$$$$
7:0
     RDKit          3D

 18 18  0  0  0  0  0  0  0  0999 V2000
   -4.3660   19.2670  -33.9707 H   0  0  0  0  0  0  0  0  0  0  0  0
   -5.3560   19.5450  -33.5800 C   0  0  0  0  0  0  0  0  0  0  0  0
   -5.5740   20.8320  -33.0820 C   0  0  0  0  0  0  0  0  0  0  0  0
   -4.4780   21.7600  -33.1010 N   0  0  0  0  0  0  0  0  0  0  0  0
   -3.7120   21.7500  -32.3960 H   0  0  0  0  0  0  0  0  0  0  0  0
   -4.4190   22.4900  -33.8450 H   0  0  0  0  0  0  0  0  0  0  0  0
   -6.8520   21.1850  -32.5800 C   0  0  0  0  0  0  0  0  0  0  0  0
   -7.0770   22.9850  -31.9080 Br  0  0  0  0  0  0  0  0  0  0  0  0
   -7.8900   20.1960  -32.6000 C   0  0  0  0  0  0  0  0  0  0  0  0
   -9.1110   20.3870  -32.1680 N   0  0  0  0  0  0  0  0  0  0  0  0
   -9.7560   21.5540  -31.5820 C   0  0  0  0  0  0  0  0  0  0  0  0
   -9.7165   21.4826  -30.4850 H   0  0  0  0  0  0  0  0  0  0  0  0
   -9.2332   22.4649  -31.9092 H   0  0  0  0  0  0  0  0  0  0  0  0
  -10.8054   21.5959  -31.9092 H   0  0  0  0  0  0  0  0  0  0  0  0
   -7.6090   18.9570  -33.1000 N   0  0  0  0  0  0  0  0  0  0  0  0
   -8.3620   18.2320  -33.1170 H   0  0  0  0  0  0  0  0  0  0  0  0
   -6.3870   18.6180  -33.5820 C   0  0  0  0  0  0  0  0  0  0  0  0
   -6.1060   17.0020  -34.2080 Cl  0  0  0  0  0  0  0  0  0  0  0  0
  1  2  1  0
  2  3  1  0
  3  4  1  0
  4  5  1  0
  4  6  1  0
  3  7  2  0
  7  8  1  0
  7  9  1  0
  9 10  2  0
 10 11  1  0
 11 12  1  0
 11 13  1  0
 11 14  1  0
  9 15  1  0
 15 16  1  0
 15 17  1  0
 17 18  1  0
 17  2  2  0
M  END
>  <UniqueID>  (8) 
8

>  <SMILES>  (8) 
C/N=c1/[nH]c(Cl)cc(N)c1Br

>  <Energy>  (8) 
28.21941284192181

>  <Genealogy>  (8) 
C/N=c1/[nH]c(Cl)cc(N)c1Br (cis-trans isomerization)
C/N=c1/[nH]c(Cl)cc(N)c1Br (3D coordinates assigned)
C/N=c1/[nH]c(Cl)cc(N)c1Br (optimized conformer: 28.21941284192181 kcal/mol)

>  <smiles>  (8) 
CN=c1[nH]c(Cl)cc(N)c1Br

>  <score_type>  (8) 
oracle

>  <origin>  (8) 
adgpu

>  <m_score__min__energy>  (8) 
-5.0599999999999996

>  <m_primary>  (8) 
energy

$$$$
8:0
     RDKit          3D

 38 40  0  0  0  0  0  0  0  0999 V2000
   -4.2080   22.3160  -33.4440 O   0  0  0  0  0  0  0  0  0  0  0  0
   -3.5420   21.7920  -32.5140 C   0  0  0  0  0  0  0  0  0  0  0  0
   -2.8040   22.6430  -31.6300 N   0  0  0  0  0  0  0  0  0  0  0  0
   -2.8180   22.5320  -30.2030 C   0  0  0  0  0  0  0  0  0  0  0  0
   -2.2070   21.4340  -29.5740 C   0  0  0  0  0  0  0  0  0  0  0  0
   -2.2040   21.3340  -28.1800 C   0  0  0  0  0  0  0  0  0  0  0  0
   -2.8030   22.3290  -27.4060 C   0  0  0  0  0  0  0  0  0  0  0  0
   -3.4090   23.4270  -28.0230 C   0  0  0  0  0  0  0  0  0  0  0  0
   -3.4190   23.5350  -29.4200 C   0  0  0  0  0  0  0  0  0  0  0  0
   -4.2470   24.9380  -30.1830 S   0  0  0  0  0  0  0  0  0  0  0  0
   -5.6700   23.9580  -30.6710 C   0  0  0  0  0  0  0  0  0  0  0  0
   -6.2760   23.0970  -29.7470 C   0  0  0  0  0  0  0  0  0  0  0  0
   -7.4050   22.3590  -30.1120 C   0  0  0  0  0  0  0  0  0  0  0  0
   -7.9290   22.4730  -31.4040 C   0  0  0  0  0  0  0  0  0  0  0  0
   -9.4800   21.4720  -31.8960 Br  0  0  0  0  0  0  0  0  0  0  0  0
   -7.3150   23.3190  -32.3340 C   0  0  0  0  0  0  0  0  0  0  0  0
   -6.1850   24.0570  -31.9700 C   0  0  0  0  0  0  0  0  0  0  0  0
   -3.5620   20.3670  -32.3200 N   0  0  0  0  0  0  0  0  0  0  0  0
   -4.6050   19.5070  -32.8080 C   0  0  0  0  0  0  0  0  0  0  0  0
   -4.3920   18.7670  -33.9820 C   0  0  0  0  0  0  0  0  0  0  0  0
   -5.3710   17.8870  -34.4520 C   0  0  0  0  0  0  0  0  0  0  0  0
   -6.5650   17.7260  -33.7460 C   0  0  0  0  0  0  0  0  0  0  0  0
   -6.7810   18.4410  -32.5640 C   0  0  0  0  0  0  0  0  0  0  0  0
   -8.2680   18.2160  -31.6610 Cl  0  0  0  0  0  0  0  0  0  0  0  0
   -5.8030   19.3250  -32.0930 C   0  0  0  0  0  0  0  0  0  0  0  0
   -1.7295   20.6506  -30.1808 H   0  0  0  0  0  0  0  0  0  0  0  0
   -1.7290   20.4700  -27.6923 H   0  0  0  0  0  0  0  0  0  0  0  0
   -2.7982   22.2490  -26.3089 H   0  0  0  0  0  0  0  0  0  0  0  0
   -3.8799   24.2093  -27.4096 H   0  0  0  0  0  0  0  0  0  0  0  0
   -5.8623   23.0017  -28.7322 H   0  0  0  0  0  0  0  0  0  0  0  0
   -7.8821   21.6878  -29.3827 H   0  0  0  0  0  0  0  0  0  0  0  0
   -7.7218   23.4035  -33.3525 H   0  0  0  0  0  0  0  0  0  0  0  0
   -5.6995   24.7164  -32.7046 H   0  0  0  0  0  0  0  0  0  0  0  0
   -2.7910   19.9220  -31.7740 H   0  0  0  0  0  0  0  0  0  0  0  0
   -3.4483   18.8805  -34.5357 H   0  0  0  0  0  0  0  0  0  0  0  0
   -5.2006   17.3205  -35.3794 H   0  0  0  0  0  0  0  0  0  0  0  0
   -7.3360   17.0363  -34.1200 H   0  0  0  0  0  0  0  0  0  0  0  0
   -5.9721   19.8804  -31.1587 H   0  0  0  0  0  0  0  0  0  0  0  0
  1  2  2  0
  2  3  1  0
  3  4  1  0
  4  5  2  0
  5  6  1  0
  6  7  2  0
  7  8  1  0
  8  9  2  0
  9 10  1  0
 10 11  1  0
 11 12  2  0
 12 13  1  0
 13 14  2  0
 14 15  1  0
 14 16  1  0
 16 17  2  0
  2 18  1  0
 18 19  1  0
 19 20  2  0
 20 21  1  0
 21 22  2  0
 22 23  1  0
 23 24  1  0
 23 25  2  0
  9  4  1  0
 17 11  1  0
 25 19  1  0
  5 26  1  0
  6 27  1  0
  7 28  1  0
  8 29  1  0
 12 30  1  0
 13 31  1  0
 16 32  1  0
 17 33  1  0
 18 34  1  0
 20 35  1  0
 21 36  1  0
 22 37  1  0
 25 38  1  0
M  CHG  1   3  -1
M  END
>  <UniqueID>  (9) 
9

>  <SMILES>  (9) 
O=C([N-]c1ccccc1Sc1ccc(Br)cc1)Nc1cccc(Cl)c1

>  <Energy>  (9) 
43.32245872571863

>  <Genealogy>  (9) 
O=C([N-]c1ccccc1Sc1ccc(Br)cc1)Nc1cccc(Cl)c1 (protonated)
O=C([N-]c1ccccc1Sc1ccc(Br)cc1)Nc1cccc(Cl)c1 (3D coordinates assigned)
O=C([N-]c1ccccc1Sc1ccc(Br)cc1)Nc1cccc(Cl)c1 (optimized conformer: 43.32245872571863 kcal/mol)

>  <smiles>  (9) 
O=C(Nc1cccc(Cl)c1)Nc1ccccc1Sc1ccc(Br)cc1

>  <score_type>  (9) 
oracle

>  <origin>  (9) 
adgpu

>  <m_score__min__energy>  (9) 
-9.8900000000000006

>  <m_primary>  (9) 
energy

$$$$
9:0
     RDKit          3D

 38 40  0  0  0  0  0  0  0  0999 V2000
   -6.4980   16.8080  -33.8570 C   0  0  0  0  0  0  0  0  0  0  0  0
   -6.0780   17.7540  -34.8160 O   0  0  0  0  0  0  0  0  0  0  0  0
   -5.1510   18.6530  -34.2400 C   0  0  0  0  0  0  0  0  0  0  0  0
   -5.8690   19.7420  -33.5100 C   0  0  0  0  0  0  0  0  0  0  0  0
   -5.2570   20.7900  -32.9260 N   0  0  0  0  0  0  0  0  0  0  0  0
   -6.3090   21.4540  -32.4000 C   0  0  0  0  0  0  0  0  0  0  0  0
   -6.1880   22.7120  -31.6320 C   0  0  0  0  0  0  0  0  0  0  0  0
   -7.3340   23.3530  -31.1330 C   0  0  0  0  0  0  0  0  0  0  0  0
   -7.2200   24.5480  -30.4190 C   0  0  0  0  0  0  0  0  0  0  0  0
   -5.9630   25.1100  -30.1850 C   0  0  0  0  0  0  0  0  0  0  0  0
   -4.8040   24.4690  -30.6550 C   0  0  0  0  0  0  0  0  0  0  0  0
   -3.4940   25.0220  -30.4590 N   0  0  0  0  0  0  0  0  0  0  0  0
   -2.5710   24.6980  -29.4100 C   0  0  0  0  0  0  0  0  0  0  0  0
   -2.5880   23.5590  -28.8720 O   0  0  0  0  0  0  0  0  0  0  0  0
   -1.6190   25.6650  -28.9550 N   0  0  0  0  0  0  0  0  0  0  0  0
   -1.3030   25.9640  -27.5880 C   0  0  0  0  0  0  0  0  0  0  0  0
   -1.9370   25.3090  -26.5170 C   0  0  0  0  0  0  0  0  0  0  0  0
   -1.6190   25.6460  -25.1970 C   0  0  0  0  0  0  0  0  0  0  0  0
   -0.6790   26.6490  -24.9360 C   0  0  0  0  0  0  0  0  0  0  0  0
   -0.2830   27.0710  -23.2810 Cl  0  0  0  0  0  0  0  0  0  0  0  0
   -0.0660   27.3220  -25.9970 C   0  0  0  0  0  0  0  0  0  0  0  0
   -0.3840   26.9860  -27.3180 C   0  0  0  0  0  0  0  0  0  0  0  0
   -4.9260   23.2840  -31.3930 C   0  0  0  0  0  0  0  0  0  0  0  0
   -7.4820   20.8380  -32.6520 N   0  0  0  0  0  0  0  0  0  0  0  0
   -7.1670   19.7830  -33.3390 O   0  0  0  0  0  0  0  0  0  0  0  0
   -6.3211   17.2064  -32.8471 H   0  0  0  0  0  0  0  0  0  0  0  0
   -7.5710   16.6045  -33.9882 H   0  0  0  0  0  0  0  0  0  0  0  0
   -5.9293   15.8756  -33.9882 H   0  0  0  0  0  0  0  0  0  0  0  0
   -4.5065   18.1074  -33.5351 H   0  0  0  0  0  0  0  0  0  0  0  0
   -4.5418   19.0997  -35.0396 H   0  0  0  0  0  0  0  0  0  0  0  0
   -8.3266   22.9114  -31.3055 H   0  0  0  0  0  0  0  0  0  0  0  0
   -8.1233   25.0482  -30.0397 H   0  0  0  0  0  0  0  0  0  0  0  0
   -5.8799   26.0569  -29.6313 H   0  0  0  0  0  0  0  0  0  0  0  0
   -2.6858   24.5287  -26.7180 H   0  0  0  0  0  0  0  0  0  0  0  0
   -2.1086   25.1217  -24.3631 H   0  0  0  0  0  0  0  0  0  0  0  0
    0.6671   28.1165  -25.7934 H   0  0  0  0  0  0  0  0  0  0  0  0
    0.0907   27.5279  -28.1493 H   0  0  0  0  0  0  0  0  0  0  0  0
   -4.0239   22.7956  -31.7900 H   0  0  0  0  0  0  0  0  0  0  0  0
  1  2  1  0
  2  3  1  0
  3  4  1  0
  4  5  2  0
  5  6  1  0
  6  7  1  0
  7  8  2  0
  8  9  1  0
  9 10  2  0
 10 11  1  0
 11 12  1  0
 12 13  1  0
 13 14  2  0
 13 15  1  0
 15 16  1  0
 16 17  2  0
 17 18  1  0
 18 19  2  0
 19 20  1  0
 19 21  1  0
 21 22  2  0
 11 23  2  0
  6 24  2  0
 24 25  1  0
 25  4  1  0
 23  7  1  0
 22 16  1  0
  1 26  1  0
  1 27  1  0
  1 28  1  0
  3 29  1  0
  3 30  1  0
  8 31  1  0
  9 32  1  0
 10 33  1  0
 17 34  1  0
 18 35  1  0
 21 36  1  0
 22 37  1  0
 23 38  1  0
M  CHG  2  12  -1  15  -1
M  END
>  <UniqueID>  (10) 
10

>  <SMILES>  (10) 
COCc1nc(-c2cccc([N-]C(=O)[N-]c3ccc(Cl)cc3)c2)no1

>  <Energy>  (10) 
81.53270105523703

>  <Genealogy>  (10) 
COCc1nc(-c2cccc([N-]C(=O)[N-]c3ccc(Cl)cc3)c2)no1 (protonated)
COCc1nc(-c2cccc([N-]C(=O)[N-]c3ccc(Cl)cc3)c2)no1 (3D coordinates assigned)
COCc1nc(-c2cccc([N-]C(=O)[N-]c3ccc(Cl)cc3)c2)no1 (optimized conformer: 81.53270105523703 kcal/mol)

>  <smiles>  (10) 
COCc1nc(-c2cccc(NC(=O)Nc3ccc(Cl)cc3)c2)no1

>  <score_type>  (10) 
oracle

>  <origin>  (10) 
adgpu

>  <m_score__min__energy>  (10) 
-11.460000000000001

>  <m_primary>  (10) 
energy

$$$$
10:0
     RDKit          3D

 69 73  0  0  0  0  0  0  0  0999 V2000
   -1.6130   26.8330  -25.1620 C   0  0  0  0  0  0  0  0  0  0  0  0
   -1.6400   25.8460  -26.2990 C   0  0  0  0  0  0  0  0  0  0  0  0
   -2.7590   25.0120  -26.4580 C   0  0  0  0  0  0  0  0  0  0  0  0
   -2.8080   24.0830  -27.4950 C   0  0  0  0  0  0  0  0  0  0  0  0
   -1.7500   23.9800  -28.4070 C   0  0  0  0  0  0  0  0  0  0  0  0
   -1.8370   23.0330  -29.4810 N   0  0  0  0  0  0  0  0  0  0  0  0
   -2.8500   23.0950  -30.4960 C   0  0  0  0  0  0  0  0  0  0  0  0
   -3.4710   24.1690  -30.7130 O   0  0  0  0  0  0  0  0  0  0  0  0
   -3.1690   21.9010  -31.3010 C   0  0  0  0  0  0  0  0  0  0  0  0
   -2.1190   21.0720  -31.7210 C   0  0  0  0  0  0  0  0  0  0  0  0
   -2.3780   19.9070  -32.4420 C   0  0  0  0  0  0  0  0  0  0  0  0
   -3.6950   19.5440  -32.7670 C   0  0  0  0  0  0  0  0  0  0  0  0
   -3.9620   18.3440  -33.5230 N   0  0  0  0  0  0  0  0  0  0  0  0
   -3.1500   17.1380  -33.3090 C   0  0  0  0  0  0  0  0  0  0  0  0
   -3.1930   16.2300  -34.5480 C   0  0  0  0  0  0  0  0  0  0  0  0
   -4.5700   15.8930  -34.9830 N   0  0  0  0  0  0  0  0  0  0  0  0
   -5.0300   14.2920  -34.4520 S   0  0  0  0  0  0  0  0  0  0  0  0
   -4.7750   13.3070  -35.5590 O   0  0  0  0  0  0  0  0  0  0  0  0
   -6.4970   14.2660  -34.1240 O   0  0  0  0  0  0  0  0  0  0  0  0
   -4.1180   13.8000  -33.0330 C   0  0  0  0  0  0  0  0  0  0  0  0
   -4.6190   13.6850  -31.7460 C   0  0  0  0  0  0  0  0  0  0  0  0
   -3.6680   13.2270  -30.8270 C   0  0  0  0  0  0  0  0  0  0  0  0
   -2.4220   12.9810  -31.3910 C   0  0  0  0  0  0  0  0  0  0  0  0
   -2.5040   13.3340  -33.0340 S   0  0  0  0  0  0  0  0  0  0  0  0
   -5.6060   16.8790  -34.6020 C   0  0  0  0  0  0  0  0  0  0  0  0
   -5.0470   18.3030  -34.5090 C   0  0  0  0  0  0  0  0  0  0  0  0
   -4.7480   20.3820  -32.3630 C   0  0  0  0  0  0  0  0  0  0  0  0
   -4.5010   21.5610  -31.6430 C   0  0  0  0  0  0  0  0  0  0  0  0
   -5.6050   22.4390  -31.3590 N   0  0  0  0  0  0  0  0  0  0  0  0
   -6.2080   23.2370  -32.4340 C   0  0  0  0  0  0  0  0  0  0  0  0
   -7.7060   23.4250  -32.1680 C   0  0  0  0  0  0  0  0  0  0  0  0
   -7.9270   23.8960  -30.8530 O   0  0  0  0  0  0  0  0  0  0  0  0
   -7.5470   22.9020  -29.9220 C   0  0  0  0  0  0  0  0  0  0  0  0
   -6.0350   22.6580  -29.9770 C   0  0  0  0  0  0  0  0  0  0  0  0
   -0.6200   24.7920  -28.2460 C   0  0  0  0  0  0  0  0  0  0  0  0
   -0.5470   25.7200  -27.1920 C   0  0  0  0  0  0  0  0  0  0  0  0
    0.6810   26.5840  -27.0520 C   0  0  0  0  0  0  0  0  0  0  0  0
   -1.6278   26.2906  -24.2052 H   0  0  0  0  0  0  0  0  0  0  0  0
   -0.6979   27.4401  -25.2251 H   0  0  0  0  0  0  0  0  0  0  0  0
   -2.4935   27.4893  -25.2251 H   0  0  0  0  0  0  0  0  0  0  0  0
   -3.6036   25.0931  -25.7579 H   0  0  0  0  0  0  0  0  0  0  0  0
   -3.6839   23.4256  -27.5983 H   0  0  0  0  0  0  0  0  0  0  0  0
   -1.2690   22.1620  -29.4140 H   0  0  0  0  0  0  0  0  0  0  0  0
   -1.0808   21.3434  -31.4793 H   0  0  0  0  0  0  0  0  0  0  0  0
   -1.5424   19.2659  -32.7594 H   0  0  0  0  0  0  0  0  0  0  0  0
   -2.1086   17.4334  -33.1133 H   0  0  0  0  0  0  0  0  0  0  0  0
   -3.5566   16.5847  -32.4496 H   0  0  0  0  0  0  0  0  0  0  0  0
   -2.6819   16.7443  -35.3752 H   0  0  0  0  0  0  0  0  0  0  0  0
   -2.6978   15.2860  -34.2765 H   0  0  0  0  0  0  0  0  0  0  0  0
   -5.6569   13.9285  -31.4748 H   0  0  0  0  0  0  0  0  0  0  0  0
   -3.8862   13.0761  -29.7595 H   0  0  0  0  0  0  0  0  0  0  0  0
   -1.5332   12.6173  -30.8545 H   0  0  0  0  0  0  0  0  0  0  0  0
   -6.4058   16.8615  -35.3570 H   0  0  0  0  0  0  0  0  0  0  0  0
   -5.9860   16.6009  -33.6079 H   0  0  0  0  0  0  0  0  0  0  0  0
   -4.6596   18.6088  -35.4921 H   0  0  0  0  0  0  0  0  0  0  0  0
   -5.8482   18.9896  -34.1982 H   0  0  0  0  0  0  0  0  0  0  0  0
   -5.7834   20.1093  -32.6153 H   0  0  0  0  0  0  0  0  0  0  0  0
   -5.7188   24.2213  -32.4757 H   0  0  0  0  0  0  0  0  0  0  0  0
   -6.0736   22.7136  -33.3921 H   0  0  0  0  0  0  0  0  0  0  0  0
   -8.1109   24.1542  -32.8851 H   0  0  0  0  0  0  0  0  0  0  0  0
   -8.2095   22.4539  -32.2841 H   0  0  0  0  0  0  0  0  0  0  0  0
   -7.8230   23.2313  -28.9094 H   0  0  0  0  0  0  0  0  0  0  0  0
   -8.0658   21.9652  -30.1734 H   0  0  0  0  0  0  0  0  0  0  0  0
   -5.5110   23.5347  -29.5687 H   0  0  0  0  0  0  0  0  0  0  0  0
   -5.7952   21.7644  -29.3821 H   0  0  0  0  0  0  0  0  0  0  0  0
    0.2192   24.7028  -28.9516 H   0  0  0  0  0  0  0  0  0  0  0  0
    0.9008   26.7387  -25.9853 H   0  0  0  0  0  0  0  0  0  0  0  0
    1.5358   26.0872  -27.5343 H   0  0  0  0  0  0  0  0  0  0  0  0
    0.5021   27.5563  -27.5343 H   0  0  0  0  0  0  0  0  0  0  0  0
  1  2  1  0
  2  3  2  0
  3  4  1  0
  4  5  2  0
  5  6  1  0
  6  7  1  0
  7  8  2  0
  7  9  1  0
  9 10  2  0
 10 11  1  0
 11 12  2  0
 12 13  1  0
 13 14  1  0
 14 15  1  0
 15 16  1  0
 16 17  1  0
 17 18  2  0
 17 19  2  0
 17 20  1  0
 20 21  2  0
 21 22  1  0
 22 23  2  0
 23 24  1  0
 16 25  1  0
 25 26  1  0
 12 27  1  0
 27 28  2  0
 28 29  1  0
 29 30  1  0
 30 31  1  0
 31 32  1  0
 32 33  1  0
 33 34  1  0
  5 35  1  0
 35 36  2  0
 36 37  1  0
 36  2  1  0
 28  9  1  0
 34 29  1  0
 26 13  1  0
 24 20  1  0
  1 38  1  0
  1 39  1  0
  1 40  1  0
  3 41  1  0
  4 42  1  0
  6 43  1  0
 10 44  1  0
 11 45  1  0
 14 46  1  0
 14 47  1  0
 15 48  1  0
 15 49  1  0
 21 50  1  0
 22 51  1  0
 23 52  1  0
 25 53  1  0
 25 54  1  0
 26 55  1  0
 26 56  1  0
 27 57  1  0
 30 58  1  0
 30 59  1  0
 31 60  1  0
 31 61  1  0
 33 62  1  0
 33 63  1  0
 34 64  1  0
 34 65  1  0
 35 66  1  0
 37 67  1  0
 37 68  1  0
 37 69  1  0
M  END
>  <UniqueID>  (11) 
11

>  <SMILES>  (11) 
Cc1ccc(NC(=O)c2ccc(N3CCN(S(=O)(=O)c4cccs4)CC3)cc2N2CCOCC2)cc1C

>  <Energy>  (11) 
121.9200664959924

>  <Genealogy>  (11) 
Cc1ccc(NC(=O)c2ccc(N3CCN(S(=O)(=O)c4cccs4)CC3)cc2N2CCOCC2)cc1C (3D coordinates assigned)
Cc1ccc(NC(=O)c2ccc(N3CCN(S(=O)(=O)c4cccs4)CC3)cc2N2CCOCC2)cc1C (nonaromatic ring conformer: 121.9200664959924 kcal/mol)

>  <smiles>  (11) 
Cc1ccc(NC(=O)c2ccc(N3CCN(S(=O)(=O)c4cccs4)CC3)cc2N2CCOCC2)cc1C

>  <score_type>  (11) 
oracle

>  <origin>  (11) 
adgpu

>  <m_score__min__energy>  (11) 
-9.9900000000000002

>  <m_primary>  (11) 
energy

$$$$
11:0
     RDKit          3D

 49 51  0  0  0  0  0  0  0  0999 V2000
   -9.0710   19.1290  -31.5440 C   0  0  0  0  0  0  0  0  0  0  0  0
   -7.9840   20.0820  -31.8020 N   0  0  0  0  0  0  0  0  0  0  0  0
   -7.6060   20.0630  -33.2270 C   0  0  0  0  0  0  0  0  0  0  0  0
   -6.4040   19.1800  -33.4390 C   0  0  0  0  0  0  0  0  0  0  0  0
   -6.5540   17.7880  -33.5720 C   0  0  0  0  0  0  0  0  0  0  0  0
   -5.4320   16.9750  -33.7640 C   0  0  0  0  0  0  0  0  0  0  0  0
   -4.1550   17.5400  -33.8140 C   0  0  0  0  0  0  0  0  0  0  0  0
   -3.9960   18.9200  -33.6690 C   0  0  0  0  0  0  0  0  0  0  0  0
   -5.1140   19.7390  -33.4760 C   0  0  0  0  0  0  0  0  0  0  0  0
   -8.4840   21.6840  -31.3050 S   0  0  0  0  0  0  0  0  0  0  0  0
   -9.2740   21.6230  -30.0260 O   0  0  0  0  0  0  0  0  0  0  0  0
   -9.3410   22.3300  -32.3590 O   0  0  0  0  0  0  0  0  0  0  0  0
   -7.0460   22.6720  -31.0730 C   0  0  0  0  0  0  0  0  0  0  0  0
   -5.8840   22.3930  -31.8030 C   0  0  0  0  0  0  0  0  0  0  0  0
   -4.7300   23.1530  -31.6040 C   0  0  0  0  0  0  0  0  0  0  0  0
   -4.7140   24.1780  -30.6440 C   0  0  0  0  0  0  0  0  0  0  0  0
   -3.5320   24.9460  -30.3940 N   0  0  0  0  0  0  0  0  0  0  0  0
   -2.6580   24.7380  -29.2810 C   0  0  0  0  0  0  0  0  0  0  0  0
   -1.8360   25.6380  -28.9640 O   0  0  0  0  0  0  0  0  0  0  0  0
   -2.7860   23.5110  -28.4220 C   0  0  0  0  0  0  0  0  0  0  0  0
   -2.1690   22.3050  -29.0750 C   0  0  0  0  0  0  0  0  0  0  0  0
   -1.7340   21.2210  -28.2930 C   0  0  0  0  0  0  0  0  0  0  0  0
   -1.1150   20.1220  -28.8960 C   0  0  0  0  0  0  0  0  0  0  0  0
   -0.9260   20.0940  -30.2800 C   0  0  0  0  0  0  0  0  0  0  0  0
   -1.3600   21.1670  -31.0670 C   0  0  0  0  0  0  0  0  0  0  0  0
   -1.1060   21.1300  -32.9580 Br  0  0  0  0  0  0  0  0  0  0  0  0
   -1.9810   22.2680  -30.4680 C   0  0  0  0  0  0  0  0  0  0  0  0
   -5.8840   24.4730  -29.9330 C   0  0  0  0  0  0  0  0  0  0  0  0
   -7.0430   23.7180  -30.1400 C   0  0  0  0  0  0  0  0  0  0  0  0
   -9.2054   19.0112  -30.4586 H   0  0  0  0  0  0  0  0  0  0  0  0
  -10.0030   19.5063  -31.9901 H   0  0  0  0  0  0  0  0  0  0  0  0
   -8.8188   18.1556  -31.9901 H   0  0  0  0  0  0  0  0  0  0  0  0
   -8.4482   19.6776  -33.8204 H   0  0  0  0  0  0  0  0  0  0  0  0
   -7.3576   21.0865  -33.5443 H   0  0  0  0  0  0  0  0  0  0  0  0
   -7.5563   17.3373  -33.5249 H   0  0  0  0  0  0  0  0  0  0  0  0
   -5.5553   15.8877  -33.8760 H   0  0  0  0  0  0  0  0  0  0  0  0
   -3.2751   16.8980  -33.9675 H   0  0  0  0  0  0  0  0  0  0  0  0
   -2.9902   19.3638  -33.7066 H   0  0  0  0  0  0  0  0  0  0  0  0
   -4.9834   20.8242  -33.3527 H   0  0  0  0  0  0  0  0  0  0  0  0
   -5.8805   21.5724  -32.5355 H   0  0  0  0  0  0  0  0  0  0  0  0
   -3.8295   22.9482  -32.2016 H   0  0  0  0  0  0  0  0  0  0  0  0
   -2.2805   23.6939  -27.4623 H   0  0  0  0  0  0  0  0  0  0  0  0
   -3.8568   23.3085  -28.2726 H   0  0  0  0  0  0  0  0  0  0  0  0
   -1.8811   21.2375  -27.2030 H   0  0  0  0  0  0  0  0  0  0  0  0
   -0.7758   19.2769  -28.2790 H   0  0  0  0  0  0  0  0  0  0  0  0
   -0.4363   19.2290  -30.7510 H   0  0  0  0  0  0  0  0  0  0  0  0
   -2.3238   23.1085  -31.0894 H   0  0  0  0  0  0  0  0  0  0  0  0
   -5.8914   25.3013  -29.2093 H   0  0  0  0  0  0  0  0  0  0  0  0
   -7.9550   23.9458  -29.5688 H   0  0  0  0  0  0  0  0  0  0  0  0
  1  2  1  0
  2  3  1  0
  3  4  1  0
  4  5  2  0
  5  6  1  0
  6  7  2  0
  7  8  1  0
  8  9  2  0
  2 10  1  0
 10 11  2  0
 10 12  2  0
 10 13  1  0
 13 14  2  0
 14 15  1  0
 15 16  2  0
 16 17  1  0
 17 18  1  0
 18 19  2  0
 18 20  1  0
 20 21  1  0
 21 22  2  0
 22 23  1  0
 23 24  2  0
 24 25  1  0
 25 26  1  0
 25 27  2  0
 16 28  1  0
 28 29  2  0
  9  4  1  0
 29 13  1  0
 27 21  1  0
  1 30  1  0
  1 31  1  0
  1 32  1  0
  3 33  1  0
  3 34  1  0
  5 35  1  0
  6 36  1  0
  7 37  1  0
  8 38  1  0
  9 39  1  0
 14 40  1  0
 15 41  1  0
 20 42  1  0
 20 43  1  0
 22 44  1  0
 23 45  1  0
 24 46  1  0
 27 47  1  0
 28 48  1  0
 29 49  1  0
M  CHG  1  17  -1
M  END
>  <UniqueID>  (12) 
12

>  <SMILES>  (12) 
CN(Cc1ccccc1)S(=O)(=O)c1ccc([N-]C(=O)Cc2cccc(Br)c2)cc1

>  <Energy>  (12) 
53.059089811123464

>  <Genealogy>  (12) 
CN(Cc1ccccc1)S(=O)(=O)c1ccc([N-]C(=O)Cc2cccc(Br)c2)cc1 (protonated)
CN(Cc1ccccc1)S(=O)(=O)c1ccc([N-]C(=O)Cc2cccc(Br)c2)cc1 (3D coordinates assigned)
CN(Cc1ccccc1)S(=O)(=O)c1ccc([N-]C(=O)Cc2cccc(Br)c2)cc1 (optimized conformer: 53.059089811123464 kcal/mol)

>  <smiles>  (12) 
CN(Cc1ccccc1)S(=O)(=O)c1ccc(NC(=O)Cc2cccc(Br)c2)cc1

>  <score_type>  (12) 
oracle

>  <origin>  (12) 
adgpu

>  <m_score__min__energy>  (12) 
-12.52

>  <m_primary>  (12) 
energy

$$$$
12:0
     RDKit          3D

 41 43  0  0  0  0  0  0  0  0999 V2000
   -2.0410   24.8650  -29.3080 N   0  0  0  0  0  0  0  0  0  0  0  0
   -0.8310   24.1460  -28.3050 S   0  0  0  0  0  0  0  0  0  0  0  0
    0.5190   24.3060  -28.9450 O   0  0  0  0  0  0  0  0  0  0  0  0
   -0.8280   24.8530  -26.9790 O   0  0  0  0  0  0  0  0  0  0  0  0
   -1.1810   22.4250  -28.0840 C   0  0  0  0  0  0  0  0  0  0  0  0
   -1.6470   21.9820  -26.8360 C   0  0  0  0  0  0  0  0  0  0  0  0
   -1.9680   20.6380  -26.6340 C   0  0  0  0  0  0  0  0  0  0  0  0
   -1.8220   19.7220  -27.6740 C   0  0  0  0  0  0  0  0  0  0  0  0
   -1.3550   20.1450  -28.9190 C   0  0  0  0  0  0  0  0  0  0  0  0
   -1.0330   21.4960  -29.1440 C   0  0  0  0  0  0  0  0  0  0  0  0
   -0.5440   21.9140  -30.4320 N   0  0  0  0  0  0  0  0  0  0  0  0
   -0.9960   21.1190  -31.9050 S   0  0  0  0  0  0  0  0  0  0  0  0
   -0.4150   19.7320  -31.9210 O   0  0  0  0  0  0  0  0  0  0  0  0
   -0.4520   21.8880  -33.0760 O   0  0  0  0  0  0  0  0  0  0  0  0
   -2.7520   21.0660  -32.0340 C   0  0  0  0  0  0  0  0  0  0  0  0
   -3.5250   21.9630  -31.2910 C   0  0  0  0  0  0  0  0  0  0  0  0
   -4.9200   21.9120  -31.3530 C   0  0  0  0  0  0  0  0  0  0  0  0
   -5.5630   20.9590  -32.1650 C   0  0  0  0  0  0  0  0  0  0  0  0
   -7.0460   20.8990  -32.2290 C   0  0  0  0  0  0  0  0  0  0  0  0
   -7.6980   19.7210  -32.6420 C   0  0  0  0  0  0  0  0  0  0  0  0
   -9.0940   19.6690  -32.7020 C   0  0  0  0  0  0  0  0  0  0  0  0
   -9.8530   20.7880  -32.3530 C   0  0  0  0  0  0  0  0  0  0  0  0
   -9.2190   21.9620  -31.9430 C   0  0  0  0  0  0  0  0  0  0  0  0
   -7.8230   22.0210  -31.8800 C   0  0  0  0  0  0  0  0  0  0  0  0
   -4.7780   20.0610  -32.9110 C   0  0  0  0  0  0  0  0  0  0  0  0
   -3.3830   20.1160  -32.8460 C   0  0  0  0  0  0  0  0  0  0  0  0
   -1.5910   25.6710  -29.7970 H   0  0  0  0  0  0  0  0  0  0  0  0
   -1.7603   22.6997  -26.0101 H   0  0  0  0  0  0  0  0  0  0  0  0
   -2.3363   20.3022  -25.6534 H   0  0  0  0  0  0  0  0  0  0  0  0
   -2.0753   18.6637  -27.5132 H   0  0  0  0  0  0  0  0  0  0  0  0
   -1.2374   19.4146  -29.7330 H   0  0  0  0  0  0  0  0  0  0  0  0
    0.0250   22.7840  -30.5220 H   0  0  0  0  0  0  0  0  0  0  0  0
   -3.0326   22.7128  -30.6543 H   0  0  0  0  0  0  0  0  0  0  0  0
   -5.5195   22.6212  -30.7634 H   0  0  0  0  0  0  0  0  0  0  0  0
   -7.1055   18.8366  -32.9190 H   0  0  0  0  0  0  0  0  0  0  0  0
   -9.5954   18.7447  -33.0248 H   0  0  0  0  0  0  0  0  0  0  0  0
  -10.9511   20.7442  -32.4012 H   0  0  0  0  0  0  0  0  0  0  0  0
   -9.8185   22.8426  -31.6689 H   0  0  0  0  0  0  0  0  0  0  0  0
   -7.3290   22.9489  -31.5561 H   0  0  0  0  0  0  0  0  0  0  0  0
   -5.2657   19.3102  -33.5501 H   0  0  0  0  0  0  0  0  0  0  0  0
   -2.7787   19.4103  -33.4349 H   0  0  0  0  0  0  0  0  0  0  0  0
  1  2  1  0
  2  3  2  0
  2  4  2  0
  2  5  1  0
  5  6  2  0
  6  7  1  0
  7  8  2  0
  8  9  1  0
  9 10  2  0
 10 11  1  0
 11 12  1  0
 12 13  2  0
 12 14  2  0
 12 15  1  0
 15 16  2  0
 16 17  1  0
 17 18  2  0
 18 19  1  0
 19 20  2  0
 20 21  1  0
 21 22  2  0
 22 23  1  0
 23 24  2  0
 18 25  1  0
 25 26  2  0
 10  5  1  0
 26 15  1  0
 24 19  1  0
  1 27  1  0
  6 28  1  0
  7 29  1  0
  8 30  1  0
  9 31  1  0
 11 32  1  0
 16 33  1  0
 17 34  1  0
 20 35  1  0
 21 36  1  0
 22 37  1  0
 23 38  1  0
 24 39  1  0
 25 40  1  0
 26 41  1  0
M  CHG  1   1  -1
M  END
>  <UniqueID>  (13) 
13

>  <SMILES>  (13) 
[NH-]S(=O)(=O)c1ccccc1NS(=O)(=O)c1ccc(-c2ccccc2)cc1

>  <Energy>  (13) 
53.30957584955436

>  <Genealogy>  (13) 
[NH-]S(=O)(=O)c1ccccc1NS(=O)(=O)c1ccc(-c2ccccc2)cc1 (protonated)
[NH-]S(=O)(=O)c1ccccc1NS(=O)(=O)c1ccc(-c2ccccc2)cc1 (3D coordinates assigned)
[NH-]S(=O)(=O)c1ccccc1NS(=O)(=O)c1ccc(-c2ccccc2)cc1 (optimized conformer: 53.30957584955436 kcal/mol)

>  <smiles>  (13) 
NS(=O)(=O)c1ccccc1NS(=O)(=O)c1ccc(-c2ccccc2)cc1

>  <score_type>  (13) 
oracle

>  <origin>  (13) 
adgpu

>  <m_score__min__energy>  (13) 
-12.710000000000001

>  <m_primary>  (13) 
energy

$$$$
13:0
     RDKit          3D

 49 50  0  0  0  0  0  0  0  0999 V2000
   -4.1730   16.9700  -34.9620 C   0  0  0  0  0  0  0  0  0  0  0  0
   -4.9160   18.2710  -34.6890 C   0  0  0  0  0  0  0  0  0  0  0  0
   -6.3430   18.0050  -34.4950 N   0  0  0  0  0  0  0  0  0  0  0  0
   -6.7040   17.9530  -32.7950 S   0  0  0  0  0  0  0  0  0  0  0  0
   -5.6110   17.2100  -32.0810 O   0  0  0  0  0  0  0  0  0  0  0  0
   -8.0010   17.2280  -32.5660 O   0  0  0  0  0  0  0  0  0  0  0  0
   -6.8070   19.5880  -32.1480 C   0  0  0  0  0  0  0  0  0  0  0  0
   -5.6370   20.3270  -31.9270 C   0  0  0  0  0  0  0  0  0  0  0  0
   -5.7120   21.6380  -31.4460 C   0  0  0  0  0  0  0  0  0  0  0  0
   -6.9590   22.2250  -31.1840 C   0  0  0  0  0  0  0  0  0  0  0  0
   -7.0410   23.6600  -30.7280 C   0  0  0  0  0  0  0  0  0  0  0  0
   -6.0440   24.5520  -31.4760 C   0  0  0  0  0  0  0  0  0  0  0  0
   -5.2570   25.4130  -30.5360 C   0  0  0  0  0  0  0  0  0  0  0  0
   -5.8570   26.2150  -29.7690 O   0  0  0  0  0  0  0  0  0  0  0  0
   -3.8330   25.2840  -30.4810 N   0  0  0  0  0  0  0  0  0  0  0  0
   -3.1490   24.2560  -29.7060 C   0  0  0  0  0  0  0  0  0  0  0  0
   -2.6050   24.8400  -28.4300 C   0  0  0  0  0  0  0  0  0  0  0  0
   -1.4140   25.5800  -28.4490 C   0  0  0  0  0  0  0  0  0  0  0  0
   -0.9210   26.1520  -27.2720 C   0  0  0  0  0  0  0  0  0  0  0  0
   -1.6030   25.9920  -26.0620 C   0  0  0  0  0  0  0  0  0  0  0  0
   -1.0660   26.5840  -24.9100 O   0  0  0  0  0  0  0  0  0  0  0  0
   -0.5120   25.8580  -23.8160 C   0  0  0  0  0  0  0  0  0  0  0  0
   -2.8000   25.2510  -26.0420 C   0  0  0  0  0  0  0  0  0  0  0  0
   -3.2980   24.6840  -27.2190 C   0  0  0  0  0  0  0  0  0  0  0  0
   -8.1300   21.4860  -31.4150 C   0  0  0  0  0  0  0  0  0  0  0  0
   -8.0540   20.1740  -31.8910 C   0  0  0  0  0  0  0  0  0  0  0  0
   -3.9019   16.4953  -34.0074 H   0  0  0  0  0  0  0  0  0  0  0  0
   -4.8201   16.2921  -35.5379 H   0  0  0  0  0  0  0  0  0  0  0  0
   -3.2603   17.1829  -35.5379 H   0  0  0  0  0  0  0  0  0  0  0  0
   -4.5069   18.7401  -33.7821 H   0  0  0  0  0  0  0  0  0  0  0  0
   -4.7893   18.9450  -35.5490 H   0  0  0  0  0  0  0  0  0  0  0  0
   -6.8830   18.8110  -34.8910 H   0  0  0  0  0  0  0  0  0  0  0  0
   -4.6559   19.8741  -32.1327 H   0  0  0  0  0  0  0  0  0  0  0  0
   -4.7894   22.2113  -31.2724 H   0  0  0  0  0  0  0  0  0  0  0  0
   -8.0594   24.0339  -30.9098 H   0  0  0  0  0  0  0  0  0  0  0  0
   -6.7933   23.6934  -29.6568 H   0  0  0  0  0  0  0  0  0  0  0  0
   -5.3490   23.9137  -32.0413 H   0  0  0  0  0  0  0  0  0  0  0  0
   -6.6117   25.2103  -32.1501 H   0  0  0  0  0  0  0  0  0  0  0  0
   -3.8591   23.4517  -29.4633 H   0  0  0  0  0  0  0  0  0  0  0  0
   -2.3148   23.8551  -30.3005 H   0  0  0  0  0  0  0  0  0  0  0  0
   -0.8654   25.7110  -29.3934 H   0  0  0  0  0  0  0  0  0  0  0  0
    0.0124   26.7334  -27.2984 H   0  0  0  0  0  0  0  0  0  0  0  0
   -0.8524   26.3041  -22.8699 H   0  0  0  0  0  0  0  0  0  0  0  0
   -0.8420   24.8099  -23.8668 H   0  0  0  0  0  0  0  0  0  0  0  0
    0.5860   25.8996  -23.8668 H   0  0  0  0  0  0  0  0  0  0  0  0
   -3.3457   25.1176  -25.0963 H   0  0  0  0  0  0  0  0  0  0  0  0
   -4.2377   24.1127  -27.1961 H   0  0  0  0  0  0  0  0  0  0  0  0
   -9.1121   21.9417  -31.2205 H   0  0  0  0  0  0  0  0  0  0  0  0
   -8.9759   19.5995  -32.0645 H   0  0  0  0  0  0  0  0  0  0  0  0
  1  2  1  0
  2  3  1  0
  3  4  1  0
  4  5  2  0
  4  6  2  0
  4  7  1  0
  7  8  2  0
  8  9  1  0
  9 10  2  0
 10 11  1  0
 11 12  1  0
 12 13  1  0
 13 14  2  0
 13 15  1  0
 15 16  1  0
 16 17  1  0
 17 18  2  0
 18 19  1  0
 19 20  2  0
 20 21  1  0
 21 22  1  0
 20 23  1  0
 23 24  2  0
 10 25  1  0
 25 26  2  0
 26  7  1  0
 24 17  1  0
  1 27  1  0
  1 28  1  0
  1 29  1  0
  2 30  1  0
  2 31  1  0
  3 32  1  0
  8 33  1  0
  9 34  1  0
 11 35  1  0
 11 36  1  0
 12 37  1  0
 12 38  1  0
 16 39  1  0
 16 40  1  0
 18 41  1  0
 19 42  1  0
 22 43  1  0
 22 44  1  0
 22 45  1  0
 23 46  1  0
 24 47  1  0
 25 48  1  0
 26 49  1  0
M  CHG  1  15  -1
M  END
>  <UniqueID>  (14) 
14

>  <SMILES>  (14) 
CCNS(=O)(=O)c1ccc(CCC(=O)[N-]Cc2ccc(OC)cc2)cc1

>  <Energy>  (14) 
36.26833101031148

>  <Genealogy>  (14) 
CCNS(=O)(=O)c1ccc(CCC(=O)[N-]Cc2ccc(OC)cc2)cc1 (protonated)
CCNS(=O)(=O)c1ccc(CCC(=O)[N-]Cc2ccc(OC)cc2)cc1 (3D coordinates assigned)
CCNS(=O)(=O)c1ccc(CCC(=O)[N-]Cc2ccc(OC)cc2)cc1 (optimized conformer: 36.26833101031148 kcal/mol)

>  <smiles>  (14) 
CCNS(=O)(=O)c1ccc(CCC(=O)NCc2ccc(OC)cc2)cc1

>  <score_type>  (14) 
oracle

>  <origin>  (14) 
adgpu

>  <m_score__min__energy>  (14) 
-10.550000000000001

>  <m_primary>  (14) 
energy

$$$$
14:0
     RDKit          3D

 46 48  0  0  0  0  0  0  0  0999 V2000
   -3.5800   14.7890  -32.8900 C   0  0  0  0  0  0  0  0  0  0  0  0
   -4.6140   15.3170  -34.2350 S   0  0  0  0  0  0  0  0  0  0  0  0
   -5.5610   14.2100  -34.6060 O   0  0  0  0  0  0  0  0  0  0  0  0
   -3.7600   15.6410  -35.4290 O   0  0  0  0  0  0  0  0  0  0  0  0
   -5.5240   16.7430  -33.7490 C   0  0  0  0  0  0  0  0  0  0  0  0
   -5.4070   17.9350  -34.4740 C   0  0  0  0  0  0  0  0  0  0  0  0
   -6.1180   19.0720  -34.0810 C   0  0  0  0  0  0  0  0  0  0  0  0
   -6.9520   19.0390  -32.9460 C   0  0  0  0  0  0  0  0  0  0  0  0
   -7.7220   20.2330  -32.5140 C   0  0  0  0  0  0  0  0  0  0  0  0
   -7.1010   21.4730  -32.2930 C   0  0  0  0  0  0  0  0  0  0  0  0
   -7.8830   22.5560  -31.8850 C   0  0  0  0  0  0  0  0  0  0  0  0
   -7.2770   23.7960  -31.6640 O   0  0  0  0  0  0  0  0  0  0  0  0
   -6.6770   24.1530  -30.4230 C   0  0  0  0  0  0  0  0  0  0  0  0
   -5.6880   25.2950  -30.6410 C   0  0  0  0  0  0  0  0  0  0  0  0
   -4.3760   24.7920  -30.8960 O   0  0  0  0  0  0  0  0  0  0  0  0
   -3.9450   23.4710  -30.6820 C   0  0  0  0  0  0  0  0  0  0  0  0
   -3.3600   23.0590  -29.4670 C   0  0  0  0  0  0  0  0  0  0  0  0
   -2.9450   21.7360  -29.2950 C   0  0  0  0  0  0  0  0  0  0  0  0
   -3.1110   20.8100  -30.3260 C   0  0  0  0  0  0  0  0  0  0  0  0
   -3.6920   21.2030  -31.5320 C   0  0  0  0  0  0  0  0  0  0  0  0
   -4.1130   22.5290  -31.7180 C   0  0  0  0  0  0  0  0  0  0  0  0
   -4.7040   22.9130  -32.9650 N   0  0  0  0  0  0  0  0  0  0  0  0
   -9.2210   22.3920  -31.7050 N   0  0  0  0  0  0  0  0  0  0  0  0
   -9.8110   21.1870  -31.9120 C   0  0  0  0  0  0  0  0  0  0  0  0
   -9.0640   20.1240  -32.3100 N   0  0  0  0  0  0  0  0  0  0  0  0
   -7.0660   17.8350  -32.2260 C   0  0  0  0  0  0  0  0  0  0  0  0
   -6.3530   16.7000  -32.6220 C   0  0  0  0  0  0  0  0  0  0  0  0
   -4.0658   15.0371  -31.9348 H   0  0  0  0  0  0  0  0  0  0  0  0
   -3.4255   13.7016  -32.9513 H   0  0  0  0  0  0  0  0  0  0  0  0
   -2.6086   15.3014  -32.9513 H   0  0  0  0  0  0  0  0  0  0  0  0
   -4.7524   17.9767  -35.3570 H   0  0  0  0  0  0  0  0  0  0  0  0
   -6.0257   20.0009  -34.6629 H   0  0  0  0  0  0  0  0  0  0  0  0
   -6.0169   21.5894  -32.4388 H   0  0  0  0  0  0  0  0  0  0  0  0
   -7.4579   24.4747  -29.7182 H   0  0  0  0  0  0  0  0  0  0  0  0
   -6.1446   23.2828  -30.0114 H   0  0  0  0  0  0  0  0  0  0  0  0
   -6.0165   25.8965  -31.5014 H   0  0  0  0  0  0  0  0  0  0  0  0
   -5.6570   25.9113  -29.7304 H   0  0  0  0  0  0  0  0  0  0  0  0
   -3.2296   23.7835  -28.6497 H   0  0  0  0  0  0  0  0  0  0  0  0
   -2.4865   21.4236  -28.3451 H   0  0  0  0  0  0  0  0  0  0  0  0
   -2.7834   19.7691  -30.1875 H   0  0  0  0  0  0  0  0  0  0  0  0
   -3.8209   20.4696  -32.3416 H   0  0  0  0  0  0  0  0  0  0  0  0
   -5.6040   23.4430  -32.9880 H   0  0  0  0  0  0  0  0  0  0  0  0
   -4.2560   22.6730  -33.8770 H   0  0  0  0  0  0  0  0  0  0  0  0
  -10.8939   21.0711  -31.7575 H   0  0  0  0  0  0  0  0  0  0  0  0
   -7.7218   17.7869  -31.3442 H   0  0  0  0  0  0  0  0  0  0  0  0
   -6.4438   15.7679  -32.0449 H   0  0  0  0  0  0  0  0  0  0  0  0
  1  2  1  0
  2  3  2  0
  2  4  2  0
  2  5  1  0
  5  6  2  0
  6  7  1  0
  7  8  2  0
  8  9  1  0
  9 10  2  0
 10 11  1  0
 11 12  1  0
 12 13  1  0
 13 14  1  0
 14 15  1  0
 15 16  1  0
 16 17  2  0
 17 18  1  0
 18 19  2  0
 19 20  1  0
 20 21  2  0
 21 22  1  0
 11 23  2  0
 23 24  1  0
 24 25  2  0
  8 26  1  0
 26 27  2  0
 27  5  1  0
 25  9  1  0
 21 16  1  0
  1 28  1  0
  1 29  1  0
  1 30  1  0
  6 31  1  0
  7 32  1  0
 10 33  1  0
 13 34  1  0
 13 35  1  0
 14 36  1  0
 14 37  1  0
 17 38  1  0
 18 39  1  0
 19 40  1  0
 20 41  1  0
 22 42  1  0
 22 43  1  0
 24 44  1  0
 26 45  1  0
 27 46  1  0
M  END
>  <UniqueID>  (15) 
15

>  <SMILES>  (15) 
CS(=O)(=O)c1ccc(-c2cc(OCCOc3ccccc3N)ncn2)cc1

>  <Energy>  (15) 
46.97444914643548

>  <Genealogy>  (15) 
CS(=O)(=O)c1ccc(-c2cc(OCCOc3ccccc3N)ncn2)cc1 (3D coordinates assigned)
CS(=O)(=O)c1ccc(-c2cc(OCCOc3ccccc3N)ncn2)cc1 (optimized conformer: 46.97444914643548 kcal/mol)

>  <smiles>  (15) 
CS(=O)(=O)c1ccc(-c2cc(OCCOc3ccccc3N)ncn2)cc1

>  <score_type>  (15) 
oracle

>  <origin>  (15) 
adgpu

>  <m_score__min__energy>  (15) 
-8.4600000000000009

>  <m_primary>  (15) 
energy

$$$$
15:0
     RDKit          3D

 49 51  0  0  0  0  0  0  0  0999 V2000
   -7.1220   18.0960  -31.8390 C   0  0  0  0  0  0  0  0  0  0  0  0
   -8.3050   18.9650  -32.1360 C   0  0  0  0  0  0  0  0  0  0  0  0
   -9.4620   18.5000  -31.9640 O   0  0  0  0  0  0  0  0  0  0  0  0
   -8.1620   20.3250  -32.5710 N   0  0  0  0  0  0  0  0  0  0  0  0
   -7.3890   21.3490  -31.9300 C   0  0  0  0  0  0  0  0  0  0  0  0
   -7.9420   22.0320  -30.8400 C   0  0  0  0  0  0  0  0  0  0  0  0
   -7.2230   23.0460  -30.2020 C   0  0  0  0  0  0  0  0  0  0  0  0
   -5.9490   23.4040  -30.6640 C   0  0  0  0  0  0  0  0  0  0  0  0
   -5.0130   24.6400  -29.8330 S   0  0  0  0  0  0  0  0  0  0  0  0
   -4.0820   25.2940  -30.8160 O   0  0  0  0  0  0  0  0  0  0  0  0
   -5.9240   25.6970  -29.2710 O   0  0  0  0  0  0  0  0  0  0  0  0
   -4.1100   23.9150  -28.5360 N   0  0  0  0  0  0  0  0  0  0  0  0
   -4.1380   24.5290  -27.2050 C   0  0  0  0  0  0  0  0  0  0  0  0
   -2.8020   25.1480  -26.8890 C   0  0  0  0  0  0  0  0  0  0  0  0
   -2.5430   25.6550  -25.6040 C   0  0  0  0  0  0  0  0  0  0  0  0
   -1.3220   26.2760  -25.3240 C   0  0  0  0  0  0  0  0  0  0  0  0
   -0.3530   26.3980  -26.3230 C   0  0  0  0  0  0  0  0  0  0  0  0
   -0.6030   25.9000  -27.6040 C   0  0  0  0  0  0  0  0  0  0  0  0
   -1.8240   25.2800  -27.8900 C   0  0  0  0  0  0  0  0  0  0  0  0
   -3.3160   22.7440  -28.7840 C   0  0  0  0  0  0  0  0  0  0  0  0
   -2.6330   22.6020  -30.0000 C   0  0  0  0  0  0  0  0  0  0  0  0
   -1.8910   21.4480  -30.2600 C   0  0  0  0  0  0  0  0  0  0  0  0
   -1.8230   20.4280  -29.3080 C   0  0  0  0  0  0  0  0  0  0  0  0
   -2.4900   20.5620  -28.0800 C   0  0  0  0  0  0  0  0  0  0  0  0
   -2.4530   19.4510  -27.0740 C   0  0  0  0  0  0  0  0  0  0  0  0
   -3.2480   21.7170  -27.8300 C   0  0  0  0  0  0  0  0  0  0  0  0
   -5.4070   22.7450  -31.7740 C   0  0  0  0  0  0  0  0  0  0  0  0
   -6.1250   21.7290  -32.4110 C   0  0  0  0  0  0  0  0  0  0  0  0
   -6.9981   18.0050  -30.7498 H   0  0  0  0  0  0  0  0  0  0  0  0
   -7.2812   17.0985  -32.2745 H   0  0  0  0  0  0  0  0  0  0  0  0
   -6.2178   18.5462  -32.2745 H   0  0  0  0  0  0  0  0  0  0  0  0
   -8.9488   21.7686  -30.4837 H   0  0  0  0  0  0  0  0  0  0  0  0
   -7.6579   23.5647  -29.3349 H   0  0  0  0  0  0  0  0  0  0  0  0
   -4.9142   25.3081  -27.1806 H   0  0  0  0  0  0  0  0  0  0  0  0
   -4.3600   23.7537  -26.4569 H   0  0  0  0  0  0  0  0  0  0  0  0
   -3.3041   25.5628  -24.8152 H   0  0  0  0  0  0  0  0  0  0  0  0
   -1.1241   26.6690  -24.3158 H   0  0  0  0  0  0  0  0  0  0  0  0
    0.6072   26.8864  -26.1008 H   0  0  0  0  0  0  0  0  0  0  0  0
    0.1615   25.9955  -28.3891 H   0  0  0  0  0  0  0  0  0  0  0  0
   -2.0194   24.8945  -28.9015 H   0  0  0  0  0  0  0  0  0  0  0  0
   -2.6818   23.4029  -30.7524 H   0  0  0  0  0  0  0  0  0  0  0  0
   -1.3587   21.3419  -31.2168 H   0  0  0  0  0  0  0  0  0  0  0  0
   -1.2449   19.5168  -29.5213 H   0  0  0  0  0  0  0  0  0  0  0  0
   -2.4671   19.8748  -26.0590 H   0  0  0  0  0  0  0  0  0  0  0  0
   -3.3300   18.8016  -27.2124 H   0  0  0  0  0  0  0  0  0  0  0  0
   -1.5347   18.8614  -27.2124 H   0  0  0  0  0  0  0  0  0  0  0  0
   -3.7925   21.8177  -26.8795 H   0  0  0  0  0  0  0  0  0  0  0  0
   -4.4115   23.0281  -32.1465 H   0  0  0  0  0  0  0  0  0  0  0  0
   -5.6991   21.2255  -33.2914 H   0  0  0  0  0  0  0  0  0  0  0  0
  1  2  1  0
  2  3  2  0
  2  4  1  0
  4  5  1  0
  5  6  2  0
  6  7  1  0
  7  8  2  0
  8  9  1  0
  9 10  2  0
  9 11  2  0
  9 12  1  0
 12 13  1  0
 13 14  1  0
 14 15  2  0
 15 16  1  0
 16 17  2  0
 17 18  1  0
 18 19  2  0
 12 20  1  0
 20 21  2  0
 21 22  1  0
 22 23  2  0
 23 24  1  0
 24 25  1  0
 24 26  2  0
  8 27  1  0
 27 28  2  0
 28  5  1  0
 19 14  1  0
 26 20  1  0
  1 29  1  0
  1 30  1  0
  1 31  1  0
  6 32  1  0
  7 33  1  0
 13 34  1  0
 13 35  1  0
 15 36  1  0
 16 37  1  0
 17 38  1  0
 18 39  1  0
 19 40  1  0
 21 41  1  0
 22 42  1  0
 23 43  1  0
 25 44  1  0
 25 45  1  0
 25 46  1  0
 26 47  1  0
 27 48  1  0
 28 49  1  0
M  CHG  1   4  -1
M  END
>  <UniqueID>  (16) 
16

>  <SMILES>  (16) 
CC(=O)[N-]c1ccc(S(=O)(=O)N(Cc2ccccc2)c2cccc(C)c2)cc1

>  <Energy>  (16) 
55.304960423243465

>  <Genealogy>  (16) 
CC(=O)[N-]c1ccc(S(=O)(=O)N(Cc2ccccc2)c2cccc(C)c2)cc1 (protonated)
CC(=O)[N-]c1ccc(S(=O)(=O)N(Cc2ccccc2)c2cccc(C)c2)cc1 (3D coordinates assigned)
CC(=O)[N-]c1ccc(S(=O)(=O)N(Cc2ccccc2)c2cccc(C)c2)cc1 (optimized conformer: 55.304960423243465 kcal/mol)

>  <smiles>  (16) 
CC(=O)Nc1ccc(S(=O)(=O)N(Cc2ccccc2)c2cccc(C)c2)cc1

>  <score_type>  (16) 
oracle

>  <origin>  (16) 
adgpu

>  <m_score__min__energy>  (16) 
-10.31

>  <m_primary>  (16) 
energy

$$$$
16:0
     RDKit          3D

 29 30  0  0  0  0  0  0  0  0999 V2000
   -5.7850   15.2050  -33.8550 C   0  0  0  0  0  0  0  0  0  0  0  0
   -6.8780   16.1120  -33.7600 O   0  0  0  0  0  0  0  0  0  0  0  0
   -6.7520   17.4710  -33.4350 C   0  0  0  0  0  0  0  0  0  0  0  0
   -5.9090   18.2670  -34.2200 C   0  0  0  0  0  0  0  0  0  0  0  0
   -5.7510   19.6270  -33.9400 C   0  0  0  0  0  0  0  0  0  0  0  0
   -6.4500   20.2170  -32.8720 C   0  0  0  0  0  0  0  0  0  0  0  0
   -6.2880   21.6090  -32.5460 N   0  0  0  0  0  0  0  0  0  0  0  0
   -7.1960   22.3540  -31.7190 C   0  0  0  0  0  0  0  0  0  0  0  0
   -8.0810   21.7640  -31.0420 O   0  0  0  0  0  0  0  0  0  0  0  0
   -7.0340   23.8360  -31.5810 C   0  0  0  0  0  0  0  0  0  0  0  0
   -5.6230   24.1650  -31.2120 C   0  0  0  0  0  0  0  0  0  0  0  0
   -5.1670   25.3760  -30.7520 C   0  0  0  0  0  0  0  0  0  0  0  0
   -3.8580   25.2670  -30.4670 N   0  0  0  0  0  0  0  0  0  0  0  0
   -3.5640   23.9820  -30.7580 C   0  0  0  0  0  0  0  0  0  0  0  0
   -4.6180   23.2720  -31.2090 N   0  0  0  0  0  0  0  0  0  0  0  0
   -7.2760   19.4170  -32.0720 C   0  0  0  0  0  0  0  0  0  0  0  0
   -7.4360   18.0560  -32.3530 C   0  0  0  0  0  0  0  0  0  0  0  0
   -5.4502   14.9272  -32.8447 H   0  0  0  0  0  0  0  0  0  0  0  0
   -6.1036   14.3023  -34.3969 H   0  0  0  0  0  0  0  0  0  0  0  0
   -4.9565   15.6846  -34.3969 H   0  0  0  0  0  0  0  0  0  0  0  0
   -5.3662   17.8178  -35.0647 H   0  0  0  0  0  0  0  0  0  0  0  0
   -5.0769   20.2386  -34.5577 H   0  0  0  0  0  0  0  0  0  0  0  0
   -5.4110   22.0870  -32.8560 H   0  0  0  0  0  0  0  0  0  0  0  0
   -7.2826   24.3200  -32.5370 H   0  0  0  0  0  0  0  0  0  0  0  0
   -7.7076   24.2005  -30.7914 H   0  0  0  0  0  0  0  0  0  0  0  0
   -5.7737   26.2862  -30.6358 H   0  0  0  0  0  0  0  0  0  0  0  0
   -2.5579   23.5538  -30.6383 H   0  0  0  0  0  0  0  0  0  0  0  0
   -7.8032   19.8627  -31.2156 H   0  0  0  0  0  0  0  0  0  0  0  0
   -8.0986   17.4410  -31.7263 H   0  0  0  0  0  0  0  0  0  0  0  0
  1  2  1  0
  2  3  1  0
  3  4  2  0
  4  5  1  0
  5  6  2  0
  6  7  1  0
  7  8  1  0
  8  9  2  0
  8 10  1  0
 10 11  1  0
 11 12  2  0
 12 13  1  0
 13 14  1  0
 14 15  2  0
  6 16  1  0
 16 17  2  0
 17  3  1  0
 15 11  1  0
  1 18  1  0
  1 19  1  0
  1 20  1  0
  4 21  1  0
  5 22  1  0
  7 23  1  0
 10 24  1  0
 10 25  1  0
 12 26  1  0
 14 27  1  0
 16 28  1  0
 17 29  1  0
M  CHG  1  13  -1
M  END
>  <UniqueID>  (17) 
17

>  <SMILES>  (17) 
COc1ccc(NC(=O)Cc2c[n-]cn2)cc1

>  <Energy>  (17) 
56.706789637803574

>  <Genealogy>  (17) 
COc1ccc(NC(=O)Cc2c[n-]cn2)cc1 (protonated)
COc1ccc(NC(=O)Cc2c[n-]cn2)cc1 (3D coordinates assigned)
COc1ccc(NC(=O)Cc2c[n-]cn2)cc1 (optimized conformer: 56.706789637803574 kcal/mol)

>  <smiles>  (17) 
COc1ccc(NC(=O)Cc2c[nH]cn2)cc1

>  <score_type>  (17) 
oracle

>  <origin>  (17) 
adgpu

>  <m_score__min__energy>  (17) 
-7.3799999999999999

>  <m_primary>  (17) 
energy

$$$$
17:0
     RDKit          3D

 58 62  0  0  0  0  0  0  0  0999 V2000
   -7.3800   19.8170  -34.9170 H   0  0  0  0  0  0  0  0  0  0  0  0
   -6.4830   19.3780  -35.0840 O   0  0  0  0  0  0  0  0  0  0  0  0
   -5.9380   18.4540  -34.1890 C   0  0  0  0  0  0  0  0  0  0  0  0
   -4.6300   17.9830  -34.3820 C   0  0  0  0  0  0  0  0  0  0  0  0
   -4.0347   18.3613  -35.2261 H   0  0  0  0  0  0  0  0  0  0  0  0
   -4.0750   17.0380  -33.5130 C   0  0  0  0  0  0  0  0  0  0  0  0
   -2.7570   16.6150  -33.7510 O   0  0  0  0  0  0  0  0  0  0  0  0
   -1.6580   17.4760  -34.0420 C   0  0  0  0  0  0  0  0  0  0  0  0
   -0.7194   16.9749  -33.7629 H   0  0  0  0  0  0  0  0  0  0  0  0
   -1.6546   17.7045  -35.1180 H   0  0  0  0  0  0  0  0  0  0  0  0
   -1.7860   18.7480  -33.2730 C   0  0  0  0  0  0  0  0  0  0  0  0
   -1.5580   18.8610  -31.9510 N   0  0  0  0  0  0  0  0  0  0  0  0
   -1.7910   20.1770  -31.7510 C   0  0  0  0  0  0  0  0  0  0  0  0
   -1.6560   20.8530  -30.4410 C   0  0  0  0  0  0  0  0  0  0  0  0
   -2.5600   20.5750  -29.3970 C   0  0  0  0  0  0  0  0  0  0  0  0
   -3.3797   19.8597  -29.5593 H   0  0  0  0  0  0  0  0  0  0  0  0
   -2.4210   21.2040  -28.1540 C   0  0  0  0  0  0  0  0  0  0  0  0
   -3.1344   20.9862  -27.3455 H   0  0  0  0  0  0  0  0  0  0  0  0
   -1.3740   22.1110  -27.9380 C   0  0  0  0  0  0  0  0  0  0  0  0
   -1.2617   22.5988  -26.9585 H   0  0  0  0  0  0  0  0  0  0  0  0
   -0.4730   22.3950  -28.9680 C   0  0  0  0  0  0  0  0  0  0  0  0
    0.3469   23.1085  -28.7988 H   0  0  0  0  0  0  0  0  0  0  0  0
   -0.6120   21.7730  -30.2150 C   0  0  0  0  0  0  0  0  0  0  0  0
    0.0978   22.0037  -31.0231 H   0  0  0  0  0  0  0  0  0  0  0  0
   -2.1360   20.8140  -32.8880 N   0  0  0  0  0  0  0  0  0  0  0  0
   -2.1200   19.8950  -33.8060 O   0  0  0  0  0  0  0  0  0  0  0  0
   -4.8510   16.5520  -32.4450 C   0  0  0  0  0  0  0  0  0  0  0  0
   -4.4282   15.8024  -31.7599 H   0  0  0  0  0  0  0  0  0  0  0  0
   -6.1540   17.0140  -32.2480 C   0  0  0  0  0  0  0  0  0  0  0  0
   -6.7578   16.6115  -31.4213 H   0  0  0  0  0  0  0  0  0  0  0  0
   -6.6970   17.9880  -33.0980 C   0  0  0  0  0  0  0  0  0  0  0  0
   -8.0650   18.4850  -32.8330 C   0  0  0  0  0  0  0  0  0  0  0  0
   -8.9094   17.8084  -33.0307 H   0  0  0  0  0  0  0  0  0  0  0  0
   -8.3270   19.6750  -32.3800 N   0  0  0  0  0  0  0  0  0  0  0  0
   -7.3650   20.6420  -31.9320 C   0  0  0  0  0  0  0  0  0  0  0  0
   -7.6280   21.3810  -30.7730 C   0  0  0  0  0  0  0  0  0  0  0  0
   -8.5376   21.1783  -30.1886 H   0  0  0  0  0  0  0  0  0  0  0  0
   -6.7390   22.3760  -30.3550 C   0  0  0  0  0  0  0  0  0  0  0  0
   -6.9662   22.9753  -29.4610 H   0  0  0  0  0  0  0  0  0  0  0  0
   -5.5580   22.6110  -31.0740 C   0  0  0  0  0  0  0  0  0  0  0  0
   -4.4850   23.9400  -30.6430 S   0  0  0  0  0  0  0  0  0  0  0  0
   -5.0450   25.2240  -31.1880 O   0  0  0  0  0  0  0  0  0  0  0  0
   -3.1080   23.7240  -31.2150 O   0  0  0  0  0  0  0  0  0  0  0  0
   -4.3810   24.0400  -28.9120 N   0  0  0  0  0  0  0  0  0  0  0  0
   -3.3850   24.5870  -28.2820 C   0  0  0  0  0  0  0  0  0  0  0  0
   -2.3520   25.1610  -28.9660 N   0  0  0  0  0  0  0  0  0  0  0  0
   -1.2910   25.7220  -28.3280 C   0  0  0  0  0  0  0  0  0  0  0  0
   -0.4781   26.1799  -28.9107 H   0  0  0  0  0  0  0  0  0  0  0  0
   -1.2330   25.7170  -26.9350 C   0  0  0  0  0  0  0  0  0  0  0  0
   -0.3748   26.1655  -26.4131 H   0  0  0  0  0  0  0  0  0  0  0  0
   -2.2770   25.1360  -26.2080 C   0  0  0  0  0  0  0  0  0  0  0  0
   -2.2429   25.1221  -25.1086 H   0  0  0  0  0  0  0  0  0  0  0  0
   -3.3640   24.5730  -26.8830 C   0  0  0  0  0  0  0  0  0  0  0  0
   -4.1949   24.1233  -26.3197 H   0  0  0  0  0  0  0  0  0  0  0  0
   -5.2610   21.8250  -32.1930 C   0  0  0  0  0  0  0  0  0  0  0  0
   -4.3206   21.9842  -32.7410 H   0  0  0  0  0  0  0  0  0  0  0  0
   -6.1550   20.8390  -32.6160 C   0  0  0  0  0  0  0  0  0  0  0  0
   -5.9103   20.2147  -33.4880 H   0  0  0  0  0  0  0  0  0  0  0  0
  1  2  1  0
  2  3  1  0
  3  4  2  0
  4  5  1  0
  4  6  1  0
  6  7  1  0
  7  8  1  0
  8  9  1  0
  8 10  1  0
  8 11  1  0
 11 12  2  0
 12 13  1  0
 13 14  1  0
 14 15  2  0
 15 16  1  0
 15 17  1  0
 17 18  1  0
 17 19  2  0
 19 20  1  0
 19 21  1  0
 21 22  1  0
 21 23  2  0
 23 24  1  0
 13 25  2  0
 25 26  1  0
  6 27  2  0
 27 28  1  0
 27 29  1  0
 29 30  1  0
 29 31  2  0
 31 32  1  0
 32 33  1  0
 32 34  2  3
 34 35  1  0
 35 36  2  0
 36 37  1  0
 36 38  1  0
 38 39  1  0
 38 40  2  0
 40 41  1  0
 41 42  2  0
 41 43  2  0
 41 44  1  0
 44 45  2  0
 45 46  1  0
 46 47  1  0
 47 48  1  0
 47 49  2  0
 49 50  1  0
 49 51  1  0
 51 52  1  0
 51 53  2  0
 53 54  1  0
 40 55  1  0
 55 56  1  0
 55 57  2  0
 57 58  1  0
 31  3  1  0
 57 35  1  0
 26 11  1  0
 53 45  1  0
 23 14  1  0
M  CHG  1  46  -1
M  END
>  <UniqueID>  (18) 
18

>  <SMILES>  (18) 
O=S(=O)(/N=c1/cccc[n-]1)c1ccc(N=Cc2ccc(OCc3nc(-c4ccccc4)no3)cc2O)cc1

>  <Energy>  (18) 
111.76483169707849

>  <Genealogy>  (18) 
O=S(=O)(N=c1cccc[n-]1)c1ccc(N=Cc2ccc(OCc3nc(-c4ccccc4)no3)cc2O)cc1 (protonated)
O=S(=O)(/N=c1/cccc[n-]1)c1ccc(N=Cc2ccc(OCc3nc(-c4ccccc4)no3)cc2O)cc1 (cis-trans isomerization)
O=S(=O)(/N=c1/cccc[n-]1)c1ccc(N=Cc2ccc(OCc3nc(-c4ccccc4)no3)cc2O)cc1 (3D coordinates assigned)
O=S(=O)(/N=c1/cccc[n-]1)c1ccc(N=Cc2ccc(OCc3nc(-c4ccccc4)no3)cc2O)cc1 (optimized conformer: 111.76483169707849 kcal/mol)

>  <smiles>  (18) 
O=S(=O)(N=c1cccc[nH]1)c1ccc(N=Cc2ccc(OCc3nc(-c4ccccc4)no3)cc2O)cc1

>  <score_type>  (18) 
oracle

>  <origin>  (18) 
adgpu

>  <m_score__min__energy>  (18) 
-13.6

>  <m_primary>  (18) 
energy

$$$$
18:0
     RDKit          3D

 42 44  0  0  0  0  0  0  0  0999 V2000
   -0.1150   23.0690  -25.4070 C   0  0  0  0  0  0  0  0  0  0  0  0
   -1.2160   23.1980  -26.4280 C   0  0  0  0  0  0  0  0  0  0  0  0
   -1.7540   22.0310  -26.9930 C   0  0  0  0  0  0  0  0  0  0  0  0
   -2.7550   22.1040  -27.9630 C   0  0  0  0  0  0  0  0  0  0  0  0
   -3.2320   23.3460  -28.3970 C   0  0  0  0  0  0  0  0  0  0  0  0
   -4.2730   23.3900  -29.3870 N   0  0  0  0  0  0  0  0  0  0  0  0
   -4.3430   24.3700  -30.4380 C   0  0  0  0  0  0  0  0  0  0  0  0
   -3.4930   25.2970  -30.5070 O   0  0  0  0  0  0  0  0  0  0  0  0
   -5.3960   24.3310  -31.4090 N   0  0  0  0  0  0  0  0  0  0  0  0
   -6.2440   23.2090  -31.6830 C   0  0  0  0  0  0  0  0  0  0  0  0
   -7.5900   23.1940  -31.2860 C   0  0  0  0  0  0  0  0  0  0  0  0
   -8.3830   22.0760  -31.5370 C   0  0  0  0  0  0  0  0  0  0  0  0
   -7.8440   20.9500  -32.1680 C   0  0  0  0  0  0  0  0  0  0  0  0
   -8.9050   19.5720  -32.4520 Cl  0  0  0  0  0  0  0  0  0  0  0  0
   -6.4830   20.9360  -32.5500 C   0  0  0  0  0  0  0  0  0  0  0  0
   -5.8810   19.7200  -33.2210 C   0  0  0  0  0  0  0  0  0  0  0  0
   -6.4880   19.4480  -34.4350 F   0  0  0  0  0  0  0  0  0  0  0  0
   -6.0340   18.6150  -32.4040 F   0  0  0  0  0  0  0  0  0  0  0  0
   -4.5340   19.9340  -33.4500 F   0  0  0  0  0  0  0  0  0  0  0  0
   -5.6930   22.0740  -32.2890 C   0  0  0  0  0  0  0  0  0  0  0  0
   -2.7350   24.5170  -27.8040 C   0  0  0  0  0  0  0  0  0  0  0  0
   -1.7360   24.4580  -26.8160 C   0  0  0  0  0  0  0  0  0  0  0  0
   -1.2640   25.7250  -26.2110 C   0  0  0  0  0  0  0  0  0  0  0  0
   -0.5700   26.6770  -26.9690 C   0  0  0  0  0  0  0  0  0  0  0  0
   -0.1330   27.8230  -26.3850 N   0  0  0  0  0  0  0  0  0  0  0  0
   -0.3530   28.0650  -25.0660 C   0  0  0  0  0  0  0  0  0  0  0  0
    0.0710   29.1650  -24.5360 N   0  0  0  0  0  0  0  0  0  0  0  0
   -1.0120   27.1480  -24.3080 N   0  0  0  0  0  0  0  0  0  0  0  0
   -1.4650   25.9870  -24.8510 C   0  0  0  0  0  0  0  0  0  0  0  0
   -0.5450   23.1194  -24.3958 H   0  0  0  0  0  0  0  0  0  0  0  0
    0.3973   22.1047  -25.5400 H   0  0  0  0  0  0  0  0  0  0  0  0
    0.6063   23.8888  -25.5400 H   0  0  0  0  0  0  0  0  0  0  0  0
   -1.3826   21.0480  -26.6677 H   0  0  0  0  0  0  0  0  0  0  0  0
   -3.1716   21.1794  -28.3890 H   0  0  0  0  0  0  0  0  0  0  0  0
   -4.9760   22.6180  -29.3760 H   0  0  0  0  0  0  0  0  0  0  0  0
   -8.0205   24.0678  -30.7749 H   0  0  0  0  0  0  0  0  0  0  0  0
   -9.4412   22.0790  -31.2366 H   0  0  0  0  0  0  0  0  0  0  0  0
   -4.6283   22.0699  -32.5655 H   0  0  0  0  0  0  0  0  0  0  0  0
   -3.1323   25.4941  -28.1163 H   0  0  0  0  0  0  0  0  0  0  0  0
   -0.3789   26.4965  -28.0371 H   0  0  0  0  0  0  0  0  0  0  0  0
   -0.0810   29.3770  -23.5240 H   0  0  0  0  0  0  0  0  0  0  0  0
   -1.9896   25.2533  -24.2213 H   0  0  0  0  0  0  0  0  0  0  0  0
  1  2  1  0
  2  3  2  0
  3  4  1  0
  4  5  2  0
  5  6  1  0
  6  7  1  0
  7  8  2  0
  7  9  1  0
  9 10  1  0
 10 11  2  0
 11 12  1  0
 12 13  2  0
 13 14  1  0
 13 15  1  0
 15 16  1  0
 16 17  1  0
 16 18  1  0
 16 19  1  0
 15 20  2  0
  5 21  1  0
 21 22  2  0
 22 23  1  0
 23 24  1  0
 24 25  2  0
 25 26  1  0
 26 27  2  3
 26 28  1  0
 28 29  1  0
 22  2  1  0
 29 23  2  0
 20 10  1  0
  1 30  1  0
  1 31  1  0
  1 32  1  0
  3 33  1  0
  4 34  1  0
  6 35  1  0
 11 36  1  0
 12 37  1  0
 20 38  1  0
 21 39  1  0
 24 40  1  0
 27 41  1  0
 29 42  1  0
M  CHG  2   9  -1  28  -1
M  END
>  <UniqueID>  (19) 
19

>  <SMILES>  (19) 
Cc1ccc(NC(=O)[N-]c2ccc(Cl)c(C(F)(F)F)c2)cc1-c1cnc(=N)[n-]c1

>  <Energy>  (19) 
63.410460391461044

>  <Genealogy>  (19) 
Cc1ccc(NC(=O)[N-]c2ccc(Cl)c(C(F)(F)F)c2)cc1-c1cnc(=N)[n-]c1 (protonated)
Cc1ccc(NC(=O)[N-]c2ccc(Cl)c(C(F)(F)F)c2)cc1-c1cnc(=N)[n-]c1 (3D coordinates assigned)
Cc1ccc(NC(=O)[N-]c2ccc(Cl)c(C(F)(F)F)c2)cc1-c1cnc(=N)[n-]c1 (optimized conformer: 63.410460391461044 kcal/mol)

>  <smiles>  (19) 
Cc1ccc(NC(=O)Nc2ccc(Cl)c(C(F)(F)F)c2)cc1-c1cnc(=N)[nH]c1

>  <score_type>  (19) 
oracle

>  <origin>  (19) 
adgpu

>  <m_score__min__energy>  (19) 
-10.24

>  <m_primary>  (19) 
energy

$$$$
19:0
     RDKit          3D

 45 46  0  0  0  0  0  0  0  0999 V2000
   -5.5990   16.8770  -32.2590 C   0  0  0  0  0  0  0  0  0  0  0  0
   -6.2820   18.0600  -32.8180 N   0  0  0  0  0  0  0  0  0  0  0  0
   -6.1040   18.1180  -34.2880 C   0  0  0  0  0  0  0  0  0  0  0  0
   -4.6710   17.7400  -34.6860 C   0  0  0  0  0  0  0  0  0  0  0  0
   -3.6400   18.7380  -34.1200 C   0  0  0  0  0  0  0  0  0  0  0  0
   -4.1810   19.5150  -32.9890 N   0  0  0  0  0  0  0  0  0  0  0  0
   -3.2570   20.5750  -32.5510 C   0  0  0  0  0  0  0  0  0  0  0  0
   -4.0200   21.7080  -31.9050 C   0  0  0  0  0  0  0  0  0  0  0  0
   -4.9770   22.4090  -32.6600 C   0  0  0  0  0  0  0  0  0  0  0  0
   -5.6770   23.4790  -32.0990 C   0  0  0  0  0  0  0  0  0  0  0  0
   -5.4220   23.8700  -30.7820 C   0  0  0  0  0  0  0  0  0  0  0  0
   -6.3010   25.2170  -30.0810 Cl  0  0  0  0  0  0  0  0  0  0  0  0
   -4.4620   23.1920  -30.0260 C   0  0  0  0  0  0  0  0  0  0  0  0
   -3.7540   22.1190  -30.5790 C   0  0  0  0  0  0  0  0  0  0  0  0
   -2.5400   21.3190  -29.5840 Cl  0  0  0  0  0  0  0  0  0  0  0  0
   -7.7160   18.0460  -32.4590 C   0  0  0  0  0  0  0  0  0  0  0  0
   -8.1850   19.4280  -32.0810 C   0  0  0  0  0  0  0  0  0  0  0  0
   -9.4240   19.9120  -32.5320 C   0  0  0  0  0  0  0  0  0  0  0  0
   -9.8560   21.1900  -32.1610 C   0  0  0  0  0  0  0  0  0  0  0  0
   -9.0570   21.9890  -31.3380 C   0  0  0  0  0  0  0  0  0  0  0  0
   -7.8230   21.5120  -30.8830 C   0  0  0  0  0  0  0  0  0  0  0  0
   -7.3880   20.2350  -31.2520 C   0  0  0  0  0  0  0  0  0  0  0  0
   -5.6257   16.9233  -31.1603 H   0  0  0  0  0  0  0  0  0  0  0  0
   -6.1089   15.9640  -32.6000 H   0  0  0  0  0  0  0  0  0  0  0  0
   -4.5533   16.8621  -32.6000 H   0  0  0  0  0  0  0  0  0  0  0  0
   -6.8057   17.4165  -34.7629 H   0  0  0  0  0  0  0  0  0  0  0  0
   -6.3000   19.1471  -34.6234 H   0  0  0  0  0  0  0  0  0  0  0  0
   -4.4460   16.7359  -34.2971 H   0  0  0  0  0  0  0  0  0  0  0  0
   -4.6028   17.7618  -35.7837 H   0  0  0  0  0  0  0  0  0  0  0  0
   -2.7574   18.1789  -33.7759 H   0  0  0  0  0  0  0  0  0  0  0  0
   -3.3782   19.4447  -34.9213 H   0  0  0  0  0  0  0  0  0  0  0  0
   -5.1090   19.9250  -33.2450 H   0  0  0  0  0  0  0  0  0  0  0  0
   -4.3310   18.8570  -32.1870 H   0  0  0  0  0  0  0  0  0  0  0  0
   -2.5451   20.1571  -31.8240 H   0  0  0  0  0  0  0  0  0  0  0  0
   -2.7189   20.9630  -33.4284 H   0  0  0  0  0  0  0  0  0  0  0  0
   -5.1757   22.1122  -33.7004 H   0  0  0  0  0  0  0  0  0  0  0  0
   -6.4304   24.0150  -32.6948 H   0  0  0  0  0  0  0  0  0  0  0  0
   -4.2617   23.5035  -28.9902 H   0  0  0  0  0  0  0  0  0  0  0  0
   -8.3002   17.6895  -33.3202 H   0  0  0  0  0  0  0  0  0  0  0  0
   -7.8581   17.3768  -31.5976 H   0  0  0  0  0  0  0  0  0  0  0  0
  -10.0560   19.2850  -33.1782 H   0  0  0  0  0  0  0  0  0  0  0  0
  -10.8260   21.5667  -32.5175 H   0  0  0  0  0  0  0  0  0  0  0  0
   -9.3988   22.9935  -31.0479 H   0  0  0  0  0  0  0  0  0  0  0  0
   -7.1950   22.1412  -30.2351 H   0  0  0  0  0  0  0  0  0  0  0  0
   -6.4182   19.8611  -30.8918 H   0  0  0  0  0  0  0  0  0  0  0  0
  1  2  1  0
  2  3  1  0
  3  4  1  0
  4  5  1  0
  5  6  1  0
  6  7  1  0
  7  8  1  0
  8  9  2  0
  9 10  1  0
 10 11  2  0
 11 12  1  0
 11 13  1  0
 13 14  2  0
 14 15  1  0
  2 16  1  0
 16 17  1  0
 17 18  2  0
 18 19  1  0
 19 20  2  0
 20 21  1  0
 21 22  2  0
 14  8  1  0
 22 17  1  0
  1 23  1  0
  1 24  1  0
  1 25  1  0
  3 26  1  0
  3 27  1  0
  4 28  1  0
  4 29  1  0
  5 30  1  0
  5 31  1  0
  6 32  1  0
  6 33  1  0
  7 34  1  0
  7 35  1  0
  9 36  1  0
 10 37  1  0
 13 38  1  0
 16 39  1  0
 16 40  1  0
 18 41  1  0
 19 42  1  0
 20 43  1  0
 21 44  1  0
 22 45  1  0
M  CHG  1   6   1
M  END
>  <UniqueID>  (20) 
20

>  <SMILES>  (20) 
CN(CCC[NH2+]Cc1ccc(Cl)cc1Cl)Cc1ccccc1

>  <Energy>  (20) 
44.10690326340345

>  <Genealogy>  (20) 
CN(CCC[NH2+]Cc1ccc(Cl)cc1Cl)Cc1ccccc1 (protonated)
CN(CCC[NH2+]Cc1ccc(Cl)cc1Cl)Cc1ccccc1 (3D coordinates assigned)
CN(CCC[NH2+]Cc1ccc(Cl)cc1Cl)Cc1ccccc1 (optimized conformer: 44.10690326340345 kcal/mol)

>  <smiles>  (20) 
CN(CCCNCc1ccc(Cl)cc1Cl)Cc1ccccc1

>  <score_type>  (20) 
oracle

>  <origin>  (20) 
adgpu

>  <m_score__min__energy>  (20) 
-7.3499999999999996

>  <m_primary>  (20) 
energy

$$$$
20:0
     RDKit          3D

 49 52  0  0  0  0  0  0  0  0999 V2000
   -3.0790   18.9970  -26.3220 C   0  0  0  0  0  0  0  0  0  0  0  0
   -1.9820   19.8360  -26.6680 O   0  0  0  0  0  0  0  0  0  0  0  0
   -1.9510   20.6740  -27.7930 C   0  0  0  0  0  0  0  0  0  0  0  0
   -1.6390   20.1070  -29.0350 C   0  0  0  0  0  0  0  0  0  0  0  0
   -1.5720   20.9050  -30.1810 C   0  0  0  0  0  0  0  0  0  0  0  0
   -1.8300   22.2740  -30.0960 C   0  0  0  0  0  0  0  0  0  0  0  0
   -2.1590   22.8550  -28.8660 C   0  0  0  0  0  0  0  0  0  0  0  0
   -2.5080   24.5780  -28.7810 S   0  0  0  0  0  0  0  0  0  0  0  0
   -1.2390   25.3840  -28.7850 O   0  0  0  0  0  0  0  0  0  0  0  0
   -3.2480   24.8600  -27.5050 O   0  0  0  0  0  0  0  0  0  0  0  0
   -3.4900   25.0560  -30.1310 N   0  0  0  0  0  0  0  0  0  0  0  0
   -4.8130   24.5500  -30.3760 C   0  0  0  0  0  0  0  0  0  0  0  0
   -5.8600   24.9250  -29.5200 C   0  0  0  0  0  0  0  0  0  0  0  0
   -7.1600   24.4630  -29.7450 C   0  0  0  0  0  0  0  0  0  0  0  0
   -7.4230   23.6060  -30.8150 C   0  0  0  0  0  0  0  0  0  0  0  0
   -6.3880   23.1900  -31.6560 C   0  0  0  0  0  0  0  0  0  0  0  0
   -6.6790   22.3160  -32.7130 O   0  0  0  0  0  0  0  0  0  0  0  0
   -6.1570   21.0210  -32.8420 C   0  0  0  0  0  0  0  0  0  0  0  0
   -7.0020   19.9130  -32.6900 C   0  0  0  0  0  0  0  0  0  0  0  0
   -6.4950   18.6040  -32.7990 C   0  0  0  0  0  0  0  0  0  0  0  0
   -5.1290   18.3660  -33.0450 C   0  0  0  0  0  0  0  0  0  0  0  0
   -4.7130   17.0280  -33.1470 O   0  0  0  0  0  0  0  0  0  0  0  0
   -5.5540   15.8920  -33.2900 C   0  0  0  0  0  0  0  0  0  0  0  0
   -4.2910   19.4970  -33.1690 C   0  0  0  0  0  0  0  0  0  0  0  0
   -2.9300   19.6510  -33.3710 C   0  0  0  0  0  0  0  0  0  0  0  0
   -2.7110   21.0210  -33.3820 C   0  0  0  0  0  0  0  0  0  0  0  0
   -3.8440   21.6640  -33.1970 O   0  0  0  0  0  0  0  0  0  0  0  0
   -4.7970   20.7740  -33.0710 C   0  0  0  0  0  0  0  0  0  0  0  0
   -5.0870   23.6800  -31.4470 C   0  0  0  0  0  0  0  0  0  0  0  0
   -2.2160   22.0540  -27.7140 C   0  0  0  0  0  0  0  0  0  0  0  0
   -3.1613   18.9340  -25.2269 H   0  0  0  0  0  0  0  0  0  0  0  0
   -4.0072   19.4178  -26.7359 H   0  0  0  0  0  0  0  0  0  0  0  0
   -2.9160   17.9910  -26.7359 H   0  0  0  0  0  0  0  0  0  0  0  0
   -1.4454   19.0267  -29.1093 H   0  0  0  0  0  0  0  0  0  0  0  0
   -1.3157   20.4534  -31.1507 H   0  0  0  0  0  0  0  0  0  0  0  0
   -1.7745   22.8989  -30.9995 H   0  0  0  0  0  0  0  0  0  0  0  0
   -3.0420   25.6730  -30.8450 H   0  0  0  0  0  0  0  0  0  0  0  0
   -5.6562   25.5873  -28.6657 H   0  0  0  0  0  0  0  0  0  0  0  0
   -7.9770   24.7753  -29.0779 H   0  0  0  0  0  0  0  0  0  0  0  0
   -8.4501   23.2566  -30.9968 H   0  0  0  0  0  0  0  0  0  0  0  0
   -8.0713   20.0676  -32.4836 H   0  0  0  0  0  0  0  0  0  0  0  0
   -7.1797   17.7500  -32.6898 H   0  0  0  0  0  0  0  0  0  0  0  0
   -5.8332   15.5149  -32.2951 H   0  0  0  0  0  0  0  0  0  0  0  0
   -6.4619   16.1752  -33.8428 H   0  0  0  0  0  0  0  0  0  0  0  0
   -5.0181   15.1063  -33.8428 H   0  0  0  0  0  0  0  0  0  0  0  0
   -2.1808   18.8554  -33.4963 H   0  0  0  0  0  0  0  0  0  0  0  0
   -1.7314   21.5005  -33.5248 H   0  0  0  0  0  0  0  0  0  0  0  0
   -4.2760   23.3804  -32.1271 H   0  0  0  0  0  0  0  0  0  0  0  0
   -2.4692   22.5077  -26.7444 H   0  0  0  0  0  0  0  0  0  0  0  0
  1  2  1  0
  2  3  1  0
  3  4  2  0
  4  5  1  0
  5  6  2  0
  6  7  1  0
  7  8  1  0
  8  9  2  0
  8 10  2  0
  8 11  1  0
 11 12  1  0
 12 13  2  0
 13 14  1  0
 14 15  2  0
 15 16  1  0
 16 17  1  0
 17 18  1  0
 18 19  2  0
 19 20  1  0
 20 21  2  0
 21 22  1  0
 22 23  1  0
 21 24  1  0
 24 25  1  0
 25 26  2  0
 26 27  1  0
 27 28  1  0
 16 29  2  0
  7 30  2  0
 30  3  1  0
 29 12  1  0
 28 18  1  0
 28 24  2  0
  1 31  1  0
  1 32  1  0
  1 33  1  0
  4 34  1  0
  5 35  1  0
  6 36  1  0
 11 37  1  0
 13 38  1  0
 14 39  1  0
 15 40  1  0
 19 41  1  0
 20 42  1  0
 23 43  1  0
 23 44  1  0
 23 45  1  0
 25 46  1  0
 26 47  1  0
 29 48  1  0
 30 49  1  0
M  END
>  <UniqueID>  (21) 
21

>  <SMILES>  (21) 
COc1cccc(S(=O)(=O)Nc2cccc(Oc3ccc(OC)c4ccoc34)c2)c1

>  <Energy>  (21) 
91.43241387878858

>  <Genealogy>  (21) 
COc1cccc(S(=O)(=O)Nc2cccc(Oc3ccc(OC)c4ccoc34)c2)c1 (3D coordinates assigned)
COc1cccc(S(=O)(=O)Nc2cccc(Oc3ccc(OC)c4ccoc34)c2)c1 (optimized conformer: 91.43241387878858 kcal/mol)

>  <smiles>  (21) 
COc1cccc(S(=O)(=O)Nc2cccc(Oc3ccc(OC)c4ccoc34)c2)c1

>  <score_type>  (21) 
oracle

>  <origin>  (21) 
adgpu

>  <m_score__min__energy>  (21) 
-9.5299999999999994

>  <m_primary>  (21) 
energy

$$$$
21:0
     RDKit          3D

 40 43  0  0  0  0  0  0  0  0999 V2000
   -6.4860   16.7240  -34.5540 C   0  0  0  0  0  0  0  0  0  0  0  0
   -5.8220   17.9300  -34.9210 O   0  0  0  0  0  0  0  0  0  0  0  0
   -5.3150   18.8650  -34.0070 C   0  0  0  0  0  0  0  0  0  0  0  0
   -6.1360   19.8030  -33.3540 C   0  0  0  0  0  0  0  0  0  0  0  0
   -5.5840   20.7140  -32.4490 C   0  0  0  0  0  0  0  0  0  0  0  0
   -4.2040   20.7100  -32.1820 C   0  0  0  0  0  0  0  0  0  0  0  0
   -3.6160   21.6790  -31.2220 C   0  0  0  0  0  0  0  0  0  0  0  0
   -2.7220   21.2480  -30.2310 C   0  0  0  0  0  0  0  0  0  0  0  0
   -2.1630   22.1610  -29.3360 C   0  0  0  0  0  0  0  0  0  0  0  0
   -2.4800   23.5270  -29.4070 C   0  0  0  0  0  0  0  0  0  0  0  0
   -1.7880   24.4590  -28.4860 C   0  0  0  0  0  0  0  0  0  0  0  0
   -1.5660   25.7680  -28.7820 N   0  0  0  0  0  0  0  0  0  0  0  0
   -0.8770   26.1980  -27.7150 C   0  0  0  0  0  0  0  0  0  0  0  0
   -0.3830   27.4780  -27.4770 C   0  0  0  0  0  0  0  0  0  0  0  0
    0.3250   27.6930  -26.2780 C   0  0  0  0  0  0  0  0  0  0  0  0
    0.5180   26.6330  -25.3630 C   0  0  0  0  0  0  0  0  0  0  0  0
    0.0050   25.3500  -25.6400 C   0  0  0  0  0  0  0  0  0  0  0  0
   -0.6910   25.1780  -26.8350 C   0  0  0  0  0  0  0  0  0  0  0  0
   -1.2530   24.0550  -27.3020 N   0  0  0  0  0  0  0  0  0  0  0  0
   -3.4110   23.9670  -30.3800 C   0  0  0  0  0  0  0  0  0  0  0  0
   -3.8700   25.3250  -30.4300 N   0  0  0  0  0  0  0  0  0  0  0  0
   -3.9530   23.0410  -31.2870 C   0  0  0  0  0  0  0  0  0  0  0  0
   -3.3890   19.7710  -32.8390 C   0  0  0  0  0  0  0  0  0  0  0  0
   -3.9430   18.8590  -33.7410 C   0  0  0  0  0  0  0  0  0  0  0  0
   -6.5280   16.6477  -33.4575 H   0  0  0  0  0  0  0  0  0  0  0  0
   -7.5081   16.7298  -34.9606 H   0  0  0  0  0  0  0  0  0  0  0  0
   -5.9345   15.8634  -34.9606 H   0  0  0  0  0  0  0  0  0  0  0  0
   -7.2170   19.8193  -33.5567 H   0  0  0  0  0  0  0  0  0  0  0  0
   -6.2354   21.4406  -31.9412 H   0  0  0  0  0  0  0  0  0  0  0  0
   -2.4595   20.1822  -30.1588 H   0  0  0  0  0  0  0  0  0  0  0  0
   -1.4644   21.8057  -28.5642 H   0  0  0  0  0  0  0  0  0  0  0  0
   -0.5400   28.2924  -28.1995 H   0  0  0  0  0  0  0  0  0  0  0  0
    0.7296   28.6908  -26.0528 H   0  0  0  0  0  0  0  0  0  0  0  0
    1.0718   26.8106  -24.4293 H   0  0  0  0  0  0  0  0  0  0  0  0
    0.1487   24.5149  -24.9386 H   0  0  0  0  0  0  0  0  0  0  0  0
   -4.7010   25.5810  -31.0080 H   0  0  0  0  0  0  0  0  0  0  0  0
   -3.4910   26.0600  -29.7950 H   0  0  0  0  0  0  0  0  0  0  0  0
   -4.6531   23.3885  -32.0611 H   0  0  0  0  0  0  0  0  0  0  0  0
   -2.3070   19.7544  -32.6413 H   0  0  0  0  0  0  0  0  0  0  0  0
   -3.2932   18.1295  -34.2465 H   0  0  0  0  0  0  0  0  0  0  0  0
  1  2  1  0
  2  3  1  0
  3  4  2  0
  4  5  1  0
  5  6  2  0
  6  7  1  0
  7  8  2  0
  8  9  1  0
  9 10  2  0
 10 11  1  0
 11 12  2  0
 12 13  1  0
 13 14  2  0
 14 15  1  0
 15 16  2  0
 16 17  1  0
 17 18  2  0
 18 19  1  0
 10 20  1  0
 20 21  1  0
 20 22  2  0
  6 23  1  0
 23 24  2  0
 24  3  1  0
 22  7  1  0
 19 11  1  0
 18 13  1  0
  1 25  1  0
  1 26  1  0
  1 27  1  0
  4 28  1  0
  5 29  1  0
  8 30  1  0
  9 31  1  0
 14 32  1  0
 15 33  1  0
 16 34  1  0
 17 35  1  0
 21 36  1  0
 21 37  1  0
 22 38  1  0
 23 39  1  0
 24 40  1  0
M  CHG  1  19  -1
M  END
>  <UniqueID>  (22) 
22

>  <SMILES>  (22) 
COc1ccc(-c2ccc(-c3nc4ccccc4[n-]3)c(N)c2)cc1

>  <Energy>  (22) 
89.42418079868666

>  <Genealogy>  (22) 
COc1ccc(-c2ccc(-c3nc4ccccc4[n-]3)c(N)c2)cc1 (protonated)
COc1ccc(-c2ccc(-c3nc4ccccc4[n-]3)c(N)c2)cc1 (3D coordinates assigned)
COc1ccc(-c2ccc(-c3nc4ccccc4[n-]3)c(N)c2)cc1 (optimized conformer: 89.42418079868666 kcal/mol)

>  <smiles>  (22) 
COc1ccc(-c2ccc(-c3nc4ccccc4[nH]3)c(N)c2)cc1

>  <score_type>  (22) 
oracle

>  <origin>  (22) 
adgpu

>  <m_score__min__energy>  (22) 
-9.1099999999999994

>  <m_primary>  (22) 
energy

$$$$
22:0
     RDKit          3D

 40 42  0  0  0  0  0  0  0  0999 V2000
   -1.9280   24.0740  -29.7790 N   0  0  0  0  0  0  0  0  0  0  0  0
   -2.4100   24.4600  -28.4850 C   0  0  0  0  0  0  0  0  0  0  0  0
   -1.5920   25.2470  -27.6590 C   0  0  0  0  0  0  0  0  0  0  0  0
   -2.0460   25.6740  -26.4080 C   0  0  0  0  0  0  0  0  0  0  0  0
   -1.0130   26.6610  -25.3890 Cl  0  0  0  0  0  0  0  0  0  0  0  0
   -3.3210   25.3150  -25.9690 C   0  0  0  0  0  0  0  0  0  0  0  0
   -4.1420   24.5260  -26.7770 C   0  0  0  0  0  0  0  0  0  0  0  0
   -3.7020   24.0950  -28.0410 C   0  0  0  0  0  0  0  0  0  0  0  0
   -4.5380   23.2360  -28.8350 N   0  0  0  0  0  0  0  0  0  0  0  0
   -4.9940   23.5870  -30.1510 C   0  0  0  0  0  0  0  0  0  0  0  0
   -4.4700   24.5610  -30.7590 O   0  0  0  0  0  0  0  0  0  0  0  0
   -6.0740   22.8080  -30.8050 C   0  0  0  0  0  0  0  0  0  0  0  0
   -7.2950   22.6290  -30.1300 C   0  0  0  0  0  0  0  0  0  0  0  0
   -8.3470   21.9390  -30.7320 C   0  0  0  0  0  0  0  0  0  0  0  0
   -8.1970   21.4150  -32.0160 C   0  0  0  0  0  0  0  0  0  0  0  0
   -6.9920   21.5800  -32.7010 C   0  0  0  0  0  0  0  0  0  0  0  0
   -5.9250   22.2820  -32.1130 C   0  0  0  0  0  0  0  0  0  0  0  0
   -4.6660   22.3690  -32.8030 N   0  0  0  0  0  0  0  0  0  0  0  0
   -3.4970   21.6120  -32.4420 C   0  0  0  0  0  0  0  0  0  0  0  0
   -2.5980   21.2090  -33.4430 C   0  0  0  0  0  0  0  0  0  0  0  0
   -1.4670   20.4560  -33.1170 C   0  0  0  0  0  0  0  0  0  0  0  0
   -1.2290   20.0880  -31.7900 C   0  0  0  0  0  0  0  0  0  0  0  0
   -2.1260   20.4680  -30.7880 C   0  0  0  0  0  0  0  0  0  0  0  0
   -3.2580   21.2220  -31.1100 C   0  0  0  0  0  0  0  0  0  0  0  0
   -2.5430   23.6120  -30.4830 H   0  0  0  0  0  0  0  0  0  0  0  0
   -0.9530   24.3070  -30.0720 H   0  0  0  0  0  0  0  0  0  0  0  0
   -0.5850   25.5301  -27.9993 H   0  0  0  0  0  0  0  0  0  0  0  0
   -3.6795   25.6538  -24.9858 H   0  0  0  0  0  0  0  0  0  0  0  0
   -5.1425   24.2388  -26.4214 H   0  0  0  0  0  0  0  0  0  0  0  0
   -4.7920   22.2960  -28.4560 H   0  0  0  0  0  0  0  0  0  0  0  0
   -7.4215   23.0376  -29.1166 H   0  0  0  0  0  0  0  0  0  0  0  0
   -9.2969   21.8077  -30.1931 H   0  0  0  0  0  0  0  0  0  0  0  0
   -9.0284   20.8717  -32.4888 H   0  0  0  0  0  0  0  0  0  0  0  0
   -6.8761   21.1571  -33.7098 H   0  0  0  0  0  0  0  0  0  0  0  0
   -4.5890   23.0500  -33.5930 H   0  0  0  0  0  0  0  0  0  0  0  0
   -2.7855   21.4880  -34.4904 H   0  0  0  0  0  0  0  0  0  0  0  0
   -0.7631   20.1525  -33.9059 H   0  0  0  0  0  0  0  0  0  0  0  0
   -0.3357   19.4993  -31.5342 H   0  0  0  0  0  0  0  0  0  0  0  0
   -1.9409   20.1733  -29.7445 H   0  0  0  0  0  0  0  0  0  0  0  0
   -3.9655   21.5122  -30.3193 H   0  0  0  0  0  0  0  0  0  0  0  0
  1  2  1  0
  2  3  2  0
  3  4  1  0
  4  5  1  0
  4  6  2  0
  6  7  1  0
  7  8  2  0
  8  9  1  0
  9 10  1  0
 10 11  2  0
 10 12  1  0
 12 13  2  0
 13 14  1  0
 14 15  2  0
 15 16  1  0
 16 17  2  0
 17 18  1  0
 18 19  1  0
 19 20  2  0
 20 21  1  0
 21 22  2  0
 22 23  1  0
 23 24  2  0
  8  2  1  0
 17 12  1  0
 24 19  1  0
  1 25  1  0
  1 26  1  0
  3 27  1  0
  6 28  1  0
  7 29  1  0
  9 30  1  0
 13 31  1  0
 14 32  1  0
 15 33  1  0
 16 34  1  0
 18 35  1  0
 20 36  1  0
 21 37  1  0
 22 38  1  0
 23 39  1  0
 24 40  1  0
M  END
>  <UniqueID>  (23) 
23

>  <SMILES>  (23) 
Nc1cc(Cl)ccc1NC(=O)c1ccccc1Nc1ccccc1

>  <Energy>  (23) 
57.251425834873984

>  <Genealogy>  (23) 
Nc1cc(Cl)ccc1NC(=O)c1ccccc1Nc1ccccc1 (3D coordinates assigned)
Nc1cc(Cl)ccc1NC(=O)c1ccccc1Nc1ccccc1 (optimized conformer: 57.251425834873984 kcal/mol)

>  <smiles>  (23) 
Nc1cc(Cl)ccc1NC(=O)c1ccccc1Nc1ccccc1

>  <score_type>  (23) 
oracle

>  <origin>  (23) 
adgpu

>  <m_score__min__energy>  (23) 
-8.2799999999999994

>  <m_primary>  (23) 
energy

$$$$
23:0
     RDKit          3D

 34 36  0  0  0  0  0  0  0  0999 V2000
   -3.5516   20.7356  -26.6944 H   0  0  0  0  0  0  0  0  0  0  0  0
   -2.6480   20.2710  -27.1160 C   0  0  0  0  0  0  0  0  0  0  0  0
   -2.1460   19.1310  -26.5790 N   0  0  0  0  0  0  0  0  0  0  0  0
   -1.0560   18.5530  -27.0830 N   0  0  0  0  0  0  0  0  0  0  0  0
   -0.4190   19.0830  -28.1620 C   0  0  0  0  0  0  0  0  0  0  0  0
    0.6580   18.5400  -28.6510 N   0  0  0  0  0  0  0  0  0  0  0  0
    1.2730   17.3100  -28.2320 C   0  0  0  0  0  0  0  0  0  0  0  0
    1.0090   16.0850  -28.8740 C   0  0  0  0  0  0  0  0  0  0  0  0
    0.2903   16.0460  -29.7059 H   0  0  0  0  0  0  0  0  0  0  0  0
    1.6570   14.9180  -28.4580 C   0  0  0  0  0  0  0  0  0  0  0  0
    1.4356   13.9610  -28.9530 H   0  0  0  0  0  0  0  0  0  0  0  0
    2.5850   14.9650  -27.4150 C   0  0  0  0  0  0  0  0  0  0  0  0
    3.0867   14.0441  -27.0831 H   0  0  0  0  0  0  0  0  0  0  0  0
    2.8760   16.1830  -26.7930 C   0  0  0  0  0  0  0  0  0  0  0  0
    3.8100   16.2340  -25.7660 O   0  0  0  0  0  0  0  0  0  0  0  0
    2.2290   17.3530  -27.2080 C   0  0  0  0  0  0  0  0  0  0  0  0
    2.4724   18.3121  -26.7274 H   0  0  0  0  0  0  0  0  0  0  0  0
   -0.8940   20.2290  -28.7120 N   0  0  0  0  0  0  0  0  0  0  0  0
   -1.9980   20.8490  -28.2170 C   0  0  0  0  0  0  0  0  0  0  0  0
   -2.4890   22.0950  -28.8590 C   0  0  0  0  0  0  0  0  0  0  0  0
   -3.6370   22.0950  -29.6750 C   0  0  0  0  0  0  0  0  0  0  0  0
   -4.1823   21.1559  -29.8505 H   0  0  0  0  0  0  0  0  0  0  0  0
   -4.0880   23.2790  -30.2630 C   0  0  0  0  0  0  0  0  0  0  0  0
   -4.9827   23.2666  -30.9028 H   0  0  0  0  0  0  0  0  0  0  0  0
   -3.4080   24.4780  -30.0420 C   0  0  0  0  0  0  0  0  0  0  0  0
   -3.8690   25.6480  -30.6360 O   0  0  0  0  0  0  0  0  0  0  0  0
   -2.2700   24.5070  -29.2260 C   0  0  0  0  0  0  0  0  0  0  0  0
   -1.6190   25.7350  -29.0300 O   0  0  0  0  0  0  0  0  0  0  0  0
   -0.9110   26.0920  -27.8460 C   0  0  0  0  0  0  0  0  0  0  0  0
   -1.4983   25.7959  -26.9643 H   0  0  0  0  0  0  0  0  0  0  0  0
    0.0603   25.5759  -27.8299 H   0  0  0  0  0  0  0  0  0  0  0  0
   -0.7485   27.1798  -27.8299 H   0  0  0  0  0  0  0  0  0  0  0  0
   -1.8170   23.3120  -28.6340 C   0  0  0  0  0  0  0  0  0  0  0  0
   -0.9270   23.3295  -27.9877 H   0  0  0  0  0  0  0  0  0  0  0  0
  1  2  1  0
  2  3  2  0
  3  4  1  0
  4  5  1  0
  5  6  2  0
  6  7  1  0
  7  8  2  0
  8  9  1  0
  8 10  1  0
 10 11  1  0
 10 12  2  0
 12 13  1  0
 12 14  1  0
 14 15  1  0
 14 16  2  0
 16 17  1  0
  5 18  1  0
 18 19  2  0
 19 20  1  0
 20 21  2  0
 21 22  1  0
 21 23  1  0
 23 24  1  0
 23 25  2  0
 25 26  1  0
 25 27  1  0
 27 28  1  0
 28 29  1  0
 29 30  1  0
 29 31  1  0
 29 32  1  0
 27 33  2  0
 33 34  1  0
 19  2  1  0
 33 20  1  0
 16  7  1  0
M  CHG  3   4  -1  15  -1  26  -1
M  END
>  <UniqueID>  (24) 
24

>  <SMILES>  (24) 
COc1cc(-c2cn[n-]/c(=N\c3cccc([O-])c3)n2)ccc1[O-]

>  <Energy>  (24) 
49.039695038827496

>  <Genealogy>  (24) 
COc1cc(-c2cn[n-]c(=Nc3cccc([O-])c3)n2)ccc1[O-] (protonated)
COc1cc(-c2cn[n-]/c(=N\c3cccc([O-])c3)n2)ccc1[O-] (cis-trans isomerization)
COc1cc(-c2cn[n-]/c(=N\c3cccc([O-])c3)n2)ccc1[O-] (3D coordinates assigned)
COc1cc(-c2cn[n-]/c(=N\c3cccc([O-])c3)n2)ccc1[O-] (optimized conformer: 49.039695038827496 kcal/mol)

>  <smiles>  (24) 
COc1cc(-c2cn[nH]c(=Nc3cccc(O)c3)n2)ccc1O

>  <score_type>  (24) 
oracle

>  <origin>  (24) 
adgpu

>  <m_score__min__energy>  (24) 
-10.470000000000001

>  <m_primary>  (24) 
energy

$$$$
24:0
     RDKit          3D

 32 33  0  0  0  0  0  0  0  0999 V2000
   -2.6640   19.2960  -34.1620 C   0  0  0  0  0  0  0  0  0  0  0  0
   -4.1020   19.2180  -33.7460 C   0  0  0  0  0  0  0  0  0  0  0  0
   -4.7640   20.3180  -33.2960 N   0  0  0  0  0  0  0  0  0  0  0  0
   -6.0520   20.2660  -32.9200 C   0  0  0  0  0  0  0  0  0  0  0  0
   -6.9510   21.6870  -32.3280 S   0  0  0  0  0  0  0  0  0  0  0  0
   -5.8430   22.8900  -31.5810 C   0  0  0  0  0  0  0  0  0  0  0  0
   -6.3130   24.1030  -31.1050 C   0  0  0  0  0  0  0  0  0  0  0  0
   -5.3490   24.9440  -30.5510 C   0  0  0  0  0  0  0  0  0  0  0  0
   -5.7340   26.0860  -30.0920 N   0  0  0  0  0  0  0  0  0  0  0  0
   -4.0540   24.5890  -30.4900 N   0  0  0  0  0  0  0  0  0  0  0  0
   -3.6410   23.4000  -30.9660 C   0  0  0  0  0  0  0  0  0  0  0  0
   -4.5420   22.5400  -31.5180 N   0  0  0  0  0  0  0  0  0  0  0  0
   -6.7560   19.0630  -32.9790 C   0  0  0  0  0  0  0  0  0  0  0  0
   -8.1500   18.9960  -32.5740 C   0  0  0  0  0  0  0  0  0  0  0  0
   -9.2660   18.9480  -32.2660 N   0  0  0  0  0  0  0  0  0  0  0  0
   -6.1240   17.9190  -33.4280 C   0  0  0  0  0  0  0  0  0  0  0  0
   -6.8740   16.6440  -33.4900 C   0  0  0  0  0  0  0  0  0  0  0  0
   -4.7840   18.0180  -33.8110 C   0  0  0  0  0  0  0  0  0  0  0  0
   -4.1170   16.7610  -34.2960 C   0  0  0  0  0  0  0  0  0  0  0  0
   -2.0249   19.3307  -33.2674 H   0  0  0  0  0  0  0  0  0  0  0  0
   -2.4073   18.4105  -34.7619 H   0  0  0  0  0  0  0  0  0  0  0  0
   -2.5046   20.2041  -34.7619 H   0  0  0  0  0  0  0  0  0  0  0  0
   -7.3751   24.3837  -31.1604 H   0  0  0  0  0  0  0  0  0  0  0  0
   -6.7360   26.3450  -30.1460 H   0  0  0  0  0  0  0  0  0  0  0  0
   -2.5780   23.1230  -30.9095 H   0  0  0  0  0  0  0  0  0  0  0  0
   -4.1960   21.6060  -31.8870 H   0  0  0  0  0  0  0  0  0  0  0  0
   -7.0818   16.2908  -32.4692 H   0  0  0  0  0  0  0  0  0  0  0  0
   -7.8229   16.8023  -34.0234 H   0  0  0  0  0  0  0  0  0  0  0  0
   -6.2746   15.8916  -34.0234 H   0  0  0  0  0  0  0  0  0  0  0  0
   -3.7975   16.1589  -33.4326 H   0  0  0  0  0  0  0  0  0  0  0  0
   -4.8261   16.1812  -34.9051 H   0  0  0  0  0  0  0  0  0  0  0  0
   -3.2394   17.0232  -34.9051 H   0  0  0  0  0  0  0  0  0  0  0  0
  1  2  1  0
  2  3  2  0
  3  4  1  0
  4  5  1  0
  5  6  1  0
  6  7  2  0
  7  8  1  0
  8  9  2  3
  8 10  1  0
 10 11  2  0
 11 12  1  0
  4 13  2  0
 13 14  1  0
 14 15  3  0
 13 16  1  0
 16 17  1  0
 16 18  2  0
 18 19  1  0
 18  2  1  0
 12  6  1  0
  1 20  1  0
  1 21  1  0
  1 22  1  0
  7 23  1  0
  9 24  1  0
 11 25  1  0
 12 26  1  0
 17 27  1  0
 17 28  1  0
 17 29  1  0
 19 30  1  0
 19 31  1  0
 19 32  1  0
M  END
>  <smiles>  (25) 
Cc1nc(Sc2cc(=N)nc[nH]2)c(C#N)c(C)c1C

>  <score_type>  (25) 
oracle

>  <origin>  (25) 
adgpu

>  <m_score__min__energy>  (25) 
-7.3300000000000001

>  <m_primary>  (25) 
energy

$$$$
25:0
     RDKit          3D

 44 45  0  0  0  0  0  0  0  0999 V2000
   -8.8170   18.1930  -31.8620 C   0  0  0  0  0  0  0  0  0  0  0  0
   -7.6520   19.0950  -32.1940 C   0  0  0  0  0  0  0  0  0  0  0  0
   -6.4670   18.5060  -32.6360 C   0  0  0  0  0  0  0  0  0  0  0  0
   -5.3540   19.2770  -32.9780 C   0  0  0  0  0  0  0  0  0  0  0  0
   -4.1150   18.5630  -33.4610 C   0  0  0  0  0  0  0  0  0  0  0  0
   -5.4200   20.6900  -32.8840 C   0  0  0  0  0  0  0  0  0  0  0  0
   -4.2410   21.5200  -33.3470 C   0  0  0  0  0  0  0  0  0  0  0  0
   -6.5860   21.3020  -32.3370 C   0  0  0  0  0  0  0  0  0  0  0  0
   -6.6200   23.0530  -31.9560 S   0  0  0  0  0  0  0  0  0  0  0  0
   -7.4340   23.3550  -30.7300 O   0  0  0  0  0  0  0  0  0  0  0  0
   -7.2540   23.8040  -33.0940 O   0  0  0  0  0  0  0  0  0  0  0  0
   -5.0030   23.6310  -31.7370 N   0  0  0  0  0  0  0  0  0  0  0  0
   -4.4730   23.8580  -30.4320 C   0  0  0  0  0  0  0  0  0  0  0  0
   -4.9570   24.7350  -29.4830 C   0  0  0  0  0  0  0  0  0  0  0  0
   -6.1160   25.6640  -29.6380 C   0  0  0  0  0  0  0  0  0  0  0  0
   -4.3100   24.5250  -28.3190 N   0  0  0  0  0  0  0  0  0  0  0  0
   -3.4230   23.5600  -28.5180 N   0  0  0  0  0  0  0  0  0  0  0  0
   -2.5720   23.0190  -27.4660 C   0  0  0  0  0  0  0  0  0  0  0  0
   -3.4930   23.1260  -29.7970 C   0  0  0  0  0  0  0  0  0  0  0  0
   -2.7370   21.9610  -30.3570 C   0  0  0  0  0  0  0  0  0  0  0  0
   -7.7420   20.5040  -32.0900 C   0  0  0  0  0  0  0  0  0  0  0  0
   -9.0600   21.1370  -31.6890 C   0  0  0  0  0  0  0  0  0  0  0  0
   -8.9196   18.1136  -30.7697 H   0  0  0  0  0  0  0  0  0  0  0  0
   -9.7398   18.6144  -32.2873 H   0  0  0  0  0  0  0  0  0  0  0  0
   -8.6401   17.1941  -32.2873 H   0  0  0  0  0  0  0  0  0  0  0  0
   -6.4081   17.4106  -32.7169 H   0  0  0  0  0  0  0  0  0  0  0  0
   -3.5265   18.2239  -32.5958 H   0  0  0  0  0  0  0  0  0  0  0  0
   -4.4062   17.6942  -34.0696 H   0  0  0  0  0  0  0  0  0  0  0  0
   -3.5093   19.2506  -34.0696 H   0  0  0  0  0  0  0  0  0  0  0  0
   -3.6963   21.9035  -32.4717 H   0  0  0  0  0  0  0  0  0  0  0  0
   -3.5682   20.8953  -33.9528 H   0  0  0  0  0  0  0  0  0  0  0  0
   -4.6022   22.3641  -33.9528 H   0  0  0  0  0  0  0  0  0  0  0  0
   -6.4845   25.9594  -28.6446 H   0  0  0  0  0  0  0  0  0  0  0  0
   -5.7968   26.5592  -30.1918 H   0  0  0  0  0  0  0  0  0  0  0  0
   -6.9203   25.1576  -30.1918 H   0  0  0  0  0  0  0  0  0  0  0  0
   -2.9897   23.2845  -26.4836 H   0  0  0  0  0  0  0  0  0  0  0  0
   -2.5238   21.9241  -27.5601 H   0  0  0  0  0  0  0  0  0  0  0  0
   -1.5601   23.4400  -27.5601 H   0  0  0  0  0  0  0  0  0  0  0  0
   -2.3408   21.3504  -29.5323 H   0  0  0  0  0  0  0  0  0  0  0  0
   -3.4109   21.3495  -30.9750 H   0  0  0  0  0  0  0  0  0  0  0  0
   -1.9040   22.3273  -30.9750 H   0  0  0  0  0  0  0  0  0  0  0  0
   -9.1315   21.1713  -30.5919 H   0  0  0  0  0  0  0  0  0  0  0  0
   -9.1136   22.1591  -32.0921 H   0  0  0  0  0  0  0  0  0  0  0  0
   -9.8912   20.5399  -32.0921 H   0  0  0  0  0  0  0  0  0  0  0  0
  1  2  1  0
  2  3  2  0
  3  4  1  0
  4  5  1  0
  4  6  2  0
  6  7  1  0
  6  8  1  0
  8  9  1  0
  9 10  2  0
  9 11  2  0
  9 12  1  0
 12 13  1  0
 13 14  1  0
 14 15  1  0
 14 16  2  0
 16 17  1  0
 17 18  1  0
 17 19  1  0
 19 20  1  0
  8 21  2  0
 21 22  1  0
 21  2  1  0
 19 13  2  0
  1 23  1  0
  1 24  1  0
  1 25  1  0
  3 26  1  0
  5 27  1  0
  5 28  1  0
  5 29  1  0
  7 30  1  0
  7 31  1  0
  7 32  1  0
 15 33  1  0
 15 34  1  0
 15 35  1  0
 18 36  1  0
 18 37  1  0
 18 38  1  0
 20 39  1  0
 20 40  1  0
 20 41  1  0
 22 42  1  0
 22 43  1  0
 22 44  1  0
M  CHG  1  12  -1
M  END
>  <UniqueID>  (26) 
25

>  <SMILES>  (26) 
Cc1cc(C)c(C)c(S(=O)(=O)[N-]c2c(C)nn(C)c2C)c1C

>  <Energy>  (26) 
90.2337189796687

>  <Genealogy>  (26) 
Cc1cc(C)c(C)c(S(=O)(=O)[N-]c2c(C)nn(C)c2C)c1C (protonated)
Cc1cc(C)c(C)c(S(=O)(=O)[N-]c2c(C)nn(C)c2C)c1C (3D coordinates assigned)
Cc1cc(C)c(C)c(S(=O)(=O)[N-]c2c(C)nn(C)c2C)c1C (optimized conformer: 90.2337189796687 kcal/mol)

>  <smiles>  (26) 
Cc1cc(C)c(C)c(S(=O)(=O)Nc2c(C)nn(C)c2C)c1C

>  <score_type>  (26) 
oracle

>  <origin>  (26) 
adgpu

>  <m_score__min__energy>  (26) 
-8.75

>  <m_primary>  (26) 
energy

$$$$
26:0
     RDKit          3D

 46 49  0  0  0  0  0  0  0  0999 V2000
   -6.8730   12.2910  -34.7910 C   0  0  0  0  0  0  0  0  0  0  0  0
   -5.6090   13.1060  -34.8490 C   0  0  0  0  0  0  0  0  0  0  0  0
   -4.3970   12.4920  -35.2030 C   0  0  0  0  0  0  0  0  0  0  0  0
   -3.2170   13.2350  -35.2540 C   0  0  0  0  0  0  0  0  0  0  0  0
   -3.2280   14.5980  -34.9540 C   0  0  0  0  0  0  0  0  0  0  0  0
   -4.4290   15.2360  -34.5960 C   0  0  0  0  0  0  0  0  0  0  0  0
   -4.4730   16.6090  -34.2830 C   0  0  0  0  0  0  0  0  0  0  0  0
   -3.4100   17.2900  -34.2870 O   0  0  0  0  0  0  0  0  0  0  0  0
   -5.7010   17.2140  -33.9400 C   0  0  0  0  0  0  0  0  0  0  0  0
   -5.8050   18.6580  -33.6140 C   0  0  0  0  0  0  0  0  0  0  0  0
   -6.8620   19.2830  -33.9050 O   0  0  0  0  0  0  0  0  0  0  0  0
   -4.6930   19.3640  -33.0380 N   0  0  0  0  0  0  0  0  0  0  0  0
   -4.8140   20.6210  -32.3490 C   0  0  0  0  0  0  0  0  0  0  0  0
   -6.0320   21.0270  -31.7720 C   0  0  0  0  0  0  0  0  0  0  0  0
   -6.1170   22.2430  -31.0890 C   0  0  0  0  0  0  0  0  0  0  0  0
   -4.9900   23.0650  -30.9650 C   0  0  0  0  0  0  0  0  0  0  0  0
   -5.1130   24.6000  -30.1130 S   0  0  0  0  0  0  0  0  0  0  0  0
   -6.5440   25.0510  -30.0390 O   0  0  0  0  0  0  0  0  0  0  0  0
   -4.3110   25.6340  -30.8520 O   0  0  0  0  0  0  0  0  0  0  0  0
   -4.4880   24.4380  -28.5020 N   0  0  0  0  0  0  0  0  0  0  0  0
   -3.2300   24.5540  -28.2010 C   0  0  0  0  0  0  0  0  0  0  0  0
   -2.3010   24.8170  -29.1630 N   0  0  0  0  0  0  0  0  0  0  0  0
   -0.9860   24.9460  -28.8500 C   0  0  0  0  0  0  0  0  0  0  0  0
   -0.5700   24.8070  -27.5270 C   0  0  0  0  0  0  0  0  0  0  0  0
   -1.5320   24.5370  -26.5540 C   0  0  0  0  0  0  0  0  0  0  0  0
   -2.8380   24.4170  -26.9070 N   0  0  0  0  0  0  0  0  0  0  0  0
   -3.7710   22.6530  -31.5150 C   0  0  0  0  0  0  0  0  0  0  0  0
   -3.6820   21.4350  -32.1980 C   0  0  0  0  0  0  0  0  0  0  0  0
   -6.8520   16.4120  -33.8870 C   0  0  0  0  0  0  0  0  0  0  0  0
   -6.7890   15.0910  -34.1870 N   0  0  0  0  0  0  0  0  0  0  0  0
   -5.6260   14.4810  -34.5420 C   0  0  0  0  0  0  0  0  0  0  0  0
   -7.1473   12.1141  -33.7405 H   0  0  0  0  0  0  0  0  0  0  0  0
   -7.6844   12.8365  -35.2950 H   0  0  0  0  0  0  0  0  0  0  0  0
   -6.7110   11.3268  -35.2950 H   0  0  0  0  0  0  0  0  0  0  0  0
   -4.3775   11.4184  -35.4417 H   0  0  0  0  0  0  0  0  0  0  0  0
   -2.2729   12.7438  -35.5322 H   0  0  0  0  0  0  0  0  0  0  0  0
   -2.2930   15.1758  -34.9978 H   0  0  0  0  0  0  0  0  0  0  0  0
   -3.7340   18.9980  -33.2270 H   0  0  0  0  0  0  0  0  0  0  0  0
   -6.9205   20.3844  -31.8591 H   0  0  0  0  0  0  0  0  0  0  0  0
   -7.0741   22.5562  -30.6464 H   0  0  0  0  0  0  0  0  0  0  0  0
   -0.2503   25.1598  -29.6393 H   0  0  0  0  0  0  0  0  0  0  0  0
    0.4915   24.9078  -27.2568 H   0  0  0  0  0  0  0  0  0  0  0  0
   -1.2333   24.4213  -25.5017 H   0  0  0  0  0  0  0  0  0  0  0  0
   -2.8796   23.2889  -31.4100 H   0  0  0  0  0  0  0  0  0  0  0  0
   -2.7179   21.1139  -32.6192 H   0  0  0  0  0  0  0  0  0  0  0  0
   -7.8147   16.8596  -33.5992 H   0  0  0  0  0  0  0  0  0  0  0  0
  1  2  1  0
  2  3  2  0
  3  4  1  0
  4  5  2  0
  5  6  1  0
  6  7  1  0
  7  8  2  0
  7  9  1  0
  9 10  1  0
 10 11  2  0
 10 12  1  0
 12 13  1  0
 13 14  2  0
 14 15  1  0
 15 16  2  0
 16 17  1  0
 17 18  2  0
 17 19  2  0
 17 20  1  0
 20 21  2  3
 21 22  1  0
 22 23  2  0
 23 24  1  0
 24 25  2  0
 25 26  1  0
 16 27  1  0
 27 28  2  0
  9 29  2  0
 29 30  1  0
 30 31  1  0
 31  2  1  0
 31  6  2  0
 28 13  1  0
 26 21  1  0
  1 32  1  0
  1 33  1  0
  1 34  1  0
  3 35  1  0
  4 36  1  0
  5 37  1  0
 12 38  1  0
 14 39  1  0
 15 40  1  0
 23 41  1  0
 24 42  1  0
 25 43  1  0
 27 44  1  0
 28 45  1  0
 29 46  1  0
M  CHG  2  26  -1  30  -1
M  END
>  <UniqueID>  (27) 
26

>  <SMILES>  (27) 
Cc1cccc2c(=O)c(C(=O)Nc3ccc(S(=O)(=O)N=c4nccc[n-]4)cc3)c[n-]c12

>  <Energy>  (27) 
67.50028353082719

>  <Genealogy>  (27) 
Cc1cccc2c(=O)c(C(=O)Nc3ccc(S(=O)(=O)N=c4nccc[n-]4)cc3)c[n-]c12 (protonated)
Cc1cccc2c(=O)c(C(=O)Nc3ccc(S(=O)(=O)N=c4nccc[n-]4)cc3)c[n-]c12 (3D coordinates assigned)
Cc1cccc2c(=O)c(C(=O)Nc3ccc(S(=O)(=O)N=c4nccc[n-]4)cc3)c[n-]c12 (optimized conformer: 67.50028353082719 kcal/mol)

>  <smiles>  (27) 
Cc1cccc2c(=O)c(C(=O)Nc3ccc(S(=O)(=O)N=c4nccc[nH]4)cc3)c[nH]c12

>  <score_type>  (27) 
oracle

>  <origin>  (27) 
adgpu

>  <m_score__min__energy>  (27) 
-10.24

>  <m_primary>  (27) 
energy

$$$$
27:0
     RDKit          3D

 51 54  0  0  0  0  0  0  0  0999 V2000
   -9.1110   18.9200  -31.9590 C   0  0  0  0  0  0  0  0  0  0  0  0
   -9.6880   20.1100  -32.7150 C   0  0  0  0  0  0  0  0  0  0  0  0
   -9.3730   21.6380  -31.8460 S   0  0  0  0  0  0  0  0  0  0  0  0
   -9.8600   22.7970  -32.6700 O   0  0  0  0  0  0  0  0  0  0  0  0
  -10.1200   21.6320  -30.5420 O   0  0  0  0  0  0  0  0  0  0  0  0
   -7.6490   21.8070  -31.5270 C   0  0  0  0  0  0  0  0  0  0  0  0
   -6.7300   21.0140  -32.2240 C   0  0  0  0  0  0  0  0  0  0  0  0
   -5.3590   21.1540  -31.9890 C   0  0  0  0  0  0  0  0  0  0  0  0
   -4.8900   22.0940  -31.0560 C   0  0  0  0  0  0  0  0  0  0  0  0
   -3.4420   22.2390  -30.8120 C   0  0  0  0  0  0  0  0  0  0  0  0
   -2.9010   22.5800  -29.6250 N   0  0  0  0  0  0  0  0  0  0  0  0
   -1.5820   22.5740  -29.9160 C   0  0  0  0  0  0  0  0  0  0  0  0
   -0.5220   22.8910  -28.9350 C   0  0  0  0  0  0  0  0  0  0  0  0
   -0.3070   24.2170  -28.5200 C   0  0  0  0  0  0  0  0  0  0  0  0
    0.6970   24.5140  -27.5950 C   0  0  0  0  0  0  0  0  0  0  0  0
    1.5100   23.5000  -27.0770 C   0  0  0  0  0  0  0  0  0  0  0  0
    2.4960   23.8400  -26.1400 O   0  0  0  0  0  0  0  0  0  0  0  0
    2.4540   24.9480  -25.2800 C   0  0  0  0  0  0  0  0  0  0  0  0
    3.6570   25.4550  -24.7840 C   0  0  0  0  0  0  0  0  0  0  0  0
    3.6600   26.5470  -23.9180 C   0  0  0  0  0  0  0  0  0  0  0  0
    2.4560   27.1440  -23.5230 C   0  0  0  0  0  0  0  0  0  0  0  0
    2.5100   28.2710  -22.6210 C   0  0  0  0  0  0  0  0  0  0  0  0
    2.5540   29.1740  -21.8980 N   0  0  0  0  0  0  0  0  0  0  0  0
    1.2240   26.6330  -23.9980 C   0  0  0  0  0  0  0  0  0  0  0  0
   -0.0920   27.2540  -23.5710 C   0  0  0  0  0  0  0  0  0  0  0  0
   -0.1250   27.3700  -22.1930 F   0  0  0  0  0  0  0  0  0  0  0  0
   -0.2690   28.5150  -24.1160 F   0  0  0  0  0  0  0  0  0  0  0  0
   -1.1390   26.4510  -23.9840 F   0  0  0  0  0  0  0  0  0  0  0  0
    1.2400   25.5250  -24.8690 C   0  0  0  0  0  0  0  0  0  0  0  0
    1.2840   22.1710  -27.4730 C   0  0  0  0  0  0  0  0  0  0  0  0
    0.2820   21.8700  -28.4000 C   0  0  0  0  0  0  0  0  0  0  0  0
   -1.3440   22.2480  -31.2020 N   0  0  0  0  0  0  0  0  0  0  0  0
   -2.5170   22.0480  -31.7210 O   0  0  0  0  0  0  0  0  0  0  0  0
   -5.8160   22.8930  -30.3640 C   0  0  0  0  0  0  0  0  0  0  0  0
   -7.1870   22.7510  -30.6010 C   0  0  0  0  0  0  0  0  0  0  0  0
   -9.1967   19.0967  -30.8767 H   0  0  0  0  0  0  0  0  0  0  0  0
   -9.6680   18.0102  -32.2272 H   0  0  0  0  0  0  0  0  0  0  0  0
   -8.0517   18.7939  -32.2272 H   0  0  0  0  0  0  0  0  0  0  0  0
   -9.2249   20.1614  -33.7114 H   0  0  0  0  0  0  0  0  0  0  0  0
  -10.7763   19.9749  -32.8009 H   0  0  0  0  0  0  0  0  0  0  0  0
   -7.0878   20.2781  -32.9592 H   0  0  0  0  0  0  0  0  0  0  0  0
   -4.6432   20.5244  -32.5378 H   0  0  0  0  0  0  0  0  0  0  0  0
   -0.9329   25.0253  -28.9260 H   0  0  0  0  0  0  0  0  0  0  0  0
    0.8496   25.5541  -27.2711 H   0  0  0  0  0  0  0  0  0  0  0  0
    4.6089   24.9892  -25.0789 H   0  0  0  0  0  0  0  0  0  0  0  0
    4.6149   26.9430  -23.5419 H   0  0  0  0  0  0  0  0  0  0  0  0
    0.2898   25.1063  -25.2319 H   0  0  0  0  0  0  0  0  0  0  0  0
    1.8992   21.3626  -27.0510 H   0  0  0  0  0  0  0  0  0  0  0  0
    0.1218   20.8276  -28.7127 H   0  0  0  0  0  0  0  0  0  0  0  0
   -5.4608   23.6337  -29.6324 H   0  0  0  0  0  0  0  0  0  0  0  0
   -7.9052   23.3830  -30.0582 H   0  0  0  0  0  0  0  0  0  0  0  0
  1  2  1  0
  2  3  1  0
  3  4  2  0
  3  5  2  0
  3  6  1  0
  6  7  2  0
  7  8  1  0
  8  9  2  0
  9 10  1  0
 10 11  2  0
 11 12  1  0
 12 13  1  0
 13 14  2  0
 14 15  1  0
 15 16  2  0
 16 17  1  0
 17 18  1  0
 18 19  2  0
 19 20  1  0
 20 21  2  0
 21 22  1  0
 22 23  3  0
 21 24  1  0
 24 25  1  0
 25 26  1  0
 25 27  1  0
 25 28  1  0
 24 29  2  0
 16 30  1  0
 30 31  2  0
 12 32  2  0
 32 33  1  0
  9 34  1  0
 34 35  2  0
 35  6  1  0
 33 10  1  0
 31 13  1  0
 29 18  1  0
  1 36  1  0
  1 37  1  0
  1 38  1  0
  2 39  1  0
  2 40  1  0
  7 41  1  0
  8 42  1  0
 14 43  1  0
 15 44  1  0
 19 45  1  0
 20 46  1  0
 29 47  1  0
 30 48  1  0
 31 49  1  0
 34 50  1  0
 35 51  1  0
M  END
>  <UniqueID>  (28) 
27

>  <SMILES>  (28) 
CCS(=O)(=O)c1ccc(-c2nc(-c3ccc(Oc4ccc(C#N)c(C(F)(F)F)c4)cc3)no2)cc1

>  <Energy>  (28) 
91.913201458511

>  <Genealogy>  (28) 
CCS(=O)(=O)c1ccc(-c2nc(-c3ccc(Oc4ccc(C#N)c(C(F)(F)F)c4)cc3)no2)cc1 (3D coordinates assigned)
CCS(=O)(=O)c1ccc(-c2nc(-c3ccc(Oc4ccc(C#N)c(C(F)(F)F)c4)cc3)no2)cc1 (optimized conformer: 91.913201458511 kcal/mol)

>  <smiles>  (28) 
CCS(=O)(=O)c1ccc(-c2nc(-c3ccc(Oc4ccc(C#N)c(C(F)(F)F)c4)cc3)no2)cc1

>  <score_type>  (28) 
oracle

>  <origin>  (28) 
adgpu

>  <m_score__min__energy>  (28) 
-9.3000000000000007

>  <m_primary>  (28) 
energy

$$$$
28:0
     RDKit          3D

 43 44  0  0  0  0  0  0  0  0999 V2000
   -1.9010   16.8960  -35.2980 C   0  0  0  0  0  0  0  0  0  0  0  0
   -2.5390   17.6010  -34.2380 O   0  0  0  0  0  0  0  0  0  0  0  0
   -3.9230   17.5990  -33.9970 C   0  0  0  0  0  0  0  0  0  0  0  0
   -4.6530   18.7920  -33.8690 C   0  0  0  0  0  0  0  0  0  0  0  0
   -6.0370   18.7640  -33.6490 C   0  0  0  0  0  0  0  0  0  0  0  0
   -6.7970   19.9770  -33.5050 N   0  0  0  0  0  0  0  0  0  0  0  0
   -6.4390   21.0490  -32.6150 C   0  0  0  0  0  0  0  0  0  0  0  0
   -5.0910   21.4250  -32.4880 C   0  0  0  0  0  0  0  0  0  0  0  0
   -4.7270   22.5150  -31.6970 C   0  0  0  0  0  0  0  0  0  0  0  0
   -5.7070   23.2630  -31.0390 C   0  0  0  0  0  0  0  0  0  0  0  0
   -5.2620   24.6400  -30.0340 S   0  0  0  0  0  0  0  0  0  0  0  0
   -6.6940   25.4200  -29.4550 N   0  0  0  0  0  0  0  0  0  0  0  0
   -4.4410   24.1610  -28.8700 O   0  0  0  0  0  0  0  0  0  0  0  0
   -4.4590   25.6270  -30.8370 O   0  0  0  0  0  0  0  0  0  0  0  0
   -7.0550   22.9040  -31.1640 C   0  0  0  0  0  0  0  0  0  0  0  0
   -7.4360   21.7960  -31.9440 C   0  0  0  0  0  0  0  0  0  0  0  0
   -8.8250   21.4220  -32.0130 N   0  0  0  0  0  0  0  0  0  0  0  0
   -9.6820   22.0660  -31.3730 O   0  0  0  0  0  0  0  0  0  0  0  0
   -9.2080   20.2640  -32.6510 O   0  0  0  0  0  0  0  0  0  0  0  0
   -6.6830   17.5300  -33.5180 C   0  0  0  0  0  0  0  0  0  0  0  0
   -5.9710   16.3200  -33.6350 C   0  0  0  0  0  0  0  0  0  0  0  0
   -6.6260   15.0850  -33.5050 O   0  0  0  0  0  0  0  0  0  0  0  0
   -7.1570   14.3230  -34.5860 C   0  0  0  0  0  0  0  0  0  0  0  0
   -4.5740   16.3590  -33.8830 C   0  0  0  0  0  0  0  0  0  0  0  0
   -3.7720   15.2090  -34.0240 O   0  0  0  0  0  0  0  0  0  0  0  0
   -3.5010   14.2350  -33.0220 C   0  0  0  0  0  0  0  0  0  0  0  0
   -1.2187   16.1420  -34.8784 H   0  0  0  0  0  0  0  0  0  0  0  0
   -2.6617   16.3980  -35.9172 H   0  0  0  0  0  0  0  0  0  0  0  0
   -1.3298   17.6033  -35.9172 H   0  0  0  0  0  0  0  0  0  0  0  0
   -4.1331   19.7586  -33.9422 H   0  0  0  0  0  0  0  0  0  0  0  0
   -7.6360   20.1120  -34.1140 H   0  0  0  0  0  0  0  0  0  0  0  0
   -4.3145   20.8538  -33.0179 H   0  0  0  0  0  0  0  0  0  0  0  0
   -3.6663   22.7863  -31.5910 H   0  0  0  0  0  0  0  0  0  0  0  0
   -6.9350   24.9750  -28.5410 H   0  0  0  0  0  0  0  0  0  0  0  0
   -6.4390   26.4130  -29.2500 H   0  0  0  0  0  0  0  0  0  0  0  0
   -7.8251   23.4949  -30.6465 H   0  0  0  0  0  0  0  0  0  0  0  0
   -7.7648   17.5041  -33.3204 H   0  0  0  0  0  0  0  0  0  0  0  0
   -7.7433   13.4816  -34.1883 H   0  0  0  0  0  0  0  0  0  0  0  0
   -7.8056   14.9631  -35.2020 H   0  0  0  0  0  0  0  0  0  0  0  0
   -6.3319   13.9362  -35.2020 H   0  0  0  0  0  0  0  0  0  0  0  0
   -3.6269   14.6874  -32.0273 H   0  0  0  0  0  0  0  0  0  0  0  0
   -4.1986   13.3917  -33.1322 H   0  0  0  0  0  0  0  0  0  0  0  0
   -2.4681   13.8732  -33.1322 H   0  0  0  0  0  0  0  0  0  0  0  0
  1  2  1  0
  2  3  1  0
  3  4  2  0
  4  5  1  0
  5  6  1  0
  6  7  1  0
  7  8  2  0
  8  9  1  0
  9 10  2  0
 10 11  1  0
 11 12  1  0
 11 13  2  0
 11 14  2  0
 10 15  1  0
 15 16  2  0
 16 17  1  0
 17 18  2  0
 17 19  1  0
  5 20  2  0
 20 21  1  0
 21 22  1  0
 22 23  1  0
 21 24  2  0
 24 25  1  0
 25 26  1  0
 24  3  1  0
 16  7  1  0
  1 27  1  0
  1 28  1  0
  1 29  1  0
  4 30  1  0
  6 31  1  0
  8 32  1  0
  9 33  1  0
 12 34  1  0
 12 35  1  0
 15 36  1  0
 20 37  1  0
 23 38  1  0
 23 39  1  0
 23 40  1  0
 26 41  1  0
 26 42  1  0
 26 43  1  0
M  CHG  2  17   1  19  -1
M  END
>  <UniqueID>  (29) 
28

>  <SMILES>  (29) 
COc1cc(Nc2ccc(S(N)(=O)=O)cc2[N+](=O)[O-])cc(OC)c1OC

>  <Energy>  (29) 
53.004236875257085

>  <Genealogy>  (29) 
COc1cc(Nc2ccc(S(N)(=O)=O)cc2[N+](=O)[O-])cc(OC)c1OC (3D coordinates assigned)
COc1cc(Nc2ccc(S(N)(=O)=O)cc2[N+](=O)[O-])cc(OC)c1OC (optimized conformer: 53.004236875257085 kcal/mol)

>  <smiles>  (29) 
COc1cc(Nc2ccc(S(N)(=O)=O)cc2[N+](=O)[O-])cc(OC)c1OC

>  <score_type>  (29) 
oracle

>  <origin>  (29) 
adgpu

>  <m_score__min__energy>  (29) 
-8.4499999999999993

>  <m_primary>  (29) 
energy

$$$$
29:0
     RDKit          3D

 48 50  0  0  1  0  0  0  0  0999 V2000
    1.3730   24.3570  -26.7550 C   0  0  0  0  0  0  0  0  0  0  0  0
    0.9600   24.6420  -28.0800 O   0  0  0  0  0  0  0  0  0  0  0  0
   -0.1690   23.9820  -28.5450 C   0  0  0  0  0  0  0  0  0  0  0  0
   -0.2660   22.6380  -28.5890 N   0  0  0  0  0  0  0  0  0  0  0  0
   -1.3860   22.0180  -29.0520 C   0  0  0  0  0  0  0  0  0  0  0  0
   -2.4560   22.7060  -29.4910 N   0  0  0  0  0  0  0  0  0  0  0  0
   -2.3600   24.0460  -29.4480 C   0  0  0  0  0  0  0  0  0  0  0  0
   -3.3480   24.7350  -29.8540 N   0  0  0  0  0  0  0  0  0  0  0  0
   -4.8130   24.1210  -30.4580 S   0  0  0  0  0  0  0  0  0  0  0  0
   -5.7590   23.9930  -29.2850 O   0  0  0  0  0  0  0  0  0  0  0  0
   -5.4210   25.2010  -31.3400 O   0  0  0  0  0  0  0  0  0  0  0  0
   -4.6700   22.6310  -31.3460 C   0  0  0  0  0  0  0  0  0  0  0  0
   -4.6050   22.5660  -32.7230 C   0  0  0  0  0  0  0  0  0  0  0  0
   -4.4900   21.3220  -33.3560 C   0  0  0  0  0  0  0  0  0  0  0  0
   -4.4400   20.1580  -32.6180 C   0  0  0  0  0  0  0  0  0  0  0  0
   -4.2900   18.8680  -33.1670 N   0  0  0  0  0  0  0  0  0  0  0  0
   -5.2960   18.0880  -33.2580 C   0  0  0  0  0  0  0  0  0  0  0  0
   -5.1820   16.8360  -33.7840 N   0  0  0  0  0  0  0  0  0  0  0  0
   -6.3540   16.2280  -33.7710 N   0  0  0  0  0  0  0  0  0  0  0  0
   -6.6360   14.8840  -34.2470 C   0  0  0  0  0  0  0  0  0  0  0  0
   -7.2420   17.0810  -33.2360 C   0  0  0  0  0  0  0  0  0  0  0  0
   -6.6060   18.2800  -32.8950 C   0  0  0  0  0  0  0  0  0  0  0  0
   -7.2330   19.4700  -32.2820 C   0  0  0  0  0  0  0  0  0  0  0  0
   -4.5060   20.2170  -31.2130 C   0  0  0  0  0  0  0  0  0  0  0  0
   -4.6190   21.4560  -30.6120 C   0  0  0  0  0  0  0  0  0  0  0  0
   -1.2450   24.7150  -28.9880 C   0  0  0  0  0  0  0  0  0  0  0  0
   -1.1970   26.0960  -28.9650 O   0  0  0  0  0  0  0  0  0  0  0  0
   -0.8600   26.8540  -27.8100 C   0  0  0  0  0  0  0  0  0  0  0  0
    0.6816   24.8341  -26.0448 H   0  0  0  0  0  0  0  0  0  0  0  0
    1.3689   23.2686  -26.5957 H   0  0  0  0  0  0  0  0  0  0  0  0
    2.3891   24.7470  -26.5957 H   0  0  0  0  0  0  0  0  0  0  0  0
    0.5500   22.0710  -28.2540 H   0  0  0  0  0  0  0  0  0  0  0  0
   -1.4174   20.9186  -29.0678 H   0  0  0  0  0  0  0  0  0  0  0  0
   -4.6434   23.4882  -33.3214 H   0  0  0  0  0  0  0  0  0  0  0  0
   -4.4390   21.2728  -34.4537 H   0  0  0  0  0  0  0  0  0  0  0  0
   -4.3140   16.3740  -34.1580 H   0  0  0  0  0  0  0  0  0  0  0  0
   -6.7769   14.2125  -33.3872 H   0  0  0  0  0  0  0  0  0  0  0  0
   -7.5513   14.8956  -34.8570 H   0  0  0  0  0  0  0  0  0  0  0  0
   -5.7933   14.5267  -34.8570 H   0  0  0  0  0  0  0  0  0  0  0  0
   -8.3111   16.8689  -33.0877 H   0  0  0  0  0  0  0  0  0  0  0  0
   -7.1880   19.3847  -31.1862 H   0  0  0  0  0  0  0  0  0  0  0  0
   -6.6942   20.3741  -32.6018 H   0  0  0  0  0  0  0  0  0  0  0  0
   -8.2834   19.5368  -32.6018 H   0  0  0  0  0  0  0  0  0  0  0  0
   -4.4685   19.2989  -30.6083 H   0  0  0  0  0  0  0  0  0  0  0  0
   -4.6702   21.5120  -29.5146 H   0  0  0  0  0  0  0  0  0  0  0  0
   -1.1153   26.2797  -26.9072 H   0  0  0  0  0  0  0  0  0  0  0  0
    0.2187   27.0694  -27.8147 H   0  0  0  0  0  0  0  0  0  0  0  0
   -1.4227   27.7992  -27.8147 H   0  0  0  0  0  0  0  0  0  0  0  0
  1  2  1  0
  2  3  1  0
  3  4  1  0
  4  5  1  0
  5  6  2  0
  6  7  1  0
  7  8  2  0
  8  9  1  0
  9 10  2  0
  9 11  2  0
  9 12  1  0
 12 13  2  0
 13 14  1  0
 14 15  2  0
 15 16  1  0
 16 17  2  0
 17 18  1  0
 18 19  1  0
 19 20  1  0
 19 21  1  0
 21 22  2  0
 22 23  1  0
 15 24  1  0
 24 25  2  0
  7 26  1  0
 26 27  1  0
 27 28  1  0
 26  3  2  0
 25 12  1  0
 22 17  1  0
  1 29  1  0
  1 30  1  0
  1 31  1  0
  4 32  1  0
  5 33  1  0
 13 34  1  0
 14 35  1  0
 18 36  1  0
 20 37  1  0
 20 38  1  0
 20 39  1  0
 21 40  1  0
 23 41  1  0
 23 42  1  0
 23 43  1  0
 24 44  1  0
 25 45  1  0
 28 46  1  0
 28 47  1  0
 28 48  1  0
M  END
>  <smiles>  (30) 
COc1[nH]cnc(=NS(=O)(=O)c2ccc(N=c3[nH]n(C)cc3C)cc2)c1OC

>  <score_type>  (30) 
oracle

>  <origin>  (30) 
adgpu

>  <m_score__min__energy>  (30) 
-8.5800000000000001

>  <m_primary>  (30) 
energy

$$$$
30:0
     RDKit          3D

 53 56  0  0  0  0  0  0  0  0999 V2000
   -3.3970   14.1980  -35.9940 C   0  0  0  0  0  0  0  0  0  0  0  0
   -3.4100   15.6060  -36.2050 O   0  0  0  0  0  0  0  0  0  0  0  0
   -3.5860   16.5600  -35.1900 C   0  0  0  0  0  0  0  0  0  0  0  0
   -4.6920   17.4330  -35.1650 C   0  0  0  0  0  0  0  0  0  0  0  0
   -4.8320   18.3640  -34.1310 C   0  0  0  0  0  0  0  0  0  0  0  0
   -3.8760   18.4340  -33.1160 C   0  0  0  0  0  0  0  0  0  0  0  0
   -2.7720   17.5800  -33.1370 C   0  0  0  0  0  0  0  0  0  0  0  0
   -2.6200   16.6500  -34.1720 C   0  0  0  0  0  0  0  0  0  0  0  0
   -1.4640   15.8120  -34.2010 N   0  0  0  0  0  0  0  0  0  0  0  0
   -0.2680   15.9910  -35.4420 S   0  0  0  0  0  0  0  0  0  0  0  0
   -0.7970   15.4110  -36.7240 O   0  0  0  0  0  0  0  0  0  0  0  0
    0.9780   15.2460  -35.0520 O   0  0  0  0  0  0  0  0  0  0  0  0
    0.1070   17.6970  -35.6720 C   0  0  0  0  0  0  0  0  0  0  0  0
    0.8630   18.1200  -36.7740 C   0  0  0  0  0  0  0  0  0  0  0  0
    1.0760   19.4830  -36.9950 C   0  0  0  0  0  0  0  0  0  0  0  0
    0.5340   20.4290  -36.1200 C   0  0  0  0  0  0  0  0  0  0  0  0
   -0.2080   20.0200  -35.0030 C   0  0  0  0  0  0  0  0  0  0  0  0
   -0.7940   21.0100  -34.1410 N   0  0  0  0  0  0  0  0  0  0  0  0
   -0.6910   20.9860  -32.7080 C   0  0  0  0  0  0  0  0  0  0  0  0
    0.1760   20.2650  -32.1440 O   0  0  0  0  0  0  0  0  0  0  0  0
   -1.5700   21.8320  -31.8870 C   0  0  0  0  0  0  0  0  0  0  0  0
   -2.9280   21.9980  -32.0590 C   0  0  0  0  0  0  0  0  0  0  0  0
   -3.2960   22.8700  -31.0480 C   0  0  0  0  0  0  0  0  0  0  0  0
   -4.6680   23.3720  -30.7540 C   0  0  0  0  0  0  0  0  0  0  0  0
   -5.7640   22.4840  -30.7470 C   0  0  0  0  0  0  0  0  0  0  0  0
   -7.0610   22.9380  -30.4610 C   0  0  0  0  0  0  0  0  0  0  0  0
   -8.2040   21.9670  -30.4100 C   0  0  0  0  0  0  0  0  0  0  0  0
   -7.2670   24.2870  -30.1500 C   0  0  0  0  0  0  0  0  0  0  0  0
   -6.1950   25.1800  -30.1620 C   0  0  0  0  0  0  0  0  0  0  0  0
   -4.9030   24.7360  -30.4630 C   0  0  0  0  0  0  0  0  0  0  0  0
   -3.8660   25.6640  -30.4650 O   0  0  0  0  0  0  0  0  0  0  0  0
   -2.1990   23.1950  -30.3290 N   0  0  0  0  0  0  0  0  0  0  0  0
   -1.1520   22.5650  -30.8380 N   0  0  0  0  0  0  0  0  0  0  0  0
   -0.4260   18.6470  -34.7900 C   0  0  0  0  0  0  0  0  0  0  0  0
   -3.3951   13.9891  -34.9140 H   0  0  0  0  0  0  0  0  0  0  0  0
   -4.2910   13.7503  -36.4525 H   0  0  0  0  0  0  0  0  0  0  0  0
   -2.4948   13.7668  -36.4525 H   0  0  0  0  0  0  0  0  0  0  0  0
   -5.4483   17.3819  -35.9621 H   0  0  0  0  0  0  0  0  0  0  0  0
   -5.6975   19.0428  -34.1173 H   0  0  0  0  0  0  0  0  0  0  0  0
   -3.9927   19.1621  -32.2998 H   0  0  0  0  0  0  0  0  0  0  0  0
   -2.0189   17.6381  -32.3374 H   0  0  0  0  0  0  0  0  0  0  0  0
    1.2890   17.3781  -37.4655 H   0  0  0  0  0  0  0  0  0  0  0  0
    1.6714   19.8124  -37.8593 H   0  0  0  0  0  0  0  0  0  0  0  0
    0.6907   21.5012  -36.3091 H   0  0  0  0  0  0  0  0  0  0  0  0
   -1.2670   21.8280  -34.5880 H   0  0  0  0  0  0  0  0  0  0  0  0
   -3.5724   21.5417  -32.8249 H   0  0  0  0  0  0  0  0  0  0  0  0
   -5.5997   21.4193  -30.9691 H   0  0  0  0  0  0  0  0  0  0  0  0
   -8.4564   21.7526  -29.3610 H   0  0  0  0  0  0  0  0  0  0  0  0
   -9.0782   22.4028  -30.9158 H   0  0  0  0  0  0  0  0  0  0  0  0
   -7.9152   21.0338  -30.9158 H   0  0  0  0  0  0  0  0  0  0  0  0
   -8.2759   24.6439  -29.8956 H   0  0  0  0  0  0  0  0  0  0  0  0
   -6.3672   26.2420  -29.9329 H   0  0  0  0  0  0  0  0  0  0  0  0
   -1.0192   18.3162  -33.9247 H   0  0  0  0  0  0  0  0  0  0  0  0
  1  2  1  0
  2  3  1  0
  3  4  2  0
  4  5  1  0
  5  6  2  0
  6  7  1  0
  7  8  2  0
  8  9  1  0
  9 10  1  0
 10 11  2  0
 10 12  2  0
 10 13  1  0
 13 14  2  0
 14 15  1  0
 15 16  2  0
 16 17  1  0
 17 18  1  0
 18 19  1  0
 19 20  2  0
 19 21  1  0
 21 22  2  0
 22 23  1  0
 23 24  1  0
 24 25  2  0
 25 26  1  0
 26 27  1  0
 26 28  2  0
 28 29  1  0
 29 30  2  0
 30 31  1  0
 23 32  2  0
 32 33  1  0
 17 34  2  0
  8  3  1  0
 34 13  1  0
 33 21  1  0
 30 24  1  0
  1 35  1  0
  1 36  1  0
  1 37  1  0
  4 38  1  0
  5 39  1  0
  6 40  1  0
  7 41  1  0
 14 42  1  0
 15 43  1  0
 16 44  1  0
 18 45  1  0
 22 46  1  0
 25 47  1  0
 27 48  1  0
 27 49  1  0
 27 50  1  0
 28 51  1  0
 29 52  1  0
 34 53  1  0
M  CHG  3   9  -1  31  -1  33  -1
M  END
>  <UniqueID>  (31) 
29

>  <SMILES>  (31) 
COc1ccccc1[N-]S(=O)(=O)c1cccc(NC(=O)c2cc(-c3cc(C)ccc3[O-])n[n-]2)c1

>  <Energy>  (31) 
99.10002908101805

>  <Genealogy>  (31) 
COc1ccccc1[N-]S(=O)(=O)c1cccc(NC(=O)c2cc(-c3cc(C)ccc3[O-])n[n-]2)c1 (protonated)
COc1ccccc1[N-]S(=O)(=O)c1cccc(NC(=O)c2cc(-c3cc(C)ccc3[O-])n[n-]2)c1 (3D coordinates assigned)
COc1ccccc1[N-]S(=O)(=O)c1cccc(NC(=O)c2cc(-c3cc(C)ccc3[O-])n[n-]2)c1 (optimized conformer: 99.10002908101805 kcal/mol)

>  <smiles>  (31) 
COc1ccccc1NS(=O)(=O)c1cccc(NC(=O)c2cc(-c3cc(C)ccc3O)n[nH]2)c1

>  <score_type>  (31) 
oracle

>  <origin>  (31) 
adgpu

>  <m_score__min__energy>  (31) 
-14.449999999999999

>  <m_primary>  (31) 
energy

$$$$
31:0
     RDKit          3D

 37 39  0  0  0  0  0  0  0  0999 V2000
   -4.2320   24.4480  -27.1240 C   0  0  0  0  0  0  0  0  0  0  0  0
   -2.7460   24.6470  -27.2720 C   0  0  0  0  0  0  0  0  0  0  0  0
   -1.9980   25.0700  -26.1580 C   0  0  0  0  0  0  0  0  0  0  0  0
   -0.6190   25.2660  -26.2600 C   0  0  0  0  0  0  0  0  0  0  0  0
    0.0300   25.0430  -27.4730 C   0  0  0  0  0  0  0  0  0  0  0  0
   -0.6970   24.6330  -28.5920 C   0  0  0  0  0  0  0  0  0  0  0  0
   -2.0890   24.4470  -28.5130 C   0  0  0  0  0  0  0  0  0  0  0  0
   -2.8310   23.9830  -29.7410 C   0  0  0  0  0  0  0  0  0  0  0  0
   -3.5050   25.1200  -30.3560 N   0  0  0  0  0  0  0  0  0  0  0  0
   -4.9220   25.3140  -30.4520 C   0  0  0  0  0  0  0  0  0  0  0  0
   -5.3600   26.4950  -30.4890 O   0  0  0  0  0  0  0  0  0  0  0  0
   -5.8900   24.1960  -30.5110 C   0  0  0  0  0  0  0  0  0  0  0  0
   -5.7880   23.0920  -31.3330 C   0  0  0  0  0  0  0  0  0  0  0  0
   -6.9110   22.3470  -31.0280 C   0  0  0  0  0  0  0  0  0  0  0  0
   -7.3210   21.0500  -31.6120 C   0  0  0  0  0  0  0  0  0  0  0  0
   -6.4300   20.2750  -32.3780 C   0  0  0  0  0  0  0  0  0  0  0  0
   -6.8400   19.0520  -32.9190 C   0  0  0  0  0  0  0  0  0  0  0  0
   -8.1410   18.5910  -32.7040 C   0  0  0  0  0  0  0  0  0  0  0  0
   -9.0340   19.3520  -31.9470 C   0  0  0  0  0  0  0  0  0  0  0  0
   -8.6290   20.5750  -31.4030 C   0  0  0  0  0  0  0  0  0  0  0  0
   -7.5940   22.9850  -30.1040 O   0  0  0  0  0  0  0  0  0  0  0  0
   -7.0100   24.0990  -29.7700 N   0  0  0  0  0  0  0  0  0  0  0  0
   -4.4927   24.4131  -26.0559 H   0  0  0  0  0  0  0  0  0  0  0  0
   -4.7634   25.2830  -27.6040 H   0  0  0  0  0  0  0  0  0  0  0  0
   -4.5249   23.5026  -27.6040 H   0  0  0  0  0  0  0  0  0  0  0  0
   -2.5041   25.2480  -25.1977 H   0  0  0  0  0  0  0  0  0  0  0  0
   -0.0446   25.5967  -25.3821 H   0  0  0  0  0  0  0  0  0  0  0  0
    1.1174   25.1904  -27.5488 H   0  0  0  0  0  0  0  0  0  0  0  0
   -0.1765   24.4537  -29.5443 H   0  0  0  0  0  0  0  0  0  0  0  0
   -2.1192   23.5466  -30.4572 H   0  0  0  0  0  0  0  0  0  0  0  0
   -3.5746   23.2239  -29.4569 H   0  0  0  0  0  0  0  0  0  0  0  0
   -4.9970   22.8594  -32.0612 H   0  0  0  0  0  0  0  0  0  0  0  0
   -5.4047   20.6334  -32.5523 H   0  0  0  0  0  0  0  0  0  0  0  0
   -6.1365   18.4520  -33.5150 H   0  0  0  0  0  0  0  0  0  0  0  0
   -8.4617   17.6292  -33.1307 H   0  0  0  0  0  0  0  0  0  0  0  0
  -10.0584   18.9887  -31.7781 H   0  0  0  0  0  0  0  0  0  0  0  0
   -9.3376   21.1696  -30.8078 H   0  0  0  0  0  0  0  0  0  0  0  0
  1  2  1  0
  2  3  2  0
  3  4  1  0
  4  5  2  0
  5  6  1  0
  6  7  2  0
  7  8  1  0
  8  9  1  0
  9 10  1  0
 10 11  2  0
 10 12  1  0
 12 13  1  0
 13 14  2  0
 14 15  1  0
 15 16  2  0
 16 17  1  0
 17 18  2  0
 18 19  1  0
 19 20  2  0
 14 21  1  0
 21 22  1  0
  7  2  1  0
 22 12  2  0
 20 15  1  0
  1 23  1  0
  1 24  1  0
  1 25  1  0
  3 26  1  0
  4 27  1  0
  5 28  1  0
  6 29  1  0
  8 30  1  0
  8 31  1  0
 13 32  1  0
 16 33  1  0
 17 34  1  0
 18 35  1  0
 19 36  1  0
 20 37  1  0
M  CHG  1   9  -1
M  END
>  <UniqueID>  (32) 
30

>  <SMILES>  (32) 
Cc1ccccc1C[N-]C(=O)c1cc(-c2ccccc2)on1

>  <Energy>  (32) 
70.55154760270582

>  <Genealogy>  (32) 
Cc1ccccc1C[N-]C(=O)c1cc(-c2ccccc2)on1 (protonated)
Cc1ccccc1C[N-]C(=O)c1cc(-c2ccccc2)on1 (3D coordinates assigned)
Cc1ccccc1C[N-]C(=O)c1cc(-c2ccccc2)on1 (optimized conformer: 70.55154760270582 kcal/mol)

>  <smiles>  (32) 
Cc1ccccc1CNC(=O)c1cc(-c2ccccc2)on1

>  <score_type>  (32) 
oracle

>  <origin>  (32) 
adgpu

>  <m_score__min__energy>  (32) 
-10.199999999999999

>  <m_primary>  (32) 
energy

$$$$
32:0
     RDKit          3D

 31 33  0  0  0  0  0  0  0  0999 V2000
   -4.9870   21.4280  -32.9940 O   0  0  0  0  0  0  0  0  0  0  0  0
   -5.9850   21.8340  -32.3350 C   0  0  0  0  0  0  0  0  0  0  0  0
   -7.2360   21.2010  -32.4890 C   0  0  0  0  0  0  0  0  0  0  0  0
   -7.4150   20.0610  -33.4690 C   0  0  0  0  0  0  0  0  0  0  0  0
   -6.7220   18.8200  -32.9690 C   0  0  0  0  0  0  0  0  0  0  0  0
   -6.0480   17.9720  -33.8660 C   0  0  0  0  0  0  0  0  0  0  0  0
   -5.4330   16.8040  -33.4040 C   0  0  0  0  0  0  0  0  0  0  0  0
   -5.4890   16.4710  -32.0480 C   0  0  0  0  0  0  0  0  0  0  0  0
   -4.8920   15.3380  -31.6030 F   0  0  0  0  0  0  0  0  0  0  0  0
   -6.1590   17.3070  -31.1510 C   0  0  0  0  0  0  0  0  0  0  0  0
   -6.7770   18.4750  -31.6080 C   0  0  0  0  0  0  0  0  0  0  0  0
   -8.3330   21.6800  -31.7450 C   0  0  0  0  0  0  0  0  0  0  0  0
   -9.5870   21.0880  -31.8720 O   0  0  0  0  0  0  0  0  0  0  0  0
   -8.1760   22.7270  -30.8930 N   0  0  0  0  0  0  0  0  0  0  0  0
   -6.9820   23.3510  -30.7230 C   0  0  0  0  0  0  0  0  0  0  0  0
   -6.8780   24.4250  -29.8320 C   0  0  0  0  0  0  0  0  0  0  0  0
   -5.6530   25.0730  -29.6540 C   0  0  0  0  0  0  0  0  0  0  0  0
   -4.5260   24.6500  -30.3660 C   0  0  0  0  0  0  0  0  0  0  0  0
   -3.3100   25.2990  -30.1840 O   0  0  0  0  0  0  0  0  0  0  0  0
   -4.6200   23.5780  -31.2590 C   0  0  0  0  0  0  0  0  0  0  0  0
   -5.8490   22.9170  -31.4460 C   0  0  0  0  0  0  0  0  0  0  0  0
   -8.4883   19.8524  -33.5892 H   0  0  0  0  0  0  0  0  0  0  0  0
   -6.9738   20.3498  -34.4344 H   0  0  0  0  0  0  0  0  0  0  0  0
   -6.0044   18.2284  -34.9348 H   0  0  0  0  0  0  0  0  0  0  0  0
   -4.9042   16.1462  -34.1094 H   0  0  0  0  0  0  0  0  0  0  0  0
   -6.2003   17.0457  -30.0833 H   0  0  0  0  0  0  0  0  0  0  0  0
   -7.3086   19.1267  -30.8990 H   0  0  0  0  0  0  0  0  0  0  0  0
  -10.3510   21.3520  -31.2610 H   0  0  0  0  0  0  0  0  0  0  0  0
   -7.7626   24.7598  -29.2705 H   0  0  0  0  0  0  0  0  0  0  0  0
   -5.5749   25.9170  -28.9529 H   0  0  0  0  0  0  0  0  0  0  0  0
   -3.7307   23.2500  -31.8173 H   0  0  0  0  0  0  0  0  0  0  0  0
  1  2  2  0
  2  3  1  0
  3  4  1  0
  4  5  1  0
  5  6  2  0
  6  7  1  0
  7  8  2  0
  8  9  1  0
  8 10  1  0
 10 11  2  0
  3 12  2  0
 12 13  1  0
 12 14  1  0
 14 15  1  0
 15 16  2  0
 16 17  1  0
 17 18  2  0
 18 19  1  0
 18 20  1  0
 20 21  2  0
 21  2  1  0
 11  5  1  0
 21 15  1  0
  4 22  1  0
  4 23  1  0
  6 24  1  0
  7 25  1  0
 10 26  1  0
 11 27  1  0
 13 28  1  0
 16 29  1  0
 17 30  1  0
 20 31  1  0
M  CHG  2  14  -1  19  -1
M  END
>  <UniqueID>  (33) 
31

>  <SMILES>  (33) 
O=c1c(Cc2ccc(F)cc2)c(O)[n-]c2ccc([O-])cc12

>  <Energy>  (33) 
38.4814122211976

>  <Genealogy>  (33) 
O=c1c(Cc2ccc(F)cc2)c(O)[n-]c2ccc([O-])cc12 (protonated)
O=c1c(Cc2ccc(F)cc2)c(O)[n-]c2ccc([O-])cc12 (3D coordinates assigned)
O=c1c(Cc2ccc(F)cc2)c(O)[n-]c2ccc([O-])cc12 (optimized conformer: 38.4814122211976 kcal/mol)

>  <smiles>  (33) 
O=c1c(Cc2ccc(F)cc2)c(O)[nH]c2ccc(O)cc12

>  <score_type>  (33) 
oracle

>  <origin>  (33) 
adgpu

>  <m_score__min__energy>  (33) 
-10.220000000000001

>  <m_primary>  (33) 
energy

$$$$
33:0
     RDKit          3D

 57 60  0  0  0  0  0  0  0  0999 V2000
   -2.8830   20.8520  -28.1020 C   0  0  0  0  0  0  0  0  0  0  0  0
   -1.6100   20.6360  -27.4030 N   0  0  0  0  0  0  0  0  0  0  0  0
   -1.6000   20.3430  -25.9680 C   0  0  0  0  0  0  0  0  0  0  0  0
   -0.3570   20.8300  -28.0890 C   0  0  0  0  0  0  0  0  0  0  0  0
    0.6620   21.1860  -27.4360 O   0  0  0  0  0  0  0  0  0  0  0  0
   -0.2280   20.6300  -29.5480 C   0  0  0  0  0  0  0  0  0  0  0  0
    0.3010   19.4310  -30.0480 C   0  0  0  0  0  0  0  0  0  0  0  0
    0.3950   19.2210  -31.4270 C   0  0  0  0  0  0  0  0  0  0  0  0
   -0.0580   20.1990  -32.3290 C   0  0  0  0  0  0  0  0  0  0  0  0
    0.0140   19.9750  -33.7530 N   0  0  0  0  0  0  0  0  0  0  0  0
   -0.6530   18.8410  -34.3410 C   0  0  0  0  0  0  0  0  0  0  0  0
    0.0290   17.9830  -34.9660 O   0  0  0  0  0  0  0  0  0  0  0  0
   -2.1190   18.6490  -34.2100 C   0  0  0  0  0  0  0  0  0  0  0  0
   -2.7260   17.4450  -34.6090 C   0  0  0  0  0  0  0  0  0  0  0  0
   -4.1110   17.2850  -34.5160 C   0  0  0  0  0  0  0  0  0  0  0  0
   -4.9160   18.3290  -34.0500 C   0  0  0  0  0  0  0  0  0  0  0  0
   -6.3020   18.1300  -33.9760 O   0  0  0  0  0  0  0  0  0  0  0  0
   -7.1740   18.7850  -33.0910 C   0  0  0  0  0  0  0  0  0  0  0  0
   -7.2710   20.1820  -33.1570 C   0  0  0  0  0  0  0  0  0  0  0  0
   -8.1020   20.8790  -32.2730 C   0  0  0  0  0  0  0  0  0  0  0  0
   -8.8410   20.1830  -31.3130 C   0  0  0  0  0  0  0  0  0  0  0  0
   -8.7470   18.7900  -31.2340 C   0  0  0  0  0  0  0  0  0  0  0  0
   -7.9090   18.0930  -32.1100 C   0  0  0  0  0  0  0  0  0  0  0  0
   -4.3130   19.5280  -33.6310 C   0  0  0  0  0  0  0  0  0  0  0  0
   -2.9270   19.6880  -33.7200 C   0  0  0  0  0  0  0  0  0  0  0  0
    0.6520   20.9420  -34.6150 C   0  0  0  0  0  0  0  0  0  0  0  0
   -0.1000   21.9710  -35.2110 C   0  0  0  0  0  0  0  0  0  0  0  0
    0.5180   22.9090  -36.0410 C   0  0  0  0  0  0  0  0  0  0  0  0
    1.8920   22.8350  -36.2840 C   0  0  0  0  0  0  0  0  0  0  0  0
    2.5040   23.7690  -37.1080 O   0  0  0  0  0  0  0  0  0  0  0  0
    2.6510   21.8190  -35.6950 C   0  0  0  0  0  0  0  0  0  0  0  0
    2.0380   20.8760  -34.8650 C   0  0  0  0  0  0  0  0  0  0  0  0
   -0.6000   21.3950  -31.8250 C   0  0  0  0  0  0  0  0  0  0  0  0
   -0.6870   21.6070  -30.4470 C   0  0  0  0  0  0  0  0  0  0  0  0
   -3.6877   20.9885  -27.3645 H   0  0  0  0  0  0  0  0  0  0  0  0
   -2.8073   21.7501  -28.7326 H   0  0  0  0  0  0  0  0  0  0  0  0
   -3.1078   19.9792  -28.7326 H   0  0  0  0  0  0  0  0  0  0  0  0
   -1.6322   21.2852  -25.4012 H   0  0  0  0  0  0  0  0  0  0  0  0
   -2.4778   19.7313  -25.7125 H   0  0  0  0  0  0  0  0  0  0  0  0
   -0.6825   19.7925  -25.7125 H   0  0  0  0  0  0  0  0  0  0  0  0
    0.6437   18.6517  -29.3514 H   0  0  0  0  0  0  0  0  0  0  0  0
    0.8265   18.2839  -31.8087 H   0  0  0  0  0  0  0  0  0  0  0  0
   -2.1062   16.6233  -34.9971 H   0  0  0  0  0  0  0  0  0  0  0  0
   -4.5714   16.3307  -34.8116 H   0  0  0  0  0  0  0  0  0  0  0  0
   -6.6893   20.7345  -33.9096 H   0  0  0  0  0  0  0  0  0  0  0  0
   -8.1735   21.9750  -32.3338 H   0  0  0  0  0  0  0  0  0  0  0  0
   -9.4964   20.7305  -30.6197 H   0  0  0  0  0  0  0  0  0  0  0  0
   -9.3331   18.2418  -30.4817 H   0  0  0  0  0  0  0  0  0  0  0  0
   -7.8238   16.9991  -32.0321 H   0  0  0  0  0  0  0  0  0  0  0  0
   -4.9341   20.3433  -33.2316 H   0  0  0  0  0  0  0  0  0  0  0  0
   -2.4657   20.6352  -33.4037 H   0  0  0  0  0  0  0  0  0  0  0  0
   -1.1816   22.0372  -35.0220 H   0  0  0  0  0  0  0  0  0  0  0  0
   -0.0787   23.7083  -36.5047 H   0  0  0  0  0  0  0  0  0  0  0  0
    3.7329   21.7617  -35.8852 H   0  0  0  0  0  0  0  0  0  0  0  0
    2.6399   20.0786  -34.4047 H   0  0  0  0  0  0  0  0  0  0  0  0
   -0.9577   22.1685  -32.5205 H   0  0  0  0  0  0  0  0  0  0  0  0
   -1.1172   22.5440  -30.0638 H   0  0  0  0  0  0  0  0  0  0  0  0
  1  2  1  0
  2  3  1  0
  2  4  1  0
  4  5  2  0
  4  6  1  0
  6  7  2  0
  7  8  1  0
  8  9  2  0
  9 10  1  0
 10 11  1  0
 11 12  2  0
 11 13  1  0
 13 14  2  0
 14 15  1  0
 15 16  2  0
 16 17  1  0
 17 18  1  0
 18 19  2  0
 19 20  1  0
 20 21  2  0
 21 22  1  0
 22 23  2  0
 16 24  1  0
 24 25  2  0
 10 26  1  0
 26 27  2  0
 27 28  1  0
 28 29  2  0
 29 30  1  0
 29 31  1  0
 31 32  2  0
  9 33  1  0
 33 34  2  0
 34  6  1  0
 25 13  1  0
 32 26  1  0
 23 18  1  0
  1 35  1  0
  1 36  1  0
  1 37  1  0
  3 38  1  0
  3 39  1  0
  3 40  1  0
  7 41  1  0
  8 42  1  0
 14 43  1  0
 15 44  1  0
 19 45  1  0
 20 46  1  0
 21 47  1  0
 22 48  1  0
 23 49  1  0
 24 50  1  0
 25 51  1  0
 27 52  1  0
 28 53  1  0
 31 54  1  0
 32 55  1  0
 33 56  1  0
 34 57  1  0
M  CHG  1  30  -1
M  END
>  <UniqueID>  (34) 
32

>  <SMILES>  (34) 
CN(C)C(=O)c1ccc(N(C(=O)c2ccc(Oc3ccccc3)cc2)c2ccc([O-])cc2)cc1

>  <Energy>  (34) 
84.62203341554594

>  <Genealogy>  (34) 
CN(C)C(=O)c1ccc(N(C(=O)c2ccc(Oc3ccccc3)cc2)c2ccc([O-])cc2)cc1 (protonated)
CN(C)C(=O)c1ccc(N(C(=O)c2ccc(Oc3ccccc3)cc2)c2ccc([O-])cc2)cc1 (3D coordinates assigned)
CN(C)C(=O)c1ccc(N(C(=O)c2ccc(Oc3ccccc3)cc2)c2ccc([O-])cc2)cc1 (optimized conformer: 84.62203341554594 kcal/mol)

>  <smiles>  (34) 
CN(C)C(=O)c1ccc(N(C(=O)c2ccc(Oc3ccccc3)cc2)c2ccc(O)cc2)cc1

>  <score_type>  (34) 
oracle

>  <origin>  (34) 
adgpu

>  <m_score__min__energy>  (34) 
-10.15

>  <m_primary>  (34) 
energy

$$$$
34:0
     RDKit          3D

 50 53  0  0  1  0  0  0  0  0999 V2000
    3.3510   24.8770  -22.8060 N   0  0  0  0  0  0  0  0  0  0  0  0
    3.4570   25.5180  -24.3900 S   0  0  0  0  0  0  0  0  0  0  0  0
    4.5760   26.5340  -24.4070 O   0  0  0  0  0  0  0  0  0  0  0  0
    3.7230   24.4410  -25.4110 O   0  0  0  0  0  0  0  0  0  0  0  0
    1.9960   26.3790  -24.8550 C   0  0  0  0  0  0  0  0  0  0  0  0
    1.5040   27.4040  -24.0430 C   0  0  0  0  0  0  0  0  0  0  0  0
    0.3490   28.1020  -24.3880 C   0  0  0  0  0  0  0  0  0  0  0  0
   -0.3300   27.7710  -25.5670 C   0  0  0  0  0  0  0  0  0  0  0  0
    0.1510   26.7450  -26.3940 C   0  0  0  0  0  0  0  0  0  0  0  0
   -0.5200   26.4670  -27.6050 N   0  0  0  0  0  0  0  0  0  0  0  0
   -1.4250   25.6240  -27.7760 C   0  0  0  0  0  0  0  0  0  0  0  0
   -1.9690   25.4760  -29.0010 N   0  0  0  0  0  0  0  0  0  0  0  0
   -2.9470   24.5840  -29.2430 C   0  0  0  0  0  0  0  0  0  0  0  0
   -3.3950   24.5270  -30.4500 N   0  0  0  0  0  0  0  0  0  0  0  0
   -4.4280   23.6200  -30.8200 C   0  0  0  0  0  0  0  0  0  0  0  0
   -4.2260   22.2760  -30.8840 C   0  0  0  0  0  0  0  0  0  0  0  0
   -5.2880   21.4760  -31.2530 C   0  0  0  0  0  0  0  0  0  0  0  0
   -6.5380   21.9750  -31.5570 C   0  0  0  0  0  0  0  0  0  0  0  0
   -7.6030   21.1650  -31.9260 O   0  0  0  0  0  0  0  0  0  0  0  0
   -7.2280   19.9450  -32.5230 C   0  0  0  0  0  0  0  0  0  0  0  0
   -7.6020   18.7390  -31.9630 C   0  0  0  0  0  0  0  0  0  0  0  0
   -7.2320   17.5460  -32.5500 C   0  0  0  0  0  0  0  0  0  0  0  0
   -6.4760   17.5340  -33.7160 C   0  0  0  0  0  0  0  0  0  0  0  0
   -6.1050   18.7420  -34.2730 C   0  0  0  0  0  0  0  0  0  0  0  0
   -6.4780   19.9150  -33.6790 C   0  0  0  0  0  0  0  0  0  0  0  0
   -6.7280   23.3510  -31.4870 C   0  0  0  0  0  0  0  0  0  0  0  0
   -5.6650   24.1520  -31.1190 C   0  0  0  0  0  0  0  0  0  0  0  0
   -3.4330   23.7920  -28.2790 N   0  0  0  0  0  0  0  0  0  0  0  0
   -2.8860   23.9390  -27.0470 C   0  0  0  0  0  0  0  0  0  0  0  0
   -1.8940   24.8350  -26.7700 C   0  0  0  0  0  0  0  0  0  0  0  0
   -1.2200   24.9380  -25.0090 Br  0  0  0  0  0  0  0  0  0  0  0  0
    1.3090   26.0590  -26.0290 C   0  0  0  0  0  0  0  0  0  0  0  0
    2.6220   24.1510  -22.7850 H   0  0  0  0  0  0  0  0  0  0  0  0
    3.2410   25.6640  -22.1460 H   0  0  0  0  0  0  0  0  0  0  0  0
    2.0372   27.6639  -23.1166 H   0  0  0  0  0  0  0  0  0  0  0  0
   -0.0268   28.9070  -23.7393 H   0  0  0  0  0  0  0  0  0  0  0  0
   -1.2433   28.3171  -25.8456 H   0  0  0  0  0  0  0  0  0  0  0  0
   -1.6090   26.0860  -29.7860 H   0  0  0  0  0  0  0  0  0  0  0  0
   -3.2441   21.8396  -30.6483 H   0  0  0  0  0  0  0  0  0  0  0  0
   -5.1306   20.3887  -31.3074 H   0  0  0  0  0  0  0  0  0  0  0  0
   -8.2006   18.7293  -31.0402 H   0  0  0  0  0  0  0  0  0  0  0  0
   -7.5386   16.5949  -32.0902 H   0  0  0  0  0  0  0  0  0  0  0  0
   -6.1798   16.5839  -34.1846 H   0  0  0  0  0  0  0  0  0  0  0  0
   -5.5080   18.7601  -35.1967 H   0  0  0  0  0  0  0  0  0  0  0  0
   -6.1697   20.8658  -34.1383 H   0  0  0  0  0  0  0  0  0  0  0  0
   -7.7076   23.7934  -31.7206 H   0  0  0  0  0  0  0  0  0  0  0  0
   -5.8083   25.2412  -31.0629 H   0  0  0  0  0  0  0  0  0  0  0  0
   -4.1760   23.1240  -28.4970 H   0  0  0  0  0  0  0  0  0  0  0  0
   -3.2603   23.3046  -26.2300 H   0  0  0  0  0  0  0  0  0  0  0  0
    1.6875   25.2534  -26.6753 H   0  0  0  0  0  0  0  0  0  0  0  0
  1  2  1  0
  2  3  2  0
  2  4  2  0
  2  5  1  0
  5  6  2  0
  6  7  1  0
  7  8  2  0
  8  9  1  0
  9 10  1  0
 10 11  2  0
 11 12  1  0
 12 13  1  0
 13 14  2  0
 14 15  1  0
 15 16  2  0
 16 17  1  0
 17 18  2  0
 18 19  1  0
 19 20  1  0
 20 21  2  0
 21 22  1  0
 22 23  2  0
 23 24  1  0
 24 25  2  0
 18 26  1  0
 26 27  2  0
 13 28  1  0
 28 29  1  0
 29 30  2  0
 30 31  1  0
  9 32  2  0
 32  5  1  0
 30 11  1  0
 27 15  1  0
 25 20  1  0
  1 33  1  0
  1 34  1  0
  6 35  1  0
  7 36  1  0
  8 37  1  0
 12 38  1  0
 16 39  1  0
 17 40  1  0
 21 41  1  0
 22 42  1  0
 23 43  1  0
 24 44  1  0
 25 45  1  0
 26 46  1  0
 27 47  1  0
 28 48  1  0
 29 49  1  0
 32 50  1  0
M  END
>  <smiles>  (35) 
NS(=O)(=O)c1cccc(N=c2[nH]c(=Nc3ccc(Oc4ccccc4)cc3)[nH]cc2Br)c1

>  <score_type>  (35) 
oracle

>  <origin>  (35) 
adgpu

>  <m_score__min__energy>  (35) 
-10.23

>  <m_primary>  (35) 
energy

$$$$
35:0
     RDKit          3D

 45 47  0  0  0  0  0  0  0  0999 V2000
   -9.0080   22.2100  -31.2900 C   0  0  0  0  0  0  0  0  0  0  0  0
   -8.0880   21.2200  -31.9390 C   0  0  0  0  0  0  0  0  0  0  0  0
   -7.0070   21.6640  -32.7100 C   0  0  0  0  0  0  0  0  0  0  0  0
   -6.1760   20.7460  -33.3540 C   0  0  0  0  0  0  0  0  0  0  0  0
   -6.4160   19.3670  -33.2510 C   0  0  0  0  0  0  0  0  0  0  0  0
   -5.3510   18.2510  -34.1230 S   0  0  0  0  0  0  0  0  0  0  0  0
   -5.4840   16.8530  -33.5850 O   0  0  0  0  0  0  0  0  0  0  0  0
   -5.7420   18.2410  -35.5740 O   0  0  0  0  0  0  0  0  0  0  0  0
   -3.6960   18.7520  -33.9740 N   0  0  0  0  0  0  0  0  0  0  0  0
   -3.2360   19.7010  -32.9960 C   0  0  0  0  0  0  0  0  0  0  0  0
   -3.7630   19.6540  -31.6960 C   0  0  0  0  0  0  0  0  0  0  0  0
   -3.3260   20.5520  -30.7190 C   0  0  0  0  0  0  0  0  0  0  0  0
   -2.3560   21.5130  -31.0280 C   0  0  0  0  0  0  0  0  0  0  0  0
   -1.8140   22.6460  -29.7950 S   0  0  0  0  0  0  0  0  0  0  0  0
   -2.2340   22.1550  -28.4380 O   0  0  0  0  0  0  0  0  0  0  0  0
   -0.3170   22.7610  -29.8570 O   0  0  0  0  0  0  0  0  0  0  0  0
   -2.5390   24.1960  -30.0850 N   0  0  0  0  0  0  0  0  0  0  0  0
   -3.8190   24.3880  -30.1800 C   0  0  0  0  0  0  0  0  0  0  0  0
   -4.6950   23.3510  -30.0540 N   0  0  0  0  0  0  0  0  0  0  0  0
   -6.0350   23.5510  -30.1540 C   0  0  0  0  0  0  0  0  0  0  0  0
   -6.5310   24.8330  -30.3890 C   0  0  0  0  0  0  0  0  0  0  0  0
   -5.6230   25.8820  -30.5160 C   0  0  0  0  0  0  0  0  0  0  0  0
   -4.2900   25.6420  -30.4100 N   0  0  0  0  0  0  0  0  0  0  0  0
   -1.8400   21.5800  -32.3280 C   0  0  0  0  0  0  0  0  0  0  0  0
   -2.2750   20.6820  -33.3070 C   0  0  0  0  0  0  0  0  0  0  0  0
   -7.5050   18.9080  -32.4690 C   0  0  0  0  0  0  0  0  0  0  0  0
   -7.8350   17.4440  -32.3390 C   0  0  0  0  0  0  0  0  0  0  0  0
   -8.3430   19.8470  -31.8390 C   0  0  0  0  0  0  0  0  0  0  0  0
   -8.9274   22.1233  -30.1964 H   0  0  0  0  0  0  0  0  0  0  0  0
   -8.7279   23.2280  -31.5987 H   0  0  0  0  0  0  0  0  0  0  0  0
  -10.0437   22.0052  -31.5987 H   0  0  0  0  0  0  0  0  0  0  0  0
   -6.8116   22.7420  -32.8087 H   0  0  0  0  0  0  0  0  0  0  0  0
   -5.3239   21.1071  -33.9486 H   0  0  0  0  0  0  0  0  0  0  0  0
   -3.0350   18.4240  -34.7130 H   0  0  0  0  0  0  0  0  0  0  0  0
   -4.5268   18.9035  -31.4442 H   0  0  0  0  0  0  0  0  0  0  0  0
   -3.7456   20.5038  -29.7033 H   0  0  0  0  0  0  0  0  0  0  0  0
   -6.7278   22.7029  -30.0498 H   0  0  0  0  0  0  0  0  0  0  0  0
   -7.6132   25.0117  -30.4721 H   0  0  0  0  0  0  0  0  0  0  0  0
   -5.9851   26.9039  -30.7020 H   0  0  0  0  0  0  0  0  0  0  0  0
   -1.0887   22.3429  -32.5801 H   0  0  0  0  0  0  0  0  0  0  0  0
   -1.8644   20.7421  -34.3257 H   0  0  0  0  0  0  0  0  0  0  0  0
   -7.8956   17.1750  -31.2741 H   0  0  0  0  0  0  0  0  0  0  0  0
   -8.8013   17.2415  -32.8240 H   0  0  0  0  0  0  0  0  0  0  0  0
   -7.0490   16.8465  -32.8240 H   0  0  0  0  0  0  0  0  0  0  0  0
   -9.2104   19.4973  -31.2600 H   0  0  0  0  0  0  0  0  0  0  0  0
  1  2  1  0
  2  3  2  0
  3  4  1  0
  4  5  2  0
  5  6  1  0
  6  7  2  0
  6  8  2  0
  6  9  1  0
  9 10  1  0
 10 11  2  0
 11 12  1  0
 12 13  2  0
 13 14  1  0
 14 15  2  0
 14 16  2  0
 14 17  1  0
 17 18  2  3
 18 19  1  0
 19 20  2  0
 20 21  1  0
 21 22  2  0
 22 23  1  0
 13 24  1  0
 24 25  2  0
  5 26  1  0
 26 27  1  0
 26 28  2  0
 28  2  1  0
 25 10  1  0
 23 18  1  0
  1 29  1  0
  1 30  1  0
  1 31  1  0
  3 32  1  0
  4 33  1  0
  9 34  1  0
 11 35  1  0
 12 36  1  0
 20 37  1  0
 21 38  1  0
 22 39  1  0
 24 40  1  0
 25 41  1  0
 27 42  1  0
 27 43  1  0
 27 44  1  0
 28 45  1  0
M  CHG  1  23  -1
M  END
>  <UniqueID>  (36) 
33

>  <SMILES>  (36) 
Cc1ccc(S(=O)(=O)Nc2ccc(S(=O)(=O)N=c3nccc[n-]3)cc2)c(C)c1

>  <Energy>  (36) 
55.03930144326687

>  <Genealogy>  (36) 
Cc1ccc(S(=O)(=O)Nc2ccc(S(=O)(=O)N=c3nccc[n-]3)cc2)c(C)c1 (protonated)
Cc1ccc(S(=O)(=O)Nc2ccc(S(=O)(=O)N=c3nccc[n-]3)cc2)c(C)c1 (3D coordinates assigned)
Cc1ccc(S(=O)(=O)Nc2ccc(S(=O)(=O)N=c3nccc[n-]3)cc2)c(C)c1 (optimized conformer: 55.03930144326687 kcal/mol)

>  <smiles>  (36) 
Cc1ccc(S(=O)(=O)Nc2ccc(S(=O)(=O)N=c3nccc[nH]3)cc2)c(C)c1

>  <score_type>  (36) 
oracle

>  <origin>  (36) 
adgpu

>  <m_score__min__energy>  (36) 
-10.59

>  <m_primary>  (36) 
energy

$$$$
36:0
     RDKit          3D

 39 41  0  0  1  0  0  0  0  0999 V2000
   -0.0400   28.2740  -24.7370 C   0  0  0  0  0  0  0  0  0  0  0  0
   -0.7740   27.3230  -25.6350 C   0  0  0  0  0  0  0  0  0  0  0  0
   -0.3950   26.9250  -26.9130 C   0  0  0  0  0  0  0  0  0  0  0  0
   -1.3600   26.0430  -27.3680 C   0  0  0  0  0  0  0  0  0  0  0  0
   -1.4320   25.4280  -28.4770 N   0  0  0  0  0  0  0  0  0  0  0  0
   -2.4500   24.5380  -28.8770 C   0  0  0  0  0  0  0  0  0  0  0  0
   -2.5830   23.3700  -28.1160 C   0  0  0  0  0  0  0  0  0  0  0  0
   -3.5390   22.4230  -28.4050 C   0  0  0  0  0  0  0  0  0  0  0  0
   -4.3410   22.6860  -29.4650 N   0  0  0  0  0  0  0  0  0  0  0  0
   -4.1980   23.8120  -30.1810 C   0  0  0  0  0  0  0  0  0  0  0  0
   -4.9770   24.0550  -31.2000 N   0  0  0  0  0  0  0  0  0  0  0  0
   -5.9780   23.0990  -31.5290 C   0  0  0  0  0  0  0  0  0  0  0  0
   -7.2370   23.2470  -30.9530 C   0  0  0  0  0  0  0  0  0  0  0  0
   -8.2440   22.3500  -31.2340 C   0  0  0  0  0  0  0  0  0  0  0  0
   -7.9650   21.3110  -32.1000 C   0  0  0  0  0  0  0  0  0  0  0  0
   -9.0770   20.3480  -32.3920 C   0  0  0  0  0  0  0  0  0  0  0  0
   -6.7400   21.1230  -32.6940 C   0  0  0  0  0  0  0  0  0  0  0  0
   -6.5320   20.0350  -33.5690 N   0  0  0  0  0  0  0  0  0  0  0  0
   -5.7280   22.0360  -32.4010 C   0  0  0  0  0  0  0  0  0  0  0  0
   -3.2740   24.7520  -29.9190 N   0  0  0  0  0  0  0  0  0  0  0  0
   -2.2780   25.9250  -26.3870 N   0  0  0  0  0  0  0  0  0  0  0  0
   -1.9380   26.6820  -25.3550 N   0  0  0  0  0  0  0  0  0  0  0  0
   -0.2400   28.0149  -23.6868 H   0  0  0  0  0  0  0  0  0  0  0  0
    1.0401   28.2035  -24.9328 H   0  0  0  0  0  0  0  0  0  0  0  0
   -0.3819   29.3010  -24.9328 H   0  0  0  0  0  0  0  0  0  0  0  0
    0.5027   27.2501  -27.4593 H   0  0  0  0  0  0  0  0  0  0  0  0
   -1.9057   23.2051  -27.2650 H   0  0  0  0  0  0  0  0  0  0  0  0
   -3.6459   21.5046  -27.8092 H   0  0  0  0  0  0  0  0  0  0  0  0
   -5.0820   21.9620  -29.6960 H   0  0  0  0  0  0  0  0  0  0  0  0
   -7.4289   24.0864  -30.2685 H   0  0  0  0  0  0  0  0  0  0  0  0
   -9.2410   22.4581  -30.7819 H   0  0  0  0  0  0  0  0  0  0  0  0
   -9.5015   19.9804  -31.4461 H   0  0  0  0  0  0  0  0  0  0  0  0
   -9.8605   20.8576  -32.9720 H   0  0  0  0  0  0  0  0  0  0  0  0
   -8.6846   19.4997  -32.9720 H   0  0  0  0  0  0  0  0  0  0  0  0
   -5.6180   19.5490  -33.5770 H   0  0  0  0  0  0  0  0  0  0  0  0
   -7.2940   19.7030  -34.2240 H   0  0  0  0  0  0  0  0  0  0  0  0
   -4.7333   21.9197  -32.8560 H   0  0  0  0  0  0  0  0  0  0  0  0
   -3.1400   25.3370  -26.4030 H   0  0  0  0  0  0  0  0  0  0  0  0
   -2.4430   26.8030  -24.4500 H   0  0  0  0  0  0  0  0  0  0  0  0
  1  2  1  0
  2  3  2  0
  3  4  1  0
  4  5  2  0
  5  6  1  0
  6  7  1  0
  7  8  2  0
  8  9  1  0
  9 10  1  0
 10 11  2  0
 11 12  1  0
 12 13  2  0
 13 14  1  0
 14 15  2  0
 15 16  1  0
 15 17  1  0
 17 18  1  0
 17 19  2  0
 10 20  1  0
  4 21  1  0
 21 22  1  0
 22  2  1  0
 20  6  2  0
 19 12  1  0
  1 23  1  0
  1 24  1  0
  1 25  1  0
  3 26  1  0
  7 27  1  0
  8 28  1  0
  9 29  1  0
 13 30  1  0
 14 31  1  0
 16 32  1  0
 16 33  1  0
 16 34  1  0
 18 35  1  0
 18 36  1  0
 19 37  1  0
 21 38  1  0
 22 39  1  0
M  END
>  <smiles>  (37) 
Cc1cc(=Nc2cc[nH]c(=Nc3ccc(C)c(N)c3)n2)[nH][nH]1

>  <score_type>  (37) 
oracle

>  <origin>  (37) 
adgpu

>  <m_score__min__energy>  (37) 
-8.0999999999999996

>  <m_primary>  (37) 
energy

$$$$
37:0
     RDKit          3D

 51 53  0  0  0  0  0  0  0  0999 V2000
   -5.6350   25.5272  -31.3163 H   0  0  0  0  0  0  0  0  0  0  0  0
   -4.9230   24.8420  -30.8330 C   0  0  0  0  0  0  0  0  0  0  0  0
   -3.7640   25.2720  -30.2680 N   0  0  0  0  0  0  0  0  0  0  0  0
   -3.0670   24.2460  -29.7280 C   0  0  0  0  0  0  0  0  0  0  0  0
   -1.9320   24.3850  -29.1170 N   0  0  0  0  0  0  0  0  0  0  0  0
   -1.2610   25.6710  -28.9500 C   0  0  0  0  0  0  0  0  0  0  0  0
   -1.8682   26.4649  -29.4093 H   0  0  0  0  0  0  0  0  0  0  0  0
   -0.2752   25.6387  -29.4370 H   0  0  0  0  0  0  0  0  0  0  0  0
   -1.0900   25.9540  -27.4850 C   0  0  0  0  0  0  0  0  0  0  0  0
   -1.4420   24.9880  -26.5320 C   0  0  0  0  0  0  0  0  0  0  0  0
   -1.8171   24.0073  -26.8599 H   0  0  0  0  0  0  0  0  0  0  0  0
   -1.3190   25.2640  -25.1690 C   0  0  0  0  0  0  0  0  0  0  0  0
   -1.5853   24.4939  -24.4301 H   0  0  0  0  0  0  0  0  0  0  0  0
   -0.8580   26.5170  -24.7340 C   0  0  0  0  0  0  0  0  0  0  0  0
   -0.7460   26.7970  -23.2600 C   0  0  0  0  0  0  0  0  0  0  0  0
   -1.0961   25.9219  -22.6929 H   0  0  0  0  0  0  0  0  0  0  0  0
    0.3039   27.0034  -23.0047 H   0  0  0  0  0  0  0  0  0  0  0  0
   -1.3639   27.6705  -23.0047 H   0  0  0  0  0  0  0  0  0  0  0  0
   -0.4960   27.4920  -25.6910 C   0  0  0  0  0  0  0  0  0  0  0  0
    0.0000   28.7770  -25.2860 N   0  0  0  0  0  0  0  0  0  0  0  0
   -0.8850   29.9410  -25.3450 C   0  0  0  0  0  0  0  0  0  0  0  0
   -1.1320   30.2659  -24.3235 H   0  0  0  0  0  0  0  0  0  0  0  0
   -0.3791   30.7596  -25.8779 H   0  0  0  0  0  0  0  0  0  0  0  0
   -1.8091   29.6724  -25.8779 H   0  0  0  0  0  0  0  0  0  0  0  0
    1.3940   28.9380  -24.8750 C   0  0  0  0  0  0  0  0  0  0  0  0
    1.4540   28.9449  -23.7767 H   0  0  0  0  0  0  0  0  0  0  0  0
    1.9914   28.1029  -25.2696 H   0  0  0  0  0  0  0  0  0  0  0  0
    1.7853   29.8873  -25.2696 H   0  0  0  0  0  0  0  0  0  0  0  0
   -0.6290   27.2070  -27.0570 C   0  0  0  0  0  0  0  0  0  0  0  0
   -0.3690   27.9744  -27.8009 H   0  0  0  0  0  0  0  0  0  0  0  0
   -3.8480   22.7730  -29.9190 S   0  0  0  0  0  0  0  0  0  0  0  0
   -5.1420   23.4660  -30.7540 C   0  0  0  0  0  0  0  0  0  0  0  0
   -6.3510   22.7550  -31.2260 C   0  0  0  0  0  0  0  0  0  0  0  0
   -7.5600   23.4680  -31.3260 C   0  0  0  0  0  0  0  0  0  0  0  0
   -7.5768   24.5456  -31.1057 H   0  0  0  0  0  0  0  0  0  0  0  0
   -8.7380   22.8210  -31.7020 C   0  0  0  0  0  0  0  0  0  0  0  0
   -9.6779   23.3880  -31.7734 H   0  0  0  0  0  0  0  0  0  0  0  0
   -8.7240   21.4570  -31.9870 C   0  0  0  0  0  0  0  0  0  0  0  0
   -9.6551   20.9470  -32.2749 H   0  0  0  0  0  0  0  0  0  0  0  0
   -7.5320   20.7370  -31.9080 C   0  0  0  0  0  0  0  0  0  0  0  0
   -7.5285   19.6626  -32.1439 H   0  0  0  0  0  0  0  0  0  0  0  0
   -6.3350   21.3700  -31.5300 C   0  0  0  0  0  0  0  0  0  0  0  0
   -5.1010   20.6340  -31.5440 N   0  0  0  0  0  0  0  0  0  0  0  0
   -4.9340   19.8920  -30.8280 H   0  0  0  0  0  0  0  0  0  0  0  0
   -3.9120   20.8230  -32.7910 S   0  0  0  0  0  0  0  0  0  0  0  0
   -4.0850   22.1710  -33.4310 O   0  0  0  0  0  0  0  0  0  0  0  0
   -4.0900   19.7560  -33.8340 O   0  0  0  0  0  0  0  0  0  0  0  0
   -2.2760   20.7340  -32.0960 C   0  0  0  0  0  0  0  0  0  0  0  0
   -2.3433   20.7377  -30.9981 H   0  0  0  0  0  0  0  0  0  0  0  0
   -1.7855   19.8078  -32.4302 H   0  0  0  0  0  0  0  0  0  0  0  0
   -1.6880   21.6015  -32.4302 H   0  0  0  0  0  0  0  0  0  0  0  0
  1  2  1  0
  2  3  1  0
  3  4  1  0
  4  5  2  0
  5  6  1  0
  6  7  1  0
  6  8  1  0
  6  9  1  0
  9 10  2  0
 10 11  1  0
 10 12  1  0
 12 13  1  0
 12 14  2  0
 14 15  1  0
 15 16  1  0
 15 17  1  0
 15 18  1  0
 14 19  1  0
 19 20  1  0
 20 21  1  0
 21 22  1  0
 21 23  1  0
 21 24  1  0
 20 25  1  0
 25 26  1  0
 25 27  1  0
 25 28  1  0
 19 29  2  0
 29 30  1  0
  4 31  1  0
 31 32  1  0
 32 33  1  0
 33 34  2  0
 34 35  1  0
 34 36  1  0
 36 37  1  0
 36 38  2  0
 38 39  1  0
 38 40  1  0
 40 41  1  0
 40 42  2  0
 42 43  1  0
 43 44  1  0
 43 45  1  0
 45 46  2  0
 45 47  2  0
 45 48  1  0
 48 49  1  0
 48 50  1  0
 48 51  1  0
 32  2  2  0
 42 33  1  0
 29  9  1  0
M  CHG  1   3  -1
M  END
>  <UniqueID>  (38) 
34

>  <SMILES>  (38) 
Cc1ccc(C/N=c2\[n-]cc(-c3ccccc3NS(C)(=O)=O)s2)cc1N(C)C

>  <Energy>  (38) 
90.04521767996802

>  <Genealogy>  (38) 
Cc1ccc(CN=c2[n-]cc(-c3ccccc3NS(C)(=O)=O)s2)cc1N(C)C (protonated)
Cc1ccc(C/N=c2\[n-]cc(-c3ccccc3NS(C)(=O)=O)s2)cc1N(C)C (cis-trans isomerization)
Cc1ccc(C/N=c2\[n-]cc(-c3ccccc3NS(C)(=O)=O)s2)cc1N(C)C (3D coordinates assigned)
Cc1ccc(C/N=c2\[n-]cc(-c3ccccc3NS(C)(=O)=O)s2)cc1N(C)C (optimized conformer: 90.04521767996802 kcal/mol)

>  <smiles>  (38) 
Cc1ccc(CN=c2[nH]cc(-c3ccccc3NS(C)(=O)=O)s2)cc1N(C)C

>  <score_type>  (38) 
oracle

>  <origin>  (38) 
adgpu

>  <m_score__min__energy>  (38) 
-10.300000000000001

>  <m_primary>  (38) 
energy

$$$$
38:0
     RDKit          3D

 34 36  0  0  0  0  0  0  0  0999 V2000
   -1.0471   27.0085  -25.5255 H   0  0  0  0  0  0  0  0  0  0  0  0
   -1.4520   26.3030  -26.2660 C   0  0  0  0  0  0  0  0  0  0  0  0
   -0.8530   26.1900  -27.5240 C   0  0  0  0  0  0  0  0  0  0  0  0
    0.0176   26.8132  -27.7763 H   0  0  0  0  0  0  0  0  0  0  0  0
   -1.3600   25.2850  -28.4620 C   0  0  0  0  0  0  0  0  0  0  0  0
   -0.8980   25.2104  -29.4575 H   0  0  0  0  0  0  0  0  0  0  0  0
   -2.4590   24.4700  -28.1360 C   0  0  0  0  0  0  0  0  0  0  0  0
   -3.0360   23.5780  -29.1010 N   0  0  0  0  0  0  0  0  0  0  0  0
   -4.1810   23.7120  -29.7130 C   0  0  0  0  0  0  0  0  0  0  0  0
   -4.6060   22.7030  -30.5170 N   0  0  0  0  0  0  0  0  0  0  0  0
   -5.7780   22.7760  -31.2020 C   0  0  0  0  0  0  0  0  0  0  0  0
   -6.1920   21.6280  -32.0330 C   0  0  0  0  0  0  0  0  0  0  0  0
   -5.1290   20.7430  -32.9950 S   0  0  0  0  0  0  0  0  0  0  0  0
   -6.3250   19.7160  -33.5720 C   0  0  0  0  0  0  0  0  0  0  0  0
   -6.1090   18.6440  -34.5840 C   0  0  0  0  0  0  0  0  0  0  0  0
   -5.9167   17.6897  -34.0719 H   0  0  0  0  0  0  0  0  0  0  0  0
   -7.0059   18.5480  -35.2136 H   0  0  0  0  0  0  0  0  0  0  0  0
   -5.2450   18.9029  -35.2136 H   0  0  0  0  0  0  0  0  0  0  0  0
   -7.5400   20.0490  -33.0860 N   0  0  0  0  0  0  0  0  0  0  0  0
   -7.4820   21.1090  -32.2340 C   0  0  0  0  0  0  0  0  0  0  0  0
   -8.7320   21.6610  -31.6210 C   0  0  0  0  0  0  0  0  0  0  0  0
   -8.6497   21.6247  -30.5247 H   0  0  0  0  0  0  0  0  0  0  0  0
   -8.8694   22.7035  -31.9440 H   0  0  0  0  0  0  0  0  0  0  0  0
   -9.5950   21.0603  -31.9440 H   0  0  0  0  0  0  0  0  0  0  0  0
   -6.5830   23.9110  -31.0540 C   0  0  0  0  0  0  0  0  0  0  0  0
   -7.5538   23.9815  -31.5663 H   0  0  0  0  0  0  0  0  0  0  0  0
   -6.1290   24.9500  -30.2440 C   0  0  0  0  0  0  0  0  0  0  0  0
   -6.7373   25.8590  -30.1267 H   0  0  0  0  0  0  0  0  0  0  0  0
   -4.9390   24.8450  -29.5990 N   0  0  0  0  0  0  0  0  0  0  0  0
   -4.6180   25.6670  -29.0410 H   0  0  0  0  0  0  0  0  0  0  0  0
   -3.0750   24.6150  -26.8860 C   0  0  0  0  0  0  0  0  0  0  0  0
   -3.9634   24.0147  -26.6403 H   0  0  0  0  0  0  0  0  0  0  0  0
   -2.5650   25.5200  -25.9490 C   0  0  0  0  0  0  0  0  0  0  0  0
   -3.0407   25.6153  -24.9617 H   0  0  0  0  0  0  0  0  0  0  0  0
  1  2  1  0
  2  3  2  0
  3  4  1  0
  3  5  1  0
  5  6  1  0
  5  7  2  0
  7  8  1  0
  8  9  2  0
  9 10  1  0
 10 11  2  0
 11 12  1  0
 12 13  1  0
 13 14  1  0
 14 15  1  0
 15 16  1  0
 15 17  1  0
 15 18  1  0
 14 19  2  0
 19 20  1  0
 20 21  1  0
 21 22  1  0
 21 23  1  0
 21 24  1  0
 11 25  1  0
 25 26  1  0
 25 27  2  0
 27 28  1  0
 27 29  1  0
 29 30  1  0
  7 31  1  0
 31 32  1  0
 31 33  2  0
 33 34  1  0
 33  2  1  0
 29  9  1  0
 20 12  2  0
M  END
>  <UniqueID>  (39) 
35

>  <SMILES>  (39) 
Cc1nc(C)c(-c2cc[nH]/c(=N\c3ccccc3)n2)s1

>  <Energy>  (39) 
77.01752787455432

>  <Genealogy>  (39) 
Cc1nc(C)c(-c2cc[nH]/c(=N\c3ccccc3)n2)s1 (cis-trans isomerization)
Cc1nc(C)c(-c2cc[nH]/c(=N\c3ccccc3)n2)s1 (3D coordinates assigned)
Cc1nc(C)c(-c2cc[nH]/c(=N\c3ccccc3)n2)s1 (optimized conformer: 77.01752787455432 kcal/mol)

>  <smiles>  (39) 
Cc1nc(C)c(-c2cc[nH]c(=Nc3ccccc3)n2)s1

>  <score_type>  (39) 
oracle

>  <origin>  (39) 
adgpu

>  <m_score__min__energy>  (39) 
-7.7599999999999998

>  <m_primary>  (39) 
energy

$$$$
39:0
     RDKit          3D

 46 48  0  0  0  0  0  0  0  0999 V2000
   -6.7490   15.3890  -34.2140 C   0  0  0  0  0  0  0  0  0  0  0  0
   -5.8350   16.4590  -33.8430 N   0  0  0  0  0  0  0  0  0  0  0  0
   -6.1050   17.8340  -34.1220 C   0  0  0  0  0  0  0  0  0  0  0  0
   -5.5600   18.3950  -35.1120 O   0  0  0  0  0  0  0  0  0  0  0  0
   -7.0200   18.5910  -33.2480 C   0  0  0  0  0  0  0  0  0  0  0  0
   -7.0070   19.9960  -33.2230 C   0  0  0  0  0  0  0  0  0  0  0  0
   -7.9030   20.6850  -32.3890 C   0  0  0  0  0  0  0  0  0  0  0  0
   -7.9250   22.0870  -32.3180 O   0  0  0  0  0  0  0  0  0  0  0  0
   -6.9340   22.8800  -31.7250 C   0  0  0  0  0  0  0  0  0  0  0  0
   -5.5910   22.5250  -31.8960 C   0  0  0  0  0  0  0  0  0  0  0  0
   -4.5740   23.2970  -31.3250 C   0  0  0  0  0  0  0  0  0  0  0  0
   -4.8930   24.4210  -30.5400 C   0  0  0  0  0  0  0  0  0  0  0  0
   -3.8700   25.2540  -29.9670 N   0  0  0  0  0  0  0  0  0  0  0  0
   -2.7890   24.7660  -29.1570 C   0  0  0  0  0  0  0  0  0  0  0  0
   -2.9010   23.6730  -28.5410 O   0  0  0  0  0  0  0  0  0  0  0  0
   -1.6110   25.5550  -28.9560 N   0  0  0  0  0  0  0  0  0  0  0  0
   -0.8520   25.6380  -27.7400 C   0  0  0  0  0  0  0  0  0  0  0  0
   -1.2110   26.5240  -26.7060 C   0  0  0  0  0  0  0  0  0  0  0  0
   -0.4480   26.5900  -25.5310 C   0  0  0  0  0  0  0  0  0  0  0  0
   -0.8300   27.5500  -24.4430 C   0  0  0  0  0  0  0  0  0  0  0  0
    0.7090   25.8060  -25.4130 C   0  0  0  0  0  0  0  0  0  0  0  0
    1.0840   24.9470  -26.4480 C   0  0  0  0  0  0  0  0  0  0  0  0
    0.3110   24.8660  -27.6090 C   0  0  0  0  0  0  0  0  0  0  0  0
    0.6880   24.0270  -28.6060 F   0  0  0  0  0  0  0  0  0  0  0  0
   -6.2400   24.7680  -30.3620 C   0  0  0  0  0  0  0  0  0  0  0  0
   -7.2540   23.9990  -30.9380 C   0  0  0  0  0  0  0  0  0  0  0  0
   -8.7720   19.9560  -31.5730 C   0  0  0  0  0  0  0  0  0  0  0  0
   -8.7560   18.5620  -31.6210 C   0  0  0  0  0  0  0  0  0  0  0  0
   -7.8930   17.9170  -32.4500 N   0  0  0  0  0  0  0  0  0  0  0  0
   -7.1510   14.9184  -33.3046 H   0  0  0  0  0  0  0  0  0  0  0  0
   -7.5763   15.8033  -34.8089 H   0  0  0  0  0  0  0  0  0  0  0  0
   -6.2105   14.6366  -34.8089 H   0  0  0  0  0  0  0  0  0  0  0  0
   -6.2986   20.5535  -33.8534 H   0  0  0  0  0  0  0  0  0  0  0  0
   -5.3333   21.6318  -32.4841 H   0  0  0  0  0  0  0  0  0  0  0  0
   -3.5211   23.0248  -31.4900 H   0  0  0  0  0  0  0  0  0  0  0  0
   -3.9520   26.2880  -30.0910 H   0  0  0  0  0  0  0  0  0  0  0  0
   -2.0952   27.1682  -26.8205 H   0  0  0  0  0  0  0  0  0  0  0  0
   -0.6453   27.0859  -23.4630 H   0  0  0  0  0  0  0  0  0  0  0  0
   -0.2279   28.4660  -24.5342 H   0  0  0  0  0  0  0  0  0  0  0  0
   -1.8969   27.8019  -24.5342 H   0  0  0  0  0  0  0  0  0  0  0  0
    1.3229   25.8680  -24.5023 H   0  0  0  0  0  0  0  0  0  0  0  0
    1.9908   24.3322  -26.3490 H   0  0  0  0  0  0  0  0  0  0  0  0
   -6.5004   25.6535  -29.7636 H   0  0  0  0  0  0  0  0  0  0  0  0
   -8.3073   24.2707  -30.7747 H   0  0  0  0  0  0  0  0  0  0  0  0
   -9.4647   20.4783  -30.8967 H   0  0  0  0  0  0  0  0  0  0  0  0
   -9.4434   17.9832  -30.9865 H   0  0  0  0  0  0  0  0  0  0  0  0
  1  2  1  0
  2  3  1  0
  3  4  2  0
  3  5  1  0
  5  6  2  0
  6  7  1  0
  7  8  1  0
  8  9  1  0
  9 10  2  0
 10 11  1  0
 11 12  2  0
 12 13  1  0
 13 14  1  0
 14 15  2  0
 14 16  1  0
 16 17  1  0
 17 18  2  0
 18 19  1  0
 19 20  1  0
 19 21  2  0
 21 22  1  0
 22 23  2  0
 23 24  1  0
 12 25  1  0
 25 26  2  0
  7 27  2  0
 27 28  1  0
 28 29  2  0
 29  5  1  0
 26  9  1  0
 23 17  1  0
  1 30  1  0
  1 31  1  0
  1 32  1  0
  6 33  1  0
 10 34  1  0
 11 35  1  0
 13 36  1  0
 18 37  1  0
 20 38  1  0
 20 39  1  0
 20 40  1  0
 21 41  1  0
 22 42  1  0
 25 43  1  0
 26 44  1  0
 27 45  1  0
 28 46  1  0
M  CHG  2   2  -1  16  -1
M  END
>  <UniqueID>  (40) 
36

>  <SMILES>  (40) 
C[N-]C(=O)c1cc(Oc2ccc(NC(=O)[N-]c3cc(C)ccc3F)cc2)ccn1

>  <Energy>  (40) 
59.04210906430348

>  <Genealogy>  (40) 
C[N-]C(=O)c1cc(Oc2ccc(NC(=O)[N-]c3cc(C)ccc3F)cc2)ccn1 (protonated)
C[N-]C(=O)c1cc(Oc2ccc(NC(=O)[N-]c3cc(C)ccc3F)cc2)ccn1 (3D coordinates assigned)
C[N-]C(=O)c1cc(Oc2ccc(NC(=O)[N-]c3cc(C)ccc3F)cc2)ccn1 (optimized conformer: 59.04210906430348 kcal/mol)

>  <smiles>  (40) 
CNC(=O)c1cc(Oc2ccc(NC(=O)Nc3cc(C)ccc3F)cc2)ccn1

>  <score_type>  (40) 
oracle

>  <origin>  (40) 
adgpu

>  <m_score__min__energy>  (40) 
-10.41

>  <m_primary>  (40) 
energy

$$$$
40:0
     RDKit          3D

 46 48  0  0  0  0  0  0  0  0999 V2000
    0.0740   18.1430  -27.8800 C   0  0  0  0  0  0  0  0  0  0  0  0
   -1.2220   18.7270  -27.8260 O   0  0  0  0  0  0  0  0  0  0  0  0
   -1.4970   20.0800  -28.0750 C   0  0  0  0  0  0  0  0  0  0  0  0
   -2.7320   20.6670  -27.7520 C   0  0  0  0  0  0  0  0  0  0  0  0
   -2.9470   22.0300  -27.9770 C   0  0  0  0  0  0  0  0  0  0  0  0
   -1.9380   22.8200  -28.5380 C   0  0  0  0  0  0  0  0  0  0  0  0
   -2.1810   24.5570  -28.6920 S   0  0  0  0  0  0  0  0  0  0  0  0
   -2.8910   25.1010  -27.4940 O   0  0  0  0  0  0  0  0  0  0  0  0
   -0.8440   25.2170  -28.8200 O   0  0  0  0  0  0  0  0  0  0  0  0
   -3.1190   24.9010  -30.1140 N   0  0  0  0  0  0  0  0  0  0  0  0
   -4.5140   24.5810  -30.2790 C   0  0  0  0  0  0  0  0  0  0  0  0
   -5.5210   25.3700  -29.6850 C   0  0  0  0  0  0  0  0  0  0  0  0
   -6.8590   24.9940  -29.7710 C   0  0  0  0  0  0  0  0  0  0  0  0
   -7.2150   23.8370  -30.4640 C   0  0  0  0  0  0  0  0  0  0  0  0
   -6.2370   23.0650  -31.0940 C   0  0  0  0  0  0  0  0  0  0  0  0
   -4.8830   23.4350  -31.0200 C   0  0  0  0  0  0  0  0  0  0  0  0
   -3.8720   22.6330  -31.7480 C   0  0  0  0  0  0  0  0  0  0  0  0
   -2.6790   22.6210  -31.3420 O   0  0  0  0  0  0  0  0  0  0  0  0
   -4.1950   21.9410  -32.9610 N   0  0  0  0  0  0  0  0  0  0  0  0
   -4.8960   20.6940  -33.0470 C   0  0  0  0  0  0  0  0  0  0  0  0
   -4.1980   19.5530  -33.4560 C   0  0  0  0  0  0  0  0  0  0  0  0
   -4.8440   18.3190  -33.5100 C   0  0  0  0  0  0  0  0  0  0  0  0
   -6.1840   18.2120  -33.1250 C   0  0  0  0  0  0  0  0  0  0  0  0
   -6.8890   19.3350  -32.6720 C   0  0  0  0  0  0  0  0  0  0  0  0
   -8.3300   19.2300  -32.2450 C   0  0  0  0  0  0  0  0  0  0  0  0
   -9.1380   19.7880  -33.2190 F   0  0  0  0  0  0  0  0  0  0  0  0
   -8.7040   17.9100  -32.0560 F   0  0  0  0  0  0  0  0  0  0  0  0
   -8.5200   19.9100  -31.0520 F   0  0  0  0  0  0  0  0  0  0  0  0
   -6.2420   20.5810  -32.6570 C   0  0  0  0  0  0  0  0  0  0  0  0
   -0.7200   22.2300  -28.8940 C   0  0  0  0  0  0  0  0  0  0  0  0
   -0.5010   20.8690  -28.6580 C   0  0  0  0  0  0  0  0  0  0  0  0
    0.4439   17.9763  -26.8576 H   0  0  0  0  0  0  0  0  0  0  0  0
    0.0211   17.1817  -28.4121 H   0  0  0  0  0  0  0  0  0  0  0  0
    0.7591   18.8194  -28.4121 H   0  0  0  0  0  0  0  0  0  0  0  0
   -3.5341   20.0508  -27.3197 H   0  0  0  0  0  0  0  0  0  0  0  0
   -3.9136   22.4831  -27.7118 H   0  0  0  0  0  0  0  0  0  0  0  0
   -5.2469   26.2906  -29.1490 H   0  0  0  0  0  0  0  0  0  0  0  0
   -7.6351   25.6093  -29.2925 H   0  0  0  0  0  0  0  0  0  0  0  0
   -8.2705   23.5316  -30.5144 H   0  0  0  0  0  0  0  0  0  0  0  0
   -6.5277   22.1623  -31.6513 H   0  0  0  0  0  0  0  0  0  0  0  0
   -3.1369   19.6296  -33.7357 H   0  0  0  0  0  0  0  0  0  0  0  0
   -4.2990   17.4283  -33.8559 H   0  0  0  0  0  0  0  0  0  0  0  0
   -6.6897   17.2366  -33.1783 H   0  0  0  0  0  0  0  0  0  0  0  0
   -6.7935   21.4774  -32.3370 H   0  0  0  0  0  0  0  0  0  0  0  0
    0.0680   22.8389  -29.3612 H   0  0  0  0  0  0  0  0  0  0  0  0
    0.4627   20.4157  -28.9333 H   0  0  0  0  0  0  0  0  0  0  0  0
  1  2  1  0
  2  3  1  0
  3  4  2  0
  4  5  1  0
  5  6  2  0
  6  7  1  0
  7  8  2  0
  7  9  2  0
  7 10  1  0
 10 11  1  0
 11 12  2  0
 12 13  1  0
 13 14  2  0
 14 15  1  0
 15 16  2  0
 16 17  1  0
 17 18  2  0
 17 19  1  0
 19 20  1  0
 20 21  2  0
 21 22  1  0
 22 23  2  0
 23 24  1  0
 24 25  1  0
 25 26  1  0
 25 27  1  0
 25 28  1  0
 24 29  2  0
  6 30  1  0
 30 31  2  0
 31  3  1  0
 16 11  1  0
 29 20  1  0
  1 32  1  0
  1 33  1  0
  1 34  1  0
  4 35  1  0
  5 36  1  0
 12 37  1  0
 13 38  1  0
 14 39  1  0
 15 40  1  0
 21 41  1  0
 22 42  1  0
 23 43  1  0
 29 44  1  0
 30 45  1  0
 31 46  1  0
M  CHG  2  10  -1  19  -1
M  END
>  <UniqueID>  (41) 
37

>  <SMILES>  (41) 
COc1ccc(S(=O)(=O)[N-]c2ccccc2C(=O)[N-]c2cccc(C(F)(F)F)c2)cc1

>  <Energy>  (41) 
59.16100088269513

>  <Genealogy>  (41) 
COc1ccc(S(=O)(=O)[N-]c2ccccc2C(=O)[N-]c2cccc(C(F)(F)F)c2)cc1 (protonated)
COc1ccc(S(=O)(=O)[N-]c2ccccc2C(=O)[N-]c2cccc(C(F)(F)F)c2)cc1 (3D coordinates assigned)
COc1ccc(S(=O)(=O)[N-]c2ccccc2C(=O)[N-]c2cccc(C(F)(F)F)c2)cc1 (optimized conformer: 59.16100088269513 kcal/mol)

>  <smiles>  (41) 
COc1ccc(S(=O)(=O)Nc2ccccc2C(=O)Nc2cccc(C(F)(F)F)c2)cc1

>  <score_type>  (41) 
oracle

>  <origin>  (41) 
adgpu

>  <m_score__min__energy>  (41) 
-10.539999999999999

>  <m_primary>  (41) 
energy

$$$$
41:0
     RDKit          3D

 51 53  0  0  0  0  0  0  0  0999 V2000
   -8.2370   18.9440  -32.9580 N   0  0  0  0  0  0  0  0  0  0  0  0
   -7.1200   19.7780  -33.2570 C   0  0  0  0  0  0  0  0  0  0  0  0
   -6.3420   19.4490  -34.1930 O   0  0  0  0  0  0  0  0  0  0  0  0
   -6.8740   21.0170  -32.4810 C   0  0  0  0  0  0  0  0  0  0  0  0
   -7.8230   21.4770  -31.5520 C   0  0  0  0  0  0  0  0  0  0  0  0
   -7.5900   22.6450  -30.8200 C   0  0  0  0  0  0  0  0  0  0  0  0
   -6.4190   23.3840  -31.0140 C   0  0  0  0  0  0  0  0  0  0  0  0
   -6.2120   24.5650  -30.2250 N   0  0  0  0  0  0  0  0  0  0  0  0
   -5.2100   25.5690  -30.4360 C   0  0  0  0  0  0  0  0  0  0  0  0
   -5.5330   26.7830  -30.5260 O   0  0  0  0  0  0  0  0  0  0  0  0
   -3.8220   25.2220  -30.4360 N   0  0  0  0  0  0  0  0  0  0  0  0
   -3.1770   24.3190  -29.5230 C   0  0  0  0  0  0  0  0  0  0  0  0
   -3.6280   23.0080  -29.3510 C   0  0  0  0  0  0  0  0  0  0  0  0
   -2.9780   22.1490  -28.4710 C   0  0  0  0  0  0  0  0  0  0  0  0
   -1.8390   22.5630  -27.7490 C   0  0  0  0  0  0  0  0  0  0  0  0
   -1.2100   21.5830  -26.7760 C   0  0  0  0  0  0  0  0  0  0  0  0
    0.1050   21.3490  -27.1320 F   0  0  0  0  0  0  0  0  0  0  0  0
   -1.9200   20.3970  -26.7690 F   0  0  0  0  0  0  0  0  0  0  0  0
   -1.2050   22.0690  -25.4790 F   0  0  0  0  0  0  0  0  0  0  0  0
   -1.3430   23.8880  -27.9560 C   0  0  0  0  0  0  0  0  0  0  0  0
    0.1300   24.5460  -27.1810 S   0  0  0  0  0  0  0  0  0  0  0  0
    1.2760   24.7320  -28.1320 O   0  0  0  0  0  0  0  0  0  0  0  0
    0.5690   23.5820  -26.1140 O   0  0  0  0  0  0  0  0  0  0  0  0
   -0.2430   26.1310  -26.4170 C   0  0  0  0  0  0  0  0  0  0  0  0
    1.0380   26.7560  -25.8170 C   0  0  0  0  0  0  0  0  0  0  0  0
    0.6980   27.8060  -24.7550 C   0  0  0  0  0  0  0  0  0  0  0  0
   -0.0620   27.1830  -23.5650 C   0  0  0  0  0  0  0  0  0  0  0  0
   -0.8710   25.9260  -23.9420 C   0  0  0  0  0  0  0  0  0  0  0  0
   -1.3920   26.0000  -25.3810 C   0  0  0  0  0  0  0  0  0  0  0  0
   -2.0310   24.7460  -28.8430 C   0  0  0  0  0  0  0  0  0  0  0  0
   -1.5810   26.0470  -29.0530 O   0  0  0  0  0  0  0  0  0  0  0  0
   -5.4560   22.9170  -31.9240 C   0  0  0  0  0  0  0  0  0  0  0  0
   -5.6850   21.7480  -32.6560 C   0  0  0  0  0  0  0  0  0  0  0  0
   -9.1140   18.9960  -33.5230 H   0  0  0  0  0  0  0  0  0  0  0  0
   -8.7557   20.9140  -31.3998 H   0  0  0  0  0  0  0  0  0  0  0  0
   -8.3343   22.9856  -30.0851 H   0  0  0  0  0  0  0  0  0  0  0  0
   -4.5029   22.6527  -29.9152 H   0  0  0  0  0  0  0  0  0  0  0  0
   -3.3598   21.1263  -28.3354 H   0  0  0  0  0  0  0  0  0  0  0  0
   -0.6066   26.8214  -27.1923 H   0  0  0  0  0  0  0  0  0  0  0  0
    1.6423   25.9614  -25.3551 H   0  0  0  0  0  0  0  0  0  0  0  0
    1.5971   27.2482  -26.6265 H   0  0  0  0  0  0  0  0  0  0  0  0
    1.6314   28.2565  -24.3864 H   0  0  0  0  0  0  0  0  0  0  0  0
    0.0512   28.5665  -25.2169 H   0  0  0  0  0  0  0  0  0  0  0  0
    0.6692   26.9072  -22.7909 H   0  0  0  0  0  0  0  0  0  0  0  0
   -0.7810   27.9362  -23.2104 H   0  0  0  0  0  0  0  0  0  0  0  0
   -0.2241   25.0420  -23.8418 H   0  0  0  0  0  0  0  0  0  0  0  0
   -1.7364   25.8588  -23.2662 H   0  0  0  0  0  0  0  0  0  0  0  0
   -1.9619   25.0846  -25.5985 H   0  0  0  0  0  0  0  0  0  0  0  0
   -2.0245   26.8961  -25.4645 H   0  0  0  0  0  0  0  0  0  0  0  0
   -4.5173   23.4737  -32.0613 H   0  0  0  0  0  0  0  0  0  0  0  0
   -4.9295   21.3972  -33.3744 H   0  0  0  0  0  0  0  0  0  0  0  0
  1  2  1  0
  2  3  2  0
  2  4  1  0
  4  5  2  0
  5  6  1  0
  6  7  2  0
  7  8  1  0
  8  9  1  0
  9 10  2  0
  9 11  1  0
 11 12  1  0
 12 13  2  0
 13 14  1  0
 14 15  2  0
 15 16  1  0
 16 17  1  0
 16 18  1  0
 16 19  1  0
 15 20  1  0
 20 21  1  0
 21 22  2  0
 21 23  2  0
 21 24  1  0
 24 25  1  0
 25 26  1  0
 26 27  1  0
 27 28  1  0
 28 29  1  0
 20 30  2  0
 30 31  1  0
  7 32  1  0
 32 33  2  0
 33  4  1  0
 30 12  1  0
 29 24  1  0
  1 34  1  0
  5 35  1  0
  6 36  1  0
 13 37  1  0
 14 38  1  0
 24 39  1  0
 25 40  1  0
 25 41  1  0
 26 42  1  0
 26 43  1  0
 27 44  1  0
 27 45  1  0
 28 46  1  0
 28 47  1  0
 29 48  1  0
 29 49  1  0
 32 50  1  0
 33 51  1  0
M  CHG  4   1  -1   8  -1  11  -1  31  -1
M  END
>  <UniqueID>  (42) 
38

>  <SMILES>  (42) 
[NH-]C(=O)c1ccc([N-]C(=O)[N-]c2ccc(C(F)(F)F)c(S(=O)(=O)C3CCCCC3)c2[O-])cc1

>  <Energy>  (42) 
67.54659033850534

>  <Genealogy>  (42) 
[NH-]C(=O)c1ccc([N-]C(=O)[N-]c2ccc(C(F)(F)F)c(S(=O)(=O)C3CCCCC3)c2[O-])cc1 (protonated)
[NH-]C(=O)c1ccc([N-]C(=O)[N-]c2ccc(C(F)(F)F)c(S(=O)(=O)C3CCCCC3)c2[O-])cc1 (3D coordinates assigned)
[NH-]C(=O)c1ccc([N-]C(=O)[N-]c2ccc(C(F)(F)F)c(S(=O)(=O)C3CCCCC3)c2[O-])cc1 (nonaromatic ring conformer: 67.54659033850534 kcal/mol)

>  <smiles>  (42) 
NC(=O)c1ccc(NC(=O)Nc2ccc(C(F)(F)F)c(S(=O)(=O)C3CCCCC3)c2O)cc1

>  <score_type>  (42) 
oracle

>  <origin>  (42) 
adgpu

>  <m_score__min__energy>  (42) 
-15.449999999999999

>  <m_primary>  (42) 
energy

$$$$
42:0
     RDKit          3D

 34 36  0  0  0  0  0  0  0  0999 V2000
   -6.4760   17.4860  -31.1880 C   0  0  0  0  0  0  0  0  0  0  0  0
   -6.2370   17.9820  -32.5780 C   0  0  0  0  0  0  0  0  0  0  0  0
   -5.7210   17.2410  -33.5320 O   0  0  0  0  0  0  0  0  0  0  0  0
   -5.6240   17.9650  -34.6250 C   0  0  0  0  0  0  0  0  0  0  0  0
   -6.0940   19.2420  -34.3860 C   0  0  0  0  0  0  0  0  0  0  0  0
   -6.4960   19.2520  -33.0660 C   0  0  0  0  0  0  0  0  0  0  0  0
   -7.0640   20.4040  -32.3460 C   0  0  0  0  0  0  0  0  0  0  0  0
   -8.3560   20.7740  -32.4340 N   0  0  0  0  0  0  0  0  0  0  0  0
   -8.4940   21.8510  -31.6790 N   0  0  0  0  0  0  0  0  0  0  0  0
   -7.2830   22.1020  -31.1530 C   0  0  0  0  0  0  0  0  0  0  0  0
   -6.9360   23.4850  -30.0690 S   0  0  0  0  0  0  0  0  0  0  0  0
   -6.0720   24.4650  -31.3470 C   0  0  0  0  0  0  0  0  0  0  0  0
   -5.0650   25.3800  -30.7240 C   0  0  0  0  0  0  0  0  0  0  0  0
   -5.3840   26.5700  -30.4530 O   0  0  0  0  0  0  0  0  0  0  0  0
   -3.7270   24.9190  -30.5060 N   0  0  0  0  0  0  0  0  0  0  0  0
   -3.3890   23.5700  -30.1640 C   0  0  0  0  0  0  0  0  0  0  0  0
   -3.1050   22.6670  -31.1960 C   0  0  0  0  0  0  0  0  0  0  0  0
   -2.7500   21.3490  -30.9040 C   0  0  0  0  0  0  0  0  0  0  0  0
   -2.6960   20.9160  -29.5760 C   0  0  0  0  0  0  0  0  0  0  0  0
   -3.0120   21.7990  -28.5410 C   0  0  0  0  0  0  0  0  0  0  0  0
   -3.3660   23.1250  -28.8240 C   0  0  0  0  0  0  0  0  0  0  0  0
   -3.8540   24.1660  -27.4930 Cl  0  0  0  0  0  0  0  0  0  0  0  0
   -6.3500   21.2150  -31.5420 N   0  0  0  0  0  0  0  0  0  0  0  0
   -6.1161   18.2330  -30.4652 H   0  0  0  0  0  0  0  0  0  0  0  0
   -7.5530   17.3199  -31.0381 H   0  0  0  0  0  0  0  0  0  0  0  0
   -5.9348   16.5402  -31.0381 H   0  0  0  0  0  0  0  0  0  0  0  0
   -5.2276   17.6073  -35.5867 H   0  0  0  0  0  0  0  0  0  0  0  0
   -6.1385   20.0776  -35.1000 H   0  0  0  0  0  0  0  0  0  0  0  0
   -5.5587   23.7818  -32.0397 H   0  0  0  0  0  0  0  0  0  0  0  0
   -6.8134   25.0719  -31.8873 H   0  0  0  0  0  0  0  0  0  0  0  0
   -3.1620   22.9984  -32.2433 H   0  0  0  0  0  0  0  0  0  0  0  0
   -2.5125   20.6504  -31.7198 H   0  0  0  0  0  0  0  0  0  0  0  0
   -2.4048   19.8804  -29.3462 H   0  0  0  0  0  0  0  0  0  0  0  0
   -2.9828   21.4515  -27.4977 H   0  0  0  0  0  0  0  0  0  0  0  0
  1  2  1  0
  2  3  1  0
  3  4  1  0
  4  5  2  0
  5  6  1  0
  6  7  1  0
  7  8  2  0
  8  9  1  0
  9 10  1  0
 10 11  1  0
 11 12  1  0
 12 13  1  0
 13 14  2  0
 13 15  1  0
 15 16  1  0
 16 17  2  0
 17 18  1  0
 18 19  2  0
 19 20  1  0
 20 21  2  0
 21 22  1  0
 10 23  2  0
  6  2  2  0
 23  7  1  0
 21 16  1  0
  1 24  1  0
  1 25  1  0
  1 26  1  0
  4 27  1  0
  5 28  1  0
 12 29  1  0
 12 30  1  0
 17 31  1  0
 18 32  1  0
 19 33  1  0
 20 34  1  0
M  CHG  2   9  -1  15  -1
M  END
>  <UniqueID>  (43) 
39

>  <SMILES>  (43) 
Cc1occc1-c1n[n-]c(SCC(=O)[N-]c2ccccc2Cl)n1

>  <Energy>  (43) 
93.82396916161325

>  <Genealogy>  (43) 
Cc1occc1-c1n[n-]c(SCC(=O)[N-]c2ccccc2Cl)n1 (protonated)
Cc1occc1-c1n[n-]c(SCC(=O)[N-]c2ccccc2Cl)n1 (3D coordinates assigned)
Cc1occc1-c1n[n-]c(SCC(=O)[N-]c2ccccc2Cl)n1 (optimized conformer: 93.82396916161325 kcal/mol)

>  <smiles>  (43) 
Cc1occc1-c1n[nH]c(SCC(=O)Nc2ccccc2Cl)n1

>  <score_type>  (43) 
oracle

>  <origin>  (43) 
adgpu

>  <m_score__min__energy>  (43) 
-10.15

>  <m_primary>  (43) 
energy

$$$$
43:0
     RDKit          3D

 46 48  0  0  0  0  0  0  0  0999 V2000
   -3.5400   24.1670  -27.4960 C   0  0  0  0  0  0  0  0  0  0  0  0
   -2.5810   24.5810  -28.6100 C   0  0  0  0  0  0  0  0  0  0  0  0
   -3.2970   25.1310  -29.7160 O   0  0  0  0  0  0  0  0  0  0  0  0
   -4.4270   24.5540  -30.3180 C   0  0  0  0  0  0  0  0  0  0  0  0
   -4.3420   23.4750  -31.2190 C   0  0  0  0  0  0  0  0  0  0  0  0
   -5.4970   22.9530  -31.8050 C   0  0  0  0  0  0  0  0  0  0  0  0
   -6.7540   23.5090  -31.5200 C   0  0  0  0  0  0  0  0  0  0  0  0
   -7.9570   23.0280  -32.1330 N   0  0  0  0  0  0  0  0  0  0  0  0
   -8.8650   21.6530  -31.5870 S   0  0  0  0  0  0  0  0  0  0  0  0
   -9.1350   21.7540  -30.1120 O   0  0  0  0  0  0  0  0  0  0  0  0
  -10.1850   21.6230  -32.3040 O   0  0  0  0  0  0  0  0  0  0  0  0
   -7.9710   20.1820  -31.9690 C   0  0  0  0  0  0  0  0  0  0  0  0
   -8.6370   18.9520  -31.9850 C   0  0  0  0  0  0  0  0  0  0  0  0
   -7.9570   17.7920  -32.3610 C   0  0  0  0  0  0  0  0  0  0  0  0
   -6.6140   17.8540  -32.7440 C   0  0  0  0  0  0  0  0  0  0  0  0
   -5.9280   19.0800  -32.7330 C   0  0  0  0  0  0  0  0  0  0  0  0
   -4.5170   19.1660  -33.1860 C   0  0  0  0  0  0  0  0  0  0  0  0
   -3.8470   18.1060  -33.3380 O   0  0  0  0  0  0  0  0  0  0  0  0
   -3.9120   20.4350  -33.4840 N   0  0  0  0  0  0  0  0  0  0  0  0
   -2.4920   20.6610  -33.4530 C   0  0  0  0  0  0  0  0  0  0  0  0
   -1.6480   20.1800  -34.4690 C   0  0  0  0  0  0  0  0  0  0  0  0
   -0.2730   20.3950  -34.3930 C   0  0  0  0  0  0  0  0  0  0  0  0
    0.2530   21.0850  -33.3000 C   0  0  0  0  0  0  0  0  0  0  0  0
   -0.5700   21.5290  -32.3150 N   0  0  0  0  0  0  0  0  0  0  0  0
   -1.9140   21.3270  -32.3630 C   0  0  0  0  0  0  0  0  0  0  0  0
   -6.6170   20.2410  -32.3320 C   0  0  0  0  0  0  0  0  0  0  0  0
   -6.8420   24.5600  -30.5970 C   0  0  0  0  0  0  0  0  0  0  0  0
   -5.6880   25.0760  -30.0020 C   0  0  0  0  0  0  0  0  0  0  0  0
   -3.0757   24.3674  -26.5192 H   0  0  0  0  0  0  0  0  0  0  0  0
   -4.4735   24.7423  -27.5832 H   0  0  0  0  0  0  0  0  0  0  0  0
   -3.7616   23.0931  -27.5832 H   0  0  0  0  0  0  0  0  0  0  0  0
   -1.8814   25.3359  -28.2218 H   0  0  0  0  0  0  0  0  0  0  0  0
   -2.0323   23.6911  -28.9522 H   0  0  0  0  0  0  0  0  0  0  0  0
   -3.3609   23.0412  -31.4624 H   0  0  0  0  0  0  0  0  0  0  0  0
   -5.4213   22.0997  -32.4951 H   0  0  0  0  0  0  0  0  0  0  0  0
   -9.6983   18.8986  -31.7009 H   0  0  0  0  0  0  0  0  0  0  0  0
   -8.4806   16.8246  -32.3558 H   0  0  0  0  0  0  0  0  0  0  0  0
   -6.0914   16.9377  -33.0558 H   0  0  0  0  0  0  0  0  0  0  0  0
   -4.5220   21.2000  -33.8520 H   0  0  0  0  0  0  0  0  0  0  0  0
   -2.0728   19.6338  -35.3242 H   0  0  0  0  0  0  0  0  0  0  0  0
    0.3915   20.0242  -35.1873 H   0  0  0  0  0  0  0  0  0  0  0  0
    1.3355   21.2695  -33.2361 H   0  0  0  0  0  0  0  0  0  0  0  0
   -2.5511   21.6881  -31.5422 H   0  0  0  0  0  0  0  0  0  0  0  0
   -6.0877   21.2048  -32.3031 H   0  0  0  0  0  0  0  0  0  0  0  0
   -7.8251   24.9810  -30.3396 H   0  0  0  0  0  0  0  0  0  0  0  0
   -5.7704   25.9003  -29.2783 H   0  0  0  0  0  0  0  0  0  0  0  0
  1  2  1  0
  2  3  1  0
  3  4  1  0
  4  5  2  0
  5  6  1  0
  6  7  2  0
  7  8  1  0
  8  9  1  0
  9 10  2  0
  9 11  2  0
  9 12  1  0
 12 13  2  0
 13 14  1  0
 14 15  2  0
 15 16  1  0
 16 17  1  0
 17 18  2  0
 17 19  1  0
 19 20  1  0
 20 21  2  0
 21 22  1  0
 22 23  2  0
 23 24  1  0
 24 25  2  0
 16 26  2  0
  7 27  1  0
 27 28  2  0
 28  4  1  0
 26 12  1  0
 25 20  1  0
  1 29  1  0
  1 30  1  0
  1 31  1  0
  2 32  1  0
  2 33  1  0
  5 34  1  0
  6 35  1  0
 13 36  1  0
 14 37  1  0
 15 38  1  0
 19 39  1  0
 21 40  1  0
 22 41  1  0
 23 42  1  0
 25 43  1  0
 26 44  1  0
 27 45  1  0
 28 46  1  0
M  CHG  1   8  -1
M  END
>  <UniqueID>  (44) 
40

>  <SMILES>  (44) 
CCOc1ccc([N-]S(=O)(=O)c2cccc(C(=O)Nc3cccnc3)c2)cc1

>  <Energy>  (44) 
56.95599664594956

>  <Genealogy>  (44) 
CCOc1ccc([N-]S(=O)(=O)c2cccc(C(=O)Nc3cccnc3)c2)cc1 (protonated)
CCOc1ccc([N-]S(=O)(=O)c2cccc(C(=O)Nc3cccnc3)c2)cc1 (3D coordinates assigned)
CCOc1ccc([N-]S(=O)(=O)c2cccc(C(=O)Nc3cccnc3)c2)cc1 (optimized conformer: 56.95599664594956 kcal/mol)

>  <smiles>  (44) 
CCOc1ccc(NS(=O)(=O)c2cccc(C(=O)Nc3cccnc3)c2)cc1

>  <score_type>  (44) 
oracle

>  <origin>  (44) 
adgpu

>  <m_score__min__energy>  (44) 
-9.7100000000000009

>  <m_primary>  (44) 
energy

$$$$
44:0
     RDKit          3D

 37 39  0  0  0  0  0  0  0  0999 V2000
   -4.7150   17.4400  -35.8060 O   0  0  0  0  0  0  0  0  0  0  0  0
   -4.5420   17.2950  -34.3200 S   0  0  0  0  0  0  0  0  0  0  0  0
   -4.9640   15.9130  -33.9090 O   0  0  0  0  0  0  0  0  0  0  0  0
   -2.8680   17.5210  -33.9210 N   0  0  0  0  0  0  0  0  0  0  0  0
   -2.3330   18.6800  -33.6820 C   0  0  0  0  0  0  0  0  0  0  0  0
   -0.9730   18.7610  -33.3610 C   0  0  0  0  0  0  0  0  0  0  0  0
   -0.4030   20.0090  -33.0990 C   0  0  0  0  0  0  0  0  0  0  0  0
   -1.1900   21.1590  -33.1590 C   0  0  0  0  0  0  0  0  0  0  0  0
   -2.5440   21.0430  -33.4820 C   0  0  0  0  0  0  0  0  0  0  0  0
   -3.0800   19.8200  -33.7340 N   0  0  0  0  0  0  0  0  0  0  0  0
   -5.5280   18.4740  -33.4630 C   0  0  0  0  0  0  0  0  0  0  0  0
   -5.7800   18.3290  -32.0900 C   0  0  0  0  0  0  0  0  0  0  0  0
   -6.5690   19.2660  -31.4170 C   0  0  0  0  0  0  0  0  0  0  0  0
   -7.1060   20.3570  -32.1100 C   0  0  0  0  0  0  0  0  0  0  0  0
   -8.1120   21.5640  -31.2450 S   0  0  0  0  0  0  0  0  0  0  0  0
   -6.7300   22.6810  -31.0080 C   0  0  0  0  0  0  0  0  0  0  0  0
   -5.4370   22.2850  -31.3740 C   0  0  0  0  0  0  0  0  0  0  0  0
   -4.3610   23.1580  -31.1960 C   0  0  0  0  0  0  0  0  0  0  0  0
   -4.5700   24.4290  -30.6490 C   0  0  0  0  0  0  0  0  0  0  0  0
   -3.4940   25.2920  -30.4750 O   0  0  0  0  0  0  0  0  0  0  0  0
   -5.8620   24.8290  -30.2770 C   0  0  0  0  0  0  0  0  0  0  0  0
   -6.0640   26.0960  -29.7320 O   0  0  0  0  0  0  0  0  0  0  0  0
   -6.9400   23.9510  -30.4570 C   0  0  0  0  0  0  0  0  0  0  0  0
   -6.8570   20.5050  -33.4790 C   0  0  0  0  0  0  0  0  0  0  0  0
   -6.0680   19.5690  -34.1530 C   0  0  0  0  0  0  0  0  0  0  0  0
   -0.3585   17.8498  -33.3155 H   0  0  0  0  0  0  0  0  0  0  0  0
    0.6648   20.0848  -32.8458 H   0  0  0  0  0  0  0  0  0  0  0  0
   -0.7495   22.1459  -32.9543 H   0  0  0  0  0  0  0  0  0  0  0  0
   -3.1764   21.9416  -33.5324 H   0  0  0  0  0  0  0  0  0  0  0  0
   -5.3552   17.4752  -31.5418 H   0  0  0  0  0  0  0  0  0  0  0  0
   -6.7681   19.1459  -30.3419 H   0  0  0  0  0  0  0  0  0  0  0  0
   -5.2688   21.2857  -31.8019 H   0  0  0  0  0  0  0  0  0  0  0  0
   -3.3471   22.8456  -31.4865 H   0  0  0  0  0  0  0  0  0  0  0  0
   -5.2960   26.6370  -29.3540 H   0  0  0  0  0  0  0  0  0  0  0  0
   -7.9541   24.2608  -30.1644 H   0  0  0  0  0  0  0  0  0  0  0  0
   -7.2829   21.3594  -34.0255 H   0  0  0  0  0  0  0  0  0  0  0  0
   -5.8699   19.6915  -35.2281 H   0  0  0  0  0  0  0  0  0  0  0  0
  1  2  2  0
  2  3  2  0
  2  4  1  0
  4  5  2  3
  5  6  1  0
  6  7  2  0
  7  8  1  0
  8  9  2  0
  9 10  1  0
  2 11  1  0
 11 12  2  0
 12 13  1  0
 13 14  2  0
 14 15  1  0
 15 16  1  0
 16 17  2  0
 17 18  1  0
 18 19  2  0
 19 20  1  0
 19 21  1  0
 21 22  1  0
 21 23  2  0
 14 24  1  0
 24 25  2  0
 10  5  1  0
 25 11  1  0
 23 16  1  0
  6 26  1  0
  7 27  1  0
  8 28  1  0
  9 29  1  0
 12 30  1  0
 13 31  1  0
 17 32  1  0
 18 33  1  0
 22 34  1  0
 23 35  1  0
 24 36  1  0
 25 37  1  0
M  CHG  2  10  -1  20  -1
M  END
>  <UniqueID>  (45) 
41

>  <SMILES>  (45) 
O=S(=O)(N=c1cccc[n-]1)c1ccc(Sc2ccc([O-])c(O)c2)cc1

>  <Energy>  (45) 
38.73678946071843

>  <Genealogy>  (45) 
O=S(=O)(N=c1cccc[n-]1)c1ccc(Sc2ccc([O-])c(O)c2)cc1 (protonated)
O=S(=O)(N=c1cccc[n-]1)c1ccc(Sc2ccc([O-])c(O)c2)cc1 (3D coordinates assigned)
O=S(=O)(N=c1cccc[n-]1)c1ccc(Sc2ccc([O-])c(O)c2)cc1 (optimized conformer: 38.73678946071843 kcal/mol)

>  <smiles>  (45) 
O=S(=O)(N=c1cccc[nH]1)c1ccc(Sc2ccc(O)c(O)c2)cc1

>  <score_type>  (45) 
oracle

>  <origin>  (45) 
adgpu

>  <m_score__min__energy>  (45) 
-11.81

>  <m_primary>  (45) 
energy

$$$$
45:0
     RDKit          3D

 36 38  0  0  0  0  0  0  0  0999 V2000
    0.0320   26.5290  -27.0160 C   0  0  0  0  0  0  0  0  0  0  0  0
   -0.7250   25.4510  -27.7210 C   0  0  0  0  0  0  0  0  0  0  0  0
   -1.7340   25.6920  -28.5910 N   0  0  0  0  0  0  0  0  0  0  0  0
   -2.1120   24.4570  -28.9840 C   0  0  0  0  0  0  0  0  0  0  0  0
   -3.1270   24.1710  -29.8970 C   0  0  0  0  0  0  0  0  0  0  0  0
   -3.8520   25.2250  -30.4740 O   0  0  0  0  0  0  0  0  0  0  0  0
   -5.2460   25.4670  -30.2770 C   0  0  0  0  0  0  0  0  0  0  0  0
   -6.0580   24.2640  -30.6760 C   0  0  0  0  0  0  0  0  0  0  0  0
   -6.0580   23.8090  -32.0050 C   0  0  0  0  0  0  0  0  0  0  0  0
   -6.8230   22.6970  -32.3690 C   0  0  0  0  0  0  0  0  0  0  0  0
   -7.5990   22.0370  -31.4130 C   0  0  0  0  0  0  0  0  0  0  0  0
   -7.6150   22.4910  -30.0910 C   0  0  0  0  0  0  0  0  0  0  0  0
   -6.8510   23.6020  -29.7230 C   0  0  0  0  0  0  0  0  0  0  0  0
   -3.3650   22.8090  -30.1940 C   0  0  0  0  0  0  0  0  0  0  0  0
   -2.5980   21.8030  -29.5800 C   0  0  0  0  0  0  0  0  0  0  0  0
   -1.5950   22.1540  -28.6670 C   0  0  0  0  0  0  0  0  0  0  0  0
   -1.3980   23.4730  -28.4060 N   0  0  0  0  0  0  0  0  0  0  0  0
   -0.5200   24.0830  -27.5910 C   0  0  0  0  0  0  0  0  0  0  0  0
    0.5340   23.3980  -26.7700 C   0  0  0  0  0  0  0  0  0  0  0  0
   -0.0220   23.0130  -25.4700 C   0  0  0  0  0  0  0  0  0  0  0  0
   -0.4600   22.7080  -24.4430 N   0  0  0  0  0  0  0  0  0  0  0  0
   -0.0635   26.3931  -25.9286 H   0  0  0  0  0  0  0  0  0  0  0  0
    1.0934   26.4777  -27.3002 H   0  0  0  0  0  0  0  0  0  0  0  0
   -0.3766   27.5100  -27.3002 H   0  0  0  0  0  0  0  0  0  0  0  0
   -5.4272   25.6885  -29.2149 H   0  0  0  0  0  0  0  0  0  0  0  0
   -5.5480   26.3200  -30.9024 H   0  0  0  0  0  0  0  0  0  0  0  0
   -5.4536   24.3298  -32.7623 H   0  0  0  0  0  0  0  0  0  0  0  0
   -6.8139   22.3411  -33.4098 H   0  0  0  0  0  0  0  0  0  0  0  0
   -8.1975   21.1600  -31.7006 H   0  0  0  0  0  0  0  0  0  0  0  0
   -8.2294   21.9734  -29.3396 H   0  0  0  0  0  0  0  0  0  0  0  0
   -6.8704   23.9598  -28.6830 H   0  0  0  0  0  0  0  0  0  0  0  0
   -4.1545   22.5350  -30.9093 H   0  0  0  0  0  0  0  0  0  0  0  0
   -2.7847   20.7449  -29.8156 H   0  0  0  0  0  0  0  0  0  0  0  0
   -0.9838   21.3831  -28.1750 H   0  0  0  0  0  0  0  0  0  0  0  0
    0.8820   22.4986  -27.2992 H   0  0  0  0  0  0  0  0  0  0  0  0
    1.3779   24.0863  -26.6147 H   0  0  0  0  0  0  0  0  0  0  0  0
  1  2  1  0
  2  3  1  0
  3  4  2  0
  4  5  1  0
  5  6  1  0
  6  7  1  0
  7  8  1  0
  8  9  2  0
  9 10  1  0
 10 11  2  0
 11 12  1  0
 12 13  2  0
  5 14  2  0
 14 15  1  0
 15 16  2  0
 16 17  1  0
 17 18  1  0
 18 19  1  0
 19 20  1  0
 20 21  3  0
 18  2  2  0
 17  4  1  0
 13  8  1  0
  1 22  1  0
  1 23  1  0
  1 24  1  0
  7 25  1  0
  7 26  1  0
  9 27  1  0
 10 28  1  0
 11 29  1  0
 12 30  1  0
 13 31  1  0
 14 32  1  0
 15 33  1  0
 16 34  1  0
 19 35  1  0
 19 36  1  0
M  END
>  <UniqueID>  (46) 
42

>  <SMILES>  (46) 
Cc1nc2c(OCc3ccccc3)cccn2c1CC#N

>  <Energy>  (46) 
69.23786841057321

>  <Genealogy>  (46) 
Cc1nc2c(OCc3ccccc3)cccn2c1CC#N (3D coordinates assigned)
Cc1nc2c(OCc3ccccc3)cccn2c1CC#N (optimized conformer: 69.23786841057321 kcal/mol)

>  <smiles>  (46) 
Cc1nc2c(OCc3ccccc3)cccn2c1CC#N

>  <score_type>  (46) 
oracle

>  <origin>  (46) 
adgpu

>  <m_score__min__energy>  (46) 
-7.7800000000000002

>  <m_primary>  (46) 
energy

$$$$
46:0
     RDKit          3D

 42 45  0  0  0  0  0  0  0  0999 V2000
   -2.7610   21.3100  -27.5020 O   0  0  0  0  0  0  0  0  0  0  0  0
   -3.0320   22.4030  -28.3200 C   0  0  0  0  0  0  0  0  0  0  0  0
   -4.1750   22.3820  -29.1220 C   0  0  0  0  0  0  0  0  0  0  0  0
   -4.4660   23.4570  -29.9830 C   0  0  0  0  0  0  0  0  0  0  0  0
   -5.6020   23.4650  -30.8120 O   0  0  0  0  0  0  0  0  0  0  0  0
   -5.5980   23.2750  -32.2270 C   0  0  0  0  0  0  0  0  0  0  0  0
   -5.5050   21.8160  -32.5670 C   0  0  0  0  0  0  0  0  0  0  0  0
   -4.3280   21.2860  -33.1130 C   0  0  0  0  0  0  0  0  0  0  0  0
   -4.2580   19.9250  -33.4150 C   0  0  0  0  0  0  0  0  0  0  0  0
   -5.3640   19.1010  -33.1750 C   0  0  0  0  0  0  0  0  0  0  0  0
   -5.3290   17.7290  -33.4630 C   0  0  0  0  0  0  0  0  0  0  0  0
   -6.4510   16.9340  -33.2110 C   0  0  0  0  0  0  0  0  0  0  0  0
   -7.6100   17.5010  -32.6710 C   0  0  0  0  0  0  0  0  0  0  0  0
   -7.6530   18.8680  -32.3810 C   0  0  0  0  0  0  0  0  0  0  0  0
   -6.5360   19.6730  -32.6300 C   0  0  0  0  0  0  0  0  0  0  0  0
   -6.5730   21.0020  -32.3450 N   0  0  0  0  0  0  0  0  0  0  0  0
   -3.5980   24.5610  -30.0180 C   0  0  0  0  0  0  0  0  0  0  0  0
   -3.8580   25.6480  -30.8550 O   0  0  0  0  0  0  0  0  0  0  0  0
   -2.4540   24.5870  -29.2090 C   0  0  0  0  0  0  0  0  0  0  0  0
   -1.6210   25.7010  -29.2460 O   0  0  0  0  0  0  0  0  0  0  0  0
   -2.1590   23.5060  -28.3560 C   0  0  0  0  0  0  0  0  0  0  0  0
   -0.9460   23.5310  -27.5050 C   0  0  0  0  0  0  0  0  0  0  0  0
   -1.0190   23.9780  -26.1740 C   0  0  0  0  0  0  0  0  0  0  0  0
    0.1270   24.0010  -25.3730 C   0  0  0  0  0  0  0  0  0  0  0  0
    1.3540   23.5760  -25.8920 C   0  0  0  0  0  0  0  0  0  0  0  0
    1.4350   23.1290  -27.2140 C   0  0  0  0  0  0  0  0  0  0  0  0
    0.2920   23.1060  -28.0180 C   0  0  0  0  0  0  0  0  0  0  0  0
   -4.8541   21.5176  -29.0806 H   0  0  0  0  0  0  0  0  0  0  0  0
   -6.5273   23.6854  -32.6489 H   0  0  0  0  0  0  0  0  0  0  0  0
   -4.7248   23.7928  -32.6505 H   0  0  0  0  0  0  0  0  0  0  0  0
   -3.4636   21.9394  -33.3026 H   0  0  0  0  0  0  0  0  0  0  0  0
   -3.3364   19.5011  -33.8404 H   0  0  0  0  0  0  0  0  0  0  0  0
   -4.4193   17.2786  -33.8869 H   0  0  0  0  0  0  0  0  0  0  0  0
   -6.4222   15.8581  -33.4383 H   0  0  0  0  0  0  0  0  0  0  0  0
   -8.4894   16.8702  -32.4741 H   0  0  0  0  0  0  0  0  0  0  0  0
   -8.5660   19.3112  -31.9566 H   0  0  0  0  0  0  0  0  0  0  0  0
   -4.3770   25.5550  -31.7180 H   0  0  0  0  0  0  0  0  0  0  0  0
   -1.9824   24.3113  -25.7607 H   0  0  0  0  0  0  0  0  0  0  0  0
    0.0632   24.3539  -24.3331 H   0  0  0  0  0  0  0  0  0  0  0  0
    2.2546   23.5934  -25.2606 H   0  0  0  0  0  0  0  0  0  0  0  0
    2.4002   22.7947  -27.6223 H   0  0  0  0  0  0  0  0  0  0  0  0
    0.3614   22.7535  -29.0577 H   0  0  0  0  0  0  0  0  0  0  0  0
  1  2  1  0
  2  3  2  0
  3  4  1  0
  4  5  1  0
  5  6  1  0
  6  7  1  0
  7  8  2  0
  8  9  1  0
  9 10  2  0
 10 11  1  0
 11 12  2  0
 12 13  1  0
 13 14  2  0
 14 15  1  0
 15 16  2  0
  4 17  2  0
 17 18  1  0
 17 19  1  0
 19 20  1  0
 19 21  2  0
 21 22  1  0
 22 23  2  0
 23 24  1  0
 24 25  2  0
 25 26  1  0
 26 27  2  0
 21  2  1  0
 27 22  1  0
 16  7  1  0
 15 10  1  0
  3 28  1  0
  6 29  1  0
  6 30  1  0
  8 31  1  0
  9 32  1  0
 11 33  1  0
 12 34  1  0
 13 35  1  0
 14 36  1  0
 18 37  1  0
 23 38  1  0
 24 39  1  0
 25 40  1  0
 26 41  1  0
 27 42  1  0
M  CHG  2   1  -1  20  -1
M  END
>  <UniqueID>  (47) 
43

>  <SMILES>  (47) 
[O-]c1cc(OCc2ccc3ccccc3n2)c(O)c([O-])c1-c1ccccc1

>  <Energy>  (47) 
57.6814506569253

>  <Genealogy>  (47) 
[O-]c1cc(OCc2ccc3ccccc3n2)c(O)c([O-])c1-c1ccccc1 (protonated)
[O-]c1cc(OCc2ccc3ccccc3n2)c(O)c([O-])c1-c1ccccc1 (3D coordinates assigned)
[O-]c1cc(OCc2ccc3ccccc3n2)c(O)c([O-])c1-c1ccccc1 (optimized conformer: 57.6814506569253 kcal/mol)

>  <smiles>  (47) 
Oc1cc(OCc2ccc3ccccc3n2)c(O)c(O)c1-c1ccccc1

>  <score_type>  (47) 
oracle

>  <origin>  (47) 
adgpu

>  <m_score__min__energy>  (47) 
-12.699999999999999

>  <m_primary>  (47) 
energy

$$$$
47:0
     RDKit          3D

 38 40  0  0  0  0  0  0  0  0999 V2000
   -3.5050   18.4990  -34.6130 N   0  0  0  0  0  0  0  0  0  0  0  0
   -3.1940   19.4370  -33.5820 C   0  0  0  0  0  0  0  0  0  0  0  0
   -2.3380   20.5160  -33.8280 C   0  0  0  0  0  0  0  0  0  0  0  0
   -2.0560   21.3970  -32.8330 N   0  0  0  0  0  0  0  0  0  0  0  0
   -2.5950   21.2480  -31.5950 C   0  0  0  0  0  0  0  0  0  0  0  0
   -2.2180   22.4300  -30.3080 S   0  0  0  0  0  0  0  0  0  0  0  0
   -3.6860   23.4040  -30.6570 C   0  0  0  0  0  0  0  0  0  0  0  0
   -4.7270   22.8390  -31.4030 C   0  0  0  0  0  0  0  0  0  0  0  0
   -5.8870   23.5830  -31.6900 C   0  0  0  0  0  0  0  0  0  0  0  0
   -6.9760   23.0320  -32.4520 N   0  0  0  0  0  0  0  0  0  0  0  0
   -8.1070   21.8710  -31.8310 S   0  0  0  0  0  0  0  0  0  0  0  0
   -8.0930   21.9180  -30.3290 O   0  0  0  0  0  0  0  0  0  0  0  0
   -9.4850   22.2200  -32.3190 O   0  0  0  0  0  0  0  0  0  0  0  0
   -7.6520   20.2510  -32.3500 C   0  0  0  0  0  0  0  0  0  0  0  0
   -8.1060   19.1250  -31.6480 C   0  0  0  0  0  0  0  0  0  0  0  0
   -7.7560   17.8410  -32.0790 C   0  0  0  0  0  0  0  0  0  0  0  0
   -6.9510   17.6760  -33.2110 C   0  0  0  0  0  0  0  0  0  0  0  0
   -6.5140   16.0660  -33.7520 Cl  0  0  0  0  0  0  0  0  0  0  0  0
   -6.4920   18.7980  -33.9100 C   0  0  0  0  0  0  0  0  0  0  0  0
   -6.8400   20.0810  -33.4800 C   0  0  0  0  0  0  0  0  0  0  0  0
   -5.9800   24.9030  -31.2210 C   0  0  0  0  0  0  0  0  0  0  0  0
   -4.9420   25.4670  -30.4750 C   0  0  0  0  0  0  0  0  0  0  0  0
   -3.7950   24.7210  -30.1900 C   0  0  0  0  0  0  0  0  0  0  0  0
   -2.7710   25.2950  -29.4460 O   0  0  0  0  0  0  0  0  0  0  0  0
   -3.4270   20.2050  -31.3350 N   0  0  0  0  0  0  0  0  0  0  0  0
   -3.7350   19.3010  -32.3000 C   0  0  0  0  0  0  0  0  0  0  0  0
   -2.7570   17.9120  -35.0450 H   0  0  0  0  0  0  0  0  0  0  0  0
   -4.4870   18.3830  -34.9520 H   0  0  0  0  0  0  0  0  0  0  0  0
   -1.8941   20.6508  -34.8254 H   0  0  0  0  0  0  0  0  0  0  0  0
   -4.6378   21.8051  -31.7679 H   0  0  0  0  0  0  0  0  0  0  0  0
   -7.1450   23.3820  -33.4230 H   0  0  0  0  0  0  0  0  0  0  0  0
   -8.7384   19.2517  -30.7569 H   0  0  0  0  0  0  0  0  0  0  0  0
   -8.1144   16.9597  -31.5268 H   0  0  0  0  0  0  0  0  0  0  0  0
   -5.8567   18.6698  -34.7988 H   0  0  0  0  0  0  0  0  0  0  0  0
   -6.4755   20.9610  -34.0302 H   0  0  0  0  0  0  0  0  0  0  0  0
   -6.8779   25.4984  -31.4428 H   0  0  0  0  0  0  0  0  0  0  0  0
   -5.0278   26.5014  -30.1108 H   0  0  0  0  0  0  0  0  0  0  0  0
   -4.4096   18.4623  -32.0734 H   0  0  0  0  0  0  0  0  0  0  0  0
  1  2  1  0
  2  3  2  0
  3  4  1  0
  4  5  2  0
  5  6  1  0
  6  7  1  0
  7  8  2  0
  8  9  1  0
  9 10  1  0
 10 11  1  0
 11 12  2  0
 11 13  2  0
 11 14  1  0
 14 15  2  0
 15 16  1  0
 16 17  2  0
 17 18  1  0
 17 19  1  0
 19 20  2  0
  9 21  2  0
 21 22  1  0
 22 23  2  0
 23 24  1  0
  5 25  1  0
 25 26  2  0
 26  2  1  0
 23  7  1  0
 20 14  1  0
  1 27  1  0
  1 28  1  0
  3 29  1  0
  8 30  1  0
 10 31  1  0
 15 32  1  0
 16 33  1  0
 19 34  1  0
 20 35  1  0
 21 36  1  0
 22 37  1  0
 26 38  1  0
M  CHG  1  24  -1
M  END
>  <UniqueID>  (48) 
44

>  <SMILES>  (48) 
Nc1cnc(Sc2cc(NS(=O)(=O)c3ccc(Cl)cc3)ccc2[O-])nc1

>  <Energy>  (48) 
39.22496453617522

>  <Genealogy>  (48) 
Nc1cnc(Sc2cc(NS(=O)(=O)c3ccc(Cl)cc3)ccc2[O-])nc1 (protonated)
Nc1cnc(Sc2cc(NS(=O)(=O)c3ccc(Cl)cc3)ccc2[O-])nc1 (3D coordinates assigned)
Nc1cnc(Sc2cc(NS(=O)(=O)c3ccc(Cl)cc3)ccc2[O-])nc1 (optimized conformer: 39.22496453617522 kcal/mol)

>  <smiles>  (48) 
Nc1cnc(Sc2cc(NS(=O)(=O)c3ccc(Cl)cc3)ccc2O)nc1

>  <score_type>  (48) 
oracle

>  <origin>  (48) 
adgpu

>  <m_score__min__energy>  (48) 
-12.34

>  <m_primary>  (48) 
energy

$$$$
48:0
     RDKit          3D

 36 38  0  0  0  0  0  0  0  0999 V2000
   -1.5520   25.7680  -28.9600 O   0  0  0  0  0  0  0  0  0  0  0  0
   -2.3870   24.9060  -29.3450 C   0  0  0  0  0  0  0  0  0  0  0  0
   -3.5010   25.2900  -30.1630 N   0  0  0  0  0  0  0  0  0  0  0  0
   -4.6790   24.5140  -30.4250 C   0  0  0  0  0  0  0  0  0  0  0  0
   -4.5520   23.3260  -31.1540 C   0  0  0  0  0  0  0  0  0  0  0  0
   -5.6770   22.5480  -31.4470 C   0  0  0  0  0  0  0  0  0  0  0  0
   -6.9470   22.9650  -31.0310 C   0  0  0  0  0  0  0  0  0  0  0  0
   -8.3610   21.9760  -31.3790 S   0  0  0  0  0  0  0  0  0  0  0  0
   -9.2540   22.6830  -32.3590 O   0  0  0  0  0  0  0  0  0  0  0  0
   -9.1460   21.7430  -30.1180 O   0  0  0  0  0  0  0  0  0  0  0  0
   -7.8320   20.4380  -32.0490 C   0  0  0  0  0  0  0  0  0  0  0  0
   -8.3610   19.2360  -31.5550 C   0  0  0  0  0  0  0  0  0  0  0  0
   -7.9570   18.0140  -32.1030 C   0  0  0  0  0  0  0  0  0  0  0  0
   -7.0270   17.9880  -33.1480 C   0  0  0  0  0  0  0  0  0  0  0  0
   -6.5220   16.4540  -33.8340 Cl  0  0  0  0  0  0  0  0  0  0  0  0
   -6.5050   19.1860  -33.6480 C   0  0  0  0  0  0  0  0  0  0  0  0
   -6.9080   20.4080  -33.1020 C   0  0  0  0  0  0  0  0  0  0  0  0
   -7.0830   24.1610  -30.3150 C   0  0  0  0  0  0  0  0  0  0  0  0
   -5.9580   24.9380  -30.0210 C   0  0  0  0  0  0  0  0  0  0  0  0
   -2.2400   23.5070  -28.9030 C   0  0  0  0  0  0  0  0  0  0  0  0
   -1.1060   22.7470  -29.2320 C   0  0  0  0  0  0  0  0  0  0  0  0
   -1.0140   21.4610  -28.8010 N   0  0  0  0  0  0  0  0  0  0  0  0
   -1.9990   20.8950  -28.0560 C   0  0  0  0  0  0  0  0  0  0  0  0
   -3.1270   21.6460  -27.7250 C   0  0  0  0  0  0  0  0  0  0  0  0
   -3.2210   22.9320  -28.1550 N   0  0  0  0  0  0  0  0  0  0  0  0
   -3.5593   23.0014  -31.4994 H   0  0  0  0  0  0  0  0  0  0  0  0
   -5.5636   21.6070  -32.0052 H   0  0  0  0  0  0  0  0  0  0  0  0
   -9.0946   19.2546  -30.7355 H   0  0  0  0  0  0  0  0  0  0  0  0
   -8.3708   17.0728  -31.7120 H   0  0  0  0  0  0  0  0  0  0  0  0
   -5.7765   19.1662  -34.4719 H   0  0  0  0  0  0  0  0  0  0  0  0
   -6.4988   21.3483  -33.4999 H   0  0  0  0  0  0  0  0  0  0  0  0
   -8.0785   24.4904  -29.9826 H   0  0  0  0  0  0  0  0  0  0  0  0
   -6.0737   25.8841  -29.4719 H   0  0  0  0  0  0  0  0  0  0  0  0
   -0.2983   23.1889  -29.8339 H   0  0  0  0  0  0  0  0  0  0  0  0
   -1.9078   19.8527  -27.7165 H   0  0  0  0  0  0  0  0  0  0  0  0
   -3.9326   21.2018  -27.1219 H   0  0  0  0  0  0  0  0  0  0  0  0
  1  2  2  0
  2  3  1  0
  3  4  1  0
  4  5  2  0
  5  6  1  0
  6  7  2  0
  7  8  1  0
  8  9  2  0
  8 10  2  0
  8 11  1  0
 11 12  2  0
 12 13  1  0
 13 14  2  0
 14 15  1  0
 14 16  1  0
 16 17  2  0
  7 18  1  0
 18 19  2  0
  2 20  1  0
 20 21  2  0
 21 22  1  0
 22 23  2  0
 23 24  1  0
 24 25  2  0
 19  4  1  0
 25 20  1  0
 17 11  1  0
  5 26  1  0
  6 27  1  0
 12 28  1  0
 13 29  1  0
 16 30  1  0
 17 31  1  0
 18 32  1  0
 19 33  1  0
 21 34  1  0
 23 35  1  0
 24 36  1  0
M  CHG  1   3  -1
M  END
>  <UniqueID>  (49) 
45

>  <SMILES>  (49) 
O=C([N-]c1ccc(S(=O)(=O)c2ccc(Cl)cc2)cc1)c1cnccn1

>  <Energy>  (49) 
46.199223745667915

>  <Genealogy>  (49) 
O=C([N-]c1ccc(S(=O)(=O)c2ccc(Cl)cc2)cc1)c1cnccn1 (protonated)
O=C([N-]c1ccc(S(=O)(=O)c2ccc(Cl)cc2)cc1)c1cnccn1 (3D coordinates assigned)
O=C([N-]c1ccc(S(=O)(=O)c2ccc(Cl)cc2)cc1)c1cnccn1 (optimized conformer: 46.199223745667915 kcal/mol)

>  <smiles>  (49) 
O=C(Nc1ccc(S(=O)(=O)c2ccc(Cl)cc2)cc1)c1cnccn1

>  <score_type>  (49) 
oracle

>  <origin>  (49) 
adgpu

>  <m_score__min__energy>  (49) 
-11.33

>  <m_primary>  (49) 
energy

$$$$
49:0
     RDKit          3D

 45 47  0  0  0  0  0  0  0  0999 V2000
   -2.1560   17.3470  -33.8740 C   0  0  0  0  0  0  0  0  0  0  0  0
   -2.8280   16.1770  -33.1480 C   0  0  0  0  0  0  0  0  0  0  0  0
   -3.5840   15.3030  -34.0750 N   0  0  0  0  0  0  0  0  0  0  0  0
   -5.0200   15.2170  -33.7530 C   0  0  0  0  0  0  0  0  0  0  0  0
   -5.6600   16.5780  -33.6390 C   0  0  0  0  0  0  0  0  0  0  0  0
   -6.4570   16.8990  -32.5290 C   0  0  0  0  0  0  0  0  0  0  0  0
   -7.0760   18.1500  -32.4420 C   0  0  0  0  0  0  0  0  0  0  0  0
   -6.9250   19.0890  -33.4670 C   0  0  0  0  0  0  0  0  0  0  0  0
   -7.5590   20.3330  -33.3400 O   0  0  0  0  0  0  0  0  0  0  0  0
   -7.0470   21.4310  -32.6340 C   0  0  0  0  0  0  0  0  0  0  0  0
   -5.6590   21.5820  -32.5450 C   0  0  0  0  0  0  0  0  0  0  0  0
   -5.1050   22.6540  -31.8400 C   0  0  0  0  0  0  0  0  0  0  0  0
   -3.7550   22.7890  -31.7950 F   0  0  0  0  0  0  0  0  0  0  0  0
   -5.9370   23.5810  -31.1920 C   0  0  0  0  0  0  0  0  0  0  0  0
   -5.2310   24.9250  -30.2910 S   0  0  0  0  0  0  0  0  0  0  0  0
   -5.7490   26.2220  -30.8500 O   0  0  0  0  0  0  0  0  0  0  0  0
   -5.6220   24.8270  -28.8420 O   0  0  0  0  0  0  0  0  0  0  0  0
   -3.5010   24.9320  -30.4300 N   0  0  0  0  0  0  0  0  0  0  0  0
   -2.6310   24.7420  -29.3120 C   0  0  0  0  0  0  0  0  0  0  0  0
   -2.7320   23.6350  -28.4790 C   0  0  0  0  0  0  0  0  0  0  0  0
   -1.5490   23.7900  -27.2930 S   0  0  0  0  0  0  0  0  0  0  0  0
   -0.9660   25.2530  -27.8860 C   0  0  0  0  0  0  0  0  0  0  0  0
   -1.6570   25.6370  -28.9820 N   0  0  0  0  0  0  0  0  0  0  0  0
   -7.3310   23.4200  -31.2590 C   0  0  0  0  0  0  0  0  0  0  0  0
   -7.8850   22.3530  -31.9740 C   0  0  0  0  0  0  0  0  0  0  0  0
   -9.2320   22.1930  -31.9780 F   0  0  0  0  0  0  0  0  0  0  0  0
   -6.1100   18.7790  -34.5710 C   0  0  0  0  0  0  0  0  0  0  0  0
   -5.4850   17.5300  -34.6570 C   0  0  0  0  0  0  0  0  0  0  0  0
   -1.7504   18.0531  -33.1345 H   0  0  0  0  0  0  0  0  0  0  0  0
   -1.3387   16.9666  -34.5044 H   0  0  0  0  0  0  0  0  0  0  0  0
   -2.8964   17.8613  -34.5044 H   0  0  0  0  0  0  0  0  0  0  0  0
   -2.0525   15.5773  -32.6490 H   0  0  0  0  0  0  0  0  0  0  0  0
   -3.5404   16.5949  -32.4214 H   0  0  0  0  0  0  0  0  0  0  0  0
   -3.5080   15.7080  -35.0380 H   0  0  0  0  0  0  0  0  0  0  0  0
   -3.1690   14.3420  -34.1230 H   0  0  0  0  0  0  0  0  0  0  0  0
   -5.5283   14.6518  -34.5481 H   0  0  0  0  0  0  0  0  0  0  0  0
   -5.1186   14.7144  -32.7795 H   0  0  0  0  0  0  0  0  0  0  0  0
   -6.5954   16.1628  -31.7235 H   0  0  0  0  0  0  0  0  0  0  0  0
   -7.6862   18.3971  -31.5607 H   0  0  0  0  0  0  0  0  0  0  0  0
   -4.9983   20.8510  -33.0339 H   0  0  0  0  0  0  0  0  0  0  0  0
   -3.4524   22.8095  -28.5768 H   0  0  0  0  0  0  0  0  0  0  0  0
   -0.1348   25.8201  -27.4416 H   0  0  0  0  0  0  0  0  0  0  0  0
   -7.9900   24.1365  -30.7467 H   0  0  0  0  0  0  0  0  0  0  0  0
   -5.9635   19.5212  -35.3696 H   0  0  0  0  0  0  0  0  0  0  0  0
   -4.8536   17.2925  -35.5259 H   0  0  0  0  0  0  0  0  0  0  0  0
  1  2  1  0
  2  3  1  0
  3  4  1  0
  4  5  1  0
  5  6  2  0
  6  7  1  0
  7  8  2  0
  8  9  1  0
  9 10  1  0
 10 11  2  0
 11 12  1  0
 12 13  1  0
 12 14  2  0
 14 15  1  0
 15 16  2  0
 15 17  2  0
 15 18  1  0
 18 19  1  0
 19 20  2  0
 20 21  1  0
 21 22  1  0
 22 23  2  0
 14 24  1  0
 24 25  2  0
 25 26  1  0
  8 27  1  0
 27 28  2  0
 28  5  1  0
 25 10  1  0
 23 19  1  0
  1 29  1  0
  1 30  1  0
  1 31  1  0
  2 32  1  0
  2 33  1  0
  3 34  1  0
  3 35  1  0
  4 36  1  0
  4 37  1  0
  6 38  1  0
  7 39  1  0
 11 40  1  0
 20 41  1  0
 22 42  1  0
 24 43  1  0
 27 44  1  0
 28 45  1  0
M  CHG  2   3   1  18  -1
M  END
>  <UniqueID>  (50) 
46

>  <SMILES>  (50) 
CC[NH2+]Cc1ccc(Oc2cc(F)c(S(=O)(=O)[N-]c3cscn3)cc2F)cc1

>  <Energy>  (50) 
86.0354928089642

>  <Genealogy>  (50) 
CC[NH2+]Cc1ccc(Oc2cc(F)c(S(=O)(=O)[N-]c3cscn3)cc2F)cc1 (protonated)
CC[NH2+]Cc1ccc(Oc2cc(F)c(S(=O)(=O)[N-]c3cscn3)cc2F)cc1 (3D coordinates assigned)
CC[NH2+]Cc1ccc(Oc2cc(F)c(S(=O)(=O)[N-]c3cscn3)cc2F)cc1 (optimized conformer: 86.0354928089642 kcal/mol)

>  <smiles>  (50) 
CCNCc1ccc(Oc2cc(F)c(S(=O)(=O)Nc3cscn3)cc2F)cc1

>  <score_type>  (50) 
oracle

>  <origin>  (50) 
adgpu

>  <m_score__min__energy>  (50) 
-9.5600000000000005

>  <m_primary>  (50) 
energy

$$$$
