0:0
     RDKit          3D

 43 44  0  0  0  0  0  0  0  0999 V2000
   -0.5730   26.7960  -27.4930 C   0  0  0  0  0  0  0  0  0  0  0  0
   -0.9330   25.3590  -27.6890 C   0  0  0  0  0  0  0  0  0  0  0  0
    0.0630   24.3740  -27.7160 C   0  0  0  0  0  0  0  0  0  0  0  0
   -0.3020   23.0360  -27.8840 C   0  0  0  0  0  0  0  0  0  0  0  0
   -1.6480   22.6940  -28.0190 C   0  0  0  0  0  0  0  0  0  0  0  0
   -2.6210   23.7030  -27.9840 C   0  0  0  0  0  0  0  0  0  0  0  0
   -4.0850   23.3710  -28.0900 C   0  0  0  0  0  0  0  0  0  0  0  0
   -4.9210   24.5630  -28.2960 N   0  0  0  0  0  0  0  0  0  0  0  0
   -5.1720   24.9130  -29.9860 S   0  0  0  0  0  0  0  0  0  0  0  0
   -3.8620   25.3070  -30.6110 O   0  0  0  0  0  0  0  0  0  0  0  0
   -6.1240   26.0680  -30.1080 O   0  0  0  0  0  0  0  0  0  0  0  0
   -5.8570   23.5270  -30.8350 C   0  0  0  0  0  0  0  0  0  0  0  0
   -5.1030   22.8250  -31.7860 C   0  0  0  0  0  0  0  0  0  0  0  0
   -5.6500   21.7140  -32.4350 C   0  0  0  0  0  0  0  0  0  0  0  0
   -6.9540   21.2980  -32.1420 C   0  0  0  0  0  0  0  0  0  0  0  0
   -7.6380   19.9070  -32.9810 S   0  0  0  0  0  0  0  0  0  0  0  0
   -6.8250   19.6010  -34.2100 O   0  0  0  0  0  0  0  0  0  0  0  0
   -9.0390   20.2440  -33.4080 O   0  0  0  0  0  0  0  0  0  0  0  0
   -7.6610   18.5260  -31.9140 N   0  0  0  0  0  0  0  0  0  0  0  0
   -6.9970   17.3910  -32.5660 C   0  0  0  0  0  0  0  0  0  0  0  0
   -9.0530   18.1790  -31.5990 C   0  0  0  0  0  0  0  0  0  0  0  0
   -7.7140   22.0090  -31.2020 C   0  0  0  0  0  0  0  0  0  0  0  0
   -7.1660   23.1180  -30.5510 C   0  0  0  0  0  0  0  0  0  0  0  0
   -2.2380   25.0000  -27.8210 N   0  0  0  0  0  0  0  0  0  0  0  0
   -0.5177   27.0166  -26.4168 H   0  0  0  0  0  0  0  0  0  0  0  0
    0.4031   26.9963  -27.9590 H   0  0  0  0  0  0  0  0  0  0  0  0
   -1.3394   27.4328  -27.9590 H   0  0  0  0  0  0  0  0  0  0  0  0
    1.1218   24.6514  -27.6060 H   0  0  0  0  0  0  0  0  0  0  0  0
    0.4705   22.2533  -27.9098 H   0  0  0  0  0  0  0  0  0  0  0  0
   -1.9430   21.6426  -28.1516 H   0  0  0  0  0  0  0  0  0  0  0  0
   -4.2307   22.6873  -28.9393 H   0  0  0  0  0  0  0  0  0  0  0  0
   -4.3917   22.9087  -27.1402 H   0  0  0  0  0  0  0  0  0  0  0  0
   -4.4540   25.3910  -27.8620 H   0  0  0  0  0  0  0  0  0  0  0  0
   -4.0787   23.1491  -32.0221 H   0  0  0  0  0  0  0  0  0  0  0  0
   -5.0535   21.1649  -33.1785 H   0  0  0  0  0  0  0  0  0  0  0  0
   -6.5985   16.7098  -31.7997 H   0  0  0  0  0  0  0  0  0  0  0  0
   -7.7227   16.8528  -33.1935 H   0  0  0  0  0  0  0  0  0  0  0  0
   -6.1722   17.7598  -33.1935 H   0  0  0  0  0  0  0  0  0  0  0  0
   -9.1847   18.1462  -30.5074 H   0  0  0  0  0  0  0  0  0  0  0  0
   -9.7257   18.9370  -32.0268 H   0  0  0  0  0  0  0  0  0  0  0  0
   -9.2912   17.1940  -32.0268 H   0  0  0  0  0  0  0  0  0  0  0  0
   -8.7433   21.6934  -30.9765 H   0  0  0  0  0  0  0  0  0  0  0  0
   -7.7651   23.6715  -29.8129 H   0  0  0  0  0  0  0  0  0  0  0  0
  1  2  1  0
  2  3  2  0
  3  4  1  0
  4  5  2  0
  5  6  1  0
  6  7  1  0
  7  8  1  0
  8  9  1  0
  9 10  2  0
  9 11  2  0
  9 12  1  0
 12 13  2  0
 13 14  1  0
 14 15  2  0
 15 16  1  0
 16 17  2  0
 16 18  2  0
 16 19  1  0
 19 20  1  0
 19 21  1  0
 15 22  1  0
 22 23  2  0
  6 24  2  0
 24  2  1  0
 23 12  1  0
  1 25  1  0
  1 26  1  0
  1 27  1  0
  3 28  1  0
  4 29  1  0
  5 30  1  0
  7 31  1  0
  7 32  1  0
  8 33  1  0
 13 34  1  0
 14 35  1  0
 20 36  1  0
 20 37  1  0
 20 38  1  0
 21 39  1  0
 21 40  1  0
 21 41  1  0
 22 42  1  0
 23 43  1  0
M  END
>  <UniqueID>  (1) 
1

>  <SMILES>  (1) 
Cc1cccc(CNS(=O)(=O)c2ccc(S(=O)(=O)N(C)C)cc2)n1

>  <Energy>  (1) 
37.411450051854544

>  <Genealogy>  (1) 
Cc1cccc(CNS(=O)(=O)c2ccc(S(=O)(=O)N(C)C)cc2)n1 (3D coordinates assigned)
Cc1cccc(CNS(=O)(=O)c2ccc(S(=O)(=O)N(C)C)cc2)n1 (optimized conformer: 37.411450051854544 kcal/mol)

>  <smiles>  (1) 
Cc1cccc(CNS(=O)(=O)c2ccc(S(=O)(=O)N(C)C)cc2)n1

>  <score_type>  (1) 
oracle

>  <origin>  (1) 
adgpu

>  <m_score__min__energy>  (1) 
-9.3900000000000006

>  <m_primary>  (1) 
energy

$$$$
1:0
     RDKit          3D

 36 38  0  0  0  0  0  0  0  0999 V2000
    1.0410   24.5440  -28.9750 H   0  0  0  0  0  0  0  0  0  0  0  0
    1.1960   24.8350  -28.0200 O   0  0  0  0  0  0  0  0  0  0  0  0
    0.1610   25.0750  -27.1120 C   0  0  0  0  0  0  0  0  0  0  0  0
    0.5070   25.3120  -25.7750 C   0  0  0  0  0  0  0  0  0  0  0  0
    1.5605   25.2475  -25.4652 H   0  0  0  0  0  0  0  0  0  0  0  0
   -0.4720   25.6290  -24.8330 C   0  0  0  0  0  0  0  0  0  0  0  0
   -0.1887   25.8142  -23.7864 H   0  0  0  0  0  0  0  0  0  0  0  0
   -1.8090   25.7110  -25.2180 C   0  0  0  0  0  0  0  0  0  0  0  0
   -2.5783   25.9753  -24.4775 H   0  0  0  0  0  0  0  0  0  0  0  0
   -2.1740   25.4580  -26.5430 C   0  0  0  0  0  0  0  0  0  0  0  0
   -3.2313   25.5253  -26.8391 H   0  0  0  0  0  0  0  0  0  0  0  0
   -1.2020   25.1180  -27.5020 C   0  0  0  0  0  0  0  0  0  0  0  0
   -1.6450   24.7900  -28.8750 C   0  0  0  0  0  0  0  0  0  0  0  0
   -0.9720   23.9930  -29.5810 O   0  0  0  0  0  0  0  0  0  0  0  0
   -2.8970   25.3000  -29.3550 N   0  0  0  0  0  0  0  0  0  0  0  0
   -3.9710   24.5330  -29.9190 C   0  0  0  0  0  0  0  0  0  0  0  0
   -5.2790   25.0170  -29.7930 C   0  0  0  0  0  0  0  0  0  0  0  0
   -5.4630   25.9593  -29.2562 H   0  0  0  0  0  0  0  0  0  0  0  0
   -6.3520   24.3120  -30.3440 C   0  0  0  0  0  0  0  0  0  0  0  0
   -7.3771   24.6932  -30.2263 H   0  0  0  0  0  0  0  0  0  0  0  0
   -6.1260   23.1210  -31.0460 C   0  0  0  0  0  0  0  0  0  0  0  0
   -7.4830   22.2460  -31.7490 S   0  0  0  0  0  0  0  0  0  0  0  0
   -8.1790   21.4180  -30.7040 O   0  0  0  0  0  0  0  0  0  0  0  0
   -8.4600   23.2370  -32.3160 O   0  0  0  0  0  0  0  0  0  0  0  0
   -6.9270   21.2040  -33.0190 N   0  0  0  0  0  0  0  0  0  0  0  0
   -6.8660   19.9100  -32.9300 C   0  0  0  0  0  0  0  0  0  0  0  0
   -6.4210   19.1390  -33.9430 N   0  0  0  0  0  0  0  0  0  0  0  0
   -6.4450   17.8180  -33.6170 C   0  0  0  0  0  0  0  0  0  0  0  0
   -6.1191   17.0324  -34.3146 H   0  0  0  0  0  0  0  0  0  0  0  0
   -6.9110   17.5330  -32.3390 C   0  0  0  0  0  0  0  0  0  0  0  0
   -7.0042   16.5312  -31.8943 H   0  0  0  0  0  0  0  0  0  0  0  0
   -7.3080   18.9870  -31.5900 S   0  0  0  0  0  0  0  0  0  0  0  0
   -4.8180   22.6430  -31.1910 C   0  0  0  0  0  0  0  0  0  0  0  0
   -4.6347   21.7088  -31.7421 H   0  0  0  0  0  0  0  0  0  0  0  0
   -3.7440   23.3470  -30.6390 C   0  0  0  0  0  0  0  0  0  0  0  0
   -2.7180   22.9719  -30.7683 H   0  0  0  0  0  0  0  0  0  0  0  0
  1  2  1  0
  2  3  1  0
  3  4  2  0
  4  5  1  0
  4  6  1  0
  6  7  1  0
  6  8  2  0
  8  9  1  0
  8 10  1  0
 10 11  1  0
 10 12  2  0
 12 13  1  0
 13 14  2  0
 13 15  1  0
 15 16  1  0
 16 17  2  0
 17 18  1  0
 17 19  1  0
 19 20  1  0
 19 21  2  0
 21 22  1  0
 22 23  2  0
 22 24  2  0
 22 25  1  0
 25 26  2  0
 26 27  1  0
 27 28  1  0
 28 29  1  0
 28 30  2  0
 30 31  1  0
 30 32  1  0
 21 33  1  0
 33 34  1  0
 33 35  2  0
 35 36  1  0
 12  3  1  0
 35 16  1  0
 32 26  1  0
M  CHG  2  15  -1  27  -1
M  END
>  <UniqueID>  (2) 
2

>  <SMILES>  (2) 
O=C([N-]c1ccc(S(=O)(=O)/N=c2/[n-]ccs2)cc1)c1ccccc1O

>  <Energy>  (2) 
81.16875727837176

>  <Genealogy>  (2) 
O=C([N-]c1ccc(S(=O)(=O)N=c2[n-]ccs2)cc1)c1ccccc1O (protonated)
O=C([N-]c1ccc(S(=O)(=O)/N=c2/[n-]ccs2)cc1)c1ccccc1O (cis-trans isomerization)
O=C([N-]c1ccc(S(=O)(=O)/N=c2/[n-]ccs2)cc1)c1ccccc1O (3D coordinates assigned)
O=C([N-]c1ccc(S(=O)(=O)/N=c2/[n-]ccs2)cc1)c1ccccc1O (optimized conformer: 81.16875727837176 kcal/mol)

>  <smiles>  (2) 
O=C(Nc1ccc(S(=O)(=O)N=c2[nH]ccs2)cc1)c1ccccc1O

>  <score_type>  (2) 
oracle

>  <origin>  (2) 
adgpu

>  <m_score__min__energy>  (2) 
-10.19

>  <m_primary>  (2) 
energy

$$$$
2:0
     RDKit          3D

 48 50  0  0  0  0  0  0  0  0999 V2000
   -5.5230   24.8640  -29.9690 C   0  0  0  0  0  0  0  0  0  0  0  0
   -4.5620   24.2560  -30.8260 O   0  0  0  0  0  0  0  0  0  0  0  0
   -4.5790   22.9070  -31.2170 C   0  0  0  0  0  0  0  0  0  0  0  0
   -5.7860   22.2280  -31.4790 C   0  0  0  0  0  0  0  0  0  0  0  0
   -5.7800   20.8690  -31.8150 C   0  0  0  0  0  0  0  0  0  0  0  0
   -7.3040   20.0330  -32.1020 S   0  0  0  0  0  0  0  0  0  0  0  0
   -8.0580   19.9440  -30.8040 O   0  0  0  0  0  0  0  0  0  0  0  0
   -8.1350   20.8080  -33.0870 O   0  0  0  0  0  0  0  0  0  0  0  0
   -6.9880   18.4280  -32.7100 N   0  0  0  0  0  0  0  0  0  0  0  0
   -6.2980   17.6270  -31.6840 C   0  0  0  0  0  0  0  0  0  0  0  0
   -5.7420   16.3210  -32.2860 C   0  0  0  0  0  0  0  0  0  0  0  0
   -6.2960   16.0760  -33.5640 O   0  0  0  0  0  0  0  0  0  0  0  0
   -5.8840   17.0880  -34.4660 C   0  0  0  0  0  0  0  0  0  0  0  0
   -6.1720   18.5070  -33.9300 C   0  0  0  0  0  0  0  0  0  0  0  0
   -4.5660   20.1740  -31.8730 C   0  0  0  0  0  0  0  0  0  0  0  0
   -3.3650   20.8410  -31.6260 C   0  0  0  0  0  0  0  0  0  0  0  0
   -3.3570   22.2080  -31.3310 C   0  0  0  0  0  0  0  0  0  0  0  0
   -2.0960   22.8460  -31.0810 N   0  0  0  0  0  0  0  0  0  0  0  0
   -1.6620   23.3720  -29.8220 C   0  0  0  0  0  0  0  0  0  0  0  0
   -0.8660   22.6900  -29.1250 O   0  0  0  0  0  0  0  0  0  0  0  0
   -2.1090   24.6630  -29.3690 N   0  0  0  0  0  0  0  0  0  0  0  0
   -1.8340   25.1930  -28.0630 C   0  0  0  0  0  0  0  0  0  0  0  0
   -2.6540   24.8220  -26.9860 C   0  0  0  0  0  0  0  0  0  0  0  0
   -2.4210   25.3380  -25.7080 C   0  0  0  0  0  0  0  0  0  0  0  0
   -1.3750   26.2440  -25.4970 C   0  0  0  0  0  0  0  0  0  0  0  0
   -1.1350   26.7770  -24.1810 C   0  0  0  0  0  0  0  0  0  0  0  0
   -0.9440   27.2050  -23.1230 N   0  0  0  0  0  0  0  0  0  0  0  0
   -0.5670   26.6370  -26.5710 C   0  0  0  0  0  0  0  0  0  0  0  0
   -0.7990   26.1200  -27.8500 C   0  0  0  0  0  0  0  0  0  0  0  0
   -5.2430   24.6868  -28.9201 H   0  0  0  0  0  0  0  0  0  0  0  0
   -5.5540   25.9464  -30.1624 H   0  0  0  0  0  0  0  0  0  0  0  0
   -6.5144   24.4284  -30.1624 H   0  0  0  0  0  0  0  0  0  0  0  0
   -6.7410   22.7706  -31.4189 H   0  0  0  0  0  0  0  0  0  0  0  0
   -5.4661   18.2144  -31.2680 H   0  0  0  0  0  0  0  0  0  0  0  0
   -7.0200   17.3702  -30.8949 H   0  0  0  0  0  0  0  0  0  0  0  0
   -4.6490   16.4039  -32.3776 H   0  0  0  0  0  0  0  0  0  0  0  0
   -6.0108   15.4865  -31.6216 H   0  0  0  0  0  0  0  0  0  0  0  0
   -4.8022   16.9884  -34.6385 H   0  0  0  0  0  0  0  0  0  0  0  0
   -6.4543   16.9593  -35.3978 H   0  0  0  0  0  0  0  0  0  0  0  0
   -5.2209   19.0095  -33.7001 H   0  0  0  0  0  0  0  0  0  0  0  0
   -6.7201   19.0772  -34.6945 H   0  0  0  0  0  0  0  0  0  0  0  0
   -4.5586   19.1007  -32.1136 H   0  0  0  0  0  0  0  0  0  0  0  0
   -2.4159   20.2862  -31.6637 H   0  0  0  0  0  0  0  0  0  0  0  0
   -2.7730   25.1980  -29.9730 H   0  0  0  0  0  0  0  0  0  0  0  0
   -3.4855   24.1205  -27.1487 H   0  0  0  0  0  0  0  0  0  0  0  0
   -3.0604   25.0317  -24.8670 H   0  0  0  0  0  0  0  0  0  0  0  0
    0.2517   27.3536  -26.4087 H   0  0  0  0  0  0  0  0  0  0  0  0
   -0.1687   26.4403  -28.6927 H   0  0  0  0  0  0  0  0  0  0  0  0
  1  2  1  0
  2  3  1  0
  3  4  2  0
  4  5  1  0
  5  6  1  0
  6  7  2  0
  6  8  2  0
  6  9  1  0
  9 10  1  0
 10 11  1  0
 11 12  1  0
 12 13  1  0
 13 14  1  0
  5 15  2  0
 15 16  1  0
 16 17  2  0
 17 18  1  0
 18 19  1  0
 19 20  2  0
 19 21  1  0
 21 22  1  0
 22 23  2  0
 23 24  1  0
 24 25  2  0
 25 26  1  0
 26 27  3  0
 25 28  1  0
 28 29  2  0
 17  3  1  0
 29 22  1  0
 14  9  1  0
  1 30  1  0
  1 31  1  0
  1 32  1  0
  4 33  1  0
 10 34  1  0
 10 35  1  0
 11 36  1  0
 11 37  1  0
 13 38  1  0
 13 39  1  0
 14 40  1  0
 14 41  1  0
 15 42  1  0
 16 43  1  0
 21 44  1  0
 23 45  1  0
 24 46  1  0
 28 47  1  0
 29 48  1  0
M  CHG  1  18  -1
M  END
>  <UniqueID>  (3) 
3

>  <SMILES>  (3) 
COc1cc(S(=O)(=O)N2CCOCC2)ccc1[N-]C(=O)Nc1ccc(C#N)cc1

>  <Energy>  (3) 
63.937169044844815

>  <Genealogy>  (3) 
COc1cc(S(=O)(=O)N2CCOCC2)ccc1[N-]C(=O)Nc1ccc(C#N)cc1 (protonated)
COc1cc(S(=O)(=O)N2CCOCC2)ccc1[N-]C(=O)Nc1ccc(C#N)cc1 (3D coordinates assigned)
COc1cc(S(=O)(=O)N2CCOCC2)ccc1[N-]C(=O)Nc1ccc(C#N)cc1 (nonaromatic ring conformer: 63.937169044844815 kcal/mol)

>  <smiles>  (3) 
COc1cc(S(=O)(=O)N2CCOCC2)ccc1NC(=O)Nc1ccc(C#N)cc1

>  <score_type>  (3) 
oracle

>  <origin>  (3) 
adgpu

>  <m_score__min__energy>  (3) 
-10.91

>  <m_primary>  (3) 
energy

$$$$
3:0
     RDKit          3D

 44 46  0  0  0  0  0  0  0  0999 V2000
   -3.6330   20.6690  -33.6840 O   0  0  0  0  0  0  0  0  0  0  0  0
   -3.0790   20.1170  -32.6970 C   0  0  0  0  0  0  0  0  0  0  0  0
   -3.7540   20.1860  -31.3550 C   0  0  0  0  0  0  0  0  0  0  0  0
   -4.4770   21.4530  -31.2210 N   0  0  0  0  0  0  0  0  0  0  0  0
   -3.8350   22.6030  -30.6420 C   0  0  0  0  0  0  0  0  0  0  0  0
   -2.4950   22.5300  -30.2230 C   0  0  0  0  0  0  0  0  0  0  0  0
   -1.8700   23.6490  -29.6610 C   0  0  0  0  0  0  0  0  0  0  0  0
   -2.5760   24.8470  -29.5160 C   0  0  0  0  0  0  0  0  0  0  0  0
   -1.9530   25.9580  -28.9580 O   0  0  0  0  0  0  0  0  0  0  0  0
   -3.9070   24.9270  -29.9330 C   0  0  0  0  0  0  0  0  0  0  0  0
   -4.5350   23.8110  -30.4950 C   0  0  0  0  0  0  0  0  0  0  0  0
   -6.1710   21.5200  -31.6220 S   0  0  0  0  0  0  0  0  0  0  0  0
   -6.9440   21.9480  -30.4060 O   0  0  0  0  0  0  0  0  0  0  0  0
   -6.3970   22.5170  -32.7240 O   0  0  0  0  0  0  0  0  0  0  0  0
   -6.7320   19.9450  -32.1810 C   0  0  0  0  0  0  0  0  0  0  0  0
   -7.8180   19.3110  -31.5610 C   0  0  0  0  0  0  0  0  0  0  0  0
   -8.2450   18.0550  -32.0040 C   0  0  0  0  0  0  0  0  0  0  0  0
   -7.5890   17.4270  -33.0680 C   0  0  0  0  0  0  0  0  0  0  0  0
   -6.5150   18.0610  -33.6980 C   0  0  0  0  0  0  0  0  0  0  0  0
   -6.0920   19.3210  -33.2630 C   0  0  0  0  0  0  0  0  0  0  0  0
   -1.7740   19.5440  -32.8700 N   0  0  0  0  0  0  0  0  0  0  0  0
   -0.6660   20.1320  -33.5630 C   0  0  0  0  0  0  0  0  0  0  0  0
    0.5980   19.5410  -33.4430 C   0  0  0  0  0  0  0  0  0  0  0  0
    1.7030   20.0980  -34.0940 C   0  0  0  0  0  0  0  0  0  0  0  0
    1.5550   21.2590  -34.8570 C   0  0  0  0  0  0  0  0  0  0  0  0
    0.3050   21.8800  -34.9540 C   0  0  0  0  0  0  0  0  0  0  0  0
    0.1750   23.0490  -35.7000 O   0  0  0  0  0  0  0  0  0  0  0  0
   -0.8010   21.3250  -34.2940 C   0  0  0  0  0  0  0  0  0  0  0  0
   -4.4632   19.3504  -31.2608 H   0  0  0  0  0  0  0  0  0  0  0  0
   -2.9920   20.1203  -30.5644 H   0  0  0  0  0  0  0  0  0  0  0  0
   -1.9356   21.5898  -30.3373 H   0  0  0  0  0  0  0  0  0  0  0  0
   -0.8220   23.5859  -29.3329 H   0  0  0  0  0  0  0  0  0  0  0  0
   -4.4621   25.8698  -29.8190 H   0  0  0  0  0  0  0  0  0  0  0  0
   -5.5825   23.8800  -30.8235 H   0  0  0  0  0  0  0  0  0  0  0  0
   -8.3355   19.8027  -30.7241 H   0  0  0  0  0  0  0  0  0  0  0  0
   -9.0975   17.5605  -31.5153 H   0  0  0  0  0  0  0  0  0  0  0  0
   -7.9186   16.4343  -33.4086 H   0  0  0  0  0  0  0  0  0  0  0  0
   -6.0017   17.5685  -34.5370 H   0  0  0  0  0  0  0  0  0  0  0  0
   -5.2556   19.8242  -33.7701 H   0  0  0  0  0  0  0  0  0  0  0  0
    0.7221   18.6338  -32.8334 H   0  0  0  0  0  0  0  0  0  0  0  0
    2.6904   19.6214  -34.0053 H   0  0  0  0  0  0  0  0  0  0  0  0
    2.4224   21.6854  -35.3822 H   0  0  0  0  0  0  0  0  0  0  0  0
   -0.7180   23.3340  -36.0850 H   0  0  0  0  0  0  0  0  0  0  0  0
   -1.7789   21.8257  -34.3486 H   0  0  0  0  0  0  0  0  0  0  0  0
  1  2  2  0
  2  3  1  0
  3  4  1  0
  4  5  1  0
  5  6  2  0
  6  7  1  0
  7  8  2  0
  8  9  1  0
  8 10  1  0
 10 11  2  0
  4 12  1  0
 12 13  2  0
 12 14  2  0
 12 15  1  0
 15 16  2  0
 16 17  1  0
 17 18  2  0
 18 19  1  0
 19 20  2  0
  2 21  1  0
 21 22  1  0
 22 23  2  0
 23 24  1  0
 24 25  2  0
 25 26  1  0
 26 27  1  0
 26 28  2  0
 11  5  1  0
 20 15  1  0
 28 22  1  0
  3 29  1  0
  3 30  1  0
  6 31  1  0
  7 32  1  0
 10 33  1  0
 11 34  1  0
 16 35  1  0
 17 36  1  0
 18 37  1  0
 19 38  1  0
 20 39  1  0
 23 40  1  0
 24 41  1  0
 25 42  1  0
 27 43  1  0
 28 44  1  0
M  CHG  2   9  -1  21  -1
M  END
>  <UniqueID>  (4) 
4

>  <SMILES>  (4) 
O=C(CN(c1ccc([O-])cc1)S(=O)(=O)c1ccccc1)[N-]c1cccc(O)c1

>  <Energy>  (4) 
52.80567920527985

>  <Genealogy>  (4) 
O=C(CN(c1ccc([O-])cc1)S(=O)(=O)c1ccccc1)[N-]c1cccc(O)c1 (protonated)
O=C(CN(c1ccc([O-])cc1)S(=O)(=O)c1ccccc1)[N-]c1cccc(O)c1 (3D coordinates assigned)
O=C(CN(c1ccc([O-])cc1)S(=O)(=O)c1ccccc1)[N-]c1cccc(O)c1 (optimized conformer: 52.80567920527985 kcal/mol)

>  <smiles>  (4) 
O=C(CN(c1ccc(O)cc1)S(=O)(=O)c1ccccc1)Nc1cccc(O)c1

>  <score_type>  (4) 
oracle

>  <origin>  (4) 
adgpu

>  <m_score__min__energy>  (4) 
-10.42

>  <m_primary>  (4) 
energy

$$$$
4:0
     RDKit          3D

 46 49  0  0  0  0  0  0  0  0999 V2000
   -1.1360   26.4280  -28.2280 C   0  0  0  0  0  0  0  0  0  0  0  0
   -1.9230   25.4930  -28.9590 O   0  0  0  0  0  0  0  0  0  0  0  0
   -2.0840   24.1430  -28.6090 C   0  0  0  0  0  0  0  0  0  0  0  0
   -1.0870   23.4340  -27.9100 C   0  0  0  0  0  0  0  0  0  0  0  0
   -1.2870   22.0980  -27.5530 C   0  0  0  0  0  0  0  0  0  0  0  0
   -2.4850   21.4590  -27.8790 C   0  0  0  0  0  0  0  0  0  0  0  0
   -2.7390   19.7860  -27.4190 Cl  0  0  0  0  0  0  0  0  0  0  0  0
   -3.4790   22.1510  -28.5740 C   0  0  0  0  0  0  0  0  0  0  0  0
   -3.2780   23.4840  -28.9640 C   0  0  0  0  0  0  0  0  0  0  0  0
   -4.5270   24.3270  -29.8870 S   0  0  0  0  0  0  0  0  0  0  0  0
   -3.8580   25.3320  -30.7820 O   0  0  0  0  0  0  0  0  0  0  0  0
   -5.4680   25.0480  -28.9640 O   0  0  0  0  0  0  0  0  0  0  0  0
   -5.4230   23.2070  -30.8630 N   0  0  0  0  0  0  0  0  0  0  0  0
   -4.7920   22.2370  -31.7040 C   0  0  0  0  0  0  0  0  0  0  0  0
   -3.4410   22.4200  -32.0290 C   0  0  0  0  0  0  0  0  0  0  0  0
   -2.7540   21.4500  -32.7610 C   0  0  0  0  0  0  0  0  0  0  0  0
   -1.4350   21.6040  -33.0500 N   0  0  0  0  0  0  0  0  0  0  0  0
   -0.7570   20.6630  -33.7590 C   0  0  0  0  0  0  0  0  0  0  0  0
    0.4650   20.8260  -34.0140 O   0  0  0  0  0  0  0  0  0  0  0  0
   -1.4270   19.5170  -34.2010 C   0  0  0  0  0  0  0  0  0  0  0  0
   -2.7460   19.3590  -33.9150 N   0  0  0  0  0  0  0  0  0  0  0  0
   -3.4270   20.2950  -33.2020 C   0  0  0  0  0  0  0  0  0  0  0  0
   -4.7850   20.1280  -32.9220 C   0  0  0  0  0  0  0  0  0  0  0  0
   -5.4840   21.0980  -32.1810 C   0  0  0  0  0  0  0  0  0  0  0  0
   -6.9050   20.9710  -32.0080 N   0  0  0  0  0  0  0  0  0  0  0  0
   -7.7940   22.1210  -31.9930 C   0  0  0  0  0  0  0  0  0  0  0  0
   -9.1980   21.5510  -31.8570 C   0  0  0  0  0  0  0  0  0  0  0  0
   -9.0940   20.0820  -32.2550 C   0  0  0  0  0  0  0  0  0  0  0  0
   -7.6220   19.7110  -32.1220 C   0  0  0  0  0  0  0  0  0  0  0  0
   -1.2762   26.2615  -27.1498 H   0  0  0  0  0  0  0  0  0  0  0  0
   -0.0748   26.2940  -28.4848 H   0  0  0  0  0  0  0  0  0  0  0  0
   -1.4491   27.4508  -28.4848 H   0  0  0  0  0  0  0  0  0  0  0  0
   -0.1450   23.9356  -27.6436 H   0  0  0  0  0  0  0  0  0  0  0  0
   -0.5001   21.5492  -27.0148 H   0  0  0  0  0  0  0  0  0  0  0  0
   -4.4263   21.6477  -28.8175 H   0  0  0  0  0  0  0  0  0  0  0  0
   -2.9193   23.3328  -31.7056 H   0  0  0  0  0  0  0  0  0  0  0  0
   -0.8895   18.7488  -34.7763 H   0  0  0  0  0  0  0  0  0  0  0  0
   -5.3113   19.2322  -33.2832 H   0  0  0  0  0  0  0  0  0  0  0  0
   -7.5610   22.7754  -31.1401 H   0  0  0  0  0  0  0  0  0  0  0  0
   -7.6881   22.7293  -32.9034 H   0  0  0  0  0  0  0  0  0  0  0  0
   -9.5488   21.6420  -30.8184 H   0  0  0  0  0  0  0  0  0  0  0  0
   -9.9161   22.0912  -32.4915 H   0  0  0  0  0  0  0  0  0  0  0  0
   -9.7063   19.4607  -31.5849 H   0  0  0  0  0  0  0  0  0  0  0  0
   -9.4590   19.9165  -33.2794 H   0  0  0  0  0  0  0  0  0  0  0  0
   -7.4615   19.0962  -31.2241 H   0  0  0  0  0  0  0  0  0  0  0  0
   -7.2731   19.1229  -32.9837 H   0  0  0  0  0  0  0  0  0  0  0  0
  1  2  1  0
  2  3  1  0
  3  4  2  0
  4  5  1  0
  5  6  2  0
  6  7  1  0
  6  8  1  0
  8  9  2  0
  9 10  1  0
 10 11  2  0
 10 12  2  0
 10 13  1  0
 13 14  1  0
 14 15  2  0
 15 16  1  0
 16 17  1  0
 17 18  1  0
 18 19  2  0
 18 20  1  0
 20 21  2  0
 21 22  1  0
 22 23  1  0
 23 24  2  0
 24 25  1  0
 25 26  1  0
 26 27  1  0
 27 28  1  0
 28 29  1  0
  9  3  1  0
 24 14  1  0
 29 25  1  0
 22 16  2  0
  1 30  1  0
  1 31  1  0
  1 32  1  0
  4 33  1  0
  5 34  1  0
  8 35  1  0
 15 36  1  0
 20 37  1  0
 23 38  1  0
 26 39  1  0
 26 40  1  0
 27 41  1  0
 27 42  1  0
 28 43  1  0
 28 44  1  0
 29 45  1  0
 29 46  1  0
M  CHG  2  13  -1  17  -1
M  END
>  <UniqueID>  (5) 
5

>  <SMILES>  (5) 
COc1ccc(Cl)cc1S(=O)(=O)[N-]c1cc2[n-]c(=O)cnc2cc1N1CCCC1

>  <Energy>  (5) 
64.46963895676035

>  <Genealogy>  (5) 
COc1ccc(Cl)cc1S(=O)(=O)[N-]c1cc2[n-]c(=O)cnc2cc1N1CCCC1 (protonated)
COc1ccc(Cl)cc1S(=O)(=O)[N-]c1cc2[n-]c(=O)cnc2cc1N1CCCC1 (3D coordinates assigned)
COc1ccc(Cl)cc1S(=O)(=O)[N-]c1cc2[n-]c(=O)cnc2cc1N1CCCC1 (nonaromatic ring conformer: 64.46963895676035 kcal/mol)

>  <smiles>  (5) 
COc1ccc(Cl)cc1S(=O)(=O)Nc1cc2[nH]c(=O)cnc2cc1N1CCCC1

>  <score_type>  (5) 
oracle

>  <origin>  (5) 
adgpu

>  <m_score__min__energy>  (5) 
-10.609999999999999

>  <m_primary>  (5) 
energy

$$$$
5:0
     RDKit          3D

 76 80  0  0  1  0  0  0  0  0999 V2000
   -5.0480   25.5610  -30.4420 C   0  0  0  0  0  0  0  0  0  0  0  0
   -5.8630   24.4050  -30.8660 C   0  0  0  0  0  0  0  0  0  0  0  0
   -7.2400   24.4950  -30.8470 C   0  0  0  0  0  0  0  0  0  0  0  0
   -7.9510   23.4210  -31.2400 N   0  0  0  0  0  0  0  0  0  0  0  0
   -7.3530   22.2840  -31.6430 C   0  0  0  0  0  0  0  0  0  0  0  0
   -8.1260   21.3160  -31.9990 N   0  0  0  0  0  0  0  0  0  0  0  0
   -7.5590   20.0870  -32.4360 C   0  0  0  0  0  0  0  0  0  0  0  0
   -6.7940   20.1550  -33.6040 C   0  0  0  0  0  0  0  0  0  0  0  0
   -6.1830   19.0570  -34.1540 C   0  0  0  0  0  0  0  0  0  0  0  0
   -6.3370   17.8300  -33.5130 C   0  0  0  0  0  0  0  0  0  0  0  0
   -5.7090   16.6310  -34.0530 C   0  0  0  0  0  0  0  0  0  0  0  0
   -6.2800   15.3580  -33.7770 N   0  0  0  0  0  0  0  0  0  0  0  0
   -4.6550   16.6890  -34.7710 O   0  0  0  0  0  0  0  0  0  0  0  0
   -7.0940   17.7860  -32.3650 C   0  0  0  0  0  0  0  0  0  0  0  0
   -7.7080   18.8910  -31.8130 C   0  0  0  0  0  0  0  0  0  0  0  0
   -6.0170   22.2150  -31.6550 N   0  0  0  0  0  0  0  0  0  0  0  0
   -5.2420   23.2460  -31.2770 C   0  0  0  0  0  0  0  0  0  0  0  0
   -3.9580   23.2250  -31.2740 N   0  0  0  0  0  0  0  0  0  0  0  0
   -3.3120   22.0340  -31.6950 C   0  0  0  0  0  0  0  0  0  0  0  0
   -3.5430   21.6600  -33.0240 C   0  0  0  0  0  0  0  0  0  0  0  0
   -2.9820   20.5360  -33.5500 C   0  0  0  0  0  0  0  0  0  0  0  0
   -2.1680   19.7340  -32.7780 C   0  0  0  0  0  0  0  0  0  0  0  0
   -1.5380   18.5160  -33.2730 C   0  0  0  0  0  0  0  0  0  0  0  0
   -0.3120   18.2780  -33.0670 O   0  0  0  0  0  0  0  0  0  0  0  0
   -2.2530   17.5320  -34.0100 N   0  0  0  0  0  0  0  0  0  0  0  0
   -1.5600   16.3700  -34.4570 C   0  0  0  0  0  0  0  0  0  0  0  0
   -1.4300   15.2280  -33.6930 C   0  0  0  0  0  0  0  0  0  0  0  0
   -0.7570   14.1020  -34.1330 C   0  0  0  0  0  0  0  0  0  0  0  0
   -0.6180   12.8860  -33.2970 C   0  0  0  0  0  0  0  0  0  0  0  0
   -1.8180   12.1140  -33.3110 N   0  0  0  0  0  0  0  0  0  0  0  0
   -2.3520   11.7570  -32.0390 C   0  0  0  0  0  0  0  0  0  0  0  0
   -3.0390   12.9080  -31.3390 C   0  0  0  0  0  0  0  0  0  0  0  0
   -3.7770   13.7910  -32.3420 C   0  0  0  0  0  0  0  0  0  0  0  0
   -4.0990   12.8920  -33.5140 C   0  0  0  0  0  0  0  0  0  0  0  0
   -2.8040   12.6020  -34.2390 C   0  0  0  0  0  0  0  0  0  0  0  0
   -0.2120   14.1950  -35.4160 C   0  0  0  0  0  0  0  0  0  0  0  0
   -0.3300   15.3180  -36.1910 C   0  0  0  0  0  0  0  0  0  0  0  0
    0.2830   15.3280  -37.5500 C   0  0  0  0  0  0  0  0  0  0  0  0
    1.4520   14.6250  -37.6000 F   0  0  0  0  0  0  0  0  0  0  0  0
   -0.6400   14.7820  -38.4510 F   0  0  0  0  0  0  0  0  0  0  0  0
    0.5140   16.6320  -37.8970 F   0  0  0  0  0  0  0  0  0  0  0  0
   -1.0080   16.4240  -35.7220 C   0  0  0  0  0  0  0  0  0  0  0  0
   -1.9390   20.1020  -31.4640 C   0  0  0  0  0  0  0  0  0  0  0  0
   -2.5140   21.2570  -30.9200 C   0  0  0  0  0  0  0  0  0  0  0  0
   -5.0172   25.6047  -29.3433 H   0  0  0  0  0  0  0  0  0  0  0  0
   -4.0258   25.4522  -30.8334 H   0  0  0  0  0  0  0  0  0  0  0  0
   -5.4939   26.4873  -30.8334 H   0  0  0  0  0  0  0  0  0  0  0  0
   -7.7423   25.4175  -30.5202 H   0  0  0  0  0  0  0  0  0  0  0  0
   -9.0090   23.5200  -31.2140 H   0  0  0  0  0  0  0  0  0  0  0  0
   -6.6773   21.1287  -34.1023 H   0  0  0  0  0  0  0  0  0  0  0  0
   -5.5882   19.1430  -35.0753 H   0  0  0  0  0  0  0  0  0  0  0  0
   -5.9460   14.7430  -32.9880 H   0  0  0  0  0  0  0  0  0  0  0  0
   -7.0640   14.9600  -34.3400 H   0  0  0  0  0  0  0  0  0  0  0  0
   -7.2163   16.8166  -31.8597 H   0  0  0  0  0  0  0  0  0  0  0  0
   -8.3029   18.8048  -30.8918 H   0  0  0  0  0  0  0  0  0  0  0  0
   -5.5750   21.3260  -31.9700 H   0  0  0  0  0  0  0  0  0  0  0  0
   -4.1902   22.2861  -33.6558 H   0  0  0  0  0  0  0  0  0  0  0  0
   -3.1795   20.2660  -34.5979 H   0  0  0  0  0  0  0  0  0  0  0  0
   -3.2670   17.6510  -34.2230 H   0  0  0  0  0  0  0  0  0  0  0  0
   -1.8814   15.2123  -32.6900 H   0  0  0  0  0  0  0  0  0  0  0  0
    0.2079   12.2736  -33.6879 H   0  0  0  0  0  0  0  0  0  0  0  0
   -0.4131   13.1951  -32.2614 H   0  0  0  0  0  0  0  0  0  0  0  0
   -3.0830   10.9474  -32.1811 H   0  0  0  0  0  0  0  0  0  0  0  0
   -1.5087   11.4446  -31.4056 H   0  0  0  0  0  0  0  0  0  0  0  0
   -3.7606   12.5083  -30.6113 H   0  0  0  0  0  0  0  0  0  0  0  0
   -2.2768   13.5155  -30.8290 H   0  0  0  0  0  0  0  0  0  0  0  0
   -4.7014   14.1879  -31.8970 H   0  0  0  0  0  0  0  0  0  0  0  0
   -3.1700   14.6562  -32.6470 H   0  0  0  0  0  0  0  0  0  0  0  0
   -4.5458   11.9532  -33.1547 H   0  0  0  0  0  0  0  0  0  0  0  0
   -4.8177   13.3802  -34.1886 H   0  0  0  0  0  0  0  0  0  0  0  0
   -2.9827   11.8417  -35.0136 H   0  0  0  0  0  0  0  0  0  0  0  0
   -2.4351   13.5286  -34.7031 H   0  0  0  0  0  0  0  0  0  0  0  0
    0.3346   13.3304  -35.8205 H   0  0  0  0  0  0  0  0  0  0  0  0
   -1.1067   17.3279  -36.3410 H   0  0  0  0  0  0  0  0  0  0  0  0
   -1.2919   19.4743  -30.8338 H   0  0  0  0  0  0  0  0  0  0  0  0
   -2.3203   21.5323  -29.8728 H   0  0  0  0  0  0  0  0  0  0  0  0
  1  2  1  0
  2  3  2  0
  3  4  1  0
  4  5  1  0
  5  6  2  0
  6  7  1  0
  7  8  2  0
  8  9  1  0
  9 10  2  0
 10 11  1  0
 11 12  1  0
 11 13  2  0
 10 14  1  0
 14 15  2  0
  5 16  1  0
 16 17  1  0
 17 18  2  0
 18 19  1  0
 19 20  2  0
 20 21  1  0
 21 22  2  0
 22 23  1  0
 23 24  2  0
 23 25  1  0
 25 26  1  0
 26 27  2  0
 27 28  1  0
 28 29  1  0
 29 30  1  0
 30 31  1  0
 31 32  1  0
 32 33  1  0
 33 34  1  0
 34 35  1  0
 28 36  2  0
 36 37  1  0
 37 38  1  0
 38 39  1  0
 38 40  1  0
 38 41  1  0
 37 42  2  0
 22 43  1  0
 43 44  2  0
 17  2  1  0
 44 19  1  0
 15  7  1  0
 42 26  1  0
 35 30  1  0
  1 45  1  0
  1 46  1  0
  1 47  1  0
  3 48  1  0
  4 49  1  0
  8 50  1  0
  9 51  1  0
 12 52  1  0
 12 53  1  0
 14 54  1  0
 15 55  1  0
 16 56  1  0
 20 57  1  0
 21 58  1  0
 25 59  1  0
 27 60  1  0
 29 61  1  0
 29 62  1  0
 31 63  1  0
 31 64  1  0
 32 65  1  0
 32 66  1  0
 33 67  1  0
 33 68  1  0
 34 69  1  0
 34 70  1  0
 35 71  1  0
 35 72  1  0
 36 73  1  0
 42 74  1  0
 43 75  1  0
 44 76  1  0
M  END
>  <smiles>  (6) 
Cc1c[nH]c(=Nc2ccc(C(N)=O)cc2)[nH]c1=Nc1ccc(C(=O)Nc2cc(CN3CCCCC3)cc(C(F)(F)F)c2)cc1

>  <score_type>  (6) 
oracle

>  <origin>  (6) 
adgpu

>  <m_score__min__energy>  (6) 
-10.19

>  <m_primary>  (6) 
energy

$$$$
6:0
     RDKit          3D

 42 45  0  0  0  0  0  0  0  0999 V2000
   -6.4630   16.6430  -34.1820 C   0  0  0  0  0  0  0  0  0  0  0  0
   -6.1140   17.0940  -32.7660 C   0  0  0  0  0  0  0  0  0  0  0  0
   -6.3540   18.5440  -32.6120 N   0  0  0  0  0  0  0  0  0  0  0  0
   -7.5880   18.9920  -32.2260 C   0  0  0  0  0  0  0  0  0  0  0  0
   -8.5110   18.1660  -31.9760 O   0  0  0  0  0  0  0  0  0  0  0  0
   -7.8390   20.3650  -32.1190 C   0  0  0  0  0  0  0  0  0  0  0  0
   -9.1080   20.8430  -31.7340 C   0  0  0  0  0  0  0  0  0  0  0  0
   -9.3530   22.2120  -31.6520 C   0  0  0  0  0  0  0  0  0  0  0  0
   -8.3420   23.1190  -31.9560 C   0  0  0  0  0  0  0  0  0  0  0  0
   -7.0790   22.6630  -32.3370 C   0  0  0  0  0  0  0  0  0  0  0  0
   -6.7970   21.2740  -32.4160 C   0  0  0  0  0  0  0  0  0  0  0  0
   -5.5560   20.7950  -32.7850 N   0  0  0  0  0  0  0  0  0  0  0  0
   -4.4360   21.7150  -33.0970 C   0  0  0  0  0  0  0  0  0  0  0  0
   -3.7440   22.1540  -31.8360 C   0  0  0  0  0  0  0  0  0  0  0  0
   -2.3850   21.9070  -31.6410 C   0  0  0  0  0  0  0  0  0  0  0  0
   -1.7780   22.3510  -30.4640 C   0  0  0  0  0  0  0  0  0  0  0  0
   -0.5500   22.1170  -30.2900 O   0  0  0  0  0  0  0  0  0  0  0  0
   -2.5110   23.0290  -29.5200 N   0  0  0  0  0  0  0  0  0  0  0  0
   -1.9260   23.4680  -28.3590 C   0  0  0  0  0  0  0  0  0  0  0  0
   -2.6710   24.1600  -27.4030 C   0  0  0  0  0  0  0  0  0  0  0  0
   -4.0220   24.4080  -27.6300 C   0  0  0  0  0  0  0  0  0  0  0  0
   -4.6160   23.9630  -28.8080 C   0  0  0  0  0  0  0  0  0  0  0  0
   -3.8490   23.2720  -29.7490 C   0  0  0  0  0  0  0  0  0  0  0  0
   -4.4380   22.8400  -30.8930 N   0  0  0  0  0  0  0  0  0  0  0  0
   -5.3570   19.4380  -32.9140 C   0  0  0  0  0  0  0  0  0  0  0  0
   -4.2430   19.0050  -33.3250 O   0  0  0  0  0  0  0  0  0  0  0  0
   -7.1356   15.7739  -34.1347 H   0  0  0  0  0  0  0  0  0  0  0  0
   -6.9628   17.4647  -34.7158 H   0  0  0  0  0  0  0  0  0  0  0  0
   -5.5421   16.3654  -34.7158 H   0  0  0  0  0  0  0  0  0  0  0  0
   -6.7392   16.5449  -32.0465 H   0  0  0  0  0  0  0  0  0  0  0  0
   -5.0501   16.8871  -32.5782 H   0  0  0  0  0  0  0  0  0  0  0  0
   -9.9109   20.1296  -31.4965 H   0  0  0  0  0  0  0  0  0  0  0  0
  -10.3452   22.5760  -31.3471 H   0  0  0  0  0  0  0  0  0  0  0  0
   -8.5391   24.1995  -31.8958 H   0  0  0  0  0  0  0  0  0  0  0  0
   -6.2906   23.3907  -32.5796 H   0  0  0  0  0  0  0  0  0  0  0  0
   -3.7130   21.1976  -33.7447 H   0  0  0  0  0  0  0  0  0  0  0  0
   -4.8380   22.6023  -33.6080 H   0  0  0  0  0  0  0  0  0  0  0  0
   -1.8002   21.3706  -32.4027 H   0  0  0  0  0  0  0  0  0  0  0  0
   -0.8585   23.2724  -28.1799 H   0  0  0  0  0  0  0  0  0  0  0  0
   -2.1933   24.5076  -26.4751 H   0  0  0  0  0  0  0  0  0  0  0  0
   -4.6172   24.9528  -26.8824 H   0  0  0  0  0  0  0  0  0  0  0  0
   -5.6827   24.1544  -28.9965 H   0  0  0  0  0  0  0  0  0  0  0  0
  1  2  1  0
  2  3  1  0
  3  4  1  0
  4  5  2  0
  4  6  1  0
  6  7  2  0
  7  8  1  0
  8  9  2  0
  9 10  1  0
 10 11  2  0
 11 12  1  0
 12 13  1  0
 13 14  1  0
 14 15  2  0
 15 16  1  0
 16 17  2  0
 16 18  1  0
 18 19  1  0
 19 20  2  0
 20 21  1  0
 21 22  2  0
 22 23  1  0
 23 24  2  0
 12 25  1  0
 25 26  2  0
 25  3  1  0
 11  6  1  0
 24 14  1  0
 23 18  1  0
  1 27  1  0
  1 28  1  0
  1 29  1  0
  2 30  1  0
  2 31  1  0
  7 32  1  0
  8 33  1  0
  9 34  1  0
 10 35  1  0
 13 36  1  0
 13 37  1  0
 15 38  1  0
 19 39  1  0
 20 40  1  0
 21 41  1  0
 22 42  1  0
M  END
>  <UniqueID>  (7) 
6

>  <SMILES>  (7) 
CCn1c(=O)c2ccccc2n(Cc2cc(=O)n3ccccc3n2)c1=O

>  <Energy>  (7) 
64.02306672587169

>  <Genealogy>  (7) 
CCn1c(=O)c2ccccc2n(Cc2cc(=O)n3ccccc3n2)c1=O (3D coordinates assigned)
CCn1c(=O)c2ccccc2n(Cc2cc(=O)n3ccccc3n2)c1=O (optimized conformer: 64.02306672587169 kcal/mol)

>  <smiles>  (7) 
CCn1c(=O)c2ccccc2n(Cc2cc(=O)n3ccccc3n2)c1=O

>  <score_type>  (7) 
oracle

>  <origin>  (7) 
adgpu

>  <m_score__min__energy>  (7) 
-8.5399999999999991

>  <m_primary>  (7) 
energy

$$$$
7:0
     RDKit          3D

 56 59  0  0  0  0  0  0  0  0999 V2000
   -3.4320   24.7630  -27.1920 O   0  0  0  0  0  0  0  0  0  0  0  0
   -2.5810   24.9320  -28.1020 C   0  0  0  0  0  0  0  0  0  0  0  0
   -3.0460   25.2970  -29.4090 N   0  0  0  0  0  0  0  0  0  0  0  0
   -4.1980   24.7650  -30.0780 C   0  0  0  0  0  0  0  0  0  0  0  0
   -5.4170   25.4650  -30.1170 C   0  0  0  0  0  0  0  0  0  0  0  0
   -6.5160   24.9270  -30.7920 C   0  0  0  0  0  0  0  0  0  0  0  0
   -6.4030   23.6960  -31.4430 C   0  0  0  0  0  0  0  0  0  0  0  0
   -5.1880   23.0000  -31.4300 C   0  0  0  0  0  0  0  0  0  0  0  0
   -5.0540   21.4610  -32.2790 S   0  0  0  0  0  0  0  0  0  0  0  0
   -4.1060   21.5940  -33.4390 O   0  0  0  0  0  0  0  0  0  0  0  0
   -4.5060   20.4340  -31.3270 O   0  0  0  0  0  0  0  0  0  0  0  0
   -6.6280   20.9620  -32.8520 N   0  0  0  0  0  0  0  0  0  0  0  0
   -7.5680   20.8740  -31.7070 C   0  0  0  0  0  0  0  0  0  0  0  0
   -8.7850   20.0030  -32.0400 C   0  0  0  0  0  0  0  0  0  0  0  0
   -8.3630   18.5560  -32.3470 C   0  0  0  0  0  0  0  0  0  0  0  0
   -6.9190   18.4570  -32.8690 C   0  0  0  0  0  0  0  0  0  0  0  0
   -6.5290   19.7140  -33.6610 C   0  0  0  0  0  0  0  0  0  0  0  0
   -4.0850   23.5450  -30.7550 C   0  0  0  0  0  0  0  0  0  0  0  0
   -1.1320   24.8340  -27.7900 C   0  0  0  0  0  0  0  0  0  0  0  0
   -0.5900   25.6650  -26.7940 C   0  0  0  0  0  0  0  0  0  0  0  0
    0.7760   25.6370  -26.5180 C   0  0  0  0  0  0  0  0  0  0  0  0
    1.6000   24.7790  -27.2410 C   0  0  0  0  0  0  0  0  0  0  0  0
    1.0700   23.9700  -28.1920 N   0  0  0  0  0  0  0  0  0  0  0  0
   -0.2600   23.9560  -28.4760 C   0  0  0  0  0  0  0  0  0  0  0  0
   -0.8350   22.8390  -29.7650 S   0  0  0  0  0  0  0  0  0  0  0  0
   -2.1430   22.0660  -28.7440 C   0  0  0  0  0  0  0  0  0  0  0  0
   -1.6810   20.7620  -28.1580 C   0  0  0  0  0  0  0  0  0  0  0  0
   -0.5300   20.1320  -28.6560 C   0  0  0  0  0  0  0  0  0  0  0  0
   -0.1350   18.9020  -28.1220 C   0  0  0  0  0  0  0  0  0  0  0  0
   -0.8650   18.3210  -27.1340 N   0  0  0  0  0  0  0  0  0  0  0  0
   -1.9860   18.9070  -26.6370 C   0  0  0  0  0  0  0  0  0  0  0  0
   -2.4150   20.1380  -27.1390 C   0  0  0  0  0  0  0  0  0  0  0  0
   -5.5058   26.4394  -29.6144 H   0  0  0  0  0  0  0  0  0  0  0  0
   -7.4707   25.4731  -30.8108 H   0  0  0  0  0  0  0  0  0  0  0  0
   -7.2718   23.2719  -31.9678 H   0  0  0  0  0  0  0  0  0  0  0  0
   -6.9680   21.7240  -33.4850 H   0  0  0  0  0  0  0  0  0  0  0  0
   -7.0414   20.4369  -30.8459 H   0  0  0  0  0  0  0  0  0  0  0  0
   -7.9245   21.8888  -31.4765 H   0  0  0  0  0  0  0  0  0  0  0  0
   -9.4721   20.0023  -31.1810 H   0  0  0  0  0  0  0  0  0  0  0  0
   -9.2794   20.4191  -32.9302 H   0  0  0  0  0  0  0  0  0  0  0  0
   -8.4454   17.9621  -31.4247 H   0  0  0  0  0  0  0  0  0  0  0  0
   -9.0285   18.1760  -33.1361 H   0  0  0  0  0  0  0  0  0  0  0  0
   -6.2353   18.3443  -32.0147 H   0  0  0  0  0  0  0  0  0  0  0  0
   -6.8487   17.5869  -33.5384 H   0  0  0  0  0  0  0  0  0  0  0  0
   -5.4914   19.6022  -34.0086 H   0  0  0  0  0  0  0  0  0  0  0  0
   -7.2335   19.8075  -34.5006 H   0  0  0  0  0  0  0  0  0  0  0  0
   -3.1242   23.0094  -30.7579 H   0  0  0  0  0  0  0  0  0  0  0  0
   -1.2480   26.3416  -26.2289 H   0  0  0  0  0  0  0  0  0  0  0  0
    1.1985   26.2862  -25.7369 H   0  0  0  0  0  0  0  0  0  0  0  0
    2.6814   24.7571  -27.0410 H   0  0  0  0  0  0  0  0  0  0  0  0
   -2.4106   22.7512  -27.9262 H   0  0  0  0  0  0  0  0  0  0  0  0
   -3.0130   21.8679  -29.3873 H   0  0  0  0  0  0  0  0  0  0  0  0
    0.0561   20.6020  -29.4595 H   0  0  0  0  0  0  0  0  0  0  0  0
    0.7687   18.4033  -28.5024 H   0  0  0  0  0  0  0  0  0  0  0  0
   -2.5566   18.4110  -25.8380 H   0  0  0  0  0  0  0  0  0  0  0  0
   -3.3218   20.6143  -26.7380 H   0  0  0  0  0  0  0  0  0  0  0  0
  1  2  2  0
  2  3  1  0
  3  4  1  0
  4  5  2  0
  5  6  1  0
  6  7  2  0
  7  8  1  0
  8  9  1  0
  9 10  2  0
  9 11  2  0
  9 12  1  0
 12 13  1  0
 13 14  1  0
 14 15  1  0
 15 16  1  0
 16 17  1  0
  8 18  2  0
  2 19  1  0
 19 20  2  0
 20 21  1  0
 21 22  2  0
 22 23  1  0
 23 24  2  0
 24 25  1  0
 25 26  1  0
 26 27  1  0
 27 28  2  0
 28 29  1  0
 29 30  2  0
 30 31  1  0
 31 32  2  0
 18  4  1  0
 24 19  1  0
 32 27  1  0
 17 12  1  0
  5 33  1  0
  6 34  1  0
  7 35  1  0
 12 36  1  0
 13 37  1  0
 13 38  1  0
 14 39  1  0
 14 40  1  0
 15 41  1  0
 15 42  1  0
 16 43  1  0
 16 44  1  0
 17 45  1  0
 17 46  1  0
 18 47  1  0
 20 48  1  0
 21 49  1  0
 22 50  1  0
 26 51  1  0
 26 52  1  0
 28 53  1  0
 29 54  1  0
 31 55  1  0
 32 56  1  0
M  CHG  2   3  -1  12   1
M  END
>  <UniqueID>  (8) 
7

>  <SMILES>  (8) 
O=C([N-]c1cccc(S(=O)(=O)[NH+]2CCCCC2)c1)c1cccnc1SCc1ccncc1

>  <Energy>  (8) 
70.30196119737548

>  <Genealogy>  (8) 
O=C([N-]c1cccc(S(=O)(=O)[NH+]2CCCCC2)c1)c1cccnc1SCc1ccncc1 (protonated)
O=C([N-]c1cccc(S(=O)(=O)[NH+]2CCCCC2)c1)c1cccnc1SCc1ccncc1 (3D coordinates assigned)
O=C([N-]c1cccc(S(=O)(=O)[NH+]2CCCCC2)c1)c1cccnc1SCc1ccncc1 (nonaromatic ring conformer: 70.30196119737548 kcal/mol)

>  <smiles>  (8) 
O=C(Nc1cccc(S(=O)(=O)N2CCCCC2)c1)c1cccnc1SCc1ccncc1

>  <score_type>  (8) 
oracle

>  <origin>  (8) 
adgpu

>  <m_score__min__energy>  (8) 
-11.279999999999999

>  <m_primary>  (8) 
energy

$$$$
8:0
     RDKit          3D

 43 45  0  0  0  0  0  0  0  0999 V2000
   -8.2090   18.9670  -32.1380 C   0  0  0  0  0  0  0  0  0  0  0  0
   -7.6690   20.3490  -31.9200 C   0  0  0  0  0  0  0  0  0  0  0  0
   -8.4840   21.3460  -31.3670 C   0  0  0  0  0  0  0  0  0  0  0  0
   -7.9870   22.6380  -31.1830 C   0  0  0  0  0  0  0  0  0  0  0  0
   -6.6790   22.9580  -31.5660 C   0  0  0  0  0  0  0  0  0  0  0  0
   -6.0680   24.6090  -31.2020 S   0  0  0  0  0  0  0  0  0  0  0  0
   -4.8580   24.0140  -30.0200 C   0  0  0  0  0  0  0  0  0  0  0  0
   -5.1660   22.9360  -29.1850 C   0  0  0  0  0  0  0  0  0  0  0  0
   -4.2200   22.4710  -28.2700 C   0  0  0  0  0  0  0  0  0  0  0  0
   -2.9670   23.0840  -28.1800 C   0  0  0  0  0  0  0  0  0  0  0  0
   -2.6470   24.1750  -29.0100 C   0  0  0  0  0  0  0  0  0  0  0  0
   -1.3190   24.8270  -28.9160 C   0  0  0  0  0  0  0  0  0  0  0  0
   -1.2030   26.2480  -28.9710 N   0  0  0  0  0  0  0  0  0  0  0  0
   -0.2760   24.1310  -28.7870 O   0  0  0  0  0  0  0  0  0  0  0  0
   -3.6070   24.6370  -29.9280 C   0  0  0  0  0  0  0  0  0  0  0  0
   -5.8700   21.9720  -32.1770 C   0  0  0  0  0  0  0  0  0  0  0  0
   -4.5240   22.2370  -32.5900 N   0  0  0  0  0  0  0  0  0  0  0  0
   -3.4850   21.2580  -32.6640 C   0  0  0  0  0  0  0  0  0  0  0  0
   -2.7200   21.1010  -31.6770 O   0  0  0  0  0  0  0  0  0  0  0  0
   -3.3720   20.4060  -33.8110 N   0  0  0  0  0  0  0  0  0  0  0  0
   -3.1500   18.9900  -33.7650 C   0  0  0  0  0  0  0  0  0  0  0  0
   -1.9390   18.5220  -33.2310 C   0  0  0  0  0  0  0  0  0  0  0  0
   -1.0040   19.4010  -32.7920 F   0  0  0  0  0  0  0  0  0  0  0  0
   -1.6780   17.1510  -33.1640 C   0  0  0  0  0  0  0  0  0  0  0  0
   -2.6310   16.2350  -33.6120 C   0  0  0  0  0  0  0  0  0  0  0  0
   -3.8530   16.6870  -34.1140 C   0  0  0  0  0  0  0  0  0  0  0  0
   -4.1260   18.0580  -34.1860 C   0  0  0  0  0  0  0  0  0  0  0  0
   -5.7310   18.5510  -34.7140 Cl  0  0  0  0  0  0  0  0  0  0  0  0
   -6.3670   20.6710  -32.3280 C   0  0  0  0  0  0  0  0  0  0  0  0
   -8.3959   18.4887  -31.1652 H   0  0  0  0  0  0  0  0  0  0  0  0
   -9.1501   19.0262  -32.7043 H   0  0  0  0  0  0  0  0  0  0  0  0
   -7.4770   18.3724  -32.7043 H   0  0  0  0  0  0  0  0  0  0  0  0
   -9.5185   21.1101  -31.0770 H   0  0  0  0  0  0  0  0  0  0  0  0
   -8.6284   23.4104  -30.7335 H   0  0  0  0  0  0  0  0  0  0  0  0
   -6.1530   22.4546  -29.2490 H   0  0  0  0  0  0  0  0  0  0  0  0
   -4.4614   21.6191  -27.6174 H   0  0  0  0  0  0  0  0  0  0  0  0
   -2.2268   22.7117  -27.4565 H   0  0  0  0  0  0  0  0  0  0  0  0
   -0.8690   26.7260  -29.8370 H   0  0  0  0  0  0  0  0  0  0  0  0
   -3.3738   25.4932  -30.5780 H   0  0  0  0  0  0  0  0  0  0  0  0
   -0.7204   16.7932  -32.7577 H   0  0  0  0  0  0  0  0  0  0  0  0
   -2.4193   15.1564  -33.5696 H   0  0  0  0  0  0  0  0  0  0  0  0
   -4.6059   15.9611  -34.4550 H   0  0  0  0  0  0  0  0  0  0  0  0
   -5.7283   19.8931  -32.7718 H   0  0  0  0  0  0  0  0  0  0  0  0
  1  2  1  0
  2  3  2  0
  3  4  1  0
  4  5  2  0
  5  6  1  0
  6  7  1  0
  7  8  2  0
  8  9  1  0
  9 10  2  0
 10 11  1  0
 11 12  1  0
 12 13  1  0
 12 14  2  0
 11 15  2  0
  5 16  1  0
 16 17  1  0
 17 18  1  0
 18 19  2  0
 18 20  1  0
 20 21  1  0
 21 22  2  0
 22 23  1  0
 22 24  1  0
 24 25  2  0
 25 26  1  0
 26 27  2  0
 27 28  1  0
 16 29  2  0
 29  2  1  0
 15  7  1  0
 27 21  1  0
  1 30  1  0
  1 31  1  0
  1 32  1  0
  3 33  1  0
  4 34  1  0
  8 35  1  0
  9 36  1  0
 10 37  1  0
 13 38  1  0
 15 39  1  0
 24 40  1  0
 25 41  1  0
 26 42  1  0
 29 43  1  0
M  CHG  3  13  -1  17  -1  20  -1
M  END
>  <UniqueID>  (9) 
8

>  <SMILES>  (9) 
Cc1ccc(Sc2cccc(C([NH-])=O)c2)c([N-]C(=O)[N-]c2c(F)cccc2Cl)c1

>  <Energy>  (9) 
53.03852391983076

>  <Genealogy>  (9) 
Cc1ccc(Sc2cccc(C([NH-])=O)c2)c([N-]C(=O)[N-]c2c(F)cccc2Cl)c1 (protonated)
Cc1ccc(Sc2cccc(C([NH-])=O)c2)c([N-]C(=O)[N-]c2c(F)cccc2Cl)c1 (3D coordinates assigned)
Cc1ccc(Sc2cccc(C([NH-])=O)c2)c([N-]C(=O)[N-]c2c(F)cccc2Cl)c1 (optimized conformer: 53.03852391983076 kcal/mol)

>  <smiles>  (9) 
Cc1ccc(Sc2cccc(C(N)=O)c2)c(NC(=O)Nc2c(F)cccc2Cl)c1

>  <score_type>  (9) 
oracle

>  <origin>  (9) 
adgpu

>  <m_score__min__energy>  (9) 
-12.199999999999999

>  <m_primary>  (9) 
energy

$$$$
9:0
     RDKit          3D

 40 42  0  0  0  0  0  0  0  0999 V2000
   -1.8950   20.7070  -33.2160 C   0  0  0  0  0  0  0  0  0  0  0  0
   -2.5930   19.6920  -34.1200 C   0  0  0  0  0  0  0  0  0  0  0  0
   -3.0160   18.4250  -33.3630 C   0  0  0  0  0  0  0  0  0  0  0  0
   -4.5210   18.3090  -33.2430 C   0  0  0  0  0  0  0  0  0  0  0  0
   -5.2100   17.2320  -33.8390 C   0  0  0  0  0  0  0  0  0  0  0  0
   -4.5200   16.2450  -34.5360 O   0  0  0  0  0  0  0  0  0  0  0  0
   -6.6000   17.1440  -33.7390 C   0  0  0  0  0  0  0  0  0  0  0  0
   -7.3240   18.1230  -33.0590 C   0  0  0  0  0  0  0  0  0  0  0  0
   -6.6600   19.2110  -32.4660 C   0  0  0  0  0  0  0  0  0  0  0  0
   -7.3550   20.2270  -31.7890 C   0  0  0  0  0  0  0  0  0  0  0  0
   -8.6120   20.1780  -31.6900 O   0  0  0  0  0  0  0  0  0  0  0  0
   -6.6450   21.3060  -31.2290 C   0  0  0  0  0  0  0  0  0  0  0  0
   -7.3980   22.4320  -30.5510 C   0  0  0  0  0  0  0  0  0  0  0  0
   -8.3010   23.0240  -31.4460 O   0  0  0  0  0  0  0  0  0  0  0  0
   -5.2320   21.3000  -31.3360 C   0  0  0  0  0  0  0  0  0  0  0  0
   -4.3800   22.3570  -30.7560 C   0  0  0  0  0  0  0  0  0  0  0  0
   -3.2010   22.0360  -30.0620 C   0  0  0  0  0  0  0  0  0  0  0  0
   -2.3890   23.0520  -29.5480 C   0  0  0  0  0  0  0  0  0  0  0  0
   -2.7360   24.3920  -29.7380 C   0  0  0  0  0  0  0  0  0  0  0  0
   -1.9250   25.3970  -29.2230 O   0  0  0  0  0  0  0  0  0  0  0  0
   -3.8970   24.7200  -30.4500 C   0  0  0  0  0  0  0  0  0  0  0  0
   -4.2420   26.0510  -30.6490 O   0  0  0  0  0  0  0  0  0  0  0  0
   -4.7110   23.7050  -30.9640 C   0  0  0  0  0  0  0  0  0  0  0  0
   -4.6190   20.3230  -31.9970 O   0  0  0  0  0  0  0  0  0  0  0  0
   -5.2550   19.3010  -32.5580 C   0  0  0  0  0  0  0  0  0  0  0  0
   -2.0752   20.4450  -32.1630 H   0  0  0  0  0  0  0  0  0  0  0  0
   -0.8136   20.6944  -33.4171 H   0  0  0  0  0  0  0  0  0  0  0  0
   -2.2937   21.7123  -33.4171 H   0  0  0  0  0  0  0  0  0  0  0  0
   -3.4895   20.1613  -34.5513 H   0  0  0  0  0  0  0  0  0  0  0  0
   -1.8785   19.3924  -34.9009 H   0  0  0  0  0  0  0  0  0  0  0  0
   -2.6343   17.5455  -33.9023 H   0  0  0  0  0  0  0  0  0  0  0  0
   -2.5986   18.4822  -32.3469 H   0  0  0  0  0  0  0  0  0  0  0  0
   -7.1279   16.2962  -34.2000 H   0  0  0  0  0  0  0  0  0  0  0  0
   -8.4187   18.0435  -32.9864 H   0  0  0  0  0  0  0  0  0  0  0  0
   -7.9519   22.0306  -29.6895 H   0  0  0  0  0  0  0  0  0  0  0  0
   -6.6773   23.1924  -30.2156 H   0  0  0  0  0  0  0  0  0  0  0  0
   -8.8320   22.2860  -31.8430 H   0  0  0  0  0  0  0  0  0  0  0  0
   -2.9160   20.9827  -29.9227 H   0  0  0  0  0  0  0  0  0  0  0  0
   -1.4748   22.7955  -28.9927 H   0  0  0  0  0  0  0  0  0  0  0  0
   -5.6152   23.9647  -31.5341 H   0  0  0  0  0  0  0  0  0  0  0  0
  1  2  1  0
  2  3  1  0
  3  4  1  0
  4  5  2  0
  5  6  1  0
  5  7  1  0
  7  8  2  0
  8  9  1  0
  9 10  1  0
 10 11  2  0
 10 12  1  0
 12 13  1  0
 13 14  1  0
 12 15  2  0
 15 16  1  0
 16 17  2  0
 17 18  1  0
 18 19  2  0
 19 20  1  0
 19 21  1  0
 21 22  1  0
 21 23  2  0
 15 24  1  0
 24 25  1  0
 25  4  1  0
 25  9  2  0
 23 16  1  0
  1 26  1  0
  1 27  1  0
  1 28  1  0
  2 29  1  0
  2 30  1  0
  3 31  1  0
  3 32  1  0
  7 33  1  0
  8 34  1  0
 13 35  1  0
 13 36  1  0
 14 37  1  0
 17 38  1  0
 18 39  1  0
 23 40  1  0
M  CHG  3   6  -1  20  -1  22  -1
M  END
>  <UniqueID>  (10) 
9

>  <SMILES>  (10) 
CCCc1c([O-])ccc2c(=O)c(CO)c(-c3ccc([O-])c([O-])c3)oc12

>  <Energy>  (10) 
52.128189398842004

>  <Genealogy>  (10) 
CCCc1c([O-])ccc2c(=O)c(CO)c(-c3ccc([O-])c([O-])c3)oc12 (protonated)
CCCc1c([O-])ccc2c(=O)c(CO)c(-c3ccc([O-])c([O-])c3)oc12 (3D coordinates assigned)
CCCc1c([O-])ccc2c(=O)c(CO)c(-c3ccc([O-])c([O-])c3)oc12 (optimized conformer: 52.128189398842004 kcal/mol)

>  <smiles>  (10) 
CCCc1c(O)ccc2c(=O)c(CO)c(-c3ccc(O)c(O)c3)oc12

>  <score_type>  (10) 
oracle

>  <origin>  (10) 
adgpu

>  <m_score__min__energy>  (10) 
-12.35

>  <m_primary>  (10) 
energy

$$$$
10:0
     RDKit          3D

 40 42  0  0  0  0  0  0  0  0999 V2000
   -4.3470   22.9590  -31.9600 O   0  0  0  0  0  0  0  0  0  0  0  0
   -5.3870   23.5680  -31.0630 S   0  0  0  0  0  0  0  0  0  0  0  0
   -5.3820   25.0580  -31.2530 O   0  0  0  0  0  0  0  0  0  0  0  0
   -5.0000   23.2020  -29.4120 N   0  0  0  0  0  0  0  0  0  0  0  0
   -3.7150   23.3910  -28.7980 C   0  0  0  0  0  0  0  0  0  0  0  0
   -3.2730   22.5670  -27.7450 C   0  0  0  0  0  0  0  0  0  0  0  0
   -2.0110   22.7640  -27.1760 C   0  0  0  0  0  0  0  0  0  0  0  0
   -1.1850   23.7870  -27.6410 C   0  0  0  0  0  0  0  0  0  0  0  0
   -1.6170   24.6170  -28.6790 C   0  0  0  0  0  0  0  0  0  0  0  0
   -2.8740   24.4230  -29.2630 C   0  0  0  0  0  0  0  0  0  0  0  0
   -3.2660   25.2650  -30.3050 O   0  0  0  0  0  0  0  0  0  0  0  0
   -6.9580   22.8850  -31.4690 C   0  0  0  0  0  0  0  0  0  0  0  0
   -8.0560   23.7360  -31.6540 C   0  0  0  0  0  0  0  0  0  0  0  0
   -9.3050   23.2040  -31.9900 C   0  0  0  0  0  0  0  0  0  0  0  0
   -9.4610   21.8250  -32.1500 C   0  0  0  0  0  0  0  0  0  0  0  0
   -8.3650   20.9690  -31.9750 C   0  0  0  0  0  0  0  0  0  0  0  0
   -8.5460   19.2290  -32.1660 S   0  0  0  0  0  0  0  0  0  0  0  0
   -8.7380   18.5730  -30.8260 O   0  0  0  0  0  0  0  0  0  0  0  0
   -9.7590   18.9400  -33.0060 O   0  0  0  0  0  0  0  0  0  0  0  0
   -7.1060   18.5790  -32.9390 C   0  0  0  0  0  0  0  0  0  0  0  0
   -6.6770   17.2760  -32.6500 C   0  0  0  0  0  0  0  0  0  0  0  0
   -5.5280   16.7600  -33.2590 C   0  0  0  0  0  0  0  0  0  0  0  0
   -4.7980   17.5490  -34.1530 C   0  0  0  0  0  0  0  0  0  0  0  0
   -5.2130   18.8540  -34.4360 C   0  0  0  0  0  0  0  0  0  0  0  0
   -6.3640   19.3700  -33.8280 C   0  0  0  0  0  0  0  0  0  0  0  0
   -7.1170   21.5020  -31.6270 C   0  0  0  0  0  0  0  0  0  0  0  0
   -3.9239   21.7643  -27.3682 H   0  0  0  0  0  0  0  0  0  0  0  0
   -1.6690   22.1107  -26.3598 H   0  0  0  0  0  0  0  0  0  0  0  0
   -0.1932   23.9406  -27.1906 H   0  0  0  0  0  0  0  0  0  0  0  0
   -0.9656   25.4271  -29.0389 H   0  0  0  0  0  0  0  0  0  0  0  0
   -3.5020   24.9160  -31.2250 H   0  0  0  0  0  0  0  0  0  0  0  0
   -7.9354   24.8229  -31.5349 H   0  0  0  0  0  0  0  0  0  0  0  0
  -10.1669   23.8732  -32.1287 H   0  0  0  0  0  0  0  0  0  0  0  0
  -10.4452   21.4104  -32.4137 H   0  0  0  0  0  0  0  0  0  0  0  0
   -7.2463   16.6566  -31.9413 H   0  0  0  0  0  0  0  0  0  0  0  0
   -5.1993   15.7345  -33.0347 H   0  0  0  0  0  0  0  0  0  0  0  0
   -3.8962   17.1427  -34.6343 H   0  0  0  0  0  0  0  0  0  0  0  0
   -4.6353   19.4752  -35.1362 H   0  0  0  0  0  0  0  0  0  0  0  0
   -6.6869   20.3982  -34.0482 H   0  0  0  0  0  0  0  0  0  0  0  0
   -6.2579   20.8315  -31.4771 H   0  0  0  0  0  0  0  0  0  0  0  0
  1  2  2  0
  2  3  2  0
  2  4  1  0
  4  5  1  0
  5  6  2  0
  6  7  1  0
  7  8  2  0
  8  9  1  0
  9 10  2  0
 10 11  1  0
  2 12  1  0
 12 13  2  0
 13 14  1  0
 14 15  2  0
 15 16  1  0
 16 17  1  0
 17 18  2  0
 17 19  2  0
 17 20  1  0
 20 21  2  0
 21 22  1  0
 22 23  2  0
 23 24  1  0
 24 25  2  0
 16 26  2  0
 10  5  1  0
 26 12  1  0
 25 20  1  0
  6 27  1  0
  7 28  1  0
  8 29  1  0
  9 30  1  0
 11 31  1  0
 13 32  1  0
 14 33  1  0
 15 34  1  0
 21 35  1  0
 22 36  1  0
 23 37  1  0
 24 38  1  0
 25 39  1  0
 26 40  1  0
M  CHG  1   4  -1
M  END
>  <UniqueID>  (11) 
10

>  <SMILES>  (11) 
O=S(=O)([N-]c1ccccc1O)c1cccc(S(=O)(=O)c2ccccc2)c1

>  <Energy>  (11) 
48.07934409218243

>  <Genealogy>  (11) 
O=S(=O)([N-]c1ccccc1O)c1cccc(S(=O)(=O)c2ccccc2)c1 (protonated)
O=S(=O)([N-]c1ccccc1O)c1cccc(S(=O)(=O)c2ccccc2)c1 (3D coordinates assigned)
O=S(=O)([N-]c1ccccc1O)c1cccc(S(=O)(=O)c2ccccc2)c1 (optimized conformer: 48.07934409218243 kcal/mol)

>  <smiles>  (11) 
O=S(=O)(Nc1ccccc1O)c1cccc(S(=O)(=O)c2ccccc2)c1

>  <score_type>  (11) 
oracle

>  <origin>  (11) 
adgpu

>  <m_score__min__energy>  (11) 
-11.57

>  <m_primary>  (11) 
energy

$$$$
11:0
     RDKit          3D

 42 44  0  0  0  0  0  0  0  0999 V2000
   -4.2920   25.5510  -30.8060 N   0  0  0  0  0  0  0  0  0  0  0  0
   -3.6270   24.2990  -29.8190 S   0  0  0  0  0  0  0  0  0  0  0  0
   -4.4980   24.0980  -28.6110 O   0  0  0  0  0  0  0  0  0  0  0  0
   -2.2520   24.6960  -29.3600 O   0  0  0  0  0  0  0  0  0  0  0  0
   -3.5380   22.8050  -30.7450 C   0  0  0  0  0  0  0  0  0  0  0  0
   -4.6910   22.0380  -30.9620 C   0  0  0  0  0  0  0  0  0  0  0  0
   -4.6210   20.8590  -31.7110 C   0  0  0  0  0  0  0  0  0  0  0  0
   -3.4000   20.4420  -32.2600 C   0  0  0  0  0  0  0  0  0  0  0  0
   -3.2980   18.9650  -33.2160 S   0  0  0  0  0  0  0  0  0  0  0  0
   -2.3150   18.0130  -32.5910 O   0  0  0  0  0  0  0  0  0  0  0  0
   -2.8010   19.3290  -34.5870 O   0  0  0  0  0  0  0  0  0  0  0  0
   -4.8660   18.1970  -33.3490 N   0  0  0  0  0  0  0  0  0  0  0  0
   -5.8630   19.1820  -33.8230 C   0  0  0  0  0  0  0  0  0  0  0  0
   -7.1000   19.1870  -32.9720 C   0  0  0  0  0  0  0  0  0  0  0  0
   -8.0950   20.1420  -33.0010 C   0  0  0  0  0  0  0  0  0  0  0  0
   -9.0070   19.7530  -32.0430 C   0  0  0  0  0  0  0  0  0  0  0  0
   -8.5110   18.5900  -31.4900 C   0  0  0  0  0  0  0  0  0  0  0  0
   -7.3720   18.2780  -32.0650 O   0  0  0  0  0  0  0  0  0  0  0  0
   -4.8070   16.9570  -34.1650 C   0  0  0  0  0  0  0  0  0  0  0  0
   -4.6880   15.6940  -33.3560 C   0  0  0  0  0  0  0  0  0  0  0  0
   -4.4440   14.4310  -33.8590 C   0  0  0  0  0  0  0  0  0  0  0  0
   -4.4100   13.5950  -32.7650 C   0  0  0  0  0  0  0  0  0  0  0  0
   -4.6290   14.3970  -31.6630 C   0  0  0  0  0  0  0  0  0  0  0  0
   -4.7870   15.6420  -32.0480 O   0  0  0  0  0  0  0  0  0  0  0  0
   -2.2480   21.2090  -32.0410 C   0  0  0  0  0  0  0  0  0  0  0  0
   -2.3170   22.3880  -31.2930 C   0  0  0  0  0  0  0  0  0  0  0  0
   -3.4880   26.0430  -31.2570 H   0  0  0  0  0  0  0  0  0  0  0  0
   -5.6538   22.3644  -30.5419 H   0  0  0  0  0  0  0  0  0  0  0  0
   -5.5274   20.2564  -31.8701 H   0  0  0  0  0  0  0  0  0  0  0  0
   -5.1340   17.9150  -32.3770 H   0  0  0  0  0  0  0  0  0  0  0  0
   -5.4110   20.1845  -33.7978 H   0  0  0  0  0  0  0  0  0  0  0  0
   -6.1562   18.9022  -34.8456 H   0  0  0  0  0  0  0  0  0  0  0  0
   -8.1493   21.0274  -33.6515 H   0  0  0  0  0  0  0  0  0  0  0  0
   -9.9418   20.2663  -31.7737 H   0  0  0  0  0  0  0  0  0  0  0  0
   -8.9958   18.0121  -30.6894 H   0  0  0  0  0  0  0  0  0  0  0  0
   -5.7253   16.8960  -34.7675 H   0  0  0  0  0  0  0  0  0  0  0  0
   -3.8983   17.0258  -34.7810 H   0  0  0  0  0  0  0  0  0  0  0  0
   -4.3056   14.1511  -34.9138 H   0  0  0  0  0  0  0  0  0  0  0  0
   -4.2422   12.5079  -32.7686 H   0  0  0  0  0  0  0  0  0  0  0  0
   -4.6655   14.0463  -30.6211 H   0  0  0  0  0  0  0  0  0  0  0  0
   -1.2848   20.8819  -32.4596 H   0  0  0  0  0  0  0  0  0  0  0  0
   -1.4104   22.9903  -31.1340 H   0  0  0  0  0  0  0  0  0  0  0  0
  1  2  1  0
  2  3  2  0
  2  4  2  0
  2  5  1  0
  5  6  2  0
  6  7  1  0
  7  8  2  0
  8  9  1  0
  9 10  2  0
  9 11  2  0
  9 12  1  0
 12 13  1  0
 13 14  1  0
 14 15  2  0
 15 16  1  0
 16 17  2  0
 17 18  1  0
 12 19  1  0
 19 20  1  0
 20 21  2  0
 21 22  1  0
 22 23  2  0
 23 24  1  0
  8 25  1  0
 25 26  2  0
 26  5  1  0
 18 14  1  0
 24 20  1  0
  1 27  1  0
  6 28  1  0
  7 29  1  0
 12 30  1  0
 13 31  1  0
 13 32  1  0
 15 33  1  0
 16 34  1  0
 17 35  1  0
 19 36  1  0
 19 37  1  0
 21 38  1  0
 22 39  1  0
 23 40  1  0
 25 41  1  0
 26 42  1  0
M  CHG  2   1  -1  12   1
M  END
>  <UniqueID>  (12) 
11

>  <SMILES>  (12) 
[NH-]S(=O)(=O)c1ccc(S(=O)(=O)[NH+](Cc2ccco2)Cc2ccco2)cc1

>  <Energy>  (12) 
95.4601753466828

>  <Genealogy>  (12) 
[NH-]S(=O)(=O)c1ccc(S(=O)(=O)[NH+](Cc2ccco2)Cc2ccco2)cc1 (protonated)
[NH-]S(=O)(=O)c1ccc(S(=O)(=O)[NH+](Cc2ccco2)Cc2ccco2)cc1 (3D coordinates assigned)
[NH-]S(=O)(=O)c1ccc(S(=O)(=O)[NH+](Cc2ccco2)Cc2ccco2)cc1 (optimized conformer: 95.4601753466828 kcal/mol)

>  <smiles>  (12) 
NS(=O)(=O)c1ccc(S(=O)(=O)N(Cc2ccco2)Cc2ccco2)cc1

>  <score_type>  (12) 
oracle

>  <origin>  (12) 
adgpu

>  <m_score__min__energy>  (12) 
-9.9100000000000001

>  <m_primary>  (12) 
energy

$$$$
12:0
     RDKit          3D

 52 54  0  0  0  0  0  0  0  0999 V2000
   -8.0180   18.4980  -33.4980 H   0  0  0  0  0  0  0  0  0  0  0  0
   -7.7130   17.5420  -33.3640 O   0  0  0  0  0  0  0  0  0  0  0  0
   -6.4350   17.0960  -33.7080 C   0  0  0  0  0  0  0  0  0  0  0  0
   -6.2290   15.7200  -33.8570 C   0  0  0  0  0  0  0  0  0  0  0  0
   -7.0590   15.0217  -33.6740 H   0  0  0  0  0  0  0  0  0  0  0  0
   -4.9790   15.2250  -34.2360 C   0  0  0  0  0  0  0  0  0  0  0  0
   -4.8303   14.1408  -34.3473 H   0  0  0  0  0  0  0  0  0  0  0  0
   -3.9140   16.1030  -34.4750 C   0  0  0  0  0  0  0  0  0  0  0  0
   -2.5640   15.5670  -34.8540 C   0  0  0  0  0  0  0  0  0  0  0  0
   -1.9909   15.3395  -33.9431 H   0  0  0  0  0  0  0  0  0  0  0  0
   -2.6874   14.6496  -35.4483 H   0  0  0  0  0  0  0  0  0  0  0  0
   -2.0245   16.3191  -35.4483 H   0  0  0  0  0  0  0  0  0  0  0  0
   -4.1040   17.4810  -34.2970 C   0  0  0  0  0  0  0  0  0  0  0  0
   -3.2613   18.1707  -34.4524 H   0  0  0  0  0  0  0  0  0  0  0  0
   -5.3600   17.9910  -33.9220 C   0  0  0  0  0  0  0  0  0  0  0  0
   -5.5140   19.4460  -33.7200 C   0  0  0  0  0  0  0  0  0  0  0  0
   -6.5050   20.0260  -34.2450 O   0  0  0  0  0  0  0  0  0  0  0  0
   -4.5540   20.2330  -32.9020 C   0  0  0  0  0  0  0  0  0  0  0  0
   -4.7520   20.4240  -31.5220 C   0  0  0  0  0  0  0  0  0  0  0  0
   -5.6451   20.0060  -31.0346 H   0  0  0  0  0  0  0  0  0  0  0  0
   -3.8460   21.1220  -30.7880 N   0  0  0  0  0  0  0  0  0  0  0  0
   -2.7220   21.6530  -31.3430 C   0  0  0  0  0  0  0  0  0  0  0  0
   -1.8560   22.2930  -30.6140 N   0  0  0  0  0  0  0  0  0  0  0  0
   -2.0030   22.5250  -29.1790 C   0  0  0  0  0  0  0  0  0  0  0  0
   -3.0580   22.3958  -28.8957 H   0  0  0  0  0  0  0  0  0  0  0  0
   -1.3777   21.8043  -28.6317 H   0  0  0  0  0  0  0  0  0  0  0  0
   -1.5540   23.9480  -28.8270 C   0  0  0  0  0  0  0  0  0  0  0  0
   -1.0777   23.9349  -27.8356 H   0  0  0  0  0  0  0  0  0  0  0  0
   -0.8500   24.2834  -29.6029 H   0  0  0  0  0  0  0  0  0  0  0  0
   -2.7300   24.9320  -28.7980 C   0  0  0  0  0  0  0  0  0  0  0  0
   -2.7037   25.5055  -27.8597 H   0  0  0  0  0  0  0  0  0  0  0  0
   -2.6510   25.6189  -29.6535 H   0  0  0  0  0  0  0  0  0  0  0  0
   -3.9940   24.1950  -28.8830 N   0  0  0  0  0  0  0  0  0  0  0  0
   -5.0220   24.8960  -30.0920 S   0  0  0  0  0  0  0  0  0  0  0  0
   -4.1760   25.4310  -31.2130 O   0  0  0  0  0  0  0  0  0  0  0  0
   -5.8090   26.0330  -29.4980 O   0  0  0  0  0  0  0  0  0  0  0  0
   -6.1040   23.6580  -30.7300 C   0  0  0  0  0  0  0  0  0  0  0  0
   -6.1680   23.4420  -32.1150 C   0  0  0  0  0  0  0  0  0  0  0  0
   -5.5388   24.0385  -32.7920 H   0  0  0  0  0  0  0  0  0  0  0  0
   -7.0280   22.4720  -32.6380 C   0  0  0  0  0  0  0  0  0  0  0  0
   -7.0775   22.3092  -33.7248 H   0  0  0  0  0  0  0  0  0  0  0  0
   -7.8260   21.7080  -31.7790 C   0  0  0  0  0  0  0  0  0  0  0  0
   -8.7330   20.7250  -32.3150 C   0  0  0  0  0  0  0  0  0  0  0  0
   -9.4630   19.9350  -32.7430 N   0  0  0  0  0  0  0  0  0  0  0  0
   -7.7480   21.9050  -30.3940 C   0  0  0  0  0  0  0  0  0  0  0  0
   -8.3631   21.2937  -29.7173 H   0  0  0  0  0  0  0  0  0  0  0  0
   -6.8900   22.8770  -29.8700 C   0  0  0  0  0  0  0  0  0  0  0  0
   -6.8314   23.0293  -28.7822 H   0  0  0  0  0  0  0  0  0  0  0  0
   -2.4810   21.4850  -32.7090 C   0  0  0  0  0  0  0  0  0  0  0  0
   -1.5760   21.9096  -33.1679 H   0  0  0  0  0  0  0  0  0  0  0  0
   -3.3960   20.7750  -33.4870 C   0  0  0  0  0  0  0  0  0  0  0  0
   -3.2107   20.6387  -34.5627 H   0  0  0  0  0  0  0  0  0  0  0  0
  1  2  1  0
  2  3  1  0
  3  4  2  0
  4  5  1  0
  4  6  1  0
  6  7  1  0
  6  8  2  0
  8  9  1  0
  9 10  1  0
  9 11  1  0
  9 12  1  0
  8 13  1  0
 13 14  1  0
 13 15  2  0
 15 16  1  0
 16 17  2  0
 16 18  1  0
 18 19  2  0
 19 20  1  0
 19 21  1  0
 21 22  1  0
 22 23  2  0
 23 24  1  0
 24 25  1  0
 24 26  1  0
 24 27  1  0
 27 28  1  0
 27 29  1  0
 27 30  1  0
 30 31  1  0
 30 32  1  0
 30 33  1  0
 33 34  1  0
 34 35  2  0
 34 36  2  0
 34 37  1  0
 37 38  2  0
 38 39  1  0
 38 40  1  0
 40 41  1  0
 40 42  2  0
 42 43  1  0
 43 44  3  0
 42 45  1  0
 45 46  1  0
 45 47  2  0
 47 48  1  0
 22 49  1  0
 49 50  1  0
 49 51  2  0
 51 52  1  0
 15  3  1  0
 51 18  1  0
 47 37  1  0
M  CHG  2  21  -1  33  -1
M  END
>  <UniqueID>  (13) 
12

>  <SMILES>  (13) 
Cc1ccc(O)c(C(=O)c2cc/c(=N/CCC[N-]S(=O)(=O)c3ccc(C#N)cc3)[n-]c2)c1

>  <Energy>  (13) 
50.692076191773886

>  <Genealogy>  (13) 
Cc1ccc(O)c(C(=O)c2ccc(=NCCC[N-]S(=O)(=O)c3ccc(C#N)cc3)[n-]c2)c1 (protonated)
Cc1ccc(O)c(C(=O)c2cc/c(=N/CCC[N-]S(=O)(=O)c3ccc(C#N)cc3)[n-]c2)c1 (cis-trans isomerization)
Cc1ccc(O)c(C(=O)c2cc/c(=N/CCC[N-]S(=O)(=O)c3ccc(C#N)cc3)[n-]c2)c1 (3D coordinates assigned)
Cc1ccc(O)c(C(=O)c2cc/c(=N/CCC[N-]S(=O)(=O)c3ccc(C#N)cc3)[n-]c2)c1 (optimized conformer: 50.692076191773886 kcal/mol)

>  <smiles>  (13) 
Cc1ccc(O)c(C(=O)c2ccc(=NCCCNS(=O)(=O)c3ccc(C#N)cc3)[nH]c2)c1

>  <score_type>  (13) 
oracle

>  <origin>  (13) 
adgpu

>  <m_score__min__energy>  (13) 
-10.84

>  <m_primary>  (13) 
energy

$$$$
13:0
     RDKit          3D

 43 45  0  0  0  0  0  0  0  0999 V2000
   -4.2360   25.6950  -30.5090 N   0  0  0  0  0  0  0  0  0  0  0  0
   -4.2870   23.9710  -30.3760 S   0  0  0  0  0  0  0  0  0  0  0  0
   -5.4130   23.5790  -29.4640 O   0  0  0  0  0  0  0  0  0  0  0  0
   -4.5200   23.3850  -31.7410 O   0  0  0  0  0  0  0  0  0  0  0  0
   -2.7590   23.3570  -29.7360 C   0  0  0  0  0  0  0  0  0  0  0  0
   -2.2670   23.8470  -28.5170 C   0  0  0  0  0  0  0  0  0  0  0  0
   -1.0460   23.3910  -28.0150 C   0  0  0  0  0  0  0  0  0  0  0  0
   -0.3020   22.4540  -28.7300 C   0  0  0  0  0  0  0  0  0  0  0  0
   -0.7830   21.9510  -29.9390 C   0  0  0  0  0  0  0  0  0  0  0  0
   -2.0230   22.3810  -30.4450 C   0  0  0  0  0  0  0  0  0  0  0  0
   -2.5650   21.8330  -31.6580 N   0  0  0  0  0  0  0  0  0  0  0  0
   -1.7810   20.6550  -32.6650 S   0  0  0  0  0  0  0  0  0  0  0  0
   -0.6800   19.9950  -31.8840 O   0  0  0  0  0  0  0  0  0  0  0  0
   -1.1930   21.3490  -33.8620 O   0  0  0  0  0  0  0  0  0  0  0  0
   -2.9410   19.4530  -33.2230 C   0  0  0  0  0  0  0  0  0  0  0  0
   -2.5830   18.5390  -34.2200 C   0  0  0  0  0  0  0  0  0  0  0  0
   -3.4880   17.5590  -34.6290 C   0  0  0  0  0  0  0  0  0  0  0  0
   -4.7520   17.4760  -34.0390 C   0  0  0  0  0  0  0  0  0  0  0  0
   -5.6330   16.4820  -34.4490 O   0  0  0  0  0  0  0  0  0  0  0  0
   -5.1220   18.3900  -33.0380 C   0  0  0  0  0  0  0  0  0  0  0  0
   -6.7040   18.2710  -32.2630 S   0  0  0  0  0  0  0  0  0  0  0  0
   -7.6000   17.3840  -33.0840 O   0  0  0  0  0  0  0  0  0  0  0  0
   -6.5430   17.6660  -30.8930 O   0  0  0  0  0  0  0  0  0  0  0  0
   -7.4630   19.8540  -32.0950 C   0  0  0  0  0  0  0  0  0  0  0  0
   -8.8580   19.9570  -31.9980 C   0  0  0  0  0  0  0  0  0  0  0  0
   -9.4640   21.2130  -31.8650 C   0  0  0  0  0  0  0  0  0  0  0  0
   -8.6760   22.3680  -31.8400 C   0  0  0  0  0  0  0  0  0  0  0  0
   -7.2860   22.2710  -31.9520 C   0  0  0  0  0  0  0  0  0  0  0  0
   -6.6810   21.0190  -32.0830 C   0  0  0  0  0  0  0  0  0  0  0  0
   -4.2170   19.3890  -32.6530 C   0  0  0  0  0  0  0  0  0  0  0  0
   -3.4950   25.9240  -31.2070 H   0  0  0  0  0  0  0  0  0  0  0  0
   -2.8457   24.5940  -27.9538 H   0  0  0  0  0  0  0  0  0  0  0  0
   -0.6709   23.7720  -27.0537 H   0  0  0  0  0  0  0  0  0  0  0  0
    0.6673   22.1101  -28.3398 H   0  0  0  0  0  0  0  0  0  0  0  0
   -0.1893   21.2140  -30.4997 H   0  0  0  0  0  0  0  0  0  0  0  0
   -1.5863   18.5931  -34.6822 H   0  0  0  0  0  0  0  0  0  0  0  0
   -3.2052   16.8484  -35.4196 H   0  0  0  0  0  0  0  0  0  0  0  0
   -9.4783   19.0490  -32.0264 H   0  0  0  0  0  0  0  0  0  0  0  0
  -10.5580   21.2906  -31.7804 H   0  0  0  0  0  0  0  0  0  0  0  0
   -9.1507   23.3544  -31.7320 H   0  0  0  0  0  0  0  0  0  0  0  0
   -6.6684   23.1811  -31.9370 H   0  0  0  0  0  0  0  0  0  0  0  0
   -5.5875   20.9460  -32.1771 H   0  0  0  0  0  0  0  0  0  0  0  0
   -4.5130   20.1296  -31.8955 H   0  0  0  0  0  0  0  0  0  0  0  0
  1  2  1  0
  2  3  2  0
  2  4  2  0
  2  5  1  0
  5  6  2  0
  6  7  1  0
  7  8  2  0
  8  9  1  0
  9 10  2  0
 10 11  1  0
 11 12  1  0
 12 13  2  0
 12 14  2  0
 12 15  1  0
 15 16  2  0
 16 17  1  0
 17 18  2  0
 18 19  1  0
 18 20  1  0
 20 21  1  0
 21 22  2  0
 21 23  2  0
 21 24  1  0
 24 25  2  0
 25 26  1  0
 26 27  2  0
 27 28  1  0
 28 29  2  0
 20 30  2  0
 10  5  1  0
 30 15  1  0
 29 24  1  0
  1 31  1  0
  6 32  1  0
  7 33  1  0
  8 34  1  0
  9 35  1  0
 16 36  1  0
 17 37  1  0
 25 38  1  0
 26 39  1  0
 27 40  1  0
 28 41  1  0
 29 42  1  0
 30 43  1  0
M  CHG  3   1  -1  11  -1  19  -1
M  END
>  <UniqueID>  (14) 
13

>  <SMILES>  (14) 
[NH-]S(=O)(=O)c1ccccc1[N-]S(=O)(=O)c1ccc([O-])c(S(=O)(=O)c2ccccc2)c1

>  <Energy>  (14) 
48.83119104338809

>  <Genealogy>  (14) 
[NH-]S(=O)(=O)c1ccccc1[N-]S(=O)(=O)c1ccc([O-])c(S(=O)(=O)c2ccccc2)c1 (protonated)
[NH-]S(=O)(=O)c1ccccc1[N-]S(=O)(=O)c1ccc([O-])c(S(=O)(=O)c2ccccc2)c1 (3D coordinates assigned)
[NH-]S(=O)(=O)c1ccccc1[N-]S(=O)(=O)c1ccc([O-])c(S(=O)(=O)c2ccccc2)c1 (optimized conformer: 48.83119104338809 kcal/mol)

>  <smiles>  (14) 
NS(=O)(=O)c1ccccc1NS(=O)(=O)c1ccc(O)c(S(=O)(=O)c2ccccc2)c1

>  <score_type>  (14) 
oracle

>  <origin>  (14) 
adgpu

>  <m_score__min__energy>  (14) 
-12.92

>  <m_primary>  (14) 
energy

$$$$
14:0
     RDKit          3D

 50 52  0  0  0  0  0  0  0  0999 V2000
   -0.2990   25.7660  -26.1020 C   0  0  0  0  0  0  0  0  0  0  0  0
    0.4860   24.2640  -26.6550 S   0  0  0  0  0  0  0  0  0  0  0  0
    1.3090   24.5720  -27.8740 O   0  0  0  0  0  0  0  0  0  0  0  0
    1.3850   23.7970  -25.5450 O   0  0  0  0  0  0  0  0  0  0  0  0
   -0.6980   22.9980  -27.0400 C   0  0  0  0  0  0  0  0  0  0  0  0
   -0.7930   21.8820  -26.1890 C   0  0  0  0  0  0  0  0  0  0  0  0
   -1.6470   20.8210  -26.4920 C   0  0  0  0  0  0  0  0  0  0  0  0
   -2.4180   20.8560  -27.6510 C   0  0  0  0  0  0  0  0  0  0  0  0
   -2.3540   21.9600  -28.5000 C   0  0  0  0  0  0  0  0  0  0  0  0
   -1.5170   23.0490  -28.2020 C   0  0  0  0  0  0  0  0  0  0  0  0
   -1.5470   24.2120  -29.1150 C   0  0  0  0  0  0  0  0  0  0  0  0
   -0.4890   24.5650  -29.7030 O   0  0  0  0  0  0  0  0  0  0  0  0
   -2.7710   24.9250  -29.3340 N   0  0  0  0  0  0  0  0  0  0  0  0
   -3.9020   24.4790  -30.0940 C   0  0  0  0  0  0  0  0  0  0  0  0
   -5.0420   25.2910  -30.1390 C   0  0  0  0  0  0  0  0  0  0  0  0
   -6.1700   24.8890  -30.8580 C   0  0  0  0  0  0  0  0  0  0  0  0
   -6.1750   23.6630  -31.5260 C   0  0  0  0  0  0  0  0  0  0  0  0
   -5.0520   22.8250  -31.4660 C   0  0  0  0  0  0  0  0  0  0  0  0
   -5.0420   21.2720  -32.3000 S   0  0  0  0  0  0  0  0  0  0  0  0
   -4.6390   20.1850  -31.3430 O   0  0  0  0  0  0  0  0  0  0  0  0
   -4.0300   21.3340  -33.4110 O   0  0  0  0  0  0  0  0  0  0  0  0
   -6.6390   20.9560  -32.9490 N   0  0  0  0  0  0  0  0  0  0  0  0
   -7.6690   20.9090  -31.8710 C   0  0  0  0  0  0  0  0  0  0  0  0
   -8.3580   19.5420  -31.7180 C   0  0  0  0  0  0  0  0  0  0  0  0
   -7.3310   18.4150  -31.7680 C   0  0  0  0  0  0  0  0  0  0  0  0
   -6.5100   18.4410  -33.0700 C   0  0  0  0  0  0  0  0  0  0  0  0
   -6.6330   19.7720  -33.8370 C   0  0  0  0  0  0  0  0  0  0  0  0
   -3.9200   23.2320  -30.7450 C   0  0  0  0  0  0  0  0  0  0  0  0
   -0.3114   25.7898  -25.0023 H   0  0  0  0  0  0  0  0  0  0  0  0
    0.2610   26.6335  -26.4812 H   0  0  0  0  0  0  0  0  0  0  0  0
   -1.3310   25.8015  -26.4812 H   0  0  0  0  0  0  0  0  0  0  0  0
   -0.1859   21.8453  -25.2724 H   0  0  0  0  0  0  0  0  0  0  0  0
   -1.7112   19.9564  -25.8149 H   0  0  0  0  0  0  0  0  0  0  0  0
   -3.0785   20.0115  -27.8970 H   0  0  0  0  0  0  0  0  0  0  0  0
   -2.9659   21.9790  -29.4139 H   0  0  0  0  0  0  0  0  0  0  0  0
   -5.0492   26.2523  -29.6043 H   0  0  0  0  0  0  0  0  0  0  0  0
   -7.0561   25.5396  -30.8980 H   0  0  0  0  0  0  0  0  0  0  0  0
   -7.0609   23.3539  -32.1001 H   0  0  0  0  0  0  0  0  0  0  0  0
   -6.8570   21.7800  -33.5580 H   0  0  0  0  0  0  0  0  0  0  0  0
   -7.1818   21.1587  -30.9169 H   0  0  0  0  0  0  0  0  0  0  0  0
   -8.4524   21.6290  -32.1500 H   0  0  0  0  0  0  0  0  0  0  0  0
   -8.8848   19.5086  -30.7529 H   0  0  0  0  0  0  0  0  0  0  0  0
   -9.0709   19.4094  -32.5452 H   0  0  0  0  0  0  0  0  0  0  0  0
   -6.6459   18.5205  -30.9139 H   0  0  0  0  0  0  0  0  0  0  0  0
   -7.8732   17.4588  -31.7270 H   0  0  0  0  0  0  0  0  0  0  0  0
   -5.4514   18.2781  -32.8194 H   0  0  0  0  0  0  0  0  0  0  0  0
   -6.9059   17.6490  -33.7227 H   0  0  0  0  0  0  0  0  0  0  0  0
   -5.7818   19.8574  -34.5285 H   0  0  0  0  0  0  0  0  0  0  0  0
   -7.5959   19.7561  -34.3686 H   0  0  0  0  0  0  0  0  0  0  0  0
   -3.0414   22.5726  -30.6882 H   0  0  0  0  0  0  0  0  0  0  0  0
  1  2  1  0
  2  3  2  0
  2  4  2  0
  2  5  1  0
  5  6  2  0
  6  7  1  0
  7  8  2  0
  8  9  1  0
  9 10  2  0
 10 11  1  0
 11 12  2  0
 11 13  1  0
 13 14  1  0
 14 15  2  0
 15 16  1  0
 16 17  2  0
 17 18  1  0
 18 19  1  0
 19 20  2  0
 19 21  2  0
 19 22  1  0
 22 23  1  0
 23 24  1  0
 24 25  1  0
 25 26  1  0
 26 27  1  0
 18 28  2  0
 10  5  1  0
 28 14  1  0
 27 22  1  0
  1 29  1  0
  1 30  1  0
  1 31  1  0
  6 32  1  0
  7 33  1  0
  8 34  1  0
  9 35  1  0
 15 36  1  0
 16 37  1  0
 17 38  1  0
 22 39  1  0
 23 40  1  0
 23 41  1  0
 24 42  1  0
 24 43  1  0
 25 44  1  0
 25 45  1  0
 26 46  1  0
 26 47  1  0
 27 48  1  0
 27 49  1  0
 28 50  1  0
M  CHG  2  13  -1  22   1
M  END
>  <UniqueID>  (15) 
14

>  <SMILES>  (15) 
CS(=O)(=O)c1ccccc1C(=O)[N-]c1cccc(S(=O)(=O)[NH+]2CCCCC2)c1

>  <Energy>  (15) 
66.0974135307927

>  <Genealogy>  (15) 
CS(=O)(=O)c1ccccc1C(=O)[N-]c1cccc(S(=O)(=O)[NH+]2CCCCC2)c1 (protonated)
CS(=O)(=O)c1ccccc1C(=O)[N-]c1cccc(S(=O)(=O)[NH+]2CCCCC2)c1 (3D coordinates assigned)
CS(=O)(=O)c1ccccc1C(=O)[N-]c1cccc(S(=O)(=O)[NH+]2CCCCC2)c1 (nonaromatic ring conformer: 66.0974135307927 kcal/mol)

>  <smiles>  (15) 
CS(=O)(=O)c1ccccc1C(=O)Nc1cccc(S(=O)(=O)N2CCCCC2)c1

>  <score_type>  (15) 
oracle

>  <origin>  (15) 
adgpu

>  <m_score__min__energy>  (15) 
-10.91

>  <m_primary>  (15) 
energy

$$$$
15:0
     RDKit          3D

 43 45  0  0  0  0  0  0  0  0999 V2000
   -9.1140   18.2260  -31.8670 C   0  0  0  0  0  0  0  0  0  0  0  0
   -9.3440   19.6130  -32.0950 O   0  0  0  0  0  0  0  0  0  0  0  0
   -8.3460   20.5990  -32.0350 C   0  0  0  0  0  0  0  0  0  0  0  0
   -6.9970   20.3290  -32.3380 C   0  0  0  0  0  0  0  0  0  0  0  0
   -6.0400   21.3470  -32.2660 C   0  0  0  0  0  0  0  0  0  0  0  0
   -6.4100   22.6480  -31.9070 C   0  0  0  0  0  0  0  0  0  0  0  0
   -5.3980   23.6640  -31.8650 N   0  0  0  0  0  0  0  0  0  0  0  0
   -4.7540   24.3730  -30.4200 S   0  0  0  0  0  0  0  0  0  0  0  0
   -5.8570   24.5030  -29.4090 O   0  0  0  0  0  0  0  0  0  0  0  0
   -4.2290   25.7430  -30.7420 O   0  0  0  0  0  0  0  0  0  0  0  0
   -3.4230   23.3820  -29.8150 C   0  0  0  0  0  0  0  0  0  0  0  0
   -3.5690   21.9880  -29.8150 C   0  0  0  0  0  0  0  0  0  0  0  0
   -2.5430   21.1660  -29.3400 C   0  0  0  0  0  0  0  0  0  0  0  0
   -1.3550   21.7330  -28.8450 C   0  0  0  0  0  0  0  0  0  0  0  0
   -0.2630   20.9300  -28.3700 N   0  0  0  0  0  0  0  0  0  0  0  0
    0.5090   19.9880  -29.1290 C   0  0  0  0  0  0  0  0  0  0  0  0
    0.2800   19.8220  -30.3590 O   0  0  0  0  0  0  0  0  0  0  0  0
    1.5440   19.1680  -28.4550 C   0  0  0  0  0  0  0  0  0  0  0  0
    1.3000   17.8130  -28.1570 C   0  0  0  0  0  0  0  0  0  0  0  0
    2.2770   17.0430  -27.5200 C   0  0  0  0  0  0  0  0  0  0  0  0
    3.5030   17.6110  -27.1710 C   0  0  0  0  0  0  0  0  0  0  0  0
    3.7590   18.9540  -27.4640 C   0  0  0  0  0  0  0  0  0  0  0  0
    4.9800   19.5160  -27.1150 O   0  0  0  0  0  0  0  0  0  0  0  0
    2.7870   19.7320  -28.1030 C   0  0  0  0  0  0  0  0  0  0  0  0
   -1.1980   23.1230  -28.8740 C   0  0  0  0  0  0  0  0  0  0  0  0
   -2.2230   23.9490  -29.3490 C   0  0  0  0  0  0  0  0  0  0  0  0
   -2.0320   25.3260  -29.3500 O   0  0  0  0  0  0  0  0  0  0  0  0
   -7.7590   22.9190  -31.6100 C   0  0  0  0  0  0  0  0  0  0  0  0
   -8.7140   21.8980  -31.6680 C   0  0  0  0  0  0  0  0  0  0  0  0
   -9.0819   18.0327  -30.7846 H   0  0  0  0  0  0  0  0  0  0  0  0
   -9.9273   17.6401  -32.3202 H   0  0  0  0  0  0  0  0  0  0  0  0
   -8.1552   17.9340  -32.3202 H   0  0  0  0  0  0  0  0  0  0  0  0
   -6.6947   19.3132  -32.6325 H   0  0  0  0  0  0  0  0  0  0  0  0
   -4.9874   21.1228  -32.4936 H   0  0  0  0  0  0  0  0  0  0  0  0
   -4.4988   21.5370  -30.1920 H   0  0  0  0  0  0  0  0  0  0  0  0
   -2.6651   20.0729  -29.3534 H   0  0  0  0  0  0  0  0  0  0  0  0
    0.3354   17.3586  -28.4271 H   0  0  0  0  0  0  0  0  0  0  0  0
    2.0788   15.9851  -27.2928 H   0  0  0  0  0  0  0  0  0  0  0  0
    4.2675   17.0025  -26.6657 H   0  0  0  0  0  0  0  0  0  0  0  0
    2.9938   20.7879  -28.3315 H   0  0  0  0  0  0  0  0  0  0  0  0
   -0.2583   23.5716  -28.5194 H   0  0  0  0  0  0  0  0  0  0  0  0
   -8.0639   23.9384  -31.3310 H   0  0  0  0  0  0  0  0  0  0  0  0
   -9.7634   22.1186  -31.4229 H   0  0  0  0  0  0  0  0  0  0  0  0
  1  2  1  0
  2  3  1  0
  3  4  2  0
  4  5  1  0
  5  6  2  0
  6  7  1  0
  7  8  1  0
  8  9  2  0
  8 10  2  0
  8 11  1  0
 11 12  2  0
 12 13  1  0
 13 14  2  0
 14 15  1  0
 15 16  1  0
 16 17  2  0
 16 18  1  0
 18 19  2  0
 19 20  1  0
 20 21  2  0
 21 22  1  0
 22 23  1  0
 22 24  2  0
 14 25  1  0
 25 26  2  0
 26 27  1  0
  6 28  1  0
 28 29  2  0
 29  3  1  0
 26 11  1  0
 24 18  1  0
  1 30  1  0
  1 31  1  0
  1 32  1  0
  4 33  1  0
  5 34  1  0
 12 35  1  0
 13 36  1  0
 19 37  1  0
 20 38  1  0
 21 39  1  0
 24 40  1  0
 25 41  1  0
 28 42  1  0
 29 43  1  0
M  CHG  4   7  -1  15  -1  23  -1  27  -1
M  END
>  <UniqueID>  (16) 
15

>  <SMILES>  (16) 
COc1ccc([N-]S(=O)(=O)c2ccc([N-]C(=O)c3cccc([O-])c3)cc2[O-])cc1

>  <Energy>  (16) 
54.32920936716141

>  <Genealogy>  (16) 
COc1ccc([N-]S(=O)(=O)c2ccc([N-]C(=O)c3cccc([O-])c3)cc2[O-])cc1 (protonated)
COc1ccc([N-]S(=O)(=O)c2ccc([N-]C(=O)c3cccc([O-])c3)cc2[O-])cc1 (3D coordinates assigned)
COc1ccc([N-]S(=O)(=O)c2ccc([N-]C(=O)c3cccc([O-])c3)cc2[O-])cc1 (optimized conformer: 54.32920936716141 kcal/mol)

>  <smiles>  (16) 
COc1ccc(NS(=O)(=O)c2ccc(NC(=O)c3cccc(O)c3)cc2O)cc1

>  <score_type>  (16) 
oracle

>  <origin>  (16) 
adgpu

>  <m_score__min__energy>  (16) 
-13.380000000000001

>  <m_primary>  (16) 
energy

$$$$
16:0
     RDKit          3D

 57 59  0  0  0  0  0  0  0  0999 V2000
   -0.2040   26.4280  -24.2050 C   0  0  0  0  0  0  0  0  0  0  0  0
    0.4870   25.5290  -25.1370 N   0  0  0  0  0  0  0  0  0  0  0  0
    0.2000   24.1300  -24.7960 C   0  0  0  0  0  0  0  0  0  0  0  0
   -0.0490   25.8490  -26.7690 S   0  0  0  0  0  0  0  0  0  0  0  0
    0.9320   25.2820  -27.7590 O   0  0  0  0  0  0  0  0  0  0  0  0
   -0.1440   27.3350  -26.9920 O   0  0  0  0  0  0  0  0  0  0  0  0
   -1.6370   25.1350  -27.0360 C   0  0  0  0  0  0  0  0  0  0  0  0
   -2.7270   25.5170  -26.2400 C   0  0  0  0  0  0  0  0  0  0  0  0
   -3.9800   24.9240  -26.4300 C   0  0  0  0  0  0  0  0  0  0  0  0
   -4.1510   23.9450  -27.4110 C   0  0  0  0  0  0  0  0  0  0  0  0
   -3.0680   23.5580  -28.2190 C   0  0  0  0  0  0  0  0  0  0  0  0
   -3.2360   22.5400  -29.2270 N   0  0  0  0  0  0  0  0  0  0  0  0
   -3.2460   22.9200  -30.6490 C   0  0  0  0  0  0  0  0  0  0  0  0
   -4.0340   24.1800  -30.8460 C   0  0  0  0  0  0  0  0  0  0  0  0
   -3.5870   25.2730  -30.4000 O   0  0  0  0  0  0  0  0  0  0  0  0
   -5.2840   24.1400  -31.5330 N   0  0  0  0  0  0  0  0  0  0  0  0
   -6.5880   23.1140  -31.0380 S   0  0  0  0  0  0  0  0  0  0  0  0
   -6.4500   22.8210  -29.5690 O   0  0  0  0  0  0  0  0  0  0  0  0
   -7.8960   23.8230  -31.2720 O   0  0  0  0  0  0  0  0  0  0  0  0
   -6.5760   21.6230  -31.9780 C   0  0  0  0  0  0  0  0  0  0  0  0
   -5.4100   21.2450  -32.6700 C   0  0  0  0  0  0  0  0  0  0  0  0
   -5.3780   20.0510  -33.3960 C   0  0  0  0  0  0  0  0  0  0  0  0
   -6.5110   19.2320  -33.4420 C   0  0  0  0  0  0  0  0  0  0  0  0
   -7.6740   19.6020  -32.7550 C   0  0  0  0  0  0  0  0  0  0  0  0
   -7.7080   20.7940  -32.0240 C   0  0  0  0  0  0  0  0  0  0  0  0
   -3.4730   21.1440  -28.8250 C   0  0  0  0  0  0  0  0  0  0  0  0
   -2.1700   20.4760  -28.4730 C   0  0  0  0  0  0  0  0  0  0  0  0
   -2.1350   19.5020  -27.4580 C   0  0  0  0  0  0  0  0  0  0  0  0
   -0.9330   18.8550  -27.1490 C   0  0  0  0  0  0  0  0  0  0  0  0
    0.2350   19.1660  -27.8610 C   0  0  0  0  0  0  0  0  0  0  0  0
    0.2020   20.1200  -28.8850 C   0  0  0  0  0  0  0  0  0  0  0  0
   -0.9960   20.7710  -29.1950 C   0  0  0  0  0  0  0  0  0  0  0  0
   -1.8110   24.1560  -28.0230 C   0  0  0  0  0  0  0  0  0  0  0  0
    0.0247   26.1305  -23.1710 H   0  0  0  0  0  0  0  0  0  0  0  0
    0.1348   27.4610  -24.3728 H   0  0  0  0  0  0  0  0  0  0  0  0
   -1.2894   26.3663  -24.3728 H   0  0  0  0  0  0  0  0  0  0  0  0
    0.1767   24.0166  -23.7021 H   0  0  0  0  0  0  0  0  0  0  0  0
   -0.7757   23.8432  -25.2152 H   0  0  0  0  0  0  0  0  0  0  0  0
    0.9839   23.4822  -25.2152 H   0  0  0  0  0  0  0  0  0  0  0  0
   -2.5963   26.2854  -25.4638 H   0  0  0  0  0  0  0  0  0  0  0  0
   -4.8322   25.2296  -25.8053 H   0  0  0  0  0  0  0  0  0  0  0  0
   -5.1358   23.4755  -27.5517 H   0  0  0  0  0  0  0  0  0  0  0  0
   -2.2123   23.0818  -30.9885 H   0  0  0  0  0  0  0  0  0  0  0  0
   -3.7123   22.1119  -31.2317 H   0  0  0  0  0  0  0  0  0  0  0  0
   -4.5207   21.8917  -32.6393 H   0  0  0  0  0  0  0  0  0  0  0  0
   -4.4630   19.7558  -33.9305 H   0  0  0  0  0  0  0  0  0  0  0  0
   -6.4885   18.2956  -34.0188 H   0  0  0  0  0  0  0  0  0  0  0  0
   -8.5622   18.9541  -32.7904 H   0  0  0  0  0  0  0  0  0  0  0  0
   -8.6224   21.0821  -31.4847 H   0  0  0  0  0  0  0  0  0  0  0  0
   -4.1387   21.1260  -27.9495 H   0  0  0  0  0  0  0  0  0  0  0  0
   -3.9389   20.6035  -29.6621 H   0  0  0  0  0  0  0  0  0  0  0  0
   -3.0529   19.2490  -26.9071 H   0  0  0  0  0  0  0  0  0  0  0  0
   -0.9042   18.1022  -26.3474 H   0  0  0  0  0  0  0  0  0  0  0  0
    1.1794   18.6589  -27.6140 H   0  0  0  0  0  0  0  0  0  0  0  0
    1.1182   20.3574  -29.4455 H   0  0  0  0  0  0  0  0  0  0  0  0
   -1.0223   21.5153  -30.0045 H   0  0  0  0  0  0  0  0  0  0  0  0
   -0.9584   23.8533  -28.6487 H   0  0  0  0  0  0  0  0  0  0  0  0
  1  2  1  0
  2  3  1  0
  2  4  1  0
  4  5  2  0
  4  6  2  0
  4  7  1  0
  7  8  2  0
  8  9  1  0
  9 10  2  0
 10 11  1  0
 11 12  1  0
 12 13  1  0
 13 14  1  0
 14 15  2  0
 14 16  1  0
 16 17  1  0
 17 18  2  0
 17 19  2  0
 17 20  1  0
 20 21  2  0
 21 22  1  0
 22 23  2  0
 23 24  1  0
 24 25  2  0
 12 26  1  0
 26 27  1  0
 27 28  2  0
 28 29  1  0
 29 30  2  0
 30 31  1  0
 31 32  2  0
 11 33  2  0
 33  7  1  0
 25 20  1  0
 32 27  1  0
  1 34  1  0
  1 35  1  0
  1 36  1  0
  3 37  1  0
  3 38  1  0
  3 39  1  0
  8 40  1  0
  9 41  1  0
 10 42  1  0
 13 43  1  0
 13 44  1  0
 21 45  1  0
 22 46  1  0
 23 47  1  0
 24 48  1  0
 25 49  1  0
 26 50  1  0
 26 51  1  0
 28 52  1  0
 29 53  1  0
 30 54  1  0
 31 55  1  0
 32 56  1  0
 33 57  1  0
M  CHG  1  16  -1
M  END
>  <UniqueID>  (17) 
16

>  <SMILES>  (17) 
CN(C)S(=O)(=O)c1cccc(N(CC(=O)[N-]S(=O)(=O)c2ccccc2)Cc2ccccc2)c1

>  <Energy>  (17) 
58.90869157578112

>  <Genealogy>  (17) 
CN(C)S(=O)(=O)c1cccc(N(CC(=O)[N-]S(=O)(=O)c2ccccc2)Cc2ccccc2)c1 (protonated)
CN(C)S(=O)(=O)c1cccc(N(CC(=O)[N-]S(=O)(=O)c2ccccc2)Cc2ccccc2)c1 (3D coordinates assigned)
CN(C)S(=O)(=O)c1cccc(N(CC(=O)[N-]S(=O)(=O)c2ccccc2)Cc2ccccc2)c1 (optimized conformer: 58.90869157578112 kcal/mol)

>  <smiles>  (17) 
CN(C)S(=O)(=O)c1cccc(N(CC(=O)NS(=O)(=O)c2ccccc2)Cc2ccccc2)c1

>  <score_type>  (17) 
oracle

>  <origin>  (17) 
adgpu

>  <m_score__min__energy>  (17) 
-11.49

>  <m_primary>  (17) 
energy

$$$$
17:0
     RDKit          3D

 32 33  0  0  0  0  0  0  0  0999 V2000
   -3.8550   25.3190  -30.8050 N   0  0  0  0  0  0  0  0  0  0  0  0
   -4.2010   23.8100  -30.0390 S   0  0  0  0  0  0  0  0  0  0  0  0
   -4.6230   24.0650  -28.6180 O   0  0  0  0  0  0  0  0  0  0  0  0
   -2.9670   22.9520  -30.0250 O   0  0  0  0  0  0  0  0  0  0  0  0
   -5.4920   22.9820  -30.9200 C   0  0  0  0  0  0  0  0  0  0  0  0
   -6.8290   23.2560  -30.5900 C   0  0  0  0  0  0  0  0  0  0  0  0
   -7.8710   22.6020  -31.2500 C   0  0  0  0  0  0  0  0  0  0  0  0
   -7.5900   21.6710  -32.2490 C   0  0  0  0  0  0  0  0  0  0  0  0
   -6.2670   21.3930  -32.5940 C   0  0  0  0  0  0  0  0  0  0  0  0
   -5.2040   22.0360  -31.9340 C   0  0  0  0  0  0  0  0  0  0  0  0
   -3.8480   21.7680  -32.3310 N   0  0  0  0  0  0  0  0  0  0  0  0
   -3.4320   20.5130  -32.8960 C   0  0  0  0  0  0  0  0  0  0  0  0
   -4.1640   19.4940  -32.7580 O   0  0  0  0  0  0  0  0  0  0  0  0
   -2.1350   20.3870  -33.6030 C   0  0  0  0  0  0  0  0  0  0  0  0
   -1.7270   19.1590  -34.1560 C   0  0  0  0  0  0  0  0  0  0  0  0
   -0.5000   19.0510  -34.8160 C   0  0  0  0  0  0  0  0  0  0  0  0
    0.3490   20.1650  -34.9350 C   0  0  0  0  0  0  0  0  0  0  0  0
    1.6140   20.0550  -35.6160 N   0  0  0  0  0  0  0  0  0  0  0  0
    1.6780   20.1390  -36.8600 O   0  0  0  0  0  0  0  0  0  0  0  0
    2.7750   19.8580  -34.9040 O   0  0  0  0  0  0  0  0  0  0  0  0
   -0.0530   21.3880  -34.3750 C   0  0  0  0  0  0  0  0  0  0  0  0
   -1.2790   21.4970  -33.7130 C   0  0  0  0  0  0  0  0  0  0  0  0
   -3.8610   26.0490  -30.0590 H   0  0  0  0  0  0  0  0  0  0  0  0
   -7.0573   23.9920  -29.8050 H   0  0  0  0  0  0  0  0  0  0  0  0
   -8.9149   22.8215  -30.9815 H   0  0  0  0  0  0  0  0  0  0  0  0
   -8.4125   21.1549  -32.7659 H   0  0  0  0  0  0  0  0  0  0  0  0
   -6.0531   20.6641  -33.3896 H   0  0  0  0  0  0  0  0  0  0  0  0
   -3.1170   22.4840  -32.1260 H   0  0  0  0  0  0  0  0  0  0  0  0
   -2.3789   18.2774  -34.0681 H   0  0  0  0  0  0  0  0  0  0  0  0
   -0.1958   18.0855  -35.2463 H   0  0  0  0  0  0  0  0  0  0  0  0
    0.6023   22.2676  -34.4579 H   0  0  0  0  0  0  0  0  0  0  0  0
   -1.5771   22.4604  -33.2738 H   0  0  0  0  0  0  0  0  0  0  0  0
  1  2  1  0
  2  3  2  0
  2  4  2  0
  2  5  1  0
  5  6  2  0
  6  7  1  0
  7  8  2  0
  8  9  1  0
  9 10  2  0
 10 11  1  0
 11 12  1  0
 12 13  2  0
 12 14  1  0
 14 15  2  0
 15 16  1  0
 16 17  2  0
 17 18  1  0
 18 19  2  0
 18 20  1  0
 17 21  1  0
 21 22  2  0
 10  5  1  0
 22 14  1  0
  1 23  1  0
  6 24  1  0
  7 25  1  0
  8 26  1  0
  9 27  1  0
 11 28  1  0
 15 29  1  0
 16 30  1  0
 21 31  1  0
 22 32  1  0
M  CHG  3   1  -1  18   1  20  -1
M  END
>  <UniqueID>  (18) 
17

>  <SMILES>  (18) 
[NH-]S(=O)(=O)c1ccccc1NC(=O)c1ccc([N+](=O)[O-])cc1

>  <Energy>  (18) 
41.21067189345971

>  <Genealogy>  (18) 
[NH-]S(=O)(=O)c1ccccc1NC(=O)c1ccc([N+](=O)[O-])cc1 (protonated)
[NH-]S(=O)(=O)c1ccccc1NC(=O)c1ccc([N+](=O)[O-])cc1 (3D coordinates assigned)
[NH-]S(=O)(=O)c1ccccc1NC(=O)c1ccc([N+](=O)[O-])cc1 (optimized conformer: 41.21067189345971 kcal/mol)

>  <smiles>  (18) 
NS(=O)(=O)c1ccccc1NC(=O)c1ccc([N+](=O)[O-])cc1

>  <score_type>  (18) 
oracle

>  <origin>  (18) 
adgpu

>  <m_score__min__energy>  (18) 
-9.1099999999999994

>  <m_primary>  (18) 
energy

$$$$
18:0
     RDKit          3D

 64 68  0  0  0  0  0  0  0  0999 V2000
   -1.2320   25.4110  -24.6230 C   0  0  0  0  0  0  0  0  0  0  0  0
   -1.6760   24.9780  -25.9980 C   0  0  0  0  0  0  0  0  0  0  0  0
   -3.0530   24.9210  -26.2750 C   0  0  0  0  0  0  0  0  0  0  0  0
   -3.5130   24.5820  -27.5490 C   0  0  0  0  0  0  0  0  0  0  0  0
   -2.6010   24.2980  -28.5760 C   0  0  0  0  0  0  0  0  0  0  0  0
   -3.0280   23.9920  -29.9100 N   0  0  0  0  0  0  0  0  0  0  0  0
   -4.2480   24.4330  -30.5310 C   0  0  0  0  0  0  0  0  0  0  0  0
   -4.3690   25.6390  -30.8760 O   0  0  0  0  0  0  0  0  0  0  0  0
   -5.3440   23.4600  -30.7810 C   0  0  0  0  0  0  0  0  0  0  0  0
   -6.5350   23.5930  -30.0390 C   0  0  0  0  0  0  0  0  0  0  0  0
   -7.5800   22.6790  -30.1890 C   0  0  0  0  0  0  0  0  0  0  0  0
   -7.4480   21.6030  -31.0630 C   0  0  0  0  0  0  0  0  0  0  0  0
   -6.2780   21.4490  -31.8070 C   0  0  0  0  0  0  0  0  0  0  0  0
   -5.2310   22.3770  -31.6960 C   0  0  0  0  0  0  0  0  0  0  0  0
   -3.7610   22.0930  -32.7020 S   0  0  0  0  0  0  0  0  0  0  0  0
   -2.7460   21.6020  -31.3030 C   0  0  0  0  0  0  0  0  0  0  0  0
   -1.3720   21.8720  -31.2870 C   0  0  0  0  0  0  0  0  0  0  0  0
   -0.5900   21.4910  -30.1940 C   0  0  0  0  0  0  0  0  0  0  0  0
   -1.1770   20.8360  -29.0930 C   0  0  0  0  0  0  0  0  0  0  0  0
   -0.4330   20.4260  -27.9620 C   0  0  0  0  0  0  0  0  0  0  0  0
    1.0490   20.6670  -27.8510 C   0  0  0  0  0  0  0  0  0  0  0  0
   -1.1090   19.7900  -26.9100 C   0  0  0  0  0  0  0  0  0  0  0  0
   -2.4860   19.5770  -27.0060 C   0  0  0  0  0  0  0  0  0  0  0  0
   -3.1010   19.0020  -26.0680 O   0  0  0  0  0  0  0  0  0  0  0  0
   -3.1570   19.9700  -28.0830 O   0  0  0  0  0  0  0  0  0  0  0  0
   -2.5710   20.5760  -29.1100 C   0  0  0  0  0  0  0  0  0  0  0  0
   -3.3420   20.9630  -30.2110 C   0  0  0  0  0  0  0  0  0  0  0  0
   -1.2320   24.2990  -28.2940 C   0  0  0  0  0  0  0  0  0  0  0  0
   -0.7490   24.6490  -27.0210 C   0  0  0  0  0  0  0  0  0  0  0  0
    1.0060   24.6710  -26.7530 S   0  0  0  0  0  0  0  0  0  0  0  0
    1.7080   24.6580  -28.0840 O   0  0  0  0  0  0  0  0  0  0  0  0
    1.4080   23.4190  -26.0160 O   0  0  0  0  0  0  0  0  0  0  0  0
    1.4380   26.0970  -25.8240 N   0  0  0  0  0  0  0  0  0  0  0  0
    2.4170   26.9200  -26.5540 C   0  0  0  0  0  0  0  0  0  0  0  0
    2.8040   28.1730  -25.7330 C   0  0  0  0  0  0  0  0  0  0  0  0
    2.2420   28.1590  -24.4310 O   0  0  0  0  0  0  0  0  0  0  0  0
    2.5810   26.9520  -23.7760 C   0  0  0  0  0  0  0  0  0  0  0  0
    1.9630   25.7310  -24.4930 C   0  0  0  0  0  0  0  0  0  0  0  0
   -1.8009   24.8562  -23.8624 H   0  0  0  0  0  0  0  0  0  0  0  0
   -0.1586   25.2033  -24.5020 H   0  0  0  0  0  0  0  0  0  0  0  0
   -1.4127   26.4893  -24.5020 H   0  0  0  0  0  0  0  0  0  0  0  0
   -3.7771   25.1463  -25.4782 H   0  0  0  0  0  0  0  0  0  0  0  0
   -4.5940   24.5375  -27.7478 H   0  0  0  0  0  0  0  0  0  0  0  0
   -6.6428   24.4286  -29.3318 H   0  0  0  0  0  0  0  0  0  0  0  0
   -8.5096   22.8093  -29.6155 H   0  0  0  0  0  0  0  0  0  0  0  0
   -8.2659   20.8748  -31.1667 H   0  0  0  0  0  0  0  0  0  0  0  0
   -6.1750   20.5912  -32.4878 H   0  0  0  0  0  0  0  0  0  0  0  0
   -0.9059   22.3870  -32.1399 H   0  0  0  0  0  0  0  0  0  0  0  0
    0.4893   21.7033  -30.1927 H   0  0  0  0  0  0  0  0  0  0  0  0
    1.3345   20.7134  -26.7897 H   0  0  0  0  0  0  0  0  0  0  0  0
    1.5918   19.8453  -28.3411 H   0  0  0  0  0  0  0  0  0  0  0  0
    1.3035   21.6183  -28.3411 H   0  0  0  0  0  0  0  0  0  0  0  0
   -0.5586   19.4615  -26.0161 H   0  0  0  0  0  0  0  0  0  0  0  0
   -4.4237   20.7635  -30.2180 H   0  0  0  0  0  0  0  0  0  0  0  0
   -0.5186   24.0205  -29.0836 H   0  0  0  0  0  0  0  0  0  0  0  0
    0.5650   26.6570  -25.6870 H   0  0  0  0  0  0  0  0  0  0  0  0
    3.3198   26.3214  -26.7452 H   0  0  0  0  0  0  0  0  0  0  0  0
    1.9652   27.2462  -27.5024 H   0  0  0  0  0  0  0  0  0  0  0  0
    3.8997   28.2134  -25.6447 H   0  0  0  0  0  0  0  0  0  0  0  0
    2.4102   29.0548  -26.2597 H   0  0  0  0  0  0  0  0  0  0  0  0
    3.6758   26.8452  -23.7658 H   0  0  0  0  0  0  0  0  0  0  0  0
    2.1839   26.9901  -22.7509 H   0  0  0  0  0  0  0  0  0  0  0  0
    2.7358   24.9575  -24.6133 H   0  0  0  0  0  0  0  0  0  0  0  0
    1.1282   25.3567  -23.8823 H   0  0  0  0  0  0  0  0  0  0  0  0
  1  2  1  0
  2  3  2  0
  3  4  1  0
  4  5  2  0
  5  6  1  0
  6  7  1  0
  7  8  2  0
  7  9  1  0
  9 10  2  0
 10 11  1  0
 11 12  2  0
 12 13  1  0
 13 14  2  0
 14 15  1  0
 15 16  1  0
 16 17  2  0
 17 18  1  0
 18 19  2  0
 19 20  1  0
 20 21  1  0
 20 22  2  0
 22 23  1  0
 23 24  2  0
 23 25  1  0
 25 26  1  0
 26 27  2  0
  5 28  1  0
 28 29  2  0
 29 30  1  0
 30 31  2  0
 30 32  2  0
 30 33  1  0
 33 34  1  0
 34 35  1  0
 35 36  1  0
 36 37  1  0
 37 38  1  0
 29  2  1  0
 38 33  1  0
 14  9  1  0
 27 16  1  0
 26 19  1  0
  1 39  1  0
  1 40  1  0
  1 41  1  0
  3 42  1  0
  4 43  1  0
 10 44  1  0
 11 45  1  0
 12 46  1  0
 13 47  1  0
 17 48  1  0
 18 49  1  0
 21 50  1  0
 21 51  1  0
 21 52  1  0
 22 53  1  0
 27 54  1  0
 28 55  1  0
 33 56  1  0
 34 57  1  0
 34 58  1  0
 35 59  1  0
 35 60  1  0
 37 61  1  0
 37 62  1  0
 38 63  1  0
 38 64  1  0
M  CHG  2   6  -1  33   1
M  END
>  <UniqueID>  (19) 
18

>  <SMILES>  (19) 
Cc1ccc([N-]C(=O)c2ccccc2Sc2ccc3c(C)cc(=O)oc3c2)cc1S(=O)(=O)[NH+]1CCOCC1

>  <Energy>  (19) 
91.66525206789822

>  <Genealogy>  (19) 
Cc1ccc([N-]C(=O)c2ccccc2Sc2ccc3c(C)cc(=O)oc3c2)cc1S(=O)(=O)[NH+]1CCOCC1 (protonated)
Cc1ccc([N-]C(=O)c2ccccc2Sc2ccc3c(C)cc(=O)oc3c2)cc1S(=O)(=O)[NH+]1CCOCC1 (3D coordinates assigned)
Cc1ccc([N-]C(=O)c2ccccc2Sc2ccc3c(C)cc(=O)oc3c2)cc1S(=O)(=O)[NH+]1CCOCC1 (nonaromatic ring conformer: 91.66525206789822 kcal/mol)

>  <smiles>  (19) 
Cc1ccc(NC(=O)c2ccccc2Sc2ccc3c(C)cc(=O)oc3c2)cc1S(=O)(=O)N1CCOCC1

>  <score_type>  (19) 
oracle

>  <origin>  (19) 
adgpu

>  <m_score__min__energy>  (19) 
-11.98

>  <m_primary>  (19) 
energy

$$$$
19:0
     RDKit          3D

 54 57  0  0  0  0  0  0  0  0999 V2000
   -4.5240   21.4970  -32.6710 C   0  0  0  0  0  0  0  0  0  0  0  0
   -5.9420   21.8190  -32.2900 C   0  0  0  0  0  0  0  0  0  0  0  0
   -6.3350   23.1410  -31.9630 C   0  0  0  0  0  0  0  0  0  0  0  0
   -5.3440   24.1820  -31.9610 N   0  0  0  0  0  0  0  0  0  0  0  0
   -5.0430   25.0830  -30.8880 C   0  0  0  0  0  0  0  0  0  0  0  0
   -5.9200   25.8770  -30.4550 O   0  0  0  0  0  0  0  0  0  0  0  0
   -3.7130   25.1740  -30.3710 N   0  0  0  0  0  0  0  0  0  0  0  0
   -3.1100   24.2740  -29.4260 C   0  0  0  0  0  0  0  0  0  0  0  0
   -3.8010   23.1450  -28.9640 C   0  0  0  0  0  0  0  0  0  0  0  0
   -3.2130   22.2920  -28.0350 C   0  0  0  0  0  0  0  0  0  0  0  0
   -1.9350   22.5530  -27.5350 C   0  0  0  0  0  0  0  0  0  0  0  0
   -1.2950   21.4040  -26.3630 Cl  0  0  0  0  0  0  0  0  0  0  0  0
   -1.2290   23.7040  -27.9640 C   0  0  0  0  0  0  0  0  0  0  0  0
    0.3910   24.1050  -27.3340 S   0  0  0  0  0  0  0  0  0  0  0  0
    1.0330   22.9050  -26.6990 O   0  0  0  0  0  0  0  0  0  0  0  0
    1.2740   24.5260  -28.4760 O   0  0  0  0  0  0  0  0  0  0  0  0
    0.3320   25.4380  -26.1280 C   0  0  0  0  0  0  0  0  0  0  0  0
   -0.1650   26.7400  -26.7590 C   0  0  0  0  0  0  0  0  0  0  0  0
   -0.0850   27.8990  -25.7460 C   0  0  0  0  0  0  0  0  0  0  0  0
   -0.4560   27.5190  -24.3570 N   0  0  0  0  0  0  0  0  0  0  0  0
    0.7010   27.5080  -23.4450 C   0  0  0  0  0  0  0  0  0  0  0  0
   -1.2420   26.2720  -24.2680 C   0  0  0  0  0  0  0  0  0  0  0  0
   -0.5230   25.0600  -24.8990 C   0  0  0  0  0  0  0  0  0  0  0  0
   -1.8320   24.5650  -28.9110 C   0  0  0  0  0  0  0  0  0  0  0  0
   -1.1480   25.7070  -29.3380 O   0  0  0  0  0  0  0  0  0  0  0  0
   -7.6810   23.3990  -31.5850 C   0  0  0  0  0  0  0  0  0  0  0  0
   -8.6330   22.3660  -31.5740 C   0  0  0  0  0  0  0  0  0  0  0  0
   -8.2120   21.0900  -31.9290 C   0  0  0  0  0  0  0  0  0  0  0  0
   -6.9260   20.8250  -32.2710 C   0  0  0  0  0  0  0  0  0  0  0  0
   -6.8030   19.4790  -32.5660 O   0  0  0  0  0  0  0  0  0  0  0  0
   -8.0870   18.8650  -32.4000 C   0  0  0  0  0  0  0  0  0  0  0  0
   -8.9580   19.9290  -31.9920 O   0  0  0  0  0  0  0  0  0  0  0  0
   -3.9218   21.3602  -31.7607 H   0  0  0  0  0  0  0  0  0  0  0  0
   -4.5052   20.5717  -33.2656 H   0  0  0  0  0  0  0  0  0  0  0  0
   -4.1074   22.3234  -33.2656 H   0  0  0  0  0  0  0  0  0  0  0  0
   -4.8134   22.9323  -29.3379 H   0  0  0  0  0  0  0  0  0  0  0  0
   -3.7606   21.4023  -27.6905 H   0  0  0  0  0  0  0  0  0  0  0  0
    1.3620   25.6022  -25.7784 H   0  0  0  0  0  0  0  0  0  0  0  0
    0.4591   26.9796  -27.6325 H   0  0  0  0  0  0  0  0  0  0  0  0
   -1.2133   26.6082  -27.0650 H   0  0  0  0  0  0  0  0  0  0  0  0
    0.9475   28.2783  -25.7361 H   0  0  0  0  0  0  0  0  0  0  0  0
   -0.8131   28.6561  -26.0726 H   0  0  0  0  0  0  0  0  0  0  0  0
    0.3470   27.5114  -22.4035 H   0  0  0  0  0  0  0  0  0  0  0  0
    1.3014   26.6041  -23.6253 H   0  0  0  0  0  0  0  0  0  0  0  0
    1.3185   28.4003  -23.6253 H   0  0  0  0  0  0  0  0  0  0  0  0
   -1.4331   26.0530  -23.2071 H   0  0  0  0  0  0  0  0  0  0  0  0
   -2.1749   26.4301  -24.8289 H   0  0  0  0  0  0  0  0  0  0  0  0
    0.1336   24.6083  -24.1408 H   0  0  0  0  0  0  0  0  0  0  0  0
   -1.2986   24.3589  -25.2410 H   0  0  0  0  0  0  0  0  0  0  0  0
   -0.1620   25.7020  -29.5680 H   0  0  0  0  0  0  0  0  0  0  0  0
   -7.9801   24.4180  -31.2982 H   0  0  0  0  0  0  0  0  0  0  0  0
   -9.6786   22.5609  -31.2933 H   0  0  0  0  0  0  0  0  0  0  0  0
   -8.4310   18.4260  -33.3481 H   0  0  0  0  0  0  0  0  0  0  0  0
   -8.0617   18.0472  -31.6648 H   0  0  0  0  0  0  0  0  0  0  0  0
  1  2  1  0
  2  3  2  0
  3  4  1  0
  4  5  1  0
  5  6  2  0
  5  7  1  0
  7  8  1  0
  8  9  2  0
  9 10  1  0
 10 11  2  0
 11 12  1  0
 11 13  1  0
 13 14  1  0
 14 15  2  0
 14 16  2  0
 14 17  1  0
 17 18  1  0
 18 19  1  0
 19 20  1  0
 20 21  1  0
 20 22  1  0
 22 23  1  0
 13 24  2  0
 24 25  1  0
  3 26  1  0
 26 27  2  0
 27 28  1  0
 28 29  2  0
 29 30  1  0
 30 31  1  0
 31 32  1  0
 29  2  1  0
 24  8  1  0
 32 28  1  0
 23 17  1  0
  1 33  1  0
  1 34  1  0
  1 35  1  0
  9 36  1  0
 10 37  1  0
 17 38  1  0
 18 39  1  0
 18 40  1  0
 19 41  1  0
 19 42  1  0
 21 43  1  0
 21 44  1  0
 21 45  1  0
 22 46  1  0
 22 47  1  0
 23 48  1  0
 23 49  1  0
 25 50  1  0
 26 51  1  0
 27 52  1  0
 31 53  1  0
 31 54  1  0
M  CHG  2   4  -1   7  -1
M  END
>  <UniqueID>  (20) 
19

>  <SMILES>  (20) 
Cc1c([N-]C(=O)[N-]c2ccc(Cl)c(S(=O)(=O)C3CCN(C)CC3)c2O)ccc2c1OCO2

>  <Energy>  (20) 
101.03590753430147

>  <Genealogy>  (20) 
Cc1c([N-]C(=O)[N-]c2ccc(Cl)c(S(=O)(=O)C3CCN(C)CC3)c2O)ccc2c1OCO2 (protonated)
Cc1c([N-]C(=O)[N-]c2ccc(Cl)c(S(=O)(=O)C3CCN(C)CC3)c2O)ccc2c1OCO2 (3D coordinates assigned)
Cc1c([N-]C(=O)[N-]c2ccc(Cl)c(S(=O)(=O)C3CCN(C)CC3)c2O)ccc2c1OCO2 (nonaromatic ring conformer: 101.03590753430147 kcal/mol)

>  <smiles>  (20) 
Cc1c(NC(=O)Nc2ccc(Cl)c(S(=O)(=O)C3CCN(C)CC3)c2O)ccc2c1OCO2

>  <score_type>  (20) 
oracle

>  <origin>  (20) 
adgpu

>  <m_score__min__energy>  (20) 
-13.220000000000001

>  <m_primary>  (20) 
energy

$$$$
20:0
     RDKit          3D

 59 62  0  0  0  0  0  0  0  0999 V2000
    1.8160   16.1570  -27.0760 C   0  0  0  0  0  0  0  0  0  0  0  0
    1.8100   17.4180  -27.7370 O   0  0  0  0  0  0  0  0  0  0  0  0
    0.6730   18.2230  -27.8990 C   0  0  0  0  0  0  0  0  0  0  0  0
   -0.4840   18.0650  -27.1110 C   0  0  0  0  0  0  0  0  0  0  0  0
   -1.5920   18.8940  -27.3110 C   0  0  0  0  0  0  0  0  0  0  0  0
   -1.5640   19.8910  -28.2990 C   0  0  0  0  0  0  0  0  0  0  0  0
   -2.7720   20.7590  -28.5290 C   0  0  0  0  0  0  0  0  0  0  0  0
   -2.4390   22.1670  -28.2820 N   0  0  0  0  0  0  0  0  0  0  0  0
   -2.5730   23.2290  -29.1140 C   0  0  0  0  0  0  0  0  0  0  0  0
   -3.2460   23.2080  -30.4590 C   0  0  0  0  0  0  0  0  0  0  0  0
   -4.2680   24.2990  -30.5230 C   0  0  0  0  0  0  0  0  0  0  0  0
   -3.9090   25.4780  -30.7840 O   0  0  0  0  0  0  0  0  0  0  0  0
   -5.6440   23.9930  -30.2710 N   0  0  0  0  0  0  0  0  0  0  0  0
   -6.4060   22.9490  -30.8970 C   0  0  0  0  0  0  0  0  0  0  0  0
   -7.7400   22.6920  -30.5400 C   0  0  0  0  0  0  0  0  0  0  0  0
   -8.4340   21.6310  -31.1260 C   0  0  0  0  0  0  0  0  0  0  0  0
   -7.8070   20.7980  -32.0670 C   0  0  0  0  0  0  0  0  0  0  0  0
   -8.5860   19.6600  -32.6760 C   0  0  0  0  0  0  0  0  0  0  0  0
   -6.4670   21.0580  -32.4380 C   0  0  0  0  0  0  0  0  0  0  0  0
   -5.7430   20.1840  -33.4290 C   0  0  0  0  0  0  0  0  0  0  0  0
   -5.7740   22.1180  -31.8270 C   0  0  0  0  0  0  0  0  0  0  0  0
   -2.1200   24.3560  -28.4420 C   0  0  0  0  0  0  0  0  0  0  0  0
   -2.1620   25.6680  -28.9080 O   0  0  0  0  0  0  0  0  0  0  0  0
   -1.6700   23.9990  -27.2200 N   0  0  0  0  0  0  0  0  0  0  0  0
   -1.1340   24.8440  -26.1860 C   0  0  0  0  0  0  0  0  0  0  0  0
   -1.8390   25.9710  -25.7310 C   0  0  0  0  0  0  0  0  0  0  0  0
   -1.2780   26.7800  -24.7410 C   0  0  0  0  0  0  0  0  0  0  0  0
   -0.0280   26.4620  -24.2110 C   0  0  0  0  0  0  0  0  0  0  0  0
    0.6470   25.3330  -24.6820 C   0  0  0  0  0  0  0  0  0  0  0  0
    0.0890   24.5620  -25.6530 N   0  0  0  0  0  0  0  0  0  0  0  0
   -1.8900   22.6680  -27.1530 C   0  0  0  0  0  0  0  0  0  0  0  0
   -1.6020   21.9620  -26.1460 O   0  0  0  0  0  0  0  0  0  0  0  0
   -0.4130   20.0460  -29.0850 C   0  0  0  0  0  0  0  0  0  0  0  0
    0.6970   19.2180  -28.8810 C   0  0  0  0  0  0  0  0  0  0  0  0
    1.8153   16.3137  -25.9872 H   0  0  0  0  0  0  0  0  0  0  0  0
    0.9206   15.5872  -27.3650 H   0  0  0  0  0  0  0  0  0  0  0  0
    2.7168   15.5958  -27.3650 H   0  0  0  0  0  0  0  0  0  0  0  0
   -0.5159   17.2860  -26.3350 H   0  0  0  0  0  0  0  0  0  0  0  0
   -2.4910   18.7643  -26.6905 H   0  0  0  0  0  0  0  0  0  0  0  0
   -3.1102   20.6427  -29.5692 H   0  0  0  0  0  0  0  0  0  0  0  0
   -3.5710   20.4526  -27.8378 H   0  0  0  0  0  0  0  0  0  0  0  0
   -2.4946   23.3629  -31.2473 H   0  0  0  0  0  0  0  0  0  0  0  0
   -3.7383   22.2356  -30.6073 H   0  0  0  0  0  0  0  0  0  0  0  0
   -8.2402   23.3291  -29.7957 H   0  0  0  0  0  0  0  0  0  0  0  0
   -9.4820   21.4460  -30.8478 H   0  0  0  0  0  0  0  0  0  0  0  0
   -9.0121   19.0375  -31.8754 H   0  0  0  0  0  0  0  0  0  0  0  0
   -9.3983   20.0634  -33.2985 H   0  0  0  0  0  0  0  0  0  0  0  0
   -7.9160   19.0487  -33.2985 H   0  0  0  0  0  0  0  0  0  0  0  0
   -5.1317   19.4460  -32.8890 H   0  0  0  0  0  0  0  0  0  0  0  0
   -6.4760   19.6610  -34.0608 H   0  0  0  0  0  0  0  0  0  0  0  0
   -5.0927   20.8069  -34.0608 H   0  0  0  0  0  0  0  0  0  0  0  0
   -4.7195   22.2960  -32.0844 H   0  0  0  0  0  0  0  0  0  0  0  0
   -2.9910   26.0570  -29.3390 H   0  0  0  0  0  0  0  0  0  0  0  0
   -2.8258   26.2142  -26.1517 H   0  0  0  0  0  0  0  0  0  0  0  0
   -1.8207   27.6661  -24.3800 H   0  0  0  0  0  0  0  0  0  0  0  0
    0.4218   27.0932  -23.4305 H   0  0  0  0  0  0  0  0  0  0  0  0
    1.6305   25.0677  -24.2670 H   0  0  0  0  0  0  0  0  0  0  0  0
   -0.3823   20.8212  -29.8648 H   0  0  0  0  0  0  0  0  0  0  0  0
    1.5970   19.3514  -29.4993 H   0  0  0  0  0  0  0  0  0  0  0  0
  1  2  1  0
  2  3  1  0
  3  4  2  0
  4  5  1  0
  5  6  2  0
  6  7  1  0
  7  8  1  0
  8  9  1  0
  9 10  1  0
 10 11  1  0
 11 12  2  0
 11 13  1  0
 13 14  1  0
 14 15  2  0
 15 16  1  0
 16 17  2  0
 17 18  1  0
 17 19  1  0
 19 20  1  0
 19 21  2  0
  9 22  2  0
 22 23  1  0
 22 24  1  0
 24 25  1  0
 25 26  2  0
 26 27  1  0
 27 28  2  0
 28 29  1  0
 29 30  2  0
 24 31  1  0
 31 32  2  0
  6 33  1  0
 33 34  2  0
 34  3  1  0
 31  8  1  0
 21 14  1  0
 30 25  1  0
  1 35  1  0
  1 36  1  0
  1 37  1  0
  4 38  1  0
  5 39  1  0
  7 40  1  0
  7 41  1  0
 10 42  1  0
 10 43  1  0
 15 44  1  0
 16 45  1  0
 18 46  1  0
 18 47  1  0
 18 48  1  0
 20 49  1  0
 20 50  1  0
 20 51  1  0
 21 52  1  0
 23 53  1  0
 26 54  1  0
 27 55  1  0
 28 56  1  0
 29 57  1  0
 33 58  1  0
 34 59  1  0
M  CHG  1  13  -1
M  END
>  <UniqueID>  (21) 
20

>  <SMILES>  (21) 
COc1ccc(Cn2c(CC(=O)[N-]c3ccc(C)c(C)c3)c(O)n(-c3ccccn3)c2=O)cc1

>  <Energy>  (21) 
101.86405270352057

>  <Genealogy>  (21) 
COc1ccc(Cn2c(CC(=O)[N-]c3ccc(C)c(C)c3)c(O)n(-c3ccccn3)c2=O)cc1 (protonated)
COc1ccc(Cn2c(CC(=O)[N-]c3ccc(C)c(C)c3)c(O)n(-c3ccccn3)c2=O)cc1 (3D coordinates assigned)
COc1ccc(Cn2c(CC(=O)[N-]c3ccc(C)c(C)c3)c(O)n(-c3ccccn3)c2=O)cc1 (optimized conformer: 101.86405270352057 kcal/mol)

>  <smiles>  (21) 
COc1ccc(Cn2c(CC(=O)Nc3ccc(C)c(C)c3)c(O)n(-c3ccccn3)c2=O)cc1

>  <score_type>  (21) 
oracle

>  <origin>  (21) 
adgpu

>  <m_score__min__energy>  (21) 
-11.4

>  <m_primary>  (21) 
energy

$$$$
21:0
     RDKit          3D

 51 53  0  0  0  0  0  0  0  0999 V2000
   -7.1720   19.9200  -32.6630 C   0  0  0  0  0  0  0  0  0  0  0  0
   -6.9580   21.2200  -31.9450 C   0  0  0  0  0  0  0  0  0  0  0  0
   -7.9050   22.2470  -32.0460 C   0  0  0  0  0  0  0  0  0  0  0  0
   -7.6890   23.4700  -31.4070 C   0  0  0  0  0  0  0  0  0  0  0  0
   -6.5210   23.6880  -30.6580 C   0  0  0  0  0  0  0  0  0  0  0  0
   -6.3240   25.0130  -29.9740 C   0  0  0  0  0  0  0  0  0  0  0  0
   -5.5430   22.6710  -30.5920 C   0  0  0  0  0  0  0  0  0  0  0  0
   -4.3100   22.8720  -29.8820 N   0  0  0  0  0  0  0  0  0  0  0  0
   -3.1520   23.4320  -30.5830 C   0  0  0  0  0  0  0  0  0  0  0  0
   -1.8660   23.0400  -29.8450 C   0  0  0  0  0  0  0  0  0  0  0  0
   -1.8770   23.4060  -28.4080 N   0  0  0  0  0  0  0  0  0  0  0  0
   -0.7780   24.7210  -28.0560 S   0  0  0  0  0  0  0  0  0  0  0  0
   -1.2240   25.9610  -28.7810 O   0  0  0  0  0  0  0  0  0  0  0  0
    0.5860   24.3660  -28.5760 O   0  0  0  0  0  0  0  0  0  0  0  0
   -0.6700   25.0520  -26.3170 C   0  0  0  0  0  0  0  0  0  0  0  0
   -0.5860   24.1390  -25.2690 C   0  0  0  0  0  0  0  0  0  0  0  0
   -0.5010   22.6490  -25.3520 C   0  0  0  0  0  0  0  0  0  0  0  0
   -0.5410   24.8030  -24.0970 N   0  0  0  0  0  0  0  0  0  0  0  0
   -0.6130   26.0980  -24.3600 N   0  0  0  0  0  0  0  0  0  0  0  0
   -0.6130   27.1250  -23.3250 C   0  0  0  0  0  0  0  0  0  0  0  0
   -0.6810   26.2930  -25.6950 C   0  0  0  0  0  0  0  0  0  0  0  0
   -0.8620   27.6290  -26.3560 C   0  0  0  0  0  0  0  0  0  0  0  0
   -3.2150   23.6880  -27.8430 C   0  0  0  0  0  0  0  0  0  0  0  0
   -4.2810   22.7540  -28.4200 C   0  0  0  0  0  0  0  0  0  0  0  0
   -5.7730   21.4430  -31.2320 C   0  0  0  0  0  0  0  0  0  0  0  0
   -7.3049   19.1126  -31.9278 H   0  0  0  0  0  0  0  0  0  0  0  0
   -8.0702   19.9930  -33.2938 H   0  0  0  0  0  0  0  0  0  0  0  0
   -6.2978   19.7013  -33.2938 H   0  0  0  0  0  0  0  0  0  0  0  0
   -8.8230   22.0896  -32.6312 H   0  0  0  0  0  0  0  0  0  0  0  0
   -8.4400   24.2693  -31.4910 H   0  0  0  0  0  0  0  0  0  0  0  0
   -6.3453   24.8695  -28.8836 H   0  0  0  0  0  0  0  0  0  0  0  0
   -5.3529   25.4372  -30.2691 H   0  0  0  0  0  0  0  0  0  0  0  0
   -7.1297   25.7013  -30.2691 H   0  0  0  0  0  0  0  0  0  0  0  0
   -3.1197   23.0382  -31.6096 H   0  0  0  0  0  0  0  0  0  0  0  0
   -3.2372   24.5283  -30.6121 H   0  0  0  0  0  0  0  0  0  0  0  0
   -1.7354   21.9508  -29.9265 H   0  0  0  0  0  0  0  0  0  0  0  0
   -1.0400   23.5940  -30.3150 H   0  0  0  0  0  0  0  0  0  0  0  0
   -0.4769   22.2260  -24.3369 H   0  0  0  0  0  0  0  0  0  0  0  0
   -1.3785   22.2611  -25.8901 H   0  0  0  0  0  0  0  0  0  0  0  0
    0.4149   22.3634  -25.8901 H   0  0  0  0  0  0  0  0  0  0  0  0
    0.4241   27.3833  -23.0647 H   0  0  0  0  0  0  0  0  0  0  0  0
   -1.1315   28.0208  -23.6973 H   0  0  0  0  0  0  0  0  0  0  0  0
   -1.1315   26.7457  -22.4321 H   0  0  0  0  0  0  0  0  0  0  0  0
   -0.9675   28.4077  -25.5862 H   0  0  0  0  0  0  0  0  0  0  0  0
    0.0145   27.8496  -26.9830 H   0  0  0  0  0  0  0  0  0  0  0  0
   -1.7656   27.6085  -26.9830 H   0  0  0  0  0  0  0  0  0  0  0  0
   -3.1767   23.5543  -26.7518 H   0  0  0  0  0  0  0  0  0  0  0  0
   -3.4867   24.7214  -28.1040 H   0  0  0  0  0  0  0  0  0  0  0  0
   -4.0453   21.7160  -28.1425 H   0  0  0  0  0  0  0  0  0  0  0  0
   -5.2648   23.0331  -28.0146 H   0  0  0  0  0  0  0  0  0  0  0  0
   -5.0152   20.6479  -31.1730 H   0  0  0  0  0  0  0  0  0  0  0  0
  1  2  1  0
  2  3  2  0
  3  4  1  0
  4  5  2  0
  5  6  1  0
  5  7  1  0
  7  8  1  0
  8  9  1  0
  9 10  1  0
 10 11  1  0
 11 12  1  0
 12 13  2  0
 12 14  2  0
 12 15  1  0
 15 16  1  0
 16 17  1  0
 16 18  2  0
 18 19  1  0
 19 20  1  0
 19 21  1  0
 21 22  1  0
 11 23  1  0
 23 24  1  0
  7 25  2  0
 25  2  1  0
 24  8  1  0
 21 15  2  0
  1 26  1  0
  1 27  1  0
  1 28  1  0
  3 29  1  0
  4 30  1  0
  6 31  1  0
  6 32  1  0
  6 33  1  0
  9 34  1  0
  9 35  1  0
 10 36  1  0
 10 37  1  0
 17 38  1  0
 17 39  1  0
 17 40  1  0
 20 41  1  0
 20 42  1  0
 20 43  1  0
 22 44  1  0
 22 45  1  0
 22 46  1  0
 23 47  1  0
 23 48  1  0
 24 49  1  0
 24 50  1  0
 25 51  1  0
M  END
>  <UniqueID>  (22) 
21

>  <SMILES>  (22) 
Cc1ccc(C)c(N2CCN(S(=O)(=O)c3c(C)nn(C)c3C)CC2)c1

>  <Energy>  (22) 
89.50402530724752

>  <Genealogy>  (22) 
Cc1ccc(C)c(N2CCN(S(=O)(=O)c3c(C)nn(C)c3C)CC2)c1 (3D coordinates assigned)
Cc1ccc(C)c(N2CCN(S(=O)(=O)c3c(C)nn(C)c3C)CC2)c1 (nonaromatic ring conformer: 89.50402530724752 kcal/mol)

>  <smiles>  (22) 
Cc1ccc(C)c(N2CCN(S(=O)(=O)c3c(C)nn(C)c3C)CC2)c1

>  <score_type>  (22) 
oracle

>  <origin>  (22) 
adgpu

>  <m_score__min__energy>  (22) 
-8.7200000000000006

>  <m_primary>  (22) 
energy

$$$$
22:0
     RDKit          3D

 49 52  0  0  0  0  0  0  0  0999 V2000
   -4.7430   18.4320  -34.3430 C   0  0  0  0  0  0  0  0  0  0  0  0
   -5.5620   19.3960  -33.5270 C   0  0  0  0  0  0  0  0  0  0  0  0
   -6.9150   19.1350  -33.2820 C   0  0  0  0  0  0  0  0  0  0  0  0
   -7.6890   20.0010  -32.5550 N   0  0  0  0  0  0  0  0  0  0  0  0
   -9.1030   19.6540  -32.3410 C   0  0  0  0  0  0  0  0  0  0  0  0
   -7.1460   21.1640  -32.0440 C   0  0  0  0  0  0  0  0  0  0  0  0
   -7.9170   22.0730  -31.2830 C   0  0  0  0  0  0  0  0  0  0  0  0
   -7.3480   23.2390  -30.7720 C   0  0  0  0  0  0  0  0  0  0  0  0
   -6.0040   23.5350  -31.0100 C   0  0  0  0  0  0  0  0  0  0  0  0
   -5.2910   25.0190  -30.3820 S   0  0  0  0  0  0  0  0  0  0  0  0
   -5.7740   25.2180  -28.9730 O   0  0  0  0  0  0  0  0  0  0  0  0
   -5.6950   26.2060  -31.2100 O   0  0  0  0  0  0  0  0  0  0  0  0
   -3.5600   24.8890  -30.3690 N   0  0  0  0  0  0  0  0  0  0  0  0
   -2.7710   23.9100  -29.6730 C   0  0  0  0  0  0  0  0  0  0  0  0
   -2.1840   22.8950  -30.4360 C   0  0  0  0  0  0  0  0  0  0  0  0
   -1.3830   21.9080  -29.8430 C   0  0  0  0  0  0  0  0  0  0  0  0
   -1.1390   21.9570  -28.4540 C   0  0  0  0  0  0  0  0  0  0  0  0
   -1.7570   22.9480  -27.6800 C   0  0  0  0  0  0  0  0  0  0  0  0
   -2.5770   23.9190  -28.2740 C   0  0  0  0  0  0  0  0  0  0  0  0
   -3.2080   24.8590  -27.4650 O   0  0  0  0  0  0  0  0  0  0  0  0
   -0.3230   20.8930  -27.7570 C   0  0  0  0  0  0  0  0  0  0  0  0
    0.5880   20.1260  -28.7200 C   0  0  0  0  0  0  0  0  0  0  0  0
   -0.2010   19.6700  -29.9460 C   0  0  0  0  0  0  0  0  0  0  0  0
   -0.7190   20.8800  -30.7300 C   0  0  0  0  0  0  0  0  0  0  0  0
   -5.2230   22.6510  -31.7570 C   0  0  0  0  0  0  0  0  0  0  0  0
   -5.7780   21.4670  -32.2800 C   0  0  0  0  0  0  0  0  0  0  0  0
   -4.9940   20.5760  -33.0330 C   0  0  0  0  0  0  0  0  0  0  0  0
   -3.7790   20.8300  -33.2650 O   0  0  0  0  0  0  0  0  0  0  0  0
   -4.1795   17.7687  -33.6703 H   0  0  0  0  0  0  0  0  0  0  0  0
   -5.4100   17.8299  -34.9775 H   0  0  0  0  0  0  0  0  0  0  0  0
   -4.0410   18.9929  -34.9775 H   0  0  0  0  0  0  0  0  0  0  0  0
   -7.3667   18.2150  -33.6816 H   0  0  0  0  0  0  0  0  0  0  0  0
   -9.3088   19.6035  -31.2616 H   0  0  0  0  0  0  0  0  0  0  0  0
   -9.7426   20.4218  -32.8007 H   0  0  0  0  0  0  0  0  0  0  0  0
   -9.3145   18.6773  -32.8007 H   0  0  0  0  0  0  0  0  0  0  0  0
   -8.9786   21.8576  -31.0918 H   0  0  0  0  0  0  0  0  0  0  0  0
   -7.9623   23.9308  -30.1770 H   0  0  0  0  0  0  0  0  0  0  0  0
   -2.3540   22.8704  -31.5225 H   0  0  0  0  0  0  0  0  0  0  0  0
   -1.5971   22.9649  -26.5918 H   0  0  0  0  0  0  0  0  0  0  0  0
   -3.9670   25.4360  -27.8080 H   0  0  0  0  0  0  0  0  0  0  0  0
    0.3009   21.3738  -26.9891 H   0  0  0  0  0  0  0  0  0  0  0  0
   -1.0248   20.1705  -27.3148 H   0  0  0  0  0  0  0  0  0  0  0  0
    1.4107   20.7817  -29.0412 H   0  0  0  0  0  0  0  0  0  0  0  0
    0.9905   19.2417  -28.2042 H   0  0  0  0  0  0  0  0  0  0  0  0
    0.4538   19.0707  -30.5958 H   0  0  0  0  0  0  0  0  0  0  0  0
   -1.0589   19.0672  -29.6135 H   0  0  0  0  0  0  0  0  0  0  0  0
    0.1289   21.3548  -31.2454 H   0  0  0  0  0  0  0  0  0  0  0  0
   -1.4751   20.5165  -31.4414 H   0  0  0  0  0  0  0  0  0  0  0  0
   -4.1630   22.8818  -31.9389 H   0  0  0  0  0  0  0  0  0  0  0  0
  1  2  1  0
  2  3  2  0
  3  4  1  0
  4  5  1  0
  4  6  1  0
  6  7  2  0
  7  8  1  0
  8  9  2  0
  9 10  1  0
 10 11  2  0
 10 12  2  0
 10 13  1  0
 13 14  1  0
 14 15  2  0
 15 16  1  0
 16 17  2  0
 17 18  1  0
 18 19  2  0
 19 20  1  0
 17 21  1  0
 21 22  1  0
 22 23  1  0
 23 24  1  0
  9 25  1  0
 25 26  2  0
 26 27  1  0
 27 28  2  0
 27  2  1  0
 26  6  1  0
 19 14  1  0
 24 16  1  0
  1 29  1  0
  1 30  1  0
  1 31  1  0
  3 32  1  0
  5 33  1  0
  5 34  1  0
  5 35  1  0
  7 36  1  0
  8 37  1  0
 15 38  1  0
 18 39  1  0
 20 40  1  0
 21 41  1  0
 21 42  1  0
 22 43  1  0
 22 44  1  0
 23 45  1  0
 23 46  1  0
 24 47  1  0
 24 48  1  0
 25 49  1  0
M  CHG  1  13  -1
M  END
>  <UniqueID>  (23) 
22

>  <SMILES>  (23) 
Cc1cn(C)c2ccc(S(=O)(=O)[N-]c3cc4c(cc3O)CCCC4)cc2c1=O

>  <Energy>  (23) 
65.93181384820345

>  <Genealogy>  (23) 
Cc1cn(C)c2ccc(S(=O)(=O)[N-]c3cc4c(cc3O)CCCC4)cc2c1=O (protonated)
Cc1cn(C)c2ccc(S(=O)(=O)[N-]c3cc4c(cc3O)CCCC4)cc2c1=O (3D coordinates assigned)
Cc1cn(C)c2ccc(S(=O)(=O)[N-]c3cc4c(cc3O)CCCC4)cc2c1=O (nonaromatic ring conformer: 65.93181384820345 kcal/mol)

>  <smiles>  (23) 
Cc1cn(C)c2ccc(S(=O)(=O)Nc3cc4c(cc3O)CCCC4)cc2c1=O

>  <score_type>  (23) 
oracle

>  <origin>  (23) 
adgpu

>  <m_score__min__energy>  (23) 
-13.26

>  <m_primary>  (23) 
energy

$$$$
23:0
     RDKit          3D

 35 37  0  0  1  0  0  0  0  0999 V2000
  -10.0800   21.1300  -32.3180 N   0  0  0  0  0  0  0  0  0  0  0  0
   -8.7700   21.0940  -32.2850 C   0  0  0  0  0  0  0  0  0  0  0  0
   -8.1440   20.0240  -32.8190 N   0  0  0  0  0  0  0  0  0  0  0  0
   -6.8030   19.8890  -32.8350 C   0  0  0  0  0  0  0  0  0  0  0  0
   -6.1280   18.7330  -33.4120 C   0  0  0  0  0  0  0  0  0  0  0  0
   -4.8930   18.8540  -34.0160 C   0  0  0  0  0  0  0  0  0  0  0  0
   -4.2350   17.7480  -34.5740 C   0  0  0  0  0  0  0  0  0  0  0  0
   -4.7940   16.4960  -34.5430 C   0  0  0  0  0  0  0  0  0  0  0  0
   -6.0260   16.3660  -33.9430 C   0  0  0  0  0  0  0  0  0  0  0  0
   -6.6800   17.4710  -33.3870 C   0  0  0  0  0  0  0  0  0  0  0  0
   -6.3800   15.0070  -34.0370 O   0  0  0  0  0  0  0  0  0  0  0  0
   -5.1760   14.2530  -34.2400 C   0  0  0  0  0  0  0  0  0  0  0  0
   -4.4280   15.2230  -34.9860 O   0  0  0  0  0  0  0  0  0  0  0  0
   -6.0820   20.9200  -32.2680 C   0  0  0  0  0  0  0  0  0  0  0  0
   -6.7140   22.0400  -31.7100 C   0  0  0  0  0  0  0  0  0  0  0  0
   -6.0810   23.0030  -31.1820 N   0  0  0  0  0  0  0  0  0  0  0  0
   -6.6430   24.1780  -30.5910 C   0  0  0  0  0  0  0  0  0  0  0  0
   -5.6660   25.3260  -30.4470 C   0  0  0  0  0  0  0  0  0  0  0  0
   -4.3300   25.0270  -30.8360 N   0  0  0  0  0  0  0  0  0  0  0  0
   -8.0550   22.0930  -31.7350 N   0  0  0  0  0  0  0  0  0  0  0  0
  -10.5250   21.9720  -31.8970 H   0  0  0  0  0  0  0  0  0  0  0  0
   -8.7510   19.2930  -33.2240 H   0  0  0  0  0  0  0  0  0  0  0  0
   -4.4126   19.8425  -34.0610 H   0  0  0  0  0  0  0  0  0  0  0  0
   -3.2512   17.8876  -35.0458 H   0  0  0  0  0  0  0  0  0  0  0  0
   -7.6638   17.3278  -32.9161 H   0  0  0  0  0  0  0  0  0  0  0  0
   -4.6854   13.9953  -33.2898 H   0  0  0  0  0  0  0  0  0  0  0  0
   -5.3058   13.2766  -34.7296 H   0  0  0  0  0  0  0  0  0  0  0  0
   -4.9837   20.8615  -32.2535 H   0  0  0  0  0  0  0  0  0  0  0  0
   -7.4806   24.5141  -31.2199 H   0  0  0  0  0  0  0  0  0  0  0  0
   -6.9591   23.9013  -29.5744 H   0  0  0  0  0  0  0  0  0  0  0  0
   -6.0245   26.1600  -31.0683 H   0  0  0  0  0  0  0  0  0  0  0  0
   -5.6288   25.5674  -29.3745 H   0  0  0  0  0  0  0  0  0  0  0  0
   -4.1260   24.0390  -31.0060 H   0  0  0  0  0  0  0  0  0  0  0  0
   -3.9490   25.6820  -31.5700 H   0  0  0  0  0  0  0  0  0  0  0  0
   -8.5790   22.8870  -31.3420 H   0  0  0  0  0  0  0  0  0  0  0  0
  1  2  2  3
  2  3  1  0
  3  4  1  0
  4  5  1  0
  5  6  2  0
  6  7  1  0
  7  8  2  0
  8  9  1  0
  9 10  2  0
  9 11  1  0
 11 12  1  0
 12 13  1  0
  4 14  2  0
 14 15  1  0
 15 16  2  0
 16 17  1  0
 17 18  1  0
 18 19  1  0
 15 20  1  0
 20  2  1  0
 10  5  1  0
 13  8  1  0
  1 21  1  0
  3 22  1  0
  6 23  1  0
  7 24  1  0
 10 25  1  0
 12 26  1  0
 12 27  1  0
 14 28  1  0
 17 29  1  0
 17 30  1  0
 18 31  1  0
 18 32  1  0
 19 33  1  0
 19 34  1  0
 20 35  1  0
M  END
>  <smiles>  (24) 
N=c1[nH]c(-c2ccc3c(c2)OCO3)cc(=NCCN)[nH]1

>  <score_type>  (24) 
oracle

>  <origin>  (24) 
adgpu

>  <m_score__min__energy>  (24) 
-6.75

>  <m_primary>  (24) 
energy

$$$$
24:0
     RDKit          3D

 31 33  0  0  0  0  0  0  0  0999 V2000
   -4.6120   23.7130  -31.8740 O   0  0  0  0  0  0  0  0  0  0  0  0
   -4.7060   24.2420  -30.7340 C   0  0  0  0  0  0  0  0  0  0  0  0
   -5.9400   24.0100  -29.9160 C   0  0  0  0  0  0  0  0  0  0  0  0
   -7.4620   24.1620  -30.9160 S   0  0  0  0  0  0  0  0  0  0  0  0
   -7.3750   22.5000  -31.5800 C   0  0  0  0  0  0  0  0  0  0  0  0
   -8.1400   21.4230  -31.1370 C   0  0  0  0  0  0  0  0  0  0  0  0
   -7.7300   20.3660  -31.9240 C   0  0  0  0  0  0  0  0  0  0  0  0
   -8.1010   19.0290  -31.9710 C   0  0  0  0  0  0  0  0  0  0  0  0
   -8.9760   18.5620  -31.1940 O   0  0  0  0  0  0  0  0  0  0  0  0
   -7.4850   18.2250  -32.8860 N   0  0  0  0  0  0  0  0  0  0  0  0
   -6.5280   18.7170  -33.7360 C   0  0  0  0  0  0  0  0  0  0  0  0
   -5.9790   17.9510  -34.5690 O   0  0  0  0  0  0  0  0  0  0  0  0
   -6.1680   20.0340  -33.6860 N   0  0  0  0  0  0  0  0  0  0  0  0
   -6.7780   20.8340  -32.7780 C   0  0  0  0  0  0  0  0  0  0  0  0
   -6.5460   22.1410  -32.5880 N   0  0  0  0  0  0  0  0  0  0  0  0
   -3.6000   24.9590  -30.1730 N   0  0  0  0  0  0  0  0  0  0  0  0
   -2.7140   24.4810  -29.1510 C   0  0  0  0  0  0  0  0  0  0  0  0
   -3.0530   23.3000  -28.4760 C   0  0  0  0  0  0  0  0  0  0  0  0
   -2.2300   22.7980  -27.4650 C   0  0  0  0  0  0  0  0  0  0  0  0
   -1.0670   23.4820  -27.1060 C   0  0  0  0  0  0  0  0  0  0  0  0
   -0.7340   24.6770  -27.7490 C   0  0  0  0  0  0  0  0  0  0  0  0
   -1.5570   25.1890  -28.7590 C   0  0  0  0  0  0  0  0  0  0  0  0
   -1.2300   26.4120  -29.3330 O   0  0  0  0  0  0  0  0  0  0  0  0
   -5.8966   22.9982  -29.4867 H   0  0  0  0  0  0  0  0  0  0  0  0
   -5.9738   24.7756  -29.1269 H   0  0  0  0  0  0  0  0  0  0  0  0
   -8.8987   21.4166  -30.3406 H   0  0  0  0  0  0  0  0  0  0  0  0
   -5.8720   22.7490  -33.1040 H   0  0  0  0  0  0  0  0  0  0  0  0
   -3.9751   22.7639  -28.7448 H   0  0  0  0  0  0  0  0  0  0  0  0
   -2.4984   21.8631  -26.9513 H   0  0  0  0  0  0  0  0  0  0  0  0
   -0.4134   23.0805  -26.3176 H   0  0  0  0  0  0  0  0  0  0  0  0
    0.1792   25.2180  -27.4602 H   0  0  0  0  0  0  0  0  0  0  0  0
  1  2  2  0
  2  3  1  0
  3  4  1  0
  4  5  1  0
  5  6  2  0
  6  7  1  0
  7  8  1  0
  8  9  2  0
  8 10  1  0
 10 11  1  0
 11 12  2  0
 11 13  1  0
 13 14  1  0
 14 15  1  0
  2 16  1  0
 16 17  1  0
 17 18  2  0
 18 19  1  0
 19 20  2  0
 20 21  1  0
 21 22  2  0
 22 23  1  0
 15  5  1  0
 22 17  1  0
 14  7  2  0
  3 24  1  0
  3 25  1  0
  6 26  1  0
 15 27  1  0
 18 28  1  0
 19 29  1  0
 20 30  1  0
 21 31  1  0
M  CHG  4  10  -1  13  -1  16  -1  23  -1
M  END
>  <UniqueID>  (25) 
23

>  <SMILES>  (25) 
O=C(CSc1cc2c(=O)[n-]c(=O)[n-]c2[nH]1)[N-]c1ccccc1[O-]

>  <Energy>  (25) 
70.1747155176084

>  <Genealogy>  (25) 
O=C(CSc1cc2c(=O)[n-]c(=O)[n-]c2[nH]1)[N-]c1ccccc1[O-] (protonated)
O=C(CSc1cc2c(=O)[n-]c(=O)[n-]c2[nH]1)[N-]c1ccccc1[O-] (3D coordinates assigned)
O=C(CSc1cc2c(=O)[n-]c(=O)[n-]c2[nH]1)[N-]c1ccccc1[O-] (optimized conformer: 70.1747155176084 kcal/mol)

>  <smiles>  (25) 
O=C(CSc1cc2c(=O)[nH]c(=O)[nH]c2[nH]1)Nc1ccccc1O

>  <score_type>  (25) 
oracle

>  <origin>  (25) 
adgpu

>  <m_score__min__energy>  (25) 
-13.33

>  <m_primary>  (25) 
energy

$$$$
25:0
     RDKit          3D

 37 39  0  0  0  0  0  0  0  0999 V2000
   -6.8280   25.4630  -30.1060 O   0  0  0  0  0  0  0  0  0  0  0  0
   -5.6320   24.5700  -30.2870 S   0  0  0  0  0  0  0  0  0  0  0  0
   -4.6160   25.2770  -31.1370 O   0  0  0  0  0  0  0  0  0  0  0  0
   -4.9420   24.2260  -28.7310 N   0  0  0  0  0  0  0  0  0  0  0  0
   -3.7010   23.5190  -28.5540 C   0  0  0  0  0  0  0  0  0  0  0  0
   -3.6550   22.2820  -27.8830 C   0  0  0  0  0  0  0  0  0  0  0  0
   -2.4430   21.5910  -27.7490 C   0  0  0  0  0  0  0  0  0  0  0  0
   -1.2610   22.1410  -28.2620 C   0  0  0  0  0  0  0  0  0  0  0  0
   -1.2930   23.3880  -28.8980 C   0  0  0  0  0  0  0  0  0  0  0  0
   -2.5040   24.0710  -29.0510 C   0  0  0  0  0  0  0  0  0  0  0  0
   -2.5110   25.2980  -29.7050 O   0  0  0  0  0  0  0  0  0  0  0  0
    0.0350   21.4090  -28.0400 C   0  0  0  0  0  0  0  0  0  0  0  0
   -0.1180   19.8890  -28.2620 C   0  0  0  0  0  0  0  0  0  0  0  0
   -1.4880   19.2960  -27.8380 C   0  0  0  0  0  0  0  0  0  0  0  0
   -2.3700   20.2670  -27.0400 C   0  0  0  0  0  0  0  0  0  0  0  0
   -6.0890   23.0670  -31.0840 C   0  0  0  0  0  0  0  0  0  0  0  0
   -5.1200   22.3170  -31.7650 C   0  0  0  0  0  0  0  0  0  0  0  0
   -5.4680   21.1100  -32.3770 C   0  0  0  0  0  0  0  0  0  0  0  0
   -6.7860   20.6480  -32.3160 C   0  0  0  0  0  0  0  0  0  0  0  0
   -7.7580   21.3940  -31.6420 C   0  0  0  0  0  0  0  0  0  0  0  0
   -7.4110   22.6020  -31.0280 C   0  0  0  0  0  0  0  0  0  0  0  0
   -5.4080   24.6670  -27.9060 H   0  0  0  0  0  0  0  0  0  0  0  0
   -4.5767   21.8550  -27.4610 H   0  0  0  0  0  0  0  0  0  0  0  0
   -0.3617   23.8325  -29.2790 H   0  0  0  0  0  0  0  0  0  0  0  0
    0.7876   21.7971  -28.7421 H   0  0  0  0  0  0  0  0  0  0  0  0
    0.3447   21.5721  -26.9972 H   0  0  0  0  0  0  0  0  0  0  0  0
    0.0245   19.6851  -29.3335 H   0  0  0  0  0  0  0  0  0  0  0  0
    0.6353   19.4085  -27.6204 H   0  0  0  0  0  0  0  0  0  0  0  0
   -2.0331   19.0010  -28.7467 H   0  0  0  0  0  0  0  0  0  0  0  0
   -1.2742   18.4438  -27.1762 H   0  0  0  0  0  0  0  0  0  0  0  0
   -3.3824   19.8471  -26.9459 H   0  0  0  0  0  0  0  0  0  0  0  0
   -1.9347   20.4144  -26.0406 H   0  0  0  0  0  0  0  0  0  0  0  0
   -4.0828   22.6797  -31.8177 H   0  0  0  0  0  0  0  0  0  0  0  0
   -4.7040   20.5227  -32.9074 H   0  0  0  0  0  0  0  0  0  0  0  0
   -7.0585   19.6976  -32.7982 H   0  0  0  0  0  0  0  0  0  0  0  0
   -8.7953   21.0309  -31.5947 H   0  0  0  0  0  0  0  0  0  0  0  0
   -8.1770   23.1888  -30.4999 H   0  0  0  0  0  0  0  0  0  0  0  0
  1  2  2  0
  2  3  2  0
  2  4  1  0
  4  5  1  0
  5  6  2  0
  6  7  1  0
  7  8  2  0
  8  9  1  0
  9 10  2  0
 10 11  1  0
  8 12  1  0
 12 13  1  0
 13 14  1  0
 14 15  1  0
  2 16  1  0
 16 17  2  0
 17 18  1  0
 18 19  2  0
 19 20  1  0
 20 21  2  0
 10  5  1  0
 21 16  1  0
 15  7  1  0
  4 22  1  0
  6 23  1  0
  9 24  1  0
 12 25  1  0
 12 26  1  0
 13 27  1  0
 13 28  1  0
 14 29  1  0
 14 30  1  0
 15 31  1  0
 15 32  1  0
 17 33  1  0
 18 34  1  0
 19 35  1  0
 20 36  1  0
 21 37  1  0
M  CHG  1  11  -1
M  END
>  <UniqueID>  (26) 
24

>  <SMILES>  (26) 
O=S(=O)(Nc1cc2c(cc1[O-])CCCC2)c1ccccc1

>  <Energy>  (26) 
45.96498552521817

>  <Genealogy>  (26) 
O=S(=O)(Nc1cc2c(cc1[O-])CCCC2)c1ccccc1 (protonated)
O=S(=O)(Nc1cc2c(cc1[O-])CCCC2)c1ccccc1 (3D coordinates assigned)
O=S(=O)(Nc1cc2c(cc1[O-])CCCC2)c1ccccc1 (nonaromatic ring conformer: 45.96498552521817 kcal/mol)

>  <smiles>  (26) 
O=S(=O)(Nc1cc2c(cc1O)CCCC2)c1ccccc1

>  <score_type>  (26) 
oracle

>  <origin>  (26) 
adgpu

>  <m_score__min__energy>  (26) 
-12.02

>  <m_primary>  (26) 
energy

$$$$
26:0
     RDKit          3D

 46 49  0  0  0  0  0  0  0  0999 V2000
   -2.8980   20.4450  -27.3820 C   0  0  0  0  0  0  0  0  0  0  0  0
   -2.5310   21.8240  -27.8490 C   0  0  0  0  0  0  0  0  0  0  0  0
   -3.2650   22.3790  -28.8480 N   0  0  0  0  0  0  0  0  0  0  0  0
   -3.0270   23.6190  -29.3530 C   0  0  0  0  0  0  0  0  0  0  0  0
   -3.8980   24.1040  -30.4480 C   0  0  0  0  0  0  0  0  0  0  0  0
   -3.8570   25.3230  -30.7670 O   0  0  0  0  0  0  0  0  0  0  0  0
   -4.8200   23.2210  -31.1010 N   0  0  0  0  0  0  0  0  0  0  0  0
   -4.5040   22.1280  -31.9760 C   0  0  0  0  0  0  0  0  0  0  0  0
   -3.1780   21.8540  -32.3600 C   0  0  0  0  0  0  0  0  0  0  0  0
   -2.8900   20.7500  -33.1660 C   0  0  0  0  0  0  0  0  0  0  0  0
   -3.9150   19.8980  -33.5810 C   0  0  0  0  0  0  0  0  0  0  0  0
   -5.2310   20.1440  -33.1850 C   0  0  0  0  0  0  0  0  0  0  0  0
   -5.5350   21.2550  -32.3840 C   0  0  0  0  0  0  0  0  0  0  0  0
   -6.8990   21.4820  -31.9930 N   0  0  0  0  0  0  0  0  0  0  0  0
   -7.7410   20.3500  -31.6060 C   0  0  0  0  0  0  0  0  0  0  0  0
   -9.2000   20.6480  -31.9670 C   0  0  0  0  0  0  0  0  0  0  0  0
   -9.6030   21.9030  -31.4490 O   0  0  0  0  0  0  0  0  0  0  0  0
   -8.8630   22.9390  -32.0700 C   0  0  0  0  0  0  0  0  0  0  0  0
   -7.3790   22.8360  -31.7050 C   0  0  0  0  0  0  0  0  0  0  0  0
   -1.9690   24.3850  -28.8220 C   0  0  0  0  0  0  0  0  0  0  0  0
   -1.6970   25.6610  -29.3100 O   0  0  0  0  0  0  0  0  0  0  0  0
   -1.1780   23.8500  -27.7880 C   0  0  0  0  0  0  0  0  0  0  0  0
   -0.1110   24.5870  -27.2420 C   0  0  0  0  0  0  0  0  0  0  0  0
    0.6690   24.0500  -26.2170 C   0  0  0  0  0  0  0  0  0  0  0  0
    0.3990   22.7750  -25.7250 C   0  0  0  0  0  0  0  0  0  0  0  0
   -0.6560   22.0260  -26.2520 C   0  0  0  0  0  0  0  0  0  0  0  0
   -1.4570   22.5510  -27.2890 C   0  0  0  0  0  0  0  0  0  0  0  0
   -2.9047   20.4200  -26.2823 H   0  0  0  0  0  0  0  0  0  0  0  0
   -3.8970   20.1834  -27.7608 H   0  0  0  0  0  0  0  0  0  0  0  0
   -2.1612   19.7214  -27.7608 H   0  0  0  0  0  0  0  0  0  0  0  0
   -2.3639   22.5128  -32.0236 H   0  0  0  0  0  0  0  0  0  0  0  0
   -1.8530   20.5515  -33.4744 H   0  0  0  0  0  0  0  0  0  0  0  0
   -3.6858   19.0326  -34.2202 H   0  0  0  0  0  0  0  0  0  0  0  0
   -6.0341   19.4628  -33.5028 H   0  0  0  0  0  0  0  0  0  0  0  0
   -7.4088   19.4473  -32.1396 H   0  0  0  0  0  0  0  0  0  0  0  0
   -7.6588   20.1875  -30.5212 H   0  0  0  0  0  0  0  0  0  0  0  0
   -9.3048   20.6600  -33.0619 H   0  0  0  0  0  0  0  0  0  0  0  0
   -9.8372   19.8659  -31.5284 H   0  0  0  0  0  0  0  0  0  0  0  0
   -8.9732   22.8576  -33.1614 H   0  0  0  0  0  0  0  0  0  0  0  0
   -9.2476   23.9082  -31.7196 H   0  0  0  0  0  0  0  0  0  0  0  0
   -6.8041   23.5628  -32.2977 H   0  0  0  0  0  0  0  0  0  0  0  0
   -7.2485   23.0517  -30.6343 H   0  0  0  0  0  0  0  0  0  0  0  0
    0.1099   25.5939  -27.6259 H   0  0  0  0  0  0  0  0  0  0  0  0
    1.4998   24.6354  -25.7962 H   0  0  0  0  0  0  0  0  0  0  0  0
    1.0189   22.3563  -24.9185 H   0  0  0  0  0  0  0  0  0  0  0  0
   -0.8638   21.0209  -25.8564 H   0  0  0  0  0  0  0  0  0  0  0  0
  1  2  1  0
  2  3  2  0
  3  4  1  0
  4  5  1  0
  5  6  2  0
  5  7  1  0
  7  8  1  0
  8  9  2  0
  9 10  1  0
 10 11  2  0
 11 12  1  0
 12 13  2  0
 13 14  1  0
 14 15  1  0
 15 16  1  0
 16 17  1  0
 17 18  1  0
 18 19  1  0
  4 20  2  0
 20 21  1  0
 20 22  1  0
 22 23  2  0
 23 24  1  0
 24 25  2  0
 25 26  1  0
 26 27  2  0
 27  2  1  0
 13  8  1  0
 19 14  1  0
 27 22  1  0
  1 28  1  0
  1 29  1  0
  1 30  1  0
  9 31  1  0
 10 32  1  0
 11 33  1  0
 12 34  1  0
 15 35  1  0
 15 36  1  0
 16 37  1  0
 16 38  1  0
 18 39  1  0
 18 40  1  0
 19 41  1  0
 19 42  1  0
 23 43  1  0
 24 44  1  0
 25 45  1  0
 26 46  1  0
M  CHG  2   7  -1  21  -1
M  END
>  <UniqueID>  (27) 
25

>  <SMILES>  (27) 
Cc1nc(C(=O)[N-]c2ccccc2N2CCOCC2)c([O-])c2ccccc12

>  <Energy>  (27) 
66.3446812562554

>  <Genealogy>  (27) 
Cc1nc(C(=O)[N-]c2ccccc2N2CCOCC2)c([O-])c2ccccc12 (protonated)
Cc1nc(C(=O)[N-]c2ccccc2N2CCOCC2)c([O-])c2ccccc12 (3D coordinates assigned)
Cc1nc(C(=O)[N-]c2ccccc2N2CCOCC2)c([O-])c2ccccc12 (nonaromatic ring conformer: 66.3446812562554 kcal/mol)

>  <smiles>  (27) 
Cc1nc(C(=O)Nc2ccccc2N2CCOCC2)c(O)c2ccccc12

>  <score_type>  (27) 
oracle

>  <origin>  (27) 
adgpu

>  <m_score__min__energy>  (27) 
-12.81

>  <m_primary>  (27) 
energy

$$$$
27:0
     RDKit          3D

 50 52  0  0  0  0  0  0  0  0999 V2000
   -8.8780   18.7960  -31.5850 C   0  0  0  0  0  0  0  0  0  0  0  0
   -8.1260   18.8340  -32.7930 O   0  0  0  0  0  0  0  0  0  0  0  0
   -6.7450   19.0730  -32.8620 C   0  0  0  0  0  0  0  0  0  0  0  0
   -5.7990   18.0350  -32.7500 C   0  0  0  0  0  0  0  0  0  0  0  0
   -4.4320   18.3160  -32.8260 C   0  0  0  0  0  0  0  0  0  0  0  0
   -3.9950   19.6290  -33.0140 C   0  0  0  0  0  0  0  0  0  0  0  0
   -4.9240   20.6650  -33.1200 C   0  0  0  0  0  0  0  0  0  0  0  0
   -6.2950   20.3940  -33.0380 C   0  0  0  0  0  0  0  0  0  0  0  0
   -7.2300   21.4730  -33.0940 N   0  0  0  0  0  0  0  0  0  0  0  0
   -7.5730   22.4240  -31.6890 S   0  0  0  0  0  0  0  0  0  0  0  0
   -8.0450   21.5180  -30.5860 O   0  0  0  0  0  0  0  0  0  0  0  0
   -8.6600   23.4130  -32.0010 O   0  0  0  0  0  0  0  0  0  0  0  0
   -6.1200   23.2760  -31.1740 C   0  0  0  0  0  0  0  0  0  0  0  0
   -6.0780   24.6760  -31.1610 C   0  0  0  0  0  0  0  0  0  0  0  0
   -4.9490   25.3390  -30.6740 C   0  0  0  0  0  0  0  0  0  0  0  0
   -3.8630   24.6120  -30.1760 C   0  0  0  0  0  0  0  0  0  0  0  0
   -2.7410   25.2930  -29.7180 O   0  0  0  0  0  0  0  0  0  0  0  0
   -3.9080   23.2040  -30.1600 C   0  0  0  0  0  0  0  0  0  0  0  0
   -2.8260   22.4270  -29.6250 N   0  0  0  0  0  0  0  0  0  0  0  0
   -2.0260   21.5510  -30.4360 C   0  0  0  0  0  0  0  0  0  0  0  0
   -2.0920   21.6320  -31.6940 O   0  0  0  0  0  0  0  0  0  0  0  0
   -1.0900   20.5820  -29.8170 C   0  0  0  0  0  0  0  0  0  0  0  0
   -1.0880   20.3660  -28.4260 C   0  0  0  0  0  0  0  0  0  0  0  0
   -0.2050   19.4470  -27.8530 C   0  0  0  0  0  0  0  0  0  0  0  0
    0.6890   18.7300  -28.6570 C   0  0  0  0  0  0  0  0  0  0  0  0
    1.7880   17.5590  -27.9350 S   0  0  0  0  0  0  0  0  0  0  0  0
    2.5590   16.6030  -29.2180 C   0  0  0  0  0  0  0  0  0  0  0  0
    2.8420   18.2750  -27.1370 O   0  0  0  0  0  0  0  0  0  0  0  0
    1.0250   16.6450  -27.0160 O   0  0  0  0  0  0  0  0  0  0  0  0
    0.6810   18.9270  -30.0430 C   0  0  0  0  0  0  0  0  0  0  0  0
   -0.2020   19.8450  -30.6200 C   0  0  0  0  0  0  0  0  0  0  0  0
   -5.0260   22.5460  -30.6910 C   0  0  0  0  0  0  0  0  0  0  0  0
   -8.1927   18.8306  -30.7252 H   0  0  0  0  0  0  0  0  0  0  0  0
   -9.5565   19.6610  -31.5481 H   0  0  0  0  0  0  0  0  0  0  0  0
   -9.4659   17.8670  -31.5481 H   0  0  0  0  0  0  0  0  0  0  0  0
   -6.1377   16.9990  -32.6021 H   0  0  0  0  0  0  0  0  0  0  0  0
   -3.6986   17.5010  -32.7375 H   0  0  0  0  0  0  0  0  0  0  0  0
   -2.9187   19.8466  -33.0785 H   0  0  0  0  0  0  0  0  0  0  0  0
   -4.5777   21.6984  -33.2685 H   0  0  0  0  0  0  0  0  0  0  0  0
   -6.9356   25.2545  -31.5350 H   0  0  0  0  0  0  0  0  0  0  0  0
   -4.9140   26.4384  -30.6822 H   0  0  0  0  0  0  0  0  0  0  0  0
   -2.4780   22.6720  -28.6710 H   0  0  0  0  0  0  0  0  0  0  0  0
   -1.7865   20.9246  -27.7856 H   0  0  0  0  0  0  0  0  0  0  0  0
   -0.2124   19.2862  -26.7648 H   0  0  0  0  0  0  0  0  0  0  0  0
    3.1885   15.8225  -28.7657 H   0  0  0  0  0  0  0  0  0  0  0  0
    1.7839   16.1334  -29.8414 H   0  0  0  0  0  0  0  0  0  0  0  0
    3.1821   17.2610  -29.8414 H   0  0  0  0  0  0  0  0  0  0  0  0
    1.3725   18.3571  -30.6810 H   0  0  0  0  0  0  0  0  0  0  0  0
   -0.2018   19.9916  -31.7102 H   0  0  0  0  0  0  0  0  0  0  0  0
   -5.0446   21.4468  -30.7288 H   0  0  0  0  0  0  0  0  0  0  0  0
  1  2  1  0
  2  3  1  0
  3  4  2  0
  4  5  1  0
  5  6  2  0
  6  7  1  0
  7  8  2  0
  8  9  1  0
  9 10  1  0
 10 11  2  0
 10 12  2  0
 10 13  1  0
 13 14  2  0
 14 15  1  0
 15 16  2  0
 16 17  1  0
 16 18  1  0
 18 19  1  0
 19 20  1  0
 20 21  2  0
 20 22  1  0
 22 23  2  0
 23 24  1  0
 24 25  2  0
 25 26  1  0
 26 27  1  0
 26 28  2  0
 26 29  2  0
 25 30  1  0
 30 31  2  0
 18 32  2  0
  8  3  1  0
 32 13  1  0
 31 22  1  0
  1 33  1  0
  1 34  1  0
  1 35  1  0
  4 36  1  0
  5 37  1  0
  6 38  1  0
  7 39  1  0
 14 40  1  0
 15 41  1  0
 19 42  1  0
 23 43  1  0
 24 44  1  0
 27 45  1  0
 27 46  1  0
 27 47  1  0
 30 48  1  0
 31 49  1  0
 32 50  1  0
M  CHG  2   9  -1  17  -1
M  END
>  <UniqueID>  (28) 
26

>  <SMILES>  (28) 
COc1ccccc1[N-]S(=O)(=O)c1ccc([O-])c(NC(=O)c2ccc(S(C)(=O)=O)cc2)c1

>  <Energy>  (28) 
63.600519458335036

>  <Genealogy>  (28) 
COc1ccccc1[N-]S(=O)(=O)c1ccc([O-])c(NC(=O)c2ccc(S(C)(=O)=O)cc2)c1 (protonated)
COc1ccccc1[N-]S(=O)(=O)c1ccc([O-])c(NC(=O)c2ccc(S(C)(=O)=O)cc2)c1 (3D coordinates assigned)
COc1ccccc1[N-]S(=O)(=O)c1ccc([O-])c(NC(=O)c2ccc(S(C)(=O)=O)cc2)c1 (optimized conformer: 63.600519458335036 kcal/mol)

>  <smiles>  (28) 
COc1ccccc1NS(=O)(=O)c1ccc(O)c(NC(=O)c2ccc(S(C)(=O)=O)cc2)c1

>  <score_type>  (28) 
oracle

>  <origin>  (28) 
adgpu

>  <m_score__min__energy>  (28) 
-11.789999999999999

>  <m_primary>  (28) 
energy

$$$$
28:0
     RDKit          3D

 35 37  0  0  0  0  0  0  0  0999 V2000
    3.6070   22.5740  -37.2010 O   0  0  0  0  0  0  0  0  0  0  0  0
    2.6580   22.1480  -36.2810 C   0  0  0  0  0  0  0  0  0  0  0  0
    2.9780   21.1490  -35.3570 C   0  0  0  0  0  0  0  0  0  0  0  0
    2.0230   20.7180  -34.4310 C   0  0  0  0  0  0  0  0  0  0  0  0
    0.7340   21.2830  -34.4180 C   0  0  0  0  0  0  0  0  0  0  0  0
   -0.2670   20.8160  -33.4310 C   0  0  0  0  0  0  0  0  0  0  0  0
   -1.6000   21.1740  -33.3420 C   0  0  0  0  0  0  0  0  0  0  0  0
   -2.0990   20.4990  -32.2930 N   0  0  0  0  0  0  0  0  0  0  0  0
   -3.4520   20.5960  -31.7560 C   0  0  0  0  0  0  0  0  0  0  0  0
   -3.4030   20.7720  -30.2380 C   0  0  0  0  0  0  0  0  0  0  0  0
   -2.9270   22.1540  -29.8800 C   0  0  0  0  0  0  0  0  0  0  0  0
   -3.6230   23.2830  -30.3400 C   0  0  0  0  0  0  0  0  0  0  0  0
   -3.1640   24.5690  -30.0340 C   0  0  0  0  0  0  0  0  0  0  0  0
   -3.8670   25.6780  -30.4900 O   0  0  0  0  0  0  0  0  0  0  0  0
   -1.9990   24.7370  -29.2750 C   0  0  0  0  0  0  0  0  0  0  0  0
   -1.5500   26.0180  -28.9750 O   0  0  0  0  0  0  0  0  0  0  0  0
   -1.2890   23.6120  -28.8230 C   0  0  0  0  0  0  0  0  0  0  0  0
   -0.1230   23.7490  -28.0710 O   0  0  0  0  0  0  0  0  0  0  0  0
   -1.7530   22.3270  -29.1310 C   0  0  0  0  0  0  0  0  0  0  0  0
   -1.1300   19.7790  -31.7530 N   0  0  0  0  0  0  0  0  0  0  0  0
   -0.0020   19.9480  -32.4300 N   0  0  0  0  0  0  0  0  0  0  0  0
    0.4230   22.2870  -35.3540 C   0  0  0  0  0  0  0  0  0  0  0  0
    1.3800   22.7160  -36.2790 C   0  0  0  0  0  0  0  0  0  0  0  0
    3.9827   20.7012  -35.3584 H   0  0  0  0  0  0  0  0  0  0  0  0
    2.2812   19.9311  -33.7070 H   0  0  0  0  0  0  0  0  0  0  0  0
   -2.1423   21.8709  -33.9979 H   0  0  0  0  0  0  0  0  0  0  0  0
   -3.9611   21.4609  -32.2064 H   0  0  0  0  0  0  0  0  0  0  0  0
   -4.0010   19.6730  -31.9941 H   0  0  0  0  0  0  0  0  0  0  0  0
   -4.4102   20.6179  -29.8235 H   0  0  0  0  0  0  0  0  0  0  0  0
   -2.7019   20.0357  -29.8181 H   0  0  0  0  0  0  0  0  0  0  0  0
   -4.5336   23.1561  -30.9439 H   0  0  0  0  0  0  0  0  0  0  0  0
    0.2300   24.6550  -27.7870 H   0  0  0  0  0  0  0  0  0  0  0  0
   -1.1929   21.4465  -28.7831 H   0  0  0  0  0  0  0  0  0  0  0  0
   -0.5804   22.7376  -35.3580 H   0  0  0  0  0  0  0  0  0  0  0  0
    1.1272   23.5016  -37.0063 H   0  0  0  0  0  0  0  0  0  0  0  0
  1  2  1  0
  2  3  2  0
  3  4  1  0
  4  5  2  0
  5  6  1  0
  6  7  2  0
  7  8  1  0
  8  9  1  0
  9 10  1  0
 10 11  1  0
 11 12  2  0
 12 13  1  0
 13 14  1  0
 13 15  2  0
 15 16  1  0
 15 17  1  0
 17 18  1  0
 17 19  2  0
  8 20  1  0
 20 21  2  0
  5 22  1  0
 22 23  2  0
 23  2  1  0
 21  6  1  0
 19 11  1  0
  3 24  1  0
  4 25  1  0
  7 26  1  0
  9 27  1  0
  9 28  1  0
 10 29  1  0
 10 30  1  0
 12 31  1  0
 18 32  1  0
 19 33  1  0
 22 34  1  0
 23 35  1  0
M  CHG  3   1  -1  14  -1  16  -1
M  END
>  <UniqueID>  (29) 
27

>  <SMILES>  (29) 
[O-]c1ccc(-c2cn(CCc3cc([O-])c([O-])c(O)c3)nn2)cc1

>  <Energy>  (29) 
70.76284192295142

>  <Genealogy>  (29) 
[O-]c1ccc(-c2cn(CCc3cc([O-])c([O-])c(O)c3)nn2)cc1 (protonated)
[O-]c1ccc(-c2cn(CCc3cc([O-])c([O-])c(O)c3)nn2)cc1 (3D coordinates assigned)
[O-]c1ccc(-c2cn(CCc3cc([O-])c([O-])c(O)c3)nn2)cc1 (optimized conformer: 70.76284192295142 kcal/mol)

>  <smiles>  (29) 
Oc1ccc(-c2cn(CCc3cc(O)c(O)c(O)c3)nn2)cc1

>  <score_type>  (29) 
oracle

>  <origin>  (29) 
adgpu

>  <m_score__min__energy>  (29) 
-13.08

>  <m_primary>  (29) 
energy

$$$$
29:0
     RDKit          3D

 49 52  0  0  0  0  0  0  0  0999 V2000
   -6.5830   17.3130  -32.0890 C   0  0  0  0  0  0  0  0  0  0  0  0
   -7.2190   18.4340  -32.8100 N   0  0  0  0  0  0  0  0  0  0  0  0
   -8.5830   18.6690  -32.2790 C   0  0  0  0  0  0  0  0  0  0  0  0
   -9.1460   20.0150  -32.7320 C   0  0  0  0  0  0  0  0  0  0  0  0
   -8.2560   21.0920  -32.2020 C   0  0  0  0  0  0  0  0  0  0  0  0
   -8.7770   22.2880  -31.6900 C   0  0  0  0  0  0  0  0  0  0  0  0
   -7.9190   23.2570  -31.1630 C   0  0  0  0  0  0  0  0  0  0  0  0
   -6.5280   23.0410  -31.1430 C   0  0  0  0  0  0  0  0  0  0  0  0
   -5.6250   24.0300  -30.6160 N   0  0  0  0  0  0  0  0  0  0  0  0
   -4.2020   23.9800  -30.7840 C   0  0  0  0  0  0  0  0  0  0  0  0
   -3.6860   23.2210  -31.6520 O   0  0  0  0  0  0  0  0  0  0  0  0
   -3.3730   24.8580  -30.0160 N   0  0  0  0  0  0  0  0  0  0  0  0
   -2.6230   24.4750  -28.8520 C   0  0  0  0  0  0  0  0  0  0  0  0
   -2.9030   23.2450  -28.2540 C   0  0  0  0  0  0  0  0  0  0  0  0
   -2.2070   22.8400  -27.1170 C   0  0  0  0  0  0  0  0  0  0  0  0
   -1.2040   23.6450  -26.5720 C   0  0  0  0  0  0  0  0  0  0  0  0
   -0.4320   23.0950  -25.0870 Cl  0  0  0  0  0  0  0  0  0  0  0  0
   -0.8610   24.8680  -27.1960 C   0  0  0  0  0  0  0  0  0  0  0  0
    0.4370   25.8920  -26.5310 S   0  0  0  0  0  0  0  0  0  0  0  0
    0.7560   27.0160  -27.4810 O   0  0  0  0  0  0  0  0  0  0  0  0
    1.6870   25.0710  -26.3740 O   0  0  0  0  0  0  0  0  0  0  0  0
    0.0230   26.6080  -24.9380 C   0  0  0  0  0  0  0  0  0  0  0  0
   -1.4300   26.5030  -24.4840 C   0  0  0  0  0  0  0  0  0  0  0  0
   -0.8970   27.8190  -25.0350 C   0  0  0  0  0  0  0  0  0  0  0  0
   -1.5790   25.2740  -28.3440 C   0  0  0  0  0  0  0  0  0  0  0  0
   -1.2420   26.4570  -28.9950 O   0  0  0  0  0  0  0  0  0  0  0  0
   -6.0120   21.8620  -31.6980 C   0  0  0  0  0  0  0  0  0  0  0  0
   -6.8720   20.8740  -32.2100 C   0  0  0  0  0  0  0  0  0  0  0  0
   -6.3120   19.6270  -32.8580 C   0  0  0  0  0  0  0  0  0  0  0  0
   -6.6749   17.4751  -31.0049 H   0  0  0  0  0  0  0  0  0  0  0  0
   -7.0813   16.3713  -32.3625 H   0  0  0  0  0  0  0  0  0  0  0  0
   -5.5190   17.2577  -32.3625 H   0  0  0  0  0  0  0  0  0  0  0  0
   -9.2466   17.8676  -32.6359 H   0  0  0  0  0  0  0  0  0  0  0  0
   -8.5250   18.6758  -31.1806 H   0  0  0  0  0  0  0  0  0  0  0  0
   -9.1702   20.0583  -33.8309 H   0  0  0  0  0  0  0  0  0  0  0  0
  -10.1705   20.1465  -32.3538 H   0  0  0  0  0  0  0  0  0  0  0  0
   -9.8627   22.4642  -31.7030 H   0  0  0  0  0  0  0  0  0  0  0  0
   -8.3328   24.1938  -30.7615 H   0  0  0  0  0  0  0  0  0  0  0  0
   -6.0260   24.8820  -30.1690 H   0  0  0  0  0  0  0  0  0  0  0  0
   -3.6774   22.5920  -28.6828 H   0  0  0  0  0  0  0  0  0  0  0  0
   -2.4497   21.8770  -26.6440 H   0  0  0  0  0  0  0  0  0  0  0  0
    0.9862   26.3704  -24.4629 H   0  0  0  0  0  0  0  0  0  0  0  0
   -2.1483   25.9116  -25.0708 H   0  0  0  0  0  0  0  0  0  0  0  0
   -1.9349   26.1956  -23.5563 H   0  0  0  0  0  0  0  0  0  0  0  0
   -1.2310   28.1782  -26.0196 H   0  0  0  0  0  0  0  0  0  0  0  0
   -0.8582   28.8558  -24.6695 H   0  0  0  0  0  0  0  0  0  0  0  0
   -4.9234   21.7079  -31.7335 H   0  0  0  0  0  0  0  0  0  0  0  0
   -6.1010   19.8546  -33.9133 H   0  0  0  0  0  0  0  0  0  0  0  0
   -5.4128   19.3565  -32.2851 H   0  0  0  0  0  0  0  0  0  0  0  0
  1  2  1  0
  2  3  1  0
  3  4  1  0
  4  5  1  0
  5  6  2  0
  6  7  1  0
  7  8  2  0
  8  9  1  0
  9 10  1  0
 10 11  2  0
 10 12  1  0
 12 13  1  0
 13 14  2  0
 14 15  1  0
 15 16  2  0
 16 17  1  0
 16 18  1  0
 18 19  1  0
 19 20  2  0
 19 21  2  0
 19 22  1  0
 22 23  1  0
 23 24  1  0
 18 25  2  0
 25 26  1  0
  8 27  1  0
 27 28  2  0
 28 29  1  0
 29  2  1  0
 28  5  1  0
 25 13  1  0
 24 22  1  0
  1 30  1  0
  1 31  1  0
  1 32  1  0
  3 33  1  0
  3 34  1  0
  4 35  1  0
  4 36  1  0
  6 37  1  0
  7 38  1  0
  9 39  1  0
 14 40  1  0
 15 41  1  0
 22 42  1  0
 23 43  1  0
 23 44  1  0
 24 45  1  0
 24 46  1  0
 27 47  1  0
 29 48  1  0
 29 49  1  0
M  CHG  2  12  -1  26  -1
M  END
>  <UniqueID>  (30) 
28

>  <SMILES>  (30) 
CN1CCc2ccc(NC(=O)[N-]c3ccc(Cl)c(S(=O)(=O)C4CC4)c3[O-])cc2C1

>  <Energy>  (30) 
337.13135447728473

>  <Genealogy>  (30) 
CN1CCc2ccc(NC(=O)[N-]c3ccc(Cl)c(S(=O)(=O)C4CC4)c3[O-])cc2C1 (protonated)
CN1CCc2ccc(NC(=O)[N-]c3ccc(Cl)c(S(=O)(=O)C4CC4)c3[O-])cc2C1 (3D coordinates assigned)
CN1CCc2ccc(NC(=O)[N-]c3ccc(Cl)c(S(=O)(=O)C4CC4)c3[O-])cc2C1 (nonaromatic ring conformer: 337.13135447728473 kcal/mol)

>  <smiles>  (30) 
CN1CCc2ccc(NC(=O)Nc3ccc(Cl)c(S(=O)(=O)C4CC4)c3O)cc2C1

>  <score_type>  (30) 
oracle

>  <origin>  (30) 
adgpu

>  <m_score__min__energy>  (30) 
-14.43

>  <m_primary>  (30) 
energy

$$$$
30:0
     RDKit          3D

 49 52  0  0  0  0  0  0  0  0999 V2000
   -5.6200   17.5190  -34.5550 C   0  0  0  0  0  0  0  0  0  0  0  0
   -5.2620   18.8270  -33.9340 C   0  0  0  0  0  0  0  0  0  0  0  0
   -3.9990   19.1970  -33.5190 C   0  0  0  0  0  0  0  0  0  0  0  0
   -4.1850   20.4330  -32.9270 C   0  0  0  0  0  0  0  0  0  0  0  0
   -3.1600   21.1970  -32.1920 C   0  0  0  0  0  0  0  0  0  0  0  0
   -2.7140   22.2750  -32.6720 O   0  0  0  0  0  0  0  0  0  0  0  0
   -2.6790   20.7170  -30.9330 N   0  0  0  0  0  0  0  0  0  0  0  0
   -2.3400   21.5270  -29.8000 C   0  0  0  0  0  0  0  0  0  0  0  0
   -3.0040   21.3910  -28.5680 C   0  0  0  0  0  0  0  0  0  0  0  0
   -2.7220   22.2700  -27.5190 C   0  0  0  0  0  0  0  0  0  0  0  0
   -1.7770   23.3000  -27.6810 C   0  0  0  0  0  0  0  0  0  0  0  0
   -1.5020   24.2530  -26.5750 C   0  0  0  0  0  0  0  0  0  0  0  0
   -0.5720   23.9290  -25.5660 C   0  0  0  0  0  0  0  0  0  0  0  0
   -0.3240   24.8220  -24.5190 C   0  0  0  0  0  0  0  0  0  0  0  0
   -0.9900   26.0500  -24.4710 C   0  0  0  0  0  0  0  0  0  0  0  0
   -1.9120   26.3840  -25.4680 C   0  0  0  0  0  0  0  0  0  0  0  0
   -2.1730   25.4910  -26.5120 C   0  0  0  0  0  0  0  0  0  0  0  0
   -1.1130   23.4240  -28.9150 C   0  0  0  0  0  0  0  0  0  0  0  0
   -1.4000   22.5490  -29.9650 C   0  0  0  0  0  0  0  0  0  0  0  0
   -5.5000   20.7520  -33.0040 N   0  0  0  0  0  0  0  0  0  0  0  0
   -6.1480   21.8370  -32.3280 C   0  0  0  0  0  0  0  0  0  0  0  0
   -7.5470   21.8890  -32.2770 C   0  0  0  0  0  0  0  0  0  0  0  0
   -8.1850   22.8850  -31.5320 C   0  0  0  0  0  0  0  0  0  0  0  0
   -7.4290   23.8290  -30.8310 C   0  0  0  0  0  0  0  0  0  0  0  0
   -6.0270   23.7850  -30.8780 C   0  0  0  0  0  0  0  0  0  0  0  0
   -5.0660   24.9540  -29.9790 S   0  0  0  0  0  0  0  0  0  0  0  0
   -3.5110   25.1160  -30.7190 N   0  0  0  0  0  0  0  0  0  0  0  0
   -4.8830   24.4880  -28.5620 O   0  0  0  0  0  0  0  0  0  0  0  0
   -5.7680   26.2820  -29.9780 O   0  0  0  0  0  0  0  0  0  0  0  0
   -5.3880   22.7950  -31.6410 C   0  0  0  0  0  0  0  0  0  0  0  0
   -6.1640   19.7680  -33.5870 N   0  0  0  0  0  0  0  0  0  0  0  0
   -5.8220   16.7810  -33.7647 H   0  0  0  0  0  0  0  0  0  0  0  0
   -6.5173   17.6428  -35.1791 H   0  0  0  0  0  0  0  0  0  0  0  0
   -4.7847   17.1686  -35.1791 H   0  0  0  0  0  0  0  0  0  0  0  0
   -3.0592   18.6369  -33.6330 H   0  0  0  0  0  0  0  0  0  0  0  0
   -3.7466   20.5914  -28.4298 H   0  0  0  0  0  0  0  0  0  0  0  0
   -3.2437   22.1557  -26.5574 H   0  0  0  0  0  0  0  0  0  0  0  0
   -0.0383   22.9679  -25.6027 H   0  0  0  0  0  0  0  0  0  0  0  0
    0.3968   24.5575  -23.7313 H   0  0  0  0  0  0  0  0  0  0  0  0
   -0.7890   26.7533  -23.6494 H   0  0  0  0  0  0  0  0  0  0  0  0
   -2.4334   27.3519  -25.4309 H   0  0  0  0  0  0  0  0  0  0  0  0
   -2.9059   25.7561  -27.2883 H   0  0  0  0  0  0  0  0  0  0  0  0
   -0.3623   24.2159  -29.0539 H   0  0  0  0  0  0  0  0  0  0  0  0
   -0.8828   22.6646  -30.9289 H   0  0  0  0  0  0  0  0  0  0  0  0
   -8.1444   21.1449  -32.8241 H   0  0  0  0  0  0  0  0  0  0  0  0
   -9.2837   22.9260  -31.4973 H   0  0  0  0  0  0  0  0  0  0  0  0
   -7.9341   24.6081  -30.2412 H   0  0  0  0  0  0  0  0  0  0  0  0
   -3.5020   26.0320  -31.2210 H   0  0  0  0  0  0  0  0  0  0  0  0
   -4.2899   22.7705  -31.7002 H   0  0  0  0  0  0  0  0  0  0  0  0
  1  2  1  0
  2  3  1  0
  3  4  2  0
  4  5  1  0
  5  6  2  0
  5  7  1  0
  7  8  1  0
  8  9  2  0
  9 10  1  0
 10 11  2  0
 11 12  1  0
 12 13  2  0
 13 14  1  0
 14 15  2  0
 15 16  1  0
 16 17  2  0
 11 18  1  0
 18 19  2  0
  4 20  1  0
 20 21  1  0
 21 22  2  0
 22 23  1  0
 23 24  2  0
 24 25  1  0
 25 26  1  0
 26 27  1  0
 26 28  2  0
 26 29  2  0
 25 30  2  0
 20 31  1  0
 31  2  2  0
 19  8  1  0
 30 21  1  0
 17 12  1  0
  1 32  1  0
  1 33  1  0
  1 34  1  0
  3 35  1  0
  9 36  1  0
 10 37  1  0
 13 38  1  0
 14 39  1  0
 15 40  1  0
 16 41  1  0
 17 42  1  0
 18 43  1  0
 19 44  1  0
 22 45  1  0
 23 46  1  0
 24 47  1  0
 27 48  1  0
 30 49  1  0
M  CHG  2   7  -1  27  -1
M  END
>  <UniqueID>  (31) 
29

>  <SMILES>  (31) 
Cc1cc(C(=O)[N-]c2ccc(-c3ccccc3)cc2)n(-c2cccc(S([NH-])(=O)=O)c2)n1

>  <Energy>  (31) 
99.27666359913559

>  <Genealogy>  (31) 
Cc1cc(C(=O)[N-]c2ccc(-c3ccccc3)cc2)n(-c2cccc(S([NH-])(=O)=O)c2)n1 (protonated)
Cc1cc(C(=O)[N-]c2ccc(-c3ccccc3)cc2)n(-c2cccc(S([NH-])(=O)=O)c2)n1 (3D coordinates assigned)
Cc1cc(C(=O)[N-]c2ccc(-c3ccccc3)cc2)n(-c2cccc(S([NH-])(=O)=O)c2)n1 (optimized conformer: 99.27666359913559 kcal/mol)

>  <smiles>  (31) 
Cc1cc(C(=O)Nc2ccc(-c3ccccc3)cc2)n(-c2cccc(S(N)(=O)=O)c2)n1

>  <score_type>  (31) 
oracle

>  <origin>  (31) 
adgpu

>  <m_score__min__energy>  (31) 
-12.199999999999999

>  <m_primary>  (31) 
energy

$$$$
31:0
     RDKit          3D

 45 47  0  0  0  0  0  0  0  0999 V2000
   -1.4090   21.5920  -26.7140 C   0  0  0  0  0  0  0  0  0  0  0  0
   -2.0230   22.6060  -27.6460 C   0  0  0  0  0  0  0  0  0  0  0  0
   -3.1340   22.2060  -28.4060 C   0  0  0  0  0  0  0  0  0  0  0  0
   -3.7240   23.0720  -29.3230 C   0  0  0  0  0  0  0  0  0  0  0  0
   -3.1960   24.3530  -29.5270 C   0  0  0  0  0  0  0  0  0  0  0  0
   -3.7900   25.2730  -30.4560 N   0  0  0  0  0  0  0  0  0  0  0  0
   -5.1680   25.3280  -30.8410 C   0  0  0  0  0  0  0  0  0  0  0  0
   -5.9840   26.0550  -30.2140 O   0  0  0  0  0  0  0  0  0  0  0  0
   -5.6080   24.5420  -31.9540 N   0  0  0  0  0  0  0  0  0  0  0  0
   -6.2820   23.2790  -31.8660 C   0  0  0  0  0  0  0  0  0  0  0  0
   -7.5930   23.2520  -31.3730 C   0  0  0  0  0  0  0  0  0  0  0  0
   -8.2890   22.0430  -31.2770 C   0  0  0  0  0  0  0  0  0  0  0  0
   -7.6860   20.8540  -31.6910 C   0  0  0  0  0  0  0  0  0  0  0  0
   -6.3900   20.8730  -32.2160 C   0  0  0  0  0  0  0  0  0  0  0  0
   -5.6900   22.0810  -32.3200 C   0  0  0  0  0  0  0  0  0  0  0  0
   -4.4290   22.0820  -32.9070 O   0  0  0  0  0  0  0  0  0  0  0  0
   -2.0970   24.7740  -28.7670 C   0  0  0  0  0  0  0  0  0  0  0  0
   -1.6010   26.0580  -28.9710 O   0  0  0  0  0  0  0  0  0  0  0  0
   -1.4950   23.9150  -27.8180 C   0  0  0  0  0  0  0  0  0  0  0  0
   -0.0990   24.5220  -26.8780 S   0  0  0  0  0  0  0  0  0  0  0  0
    0.8660   25.1920  -27.8160 O   0  0  0  0  0  0  0  0  0  0  0  0
    0.6450   23.3900  -26.2280 O   0  0  0  0  0  0  0  0  0  0  0  0
   -0.5750   25.6660  -25.6440 N   0  0  0  0  0  0  0  0  0  0  0  0
   -0.6250   27.0330  -26.1850 C   0  0  0  0  0  0  0  0  0  0  0  0
   -0.8630   28.0560  -25.0560 C   0  0  0  0  0  0  0  0  0  0  0  0
   -1.2090   27.4110  -23.8450 O   0  0  0  0  0  0  0  0  0  0  0  0
   -0.1310   26.6020  -23.4060 C   0  0  0  0  0  0  0  0  0  0  0  0
    0.3390   25.6140  -24.4950 C   0  0  0  0  0  0  0  0  0  0  0  0
   -1.5917   21.8937  -25.6721 H   0  0  0  0  0  0  0  0  0  0  0  0
   -1.8620   20.6061  -26.8950 H   0  0  0  0  0  0  0  0  0  0  0  0
   -0.3254   21.5365  -26.8950 H   0  0  0  0  0  0  0  0  0  0  0  0
   -3.5442   21.1938  -28.2750 H   0  0  0  0  0  0  0  0  0  0  0  0
   -4.6093   22.7483  -29.8900 H   0  0  0  0  0  0  0  0  0  0  0  0
   -8.0781   24.1881  -31.0593 H   0  0  0  0  0  0  0  0  0  0  0  0
   -9.3127   22.0288  -30.8748 H   0  0  0  0  0  0  0  0  0  0  0  0
   -8.2303   19.9021  -31.6043 H   0  0  0  0  0  0  0  0  0  0  0  0
   -5.9192   19.9360  -32.5482 H   0  0  0  0  0  0  0  0  0  0  0  0
    0.3293   27.2597  -26.6828 H   0  0  0  0  0  0  0  0  0  0  0  0
   -1.4549   27.0994  -26.9040 H   0  0  0  0  0  0  0  0  0  0  0  0
    0.0563   28.6400  -24.9014 H   0  0  0  0  0  0  0  0  0  0  0  0
   -1.6949   28.7125  -25.3508 H   0  0  0  0  0  0  0  0  0  0  0  0
    0.7117   27.2535  -23.1315 H   0  0  0  0  0  0  0  0  0  0  0  0
   -0.4799   26.0136  -22.5446 H   0  0  0  0  0  0  0  0  0  0  0  0
    1.3529   25.8872  -24.8226 H   0  0  0  0  0  0  0  0  0  0  0  0
    0.3444   24.5946  -24.0818 H   0  0  0  0  0  0  0  0  0  0  0  0
  1  2  1  0
  2  3  2  0
  3  4  1  0
  4  5  2  0
  5  6  1  0
  6  7  1  0
  7  8  2  0
  7  9  1  0
  9 10  1  0
 10 11  2  0
 11 12  1  0
 12 13  2  0
 13 14  1  0
 14 15  2  0
 15 16  1  0
  5 17  1  0
 17 18  1  0
 17 19  2  0
 19 20  1  0
 20 21  2  0
 20 22  2  0
 20 23  1  0
 23 24  1  0
 24 25  1  0
 25 26  1  0
 26 27  1  0
 27 28  1  0
 19  2  1  0
 28 23  1  0
 15 10  1  0
  1 29  1  0
  1 30  1  0
  1 31  1  0
  3 32  1  0
  4 33  1  0
 11 34  1  0
 12 35  1  0
 13 36  1  0
 14 37  1  0
 24 38  1  0
 24 39  1  0
 25 40  1  0
 25 41  1  0
 27 42  1  0
 27 43  1  0
 28 44  1  0
 28 45  1  0
M  CHG  4   6  -1   9  -1  16  -1  18  -1
M  END
>  <UniqueID>  (32) 
30

>  <SMILES>  (32) 
Cc1ccc([N-]C(=O)[N-]c2ccccc2[O-])c([O-])c1S(=O)(=O)N1CCOCC1

>  <Energy>  (32) 
68.15466836391575

>  <Genealogy>  (32) 
Cc1ccc([N-]C(=O)[N-]c2ccccc2[O-])c([O-])c1S(=O)(=O)N1CCOCC1 (protonated)
Cc1ccc([N-]C(=O)[N-]c2ccccc2[O-])c([O-])c1S(=O)(=O)N1CCOCC1 (3D coordinates assigned)
Cc1ccc([N-]C(=O)[N-]c2ccccc2[O-])c([O-])c1S(=O)(=O)N1CCOCC1 (nonaromatic ring conformer: 68.15466836391575 kcal/mol)

>  <smiles>  (32) 
Cc1ccc(NC(=O)Nc2ccccc2O)c(O)c1S(=O)(=O)N1CCOCC1

>  <score_type>  (32) 
oracle

>  <origin>  (32) 
adgpu

>  <m_score__min__energy>  (32) 
-14.74

>  <m_primary>  (32) 
energy

$$$$
32:0
     RDKit          3D

 55 59  0  0  0  0  0  0  0  0999 V2000
   -4.1750   25.2580  -30.2880 O   0  0  0  0  0  0  0  0  0  0  0  0
   -4.3340   24.1460  -30.8560 C   0  0  0  0  0  0  0  0  0  0  0  0
   -5.3750   24.0060  -31.8300 N   0  0  0  0  0  0  0  0  0  0  0  0
   -6.4400   23.0460  -31.7600 C   0  0  0  0  0  0  0  0  0  0  0  0
   -7.7660   23.4400  -31.5120 C   0  0  0  0  0  0  0  0  0  0  0  0
   -8.7780   22.4810  -31.4230 C   0  0  0  0  0  0  0  0  0  0  0  0
   -8.4760   21.1270  -31.5800 C   0  0  0  0  0  0  0  0  0  0  0  0
   -7.1610   20.7260  -31.8460 C   0  0  0  0  0  0  0  0  0  0  0  0
   -6.7760   19.0090  -31.9540 S   0  0  0  0  0  0  0  0  0  0  0  0
   -5.4560   18.7750  -31.2740 O   0  0  0  0  0  0  0  0  0  0  0  0
   -7.8250   18.2090  -31.2330 O   0  0  0  0  0  0  0  0  0  0  0  0
   -6.6620   18.5080  -33.6320 N   0  0  0  0  0  0  0  0  0  0  0  0
   -6.8420   17.0510  -33.7860 C   0  0  0  0  0  0  0  0  0  0  0  0
   -5.6210   16.2550  -33.2670 C   0  0  0  0  0  0  0  0  0  0  0  0
   -4.4430   17.0350  -33.1520 O   0  0  0  0  0  0  0  0  0  0  0  0
   -4.3070   17.8880  -34.2670 C   0  0  0  0  0  0  0  0  0  0  0  0
   -5.3990   18.9750  -34.2530 C   0  0  0  0  0  0  0  0  0  0  0  0
   -6.1480   21.6910  -31.9500 C   0  0  0  0  0  0  0  0  0  0  0  0
   -3.4380   23.0270  -30.5120 C   0  0  0  0  0  0  0  0  0  0  0  0
   -2.9350   22.7480  -29.2470 C   0  0  0  0  0  0  0  0  0  0  0  0
   -2.1810   21.6240  -29.2780 N   0  0  0  0  0  0  0  0  0  0  0  0
   -1.5250   21.0410  -28.1430 C   0  0  0  0  0  0  0  0  0  0  0  0
   -0.3420   21.3810  -27.8690 O   0  0  0  0  0  0  0  0  0  0  0  0
   -2.1870   20.0060  -27.3330 C   0  0  0  0  0  0  0  0  0  0  0  0
   -1.5630   18.9400  -26.7150 C   0  0  0  0  0  0  0  0  0  0  0  0
   -2.5670   18.2350  -26.0870 C   0  0  0  0  0  0  0  0  0  0  0  0
   -3.7390   18.9090  -26.3630 C   0  0  0  0  0  0  0  0  0  0  0  0
   -3.4800   19.9580  -27.1100 O   0  0  0  0  0  0  0  0  0  0  0  0
   -2.2090   21.1800  -30.5550 C   0  0  0  0  0  0  0  0  0  0  0  0
   -1.6360   20.0180  -31.0820 C   0  0  0  0  0  0  0  0  0  0  0  0
   -1.7940   19.7670  -32.4560 C   0  0  0  0  0  0  0  0  0  0  0  0
   -2.5180   20.6630  -33.2690 C   0  0  0  0  0  0  0  0  0  0  0  0
   -3.1110   21.8080  -32.7120 C   0  0  0  0  0  0  0  0  0  0  0  0
   -2.9580   22.0250  -31.3400 C   0  0  0  0  0  0  0  0  0  0  0  0
   -8.0076   24.5059  -31.3877 H   0  0  0  0  0  0  0  0  0  0  0  0
   -9.8147   22.7933  -31.2289 H   0  0  0  0  0  0  0  0  0  0  0  0
   -9.2728   20.3735  -31.4945 H   0  0  0  0  0  0  0  0  0  0  0  0
   -7.4580   18.9760  -34.1250 H   0  0  0  0  0  0  0  0  0  0  0  0
   -7.7332   16.7421  -33.2201 H   0  0  0  0  0  0  0  0  0  0  0  0
   -6.9554   16.8355  -34.8587 H   0  0  0  0  0  0  0  0  0  0  0  0
   -5.8671   15.8482  -32.2751 H   0  0  0  0  0  0  0  0  0  0  0  0
   -5.4142   15.4645  -34.0035 H   0  0  0  0  0  0  0  0  0  0  0  0
   -3.3179   18.3684  -34.2364 H   0  0  0  0  0  0  0  0  0  0  0  0
   -4.4114   17.2915  -35.1853 H   0  0  0  0  0  0  0  0  0  0  0  0
   -5.0268   19.8408  -33.6856 H   0  0  0  0  0  0  0  0  0  0  0  0
   -5.6196   19.2385  -35.2980 H   0  0  0  0  0  0  0  0  0  0  0  0
   -5.1186   21.3806  -32.1822 H   0  0  0  0  0  0  0  0  0  0  0  0
   -3.1227   23.3541  -28.3484 H   0  0  0  0  0  0  0  0  0  0  0  0
   -0.4888   18.7031  -26.7225 H   0  0  0  0  0  0  0  0  0  0  0  0
   -2.4564   17.3198  -25.4869 H   0  0  0  0  0  0  0  0  0  0  0  0
   -4.7382   18.6129  -26.0110 H   0  0  0  0  0  0  0  0  0  0  0  0
   -1.0779   19.3208  -30.4398 H   0  0  0  0  0  0  0  0  0  0  0  0
   -1.3493   18.8644  -32.9005 H   0  0  0  0  0  0  0  0  0  0  0  0
   -2.6191   20.4641  -34.3461 H   0  0  0  0  0  0  0  0  0  0  0  0
   -3.6789   22.5128  -33.3371 H   0  0  0  0  0  0  0  0  0  0  0  0
  1  2  2  0
  2  3  1  0
  3  4  1  0
  4  5  2  0
  5  6  1  0
  6  7  2  0
  7  8  1  0
  8  9  1  0
  9 10  2  0
  9 11  2  0
  9 12  1  0
 12 13  1  0
 13 14  1  0
 14 15  1  0
 15 16  1  0
 16 17  1  0
  8 18  2  0
  2 19  1  0
 19 20  2  0
 20 21  1  0
 21 22  1  0
 22 23  2  0
 22 24  1  0
 24 25  2  0
 25 26  1  0
 26 27  2  0
 27 28  1  0
 21 29  1  0
 29 30  2  0
 30 31  1  0
 31 32  2  0
 32 33  1  0
 33 34  2  0
 18  4  1  0
 34 19  1  0
 17 12  1  0
 28 24  1  0
 34 29  1  0
  5 35  1  0
  6 36  1  0
  7 37  1  0
 12 38  1  0
 13 39  1  0
 13 40  1  0
 14 41  1  0
 14 42  1  0
 16 43  1  0
 16 44  1  0
 17 45  1  0
 17 46  1  0
 18 47  1  0
 20 48  1  0
 25 49  1  0
 26 50  1  0
 27 51  1  0
 30 52  1  0
 31 53  1  0
 32 54  1  0
 33 55  1  0
M  CHG  2   3  -1  12   1
M  END
>  <UniqueID>  (33) 
31

>  <SMILES>  (33) 
O=C([N-]c1cccc(S(=O)(=O)[NH+]2CCOCC2)c1)c1cn(C(=O)c2ccco2)c2ccccc12

>  <Energy>  (33) 
139.44302292507243

>  <Genealogy>  (33) 
O=C([N-]c1cccc(S(=O)(=O)[NH+]2CCOCC2)c1)c1cn(C(=O)c2ccco2)c2ccccc12 (protonated)
O=C([N-]c1cccc(S(=O)(=O)[NH+]2CCOCC2)c1)c1cn(C(=O)c2ccco2)c2ccccc12 (3D coordinates assigned)
O=C([N-]c1cccc(S(=O)(=O)[NH+]2CCOCC2)c1)c1cn(C(=O)c2ccco2)c2ccccc12 (nonaromatic ring conformer: 139.44302292507243 kcal/mol)

>  <smiles>  (33) 
O=C(Nc1cccc(S(=O)(=O)N2CCOCC2)c1)c1cn(C(=O)c2ccco2)c2ccccc12

>  <score_type>  (33) 
oracle

>  <origin>  (33) 
adgpu

>  <m_score__min__energy>  (33) 
-11.970000000000001

>  <m_primary>  (33) 
energy

$$$$
33:0
     RDKit          3D

 38 39  0  0  0  0  0  0  0  0999 V2000
   -6.4060   26.0570  -28.9920 N   0  0  0  0  0  0  0  0  0  0  0  0
   -5.8910   24.9400  -29.7180 C   0  0  0  0  0  0  0  0  0  0  0  0
   -6.6590   24.2610  -30.5110 N   0  0  0  0  0  0  0  0  0  0  0  0
   -4.1620   24.4860  -29.5330 S   0  0  0  0  0  0  0  0  0  0  0  0
   -4.4650   22.6840  -29.5900 C   0  0  0  0  0  0  0  0  0  0  0  0
   -3.4450   21.9930  -30.4640 C   0  0  0  0  0  0  0  0  0  0  0  0
   -2.2670   21.5160  -29.8600 C   0  0  0  0  0  0  0  0  0  0  0  0
   -1.2610   20.9270  -30.6270 C   0  0  0  0  0  0  0  0  0  0  0  0
   -1.4130   20.8140  -32.0080 C   0  0  0  0  0  0  0  0  0  0  0  0
   -2.5740   21.2810  -32.6250 C   0  0  0  0  0  0  0  0  0  0  0  0
   -3.6020   21.8600  -31.8680 C   0  0  0  0  0  0  0  0  0  0  0  0
   -5.0910   22.4270  -32.7160 S   0  0  0  0  0  0  0  0  0  0  0  0
   -5.9070   20.8200  -32.6520 C   0  0  0  0  0  0  0  0  0  0  0  0
   -5.1460   19.6700  -32.9100 C   0  0  0  0  0  0  0  0  0  0  0  0
   -5.7430   18.4080  -32.9050 C   0  0  0  0  0  0  0  0  0  0  0  0
   -7.1020   18.2810  -32.6200 C   0  0  0  0  0  0  0  0  0  0  0  0
   -7.8640   19.4130  -32.3240 C   0  0  0  0  0  0  0  0  0  0  0  0
   -7.2810   20.6910  -32.3300 C   0  0  0  0  0  0  0  0  0  0  0  0
   -8.2590   22.0700  -31.7950 S   0  0  0  0  0  0  0  0  0  0  0  0
   -7.7690   23.4850  -32.6610 N   0  0  0  0  0  0  0  0  0  0  0  0
   -8.0510   22.3050  -30.3250 O   0  0  0  0  0  0  0  0  0  0  0  0
   -9.7190   21.8150  -32.0300 O   0  0  0  0  0  0  0  0  0  0  0  0
   -7.4080   26.3380  -29.0790 H   0  0  0  0  0  0  0  0  0  0  0  0
   -5.7840   26.5990  -28.3530 H   0  0  0  0  0  0  0  0  0  0  0  0
   -7.6660   24.5110  -30.6270 H   0  0  0  0  0  0  0  0  0  0  0  0
   -6.2840   23.4440  -31.0430 H   0  0  0  0  0  0  0  0  0  0  0  0
   -4.4013   22.2757  -28.5706 H   0  0  0  0  0  0  0  0  0  0  0  0
   -5.4656   22.5092  -30.0123 H   0  0  0  0  0  0  0  0  0  0  0  0
   -2.1377   21.6084  -28.7715 H   0  0  0  0  0  0  0  0  0  0  0  0
   -0.3479   20.5518  -30.1417 H   0  0  0  0  0  0  0  0  0  0  0  0
   -0.6163   20.3559  -32.6124 H   0  0  0  0  0  0  0  0  0  0  0  0
   -2.6837   21.1940  -33.7161 H   0  0  0  0  0  0  0  0  0  0  0  0
   -4.0699   19.7634  -33.1180 H   0  0  0  0  0  0  0  0  0  0  0  0
   -5.1414   17.5140  -33.1259 H   0  0  0  0  0  0  0  0  0  0  0  0
   -7.5745   17.2877  -32.6284 H   0  0  0  0  0  0  0  0  0  0  0  0
   -8.9318   19.3029  -32.0837 H   0  0  0  0  0  0  0  0  0  0  0  0
   -8.6360   23.9250  -33.0410 H   0  0  0  0  0  0  0  0  0  0  0  0
   -7.2080   23.1670  -33.4820 H   0  0  0  0  0  0  0  0  0  0  0  0
  1  2  1  0
  2  3  2  0
  2  4  1  0
  4  5  1  0
  5  6  1  0
  6  7  2  0
  7  8  1  0
  8  9  2  0
  9 10  1  0
 10 11  2  0
 11 12  1  0
 12 13  1  0
 13 14  2  0
 14 15  1  0
 15 16  2  0
 16 17  1  0
 17 18  2  0
 18 19  1  0
 19 20  1  0
 19 21  2  0
 19 22  2  0
 11  6  1  0
 18 13  1  0
  1 23  1  0
  1 24  1  0
  3 25  1  0
  3 26  1  0
  5 27  1  0
  5 28  1  0
  7 29  1  0
  8 30  1  0
  9 31  1  0
 10 32  1  0
 14 33  1  0
 15 34  1  0
 16 35  1  0
 17 36  1  0
 20 37  1  0
 20 38  1  0
M  CHG  1   3   1
M  END
>  <UniqueID>  (34) 
32

>  <SMILES>  (34) 
NC(=[NH2+])SCc1ccccc1Sc1ccccc1S(N)(=O)=O

>  <Energy>  (34) 
30.79991789576218

>  <Genealogy>  (34) 
NC(=[NH2+])SCc1ccccc1Sc1ccccc1S(N)(=O)=O (protonated)
NC(=[NH2+])SCc1ccccc1Sc1ccccc1S(N)(=O)=O (3D coordinates assigned)
NC(=[NH2+])SCc1ccccc1Sc1ccccc1S(N)(=O)=O (optimized conformer: 30.79991789576218 kcal/mol)

>  <smiles>  (34) 
N=C(N)SCc1ccccc1Sc1ccccc1S(N)(=O)=O

>  <score_type>  (34) 
oracle

>  <origin>  (34) 
adgpu

>  <m_score__min__energy>  (34) 
-9.3900000000000006

>  <m_primary>  (34) 
energy

$$$$
34:0
     RDKit          3D

 28 29  0  0  0  0  0  0  0  0999 V2000
   -3.2350   22.2240  -32.3630 O   0  0  0  0  0  0  0  0  0  0  0  0
   -3.3190   22.8810  -31.2920 C   0  0  0  0  0  0  0  0  0  0  0  0
   -2.1270   23.0820  -30.5170 N   0  0  0  0  0  0  0  0  0  0  0  0
   -1.8790   22.5810  -29.1930 C   0  0  0  0  0  0  0  0  0  0  0  0
   -2.2340   21.2600  -28.8610 C   0  0  0  0  0  0  0  0  0  0  0  0
   -2.0200   20.7680  -27.5750 C   0  0  0  0  0  0  0  0  0  0  0  0
   -1.4650   21.5910  -26.5920 C   0  0  0  0  0  0  0  0  0  0  0  0
   -1.2450   21.1090  -25.3040 O   0  0  0  0  0  0  0  0  0  0  0  0
   -1.1300   22.9120  -26.9010 C   0  0  0  0  0  0  0  0  0  0  0  0
   -1.3350   23.4290  -28.1950 C   0  0  0  0  0  0  0  0  0  0  0  0
   -0.9550   24.8410  -28.4690 C   0  0  0  0  0  0  0  0  0  0  0  0
   -1.7730   25.6500  -28.9790 O   0  0  0  0  0  0  0  0  0  0  0  0
    0.3250   25.2930  -28.1660 O   0  0  0  0  0  0  0  0  0  0  0  0
   -4.6430   23.3640  -30.8310 C   0  0  0  0  0  0  0  0  0  0  0  0
   -5.6930   22.4490  -30.6250 C   0  0  0  0  0  0  0  0  0  0  0  0
   -6.9460   22.8940  -30.1960 C   0  0  0  0  0  0  0  0  0  0  0  0
   -7.1690   24.2540  -29.9770 C   0  0  0  0  0  0  0  0  0  0  0  0
   -6.1400   25.1740  -30.1880 C   0  0  0  0  0  0  0  0  0  0  0  0
   -4.8800   24.7380  -30.6130 C   0  0  0  0  0  0  0  0  0  0  0  0
   -3.8690   25.6750  -30.8000 O   0  0  0  0  0  0  0  0  0  0  0  0
   -2.6850   20.6093  -29.6247 H   0  0  0  0  0  0  0  0  0  0  0  0
   -2.2887   19.7291  -27.3332 H   0  0  0  0  0  0  0  0  0  0  0  0
   -1.1360   21.7370  -24.5160 H   0  0  0  0  0  0  0  0  0  0  0  0
   -0.6996   23.5580  -26.1216 H   0  0  0  0  0  0  0  0  0  0  0  0
   -5.5257   21.3765  -30.8030 H   0  0  0  0  0  0  0  0  0  0  0  0
   -7.7583   22.1709  -30.0306 H   0  0  0  0  0  0  0  0  0  0  0  0
   -8.1560   24.6015  -29.6379 H   0  0  0  0  0  0  0  0  0  0  0  0
   -6.3206   26.2459  -30.0194 H   0  0  0  0  0  0  0  0  0  0  0  0
  1  2  2  0
  2  3  1  0
  3  4  1  0
  4  5  2  0
  5  6  1  0
  6  7  2  0
  7  8  1  0
  7  9  1  0
  9 10  2  0
 10 11  1  0
 11 12  2  0
 11 13  1  0
  2 14  1  0
 14 15  2  0
 15 16  1  0
 16 17  2  0
 17 18  1  0
 18 19  2  0
 19 20  1  0
 10  4  1  0
 19 14  1  0
  5 21  1  0
  6 22  1  0
  8 23  1  0
  9 24  1  0
 15 25  1  0
 16 26  1  0
 17 27  1  0
 18 28  1  0
M  CHG  3   3  -1  13  -1  20  -1
M  END
>  <UniqueID>  (35) 
33

>  <SMILES>  (35) 
O=C([N-]c1ccc(O)cc1C(=O)[O-])c1ccccc1[O-]

>  <Energy>  (35) 
39.722940463680295

>  <Genealogy>  (35) 
O=C([N-]c1ccc(O)cc1C(=O)[O-])c1ccccc1[O-] (protonated)
O=C([N-]c1ccc(O)cc1C(=O)[O-])c1ccccc1[O-] (3D coordinates assigned)
O=C([N-]c1ccc(O)cc1C(=O)[O-])c1ccccc1[O-] (optimized conformer: 39.722940463680295 kcal/mol)

>  <smiles>  (35) 
O=C(Nc1ccc(O)cc1C(=O)O)c1ccccc1O

>  <score_type>  (35) 
oracle

>  <origin>  (35) 
adgpu

>  <m_score__min__energy>  (35) 
-11.550000000000001

>  <m_primary>  (35) 
energy

$$$$
35:0
     RDKit          3D

 53 55  0  0  0  0  0  0  0  0999 V2000
   -1.3160   15.1300  -36.1240 C   0  0  0  0  0  0  0  0  0  0  0  0
   -1.5280   16.3650  -35.3070 C   0  0  0  0  0  0  0  0  0  0  0  0
   -0.4870   17.2550  -35.0850 C   0  0  0  0  0  0  0  0  0  0  0  0
   -0.7250   18.3990  -34.3260 C   0  0  0  0  0  0  0  0  0  0  0  0
    0.2360   19.1920  -34.1330 O   0  0  0  0  0  0  0  0  0  0  0  0
   -1.9760   18.6530  -33.7990 N   0  0  0  0  0  0  0  0  0  0  0  0
   -2.2010   19.8300  -32.9090 C   0  0  0  0  0  0  0  0  0  0  0  0
   -1.3990   19.7190  -31.6030 C   0  0  0  0  0  0  0  0  0  0  0  0
   -1.9250   21.1520  -33.6390 C   0  0  0  0  0  0  0  0  0  0  0  0
   -3.0020   17.7700  -34.0890 C   0  0  0  0  0  0  0  0  0  0  0  0
   -4.3960   17.9860  -33.6540 C   0  0  0  0  0  0  0  0  0  0  0  0
   -4.9850   17.1180  -32.7240 C   0  0  0  0  0  0  0  0  0  0  0  0
   -6.3070   17.3160  -32.3170 C   0  0  0  0  0  0  0  0  0  0  0  0
   -7.0600   18.3770  -32.8340 C   0  0  0  0  0  0  0  0  0  0  0  0
   -8.3690   18.5570  -32.3610 O   0  0  0  0  0  0  0  0  0  0  0  0
   -8.7330   19.3510  -31.2310 C   0  0  0  0  0  0  0  0  0  0  0  0
   -8.3800   20.7940  -31.4750 C   0  0  0  0  0  0  0  0  0  0  0  0
   -9.3880   21.7120  -31.8100 C   0  0  0  0  0  0  0  0  0  0  0  0
   -9.0820   23.0650  -31.9740 C   0  0  0  0  0  0  0  0  0  0  0  0
   -7.7720   23.5140  -31.7950 C   0  0  0  0  0  0  0  0  0  0  0  0
   -6.7560   22.6070  -31.4660 C   0  0  0  0  0  0  0  0  0  0  0  0
   -5.1150   23.1710  -31.1720 S   0  0  0  0  0  0  0  0  0  0  0  0
   -4.6010   22.6380  -29.5560 C   0  0  0  0  0  0  0  0  0  0  0  0
   -4.1900   22.6030  -32.2120 O   0  0  0  0  0  0  0  0  0  0  0  0
   -5.0630   24.6720  -31.2460 O   0  0  0  0  0  0  0  0  0  0  0  0
   -7.0610   21.2480  -31.3140 C   0  0  0  0  0  0  0  0  0  0  0  0
   -6.4810   19.2210  -33.8010 C   0  0  0  0  0  0  0  0  0  0  0  0
   -5.1600   19.0220  -34.2100 C   0  0  0  0  0  0  0  0  0  0  0  0
   -2.7570   16.6490  -34.8180 N   0  0  0  0  0  0  0  0  0  0  0  0
   -1.1682   14.2690  -35.4555 H   0  0  0  0  0  0  0  0  0  0  0  0
   -2.1971   14.9545  -36.7586 H   0  0  0  0  0  0  0  0  0  0  0  0
   -0.4268   15.2584  -36.7586 H   0  0  0  0  0  0  0  0  0  0  0  0
    0.5120   17.0602  -35.5023 H   0  0  0  0  0  0  0  0  0  0  0  0
   -3.2655   19.8295  -32.6320 H   0  0  0  0  0  0  0  0  0  0  0  0
   -2.0808   19.8134  -30.7449 H   0  0  0  0  0  0  0  0  0  0  0  0
   -0.8942   18.7424  -31.5646 H   0  0  0  0  0  0  0  0  0  0  0  0
   -0.6479   20.5218  -31.5646 H   0  0  0  0  0  0  0  0  0  0  0  0
   -1.7583   21.9505  -32.9010 H   0  0  0  0  0  0  0  0  0  0  0  0
   -1.0303   21.0428  -34.2695 H   0  0  0  0  0  0  0  0  0  0  0  0
   -2.7887   21.4099  -34.2695 H   0  0  0  0  0  0  0  0  0  0  0  0
   -4.4047   16.2785  -32.3134 H   0  0  0  0  0  0  0  0  0  0  0  0
   -6.7600   16.6323  -31.5840 H   0  0  0  0  0  0  0  0  0  0  0  0
   -9.8164   19.2656  -31.0606 H   0  0  0  0  0  0  0  0  0  0  0  0
   -8.1848   18.9915  -30.3477 H   0  0  0  0  0  0  0  0  0  0  0  0
  -10.4230   21.3644  -31.9439 H   0  0  0  0  0  0  0  0  0  0  0  0
   -9.8746   23.7782  -32.2447 H   0  0  0  0  0  0  0  0  0  0  0  0
   -7.5371   24.5822  -31.9125 H   0  0  0  0  0  0  0  0  0  0  0  0
   -5.1495   23.2067  -28.7907 H   0  0  0  0  0  0  0  0  0  0  0  0
   -4.8142   21.5653  -29.4387 H   0  0  0  0  0  0  0  0  0  0  0  0
   -3.5212   22.8122  -29.4387 H   0  0  0  0  0  0  0  0  0  0  0  0
   -6.2627   20.5326  -31.0671 H   0  0  0  0  0  0  0  0  0  0  0  0
   -7.0714   20.0407  -34.2364 H   0  0  0  0  0  0  0  0  0  0  0  0
   -4.7174   19.6809  -34.9715 H   0  0  0  0  0  0  0  0  0  0  0  0
  1  2  1  0
  2  3  2  0
  3  4  1  0
  4  5  2  0
  4  6  1  0
  6  7  1  0
  7  8  1  0
  7  9  1  0
  6 10  1  0
 10 11  1  0
 11 12  2  0
 12 13  1  0
 13 14  2  0
 14 15  1  0
 15 16  1  0
 16 17  1  0
 17 18  2  0
 18 19  1  0
 19 20  2  0
 20 21  1  0
 21 22  1  0
 22 23  1  0
 22 24  2  0
 22 25  2  0
 21 26  2  0
 14 27  1  0
 27 28  2  0
 10 29  2  0
 29  2  1  0
 28 11  1  0
 26 17  1  0
  1 30  1  0
  1 31  1  0
  1 32  1  0
  3 33  1  0
  7 34  1  0
  8 35  1  0
  8 36  1  0
  8 37  1  0
  9 38  1  0
  9 39  1  0
  9 40  1  0
 12 41  1  0
 13 42  1  0
 16 43  1  0
 16 44  1  0
 18 45  1  0
 19 46  1  0
 20 47  1  0
 23 48  1  0
 23 49  1  0
 23 50  1  0
 26 51  1  0
 27 52  1  0
 28 53  1  0
M  END
>  <UniqueID>  (36) 
34

>  <SMILES>  (36) 
Cc1cc(=O)n(C(C)C)c(-c2ccc(OCc3cccc(S(C)(=O)=O)c3)cc2)n1

>  <Energy>  (36) 
61.195442299662254

>  <Genealogy>  (36) 
Cc1cc(=O)n(C(C)C)c(-c2ccc(OCc3cccc(S(C)(=O)=O)c3)cc2)n1 (3D coordinates assigned)
Cc1cc(=O)n(C(C)C)c(-c2ccc(OCc3cccc(S(C)(=O)=O)c3)cc2)n1 (optimized conformer: 61.195442299662254 kcal/mol)

>  <smiles>  (36) 
Cc1cc(=O)n(C(C)C)c(-c2ccc(OCc3cccc(S(C)(=O)=O)c3)cc2)n1

>  <score_type>  (36) 
oracle

>  <origin>  (36) 
adgpu

>  <m_score__min__energy>  (36) 
-9.3100000000000005

>  <m_primary>  (36) 
energy

$$$$
36:0
     RDKit          3D

 42 45  0  0  0  0  0  0  0  0999 V2000
   -5.5970   26.3590  -30.0920 O   0  0  0  0  0  0  0  0  0  0  0  0
   -4.9780   25.3090  -30.4140 C   0  0  0  0  0  0  0  0  0  0  0  0
   -3.5460   25.2900  -30.3280 N   0  0  0  0  0  0  0  0  0  0  0  0
   -2.7950   24.4370  -29.4520 C   0  0  0  0  0  0  0  0  0  0  0  0
   -2.4580   24.9100  -28.1760 C   0  0  0  0  0  0  0  0  0  0  0  0
   -1.6690   24.1370  -27.3200 C   0  0  0  0  0  0  0  0  0  0  0  0
   -1.2260   22.8760  -27.7240 C   0  0  0  0  0  0  0  0  0  0  0  0
   -1.5890   22.3760  -28.9760 C   0  0  0  0  0  0  0  0  0  0  0  0
   -2.3810   23.1420  -29.8410 C   0  0  0  0  0  0  0  0  0  0  0  0
   -2.8950   22.4150  -31.3580 Cl  0  0  0  0  0  0  0  0  0  0  0  0
   -5.7370   24.1260  -30.8670 C   0  0  0  0  0  0  0  0  0  0  0  0
   -5.8020   22.9740  -30.0680 C   0  0  0  0  0  0  0  0  0  0  0  0
   -6.6560   21.9260  -30.4110 C   0  0  0  0  0  0  0  0  0  0  0  0
   -7.4570   22.0120  -31.5590 C   0  0  0  0  0  0  0  0  0  0  0  0
   -8.5540   21.0070  -31.7830 C   0  0  0  0  0  0  0  0  0  0  0  0
   -8.0750   19.9540  -32.6780 N   0  0  0  0  0  0  0  0  0  0  0  0
   -8.3740   18.5620  -32.5240 C   0  0  0  0  0  0  0  0  0  0  0  0
   -9.4020   18.1200  -31.9440 O   0  0  0  0  0  0  0  0  0  0  0  0
   -7.3030   17.7440  -33.0800 C   0  0  0  0  0  0  0  0  0  0  0  0
   -7.1360   16.3610  -33.1110 C   0  0  0  0  0  0  0  0  0  0  0  0
   -5.9510   15.8510  -33.6700 C   0  0  0  0  0  0  0  0  0  0  0  0
   -4.9630   16.7270  -34.1710 C   0  0  0  0  0  0  0  0  0  0  0  0
   -5.1520   18.1200  -34.1180 C   0  0  0  0  0  0  0  0  0  0  0  0
   -6.3400   18.5970  -33.5690 C   0  0  0  0  0  0  0  0  0  0  0  0
   -6.7980   19.9590  -33.3280 C   0  0  0  0  0  0  0  0  0  0  0  0
   -6.1570   21.0050  -33.6170 O   0  0  0  0  0  0  0  0  0  0  0  0
   -7.3380   23.1310  -32.3980 C   0  0  0  0  0  0  0  0  0  0  0  0
   -6.4700   24.1750  -32.0630 C   0  0  0  0  0  0  0  0  0  0  0  0
   -2.8170   25.8961  -27.8465 H   0  0  0  0  0  0  0  0  0  0  0  0
   -1.3965   24.5225  -26.3265 H   0  0  0  0  0  0  0  0  0  0  0  0
   -0.5907   22.2763  -27.0556 H   0  0  0  0  0  0  0  0  0  0  0  0
   -1.2514   21.3756  -29.2847 H   0  0  0  0  0  0  0  0  0  0  0  0
   -5.1762   22.8972  -29.1666 H   0  0  0  0  0  0  0  0  0  0  0  0
   -6.7015   21.0276  -29.7780 H   0  0  0  0  0  0  0  0  0  0  0  0
   -8.8478   20.5641  -30.8199 H   0  0  0  0  0  0  0  0  0  0  0  0
   -9.4224   21.5070  -32.2367 H   0  0  0  0  0  0  0  0  0  0  0  0
   -7.9084   15.6882  -32.7100 H   0  0  0  0  0  0  0  0  0  0  0  0
   -5.7925   14.7635  -33.7174 H   0  0  0  0  0  0  0  0  0  0  0  0
   -4.0393   16.3172  -34.6057 H   0  0  0  0  0  0  0  0  0  0  0  0
   -4.3854   18.8111  -34.4983 H   0  0  0  0  0  0  0  0  0  0  0  0
   -7.9302   23.1870  -33.3233 H   0  0  0  0  0  0  0  0  0  0  0  0
   -6.3614   25.0365  -32.7383 H   0  0  0  0  0  0  0  0  0  0  0  0
  1  2  2  0
  2  3  1  0
  3  4  1  0
  4  5  2  0
  5  6  1  0
  6  7  2  0
  7  8  1  0
  8  9  2  0
  9 10  1  0
  2 11  1  0
 11 12  2  0
 12 13  1  0
 13 14  2  0
 14 15  1  0
 15 16  1  0
 16 17  1  0
 17 18  2  0
 17 19  1  0
 19 20  2  0
 20 21  1  0
 21 22  2  0
 22 23  1  0
 23 24  2  0
 24 25  1  0
 25 26  2  0
 14 27  1  0
 27 28  2  0
  9  4  1  0
 28 11  1  0
 25 16  1  0
 24 19  1  0
  5 29  1  0
  6 30  1  0
  7 31  1  0
  8 32  1  0
 12 33  1  0
 13 34  1  0
 15 35  1  0
 15 36  1  0
 20 37  1  0
 21 38  1  0
 22 39  1  0
 23 40  1  0
 27 41  1  0
 28 42  1  0
M  CHG  1   3  -1
M  END
>  <UniqueID>  (37) 
35

>  <SMILES>  (37) 
O=C([N-]c1ccccc1Cl)c1ccc(CN2C(=O)c3ccccc3C2=O)cc1

>  <Energy>  (37) 
85.8017872907834

>  <Genealogy>  (37) 
O=C([N-]c1ccccc1Cl)c1ccc(CN2C(=O)c3ccccc3C2=O)cc1 (protonated)
O=C([N-]c1ccccc1Cl)c1ccc(CN2C(=O)c3ccccc3C2=O)cc1 (3D coordinates assigned)
O=C([N-]c1ccccc1Cl)c1ccc(CN2C(=O)c3ccccc3C2=O)cc1 (nonaromatic ring conformer: 85.8017872907834 kcal/mol)

>  <smiles>  (37) 
O=C(Nc1ccccc1Cl)c1ccc(CN2C(=O)c3ccccc3C2=O)cc1

>  <score_type>  (37) 
oracle

>  <origin>  (37) 
adgpu

>  <m_score__min__energy>  (37) 
-11.960000000000001

>  <m_primary>  (37) 
energy

$$$$
37:0
     RDKit          3D

 52 53  0  0  0  0  0  0  0  0999 V2000
   -4.1314   23.4398  -31.8609 H   0  0  0  0  0  0  0  0  0  0  0  0
   -4.8860   22.6520  -32.0020 C   0  0  0  0  0  0  0  0  0  0  0  0
   -4.4460   21.4080  -32.2880 C   0  0  0  0  0  0  0  0  0  0  0  0
   -5.3840   20.2890  -32.5430 C   0  0  0  0  0  0  0  0  0  0  0  0
   -6.5730   20.1690  -31.8110 C   0  0  0  0  0  0  0  0  0  0  0  0
   -6.8163   20.9001  -31.0259 H   0  0  0  0  0  0  0  0  0  0  0  0
   -7.4490   19.1120  -32.0860 C   0  0  0  0  0  0  0  0  0  0  0  0
   -8.7270   18.9730  -31.3230 C   0  0  0  0  0  0  0  0  0  0  0  0
   -8.5142   18.9961  -30.2440 H   0  0  0  0  0  0  0  0  0  0  0  0
   -9.4007   19.8032  -31.5818 H   0  0  0  0  0  0  0  0  0  0  0  0
   -9.2065   18.0174  -31.5818 H   0  0  0  0  0  0  0  0  0  0  0  0
   -7.1540   18.2300  -33.0790 N   0  0  0  0  0  0  0  0  0  0  0  0
   -6.0160   18.3310  -33.8180 C   0  0  0  0  0  0  0  0  0  0  0  0
   -5.7420   17.3410  -34.9050 C   0  0  0  0  0  0  0  0  0  0  0  0
   -5.4738   16.3718  -34.4592 H   0  0  0  0  0  0  0  0  0  0  0  0
   -6.6410   17.2219  -35.5277 H   0  0  0  0  0  0  0  0  0  0  0  0
   -4.9097   17.7011  -35.5277 H   0  0  0  0  0  0  0  0  0  0  0  0
   -5.1110   19.3700  -33.5650 C   0  0  0  0  0  0  0  0  0  0  0  0
   -4.1932   19.4637  -34.1640 H   0  0  0  0  0  0  0  0  0  0  0  0
   -2.9850   21.1260  -32.3350 C   0  0  0  0  0  0  0  0  0  0  0  0
   -2.2690   20.8150  -31.1660 C   0  0  0  0  0  0  0  0  0  0  0  0
   -2.7905   20.7897  -30.1978 H   0  0  0  0  0  0  0  0  0  0  0  0
   -0.9020   20.5380  -31.2230 C   0  0  0  0  0  0  0  0  0  0  0  0
   -0.3542   20.3021  -30.2987 H   0  0  0  0  0  0  0  0  0  0  0  0
   -0.2190   20.5580  -32.4530 C   0  0  0  0  0  0  0  0  0  0  0  0
    1.1570   20.2850  -32.5420 O   0  0  0  0  0  0  0  0  0  0  0  0
    1.7700   19.0750  -32.1080 C   0  0  0  0  0  0  0  0  0  0  0  0
    1.7850   19.0454  -31.0085 H   0  0  0  0  0  0  0  0  0  0  0  0
    1.1980   18.2166  -32.4901 H   0  0  0  0  0  0  0  0  0  0  0  0
    2.8004   19.0284  -32.4901 H   0  0  0  0  0  0  0  0  0  0  0  0
   -0.9300   20.8580  -33.6290 C   0  0  0  0  0  0  0  0  0  0  0  0
   -0.2180   20.8850  -34.9540 C   0  0  0  0  0  0  0  0  0  0  0  0
    0.8683   20.9262  -34.7858 H   0  0  0  0  0  0  0  0  0  0  0  0
   -0.4668   19.9768  -35.5225 H   0  0  0  0  0  0  0  0  0  0  0  0
   -0.5349   21.7718  -35.5225 H   0  0  0  0  0  0  0  0  0  0  0  0
   -2.3040   21.1380  -33.5650 C   0  0  0  0  0  0  0  0  0  0  0  0
   -2.8547   21.3697  -34.4886 H   0  0  0  0  0  0  0  0  0  0  0  0
   -6.3360   23.0400  -31.8620 C   0  0  0  0  0  0  0  0  0  0  0  0
   -6.8050   23.0343  -32.8570 H   0  0  0  0  0  0  0  0  0  0  0  0
   -6.8241   22.3147  -31.1944 H   0  0  0  0  0  0  0  0  0  0  0  0
   -6.4890   24.4450  -31.2440 C   0  0  0  0  0  0  0  0  0  0  0  0
   -5.8144   25.1322  -31.7756 H   0  0  0  0  0  0  0  0  0  0  0  0
   -7.5474   24.7255  -31.3488 H   0  0  0  0  0  0  0  0  0  0  0  0
   -6.1580   24.5070  -29.7420 C   0  0  0  0  0  0  0  0  0  0  0  0
   -6.2529   25.5511  -29.4091 H   0  0  0  0  0  0  0  0  0  0  0  0
   -6.8638   23.8354  -29.2312 H   0  0  0  0  0  0  0  0  0  0  0  0
   -4.7400   24.0140  -29.3950 C   0  0  0  0  0  0  0  0  0  0  0  0
   -4.6523   23.9442  -28.3007 H   0  0  0  0  0  0  0  0  0  0  0  0
   -4.6049   23.0379  -29.8838 H   0  0  0  0  0  0  0  0  0  0  0  0
   -3.6580   24.9200  -29.9030 C   0  0  0  0  0  0  0  0  0  0  0  0
   -2.5910   25.0700  -29.2500 O   0  0  0  0  0  0  0  0  0  0  0  0
   -3.8630   25.6640  -31.0580 O   0  0  0  0  0  0  0  0  0  0  0  0
  1  2  1  0
  2  3  2  0
  3  4  1  0
  4  5  2  0
  5  6  1  0
  5  7  1  0
  7  8  1  0
  8  9  1  0
  8 10  1  0
  8 11  1  0
  7 12  2  0
 12 13  1  0
 13 14  1  0
 14 15  1  0
 14 16  1  0
 14 17  1  0
 13 18  2  0
 18 19  1  0
  3 20  1  0
 20 21  2  0
 21 22  1  0
 21 23  1  0
 23 24  1  0
 23 25  2  0
 25 26  1  0
 26 27  1  0
 27 28  1  0
 27 29  1  0
 27 30  1  0
 25 31  1  0
 31 32  1  0
 32 33  1  0
 32 34  1  0
 32 35  1  0
 31 36  2  0
 36 37  1  0
  2 38  1  0
 38 39  1  0
 38 40  1  0
 38 41  1  0
 41 42  1  0
 41 43  1  0
 41 44  1  0
 44 45  1  0
 44 46  1  0
 44 47  1  0
 47 48  1  0
 47 49  1  0
 47 50  1  0
 50 51  2  0
 50 52  1  0
 18  4  1  0
 36 20  1  0
M  CHG  1  52  -1
M  END
>  <UniqueID>  (38) 
36

>  <SMILES>  (38) 
COc1ccc(/C(=C/CCCCC(=O)[O-])c2cc(C)nc(C)c2)cc1C

>  <Energy>  (38) 
57.786061729513506

>  <Genealogy>  (38) 
COc1ccc(C(=CCCCCC(=O)[O-])c2cc(C)nc(C)c2)cc1C (protonated)
COc1ccc(/C(=C/CCCCC(=O)[O-])c2cc(C)nc(C)c2)cc1C (cis-trans isomerization)
COc1ccc(/C(=C/CCCCC(=O)[O-])c2cc(C)nc(C)c2)cc1C (3D coordinates assigned)
COc1ccc(/C(=C/CCCCC(=O)[O-])c2cc(C)nc(C)c2)cc1C (optimized conformer: 57.786061729513506 kcal/mol)

>  <smiles>  (38) 
COc1ccc(C(=CCCCCC(=O)O)c2cc(C)nc(C)c2)cc1C

>  <score_type>  (38) 
oracle

>  <origin>  (38) 
adgpu

>  <m_score__min__energy>  (38) 
-11.289999999999999

>  <m_primary>  (38) 
energy

$$$$
38:0
     RDKit          3D

 30 31  0  0  0  0  0  0  0  0999 V2000
   -3.2970   16.5150  -35.3020 C   0  0  0  0  0  0  0  0  0  0  0  0
   -4.5830   16.9460  -34.6620 C   0  0  0  0  0  0  0  0  0  0  0  0
   -5.4950   15.9900  -34.1950 C   0  0  0  0  0  0  0  0  0  0  0  0
   -6.6760   16.3930  -33.5680 C   0  0  0  0  0  0  0  0  0  0  0  0
   -6.9520   17.7520  -33.3830 C   0  0  0  0  0  0  0  0  0  0  0  0
   -8.1420   18.1120  -32.7490 O   0  0  0  0  0  0  0  0  0  0  0  0
   -6.0350   18.7240  -33.8270 C   0  0  0  0  0  0  0  0  0  0  0  0
   -6.3270   20.1130  -33.6120 N   0  0  0  0  0  0  0  0  0  0  0  0
   -6.9570   20.7940  -32.1480 S   0  0  0  0  0  0  0  0  0  0  0  0
   -6.9770   19.7360  -31.0810 O   0  0  0  0  0  0  0  0  0  0  0  0
   -8.3620   21.2690  -32.3920 O   0  0  0  0  0  0  0  0  0  0  0  0
   -5.9340   22.1240  -31.6130 C   0  0  0  0  0  0  0  0  0  0  0  0
   -4.5550   22.0870  -31.8590 C   0  0  0  0  0  0  0  0  0  0  0  0
   -3.7410   23.1470  -31.4500 C   0  0  0  0  0  0  0  0  0  0  0  0
   -4.2970   24.2480  -30.7930 C   0  0  0  0  0  0  0  0  0  0  0  0
   -3.4780   25.2970  -30.3920 O   0  0  0  0  0  0  0  0  0  0  0  0
   -5.6760   24.2880  -30.5390 C   0  0  0  0  0  0  0  0  0  0  0  0
   -6.3940   25.6610  -29.7130 Cl  0  0  0  0  0  0  0  0  0  0  0  0
   -6.4910   23.2250  -30.9480 C   0  0  0  0  0  0  0  0  0  0  0  0
   -4.8500   18.3100  -34.4650 C   0  0  0  0  0  0  0  0  0  0  0  0
   -2.5630   16.2690  -34.5206 H   0  0  0  0  0  0  0  0  0  0  0  0
   -3.4778   15.6284  -35.9274 H   0  0  0  0  0  0  0  0  0  0  0  0
   -2.9070   17.3315  -35.9274 H   0  0  0  0  0  0  0  0  0  0  0  0
   -5.2800   14.9188  -34.3227 H   0  0  0  0  0  0  0  0  0  0  0  0
   -7.3939   15.6370  -33.2173 H   0  0  0  0  0  0  0  0  0  0  0  0
   -8.3910   19.0770  -32.5690 H   0  0  0  0  0  0  0  0  0  0  0  0
   -4.1123   21.2222  -32.3749 H   0  0  0  0  0  0  0  0  0  0  0  0
   -2.6591   23.1145  -31.6459 H   0  0  0  0  0  0  0  0  0  0  0  0
   -7.5720   23.2542  -30.7467 H   0  0  0  0  0  0  0  0  0  0  0  0
   -4.1267   19.0625  -34.8123 H   0  0  0  0  0  0  0  0  0  0  0  0
  1  2  1  0
  2  3  2  0
  3  4  1  0
  4  5  2  0
  5  6  1  0
  5  7  1  0
  7  8  1  0
  8  9  1  0
  9 10  2  0
  9 11  2  0
  9 12  1  0
 12 13  2  0
 13 14  1  0
 14 15  2  0
 15 16  1  0
 15 17  1  0
 17 18  1  0
 17 19  2  0
  7 20  2  0
 20  2  1  0
 19 12  1  0
  1 21  1  0
  1 22  1  0
  1 23  1  0
  3 24  1  0
  4 25  1  0
  6 26  1  0
 13 27  1  0
 14 28  1  0
 19 29  1  0
 20 30  1  0
M  CHG  2   8  -1  16  -1
M  END
>  <UniqueID>  (39) 
37

>  <SMILES>  (39) 
Cc1ccc(O)c([N-]S(=O)(=O)c2ccc([O-])c(Cl)c2)c1

>  <Energy>  (39) 
33.465645184434756

>  <Genealogy>  (39) 
Cc1ccc(O)c([N-]S(=O)(=O)c2ccc([O-])c(Cl)c2)c1 (protonated)
Cc1ccc(O)c([N-]S(=O)(=O)c2ccc([O-])c(Cl)c2)c1 (3D coordinates assigned)
Cc1ccc(O)c([N-]S(=O)(=O)c2ccc([O-])c(Cl)c2)c1 (optimized conformer: 33.465645184434756 kcal/mol)

>  <smiles>  (39) 
Cc1ccc(O)c(NS(=O)(=O)c2ccc(O)c(Cl)c2)c1

>  <score_type>  (39) 
oracle

>  <origin>  (39) 
adgpu

>  <m_score__min__energy>  (39) 
-10.23

>  <m_primary>  (39) 
energy

$$$$
39:0
     RDKit          3D

 44 46  0  0  0  0  0  0  0  0999 V2000
   -8.4740   22.7670  -31.6210 C   0  0  0  0  0  0  0  0  0  0  0  0
   -8.3200   21.3020  -31.8800 C   0  0  0  0  0  0  0  0  0  0  0  0
   -7.3080   20.8360  -32.7310 C   0  0  0  0  0  0  0  0  0  0  0  0
   -7.1900   19.4570  -32.9740 C   0  0  0  0  0  0  0  0  0  0  0  0
   -6.2030   18.9360  -33.8230 O   0  0  0  0  0  0  0  0  0  0  0  0
   -4.8200   19.0040  -33.6000 C   0  0  0  0  0  0  0  0  0  0  0  0
   -4.1590   17.8700  -33.1170 C   0  0  0  0  0  0  0  0  0  0  0  0
   -2.7850   17.9040  -32.8650 C   0  0  0  0  0  0  0  0  0  0  0  0
   -2.0490   19.0810  -33.0740 C   0  0  0  0  0  0  0  0  0  0  0  0
   -0.6380   19.0850  -32.7950 N   0  0  0  0  0  0  0  0  0  0  0  0
    0.2390   20.4860  -32.2700 S   0  0  0  0  0  0  0  0  0  0  0  0
    0.4320   21.4140  -33.4370 O   0  0  0  0  0  0  0  0  0  0  0  0
    1.5870   20.0670  -31.7550 O   0  0  0  0  0  0  0  0  0  0  0  0
   -0.6390   21.2850  -30.9690 C   0  0  0  0  0  0  0  0  0  0  0  0
   -0.1920   21.1550  -29.6500 C   0  0  0  0  0  0  0  0  0  0  0  0
   -0.8940   21.7650  -28.6080 C   0  0  0  0  0  0  0  0  0  0  0  0
   -2.0480   22.5100  -28.8710 C   0  0  0  0  0  0  0  0  0  0  0  0
   -2.8910   23.2470  -27.5140 Cl  0  0  0  0  0  0  0  0  0  0  0  0
   -2.5040   22.6520  -30.1990 C   0  0  0  0  0  0  0  0  0  0  0  0
   -3.9580   23.5850  -30.5700 S   0  0  0  0  0  0  0  0  0  0  0  0
   -3.6330   25.2680  -30.3480 N   0  0  0  0  0  0  0  0  0  0  0  0
   -5.0860   23.1830  -29.6620 O   0  0  0  0  0  0  0  0  0  0  0  0
   -4.3690   23.3310  -31.9930 O   0  0  0  0  0  0  0  0  0  0  0  0
   -1.7920   22.0350  -31.2410 C   0  0  0  0  0  0  0  0  0  0  0  0
   -2.7180   20.2250  -33.5520 C   0  0  0  0  0  0  0  0  0  0  0  0
   -4.0910   20.1890  -33.8030 C   0  0  0  0  0  0  0  0  0  0  0  0
   -8.1090   18.5810  -32.3900 C   0  0  0  0  0  0  0  0  0  0  0  0
   -9.1080   19.0840  -31.5560 C   0  0  0  0  0  0  0  0  0  0  0  0
   -9.1930   20.4200  -31.3210 N   0  0  0  0  0  0  0  0  0  0  0  0
   -8.4930   22.9475  -30.5361 H   0  0  0  0  0  0  0  0  0  0  0  0
   -7.6279   23.3093  -32.0682 H   0  0  0  0  0  0  0  0  0  0  0  0
   -9.4144   23.1216  -32.0682 H   0  0  0  0  0  0  0  0  0  0  0  0
   -6.6120   21.5441  -33.2046 H   0  0  0  0  0  0  0  0  0  0  0  0
   -4.7249   16.9446  -32.9342 H   0  0  0  0  0  0  0  0  0  0  0  0
   -2.2754   17.0002  -32.4995 H   0  0  0  0  0  0  0  0  0  0  0  0
   -0.1140   18.1810  -32.8200 H   0  0  0  0  0  0  0  0  0  0  0  0
    0.7145   20.5710  -29.4329 H   0  0  0  0  0  0  0  0  0  0  0  0
   -0.5367   21.6587  -27.5731 H   0  0  0  0  0  0  0  0  0  0  0  0
   -3.2660   25.6310  -31.2560 H   0  0  0  0  0  0  0  0  0  0  0  0
   -2.1418   22.1411  -32.2785 H   0  0  0  0  0  0  0  0  0  0  0  0
   -2.1547   21.1531  -33.7287 H   0  0  0  0  0  0  0  0  0  0  0  0
   -4.6053   21.0928  -34.1616 H   0  0  0  0  0  0  0  0  0  0  0  0
   -8.0451   17.5006  -32.5868 H   0  0  0  0  0  0  0  0  0  0  0  0
   -9.8287   18.3976  -31.0875 H   0  0  0  0  0  0  0  0  0  0  0  0
  1  2  1  0
  2  3  2  0
  3  4  1  0
  4  5  1  0
  5  6  1  0
  6  7  2  0
  7  8  1  0
  8  9  2  0
  9 10  1  0
 10 11  1  0
 11 12  2  0
 11 13  2  0
 11 14  1  0
 14 15  2  0
 15 16  1  0
 16 17  2  0
 17 18  1  0
 17 19  1  0
 19 20  1  0
 20 21  1  0
 20 22  2  0
 20 23  2  0
 19 24  2  0
  9 25  1  0
 25 26  2  0
  4 27  2  0
 27 28  1  0
 28 29  2  0
 29  2  1  0
 26  6  1  0
 24 14  1  0
  1 30  1  0
  1 31  1  0
  1 32  1  0
  3 33  1  0
  7 34  1  0
  8 35  1  0
 10 36  1  0
 15 37  1  0
 16 38  1  0
 21 39  1  0
 24 40  1  0
 25 41  1  0
 26 42  1  0
 27 43  1  0
 28 44  1  0
M  CHG  1  21  -1
M  END
>  <UniqueID>  (40) 
38

>  <SMILES>  (40) 
Cc1cc(Oc2ccc(NS(=O)(=O)c3ccc(Cl)c(S([NH-])(=O)=O)c3)cc2)ccn1

>  <Energy>  (40) 
56.34505817091624

>  <Genealogy>  (40) 
Cc1cc(Oc2ccc(NS(=O)(=O)c3ccc(Cl)c(S([NH-])(=O)=O)c3)cc2)ccn1 (protonated)
Cc1cc(Oc2ccc(NS(=O)(=O)c3ccc(Cl)c(S([NH-])(=O)=O)c3)cc2)ccn1 (3D coordinates assigned)
Cc1cc(Oc2ccc(NS(=O)(=O)c3ccc(Cl)c(S([NH-])(=O)=O)c3)cc2)ccn1 (optimized conformer: 56.34505817091624 kcal/mol)

>  <smiles>  (40) 
Cc1cc(Oc2ccc(NS(=O)(=O)c3ccc(Cl)c(S(N)(=O)=O)c3)cc2)ccn1

>  <score_type>  (40) 
oracle

>  <origin>  (40) 
adgpu

>  <m_score__min__energy>  (40) 
-11.42

>  <m_primary>  (40) 
energy

$$$$
40:0
     RDKit          3D

 56 59  0  0  0  0  0  0  0  0999 V2000
   -7.9310   22.0050  -30.6670 C   0  0  0  0  0  0  0  0  0  0  0  0
   -7.4500   21.5770  -31.9370 O   0  0  0  0  0  0  0  0  0  0  0  0
   -6.1000   21.3480  -32.2450 C   0  0  0  0  0  0  0  0  0  0  0  0
   -5.6490   20.0940  -32.7000 C   0  0  0  0  0  0  0  0  0  0  0  0
   -4.3100   19.9130  -33.0520 C   0  0  0  0  0  0  0  0  0  0  0  0
   -3.4110   20.9790  -32.9680 C   0  0  0  0  0  0  0  0  0  0  0  0
   -1.7340   20.7510  -33.4230 Cl  0  0  0  0  0  0  0  0  0  0  0  0
   -3.8480   22.2250  -32.5100 C   0  0  0  0  0  0  0  0  0  0  0  0
   -5.1790   22.4100  -32.1200 C   0  0  0  0  0  0  0  0  0  0  0  0
   -5.5840   23.7050  -31.6600 N   0  0  0  0  0  0  0  0  0  0  0  0
   -4.8380   24.5130  -30.7440 C   0  0  0  0  0  0  0  0  0  0  0  0
   -4.4970   25.6850  -31.0610 O   0  0  0  0  0  0  0  0  0  0  0  0
   -4.5120   23.9840  -29.3840 C   0  0  0  0  0  0  0  0  0  0  0  0
   -3.1410   23.4750  -29.3620 N   0  0  0  0  0  0  0  0  0  0  0  0
   -2.0000   24.1870  -29.3150 C   0  0  0  0  0  0  0  0  0  0  0  0
   -1.9340   25.5740  -29.3220 O   0  0  0  0  0  0  0  0  0  0  0  0
   -0.9200   23.3330  -29.2440 C   0  0  0  0  0  0  0  0  0  0  0  0
   -1.3920   22.0680  -29.2290 N   0  0  0  0  0  0  0  0  0  0  0  0
   -0.6070   20.8640  -29.1370 C   0  0  0  0  0  0  0  0  0  0  0  0
   -0.0810   20.4390  -27.9030 C   0  0  0  0  0  0  0  0  0  0  0  0
    0.6990   19.2820  -27.8280 C   0  0  0  0  0  0  0  0  0  0  0  0
    0.9680   18.5350  -28.9840 C   0  0  0  0  0  0  0  0  0  0  0  0
    1.9370   17.0660  -28.8980 S   0  0  0  0  0  0  0  0  0  0  0  0
    1.8440   16.3160  -30.1990 O   0  0  0  0  0  0  0  0  0  0  0  0
    1.3940   16.1920  -27.8020 O   0  0  0  0  0  0  0  0  0  0  0  0
    3.6010   17.4700  -28.5560 N   0  0  0  0  0  0  0  0  0  0  0  0
    3.8350   17.4510  -27.0990 C   0  0  0  0  0  0  0  0  0  0  0  0
    5.0650   18.2990  -26.7370 C   0  0  0  0  0  0  0  0  0  0  0  0
    4.9500   19.6700  -27.0990 O   0  0  0  0  0  0  0  0  0  0  0  0
    4.0360   19.9060  -28.1610 C   0  0  0  0  0  0  0  0  0  0  0  0
    3.9760   18.7560  -29.1850 C   0  0  0  0  0  0  0  0  0  0  0  0
    0.4390   18.9490  -30.2120 C   0  0  0  0  0  0  0  0  0  0  0  0
   -0.3360   20.1090  -30.2900 C   0  0  0  0  0  0  0  0  0  0  0  0
   -2.7390   22.1880  -29.3030 C   0  0  0  0  0  0  0  0  0  0  0  0
   -3.5340   21.2120  -29.3300 O   0  0  0  0  0  0  0  0  0  0  0  0
   -7.3638   21.5003  -29.8710 H   0  0  0  0  0  0  0  0  0  0  0  0
   -7.8033   23.0936  -30.5744 H   0  0  0  0  0  0  0  0  0  0  0  0
   -8.9974   21.7517  -30.5744 H   0  0  0  0  0  0  0  0  0  0  0  0
   -6.3544   19.2536  -32.7784 H   0  0  0  0  0  0  0  0  0  0  0  0
   -3.9619   18.9280  -33.3965 H   0  0  0  0  0  0  0  0  0  0  0  0
   -3.1409   23.0659  -32.4558 H   0  0  0  0  0  0  0  0  0  0  0  0
   -4.6126   24.7923  -28.6447 H   0  0  0  0  0  0  0  0  0  0  0  0
   -5.2054   23.1661  -29.1383 H   0  0  0  0  0  0  0  0  0  0  0  0
    0.1386   23.6296  -29.2063 H   0  0  0  0  0  0  0  0  0  0  0  0
   -0.2850   21.0209  -26.9921 H   0  0  0  0  0  0  0  0  0  0  0  0
    1.1036   18.9559  -26.8585 H   0  0  0  0  0  0  0  0  0  0  0  0
    2.9515   17.8583  -26.5857 H   0  0  0  0  0  0  0  0  0  0  0  0
    4.0145   16.4130  -26.7824 H   0  0  0  0  0  0  0  0  0  0  0  0
    5.2176   18.2402  -25.6492 H   0  0  0  0  0  0  0  0  0  0  0  0
    5.9124   17.8896  -27.3066 H   0  0  0  0  0  0  0  0  0  0  0  0
    3.0322   20.0440  -27.7327 H   0  0  0  0  0  0  0  0  0  0  0  0
    4.3862   20.8001  -28.6976 H   0  0  0  0  0  0  0  0  0  0  0  0
    3.2308   19.0050  -29.9549 H   0  0  0  0  0  0  0  0  0  0  0  0
    4.9783   18.6395  -29.6229 H   0  0  0  0  0  0  0  0  0  0  0  0
    0.6342   18.3587  -31.1194 H   0  0  0  0  0  0  0  0  0  0  0  0
   -0.7369   20.4334  -31.2616 H   0  0  0  0  0  0  0  0  0  0  0  0
  1  2  1  0
  2  3  1  0
  3  4  2  0
  4  5  1  0
  5  6  2  0
  6  7  1  0
  6  8  1  0
  8  9  2  0
  9 10  1  0
 10 11  1  0
 11 12  2  0
 11 13  1  0
 13 14  1  0
 14 15  1  0
 15 16  1  0
 15 17  2  0
 17 18  1  0
 18 19  1  0
 19 20  2  0
 20 21  1  0
 21 22  2  0
 22 23  1  0
 23 24  2  0
 23 25  2  0
 23 26  1  0
 26 27  1  0
 27 28  1  0
 28 29  1  0
 29 30  1  0
 30 31  1  0
 22 32  1  0
 32 33  2  0
 18 34  1  0
 34 35  2  0
  9  3  1  0
 34 14  1  0
 33 19  1  0
 31 26  1  0
  1 36  1  0
  1 37  1  0
  1 38  1  0
  4 39  1  0
  5 40  1  0
  8 41  1  0
 13 42  1  0
 13 43  1  0
 17 44  1  0
 20 45  1  0
 21 46  1  0
 27 47  1  0
 27 48  1  0
 28 49  1  0
 28 50  1  0
 30 51  1  0
 30 52  1  0
 31 53  1  0
 31 54  1  0
 32 55  1  0
 33 56  1  0
M  CHG  2  10  -1  16  -1
M  END
>  <UniqueID>  (41) 
39

>  <SMILES>  (41) 
COc1ccc(Cl)cc1[N-]C(=O)Cn1c([O-])cn(-c2ccc(S(=O)(=O)N3CCOCC3)cc2)c1=O

>  <Energy>  (41) 
112.403102985841

>  <Genealogy>  (41) 
COc1ccc(Cl)cc1[N-]C(=O)Cn1c([O-])cn(-c2ccc(S(=O)(=O)N3CCOCC3)cc2)c1=O (protonated)
COc1ccc(Cl)cc1[N-]C(=O)Cn1c([O-])cn(-c2ccc(S(=O)(=O)N3CCOCC3)cc2)c1=O (3D coordinates assigned)
COc1ccc(Cl)cc1[N-]C(=O)Cn1c([O-])cn(-c2ccc(S(=O)(=O)N3CCOCC3)cc2)c1=O (nonaromatic ring conformer: 112.403102985841 kcal/mol)

>  <smiles>  (41) 
COc1ccc(Cl)cc1NC(=O)Cn1c(O)cn(-c2ccc(S(=O)(=O)N3CCOCC3)cc2)c1=O

>  <score_type>  (41) 
oracle

>  <origin>  (41) 
adgpu

>  <m_score__min__energy>  (41) 
-12.81

>  <m_primary>  (41) 
energy

$$$$
41:0
     RDKit          3D

 47 49  0  0  0  0  0  0  0  0999 V2000
   -7.9240   20.0960  -32.7360 C   0  0  0  0  0  0  0  0  0  0  0  0
   -6.5750   19.4400  -32.7650 C   0  0  0  0  0  0  0  0  0  0  0  0
   -6.4410   18.0580  -32.5650 C   0  0  0  0  0  0  0  0  0  0  0  0
   -5.1690   17.4540  -32.5740 C   0  0  0  0  0  0  0  0  0  0  0  0
   -5.0270   15.9700  -32.3670 C   0  0  0  0  0  0  0  0  0  0  0  0
   -4.0360   18.2440  -32.8220 C   0  0  0  0  0  0  0  0  0  0  0  0
   -4.1640   19.6250  -33.0310 C   0  0  0  0  0  0  0  0  0  0  0  0
   -2.7240   20.5980  -33.3130 S   0  0  0  0  0  0  0  0  0  0  0  0
   -2.1640   20.3220  -34.6820 O   0  0  0  0  0  0  0  0  0  0  0  0
   -3.1050   22.0500  -33.2410 O   0  0  0  0  0  0  0  0  0  0  0  0
   -1.4780   20.2320  -32.1090 C   0  0  0  0  0  0  0  0  0  0  0  0
   -0.3050   19.5720  -32.5130 C   0  0  0  0  0  0  0  0  0  0  0  0
    0.6770   19.2320  -31.5810 C   0  0  0  0  0  0  0  0  0  0  0  0
    0.4970   19.5450  -30.2350 C   0  0  0  0  0  0  0  0  0  0  0  0
   -0.6600   20.2070  -29.8190 C   0  0  0  0  0  0  0  0  0  0  0  0
   -1.6460   20.5680  -30.7470 C   0  0  0  0  0  0  0  0  0  0  0  0
   -2.8110   21.3300  -30.2760 C   0  0  0  0  0  0  0  0  0  0  0  0
   -3.4830   20.8920  -29.3020 O   0  0  0  0  0  0  0  0  0  0  0  0
   -3.1110   22.6040  -30.8670 N   0  0  0  0  0  0  0  0  0  0  0  0
   -4.3510   23.3140  -30.7010 C   0  0  0  0  0  0  0  0  0  0  0  0
   -5.5870   22.7130  -30.9960 C   0  0  0  0  0  0  0  0  0  0  0  0
   -6.7890   23.4340  -30.8820 C   0  0  0  0  0  0  0  0  0  0  0  0
   -8.0490   22.8110  -31.2100 N   0  0  0  0  0  0  0  0  0  0  0  0
   -8.6160   23.0570  -32.2940 O   0  0  0  0  0  0  0  0  0  0  0  0
   -8.6250   21.9010  -30.3490 O   0  0  0  0  0  0  0  0  0  0  0  0
   -6.7380   24.7740  -30.4800 C   0  0  0  0  0  0  0  0  0  0  0  0
   -5.5100   25.3940  -30.2170 C   0  0  0  0  0  0  0  0  0  0  0  0
   -4.3230   24.6670  -30.3240 C   0  0  0  0  0  0  0  0  0  0  0  0
   -3.1150   25.2990  -30.0480 O   0  0  0  0  0  0  0  0  0  0  0  0
   -5.4330   20.2200  -33.0000 C   0  0  0  0  0  0  0  0  0  0  0  0
   -8.2357   20.2476  -31.6920 H   0  0  0  0  0  0  0  0  0  0  0  0
   -7.8699   21.0684  -33.2474 H   0  0  0  0  0  0  0  0  0  0  0  0
   -8.6555   19.4530  -33.2474 H   0  0  0  0  0  0  0  0  0  0  0  0
   -7.3367   17.4412  -32.3998 H   0  0  0  0  0  0  0  0  0  0  0  0
   -5.0060   15.7505  -31.2893 H   0  0  0  0  0  0  0  0  0  0  0  0
   -5.8797   15.4519  -32.8302 H   0  0  0  0  0  0  0  0  0  0  0  0
   -4.0916   15.6230  -32.8302 H   0  0  0  0  0  0  0  0  0  0  0  0
   -3.0406   17.7769  -32.8527 H   0  0  0  0  0  0  0  0  0  0  0  0
   -0.1592   19.3209  -33.5740 H   0  0  0  0  0  0  0  0  0  0  0  0
    1.5923   18.7174  -31.9088 H   0  0  0  0  0  0  0  0  0  0  0  0
    1.2673   19.2702  -29.4994 H   0  0  0  0  0  0  0  0  0  0  0  0
   -0.7985   20.4470  -28.7545 H   0  0  0  0  0  0  0  0  0  0  0  0
   -2.3660   23.0410  -31.4550 H   0  0  0  0  0  0  0  0  0  0  0  0
   -5.6144   21.6625  -31.3210 H   0  0  0  0  0  0  0  0  0  0  0  0
   -7.6714   25.3455  -30.3696 H   0  0  0  0  0  0  0  0  0  0  0  0
   -5.4808   26.4544  -29.9260 H   0  0  0  0  0  0  0  0  0  0  0  0
   -5.5337   21.3035  -33.1607 H   0  0  0  0  0  0  0  0  0  0  0  0
  1  2  1  0
  2  3  2  0
  3  4  1  0
  4  5  1  0
  4  6  2  0
  6  7  1  0
  7  8  1  0
  8  9  2  0
  8 10  2  0
  8 11  1  0
 11 12  2  0
 12 13  1  0
 13 14  2  0
 14 15  1  0
 15 16  2  0
 16 17  1  0
 17 18  2  0
 17 19  1  0
 19 20  1  0
 20 21  2  0
 21 22  1  0
 22 23  1  0
 23 24  2  0
 23 25  1  0
 22 26  2  0
 26 27  1  0
 27 28  2  0
 28 29  1  0
  7 30  2  0
 30  2  1  0
 16 11  1  0
 28 20  1  0
  1 31  1  0
  1 32  1  0
  1 33  1  0
  3 34  1  0
  5 35  1  0
  5 36  1  0
  5 37  1  0
  6 38  1  0
 12 39  1  0
 13 40  1  0
 14 41  1  0
 15 42  1  0
 19 43  1  0
 21 44  1  0
 26 45  1  0
 27 46  1  0
 30 47  1  0
M  CHG  3  23   1  25  -1  29  -1
M  END
>  <UniqueID>  (42) 
40

>  <SMILES>  (42) 
Cc1cc(C)cc(S(=O)(=O)c2ccccc2C(=O)Nc2cc([N+](=O)[O-])ccc2[O-])c1

>  <Energy>  (42) 
58.490073201326474

>  <Genealogy>  (42) 
Cc1cc(C)cc(S(=O)(=O)c2ccccc2C(=O)Nc2cc([N+](=O)[O-])ccc2[O-])c1 (protonated)
Cc1cc(C)cc(S(=O)(=O)c2ccccc2C(=O)Nc2cc([N+](=O)[O-])ccc2[O-])c1 (3D coordinates assigned)
Cc1cc(C)cc(S(=O)(=O)c2ccccc2C(=O)Nc2cc([N+](=O)[O-])ccc2[O-])c1 (optimized conformer: 58.490073201326474 kcal/mol)

>  <smiles>  (42) 
Cc1cc(C)cc(S(=O)(=O)c2ccccc2C(=O)Nc2cc([N+](=O)[O-])ccc2O)c1

>  <score_type>  (42) 
oracle

>  <origin>  (42) 
adgpu

>  <m_score__min__energy>  (42) 
-12.94

>  <m_primary>  (42) 
energy

$$$$
42:0
     RDKit          3D

 62 65  0  0  0  0  0  0  0  0999 V2000
   -2.9920   22.7000  -31.7670 O   0  0  0  0  0  0  0  0  0  0  0  0
   -3.8410   23.4540  -31.2220 C   0  0  0  0  0  0  0  0  0  0  0  0
   -3.4050   24.5720  -30.4400 N   0  0  0  0  0  0  0  0  0  0  0  0
   -3.0020   24.5110  -29.0660 C   0  0  0  0  0  0  0  0  0  0  0  0
   -3.9840   24.5250  -28.0690 C   0  0  0  0  0  0  0  0  0  0  0  0
   -3.6210   24.5510  -26.7200 C   0  0  0  0  0  0  0  0  0  0  0  0
   -2.2720   24.5840  -26.3570 C   0  0  0  0  0  0  0  0  0  0  0  0
   -1.2780   24.5820  -27.3440 C   0  0  0  0  0  0  0  0  0  0  0  0
    0.4230   24.6950  -26.8960 S   0  0  0  0  0  0  0  0  0  0  0  0
    1.2700   24.6990  -28.1390 O   0  0  0  0  0  0  0  0  0  0  0  0
    0.7910   23.4940  -26.0700 O   0  0  0  0  0  0  0  0  0  0  0  0
    0.7070   26.1540  -25.9720 N   0  0  0  0  0  0  0  0  0  0  0  0
    1.3520   25.8170  -24.6820 C   0  0  0  0  0  0  0  0  0  0  0  0
    1.2100   26.9560  -23.6670 C   0  0  0  0  0  0  0  0  0  0  0  0
   -0.2700   27.2270  -23.3420 C   0  0  0  0  0  0  0  0  0  0  0  0
   -1.2150   26.8010  -24.4780 C   0  0  0  0  0  0  0  0  0  0  0  0
   -0.5380   26.9540  -25.8470 C   0  0  0  0  0  0  0  0  0  0  0  0
   -1.6460   24.5430  -28.6970 C   0  0  0  0  0  0  0  0  0  0  0  0
   -5.2870   23.2290  -31.4340 C   0  0  0  0  0  0  0  0  0  0  0  0
   -5.6920   22.0130  -32.0120 C   0  0  0  0  0  0  0  0  0  0  0  0
   -7.0480   21.6820  -32.1120 C   0  0  0  0  0  0  0  0  0  0  0  0
   -7.5340   20.1200  -32.7690 S   0  0  0  0  0  0  0  0  0  0  0  0
   -9.0250   19.9810  -32.6270 O   0  0  0  0  0  0  0  0  0  0  0  0
   -7.1890   20.0600  -34.2310 O   0  0  0  0  0  0  0  0  0  0  0  0
   -6.7150   18.8450  -31.8870 N   0  0  0  0  0  0  0  0  0  0  0  0
   -5.2370   18.9260  -32.0220 C   0  0  0  0  0  0  0  0  0  0  0  0
   -4.6060   17.7390  -32.7740 C   0  0  0  0  0  0  0  0  0  0  0  0
   -5.4470   17.3520  -33.9880 C   0  0  0  0  0  0  0  0  0  0  0  0
   -6.9010   17.0220  -33.6020 C   0  0  0  0  0  0  0  0  0  0  0  0
   -7.2780   17.5150  -32.1920 C   0  0  0  0  0  0  0  0  0  0  0  0
   -8.0130   22.5770  -31.6450 C   0  0  0  0  0  0  0  0  0  0  0  0
   -7.6280   23.8050  -31.1040 C   0  0  0  0  0  0  0  0  0  0  0  0
   -6.2760   24.1490  -31.0060 C   0  0  0  0  0  0  0  0  0  0  0  0
   -5.9570   25.4150  -30.5060 O   0  0  0  0  0  0  0  0  0  0  0  0
   -5.0477   24.5155  -28.3490 H   0  0  0  0  0  0  0  0  0  0  0  0
   -4.3987   24.5455  -25.9421 H   0  0  0  0  0  0  0  0  0  0  0  0
   -1.9901   24.6116  -25.2941 H   0  0  0  0  0  0  0  0  0  0  0  0
    0.8794   24.9123  -24.2720 H   0  0  0  0  0  0  0  0  0  0  0  0
    2.4238   25.6509  -24.8657 H   0  0  0  0  0  0  0  0  0  0  0  0
    1.7365   26.6801  -22.7414 H   0  0  0  0  0  0  0  0  0  0  0  0
    1.6450   27.8679  -24.1019 H   0  0  0  0  0  0  0  0  0  0  0  0
   -0.5385   26.6688  -22.4330 H   0  0  0  0  0  0  0  0  0  0  0  0
   -0.3862   28.3119  -23.2026 H   0  0  0  0  0  0  0  0  0  0  0  0
   -1.4989   25.7482  -24.3333 H   0  0  0  0  0  0  0  0  0  0  0  0
   -2.1042   27.4482  -24.4538 H   0  0  0  0  0  0  0  0  0  0  0  0
   -1.2437   26.6279  -26.6253 H   0  0  0  0  0  0  0  0  0  0  0  0
   -0.2614   28.0126  -25.9605 H   0  0  0  0  0  0  0  0  0  0  0  0
   -0.8681   24.5374  -29.4747 H   0  0  0  0  0  0  0  0  0  0  0  0
   -4.9330   21.3126  -32.3906 H   0  0  0  0  0  0  0  0  0  0  0  0
   -4.9903   19.8496  -32.5662 H   0  0  0  0  0  0  0  0  0  0  0  0
   -4.8249   18.9094  -31.0022 H   0  0  0  0  0  0  0  0  0  0  0  0
   -3.5974   18.0212  -33.1102 H   0  0  0  0  0  0  0  0  0  0  0  0
   -4.5575   16.8774  -32.0918 H   0  0  0  0  0  0  0  0  0  0  0  0
   -5.4503   18.1908  -34.6996 H   0  0  0  0  0  0  0  0  0  0  0  0
   -5.0020   16.4513  -34.4361 H   0  0  0  0  0  0  0  0  0  0  0  0
   -7.5735   17.4980  -34.3309 H   0  0  0  0  0  0  0  0  0  0  0  0
   -7.0007   15.9265  -33.6043 H   0  0  0  0  0  0  0  0  0  0  0  0
   -8.3742   17.5713  -32.1197 H   0  0  0  0  0  0  0  0  0  0  0  0
   -6.8600   16.8016  -31.4665 H   0  0  0  0  0  0  0  0  0  0  0  0
   -9.0794   22.3136  -31.7036 H   0  0  0  0  0  0  0  0  0  0  0  0
   -8.3959   24.5092  -30.7512 H   0  0  0  0  0  0  0  0  0  0  0  0
   -5.2130   25.5790  -29.8430 H   0  0  0  0  0  0  0  0  0  0  0  0
  1  2  2  0
  2  3  1  0
  3  4  1  0
  4  5  2  0
  5  6  1  0
  6  7  2  0
  7  8  1  0
  8  9  1  0
  9 10  2  0
  9 11  2  0
  9 12  1  0
 12 13  1  0
 13 14  1  0
 14 15  1  0
 15 16  1  0
 16 17  1  0
  8 18  2  0
  2 19  1  0
 19 20  2  0
 20 21  1  0
 21 22  1  0
 22 23  2  0
 22 24  2  0
 22 25  1  0
 25 26  1  0
 26 27  1  0
 27 28  1  0
 28 29  1  0
 29 30  1  0
 21 31  2  0
 31 32  1  0
 32 33  2  0
 33 34  1  0
 18  4  1  0
 33 19  1  0
 17 12  1  0
 30 25  1  0
  5 35  1  0
  6 36  1  0
  7 37  1  0
 13 38  1  0
 13 39  1  0
 14 40  1  0
 14 41  1  0
 15 42  1  0
 15 43  1  0
 16 44  1  0
 16 45  1  0
 17 46  1  0
 17 47  1  0
 18 48  1  0
 20 49  1  0
 26 50  1  0
 26 51  1  0
 27 52  1  0
 27 53  1  0
 28 54  1  0
 28 55  1  0
 29 56  1  0
 29 57  1  0
 30 58  1  0
 30 59  1  0
 31 60  1  0
 32 61  1  0
 34 62  1  0
M  CHG  1   3  -1
M  END
>  <UniqueID>  (43) 
41

>  <SMILES>  (43) 
O=C([N-]c1cccc(S(=O)(=O)N2CCCCC2)c1)c1cc(S(=O)(=O)N2CCCCC2)ccc1O

>  <Energy>  (43) 
84.88829381436406

>  <Genealogy>  (43) 
O=C([N-]c1cccc(S(=O)(=O)N2CCCCC2)c1)c1cc(S(=O)(=O)N2CCCCC2)ccc1O (protonated)
O=C([N-]c1cccc(S(=O)(=O)N2CCCCC2)c1)c1cc(S(=O)(=O)N2CCCCC2)ccc1O (3D coordinates assigned)
O=C([N-]c1cccc(S(=O)(=O)N2CCCCC2)c1)c1cc(S(=O)(=O)N2CCCCC2)ccc1O (nonaromatic ring conformer: 84.88829381436406 kcal/mol)

>  <smiles>  (43) 
O=C(Nc1cccc(S(=O)(=O)N2CCCCC2)c1)c1cc(S(=O)(=O)N2CCCCC2)ccc1O

>  <score_type>  (43) 
oracle

>  <origin>  (43) 
adgpu

>  <m_score__min__energy>  (43) 
-11.779999999999999

>  <m_primary>  (43) 
energy

$$$$
43:0
     RDKit          3D

 47 49  0  0  0  0  0  0  0  0999 V2000
   -4.5270   19.1720  -33.8560 C   0  0  0  0  0  0  0  0  0  0  0  0
   -5.4960   20.3190  -33.5540 C   0  0  2  0  0  0  0  0  0  0  0  0
   -4.8430   21.3180  -32.7010 N   0  0  0  0  0  0  0  0  0  0  0  0
   -4.3690   21.0100  -31.3800 C   0  0  0  0  0  0  0  0  0  0  0  0
   -4.6360   19.8880  -30.8660 O   0  0  0  0  0  0  0  0  0  0  0  0
   -3.5840   21.9990  -30.6010 C   0  0  0  0  0  0  0  0  0  0  0  0
   -4.1740   23.1870  -30.1340 C   0  0  0  0  0  0  0  0  0  0  0  0
   -3.4190   24.1140  -29.4070 C   0  0  0  0  0  0  0  0  0  0  0  0
   -2.0670   23.8730  -29.1440 C   0  0  0  0  0  0  0  0  0  0  0  0
   -1.1310   25.0550  -28.2320 S   0  0  0  0  0  0  0  0  0  0  0  0
    0.3080   24.6210  -28.2290 O   0  0  0  0  0  0  0  0  0  0  0  0
   -1.2350   26.4070  -28.8850 O   0  0  0  0  0  0  0  0  0  0  0  0
   -1.7300   25.1380  -26.5890 N   0  0  0  0  0  0  0  0  0  0  0  0
   -1.6150   26.5040  -26.0670 C   0  0  0  0  0  0  0  0  0  0  0  0
   -0.2980   26.6150  -25.3110 C   0  0  0  0  0  0  0  0  0  0  0  0
    0.1680   25.1890  -25.0910 C   0  0  0  0  0  0  0  0  0  0  0  0
   -0.9120   24.3070  -25.7010 C   0  0  0  0  0  0  0  0  0  0  0  0
   -1.4700   22.6950  -29.6110 C   0  0  0  0  0  0  0  0  0  0  0  0
   -2.2210   21.7660  -30.3390 C   0  0  0  0  0  0  0  0  0  0  0  0
   -6.7640   19.8110  -32.8940 C   0  0  0  0  0  0  0  0  0  0  0  0
   -6.9030   18.4420  -32.5960 C   0  0  0  0  0  0  0  0  0  0  0  0
   -8.0700   17.9640  -31.9930 C   0  0  0  0  0  0  0  0  0  0  0  0
   -9.1100   18.8430  -31.6820 C   0  0  0  0  0  0  0  0  0  0  0  0
   -8.9850   20.2030  -31.9740 C   0  0  0  0  0  0  0  0  0  0  0  0
   -7.8200   20.6870  -32.5770 C   0  0  0  0  0  0  0  0  0  0  0  0
   -4.1631   18.7412  -32.9116 H   0  0  0  0  0  0  0  0  0  0  0  0
   -5.0471   18.3959  -34.4367 H   0  0  0  0  0  0  0  0  0  0  0  0
   -3.6749   19.5551  -34.4367 H   0  0  0  0  0  0  0  0  0  0  0  0
   -5.7778   20.7881  -34.5082 H   0  0  0  0  0  0  0  0  0  0  0  0
   -4.8850   22.3200  -32.9930 H   0  0  0  0  0  0  0  0  0  0  0  0
   -5.2353   23.3887  -30.3414 H   0  0  0  0  0  0  0  0  0  0  0  0
   -3.8916   25.0372  -29.0404 H   0  0  0  0  0  0  0  0  0  0  0  0
   -1.6283   27.2231  -26.8993 H   0  0  0  0  0  0  0  0  0  0  0  0
   -2.4580   26.7268  -25.3964 H   0  0  0  0  0  0  0  0  0  0  0  0
    0.4403   27.1727  -25.9059 H   0  0  0  0  0  0  0  0  0  0  0  0
   -0.4190   27.1547  -24.3602 H   0  0  0  0  0  0  0  0  0  0  0  0
    1.1319   25.0183  -25.5927 H   0  0  0  0  0  0  0  0  0  0  0  0
    0.3178   24.9698  -24.0235 H   0  0  0  0  0  0  0  0  0  0  0  0
   -0.4475   23.4922  -26.2758 H   0  0  0  0  0  0  0  0  0  0  0  0
   -1.5359   23.8658  -24.9098 H   0  0  0  0  0  0  0  0  0  0  0  0
   -0.4073   22.4998  -29.4046 H   0  0  0  0  0  0  0  0  0  0  0  0
   -1.7429   20.8471  -30.7092 H   0  0  0  0  0  0  0  0  0  0  0  0
   -6.0882   17.7442  -32.8392 H   0  0  0  0  0  0  0  0  0  0  0  0
   -8.1696   16.8930  -31.7628 H   0  0  0  0  0  0  0  0  0  0  0  0
  -10.0271   18.4642  -31.2073 H   0  0  0  0  0  0  0  0  0  0  0  0
   -9.8045   20.8947  -31.7292 H   0  0  0  0  0  0  0  0  0  0  0  0
   -7.7278   21.7591  -32.8053 H   0  0  0  0  0  0  0  0  0  0  0  0
  1  2  1  0
  2  3  1  0
  3  4  1  0
  4  5  2  0
  4  6  1  0
  6  7  2  0
  7  8  1  0
  8  9  2  0
  9 10  1  0
 10 11  2  0
 10 12  2  0
 10 13  1  0
 13 14  1  0
 14 15  1  0
 15 16  1  0
 16 17  1  0
  9 18  1  0
 18 19  2  0
  2 20  1  0
 20 21  2  0
 21 22  1  0
 22 23  2  0
 23 24  1  0
 24 25  2  0
 19  6  1  0
 25 20  1  0
 17 13  1  0
  1 26  1  0
  1 27  1  0
  1 28  1  0
  2 29  1  6
  3 30  1  0
  7 31  1  0
  8 32  1  0
 14 33  1  0
 14 34  1  0
 15 35  1  0
 15 36  1  0
 16 37  1  0
 16 38  1  0
 17 39  1  0
 17 40  1  0
 18 41  1  0
 19 42  1  0
 21 43  1  0
 22 44  1  0
 23 45  1  0
 24 46  1  0
 25 47  1  0
M  END
>  <UniqueID>  (44) 
42

>  <SMILES>  (44) 
C[C@H](NC(=O)c1ccc(S(=O)(=O)N2CCCC2)cc1)c1ccccc1

>  <Energy>  (44) 
49.20943510158636

>  <Genealogy>  (44) 
C[C@H](NC(=O)c1ccc(S(=O)(=O)N2CCCC2)cc1)c1ccccc1 (chirality)
C[C@H](NC(=O)c1ccc(S(=O)(=O)N2CCCC2)cc1)c1ccccc1 (3D coordinates assigned)
C[C@H](NC(=O)c1ccc(S(=O)(=O)N2CCCC2)cc1)c1ccccc1 (nonaromatic ring conformer: 49.20943510158636 kcal/mol)

>  <smiles>  (44) 
CC(NC(=O)c1ccc(S(=O)(=O)N2CCCC2)cc1)c1ccccc1

>  <score_type>  (44) 
oracle

>  <origin>  (44) 
adgpu

>  <m_score__min__energy>  (44) 
-8.9299999999999997

>  <m_primary>  (44) 
energy

$$$$
44:0
     RDKit          3D

 56 59  0  0  0  0  0  0  0  0999 V2000
   -2.7122   27.9553  -37.9707 H   0  0  0  0  0  0  0  0  0  0  0  0
   -1.8160   27.6980  -37.3870 C   0  0  0  0  0  0  0  0  0  0  0  0
   -0.9040   26.7640  -37.8860 C   0  0  0  0  0  0  0  0  0  0  0  0
   -1.0808   26.2959  -38.8656 H   0  0  0  0  0  0  0  0  0  0  0  0
    0.2370   26.4200  -37.1430 C   0  0  0  0  0  0  0  0  0  0  0  0
    1.2000   25.4300  -37.6760 C   0  0  0  0  0  0  0  0  0  0  0  0
    1.3100   25.2800  -38.9220 O   0  0  0  0  0  0  0  0  0  0  0  0
    2.0500   24.6610  -36.8130 N   0  0  0  0  0  0  0  0  0  0  0  0
    1.6590   23.4730  -36.1140 C   0  0  0  0  0  0  0  0  0  0  0  0
    2.6050   22.6570  -35.4710 C   0  0  0  0  0  0  0  0  0  0  0  0
    3.6706   22.9288  -35.4962 H   0  0  0  0  0  0  0  0  0  0  0  0
    2.1970   21.5020  -34.8000 C   0  0  0  0  0  0  0  0  0  0  0  0
    2.9441   20.8665  -34.3020 H   0  0  0  0  0  0  0  0  0  0  0  0
    0.8400   21.1470  -34.7570 C   0  0  0  0  0  0  0  0  0  0  0  0
    0.4220   19.8760  -34.0740 C   0  0  0  0  0  0  0  0  0  0  0  0
    1.0121   19.7388  -33.1559 H   0  0  0  0  0  0  0  0  0  0  0  0
    0.5932   19.0197  -34.7429 H   0  0  0  0  0  0  0  0  0  0  0  0
   -0.9990   19.9650  -33.7360 N   0  0  0  0  0  0  0  0  0  0  0  0
   -1.5690   20.6570  -32.7840 C   0  0  0  0  0  0  0  0  0  0  0  0
   -0.7880   21.4590  -31.9330 C   0  0  0  0  0  0  0  0  0  0  0  0
    0.2949   21.4208  -32.1224 H   0  0  0  0  0  0  0  0  0  0  0  0
   -1.1750   22.2970  -30.8840 C   0  0  0  0  0  0  0  0  0  0  0  0
   -0.3446   22.8077  -30.3744 H   0  0  0  0  0  0  0  0  0  0  0  0
   -2.4470   22.5950  -30.3730 C   0  0  0  0  0  0  0  0  0  0  0  0
   -2.5050   23.5850  -29.2200 C   0  0  0  0  0  0  0  0  0  0  0  0
   -1.2850   23.5930  -28.5690 F   0  0  0  0  0  0  0  0  0  0  0  0
   -3.4940   23.2580  -28.3100 F   0  0  0  0  0  0  0  0  0  0  0  0
   -2.7750   24.8630  -29.6820 F   0  0  0  0  0  0  0  0  0  0  0  0
   -3.6450   21.9790  -30.7570 C   0  0  0  0  0  0  0  0  0  0  0  0
   -4.5355   22.2535  -30.1725 H   0  0  0  0  0  0  0  0  0  0  0  0
   -3.8500   21.0660  -31.7820 C   0  0  0  0  0  0  0  0  0  0  0  0
   -5.0860   20.5940  -32.0420 N   0  0  0  0  0  0  0  0  0  0  0  0
   -4.9120   19.7690  -33.0900 C   0  0  0  0  0  0  0  0  0  0  0  0
   -5.9860   19.0390  -33.7070 N   0  0  0  0  0  0  0  0  0  0  0  0
   -5.7370   18.2880  -34.9400 C   0  0  0  0  0  0  0  0  0  0  0  0
   -5.4000   17.2716  -34.6885 H   0  0  0  0  0  0  0  0  0  0  0  0
   -6.6645   18.2316  -35.5286 H   0  0  0  0  0  0  0  0  0  0  0  0
   -4.9595   18.7969  -35.5286 H   0  0  0  0  0  0  0  0  0  0  0  0
   -7.3130   19.0510  -33.0880 C   0  0  0  0  0  0  0  0  0  0  0  0
   -7.2069   19.0500  -31.9931 H   0  0  0  0  0  0  0  0  0  0  0  0
   -7.8564   19.9541  -33.4029 H   0  0  0  0  0  0  0  0  0  0  0  0
   -7.8726   18.1579  -33.4029 H   0  0  0  0  0  0  0  0  0  0  0  0
   -3.6360   19.6910  -33.5060 N   0  0  0  0  0  0  0  0  0  0  0  0
   -2.9540   20.5110  -32.6790 C   0  0  0  0  0  0  0  0  0  0  0  0
   -0.1070   21.9790  -35.3770 C   0  0  0  0  0  0  0  0  0  0  0  0
   -1.1743   21.7151  -35.3415 H   0  0  0  0  0  0  0  0  0  0  0  0
    0.3010   23.1410  -36.0390 C   0  0  0  0  0  0  0  0  0  0  0  0
   -0.4491   23.7979  -36.5034 H   0  0  0  0  0  0  0  0  0  0  0  0
    0.4600   27.0430  -35.9020 C   0  0  0  0  0  0  0  0  0  0  0  0
    1.3571   26.7896  -35.3180 H   0  0  0  0  0  0  0  0  0  0  0  0
   -0.4510   27.9840  -35.4030 C   0  0  0  0  0  0  0  0  0  0  0  0
   -0.2130   28.6200  -34.1450 N   0  0  0  0  0  0  0  0  0  0  0  0
    0.5500   28.2870  -33.5140 H   0  0  0  0  0  0  0  0  0  0  0  0
   -0.8040   29.4230  -33.8320 H   0  0  0  0  0  0  0  0  0  0  0  0
   -1.5930   28.3060  -36.1490 C   0  0  0  0  0  0  0  0  0  0  0  0
   -2.3150   29.0387  -35.7591 H   0  0  0  0  0  0  0  0  0  0  0  0
  1  2  1  0
  2  3  2  0
  3  4  1  0
  3  5  1  0
  5  6  1  0
  6  7  2  0
  6  8  1  0
  8  9  1  0
  9 10  2  0
 10 11  1  0
 10 12  1  0
 12 13  1  0
 12 14  2  0
 14 15  1  0
 15 16  1  0
 15 17  1  0
 15 18  1  0
 18 19  2  0
 19 20  1  0
 20 21  1  0
 20 22  2  0
 22 23  1  0
 22 24  1  0
 24 25  1  0
 25 26  1  0
 25 27  1  0
 25 28  1  0
 24 29  2  0
 29 30  1  0
 29 31  1  0
 31 32  1  0
 32 33  2  0
 33 34  1  0
 34 35  1  0
 35 36  1  0
 35 37  1  0
 35 38  1  0
 34 39  1  0
 39 40  1  0
 39 41  1  0
 39 42  1  0
 33 43  1  0
 43 44  1  0
 14 45  1  0
 45 46  1  0
 45 47  2  0
 47 48  1  0
  5 49  2  0
 49 50  1  0
 49 51  1  0
 51 52  1  0
 52 53  1  0
 52 54  1  0
 51 55  2  0
 55 56  1  0
 55  2  1  0
 47  9  1  0
 44 19  1  0
 44 31  2  0
M  CHG  2   8  -1  43  -1
M  END
>  <UniqueID>  (45) 
43

>  <SMILES>  (45) 
CN(C)c1nc2cc(C(F)(F)F)cc/c(=N\Cc3ccc([N-]C(=O)c4cccc(N)c4)cc3)c2[n-]1

>  <Energy>  (45) 
110.07804917531575

>  <Genealogy>  (45) 
CN(C)c1nc2cc(C(F)(F)F)ccc(=NCc3ccc([N-]C(=O)c4cccc(N)c4)cc3)c2[n-]1 (protonated)
CN(C)c1nc2cc(C(F)(F)F)cc/c(=N\Cc3ccc([N-]C(=O)c4cccc(N)c4)cc3)c2[n-]1 (cis-trans isomerization)
CN(C)c1nc2cc(C(F)(F)F)cc/c(=N\Cc3ccc([N-]C(=O)c4cccc(N)c4)cc3)c2[n-]1 (3D coordinates assigned)
CN(C)c1nc2cc(C(F)(F)F)cc/c(=N\Cc3ccc([N-]C(=O)c4cccc(N)c4)cc3)c2[n-]1 (optimized conformer: 110.07804917531575 kcal/mol)

>  <smiles>  (45) 
CN(C)c1nc2cc(C(F)(F)F)ccc(=NCc3ccc(NC(=O)c4cccc(N)c4)cc3)c2[nH]1

>  <score_type>  (45) 
oracle

>  <origin>  (45) 
adgpu

>  <m_score__min__energy>  (45) 
-10.880000000000001

>  <m_primary>  (45) 
energy

$$$$
45:0
     RDKit          3D

 46 48  0  0  0  0  0  0  0  0999 V2000
   -1.1540   25.0960  -26.6600 H   0  0  0  0  0  0  0  0  0  0  0  0
   -0.3820   24.0960  -26.0390 S   0  0  0  0  0  0  0  0  0  0  0  0
   -0.5050   23.0180  -27.4710 C   0  0  0  0  0  0  0  0  0  0  0  0
    0.2320   21.8290  -27.4650 C   0  0  0  0  0  0  0  0  0  0  0  0
    0.8489   21.5739  -26.5907 H   0  0  0  0  0  0  0  0  0  0  0  0
    0.1910   20.9640  -28.5590 C   0  0  0  0  0  0  0  0  0  0  0  0
    0.7769   20.0331  -28.5439 H   0  0  0  0  0  0  0  0  0  0  0  0
   -0.5940   21.2770  -29.6770 C   0  0  0  0  0  0  0  0  0  0  0  0
   -0.6060   20.3730  -30.8730 C   0  0  0  0  0  0  0  0  0  0  0  0
   -0.6199   19.3247  -30.5401 H   0  0  0  0  0  0  0  0  0  0  0  0
   -1.5015   20.5775  -31.4782 H   0  0  0  0  0  0  0  0  0  0  0  0
    0.2946   20.5536  -31.4782 H   0  0  0  0  0  0  0  0  0  0  0  0
   -1.3150   22.4800  -29.6970 C   0  0  0  0  0  0  0  0  0  0  0  0
   -1.9010   22.7473  -30.5887 H   0  0  0  0  0  0  0  0  0  0  0  0
   -1.2980   23.3480  -28.5920 C   0  0  0  0  0  0  0  0  0  0  0  0
   -2.2500   24.8400  -28.6450 S   0  0  0  0  0  0  0  0  0  0  0  0
   -3.1660   24.9240  -27.4550 O   0  0  0  0  0  0  0  0  0  0  0  0
   -1.3130   26.0120  -28.6280 O   0  0  0  0  0  0  0  0  0  0  0  0
   -3.2090   24.9220  -30.0890 N   0  0  0  0  0  0  0  0  0  0  0  0
   -4.3980   24.1590  -30.3390 C   0  0  0  0  0  0  0  0  0  0  0  0
   -5.5850   24.5380  -29.7000 C   0  0  0  0  0  0  0  0  0  0  0  0
   -5.5828   25.3920  -29.0067 H   0  0  0  0  0  0  0  0  0  0  0  0
   -6.7720   23.8400  -29.9360 C   0  0  0  0  0  0  0  0  0  0  0  0
   -7.6986   24.1469  -29.4288 H   0  0  0  0  0  0  0  0  0  0  0  0
   -6.7860   22.7500  -30.8170 C   0  0  0  0  0  0  0  0  0  0  0  0
   -8.2790   21.8690  -31.1320 S   0  0  0  0  0  0  0  0  0  0  0  0
   -9.1810   21.9510  -29.9320 O   0  0  0  0  0  0  0  0  0  0  0  0
   -8.9960   22.4710  -32.3080 O   0  0  0  0  0  0  0  0  0  0  0  0
   -7.9150   20.2150  -31.5040 N   0  0  0  0  0  0  0  0  0  0  0  0
   -7.1740   19.8550  -32.5050 C   0  0  0  0  0  0  0  0  0  0  0  0
   -6.6010   20.6790  -33.3510 O   0  0  0  0  0  0  0  0  0  0  0  0
   -5.9080   20.0210  -34.2380 N   0  0  0  0  0  0  0  0  0  0  0  0
   -6.0380   18.7090  -33.9450 C   0  0  0  0  0  0  0  0  0  0  0  0
   -5.3940   17.6130  -34.7290 C   0  0  0  0  0  0  0  0  0  0  0  0
   -4.9601   16.8746  -34.0388 H   0  0  0  0  0  0  0  0  0  0  0  0
   -6.1482   17.1236  -35.3628 H   0  0  0  0  0  0  0  0  0  0  0  0
   -4.5994   18.0336  -35.3628 H   0  0  0  0  0  0  0  0  0  0  0  0
   -6.8640   18.5590  -32.8470 C   0  0  0  0  0  0  0  0  0  0  0  0
   -7.2320   17.2990  -32.1280 C   0  0  0  0  0  0  0  0  0  0  0  0
   -7.1825   17.4686  -31.0423 H   0  0  0  0  0  0  0  0  0  0  0  0
   -8.2541   17.0030  -32.4066 H   0  0  0  0  0  0  0  0  0  0  0  0
   -6.5299   16.4994  -32.4066 H   0  0  0  0  0  0  0  0  0  0  0  0
   -5.6000   22.3620  -31.4510 C   0  0  0  0  0  0  0  0  0  0  0  0
   -5.6028   21.5025  -32.1375 H   0  0  0  0  0  0  0  0  0  0  0  0
   -4.4130   23.0600  -31.2170 C   0  0  0  0  0  0  0  0  0  0  0  0
   -3.4862   22.7491  -31.7213 H   0  0  0  0  0  0  0  0  0  0  0  0
  1  2  1  0
  2  3  1  0
  3  4  2  0
  4  5  1  0
  4  6  1  0
  6  7  1  0
  6  8  2  0
  8  9  1  0
  9 10  1  0
  9 11  1  0
  9 12  1  0
  8 13  1  0
 13 14  1  0
 13 15  2  0
 15 16  1  0
 16 17  2  0
 16 18  2  0
 16 19  1  0
 19 20  1  0
 20 21  2  0
 21 22  1  0
 21 23  1  0
 23 24  1  0
 23 25  2  0
 25 26  1  0
 26 27  2  0
 26 28  2  0
 26 29  1  0
 29 30  2  0
 30 31  1  0
 31 32  1  0
 32 33  1  0
 33 34  1  0
 34 35  1  0
 34 36  1  0
 34 37  1  0
 33 38  2  0
 38 39  1  0
 39 40  1  0
 39 41  1  0
 39 42  1  0
 25 43  1  0
 43 44  1  0
 43 45  2  0
 45 46  1  0
 15  3  1  0
 45 20  1  0
 38 30  1  0
M  CHG  2  19  -1  32  -1
M  END
>  <UniqueID>  (46) 
44

>  <SMILES>  (46) 
Cc1ccc(S)c(S(=O)(=O)[N-]c2ccc(S(=O)(=O)/N=c3\o[n-]c(C)c3C)cc2)c1

>  <Energy>  (46) 
84.08978080263847

>  <Genealogy>  (46) 
Cc1ccc(S)c(S(=O)(=O)[N-]c2ccc(S(=O)(=O)N=c3o[n-]c(C)c3C)cc2)c1 (protonated)
Cc1ccc(S)c(S(=O)(=O)[N-]c2ccc(S(=O)(=O)/N=c3\o[n-]c(C)c3C)cc2)c1 (cis-trans isomerization)
Cc1ccc(S)c(S(=O)(=O)[N-]c2ccc(S(=O)(=O)/N=c3\o[n-]c(C)c3C)cc2)c1 (3D coordinates assigned)
Cc1ccc(S)c(S(=O)(=O)[N-]c2ccc(S(=O)(=O)/N=c3\o[n-]c(C)c3C)cc2)c1 (optimized conformer: 84.08978080263847 kcal/mol)

>  <smiles>  (46) 
Cc1ccc(S)c(S(=O)(=O)Nc2ccc(S(=O)(=O)N=c3o[nH]c(C)c3C)cc2)c1

>  <score_type>  (46) 
oracle

>  <origin>  (46) 
adgpu

>  <m_score__min__energy>  (46) 
-11.65

>  <m_primary>  (46) 
energy

$$$$
46:0
     RDKit          3D

 59 62  0  0  0  0  0  0  0  0999 V2000
   -3.4950   22.1110  -28.3950 O   0  0  0  0  0  0  0  0  0  0  0  0
   -3.4190   22.5240  -29.5830 C   0  0  0  0  0  0  0  0  0  0  0  0
   -2.1910   22.3310  -30.3000 N   0  0  0  0  0  0  0  0  0  0  0  0
   -1.9140   21.2500  -31.2040 C   0  0  0  0  0  0  0  0  0  0  0  0
   -2.2780   21.3780  -32.5490 C   0  0  0  0  0  0  0  0  0  0  0  0
   -1.9590   20.3710  -33.4660 C   0  0  0  0  0  0  0  0  0  0  0  0
   -1.3020   19.2100  -33.0330 C   0  0  0  0  0  0  0  0  0  0  0  0
   -0.8190   17.9640  -34.1790 S   0  0  0  0  0  0  0  0  0  0  0  0
   -0.5130   18.6130  -35.4990 O   0  0  0  0  0  0  0  0  0  0  0  0
    0.4140   17.2570  -33.6860 O   0  0  0  0  0  0  0  0  0  0  0  0
   -2.1220   16.8170  -34.3710 N   0  0  0  0  0  0  0  0  0  0  0  0
   -1.8560   15.9300  -35.5230 C   0  0  0  0  0  0  0  0  0  0  0  0
   -3.1520   15.2450  -36.0120 C   0  0  0  0  0  0  0  0  0  0  0  0
   -4.0980   15.1900  -34.9670 O   0  0  0  0  0  0  0  0  0  0  0  0
   -4.5500   16.5030  -34.6510 C   0  0  0  0  0  0  0  0  0  0  0  0
   -3.3980   17.5260  -34.5460 C   0  0  0  0  0  0  0  0  0  0  0  0
   -0.9780   19.0600  -31.6800 C   0  0  0  0  0  0  0  0  0  0  0  0
   -1.2900   20.0680  -30.7650 C   0  0  0  0  0  0  0  0  0  0  0  0
   -4.6070   23.1410  -30.2220 C   0  0  0  0  0  0  0  0  0  0  0  0
   -5.7540   22.3640  -30.4700 C   0  0  0  0  0  0  0  0  0  0  0  0
   -6.8650   22.9190  -31.1190 C   0  0  0  0  0  0  0  0  0  0  0  0
   -8.2810   21.9290  -31.4720 S   0  0  0  0  0  0  0  0  0  0  0  0
   -8.8470   21.4170  -30.1750 O   0  0  0  0  0  0  0  0  0  0  0  0
   -9.3310   22.7650  -32.1570 O   0  0  0  0  0  0  0  0  0  0  0  0
   -7.8340   20.5820  -32.4920 N   0  0  0  0  0  0  0  0  0  0  0  0
   -8.0780   19.3070  -31.7790 C   0  0  0  0  0  0  0  0  0  0  0  0
   -7.2760   18.1570  -32.3960 C   0  0  0  0  0  0  0  0  0  0  0  0
   -5.7640   18.4160  -32.2640 C   0  0  0  0  0  0  0  0  0  0  0  0
   -5.4170   19.9160  -32.2310 C   0  0  0  0  0  0  0  0  0  0  0  0
   -6.4500   20.7460  -33.0080 C   0  0  0  0  0  0  0  0  0  0  0  0
   -6.8520   24.2700  -31.4840 C   0  0  0  0  0  0  0  0  0  0  0  0
   -5.7280   25.0570  -31.2200 C   0  0  0  0  0  0  0  0  0  0  0  0
   -4.6050   24.5010  -30.5990 C   0  0  0  0  0  0  0  0  0  0  0  0
   -3.4850   25.3000  -30.3840 O   0  0  0  0  0  0  0  0  0  0  0  0
   -2.8177   22.2750  -32.8869 H   0  0  0  0  0  0  0  0  0  0  0  0
   -2.2235   20.4897  -34.5271 H   0  0  0  0  0  0  0  0  0  0  0  0
   -1.4333   16.5264  -36.3450 H   0  0  0  0  0  0  0  0  0  0  0  0
   -1.1482   15.1500  -35.2058 H   0  0  0  0  0  0  0  0  0  0  0  0
   -3.5713   15.8183  -36.8520 H   0  0  0  0  0  0  0  0  0  0  0  0
   -2.9161   14.2209  -36.3369 H   0  0  0  0  0  0  0  0  0  0  0  0
   -5.2432   16.8345  -35.4382 H   0  0  0  0  0  0  0  0  0  0  0  0
   -5.0401   16.4556  -33.6674 H   0  0  0  0  0  0  0  0  0  0  0  0
   -3.3587   18.1285  -35.4655 H   0  0  0  0  0  0  0  0  0  0  0  0
   -3.5716   18.1836  -33.6815 H   0  0  0  0  0  0  0  0  0  0  0  0
   -0.4754   18.1442  -31.3356 H   0  0  0  0  0  0  0  0  0  0  0  0
   -1.0476   19.9376  -29.7000 H   0  0  0  0  0  0  0  0  0  0  0  0
   -5.7785   21.3114  -30.1514 H   0  0  0  0  0  0  0  0  0  0  0  0
   -7.7827   19.4241  -30.7259 H   0  0  0  0  0  0  0  0  0  0  0  0
   -9.1479   19.0648  -31.8608 H   0  0  0  0  0  0  0  0  0  0  0  0
   -7.5288   17.2210  -31.8764 H   0  0  0  0  0  0  0  0  0  0  0  0
   -7.5301   18.0814  -33.4636 H   0  0  0  0  0  0  0  0  0  0  0  0
   -5.4078   17.9521  -31.3324 H   0  0  0  0  0  0  0  0  0  0  0  0
   -5.2748   17.9819  -33.1484 H   0  0  0  0  0  0  0  0  0  0  0  0
   -5.3977   20.2562  -31.1851 H   0  0  0  0  0  0  0  0  0  0  0  0
   -4.4337   20.0550  -32.7041 H   0  0  0  0  0  0  0  0  0  0  0  0
   -6.1725   21.8079  -32.9354 H   0  0  0  0  0  0  0  0  0  0  0  0
   -6.4426   20.3896  -34.0486 H   0  0  0  0  0  0  0  0  0  0  0  0
   -7.7283   24.7132  -31.9797 H   0  0  0  0  0  0  0  0  0  0  0  0
   -5.7264   26.1202  -31.5023 H   0  0  0  0  0  0  0  0  0  0  0  0
  1  2  2  0
  2  3  1  0
  3  4  1  0
  4  5  2  0
  5  6  1  0
  6  7  2  0
  7  8  1  0
  8  9  2  0
  8 10  2  0
  8 11  1  0
 11 12  1  0
 12 13  1  0
 13 14  1  0
 14 15  1  0
 15 16  1  0
  7 17  1  0
 17 18  2  0
  2 19  1  0
 19 20  2  0
 20 21  1  0
 21 22  1  0
 22 23  2  0
 22 24  2  0
 22 25  1  0
 25 26  1  0
 26 27  1  0
 27 28  1  0
 28 29  1  0
 29 30  1  0
 21 31  2  0
 31 32  1  0
 32 33  2  0
 33 34  1  0
 18  4  1  0
 33 19  1  0
 16 11  1  0
 30 25  1  0
  5 35  1  0
  6 36  1  0
 12 37  1  0
 12 38  1  0
 13 39  1  0
 13 40  1  0
 15 41  1  0
 15 42  1  0
 16 43  1  0
 16 44  1  0
 17 45  1  0
 18 46  1  0
 20 47  1  0
 26 48  1  0
 26 49  1  0
 27 50  1  0
 27 51  1  0
 28 52  1  0
 28 53  1  0
 29 54  1  0
 29 55  1  0
 30 56  1  0
 30 57  1  0
 31 58  1  0
 32 59  1  0
M  CHG  2   3  -1  34  -1
M  END
>  <UniqueID>  (47) 
45

>  <SMILES>  (47) 
O=C([N-]c1ccc(S(=O)(=O)N2CCOCC2)cc1)c1cc(S(=O)(=O)N2CCCCC2)ccc1[O-]

>  <Energy>  (47) 
79.39256515433718

>  <Genealogy>  (47) 
O=C([N-]c1ccc(S(=O)(=O)N2CCOCC2)cc1)c1cc(S(=O)(=O)N2CCCCC2)ccc1[O-] (protonated)
O=C([N-]c1ccc(S(=O)(=O)N2CCOCC2)cc1)c1cc(S(=O)(=O)N2CCCCC2)ccc1[O-] (3D coordinates assigned)
O=C([N-]c1ccc(S(=O)(=O)N2CCOCC2)cc1)c1cc(S(=O)(=O)N2CCCCC2)ccc1[O-] (nonaromatic ring conformer: 79.39256515433718 kcal/mol)

>  <smiles>  (47) 
O=C(Nc1ccc(S(=O)(=O)N2CCOCC2)cc1)c1cc(S(=O)(=O)N2CCCCC2)ccc1O

>  <score_type>  (47) 
oracle

>  <origin>  (47) 
adgpu

>  <m_score__min__energy>  (47) 
-14.699999999999999

>  <m_primary>  (47) 
energy

$$$$
47:0
     RDKit          3D

 42 45  0  0  0  0  0  0  0  0999 V2000
   -1.9850   25.6730  -29.3240 O   0  0  0  0  0  0  0  0  0  0  0  0
   -2.2340   24.4170  -28.7810 C   0  0  0  0  0  0  0  0  0  0  0  0
   -1.4460   23.9390  -27.7130 C   0  0  0  0  0  0  0  0  0  0  0  0
   -0.3230   24.7800  -27.1430 C   0  0  0  0  0  0  0  0  0  0  0  0
   -0.7530   26.1730  -26.8710 N   0  0  0  0  0  0  0  0  0  0  0  0
    0.3150   26.9780  -26.2530 C   0  0  0  0  0  0  0  0  0  0  0  0
    0.1700   26.8550  -24.7410 C   0  0  0  0  0  0  0  0  0  0  0  0
   -1.2380   26.3340  -24.5110 C   0  0  0  0  0  0  0  0  0  0  0  0
   -1.8550   26.2070  -25.8960 C   0  0  0  0  0  0  0  0  0  0  0  0
   -1.7120   22.6670  -27.1790 C   0  0  0  0  0  0  0  0  0  0  0  0
   -2.7340   21.8780  -27.7070 C   0  0  0  0  0  0  0  0  0  0  0  0
   -3.5090   22.3510  -28.7660 C   0  0  0  0  0  0  0  0  0  0  0  0
   -3.2720   23.6230  -29.3000 C   0  0  0  0  0  0  0  0  0  0  0  0
   -4.2980   24.2140  -30.6510 S   0  0  0  0  0  0  0  0  0  0  0  0
   -4.0540   22.7190  -31.6210 C   0  0  0  0  0  0  0  0  0  0  0  0
   -2.7720   22.3220  -31.8510 N   0  0  0  0  0  0  0  0  0  0  0  0
   -2.4760   21.1760  -32.5140 C   0  0  0  0  0  0  0  0  0  0  0  0
   -3.5000   20.3530  -32.9760 C   0  0  0  0  0  0  0  0  0  0  0  0
   -4.8260   20.7320  -32.7680 C   0  0  0  0  0  0  0  0  0  0  0  0
   -5.1290   21.9310  -32.1010 C   0  0  0  0  0  0  0  0  0  0  0  0
   -6.5510   22.3260  -31.9560 C   0  0  0  0  0  0  0  0  0  0  0  0
   -7.0670   23.5130  -32.3260 N   0  0  0  0  0  0  0  0  0  0  0  0
   -8.3600   23.4180  -32.0620 N   0  0  0  0  0  0  0  0  0  0  0  0
   -8.6280   22.2240  -31.5610 N   0  0  0  0  0  0  0  0  0  0  0  0
   -7.5150   21.5120  -31.4860 N   0  0  0  0  0  0  0  0  0  0  0  0
    0.0193   24.3242  -26.2022 H   0  0  0  0  0  0  0  0  0  0  0  0
    0.4864   24.8142  -27.8872 H   0  0  0  0  0  0  0  0  0  0  0  0
   -1.0700   26.6270  -27.7610 H   0  0  0  0  0  0  0  0  0  0  0  0
    1.2990   26.5999  -26.5672 H   0  0  0  0  0  0  0  0  0  0  0  0
    0.2343   28.0300  -26.5640 H   0  0  0  0  0  0  0  0  0  0  0  0
    0.9118   26.1489  -24.3396 H   0  0  0  0  0  0  0  0  0  0  0  0
    0.3376   27.8171  -24.2347 H   0  0  0  0  0  0  0  0  0  0  0  0
   -1.2087   25.3543  -24.0117 H   0  0  0  0  0  0  0  0  0  0  0  0
   -1.8214   27.0057  -23.8641 H   0  0  0  0  0  0  0  0  0  0  0  0
   -2.4429   25.2796  -25.9614 H   0  0  0  0  0  0  0  0  0  0  0  0
   -2.5261   27.0544  -26.0999 H   0  0  0  0  0  0  0  0  0  0  0  0
   -1.1101   22.2907  -26.3387 H   0  0  0  0  0  0  0  0  0  0  0  0
   -2.9293   20.8802  -27.2872 H   0  0  0  0  0  0  0  0  0  0  0  0
   -4.3093   21.7221  -29.1830 H   0  0  0  0  0  0  0  0  0  0  0  0
   -1.4262   20.8966  -32.6868 H   0  0  0  0  0  0  0  0  0  0  0  0
   -3.2656   19.4143  -33.4993 H   0  0  0  0  0  0  0  0  0  0  0  0
   -5.6409   20.0873  -33.1289 H   0  0  0  0  0  0  0  0  0  0  0  0
  1  2  1  0
  2  3  2  0
  3  4  1  0
  4  5  1  0
  5  6  1  0
  6  7  1  0
  7  8  1  0
  8  9  1  0
  3 10  1  0
 10 11  2  0
 11 12  1  0
 12 13  2  0
 13 14  1  0
 14 15  1  0
 15 16  2  0
 16 17  1  0
 17 18  2  0
 18 19  1  0
 19 20  2  0
 20 21  1  0
 21 22  1  0
 22 23  2  0
 23 24  1  0
 24 25  1  0
 13  2  1  0
 20 15  1  0
 25 21  2  0
  9  5  1  0
  4 26  1  0
  4 27  1  0
  5 28  1  0
  6 29  1  0
  6 30  1  0
  7 31  1  0
  7 32  1  0
  8 33  1  0
  8 34  1  0
  9 35  1  0
  9 36  1  0
 10 37  1  0
 11 38  1  0
 12 39  1  0
 17 40  1  0
 18 41  1  0
 19 42  1  0
M  CHG  3   1  -1   5   1  24  -1
M  END
>  <UniqueID>  (48) 
46

>  <SMILES>  (48) 
[O-]c1c(C[NH+]2CCCC2)cccc1Sc1ncccc1-c1nn[n-]n1

>  <Energy>  (48) 
89.1220544429855

>  <Genealogy>  (48) 
[O-]c1c(C[NH+]2CCCC2)cccc1Sc1ncccc1-c1nn[n-]n1 (protonated)
[O-]c1c(C[NH+]2CCCC2)cccc1Sc1ncccc1-c1nn[n-]n1 (3D coordinates assigned)
[O-]c1c(C[NH+]2CCCC2)cccc1Sc1ncccc1-c1nn[n-]n1 (nonaromatic ring conformer: 89.1220544429855 kcal/mol)

>  <smiles>  (48) 
Oc1c(CN2CCCC2)cccc1Sc1ncccc1-c1nn[nH]n1

>  <score_type>  (48) 
oracle

>  <origin>  (48) 
adgpu

>  <m_score__min__energy>  (48) 
-9.8900000000000006

>  <m_primary>  (48) 
energy

$$$$
