0:0
     RDKit          3D

 34 36  0  0  0  0  0  0  0  0999 V2000
   -7.8370   25.6010  -30.3660 H   0  0  0  0  0  0  0  0  0  0  0  0
   -6.8590   25.5570  -30.0040 N   0  0  0  0  0  0  0  0  0  0  0  0
   -6.0410   24.5710  -30.2230 C   0  0  0  0  0  0  0  0  0  0  0  0
   -6.4220   23.4470  -30.9940 C   0  0  0  0  0  0  0  0  0  0  0  0
   -7.7300   23.3790  -31.6150 C   0  0  0  0  0  0  0  0  0  0  0  0
   -8.7740   23.3250  -32.1120 N   0  0  0  0  0  0  0  0  0  0  0  0
   -5.4920   22.4030  -31.1870 C   0  0  0  0  0  0  0  0  0  0  0  0
   -5.8240   21.1930  -31.9780 C   0  0  0  0  0  0  0  0  0  0  0  0
   -6.9450   20.4200  -31.6330 C   0  0  0  0  0  0  0  0  0  0  0  0
   -7.5690   20.7114  -30.7752 H   0  0  0  0  0  0  0  0  0  0  0  0
   -7.2700   19.2820  -32.3760 C   0  0  0  0  0  0  0  0  0  0  0  0
   -8.1451   18.6764  -32.0979 H   0  0  0  0  0  0  0  0  0  0  0  0
   -6.4860   18.9120  -33.4710 C   0  0  0  0  0  0  0  0  0  0  0  0
   -6.7416   18.0134  -34.0517 H   0  0  0  0  0  0  0  0  0  0  0  0
   -5.3770   19.6830  -33.8290 C   0  0  0  0  0  0  0  0  0  0  0  0
   -4.7631   19.3929  -34.6944 H   0  0  0  0  0  0  0  0  0  0  0  0
   -5.0460   20.8230  -33.0890 C   0  0  0  0  0  0  0  0  0  0  0  0
   -3.9830   21.5750  -33.4710 F   0  0  0  0  0  0  0  0  0  0  0  0
   -4.2120   22.5140  -30.6340 C   0  0  0  0  0  0  0  0  0  0  0  0
   -3.4747   21.7134  -30.7934 H   0  0  0  0  0  0  0  0  0  0  0  0
   -3.8660   23.6410  -29.8780 C   0  0  0  0  0  0  0  0  0  0  0  0
   -2.5080   23.7600  -29.2890 C   0  0  0  0  0  0  0  0  0  0  0  0
   -2.1380   24.9210  -28.5850 C   0  0  0  0  0  0  0  0  0  0  0  0
   -2.8592   25.7437  -28.4709 H   0  0  0  0  0  0  0  0  0  0  0  0
   -0.8610   25.0360  -28.0300 C   0  0  0  0  0  0  0  0  0  0  0  0
   -0.5810   25.9479  -27.4823 H   0  0  0  0  0  0  0  0  0  0  0  0
    0.0620   23.9950  -28.1690 C   0  0  0  0  0  0  0  0  0  0  0  0
    1.6640   24.1410  -27.4700 Cl  0  0  0  0  0  0  0  0  0  0  0  0
   -0.2950   22.8370  -28.8650 C   0  0  0  0  0  0  0  0  0  0  0  0
    0.4297   22.0167  -28.9739 H   0  0  0  0  0  0  0  0  0  0  0  0
   -1.5710   22.7190  -29.4230 C   0  0  0  0  0  0  0  0  0  0  0  0
   -1.8447   21.8054  -29.9711 H   0  0  0  0  0  0  0  0  0  0  0  0
   -4.7860   24.6320  -29.6920 N   0  0  0  0  0  0  0  0  0  0  0  0
   -4.5330   25.4610  -29.1080 H   0  0  0  0  0  0  0  0  0  0  0  0
  1  2  1  0
  2  3  2  0
  3  4  1  0
  4  5  1  0
  5  6  3  0
  4  7  2  0
  7  8  1  0
  8  9  2  0
  9 10  1  0
  9 11  1  0
 11 12  1  0
 11 13  2  0
 13 14  1  0
 13 15  1  0
 15 16  1  0
 15 17  2  0
 17 18  1  0
  7 19  1  0
 19 20  1  0
 19 21  2  0
 21 22  1  0
 22 23  2  0
 23 24  1  0
 23 25  1  0
 25 26  1  0
 25 27  2  0
 27 28  1  0
 27 29  1  0
 29 30  1  0
 29 31  2  0
 31 32  1  0
 21 33  1  0
 33 34  1  0
 33  3  1  0
 17  8  1  0
 31 22  1  0
M  END
>  <UniqueID>  (1) 
1

>  <SMILES>  (1) 
[H]/N=c1/[nH]c(-c2ccc(Cl)cc2)cc(-c2ccccc2F)c1C#N

>  <Energy>  (1) 
52.661322202705776

>  <Genealogy>  (1) 
[H]/N=c1/[nH]c(-c2ccc(Cl)cc2)cc(-c2ccccc2F)c1C#N (cis-trans isomerization)
[H]/N=c1/[nH]c(-c2ccc(Cl)cc2)cc(-c2ccccc2F)c1C#N (3D coordinates assigned)
[H]/N=c1/[nH]c(-c2ccc(Cl)cc2)cc(-c2ccccc2F)c1C#N (optimized conformer: 52.661322202705776 kcal/mol)

>  <smiles>  (1) 
N#Cc1c(-c2ccccc2F)cc(-c2ccc(Cl)cc2)[nH]c1=N

>  <score_type>  (1) 
oracle

>  <origin>  (1) 
adgpu

>  <m_score__min__energy>  (1) 
-8

>  <m_primary>  (1) 
energy

$$$$
1:0
     RDKit          3D

 22 23  0  0  0  0  0  0  0  0999 V2000
   -5.0460   27.2560  -29.9320 H   0  0  0  0  0  0  0  0  0  0  0  0
   -5.3810   26.4180  -30.4590 N   0  0  0  0  0  0  0  0  0  0  0  0
   -4.6940   25.3220  -30.5180 C   0  0  0  0  0  0  0  0  0  0  0  0
   -5.1800   24.2670  -31.2180 N   0  0  0  0  0  0  0  0  0  0  0  0
   -4.4860   23.1020  -31.3010 C   0  0  0  0  0  0  0  0  0  0  0  0
   -5.0140   21.9330  -32.0700 C   0  0  0  0  0  0  0  0  0  0  0  0
   -4.0900   21.0730  -32.7050 C   0  0  0  0  0  0  0  0  0  0  0  0
   -3.0129   21.2793  -32.6203 H   0  0  0  0  0  0  0  0  0  0  0  0
   -4.5210   19.9660  -33.4380 C   0  0  0  0  0  0  0  0  0  0  0  0
   -3.7843   19.3099  -33.9246 H   0  0  0  0  0  0  0  0  0  0  0  0
   -5.8800   19.6900  -33.5550 C   0  0  0  0  0  0  0  0  0  0  0  0
   -6.2169   18.8166  -34.1327 H   0  0  0  0  0  0  0  0  0  0  0  0
   -6.8140   20.5220  -32.9390 C   0  0  0  0  0  0  0  0  0  0  0  0
   -7.8870   20.2995  -33.0352 H   0  0  0  0  0  0  0  0  0  0  0  0
   -6.4020   21.6380  -32.1990 C   0  0  0  0  0  0  0  0  0  0  0  0
   -7.6840   22.6040  -31.4720 Cl  0  0  0  0  0  0  0  0  0  0  0  0
   -3.2870   23.0110  -30.6650 N   0  0  0  0  0  0  0  0  0  0  0  0
   -2.7890   24.0590  -29.9610 C   0  0  0  0  0  0  0  0  0  0  0  0
   -1.6460   23.9550  -29.3620 N   0  0  0  0  0  0  0  0  0  0  0  0
   -1.0850   23.0740  -29.4050 H   0  0  0  0  0  0  0  0  0  0  0  0
   -3.4930   25.2190  -29.8850 N   0  0  0  0  0  0  0  0  0  0  0  0
   -3.1090   26.0280  -29.3430 H   0  0  0  0  0  0  0  0  0  0  0  0
  1  2  1  0
  2  3  2  0
  3  4  1  0
  4  5  2  0
  5  6  1  0
  6  7  2  0
  7  8  1  0
  7  9  1  0
  9 10  1  0
  9 11  2  0
 11 12  1  0
 11 13  1  0
 13 14  1  0
 13 15  2  0
 15 16  1  0
  5 17  1  0
 17 18  1  0
 18 19  2  0
 19 20  1  0
 18 21  1  0
 21 22  1  0
 21  3  1  0
 15  6  1  0
M  CHG  1  17  -1
M  END
>  <UniqueID>  (2) 
2

>  <SMILES>  (2) 
[H]/N=c1/nc(-c2ccccc2Cl)[n-]/c(=N\[H])[nH]1

>  <Energy>  (2) 
29.05411935721196

>  <Genealogy>  (2) 
N=c1nc(-c2ccccc2Cl)[n-]c(=N)[nH]1 (protonated)
[H]/N=c1/nc(-c2ccccc2Cl)[n-]/c(=N\[H])[nH]1 (cis-trans isomerization)
[H]/N=c1/nc(-c2ccccc2Cl)[n-]/c(=N\[H])[nH]1 (3D coordinates assigned)
[H]/N=c1/nc(-c2ccccc2Cl)[n-]/c(=N\[H])[nH]1 (optimized conformer: 29.05411935721196 kcal/mol)

>  <smiles>  (2) 
N=c1nc(-c2ccccc2Cl)[nH]c(=N)[nH]1

>  <score_type>  (2) 
oracle

>  <origin>  (2) 
adgpu

>  <m_score__min__energy>  (2) 
-7.5700000000000003

>  <m_primary>  (2) 
energy

$$$$
2:0
     RDKit          3D

 44 47  0  0  0  0  0  0  0  0999 V2000
   -8.4100   23.4420  -31.9410 N   0  0  0  0  0  0  0  0  0  0  0  0
   -7.3990   23.0220  -31.5670 C   0  0  0  0  0  0  0  0  0  0  0  0
   -6.1370   22.5100  -31.0930 C   0  0  0  0  0  0  0  0  0  0  0  0
   -5.3470   23.3480  -30.2980 C   0  0  0  0  0  0  0  0  0  0  0  0
   -4.1470   22.8910  -29.7400 C   0  0  0  0  0  0  0  0  0  0  0  0
   -3.3950   23.7850  -28.8250 C   0  0  0  0  0  0  0  0  0  0  0  0
   -3.8900   24.0750  -27.5430 C   0  0  0  0  0  0  0  0  0  0  0  0
   -3.1750   24.9150  -26.6840 C   0  0  0  0  0  0  0  0  0  0  0  0
   -1.9650   25.4780  -27.1010 C   0  0  0  0  0  0  0  0  0  0  0  0
   -1.0680   26.5300  -26.0210 Cl  0  0  0  0  0  0  0  0  0  0  0  0
   -1.4720   25.2050  -28.3810 C   0  0  0  0  0  0  0  0  0  0  0  0
   -2.1850   24.3640  -29.2420 C   0  0  0  0  0  0  0  0  0  0  0  0
   -3.7370   21.5660  -30.0170 C   0  0  0  0  0  0  0  0  0  0  0  0
   -2.4560   21.0040  -29.5300 C   0  0  0  0  0  0  0  0  0  0  0  0
   -1.3290   21.0100  -30.3670 C   0  0  0  0  0  0  0  0  0  0  0  0
   -0.1110   20.4920  -29.9170 C   0  0  0  0  0  0  0  0  0  0  0  0
   -0.0040   19.9770  -28.6210 C   0  0  0  0  0  0  0  0  0  0  0  0
    1.5230   19.3270  -28.0560 Cl  0  0  0  0  0  0  0  0  0  0  0  0
   -1.1170   19.9880  -27.7730 C   0  0  0  0  0  0  0  0  0  0  0  0
   -2.3350   20.5050  -28.2210 C   0  0  0  0  0  0  0  0  0  0  0  0
   -4.5290   20.7720  -30.7850 N   0  0  0  0  0  0  0  0  0  0  0  0
   -5.7020   21.1870  -31.3370 C   0  0  0  0  0  0  0  0  0  0  0  0
   -6.4520   20.2480  -32.1410 N   0  0  0  0  0  0  0  0  0  0  0  0
   -5.9220   19.5180  -33.2850 C   0  0  0  0  0  0  0  0  0  0  0  0
   -6.8230   18.3030  -33.4520 C   0  0  0  0  0  0  0  0  0  0  0  0
   -8.1130   18.6530  -32.7230 C   0  0  0  0  0  0  0  0  0  0  0  0
   -7.7200   19.6960  -31.6870 C   0  0  0  0  0  0  0  0  0  0  0  0
   -5.6737   24.3812  -30.1087 H   0  0  0  0  0  0  0  0  0  0  0  0
   -4.8447   23.6392  -27.2133 H   0  0  0  0  0  0  0  0  0  0  0  0
   -3.5649   25.1332  -25.6788 H   0  0  0  0  0  0  0  0  0  0  0  0
   -0.5227   25.6520  -28.7111 H   0  0  0  0  0  0  0  0  0  0  0  0
   -1.7965   24.1552  -30.2497 H   0  0  0  0  0  0  0  0  0  0  0  0
   -1.4047   21.4248  -31.3830 H   0  0  0  0  0  0  0  0  0  0  0  0
    0.7644   20.4894  -30.5831 H   0  0  0  0  0  0  0  0  0  0  0  0
   -1.0327   19.5887  -26.7515 H   0  0  0  0  0  0  0  0  0  0  0  0
   -3.2037   20.5218  -27.5464 H   0  0  0  0  0  0  0  0  0  0  0  0
   -5.9529   20.1454  -34.1880 H   0  0  0  0  0  0  0  0  0  0  0  0
   -4.8726   19.2268  -33.1299 H   0  0  0  0  0  0  0  0  0  0  0  0
   -7.0219   18.1149  -34.5174 H   0  0  0  0  0  0  0  0  0  0  0  0
   -6.3592   17.3911  -33.0478 H   0  0  0  0  0  0  0  0  0  0  0  0
   -8.8519   19.0669  -33.4250 H   0  0  0  0  0  0  0  0  0  0  0  0
   -8.5743   17.7686  -32.2592 H   0  0  0  0  0  0  0  0  0  0  0  0
   -8.4833   20.4860  -31.6303 H   0  0  0  0  0  0  0  0  0  0  0  0
   -7.6335   19.2562  -30.6825 H   0  0  0  0  0  0  0  0  0  0  0  0
  1  2  3  0
  2  3  1  0
  3  4  2  0
  4  5  1  0
  5  6  1  0
  6  7  2  0
  7  8  1  0
  8  9  2  0
  9 10  1  0
  9 11  1  0
 11 12  2  0
  5 13  2  0
 13 14  1  0
 14 15  2  0
 15 16  1  0
 16 17  2  0
 17 18  1  0
 17 19  1  0
 19 20  2  0
 13 21  1  0
 21 22  2  0
 22 23  1  0
 23 24  1  0
 24 25  1  0
 25 26  1  0
 26 27  1  0
 22  3  1  0
 27 23  1  0
 12  6  1  0
 20 14  1  0
  4 28  1  0
  7 29  1  0
  8 30  1  0
 11 31  1  0
 12 32  1  0
 15 33  1  0
 16 34  1  0
 19 35  1  0
 20 36  1  0
 24 37  1  0
 24 38  1  0
 25 39  1  0
 25 40  1  0
 26 41  1  0
 26 42  1  0
 27 43  1  0
 27 44  1  0
M  END
>  <UniqueID>  (3) 
3

>  <SMILES>  (3) 
N#Cc1cc(-c2ccc(Cl)cc2)c(-c2ccc(Cl)cc2)nc1N1CCCC1

>  <Energy>  (3) 
63.52763907778237

>  <Genealogy>  (3) 
N#Cc1cc(-c2ccc(Cl)cc2)c(-c2ccc(Cl)cc2)nc1N1CCCC1 (3D coordinates assigned)
N#Cc1cc(-c2ccc(Cl)cc2)c(-c2ccc(Cl)cc2)nc1N1CCCC1 (nonaromatic ring conformer: 63.52763907778237 kcal/mol)

>  <smiles>  (3) 
N#Cc1cc(-c2ccc(Cl)cc2)c(-c2ccc(Cl)cc2)nc1N1CCCC1

>  <score_type>  (3) 
oracle

>  <origin>  (3) 
adgpu

>  <m_score__min__energy>  (3) 
-8.5299999999999994

>  <m_primary>  (3) 
energy

$$$$
3:0
     RDKit          3D

 45 48  0  0  0  0  0  0  0  0999 V2000
   -4.0249   23.5912  -30.5475 H   0  0  0  0  0  0  0  0  0  0  0  0
   -3.5520   24.3890  -29.9560 C   0  0  0  0  0  0  0  0  0  0  0  0
   -4.0636   25.3541  -29.8259 H   0  0  0  0  0  0  0  0  0  0  0  0
   -2.3570   24.1860  -29.3960 C   0  0  0  0  0  0  0  0  0  0  0  0
   -1.7480   25.1430  -28.6640 N   0  0  0  0  0  0  0  0  0  0  0  0
   -0.6640   24.6210  -28.1100 N   0  0  0  0  0  0  0  0  0  0  0  0
    0.2140   25.3610  -27.2400 C   0  0  0  0  0  0  0  0  0  0  0  0
    1.6030   25.3920  -27.4630 C   0  0  0  0  0  0  0  0  0  0  0  0
    2.0350   24.8320  -28.3055 H   0  0  0  0  0  0  0  0  0  0  0  0
    2.4360   26.1310  -26.6190 C   0  0  0  0  0  0  0  0  0  0  0  0
    3.5212   26.1480  -26.7983 H   0  0  0  0  0  0  0  0  0  0  0  0
    1.8970   26.8480  -25.5490 C   0  0  0  0  0  0  0  0  0  0  0  0
    2.5576   27.4265  -24.8865 H   0  0  0  0  0  0  0  0  0  0  0  0
    0.5160   26.8310  -25.3190 C   0  0  0  0  0  0  0  0  0  0  0  0
   -0.1730   27.7530  -23.9850 S   0  0  0  0  0  0  0  0  0  0  0  0
   -1.2840   26.9710  -23.3420 O   0  0  0  0  0  0  0  0  0  0  0  0
   -0.7330   29.0490  -24.5030 O   0  0  0  0  0  0  0  0  0  0  0  0
    1.0570   28.0770  -22.8140 N   0  0  0  0  0  0  0  0  0  0  0  0
    0.6330   28.7000  -22.0920 H   0  0  0  0  0  0  0  0  0  0  0  0
    1.2740   27.1710  -22.3410 H   0  0  0  0  0  0  0  0  0  0  0  0
   -0.3210   26.0980  -26.1710 C   0  0  0  0  0  0  0  0  0  0  0  0
   -1.4077   26.0999  -26.0008 H   0  0  0  0  0  0  0  0  0  0  0  0
   -0.5790   23.3220  -28.4670 C   0  0  0  0  0  0  0  0  0  0  0  0
    0.3130   22.5280  -28.0620 O   0  0  0  0  0  0  0  0  0  0  0  0
   -1.6170   22.9950  -29.3210 C   0  0  0  0  0  0  0  0  0  0  0  0
   -1.7960   21.7890  -29.8930 C   0  0  0  0  0  0  0  0  0  0  0  0
   -1.2273   20.9450  -29.4756 H   0  0  0  0  0  0  0  0  0  0  0  0
   -2.6860   21.5040  -31.0270 C   0  0  0  0  0  0  0  0  0  0  0  0
   -3.9130   21.0590  -30.8900 O   0  0  0  0  0  0  0  0  0  0  0  0
   -4.4190   20.8460  -32.0840 C   0  0  0  0  0  0  0  0  0  0  0  0
   -5.8050   20.3810  -32.3070 C   0  0  0  0  0  0  0  0  0  0  0  0
   -6.8580   21.2270  -31.9160 C   0  0  0  0  0  0  0  0  0  0  0  0
   -6.6332   22.1955  -31.4455 H   0  0  0  0  0  0  0  0  0  0  0  0
   -8.1880   20.8480  -32.1200 C   0  0  0  0  0  0  0  0  0  0  0  0
   -9.4890   21.9230  -31.6410 Cl  0  0  0  0  0  0  0  0  0  0  0  0
   -8.4810   19.6160  -32.7060 C   0  0  0  0  0  0  0  0  0  0  0  0
   -9.5276   19.3231  -32.8757 H   0  0  0  0  0  0  0  0  0  0  0  0
   -7.4470   18.7550  -33.0770 C   0  0  0  0  0  0  0  0  0  0  0  0
   -7.6839   17.7806  -33.5292 H   0  0  0  0  0  0  0  0  0  0  0  0
   -6.1100   19.1220  -32.8780 C   0  0  0  0  0  0  0  0  0  0  0  0
   -4.8710   17.9350  -33.2710 Cl  0  0  0  0  0  0  0  0  0  0  0  0
   -3.4800   21.1650  -33.0520 C   0  0  0  0  0  0  0  0  0  0  0  0
   -3.6060   21.1035  -34.1430 H   0  0  0  0  0  0  0  0  0  0  0  0
   -2.3560   21.5750  -32.3680 C   0  0  0  0  0  0  0  0  0  0  0  0
   -1.3954   21.8929  -32.7994 H   0  0  0  0  0  0  0  0  0  0  0  0
  1  2  1  0
  2  3  1  0
  2  4  2  0
  4  5  1  0
  5  6  1  0
  6  7  1  0
  7  8  2  0
  8  9  1  0
  8 10  1  0
 10 11  1  0
 10 12  2  0
 12 13  1  0
 12 14  1  0
 14 15  1  0
 15 16  2  0
 15 17  2  0
 15 18  1  0
 18 19  1  0
 18 20  1  0
 14 21  2  0
 21 22  1  0
  6 23  1  0
 23 24  2  0
 23 25  1  0
 25 26  2  0
 26 27  1  0
 26 28  1  0
 28 29  1  0
 29 30  1  0
 30 31  1  0
 31 32  2  0
 32 33  1  0
 32 34  1  0
 34 35  1  0
 34 36  2  0
 36 37  1  0
 36 38  1  0
 38 39  1  0
 38 40  2  0
 40 41  1  0
 30 42  2  0
 42 43  1  0
 42 44  1  0
 44 45  1  0
 25  4  1  0
 44 28  2  0
 21  7  1  0
 40 31  1  0
M  CHG  1   5  -1
M  END
>  <UniqueID>  (4) 
4

>  <SMILES>  (4) 
C=c1[n-]n(-c2cccc(S(N)(=O)=O)c2)c(=O)/c1=C/c1ccc(-c2cc(Cl)ccc2Cl)o1

>  <Energy>  (4) 
129.17190432985862

>  <Genealogy>  (4) 
C=c1[n-]n(-c2cccc(S(N)(=O)=O)c2)c(=O)c1=Cc1ccc(-c2cc(Cl)ccc2Cl)o1 (protonated)
C=c1[n-]n(-c2cccc(S(N)(=O)=O)c2)c(=O)/c1=C/c1ccc(-c2cc(Cl)ccc2Cl)o1 (cis-trans isomerization)
C=c1[n-]n(-c2cccc(S(N)(=O)=O)c2)c(=O)/c1=C/c1ccc(-c2cc(Cl)ccc2Cl)o1 (3D coordinates assigned)
C=c1[n-]n(-c2cccc(S(N)(=O)=O)c2)c(=O)/c1=C/c1ccc(-c2cc(Cl)ccc2Cl)o1 (optimized conformer: 129.17190432985862 kcal/mol)

>  <smiles>  (4) 
C=c1[nH]n(-c2cccc(S(N)(=O)=O)c2)c(=O)c1=Cc1ccc(-c2cc(Cl)ccc2Cl)o1

>  <score_type>  (4) 
oracle

>  <origin>  (4) 
adgpu

>  <m_score__min__energy>  (4) 
-10.970000000000001

>  <m_primary>  (4) 
energy

$$$$
4:0
     RDKit          3D

 39 41  0  0  0  0  0  0  0  0999 V2000
   -3.1270   25.6520  -30.7440 H   0  0  0  0  0  0  0  0  0  0  0  0
   -4.1340   25.5840  -30.4700 N   0  0  0  0  0  0  0  0  0  0  0  0
   -4.8570   24.5620  -30.7990 C   0  0  0  0  0  0  0  0  0  0  0  0
   -4.3150   23.5430  -31.5170 N   0  0  0  0  0  0  0  0  0  0  0  0
   -5.0440   22.4540  -31.8830 C   0  0  0  0  0  0  0  0  0  0  0  0
   -4.5712   21.6499  -32.4661 H   0  0  0  0  0  0  0  0  0  0  0  0
   -6.3980   22.3510  -31.5200 C   0  0  0  0  0  0  0  0  0  0  0  0
   -7.2050   21.1670  -31.9130 C   0  0  0  0  0  0  0  0  0  0  0  0
   -8.6090   21.2270  -31.8970 C   0  0  0  0  0  0  0  0  0  0  0  0
   -9.1129   22.1593  -31.6021 H   0  0  0  0  0  0  0  0  0  0  0  0
   -9.3680   20.1110  -32.2530 C   0  0  0  0  0  0  0  0  0  0  0  0
  -10.4664   20.1661  -32.2325 H   0  0  0  0  0  0  0  0  0  0  0  0
   -8.7380   18.9250  -32.6350 C   0  0  0  0  0  0  0  0  0  0  0  0
   -9.3431   18.0481  -32.9086 H   0  0  0  0  0  0  0  0  0  0  0  0
   -7.3350   18.8450  -32.6720 C   0  0  0  0  0  0  0  0  0  0  0  0
   -6.6730   17.5800  -33.0750 C   0  0  0  0  0  0  0  0  0  0  0  0
   -7.3740   16.6140  -33.4860 O   0  0  0  0  0  0  0  0  0  0  0  0
   -5.2440   17.4490  -33.0290 N   0  0  0  0  0  0  0  0  0  0  0  0
   -4.6600   18.3090  -33.1400 H   0  0  0  0  0  0  0  0  0  0  0  0
   -4.5890   16.1750  -33.1300 C   0  0  0  0  0  0  0  0  0  0  0  0
   -4.6850   15.2740  -32.0570 C   0  0  0  0  0  0  0  0  0  0  0  0
   -5.3800   15.6100  -30.9410 F   0  0  0  0  0  0  0  0  0  0  0  0
   -4.0460   14.0330  -32.1180 C   0  0  0  0  0  0  0  0  0  0  0  0
   -4.1208   13.3350  -31.2711 H   0  0  0  0  0  0  0  0  0  0  0  0
   -3.3130   13.6770  -33.2510 C   0  0  0  0  0  0  0  0  0  0  0  0
   -2.6870   12.4760  -33.3020 F   0  0  0  0  0  0  0  0  0  0  0  0
   -3.2310   14.5540  -34.3360 C   0  0  0  0  0  0  0  0  0  0  0  0
   -2.6506   14.2686  -35.2258 H   0  0  0  0  0  0  0  0  0  0  0  0
   -3.8840   15.7970  -34.2990 C   0  0  0  0  0  0  0  0  0  0  0  0
   -3.8100   16.6970  -35.5030 C   0  0  0  0  0  0  0  0  0  0  0  0
   -3.7240   17.7431  -35.1741 H   0  0  0  0  0  0  0  0  0  0  0  0
   -2.9308   16.4292  -36.1075 H   0  0  0  0  0  0  0  0  0  0  0  0
   -4.7211   16.5764  -36.1075 H   0  0  0  0  0  0  0  0  0  0  0  0
   -6.5760   19.9700  -32.3020 C   0  0  0  0  0  0  0  0  0  0  0  0
   -5.4776   19.9133  -32.3169 H   0  0  0  0  0  0  0  0  0  0  0  0
   -6.9690   23.3980  -30.7760 C   0  0  0  0  0  0  0  0  0  0  0  0
   -8.0262   23.3442  -30.4769 H   0  0  0  0  0  0  0  0  0  0  0  0
   -6.2000   24.5060  -30.4150 C   0  0  0  0  0  0  0  0  0  0  0  0
   -6.6464   25.3266  -29.8343 H   0  0  0  0  0  0  0  0  0  0  0  0
  1  2  1  0
  2  3  2  0
  3  4  1  0
  4  5  1  0
  5  6  1  0
  5  7  2  0
  7  8  1  0
  8  9  2  0
  9 10  1  0
  9 11  1  0
 11 12  1  0
 11 13  2  0
 13 14  1  0
 13 15  1  0
 15 16  1  0
 16 17  2  0
 16 18  1  0
 18 19  1  0
 18 20  1  0
 20 21  2  0
 21 22  1  0
 21 23  1  0
 23 24  1  0
 23 25  2  0
 25 26  1  0
 25 27  1  0
 27 28  1  0
 27 29  2  0
 29 30  1  0
 30 31  1  0
 30 32  1  0
 30 33  1  0
 15 34  2  0
 34 35  1  0
  7 36  1  0
 36 37  1  0
 36 38  2  0
 38 39  1  0
 38  3  1  0
 34  8  1  0
 29 20  1  0
M  CHG  1   4  -1
M  END
>  <UniqueID>  (5) 
5

>  <SMILES>  (5) 
[H]/N=c1/ccc(-c2cccc(C(=O)Nc3c(C)cc(F)cc3F)c2)c[n-]1

>  <Energy>  (5) 
55.697926905405716

>  <Genealogy>  (5) 
Cc1cc(F)cc(F)c1NC(=O)c1cccc(-c2ccc(=N)[n-]c2)c1 (protonated)
[H]/N=c1/ccc(-c2cccc(C(=O)Nc3c(C)cc(F)cc3F)c2)c[n-]1 (cis-trans isomerization)
[H]/N=c1/ccc(-c2cccc(C(=O)Nc3c(C)cc(F)cc3F)c2)c[n-]1 (3D coordinates assigned)
[H]/N=c1/ccc(-c2cccc(C(=O)Nc3c(C)cc(F)cc3F)c2)c[n-]1 (optimized conformer: 55.697926905405716 kcal/mol)

>  <smiles>  (5) 
Cc1cc(F)cc(F)c1NC(=O)c1cccc(-c2ccc(=N)[nH]c2)c1

>  <score_type>  (5) 
oracle

>  <origin>  (5) 
adgpu

>  <m_score__min__energy>  (5) 
-10.5

>  <m_primary>  (5) 
energy

$$$$
5:0
     RDKit          3D

 48 51  0  0  0  0  0  0  0  0999 V2000
   -8.2080   18.1920  -31.6580 C   0  0  0  0  0  0  0  0  0  0  0  0
   -7.0330   17.9830  -32.5780 C   0  0  0  0  0  0  0  0  0  0  0  0
   -6.4490   16.7070  -32.6610 C   0  0  0  0  0  0  0  0  0  0  0  0
   -5.3670   16.4730  -33.5110 C   0  0  0  0  0  0  0  0  0  0  0  0
   -4.8550   17.5080  -34.2920 C   0  0  0  0  0  0  0  0  0  0  0  0
   -5.4250   18.7810  -34.2280 C   0  0  0  0  0  0  0  0  0  0  0  0
   -6.5180   19.0350  -33.3780 C   0  0  0  0  0  0  0  0  0  0  0  0
   -7.1170   20.4250  -33.3520 C   0  0  0  0  0  0  0  0  0  0  0  0
   -6.5390   21.2190  -32.2500 N   0  0  0  0  0  0  0  0  0  0  0  0
   -7.4360   22.3230  -31.8170 C   0  0  0  0  0  0  0  0  0  0  0  0
   -6.9870   23.6920  -32.3560 C   0  0  0  0  0  0  0  0  0  0  0  0
   -5.6060   24.0400  -31.9340 N   0  0  0  0  0  0  0  0  0  0  0  0
   -5.6110   24.9310  -30.7560 C   0  0  0  0  0  0  0  0  0  0  0  0
   -4.5430   24.5340  -29.7840 C   0  0  0  0  0  0  0  0  0  0  0  0
   -4.6660   23.5360  -28.8890 N   0  0  0  0  0  0  0  0  0  0  0  0
   -3.5180   23.4860  -28.2320 N   0  0  0  0  0  0  0  0  0  0  0  0
   -2.7410   24.4560  -28.7530 C   0  0  0  0  0  0  0  0  0  0  0  0
   -1.3700   24.7440  -28.3050 C   0  0  0  0  0  0  0  0  0  0  0  0
   -0.3020   23.9080  -28.6620 C   0  0  0  0  0  0  0  0  0  0  0  0
    0.9510   24.2050  -28.2290 N   0  0  0  0  0  0  0  0  0  0  0  0
    1.1900   25.2970  -27.4570 C   0  0  0  0  0  0  0  0  0  0  0  0
    0.1290   26.1300  -27.1000 C   0  0  0  0  0  0  0  0  0  0  0  0
   -1.1250   25.8360  -27.5320 N   0  0  0  0  0  0  0  0  0  0  0  0
   -3.3650   25.1040  -29.7070 O   0  0  0  0  0  0  0  0  0  0  0  0
   -4.7440   22.8500  -31.7120 C   0  0  0  0  0  0  0  0  0  0  0  0
   -5.1720   21.6730  -32.5940 C   0  0  0  0  0  0  0  0  0  0  0  0
   -7.8705   18.1320  -30.6128 H   0  0  0  0  0  0  0  0  0  0  0  0
   -8.6483   19.1826  -31.8448 H   0  0  0  0  0  0  0  0  0  0  0  0
   -8.9629   17.4140  -31.8448 H   0  0  0  0  0  0  0  0  0  0  0  0
   -6.8489   15.8845  -32.0498 H   0  0  0  0  0  0  0  0  0  0  0  0
   -4.9176   15.4704  -33.5647 H   0  0  0  0  0  0  0  0  0  0  0  0
   -4.0008   17.3216  -34.9596 H   0  0  0  0  0  0  0  0  0  0  0  0
   -5.0162   19.5929  -34.8475 H   0  0  0  0  0  0  0  0  0  0  0  0
   -6.9073   20.9270  -34.3080 H   0  0  0  0  0  0  0  0  0  0  0  0
   -8.2027   20.3406  -33.1969 H   0  0  0  0  0  0  0  0  0  0  0  0
   -8.4525   22.1158  -32.1829 H   0  0  0  0  0  0  0  0  0  0  0  0
   -7.4034   22.3690  -30.7184 H   0  0  0  0  0  0  0  0  0  0  0  0
   -7.0256   23.6692  -33.4551 H   0  0  0  0  0  0  0  0  0  0  0  0
   -7.6659   24.4539  -31.9453 H   0  0  0  0  0  0  0  0  0  0  0  0
   -5.4324   25.9652  -31.0854 H   0  0  0  0  0  0  0  0  0  0  0  0
   -6.5884   24.8511  -30.2578 H   0  0  0  0  0  0  0  0  0  0  0  0
   -0.4773   23.0199  -29.2869 H   0  0  0  0  0  0  0  0  0  0  0  0
    2.2113   25.5226  -27.1162 H   0  0  0  0  0  0  0  0  0  0  0  0
    0.3064   27.0171  -26.4742 H   0  0  0  0  0  0  0  0  0  0  0  0
   -3.7028   23.1139  -31.9490 H   0  0  0  0  0  0  0  0  0  0  0  0
   -4.8415   22.5453  -30.6595 H   0  0  0  0  0  0  0  0  0  0  0  0
   -5.1525   21.9879  -33.6478 H   0  0  0  0  0  0  0  0  0  0  0  0
   -4.4743   20.8391  -32.4269 H   0  0  0  0  0  0  0  0  0  0  0  0
  1  2  1  0
  2  3  2  0
  3  4  1  0
  4  5  2  0
  5  6  1  0
  6  7  2  0
  7  8  1  0
  8  9  1  0
  9 10  1  0
 10 11  1  0
 11 12  1  0
 12 13  1  0
 13 14  1  0
 14 15  2  0
 15 16  1  0
 16 17  2  0
 17 18  1  0
 18 19  2  0
 19 20  1  0
 20 21  2  0
 21 22  1  0
 22 23  2  0
 17 24  1  0
 12 25  1  0
 25 26  1  0
  7  2  1  0
 26  9  1  0
 24 14  1  0
 23 18  1  0
  1 27  1  0
  1 28  1  0
  1 29  1  0
  3 30  1  0
  4 31  1  0
  5 32  1  0
  6 33  1  0
  8 34  1  0
  8 35  1  0
 10 36  1  0
 10 37  1  0
 11 38  1  0
 11 39  1  0
 13 40  1  0
 13 41  1  0
 19 42  1  0
 21 43  1  0
 22 44  1  0
 25 45  1  0
 25 46  1  0
 26 47  1  0
 26 48  1  0
M  END
>  <UniqueID>  (6) 
6

>  <SMILES>  (6) 
Cc1ccccc1CN1CCN(Cc2nnc(-c3cnccn3)o2)CC1

>  <Energy>  (6) 
100.29589737560437

>  <Genealogy>  (6) 
Cc1ccccc1CN1CCN(Cc2nnc(-c3cnccn3)o2)CC1 (3D coordinates assigned)
Cc1ccccc1CN1CCN(Cc2nnc(-c3cnccn3)o2)CC1 (nonaromatic ring conformer: 100.29589737560437 kcal/mol)

>  <smiles>  (6) 
Cc1ccccc1CN1CCN(Cc2nnc(-c3cnccn3)o2)CC1

>  <score_type>  (6) 
oracle

>  <origin>  (6) 
adgpu

>  <m_score__min__energy>  (6) 
-9.1899999999999995

>  <m_primary>  (6) 
energy

$$$$
6:0
     RDKit          3D

 43 45  0  0  0  0  0  0  0  0999 V2000
   -0.4530   24.1180  -24.6790 C   0  0  0  0  0  0  0  0  0  0  0  0
   -0.8290   23.2420  -25.7370 O   0  0  0  0  0  0  0  0  0  0  0  0
   -1.5300   23.6440  -26.8840 C   0  0  0  0  0  0  0  0  0  0  0  0
   -2.8530   23.2400  -27.1420 C   0  0  0  0  0  0  0  0  0  0  0  0
   -3.5080   23.6680  -28.3010 C   0  0  0  0  0  0  0  0  0  0  0  0
   -2.8570   24.5180  -29.2120 C   0  0  0  0  0  0  0  0  0  0  0  0
   -3.4860   24.9600  -30.4230 N   0  0  0  0  0  0  0  0  0  0  0  0
   -4.8960   25.1120  -30.6470 C   0  0  0  0  0  0  0  0  0  0  0  0
   -5.4010   26.2640  -30.7340 O   0  0  0  0  0  0  0  0  0  0  0  0
   -5.7510   23.9160  -30.8290 C   0  0  0  0  0  0  0  0  0  0  0  0
   -6.8250   23.6680  -29.9550 C   0  0  0  0  0  0  0  0  0  0  0  0
   -7.6300   22.5400  -30.1270 C   0  0  0  0  0  0  0  0  0  0  0  0
   -7.3750   21.6450  -31.1670 C   0  0  0  0  0  0  0  0  0  0  0  0
   -6.3030   21.8710  -32.0470 C   0  0  0  0  0  0  0  0  0  0  0  0
   -5.9960   20.9710  -33.1220 N   0  0  0  0  0  0  0  0  0  0  0  0
   -4.8740   19.6530  -33.0300 S   0  0  0  0  0  0  0  0  0  0  0  0
   -5.3260   18.6970  -31.9620 O   0  0  0  0  0  0  0  0  0  0  0  0
   -4.8460   18.9370  -34.3490 O   0  0  0  0  0  0  0  0  0  0  0  0
   -3.2600   20.2630  -32.6780 C   0  0  0  0  0  0  0  0  0  0  0  0
   -2.8600   20.4980  -31.3550 C   0  0  0  0  0  0  0  0  0  0  0  0
   -1.5830   21.0020  -31.0850 C   0  0  0  0  0  0  0  0  0  0  0  0
   -1.0910   21.3030  -29.4280 Cl  0  0  0  0  0  0  0  0  0  0  0  0
   -0.7010   21.2700  -32.1370 C   0  0  0  0  0  0  0  0  0  0  0  0
   -1.0920   21.0300  -33.4580 C   0  0  0  0  0  0  0  0  0  0  0  0
    0.0110   21.3720  -34.7780 Cl  0  0  0  0  0  0  0  0  0  0  0  0
   -2.3690   20.5260  -33.7290 C   0  0  0  0  0  0  0  0  0  0  0  0
   -5.5010   23.0070  -31.8750 C   0  0  0  0  0  0  0  0  0  0  0  0
   -1.5330   24.8970  -28.9640 C   0  0  0  0  0  0  0  0  0  0  0  0
   -0.8770   24.4710  -27.8060 C   0  0  0  0  0  0  0  0  0  0  0  0
   -0.6601   23.6355  -23.7124 H   0  0  0  0  0  0  0  0  0  0  0  0
    0.6211   24.3433  -24.7537 H   0  0  0  0  0  0  0  0  0  0  0  0
   -1.0296   25.0518  -24.7537 H   0  0  0  0  0  0  0  0  0  0  0  0
   -3.3743   22.5846  -26.4288 H   0  0  0  0  0  0  0  0  0  0  0  0
   -4.5381   23.3378  -28.5009 H   0  0  0  0  0  0  0  0  0  0  0  0
   -7.0320   24.3668  -29.1311 H   0  0  0  0  0  0  0  0  0  0  0  0
   -8.4689   22.3561  -29.4397 H   0  0  0  0  0  0  0  0  0  0  0  0
   -8.0150   20.7601  -31.2983 H   0  0  0  0  0  0  0  0  0  0  0  0
   -3.5521   20.2855  -30.5269 H   0  0  0  0  0  0  0  0  0  0  0  0
    0.3015   21.6701  -31.9249 H   0  0  0  0  0  0  0  0  0  0  0  0
   -2.6747   20.3357  -34.7684 H   0  0  0  0  0  0  0  0  0  0  0  0
   -4.6652   23.1911  -32.5661 H   0  0  0  0  0  0  0  0  0  0  0  0
   -1.0041   25.5357  -29.6867 H   0  0  0  0  0  0  0  0  0  0  0  0
    0.1595   24.7875  -27.6175 H   0  0  0  0  0  0  0  0  0  0  0  0
  1  2  1  0
  2  3  1  0
  3  4  2  0
  4  5  1  0
  5  6  2  0
  6  7  1  0
  7  8  1  0
  8  9  2  0
  8 10  1  0
 10 11  2  0
 11 12  1  0
 12 13  2  0
 13 14  1  0
 14 15  1  0
 15 16  1  0
 16 17  2  0
 16 18  2  0
 16 19  1  0
 19 20  2  0
 20 21  1  0
 21 22  1  0
 21 23  2  0
 23 24  1  0
 24 25  1  0
 24 26  2  0
 14 27  2  0
  6 28  1  0
 28 29  2  0
 29  3  1  0
 27 10  1  0
 26 19  1  0
  1 30  1  0
  1 31  1  0
  1 32  1  0
  4 33  1  0
  5 34  1  0
 11 35  1  0
 12 36  1  0
 13 37  1  0
 20 38  1  0
 23 39  1  0
 26 40  1  0
 27 41  1  0
 28 42  1  0
 29 43  1  0
M  CHG  2   7  -1  15  -1
M  END
>  <UniqueID>  (7) 
7

>  <SMILES>  (7) 
COc1ccc([N-]C(=O)c2cccc([N-]S(=O)(=O)c3cc(Cl)cc(Cl)c3)c2)cc1

>  <Energy>  (7) 
52.22581038190515

>  <Genealogy>  (7) 
COc1ccc([N-]C(=O)c2cccc([N-]S(=O)(=O)c3cc(Cl)cc(Cl)c3)c2)cc1 (protonated)
COc1ccc([N-]C(=O)c2cccc([N-]S(=O)(=O)c3cc(Cl)cc(Cl)c3)c2)cc1 (3D coordinates assigned)
COc1ccc([N-]C(=O)c2cccc([N-]S(=O)(=O)c3cc(Cl)cc(Cl)c3)c2)cc1 (optimized conformer: 52.22581038190515 kcal/mol)

>  <smiles>  (7) 
COc1ccc(NC(=O)c2cccc(NS(=O)(=O)c3cc(Cl)cc(Cl)c3)c2)cc1

>  <score_type>  (7) 
oracle

>  <origin>  (7) 
adgpu

>  <m_score__min__energy>  (7) 
-10.82

>  <m_primary>  (7) 
energy

$$$$
7:0
     RDKit          3D

 35 37  0  0  0  0  0  0  0  0999 V2000
   -5.1031   19.2063  -34.2112 H   0  0  0  0  0  0  0  0  0  0  0  0
   -5.8280   19.6010  -33.4840 C   0  0  0  0  0  0  0  0  0  0  0  0
   -6.9380   18.8820  -33.1750 N   0  0  0  0  0  0  0  0  0  0  0  0
   -7.8580   19.3320  -32.2790 C   0  0  0  0  0  0  0  0  0  0  0  0
   -9.0740   18.5120  -31.9850 C   0  0  0  0  0  0  0  0  0  0  0  0
   -9.2031   18.4250  -30.8961 H   0  0  0  0  0  0  0  0  0  0  0  0
   -9.9587   18.9987  -32.4214 H   0  0  0  0  0  0  0  0  0  0  0  0
   -8.9544   17.5094  -32.4214 H   0  0  0  0  0  0  0  0  0  0  0  0
   -7.6740   20.5730  -31.6570 C   0  0  0  0  0  0  0  0  0  0  0  0
   -8.4191   20.9456  -30.9387 H   0  0  0  0  0  0  0  0  0  0  0  0
   -6.5340   21.3420  -31.9530 C   0  0  0  0  0  0  0  0  0  0  0  0
   -6.3190   22.6590  -31.2990 C   0  0  0  0  0  0  0  0  0  0  0  0
   -7.4120   23.4290  -30.8660 C   0  0  0  0  0  0  0  0  0  0  0  0
   -8.4357   23.0498  -31.0012 H   0  0  0  0  0  0  0  0  0  0  0  0
   -7.2060   24.6730  -30.2650 C   0  0  0  0  0  0  0  0  0  0  0  0
   -8.0676   25.2736  -29.9382 H   0  0  0  0  0  0  0  0  0  0  0  0
   -5.9100   25.1560  -30.0780 C   0  0  0  0  0  0  0  0  0  0  0  0
   -5.7561   26.1432  -29.6178 H   0  0  0  0  0  0  0  0  0  0  0  0
   -4.8050   24.3930  -30.4720 C   0  0  0  0  0  0  0  0  0  0  0  0
   -3.4890   24.9390  -30.2830 N   0  0  0  0  0  0  0  0  0  0  0  0
   -2.6060   24.5460  -29.4100 C   0  0  0  0  0  0  0  0  0  0  0  0
   -2.8370   23.6010  -28.4710 N   0  0  0  0  0  0  0  0  0  0  0  0
   -1.6760   23.5510  -27.7890 C   0  0  0  0  0  0  0  0  0  0  0  0
   -1.4500   22.6870  -26.5930 C   0  0  0  0  0  0  0  0  0  0  0  0
   -1.6048   23.2787  -25.6787 H   0  0  0  0  0  0  0  0  0  0  0  0
   -2.1582   21.8455  -26.6095 H   0  0  0  0  0  0  0  0  0  0  0  0
   -0.4204   22.3001  -26.6095 H   0  0  0  0  0  0  0  0  0  0  0  0
   -0.7860   24.4720  -28.2990 C   0  0  0  0  0  0  0  0  0  0  0  0
    0.2321   24.6617  -27.9282 H   0  0  0  0  0  0  0  0  0  0  0  0
   -1.3800   25.0960  -29.3270 N   0  0  0  0  0  0  0  0  0  0  0  0
   -0.9800   25.8540  -29.9230 H   0  0  0  0  0  0  0  0  0  0  0  0
   -5.0160   23.1560  -31.1090 C   0  0  0  0  0  0  0  0  0  0  0  0
   -4.1536   22.5715  -31.4621 H   0  0  0  0  0  0  0  0  0  0  0  0
   -5.6050   20.8410  -32.8800 C   0  0  0  0  0  0  0  0  0  0  0  0
   -4.7054   21.4228  -33.1294 H   0  0  0  0  0  0  0  0  0  0  0  0
  1  2  1  0
  2  3  2  0
  3  4  1  0
  4  5  1  0
  5  6  1  0
  5  7  1  0
  5  8  1  0
  4  9  2  0
  9 10  1  0
  9 11  1  0
 11 12  1  0
 12 13  2  0
 13 14  1  0
 13 15  1  0
 15 16  1  0
 15 17  2  0
 17 18  1  0
 17 19  1  0
 19 20  1  0
 20 21  2  0
 21 22  1  0
 22 23  1  0
 23 24  1  0
 24 25  1  0
 24 26  1  0
 24 27  1  0
 23 28  2  0
 28 29  1  0
 28 30  1  0
 30 31  1  0
 19 32  2  0
 32 33  1  0
 11 34  2  0
 34 35  1  0
 34  2  1  0
 32 12  1  0
 30 21  1  0
M  CHG  1  22  -1
M  END
>  <UniqueID>  (8) 
8

>  <SMILES>  (8) 
Cc1cc(-c2cccc(/N=c3\[n-]c(C)c[nH]3)c2)ccn1

>  <Energy>  (8) 
75.1296665134705

>  <Genealogy>  (8) 
Cc1cc(-c2cccc(N=c3[n-]c(C)c[nH]3)c2)ccn1 (protonated)
Cc1cc(-c2cccc(/N=c3\[n-]c(C)c[nH]3)c2)ccn1 (cis-trans isomerization)
Cc1cc(-c2cccc(/N=c3\[n-]c(C)c[nH]3)c2)ccn1 (3D coordinates assigned)
Cc1cc(-c2cccc(/N=c3\[n-]c(C)c[nH]3)c2)ccn1 (optimized conformer: 75.1296665134705 kcal/mol)

>  <smiles>  (8) 
Cc1cc(-c2cccc(N=c3[nH]cc(C)[nH]3)c2)ccn1

>  <score_type>  (8) 
oracle

>  <origin>  (8) 
adgpu

>  <m_score__min__energy>  (8) 
-9.8499999999999996

>  <m_primary>  (8) 
energy

$$$$
8:0
     RDKit          3D

 35 36  0  0  0  0  0  0  0  0999 V2000
    1.1750   20.1050  -28.8390 O   0  0  0  0  0  0  0  0  0  0  0  0
    0.1000   19.6000  -29.2640 C   0  0  0  0  0  0  0  0  0  0  0  0
    0.1050   18.7740  -30.5100 C   0  0  0  0  0  0  0  0  0  0  0  0
    0.1210   19.6660  -31.7220 C   0  0  0  0  0  0  0  0  0  0  0  0
    1.3200   19.8920  -32.4170 C   0  0  0  0  0  0  0  0  0  0  0  0
    1.3390   20.7320  -33.5340 C   0  0  0  0  0  0  0  0  0  0  0  0
    0.1650   21.3570  -33.9630 C   0  0  0  0  0  0  0  0  0  0  0  0
    0.2000   22.1890  -35.0760 O   0  0  0  0  0  0  0  0  0  0  0  0
   -1.0370   21.1500  -33.2650 C   0  0  0  0  0  0  0  0  0  0  0  0
   -2.2200   21.7700  -33.6660 O   0  0  0  0  0  0  0  0  0  0  0  0
   -1.0520   20.3120  -32.1440 C   0  0  0  0  0  0  0  0  0  0  0  0
   -1.1040   19.7880  -28.5770 O   0  0  0  0  0  0  0  0  0  0  0  0
   -1.2930   20.7730  -27.5630 C   0  0  0  0  0  0  0  0  0  0  0  0
   -2.7600   21.2130  -27.4640 C   0  0  0  0  0  0  0  0  0  0  0  0
   -3.0620   22.3990  -28.3470 C   0  0  0  0  0  0  0  0  0  0  0  0
   -4.2000   22.4000  -29.1700 C   0  0  0  0  0  0  0  0  0  0  0  0
   -4.4750   23.4990  -29.9910 C   0  0  0  0  0  0  0  0  0  0  0  0
   -3.6080   24.5950  -30.0110 C   0  0  0  0  0  0  0  0  0  0  0  0
   -3.8840   25.6790  -30.8350 O   0  0  0  0  0  0  0  0  0  0  0  0
   -2.4650   24.5960  -29.2050 C   0  0  0  0  0  0  0  0  0  0  0  0
   -1.5890   25.6740  -29.2370 O   0  0  0  0  0  0  0  0  0  0  0  0
   -2.2000   23.5080  -28.3660 C   0  0  0  0  0  0  0  0  0  0  0  0
    0.9991   18.1332  -30.5181 H   0  0  0  0  0  0  0  0  0  0  0  0
   -0.8018   18.1518  -30.5330 H   0  0  0  0  0  0  0  0  0  0  0  0
    2.2479   19.4061  -32.0811 H   0  0  0  0  0  0  0  0  0  0  0  0
    2.2806   20.9016  -34.0768 H   0  0  0  0  0  0  0  0  0  0  0  0
   -2.2930   22.2690  -34.5440 H   0  0  0  0  0  0  0  0  0  0  0  0
   -1.9896   20.1584  -31.5896 H   0  0  0  0  0  0  0  0  0  0  0  0
   -0.9810   20.3528  -26.5955 H   0  0  0  0  0  0  0  0  0  0  0  0
   -0.6881   21.6539  -27.8242 H   0  0  0  0  0  0  0  0  0  0  0  0
   -3.4026   20.3733  -27.7672 H   0  0  0  0  0  0  0  0  0  0  0  0
   -2.9531   21.5103  -26.4227 H   0  0  0  0  0  0  0  0  0  0  0  0
   -4.8776   21.5335  -29.1691 H   0  0  0  0  0  0  0  0  0  0  0  0
   -5.3758   23.5004  -30.6223 H   0  0  0  0  0  0  0  0  0  0  0  0
   -1.3115   23.5212  -27.7176 H   0  0  0  0  0  0  0  0  0  0  0  0
  1  2  2  0
  2  3  1  0
  3  4  1  0
  4  5  2  0
  5  6  1  0
  6  7  2  0
  7  8  1  0
  7  9  1  0
  9 10  1  0
  9 11  2  0
  2 12  1  0
 12 13  1  0
 13 14  1  0
 14 15  1  0
 15 16  2  0
 16 17  1  0
 17 18  2  0
 18 19  1  0
 18 20  1  0
 20 21  1  0
 20 22  2  0
 11  4  1  0
 22 15  1  0
  3 23  1  0
  3 24  1  0
  5 25  1  0
  6 26  1  0
 10 27  1  0
 11 28  1  0
 13 29  1  0
 13 30  1  0
 14 31  1  0
 14 32  1  0
 16 33  1  0
 17 34  1  0
 22 35  1  0
M  CHG  3   8  -1  19  -1  21  -1
M  END
>  <UniqueID>  (9) 
9

>  <SMILES>  (9) 
O=C(Cc1ccc([O-])c(O)c1)OCCc1ccc([O-])c([O-])c1

>  <Energy>  (9) 
26.689839692478518

>  <Genealogy>  (9) 
O=C(Cc1ccc([O-])c(O)c1)OCCc1ccc([O-])c([O-])c1 (protonated)
O=C(Cc1ccc([O-])c(O)c1)OCCc1ccc([O-])c([O-])c1 (3D coordinates assigned)
O=C(Cc1ccc([O-])c(O)c1)OCCc1ccc([O-])c([O-])c1 (optimized conformer: 26.689839692478518 kcal/mol)

>  <smiles>  (9) 
O=C(Cc1ccc(O)c(O)c1)OCCc1ccc(O)c(O)c1

>  <score_type>  (9) 
oracle

>  <origin>  (9) 
adgpu

>  <m_score__min__energy>  (9) 
-12.5

>  <m_primary>  (9) 
energy

$$$$
9:0
     RDKit          3D

 28 29  0  0  0  0  0  0  0  0999 V2000
   -8.9570   20.1810  -32.5070 O   0  0  0  0  0  0  0  0  0  0  0  0
   -7.6990   20.2290  -32.4160 C   0  0  0  0  0  0  0  0  0  0  0  0
   -6.9210   19.0720  -32.7580 N   0  0  0  0  0  0  0  0  0  0  0  0
   -7.5590   17.7880  -33.0450 C   0  0  0  0  0  0  0  0  0  0  0  0
   -6.5370   16.7630  -33.4250 C   0  0  0  0  0  0  0  0  0  0  0  0
   -6.7980   15.5470  -34.0240 C   0  0  0  0  0  0  0  0  0  0  0  0
   -5.5660   14.9590  -34.2140 C   0  0  0  0  0  0  0  0  0  0  0  0
   -4.6340   15.8510  -33.7250 C   0  0  0  0  0  0  0  0  0  0  0  0
   -5.2440   16.9190  -33.2630 O   0  0  0  0  0  0  0  0  0  0  0  0
   -7.0500   21.4880  -31.9740 C   0  0  0  0  0  0  0  0  0  0  0  0
   -5.6890   21.7320  -32.2250 C   0  0  0  0  0  0  0  0  0  0  0  0
   -5.0910   22.9200  -31.7970 C   0  0  0  0  0  0  0  0  0  0  0  0
   -5.8370   23.8890  -31.1020 C   0  0  0  0  0  0  0  0  0  0  0  0
   -5.2230   25.1130  -30.6600 N   0  0  0  0  0  0  0  0  0  0  0  0
   -5.9060   26.0180  -30.1400 O   0  0  0  0  0  0  0  0  0  0  0  0
   -3.8670   25.3040  -30.8010 O   0  0  0  0  0  0  0  0  0  0  0  0
   -7.1940   23.6380  -30.8400 C   0  0  0  0  0  0  0  0  0  0  0  0
   -7.7930   22.4500  -31.2670 C   0  0  0  0  0  0  0  0  0  0  0  0
   -5.8850   19.1610  -32.8600 H   0  0  0  0  0  0  0  0  0  0  0  0
   -8.0990   17.4451  -32.1501 H   0  0  0  0  0  0  0  0  0  0  0  0
   -8.2571   17.9197  -33.8848 H   0  0  0  0  0  0  0  0  0  0  0  0
   -7.7816   15.1344  -34.2929 H   0  0  0  0  0  0  0  0  0  0  0  0
   -5.3660   13.9758  -34.6650 H   0  0  0  0  0  0  0  0  0  0  0  0
   -3.5455   15.6922  -33.7223 H   0  0  0  0  0  0  0  0  0  0  0  0
   -5.0900   20.9821  -32.7624 H   0  0  0  0  0  0  0  0  0  0  0  0
   -4.0260   23.0993  -32.0057 H   0  0  0  0  0  0  0  0  0  0  0  0
   -7.7905   24.3835  -30.2937 H   0  0  0  0  0  0  0  0  0  0  0  0
   -8.8551   22.2657  -31.0482 H   0  0  0  0  0  0  0  0  0  0  0  0
  1  2  2  0
  2  3  1  0
  3  4  1  0
  4  5  1  0
  5  6  2  0
  6  7  1  0
  7  8  2  0
  8  9  1  0
  2 10  1  0
 10 11  2  0
 11 12  1  0
 12 13  2  0
 13 14  1  0
 14 15  2  0
 14 16  1  0
 13 17  1  0
 17 18  2  0
  9  5  1  0
 18 10  1  0
  3 19  1  0
  4 20  1  0
  4 21  1  0
  6 22  1  0
  7 23  1  0
  8 24  1  0
 11 25  1  0
 12 26  1  0
 17 27  1  0
 18 28  1  0
M  CHG  2  14   1  16  -1
M  END
>  <UniqueID>  (10) 
10

>  <SMILES>  (10) 
O=C(NCc1ccco1)c1ccc([N+](=O)[O-])cc1

>  <Energy>  (10) 
55.393773486577494

>  <Genealogy>  (10) 
O=C(NCc1ccco1)c1ccc([N+](=O)[O-])cc1 (3D coordinates assigned)
O=C(NCc1ccco1)c1ccc([N+](=O)[O-])cc1 (optimized conformer: 55.393773486577494 kcal/mol)

>  <smiles>  (10) 
O=C(NCc1ccco1)c1ccc([N+](=O)[O-])cc1

>  <score_type>  (10) 
oracle

>  <origin>  (10) 
adgpu

>  <m_score__min__energy>  (10) 
-6.7000000000000002

>  <m_primary>  (10) 
energy

$$$$
10:0
     RDKit          3D

 38 40  0  0  1  0  0  0  0  0999 V2000
   -1.7690   21.2120  -27.5100 C   0  0  0  0  0  0  0  0  0  0  0  0
   -2.1120   22.5140  -28.1250 C   0  0  0  0  0  0  0  0  0  0  0  0
   -1.3620   23.6440  -27.8920 C   0  0  0  0  0  0  0  0  0  0  0  0
   -1.7740   24.8000  -28.5160 C   0  0  0  0  0  0  0  0  0  0  0  0
   -1.1100   25.8860  -28.3340 N   0  0  0  0  0  0  0  0  0  0  0  0
    0.0470   25.8440  -27.4750 C   0  0  0  0  0  0  0  0  0  0  0  0
   -0.2670   26.2650  -26.0880 C   0  0  0  0  0  0  0  0  0  0  0  0
   -0.2490   25.3650  -25.0350 C   0  0  0  0  0  0  0  0  0  0  0  0
   -0.5390   25.7430  -23.7320 C   0  0  0  0  0  0  0  0  0  0  0  0
   -0.8620   27.0450  -23.4330 C   0  0  0  0  0  0  0  0  0  0  0  0
   -0.8800   27.9440  -24.4790 C   0  0  0  0  0  0  0  0  0  0  0  0
   -0.5910   27.5810  -25.7850 C   0  0  0  0  0  0  0  0  0  0  0  0
   -2.8670   24.7880  -29.3140 N   0  0  0  0  0  0  0  0  0  0  0  0
   -3.6060   23.7070  -29.5510 C   0  0  0  0  0  0  0  0  0  0  0  0
   -4.7860   23.5910  -30.3650 C   0  0  0  0  0  0  0  0  0  0  0  0
   -5.9330   24.2980  -29.9660 C   0  0  0  0  0  0  0  0  0  0  0  0
   -7.1060   24.2580  -30.6770 C   0  0  0  0  0  0  0  0  0  0  0  0
   -7.2330   23.5200  -31.8300 C   0  0  0  0  0  0  0  0  0  0  0  0
   -6.1240   22.8190  -32.2430 C   0  0  0  0  0  0  0  0  0  0  0  0
   -4.9240   22.8610  -31.5150 C   0  0  0  0  0  0  0  0  0  0  0  0
   -3.6150   21.9260  -32.1830 Cl  0  0  0  0  0  0  0  0  0  0  0  0
   -3.1750   22.5720  -28.9200 N   0  0  0  0  0  0  0  0  0  0  0  0
   -1.7938   21.3062  -26.4143 H   0  0  0  0  0  0  0  0  0  0  0  0
   -2.4977   20.4523  -27.8293 H   0  0  0  0  0  0  0  0  0  0  0  0
   -0.7606   20.9099  -27.8293 H   0  0  0  0  0  0  0  0  0  0  0  0
   -0.4768   23.6246  -27.2393 H   0  0  0  0  0  0  0  0  0  0  0  0
    0.4344   24.8147  -27.4533 H   0  0  0  0  0  0  0  0  0  0  0  0
    0.7922   26.5449  -27.8792 H   0  0  0  0  0  0  0  0  0  0  0  0
    0.0040   24.3141  -25.2391 H   0  0  0  0  0  0  0  0  0  0  0  0
   -0.5101   24.9919  -22.9289 H   0  0  0  0  0  0  0  0  0  0  0  0
   -1.0960   27.3566  -22.4043 H   0  0  0  0  0  0  0  0  0  0  0  0
   -1.1344   28.9931  -24.2677 H   0  0  0  0  0  0  0  0  0  0  0  0
   -0.6183   28.3371  -26.5835 H   0  0  0  0  0  0  0  0  0  0  0  0
   -3.1130   25.6810  -29.7500 H   0  0  0  0  0  0  0  0  0  0  0  0
   -5.8890   24.9058  -29.0502 H   0  0  0  0  0  0  0  0  0  0  0  0
   -7.9702   24.8334  -30.3137 H   0  0  0  0  0  0  0  0  0  0  0  0
   -8.1763   23.4915  -32.3951 H   0  0  0  0  0  0  0  0  0  0  0  0
   -6.1781   22.2144  -33.1604 H   0  0  0  0  0  0  0  0  0  0  0  0
  1  2  1  0
  2  3  2  0
  3  4  1  0
  4  5  2  0
  5  6  1  0
  6  7  1  0
  7  8  2  0
  8  9  1  0
  9 10  2  0
 10 11  1  0
 11 12  2  0
  4 13  1  0
 13 14  1  0
 14 15  1  0
 15 16  2  0
 16 17  1  0
 17 18  2  0
 18 19  1  0
 19 20  2  0
 20 21  1  0
 14 22  2  0
 22  2  1  0
 12  7  1  0
 20 15  1  0
  1 23  1  0
  1 24  1  0
  1 25  1  0
  3 26  1  0
  6 27  1  0
  6 28  1  0
  8 29  1  0
  9 30  1  0
 10 31  1  0
 11 32  1  0
 12 33  1  0
 13 34  1  0
 16 35  1  0
 17 36  1  0
 18 37  1  0
 19 38  1  0
M  END
>  <smiles>  (11) 
Cc1cc(=NCc2ccccc2)[nH]c(-c2ccccc2Cl)n1

>  <score_type>  (11) 
oracle

>  <origin>  (11) 
adgpu

>  <m_score__min__energy>  (11) 
-8.3699999999999992

>  <m_primary>  (11) 
energy

$$$$
11:0
     RDKit          3D

 45 48  0  0  0  0  0  0  0  0999 V2000
   -5.1760   15.3350  -34.3300 C   0  0  0  0  0  0  0  0  0  0  0  0
   -5.8120   16.6240  -33.9010 C   0  0  0  0  0  0  0  0  0  0  0  0
   -6.6050   16.6710  -32.7460 C   0  0  0  0  0  0  0  0  0  0  0  0
   -7.1690   17.8790  -32.3260 C   0  0  0  0  0  0  0  0  0  0  0  0
   -6.9370   19.0640  -33.0480 C   0  0  0  0  0  0  0  0  0  0  0  0
   -7.5350   20.3480  -32.5990 C   0  0  0  0  0  0  0  0  0  0  0  0
   -8.9180   20.4480  -32.3640 C   0  0  0  0  0  0  0  0  0  0  0  0
   -9.4800   21.6600  -31.9540 C   0  0  0  0  0  0  0  0  0  0  0  0
   -8.6710   22.7840  -31.7770 C   0  0  0  0  0  0  0  0  0  0  0  0
   -7.2890   22.7050  -32.0040 C   0  0  0  0  0  0  0  0  0  0  0  0
   -6.4280   23.9280  -31.8380 C   0  0  0  0  0  0  0  0  0  0  0  0
   -5.1280   23.5550  -31.2850 N   0  0  0  0  0  0  0  0  0  0  0  0
   -4.2480   22.7910  -31.9220 N   0  0  0  0  0  0  0  0  0  0  0  0
   -3.1780   22.6220  -31.1120 C   0  0  0  0  0  0  0  0  0  0  0  0
   -3.4020   23.3080  -29.9360 C   0  0  0  0  0  0  0  0  0  0  0  0
   -4.6450   23.8540  -30.0630 C   0  0  0  0  0  0  0  0  0  0  0  0
   -5.2530   24.7360  -29.0120 C   0  0  0  0  0  0  0  0  0  0  0  0
   -4.5870   24.5200  -27.7090 N   0  0  0  0  0  0  0  0  0  0  0  0
   -3.1110   24.5550  -27.8150 C   0  0  0  0  0  0  0  0  0  0  0  0
   -2.5750   23.4050  -28.6970 C   0  0  0  0  0  0  0  0  0  0  0  0
   -6.7270   21.4840  -32.4110 C   0  0  0  0  0  0  0  0  0  0  0  0
   -6.1250   19.0140  -34.1940 C   0  0  0  0  0  0  0  0  0  0  0  0
   -5.5640   17.8050  -34.6140 C   0  0  0  0  0  0  0  0  0  0  0  0
   -4.8893   14.7539  -33.4411 H   0  0  0  0  0  0  0  0  0  0  0  0
   -5.8916   14.7555  -34.9318 H   0  0  0  0  0  0  0  0  0  0  0  0
   -4.2807   15.5503  -34.9318 H   0  0  0  0  0  0  0  0  0  0  0  0
   -6.7843   15.7528  -32.1674 H   0  0  0  0  0  0  0  0  0  0  0  0
   -7.7988   17.9033  -31.4245 H   0  0  0  0  0  0  0  0  0  0  0  0
   -9.5613   19.5667  -32.5038 H   0  0  0  0  0  0  0  0  0  0  0  0
  -10.5624   21.7286  -31.7703 H   0  0  0  0  0  0  0  0  0  0  0  0
   -9.1196   23.7363  -31.4579 H   0  0  0  0  0  0  0  0  0  0  0  0
   -6.2829   24.4066  -32.8177 H   0  0  0  0  0  0  0  0  0  0  0  0
   -6.9249   24.6276  -31.1498 H   0  0  0  0  0  0  0  0  0  0  0  0
   -2.2788   22.0352  -31.3511 H   0  0  0  0  0  0  0  0  0  0  0  0
   -5.1349   25.7884  -29.3094 H   0  0  0  0  0  0  0  0  0  0  0  0
   -6.3202   24.4888  -28.9125 H   0  0  0  0  0  0  0  0  0  0  0  0
   -4.8940   25.2720  -27.0490 H   0  0  0  0  0  0  0  0  0  0  0  0
   -4.8860   23.5980  -27.3130 H   0  0  0  0  0  0  0  0  0  0  0  0
   -2.8079   25.5152  -28.2579 H   0  0  0  0  0  0  0  0  0  0  0  0
   -2.6913   24.4374  -26.8050 H   0  0  0  0  0  0  0  0  0  0  0  0
   -1.5284   23.6071  -28.9685 H   0  0  0  0  0  0  0  0  0  0  0  0
   -2.6306   22.4573  -28.1413 H   0  0  0  0  0  0  0  0  0  0  0  0
   -5.6430   21.4152  -32.5847 H   0  0  0  0  0  0  0  0  0  0  0  0
   -5.9295   19.9337  -34.7648 H   0  0  0  0  0  0  0  0  0  0  0  0
   -4.9245   17.7800  -35.5087 H   0  0  0  0  0  0  0  0  0  0  0  0
  1  2  1  0
  2  3  2  0
  3  4  1  0
  4  5  2  0
  5  6  1  0
  6  7  2  0
  7  8  1  0
  8  9  2  0
  9 10  1  0
 10 11  1  0
 11 12  1  0
 12 13  1  0
 13 14  2  0
 14 15  1  0
 15 16  2  0
 16 17  1  0
 17 18  1  0
 18 19  1  0
 19 20  1  0
 10 21  2  0
  5 22  1  0
 22 23  2  0
 23  2  1  0
 21  6  1  0
 16 12  1  0
 20 15  1  0
  1 24  1  0
  1 25  1  0
  1 26  1  0
  3 27  1  0
  4 28  1  0
  7 29  1  0
  8 30  1  0
  9 31  1  0
 11 32  1  0
 11 33  1  0
 14 34  1  0
 17 35  1  0
 17 36  1  0
 18 37  1  0
 18 38  1  0
 19 39  1  0
 19 40  1  0
 20 41  1  0
 20 42  1  0
 21 43  1  0
 22 44  1  0
 23 45  1  0
M  CHG  1  18   1
M  END
>  <UniqueID>  (12) 
11

>  <SMILES>  (12) 
Cc1ccc(-c2cccc(Cn3ncc4c3C[NH2+]CC4)c2)cc1

>  <Energy>  (12) 
84.89295268273808

>  <Genealogy>  (12) 
Cc1ccc(-c2cccc(Cn3ncc4c3C[NH2+]CC4)c2)cc1 (protonated)
Cc1ccc(-c2cccc(Cn3ncc4c3C[NH2+]CC4)c2)cc1 (3D coordinates assigned)
Cc1ccc(-c2cccc(Cn3ncc4c3C[NH2+]CC4)c2)cc1 (nonaromatic ring conformer: 84.89295268273808 kcal/mol)

>  <smiles>  (12) 
Cc1ccc(-c2cccc(Cn3ncc4c3CNCC4)c2)cc1

>  <score_type>  (12) 
oracle

>  <origin>  (12) 
adgpu

>  <m_score__min__energy>  (12) 
-8.4399999999999995

>  <m_primary>  (12) 
energy

$$$$
12:0
     RDKit          3D

 46 49  0  0  0  0  0  0  0  0999 V2000
   -2.4150   24.6070  -28.1000 C   0  0  0  0  0  0  0  0  0  0  0  0
   -2.7560   25.0330  -29.4150 O   0  0  0  0  0  0  0  0  0  0  0  0
   -3.8900   24.6040  -30.1190 C   0  0  0  0  0  0  0  0  0  0  0  0
   -5.0990   25.3230  -30.1140 C   0  0  0  0  0  0  0  0  0  0  0  0
   -6.2000   24.8560  -30.8380 C   0  0  0  0  0  0  0  0  0  0  0  0
   -6.1180   23.6650  -31.5750 C   0  0  0  0  0  0  0  0  0  0  0  0
   -7.2720   23.2110  -32.3040 N   0  0  0  0  0  0  0  0  0  0  0  0
   -8.4230   22.0690  -31.6820 S   0  0  0  0  0  0  0  0  0  0  0  0
   -8.5560   22.2600  -30.1970 O   0  0  0  0  0  0  0  0  0  0  0  0
   -9.7570   22.3170  -32.3290 O   0  0  0  0  0  0  0  0  0  0  0  0
   -7.8760   20.4260  -31.9950 C   0  0  0  0  0  0  0  0  0  0  0  0
   -8.7040   19.3360  -31.6970 C   0  0  0  0  0  0  0  0  0  0  0  0
   -8.2720   18.0340  -31.9640 C   0  0  0  0  0  0  0  0  0  0  0  0
   -7.0140   17.8140  -32.5280 C   0  0  0  0  0  0  0  0  0  0  0  0
   -6.1700   18.8980  -32.8280 C   0  0  0  0  0  0  0  0  0  0  0  0
   -4.8360   18.6660  -33.4230 C   0  0  0  0  0  0  0  0  0  0  0  0
   -4.5070   17.5640  -34.1270 N   0  0  0  0  0  0  0  0  0  0  0  0
   -3.2710   17.7450  -34.4770 O   0  0  0  0  0  0  0  0  0  0  0  0
   -2.8450   18.8970  -34.0180 C   0  0  0  0  0  0  0  0  0  0  0  0
   -1.4850   19.4260  -34.2330 C   0  0  0  0  0  0  0  0  0  0  0  0
   -0.4870   18.6210  -34.8130 C   0  0  0  0  0  0  0  0  0  0  0  0
    0.8020   19.1280  -35.0090 C   0  0  0  0  0  0  0  0  0  0  0  0
    1.1060   20.4370  -34.6270 C   0  0  0  0  0  0  0  0  0  0  0  0
    0.1210   21.2440  -34.0520 C   0  0  0  0  0  0  0  0  0  0  0  0
   -1.1700   20.7430  -33.8560 C   0  0  0  0  0  0  0  0  0  0  0  0
   -3.8090   19.5380  -33.3300 N   0  0  0  0  0  0  0  0  0  0  0  0
   -6.6100   20.2040  -32.5530 C   0  0  0  0  0  0  0  0  0  0  0  0
   -4.9060   22.9510  -31.5810 C   0  0  0  0  0  0  0  0  0  0  0  0
   -3.8060   23.4180  -30.8550 C   0  0  0  0  0  0  0  0  0  0  0  0
   -2.9258   25.2451  -27.3639 H   0  0  0  0  0  0  0  0  0  0  0  0
   -2.7290   23.5621  -27.9601 H   0  0  0  0  0  0  0  0  0  0  0  0
   -1.3267   24.6846  -27.9601 H   0  0  0  0  0  0  0  0  0  0  0  0
   -5.1785   26.2567  -29.5379 H   0  0  0  0  0  0  0  0  0  0  0  0
   -7.1396   25.4279  -30.8297 H   0  0  0  0  0  0  0  0  0  0  0  0
   -7.4910   23.6440  -33.2290 H   0  0  0  0  0  0  0  0  0  0  0  0
   -9.6957   19.5052  -31.2522 H   0  0  0  0  0  0  0  0  0  0  0  0
   -8.9248   17.1804  -31.7292 H   0  0  0  0  0  0  0  0  0  0  0  0
   -6.6812   16.7870  -32.7389 H   0  0  0  0  0  0  0  0  0  0  0  0
   -0.7214   17.5891  -35.1134 H   0  0  0  0  0  0  0  0  0  0  0  0
    1.5776   18.4949  -35.4647 H   0  0  0  0  0  0  0  0  0  0  0  0
    2.1212   20.8324  -34.7790 H   0  0  0  0  0  0  0  0  0  0  0  0
    0.3612   22.2750  -33.7530 H   0  0  0  0  0  0  0  0  0  0  0  0
   -1.9427   21.3827  -33.4046 H   0  0  0  0  0  0  0  0  0  0  0  0
   -5.9553   21.0589  -32.7776 H   0  0  0  0  0  0  0  0  0  0  0  0
   -4.8231   22.0196  -32.1604 H   0  0  0  0  0  0  0  0  0  0  0  0
   -2.8658   22.8471  -30.8629 H   0  0  0  0  0  0  0  0  0  0  0  0
  1  2  1  0
  2  3  1  0
  3  4  2  0
  4  5  1  0
  5  6  2  0
  6  7  1  0
  7  8  1  0
  8  9  2  0
  8 10  2  0
  8 11  1  0
 11 12  2  0
 12 13  1  0
 13 14  2  0
 14 15  1  0
 15 16  1  0
 16 17  2  0
 17 18  1  0
 18 19  1  0
 19 20  1  0
 20 21  2  0
 21 22  1  0
 22 23  2  0
 23 24  1  0
 24 25  2  0
 19 26  2  0
 15 27  2  0
  6 28  1  0
 28 29  2  0
 29  3  1  0
 27 11  1  0
 26 16  1  0
 25 20  1  0
  1 30  1  0
  1 31  1  0
  1 32  1  0
  4 33  1  0
  5 34  1  0
  7 35  1  0
 12 36  1  0
 13 37  1  0
 14 38  1  0
 21 39  1  0
 22 40  1  0
 23 41  1  0
 24 42  1  0
 25 43  1  0
 27 44  1  0
 28 45  1  0
 29 46  1  0
M  END
>  <UniqueID>  (13) 
12

>  <SMILES>  (13) 
COc1ccc(NS(=O)(=O)c2cccc(-c3noc(-c4ccccc4)n3)c2)cc1

>  <Energy>  (13) 
86.09420737401089

>  <Genealogy>  (13) 
COc1ccc(NS(=O)(=O)c2cccc(-c3noc(-c4ccccc4)n3)c2)cc1 (3D coordinates assigned)
COc1ccc(NS(=O)(=O)c2cccc(-c3noc(-c4ccccc4)n3)c2)cc1 (optimized conformer: 86.09420737401089 kcal/mol)

>  <smiles>  (13) 
COc1ccc(NS(=O)(=O)c2cccc(-c3noc(-c4ccccc4)n3)c2)cc1

>  <score_type>  (13) 
oracle

>  <origin>  (13) 
adgpu

>  <m_score__min__energy>  (13) 
-10.48

>  <m_primary>  (13) 
energy

$$$$
13:0
     RDKit          3D

 50 53  0  0  0  0  0  0  0  0999 V2000
   -1.9650   25.2810  -27.2630 C   0  0  0  0  0  0  0  0  0  0  0  0
   -1.9020   25.3370  -28.6830 O   0  0  0  0  0  0  0  0  0  0  0  0
   -2.0720   24.2100  -29.4950 C   0  0  0  0  0  0  0  0  0  0  0  0
   -1.2200   23.1520  -29.3980 N   0  0  0  0  0  0  0  0  0  0  0  0
   -1.3550   22.0440  -30.1700 C   0  0  0  0  0  0  0  0  0  0  0  0
   -2.4070   21.9470  -31.0950 C   0  0  0  0  0  0  0  0  0  0  0  0
   -2.5670   20.7390  -31.9440 C   0  0  0  0  0  0  0  0  0  0  0  0
   -1.5010   20.2680  -32.7260 C   0  0  0  0  0  0  0  0  0  0  0  0
   -1.6740   19.1350  -33.5200 C   0  0  0  0  0  0  0  0  0  0  0  0
   -2.8710   18.4920  -33.5410 N   0  0  0  0  0  0  0  0  0  0  0  0
   -3.9350   18.9140  -32.8030 C   0  0  0  0  0  0  0  0  0  0  0  0
   -5.1810   18.1860  -32.8710 N   0  0  0  0  0  0  0  0  0  0  0  0
   -6.3110   18.5340  -31.9980 C   0  0  0  0  0  0  0  0  0  0  0  0
   -7.6340   18.1230  -32.6500 C   0  0  0  0  0  0  0  0  0  0  0  0
   -7.5920   16.7720  -33.0660 O   0  0  0  0  0  0  0  0  0  0  0  0
   -6.6370   16.6260  -34.0980 C   0  0  0  0  0  0  0  0  0  0  0  0
   -5.2250   16.8970  -33.5740 C   0  0  0  0  0  0  0  0  0  0  0  0
   -3.7920   20.0490  -31.9840 C   0  0  0  0  0  0  0  0  0  0  0  0
   -3.3010   23.0240  -31.2000 C   0  0  0  0  0  0  0  0  0  0  0  0
   -3.1240   24.1760  -30.4180 C   0  0  0  0  0  0  0  0  0  0  0  0
   -4.0220   25.2900  -30.5070 N   0  0  0  0  0  0  0  0  0  0  0  0
   -5.4540   25.2300  -30.4460 C   0  0  0  0  0  0  0  0  0  0  0  0
   -6.0770   26.1780  -29.9000 O   0  0  0  0  0  0  0  0  0  0  0  0
   -6.2180   24.1240  -31.0550 C   0  0  0  0  0  0  0  0  0  0  0  0
   -7.1710   23.3360  -30.4370 C   0  0  0  0  0  0  0  0  0  0  0  0
   -7.5550   22.4460  -31.4210 C   0  0  0  0  0  0  0  0  0  0  0  0
   -8.5300   21.3290  -31.2510 C   0  0  0  0  0  0  0  0  0  0  0  0
   -6.8510   22.6650  -32.5480 N   0  0  0  0  0  0  0  0  0  0  0  0
   -6.0440   23.6890  -32.3190 N   0  0  0  0  0  0  0  0  0  0  0  0
   -1.2075   25.9544  -26.8355 H   0  0  0  0  0  0  0  0  0  0  0  0
   -2.9648   25.5940  -26.9277 H   0  0  0  0  0  0  0  0  0  0  0  0
   -1.7714   24.2514  -26.9277 H   0  0  0  0  0  0  0  0  0  0  0  0
   -0.6362   21.2173  -30.0705 H   0  0  0  0  0  0  0  0  0  0  0  0
   -0.5331   20.7905  -32.7126 H   0  0  0  0  0  0  0  0  0  0  0  0
   -0.8394   18.7607  -34.1310 H   0  0  0  0  0  0  0  0  0  0  0  0
   -6.2019   18.0096  -31.0372 H   0  0  0  0  0  0  0  0  0  0  0  0
   -6.3154   19.6220  -31.8358 H   0  0  0  0  0  0  0  0  0  0  0  0
   -8.4492   18.2509  -31.9227 H   0  0  0  0  0  0  0  0  0  0  0  0
   -7.8038   18.7578  -33.5322 H   0  0  0  0  0  0  0  0  0  0  0  0
   -6.6850   15.5998  -34.4912 H   0  0  0  0  0  0  0  0  0  0  0  0
   -6.8633   17.3517  -34.8931 H   0  0  0  0  0  0  0  0  0  0  0  0
   -4.9355   16.0947  -32.8794 H   0  0  0  0  0  0  0  0  0  0  0  0
   -4.5278   16.9290  -34.4242 H   0  0  0  0  0  0  0  0  0  0  0  0
   -4.6389   20.3971  -31.3744 H   0  0  0  0  0  0  0  0  0  0  0  0
   -4.1469   22.9647  -31.9006 H   0  0  0  0  0  0  0  0  0  0  0  0
   -7.5381   23.4023  -29.4022 H   0  0  0  0  0  0  0  0  0  0  0  0
   -8.6919   21.1436  -30.1789 H   0  0  0  0  0  0  0  0  0  0  0  0
   -9.4850   21.6007  -31.7244 H   0  0  0  0  0  0  0  0  0  0  0  0
   -8.1318   20.4194  -31.7244 H   0  0  0  0  0  0  0  0  0  0  0  0
   -5.3800   24.0790  -33.0240 H   0  0  0  0  0  0  0  0  0  0  0  0
  1  2  1  0
  2  3  1  0
  3  4  2  0
  4  5  1  0
  5  6  2  0
  6  7  1  0
  7  8  2  0
  8  9  1  0
  9 10  2  0
 10 11  1  0
 11 12  1  0
 12 13  1  0
 13 14  1  0
 14 15  1  0
 15 16  1  0
 16 17  1  0
 11 18  2  0
  6 19  1  0
 19 20  2  0
 20 21  1  0
 21 22  1  0
 22 23  2  0
 22 24  1  0
 24 25  2  0
 25 26  1  0
 26 27  1  0
 26 28  2  0
 28 29  1  0
 20  3  1  0
 29 24  1  0
 18  7  1  0
 17 12  1  0
  1 30  1  0
  1 31  1  0
  1 32  1  0
  5 33  1  0
  8 34  1  0
  9 35  1  0
 13 36  1  0
 13 37  1  0
 14 38  1  0
 14 39  1  0
 16 40  1  0
 16 41  1  0
 17 42  1  0
 17 43  1  0
 18 44  1  0
 19 45  1  0
 25 46  1  0
 27 47  1  0
 27 48  1  0
 27 49  1  0
 29 50  1  0
M  CHG  1  21  -1
M  END
>  <UniqueID>  (14) 
13

>  <SMILES>  (14) 
COc1ncc(-c2ccnc(N3CCOCC3)c2)cc1[N-]C(=O)c1cc(C)n[nH]1

>  <Energy>  (14) 
94.46804084305045

>  <Genealogy>  (14) 
COc1ncc(-c2ccnc(N3CCOCC3)c2)cc1[N-]C(=O)c1cc(C)n[nH]1 (protonated)
COc1ncc(-c2ccnc(N3CCOCC3)c2)cc1[N-]C(=O)c1cc(C)n[nH]1 (3D coordinates assigned)
COc1ncc(-c2ccnc(N3CCOCC3)c2)cc1[N-]C(=O)c1cc(C)n[nH]1 (nonaromatic ring conformer: 94.46804084305045 kcal/mol)

>  <smiles>  (14) 
COc1ncc(-c2ccnc(N3CCOCC3)c2)cc1NC(=O)c1cc(C)n[nH]1

>  <score_type>  (14) 
oracle

>  <origin>  (14) 
adgpu

>  <m_score__min__energy>  (14) 
-10.109999999999999

>  <m_primary>  (14) 
energy

$$$$
14:0
     RDKit          3D

 48 49  0  0  0  0  0  0  0  0999 V2000
   -3.4160   24.0240  -27.7680 C   0  0  0  0  0  0  0  0  0  0  0  0
   -2.4950   24.5600  -29.1950 S   0  0  0  0  0  0  0  0  0  0  0  0
   -1.6020   25.7160  -28.8400 O   0  0  0  0  0  0  0  0  0  0  0  0
   -1.6390   23.4210  -29.6710 O   0  0  0  0  0  0  0  0  0  0  0  0
   -3.5680   25.0210  -30.4770 N   0  0  0  0  0  0  0  0  0  0  0  0
   -4.8220   24.3960  -30.7830 C   0  0  0  0  0  0  0  0  0  0  0  0
   -5.9730   24.8450  -30.1220 C   0  0  0  0  0  0  0  0  0  0  0  0
   -7.2150   24.2570  -30.3800 C   0  0  0  0  0  0  0  0  0  0  0  0
   -7.3250   23.2230  -31.3230 C   0  0  0  0  0  0  0  0  0  0  0  0
   -8.6520   22.5560  -31.5740 C   0  0  0  0  0  0  0  0  0  0  0  0
   -8.5510   21.0310  -31.4450 C   0  0  0  0  0  0  0  0  0  0  0  0
   -8.1530   20.3960  -32.7120 N   0  0  0  0  0  0  0  0  0  0  0  0
   -8.3530   18.9380  -32.6770 C   0  0  0  0  0  0  0  0  0  0  0  0
   -7.0650   18.1940  -33.0720 C   0  0  1  0  0  0  0  0  0  0  0  0
   -6.5060   18.8190  -34.1970 O   0  0  0  0  0  0  0  0  0  0  0  0
   -6.0380   18.1640  -31.9280 C   0  0  0  0  0  0  0  0  0  0  0  0
   -5.6570   19.4900  -31.5690 O   0  0  0  0  0  0  0  0  0  0  0  0
   -4.4070   20.0590  -31.8540 C   0  0  0  0  0  0  0  0  0  0  0  0
   -3.5150   20.4690  -30.8430 C   0  0  0  0  0  0  0  0  0  0  0  0
   -2.2870   21.0470  -31.1820 C   0  0  0  0  0  0  0  0  0  0  0  0
   -1.9430   21.2270  -32.5240 C   0  0  0  0  0  0  0  0  0  0  0  0
   -2.8220   20.8200  -33.5300 C   0  0  0  0  0  0  0  0  0  0  0  0
   -4.0450   20.2330  -33.1960 C   0  0  0  0  0  0  0  0  0  0  0  0
   -6.1760   22.7810  -31.9910 C   0  0  0  0  0  0  0  0  0  0  0  0
   -4.9320   23.3540  -31.7190 C   0  0  0  0  0  0  0  0  0  0  0  0
   -2.8874   24.3316  -26.8537 H   0  0  0  0  0  0  0  0  0  0  0  0
   -4.4165   24.4809  -27.7845 H   0  0  0  0  0  0  0  0  0  0  0  0
   -3.5130   22.9284  -27.7845 H   0  0  0  0  0  0  0  0  0  0  0  0
   -5.8989   25.6666  -29.3943 H   0  0  0  0  0  0  0  0  0  0  0  0
   -8.1089   24.6058  -29.8422 H   0  0  0  0  0  0  0  0  0  0  0  0
   -9.3830   22.9286  -30.8413 H   0  0  0  0  0  0  0  0  0  0  0  0
   -8.9680   22.7942  -32.6004 H   0  0  0  0  0  0  0  0  0  0  0  0
   -7.8031   20.7883  -30.6757 H   0  0  0  0  0  0  0  0  0  0  0  0
   -9.5441   20.6466  -31.1693 H   0  0  0  0  0  0  0  0  0  0  0  0
   -7.1280   20.5710  -32.8360 H   0  0  0  0  0  0  0  0  0  0  0  0
   -8.6429   18.6392  -31.6588 H   0  0  0  0  0  0  0  0  0  0  0  0
   -9.1432   18.6757  -33.3959 H   0  0  0  0  0  0  0  0  0  0  0  0
   -7.3282   17.1506  -33.3002 H   0  0  0  0  0  0  0  0  0  0  0  0
   -7.1110   19.5680  -34.4420 H   0  0  0  0  0  0  0  0  0  0  0  0
   -6.4828   17.6653  -31.0542 H   0  0  0  0  0  0  0  0  0  0  0  0
   -5.1461   17.6141  -32.2628 H   0  0  0  0  0  0  0  0  0  0  0  0
   -3.7849   20.3343  -29.7852 H   0  0  0  0  0  0  0  0  0  0  0  0
   -1.5907   21.3604  -30.3902 H   0  0  0  0  0  0  0  0  0  0  0  0
   -0.9803   21.6890  -32.7881 H   0  0  0  0  0  0  0  0  0  0  0  0
   -2.5511   20.9618  -34.5866 H   0  0  0  0  0  0  0  0  0  0  0  0
   -4.7288   19.9050  -33.9928 H   0  0  0  0  0  0  0  0  0  0  0  0
   -6.2543   21.9757  -32.7362 H   0  0  0  0  0  0  0  0  0  0  0  0
   -4.0347   22.9882  -32.2396 H   0  0  0  0  0  0  0  0  0  0  0  0
  1  2  1  0
  2  3  2  0
  2  4  2  0
  2  5  1  0
  5  6  1  0
  6  7  2  0
  7  8  1  0
  8  9  2  0
  9 10  1  0
 10 11  1  0
 11 12  1  0
 12 13  1  0
 13 14  1  0
 14 15  1  0
 14 16  1  0
 16 17  1  0
 17 18  1  0
 18 19  2  0
 19 20  1  0
 20 21  2  0
 21 22  1  0
 22 23  2  0
  9 24  1  0
 24 25  2  0
 25  6  1  0
 23 18  1  0
  1 26  1  0
  1 27  1  0
  1 28  1  0
  7 29  1  0
  8 30  1  0
 10 31  1  0
 10 32  1  0
 11 33  1  0
 11 34  1  0
 12 35  1  0
 13 36  1  0
 13 37  1  0
 14 38  1  6
 15 39  1  0
 16 40  1  0
 16 41  1  0
 19 42  1  0
 20 43  1  0
 21 44  1  0
 22 45  1  0
 23 46  1  0
 24 47  1  0
 25 48  1  0
M  CHG  1   5  -1
M  END
>  <UniqueID>  (15) 
14

>  <SMILES>  (15) 
CS(=O)(=O)[N-]c1ccc(CCNC[C@@H](O)COc2ccccc2)cc1

>  <Energy>  (15) 
35.30534801668401

>  <Genealogy>  (15) 
CS(=O)(=O)[N-]c1ccc(CCNCC(O)COc2ccccc2)cc1 (protonated)
CS(=O)(=O)[N-]c1ccc(CCNC[C@@H](O)COc2ccccc2)cc1 (chirality)
CS(=O)(=O)[N-]c1ccc(CCNC[C@@H](O)COc2ccccc2)cc1 (3D coordinates assigned)
CS(=O)(=O)[N-]c1ccc(CCNC[C@@H](O)COc2ccccc2)cc1 (optimized conformer: 35.30534801668401 kcal/mol)

>  <smiles>  (15) 
CS(=O)(=O)Nc1ccc(CCNCC(O)COc2ccccc2)cc1

>  <score_type>  (15) 
oracle

>  <origin>  (15) 
adgpu

>  <m_score__min__energy>  (15) 
-9.2300000000000004

>  <m_primary>  (15) 
energy

$$$$
15:0
     RDKit          3D

 37 39  0  0  0  0  0  0  0  0999 V2000
   -3.2020   17.7910  -34.5650 C   0  0  0  0  0  0  0  0  0  0  0  0
   -4.4300   18.5720  -34.2290 C   0  0  0  0  0  0  0  0  0  0  0  0
   -5.5750   18.4440  -34.8560 O   0  0  0  0  0  0  0  0  0  0  0  0
   -6.4780   19.2400  -34.3600 N   0  0  0  0  0  0  0  0  0  0  0  0
   -5.8970   19.9240  -33.3530 C   0  0  0  0  0  0  0  0  0  0  0  0
   -6.5820   21.0010  -32.6050 C   0  0  0  0  0  0  0  0  0  0  0  0
   -5.9410   22.2420  -32.4350 C   0  0  0  0  0  0  0  0  0  0  0  0
   -6.5690   23.2730  -31.7340 C   0  0  0  0  0  0  0  0  0  0  0  0
   -7.8460   23.0830  -31.2050 C   0  0  0  0  0  0  0  0  0  0  0  0
   -8.4980   21.8600  -31.3770 C   0  0  0  0  0  0  0  0  0  0  0  0
   -7.8780   20.8170  -32.0760 C   0  0  0  0  0  0  0  0  0  0  0  0
   -8.7310   19.2840  -32.2190 Cl  0  0  0  0  0  0  0  0  0  0  0  0
   -4.5730   19.5240  -33.2340 C   0  0  0  0  0  0  0  0  0  0  0  0
   -3.5640   19.9600  -32.2490 C   0  0  0  0  0  0  0  0  0  0  0  0
   -2.3590   20.0760  -32.6010 O   0  0  0  0  0  0  0  0  0  0  0  0
   -3.9380   20.1970  -30.8840 N   0  0  0  0  0  0  0  0  0  0  0  0
   -3.2340   21.0840  -29.9990 C   0  0  0  0  0  0  0  0  0  0  0  0
   -2.4030   20.5930  -28.9760 C   0  0  0  0  0  0  0  0  0  0  0  0
   -1.7050   21.4760  -28.1520 C   0  0  0  0  0  0  0  0  0  0  0  0
   -1.8170   22.8550  -28.3440 C   0  0  0  0  0  0  0  0  0  0  0  0
   -2.6250   23.3680  -29.3730 C   0  0  0  0  0  0  0  0  0  0  0  0
   -2.7350   24.7880  -29.5830 N   0  0  0  0  0  0  0  0  0  0  0  0
   -1.9940   25.5820  -28.9650 O   0  0  0  0  0  0  0  0  0  0  0  0
   -3.6580   25.2950  -30.4680 O   0  0  0  0  0  0  0  0  0  0  0  0
   -3.3250   22.4700  -30.2000 C   0  0  0  0  0  0  0  0  0  0  0  0
   -2.7037   17.4741  -33.6370 H   0  0  0  0  0  0  0  0  0  0  0  0
   -3.4810   16.9040  -35.1527 H   0  0  0  0  0  0  0  0  0  0  0  0
   -2.5170   18.4197  -35.1527 H   0  0  0  0  0  0  0  0  0  0  0  0
   -4.9379   22.4009  -32.8575 H   0  0  0  0  0  0  0  0  0  0  0  0
   -6.0563   24.2367  -31.5985 H   0  0  0  0  0  0  0  0  0  0  0  0
   -8.3392   23.8964  -30.6525 H   0  0  0  0  0  0  0  0  0  0  0  0
   -9.5057   21.7150  -30.9604 H   0  0  0  0  0  0  0  0  0  0  0  0
   -4.7490   19.6580  -30.5020 H   0  0  0  0  0  0  0  0  0  0  0  0
   -2.3031   19.5080  -28.8250 H   0  0  0  0  0  0  0  0  0  0  0  0
   -1.0641   21.0849  -27.3481 H   0  0  0  0  0  0  0  0  0  0  0  0
   -1.2688   23.5444  -27.6850 H   0  0  0  0  0  0  0  0  0  0  0  0
   -3.9522   22.8598  -31.0153 H   0  0  0  0  0  0  0  0  0  0  0  0
  1  2  1  0
  2  3  1  0
  3  4  1  0
  4  5  2  0
  5  6  1  0
  6  7  2  0
  7  8  1  0
  8  9  2  0
  9 10  1  0
 10 11  2  0
 11 12  1  0
  5 13  1  0
 13 14  1  0
 14 15  2  0
 14 16  1  0
 16 17  1  0
 17 18  2  0
 18 19  1  0
 19 20  2  0
 20 21  1  0
 21 22  1  0
 22 23  2  0
 22 24  1  0
 21 25  2  0
 13  2  2  0
 25 17  1  0
 11  6  1  0
  1 26  1  0
  1 27  1  0
  1 28  1  0
  7 29  1  0
  8 30  1  0
  9 31  1  0
 10 32  1  0
 16 33  1  0
 18 34  1  0
 19 35  1  0
 20 36  1  0
 25 37  1  0
M  CHG  2  22   1  24  -1
M  END
>  <UniqueID>  (16) 
15

>  <SMILES>  (16) 
Cc1onc(-c2ccccc2Cl)c1C(=O)Nc1cccc([N+](=O)[O-])c1

>  <Energy>  (16) 
81.17776017585767

>  <Genealogy>  (16) 
Cc1onc(-c2ccccc2Cl)c1C(=O)Nc1cccc([N+](=O)[O-])c1 (3D coordinates assigned)
Cc1onc(-c2ccccc2Cl)c1C(=O)Nc1cccc([N+](=O)[O-])c1 (optimized conformer: 81.17776017585767 kcal/mol)

>  <smiles>  (16) 
Cc1onc(-c2ccccc2Cl)c1C(=O)Nc1cccc([N+](=O)[O-])c1

>  <score_type>  (16) 
oracle

>  <origin>  (16) 
adgpu

>  <m_score__min__energy>  (16) 
-9.3399999999999999

>  <m_primary>  (16) 
energy

$$$$
16:0
     RDKit          3D

 30 31  0  0  0  0  0  0  0  0999 V2000
   -4.9260   23.4380  -28.9780 O   0  0  0  0  0  0  0  0  0  0  0  0
   -4.3940   23.8900  -30.0280 C   0  0  0  0  0  0  0  0  0  0  0  0
   -5.1280   23.9260  -31.2580 N   0  0  0  0  0  0  0  0  0  0  0  0
   -6.1680   23.0210  -31.6580 C   0  0  0  0  0  0  0  0  0  0  0  0
   -5.8840   21.7680  -32.2320 C   0  0  0  0  0  0  0  0  0  0  0  0
   -6.9240   20.8990  -32.6080 C   0  0  0  0  0  0  0  0  0  0  0  0
   -6.6120   19.5400  -33.1830 C   0  0  0  0  0  0  0  0  0  0  0  0
   -6.3140   19.6720  -34.5270 F   0  0  0  0  0  0  0  0  0  0  0  0
   -5.5290   18.9700  -32.5360 F   0  0  0  0  0  0  0  0  0  0  0  0
   -7.6950   18.6910  -33.0420 F   0  0  0  0  0  0  0  0  0  0  0  0
   -8.2540   21.2720  -32.3460 C   0  0  0  0  0  0  0  0  0  0  0  0
   -8.5380   22.5030  -31.7530 C   0  0  0  0  0  0  0  0  0  0  0  0
   -7.5010   23.3730  -31.4060 C   0  0  0  0  0  0  0  0  0  0  0  0
   -7.7940   24.5640  -30.8260 F   0  0  0  0  0  0  0  0  0  0  0  0
   -3.0410   24.3650  -30.0100 N   0  0  0  0  0  0  0  0  0  0  0  0
   -2.1470   24.2090  -28.8940 C   0  0  0  0  0  0  0  0  0  0  0  0
   -2.1180   23.0150  -28.1490 C   0  0  0  0  0  0  0  0  0  0  0  0
   -1.2250   22.8670  -27.0810 C   0  0  0  0  0  0  0  0  0  0  0  0
   -1.2000   21.3750  -26.1590 Cl  0  0  0  0  0  0  0  0  0  0  0  0
   -0.3450   23.9040  -26.7580 C   0  0  0  0  0  0  0  0  0  0  0  0
   -0.3520   25.0840  -27.5040 C   0  0  0  0  0  0  0  0  0  0  0  0
   -1.2440   25.2380  -28.5710 C   0  0  0  0  0  0  0  0  0  0  0  0
   -1.2340   26.4220  -29.3010 O   0  0  0  0  0  0  0  0  0  0  0  0
   -4.8381   21.4651  -32.3882 H   0  0  0  0  0  0  0  0  0  0  0  0
   -9.0754   20.5897  -32.6099 H   0  0  0  0  0  0  0  0  0  0  0  0
   -9.5820   22.7895  -31.5580 H   0  0  0  0  0  0  0  0  0  0  0  0
   -2.7200   24.9280  -30.8300 H   0  0  0  0  0  0  0  0  0  0  0  0
   -2.8015   22.1928  -28.4077 H   0  0  0  0  0  0  0  0  0  0  0  0
    0.3533   23.7902  -25.9157 H   0  0  0  0  0  0  0  0  0  0  0  0
    0.3463   25.8957  -27.2521 H   0  0  0  0  0  0  0  0  0  0  0  0
  1  2  2  0
  2  3  1  0
  3  4  1  0
  4  5  2  0
  5  6  1  0
  6  7  1  0
  7  8  1  0
  7  9  1  0
  7 10  1  0
  6 11  2  0
 11 12  1  0
 12 13  2  0
 13 14  1  0
  2 15  1  0
 15 16  1  0
 16 17  2  0
 17 18  1  0
 18 19  1  0
 18 20  2  0
 20 21  1  0
 21 22  2  0
 22 23  1  0
 13  4  1  0
 22 16  1  0
  5 24  1  0
 11 25  1  0
 12 26  1  0
 15 27  1  0
 17 28  1  0
 20 29  1  0
 21 30  1  0
M  CHG  2   3  -1  23  -1
M  END
>  <UniqueID>  (17) 
16

>  <SMILES>  (17) 
O=C([N-]c1cc(C(F)(F)F)ccc1F)Nc1cc(Cl)ccc1[O-]

>  <Energy>  (17) 
38.74495475403393

>  <Genealogy>  (17) 
O=C([N-]c1cc(C(F)(F)F)ccc1F)Nc1cc(Cl)ccc1[O-] (protonated)
O=C([N-]c1cc(C(F)(F)F)ccc1F)Nc1cc(Cl)ccc1[O-] (3D coordinates assigned)
O=C([N-]c1cc(C(F)(F)F)ccc1F)Nc1cc(Cl)ccc1[O-] (optimized conformer: 38.74495475403393 kcal/mol)

>  <smiles>  (17) 
O=C(Nc1cc(Cl)ccc1O)Nc1cc(C(F)(F)F)ccc1F

>  <score_type>  (17) 
oracle

>  <origin>  (17) 
adgpu

>  <m_score__min__energy>  (17) 
-11.16

>  <m_primary>  (17) 
energy

$$$$
17:0
     RDKit          3D

 33 35  0  0  0  0  0  0  0  0999 V2000
   -0.0022   17.5362  -27.1169 H   0  0  0  0  0  0  0  0  0  0  0  0
   -0.7790   18.3150  -27.1100 C   0  0  0  0  0  0  0  0  0  0  0  0
   -0.7220   19.4460  -27.7730 O   0  0  0  0  0  0  0  0  0  0  0  0
   -1.8150   20.1350  -27.5380 C   0  0  0  0  0  0  0  0  0  0  0  0
   -2.0750   21.4620  -28.1280 C   0  0  0  0  0  0  0  0  0  0  0  0
   -1.1580   22.4470  -27.9430 N   0  0  0  0  0  0  0  0  0  0  0  0
   -1.3290   23.6900  -28.4670 C   0  0  0  0  0  0  0  0  0  0  0  0
   -0.4460   24.6320  -28.2940 N   0  0  0  0  0  0  0  0  0  0  0  0
    0.8000   24.5870  -27.5750 C   0  0  0  0  0  0  0  0  0  0  0  0
    1.8720   24.5840  -28.2360 O   0  0  0  0  0  0  0  0  0  0  0  0
    0.8860   24.5440  -26.0770 C   0  0  0  0  0  0  0  0  0  0  0  0
   -0.0187   24.9963  -25.6447 H   0  0  0  0  0  0  0  0  0  0  0  0
    0.9682   23.4987  -25.7443 H   0  0  0  0  0  0  0  0  0  0  0  0
    1.7715   25.1054  -25.7443 H   0  0  0  0  0  0  0  0  0  0  0  0
   -2.4440   23.9600  -29.1920 N   0  0  0  0  0  0  0  0  0  0  0  0
   -3.4060   23.0200  -29.4010 C   0  0  0  0  0  0  0  0  0  0  0  0
   -4.5930   23.3670  -30.2160 C   0  0  0  0  0  0  0  0  0  0  0  0
   -5.5320   22.3650  -30.5180 C   0  0  0  0  0  0  0  0  0  0  0  0
   -5.3736   21.3400  -30.1515 H   0  0  0  0  0  0  0  0  0  0  0  0
   -6.6660   22.6620  -31.2810 C   0  0  0  0  0  0  0  0  0  0  0  0
   -7.3979   21.8724  -31.5064 H   0  0  0  0  0  0  0  0  0  0  0  0
   -6.8710   23.9580  -31.7570 C   0  0  0  0  0  0  0  0  0  0  0  0
   -7.7681   24.1912  -32.3493 H   0  0  0  0  0  0  0  0  0  0  0  0
   -5.9370   24.9580  -31.4810 C   0  0  0  0  0  0  0  0  0  0  0  0
   -6.0984   25.9775  -31.8611 H   0  0  0  0  0  0  0  0  0  0  0  0
   -4.7960   24.6700  -30.7230 C   0  0  0  0  0  0  0  0  0  0  0  0
   -3.8610   25.6780  -30.5060 O   0  0  0  0  0  0  0  0  0  0  0  0
   -3.2280   21.7320  -28.8770 C   0  0  0  0  0  0  0  0  0  0  0  0
   -3.9796   20.9478  -29.0506 H   0  0  0  0  0  0  0  0  0  0  0  0
   -2.6340   19.4240  -26.6750 C   0  0  0  0  0  0  0  0  0  0  0  0
   -3.6165   19.7314  -26.2876 H   0  0  0  0  0  0  0  0  0  0  0  0
   -1.9620   18.2520  -26.4030 C   0  0  0  0  0  0  0  0  0  0  0  0
   -2.3006   17.4316  -25.7531 H   0  0  0  0  0  0  0  0  0  0  0  0
  1  2  1  0
  2  3  1  0
  3  4  1  0
  4  5  1  0
  5  6  1  0
  6  7  1  0
  7  8  2  0
  8  9  1  0
  9 10  2  0
  9 11  1  0
 11 12  1  0
 11 13  1  0
 11 14  1  0
  7 15  1  0
 15 16  2  0
 16 17  1  0
 17 18  2  0
 18 19  1  0
 18 20  1  0
 20 21  1  0
 20 22  2  0
 22 23  1  0
 22 24  1  0
 24 25  1  0
 24 26  2  0
 26 27  1  0
 16 28  1  0
 28 29  1  0
  4 30  2  0
 30 31  1  0
 30 32  1  0
 32 33  1  0
 32  2  2  0
 28  5  2  0
 26 17  1  0
M  CHG  2   6  -1  27  -1
M  END
>  <UniqueID>  (18) 
17

>  <SMILES>  (18) 
CC(=O)/N=c1/nc(-c2ccccc2[O-])cc(-c2ccco2)[n-]1

>  <Energy>  (18) 
71.03947127101574

>  <Genealogy>  (18) 
CC(=O)N=c1nc(-c2ccccc2[O-])cc(-c2ccco2)[n-]1 (protonated)
CC(=O)/N=c1/nc(-c2ccccc2[O-])cc(-c2ccco2)[n-]1 (cis-trans isomerization)
CC(=O)/N=c1/nc(-c2ccccc2[O-])cc(-c2ccco2)[n-]1 (3D coordinates assigned)
CC(=O)/N=c1/nc(-c2ccccc2[O-])cc(-c2ccco2)[n-]1 (optimized conformer: 71.03947127101574 kcal/mol)

>  <smiles>  (18) 
CC(=O)N=c1nc(-c2ccccc2O)cc(-c2ccco2)[nH]1

>  <score_type>  (18) 
oracle

>  <origin>  (18) 
adgpu

>  <m_score__min__energy>  (18) 
-10.890000000000001

>  <m_primary>  (18) 
energy

$$$$
18:0
     RDKit          3D

 50 53  0  0  0  0  0  0  0  0999 V2000
    2.0370   14.0900  -36.6000 C   0  0  0  0  0  0  0  0  0  0  0  0
    1.6070   15.4420  -36.7170 O   0  0  0  0  0  0  0  0  0  0  0  0
    0.4340   15.9520  -36.1420 C   0  0  0  0  0  0  0  0  0  0  0  0
   -0.8050   15.2950  -36.2440 C   0  0  0  0  0  0  0  0  0  0  0  0
   -1.9460   15.8450  -35.6530 C   0  0  0  0  0  0  0  0  0  0  0  0
   -1.8770   17.0650  -34.9580 C   0  0  0  0  0  0  0  0  0  0  0  0
   -3.1030   17.6210  -34.3330 C   0  0  0  0  0  0  0  0  0  0  0  0
   -3.0970   18.8550  -33.6620 C   0  0  0  0  0  0  0  0  0  0  0  0
   -4.2780   19.3310  -33.0800 C   0  0  0  0  0  0  0  0  0  0  0  0
   -4.2420   20.6090  -32.3290 C   0  0  0  0  0  0  0  0  0  0  0  0
   -3.7110   20.6520  -31.0300 C   0  0  0  0  0  0  0  0  0  0  0  0
   -3.6670   21.8580  -30.3240 C   0  0  0  0  0  0  0  0  0  0  0  0
   -4.1560   23.0340  -30.9080 C   0  0  0  0  0  0  0  0  0  0  0  0
   -4.1120   24.5500  -30.0130 S   0  0  0  0  0  0  0  0  0  0  0  0
   -5.0030   24.3820  -28.5420 N   0  0  0  0  0  0  0  0  0  0  0  0
   -4.7170   25.6480  -30.8420 O   0  0  0  0  0  0  0  0  0  0  0  0
   -2.6880   24.9150  -29.6980 O   0  0  0  0  0  0  0  0  0  0  0  0
   -4.7060   22.9920  -32.1960 C   0  0  0  0  0  0  0  0  0  0  0  0
   -4.7500   21.7870  -32.9020 C   0  0  0  0  0  0  0  0  0  0  0  0
   -5.4610   18.5650  -33.2060 C   0  0  0  0  0  0  0  0  0  0  0  0
   -6.7600   19.0450  -32.6730 C   0  0  0  0  0  0  0  0  0  0  0  0
   -7.3190   20.2460  -33.1420 C   0  0  0  0  0  0  0  0  0  0  0  0
   -8.5500   20.6890  -32.6500 C   0  0  0  0  0  0  0  0  0  0  0  0
   -9.2320   19.9380  -31.6890 C   0  0  0  0  0  0  0  0  0  0  0  0
   -8.6820   18.7450  -31.2140 C   0  0  0  0  0  0  0  0  0  0  0  0
   -7.4490   18.2990  -31.7010 C   0  0  0  0  0  0  0  0  0  0  0  0
   -5.3870   17.3450  -33.9040 C   0  0  0  0  0  0  0  0  0  0  0  0
   -6.4160   16.6330  -34.0590 O   0  0  0  0  0  0  0  0  0  0  0  0
   -4.2380   16.9330  -34.4260 O   0  0  0  0  0  0  0  0  0  0  0  0
   -0.6310   17.7110  -34.8480 C   0  0  0  0  0  0  0  0  0  0  0  0
    0.5090   17.1590  -35.4390 C   0  0  0  0  0  0  0  0  0  0  0  0
    2.1219   13.8230  -35.5363 H   0  0  0  0  0  0  0  0  0  0  0  0
    1.3048   13.4289  -37.0867 H   0  0  0  0  0  0  0  0  0  0  0  0
    3.0166   13.9734  -37.0867 H   0  0  0  0  0  0  0  0  0  0  0  0
   -0.8767   14.3436  -36.7915 H   0  0  0  0  0  0  0  0  0  0  0  0
   -2.9081   15.3177  -35.7326 H   0  0  0  0  0  0  0  0  0  0  0  0
   -2.1702   19.4437  -33.5942 H   0  0  0  0  0  0  0  0  0  0  0  0
   -3.3275   19.7318  -30.5651 H   0  0  0  0  0  0  0  0  0  0  0  0
   -3.2474   21.8836  -29.3075 H   0  0  0  0  0  0  0  0  0  0  0  0
   -4.9810   25.3110  -28.0650 H   0  0  0  0  0  0  0  0  0  0  0  0
   -5.9980   24.2040  -28.8080 H   0  0  0  0  0  0  0  0  0  0  0  0
   -5.1042   23.9101  -32.6526 H   0  0  0  0  0  0  0  0  0  0  0  0
   -5.1848   21.7605  -33.9121 H   0  0  0  0  0  0  0  0  0  0  0  0
   -6.7858   20.8397  -33.8991 H   0  0  0  0  0  0  0  0  0  0  0  0
   -8.9826   21.6303  -33.0199 H   0  0  0  0  0  0  0  0  0  0  0  0
  -10.2026   20.2865  -31.3063 H   0  0  0  0  0  0  0  0  0  0  0  0
   -9.2191   18.1557  -30.4562 H   0  0  0  0  0  0  0  0  0  0  0  0
   -7.0169   17.3611  -31.3220 H   0  0  0  0  0  0  0  0  0  0  0  0
   -0.5540   18.6574  -34.2927 H   0  0  0  0  0  0  0  0  0  0  0  0
    1.4744   17.6787  -35.3504 H   0  0  0  0  0  0  0  0  0  0  0  0
  1  2  1  0
  2  3  1  0
  3  4  2  0
  4  5  1  0
  5  6  2  0
  6  7  1  0
  7  8  2  0
  8  9  1  0
  9 10  1  0
 10 11  2  0
 11 12  1  0
 12 13  2  0
 13 14  1  0
 14 15  1  0
 14 16  2  0
 14 17  2  0
 13 18  1  0
 18 19  2  0
  9 20  2  0
 20 21  1  0
 21 22  2  0
 22 23  1  0
 23 24  2  0
 24 25  1  0
 25 26  2  0
 20 27  1  0
 27 28  2  0
 27 29  1  0
  6 30  1  0
 30 31  2  0
 31  3  1  0
 29  7  1  0
 19 10  1  0
 26 21  1  0
  1 32  1  0
  1 33  1  0
  1 34  1  0
  4 35  1  0
  5 36  1  0
  8 37  1  0
 11 38  1  0
 12 39  1  0
 15 40  1  0
 15 41  1  0
 18 42  1  0
 19 43  1  0
 22 44  1  0
 23 45  1  0
 24 46  1  0
 25 47  1  0
 26 48  1  0
 30 49  1  0
 31 50  1  0
M  END
>  <UniqueID>  (19) 
18

>  <SMILES>  (19) 
COc1ccc(-c2cc(-c3ccc(S(N)(=O)=O)cc3)c(-c3ccccc3)c(=O)o2)cc1

>  <Energy>  (19) 
71.45955785333965

>  <Genealogy>  (19) 
COc1ccc(-c2cc(-c3ccc(S(N)(=O)=O)cc3)c(-c3ccccc3)c(=O)o2)cc1 (3D coordinates assigned)
COc1ccc(-c2cc(-c3ccc(S(N)(=O)=O)cc3)c(-c3ccccc3)c(=O)o2)cc1 (optimized conformer: 71.45955785333965 kcal/mol)

>  <smiles>  (19) 
COc1ccc(-c2cc(-c3ccc(S(N)(=O)=O)cc3)c(-c3ccccc3)c(=O)o2)cc1

>  <score_type>  (19) 
oracle

>  <origin>  (19) 
adgpu

>  <m_score__min__energy>  (19) 
-9.5

>  <m_primary>  (19) 
energy

$$$$
19:0
     RDKit          3D

 52 56  0  0  0  0  0  0  0  0999 V2000
   -3.4630   18.6390  -34.2110 C   0  0  0  0  0  0  0  0  0  0  0  0
   -2.4610   18.8880  -33.1180 C   0  0  0  0  0  0  0  0  0  0  0  0
   -1.3680   18.0100  -32.8640 C   0  0  0  0  0  0  0  0  0  0  0  0
   -1.1960   16.7980  -33.6150 N   0  0  0  0  0  0  0  0  0  0  0  0
   -0.3850   16.8460  -34.8390 C   0  0  0  0  0  0  0  0  0  0  0  0
   -0.5790   15.5900  -35.6960 C   0  0  0  0  0  0  0  0  0  0  0  0
   -0.5790   14.4240  -34.9020 O   0  0  0  0  0  0  0  0  0  0  0  0
   -1.7250   14.4270  -34.0800 C   0  0  0  0  0  0  0  0  0  0  0  0
   -1.6240   15.5260  -33.0180 C   0  0  0  0  0  0  0  0  0  0  0  0
   -0.4380   18.3140  -31.8440 C   0  0  0  0  0  0  0  0  0  0  0  0
   -0.5640   19.4860  -31.0770 C   0  0  0  0  0  0  0  0  0  0  0  0
   -1.6400   20.3210  -31.3530 C   0  0  0  0  0  0  0  0  0  0  0  0
   -1.9600   21.4810  -30.7660 N   0  0  0  0  0  0  0  0  0  0  0  0
   -3.0800   21.8810  -31.4210 C   0  0  0  0  0  0  0  0  0  0  0  0
   -3.8040   23.1410  -31.1240 C   0  0  0  0  0  0  0  0  0  0  0  0
   -5.1320   23.3500  -31.5680 C   0  0  0  0  0  0  0  0  0  0  0  0
   -5.7820   22.3930  -32.4230 N   0  0  0  0  0  0  0  0  0  0  0  0
   -7.1440   21.9570  -32.2530 C   0  0  0  0  0  0  0  0  0  0  0  0
   -8.1360   22.9190  -32.0120 C   0  0  0  0  0  0  0  0  0  0  0  0
   -9.4720   22.5360  -31.8630 C   0  0  0  0  0  0  0  0  0  0  0  0
   -9.8300   21.1900  -31.9630 C   0  0  0  0  0  0  0  0  0  0  0  0
   -8.8540   20.2240  -32.2220 C   0  0  0  0  0  0  0  0  0  0  0  0
   -7.5130   20.5970  -32.3740 C   0  0  0  0  0  0  0  0  0  0  0  0
   -6.3490   19.3470  -32.8020 Cl  0  0  0  0  0  0  0  0  0  0  0  0
   -5.7850   24.5490  -31.2390 C   0  0  0  0  0  0  0  0  0  0  0  0
   -5.1230   25.5120  -30.4820 C   0  0  0  0  0  0  0  0  0  0  0  0
   -3.8490   25.2980  -30.0730 N   0  0  0  0  0  0  0  0  0  0  0  0
   -3.1780   24.1560  -30.3700 C   0  0  0  0  0  0  0  0  0  0  0  0
   -2.0000   24.0110  -29.9470 O   0  0  0  0  0  0  0  0  0  0  0  0
   -3.4660   21.0220  -32.4050 N   0  0  0  0  0  0  0  0  0  0  0  0
   -2.5450   20.0430  -32.3340 C   0  0  0  0  0  0  0  0  0  0  0  0
   -4.4390   18.3965  -33.7654 H   0  0  0  0  0  0  0  0  0  0  0  0
   -3.5581   19.5408  -34.8336 H   0  0  0  0  0  0  0  0  0  0  0  0
   -3.1249   17.7976  -34.8336 H   0  0  0  0  0  0  0  0  0  0  0  0
   -0.6787   17.7280  -35.4271 H   0  0  0  0  0  0  0  0  0  0  0  0
    0.6741   16.9023  -34.5472 H   0  0  0  0  0  0  0  0  0  0  0  0
   -1.5400   15.6627  -36.2263 H   0  0  0  0  0  0  0  0  0  0  0  0
    0.2549   15.5242  -36.4103 H   0  0  0  0  0  0  0  0  0  0  0  0
   -2.6150   14.6054  -34.7013 H   0  0  0  0  0  0  0  0  0  0  0  0
   -1.8021   13.4525  -33.5756 H   0  0  0  0  0  0  0  0  0  0  0  0
   -2.6088   15.6630  -32.5474 H   0  0  0  0  0  0  0  0  0  0  0  0
   -0.8777   15.2219  -32.2693 H   0  0  0  0  0  0  0  0  0  0  0  0
    0.3960   17.6242  -31.6474 H   0  0  0  0  0  0  0  0  0  0  0  0
    0.1619   19.7325  -30.2882 H   0  0  0  0  0  0  0  0  0  0  0  0
   -1.4400   21.9740  -30.0050 H   0  0  0  0  0  0  0  0  0  0  0  0
   -5.2820   22.0940  -33.2930 H   0  0  0  0  0  0  0  0  0  0  0  0
   -7.8608   23.9816  -31.9398 H   0  0  0  0  0  0  0  0  0  0  0  0
  -10.2425   23.2961  -31.6667 H   0  0  0  0  0  0  0  0  0  0  0  0
  -10.8808   20.8899  -31.8378 H   0  0  0  0  0  0  0  0  0  0  0  0
   -9.1406   19.1654  -32.3069 H   0  0  0  0  0  0  0  0  0  0  0  0
   -6.8162   24.7268  -31.5783 H   0  0  0  0  0  0  0  0  0  0  0  0
   -5.6352   26.4483  -30.2155 H   0  0  0  0  0  0  0  0  0  0  0  0
  1  2  1  0
  2  3  2  0
  3  4  1  0
  4  5  1  0
  5  6  1  0
  6  7  1  0
  7  8  1  0
  8  9  1  0
  3 10  1  0
 10 11  2  0
 11 12  1  0
 12 13  1  0
 13 14  1  0
 14 15  1  0
 15 16  2  0
 16 17  1  0
 17 18  1  0
 18 19  2  0
 19 20  1  0
 20 21  2  0
 21 22  1  0
 22 23  2  0
 23 24  1  0
 16 25  1  0
 25 26  2  0
 26 27  1  0
 27 28  1  0
 28 29  2  0
 14 30  2  0
 30 31  1  0
 31  2  1  0
  9  4  1  0
 31 12  2  0
 28 15  1  0
 23 18  1  0
  1 32  1  0
  1 33  1  0
  1 34  1  0
  5 35  1  0
  5 36  1  0
  6 37  1  0
  6 38  1  0
  8 39  1  0
  8 40  1  0
  9 41  1  0
  9 42  1  0
 10 43  1  0
 11 44  1  0
 13 45  1  0
 17 46  1  0
 19 47  1  0
 20 48  1  0
 21 49  1  0
 22 50  1  0
 25 51  1  0
 26 52  1  0
M  CHG  1  27  -1
M  END
>  <UniqueID>  (20) 
19

>  <SMILES>  (20) 
Cc1c(N2CCOCC2)ccc2[nH]c(-c3c(Nc4ccccc4Cl)cc[n-]c3=O)nc12

>  <Energy>  (20) 
115.8828233789694

>  <Genealogy>  (20) 
Cc1c(N2CCOCC2)ccc2[nH]c(-c3c(Nc4ccccc4Cl)cc[n-]c3=O)nc12 (protonated)
Cc1c(N2CCOCC2)ccc2[nH]c(-c3c(Nc4ccccc4Cl)cc[n-]c3=O)nc12 (3D coordinates assigned)
Cc1c(N2CCOCC2)ccc2[nH]c(-c3c(Nc4ccccc4Cl)cc[n-]c3=O)nc12 (nonaromatic ring conformer: 115.8828233789694 kcal/mol)

>  <smiles>  (20) 
Cc1c(N2CCOCC2)ccc2[nH]c(-c3c(Nc4ccccc4Cl)cc[nH]c3=O)nc12

>  <score_type>  (20) 
oracle

>  <origin>  (20) 
adgpu

>  <m_score__min__energy>  (20) 
-11.140000000000001

>  <m_primary>  (20) 
energy

$$$$
20:0
     RDKit          3D

 47 49  0  0  0  0  0  0  0  0999 V2000
   -2.8790   23.6960  -28.4010 C   0  0  0  0  0  0  0  0  0  0  0  0
   -2.6350   24.9080  -29.2370 C   0  0  0  0  0  0  0  0  0  0  0  0
   -1.6310   25.6340  -29.0050 O   0  0  0  0  0  0  0  0  0  0  0  0
   -3.5480   25.2470  -30.2820 N   0  0  0  0  0  0  0  0  0  0  0  0
   -4.9920   25.2940  -30.0890 C   0  0  0  0  0  0  0  0  0  0  0  0
   -5.7060   24.8040  -31.3470 C   0  0  0  0  0  0  0  0  0  0  0  0
   -5.8220   23.3070  -31.3570 C   0  0  0  0  0  0  0  0  0  0  0  0
   -7.0000   22.5700  -31.3420 C   0  0  0  0  0  0  0  0  0  0  0  0
   -6.7290   21.2440  -31.4200 N   0  0  0  0  0  0  0  0  0  0  0  0
   -7.7210   20.1610  -31.3860 C   0  0  0  0  0  0  0  0  0  0  0  0
   -7.8630   19.4000  -32.7310 C   0  0  0  0  0  0  0  0  0  0  0  0
   -7.9540   17.8600  -32.5770 C   0  0  0  0  0  0  0  0  0  0  0  0
   -6.5960   17.1300  -32.5330 C   0  0  0  0  0  0  0  0  0  0  0  0
   -5.4970   17.7810  -33.3910 C   0  0  0  0  0  0  0  0  0  0  0  0
   -6.0710   18.7060  -34.4630 C   0  0  0  0  0  0  0  0  0  0  0  0
   -6.8440   19.8610  -33.8140 C   0  0  0  0  0  0  0  0  0  0  0  0
   -5.3820   21.1380  -31.4570 C   0  0  0  0  0  0  0  0  0  0  0  0
   -4.6000   19.9770  -31.5020 C   0  0  0  0  0  0  0  0  0  0  0  0
   -3.2040   20.1210  -31.5600 C   0  0  0  0  0  0  0  0  0  0  0  0
   -2.6130   21.4030  -31.5660 C   0  0  0  0  0  0  0  0  0  0  0  0
   -0.8680   21.5620  -31.6440 Cl  0  0  0  0  0  0  0  0  0  0  0  0
   -3.4170   22.5550  -31.5060 C   0  0  0  0  0  0  0  0  0  0  0  0
   -4.8010   22.3830  -31.4450 C   0  0  0  0  0  0  0  0  0  0  0  0
   -2.8243   23.9677  -27.3365 H   0  0  0  0  0  0  0  0  0  0  0  0
   -3.8768   23.2907  -28.6252 H   0  0  0  0  0  0  0  0  0  0  0  0
   -2.1158   22.9362  -28.6252 H   0  0  0  0  0  0  0  0  0  0  0  0
   -5.2668   24.6501  -29.2406 H   0  0  0  0  0  0  0  0  0  0  0  0
   -5.2943   26.3317  -29.8846 H   0  0  0  0  0  0  0  0  0  0  0  0
   -6.7143   25.2423  -31.3811 H   0  0  0  0  0  0  0  0  0  0  0  0
   -5.1187   25.1138  -32.2240 H   0  0  0  0  0  0  0  0  0  0  0  0
   -8.0097   23.0016  -31.2761 H   0  0  0  0  0  0  0  0  0  0  0  0
   -7.4221   19.4410  -30.6099 H   0  0  0  0  0  0  0  0  0  0  0  0
   -8.6957   20.6255  -31.1760 H   0  0  0  0  0  0  0  0  0  0  0  0
   -8.8487   19.6966  -33.1188 H   0  0  0  0  0  0  0  0  0  0  0  0
   -8.4899   17.6413  -31.6416 H   0  0  0  0  0  0  0  0  0  0  0  0
   -8.4737   17.4907  -33.4734 H   0  0  0  0  0  0  0  0  0  0  0  0
   -6.2503   17.1089  -31.4890 H   0  0  0  0  0  0  0  0  0  0  0  0
   -6.7655   16.1257  -32.9486 H   0  0  0  0  0  0  0  0  0  0  0  0
   -4.8363   18.3668  -32.7350 H   0  0  0  0  0  0  0  0  0  0  0  0
   -4.9463   16.9764  -33.9001 H   0  0  0  0  0  0  0  0  0  0  0  0
   -5.2480   19.1150  -35.0674 H   0  0  0  0  0  0  0  0  0  0  0  0
   -6.7581   18.1303  -35.1006 H   0  0  0  0  0  0  0  0  0  0  0  0
   -6.1202   20.5420  -33.3426 H   0  0  0  0  0  0  0  0  0  0  0  0
   -7.4216   20.3504  -34.6120 H   0  0  0  0  0  0  0  0  0  0  0  0
   -5.0659   18.9806  -31.4922 H   0  0  0  0  0  0  0  0  0  0  0  0
   -2.5652   19.2264  -31.6011 H   0  0  0  0  0  0  0  0  0  0  0  0
   -2.9696   23.5599  -31.5071 H   0  0  0  0  0  0  0  0  0  0  0  0
  1  2  1  0
  2  3  2  0
  2  4  1  0
  4  5  1  0
  5  6  1  0
  6  7  1  0
  7  8  2  0
  8  9  1  0
  9 10  1  0
 10 11  1  0
 11 12  1  0
 12 13  1  0
 13 14  1  0
 14 15  1  0
 15 16  1  0
  9 17  1  0
 17 18  2  0
 18 19  1  0
 19 20  2  0
 20 21  1  0
 20 22  1  0
 22 23  2  0
 23  7  1  0
 16 11  1  0
 23 17  1  0
  1 24  1  0
  1 25  1  0
  1 26  1  0
  5 27  1  0
  5 28  1  0
  6 29  1  0
  6 30  1  0
  8 31  1  0
 10 32  1  0
 10 33  1  0
 11 34  1  0
 12 35  1  0
 12 36  1  0
 13 37  1  0
 13 38  1  0
 14 39  1  0
 14 40  1  0
 15 41  1  0
 15 42  1  0
 16 43  1  0
 16 44  1  0
 18 45  1  0
 19 46  1  0
 22 47  1  0
M  CHG  1   4  -1
M  END
>  <UniqueID>  (21) 
20

>  <SMILES>  (21) 
CC(=O)[N-]CCc1cn(CC2CCCCC2)c2ccc(Cl)cc12

>  <Energy>  (21) 
75.03188292759135

>  <Genealogy>  (21) 
CC(=O)[N-]CCc1cn(CC2CCCCC2)c2ccc(Cl)cc12 (protonated)
CC(=O)[N-]CCc1cn(CC2CCCCC2)c2ccc(Cl)cc12 (3D coordinates assigned)
CC(=O)[N-]CCc1cn(CC2CCCCC2)c2ccc(Cl)cc12 (nonaromatic ring conformer: 75.03188292759135 kcal/mol)

>  <smiles>  (21) 
CC(=O)NCCc1cn(CC2CCCCC2)c2ccc(Cl)cc12

>  <score_type>  (21) 
oracle

>  <origin>  (21) 
adgpu

>  <m_score__min__energy>  (21) 
-10.390000000000001

>  <m_primary>  (21) 
energy

$$$$
21:0
     RDKit          3D

 30 32  0  0  0  0  0  0  0  0999 V2000
   -0.5990   25.6090  -28.4490 H   0  0  0  0  0  0  0  0  0  0  0  0
   -1.6240   25.7060  -28.6230 N   0  0  0  0  0  0  0  0  0  0  0  0
   -2.2690   24.8290  -29.3210 C   0  0  0  0  0  0  0  0  0  0  0  0
   -1.6840   23.7420  -29.8640 N   0  0  0  0  0  0  0  0  0  0  0  0
   -2.6990   23.1060  -30.4870 C   0  0  0  0  0  0  0  0  0  0  0  0
   -2.5000   21.8810  -31.2900 C   0  0  0  0  0  0  0  0  0  0  0  0
   -3.2950   21.6540  -32.4250 C   0  0  0  0  0  0  0  0  0  0  0  0
   -4.0539   22.3945  -32.7178 H   0  0  0  0  0  0  0  0  0  0  0  0
   -3.1280   20.4930  -33.1850 C   0  0  0  0  0  0  0  0  0  0  0  0
   -3.7461   20.3286  -34.0800 H   0  0  0  0  0  0  0  0  0  0  0  0
   -2.1760   19.5400  -32.8090 C   0  0  0  0  0  0  0  0  0  0  0  0
   -1.9680   18.0830  -33.7640 Cl  0  0  0  0  0  0  0  0  0  0  0  0
   -1.3960   19.7460  -31.6670 C   0  0  0  0  0  0  0  0  0  0  0  0
   -0.6514   18.9937  -31.3675 H   0  0  0  0  0  0  0  0  0  0  0  0
   -1.5610   20.9070  -30.9050 C   0  0  0  0  0  0  0  0  0  0  0  0
   -0.9538   21.0592  -30.0005 H   0  0  0  0  0  0  0  0  0  0  0  0
   -3.8780   23.8230  -30.2950 C   0  0  0  0  0  0  0  0  0  0  0  0
   -5.2520   23.4540  -30.6980 C   0  0  0  0  0  0  0  0  0  0  0  0
   -6.0660   22.7200  -29.8200 C   0  0  0  0  0  0  0  0  0  0  0  0
   -5.6811   22.4299  -28.8312 H   0  0  0  0  0  0  0  0  0  0  0  0
   -7.3620   22.3560  -30.1950 C   0  0  0  0  0  0  0  0  0  0  0  0
   -7.9969   21.7896  -29.4978 H   0  0  0  0  0  0  0  0  0  0  0  0
   -7.8530   22.7110  -31.4560 C   0  0  0  0  0  0  0  0  0  0  0  0
   -9.4790   22.2530  -31.9260 Cl  0  0  0  0  0  0  0  0  0  0  0  0
   -7.0420   23.4260  -32.3430 C   0  0  0  0  0  0  0  0  0  0  0  0
   -7.4254   23.7018  -33.3364 H   0  0  0  0  0  0  0  0  0  0  0  0
   -5.7450   23.7910  -31.9700 C   0  0  0  0  0  0  0  0  0  0  0  0
   -5.1076   24.3444  -32.6753 H   0  0  0  0  0  0  0  0  0  0  0  0
   -3.5890   24.9150  -29.5650 N   0  0  0  0  0  0  0  0  0  0  0  0
   -4.2490   25.6490  -29.2240 H   0  0  0  0  0  0  0  0  0  0  0  0
  1  2  1  0
  2  3  2  0
  3  4  1  0
  4  5  1  0
  5  6  1  0
  6  7  2  0
  7  8  1  0
  7  9  1  0
  9 10  1  0
  9 11  2  0
 11 12  1  0
 11 13  1  0
 13 14  1  0
 13 15  2  0
 15 16  1  0
  5 17  2  0
 17 18  1  0
 18 19  2  0
 19 20  1  0
 19 21  1  0
 21 22  1  0
 21 23  2  0
 23 24  1  0
 23 25  1  0
 25 26  1  0
 25 27  2  0
 27 28  1  0
 17 29  1  0
 29 30  1  0
 29  3  1  0
 15  6  1  0
 27 18  1  0
M  CHG  1   4  -1
M  END
>  <UniqueID>  (22) 
21

>  <SMILES>  (22) 
[H]/N=c1\[n-]c(-c2ccc(Cl)cc2)c(-c2ccc(Cl)cc2)[nH]1

>  <Energy>  (22) 
69.78483842580698

>  <Genealogy>  (22) 
N=c1[n-]c(-c2ccc(Cl)cc2)c(-c2ccc(Cl)cc2)[nH]1 (protonated)
[H]/N=c1\[n-]c(-c2ccc(Cl)cc2)c(-c2ccc(Cl)cc2)[nH]1 (cis-trans isomerization)
[H]/N=c1\[n-]c(-c2ccc(Cl)cc2)c(-c2ccc(Cl)cc2)[nH]1 (3D coordinates assigned)
[H]/N=c1\[n-]c(-c2ccc(Cl)cc2)c(-c2ccc(Cl)cc2)[nH]1 (optimized conformer: 69.78483842580698 kcal/mol)

>  <smiles>  (22) 
N=c1[nH]c(-c2ccc(Cl)cc2)c(-c2ccc(Cl)cc2)[nH]1

>  <score_type>  (22) 
oracle

>  <origin>  (22) 
adgpu

>  <m_score__min__energy>  (22) 
-8.7699999999999996

>  <m_primary>  (22) 
energy

$$$$
22:0
     RDKit          3D

 50 53  0  0  0  0  0  0  0  0999 V2000
   -6.2420   24.3210  -29.7700 C   0  0  0  0  0  0  0  0  0  0  0  0
   -6.4710   24.4990  -31.2680 C   0  0  0  0  0  0  0  0  0  0  0  0
   -6.3120   23.2560  -31.9530 O   0  0  0  0  0  0  0  0  0  0  0  0
   -7.2690   22.2290  -32.0260 C   0  0  0  0  0  0  0  0  0  0  0  0
   -8.5790   22.3860  -31.5270 C   0  0  0  0  0  0  0  0  0  0  0  0
   -9.5190   21.3630  -31.6720 C   0  0  0  0  0  0  0  0  0  0  0  0
   -9.1720   20.1780  -32.3230 C   0  0  0  0  0  0  0  0  0  0  0  0
   -7.8770   20.0070  -32.8170 C   0  0  0  0  0  0  0  0  0  0  0  0
   -6.9150   21.0140  -32.6510 C   0  0  0  0  0  0  0  0  0  0  0  0
   -5.5920   20.8020  -33.1680 N   0  0  0  0  0  0  0  0  0  0  0  0
   -4.8560   19.5860  -32.9670 C   0  0  0  0  0  0  0  0  0  0  0  0
   -5.4110   18.5800  -32.4480 O   0  0  0  0  0  0  0  0  0  0  0  0
   -3.4130   19.5090  -33.3650 C   0  0  0  0  0  0  0  0  0  0  0  0
   -2.8340   20.8510  -33.4600 N   0  0  0  0  0  0  0  0  0  0  0  0
   -2.6000   21.6920  -32.3140 C   0  0  0  0  0  0  0  0  0  0  0  0
   -3.5710   22.6000  -31.8500 C   0  0  0  0  0  0  0  0  0  0  0  0
   -3.3150   23.4010  -30.7340 C   0  0  0  0  0  0  0  0  0  0  0  0
   -2.0870   23.3120  -30.0580 C   0  0  0  0  0  0  0  0  0  0  0  0
   -1.8200   24.1580  -28.8730 C   0  0  0  0  0  0  0  0  0  0  0  0
   -1.3730   25.4400  -28.9650 N   0  0  0  0  0  0  0  0  0  0  0  0
   -1.2740   25.8120  -27.6810 C   0  0  0  0  0  0  0  0  0  0  0  0
   -0.8590   27.0430  -27.1780 C   0  0  0  0  0  0  0  0  0  0  0  0
   -0.8390   27.2040  -25.7790 C   0  0  0  0  0  0  0  0  0  0  0  0
   -1.2300   26.1410  -24.9320 C   0  0  0  0  0  0  0  0  0  0  0  0
   -1.6440   24.9110  -25.4790 C   0  0  0  0  0  0  0  0  0  0  0  0
   -1.6500   24.7900  -26.8660 C   0  0  0  0  0  0  0  0  0  0  0  0
   -2.0020   23.7230  -27.5960 N   0  0  0  0  0  0  0  0  0  0  0  0
   -1.1180   22.4080  -30.5220 C   0  0  0  0  0  0  0  0  0  0  0  0
   -1.3740   21.6070  -31.6390 C   0  0  0  0  0  0  0  0  0  0  0  0
   -6.9909   24.9031  -29.2129 H   0  0  0  0  0  0  0  0  0  0  0  0
   -6.3362   23.2567  -29.5086 H   0  0  0  0  0  0  0  0  0  0  0  0
   -5.2338   24.6749  -29.5086 H   0  0  0  0  0  0  0  0  0  0  0  0
   -7.4908   24.8759  -31.4353 H   0  0  0  0  0  0  0  0  0  0  0  0
   -5.7317   25.2147  -31.6567 H   0  0  0  0  0  0  0  0  0  0  0  0
   -8.8622   23.3203  -31.0203 H   0  0  0  0  0  0  0  0  0  0  0  0
  -10.5356   21.4916  -31.2720 H   0  0  0  0  0  0  0  0  0  0  0  0
   -9.9182   19.3793  -32.4468 H   0  0  0  0  0  0  0  0  0  0  0  0
   -7.6098   19.0767  -33.3396 H   0  0  0  0  0  0  0  0  0  0  0  0
   -5.2030   21.5090  -33.8320 H   0  0  0  0  0  0  0  0  0  0  0  0
   -2.8602   18.9289  -32.6114 H   0  0  0  0  0  0  0  0  0  0  0  0
   -3.3410   19.0204  -34.3479 H   0  0  0  0  0  0  0  0  0  0  0  0
   -2.5770   21.2240  -34.4040 H   0  0  0  0  0  0  0  0  0  0  0  0
   -4.5374   22.6793  -32.3694 H   0  0  0  0  0  0  0  0  0  0  0  0
   -4.0815   24.1071  -30.3820 H   0  0  0  0  0  0  0  0  0  0  0  0
   -0.5576   27.8603  -27.8497 H   0  0  0  0  0  0  0  0  0  0  0  0
   -0.5176   28.1614  -25.3429 H   0  0  0  0  0  0  0  0  0  0  0  0
   -1.2107   26.2756  -23.8404 H   0  0  0  0  0  0  0  0  0  0  0  0
   -1.9518   24.0754  -24.8332 H   0  0  0  0  0  0  0  0  0  0  0  0
   -0.1511   22.3295  -30.0033 H   0  0  0  0  0  0  0  0  0  0  0  0
   -0.6059   20.9031  -31.9918 H   0  0  0  0  0  0  0  0  0  0  0  0
  1  2  1  0
  2  3  1  0
  3  4  1  0
  4  5  2  0
  5  6  1  0
  6  7  2  0
  7  8  1  0
  8  9  2  0
  9 10  1  0
 10 11  1  0
 11 12  2  0
 11 13  1  0
 13 14  1  0
 14 15  1  0
 15 16  2  0
 16 17  1  0
 17 18  2  0
 18 19  1  0
 19 20  2  0
 20 21  1  0
 21 22  2  0
 22 23  1  0
 23 24  2  0
 24 25  1  0
 25 26  2  0
 26 27  1  0
 18 28  1  0
 28 29  2  0
  9  4  1  0
 29 15  1  0
 27 19  1  0
 26 21  1  0
  1 30  1  0
  1 31  1  0
  1 32  1  0
  2 33  1  0
  2 34  1  0
  5 35  1  0
  6 36  1  0
  7 37  1  0
  8 38  1  0
 10 39  1  0
 13 40  1  0
 13 41  1  0
 14 42  1  0
 16 43  1  0
 17 44  1  0
 22 45  1  0
 23 46  1  0
 24 47  1  0
 25 48  1  0
 28 49  1  0
 29 50  1  0
M  CHG  1  27  -1
M  END
>  <UniqueID>  (23) 
22

>  <SMILES>  (23) 
CCOc1ccccc1NC(=O)CNc1ccc(-c2nc3ccccc3[n-]2)cc1

>  <Energy>  (23) 
90.923238544912

>  <Genealogy>  (23) 
CCOc1ccccc1NC(=O)CNc1ccc(-c2nc3ccccc3[n-]2)cc1 (protonated)
CCOc1ccccc1NC(=O)CNc1ccc(-c2nc3ccccc3[n-]2)cc1 (3D coordinates assigned)
CCOc1ccccc1NC(=O)CNc1ccc(-c2nc3ccccc3[n-]2)cc1 (optimized conformer: 90.923238544912 kcal/mol)

>  <smiles>  (23) 
CCOc1ccccc1NC(=O)CNc1ccc(-c2nc3ccccc3[nH]2)cc1

>  <score_type>  (23) 
oracle

>  <origin>  (23) 
adgpu

>  <m_score__min__energy>  (23) 
-9.6500000000000004

>  <m_primary>  (23) 
energy

$$$$
23:0
     RDKit          3D

 63 66  0  0  0  0  0  0  0  0999 V2000
   -0.3880   13.1310  -33.0980 C   0  0  0  0  0  0  0  0  0  0  0  0
   -1.9170   13.0240  -33.0420 C   0  0  2  0  0  0  0  0  0  0  0  0
   -2.3730   12.5660  -31.6520 C   0  0  0  0  0  0  0  0  0  0  0  0
   -3.9020   12.4480  -31.5680 C   0  0  1  0  0  0  0  0  0  0  0  0
   -4.5800   13.8180  -31.4280 C   0  0  0  0  0  0  0  0  0  0  0  0
   -4.4840   11.5950  -32.7230 C   0  0  0  0  0  0  0  0  0  0  0  0
   -3.8820   11.8430  -34.0490 N   0  0  0  0  0  0  0  0  0  0  0  0
   -4.8300   12.7850  -35.1790 S   0  0  0  0  0  0  0  0  0  0  0  0
   -6.1020   12.0470  -35.4920 O   0  0  0  0  0  0  0  0  0  0  0  0
   -4.0590   12.9280  -36.4610 O   0  0  0  0  0  0  0  0  0  0  0  0
   -5.2260   14.3970  -34.5890 C   0  0  0  0  0  0  0  0  0  0  0  0
   -4.2290   15.3770  -34.5020 C   0  0  0  0  0  0  0  0  0  0  0  0
   -4.5380   16.6600  -34.0450 C   0  0  0  0  0  0  0  0  0  0  0  0
   -5.8580   16.9930  -33.6900 C   0  0  0  0  0  0  0  0  0  0  0  0
   -6.1980   18.3490  -33.1930 C   0  0  0  0  0  0  0  0  0  0  0  0
   -7.2160   18.5060  -32.4640 O   0  0  0  0  0  0  0  0  0  0  0  0
   -5.4110   19.4930  -33.5720 N   0  0  0  0  0  0  0  0  0  0  0  0
   -5.4070   20.7330  -32.8430 C   0  0  0  0  0  0  0  0  0  0  0  0
   -6.5640   21.5250  -32.7330 C   0  0  0  0  0  0  0  0  0  0  0  0
   -6.5380   22.7180  -32.0060 C   0  0  0  0  0  0  0  0  0  0  0  0
   -5.3620   23.1300  -31.3660 C   0  0  0  0  0  0  0  0  0  0  0  0
   -5.3490   24.6410  -30.4640 S   0  0  0  0  0  0  0  0  0  0  0  0
   -6.1090   25.6790  -31.2430 O   0  0  0  0  0  0  0  0  0  0  0  0
   -5.9960   24.4440  -29.1210 O   0  0  0  0  0  0  0  0  0  0  0  0
   -3.7000   25.1440  -30.2480 N   0  0  0  0  0  0  0  0  0  0  0  0
   -2.8700   24.7120  -29.3430 C   0  0  0  0  0  0  0  0  0  0  0  0
   -3.2270   23.7390  -28.3880 C   0  0  0  0  0  0  0  0  0  0  0  0
   -2.2830   23.3230  -27.4460 C   0  0  0  0  0  0  0  0  0  0  0  0
   -1.0000   23.8690  -27.4580 C   0  0  0  0  0  0  0  0  0  0  0  0
   -0.6770   24.8310  -28.4150 C   0  0  0  0  0  0  0  0  0  0  0  0
   -1.6080   25.2240  -29.3250 N   0  0  0  0  0  0  0  0  0  0  0  0
   -4.2120   22.3340  -31.4550 C   0  0  0  0  0  0  0  0  0  0  0  0
   -4.2370   21.1410  -32.1820 C   0  0  0  0  0  0  0  0  0  0  0  0
   -6.8580   16.0080  -33.7950 C   0  0  0  0  0  0  0  0  0  0  0  0
   -6.5450   14.7260  -34.2500 C   0  0  0  0  0  0  0  0  0  0  0  0
   -2.4240   12.0420  -34.1100 C   0  0  0  0  0  0  0  0  0  0  0  0
    0.0153   13.1592  -32.0750 H   0  0  0  0  0  0  0  0  0  0  0  0
    0.0213   12.2593  -33.6296 H   0  0  0  0  0  0  0  0  0  0  0  0
   -0.1041   14.0512  -33.6296 H   0  0  0  0  0  0  0  0  0  0  0  0
   -2.3406   14.0191  -33.2430 H   0  0  0  0  0  0  0  0  0  0  0  0
   -1.9269   11.5840  -31.4357 H   0  0  0  0  0  0  0  0  0  0  0  0
   -2.0454   13.3170  -30.9181 H   0  0  0  0  0  0  0  0  0  0  0  0
   -4.1347   11.9012  -30.6423 H   0  0  0  0  0  0  0  0  0  0  0  0
   -4.7000   14.0605  -30.3618 H   0  0  0  0  0  0  0  0  0  0  0  0
   -3.9580   14.5860  -31.9109 H   0  0  0  0  0  0  0  0  0  0  0  0
   -5.5679   13.7893  -31.9109 H   0  0  0  0  0  0  0  0  0  0  0  0
   -4.3332   10.5344  -32.4731 H   0  0  0  0  0  0  0  0  0  0  0  0
   -5.5435   11.8779  -32.8094 H   0  0  0  0  0  0  0  0  0  0  0  0
   -3.1969   15.1347  -34.7953 H   0  0  0  0  0  0  0  0  0  0  0  0
   -3.7432   17.4160  -33.9620 H   0  0  0  0  0  0  0  0  0  0  0  0
   -4.9090   19.4630  -34.4870 H   0  0  0  0  0  0  0  0  0  0  0  0
   -7.4952   21.2033  -33.2223 H   0  0  0  0  0  0  0  0  0  0  0  0
   -7.4450   23.3364  -31.9359 H   0  0  0  0  0  0  0  0  0  0  0  0
   -4.2402   23.3108  -28.3844 H   0  0  0  0  0  0  0  0  0  0  0  0
   -2.5516   22.5652  -26.6953 H   0  0  0  0  0  0  0  0  0  0  0  0
   -0.2508   23.5446  -26.7208 H   0  0  0  0  0  0  0  0  0  0  0  0
    0.3307   25.2717  -28.4336 H   0  0  0  0  0  0  0  0  0  0  0  0
   -3.2866   22.6494  -30.9509 H   0  0  0  0  0  0  0  0  0  0  0  0
   -3.3331   20.5165  -32.2370 H   0  0  0  0  0  0  0  0  0  0  0  0
   -7.8942   16.2504  -33.5163 H   0  0  0  0  0  0  0  0  0  0  0  0
   -7.3384   13.9698  -34.3429 H   0  0  0  0  0  0  0  0  0  0  0  0
   -1.9292   11.0712  -33.9594 H   0  0  0  0  0  0  0  0  0  0  0  0
   -2.1867   12.4694  -35.0954 H   0  0  0  0  0  0  0  0  0  0  0  0
  1  2  1  0
  2  3  1  0
  3  4  1  0
  4  5  1  0
  4  6  1  0
  6  7  1  0
  7  8  1  0
  8  9  2  0
  8 10  2  0
  8 11  1  0
 11 12  2  0
 12 13  1  0
 13 14  2  0
 14 15  1  0
 15 16  2  0
 15 17  1  0
 17 18  1  0
 18 19  2  0
 19 20  1  0
 20 21  2  0
 21 22  1  0
 22 23  2  0
 22 24  2  0
 22 25  1  0
 25 26  2  3
 26 27  1  0
 27 28  2  0
 28 29  1  0
 29 30  2  0
 30 31  1  0
 21 32  1  0
 32 33  2  0
 14 34  1  0
 34 35  2  0
  7 36  1  0
 36  2  1  0
 35 11  1  0
 33 18  1  0
 31 26  1  0
  1 37  1  0
  1 38  1  0
  1 39  1  0
  2 40  1  6
  3 41  1  0
  3 42  1  0
  4 43  1  1
  5 44  1  0
  5 45  1  0
  5 46  1  0
  6 47  1  0
  6 48  1  0
 12 49  1  0
 13 50  1  0
 17 51  1  0
 19 52  1  0
 20 53  1  0
 27 54  1  0
 28 55  1  0
 29 56  1  0
 30 57  1  0
 32 58  1  0
 33 59  1  0
 34 60  1  0
 35 61  1  0
 36 62  1  0
 36 63  1  0
M  CHG  1  31  -1
M  END
>  <UniqueID>  (24) 
23

>  <SMILES>  (24) 
C[C@@H]1C[C@@H](C)CN(S(=O)(=O)c2ccc(C(=O)Nc3ccc(S(=O)(=O)N=c4cccc[n-]4)cc3)cc2)C1

>  <Energy>  (24) 
83.11048342862081

>  <Genealogy>  (24) 
CC1CC(C)CN(S(=O)(=O)c2ccc(C(=O)Nc3ccc(S(=O)(=O)N=c4cccc[n-]4)cc3)cc2)C1 (protonated)
C[C@@H]1C[C@@H](C)CN(S(=O)(=O)c2ccc(C(=O)Nc3ccc(S(=O)(=O)N=c4cccc[n-]4)cc3)cc2)C1 (chirality)
C[C@@H]1C[C@@H](C)CN(S(=O)(=O)c2ccc(C(=O)Nc3ccc(S(=O)(=O)N=c4cccc[n-]4)cc3)cc2)C1 (3D coordinates assigned)
C[C@@H]1C[C@@H](C)CN(S(=O)(=O)c2ccc(C(=O)Nc3ccc(S(=O)(=O)N=c4cccc[n-]4)cc3)cc2)C1 (nonaromatic ring conformer: 83.11048342862081 kcal/mol)

>  <smiles>  (24) 
CC1CC(C)CN(S(=O)(=O)c2ccc(C(=O)Nc3ccc(S(=O)(=O)N=c4cccc[nH]4)cc3)cc2)C1

>  <score_type>  (24) 
oracle

>  <origin>  (24) 
adgpu

>  <m_score__min__energy>  (24) 
-10.73

>  <m_primary>  (24) 
energy

$$$$
24:0
     RDKit          3D

 49 52  0  0  0  0  0  0  0  0999 V2000
   -0.0890   27.2340  -25.7590 C   0  0  0  0  0  0  0  0  0  0  0  0
   -0.9850   26.2870  -26.4990 C   0  0  0  0  0  0  0  0  0  0  0  0
   -0.7300   25.9710  -27.8410 C   0  0  0  0  0  0  0  0  0  0  0  0
   -1.5870   25.1160  -28.5410 C   0  0  0  0  0  0  0  0  0  0  0  0
   -2.7110   24.5640  -27.9080 C   0  0  0  0  0  0  0  0  0  0  0  0
   -3.5890   23.7040  -28.6550 N   0  0  0  0  0  0  0  0  0  0  0  0
   -4.0070   23.9590  -30.0060 C   0  0  0  0  0  0  0  0  0  0  0  0
   -3.8560   25.1050  -30.5100 O   0  0  0  0  0  0  0  0  0  0  0  0
   -4.6240   22.8830  -30.8050 C   0  0  0  0  0  0  0  0  0  0  0  0
   -5.9800   22.6610  -30.9510 C   0  0  0  0  0  0  0  0  0  0  0  0
   -6.1560   21.5090  -31.6350 N   0  0  0  0  0  0  0  0  0  0  0  0
   -7.4100   20.8860  -31.9890 C   0  0  0  0  0  0  0  0  0  0  0  0
   -7.4380   19.5320  -32.3730 C   0  0  0  0  0  0  0  0  0  0  0  0
   -8.6450   18.9140  -32.7170 C   0  0  0  0  0  0  0  0  0  0  0  0
   -9.8360   19.6390  -32.6890 C   0  0  0  0  0  0  0  0  0  0  0  0
   -9.8230   20.9860  -32.3220 C   0  0  0  0  0  0  0  0  0  0  0  0
   -8.6210   21.6090  -31.9750 C   0  0  0  0  0  0  0  0  0  0  0  0
   -4.9740   20.9880  -31.9290 N   0  0  0  0  0  0  0  0  0  0  0  0
   -4.0200   21.8050  -31.4420 C   0  0  0  0  0  0  0  0  0  0  0  0
   -2.5770   21.5500  -31.6260 C   0  0  0  0  0  0  0  0  0  0  0  0
   -1.7030   21.5350  -30.5270 C   0  0  0  0  0  0  0  0  0  0  0  0
   -0.3350   21.3280  -30.7170 C   0  0  0  0  0  0  0  0  0  0  0  0
    0.1740   21.1430  -32.0050 C   0  0  0  0  0  0  0  0  0  0  0  0
   -0.6840   21.1600  -33.1130 C   0  0  0  0  0  0  0  0  0  0  0  0
   -0.1320   21.0110  -34.4990 C   0  0  0  0  0  0  0  0  0  0  0  0
   -2.0570   21.3870  -32.9200 C   0  0  0  0  0  0  0  0  0  0  0  0
   -2.9870   24.9130  -26.5750 C   0  0  0  0  0  0  0  0  0  0  0  0
   -2.1300   25.7680  -25.8770 C   0  0  0  0  0  0  0  0  0  0  0  0
   -0.2217   27.0938  -24.6761 H   0  0  0  0  0  0  0  0  0  0  0  0
    0.9585   27.0343  -26.0290 H   0  0  0  0  0  0  0  0  0  0  0  0
   -0.3463   28.2688  -26.0290 H   0  0  0  0  0  0  0  0  0  0  0  0
    0.1490   26.3980  -28.3460 H   0  0  0  0  0  0  0  0  0  0  0  0
   -1.3788   24.8748  -29.5938 H   0  0  0  0  0  0  0  0  0  0  0  0
   -4.0270   22.8970  -28.1550 H   0  0  0  0  0  0  0  0  0  0  0  0
   -6.7818   23.3128  -30.5737 H   0  0  0  0  0  0  0  0  0  0  0  0
   -6.5022   18.9546  -32.4029 H   0  0  0  0  0  0  0  0  0  0  0  0
   -8.6547   17.8538  -33.0102 H   0  0  0  0  0  0  0  0  0  0  0  0
  -10.7846   19.1501  -32.9558 H   0  0  0  0  0  0  0  0  0  0  0  0
  -10.7619   21.5588  -32.3059 H   0  0  0  0  0  0  0  0  0  0  0  0
   -8.6194   22.6711  -31.6888 H   0  0  0  0  0  0  0  0  0  0  0  0
   -2.0978   21.6870  -29.5116 H   0  0  0  0  0  0  0  0  0  0  0  0
    0.3431   21.3106  -29.8510 H   0  0  0  0  0  0  0  0  0  0  0  0
    1.2527   20.9833  -32.1500 H   0  0  0  0  0  0  0  0  0  0  0  0
    0.9286   20.7247  -34.4425 H   0  0  0  0  0  0  0  0  0  0  0  0
   -0.6939   20.2324  -35.0357 H   0  0  0  0  0  0  0  0  0  0  0  0
   -0.2257   21.9666  -35.0357 H   0  0  0  0  0  0  0  0  0  0  0  0
   -2.7295   21.4374  -33.7890 H   0  0  0  0  0  0  0  0  0  0  0  0
   -3.8824   24.5110  -26.0784 H   0  0  0  0  0  0  0  0  0  0  0  0
   -2.3546   26.0355  -24.8339 H   0  0  0  0  0  0  0  0  0  0  0  0
  1  2  1  0
  2  3  2  0
  3  4  1  0
  4  5  2  0
  5  6  1  0
  6  7  1  0
  7  8  2  0
  7  9  1  0
  9 10  2  0
 10 11  1  0
 11 12  1  0
 12 13  2  0
 13 14  1  0
 14 15  2  0
 15 16  1  0
 16 17  2  0
 11 18  1  0
 18 19  2  0
 19 20  1  0
 20 21  2  0
 21 22  1  0
 22 23  2  0
 23 24  1  0
 24 25  1  0
 24 26  2  0
  5 27  1  0
 27 28  2  0
 28  2  1  0
 19  9  1  0
 26 20  1  0
 17 12  1  0
  1 29  1  0
  1 30  1  0
  1 31  1  0
  3 32  1  0
  4 33  1  0
  6 34  1  0
 10 35  1  0
 13 36  1  0
 14 37  1  0
 15 38  1  0
 16 39  1  0
 17 40  1  0
 21 41  1  0
 22 42  1  0
 23 43  1  0
 25 44  1  0
 25 45  1  0
 25 46  1  0
 26 47  1  0
 27 48  1  0
 28 49  1  0
M  END
>  <UniqueID>  (25) 
24

>  <SMILES>  (25) 
Cc1ccc(NC(=O)c2cn(-c3ccccc3)nc2-c2cccc(C)c2)cc1

>  <Energy>  (25) 
93.79739797268107

>  <Genealogy>  (25) 
Cc1ccc(NC(=O)c2cn(-c3ccccc3)nc2-c2cccc(C)c2)cc1 (3D coordinates assigned)
Cc1ccc(NC(=O)c2cn(-c3ccccc3)nc2-c2cccc(C)c2)cc1 (optimized conformer: 93.79739797268107 kcal/mol)

>  <smiles>  (25) 
Cc1ccc(NC(=O)c2cn(-c3ccccc3)nc2-c2cccc(C)c2)cc1

>  <score_type>  (25) 
oracle

>  <origin>  (25) 
adgpu

>  <m_score__min__energy>  (25) 
-9.3900000000000006

>  <m_primary>  (25) 
energy

$$$$
25:0
     RDKit          3D

 38 40  0  0  0  0  0  0  0  0999 V2000
   -2.8573   16.1532  -35.6672 H   0  0  0  0  0  0  0  0  0  0  0  0
   -3.7670   16.1920  -35.0500 C   0  0  0  0  0  0  0  0  0  0  0  0
   -4.8980   17.4380  -35.0400 S   0  0  0  0  0  0  0  0  0  0  0  0
   -5.9050   16.7580  -33.8760 C   0  0  0  0  0  0  0  0  0  0  0  0
   -7.2020   17.3380  -33.4140 C   0  0  0  0  0  0  0  0  0  0  0  0
   -7.7596   16.5776  -32.8475 H   0  0  0  0  0  0  0  0  0  0  0  0
   -7.7873   17.6554  -34.2896 H   0  0  0  0  0  0  0  0  0  0  0  0
   -6.9500   18.5240  -32.5360 C   0  0  0  0  0  0  0  0  0  0  0  0
   -7.4570   18.5560  -31.3820 O   0  0  0  0  0  0  0  0  0  0  0  0
   -6.0630   19.5650  -32.9770 N   0  0  0  0  0  0  0  0  0  0  0  0
   -5.4590   19.3690  -33.8070 H   0  0  0  0  0  0  0  0  0  0  0  0
   -5.8700   20.8100  -32.2820 C   0  0  0  0  0  0  0  0  0  0  0  0
   -4.6760   21.0250  -31.5780 C   0  0  0  0  0  0  0  0  0  0  0  0
   -3.9089   20.2371  -31.5515 H   0  0  0  0  0  0  0  0  0  0  0  0
   -4.4530   22.2320  -30.9100 C   0  0  0  0  0  0  0  0  0  0  0  0
   -3.5178   22.3856  -30.3516 H   0  0  0  0  0  0  0  0  0  0  0  0
   -5.4180   23.2470  -30.9500 C   0  0  0  0  0  0  0  0  0  0  0  0
   -5.1660   24.7650  -30.0940 S   0  0  0  0  0  0  0  0  0  0  0  0
   -4.2470   25.6700  -30.8670 O   0  0  0  0  0  0  0  0  0  0  0  0
   -6.4910   25.4530  -29.9220 O   0  0  0  0  0  0  0  0  0  0  0  0
   -4.4780   24.4500  -28.5330 N   0  0  0  0  0  0  0  0  0  0  0  0
   -3.2100   24.5500  -28.2690 C   0  0  0  0  0  0  0  0  0  0  0  0
   -2.3180   24.9210  -29.2300 N   0  0  0  0  0  0  0  0  0  0  0  0
   -1.0120   25.0240  -28.9710 N   0  0  0  0  0  0  0  0  0  0  0  0
   -0.5150   24.7630  -27.7340 C   0  0  0  0  0  0  0  0  0  0  0  0
    1.2070   24.9100  -27.4350 Cl  0  0  0  0  0  0  0  0  0  0  0  0
   -1.3820   24.3800  -26.7110 C   0  0  0  0  0  0  0  0  0  0  0  0
   -0.9949   24.1658  -25.7039 H   0  0  0  0  0  0  0  0  0  0  0  0
   -2.7460   24.2720  -26.9810 C   0  0  0  0  0  0  0  0  0  0  0  0
   -3.4480   23.9715  -26.1893 H   0  0  0  0  0  0  0  0  0  0  0  0
   -6.6020   23.0470  -31.6700 C   0  0  0  0  0  0  0  0  0  0  0  0
   -7.3597   23.8435  -31.7098 H   0  0  0  0  0  0  0  0  0  0  0  0
   -6.8260   21.8390  -32.3390 C   0  0  0  0  0  0  0  0  0  0  0  0
   -7.7538   21.6938  -32.9118 H   0  0  0  0  0  0  0  0  0  0  0  0
   -5.3780   15.5310  -33.4940 C   0  0  0  0  0  0  0  0  0  0  0  0
   -5.8545   14.8703  -32.7548 H   0  0  0  0  0  0  0  0  0  0  0  0
   -4.1780   15.2210  -34.1460 C   0  0  0  0  0  0  0  0  0  0  0  0
   -3.6138   14.2953  -33.9596 H   0  0  0  0  0  0  0  0  0  0  0  0
  1  2  1  0
  2  3  1  0
  3  4  1  0
  4  5  1  0
  5  6  1  0
  5  7  1  0
  5  8  1  0
  8  9  2  0
  8 10  1  0
 10 11  1  0
 10 12  1  0
 12 13  2  0
 13 14  1  0
 13 15  1  0
 15 16  1  0
 15 17  2  0
 17 18  1  0
 18 19  2  0
 18 20  2  0
 18 21  1  0
 21 22  2  0
 22 23  1  0
 23 24  1  0
 24 25  2  0
 25 26  1  0
 25 27  1  0
 27 28  1  0
 27 29  2  0
 29 30  1  0
 17 31  1  0
 31 32  1  0
 31 33  2  0
 33 34  1  0
  4 35  2  0
 35 36  1  0
 35 37  1  0
 37 38  1  0
 37  2  2  0
 33 12  1  0
 29 22  1  0
M  CHG  1  23  -1
M  END
>  <UniqueID>  (26) 
25

>  <SMILES>  (26) 
O=C(Cc1cccs1)Nc1ccc(S(=O)(=O)/N=c2/ccc(Cl)n[n-]2)cc1

>  <Energy>  (26) 
71.0765386015442

>  <Genealogy>  (26) 
O=C(Cc1cccs1)Nc1ccc(S(=O)(=O)N=c2ccc(Cl)n[n-]2)cc1 (protonated)
O=C(Cc1cccs1)Nc1ccc(S(=O)(=O)/N=c2/ccc(Cl)n[n-]2)cc1 (cis-trans isomerization)
O=C(Cc1cccs1)Nc1ccc(S(=O)(=O)/N=c2/ccc(Cl)n[n-]2)cc1 (3D coordinates assigned)
O=C(Cc1cccs1)Nc1ccc(S(=O)(=O)/N=c2/ccc(Cl)n[n-]2)cc1 (optimized conformer: 71.0765386015442 kcal/mol)

>  <smiles>  (26) 
O=C(Cc1cccs1)Nc1ccc(S(=O)(=O)N=c2ccc(Cl)n[nH]2)cc1

>  <score_type>  (26) 
oracle

>  <origin>  (26) 
adgpu

>  <m_score__min__energy>  (26) 
-10.710000000000001

>  <m_primary>  (26) 
energy

$$$$
26:0
     RDKit          3D

 20 21  0  0  0  0  0  0  0  0999 V2000
   -3.4820   25.2980  -30.4680 O   0  0  0  0  0  0  0  0  0  0  0  0
   -4.7270   24.6890  -30.5750 C   0  0  0  0  0  0  0  0  0  0  0  0
   -5.9130   25.2490  -30.1460 C   0  0  0  0  0  0  0  0  0  0  0  0
   -6.8960   24.3130  -30.4070 C   0  0  0  0  0  0  0  0  0  0  0  0
   -6.2550   23.2340  -30.9820 C   0  0  0  0  0  0  0  0  0  0  0  0
   -6.8940   22.0800  -31.4220 O   0  0  0  0  0  0  0  0  0  0  0  0
   -4.9280   23.4560  -31.0870 N   0  0  0  0  0  0  0  0  0  0  0  0
   -3.9370   22.5670  -31.6320 C   0  0  0  0  0  0  0  0  0  0  0  0
   -4.1530   21.9300  -32.8670 C   0  0  0  0  0  0  0  0  0  0  0  0
   -3.1880   21.0660  -33.3950 C   0  0  0  0  0  0  0  0  0  0  0  0
   -2.0010   20.8310  -32.6980 C   0  0  0  0  0  0  0  0  0  0  0  0
   -1.7760   21.4600  -31.4710 C   0  0  0  0  0  0  0  0  0  0  0  0
   -2.7380   22.3240  -30.9380 C   0  0  0  0  0  0  0  0  0  0  0  0
   -6.0487   26.2402  -29.6887 H   0  0  0  0  0  0  0  0  0  0  0  0
   -7.9718   24.4086  -30.1986 H   0  0  0  0  0  0  0  0  0  0  0  0
   -5.0858   22.1122  -33.4207 H   0  0  0  0  0  0  0  0  0  0  0  0
   -3.3645   20.5707  -34.3612 H   0  0  0  0  0  0  0  0  0  0  0  0
   -1.2435   20.1510  -33.1148 H   0  0  0  0  0  0  0  0  0  0  0  0
   -0.8403   21.2753  -30.9230 H   0  0  0  0  0  0  0  0  0  0  0  0
   -2.5560   22.8160  -29.9711 H   0  0  0  0  0  0  0  0  0  0  0  0
  1  2  1  0
  2  3  2  0
  3  4  1  0
  4  5  2  0
  5  6  1  0
  5  7  1  0
  7  8  1  0
  8  9  2  0
  9 10  1  0
 10 11  2  0
 11 12  1  0
 12 13  2  0
  7  2  1  0
 13  8  1  0
  3 14  1  0
  4 15  1  0
  9 16  1  0
 10 17  1  0
 11 18  1  0
 12 19  1  0
 13 20  1  0
M  CHG  2   1  -1   6  -1
M  END
>  <UniqueID>  (27) 
26

>  <SMILES>  (27) 
[O-]c1ccc([O-])n1-c1ccccc1

>  <Energy>  (27) 
54.117201857242215

>  <Genealogy>  (27) 
[O-]c1ccc([O-])n1-c1ccccc1 (protonated)
[O-]c1ccc([O-])n1-c1ccccc1 (3D coordinates assigned)
[O-]c1ccc([O-])n1-c1ccccc1 (optimized conformer: 54.117201857242215 kcal/mol)

>  <smiles>  (27) 
Oc1ccc(O)n1-c1ccccc1

>  <score_type>  (27) 
oracle

>  <origin>  (27) 
adgpu

>  <m_score__min__energy>  (27) 
-8.0299999999999994

>  <m_primary>  (27) 
energy

$$$$
27:0
     RDKit          3D

 29 31  0  0  0  0  0  0  0  0999 V2000
   -4.2150   22.6610  -33.2500 O   0  0  0  0  0  0  0  0  0  0  0  0
   -4.6210   21.5430  -32.8720 N   0  0  0  0  0  0  0  0  0  0  0  0
   -3.7790   20.4610  -32.9810 O   0  0  0  0  0  0  0  0  0  0  0  0
   -5.8700   21.4270  -32.1670 C   0  0  0  0  0  0  0  0  0  0  0  0
   -6.6540   20.2710  -32.3390 C   0  0  0  0  0  0  0  0  0  0  0  0
   -7.8990   20.1530  -31.7150 C   0  0  0  0  0  0  0  0  0  0  0  0
   -8.8680   18.7110  -31.9550 Cl  0  0  0  0  0  0  0  0  0  0  0  0
   -8.3740   21.1850  -30.9050 C   0  0  0  0  0  0  0  0  0  0  0  0
   -7.6020   22.3320  -30.7080 C   0  0  0  0  0  0  0  0  0  0  0  0
   -6.3510   22.4680  -31.3320 C   0  0  0  0  0  0  0  0  0  0  0  0
   -5.5270   23.6570  -31.0220 C   0  0  0  0  0  0  0  0  0  0  0  0
   -5.8290   24.9000  -31.4430 N   0  0  0  0  0  0  0  0  0  0  0  0
   -4.7970   25.6490  -31.0830 N   0  0  0  0  0  0  0  0  0  0  0  0
   -3.8880   24.9060  -30.4710 N   0  0  0  0  0  0  0  0  0  0  0  0
   -4.3190   23.6580  -30.4200 N   0  0  0  0  0  0  0  0  0  0  0  0
   -3.6080   22.5840  -29.7790 C   0  0  0  0  0  0  0  0  0  0  0  0
   -3.8110   22.2940  -28.4180 C   0  0  0  0  0  0  0  0  0  0  0  0
   -3.1040   21.2540  -27.8060 C   0  0  0  0  0  0  0  0  0  0  0  0
   -2.1800   20.5070  -28.5410 C   0  0  0  0  0  0  0  0  0  0  0  0
   -1.9570   20.8020  -29.8890 C   0  0  0  0  0  0  0  0  0  0  0  0
   -2.6630   21.8400  -30.5040 C   0  0  0  0  0  0  0  0  0  0  0  0
   -6.2828   19.4512  -32.9716 H   0  0  0  0  0  0  0  0  0  0  0  0
   -9.3577   21.0951  -30.4210 H   0  0  0  0  0  0  0  0  0  0  0  0
   -7.9771   23.1364  -30.0581 H   0  0  0  0  0  0  0  0  0  0  0  0
   -4.5286   22.8874  -27.8325 H   0  0  0  0  0  0  0  0  0  0  0  0
   -3.2757   21.0238  -26.7442 H   0  0  0  0  0  0  0  0  0  0  0  0
   -1.6280   19.6867  -28.0589 H   0  0  0  0  0  0  0  0  0  0  0  0
   -1.2257   20.2171  -30.4661 H   0  0  0  0  0  0  0  0  0  0  0  0
   -2.4772   22.0755  -31.5623 H   0  0  0  0  0  0  0  0  0  0  0  0
  1  2  2  0
  2  3  1  0
  2  4  1  0
  4  5  2  0
  5  6  1  0
  6  7  1  0
  6  8  2  0
  8  9  1  0
  9 10  2  0
 10 11  1  0
 11 12  2  0
 12 13  1  0
 13 14  2  0
 14 15  1  0
 15 16  1  0
 16 17  2  0
 17 18  1  0
 18 19  2  0
 19 20  1  0
 20 21  2  0
 10  4  1  0
 15 11  1  0
 21 16  1  0
  5 22  1  0
  8 23  1  0
  9 24  1  0
 17 25  1  0
 18 26  1  0
 19 27  1  0
 20 28  1  0
 21 29  1  0
M  CHG  2   2   1   3  -1
M  END
>  <UniqueID>  (28) 
27

>  <SMILES>  (28) 
O=[N+]([O-])c1cc(Cl)ccc1-c1nnnn1-c1ccccc1

>  <Energy>  (28) 
85.78023484902234

>  <Genealogy>  (28) 
O=[N+]([O-])c1cc(Cl)ccc1-c1nnnn1-c1ccccc1 (3D coordinates assigned)
O=[N+]([O-])c1cc(Cl)ccc1-c1nnnn1-c1ccccc1 (optimized conformer: 85.78023484902234 kcal/mol)

>  <smiles>  (28) 
O=[N+]([O-])c1cc(Cl)ccc1-c1nnnn1-c1ccccc1

>  <score_type>  (28) 
oracle

>  <origin>  (28) 
adgpu

>  <m_score__min__energy>  (28) 
-8.5199999999999996

>  <m_primary>  (28) 
energy

$$$$
28:0
     RDKit          3D

 39 41  0  0  1  0  0  0  0  0999 V2000
   -4.9790   16.4930  -33.9200 C   0  0  0  0  0  0  0  0  0  0  0  0
   -4.8460   17.5740  -34.9590 C   0  0  0  0  0  0  0  0  0  0  0  0
   -4.5500   18.8370  -34.4670 O   0  0  0  0  0  0  0  0  0  0  0  0
   -5.4180   19.6080  -33.7130 C   0  0  0  0  0  0  0  0  0  0  0  0
   -6.7520   19.2930  -33.7670 C   0  0  0  0  0  0  0  0  0  0  0  0
   -7.6010   20.0690  -33.0130 C   0  0  0  0  0  0  0  0  0  0  0  0
   -8.9080   19.7650  -33.0620 N   0  0  0  0  0  0  0  0  0  0  0  0
   -9.7670   20.4970  -32.3420 C   0  0  0  0  0  0  0  0  0  0  0  0
   -9.3150   21.5030  -31.6000 N   0  0  0  0  0  0  0  0  0  0  0  0
   -8.0070   21.8260  -31.5370 C   0  0  0  0  0  0  0  0  0  0  0  0
   -7.6720   22.7720  -30.8240 N   0  0  0  0  0  0  0  0  0  0  0  0
   -6.4850   23.3420  -30.5440 C   0  0  0  0  0  0  0  0  0  0  0  0
   -6.1100   24.5340  -31.2130 C   0  0  0  0  0  0  0  0  0  0  0  0
   -4.9480   25.1820  -30.8390 C   0  0  0  0  0  0  0  0  0  0  0  0
   -4.1610   24.6590  -29.8160 C   0  0  0  0  0  0  0  0  0  0  0  0
   -3.0260   25.2860  -29.4470 F   0  0  0  0  0  0  0  0  0  0  0  0
   -4.5180   23.5030  -29.1630 C   0  0  0  0  0  0  0  0  0  0  0  0
   -3.4830   22.8910  -27.8780 Cl  0  0  0  0  0  0  0  0  0  0  0  0
   -5.6760   22.8360  -29.5190 C   0  0  0  0  0  0  0  0  0  0  0  0
   -7.0880   21.1080  -32.2530 C   0  0  0  0  0  0  0  0  0  0  0  0
   -5.7540   21.3920  -32.2250 C   0  0  0  0  0  0  0  0  0  0  0  0
   -4.8640   20.6140  -32.9860 C   0  0  0  0  0  0  0  0  0  0  0  0
   -3.5010   20.8520  -33.0000 O   0  0  0  0  0  0  0  0  0  0  0  0
   -2.8060   21.5670  -32.0320 C   0  0  0  0  0  0  0  0  0  0  0  0
   -4.9240   16.9402  -32.9165 H   0  0  0  0  0  0  0  0  0  0  0  0
   -5.9465   15.9841  -34.0421 H   0  0  0  0  0  0  0  0  0  0  0  0
   -4.1637   15.7648  -34.0421 H   0  0  0  0  0  0  0  0  0  0  0  0
   -4.0427   17.2824  -35.6517 H   0  0  0  0  0  0  0  0  0  0  0  0
   -5.8327   17.6581  -35.4380 H   0  0  0  0  0  0  0  0  0  0  0  0
   -7.1242   18.4610  -34.3828 H   0  0  0  0  0  0  0  0  0  0  0  0
   -9.2850   18.9720  -33.6440 H   0  0  0  0  0  0  0  0  0  0  0  0
  -10.8424   20.2669  -32.3643 H   0  0  0  0  0  0  0  0  0  0  0  0
   -6.7370   24.9389  -32.0210 H   0  0  0  0  0  0  0  0  0  0  0  0
   -4.6454   26.1089  -31.3483 H   0  0  0  0  0  0  0  0  0  0  0  0
   -5.9610   21.9100  -28.9981 H   0  0  0  0  0  0  0  0  0  0  0  0
   -5.3774   22.2237  -31.6114 H   0  0  0  0  0  0  0  0  0  0  0  0
   -3.1261   21.2376  -31.0325 H   0  0  0  0  0  0  0  0  0  0  0  0
   -1.7268   21.3886  -32.1487 H   0  0  0  0  0  0  0  0  0  0  0  0
   -3.0149   22.6407  -32.1487 H   0  0  0  0  0  0  0  0  0  0  0  0
  1  2  1  0
  2  3  1  0
  3  4  1  0
  4  5  2  0
  5  6  1  0
  6  7  1  0
  7  8  1  0
  8  9  2  0
  9 10  1  0
 10 11  2  0
 11 12  1  0
 12 13  2  0
 13 14  1  0
 14 15  2  0
 15 16  1  0
 15 17  1  0
 17 18  1  0
 17 19  2  0
 10 20  1  0
 20 21  1  0
 21 22  2  0
 22 23  1  0
 23 24  1  0
 22  4  1  0
 20  6  2  0
 19 12  1  0
  1 25  1  0
  1 26  1  0
  1 27  1  0
  2 28  1  0
  2 29  1  0
  5 30  1  0
  7 31  1  0
  8 32  1  0
 13 33  1  0
 14 34  1  0
 19 35  1  0
 21 36  1  0
 24 37  1  0
 24 38  1  0
 24 39  1  0
M  END
>  <smiles>  (29) 
CCOc1cc2[nH]cnc(=Nc3ccc(F)c(Cl)c3)c2cc1OC

>  <score_type>  (29) 
oracle

>  <origin>  (29) 
adgpu

>  <m_score__min__energy>  (29) 
-7.7699999999999996

>  <m_primary>  (29) 
energy

$$$$
29:0
     RDKit          3D

 45 49  0  0  0  0  0  0  0  0999 V2000
   -5.3110   17.9280  -34.7860 O   0  0  0  0  0  0  0  0  0  0  0  0
   -5.5240   18.7010  -33.8150 C   0  0  0  0  0  0  0  0  0  0  0  0
   -4.4150   19.5190  -33.2980 C   0  0  0  0  0  0  0  0  0  0  0  0
   -4.4170   20.2840  -32.1500 C   0  0  0  0  0  0  0  0  0  0  0  0
   -3.1360   20.8040  -32.1000 C   0  0  0  0  0  0  0  0  0  0  0  0
   -2.5670   21.7050  -31.0720 C   0  0  0  0  0  0  0  0  0  0  0  0
   -3.2480   22.8840  -30.7290 C   0  0  0  0  0  0  0  0  0  0  0  0
   -2.7290   23.7490  -29.7610 C   0  0  0  0  0  0  0  0  0  0  0  0
   -1.5180   23.4500  -29.1160 C   0  0  0  0  0  0  0  0  0  0  0  0
   -0.9830   24.3410  -28.1200 N   0  0  0  0  0  0  0  0  0  0  0  0
   -0.8420   25.6790  -28.2140 C   0  0  0  0  0  0  0  0  0  0  0  0
   -1.2260   26.4320  -29.3170 O   0  0  0  0  0  0  0  0  0  0  0  0
   -0.2930   26.2040  -27.0610 C   0  0  0  0  0  0  0  0  0  0  0  0
   -0.0880   25.1320  -26.2110 C   0  0  0  0  0  0  0  0  0  0  0  0
   -0.5210   24.0110  -26.8950 C   0  0  0  0  0  0  0  0  0  0  0  0
   -0.4680   22.7090  -26.4050 O   0  0  0  0  0  0  0  0  0  0  0  0
   -0.8360   22.2720  -29.4570 C   0  0  0  0  0  0  0  0  0  0  0  0
   -1.3550   21.4060  -30.4250 C   0  0  0  0  0  0  0  0  0  0  0  0
   -2.4660   20.3560  -33.1370 O   0  0  0  0  0  0  0  0  0  0  0  0
   -3.2000   19.5760  -33.8760 N   0  0  0  0  0  0  0  0  0  0  0  0
   -6.8420   18.7900  -33.2490 N   0  0  0  0  0  0  0  0  0  0  0  0
   -7.5800   17.6340  -32.7280 C   0  0  0  0  0  0  0  0  0  0  0  0
   -8.6750   18.2010  -31.7920 C   0  0  0  0  0  0  0  0  0  0  0  0
   -8.4570   19.6700  -31.8600 C   0  0  0  0  0  0  0  0  0  0  0  0
   -9.1770   20.6760  -31.2110 C   0  0  0  0  0  0  0  0  0  0  0  0
   -8.8060   22.0110  -31.4300 C   0  0  0  0  0  0  0  0  0  0  0  0
   -7.7360   22.3180  -32.2930 C   0  0  0  0  0  0  0  0  0  0  0  0
   -7.0280   21.2890  -32.9350 C   0  0  0  0  0  0  0  0  0  0  0  0
   -7.4080   19.9640  -32.6860 C   0  0  0  0  0  0  0  0  0  0  0  0
   -5.2429   20.4431  -31.4411 H   0  0  0  0  0  0  0  0  0  0  0  0
   -4.1981   23.1292  -31.2262 H   0  0  0  0  0  0  0  0  0  0  0  0
   -3.2728   24.6697  -29.5030 H   0  0  0  0  0  0  0  0  0  0  0  0
   -0.0648   27.2610  -26.8591 H   0  0  0  0  0  0  0  0  0  0  0  0
    0.3343   25.1648  -25.1958 H   0  0  0  0  0  0  0  0  0  0  0  0
   -0.6980   22.5070  -25.4390 H   0  0  0  0  0  0  0  0  0  0  0  0
    0.1140   22.0278  -28.9592 H   0  0  0  0  0  0  0  0  0  0  0  0
   -0.8113   20.4849  -30.6818 H   0  0  0  0  0  0  0  0  0  0  0  0
   -8.0395   17.0719  -33.5544 H   0  0  0  0  0  0  0  0  0  0  0  0
   -6.9131   16.9443  -32.1899 H   0  0  0  0  0  0  0  0  0  0  0  0
   -9.6791   17.9346  -32.1537 H   0  0  0  0  0  0  0  0  0  0  0  0
   -8.6135   17.8039  -30.7680 H   0  0  0  0  0  0  0  0  0  0  0  0
  -10.0154   20.4271  -30.5438 H   0  0  0  0  0  0  0  0  0  0  0  0
   -9.3529   22.8213  -30.9257 H   0  0  0  0  0  0  0  0  0  0  0  0
   -7.4540   23.3673  -32.4647 H   0  0  0  0  0  0  0  0  0  0  0  0
   -6.1955   21.5179  -33.6166 H   0  0  0  0  0  0  0  0  0  0  0  0
  1  2  2  0
  2  3  1  0
  3  4  1  0
  4  5  2  0
  5  6  1  0
  6  7  2  0
  7  8  1  0
  8  9  2  0
  9 10  1  0
 10 11  1  0
 11 12  1  0
 11 13  2  0
 13 14  1  0
 14 15  2  0
 15 16  1  0
  9 17  1  0
 17 18  2  0
  5 19  1  0
 19 20  1  0
  2 21  1  0
 21 22  1  0
 22 23  1  0
 23 24  1  0
 24 25  2  0
 25 26  1  0
 26 27  2  0
 27 28  1  0
 28 29  2  0
 20  3  2  0
 29 21  1  0
 18  6  1  0
 29 24  1  0
 15 10  1  0
  4 30  1  0
  7 31  1  0
  8 32  1  0
 13 33  1  0
 14 34  1  0
 16 35  1  0
 17 36  1  0
 18 37  1  0
 22 38  1  0
 22 39  1  0
 23 40  1  0
 23 41  1  0
 25 42  1  0
 26 43  1  0
 27 44  1  0
 28 45  1  0
M  CHG  1  12  -1
M  END
>  <UniqueID>  (30) 
28

>  <SMILES>  (30) 
O=C(c1cc(-c2ccc(-n3c([O-])ccc3O)cc2)on1)N1CCc2ccccc21

>  <Energy>  (30) 
133.47256182873505

>  <Genealogy>  (30) 
O=C(c1cc(-c2ccc(-n3c([O-])ccc3O)cc2)on1)N1CCc2ccccc21 (protonated)
O=C(c1cc(-c2ccc(-n3c([O-])ccc3O)cc2)on1)N1CCc2ccccc21 (3D coordinates assigned)
O=C(c1cc(-c2ccc(-n3c([O-])ccc3O)cc2)on1)N1CCc2ccccc21 (nonaromatic ring conformer: 133.47256182873505 kcal/mol)

>  <smiles>  (30) 
O=C(c1cc(-c2ccc(-n3c(O)ccc3O)cc2)on1)N1CCc2ccccc21

>  <score_type>  (30) 
oracle

>  <origin>  (30) 
adgpu

>  <m_score__min__energy>  (30) 
-11.380000000000001

>  <m_primary>  (30) 
energy

$$$$
30:0
     RDKit          3D

 60 62  0  0  0  0  0  0  0  0999 V2000
   -3.2530   17.2080  -34.3900 C   0  0  0  0  0  0  0  0  0  0  0  0
   -4.6430   16.9240  -34.9540 C   0  0  0  0  0  0  0  0  0  0  0  0
   -5.5300   16.3350  -33.9380 N   0  0  0  0  0  0  0  0  0  0  0  0
   -6.0190   14.9600  -34.1050 C   0  0  0  0  0  0  0  0  0  0  0  0
   -5.0060   13.9670  -33.5490 C   0  0  0  0  0  0  0  0  0  0  0  0
   -5.7050   16.9970  -32.6700 C   0  0  0  0  0  0  0  0  0  0  0  0
   -5.6360   16.3300  -31.6030 O   0  0  0  0  0  0  0  0  0  0  0  0
   -5.9600   18.4480  -32.5960 C   0  0  0  0  0  0  0  0  0  0  0  0
   -4.9090   19.3420  -32.3420 C   0  0  0  0  0  0  0  0  0  0  0  0
   -5.1470   20.7180  -32.3100 C   0  0  0  0  0  0  0  0  0  0  0  0
   -6.4410   21.2170  -32.5290 C   0  0  0  0  0  0  0  0  0  0  0  0
   -6.7080   22.5940  -32.5200 O   0  0  0  0  0  0  0  0  0  0  0  0
   -6.2720   23.4910  -31.5330 C   0  0  0  0  0  0  0  0  0  0  0  0
   -7.2260   24.2490  -30.8450 C   0  0  0  0  0  0  0  0  0  0  0  0
   -6.8310   25.1540  -29.8560 C   0  0  0  0  0  0  0  0  0  0  0  0
   -5.4750   25.3210  -29.5610 C   0  0  0  0  0  0  0  0  0  0  0  0
   -4.5030   24.6020  -30.2660 C   0  0  0  0  0  0  0  0  0  0  0  0
   -3.1220   24.7890  -29.9220 N   0  0  0  0  0  0  0  0  0  0  0  0
   -2.1470   23.7520  -29.7380 C   0  0  0  0  0  0  0  0  0  0  0  0
   -0.9290   24.0400  -29.5870 O   0  0  0  0  0  0  0  0  0  0  0  0
   -2.5730   22.3860  -29.7150 N   0  0  0  0  0  0  0  0  0  0  0  0
   -1.6340   21.3020  -29.6420 C   0  0  0  0  0  0  0  0  0  0  0  0
   -1.2720   20.7740  -28.3830 C   0  0  0  0  0  0  0  0  0  0  0  0
   -1.8610   21.3360  -27.1160 C   0  0  0  0  0  0  0  0  0  0  0  0
   -0.3640   19.7050  -28.3150 C   0  0  0  0  0  0  0  0  0  0  0  0
    0.1720   19.1610  -29.4800 C   0  0  0  0  0  0  0  0  0  0  0  0
   -0.1780   19.6840  -30.7230 C   0  0  0  0  0  0  0  0  0  0  0  0
   -1.0650   20.7670  -30.8180 C   0  0  0  0  0  0  0  0  0  0  0  0
   -1.4100   21.3160  -32.1750 C   0  0  0  0  0  0  0  0  0  0  0  0
   -4.9060   23.6770  -31.2470 C   0  0  0  0  0  0  0  0  0  0  0  0
   -7.4970   20.3230  -32.7270 C   0  0  0  0  0  0  0  0  0  0  0  0
   -7.2590   18.9470  -32.7690 C   0  0  0  0  0  0  0  0  0  0  0  0
   -3.2945   17.1995  -33.2908 H   0  0  0  0  0  0  0  0  0  0  0  0
   -2.5517   16.4346  -34.7364 H   0  0  0  0  0  0  0  0  0  0  0  0
   -2.9113   18.1945  -34.7364 H   0  0  0  0  0  0  0  0  0  0  0  0
   -5.0837   17.8672  -35.3090 H   0  0  0  0  0  0  0  0  0  0  0  0
   -4.5390   16.2039  -35.7790 H   0  0  0  0  0  0  0  0  0  0  0  0
   -6.9717   14.8459  -33.5672 H   0  0  0  0  0  0  0  0  0  0  0  0
   -6.1648   14.7599  -35.1768 H   0  0  0  0  0  0  0  0  0  0  0  0
   -5.0325   13.9930  -32.4496 H   0  0  0  0  0  0  0  0  0  0  0  0
   -5.2558   12.9542  -33.8980 H   0  0  0  0  0  0  0  0  0  0  0  0
   -3.9984   14.2369  -33.8980 H   0  0  0  0  0  0  0  0  0  0  0  0
   -3.8932   18.9577  -32.1673 H   0  0  0  0  0  0  0  0  0  0  0  0
   -4.3177   21.4132  -32.1125 H   0  0  0  0  0  0  0  0  0  0  0  0
   -8.2933   24.1319  -31.0840 H   0  0  0  0  0  0  0  0  0  0  0  0
   -7.5880   25.7354  -29.3092 H   0  0  0  0  0  0  0  0  0  0  0  0
   -5.1699   26.0218  -28.7699 H   0  0  0  0  0  0  0  0  0  0  0  0
   -3.5650   22.1710  -29.9640 H   0  0  0  0  0  0  0  0  0  0  0  0
   -1.3732   20.8705  -26.2469 H   0  0  0  0  0  0  0  0  0  0  0  0
   -1.7000   22.4238  -27.0878 H   0  0  0  0  0  0  0  0  0  0  0  0
   -2.9400   21.1242  -27.0878 H   0  0  0  0  0  0  0  0  0  0  0  0
   -0.0743   19.2949  -27.3363 H   0  0  0  0  0  0  0  0  0  0  0  0
    0.8736   18.3161  -29.4184 H   0  0  0  0  0  0  0  0  0  0  0  0
    0.2449   19.2439  -31.6382 H   0  0  0  0  0  0  0  0  0  0  0  0
   -1.9920   22.2421  -32.0587 H   0  0  0  0  0  0  0  0  0  0  0  0
   -0.4847   21.5316  -32.7294 H   0  0  0  0  0  0  0  0  0  0  0  0
   -2.0056   20.5758  -32.7294 H   0  0  0  0  0  0  0  0  0  0  0  0
   -4.1490   23.0956  -31.7938 H   0  0  0  0  0  0  0  0  0  0  0  0
   -8.5211   20.7050  -32.8504 H   0  0  0  0  0  0  0  0  0  0  0  0
   -8.0945   18.2518  -32.9386 H   0  0  0  0  0  0  0  0  0  0  0  0
  1  2  1  0
  2  3  1  0
  3  4  1  0
  4  5  1  0
  3  6  1  0
  6  7  2  0
  6  8  1  0
  8  9  2  0
  9 10  1  0
 10 11  2  0
 11 12  1  0
 12 13  1  0
 13 14  2  0
 14 15  1  0
 15 16  2  0
 16 17  1  0
 17 18  1  0
 18 19  1  0
 19 20  2  0
 19 21  1  0
 21 22  1  0
 22 23  2  0
 23 24  1  0
 23 25  1  0
 25 26  2  0
 26 27  1  0
 27 28  2  0
 28 29  1  0
 17 30  2  0
 11 31  1  0
 31 32  2  0
 32  8  1  0
 30 13  1  0
 28 22  1  0
  1 33  1  0
  1 34  1  0
  1 35  1  0
  2 36  1  0
  2 37  1  0
  4 38  1  0
  4 39  1  0
  5 40  1  0
  5 41  1  0
  5 42  1  0
  9 43  1  0
 10 44  1  0
 14 45  1  0
 15 46  1  0
 16 47  1  0
 21 48  1  0
 24 49  1  0
 24 50  1  0
 24 51  1  0
 25 52  1  0
 26 53  1  0
 27 54  1  0
 29 55  1  0
 29 56  1  0
 29 57  1  0
 30 58  1  0
 31 59  1  0
 32 60  1  0
M  CHG  1  18  -1
M  END
>  <UniqueID>  (31) 
29

>  <SMILES>  (31) 
CCN(CC)C(=O)c1ccc(Oc2cccc([N-]C(=O)Nc3c(C)cccc3C)c2)cc1

>  <Energy>  (31) 
76.39256030385698

>  <Genealogy>  (31) 
CCN(CC)C(=O)c1ccc(Oc2cccc([N-]C(=O)Nc3c(C)cccc3C)c2)cc1 (protonated)
CCN(CC)C(=O)c1ccc(Oc2cccc([N-]C(=O)Nc3c(C)cccc3C)c2)cc1 (3D coordinates assigned)
CCN(CC)C(=O)c1ccc(Oc2cccc([N-]C(=O)Nc3c(C)cccc3C)c2)cc1 (optimized conformer: 76.39256030385698 kcal/mol)

>  <smiles>  (31) 
CCN(CC)C(=O)c1ccc(Oc2cccc(NC(=O)Nc3c(C)cccc3C)c2)cc1

>  <score_type>  (31) 
oracle

>  <origin>  (31) 
adgpu

>  <m_score__min__energy>  (31) 
-10.6

>  <m_primary>  (31) 
energy

$$$$
31:0
     RDKit          3D

 35 36  0  0  0  0  0  0  0  0999 V2000
   -4.2380   25.2720  -31.5910 H   0  0  0  0  0  0  0  0  0  0  0  0
   -4.0430   25.6360  -30.6680 O   0  0  0  0  0  0  0  0  0  0  0  0
   -4.3100   24.9290  -29.5110 N   0  0  0  0  0  0  0  0  0  0  0  0
   -4.7800   25.4460  -28.7350 H   0  0  0  0  0  0  0  0  0  0  0  0
   -4.0520   23.6560  -29.3660 C   0  0  0  0  0  0  0  0  0  0  0  0
   -3.3270   22.8790  -30.3990 C   0  0  0  0  0  0  0  0  0  0  0  0
   -3.8660   22.6850  -31.6910 C   0  0  0  0  0  0  0  0  0  0  0  0
   -5.0570   23.3000  -32.1010 O   0  0  0  0  0  0  0  0  0  0  0  0
   -6.3220   22.6960  -32.0560 C   0  0  0  0  0  0  0  0  0  0  0  0
   -7.4980   23.4450  -31.8700 C   0  0  0  0  0  0  0  0  0  0  0  0
   -7.4405   24.5384  -31.7643 H   0  0  0  0  0  0  0  0  0  0  0  0
   -8.7390   22.8050  -31.8190 C   0  0  0  0  0  0  0  0  0  0  0  0
   -9.6545   23.3940  -31.6613 H   0  0  0  0  0  0  0  0  0  0  0  0
   -8.8190   21.4180  -31.9680 C   0  0  0  0  0  0  0  0  0  0  0  0
   -9.7959   20.9157  -31.9103 H   0  0  0  0  0  0  0  0  0  0  0  0
   -7.6570   20.6640  -32.1910 C   0  0  0  0  0  0  0  0  0  0  0  0
   -7.7390   19.1720  -32.3170 C   0  0  0  0  0  0  0  0  0  0  0  0
   -7.7638   18.7202  -31.3144 H   0  0  0  0  0  0  0  0  0  0  0  0
   -8.6535   18.9000  -32.8645 H   0  0  0  0  0  0  0  0  0  0  0  0
   -6.8599   18.8014  -32.8645 H   0  0  0  0  0  0  0  0  0  0  0  0
   -6.4110   21.3090  -32.2240 C   0  0  0  0  0  0  0  0  0  0  0  0
   -5.4961   20.7194  -32.3833 H   0  0  0  0  0  0  0  0  0  0  0  0
   -3.2320   21.8580  -32.5660 N   0  0  0  0  0  0  0  0  0  0  0  0
   -2.0690   21.2240  -32.2560 C   0  0  0  0  0  0  0  0  0  0  0  0
   -1.4210   20.3220  -33.2580 C   0  0  0  0  0  0  0  0  0  0  0  0
   -0.8568   19.5367  -32.7336 H   0  0  0  0  0  0  0  0  0  0  0  0
   -2.1942   19.8590  -33.8886 H   0  0  0  0  0  0  0  0  0  0  0  0
   -0.7354   20.9070  -33.8886 H   0  0  0  0  0  0  0  0  0  0  0  0
   -1.4990   21.3990  -30.9900 C   0  0  0  0  0  0  0  0  0  0  0  0
   -0.5576   20.8929  -30.7298 H   0  0  0  0  0  0  0  0  0  0  0  0
   -2.1360   22.2210  -30.0620 C   0  0  0  0  0  0  0  0  0  0  0  0
   -1.7019   22.3541  -29.0601 H   0  0  0  0  0  0  0  0  0  0  0  0
   -4.4640   22.9870  -28.1700 N   0  0  0  0  0  0  0  0  0  0  0  0
   -4.2380   21.9790  -28.0190 H   0  0  0  0  0  0  0  0  0  0  0  0
   -4.9950   23.4920  -27.4260 H   0  0  0  0  0  0  0  0  0  0  0  0
  1  2  1  0
  2  3  1  0
  3  4  1  0
  3  5  2  0
  5  6  1  0
  6  7  2  0
  7  8  1  0
  8  9  1  0
  9 10  2  0
 10 11  1  0
 10 12  1  0
 12 13  1  0
 12 14  2  0
 14 15  1  0
 14 16  1  0
 16 17  1  0
 17 18  1  0
 17 19  1  0
 17 20  1  0
 16 21  2  0
 21 22  1  0
  7 23  1  0
 23 24  2  0
 24 25  1  0
 25 26  1  0
 25 27  1  0
 25 28  1  0
 24 29  1  0
 29 30  1  0
 29 31  2  0
 31 32  1  0
  5 33  1  0
 33 34  1  0
 33 35  1  0
 31  6  1  0
 21  9  1  0
M  CHG  1   3   1
M  END
>  <UniqueID>  (32) 
30

>  <SMILES>  (32) 
Cc1cccc(Oc2nc(C)ccc2/C(N)=[NH+]\O)c1

>  <Energy>  (32) 
47.21707165462619

>  <Genealogy>  (32) 
Cc1cccc(Oc2nc(C)ccc2C(N)=[NH+]O)c1 (protonated)
Cc1cccc(Oc2nc(C)ccc2/C(N)=[NH+]\O)c1 (cis-trans isomerization)
Cc1cccc(Oc2nc(C)ccc2/C(N)=[NH+]\O)c1 (3D coordinates assigned)
Cc1cccc(Oc2nc(C)ccc2/C(N)=[NH+]\O)c1 (optimized conformer: 47.21707165462619 kcal/mol)

>  <smiles>  (32) 
Cc1cccc(Oc2nc(C)ccc2C(N)=NO)c1

>  <score_type>  (32) 
oracle

>  <origin>  (32) 
adgpu

>  <m_score__min__energy>  (32) 
-7.2699999999999996

>  <m_primary>  (32) 
energy

$$$$
32:0
     RDKit          3D

 40 43  0  0  0  0  0  0  0  0999 V2000
   -2.4430   18.4670  -34.2050 C   0  0  0  0  0  0  0  0  0  0  0  0
   -3.8030   18.1790  -34.3210 C   0  0  0  0  0  0  0  0  0  0  0  0
   -4.7360   18.8290  -33.4990 C   0  0  0  0  0  0  0  0  0  0  0  0
   -6.2050   18.5160  -33.6140 C   0  0  0  0  0  0  0  0  0  0  0  0
   -6.9850   19.7430  -33.7870 N   0  0  0  0  0  0  0  0  0  0  0  0
   -7.3750   20.6200  -32.7120 C   0  0  0  0  0  0  0  0  0  0  0  0
   -8.5770   20.3720  -32.0310 C   0  0  0  0  0  0  0  0  0  0  0  0
   -8.9890   21.2080  -30.9920 C   0  0  0  0  0  0  0  0  0  0  0  0
   -8.2060   22.3030  -30.6190 C   0  0  0  0  0  0  0  0  0  0  0  0
   -6.9970   22.5680  -31.2810 C   0  0  0  0  0  0  0  0  0  0  0  0
   -6.1680   23.7280  -30.8880 C   0  0  0  0  0  0  0  0  0  0  0  0
   -5.0320   24.1020  -31.5130 N   0  0  0  0  0  0  0  0  0  0  0  0
   -4.6160   25.1710  -30.8550 N   0  0  0  0  0  0  0  0  0  0  0  0
   -5.4630   25.4310  -29.8740 N   0  0  0  0  0  0  0  0  0  0  0  0
   -6.4490   24.5510  -29.8590 N   0  0  0  0  0  0  0  0  0  0  0  0
   -6.5850   21.7200  -32.3240 C   0  0  0  0  0  0  0  0  0  0  0  0
   -4.2890   19.7900  -32.5760 C   0  0  0  0  0  0  0  0  0  0  0  0
   -2.9190   20.0850  -32.4520 C   0  0  0  0  0  0  0  0  0  0  0  0
   -2.4510   21.0930  -31.4650 C   0  0  0  0  0  0  0  0  0  0  0  0
   -1.0920   21.4230  -31.3520 C   0  0  0  0  0  0  0  0  0  0  0  0
   -0.6870   22.3470  -30.4430 N   0  0  0  0  0  0  0  0  0  0  0  0
   -1.5800   22.9700  -29.6330 C   0  0  0  0  0  0  0  0  0  0  0  0
   -2.9020   22.6710  -29.7220 N   0  0  0  0  0  0  0  0  0  0  0  0
   -3.3520   21.7510  -30.6130 C   0  0  0  0  0  0  0  0  0  0  0  0
   -2.0010   19.4120  -33.2760 C   0  0  0  0  0  0  0  0  0  0  0  0
   -1.7161   17.9482  -34.8473 H   0  0  0  0  0  0  0  0  0  0  0  0
   -4.1453   17.4394  -35.0598 H   0  0  0  0  0  0  0  0  0  0  0  0
   -6.3673   17.8599  -34.4819 H   0  0  0  0  0  0  0  0  0  0  0  0
   -6.5329   18.0165  -32.6904 H   0  0  0  0  0  0  0  0  0  0  0  0
   -7.2270   20.0190  -34.7670 H   0  0  0  0  0  0  0  0  0  0  0  0
   -9.1994   19.5118  -32.3185 H   0  0  0  0  0  0  0  0  0  0  0  0
   -9.9330   21.0040  -30.4654 H   0  0  0  0  0  0  0  0  0  0  0  0
   -8.5385   22.9608  -29.8025 H   0  0  0  0  0  0  0  0  0  0  0  0
   -5.3650   26.2240  -29.2020 H   0  0  0  0  0  0  0  0  0  0  0  0
   -5.6354   21.9176  -32.8428 H   0  0  0  0  0  0  0  0  0  0  0  0
   -5.0184   20.3173  -31.9436 H   0  0  0  0  0  0  0  0  0  0  0  0
   -0.3525   20.9319  -32.0016 H   0  0  0  0  0  0  0  0  0  0  0  0
   -1.2331   23.7173  -28.9042 H   0  0  0  0  0  0  0  0  0  0  0  0
   -4.4262   21.5204  -30.6676 H   0  0  0  0  0  0  0  0  0  0  0  0
   -0.9265   19.6309  -33.1889 H   0  0  0  0  0  0  0  0  0  0  0  0
  1  2  2  0
  2  3  1  0
  3  4  1  0
  4  5  1  0
  5  6  1  0
  6  7  2  0
  7  8  1  0
  8  9  2  0
  9 10  1  0
 10 11  1  0
 11 12  1  0
 12 13  2  0
 13 14  1  0
 14 15  1  0
 10 16  2  0
  3 17  2  0
 17 18  1  0
 18 19  1  0
 19 20  2  0
 20 21  1  0
 21 22  2  0
 22 23  1  0
 23 24  2  0
 18 25  2  0
 25  1  1  0
 16  6  1  0
 24 19  1  0
 15 11  2  0
  1 26  1  0
  2 27  1  0
  4 28  1  0
  4 29  1  0
  5 30  1  0
  7 31  1  0
  8 32  1  0
  9 33  1  0
 14 34  1  0
 16 35  1  0
 17 36  1  0
 20 37  1  0
 22 38  1  0
 24 39  1  0
 25 40  1  0
M  END
>  <UniqueID>  (33) 
31

>  <SMILES>  (33) 
c1cc(CNc2cccc(-c3nn[nH]n3)c2)cc(-c2cncnc2)c1

>  <Energy>  (33) 
88.82606976003552

>  <Genealogy>  (33) 
c1cc(CNc2cccc(-c3nn[nH]n3)c2)cc(-c2cncnc2)c1 (3D coordinates assigned)
c1cc(CNc2cccc(-c3nn[nH]n3)c2)cc(-c2cncnc2)c1 (optimized conformer: 88.82606976003552 kcal/mol)

>  <smiles>  (33) 
c1cc(CNc2cccc(-c3nn[nH]n3)c2)cc(-c2cncnc2)c1

>  <score_type>  (33) 
oracle

>  <origin>  (33) 
adgpu

>  <m_score__min__energy>  (33) 
-9.6199999999999992

>  <m_primary>  (33) 
energy

$$$$
33:0
     RDKit          3D

 55 58  0  0  0  0  0  0  0  0999 V2000
   -6.3770   25.0750  -30.0370 C   0  0  0  0  0  0  0  0  0  0  0  0
   -5.0570   24.7980  -30.6710 C   0  0  0  0  0  0  0  0  0  0  0  0
   -5.0020   24.0590  -31.6910 O   0  0  0  0  0  0  0  0  0  0  0  0
   -3.8610   25.2870  -30.0530 N   0  0  0  0  0  0  0  0  0  0  0  0
   -2.7760   24.4930  -29.5500 C   0  0  0  0  0  0  0  0  0  0  0  0
   -2.1370   24.8980  -28.3710 C   0  0  0  0  0  0  0  0  0  0  0  0
   -1.0580   24.1680  -27.8660 C   0  0  0  0  0  0  0  0  0  0  0  0
   -0.6070   23.0300  -28.5370 C   0  0  0  0  0  0  0  0  0  0  0  0
   -1.2280   22.6110  -29.7180 C   0  0  0  0  0  0  0  0  0  0  0  0
   -0.7300   21.4740  -30.3730 O   0  0  0  0  0  0  0  0  0  0  0  0
   -0.8940   21.1940  -31.7340 C   0  0  0  0  0  0  0  0  0  0  0  0
    0.1410   21.3180  -32.6070 N   0  0  0  0  0  0  0  0  0  0  0  0
   -0.0400   21.0670  -33.9270 C   0  0  0  0  0  0  0  0  0  0  0  0
    1.0500   21.1810  -34.7990 O   0  0  0  0  0  0  0  0  0  0  0  0
    1.4740   22.3650  -35.4190 C   0  0  0  0  0  0  0  0  0  0  0  0
    2.8460   22.5600  -35.6150 C   0  0  0  0  0  0  0  0  0  0  0  0
    3.3140   23.7200  -36.2360 C   0  0  0  0  0  0  0  0  0  0  0  0
    2.4140   24.7080  -36.6440 C   0  0  0  0  0  0  0  0  0  0  0  0
    1.0390   24.5550  -36.4140 C   0  0  0  0  0  0  0  0  0  0  0  0
    0.1350   25.5880  -36.8470 N   0  0  0  0  0  0  0  0  0  0  0  0
   -0.2520   26.7120  -36.0410 C   0  0  0  0  0  0  0  0  0  0  0  0
   -1.3610   27.6050  -36.4940 C   0  0  0  0  0  0  0  0  0  0  0  0
    0.3910   27.0080  -34.9980 O   0  0  0  0  0  0  0  0  0  0  0  0
    0.5720   23.3740  -35.8110 C   0  0  0  0  0  0  0  0  0  0  0  0
   -1.2620   20.6760  -34.3740 N   0  0  0  0  0  0  0  0  0  0  0  0
   -2.3030   20.5500  -33.5120 C   0  0  0  0  0  0  0  0  0  0  0  0
   -3.4700   20.2090  -33.9750 N   0  0  0  0  0  0  0  0  0  0  0  0
   -4.6690   19.9810  -33.2140 C   0  0  0  0  0  0  0  0  0  0  0  0
   -5.3870   21.0350  -32.6160 C   0  0  0  0  0  0  0  0  0  0  0  0
   -6.5270   20.7650  -31.8520 C   0  0  0  0  0  0  0  0  0  0  0  0
   -6.9500   19.4450  -31.6650 C   0  0  0  0  0  0  0  0  0  0  0  0
   -6.2240   18.3940  -32.2300 C   0  0  0  0  0  0  0  0  0  0  0  0
   -5.0840   18.6600  -32.9930 C   0  0  0  0  0  0  0  0  0  0  0  0
   -2.1160   20.8240  -32.1940 N   0  0  0  0  0  0  0  0  0  0  0  0
   -2.2990   23.3620  -30.2380 C   0  0  0  0  0  0  0  0  0  0  0  0
   -6.2700   25.0525  -28.9425 H   0  0  0  0  0  0  0  0  0  0  0  0
   -6.7332   26.0675  -30.3503 H   0  0  0  0  0  0  0  0  0  0  0  0
   -7.1021   24.3095  -30.3503 H   0  0  0  0  0  0  0  0  0  0  0  0
   -2.4866   25.7956  -27.8399 H   0  0  0  0  0  0  0  0  0  0  0  0
   -0.5631   24.4906  -26.9381 H   0  0  0  0  0  0  0  0  0  0  0  0
    0.2425   22.4590  -28.1342 H   0  0  0  0  0  0  0  0  0  0  0  0
    3.5604   21.7946  -35.2777 H   0  0  0  0  0  0  0  0  0  0  0  0
    4.3925   23.8561  -36.4042 H   0  0  0  0  0  0  0  0  0  0  0  0
    2.7864   25.6116  -37.1488 H   0  0  0  0  0  0  0  0  0  0  0  0
   -0.1980   25.5640  -37.8370 H   0  0  0  0  0  0  0  0  0  0  0  0
   -1.8780   28.0213  -35.6169 H   0  0  0  0  0  0  0  0  0  0  0  0
   -0.9474   28.4251  -37.0993 H   0  0  0  0  0  0  0  0  0  0  0  0
   -2.0740   27.0260  -37.0993 H   0  0  0  0  0  0  0  0  0  0  0  0
   -0.5065   23.2365  -35.6438 H   0  0  0  0  0  0  0  0  0  0  0  0
   -5.0501   22.0735  -32.7503 H   0  0  0  0  0  0  0  0  0  0  0  0
   -7.0919   21.5922  -31.3974 H   0  0  0  0  0  0  0  0  0  0  0  0
   -7.8534   19.2348  -31.0736 H   0  0  0  0  0  0  0  0  0  0  0  0
   -6.5502   17.3551  -32.0740 H   0  0  0  0  0  0  0  0  0  0  0  0
   -4.5082   17.8273  -33.4232 H   0  0  0  0  0  0  0  0  0  0  0  0
   -2.7659   23.0629  -31.1880 H   0  0  0  0  0  0  0  0  0  0  0  0
  1  2  1  0
  2  3  2  0
  2  4  1  0
  4  5  1  0
  5  6  2  0
  6  7  1  0
  7  8  2  0
  8  9  1  0
  9 10  1  0
 10 11  1  0
 11 12  2  0
 12 13  1  0
 13 14  1  0
 14 15  1  0
 15 16  2  0
 16 17  1  0
 17 18  2  0
 18 19  1  0
 19 20  1  0
 20 21  1  0
 21 22  1  0
 21 23  2  0
 19 24  2  0
 13 25  2  0
 25 26  1  0
 26 27  2  3
 27 28  1  0
 28 29  2  0
 29 30  1  0
 30 31  2  0
 31 32  1  0
 32 33  2  0
 26 34  1  0
  9 35  2  0
 35  5  1  0
 34 11  1  0
 24 15  1  0
 33 28  1  0
  1 36  1  0
  1 37  1  0
  1 38  1  0
  6 39  1  0
  7 40  1  0
  8 41  1  0
 16 42  1  0
 17 43  1  0
 18 44  1  0
 20 45  1  0
 22 46  1  0
 22 47  1  0
 22 48  1  0
 24 49  1  0
 29 50  1  0
 30 51  1  0
 31 52  1  0
 32 53  1  0
 33 54  1  0
 35 55  1  0
M  CHG  2   4  -1  34  -1
M  END
>  <UniqueID>  (34) 
32

>  <SMILES>  (34) 
CC(=O)[N-]c1cccc(Oc2nc(Oc3cccc(NC(C)=O)c3)nc(=Nc3ccccc3)[n-]2)c1

>  <Energy>  (34) 
78.89730712790204

>  <Genealogy>  (34) 
CC(=O)[N-]c1cccc(Oc2nc(Oc3cccc(NC(C)=O)c3)nc(=Nc3ccccc3)[n-]2)c1 (protonated)
CC(=O)[N-]c1cccc(Oc2nc(Oc3cccc(NC(C)=O)c3)nc(=Nc3ccccc3)[n-]2)c1 (3D coordinates assigned)
CC(=O)[N-]c1cccc(Oc2nc(Oc3cccc(NC(C)=O)c3)nc(=Nc3ccccc3)[n-]2)c1 (optimized conformer: 78.89730712790204 kcal/mol)

>  <smiles>  (34) 
CC(=O)Nc1cccc(Oc2nc(Oc3cccc(NC(C)=O)c3)[nH]c(=Nc3ccccc3)n2)c1

>  <score_type>  (34) 
oracle

>  <origin>  (34) 
adgpu

>  <m_score__min__energy>  (34) 
-12.31

>  <m_primary>  (34) 
energy

$$$$
34:0
     RDKit          3D

 60 63  0  0  0  0  0  0  0  0999 V2000
    0.8493   22.5309  -35.6600 H   0  0  0  0  0  0  0  0  0  0  0  0
    0.7050   21.6800  -34.9780 C   0  0  0  0  0  0  0  0  0  0  0  0
    1.7810   20.9840  -34.5260 N   0  0  0  0  0  0  0  0  0  0  0  0
    1.6470   19.9310  -33.6720 C   0  0  0  0  0  0  0  0  0  0  0  0
    2.6860   19.2700  -33.2590 N   0  0  0  0  0  0  0  0  0  0  0  0
    4.0590   19.5750  -33.6470 C   0  0  0  0  0  0  0  0  0  0  0  0
    4.6733   19.7115  -32.7448 H   0  0  0  0  0  0  0  0  0  0  0  0
    4.4642   18.7450  -34.2444 H   0  0  0  0  0  0  0  0  0  0  0  0
    4.0747   20.4985  -34.2444 H   0  0  0  0  0  0  0  0  0  0  0  0
    0.3750   19.5470  -33.2400 C   0  0  0  0  0  0  0  0  0  0  0  0
    0.2617   18.7132  -32.5316 H   0  0  0  0  0  0  0  0  0  0  0  0
   -0.7600   20.2290  -33.7130 C   0  0  0  0  0  0  0  0  0  0  0  0
   -2.1220   19.8390  -33.2840 C   0  0  0  0  0  0  0  0  0  0  0  0
   -2.8560   18.9000  -33.9170 N   0  0  0  0  0  0  0  0  0  0  0  0
   -4.0430   18.8970  -33.2650 C   0  0  0  0  0  0  0  0  0  0  0  0
   -5.1550   17.9060  -33.5750 C   0  0  0  0  0  0  0  0  0  0  0  0
   -6.2360   18.0230  -32.4860 C   0  0  0  0  0  0  0  0  0  0  0  0
   -5.7639   17.9719  -31.4938 H   0  0  0  0  0  0  0  0  0  0  0  0
   -6.7617   18.9833  -32.5929 H   0  0  0  0  0  0  0  0  0  0  0  0
   -6.9550   17.1974  -32.5929 H   0  0  0  0  0  0  0  0  0  0  0  0
   -4.5900   16.4690  -33.5860 C   0  0  0  0  0  0  0  0  0  0  0  0
   -4.4531   16.1209  -32.5515 H   0  0  0  0  0  0  0  0  0  0  0  0
   -5.2930   15.8026  -34.1071 H   0  0  0  0  0  0  0  0  0  0  0  0
   -3.6213   16.4598  -34.1071 H   0  0  0  0  0  0  0  0  0  0  0  0
   -5.7800   18.1960  -34.9580 C   0  0  0  0  0  0  0  0  0  0  0  0
   -6.7704   18.6555  -34.8237 H   0  0  0  0  0  0  0  0  0  0  0  0
   -5.1293   18.8842  -35.5174 H   0  0  0  0  0  0  0  0  0  0  0  0
   -5.8853   17.2547  -35.5174 H   0  0  0  0  0  0  0  0  0  0  0  0
   -4.0710   19.7730  -32.2360 N   0  0  0  0  0  0  0  0  0  0  0  0
   -4.8330   19.9240  -31.5390 H   0  0  0  0  0  0  0  0  0  0  0  0
   -2.8660   20.3650  -32.2400 C   0  0  0  0  0  0  0  0  0  0  0  0
   -2.4240   21.3300  -31.2190 C   0  0  0  0  0  0  0  0  0  0  0  0
   -1.0620   21.4510  -30.8960 C   0  0  0  0  0  0  0  0  0  0  0  0
   -0.3241   20.7870  -31.3700 H   0  0  0  0  0  0  0  0  0  0  0  0
   -0.6440   22.4120  -29.9750 C   0  0  0  0  0  0  0  0  0  0  0  0
    0.4214   22.4946  -29.7140 H   0  0  0  0  0  0  0  0  0  0  0  0
   -1.5750   23.2700  -29.3830 C   0  0  0  0  0  0  0  0  0  0  0  0
   -1.2400   24.0285  -28.6603 H   0  0  0  0  0  0  0  0  0  0  0  0
   -2.9390   23.1660  -29.7090 C   0  0  0  0  0  0  0  0  0  0  0  0
   -3.9150   24.0860  -29.1970 N   0  0  0  0  0  0  0  0  0  0  0  0
   -5.2350   24.7310  -30.1170 S   0  0  0  0  0  0  0  0  0  0  0  0
   -4.6930   25.6520  -31.1770 O   0  0  0  0  0  0  0  0  0  0  0  0
   -6.1360   25.5090  -29.2010 O   0  0  0  0  0  0  0  0  0  0  0  0
   -6.1590   23.4170  -30.8420 C   0  0  0  0  0  0  0  0  0  0  0  0
   -7.2350   22.8390  -30.1500 C   0  0  0  0  0  0  0  0  0  0  0  0
   -7.4956   23.1962  -29.1428 H   0  0  0  0  0  0  0  0  0  0  0  0
   -7.9760   21.8100  -30.7390 C   0  0  0  0  0  0  0  0  0  0  0  0
   -8.8169   21.3587  -30.1920 H   0  0  0  0  0  0  0  0  0  0  0  0
   -7.6520   21.3500  -32.0250 C   0  0  0  0  0  0  0  0  0  0  0  0
   -8.4110   20.2980  -32.6260 N   0  0  0  0  0  0  0  0  0  0  0  0
   -8.3170   20.0820  -33.6450 H   0  0  0  0  0  0  0  0  0  0  0  0
   -9.0660   19.7190  -32.0520 H   0  0  0  0  0  0  0  0  0  0  0  0
   -6.5750   21.9260  -32.7150 C   0  0  0  0  0  0  0  0  0  0  0  0
   -6.3165   21.5702  -33.7233 H   0  0  0  0  0  0  0  0  0  0  0  0
   -5.8290   22.9510  -32.1250 C   0  0  0  0  0  0  0  0  0  0  0  0
   -4.9808   23.3938  -32.6677 H   0  0  0  0  0  0  0  0  0  0  0  0
   -3.3600   22.1710  -30.6000 C   0  0  0  0  0  0  0  0  0  0  0  0
   -4.4317   22.0484  -30.8157 H   0  0  0  0  0  0  0  0  0  0  0  0
   -0.5840   21.3180  -34.5790 C   0  0  0  0  0  0  0  0  0  0  0  0
   -1.4551   21.8834  -34.9417 H   0  0  0  0  0  0  0  0  0  0  0  0
  1  2  1  0
  2  3  1  0
  3  4  1  0
  4  5  2  0
  5  6  1  0
  6  7  1  0
  6  8  1  0
  6  9  1  0
  4 10  1  0
 10 11  1  0
 10 12  2  0
 12 13  1  0
 13 14  1  0
 14 15  2  0
 15 16  1  0
 16 17  1  0
 17 18  1  0
 17 19  1  0
 17 20  1  0
 16 21  1  0
 21 22  1  0
 21 23  1  0
 21 24  1  0
 16 25  1  0
 25 26  1  0
 25 27  1  0
 25 28  1  0
 15 29  1  0
 29 30  1  0
 29 31  1  0
 31 32  1  0
 32 33  2  0
 33 34  1  0
 33 35  1  0
 35 36  1  0
 35 37  2  0
 37 38  1  0
 37 39  1  0
 39 40  1  0
 40 41  1  0
 41 42  2  0
 41 43  2  0
 41 44  1  0
 44 45  2  0
 45 46  1  0
 45 47  1  0
 47 48  1  0
 47 49  2  0
 49 50  1  0
 50 51  1  0
 50 52  1  0
 49 53  1  0
 53 54  1  0
 53 55  2  0
 55 56  1  0
 39 57  2  0
 57 58  1  0
 12 59  1  0
 59 60  1  0
 59  2  2  0
 31 13  2  0
 57 32  1  0
 55 44  1  0
M  CHG  2   3  -1  40  -1
M  END
>  <UniqueID>  (35) 
33

>  <SMILES>  (35) 
C/N=c1/cc(-c2nc(C(C)(C)C)[nH]c2-c2cccc([N-]S(=O)(=O)c3ccc(N)cc3)c2)cc[n-]1

>  <Energy>  (35) 
97.79371936518706

>  <Genealogy>  (35) 
CN=c1cc(-c2nc(C(C)(C)C)[nH]c2-c2cccc([N-]S(=O)(=O)c3ccc(N)cc3)c2)cc[n-]1 (protonated)
C/N=c1/cc(-c2nc(C(C)(C)C)[nH]c2-c2cccc([N-]S(=O)(=O)c3ccc(N)cc3)c2)cc[n-]1 (cis-trans isomerization)
C/N=c1/cc(-c2nc(C(C)(C)C)[nH]c2-c2cccc([N-]S(=O)(=O)c3ccc(N)cc3)c2)cc[n-]1 (3D coordinates assigned)
C/N=c1/cc(-c2nc(C(C)(C)C)[nH]c2-c2cccc([N-]S(=O)(=O)c3ccc(N)cc3)c2)cc[n-]1 (optimized conformer: 97.79371936518706 kcal/mol)

>  <smiles>  (35) 
CN=c1cc(-c2nc(C(C)(C)C)[nH]c2-c2cccc(NS(=O)(=O)c3ccc(N)cc3)c2)cc[nH]1

>  <score_type>  (35) 
oracle

>  <origin>  (35) 
adgpu

>  <m_score__min__energy>  (35) 
-12.380000000000001

>  <m_primary>  (35) 
energy

$$$$
35:0
     RDKit          3D

 50 52  0  0  0  0  0  0  0  0999 V2000
   -1.8000   22.5220  -27.0280 C   0  0  0  0  0  0  0  0  0  0  0  0
   -1.3320   23.8780  -27.3390 N   0  0  0  0  0  0  0  0  0  0  0  0
   -2.0770   24.8650  -26.5480 C   0  0  0  0  0  0  0  0  0  0  0  0
   -1.5420   24.2030  -29.0430 S   0  0  0  0  0  0  0  0  0  0  0  0
   -0.5540   23.3880  -29.8330 O   0  0  0  0  0  0  0  0  0  0  0  0
   -1.2640   25.6560  -29.3120 O   0  0  0  0  0  0  0  0  0  0  0  0
   -3.1770   23.8140  -29.5820 C   0  0  0  0  0  0  0  0  0  0  0  0
   -4.2810   24.4130  -28.9670 C   0  0  0  0  0  0  0  0  0  0  0  0
   -5.5750   24.0950  -29.3810 C   0  0  0  0  0  0  0  0  0  0  0  0
   -5.7850   23.1750  -30.4180 C   0  0  0  0  0  0  0  0  0  0  0  0
   -7.1270   22.9100  -30.8590 N   0  0  0  0  0  0  0  0  0  0  0  0
   -7.5730   23.4450  -32.1500 C   0  0  0  0  0  0  0  0  0  0  0  0
   -9.0810   23.2870  -32.3430 C   0  0  0  0  0  0  0  0  0  0  0  0
   -9.5990   21.5300  -32.3090 S   0  0  0  0  0  0  0  0  0  0  0  0
   -8.5760   20.9350  -30.9040 C   0  0  0  0  0  0  0  0  0  0  0  0
   -8.0070   22.0610  -30.0460 C   0  0  0  0  0  0  0  0  0  0  0  0
   -4.6740   22.5580  -31.0420 C   0  0  0  0  0  0  0  0  0  0  0  0
   -4.8580   21.5330  -32.0940 C   0  0  0  0  0  0  0  0  0  0  0  0
   -4.3640   21.7310  -33.2370 O   0  0  0  0  0  0  0  0  0  0  0  0
   -5.6190   20.3420  -31.8300 N   0  0  0  0  0  0  0  0  0  0  0  0
   -5.7050   19.2270  -32.7340 C   0  0  0  0  0  0  0  0  0  0  0  0
   -6.7780   18.3310  -32.6210 C   0  0  0  0  0  0  0  0  0  0  0  0
   -6.8710   17.2260  -33.4730 C   0  0  0  0  0  0  0  0  0  0  0  0
   -5.8830   16.9990  -34.4340 C   0  0  0  0  0  0  0  0  0  0  0  0
   -4.7960   17.8710  -34.5390 C   0  0  0  0  0  0  0  0  0  0  0  0
   -4.7010   18.9780  -33.6900 C   0  0  0  0  0  0  0  0  0  0  0  0
   -3.3770   22.8890  -30.6150 C   0  0  0  0  0  0  0  0  0  0  0  0
   -1.8452   22.3910  -25.9368 H   0  0  0  0  0  0  0  0  0  0  0  0
   -2.8018   22.3724  -27.4571 H   0  0  0  0  0  0  0  0  0  0  0  0
   -1.1038   21.7864  -27.4571 H   0  0  0  0  0  0  0  0  0  0  0  0
   -1.9264   24.6655  -25.4768 H   0  0  0  0  0  0  0  0  0  0  0  0
   -1.7146   25.8756  -26.7872 H   0  0  0  0  0  0  0  0  0  0  0  0
   -3.1483   24.7935  -26.7872 H   0  0  0  0  0  0  0  0  0  0  0  0
   -4.1286   25.1377  -28.1536 H   0  0  0  0  0  0  0  0  0  0  0  0
   -6.4372   24.5698  -28.8899 H   0  0  0  0  0  0  0  0  0  0  0  0
   -7.3184   24.5140  -32.1989 H   0  0  0  0  0  0  0  0  0  0  0  0
   -7.0667   22.8796  -32.9462 H   0  0  0  0  0  0  0  0  0  0  0  0
   -9.6003   23.8257  -31.5367 H   0  0  0  0  0  0  0  0  0  0  0  0
   -9.3415   23.6982  -33.3294 H   0  0  0  0  0  0  0  0  0  0  0  0
   -9.2007   20.2926  -30.2659 H   0  0  0  0  0  0  0  0  0  0  0  0
   -7.7213   20.3917  -31.3333 H   0  0  0  0  0  0  0  0  0  0  0  0
   -8.8325   22.6681  -29.6460 H   0  0  0  0  0  0  0  0  0  0  0  0
   -7.4289   21.6285  -29.2161 H   0  0  0  0  0  0  0  0  0  0  0  0
   -6.1820   20.2910  -30.9510 H   0  0  0  0  0  0  0  0  0  0  0  0
   -7.5516   18.4985  -31.8571 H   0  0  0  0  0  0  0  0  0  0  0  0
   -7.7226   16.5352  -33.3864 H   0  0  0  0  0  0  0  0  0  0  0  0
   -5.9606   16.1335  -35.1084 H   0  0  0  0  0  0  0  0  0  0  0  0
   -4.0142   17.6863  -35.2904 H   0  0  0  0  0  0  0  0  0  0  0  0
   -3.8391   19.6568  -33.7690 H   0  0  0  0  0  0  0  0  0  0  0  0
   -2.5086   22.4164  -31.0973 H   0  0  0  0  0  0  0  0  0  0  0  0
  1  2  1  0
  2  3  1  0
  2  4  1  0
  4  5  2  0
  4  6  2  0
  4  7  1  0
  7  8  2  0
  8  9  1  0
  9 10  2  0
 10 11  1  0
 11 12  1  0
 12 13  1  0
 13 14  1  0
 14 15  1  0
 15 16  1  0
 10 17  1  0
 17 18  1  0
 18 19  2  0
 18 20  1  0
 20 21  1  0
 21 22  2  0
 22 23  1  0
 23 24  2  0
 24 25  1  0
 25 26  2  0
 17 27  2  0
 27  7  1  0
 16 11  1  0
 26 21  1  0
  1 28  1  0
  1 29  1  0
  1 30  1  0
  3 31  1  0
  3 32  1  0
  3 33  1  0
  8 34  1  0
  9 35  1  0
 12 36  1  0
 12 37  1  0
 13 38  1  0
 13 39  1  0
 15 40  1  0
 15 41  1  0
 16 42  1  0
 16 43  1  0
 20 44  1  0
 22 45  1  0
 23 46  1  0
 24 47  1  0
 25 48  1  0
 26 49  1  0
 27 50  1  0
M  END
>  <UniqueID>  (36) 
34

>  <SMILES>  (36) 
CN(C)S(=O)(=O)c1ccc(N2CCSCC2)c(C(=O)Nc2ccccc2)c1

>  <Energy>  (36) 
60.97872472696661

>  <Genealogy>  (36) 
CN(C)S(=O)(=O)c1ccc(N2CCSCC2)c(C(=O)Nc2ccccc2)c1 (3D coordinates assigned)
CN(C)S(=O)(=O)c1ccc(N2CCSCC2)c(C(=O)Nc2ccccc2)c1 (nonaromatic ring conformer: 60.97872472696661 kcal/mol)

>  <smiles>  (36) 
CN(C)S(=O)(=O)c1ccc(N2CCSCC2)c(C(=O)Nc2ccccc2)c1

>  <score_type>  (36) 
oracle

>  <origin>  (36) 
adgpu

>  <m_score__min__energy>  (36) 
-8.6799999999999997

>  <m_primary>  (36) 
energy

$$$$
36:0
     RDKit          3D

 26 28  0  0  0  0  0  0  0  0999 V2000
   -4.8230   21.3810  -32.8810 F   0  0  0  0  0  0  0  0  0  0  0  0
   -6.0530   21.3980  -32.3060 C   0  0  0  0  0  0  0  0  0  0  0  0
   -7.0070   20.4690  -32.7370 C   0  0  0  0  0  0  0  0  0  0  0  0
   -8.2840   20.4550  -32.1700 C   0  0  0  0  0  0  0  0  0  0  0  0
   -9.4750   19.2890  -32.7150 Cl  0  0  0  0  0  0  0  0  0  0  0  0
   -8.6100   21.3720  -31.1680 C   0  0  0  0  0  0  0  0  0  0  0  0
   -7.6620   22.3040  -30.7320 C   0  0  0  0  0  0  0  0  0  0  0  0
   -6.3720   22.3290  -31.2940 C   0  0  0  0  0  0  0  0  0  0  0  0
   -5.4060   23.2930  -30.8350 N   0  0  0  0  0  0  0  0  0  0  0  0
   -5.1190   24.4230  -31.4630 N   0  0  0  0  0  0  0  0  0  0  0  0
   -4.1940   25.0770  -30.7800 N   0  0  0  0  0  0  0  0  0  0  0  0
   -3.9340   24.2950  -29.7130 C   0  0  0  0  0  0  0  0  0  0  0  0
   -2.9600   24.6150  -28.6580 C   0  0  0  0  0  0  0  0  0  0  0  0
   -3.1860   24.2400  -27.3250 C   0  0  0  0  0  0  0  0  0  0  0  0
   -2.2380   24.5620  -26.3510 C   0  0  0  0  0  0  0  0  0  0  0  0
   -1.0780   25.2500  -26.7110 C   0  0  0  0  0  0  0  0  0  0  0  0
   -0.8840   25.6080  -28.0470 C   0  0  0  0  0  0  0  0  0  0  0  0
   -1.8190   25.2860  -28.9810 N   0  0  0  0  0  0  0  0  0  0  0  0
   -4.6820   23.1760  -29.7320 N   0  0  0  0  0  0  0  0  0  0  0  0
   -6.7503   19.7465  -33.5258 H   0  0  0  0  0  0  0  0  0  0  0  0
   -9.6148   21.3613  -30.7205 H   0  0  0  0  0  0  0  0  0  0  0  0
   -7.9272   23.0234  -29.9432 H   0  0  0  0  0  0  0  0  0  0  0  0
   -4.1020   23.6970  -27.0493 H   0  0  0  0  0  0  0  0  0  0  0  0
   -2.4052   24.2741  -25.3026 H   0  0  0  0  0  0  0  0  0  0  0  0
   -0.3253   25.5072  -25.9512 H   0  0  0  0  0  0  0  0  0  0  0  0
    0.0255   26.1507  -28.3441 H   0  0  0  0  0  0  0  0  0  0  0  0
  1  2  1  0
  2  3  2  0
  3  4  1  0
  4  5  1  0
  4  6  2  0
  6  7  1  0
  7  8  2  0
  8  9  1  0
  9 10  1  0
 10 11  2  0
 11 12  1  0
 12 13  1  0
 13 14  2  0
 14 15  1  0
 15 16  2  0
 16 17  1  0
 17 18  2  0
 12 19  2  0
  8  2  1  0
 19  9  1  0
 18 13  1  0
  3 20  1  0
  6 21  1  0
  7 22  1  0
 14 23  1  0
 15 24  1  0
 16 25  1  0
 17 26  1  0
M  END
>  <UniqueID>  (37) 
35

>  <SMILES>  (37) 
Fc1cc(Cl)ccc1-n1nnc(-c2ccccn2)n1

>  <Energy>  (37) 
69.8446597532801

>  <Genealogy>  (37) 
Fc1cc(Cl)ccc1-n1nnc(-c2ccccn2)n1 (3D coordinates assigned)
Fc1cc(Cl)ccc1-n1nnc(-c2ccccn2)n1 (optimized conformer: 69.8446597532801 kcal/mol)

>  <smiles>  (37) 
Fc1cc(Cl)ccc1-n1nnc(-c2ccccn2)n1

>  <score_type>  (37) 
oracle

>  <origin>  (37) 
adgpu

>  <m_score__min__energy>  (37) 
-8.1099999999999994

>  <m_primary>  (37) 
energy

$$$$
37:0
     RDKit          3D

 42 44  0  0  0  0  0  0  0  0999 V2000
   -5.7930   17.3160  -34.8490 O   0  0  0  0  0  0  0  0  0  0  0  0
   -5.9760   17.5430  -33.6210 C   0  0  0  0  0  0  0  0  0  0  0  0
   -5.9350   16.4540  -32.6840 N   0  0  0  0  0  0  0  0  0  0  0  0
   -5.3270   15.1850  -32.9770 C   0  0  0  0  0  0  0  0  0  0  0  0
   -4.1120   14.8470  -32.3600 C   0  0  0  0  0  0  0  0  0  0  0  0
   -3.4930   13.6250  -32.6390 C   0  0  0  0  0  0  0  0  0  0  0  0
   -4.0730   12.7380  -33.5480 C   0  0  0  0  0  0  0  0  0  0  0  0
   -5.2680   13.0750  -34.1880 C   0  0  0  0  0  0  0  0  0  0  0  0
   -5.8940   14.2960  -33.9120 C   0  0  0  0  0  0  0  0  0  0  0  0
   -7.0210   14.6260  -34.5920 F   0  0  0  0  0  0  0  0  0  0  0  0
   -6.2750   18.9250  -33.1700 C   0  0  0  0  0  0  0  0  0  0  0  0
   -5.2730   19.9120  -33.1500 C   0  0  0  0  0  0  0  0  0  0  0  0
   -5.5660   21.2120  -32.7280 C   0  0  0  0  0  0  0  0  0  0  0  0
   -6.8640   21.5460  -32.3210 C   0  0  0  0  0  0  0  0  0  0  0  0
   -7.2420   23.1820  -31.7890 S   0  0  0  0  0  0  0  0  0  0  0  0
   -6.5690   24.1750  -32.6960 O   0  0  0  0  0  0  0  0  0  0  0  0
   -8.7300   23.3750  -31.8650 O   0  0  0  0  0  0  0  0  0  0  0  0
   -6.6860   23.3980  -30.1410 N   0  0  0  0  0  0  0  0  0  0  0  0
   -5.3390   22.8200  -29.9340 C   0  0  0  0  0  0  0  0  0  0  0  0
   -4.2250   23.8820  -29.9630 C   0  0  0  0  0  0  0  0  0  0  0  0
   -4.5610   24.9170  -30.8590 O   0  0  0  0  0  0  0  0  0  0  0  0
   -5.6470   25.6730  -30.3520 C   0  0  0  0  0  0  0  0  0  0  0  0
   -6.7650   24.8080  -29.7210 C   0  0  0  0  0  0  0  0  0  0  0  0
   -7.8700   20.5730  -32.3540 C   0  0  0  0  0  0  0  0  0  0  0  0
   -7.5800   19.2730  -32.7750 C   0  0  0  0  0  0  0  0  0  0  0  0
   -6.5150   16.5280  -31.8180 H   0  0  0  0  0  0  0  0  0  0  0  0
   -3.6444   15.5479  -31.6529 H   0  0  0  0  0  0  0  0  0  0  0  0
   -2.5477   13.3619  -32.1417 H   0  0  0  0  0  0  0  0  0  0  0  0
   -3.5887   11.7734  -33.7602 H   0  0  0  0  0  0  0  0  0  0  0  0
   -5.7183   12.3788  -34.9109 H   0  0  0  0  0  0  0  0  0  0  0  0
   -4.2511   19.6589  -33.4689 H   0  0  0  0  0  0  0  0  0  0  0  0
   -4.7743   21.9756  -32.7155 H   0  0  0  0  0  0  0  0  0  0  0  0
   -5.3190   22.3158  -28.9565 H   0  0  0  0  0  0  0  0  0  0  0  0
   -5.1491   22.1172  -30.7587 H   0  0  0  0  0  0  0  0  0  0  0  0
   -4.0973   24.3020  -28.9544 H   0  0  0  0  0  0  0  0  0  0  0  0
   -3.2885   23.4102  -30.2952 H   0  0  0  0  0  0  0  0  0  0  0  0
   -5.2634   26.3599  -29.5832 H   0  0  0  0  0  0  0  0  0  0  0  0
   -6.0943   26.2056  -31.2043 H   0  0  0  0  0  0  0  0  0  0  0  0
   -6.6740   24.8564  -28.6258 H   0  0  0  0  0  0  0  0  0  0  0  0
   -7.7317   25.2068  -30.0621 H   0  0  0  0  0  0  0  0  0  0  0  0
   -8.8937   20.8334  -32.0470 H   0  0  0  0  0  0  0  0  0  0  0  0
   -8.3776   18.5158  -32.7979 H   0  0  0  0  0  0  0  0  0  0  0  0
  1  2  2  0
  2  3  1  0
  3  4  1  0
  4  5  2  0
  5  6  1  0
  6  7  2  0
  7  8  1  0
  8  9  2  0
  9 10  1  0
  2 11  1  0
 11 12  2  0
 12 13  1  0
 13 14  2  0
 14 15  1  0
 15 16  2  0
 15 17  2  0
 15 18  1  0
 18 19  1  0
 19 20  1  0
 20 21  1  0
 21 22  1  0
 22 23  1  0
 14 24  1  0
 24 25  2  0
  9  4  1  0
 25 11  1  0
 23 18  1  0
  3 26  1  0
  5 27  1  0
  6 28  1  0
  7 29  1  0
  8 30  1  0
 12 31  1  0
 13 32  1  0
 19 33  1  0
 19 34  1  0
 20 35  1  0
 20 36  1  0
 22 37  1  0
 22 38  1  0
 23 39  1  0
 23 40  1  0
 24 41  1  0
 25 42  1  0
M  END
>  <UniqueID>  (38) 
36

>  <SMILES>  (38) 
O=C(Nc1ccccc1F)c1ccc(S(=O)(=O)N2CCOCC2)cc1

>  <Energy>  (38) 
61.18358831850248

>  <Genealogy>  (38) 
O=C(Nc1ccccc1F)c1ccc(S(=O)(=O)N2CCOCC2)cc1 (3D coordinates assigned)
O=C(Nc1ccccc1F)c1ccc(S(=O)(=O)N2CCOCC2)cc1 (nonaromatic ring conformer: 61.18358831850248 kcal/mol)

>  <smiles>  (38) 
O=C(Nc1ccccc1F)c1ccc(S(=O)(=O)N2CCOCC2)cc1

>  <score_type>  (38) 
oracle

>  <origin>  (38) 
adgpu

>  <m_score__min__energy>  (38) 
-8.6600000000000001

>  <m_primary>  (38) 
energy

$$$$
38:0
     RDKit          3D

 45 47  0  0  0  0  0  0  0  0999 V2000
   -3.2630   21.2920  -30.3860 C   0  0  0  0  0  0  0  0  0  0  0  0
   -2.8940   20.7790  -31.7380 C   0  0  0  0  0  0  0  0  0  0  0  0
   -1.8210   21.3560  -32.3670 C   0  0  0  0  0  0  0  0  0  0  0  0
   -1.4180   20.9400  -33.6160 C   0  0  0  0  0  0  0  0  0  0  0  0
   -0.3000   21.5200  -34.3020 C   0  0  0  0  0  0  0  0  0  0  0  0
    0.6140   21.9910  -34.8450 N   0  0  0  0  0  0  0  0  0  0  0  0
   -2.1200   19.9330  -34.2100 C   0  0  0  0  0  0  0  0  0  0  0  0
   -3.2180   19.3440  -33.5650 C   0  0  0  0  0  0  0  0  0  0  0  0
   -3.6380   19.7390  -32.3250 C   0  0  0  0  0  0  0  0  0  0  0  0
   -4.6760   19.2570  -31.5970 O   0  0  0  0  0  0  0  0  0  0  0  0
   -5.9020   18.9610  -32.0880 C   0  0  0  0  0  0  0  0  0  0  0  0
   -6.3430   17.8020  -32.5750 N   0  0  0  0  0  0  0  0  0  0  0  0
   -7.5860   17.6130  -33.0400 C   0  0  0  0  0  0  0  0  0  0  0  0
   -8.5110   18.5780  -33.0600 N   0  0  0  0  0  0  0  0  0  0  0  0
   -8.1330   19.7880  -32.5790 C   0  0  0  0  0  0  0  0  0  0  0  0
   -9.0360   20.7080  -32.6040 N   0  0  0  0  0  0  0  0  0  0  0  0
   -6.8480   20.0120  -32.0900 C   0  0  0  0  0  0  0  0  0  0  0  0
   -6.4680   21.3130  -31.5810 C   0  0  0  0  0  0  0  0  0  0  0  0
   -7.3740   21.9860  -30.6190 C   0  0  0  0  0  0  0  0  0  0  0  0
   -6.5390   22.9550  -29.8050 C   0  0  0  0  0  0  0  0  0  0  0  0
   -5.8600   23.8610  -30.6990 N   0  0  0  0  0  0  0  0  0  0  0  0
   -5.6850   25.2120  -30.2730 C   0  0  0  0  0  0  0  0  0  0  0  0
   -4.8240   26.0120  -30.8160 N   0  0  0  0  0  0  0  0  0  0  0  0
   -5.3440   23.4850  -31.9940 C   0  0  0  0  0  0  0  0  0  0  0  0
   -6.1430   22.3640  -32.6280 C   0  0  0  0  0  0  0  0  0  0  0  0
   -2.8050   20.6553  -29.6147 H   0  0  0  0  0  0  0  0  0  0  0  0
   -2.8989   22.3239  -30.2734 H   0  0  0  0  0  0  0  0  0  0  0  0
   -4.3571   21.2749  -30.2734 H   0  0  0  0  0  0  0  0  0  0  0  0
   -1.2721   22.1661  -31.8645 H   0  0  0  0  0  0  0  0  0  0  0  0
   -1.8216   19.5780  -35.2075 H   0  0  0  0  0  0  0  0  0  0  0  0
   -3.7609   18.5349  -34.0755 H   0  0  0  0  0  0  0  0  0  0  0  0
   -7.8574   16.6181  -33.4227 H   0  0  0  0  0  0  0  0  0  0  0  0
   -9.4700   18.3960  -33.4290 H   0  0  0  0  0  0  0  0  0  0  0  0
   -9.9720   20.5040  -32.9720 H   0  0  0  0  0  0  0  0  0  0  0  0
   -5.5682   20.9756  -31.0457 H   0  0  0  0  0  0  0  0  0  0  0  0
   -8.1594   22.5320  -31.1622 H   0  0  0  0  0  0  0  0  0  0  0  0
   -7.8588   21.2479  -29.9632 H   0  0  0  0  0  0  0  0  0  0  0  0
   -7.1922   23.5258  -29.1286 H   0  0  0  0  0  0  0  0  0  0  0  0
   -5.7997   22.3979  -29.2108 H   0  0  0  0  0  0  0  0  0  0  0  0
   -6.3079   25.5894  -29.4486 H   0  0  0  0  0  0  0  0  0  0  0  0
   -4.2310   25.6690  -31.5920 H   0  0  0  0  0  0  0  0  0  0  0  0
   -5.3780   24.3623  -32.6567 H   0  0  0  0  0  0  0  0  0  0  0  0
   -4.3134   23.1266  -31.8546 H   0  0  0  0  0  0  0  0  0  0  0  0
   -7.0780   22.7697  -33.0416 H   0  0  0  0  0  0  0  0  0  0  0  0
   -5.5516   21.9052  -33.4341 H   0  0  0  0  0  0  0  0  0  0  0  0
  1  2  1  0
  2  3  2  0
  3  4  1  0
  4  5  1  0
  5  6  3  0
  4  7  2  0
  7  8  1  0
  8  9  2  0
  9 10  1  0
 10 11  1  0
 11 12  1  0
 12 13  2  0
 13 14  1  0
 14 15  1  0
 15 16  2  3
 15 17  1  0
 17 18  1  0
 18 19  1  0
 19 20  1  0
 20 21  1  0
 21 22  1  0
 22 23  2  3
 21 24  1  0
 24 25  1  0
  9  2  1  0
 17 11  2  0
 25 18  1  0
  1 26  1  0
  1 27  1  0
  1 28  1  0
  3 29  1  0
  7 30  1  0
  8 31  1  0
 13 32  1  0
 14 33  1  0
 16 34  1  0
 18 35  1  0
 19 36  1  0
 19 37  1  0
 20 38  1  0
 20 39  1  0
 22 40  1  0
 23 41  1  0
 24 42  1  0
 24 43  1  0
 25 44  1  0
 25 45  1  0
M  END
>  <smiles>  (39) 
Cc1cc(C#N)ccc1Oc1nc[nH]c(=N)c1C1CCN(C=N)CC1

>  <score_type>  (39) 
oracle

>  <origin>  (39) 
adgpu

>  <m_score__min__energy>  (39) 
-8.1500000000000004

>  <m_primary>  (39) 
energy

$$$$
39:0
     RDKit          3D

 34 36  0  0  0  0  0  0  0  0999 V2000
   -2.3760   25.0840  -29.3580 N   0  0  0  0  0  0  0  0  0  0  0  0
   -3.9950   24.7290  -29.8470 S   0  0  0  0  0  0  0  0  0  0  0  0
   -4.8510   24.5250  -28.6300 O   0  0  0  0  0  0  0  0  0  0  0  0
   -4.5460   25.8830  -30.6370 O   0  0  0  0  0  0  0  0  0  0  0  0
   -4.0040   23.2720  -30.8360 C   0  0  0  0  0  0  0  0  0  0  0  0
   -2.9840   22.3210  -30.7020 C   0  0  0  0  0  0  0  0  0  0  0  0
   -2.9840   21.1720  -31.4980 C   0  0  0  0  0  0  0  0  0  0  0  0
   -3.9980   20.9660  -32.4460 C   0  0  0  0  0  0  0  0  0  0  0  0
   -3.9920   19.7880  -33.2720 N   0  0  0  0  0  0  0  0  0  0  0  0
   -4.9820   18.8870  -33.4570 C   0  0  0  0  0  0  0  0  0  0  0  0
   -6.3710   19.0010  -32.9580 C   0  0  0  0  0  0  0  0  0  0  0  0
   -7.2210   20.0050  -33.4540 C   0  0  0  0  0  0  0  0  0  0  0  0
   -8.5340   20.1130  -32.9840 C   0  0  0  0  0  0  0  0  0  0  0  0
   -9.0060   19.2250  -32.0130 C   0  0  0  0  0  0  0  0  0  0  0  0
   -8.1660   18.2310  -31.5080 C   0  0  0  0  0  0  0  0  0  0  0  0
   -6.8520   18.1200  -31.9740 C   0  0  0  0  0  0  0  0  0  0  0  0
   -4.4840   17.8780  -34.2580 C   0  0  0  0  0  0  0  0  0  0  0  0
   -5.1980   16.7700  -34.7040 O   0  0  0  0  0  0  0  0  0  0  0  0
   -3.1980   18.1190  -34.5820 N   0  0  0  0  0  0  0  0  0  0  0  0
   -2.9400   19.2890  -33.9600 C   0  0  0  0  0  0  0  0  0  0  0  0
   -1.8080   19.8430  -34.0010 O   0  0  0  0  0  0  0  0  0  0  0  0
   -5.0200   21.9210  -32.5760 C   0  0  0  0  0  0  0  0  0  0  0  0
   -5.0200   23.0690  -31.7800 C   0  0  0  0  0  0  0  0  0  0  0  0
   -2.3830   26.0490  -28.9590 H   0  0  0  0  0  0  0  0  0  0  0  0
   -2.1803   22.4791  -29.9678 H   0  0  0  0  0  0  0  0  0  0  0  0
   -2.1849   20.4252  -31.3807 H   0  0  0  0  0  0  0  0  0  0  0  0
   -6.8520   20.7085  -34.2148 H   0  0  0  0  0  0  0  0  0  0  0  0
   -9.1960   20.8977  -33.3790 H   0  0  0  0  0  0  0  0  0  0  0  0
  -10.0398   19.3096  -31.6467 H   0  0  0  0  0  0  0  0  0  0  0  0
   -8.5380   17.5341  -30.7425 H   0  0  0  0  0  0  0  0  0  0  0  0
   -6.1916   17.3393  -31.5684 H   0  0  0  0  0  0  0  0  0  0  0  0
   -5.4720   16.0400  -34.0580 H   0  0  0  0  0  0  0  0  0  0  0  0
   -5.8251   21.7639  -33.3089 H   0  0  0  0  0  0  0  0  0  0  0  0
   -5.8196   23.8157  -31.8944 H   0  0  0  0  0  0  0  0  0  0  0  0
  1  2  1  0
  2  3  2  0
  2  4  2  0
  2  5  1  0
  5  6  2  0
  6  7  1  0
  7  8  2  0
  8  9  1  0
  9 10  1  0
 10 11  1  0
 11 12  2  0
 12 13  1  0
 13 14  2  0
 14 15  1  0
 15 16  2  0
 10 17  2  0
 17 18  1  0
 17 19  1  0
 19 20  1  0
 20 21  2  0
  8 22  1  0
 22 23  2  0
 23  5  1  0
 20  9  1  0
 16 11  1  0
  1 24  1  0
  6 25  1  0
  7 26  1  0
 12 27  1  0
 13 28  1  0
 14 29  1  0
 15 30  1  0
 16 31  1  0
 18 32  1  0
 22 33  1  0
 23 34  1  0
M  CHG  2   1  -1  19  -1
M  END
>  <UniqueID>  (40) 
37

>  <SMILES>  (40) 
[NH-]S(=O)(=O)c1ccc(-n2c(-c3ccccc3)c(O)[n-]c2=O)cc1

>  <Energy>  (40) 
77.59942025759709

>  <Genealogy>  (40) 
[NH-]S(=O)(=O)c1ccc(-n2c(-c3ccccc3)c(O)[n-]c2=O)cc1 (protonated)
[NH-]S(=O)(=O)c1ccc(-n2c(-c3ccccc3)c(O)[n-]c2=O)cc1 (3D coordinates assigned)
[NH-]S(=O)(=O)c1ccc(-n2c(-c3ccccc3)c(O)[n-]c2=O)cc1 (optimized conformer: 77.59942025759709 kcal/mol)

>  <smiles>  (40) 
NS(=O)(=O)c1ccc(-n2c(-c3ccccc3)c(O)[nH]c2=O)cc1

>  <score_type>  (40) 
oracle

>  <origin>  (40) 
adgpu

>  <m_score__min__energy>  (40) 
-10.380000000000001

>  <m_primary>  (40) 
energy

$$$$
40:0
     RDKit          3D

 39 41  0  0  1  0  0  0  0  0999 V2000
   -1.2890   23.4510  -27.1930 C   0  0  0  0  0  0  0  0  0  0  0  0
   -2.2150   23.5910  -28.3160 N   0  0  0  0  0  0  0  0  0  0  0  0
   -2.5980   24.8070  -28.7090 C   0  0  0  0  0  0  0  0  0  0  0  0
   -3.4690   24.9190  -29.7660 N   0  0  0  0  0  0  0  0  0  0  0  0
   -3.9250   23.8310  -30.3880 C   0  0  0  0  0  0  0  0  0  0  0  0
   -4.7560   23.8700  -31.4030 N   0  0  0  0  0  0  0  0  0  0  0  0
   -5.1590   22.5940  -31.9690 C   0  0  0  0  0  0  0  0  0  0  0  0
   -4.2190   21.9260  -32.7700 C   0  0  0  0  0  0  0  0  0  0  0  0
   -4.5820   20.7150  -33.3010 C   0  0  0  0  0  0  0  0  0  0  0  0
   -5.8330   20.1350  -33.0760 C   0  0  0  0  0  0  0  0  0  0  0  0
   -6.1540   18.8670  -33.6540 N   0  0  0  0  0  0  0  0  0  0  0  0
   -6.6900   20.8430  -32.2890 C   0  0  0  0  0  0  0  0  0  0  0  0
   -7.9930   20.2350  -32.0540 C   0  0  0  0  0  0  0  0  0  0  0  0
   -9.0420   19.7350  -31.8820 N   0  0  0  0  0  0  0  0  0  0  0  0
   -6.4080   22.0640  -31.7170 C   0  0  0  0  0  0  0  0  0  0  0  0
   -3.5080   22.5850  -29.9560 C   0  0  0  0  0  0  0  0  0  0  0  0
   -2.6220   22.4380  -28.8830 C   0  0  0  0  0  0  0  0  0  0  0  0
   -2.1620   21.1530  -28.4070 C   0  0  0  0  0  0  0  0  0  0  0  0
   -2.7150   20.6420  -27.2400 C   0  0  0  0  0  0  0  0  0  0  0  0
   -2.2340   19.4110  -26.8330 C   0  0  0  0  0  0  0  0  0  0  0  0
   -1.2670   18.7090  -27.5180 C   0  0  0  0  0  0  0  0  0  0  0  0
   -0.8580   17.5130  -27.0390 F   0  0  0  0  0  0  0  0  0  0  0  0
   -0.7340   19.2420  -28.6740 C   0  0  0  0  0  0  0  0  0  0  0  0
   -1.1940   20.4850  -29.1220 C   0  0  0  0  0  0  0  0  0  0  0  0
   -0.6060   20.9860  -30.3270 C   0  0  0  0  0  0  0  0  0  0  0  0
   -0.1060   21.4030  -31.3050 N   0  0  0  0  0  0  0  0  0  0  0  0
   -1.8443   23.5350  -26.2472 H   0  0  0  0  0  0  0  0  0  0  0  0
   -0.7973   22.4683  -27.2435 H   0  0  0  0  0  0  0  0  0  0  0  0
   -0.5288   24.2444  -27.2435 H   0  0  0  0  0  0  0  0  0  0  0  0
   -2.2230   25.7047  -28.1957 H   0  0  0  0  0  0  0  0  0  0  0  0
   -3.2266   22.3588  -32.9646 H   0  0  0  0  0  0  0  0  0  0  0  0
   -3.8577   20.1775  -33.9307 H   0  0  0  0  0  0  0  0  0  0  0  0
   -6.8560   18.9100  -34.4500 H   0  0  0  0  0  0  0  0  0  0  0  0
   -5.7320   17.9750  -33.3210 H   0  0  0  0  0  0  0  0  0  0  0  0
   -7.1425   22.5908  -31.0900 H   0  0  0  0  0  0  0  0  0  0  0  0
   -3.8824   21.6868  -30.4690 H   0  0  0  0  0  0  0  0  0  0  0  0
   -3.4879   21.1830  -26.6744 H   0  0  0  0  0  0  0  0  0  0  0  0
   -2.6454   18.9691  -25.9135 H   0  0  0  0  0  0  0  0  0  0  0  0
    0.0405   18.6980  -29.2345 H   0  0  0  0  0  0  0  0  0  0  0  0
  1  2  1  0
  2  3  1  0
  3  4  2  0
  4  5  1  0
  5  6  2  0
  6  7  1  0
  7  8  2  0
  8  9  1  0
  9 10  2  0
 10 11  1  0
 10 12  1  0
 12 13  1  0
 13 14  3  0
 12 15  2  0
  5 16  1  0
 16 17  2  0
 17 18  1  0
 18 19  2  0
 19 20  1  0
 20 21  2  0
 21 22  1  0
 21 23  1  0
 23 24  2  0
 24 25  1  0
 25 26  3  0
 17  2  1  0
 24 18  1  0
 15  7  1  0
  1 27  1  0
  1 28  1  0
  1 29  1  0
  3 30  1  0
  8 31  1  0
  9 32  1  0
 11 33  1  0
 11 34  1  0
 15 35  1  0
 16 36  1  0
 19 37  1  0
 20 38  1  0
 23 39  1  0
M  END
>  <smiles>  (41) 
Cn1cnc(=Nc2ccc(N)c(C#N)c2)cc1-c1ccc(F)cc1C#N

>  <score_type>  (41) 
oracle

>  <origin>  (41) 
adgpu

>  <m_score__min__energy>  (41) 
-8.2400000000000002

>  <m_primary>  (41) 
energy

$$$$
41:0
     RDKit          3D

 42 44  0  0  0  0  0  0  0  0999 V2000
   -0.2610   19.6500  -31.5460 C   0  0  0  0  0  0  0  0  0  0  0  0
    0.2380   19.8040  -30.2210 O   0  0  0  0  0  0  0  0  0  0  0  0
   -0.5630   19.8920  -29.0700 C   0  0  0  0  0  0  0  0  0  0  0  0
   -0.7390   18.7930  -28.2100 C   0  0  0  0  0  0  0  0  0  0  0  0
   -1.5630   18.8980  -27.0910 C   0  0  0  0  0  0  0  0  0  0  0  0
   -2.2210   20.0940  -26.8110 C   0  0  0  0  0  0  0  0  0  0  0  0
   -2.0550   21.2130  -27.6490 C   0  0  0  0  0  0  0  0  0  0  0  0
   -2.6900   22.4370  -27.3790 O   0  0  0  0  0  0  0  0  0  0  0  0
   -4.0490   22.7280  -27.6890 C   0  0  0  0  0  0  0  0  0  0  0  0
   -1.2140   21.1130  -28.7800 C   0  0  0  0  0  0  0  0  0  0  0  0
   -1.0230   22.2880  -29.6630 C   0  0  0  0  0  0  0  0  0  0  0  0
   -0.2140   23.1910  -29.3190 O   0  0  0  0  0  0  0  0  0  0  0  0
   -1.7660   22.4550  -30.8770 N   0  0  0  0  0  0  0  0  0  0  0  0
   -3.1740   22.2400  -31.0310 C   0  0  0  0  0  0  0  0  0  0  0  0
   -3.9090   20.8000  -31.5010 S   0  0  0  0  0  0  0  0  0  0  0  0
   -5.4600   21.4650  -31.4850 C   0  0  0  0  0  0  0  0  0  0  0  0
   -6.7120   20.7410  -31.8000 C   0  0  0  0  0  0  0  0  0  0  0  0
   -7.9440   21.4230  -31.7920 C   0  0  0  0  0  0  0  0  0  0  0  0
   -9.1300   20.7450  -32.0890 C   0  0  0  0  0  0  0  0  0  0  0  0
   -9.1030   19.3830  -32.3950 C   0  0  0  0  0  0  0  0  0  0  0  0
   -7.8870   18.6950  -32.4060 C   0  0  0  0  0  0  0  0  0  0  0  0
   -6.6970   19.3680  -32.1110 C   0  0  0  0  0  0  0  0  0  0  0  0
   -5.4220   22.7740  -31.1410 N   0  0  0  0  0  0  0  0  0  0  0  0
   -4.1590   23.2180  -30.8940 C   0  0  0  0  0  0  0  0  0  0  0  0
   -3.9030   24.6160  -30.5070 C   0  0  0  0  0  0  0  0  0  0  0  0
   -2.7560   24.9350  -29.7230 N   0  0  0  0  0  0  0  0  0  0  0  0
   -4.6860   25.5370  -30.8620 O   0  0  0  0  0  0  0  0  0  0  0  0
   -1.3114   19.3258  -31.5068 H   0  0  0  0  0  0  0  0  0  0  0  0
   -0.1934   20.6108  -32.0773 H   0  0  0  0  0  0  0  0  0  0  0  0
    0.3364   18.8944  -32.0773 H   0  0  0  0  0  0  0  0  0  0  0  0
   -0.2231   17.8449  -28.4220 H   0  0  0  0  0  0  0  0  0  0  0  0
   -1.6947   18.0322  -26.4253 H   0  0  0  0  0  0  0  0  0  0  0  0
   -2.8747   20.1643  -25.9291 H   0  0  0  0  0  0  0  0  0  0  0  0
   -4.6197   22.8502  -26.7566 H   0  0  0  0  0  0  0  0  0  0  0  0
   -4.1005   23.6575  -28.2749 H   0  0  0  0  0  0  0  0  0  0  0  0
   -4.4766   21.9011  -28.2749 H   0  0  0  0  0  0  0  0  0  0  0  0
   -7.9734   22.4958  -31.5506 H   0  0  0  0  0  0  0  0  0  0  0  0
  -10.0875   21.2863  -32.0816 H   0  0  0  0  0  0  0  0  0  0  0  0
  -10.0381   18.8522  -32.6272 H   0  0  0  0  0  0  0  0  0  0  0  0
   -7.8655   17.6220  -32.6471 H   0  0  0  0  0  0  0  0  0  0  0  0
   -5.7428   18.8208  -32.1221 H   0  0  0  0  0  0  0  0  0  0  0  0
   -1.8250   24.5130  -29.9390 H   0  0  0  0  0  0  0  0  0  0  0  0
  1  2  1  0
  2  3  1  0
  3  4  2  0
  4  5  1  0
  5  6  2  0
  6  7  1  0
  7  8  1  0
  8  9  1  0
  7 10  2  0
 10 11  1  0
 11 12  2  0
 11 13  1  0
 13 14  1  0
 14 15  1  0
 15 16  1  0
 16 17  1  0
 17 18  2  0
 18 19  1  0
 19 20  2  0
 20 21  1  0
 21 22  2  0
 16 23  2  0
 23 24  1  0
 24 25  1  0
 25 26  1  0
 25 27  2  0
 10  3  1  0
 24 14  2  0
 22 17  1  0
  1 28  1  0
  1 29  1  0
  1 30  1  0
  4 31  1  0
  5 32  1  0
  6 33  1  0
  9 34  1  0
  9 35  1  0
  9 36  1  0
 18 37  1  0
 19 38  1  0
 20 39  1  0
 21 40  1  0
 22 41  1  0
 26 42  1  0
M  CHG  2  13  -1  26  -1
M  END
>  <UniqueID>  (42) 
38

>  <SMILES>  (42) 
COc1cccc(OC)c1C(=O)[N-]c1sc(-c2ccccc2)nc1C([NH-])=O

>  <Energy>  (42) 
81.3781525739716

>  <Genealogy>  (42) 
COc1cccc(OC)c1C(=O)[N-]c1sc(-c2ccccc2)nc1C([NH-])=O (protonated)
COc1cccc(OC)c1C(=O)[N-]c1sc(-c2ccccc2)nc1C([NH-])=O (3D coordinates assigned)
COc1cccc(OC)c1C(=O)[N-]c1sc(-c2ccccc2)nc1C([NH-])=O (optimized conformer: 81.3781525739716 kcal/mol)

>  <smiles>  (42) 
COc1cccc(OC)c1C(=O)Nc1sc(-c2ccccc2)nc1C(N)=O

>  <score_type>  (42) 
oracle

>  <origin>  (42) 
adgpu

>  <m_score__min__energy>  (42) 
-10.859999999999999

>  <m_primary>  (42) 
energy

$$$$
42:0
     RDKit          3D

 36 38  0  0  0  0  0  0  0  0999 V2000
   -6.4170   19.0510  -34.2700 O   0  0  0  0  0  0  0  0  0  0  0  0
   -5.8740   18.2590  -33.4530 C   0  0  0  0  0  0  0  0  0  0  0  0
   -5.4680   18.7270  -32.1540 N   0  0  0  0  0  0  0  0  0  0  0  0
   -5.4780   20.1090  -31.7600 C   0  0  0  0  0  0  0  0  0  0  0  0
   -6.6580   20.8730  -31.7880 C   0  0  0  0  0  0  0  0  0  0  0  0
   -6.6350   22.2220  -31.4230 C   0  0  0  0  0  0  0  0  0  0  0  0
   -5.4330   22.8280  -31.0340 C   0  0  0  0  0  0  0  0  0  0  0  0
   -5.3980   24.5250  -30.5660 S   0  0  0  0  0  0  0  0  0  0  0  0
   -6.1150   25.3340  -31.6080 O   0  0  0  0  0  0  0  0  0  0  0  0
   -6.0770   24.7210  -29.2390 O   0  0  0  0  0  0  0  0  0  0  0  0
   -3.7570   25.0730  -30.4460 N   0  0  0  0  0  0  0  0  0  0  0  0
   -3.0090   24.8510  -29.4100 C   0  0  0  0  0  0  0  0  0  0  0  0
   -3.4200   24.1750  -28.3170 N   0  0  0  0  0  0  0  0  0  0  0  0
   -2.3280   24.1920  -27.5270 C   0  0  0  0  0  0  0  0  0  0  0  0
   -1.3140   24.8710  -28.1670 C   0  0  0  0  0  0  0  0  0  0  0  0
   -1.7670   25.2650  -29.3300 O   0  0  0  0  0  0  0  0  0  0  0  0
   -4.2500   22.0780  -31.0330 C   0  0  0  0  0  0  0  0  0  0  0  0
   -4.2710   20.7300  -31.4000 C   0  0  0  0  0  0  0  0  0  0  0  0
   -5.7040   16.8360  -33.8260 C   0  0  0  0  0  0  0  0  0  0  0  0
   -6.8260   15.9880  -33.8550 C   0  0  0  0  0  0  0  0  0  0  0  0
   -6.6930   14.6470  -34.2210 C   0  0  0  0  0  0  0  0  0  0  0  0
   -5.4400   14.1350  -34.5650 C   0  0  0  0  0  0  0  0  0  0  0  0
   -5.2760   12.4490  -35.0240 Cl  0  0  0  0  0  0  0  0  0  0  0  0
   -4.3170   14.9650  -34.5420 C   0  0  0  0  0  0  0  0  0  0  0  0
   -4.4380   16.3120  -34.1770 C   0  0  0  0  0  0  0  0  0  0  0  0
   -2.9730   17.2880  -34.1170 Cl  0  0  0  0  0  0  0  0  0  0  0  0
   -5.1990   18.0240  -31.4300 H   0  0  0  0  0  0  0  0  0  0  0  0
   -7.6044   20.4065  -32.0989 H   0  0  0  0  0  0  0  0  0  0  0  0
   -7.5643   22.8103  -31.4412 H   0  0  0  0  0  0  0  0  0  0  0  0
   -2.2574   23.7357  -26.5286 H   0  0  0  0  0  0  0  0  0  0  0  0
   -0.3035   25.0500  -27.7709 H   0  0  0  0  0  0  0  0  0  0  0  0
   -3.3009   22.5520  -30.7422 H   0  0  0  0  0  0  0  0  0  0  0  0
   -3.3356   20.1512  -31.4070 H   0  0  0  0  0  0  0  0  0  0  0  0
   -7.8164   16.3846  -33.5871 H   0  0  0  0  0  0  0  0  0  0  0  0
   -7.5770   13.9925  -34.2384 H   0  0  0  0  0  0  0  0  0  0  0  0
   -3.3313   14.5584  -34.8122 H   0  0  0  0  0  0  0  0  0  0  0  0
  1  2  2  0
  2  3  1  0
  3  4  1  0
  4  5  2  0
  5  6  1  0
  6  7  2  0
  7  8  1  0
  8  9  2  0
  8 10  2  0
  8 11  1  0
 11 12  2  3
 12 13  1  0
 13 14  1  0
 14 15  2  0
 15 16  1  0
  7 17  1  0
 17 18  2  0
  2 19  1  0
 19 20  2  0
 20 21  1  0
 21 22  2  0
 22 23  1  0
 22 24  1  0
 24 25  2  0
 25 26  1  0
 18  4  1  0
 25 19  1  0
 16 12  1  0
  3 27  1  0
  5 28  1  0
  6 29  1  0
 14 30  1  0
 15 31  1  0
 17 32  1  0
 18 33  1  0
 20 34  1  0
 21 35  1  0
 24 36  1  0
M  CHG  1  13  -1
M  END
>  <UniqueID>  (43) 
39

>  <SMILES>  (43) 
O=C(Nc1ccc(S(=O)(=O)N=c2[n-]cco2)cc1)c1ccc(Cl)cc1Cl

>  <Energy>  (43) 
80.32079810375062

>  <Genealogy>  (43) 
O=C(Nc1ccc(S(=O)(=O)N=c2[n-]cco2)cc1)c1ccc(Cl)cc1Cl (protonated)
O=C(Nc1ccc(S(=O)(=O)N=c2[n-]cco2)cc1)c1ccc(Cl)cc1Cl (3D coordinates assigned)
O=C(Nc1ccc(S(=O)(=O)N=c2[n-]cco2)cc1)c1ccc(Cl)cc1Cl (optimized conformer: 80.32079810375062 kcal/mol)

>  <smiles>  (43) 
O=C(Nc1ccc(S(=O)(=O)N=c2[nH]cco2)cc1)c1ccc(Cl)cc1Cl

>  <score_type>  (43) 
oracle

>  <origin>  (43) 
adgpu

>  <m_score__min__energy>  (43) 
-9.1300000000000008

>  <m_primary>  (43) 
energy

$$$$
43:0
     RDKit          3D

 49 53  0  0  0  0  0  0  0  0999 V2000
   -1.3650   26.0620  -29.9460 H   0  0  0  0  0  0  0  0  0  0  0  0
   -1.6330   25.2550  -29.3400 N   0  0  0  0  0  0  0  0  0  0  0  0
   -2.8400   24.7910  -29.3410 C   0  0  0  0  0  0  0  0  0  0  0  0
   -3.8290   25.2990  -30.1070 N   0  0  0  0  0  0  0  0  0  0  0  0
   -4.9960   24.6270  -29.9080 C   0  0  0  0  0  0  0  0  0  0  0  0
   -6.2420   24.9680  -30.6690 C   0  0  0  0  0  0  0  0  0  0  0  0
   -7.0919   25.0079  -29.9718 H   0  0  0  0  0  0  0  0  0  0  0  0
   -6.1038   25.9443  -31.1566 H   0  0  0  0  0  0  0  0  0  0  0  0
   -6.5170   23.9330  -31.7250 C   0  0  0  0  0  0  0  0  0  0  0  0
   -5.7190   23.8110  -32.6920 O   0  0  0  0  0  0  0  0  0  0  0  0
   -7.6400   23.0450  -31.6400 N   0  0  0  0  0  0  0  0  0  0  0  0
   -7.6560   21.6590  -32.0050 C   0  0  0  0  0  0  0  0  0  0  0  0
   -8.8320   20.8930  -31.9300 C   0  0  0  0  0  0  0  0  0  0  0  0
   -9.7637   21.3517  -31.5673 H   0  0  0  0  0  0  0  0  0  0  0  0
   -8.8200   19.5510  -32.3150 C   0  0  0  0  0  0  0  0  0  0  0  0
   -9.7376   18.9498  -32.2343 H   0  0  0  0  0  0  0  0  0  0  0  0
   -7.6480   18.9690  -32.8020 C   0  0  0  0  0  0  0  0  0  0  0  0
   -7.6411   17.9068  -33.0880 H   0  0  0  0  0  0  0  0  0  0  0  0
   -6.4770   19.7360  -32.9280 C   0  0  0  0  0  0  0  0  0  0  0  0
   -5.2260   19.1390  -33.4400 C   0  0  0  0  0  0  0  0  0  0  0  0
   -5.1570   17.9080  -34.0020 N   0  0  0  0  0  0  0  0  0  0  0  0
   -3.9020   17.6590  -34.3620 N   0  0  0  0  0  0  0  0  0  0  0  0
   -3.1690   18.7330  -34.0240 C   0  0  0  0  0  0  0  0  0  0  0  0
   -1.7970   18.9070  -34.1860 C   0  0  0  0  0  0  0  0  0  0  0  0
   -1.1808   18.1328  -34.6666 H   0  0  0  0  0  0  0  0  0  0  0  0
   -1.2200   20.1070  -33.7150 C   0  0  0  0  0  0  0  0  0  0  0  0
    0.2330   20.3400  -33.8620 C   0  0  0  0  0  0  0  0  0  0  0  0
    1.2740   19.7210  -33.1900 C   0  0  0  0  0  0  0  0  0  0  0  0
    1.1690   18.6580  -32.1440 C   0  0  0  0  0  0  0  0  0  0  0  0
    1.2146   19.1194  -31.1465 H   0  0  0  0  0  0  0  0  0  0  0  0
    0.2138   18.1245  -32.2580 H   0  0  0  0  0  0  0  0  0  0  0  0
    2.0014   17.9480  -32.2580 H   0  0  0  0  0  0  0  0  0  0  0  0
    2.4470   20.2190  -33.6270 N   0  0  0  0  0  0  0  0  0  0  0  0
    2.1700   21.1170  -34.5290 O   0  0  0  0  0  0  0  0  0  0  0  0
    0.8750   21.2270  -34.7110 C   0  0  0  0  0  0  0  0  0  0  0  0
    0.2490   22.1710  -35.6850 C   0  0  0  0  0  0  0  0  0  0  0  0
   -0.2783   22.9662  -35.1377 H   0  0  0  0  0  0  0  0  0  0  0  0
    1.0307   22.6173  -36.3172 H   0  0  0  0  0  0  0  0  0  0  0  0
   -0.4663   21.6246  -36.3172 H   0  0  0  0  0  0  0  0  0  0  0  0
   -2.0390   21.0810  -33.0850 C   0  0  0  0  0  0  0  0  0  0  0  0
   -1.5871   22.0114  -32.7107 H   0  0  0  0  0  0  0  0  0  0  0  0
   -3.4210   20.8700  -32.9340 C   0  0  0  0  0  0  0  0  0  0  0  0
   -4.0591   21.6142  -32.4350 H   0  0  0  0  0  0  0  0  0  0  0  0
   -3.9550   19.6840  -33.4390 C   0  0  0  0  0  0  0  0  0  0  0  0
   -6.4890   21.0790  -32.5180 C   0  0  0  0  0  0  0  0  0  0  0  0
   -5.5725   21.6816  -32.6006 H   0  0  0  0  0  0  0  0  0  0  0  0
   -4.9280   23.5760  -28.9950 C   0  0  0  0  0  0  0  0  0  0  0  0
   -5.7583   22.9129  -28.7106 H   0  0  0  0  0  0  0  0  0  0  0  0
   -3.3530   23.4980  -28.4030 S   0  0  0  0  0  0  0  0  0  0  0  0
  1  2  1  0
  2  3  2  0
  3  4  1  0
  4  5  1  0
  5  6  1  0
  6  7  1  0
  6  8  1  0
  6  9  1  0
  9 10  2  0
  9 11  1  0
 11 12  1  0
 12 13  2  0
 13 14  1  0
 13 15  1  0
 15 16  1  0
 15 17  2  0
 17 18  1  0
 17 19  1  0
 19 20  1  0
 20 21  1  0
 21 22  1  0
 22 23  2  0
 23 24  1  0
 24 25  1  0
 24 26  2  0
 26 27  1  0
 27 28  1  0
 28 29  1  0
 29 30  1  0
 29 31  1  0
 29 32  1  0
 28 33  2  0
 33 34  1  0
 34 35  1  0
 35 36  1  0
 36 37  1  0
 36 38  1  0
 36 39  1  0
 26 40  1  0
 40 41  1  0
 40 42  2  0
 42 43  1  0
 42 44  1  0
 19 45  2  0
 45 46  1  0
  5 47  2  0
 47 48  1  0
 47 49  1  0
 49  3  1  0
 45 12  1  0
 44 20  2  0
 44 23  1  0
 35 27  2  0
M  CHG  3   4  -1  11  -1  21  -1
M  END
>  <UniqueID>  (44) 
40

>  <SMILES>  (44) 
[H]/N=c1\[n-]c(CC(=O)[N-]c2cccc(-c3[n-]nc4cc(-c5c(C)noc5C)ccc34)c2)cs1

>  <Energy>  (44) 
164.12139251130284

>  <Genealogy>  (44) 
Cc1noc(C)c1-c1ccc2c(-c3cccc([N-]C(=O)Cc4csc(=N)[n-]4)c3)[n-]nc2c1 (protonated)
[H]/N=c1\[n-]c(CC(=O)[N-]c2cccc(-c3[n-]nc4cc(-c5c(C)noc5C)ccc34)c2)cs1 (cis-trans isomerization)
[H]/N=c1\[n-]c(CC(=O)[N-]c2cccc(-c3[n-]nc4cc(-c5c(C)noc5C)ccc34)c2)cs1 (3D coordinates assigned)
[H]/N=c1\[n-]c(CC(=O)[N-]c2cccc(-c3[n-]nc4cc(-c5c(C)noc5C)ccc34)c2)cs1 (optimized conformer: 164.12139251130284 kcal/mol)

>  <smiles>  (44) 
Cc1noc(C)c1-c1ccc2c(-c3cccc(NC(=O)Cc4csc(=N)[nH]4)c3)[nH]nc2c1

>  <score_type>  (44) 
oracle

>  <origin>  (44) 
adgpu

>  <m_score__min__energy>  (44) 
-12.57

>  <m_primary>  (44) 
energy

$$$$
44:0
     RDKit          3D

 56 59  0  0  0  0  0  0  0  0999 V2000
   -0.8120   22.1670  -26.2450 C   0  0  0  0  0  0  0  0  0  0  0  0
   -1.5290   22.8910  -27.3500 C   0  0  0  0  0  0  0  0  0  0  0  0
   -1.3200   24.2660  -27.5390 C   0  0  0  0  0  0  0  0  0  0  0  0
   -1.9830   24.9510  -28.5590 C   0  0  0  0  0  0  0  0  0  0  0  0
   -2.8810   24.2730  -29.3990 C   0  0  0  0  0  0  0  0  0  0  0  0
   -3.5630   24.9420  -30.4700 N   0  0  0  0  0  0  0  0  0  0  0  0
   -4.9550   25.2870  -30.5040 C   0  0  0  0  0  0  0  0  0  0  0  0
   -5.2820   26.4900  -30.3180 O   0  0  0  0  0  0  0  0  0  0  0  0
   -6.0070   24.2850  -30.7980 C   0  0  0  0  0  0  0  0  0  0  0  0
   -6.5190   24.1350  -32.0990 C   0  0  0  0  0  0  0  0  0  0  0  0
   -7.5120   23.1880  -32.3650 C   0  0  0  0  0  0  0  0  0  0  0  0
   -8.0250   22.3900  -31.3280 C   0  0  0  0  0  0  0  0  0  0  0  0
   -9.0240   21.3870  -31.5660 N   0  0  0  0  0  0  0  0  0  0  0  0
   -8.7920   19.9810  -31.7120 C   0  0  0  0  0  0  0  0  0  0  0  0
   -9.0720   19.1810  -30.7780 O   0  0  0  0  0  0  0  0  0  0  0  0
   -8.1640   19.4640  -32.9660 C   0  0  0  0  0  0  0  0  0  0  0  0
   -6.6840   19.3250  -32.7870 C   0  0  0  0  0  0  0  0  0  0  0  0
   -5.5260   20.3670  -33.4250 S   0  0  0  0  0  0  0  0  0  0  0  0
   -4.2390   19.5420  -32.7070 C   0  0  0  0  0  0  0  0  0  0  0  0
   -2.8480   19.8970  -32.8240 N   0  0  0  0  0  0  0  0  0  0  0  0
   -2.1080   20.4670  -31.6870 C   0  0  0  0  0  0  0  0  0  0  0  0
   -1.1610   21.5670  -32.1770 C   0  0  0  0  0  0  0  0  0  0  0  0
   -0.2230   21.0980  -33.3100 C   0  0  0  0  0  0  0  0  0  0  0  0
   -0.6300   19.7530  -33.9350 C   0  0  0  0  0  0  0  0  0  0  0  0
   -2.1510   19.6350  -34.0930 C   0  0  0  0  0  0  0  0  0  0  0  0
   -4.6730   18.4920  -31.9720 N   0  0  0  0  0  0  0  0  0  0  0  0
   -6.0290   18.3730  -32.0130 C   0  0  0  0  0  0  0  0  0  0  0  0
   -6.7020   17.3730  -31.3200 O   0  0  0  0  0  0  0  0  0  0  0  0
   -7.5110   22.5310  -30.0350 C   0  0  0  0  0  0  0  0  0  0  0  0
   -6.5230   23.4830  -29.7670 C   0  0  0  0  0  0  0  0  0  0  0  0
   -3.0790   22.9000  -29.2250 C   0  0  0  0  0  0  0  0  0  0  0  0
   -2.4180   22.2080  -28.2040 C   0  0  0  0  0  0  0  0  0  0  0  0
   -2.7240   20.4840  -28.0210 Cl  0  0  0  0  0  0  0  0  0  0  0  0
   -1.1736   22.5321  -25.2724 H   0  0  0  0  0  0  0  0  0  0  0  0
   -1.0070   21.0875  -26.3270 H   0  0  0  0  0  0  0  0  0  0  0  0
    0.2693   22.3515  -26.3270 H   0  0  0  0  0  0  0  0  0  0  0  0
   -0.6281   24.8084  -26.8780 H   0  0  0  0  0  0  0  0  0  0  0  0
   -1.8012   26.0260  -28.7052 H   0  0  0  0  0  0  0  0  0  0  0  0
   -6.1353   24.7674  -32.9132 H   0  0  0  0  0  0  0  0  0  0  0  0
   -7.8934   23.0668  -33.3896 H   0  0  0  0  0  0  0  0  0  0  0  0
   -8.5941   18.4811  -33.2086 H   0  0  0  0  0  0  0  0  0  0  0  0
   -8.3605   20.1735  -33.7833 H   0  0  0  0  0  0  0  0  0  0  0  0
   -2.8205   20.8942  -30.9660 H   0  0  0  0  0  0  0  0  0  0  0  0
   -1.5198   19.6727  -31.2042 H   0  0  0  0  0  0  0  0  0  0  0  0
   -1.7643   22.4088  -32.5478 H   0  0  0  0  0  0  0  0  0  0  0  0
   -0.5276   21.8577  -31.3259 H   0  0  0  0  0  0  0  0  0  0  0  0
   -0.2247   21.8627  -34.1007 H   0  0  0  0  0  0  0  0  0  0  0  0
    0.7725   20.9563  -32.8641 H   0  0  0  0  0  0  0  0  0  0  0  0
   -0.1612   19.6647  -34.9262 H   0  0  0  0  0  0  0  0  0  0  0  0
   -0.2926   18.9487  -33.2648 H   0  0  0  0  0  0  0  0  0  0  0  0
   -2.4898   20.3641  -34.8438 H   0  0  0  0  0  0  0  0  0  0  0  0
   -2.3860   18.6081  -34.4096 H   0  0  0  0  0  0  0  0  0  0  0  0
   -7.5900   17.5640  -30.8720 H   0  0  0  0  0  0  0  0  0  0  0  0
   -7.8863   21.8892  -29.2243 H   0  0  0  0  0  0  0  0  0  0  0  0
   -6.1468   23.6049  -28.7406 H   0  0  0  0  0  0  0  0  0  0  0  0
   -3.7609   22.3585  -29.8971 H   0  0  0  0  0  0  0  0  0  0  0  0
  1  2  1  0
  2  3  2  0
  3  4  1  0
  4  5  2  0
  5  6  1  0
  6  7  1  0
  7  8  2  0
  7  9  1  0
  9 10  2  0
 10 11  1  0
 11 12  2  0
 12 13  1  0
 13 14  1  0
 14 15  2  0
 14 16  1  0
 16 17  1  0
 17 18  1  0
 18 19  1  0
 19 20  1  0
 20 21  1  0
 21 22  1  0
 22 23  1  0
 23 24  1  0
 24 25  1  0
 19 26  2  0
 26 27  1  0
 27 28  1  0
 12 29  1  0
 29 30  2  0
  5 31  1  0
 31 32  2  0
 32 33  1  0
 32  2  1  0
 30  9  1  0
 27 17  2  0
 25 20  1  0
  1 34  1  0
  1 35  1  0
  1 36  1  0
  3 37  1  0
  4 38  1  0
 10 39  1  0
 11 40  1  0
 16 41  1  0
 16 42  1  0
 21 43  1  0
 21 44  1  0
 22 45  1  0
 22 46  1  0
 23 47  1  0
 23 48  1  0
 24 49  1  0
 24 50  1  0
 25 51  1  0
 25 52  1  0
 28 53  1  0
 29 54  1  0
 30 55  1  0
 31 56  1  0
M  CHG  2   6  -1  13  -1
M  END
>  <UniqueID>  (45) 
41

>  <SMILES>  (45) 
Cc1ccc([N-]C(=O)c2ccc([N-]C(=O)Cc3sc(N4CCCCC4)nc3O)cc2)cc1Cl

>  <Energy>  (45) 
97.86144140738891

>  <Genealogy>  (45) 
Cc1ccc([N-]C(=O)c2ccc([N-]C(=O)Cc3sc(N4CCCCC4)nc3O)cc2)cc1Cl (protonated)
Cc1ccc([N-]C(=O)c2ccc([N-]C(=O)Cc3sc(N4CCCCC4)nc3O)cc2)cc1Cl (3D coordinates assigned)
Cc1ccc([N-]C(=O)c2ccc([N-]C(=O)Cc3sc(N4CCCCC4)nc3O)cc2)cc1Cl (nonaromatic ring conformer: 97.86144140738891 kcal/mol)

>  <smiles>  (45) 
Cc1ccc(NC(=O)c2ccc(NC(=O)Cc3sc(N4CCCCC4)nc3O)cc2)cc1Cl

>  <score_type>  (45) 
oracle

>  <origin>  (45) 
adgpu

>  <m_score__min__energy>  (45) 
-12.18

>  <m_primary>  (45) 
energy

$$$$
45:0
     RDKit          3D

 59 62  0  0  0  0  0  0  0  0999 V2000
   -6.1080   25.6620  -29.3960 C   0  0  0  0  0  0  0  0  0  0  0  0
   -6.3010   25.2440  -30.7440 O   0  0  0  0  0  0  0  0  0  0  0  0
   -6.5060   23.9140  -31.1440 C   0  0  0  0  0  0  0  0  0  0  0  0
   -7.7940   23.3730  -31.3080 C   0  0  0  0  0  0  0  0  0  0  0  0
   -7.9670   22.0470  -31.7270 C   0  0  0  0  0  0  0  0  0  0  0  0
   -6.8420   21.2360  -31.9740 C   0  0  0  0  0  0  0  0  0  0  0  0
   -5.5580   21.7710  -31.7760 C   0  0  0  0  0  0  0  0  0  0  0  0
   -5.3840   23.1080  -31.3750 C   0  0  0  0  0  0  0  0  0  0  0  0
   -4.1110   23.6730  -31.1950 O   0  0  0  0  0  0  0  0  0  0  0  0
   -2.9720   22.9610  -30.7230 C   0  0  0  0  0  0  0  0  0  0  0  0
   -6.9810   19.7910  -32.4430 C   0  0  2  0  0  0  0  0  0  0  0  0
   -6.3480   19.5440  -33.8360 C   0  0  0  0  0  0  0  0  0  0  0  0
   -4.9500   18.9790  -33.8000 C   0  0  0  0  0  0  0  0  0  0  0  0
   -4.7490   17.5880  -33.7610 C   0  0  0  0  0  0  0  0  0  0  0  0
   -3.4540   17.0630  -33.7480 C   0  0  0  0  0  0  0  0  0  0  0  0
   -2.3410   17.9100  -33.7670 C   0  0  0  0  0  0  0  0  0  0  0  0
   -1.0630   17.3330  -33.7610 O   0  0  0  0  0  0  0  0  0  0  0  0
   -0.1010   17.4920  -34.7990 C   0  0  0  0  0  0  0  0  0  0  0  0
    0.3100   18.9330  -34.8720 C   0  0  0  0  0  0  0  0  0  0  0  0
    0.6450   19.6350  -33.7030 C   0  0  0  0  0  0  0  0  0  0  0  0
    0.9920   20.9870  -33.7670 C   0  0  0  0  0  0  0  0  0  0  0  0
    0.9950   21.6520  -34.9970 C   0  0  0  0  0  0  0  0  0  0  0  0
    0.6460   20.9650  -36.1630 C   0  0  0  0  0  0  0  0  0  0  0  0
    0.2980   19.6110  -36.1020 C   0  0  0  0  0  0  0  0  0  0  0  0
   -2.5400   19.3040  -33.7920 C   0  0  0  0  0  0  0  0  0  0  0  0
   -3.8340   19.8310  -33.8030 C   0  0  0  0  0  0  0  0  0  0  0  0
   -8.3740   19.2640  -32.3980 N   0  0  0  0  0  0  0  0  0  0  0  0
   -8.6540   18.5700  -31.1260 C   0  0  0  0  0  0  0  0  0  0  0  0
   -9.4170   20.2650  -32.7130 C   0  0  0  0  0  0  0  0  0  0  0  0
   -9.3560   21.4830  -31.7950 C   0  0  0  0  0  0  0  0  0  0  0  0
   -6.4697   24.8786  -28.7138 H   0  0  0  0  0  0  0  0  0  0  0  0
   -5.0372   25.8386  -29.2166 H   0  0  0  0  0  0  0  0  0  0  0  0
   -6.6680   26.5916  -29.2166 H   0  0  0  0  0  0  0  0  0  0  0  0
   -8.6760   23.9982  -31.1049 H   0  0  0  0  0  0  0  0  0  0  0  0
   -4.6753   21.1346  -31.9370 H   0  0  0  0  0  0  0  0  0  0  0  0
   -2.9702   22.9599  -29.6230 H   0  0  0  0  0  0  0  0  0  0  0  0
   -3.0090   21.9249  -31.0907 H   0  0  0  0  0  0  0  0  0  0  0  0
   -2.0568   23.4481  -31.0907 H   0  0  0  0  0  0  0  0  0  0  0  0
   -6.4057   19.2173  -31.7015 H   0  0  0  0  0  0  0  0  0  0  0  0
   -6.9893   18.8378  -34.3838 H   0  0  0  0  0  0  0  0  0  0  0  0
   -6.2740   20.5274  -34.3232 H   0  0  0  0  0  0  0  0  0  0  0  0
   -5.6150   16.9100  -33.7406 H   0  0  0  0  0  0  0  0  0  0  0  0
   -3.3085   15.9730  -33.7226 H   0  0  0  0  0  0  0  0  0  0  0  0
    0.7793   16.8685  -34.5838 H   0  0  0  0  0  0  0  0  0  0  0  0
   -0.5384   17.1826  -35.7597 H   0  0  0  0  0  0  0  0  0  0  0  0
    0.6342   19.1181  -32.7321 H   0  0  0  0  0  0  0  0  0  0  0  0
    1.2631   21.5287  -32.8488 H   0  0  0  0  0  0  0  0  0  0  0  0
    1.2719   22.7154  -35.0469 H   0  0  0  0  0  0  0  0  0  0  0  0
    0.6449   21.4894  -37.1300 H   0  0  0  0  0  0  0  0  0  0  0  0
    0.0142   19.0760  -37.0202 H   0  0  0  0  0  0  0  0  0  0  0  0
   -1.6729   19.9808  -33.8029 H   0  0  0  0  0  0  0  0  0  0  0  0
   -3.9795   20.9213  -33.8141 H   0  0  0  0  0  0  0  0  0  0  0  0
   -8.3891   19.2265  -30.2841 H   0  0  0  0  0  0  0  0  0  0  0  0
   -9.7237   18.3191  -31.0729 H   0  0  0  0  0  0  0  0  0  0  0  0
   -8.0579   17.6471  -31.0729 H   0  0  0  0  0  0  0  0  0  0  0  0
   -9.2821   20.5996  -33.7522 H   0  0  0  0  0  0  0  0  0  0  0  0
  -10.3957   19.7849  -32.5659 H   0  0  0  0  0  0  0  0  0  0  0  0
  -10.0378   22.2558  -32.1796 H   0  0  0  0  0  0  0  0  0  0  0  0
   -9.6529   21.1697  -30.7832 H   0  0  0  0  0  0  0  0  0  0  0  0
  1  2  1  0
  2  3  1  0
  3  4  2  0
  4  5  1  0
  5  6  2  0
  6  7  1  0
  7  8  2  0
  8  9  1  0
  9 10  1  0
  6 11  1  0
 11 12  1  0
 12 13  1  0
 13 14  2  0
 14 15  1  0
 15 16  2  0
 16 17  1  0
 17 18  1  0
 18 19  1  0
 19 20  2  0
 20 21  1  0
 21 22  2  0
 22 23  1  0
 23 24  2  0
 16 25  1  0
 25 26  2  0
 11 27  1  0
 27 28  1  0
 27 29  1  0
 29 30  1  0
  8  3  1  0
 26 13  1  0
 30  5  1  0
 24 19  1  0
  1 31  1  0
  1 32  1  0
  1 33  1  0
  4 34  1  0
  7 35  1  0
 10 36  1  0
 10 37  1  0
 10 38  1  0
 11 39  1  1
 12 40  1  0
 12 41  1  0
 14 42  1  0
 15 43  1  0
 18 44  1  0
 18 45  1  0
 20 46  1  0
 21 47  1  0
 22 48  1  0
 23 49  1  0
 24 50  1  0
 25 51  1  0
 26 52  1  0
 28 53  1  0
 28 54  1  0
 28 55  1  0
 29 56  1  0
 29 57  1  0
 30 58  1  0
 30 59  1  0
M  END
>  <UniqueID>  (46) 
42

>  <SMILES>  (46) 
COc1cc2c(cc1OC)[C@H](Cc1ccc(OCc3ccccc3)cc1)N(C)CC2

>  <Energy>  (46) 
66.96670030069276

>  <Genealogy>  (46) 
COc1cc2c(cc1OC)[C@H](Cc1ccc(OCc3ccccc3)cc1)N(C)CC2 (chirality)
COc1cc2c(cc1OC)[C@H](Cc1ccc(OCc3ccccc3)cc1)N(C)CC2 (3D coordinates assigned)
COc1cc2c(cc1OC)[C@H](Cc1ccc(OCc3ccccc3)cc1)N(C)CC2 (nonaromatic ring conformer: 66.96670030069276 kcal/mol)

>  <smiles>  (46) 
COc1cc2c(cc1OC)C(Cc1ccc(OCc3ccccc3)cc1)N(C)CC2

>  <score_type>  (46) 
oracle

>  <origin>  (46) 
adgpu

>  <m_score__min__energy>  (46) 
-9.5500000000000007

>  <m_primary>  (46) 
energy

$$$$
46:0
     RDKit          3D

 32 34  0  0  0  0  0  0  0  0999 V2000
   -6.6380   17.9140  -31.3100 C   0  0  0  0  0  0  0  0  0  0  0  0
   -7.2160   19.2720  -31.6020 C   0  0  0  0  0  0  0  0  0  0  0  0
   -8.4710   19.6020  -31.0650 C   0  0  0  0  0  0  0  0  0  0  0  0
   -9.0330   20.8590  -31.2930 C   0  0  0  0  0  0  0  0  0  0  0  0
   -8.3490   21.8030  -32.0630 C   0  0  0  0  0  0  0  0  0  0  0  0
   -9.0540   23.3850  -32.3420 Cl  0  0  0  0  0  0  0  0  0  0  0  0
   -7.1090   21.4830  -32.6180 C   0  0  0  0  0  0  0  0  0  0  0  0
   -6.5430   20.2150  -32.4150 C   0  0  0  0  0  0  0  0  0  0  0  0
   -5.2810   19.9070  -33.0360 N   0  0  0  0  0  0  0  0  0  0  0  0
   -4.1030   20.5630  -32.9440 C   0  0  0  0  0  0  0  0  0  0  0  0
   -3.8370   21.7490  -32.1040 C   0  0  0  0  0  0  0  0  0  0  0  0
   -4.8340   22.7300  -31.9790 C   0  0  0  0  0  0  0  0  0  0  0  0
   -4.6310   23.8500  -31.1660 C   0  0  0  0  0  0  0  0  0  0  0  0
   -5.9060   25.0470  -31.0070 Cl  0  0  0  0  0  0  0  0  0  0  0  0
   -3.4180   24.0050  -30.4830 C   0  0  0  0  0  0  0  0  0  0  0  0
   -3.2060   25.1120  -29.6680 O   0  0  0  0  0  0  0  0  0  0  0  0
   -2.4100   23.0490  -30.6250 C   0  0  0  0  0  0  0  0  0  0  0  0
   -2.6060   21.9270  -31.4430 C   0  0  0  0  0  0  0  0  0  0  0  0
   -1.5700   21.0110  -31.6210 O   0  0  0  0  0  0  0  0  0  0  0  0
   -3.1770   20.0200  -33.7630 N   0  0  0  0  0  0  0  0  0  0  0  0
   -3.7500   18.9970  -34.3790 N   0  0  0  0  0  0  0  0  0  0  0  0
   -5.0170   18.9330  -33.9300 C   0  0  0  0  0  0  0  0  0  0  0  0
   -6.1110   17.8470  -34.4850 S   0  0  0  0  0  0  0  0  0  0  0  0
   -6.5760   17.7682  -30.2215 H   0  0  0  0  0  0  0  0  0  0  0  0
   -7.2841   17.1387  -31.7475 H   0  0  0  0  0  0  0  0  0  0  0  0
   -5.6313   17.8422  -31.7475 H   0  0  0  0  0  0  0  0  0  0  0  0
   -9.0160   18.8631  -30.4592 H   0  0  0  0  0  0  0  0  0  0  0  0
  -10.0159   21.1068  -30.8658 H   0  0  0  0  0  0  0  0  0  0  0  0
   -6.5711   22.2307  -33.2193 H   0  0  0  0  0  0  0  0  0  0  0  0
   -5.7823   22.6168  -32.5248 H   0  0  0  0  0  0  0  0  0  0  0  0
   -1.4564   23.1769  -30.0919 H   0  0  0  0  0  0  0  0  0  0  0  0
   -1.6260   20.2710  -32.3110 H   0  0  0  0  0  0  0  0  0  0  0  0
  1  2  1  0
  2  3  2  0
  3  4  1  0
  4  5  2  0
  5  6  1  0
  5  7  1  0
  7  8  2  0
  8  9  1  0
  9 10  1  0
 10 11  1  0
 11 12  2  0
 12 13  1  0
 13 14  1  0
 13 15  2  0
 15 16  1  0
 15 17  1  0
 17 18  2  0
 18 19  1  0
 10 20  2  0
 20 21  1  0
 21 22  1  0
 22 23  2  0
  8  2  1  0
 22  9  1  0
 18 11  1  0
  1 24  1  0
  1 25  1  0
  1 26  1  0
  3 27  1  0
  4 28  1  0
  7 29  1  0
 12 30  1  0
 17 31  1  0
 19 32  1  0
M  CHG  2  16  -1  21  -1
M  END
>  <UniqueID>  (47) 
43

>  <SMILES>  (47) 
Cc1ccc(Cl)cc1-n1c(-c2cc(Cl)c([O-])cc2O)n[n-]c1=S

>  <Energy>  (47) 
81.86686010770282

>  <Genealogy>  (47) 
Cc1ccc(Cl)cc1-n1c(-c2cc(Cl)c([O-])cc2O)n[n-]c1=S (protonated)
Cc1ccc(Cl)cc1-n1c(-c2cc(Cl)c([O-])cc2O)n[n-]c1=S (3D coordinates assigned)
Cc1ccc(Cl)cc1-n1c(-c2cc(Cl)c([O-])cc2O)n[n-]c1=S (optimized conformer: 81.86686010770282 kcal/mol)

>  <smiles>  (47) 
Cc1ccc(Cl)cc1-n1c(-c2cc(Cl)c(O)cc2O)n[nH]c1=S

>  <score_type>  (47) 
oracle

>  <origin>  (47) 
adgpu

>  <m_score__min__energy>  (47) 
-10.15

>  <m_primary>  (47) 
energy

$$$$
47:0
     RDKit          3D

 50 53  0  0  1  0  0  0  0  0999 V2000
   -4.3640   21.6330  -33.1030 N   0  0  0  0  0  0  0  0  0  0  0  0
   -3.8400   22.1820  -32.2180 C   0  0  0  0  0  0  0  0  0  0  0  0
   -3.1770   22.8430  -31.1360 C   0  0  0  0  0  0  0  0  0  0  0  0
   -1.9410   22.3610  -30.7660 C   0  0  0  0  0  0  0  0  0  0  0  0
   -1.3410   21.2560  -31.4150 N   0  0  0  0  0  0  0  0  0  0  0  0
   -1.2850   22.9600  -29.7550 N   0  0  0  0  0  0  0  0  0  0  0  0
   -1.7670   24.0170  -29.0700 C   0  0  0  0  0  0  0  0  0  0  0  0
   -1.0340   24.6150  -28.0090 N   0  0  0  0  0  0  0  0  0  0  0  0
   -0.1640   23.9230  -27.1170 C   0  0  0  0  0  0  0  0  0  0  0  0
   -0.8200   24.0080  -25.7340 C   0  0  0  0  0  0  0  0  0  0  0  0
   -0.7490   25.4750  -25.3970 C   0  0  0  0  0  0  0  0  0  0  0  0
   -0.5060   25.8640  -24.0770 C   0  0  0  0  0  0  0  0  0  0  0  0
   -0.4400   27.2150  -23.7680 C   0  0  0  0  0  0  0  0  0  0  0  0
   -0.6140   28.1570  -24.7720 C   0  0  0  0  0  0  0  0  0  0  0  0
   -0.8550   27.7670  -26.0890 C   0  0  0  0  0  0  0  0  0  0  0  0
   -0.9200   26.4220  -26.3860 C   0  0  0  0  0  0  0  0  0  0  0  0
   -1.1800   26.0640  -27.8110 C   0  0  0  0  0  0  0  0  0  0  0  0
   -2.9730   24.4760  -29.4420 N   0  0  0  0  0  0  0  0  0  0  0  0
   -3.6780   23.9150  -30.4500 C   0  0  0  0  0  0  0  0  0  0  0  0
   -4.8090   24.3580  -30.7790 N   0  0  0  0  0  0  0  0  0  0  0  0
   -5.7020   23.9100  -31.7980 C   0  0  0  0  0  0  0  0  0  0  0  0
   -7.0900   23.6730  -31.3120 C   0  0  0  0  0  0  0  0  0  0  0  0
   -7.6790   22.3700  -31.5960 C   0  0  0  0  0  0  0  0  0  0  0  0
   -7.0270   21.1830  -31.7490 C   0  0  0  0  0  0  0  0  0  0  0  0
   -7.6910   19.9870  -32.0060 C   0  0  0  0  0  0  0  0  0  0  0  0
   -9.0640   19.9570  -32.1180 C   0  0  0  0  0  0  0  0  0  0  0  0
   -9.7510   21.1550  -31.9670 C   0  0  0  0  0  0  0  0  0  0  0  0
   -9.0800   22.3180  -31.7150 C   0  0  0  0  0  0  0  0  0  0  0  0
   -0.4140   20.8900  -31.0860 H   0  0  0  0  0  0  0  0  0  0  0  0
   -1.8480   20.8090  -32.2360 H   0  0  0  0  0  0  0  0  0  0  0  0
   -0.0576   22.8725  -27.4254 H   0  0  0  0  0  0  0  0  0  0  0  0
    0.8429   24.3658  -27.1126 H   0  0  0  0  0  0  0  0  0  0  0  0
   -1.8642   23.6642  -25.7729 H   0  0  0  0  0  0  0  0  0  0  0  0
   -0.3229   23.3733  -24.9857 H   0  0  0  0  0  0  0  0  0  0  0  0
   -0.3685   25.1069  -23.2910 H   0  0  0  0  0  0  0  0  0  0  0  0
   -0.2509   27.5374  -22.7335 H   0  0  0  0  0  0  0  0  0  0  0  0
   -0.5610   29.2277  -24.5252 H   0  0  0  0  0  0  0  0  0  0  0  0
   -0.9911   28.5206  -26.8787 H   0  0  0  0  0  0  0  0  0  0  0  0
   -2.2032   26.3655  -28.0798 H   0  0  0  0  0  0  0  0  0  0  0  0
   -0.4525   26.5869  -28.4492 H   0  0  0  0  0  0  0  0  0  0  0  0
   -3.4230   25.2900  -28.9710 H   0  0  0  0  0  0  0  0  0  0  0  0
   -5.7363   24.6723  -32.5903 H   0  0  0  0  0  0  0  0  0  0  0  0
   -5.3184   22.9455  -32.1621 H   0  0  0  0  0  0  0  0  0  0  0  0
   -7.0857   23.8039  -30.2198 H   0  0  0  0  0  0  0  0  0  0  0  0
   -7.7119   24.3932  -31.8639 H   0  0  0  0  0  0  0  0  0  0  0  0
   -5.9302   21.1696  -31.6659 H   0  0  0  0  0  0  0  0  0  0  0  0
   -7.1144   19.0573  -32.1207 H   0  0  0  0  0  0  0  0  0  0  0  0
   -9.5978   19.0167  -32.3201 H   0  0  0  0  0  0  0  0  0  0  0  0
  -10.8477   21.1673  -32.0513 H   0  0  0  0  0  0  0  0  0  0  0  0
   -9.6562   23.2480  -31.6009 H   0  0  0  0  0  0  0  0  0  0  0  0
  1  2  3  0
  2  3  1  0
  3  4  2  0
  4  5  1  0
  4  6  1  0
  6  7  2  0
  7  8  1  0
  8  9  1  0
  9 10  1  0
 10 11  1  0
 11 12  2  0
 12 13  1  0
 13 14  2  0
 14 15  1  0
 15 16  2  0
 16 17  1  0
  7 18  1  0
 18 19  1  0
 19 20  2  0
 20 21  1  0
 21 22  1  0
 22 23  1  0
 23 24  2  0
 24 25  1  0
 25 26  2  0
 26 27  1  0
 27 28  2  0
 19  3  1  0
 28 23  1  0
 17  8  1  0
 16 11  1  0
  5 29  1  0
  5 30  1  0
  9 31  1  0
  9 32  1  0
 10 33  1  0
 10 34  1  0
 12 35  1  0
 13 36  1  0
 14 37  1  0
 15 38  1  0
 17 39  1  0
 17 40  1  0
 18 41  1  0
 21 42  1  0
 21 43  1  0
 22 44  1  0
 22 45  1  0
 24 46  1  0
 25 47  1  0
 26 48  1  0
 27 49  1  0
 28 50  1  0
M  END
>  <smiles>  (48) 
N#Cc1c(N)nc(N2CCc3ccccc3C2)[nH]c1=NCCc1ccccc1

>  <score_type>  (48) 
oracle

>  <origin>  (48) 
adgpu

>  <m_score__min__energy>  (48) 
-9.5099999999999998

>  <m_primary>  (48) 
energy

$$$$
48:0
     RDKit          3D

 31 32  0  0  0  0  0  0  0  0999 V2000
   -6.5520   25.6740  -29.2560 C   0  0  0  0  0  0  0  0  0  0  0  0
   -5.7950   24.4600  -29.5360 N   0  0  0  0  0  0  0  0  0  0  0  0
   -4.6380   24.4730  -30.3850 C   0  0  0  0  0  0  0  0  0  0  0  0
   -4.2150   25.5690  -30.8480 O   0  0  0  0  0  0  0  0  0  0  0  0
   -3.9430   23.2110  -30.7360 C   0  0  0  0  0  0  0  0  0  0  0  0
   -2.7360   22.8880  -30.0870 C   0  0  0  0  0  0  0  0  0  0  0  0
   -2.0790   21.6880  -30.3640 C   0  0  0  0  0  0  0  0  0  0  0  0
   -2.6140   20.7960  -31.2910 C   0  0  0  0  0  0  0  0  0  0  0  0
   -3.8080   21.1000  -31.9460 C   0  0  0  0  0  0  0  0  0  0  0  0
   -4.4900   22.2980  -31.6710 C   0  0  0  0  0  0  0  0  0  0  0  0
   -5.6770   22.6280  -32.4130 N   0  0  0  0  0  0  0  0  0  0  0  0
   -6.9400   21.9580  -32.2470 C   0  0  0  0  0  0  0  0  0  0  0  0
   -8.0490   22.6120  -31.6780 C   0  0  0  0  0  0  0  0  0  0  0  0
   -9.2710   21.9450  -31.5470 C   0  0  0  0  0  0  0  0  0  0  0  0
   -9.4020   20.6290  -31.9940 C   0  0  0  0  0  0  0  0  0  0  0  0
   -8.3130   19.9770  -32.5790 C   0  0  0  0  0  0  0  0  0  0  0  0
   -7.0880   20.6410  -32.7100 C   0  0  0  0  0  0  0  0  0  0  0  0
   -6.6370   25.8103  -28.1678 H   0  0  0  0  0  0  0  0  0  0  0  0
   -6.0330   26.5391  -29.6945 H   0  0  0  0  0  0  0  0  0  0  0  0
   -7.5572   25.5886  -29.6945 H   0  0  0  0  0  0  0  0  0  0  0  0
   -6.0930   23.5710  -29.0760 H   0  0  0  0  0  0  0  0  0  0  0  0
   -2.3068   23.5878  -29.3549 H   0  0  0  0  0  0  0  0  0  0  0  0
   -1.1373   21.4462  -29.8495 H   0  0  0  0  0  0  0  0  0  0  0  0
   -2.0944   19.8508  -31.5068 H   0  0  0  0  0  0  0  0  0  0  0  0
   -4.2193   20.3958  -32.6842 H   0  0  0  0  0  0  0  0  0  0  0  0
   -5.6060   23.3760  -33.1400 H   0  0  0  0  0  0  0  0  0  0  0  0
   -7.9539   23.6527  -31.3348 H   0  0  0  0  0  0  0  0  0  0  0  0
  -10.1305   22.4581  -31.0910 H   0  0  0  0  0  0  0  0  0  0  0  0
  -10.3630   20.1048  -31.8857 H   0  0  0  0  0  0  0  0  0  0  0  0
   -8.4187   18.9421  -32.9364 H   0  0  0  0  0  0  0  0  0  0  0  0
   -6.2356   20.1276  -33.1788 H   0  0  0  0  0  0  0  0  0  0  0  0
  1  2  1  0
  2  3  1  0
  3  4  2  0
  3  5  1  0
  5  6  2  0
  6  7  1  0
  7  8  2  0
  8  9  1  0
  9 10  2  0
 10 11  1  0
 11 12  1  0
 12 13  2  0
 13 14  1  0
 14 15  2  0
 15 16  1  0
 16 17  2  0
 10  5  1  0
 17 12  1  0
  1 18  1  0
  1 19  1  0
  1 20  1  0
  2 21  1  0
  6 22  1  0
  7 23  1  0
  8 24  1  0
  9 25  1  0
 11 26  1  0
 13 27  1  0
 14 28  1  0
 15 29  1  0
 16 30  1  0
 17 31  1  0
M  END
>  <UniqueID>  (49) 
44

>  <SMILES>  (49) 
CNC(=O)c1ccccc1Nc1ccccc1

>  <Energy>  (49) 
38.709113043764496

>  <Genealogy>  (49) 
CNC(=O)c1ccccc1Nc1ccccc1 (3D coordinates assigned)
CNC(=O)c1ccccc1Nc1ccccc1 (optimized conformer: 38.709113043764496 kcal/mol)

>  <smiles>  (49) 
CNC(=O)c1ccccc1Nc1ccccc1

>  <score_type>  (49) 
oracle

>  <origin>  (49) 
adgpu

>  <m_score__min__energy>  (49) 
-7.3799999999999999

>  <m_primary>  (49) 
energy

$$$$
