0:0
     RDKit          3D

 57 60  0  0  1  0  0  0  0  0999 V2000
   -1.0230   23.0300  -29.6960 C   0  0  0  0  0  0  0  0  0  0  0  0
   -0.6910   21.8800  -30.5320 C   0  0  0  0  0  0  0  0  0  0  0  0
   -1.5650   21.1910  -31.2050 C   0  0  0  0  0  0  0  0  0  0  0  0
   -2.9810   21.3590  -31.3030 C   0  0  0  0  0  0  0  0  0  0  0  0
   -3.6730   20.9250  -30.3220 O   0  0  0  0  0  0  0  0  0  0  0  0
   -3.7350   21.9410  -32.3350 N   0  0  0  0  0  0  0  0  0  0  0  0
   -5.1500   21.9820  -32.1820 C   0  0  0  0  0  0  0  0  0  0  0  0
   -5.9650   20.8820  -32.4990 C   0  0  0  0  0  0  0  0  0  0  0  0
   -7.3140   20.9900  -32.3280 C   0  0  0  0  0  0  0  0  0  0  0  0
   -8.1480   19.9400  -32.6240 C   0  0  0  0  0  0  0  0  0  0  0  0
   -7.6950   18.8710  -33.0430 N   0  0  0  0  0  0  0  0  0  0  0  0
   -6.4660   18.3780  -33.3260 C   0  0  0  0  0  0  0  0  0  0  0  0
   -5.9410   18.5600  -34.6300 C   0  0  0  0  0  0  0  0  0  0  0  0
   -4.6700   18.1810  -34.9350 C   0  0  0  0  0  0  0  0  0  0  0  0
   -3.8590   17.6080  -33.9820 C   0  0  0  0  0  0  0  0  0  0  0  0
   -2.2050   17.1440  -34.4840 S   0  0  0  0  0  0  0  0  0  0  0  0
   -1.1020   18.5430  -34.5530 C   0  0  0  0  0  0  0  0  0  0  0  0
   -1.6420   19.7890  -34.2230 C   0  0  0  0  0  0  0  0  0  0  0  0
   -0.8560   20.9270  -34.2500 C   0  0  0  0  0  0  0  0  0  0  0  0
    0.4760   20.8130  -34.6090 C   0  0  0  0  0  0  0  0  0  0  0  0
    1.0210   19.5910  -34.9360 C   0  0  0  0  0  0  0  0  0  0  0  0
    0.2270   18.4400  -34.9090 C   0  0  0  0  0  0  0  0  0  0  0  0
   -4.3350   17.4150  -32.7070 C   0  0  0  0  0  0  0  0  0  0  0  0
   -5.6330   17.7870  -32.3410 C   0  0  0  0  0  0  0  0  0  0  0  0
   -9.4880   20.0430  -32.4570 N   0  0  0  0  0  0  0  0  0  0  0  0
  -10.0090   21.1810  -31.9970 C   0  0  0  0  0  0  0  0  0  0  0  0
   -9.2570   22.2470  -31.6850 N   0  0  0  0  0  0  0  0  0  0  0  0
   -7.9300   22.1320  -31.8560 C   0  0  0  0  0  0  0  0  0  0  0  0
   -7.1510   23.2070  -31.5450 C   0  0  0  0  0  0  0  0  0  0  0  0
   -5.7960   23.0890  -31.7210 C   0  0  0  0  0  0  0  0  0  0  0  0
   -4.9990   24.1750  -31.4060 O   0  0  0  0  0  0  0  0  0  0  0  0
   -4.9240   24.7360  -30.1420 C   0  0  0  0  0  0  0  0  0  0  0  0
   -6.0840   25.5900  -29.7480 C   0  0  0  0  0  0  0  0  0  0  0  0
   -0.9417   22.7483  -28.6358 H   0  0  0  0  0  0  0  0  0  0  0  0
   -0.3258   23.8532  -29.9112 H   0  0  0  0  0  0  0  0  0  0  0  0
   -2.0516   23.3550  -29.9112 H   0  0  0  0  0  0  0  0  0  0  0  0
    0.3646   21.5773  -30.5967 H   0  0  0  0  0  0  0  0  0  0  0  0
   -1.1524   20.3531  -31.7861 H   0  0  0  0  0  0  0  0  0  0  0  0
   -3.3360   22.3340  -33.1830 H   0  0  0  0  0  0  0  0  0  0  0  0
   -5.5225   19.9493  -32.8788 H   0  0  0  0  0  0  0  0  0  0  0  0
   -6.5713   19.0151  -35.4082 H   0  0  0  0  0  0  0  0  0  0  0  0
   -4.2866   18.3343  -35.9546 H   0  0  0  0  0  0  0  0  0  0  0  0
   -2.7020   19.8655  -33.9391 H   0  0  0  0  0  0  0  0  0  0  0  0
   -1.2827   21.9070  -33.9903 H   0  0  0  0  0  0  0  0  0  0  0  0
    1.1091   21.7122  -34.6335 H   0  0  0  0  0  0  0  0  0  0  0  0
    2.0817   19.5203  -35.2186 H   0  0  0  0  0  0  0  0  0  0  0  0
    0.6580   17.4619  -35.1691 H   0  0  0  0  0  0  0  0  0  0  0  0
   -3.6776   16.9557  -31.9541 H   0  0  0  0  0  0  0  0  0  0  0  0
   -5.9984   17.6255  -31.3161 H   0  0  0  0  0  0  0  0  0  0  0  0
  -11.0994   21.2483  -31.8682 H   0  0  0  0  0  0  0  0  0  0  0  0
   -9.7360   23.0940  -31.3340 H   0  0  0  0  0  0  0  0  0  0  0  0
   -7.5951   24.1389  -31.1651 H   0  0  0  0  0  0  0  0  0  0  0  0
   -4.8426   23.9171  -29.4120 H   0  0  0  0  0  0  0  0  0  0  0  0
   -4.0497   25.4033  -30.1590 H   0  0  0  0  0  0  0  0  0  0  0  0
   -6.1485   25.6375  -28.6509 H   0  0  0  0  0  0  0  0  0  0  0  0
   -5.9465   26.6041  -30.1514 H   0  0  0  0  0  0  0  0  0  0  0  0
   -7.0115   25.1575  -30.1514 H   0  0  0  0  0  0  0  0  0  0  0  0
  1  2  1  0
  2  3  2  0
  3  4  1  0
  4  5  2  0
  4  6  1  0
  6  7  1  0
  7  8  2  0
  8  9  1  0
  9 10  1  0
 10 11  2  0
 11 12  1  0
 12 13  2  0
 13 14  1  0
 14 15  2  0
 15 16  1  0
 16 17  1  0
 17 18  2  0
 18 19  1  0
 19 20  2  0
 20 21  1  0
 21 22  2  0
 15 23  1  0
 23 24  2  0
 10 25  1  0
 25 26  2  0
 26 27  1  0
 27 28  1  0
 28 29  1  0
 29 30  2  0
 30 31  1  0
 31 32  1  0
 32 33  1  0
 30  7  1  0
 28  9  2  0
 24 12  1  0
 22 17  1  0
  1 34  1  0
  1 35  1  0
  1 36  1  0
  2 37  1  0
  3 38  1  0
  6 39  1  0
  8 40  1  0
 13 41  1  0
 14 42  1  0
 18 43  1  0
 19 44  1  0
 20 45  1  0
 21 46  1  0
 22 47  1  0
 23 48  1  0
 24 49  1  0
 26 50  1  0
 27 51  1  0
 29 52  1  0
 32 53  1  0
 32 54  1  0
 33 55  1  0
 33 56  1  0
 33 57  1  0
M  END
>  <smiles>  (1) 
CC=CC(=O)Nc1cc2c(=Nc3ccc(Sc4ccccc4)cc3)nc[nH]c2cc1OCC

>  <score_type>  (1) 
oracle

>  <origin>  (1) 
adgpu

>  <m_score__min__energy>  (1) 
-9.4800000000000004

>  <m_primary>  (1) 
energy

$$$$
1:0
     RDKit          3D

 50 52  0  0  0  0  0  0  0  0999 V2000
   -9.0970   19.2790  -31.1860 C   0  0  0  0  0  0  0  0  0  0  0  0
   -7.7260   19.2600  -31.8110 C   0  0  0  0  0  0  0  0  0  0  0  0
   -7.2290   18.0230  -32.2520 C   0  0  0  0  0  0  0  0  0  0  0  0
   -5.9680   17.9250  -32.8290 C   0  0  0  0  0  0  0  0  0  0  0  0
   -5.1690   19.0560  -32.9770 C   0  0  0  0  0  0  0  0  0  0  0  0
   -3.9040   18.9100  -33.6330 N   0  0  0  0  0  0  0  0  0  0  0  0
   -2.7560   19.7220  -33.3530 C   0  0  0  0  0  0  0  0  0  0  0  0
   -2.3630   20.5740  -34.1930 O   0  0  0  0  0  0  0  0  0  0  0  0
   -2.0620   19.6020  -32.1070 N   0  0  0  0  0  0  0  0  0  0  0  0
   -1.8020   20.6620  -31.1760 C   0  0  0  0  0  0  0  0  0  0  0  0
   -1.2020   20.4250  -29.9260 C   0  0  0  0  0  0  0  0  0  0  0  0
   -0.9450   21.4880  -29.0560 C   0  0  0  0  0  0  0  0  0  0  0  0
   -1.2720   22.8000  -29.4260 C   0  0  0  0  0  0  0  0  0  0  0  0
   -0.9310   24.1380  -28.3360 S   0  0  0  0  0  0  0  0  0  0  0  0
   -1.6300   25.5880  -28.9650 N   0  0  0  0  0  0  0  0  0  0  0  0
    0.5550   24.3170  -28.2000 O   0  0  0  0  0  0  0  0  0  0  0  0
   -1.5080   23.8510  -26.9770 O   0  0  0  0  0  0  0  0  0  0  0  0
   -1.8390   23.0410  -30.6850 C   0  0  0  0  0  0  0  0  0  0  0  0
   -2.0950   21.9780  -31.5560 C   0  0  0  0  0  0  0  0  0  0  0  0
   -5.6100   20.2970  -32.4710 C   0  0  0  0  0  0  0  0  0  0  0  0
   -4.7630   21.4090  -32.4860 O   0  0  0  0  0  0  0  0  0  0  0  0
   -6.9060   20.4200  -31.9140 C   0  0  0  0  0  0  0  0  0  0  0  0
   -7.4510   22.0310  -31.3600 S   0  0  0  0  0  0  0  0  0  0  0  0
   -8.3530   22.6770  -32.3750 O   0  0  0  0  0  0  0  0  0  0  0  0
   -8.2600   21.8710  -30.1020 O   0  0  0  0  0  0  0  0  0  0  0  0
   -6.1080   23.1040  -31.0380 N   0  0  0  0  0  0  0  0  0  0  0  0
   -5.4830   22.7870  -29.7430 C   0  0  0  0  0  0  0  0  0  0  0  0
   -4.4440   23.8630  -29.3620 C   0  0  0  0  0  0  0  0  0  0  0  0
   -4.1570   24.7060  -30.4620 O   0  0  0  0  0  0  0  0  0  0  0  0
   -5.3200   25.4300  -30.8280 C   0  0  0  0  0  0  0  0  0  0  0  0
   -6.5370   24.5090  -31.0590 C   0  0  0  0  0  0  0  0  0  0  0  0
   -9.0005   19.2777  -30.0902 H   0  0  0  0  0  0  0  0  0  0  0  0
   -9.6332   20.1847  -31.5058 H   0  0  0  0  0  0  0  0  0  0  0  0
   -9.6581   18.3885  -31.5058 H   0  0  0  0  0  0  0  0  0  0  0  0
   -7.8458   17.1192  -32.1394 H   0  0  0  0  0  0  0  0  0  0  0  0
   -5.5986   16.9470  -33.1711 H   0  0  0  0  0  0  0  0  0  0  0  0
   -0.9342   19.3993  -29.6323 H   0  0  0  0  0  0  0  0  0  0  0  0
   -0.4839   21.2943  -28.0762 H   0  0  0  0  0  0  0  0  0  0  0  0
   -2.2170   25.3130  -29.7840 H   0  0  0  0  0  0  0  0  0  0  0  0
   -2.0833   24.0697  -30.9886 H   0  0  0  0  0  0  0  0  0  0  0  0
   -2.5296   22.1764  -32.5468 H   0  0  0  0  0  0  0  0  0  0  0  0
   -3.7940   21.3610  -32.7720 H   0  0  0  0  0  0  0  0  0  0  0  0
   -6.2613   22.7454  -28.9668 H   0  0  0  0  0  0  0  0  0  0  0  0
   -4.9733   21.8156  -29.8241 H   0  0  0  0  0  0  0  0  0  0  0  0
   -4.8431   24.4718  -28.5373 H   0  0  0  0  0  0  0  0  0  0  0  0
   -3.5152   23.3592  -29.0562 H   0  0  0  0  0  0  0  0  0  0  0  0
   -5.5619   26.1402  -30.0236 H   0  0  0  0  0  0  0  0  0  0  0  0
   -5.1080   25.9499  -31.7739 H   0  0  0  0  0  0  0  0  0  0  0  0
   -7.2782   24.6766  -30.2636 H   0  0  0  0  0  0  0  0  0  0  0  0
   -6.9854   24.7376  -32.0371 H   0  0  0  0  0  0  0  0  0  0  0  0
  1  2  1  0
  2  3  2  0
  3  4  1  0
  4  5  2  0
  5  6  1  0
  6  7  1  0
  7  8  2  0
  7  9  1  0
  9 10  1  0
 10 11  2  0
 11 12  1  0
 12 13  2  0
 13 14  1  0
 14 15  1  0
 14 16  2  0
 14 17  2  0
 13 18  1  0
 18 19  2  0
  5 20  1  0
 20 21  1  0
 20 22  2  0
 22 23  1  0
 23 24  2  0
 23 25  2  0
 23 26  1  0
 26 27  1  0
 27 28  1  0
 28 29  1  0
 29 30  1  0
 30 31  1  0
 22  2  1  0
 31 26  1  0
 19 10  1  0
  1 32  1  0
  1 33  1  0
  1 34  1  0
  3 35  1  0
  4 36  1  0
 11 37  1  0
 12 38  1  0
 15 39  1  0
 18 40  1  0
 19 41  1  0
 21 42  1  0
 27 43  1  0
 27 44  1  0
 28 45  1  0
 28 46  1  0
 30 47  1  0
 30 48  1  0
 31 49  1  0
 31 50  1  0
M  CHG  3   6  -1   9  -1  15  -1
M  END
>  <UniqueID>  (2) 
1

>  <SMILES>  (2) 
Cc1ccc([N-]C(=O)[N-]c2ccc(S([NH-])(=O)=O)cc2)c(O)c1S(=O)(=O)N1CCOCC1

>  <Energy>  (2) 
73.18545918130228

>  <Genealogy>  (2) 
Cc1ccc([N-]C(=O)[N-]c2ccc(S([NH-])(=O)=O)cc2)c(O)c1S(=O)(=O)N1CCOCC1 (protonated)
Cc1ccc([N-]C(=O)[N-]c2ccc(S([NH-])(=O)=O)cc2)c(O)c1S(=O)(=O)N1CCOCC1 (3D coordinates assigned)
Cc1ccc([N-]C(=O)[N-]c2ccc(S([NH-])(=O)=O)cc2)c(O)c1S(=O)(=O)N1CCOCC1 (nonaromatic ring conformer: 73.18545918130228 kcal/mol)

>  <smiles>  (2) 
Cc1ccc(NC(=O)Nc2ccc(S(N)(=O)=O)cc2)c(O)c1S(=O)(=O)N1CCOCC1

>  <score_type>  (2) 
oracle

>  <origin>  (2) 
adgpu

>  <m_score__min__energy>  (2) 
-13.050000000000001

>  <m_primary>  (2) 
energy

$$$$
2:0
     RDKit          3D

 54 57  0  0  0  0  0  0  0  0999 V2000
   -0.9230   18.9490  -27.8340 C   0  0  0  0  0  0  0  0  0  0  0  0
   -1.3570   19.2770  -26.4070 C   0  0  0  0  0  0  0  0  0  0  0  0
   -2.8250   18.8900  -26.1990 C   0  0  0  0  0  0  0  0  0  0  0  0
   -1.1750   20.6770  -26.1850 O   0  0  0  0  0  0  0  0  0  0  0  0
   -1.6210   21.7100  -27.0270 C   0  0  0  0  0  0  0  0  0  0  0  0
   -0.7130   22.7250  -27.3570 C   0  0  0  0  0  0  0  0  0  0  0  0
   -1.0910   23.7780  -28.1930 C   0  0  0  0  0  0  0  0  0  0  0  0
   -2.3880   23.8300  -28.7100 C   0  0  0  0  0  0  0  0  0  0  0  0
   -2.7530   24.8470  -29.5340 N   0  0  0  0  0  0  0  0  0  0  0  0
   -4.0050   24.9380  -30.0590 C   0  0  0  0  0  0  0  0  0  0  0  0
   -4.2720   25.8810  -30.8490 O   0  0  0  0  0  0  0  0  0  0  0  0
   -4.9750   23.9670  -29.7400 C   0  0  0  0  0  0  0  0  0  0  0  0
   -6.3470   24.0310  -30.2930 C   0  0  0  0  0  0  0  0  0  0  0  0
   -6.9640   25.1300  -30.2670 O   0  0  0  0  0  0  0  0  0  0  0  0
   -6.9860   22.8720  -30.8630 N   0  0  0  0  0  0  0  0  0  0  0  0
   -8.3250   22.9920  -31.4620 C   0  0  0  0  0  0  0  0  0  0  0  0
   -9.1490   21.7350  -31.1960 C   0  0  0  0  0  0  0  0  0  0  0  0
   -8.4000   20.5270  -31.6760 C   0  0  0  0  0  0  0  0  0  0  0  0
   -9.0830   19.4430  -32.2430 C   0  0  0  0  0  0  0  0  0  0  0  0
   -8.3810   18.3150  -32.6700 C   0  0  0  0  0  0  0  0  0  0  0  0
   -6.9920   18.2430  -32.5250 C   0  0  0  0  0  0  0  0  0  0  0  0
   -6.3410   17.0850  -32.9730 O   0  0  0  0  0  0  0  0  0  0  0  0
   -5.0850   17.0590  -34.1360 S   0  0  0  0  0  0  0  0  0  0  0  0
   -5.4760   18.1510  -35.4170 N   0  0  0  0  0  0  0  0  0  0  0  0
   -4.9390   15.6720  -34.6940 O   0  0  0  0  0  0  0  0  0  0  0  0
   -3.7920   17.4860  -33.4990 O   0  0  0  0  0  0  0  0  0  0  0  0
   -6.3060   19.3240  -31.9380 C   0  0  0  0  0  0  0  0  0  0  0  0
   -7.0030   20.4690  -31.5220 C   0  0  0  0  0  0  0  0  0  0  0  0
   -6.2530   21.5940  -30.8470 C   0  0  0  0  0  0  0  0  0  0  0  0
   -4.6120   22.8960  -28.9090 C   0  0  0  0  0  0  0  0  0  0  0  0
   -3.3170   22.8220  -28.3830 C   0  0  0  0  0  0  0  0  0  0  0  0
   -2.9330   21.7660  -27.5410 C   0  0  0  0  0  0  0  0  0  0  0  0
   -0.0457   18.2860  -27.8072 H   0  0  0  0  0  0  0  0  0  0  0  0
   -1.7469   18.4459  -28.3613 H   0  0  0  0  0  0  0  0  0  0  0  0
   -0.6638   19.8789  -28.3613 H   0  0  0  0  0  0  0  0  0  0  0  0
   -0.7482   18.7063  -25.6903 H   0  0  0  0  0  0  0  0  0  0  0  0
   -3.0401   18.8333  -25.1217 H   0  0  0  0  0  0  0  0  0  0  0  0
   -3.4733   19.6479  -26.6630 H   0  0  0  0  0  0  0  0  0  0  0  0
   -3.0154   17.9110  -26.6630 H   0  0  0  0  0  0  0  0  0  0  0  0
    0.3095   22.6920  -26.9528 H   0  0  0  0  0  0  0  0  0  0  0  0
   -0.3670   24.5670  -28.4446 H   0  0  0  0  0  0  0  0  0  0  0  0
   -8.8397   23.8604  -31.0250 H   0  0  0  0  0  0  0  0  0  0  0  0
   -8.2162   23.1204  -32.5491 H   0  0  0  0  0  0  0  0  0  0  0  0
   -9.3371   21.6431  -30.1161 H   0  0  0  0  0  0  0  0  0  0  0  0
  -10.1061   21.8069  -31.7335 H   0  0  0  0  0  0  0  0  0  0  0  0
  -10.1769   19.4812  -32.3520 H   0  0  0  0  0  0  0  0  0  0  0  0
   -8.9255   17.4745  -33.1250 H   0  0  0  0  0  0  0  0  0  0  0  0
   -5.3700   17.6200  -36.3100 H   0  0  0  0  0  0  0  0  0  0  0  0
   -6.4910   18.3780  -35.3220 H   0  0  0  0  0  0  0  0  0  0  0  0
   -5.2154   19.2705  -31.8045 H   0  0  0  0  0  0  0  0  0  0  0  0
   -6.0662   21.3112  -29.8005 H   0  0  0  0  0  0  0  0  0  0  0  0
   -5.3185   21.7461  -31.4070 H   0  0  0  0  0  0  0  0  0  0  0  0
   -5.3468   22.1129  -28.6705 H   0  0  0  0  0  0  0  0  0  0  0  0
   -3.6577   20.9801  -27.2816 H   0  0  0  0  0  0  0  0  0  0  0  0
  1  2  1  0
  2  3  1  0
  2  4  1  0
  4  5  1  0
  5  6  2  0
  6  7  1  0
  7  8  2  0
  8  9  1  0
  9 10  1  0
 10 11  2  0
 10 12  1  0
 12 13  1  0
 13 14  2  0
 13 15  1  0
 15 16  1  0
 16 17  1  0
 17 18  1  0
 18 19  2  0
 19 20  1  0
 20 21  2  0
 21 22  1  0
 22 23  1  0
 23 24  1  0
 23 25  2  0
 23 26  2  0
 21 27  1  0
 27 28  2  0
 28 29  1  0
 12 30  2  0
 30 31  1  0
 31 32  2  0
 32  5  1  0
 31  8  1  0
 29 15  1  0
 28 18  1  0
  1 33  1  0
  1 34  1  0
  1 35  1  0
  2 36  1  0
  3 37  1  0
  3 38  1  0
  3 39  1  0
  6 40  1  0
  7 41  1  0
 16 42  1  0
 16 43  1  0
 17 44  1  0
 17 45  1  0
 19 46  1  0
 20 47  1  0
 24 48  1  0
 24 49  1  0
 27 50  1  0
 29 51  1  0
 29 52  1  0
 30 53  1  0
 32 54  1  0
M  CHG  1   9  -1
M  END
>  <UniqueID>  (3) 
2

>  <SMILES>  (3) 
CC(C)Oc1ccc2[n-]c(=O)c(C(=O)N3CCc4ccc(OS(N)(=O)=O)cc4C3)cc2c1

>  <Energy>  (3) 
62.374528911599356

>  <Genealogy>  (3) 
CC(C)Oc1ccc2[n-]c(=O)c(C(=O)N3CCc4ccc(OS(N)(=O)=O)cc4C3)cc2c1 (protonated)
CC(C)Oc1ccc2[n-]c(=O)c(C(=O)N3CCc4ccc(OS(N)(=O)=O)cc4C3)cc2c1 (3D coordinates assigned)
CC(C)Oc1ccc2[n-]c(=O)c(C(=O)N3CCc4ccc(OS(N)(=O)=O)cc4C3)cc2c1 (nonaromatic ring conformer: 62.374528911599356 kcal/mol)

>  <smiles>  (3) 
CC(C)Oc1ccc2[nH]c(=O)c(C(=O)N3CCc4ccc(OS(N)(=O)=O)cc4C3)cc2c1

>  <score_type>  (3) 
oracle

>  <origin>  (3) 
adgpu

>  <m_score__min__energy>  (3) 
-11.779999999999999

>  <m_primary>  (3) 
energy

$$$$
3:0
     RDKit          3D

 41 43  0  0  0  0  0  0  0  0999 V2000
   -1.4640   22.4880  -29.5990 O   0  0  0  0  0  0  0  0  0  0  0  0
   -2.3720   23.3570  -29.4970 C   0  0  0  0  0  0  0  0  0  0  0  0
   -2.2490   24.4310  -28.5460 N   0  0  0  0  0  0  0  0  0  0  0  0
   -1.1390   24.5830  -27.6450 C   0  0  0  0  0  0  0  0  0  0  0  0
   -1.3790   24.9900  -26.3240 C   0  0  0  0  0  0  0  0  0  0  0  0
   -0.3200   25.1230  -25.4200 C   0  0  0  0  0  0  0  0  0  0  0  0
    0.9870   24.8340  -25.8240 C   0  0  0  0  0  0  0  0  0  0  0  0
    2.4310   25.0120  -24.5880 Br  0  0  0  0  0  0  0  0  0  0  0  0
    1.2320   24.4030  -27.1310 C   0  0  0  0  0  0  0  0  0  0  0  0
    0.1760   24.2710  -28.0370 C   0  0  0  0  0  0  0  0  0  0  0  0
   -3.5650   23.2500  -30.3660 C   0  0  0  0  0  0  0  0  0  0  0  0
   -3.9780   21.9810  -30.8080 C   0  0  0  0  0  0  0  0  0  0  0  0
   -5.1090   21.8430  -31.6230 C   0  0  0  0  0  0  0  0  0  0  0  0
   -5.6040   20.2460  -32.1760 S   0  0  0  0  0  0  0  0  0  0  0  0
   -5.4970   20.1890  -33.6740 O   0  0  0  0  0  0  0  0  0  0  0  0
   -4.6930   19.2000  -31.5920 O   0  0  0  0  0  0  0  0  0  0  0  0
   -7.2570   19.9580  -31.6980 N   0  0  0  0  0  0  0  0  0  0  0  0
   -7.5440   18.5260  -31.6170 C   0  0  0  0  0  0  0  0  0  0  0  0
   -9.0340   18.3670  -31.8750 C   0  0  0  0  0  0  0  0  0  0  0  0
   -9.4600   19.6480  -32.5750 C   0  0  0  0  0  0  0  0  0  0  0  0
   -8.1970   20.4880  -32.6850 C   0  0  0  0  0  0  0  0  0  0  0  0
   -5.8210   22.9820  -32.0200 C   0  0  0  0  0  0  0  0  0  0  0  0
   -5.4060   24.2480  -31.6020 C   0  0  0  0  0  0  0  0  0  0  0  0
   -4.2780   24.3910  -30.7870 C   0  0  0  0  0  0  0  0  0  0  0  0
   -3.8600   25.6690  -30.4330 O   0  0  0  0  0  0  0  0  0  0  0  0
   -2.9790   25.1760  -28.5350 H   0  0  0  0  0  0  0  0  0  0  0  0
   -2.4068   25.2059  -25.9970 H   0  0  0  0  0  0  0  0  0  0  0  0
   -0.5157   25.4554  -24.3898 H   0  0  0  0  0  0  0  0  0  0  0  0
    2.2588   24.1671  -27.4473 H   0  0  0  0  0  0  0  0  0  0  0  0
    0.3737   23.9216  -29.0611 H   0  0  0  0  0  0  0  0  0  0  0  0
   -3.4079   21.0883  -30.5112 H   0  0  0  0  0  0  0  0  0  0  0  0
   -6.9666   17.9795  -32.3772 H   0  0  0  0  0  0  0  0  0  0  0  0
   -7.2660   18.1205  -30.6330 H   0  0  0  0  0  0  0  0  0  0  0  0
   -9.2225   17.4953  -32.5189 H   0  0  0  0  0  0  0  0  0  0  0  0
   -9.5958   18.2027  -30.9437 H   0  0  0  0  0  0  0  0  0  0  0  0
   -9.8620   19.4250  -33.5743 H   0  0  0  0  0  0  0  0  0  0  0  0
  -10.2528   20.1723  -32.0213 H   0  0  0  0  0  0  0  0  0  0  0  0
   -7.7726   20.4050  -33.6964 H   0  0  0  0  0  0  0  0  0  0  0  0
   -8.4097   21.5513  -32.5000 H   0  0  0  0  0  0  0  0  0  0  0  0
   -6.7083   22.8790  -32.6619 H   0  0  0  0  0  0  0  0  0  0  0  0
   -5.9698   25.1389  -31.9157 H   0  0  0  0  0  0  0  0  0  0  0  0
  1  2  2  0
  2  3  1  0
  3  4  1  0
  4  5  2  0
  5  6  1  0
  6  7  2  0
  7  8  1  0
  7  9  1  0
  9 10  2  0
  2 11  1  0
 11 12  2  0
 12 13  1  0
 13 14  1  0
 14 15  2  0
 14 16  2  0
 14 17  1  0
 17 18  1  0
 18 19  1  0
 19 20  1  0
 20 21  1  0
 13 22  2  0
 22 23  1  0
 23 24  2  0
 24 25  1  0
 10  4  1  0
 24 11  1  0
 21 17  1  0
  3 26  1  0
  5 27  1  0
  6 28  1  0
  9 29  1  0
 10 30  1  0
 12 31  1  0
 18 32  1  0
 18 33  1  0
 19 34  1  0
 19 35  1  0
 20 36  1  0
 20 37  1  0
 21 38  1  0
 21 39  1  0
 22 40  1  0
 23 41  1  0
M  CHG  1  25  -1
M  END
>  <UniqueID>  (4) 
3

>  <SMILES>  (4) 
O=C(Nc1ccc(Br)cc1)c1cc(S(=O)(=O)N2CCCC2)ccc1[O-]

>  <Energy>  (4) 
51.72863404123803

>  <Genealogy>  (4) 
O=C(Nc1ccc(Br)cc1)c1cc(S(=O)(=O)N2CCCC2)ccc1[O-] (protonated)
O=C(Nc1ccc(Br)cc1)c1cc(S(=O)(=O)N2CCCC2)ccc1[O-] (3D coordinates assigned)
O=C(Nc1ccc(Br)cc1)c1cc(S(=O)(=O)N2CCCC2)ccc1[O-] (nonaromatic ring conformer: 51.72863404123803 kcal/mol)

>  <smiles>  (4) 
O=C(Nc1ccc(Br)cc1)c1cc(S(=O)(=O)N2CCCC2)ccc1O

>  <score_type>  (4) 
oracle

>  <origin>  (4) 
adgpu

>  <m_score__min__energy>  (4) 
-12.01

>  <m_primary>  (4) 
energy

$$$$
4:0
     RDKit          3D

 34 36  0  0  0  0  0  0  0  0999 V2000
   -3.7580   25.1910  -29.9850 O   0  0  0  0  0  0  0  0  0  0  0  0
   -3.3430   24.0430  -29.6710 C   0  0  0  0  0  0  0  0  0  0  0  0
   -3.9100   22.8560  -30.3590 C   0  0  0  0  0  0  0  0  0  0  0  0
   -5.3030   22.6920  -30.4480 C   0  0  0  0  0  0  0  0  0  0  0  0
   -5.8470   21.5860  -31.1050 C   0  0  0  0  0  0  0  0  0  0  0  0
   -5.0110   20.6220  -31.6940 C   0  0  0  0  0  0  0  0  0  0  0  0
   -5.5890   19.4440  -32.3910 C   0  0  0  0  0  0  0  0  0  0  0  0
   -6.9800   19.2330  -32.4060 C   0  0  0  0  0  0  0  0  0  0  0  0
   -7.5210   18.1240  -33.0620 C   0  0  0  0  0  0  0  0  0  0  0  0
   -6.6850   17.2130  -33.7110 C   0  0  0  0  0  0  0  0  0  0  0  0
   -7.2360   16.1140  -34.3600 O   0  0  0  0  0  0  0  0  0  0  0  0
   -5.2980   17.4110  -33.7050 C   0  0  0  0  0  0  0  0  0  0  0  0
   -4.2300   16.2730  -34.5100 Cl  0  0  0  0  0  0  0  0  0  0  0  0
   -4.7530   18.5210  -33.0480 C   0  0  0  0  0  0  0  0  0  0  0  0
   -3.6180   20.7930  -31.6170 C   0  0  0  0  0  0  0  0  0  0  0  0
   -3.0730   21.9000  -30.9610 C   0  0  0  0  0  0  0  0  0  0  0  0
   -2.2860   23.9290  -28.6390 C   0  0  0  0  0  0  0  0  0  0  0  0
   -2.2540   22.7940  -27.8100 C   0  0  0  0  0  0  0  0  0  0  0  0
   -1.2660   22.6620  -26.8290 C   0  0  0  0  0  0  0  0  0  0  0  0
   -1.2470   21.2490  -25.7890 Cl  0  0  0  0  0  0  0  0  0  0  0  0
   -0.2960   23.6550  -26.6750 C   0  0  0  0  0  0  0  0  0  0  0  0
   -0.3060   24.7770  -27.5070 C   0  0  0  0  0  0  0  0  0  0  0  0
   -1.2870   24.9150  -28.4940 C   0  0  0  0  0  0  0  0  0  0  0  0
   -1.2480   26.0210  -29.3360 O   0  0  0  0  0  0  0  0  0  0  0  0
   -5.9703   23.4409  -29.9965 H   0  0  0  0  0  0  0  0  0  0  0  0
   -6.9392   21.4685  -31.1619 H   0  0  0  0  0  0  0  0  0  0  0  0
   -7.6462   19.9458  -31.8979 H   0  0  0  0  0  0  0  0  0  0  0  0
   -8.6099   17.9680  -33.0672 H   0  0  0  0  0  0  0  0  0  0  0  0
   -3.6636   18.6730  -33.0451 H   0  0  0  0  0  0  0  0  0  0  0  0
   -2.9511   20.0490  -32.0771 H   0  0  0  0  0  0  0  0  0  0  0  0
   -1.9810   22.0244  -30.9153 H   0  0  0  0  0  0  0  0  0  0  0  0
   -3.0105   22.0051  -27.9337 H   0  0  0  0  0  0  0  0  0  0  0  0
    0.4762   23.5535  -25.8982 H   0  0  0  0  0  0  0  0  0  0  0  0
    0.4614   25.5557  -27.3852 H   0  0  0  0  0  0  0  0  0  0  0  0
  1  2  2  0
  2  3  1  0
  3  4  2  0
  4  5  1  0
  5  6  2  0
  6  7  1  0
  7  8  2  0
  8  9  1  0
  9 10  2  0
 10 11  1  0
 10 12  1  0
 12 13  1  0
 12 14  2  0
  6 15  1  0
 15 16  2  0
  2 17  1  0
 17 18  2  0
 18 19  1  0
 19 20  1  0
 19 21  2  0
 21 22  1  0
 22 23  2  0
 23 24  1  0
 16  3  1  0
 23 17  1  0
 14  7  1  0
  4 25  1  0
  5 26  1  0
  8 27  1  0
  9 28  1  0
 14 29  1  0
 15 30  1  0
 16 31  1  0
 18 32  1  0
 21 33  1  0
 22 34  1  0
M  CHG  2  11  -1  24  -1
M  END
>  <UniqueID>  (5) 
4

>  <SMILES>  (5) 
O=C(c1ccc(-c2ccc([O-])c(Cl)c2)cc1)c1cc(Cl)ccc1[O-]

>  <Energy>  (5) 
50.55466825469795

>  <Genealogy>  (5) 
O=C(c1ccc(-c2ccc([O-])c(Cl)c2)cc1)c1cc(Cl)ccc1[O-] (protonated)
O=C(c1ccc(-c2ccc([O-])c(Cl)c2)cc1)c1cc(Cl)ccc1[O-] (3D coordinates assigned)
O=C(c1ccc(-c2ccc([O-])c(Cl)c2)cc1)c1cc(Cl)ccc1[O-] (optimized conformer: 50.55466825469795 kcal/mol)

>  <smiles>  (5) 
O=C(c1ccc(-c2ccc(O)c(Cl)c2)cc1)c1cc(Cl)ccc1O

>  <score_type>  (5) 
oracle

>  <origin>  (5) 
adgpu

>  <m_score__min__energy>  (5) 
-11.59

>  <m_primary>  (5) 
energy

$$$$
5:0
     RDKit          3D

 28 29  0  0  0  0  0  0  0  0999 V2000
   -3.5170   25.2830  -30.4470 O   0  0  0  0  0  0  0  0  0  0  0  0
   -4.5630   24.3740  -30.5570 C   0  0  0  0  0  0  0  0  0  0  0  0
   -4.3200   23.1040  -31.0900 C   0  0  0  0  0  0  0  0  0  0  0  0
   -5.3620   22.1800  -31.2100 C   0  0  0  0  0  0  0  0  0  0  0  0
   -6.6620   22.5220  -30.8050 C   0  0  0  0  0  0  0  0  0  0  0  0
   -7.7870   21.5290  -30.9240 C   0  0  0  0  0  0  0  0  0  0  0  0
   -7.8990   21.0350  -32.2980 N   0  0  0  0  0  0  0  0  0  0  0  0
   -7.3610   19.7810  -32.7600 C   0  0  0  0  0  0  0  0  0  0  0  0
   -7.7870   18.5460  -32.2310 C   0  0  0  0  0  0  0  0  0  0  0  0
   -7.2380   17.3490  -32.7030 C   0  0  0  0  0  0  0  0  0  0  0  0
   -6.2660   17.3690  -33.7050 C   0  0  0  0  0  0  0  0  0  0  0  0
   -5.8420   18.5860  -34.2420 C   0  0  0  0  0  0  0  0  0  0  0  0
   -6.3870   19.7860  -33.7740 C   0  0  0  0  0  0  0  0  0  0  0  0
   -6.8990   23.7950  -30.2590 C   0  0  0  0  0  0  0  0  0  0  0  0
   -5.8580   24.7230  -30.1380 C   0  0  0  0  0  0  0  0  0  0  0  0
   -6.1280   25.9790  -29.5990 O   0  0  0  0  0  0  0  0  0  0  0  0
   -3.3054   22.8313  -31.4159 H   0  0  0  0  0  0  0  0  0  0  0  0
   -5.1625   21.1804  -31.6236 H   0  0  0  0  0  0  0  0  0  0  0  0
   -7.5930   20.6813  -30.2503 H   0  0  0  0  0  0  0  0  0  0  0  0
   -8.7286   22.0272  -30.6497 H   0  0  0  0  0  0  0  0  0  0  0  0
   -8.3670   21.6620  -32.9920 H   0  0  0  0  0  0  0  0  0  0  0  0
   -8.5546   18.5233  -31.4434 H   0  0  0  0  0  0  0  0  0  0  0  0
   -7.5732   16.3890  -32.2834 H   0  0  0  0  0  0  0  0  0  0  0  0
   -5.8342   16.4259  -34.0714 H   0  0  0  0  0  0  0  0  0  0  0  0
   -5.0786   18.6011  -35.0339 H   0  0  0  0  0  0  0  0  0  0  0  0
   -6.0509   20.7416  -34.2028 H   0  0  0  0  0  0  0  0  0  0  0  0
   -7.9114   24.0646  -29.9238 H   0  0  0  0  0  0  0  0  0  0  0  0
   -5.4270   26.5110  -29.0970 H   0  0  0  0  0  0  0  0  0  0  0  0
  1  2  1  0
  2  3  2  0
  3  4  1  0
  4  5  2  0
  5  6  1  0
  6  7  1  0
  7  8  1  0
  8  9  2  0
  9 10  1  0
 10 11  2  0
 11 12  1  0
 12 13  2  0
  5 14  1  0
 14 15  2  0
 15 16  1  0
 15  2  1  0
 13  8  1  0
  3 17  1  0
  4 18  1  0
  6 19  1  0
  6 20  1  0
  7 21  1  0
  9 22  1  0
 10 23  1  0
 11 24  1  0
 12 25  1  0
 13 26  1  0
 14 27  1  0
 16 28  1  0
M  CHG  1   1  -1
M  END
>  <UniqueID>  (6) 
5

>  <SMILES>  (6) 
[O-]c1ccc(CNc2ccccc2)cc1O

>  <Energy>  (6) 
28.05827758568288

>  <Genealogy>  (6) 
[O-]c1ccc(CNc2ccccc2)cc1O (protonated)
[O-]c1ccc(CNc2ccccc2)cc1O (3D coordinates assigned)
[O-]c1ccc(CNc2ccccc2)cc1O (optimized conformer: 28.05827758568288 kcal/mol)

>  <smiles>  (6) 
Oc1ccc(CNc2ccccc2)cc1O

>  <score_type>  (6) 
oracle

>  <origin>  (6) 
adgpu

>  <m_score__min__energy>  (6) 
-9.7300000000000004

>  <m_primary>  (6) 
energy

$$$$
6:0
     RDKit          3D

 64 69  0  0  0  0  0  0  0  0999 V2000
   -0.4080   21.5240  -33.1140 O   0  0  0  0  0  0  0  0  0  0  0  0
   -0.3260   21.3430  -34.3580 C   0  0  0  0  0  0  0  0  0  0  0  0
   -1.1240   20.3290  -34.9860 N   0  0  0  0  0  0  0  0  0  0  0  0
   -2.2340   19.7070  -34.3240 C   0  0  0  0  0  0  0  0  0  0  0  0
   -3.0500   20.4700  -33.4770 C   0  0  0  0  0  0  0  0  0  0  0  0
   -4.1530   19.8860  -32.8480 C   0  0  0  0  0  0  0  0  0  0  0  0
   -4.4320   18.5250  -33.0320 C   0  0  0  0  0  0  0  0  0  0  0  0
   -5.8620   17.8200  -32.2840 S   0  0  0  0  0  0  0  0  0  0  0  0
   -5.8820   16.3270  -32.4510 O   0  0  0  0  0  0  0  0  0  0  0  0
   -5.8470   18.1300  -30.8140 O   0  0  0  0  0  0  0  0  0  0  0  0
   -7.2840   18.5190  -32.9920 N   0  0  0  0  0  0  0  0  0  0  0  0
   -7.8940   19.7590  -32.6020 C   0  0  0  0  0  0  0  0  0  0  0  0
   -7.0720   20.8740  -32.3900 C   0  0  0  0  0  0  0  0  0  0  0  0
   -7.6230   22.0940  -31.9810 C   0  0  0  0  0  0  0  0  0  0  0  0
   -9.0000   22.2010  -31.7610 C   0  0  0  0  0  0  0  0  0  0  0  0
   -9.8290   21.0930  -31.9630 C   0  0  0  0  0  0  0  0  0  0  0  0
   -9.2830   19.8770  -32.3890 C   0  0  0  0  0  0  0  0  0  0  0  0
   -3.5920   17.7510  -33.8440 C   0  0  0  0  0  0  0  0  0  0  0  0
   -2.4990   18.3370  -34.4900 C   0  0  0  0  0  0  0  0  0  0  0  0
   -1.6860   17.5650  -35.2550 F   0  0  0  0  0  0  0  0  0  0  0  0
    0.6140   22.1640  -35.1520 C   0  0  0  0  0  0  0  0  0  0  0  0
    1.9460   21.7600  -35.2920 C   0  0  0  0  0  0  0  0  0  0  0  0
    2.8460   22.5460  -36.0030 C   0  0  0  0  0  0  0  0  0  0  0  0
    2.4420   23.7580  -36.5680 C   0  0  0  0  0  0  0  0  0  0  0  0
    3.4060   24.5000  -37.2410 O   0  0  0  0  0  0  0  0  0  0  0  0
    1.0970   24.2100  -36.4440 C   0  0  0  0  0  0  0  0  0  0  0  0
    0.6480   25.5800  -37.0230 C   0  0  1  0  0  0  0  0  0  0  0  0
   -0.8910   25.7550  -36.8370 C   0  0  0  0  0  0  0  0  0  0  0  0
   -1.3530   27.1300  -37.3690 C   0  0  2  0  0  0  0  0  0  0  0  0
   -1.0410   27.2360  -38.8740 C   0  0  0  0  0  0  0  0  0  0  0  0
    0.4800   27.0930  -39.0930 C   0  0  1  0  0  0  0  0  0  0  0  0
    1.2170   28.2200  -38.3450 C   0  0  0  0  0  0  0  0  0  0  0  0
    0.9100   28.1170  -36.8380 C   0  0  1  0  0  0  0  0  0  0  0  0
   -0.6130   28.2520  -36.6080 C   0  0  0  0  0  0  0  0  0  0  0  0
    1.3950   26.7490  -36.3050 C   0  0  0  0  0  0  0  0  0  0  0  0
    0.9460   25.7220  -38.5560 C   0  0  0  0  0  0  0  0  0  0  0  0
    0.1960   23.3750  -35.7290 C   0  0  0  0  0  0  0  0  0  0  0  0
   -0.8080   19.9320  -35.9010 H   0  0  0  0  0  0  0  0  0  0  0  0
   -2.8212   21.5324  -33.3068 H   0  0  0  0  0  0  0  0  0  0  0  0
   -4.8046   20.4970  -32.2061 H   0  0  0  0  0  0  0  0  0  0  0  0
   -5.9864   20.7899  -32.5461 H   0  0  0  0  0  0  0  0  0  0  0  0
   -6.9728   22.9688  -31.8326 H   0  0  0  0  0  0  0  0  0  0  0  0
   -9.4311   23.1570  -31.4290 H   0  0  0  0  0  0  0  0  0  0  0  0
  -10.9115   21.1774  -31.7868 H   0  0  0  0  0  0  0  0  0  0  0  0
   -9.9393   19.0106  -32.5582 H   0  0  0  0  0  0  0  0  0  0  0  0
   -3.7934   16.6774  -33.9738 H   0  0  0  0  0  0  0  0  0  0  0  0
    2.2828   20.8165  -34.8377 H   0  0  0  0  0  0  0  0  0  0  0  0
    3.8867   22.2100  -36.1218 H   0  0  0  0  0  0  0  0  0  0  0  0
   -1.1361   25.6809  -35.7672 H   0  0  0  0  0  0  0  0  0  0  0  0
   -1.4074   24.9655  -37.4026 H   0  0  0  0  0  0  0  0  0  0  0  0
   -2.4370   27.2347  -37.2144 H   0  0  0  0  0  0  0  0  0  0  0  0
   -1.3757   28.2139  -39.2503 H   0  0  0  0  0  0  0  0  0  0  0  0
   -1.5672   26.4363  -39.4158 H   0  0  0  0  0  0  0  0  0  0  0  0
    0.7062   27.1629  -40.1672 H   0  0  0  0  0  0  0  0  0  0  0  0
    0.8773   29.1954  -38.7233 H   0  0  0  0  0  0  0  0  0  0  0  0
    2.3006   28.1230  -38.5077 H   0  0  0  0  0  0  0  0  0  0  0  0
    1.4317   28.9242  -36.3030 H   0  0  0  0  0  0  0  0  0  0  0  0
   -0.9536   29.2308  -36.9767 H   0  0  0  0  0  0  0  0  0  0  0  0
   -0.8291   28.1683  -35.5327 H   0  0  0  0  0  0  0  0  0  0  0  0
    1.1991   26.6927  -35.2240 H   0  0  0  0  0  0  0  0  0  0  0  0
    2.4729   26.6544  -36.5032 H   0  0  0  0  0  0  0  0  0  0  0  0
    0.4166   24.9255  -39.0993 H   0  0  0  0  0  0  0  0  0  0  0  0
    2.0324   25.6404  -38.7078 H   0  0  0  0  0  0  0  0  0  0  0  0
   -0.8544   23.6845  -35.6248 H   0  0  0  0  0  0  0  0  0  0  0  0
  1  2  2  0
  2  3  1  0
  3  4  1  0
  4  5  2  0
  5  6  1  0
  6  7  2  0
  7  8  1  0
  8  9  2  0
  8 10  2  0
  8 11  1  0
 11 12  1  0
 12 13  2  0
 13 14  1  0
 14 15  2  0
 15 16  1  0
 16 17  2  0
  7 18  1  0
 18 19  2  0
 19 20  1  0
  2 21  1  0
 21 22  2  0
 22 23  1  0
 23 24  2  0
 24 25  1  0
 24 26  1  0
 27 26  1  1
 27 28  1  0
 28 29  1  0
 29 30  1  0
 30 31  1  0
 31 32  1  0
 32 33  1  0
 33 34  1  0
 33 35  1  0
 31 36  1  0
 26 37  2  0
 19  4  1  0
 37 21  1  0
 17 12  1  0
 35 27  1  0
 36 27  1  0
 34 29  1  0
  3 38  1  0
  5 39  1  0
  6 40  1  0
 13 41  1  0
 14 42  1  0
 15 43  1  0
 16 44  1  0
 17 45  1  0
 18 46  1  0
 22 47  1  0
 23 48  1  0
 28 49  1  0
 28 50  1  0
 29 51  1  6
 30 52  1  0
 30 53  1  0
 31 54  1  6
 32 55  1  0
 32 56  1  0
 33 57  1  1
 34 58  1  0
 34 59  1  0
 35 60  1  0
 35 61  1  0
 36 62  1  0
 36 63  1  0
 37 64  1  0
M  CHG  2  11  -1  25  -1
M  END
>  <UniqueID>  (7) 
6

>  <SMILES>  (7) 
O=C(Nc1ccc(S(=O)(=O)[N-]c2ccccc2)cc1F)c1ccc([O-])c(C23CC4CC(CC(C4)C2)C3)c1

>  <Energy>  (7) 
89.21028433216847

>  <Genealogy>  (7) 
O=C(Nc1ccc(S(=O)(=O)[N-]c2ccccc2)cc1F)c1ccc([O-])c(C23CC4CC(CC(C4)C2)C3)c1 (protonated)
O=C(Nc1ccc(S(=O)(=O)[N-]c2ccccc2)cc1F)c1ccc([O-])c(C23CC4CC(CC(C4)C2)C3)c1 (3D coordinates assigned)
O=C(Nc1ccc(S(=O)(=O)[N-]c2ccccc2)cc1F)c1ccc([O-])c(C23CC4CC(CC(C4)C2)C3)c1 (nonaromatic ring conformer: 89.21028433216847 kcal/mol)

>  <smiles>  (7) 
O=C(Nc1ccc(S(=O)(=O)Nc2ccccc2)cc1F)c1ccc(O)c(C23CC4CC(CC(C4)C2)C3)c1

>  <score_type>  (7) 
oracle

>  <origin>  (7) 
adgpu

>  <m_score__min__energy>  (7) 
-11.390000000000001

>  <m_primary>  (7) 
energy

$$$$
7:0
     RDKit          3D

 29 31  0  0  0  0  0  0  0  0999 V2000
   -1.6850   25.0590  -28.3360 O   0  0  0  0  0  0  0  0  0  0  0  0
   -2.3830   24.5120  -29.2300 C   0  0  0  0  0  0  0  0  0  0  0  0
   -1.9250   23.4850  -29.9910 N   0  0  0  0  0  0  0  0  0  0  0  0
   -2.9800   23.2290  -30.7880 C   0  0  0  0  0  0  0  0  0  0  0  0
   -3.0790   22.2600  -31.7830 C   0  0  0  0  0  0  0  0  0  0  0  0
   -4.2880   22.1660  -32.5030 C   0  0  0  0  0  0  0  0  0  0  0  0
   -4.3950   21.1700  -33.5270 N   0  0  0  0  0  0  0  0  0  0  0  0
   -4.8580   19.5180  -33.2710 S   0  0  0  0  0  0  0  0  0  0  0  0
   -4.8050   18.7740  -34.5750 O   0  0  0  0  0  0  0  0  0  0  0  0
   -3.9190   18.8910  -32.2780 O   0  0  0  0  0  0  0  0  0  0  0  0
   -6.5010   19.4410  -32.6360 C   0  0  0  0  0  0  0  0  0  0  0  0
   -7.2270   20.6170  -32.3980 C   0  0  0  0  0  0  0  0  0  0  0  0
   -8.5320   20.5500  -31.8960 C   0  0  0  0  0  0  0  0  0  0  0  0
   -9.4360   22.0250  -31.5990 Cl  0  0  0  0  0  0  0  0  0  0  0  0
   -9.1170   19.3080  -31.6330 C   0  0  0  0  0  0  0  0  0  0  0  0
   -8.3990   18.1330  -31.8720 C   0  0  0  0  0  0  0  0  0  0  0  0
   -7.0950   18.1960  -32.3730 C   0  0  0  0  0  0  0  0  0  0  0  0
   -6.4160   17.0430  -32.6040 F   0  0  0  0  0  0  0  0  0  0  0  0
   -5.3590   23.0530  -32.1970 C   0  0  0  0  0  0  0  0  0  0  0  0
   -5.2220   24.0210  -31.1860 C   0  0  0  0  0  0  0  0  0  0  0  0
   -4.0110   24.0750  -30.5040 C   0  0  0  0  0  0  0  0  0  0  0  0
   -3.6490   24.9000  -29.5140 N   0  0  0  0  0  0  0  0  0  0  0  0
   -2.2373   21.5863  -32.0015 H   0  0  0  0  0  0  0  0  0  0  0  0
   -6.7694   21.5954  -32.6065 H   0  0  0  0  0  0  0  0  0  0  0  0
  -10.1423   19.2554  -31.2380 H   0  0  0  0  0  0  0  0  0  0  0  0
   -8.8608   17.1562  -31.6655 H   0  0  0  0  0  0  0  0  0  0  0  0
   -6.3030   22.9804  -32.7570 H   0  0  0  0  0  0  0  0  0  0  0  0
   -6.0435   24.7110  -30.9432 H   0  0  0  0  0  0  0  0  0  0  0  0
   -4.2090   25.6590  -29.0660 H   0  0  0  0  0  0  0  0  0  0  0  0
  1  2  2  0
  2  3  1  0
  3  4  1  0
  4  5  2  0
  5  6  1  0
  6  7  1  0
  7  8  1  0
  8  9  2  0
  8 10  2  0
  8 11  1  0
 11 12  2  0
 12 13  1  0
 13 14  1  0
 13 15  2  0
 15 16  1  0
 16 17  2  0
 17 18  1  0
  6 19  2  0
 19 20  1  0
 20 21  2  0
 21 22  1  0
 22  2  1  0
 21  4  1  0
 17 11  1  0
  5 23  1  0
 12 24  1  0
 15 25  1  0
 16 26  1  0
 19 27  1  0
 20 28  1  0
 22 29  1  0
M  CHG  2   3  -1   7  -1
M  END
>  <UniqueID>  (8) 
7

>  <SMILES>  (8) 
O=c1[n-]c2cc([N-]S(=O)(=O)c3cc(Cl)ccc3F)ccc2[nH]1

>  <Energy>  (8) 
73.49365205571014

>  <Genealogy>  (8) 
O=c1[n-]c2cc([N-]S(=O)(=O)c3cc(Cl)ccc3F)ccc2[nH]1 (protonated)
O=c1[n-]c2cc([N-]S(=O)(=O)c3cc(Cl)ccc3F)ccc2[nH]1 (3D coordinates assigned)
O=c1[n-]c2cc([N-]S(=O)(=O)c3cc(Cl)ccc3F)ccc2[nH]1 (optimized conformer: 73.49365205571014 kcal/mol)

>  <smiles>  (8) 
O=c1[nH]c2ccc(NS(=O)(=O)c3cc(Cl)ccc3F)cc2[nH]1

>  <score_type>  (8) 
oracle

>  <origin>  (8) 
adgpu

>  <m_score__min__energy>  (8) 
-9.6300000000000008

>  <m_primary>  (8) 
energy

$$$$
8:0
     RDKit          3D

 57 60  0  0  0  0  0  0  0  0999 V2000
   -8.6630   23.4230  -31.9790 C   0  0  0  0  0  0  0  0  0  0  0  0
   -7.2640   23.4680  -31.4290 C   0  0  0  0  0  0  0  0  0  0  0  0
   -6.9320   24.4470  -30.4770 C   0  0  0  0  0  0  0  0  0  0  0  0
   -5.6340   24.5240  -29.9660 C   0  0  0  0  0  0  0  0  0  0  0  0
   -4.6460   23.6220  -30.3860 C   0  0  0  0  0  0  0  0  0  0  0  0
   -3.2840   23.6920  -29.8200 C   0  0  0  0  0  0  0  0  0  0  0  0
   -2.2890   23.4300  -30.5510 O   0  0  0  0  0  0  0  0  0  0  0  0
   -3.0960   24.1740  -28.4800 N   0  0  0  0  0  0  0  0  0  0  0  0
   -2.1320   24.9360  -28.0530 C   0  0  0  0  0  0  0  0  0  0  0  0
   -2.0680   25.4580  -26.7820 C   0  0  0  0  0  0  0  0  0  0  0  0
   -0.8590   26.1520  -26.7830 C   0  0  0  0  0  0  0  0  0  0  0  0
   -0.2900   27.0050  -25.6670 C   0  0  0  0  0  0  0  0  0  0  0  0
   -0.9750   26.6360  -24.3360 C   0  0  0  0  0  0  0  0  0  0  0  0
   -0.5220   28.5040  -25.9430 C   0  0  0  0  0  0  0  0  0  0  0  0
    1.2210   26.7290  -25.5610 C   0  0  0  0  0  0  0  0  0  0  0  0
   -0.2930   26.0140  -27.9660 O   0  0  0  0  0  0  0  0  0  0  0  0
   -1.0310   25.2850  -28.7490 N   0  0  0  0  0  0  0  0  0  0  0  0
   -4.9750   22.6360  -31.3350 C   0  0  0  0  0  0  0  0  0  0  0  0
   -6.2780   22.5400  -31.8440 C   0  0  0  0  0  0  0  0  0  0  0  0
   -6.5600   21.5320  -32.7740 O   0  0  0  0  0  0  0  0  0  0  0  0
   -7.3300   20.3980  -32.4880 C   0  0  0  0  0  0  0  0  0  0  0  0
   -8.6770   20.4710  -32.6520 N   0  0  0  0  0  0  0  0  0  0  0  0
   -9.4960   19.4220  -32.3710 C   0  0  0  0  0  0  0  0  0  0  0  0
   -8.9590   18.2160  -31.9160 C   0  0  0  0  0  0  0  0  0  0  0  0
   -7.5770   18.0950  -31.7720 C   0  0  0  0  0  0  0  0  0  0  0  0
   -6.7420   19.1910  -32.0440 C   0  0  0  0  0  0  0  0  0  0  0  0
   -5.3130   19.0760  -32.0050 N   0  0  0  0  0  0  0  0  0  0  0  0
   -4.3830   19.3640  -33.0520 C   0  0  0  0  0  0  0  0  0  0  0  0
   -4.5770   18.9410  -34.2250 O   0  0  0  0  0  0  0  0  0  0  0  0
   -3.1460   20.0900  -32.7460 C   0  0  0  0  0  0  0  0  0  0  0  0
   -2.6420   21.1650  -33.4560 C   0  0  0  0  0  0  0  0  0  0  0  0
   -1.4900   21.5350  -32.7980 C   0  0  0  0  0  0  0  0  0  0  0  0
   -1.3520   20.6560  -31.7410 C   0  0  0  0  0  0  0  0  0  0  0  0
   -2.3530   19.8080  -31.7380 O   0  0  0  0  0  0  0  0  0  0  0  0
   -9.3832   23.3998  -31.1478 H   0  0  0  0  0  0  0  0  0  0  0  0
   -8.8434   24.3158  -32.5957 H   0  0  0  0  0  0  0  0  0  0  0  0
   -8.7857   22.5204  -32.5957 H   0  0  0  0  0  0  0  0  0  0  0  0
   -7.6985   25.1567  -30.1322 H   0  0  0  0  0  0  0  0  0  0  0  0
   -5.3847   25.2997  -29.2270 H   0  0  0  0  0  0  0  0  0  0  0  0
   -2.7949   25.3532  -25.9630 H   0  0  0  0  0  0  0  0  0  0  0  0
   -0.3497   26.9729  -23.4961 H   0  0  0  0  0  0  0  0  0  0  0  0
   -1.9580   27.1267  -24.2811 H   0  0  0  0  0  0  0  0  0  0  0  0
   -1.1061   25.5452  -24.2811 H   0  0  0  0  0  0  0  0  0  0  0  0
   -0.6056   29.0440  -24.9883 H   0  0  0  0  0  0  0  0  0  0  0  0
    0.3246   28.9061  -26.5188 H   0  0  0  0  0  0  0  0  0  0  0  0
   -1.4506   28.6314  -26.5188 H   0  0  0  0  0  0  0  0  0  0  0  0
    1.5106   26.6761  -24.5011 H   0  0  0  0  0  0  0  0  0  0  0  0
    1.4546   25.7733  -26.0531 H   0  0  0  0  0  0  0  0  0  0  0  0
    1.7773   27.5404  -26.0531 H   0  0  0  0  0  0  0  0  0  0  0  0
   -0.7580   25.0100  -29.7190 H   0  0  0  0  0  0  0  0  0  0  0  0
   -4.2022   21.9337  -31.6808 H   0  0  0  0  0  0  0  0  0  0  0  0
  -10.5834   19.5239  -32.5024 H   0  0  0  0  0  0  0  0  0  0  0  0
   -9.6191   17.3701  -31.6736 H   0  0  0  0  0  0  0  0  0  0  0  0
   -7.1404   17.1398  -31.4449 H   0  0  0  0  0  0  0  0  0  0  0  0
   -3.0713   21.6273  -34.3571 H   0  0  0  0  0  0  0  0  0  0  0  0
   -0.8157   22.3634  -33.0610 H   0  0  0  0  0  0  0  0  0  0  0  0
   -0.5279   20.6657  -31.0125 H   0  0  0  0  0  0  0  0  0  0  0  0
  1  2  1  0
  2  3  2  0
  3  4  1  0
  4  5  2  0
  5  6  1  0
  6  7  2  0
  6  8  1  0
  8  9  2  3
  9 10  1  0
 10 11  2  0
 11 12  1  0
 12 13  1  0
 12 14  1  0
 12 15  1  0
 11 16  1  0
 16 17  1  0
  5 18  1  0
 18 19  2  0
 19 20  1  0
 20 21  1  0
 21 22  2  0
 22 23  1  0
 23 24  2  0
 24 25  1  0
 25 26  2  0
 26 27  1  0
 27 28  1  0
 28 29  2  0
 28 30  1  0
 30 31  2  0
 31 32  1  0
 32 33  2  0
 33 34  1  0
 19  2  1  0
 26 21  1  0
 34 30  1  0
 17  9  1  0
  1 35  1  0
  1 36  1  0
  1 37  1  0
  3 38  1  0
  4 39  1  0
 10 40  1  0
 13 41  1  0
 13 42  1  0
 13 43  1  0
 14 44  1  0
 14 45  1  0
 14 46  1  0
 15 47  1  0
 15 48  1  0
 15 49  1  0
 17 50  1  0
 18 51  1  0
 23 52  1  0
 24 53  1  0
 25 54  1  0
 31 55  1  0
 32 56  1  0
 33 57  1  0
M  CHG  1  27  -1
M  END
>  <UniqueID>  (9) 
8

>  <SMILES>  (9) 
Cc1ccc(C(=O)N=c2cc(C(C)(C)C)o[nH]2)cc1Oc1ncccc1[N-]C(=O)c1ccco1

>  <Energy>  (9) 
131.7044817832833

>  <Genealogy>  (9) 
Cc1ccc(C(=O)N=c2cc(C(C)(C)C)o[nH]2)cc1Oc1ncccc1[N-]C(=O)c1ccco1 (protonated)
Cc1ccc(C(=O)N=c2cc(C(C)(C)C)o[nH]2)cc1Oc1ncccc1[N-]C(=O)c1ccco1 (3D coordinates assigned)
Cc1ccc(C(=O)N=c2cc(C(C)(C)C)o[nH]2)cc1Oc1ncccc1[N-]C(=O)c1ccco1 (optimized conformer: 131.7044817832833 kcal/mol)

>  <smiles>  (9) 
Cc1ccc(C(=O)N=c2cc(C(C)(C)C)o[nH]2)cc1Oc1ncccc1NC(=O)c1ccco1

>  <score_type>  (9) 
oracle

>  <origin>  (9) 
adgpu

>  <m_score__min__energy>  (9) 
-11.57

>  <m_primary>  (9) 
energy

$$$$
9:0
     RDKit          3D

 55 58  0  0  0  0  0  0  0  0999 V2000
    0.9680   24.7700  -28.1320 O   0  0  0  0  0  0  0  0  0  0  0  0
   -0.0940   24.6410  -27.4650 C   0  0  0  0  0  0  0  0  0  0  0  0
   -1.1910   23.8080  -28.0060 C   0  0  0  0  0  0  0  0  0  0  0  0
   -1.5390   22.6020  -27.3750 C   0  0  0  0  0  0  0  0  0  0  0  0
   -2.5540   21.7970  -27.9010 C   0  0  0  0  0  0  0  0  0  0  0  0
   -3.2300   22.1880  -29.0590 C   0  0  0  0  0  0  0  0  0  0  0  0
   -2.9100   23.4070  -29.6870 C   0  0  0  0  0  0  0  0  0  0  0  0
   -3.5740   23.8490  -30.8430 O   0  0  0  0  0  0  0  0  0  0  0  0
   -4.9460   23.6980  -31.0560 C   0  0  0  0  0  0  0  0  0  0  0  0
   -5.8430   24.3490  -30.1990 C   0  0  0  0  0  0  0  0  0  0  0  0
   -7.2180   24.2280  -30.4000 C   0  0  0  0  0  0  0  0  0  0  0  0
   -7.7070   23.4640  -31.4620 C   0  0  0  0  0  0  0  0  0  0  0  0
   -6.8180   22.8240  -32.3300 C   0  0  0  0  0  0  0  0  0  0  0  0
   -5.4280   22.9420  -32.1440 C   0  0  0  0  0  0  0  0  0  0  0  0
   -4.5040   22.3190  -33.0590 N   0  0  0  0  0  0  0  0  0  0  0  0
   -3.9200   20.7010  -32.8360 S   0  0  0  0  0  0  0  0  0  0  0  0
   -2.9470   20.3630  -33.9310 O   0  0  0  0  0  0  0  0  0  0  0  0
   -3.2040   20.6080  -31.5170 O   0  0  0  0  0  0  0  0  0  0  0  0
   -5.2750   19.5780  -32.8340 C   0  0  0  0  0  0  0  0  0  0  0  0
   -6.2320   19.6450  -31.8100 C   0  0  0  0  0  0  0  0  0  0  0  0
   -7.2920   18.7400  -31.7840 C   0  0  0  0  0  0  0  0  0  0  0  0
   -7.4120   17.7670  -32.7770 C   0  0  0  0  0  0  0  0  0  0  0  0
   -6.4690   17.7030  -33.8040 C   0  0  0  0  0  0  0  0  0  0  0  0
   -5.3960   18.6040  -33.8340 C   0  0  0  0  0  0  0  0  0  0  0  0
   -1.9050   24.2130  -29.1440 C   0  0  0  0  0  0  0  0  0  0  0  0
   -0.2290   25.3420  -26.2140 N   0  0  0  0  0  0  0  0  0  0  0  0
    0.9610   25.5210  -25.3660 C   0  0  0  0  0  0  0  0  0  0  0  0
    0.5880   26.1010  -23.9940 C   0  0  0  0  0  0  0  0  0  0  0  0
   -0.2530   27.3840  -24.1110 C   0  0  0  0  0  0  0  0  0  0  0  0
   -1.2370   27.3880  -25.2990 C   0  0  0  0  0  0  0  0  0  0  0  0
   -1.5010   25.9860  -25.8500 C   0  0  0  0  0  0  0  0  0  0  0  0
   -1.0102   22.2894  -26.4625 H   0  0  0  0  0  0  0  0  0  0  0  0
   -2.8207   20.8538  -27.4018 H   0  0  0  0  0  0  0  0  0  0  0  0
   -4.0140   21.5423  -29.4813 H   0  0  0  0  0  0  0  0  0  0  0  0
   -5.4619   24.9572  -29.3654 H   0  0  0  0  0  0  0  0  0  0  0  0
   -7.9187   24.7354  -29.7206 H   0  0  0  0  0  0  0  0  0  0  0  0
   -8.7919   23.3660  -31.6153 H   0  0  0  0  0  0  0  0  0  0  0  0
   -7.2078   22.2234  -33.1651 H   0  0  0  0  0  0  0  0  0  0  0  0
   -4.2940   22.7720  -33.9750 H   0  0  0  0  0  0  0  0  0  0  0  0
   -6.1457   20.4126  -31.0268 H   0  0  0  0  0  0  0  0  0  0  0  0
   -8.0374   18.7931  -30.9768 H   0  0  0  0  0  0  0  0  0  0  0  0
   -8.2477   17.0522  -32.7505 H   0  0  0  0  0  0  0  0  0  0  0  0
   -6.5684   16.9426  -34.5927 H   0  0  0  0  0  0  0  0  0  0  0  0
   -4.6505   18.5467  -34.6408 H   0  0  0  0  0  0  0  0  0  0  0  0
   -1.6706   25.1787  -29.6157 H   0  0  0  0  0  0  0  0  0  0  0  0
    1.4480   24.5453  -25.2219 H   0  0  0  0  0  0  0  0  0  0  0  0
    1.6408   26.2258  -25.8671 H   0  0  0  0  0  0  0  0  0  0  0  0
    0.0099   25.3487  -23.4373 H   0  0  0  0  0  0  0  0  0  0  0  0
    1.5218   26.3574  -23.4721 H   0  0  0  0  0  0  0  0  0  0  0  0
   -0.8317   27.5031  -23.1831 H   0  0  0  0  0  0  0  0  0  0  0  0
    0.4526   28.2104  -24.2818 H   0  0  0  0  0  0  0  0  0  0  0  0
   -2.1915   27.8202  -24.9642 H   0  0  0  0  0  0  0  0  0  0  0  0
   -0.7826   27.9823  -26.1054 H   0  0  0  0  0  0  0  0  0  0  0  0
   -2.0087   25.3826  -25.0831 H   0  0  0  0  0  0  0  0  0  0  0  0
   -2.1365   26.0627  -26.7446 H   0  0  0  0  0  0  0  0  0  0  0  0
  1  2  2  0
  2  3  1  0
  3  4  2  0
  4  5  1  0
  5  6  2  0
  6  7  1  0
  7  8  1  0
  8  9  1  0
  9 10  2  0
 10 11  1  0
 11 12  2  0
 12 13  1  0
 13 14  2  0
 14 15  1  0
 15 16  1  0
 16 17  2  0
 16 18  2  0
 16 19  1  0
 19 20  2  0
 20 21  1  0
 21 22  2  0
 22 23  1  0
 23 24  2  0
  7 25  2  0
  2 26  1  0
 26 27  1  0
 27 28  1  0
 28 29  1  0
 29 30  1  0
 30 31  1  0
 25  3  1  0
 31 26  1  0
 14  9  1  0
 24 19  1  0
  4 32  1  0
  5 33  1  0
  6 34  1  0
 10 35  1  0
 11 36  1  0
 12 37  1  0
 13 38  1  0
 15 39  1  0
 20 40  1  0
 21 41  1  0
 22 42  1  0
 23 43  1  0
 24 44  1  0
 25 45  1  0
 27 46  1  0
 27 47  1  0
 28 48  1  0
 28 49  1  0
 29 50  1  0
 29 51  1  0
 30 52  1  0
 30 53  1  0
 31 54  1  0
 31 55  1  0
M  END
>  <UniqueID>  (10) 
9

>  <SMILES>  (10) 
O=C(c1cccc(Oc2ccccc2NS(=O)(=O)c2ccccc2)c1)N1CCCCC1

>  <Energy>  (10) 
77.01736781784706

>  <Genealogy>  (10) 
O=C(c1cccc(Oc2ccccc2NS(=O)(=O)c2ccccc2)c1)N1CCCCC1 (3D coordinates assigned)
O=C(c1cccc(Oc2ccccc2NS(=O)(=O)c2ccccc2)c1)N1CCCCC1 (nonaromatic ring conformer: 77.01736781784706 kcal/mol)

>  <smiles>  (10) 
O=C(c1cccc(Oc2ccccc2NS(=O)(=O)c2ccccc2)c1)N1CCCCC1

>  <score_type>  (10) 
oracle

>  <origin>  (10) 
adgpu

>  <m_score__min__energy>  (10) 
-11.18

>  <m_primary>  (10) 
energy

$$$$
10:0
     RDKit          3D

 25 26  0  0  0  0  0  0  0  0999 V2000
   -3.9580   25.3000  -30.8510 O   0  0  0  0  0  0  0  0  0  0  0  0
   -4.8480   24.5160  -29.9280 S   0  0  0  0  0  0  0  0  0  0  0  0
   -5.9470   25.4080  -29.4180 O   0  0  0  0  0  0  0  0  0  0  0  0
   -3.9350   23.9140  -28.5830 N   0  0  0  0  0  0  0  0  0  0  0  0
   -2.7430   24.5150  -28.0600 C   0  0  0  0  0  0  0  0  0  0  0  0
   -2.7350   24.9530  -26.7310 C   0  0  0  0  0  0  0  0  0  0  0  0
   -1.5890   25.5430  -26.1940 C   0  0  0  0  0  0  0  0  0  0  0  0
   -0.4560   25.6890  -26.9980 C   0  0  0  0  0  0  0  0  0  0  0  0
   -0.4780   25.2610  -28.2870 N   0  0  0  0  0  0  0  0  0  0  0  0
   -1.5820   24.6840  -28.8330 C   0  0  0  0  0  0  0  0  0  0  0  0
   -5.5350   23.1490  -30.8120 C   0  0  0  0  0  0  0  0  0  0  0  0
   -6.9310   23.0250  -30.9190 C   0  0  0  0  0  0  0  0  0  0  0  0
   -7.4960   21.9510  -31.6120 C   0  0  0  0  0  0  0  0  0  0  0  0
   -9.3960   21.7950  -31.7490 Br  0  0  0  0  0  0  0  0  0  0  0  0
   -6.6740   20.9900  -32.2040 C   0  0  0  0  0  0  0  0  0  0  0  0
   -5.2850   21.1030  -32.1040 C   0  0  0  0  0  0  0  0  0  0  0  0
   -4.7080   22.1750  -31.4130 C   0  0  0  0  0  0  0  0  0  0  0  0
   -2.7930   22.2550  -31.3230 Br  0  0  0  0  0  0  0  0  0  0  0  0
   -3.6335   24.8323  -26.1080 H   0  0  0  0  0  0  0  0  0  0  0  0
   -1.5785   25.8889  -25.1498 H   0  0  0  0  0  0  0  0  0  0  0  0
    0.4541   26.1506  -26.5872 H   0  0  0  0  0  0  0  0  0  0  0  0
   -1.5659   24.3494  -29.8807 H   0  0  0  0  0  0  0  0  0  0  0  0
   -7.5834   23.7787  -30.4539 H   0  0  0  0  0  0  0  0  0  0  0  0
   -7.1197   20.1446  -32.7487 H   0  0  0  0  0  0  0  0  0  0  0  0
   -4.6403   20.3442  -32.5716 H   0  0  0  0  0  0  0  0  0  0  0  0
  1  2  2  0
  2  3  2  0
  2  4  1  0
  4  5  1  0
  5  6  2  0
  6  7  1  0
  7  8  2  0
  8  9  1  0
  9 10  2  0
  2 11  1  0
 11 12  2  0
 12 13  1  0
 13 14  1  0
 13 15  2  0
 15 16  1  0
 16 17  2  0
 17 18  1  0
 10  5  1  0
 17 11  1  0
  6 19  1  0
  7 20  1  0
  8 21  1  0
 10 22  1  0
 12 23  1  0
 15 24  1  0
 16 25  1  0
M  CHG  1   4  -1
M  END
>  <UniqueID>  (11) 
10

>  <SMILES>  (11) 
O=S(=O)([N-]c1cccnc1)c1cc(Br)ccc1Br

>  <Energy>  (11) 
32.21783829479391

>  <Genealogy>  (11) 
O=S(=O)([N-]c1cccnc1)c1cc(Br)ccc1Br (protonated)
O=S(=O)([N-]c1cccnc1)c1cc(Br)ccc1Br (3D coordinates assigned)
O=S(=O)([N-]c1cccnc1)c1cc(Br)ccc1Br (optimized conformer: 32.21783829479391 kcal/mol)

>  <smiles>  (11) 
O=S(=O)(Nc1cccnc1)c1cc(Br)ccc1Br

>  <score_type>  (11) 
oracle

>  <origin>  (11) 
adgpu

>  <m_score__min__energy>  (11) 
-8.5500000000000007

>  <m_primary>  (11) 
energy

$$$$
11:0
     RDKit          3D

 42 44  0  0  0  0  0  0  0  0999 V2000
   -5.4770   21.0830  -32.8420 C   0  0  0  0  0  0  0  0  0  0  0  0
   -5.6740   22.2900  -31.9730 C   0  0  0  0  0  0  0  0  0  0  0  0
   -6.9650   22.7020  -31.6200 C   0  0  0  0  0  0  0  0  0  0  0  0
   -7.1500   23.8320  -30.8220 C   0  0  0  0  0  0  0  0  0  0  0  0
   -6.0470   24.5770  -30.3760 C   0  0  0  0  0  0  0  0  0  0  0  0
   -6.2700   25.8010  -29.5290 C   0  0  0  0  0  0  0  0  0  0  0  0
   -4.7460   24.2080  -30.7800 C   0  0  0  0  0  0  0  0  0  0  0  0
   -3.6280   24.9940  -30.3390 N   0  0  0  0  0  0  0  0  0  0  0  0
   -2.4540   24.5380  -29.6550 C   0  0  0  0  0  0  0  0  0  0  0  0
   -2.1350   23.3200  -29.6610 O   0  0  0  0  0  0  0  0  0  0  0  0
   -1.6090   25.4730  -28.9770 N   0  0  0  0  0  0  0  0  0  0  0  0
   -1.2020   25.3590  -27.6070 C   0  0  0  0  0  0  0  0  0  0  0  0
   -1.6230   26.3450  -26.7040 C   0  0  0  0  0  0  0  0  0  0  0  0
   -1.1940   26.3190  -25.3760 C   0  0  0  0  0  0  0  0  0  0  0  0
   -0.3440   25.3030  -24.9350 C   0  0  0  0  0  0  0  0  0  0  0  0
    0.0550   24.2940  -25.8150 C   0  0  0  0  0  0  0  0  0  0  0  0
   -0.3960   24.2890  -27.1400 C   0  0  0  0  0  0  0  0  0  0  0  0
   -0.0250   23.2140  -27.9600 O   0  0  0  0  0  0  0  0  0  0  0  0
   -0.4100   21.8800  -27.7540 C   0  0  0  0  0  0  0  0  0  0  0  0
   -1.5540   21.6160  -26.9950 C   0  0  0  0  0  0  0  0  0  0  0  0
   -1.9560   20.2990  -26.7690 C   0  0  0  0  0  0  0  0  0  0  0  0
   -1.2120   19.2530  -27.3190 C   0  0  0  0  0  0  0  0  0  0  0  0
   -0.1110   19.5220  -28.0690 N   0  0  0  0  0  0  0  0  0  0  0  0
    0.3030   20.7980  -28.2990 C   0  0  0  0  0  0  0  0  0  0  0  0
   -4.5690   23.0490  -31.5600 C   0  0  0  0  0  0  0  0  0  0  0  0
   -5.3321   20.1951  -32.2090 H   0  0  0  0  0  0  0  0  0  0  0  0
   -6.3637   20.9398  -33.4771 H   0  0  0  0  0  0  0  0  0  0  0  0
   -4.5908   21.2291  -33.4771 H   0  0  0  0  0  0  0  0  0  0  0  0
   -7.8372   22.1324  -31.9733 H   0  0  0  0  0  0  0  0  0  0  0  0
   -8.1675   24.1410  -30.5405 H   0  0  0  0  0  0  0  0  0  0  0  0
   -6.2197   25.5250  -28.4654 H   0  0  0  0  0  0  0  0  0  0  0  0
   -5.4930   26.5473  -29.7513 H   0  0  0  0  0  0  0  0  0  0  0  0
   -7.2602   26.2253  -29.7513 H   0  0  0  0  0  0  0  0  0  0  0  0
   -2.2965   27.1453  -27.0445 H   0  0  0  0  0  0  0  0  0  0  0  0
   -1.5260   27.0999  -24.6761 H   0  0  0  0  0  0  0  0  0  0  0  0
    0.0117   25.2970  -23.8941 H   0  0  0  0  0  0  0  0  0  0  0  0
    0.7282   23.4980  -25.4642 H   0  0  0  0  0  0  0  0  0  0  0  0
   -2.1383   22.4480  -26.5752 H   0  0  0  0  0  0  0  0  0  0  0  0
   -2.8498   20.0869  -26.1638 H   0  0  0  0  0  0  0  0  0  0  0  0
   -1.5173   18.2106  -27.1451 H   0  0  0  0  0  0  0  0  0  0  0  0
    1.1971   20.9829  -28.9125 H   0  0  0  0  0  0  0  0  0  0  0  0
   -3.5546   22.7359  -31.8481 H   0  0  0  0  0  0  0  0  0  0  0  0
  1  2  1  0
  2  3  2  0
  3  4  1  0
  4  5  2  0
  5  6  1  0
  5  7  1  0
  7  8  1  0
  8  9  1  0
  9 10  2  0
  9 11  1  0
 11 12  1  0
 12 13  2  0
 13 14  1  0
 14 15  2  0
 15 16  1  0
 16 17  2  0
 17 18  1  0
 18 19  1  0
 19 20  2  0
 20 21  1  0
 21 22  2  0
 22 23  1  0
 23 24  2  0
  7 25  2  0
 25  2  1  0
 17 12  1  0
 24 19  1  0
  1 26  1  0
  1 27  1  0
  1 28  1  0
  3 29  1  0
  4 30  1  0
  6 31  1  0
  6 32  1  0
  6 33  1  0
 13 34  1  0
 14 35  1  0
 15 36  1  0
 16 37  1  0
 20 38  1  0
 21 39  1  0
 22 40  1  0
 24 41  1  0
 25 42  1  0
M  CHG  2   8  -1  11  -1
M  END
>  <UniqueID>  (12) 
11

>  <SMILES>  (12) 
Cc1ccc(C)c([N-]C(=O)[N-]c2ccccc2Oc2cccnc2)c1

>  <Energy>  (12) 
58.97780137248597

>  <Genealogy>  (12) 
Cc1ccc(C)c([N-]C(=O)[N-]c2ccccc2Oc2cccnc2)c1 (protonated)
Cc1ccc(C)c([N-]C(=O)[N-]c2ccccc2Oc2cccnc2)c1 (3D coordinates assigned)
Cc1ccc(C)c([N-]C(=O)[N-]c2ccccc2Oc2cccnc2)c1 (optimized conformer: 58.97780137248597 kcal/mol)

>  <smiles>  (12) 
Cc1ccc(C)c(NC(=O)Nc2ccccc2Oc2cccnc2)c1

>  <score_type>  (12) 
oracle

>  <origin>  (12) 
adgpu

>  <m_score__min__energy>  (12) 
-10.94

>  <m_primary>  (12) 
energy

$$$$
12:0
     RDKit          3D

 41 43  0  0  0  0  0  0  0  0999 V2000
   -9.5020   19.6570  -32.7730 C   0  0  0  0  0  0  0  0  0  0  0  0
   -8.1140   19.2570  -32.3760 C   0  0  0  0  0  0  0  0  0  0  0  0
   -7.8980   18.0560  -32.0630 O   0  0  0  0  0  0  0  0  0  0  0  0
   -6.9940   20.2330  -32.3530 C   0  0  0  0  0  0  0  0  0  0  0  0
   -5.8370   19.9840  -33.1120 C   0  0  0  0  0  0  0  0  0  0  0  0
   -5.7280   18.8350  -33.8890 O   0  0  0  0  0  0  0  0  0  0  0  0
   -4.7680   20.8770  -33.0810 C   0  0  0  0  0  0  0  0  0  0  0  0
   -4.8120   22.0270  -32.2890 C   0  0  0  0  0  0  0  0  0  0  0  0
   -3.6760   22.8400  -32.2860 O   0  0  0  0  0  0  0  0  0  0  0  0
   -5.9770   22.3140  -31.5310 C   0  0  0  0  0  0  0  0  0  0  0  0
   -6.0700   23.5090  -30.6020 C   0  0  0  0  0  0  0  0  0  0  0  0
   -4.8080   23.6320  -29.8060 C   0  0  0  0  0  0  0  0  0  0  0  0
   -4.4360   22.7800  -28.8740 O   0  0  0  0  0  0  0  0  0  0  0  0
   -3.2430   23.1310  -28.4470 C   0  0  0  0  0  0  0  0  0  0  0  0
   -2.5330   22.4320  -27.4790 O   0  0  0  0  0  0  0  0  0  0  0  0
   -2.7900   24.2510  -29.1210 C   0  0  0  0  0  0  0  0  0  0  0  0
   -1.4550   24.8700  -29.0320 C   0  0  0  0  0  0  0  0  0  0  0  0
   -0.4380   24.1870  -29.3210 O   0  0  0  0  0  0  0  0  0  0  0  0
   -1.2820   26.2270  -28.6010 N   0  0  0  0  0  0  0  0  0  0  0  0
   -1.1030   26.6590  -27.2430 C   0  0  0  0  0  0  0  0  0  0  0  0
   -0.2040   27.6990  -26.9720 C   0  0  0  0  0  0  0  0  0  0  0  0
    0.0170   28.1160  -25.6550 C   0  0  0  0  0  0  0  0  0  0  0  0
   -0.6710   27.5060  -24.6020 C   0  0  0  0  0  0  0  0  0  0  0  0
   -1.5940   26.4910  -24.8660 C   0  0  0  0  0  0  0  0  0  0  0  0
   -1.8190   26.0730  -26.1810 C   0  0  0  0  0  0  0  0  0  0  0  0
   -3.8210   24.5840  -29.9720 C   0  0  0  0  0  0  0  0  0  0  0  0
   -3.8600   25.6670  -30.8410 O   0  0  0  0  0  0  0  0  0  0  0  0
   -7.0620   21.4080  -31.5730 C   0  0  0  0  0  0  0  0  0  0  0  0
   -8.2150   21.6900  -30.8450 O   0  0  0  0  0  0  0  0  0  0  0  0
  -10.1058   19.8310  -31.8702 H   0  0  0  0  0  0  0  0  0  0  0  0
   -9.4610   20.5799  -33.3702 H   0  0  0  0  0  0  0  0  0  0  0  0
   -9.9584   18.8538  -33.3702 H   0  0  0  0  0  0  0  0  0  0  0  0
   -3.8749   20.6733  -33.6900 H   0  0  0  0  0  0  0  0  0  0  0  0
   -3.6550   23.7970  -31.9630 H   0  0  0  0  0  0  0  0  0  0  0  0
   -6.2175   24.4229  -31.1962 H   0  0  0  0  0  0  0  0  0  0  0  0
   -6.9195   23.3712  -29.9169 H   0  0  0  0  0  0  0  0  0  0  0  0
    0.3305   28.1899  -27.7986 H   0  0  0  0  0  0  0  0  0  0  0  0
    0.7331   28.9249  -25.4478 H   0  0  0  0  0  0  0  0  0  0  0  0
   -0.4857   27.8251  -23.5657 H   0  0  0  0  0  0  0  0  0  0  0  0
   -2.1444   26.0201  -24.0382 H   0  0  0  0  0  0  0  0  0  0  0  0
   -2.5574   25.2841  -26.3869 H   0  0  0  0  0  0  0  0  0  0  0  0
  1  2  1  0
  2  3  2  0
  2  4  1  0
  4  5  2  0
  5  6  1  0
  5  7  1  0
  7  8  2  0
  8  9  1  0
  8 10  1  0
 10 11  1  0
 11 12  1  0
 12 13  1  0
 13 14  1  0
 14 15  1  0
 14 16  2  0
 16 17  1  0
 17 18  2  0
 17 19  1  0
 19 20  1  0
 20 21  2  0
 21 22  1  0
 22 23  2  0
 23 24  1  0
 24 25  2  0
 16 26  1  0
 26 27  1  0
 10 28  2  0
 28 29  1  0
 28  4  1  0
 26 12  2  0
 25 20  1  0
  1 30  1  0
  1 31  1  0
  1 32  1  0
  7 33  1  0
  9 34  1  0
 11 35  1  0
 11 36  1  0
 21 37  1  0
 22 38  1  0
 23 39  1  0
 24 40  1  0
 25 41  1  0
M  CHG  5   6  -1  15  -1  19  -1  27  -1  29  -1
M  END
>  <UniqueID>  (13) 
12

>  <SMILES>  (13) 
CC(=O)c1c([O-])cc(O)c(Cc2oc([O-])c(C(=O)[N-]c3ccccc3)c2[O-])c1[O-]

>  <Energy>  (13) 
84.48327891686083

>  <Genealogy>  (13) 
CC(=O)c1c([O-])cc(O)c(Cc2oc([O-])c(C(=O)[N-]c3ccccc3)c2[O-])c1[O-] (protonated)
CC(=O)c1c([O-])cc(O)c(Cc2oc([O-])c(C(=O)[N-]c3ccccc3)c2[O-])c1[O-] (3D coordinates assigned)
CC(=O)c1c([O-])cc(O)c(Cc2oc([O-])c(C(=O)[N-]c3ccccc3)c2[O-])c1[O-] (optimized conformer: 84.48327891686083 kcal/mol)

>  <smiles>  (13) 
CC(=O)c1c(O)cc(O)c(Cc2oc(O)c(C(=O)Nc3ccccc3)c2O)c1O

>  <score_type>  (13) 
oracle

>  <origin>  (13) 
adgpu

>  <m_score__min__energy>  (13) 
-12.57

>  <m_primary>  (13) 
energy

$$$$
13:0
     RDKit          3D

 41 43  0  0  0  0  0  0  0  0999 V2000
   -8.6310   23.2200  -32.7410 H   0  0  0  0  0  0  0  0  0  0  0  0
   -7.9640   23.5700  -32.0170 N   0  0  0  0  0  0  0  0  0  0  0  0
   -6.8600   22.9450  -31.7520 C   0  0  0  0  0  0  0  0  0  0  0  0
   -6.5560   21.8050  -32.4280 N   0  0  0  0  0  0  0  0  0  0  0  0
   -5.4190   21.0940  -32.2000 C   0  0  0  0  0  0  0  0  0  0  0  0
   -5.1700   19.8530  -32.9790 C   0  0  0  0  0  0  0  0  0  0  0  0
   -6.1540   19.3130  -33.8250 C   0  0  0  0  0  0  0  0  0  0  0  0
   -7.1267   19.8175  -33.9220 H   0  0  0  0  0  0  0  0  0  0  0  0
   -5.9070   18.1420  -34.5430 C   0  0  0  0  0  0  0  0  0  0  0  0
   -6.6848   17.7334  -35.2048 H   0  0  0  0  0  0  0  0  0  0  0  0
   -4.6710   17.4800  -34.4270 C   0  0  0  0  0  0  0  0  0  0  0  0
   -4.3870   16.3010  -35.1350 O   0  0  0  0  0  0  0  0  0  0  0  0
   -3.1670   16.0510  -35.8260 C   0  0  0  0  0  0  0  0  0  0  0  0
   -2.3600   15.8856  -35.0971 H   0  0  0  0  0  0  0  0  0  0  0  0
   -3.2797   15.1573  -36.4573 H   0  0  0  0  0  0  0  0  0  0  0  0
   -2.9191   16.9170  -36.4573 H   0  0  0  0  0  0  0  0  0  0  0  0
   -3.6840   18.0020  -33.5780 C   0  0  0  0  0  0  0  0  0  0  0  0
   -2.4620   17.3180  -33.4790 O   0  0  0  0  0  0  0  0  0  0  0  0
   -1.3150   17.8080  -32.7930 C   0  0  0  0  0  0  0  0  0  0  0  0
   -1.4792   17.7379  -31.7076 H   0  0  0  0  0  0  0  0  0  0  0  0
   -0.4369   17.2065  -33.0707 H   0  0  0  0  0  0  0  0  0  0  0  0
   -1.1426   18.8583  -33.0707 H   0  0  0  0  0  0  0  0  0  0  0  0
   -3.9400   19.1840  -32.8550 C   0  0  0  0  0  0  0  0  0  0  0  0
   -3.1672   19.5885  -32.1848 H   0  0  0  0  0  0  0  0  0  0  0  0
   -4.5200   21.5420  -31.2190 C   0  0  0  0  0  0  0  0  0  0  0  0
   -3.6056   20.9681  -31.0081 H   0  0  0  0  0  0  0  0  0  0  0  0
   -4.7870   22.7190  -30.5090 C   0  0  0  0  0  0  0  0  0  0  0  0
   -3.8170   23.1700  -29.4830 C   0  0  0  0  0  0  0  0  0  0  0  0
   -3.4780   22.3130  -28.4220 C   0  0  0  0  0  0  0  0  0  0  0  0
   -3.9352   21.3146  -28.3573 H   0  0  0  0  0  0  0  0  0  0  0  0
   -2.5630   22.7230  -27.4490 C   0  0  0  0  0  0  0  0  0  0  0  0
   -2.3067   22.0496  -26.6178 H   0  0  0  0  0  0  0  0  0  0  0  0
   -1.9730   23.9870  -27.5300 C   0  0  0  0  0  0  0  0  0  0  0  0
   -1.2554   24.3090  -26.7610 H   0  0  0  0  0  0  0  0  0  0  0  0
   -2.2940   24.8420  -28.5870 C   0  0  0  0  0  0  0  0  0  0  0  0
   -1.8276   25.8363  -28.6486 H   0  0  0  0  0  0  0  0  0  0  0  0
   -3.2070   24.4380  -29.5680 C   0  0  0  0  0  0  0  0  0  0  0  0
   -3.4920   25.2930  -30.6280 O   0  0  0  0  0  0  0  0  0  0  0  0
   -5.9780   23.4320  -30.7700 C   0  0  0  0  0  0  0  0  0  0  0  0
   -6.3130   24.6200  -30.0130 C   0  0  0  0  0  0  0  0  0  0  0  0
   -6.5820   25.5690  -29.4080 N   0  0  0  0  0  0  0  0  0  0  0  0
  1  2  1  0
  2  3  2  0
  3  4  1  0
  4  5  1  0
  5  6  1  0
  6  7  2  0
  7  8  1  0
  7  9  1  0
  9 10  1  0
  9 11  2  0
 11 12  1  0
 12 13  1  0
 13 14  1  0
 13 15  1  0
 13 16  1  0
 11 17  1  0
 17 18  1  0
 18 19  1  0
 19 20  1  0
 19 21  1  0
 19 22  1  0
 17 23  2  0
 23 24  1  0
  5 25  2  0
 25 26  1  0
 25 27  1  0
 27 28  1  0
 28 29  2  0
 29 30  1  0
 29 31  1  0
 31 32  1  0
 31 33  2  0
 33 34  1  0
 33 35  1  0
 35 36  1  0
 35 37  2  0
 37 38  1  0
 27 39  2  0
 39 40  1  0
 40 41  3  0
 39  3  1  0
 23  6  1  0
 37 28  1  0
M  CHG  2   4  -1  38  -1
M  END
>  <UniqueID>  (14) 
13

>  <SMILES>  (14) 
[H]/N=c1\[n-]c(-c2ccc(OC)c(OC)c2)cc(-c2ccccc2[O-])c1C#N

>  <Energy>  (14) 
56.32483909559077

>  <Genealogy>  (14) 
COc1ccc(-c2cc(-c3ccccc3[O-])c(C#N)c(=N)[n-]2)cc1OC (protonated)
[H]/N=c1\[n-]c(-c2ccc(OC)c(OC)c2)cc(-c2ccccc2[O-])c1C#N (cis-trans isomerization)
[H]/N=c1\[n-]c(-c2ccc(OC)c(OC)c2)cc(-c2ccccc2[O-])c1C#N (3D coordinates assigned)
[H]/N=c1\[n-]c(-c2ccc(OC)c(OC)c2)cc(-c2ccccc2[O-])c1C#N (optimized conformer: 56.32483909559077 kcal/mol)

>  <smiles>  (14) 
COc1ccc(-c2cc(-c3ccccc3O)c(C#N)c(=N)[nH]2)cc1OC

>  <score_type>  (14) 
oracle

>  <origin>  (14) 
adgpu

>  <m_score__min__energy>  (14) 
-10.81

>  <m_primary>  (14) 
energy

$$$$
14:0
     RDKit          3D

 38 40  0  0  0  0  0  0  0  0999 V2000
   -4.2380   23.6520  -30.4450 C   0  0  0  0  0  0  0  0  0  0  0  0
   -5.6960   24.0040  -30.1470 C   0  0  0  0  0  0  0  0  0  0  0  0
   -6.5070   24.2370  -31.4280 C   0  0  0  0  0  0  0  0  0  0  0  0
   -6.3970   23.1030  -32.3510 N   0  0  0  0  0  0  0  0  0  0  0  0
   -7.2930   21.9760  -32.3020 C   0  0  0  0  0  0  0  0  0  0  0  0
   -8.6550   22.1730  -32.0030 C   0  0  0  0  0  0  0  0  0  0  0  0
   -9.5160   21.0860  -31.8480 C   0  0  0  0  0  0  0  0  0  0  0  0
   -9.0340   19.7870  -31.9830 C   0  0  0  0  0  0  0  0  0  0  0  0
   -7.6910   19.5690  -32.2940 C   0  0  0  0  0  0  0  0  0  0  0  0
   -6.8110   20.6500  -32.4750 C   0  0  0  0  0  0  0  0  0  0  0  0
   -5.4230   20.3550  -32.8970 C   0  0  0  0  0  0  0  0  0  0  0  0
   -4.9950   19.1230  -33.2850 N   0  0  0  0  0  0  0  0  0  0  0  0
   -3.6950   19.3400  -33.5380 C   0  0  0  0  0  0  0  0  0  0  0  0
   -2.7430   18.4240  -33.9730 C   0  0  0  0  0  0  0  0  0  0  0  0
   -1.4270   18.8890  -34.1620 C   0  0  0  0  0  0  0  0  0  0  0  0
   -1.1000   20.2500  -33.9260 C   0  0  0  0  0  0  0  0  0  0  0  0
    0.3120   20.7230  -34.0930 C   0  0  0  0  0  0  0  0  0  0  0  0
   -2.0960   21.1430  -33.4700 C   0  0  0  0  0  0  0  0  0  0  0  0
   -3.3830   20.6410  -33.2960 C   0  0  0  0  0  0  0  0  0  0  0  0
   -4.4580   21.2630  -32.8950 O   0  0  0  0  0  0  0  0  0  0  0  0
   -3.6920   23.5202  -29.4992 H   0  0  0  0  0  0  0  0  0  0  0  0
   -4.1974   22.7183  -31.0251 H   0  0  0  0  0  0  0  0  0  0  0  0
   -3.7759   24.4644  -31.0251 H   0  0  0  0  0  0  0  0  0  0  0  0
   -6.1526   23.1768  -29.5837 H   0  0  0  0  0  0  0  0  0  0  0  0
   -5.7069   24.9373  -29.5649 H   0  0  0  0  0  0  0  0  0  0  0  0
   -7.5646   24.3778  -31.1602 H   0  0  0  0  0  0  0  0  0  0  0  0
   -6.1065   25.1296  -31.9308 H   0  0  0  0  0  0  0  0  0  0  0  0
   -5.6210   23.0970  -33.0500 H   0  0  0  0  0  0  0  0  0  0  0  0
   -9.0445   23.1955  -31.8904 H   0  0  0  0  0  0  0  0  0  0  0  0
  -10.5783   21.2559  -31.6186 H   0  0  0  0  0  0  0  0  0  0  0  0
   -9.7120   18.9319  -31.8445 H   0  0  0  0  0  0  0  0  0  0  0  0
   -7.3170   18.5398  -32.3986 H   0  0  0  0  0  0  0  0  0  0  0  0
   -3.0085   17.3735  -34.1627 H   0  0  0  0  0  0  0  0  0  0  0  0
   -0.6452   18.1908  -34.4957 H   0  0  0  0  0  0  0  0  0  0  0  0
    0.7671   20.8755  -33.1032 H   0  0  0  0  0  0  0  0  0  0  0  0
    0.8880   19.9688  -34.6492 H   0  0  0  0  0  0  0  0  0  0  0  0
    0.3174   21.6720  -34.6492 H   0  0  0  0  0  0  0  0  0  0  0  0
   -1.8627   22.1973  -33.2600 H   0  0  0  0  0  0  0  0  0  0  0  0
  1  2  1  0
  2  3  1  0
  3  4  1  0
  4  5  1  0
  5  6  2  0
  6  7  1  0
  7  8  2  0
  8  9  1  0
  9 10  2  0
 10 11  1  0
 11 12  2  0
 12 13  1  0
 13 14  2  0
 14 15  1  0
 15 16  2  0
 16 17  1  0
 16 18  1  0
 18 19  2  0
 19 20  1  0
 10  5  1  0
 20 11  1  0
 19 13  1  0
  1 21  1  0
  1 22  1  0
  1 23  1  0
  2 24  1  0
  2 25  1  0
  3 26  1  0
  3 27  1  0
  4 28  1  0
  6 29  1  0
  7 30  1  0
  8 31  1  0
  9 32  1  0
 14 33  1  0
 15 34  1  0
 17 35  1  0
 17 36  1  0
 17 37  1  0
 18 38  1  0
M  END
>  <UniqueID>  (15) 
14

>  <SMILES>  (15) 
CCCNc1ccccc1-c1nc2ccc(C)cc2o1

>  <Energy>  (15) 
76.8781184179363

>  <Genealogy>  (15) 
CCCNc1ccccc1-c1nc2ccc(C)cc2o1 (3D coordinates assigned)
CCCNc1ccccc1-c1nc2ccc(C)cc2o1 (optimized conformer: 76.8781184179363 kcal/mol)

>  <smiles>  (15) 
CCCNc1ccccc1-c1nc2ccc(C)cc2o1

>  <score_type>  (15) 
oracle

>  <origin>  (15) 
adgpu

>  <m_score__min__energy>  (15) 
-7.2999999999999998

>  <m_primary>  (15) 
energy

$$$$
15:0
     RDKit          3D

 36 37  0  0  0  0  0  0  0  0999 V2000
   -1.2210   23.4146  -26.3454 H   0  0  0  0  0  0  0  0  0  0  0  0
   -1.8060   23.8010  -27.1930 C   0  0  0  0  0  0  0  0  0  0  0  0
   -1.2770   24.7970  -28.0220 C   0  0  0  0  0  0  0  0  0  0  0  0
    0.1020   25.3250  -27.7870 C   0  0  0  0  0  0  0  0  0  0  0  0
    0.2879   25.3962  -26.7052 H   0  0  0  0  0  0  0  0  0  0  0  0
    0.8374   24.6449  -28.2415 H   0  0  0  0  0  0  0  0  0  0  0  0
    0.1951   26.3224  -28.2415 H   0  0  0  0  0  0  0  0  0  0  0  0
   -2.0120   25.2620  -29.0690 N   0  0  0  0  0  0  0  0  0  0  0  0
   -3.2660   24.8090  -29.3440 C   0  0  0  0  0  0  0  0  0  0  0  0
   -3.8820   25.2990  -30.3840 N   0  0  0  0  0  0  0  0  0  0  0  0
   -5.2180   25.0270  -30.8370 C   0  0  0  0  0  0  0  0  0  0  0  0
   -6.2010   25.6220  -30.3230 O   0  0  0  0  0  0  0  0  0  0  0  0
   -5.4360   24.1770  -31.9680 N   0  0  0  0  0  0  0  0  0  0  0  0
   -5.0970   22.7850  -32.0470 C   0  0  0  0  0  0  0  0  0  0  0  0
   -3.7970   22.3870  -31.7180 C   0  0  0  0  0  0  0  0  0  0  0  0
   -3.0603   23.1371  -31.3946 H   0  0  0  0  0  0  0  0  0  0  0  0
   -3.4300   21.0430  -31.7980 C   0  0  0  0  0  0  0  0  0  0  0  0
   -2.4077   20.7374  -31.5306 H   0  0  0  0  0  0  0  0  0  0  0  0
   -4.3550   20.0850  -32.2160 C   0  0  0  0  0  0  0  0  0  0  0  0
   -4.0584   19.0270  -32.2684 H   0  0  0  0  0  0  0  0  0  0  0  0
   -5.6640   20.4610  -32.5710 C   0  0  0  0  0  0  0  0  0  0  0  0
   -6.6390   19.4260  -33.0140 C   0  0  0  0  0  0  0  0  0  0  0  0
   -6.4720   18.8560  -34.1280 O   0  0  0  0  0  0  0  0  0  0  0  0
   -7.8350   19.0320  -32.1900 C   0  0  0  0  0  0  0  0  0  0  0  0
   -7.5379   18.9676  -31.1328 H   0  0  0  0  0  0  0  0  0  0  0  0
   -8.2013   18.0584  -32.5477 H   0  0  0  0  0  0  0  0  0  0  0  0
   -8.9580   20.0550  -32.3310 C   0  0  0  0  0  0  0  0  0  0  0  0
   -9.2988   20.3654  -31.3322 H   0  0  0  0  0  0  0  0  0  0  0  0
   -8.5876   20.9326  -32.8812 H   0  0  0  0  0  0  0  0  0  0  0  0
   -9.7973   19.6046  -32.8812 H   0  0  0  0  0  0  0  0  0  0  0  0
   -6.0170   21.8230  -32.5020 C   0  0  0  0  0  0  0  0  0  0  0  0
   -7.0254   22.1385  -32.8080 H   0  0  0  0  0  0  0  0  0  0  0  0
   -3.8200   23.7990  -28.5300 C   0  0  0  0  0  0  0  0  0  0  0  0
   -4.8248   23.4047  -28.7419 H   0  0  0  0  0  0  0  0  0  0  0  0
   -3.0820   23.3040  -27.4530 C   0  0  0  0  0  0  0  0  0  0  0  0
   -3.5082   22.5208  -26.8089 H   0  0  0  0  0  0  0  0  0  0  0  0
  1  2  1  0
  2  3  2  0
  3  4  1  0
  4  5  1  0
  4  6  1  0
  4  7  1  0
  3  8  1  0
  8  9  1  0
  9 10  2  0
 10 11  1  0
 11 12  2  0
 11 13  1  0
 13 14  1  0
 14 15  2  0
 15 16  1  0
 15 17  1  0
 17 18  1  0
 17 19  2  0
 19 20  1  0
 19 21  1  0
 21 22  1  0
 22 23  2  0
 22 24  1  0
 24 25  1  0
 24 26  1  0
 24 27  1  0
 27 28  1  0
 27 29  1  0
 27 30  1  0
 21 31  2  0
 31 32  1  0
  9 33  1  0
 33 34  1  0
 33 35  2  0
 35 36  1  0
 35  2  1  0
 31 14  1  0
M  CHG  2   8  -1  13  -1
M  END
>  <UniqueID>  (16) 
15

>  <SMILES>  (16) 
CCC(=O)c1cccc([N-]C(=O)/N=c2\cccc(C)[n-]2)c1

>  <Energy>  (16) 
43.8445759622832

>  <Genealogy>  (16) 
CCC(=O)c1cccc([N-]C(=O)N=c2cccc(C)[n-]2)c1 (protonated)
CCC(=O)c1cccc([N-]C(=O)/N=c2\cccc(C)[n-]2)c1 (cis-trans isomerization)
CCC(=O)c1cccc([N-]C(=O)/N=c2\cccc(C)[n-]2)c1 (3D coordinates assigned)
CCC(=O)c1cccc([N-]C(=O)/N=c2\cccc(C)[n-]2)c1 (optimized conformer: 43.8445759622832 kcal/mol)

>  <smiles>  (16) 
CCC(=O)c1cccc(NC(=O)N=c2cccc(C)[nH]2)c1

>  <score_type>  (16) 
oracle

>  <origin>  (16) 
adgpu

>  <m_score__min__energy>  (16) 
-10.42

>  <m_primary>  (16) 
energy

$$$$
16:0
     RDKit          3D

 32 34  0  0  0  0  0  0  0  0999 V2000
   -6.4440   19.7800  -34.0580 O   0  0  0  0  0  0  0  0  0  0  0  0
   -7.1270   20.4020  -33.0150 C   0  0  0  0  0  0  0  0  0  0  0  0
   -8.0730   19.6960  -32.2600 C   0  0  0  0  0  0  0  0  0  0  0  0
   -8.7460   20.3290  -31.2110 C   0  0  0  0  0  0  0  0  0  0  0  0
   -8.4820   21.6700  -30.9150 C   0  0  0  0  0  0  0  0  0  0  0  0
   -7.5470   22.3900  -31.6760 C   0  0  0  0  0  0  0  0  0  0  0  0
   -7.2300   23.8180  -31.3320 C   0  0  0  0  0  0  0  0  0  0  0  0
   -5.8460   23.9230  -30.8860 N   0  0  0  0  0  0  0  0  0  0  0  0
   -5.2190   23.1130  -30.0160 C   0  0  0  0  0  0  0  0  0  0  0  0
   -3.9560   23.6470  -29.8360 C   0  0  0  0  0  0  0  0  0  0  0  0
   -2.8690   23.1320  -28.9700 C   0  0  0  0  0  0  0  0  0  0  0  0
   -3.0350   21.9580  -28.2090 C   0  0  0  0  0  0  0  0  0  0  0  0
   -1.9980   21.4890  -27.3970 C   0  0  0  0  0  0  0  0  0  0  0  0
   -0.7870   22.1830  -27.3330 C   0  0  0  0  0  0  0  0  0  0  0  0
   -0.6110   23.3480  -28.0830 C   0  0  0  0  0  0  0  0  0  0  0  0
   -1.6440   23.8220  -28.8970 C   0  0  0  0  0  0  0  0  0  0  0  0
   -3.8640   24.7630  -30.5910 N   0  0  0  0  0  0  0  0  0  0  0  0
   -5.0260   24.9090  -31.2110 N   0  0  0  0  0  0  0  0  0  0  0  0
   -6.8630   21.7450  -32.7200 C   0  0  0  0  0  0  0  0  0  0  0  0
   -6.8770   19.6340  -34.9620 H   0  0  0  0  0  0  0  0  0  0  0  0
   -8.2863   18.6423  -32.4931 H   0  0  0  0  0  0  0  0  0  0  0  0
   -9.4849   19.7711  -30.6171 H   0  0  0  0  0  0  0  0  0  0  0  0
   -9.0082   22.1621  -30.0838 H   0  0  0  0  0  0  0  0  0  0  0  0
   -7.3760   24.4489  -32.2212 H   0  0  0  0  0  0  0  0  0  0  0  0
   -7.8980   24.1541  -30.5253 H   0  0  0  0  0  0  0  0  0  0  0  0
   -5.6278   22.2081  -29.5427 H   0  0  0  0  0  0  0  0  0  0  0  0
   -3.9861   21.4072  -28.2540 H   0  0  0  0  0  0  0  0  0  0  0  0
   -2.1359   20.5710  -26.8068 H   0  0  0  0  0  0  0  0  0  0  0  0
    0.0269   21.8122  -26.6926 H   0  0  0  0  0  0  0  0  0  0  0  0
    0.3427   23.8939  -28.0331 H   0  0  0  0  0  0  0  0  0  0  0  0
   -1.4987   24.7405  -29.4846 H   0  0  0  0  0  0  0  0  0  0  0  0
   -6.1162   22.2980  -33.3087 H   0  0  0  0  0  0  0  0  0  0  0  0
  1  2  1  0
  2  3  2  0
  3  4  1  0
  4  5  2  0
  5  6  1  0
  6  7  1  0
  7  8  1  0
  8  9  1  0
  9 10  2  0
 10 11  1  0
 11 12  2  0
 12 13  1  0
 13 14  2  0
 14 15  1  0
 15 16  2  0
 10 17  1  0
 17 18  2  0
  6 19  2  0
 19  2  1  0
 18  8  1  0
 16 11  1  0
  1 20  1  0
  3 21  1  0
  4 22  1  0
  5 23  1  0
  7 24  1  0
  7 25  1  0
  9 26  1  0
 12 27  1  0
 13 28  1  0
 14 29  1  0
 15 30  1  0
 16 31  1  0
 19 32  1  0
M  END
>  <UniqueID>  (17) 
16

>  <SMILES>  (17) 
Oc1cccc(Cn2cc(-c3ccccc3)nn2)c1

>  <Energy>  (17) 
68.72196171739866

>  <Genealogy>  (17) 
Oc1cccc(Cn2cc(-c3ccccc3)nn2)c1 (3D coordinates assigned)
Oc1cccc(Cn2cc(-c3ccccc3)nn2)c1 (optimized conformer: 68.72196171739866 kcal/mol)

>  <smiles>  (17) 
Oc1cccc(Cn2cc(-c3ccccc3)nn2)c1

>  <score_type>  (17) 
oracle

>  <origin>  (17) 
adgpu

>  <m_score__min__energy>  (17) 
-8.8499999999999996

>  <m_primary>  (17) 
energy

$$$$
17:0
     RDKit          3D

 60 64  0  0  0  0  0  0  0  0999 V2000
    1.1970   26.5010  -23.7170 C   0  0  0  0  0  0  0  0  0  0  0  0
    0.0940   27.4640  -23.8800 N   0  0  0  0  0  0  0  0  0  0  0  0
    0.3410   28.3930  -25.0110 C   0  0  0  0  0  0  0  0  0  0  0  0
   -0.8490   28.5100  -25.9730 C   0  0  0  0  0  0  0  0  0  0  0  0
   -1.3150   27.1840  -26.4320 N   0  0  0  0  0  0  0  0  0  0  0  0
   -0.4620   26.6480  -27.5140 C   0  0  0  0  0  0  0  0  0  0  0  0
   -1.0010   25.3740  -27.9960 N   0  0  0  0  0  0  0  0  0  0  0  0
   -1.9770   25.2940  -28.8870 N   0  0  0  0  0  0  0  0  0  0  0  0
   -2.2550   23.9810  -29.0360 C   0  0  0  0  0  0  0  0  0  0  0  0
   -3.2800   23.4880  -29.9880 C   0  0  0  0  0  0  0  0  0  0  0  0
   -4.6150   23.9280  -29.9300 C   0  0  0  0  0  0  0  0  0  0  0  0
   -5.5640   23.4350  -30.8310 C   0  0  0  0  0  0  0  0  0  0  0  0
   -5.2100   22.4610  -31.7680 C   0  0  0  0  0  0  0  0  0  0  0  0
   -6.1850   21.9900  -32.6570 O   0  0  0  0  0  0  0  0  0  0  0  0
   -6.9780   20.8530  -32.4490 C   0  0  0  0  0  0  0  0  0  0  0  0
   -8.2740   21.0150  -31.9440 C   0  0  0  0  0  0  0  0  0  0  0  0
   -9.0880   19.9030  -31.7170 C   0  0  0  0  0  0  0  0  0  0  0  0
   -8.6070   18.6180  -31.9780 C   0  0  0  0  0  0  0  0  0  0  0  0
   -7.3080   18.4430  -32.4610 C   0  0  0  0  0  0  0  0  0  0  0  0
   -6.4900   19.5550  -32.6910 C   0  0  0  0  0  0  0  0  0  0  0  0
   -3.8840   22.0060  -31.8200 C   0  0  0  0  0  0  0  0  0  0  0  0
   -2.9280   22.5120  -30.9340 C   0  0  0  0  0  0  0  0  0  0  0  0
   -1.4670   23.2170  -28.2370 N   0  0  0  0  0  0  0  0  0  0  0  0
   -1.5560   21.8060  -27.9700 C   0  0  0  0  0  0  0  0  0  0  0  0
   -2.7400   21.2600  -27.4490 C   0  0  0  0  0  0  0  0  0  0  0  0
   -2.8190   19.8910  -27.1690 C   0  0  0  0  0  0  0  0  0  0  0  0
   -1.7190   19.0600  -27.4100 C   0  0  0  0  0  0  0  0  0  0  0  0
   -0.5390   19.5970  -27.9320 C   0  0  0  0  0  0  0  0  0  0  0  0
   -0.4560   20.9660  -28.2110 C   0  0  0  0  0  0  0  0  0  0  0  0
   -0.6890   24.1210  -27.6040 C   0  0  0  0  0  0  0  0  0  0  0  0
    0.4120   23.7510  -26.4400 S   0  0  0  0  0  0  0  0  0  0  0  0
   -1.5070   26.2050  -25.3310 C   0  0  0  0  0  0  0  0  0  0  0  0
   -1.2160   26.7830  -23.9350 C   0  0  0  0  0  0  0  0  0  0  0  0
    1.3851   26.3368  -22.6457 H   0  0  0  0  0  0  0  0  0  0  0  0
    0.9240   25.5470  -24.1918 H   0  0  0  0  0  0  0  0  0  0  0  0
    2.1054   26.9002  -24.1918 H   0  0  0  0  0  0  0  0  0  0  0  0
    0.5584   29.3907  -24.6019 H   0  0  0  0  0  0  0  0  0  0  0  0
    1.1860   27.9872  -25.5867 H   0  0  0  0  0  0  0  0  0  0  0  0
   -1.6760   29.0191  -25.4564 H   0  0  0  0  0  0  0  0  0  0  0  0
   -0.5222   29.0819  -26.8540 H   0  0  0  0  0  0  0  0  0  0  0  0
   -0.4328   27.3683  -28.3449 H   0  0  0  0  0  0  0  0  0  0  0  0
    0.5536   26.4847  -27.1242 H   0  0  0  0  0  0  0  0  0  0  0  0
   -4.9145   24.6651  -29.1704 H   0  0  0  0  0  0  0  0  0  0  0  0
   -6.5954   23.8163  -30.8018 H   0  0  0  0  0  0  0  0  0  0  0  0
   -8.6532   22.0240  -31.7248 H   0  0  0  0  0  0  0  0  0  0  0  0
  -10.1094   20.0394  -31.3321 H   0  0  0  0  0  0  0  0  0  0  0  0
   -9.2512   17.7436  -31.8032 H   0  0  0  0  0  0  0  0  0  0  0  0
   -6.9277   17.4303  -32.6607 H   0  0  0  0  0  0  0  0  0  0  0  0
   -5.4639   19.4145  -33.0616 H   0  0  0  0  0  0  0  0  0  0  0  0
   -3.5948   21.2470  -32.5618 H   0  0  0  0  0  0  0  0  0  0  0  0
   -1.8928   22.1428  -30.9784 H   0  0  0  0  0  0  0  0  0  0  0  0
   -3.6074   21.9097  -27.2605 H   0  0  0  0  0  0  0  0  0  0  0  0
   -3.7475   19.4673  -26.7587 H   0  0  0  0  0  0  0  0  0  0  0  0
   -1.7831   17.9844  -27.1886 H   0  0  0  0  0  0  0  0  0  0  0  0
    0.3248   18.9435  -28.1236 H   0  0  0  0  0  0  0  0  0  0  0  0
    0.4744   21.3860  -28.6207 H   0  0  0  0  0  0  0  0  0  0  0  0
   -2.5504   25.8573  -25.3528 H   0  0  0  0  0  0  0  0  0  0  0  0
   -0.7900   25.3876  -25.4975 H   0  0  0  0  0  0  0  0  0  0  0  0
   -2.0036   27.5070  -23.6791 H   0  0  0  0  0  0  0  0  0  0  0  0
   -1.1952   25.9481  -23.2191 H   0  0  0  0  0  0  0  0  0  0  0  0
  1  2  1  0
  2  3  1  0
  3  4  1  0
  4  5  1  0
  5  6  1  0
  6  7  1  0
  7  8  1  0
  8  9  2  0
  9 10  1  0
 10 11  2  0
 11 12  1  0
 12 13  2  0
 13 14  1  0
 14 15  1  0
 15 16  2  0
 16 17  1  0
 17 18  2  0
 18 19  1  0
 19 20  2  0
 13 21  1  0
 21 22  2  0
  9 23  1  0
 23 24  1  0
 24 25  2  0
 25 26  1  0
 26 27  2  0
 27 28  1  0
 28 29  2  0
 23 30  1  0
 30 31  2  0
  5 32  1  0
 32 33  1  0
 33  2  1  0
 30  7  1  0
 22 10  1  0
 29 24  1  0
 20 15  1  0
  1 34  1  0
  1 35  1  0
  1 36  1  0
  3 37  1  0
  3 38  1  0
  4 39  1  0
  4 40  1  0
  6 41  1  0
  6 42  1  0
 11 43  1  0
 12 44  1  0
 16 45  1  0
 17 46  1  0
 18 47  1  0
 19 48  1  0
 20 49  1  0
 21 50  1  0
 22 51  1  0
 25 52  1  0
 26 53  1  0
 27 54  1  0
 28 55  1  0
 29 56  1  0
 32 57  1  0
 32 58  1  0
 33 59  1  0
 33 60  1  0
M  END
>  <UniqueID>  (18) 
17

>  <SMILES>  (18) 
CN1CCN(Cn2nc(-c3ccc(Oc4ccccc4)cc3)n(-c3ccccc3)c2=S)CC1

>  <Energy>  (18) 
133.12748886734713

>  <Genealogy>  (18) 
CN1CCN(Cn2nc(-c3ccc(Oc4ccccc4)cc3)n(-c3ccccc3)c2=S)CC1 (3D coordinates assigned)
CN1CCN(Cn2nc(-c3ccc(Oc4ccccc4)cc3)n(-c3ccccc3)c2=S)CC1 (nonaromatic ring conformer: 133.12748886734713 kcal/mol)

>  <smiles>  (18) 
CN1CCN(Cn2nc(-c3ccc(Oc4ccccc4)cc3)n(-c3ccccc3)c2=S)CC1

>  <score_type>  (18) 
oracle

>  <origin>  (18) 
adgpu

>  <m_score__min__energy>  (18) 
-9.6600000000000001

>  <m_primary>  (18) 
energy

$$$$
18:0
     RDKit          3D

 43 46  0  0  0  0  0  0  0  0999 V2000
   -6.3090   16.8170  -30.5380 O   0  0  0  0  0  0  0  0  0  0  0  0
   -6.0730   17.0310  -31.7580 C   0  0  0  0  0  0  0  0  0  0  0  0
   -5.2990   16.0280  -32.5250 C   0  0  0  0  0  0  0  0  0  0  0  0
   -5.2430   16.0830  -33.9280 C   0  0  0  0  0  0  0  0  0  0  0  0
   -4.4920   15.1380  -34.6310 C   0  0  0  0  0  0  0  0  0  0  0  0
   -3.7950   14.1440  -33.9340 C   0  0  0  0  0  0  0  0  0  0  0  0
   -3.0320   13.1780  -34.6080 C   0  0  0  0  0  0  0  0  0  0  0  0
   -2.3460   12.2000  -33.8810 C   0  0  0  0  0  0  0  0  0  0  0  0
   -2.4180   12.1800  -32.4840 C   0  0  0  0  0  0  0  0  0  0  0  0
   -3.1770   13.1400  -31.8050 C   0  0  0  0  0  0  0  0  0  0  0  0
   -3.8670   14.1220  -32.5250 C   0  0  0  0  0  0  0  0  0  0  0  0
   -4.6050   15.0570  -31.8690 N   0  0  0  0  0  0  0  0  0  0  0  0
   -6.5600   18.2440  -32.3710 N   0  0  0  0  0  0  0  0  0  0  0  0
   -5.7310   18.9610  -33.3580 C   0  0  0  0  0  0  0  0  0  0  0  0
   -6.1600   20.4280  -33.4940 C   0  0  0  0  0  0  0  0  0  0  0  0
   -6.4540   20.9860  -32.1660 N   0  0  0  0  0  0  0  0  0  0  0  0
   -5.7930   22.1810  -31.7060 C   0  0  0  0  0  0  0  0  0  0  0  0
   -6.4860   23.4040  -31.6510 C   0  0  0  0  0  0  0  0  0  0  0  0
   -5.8400   24.5650  -31.2180 C   0  0  0  0  0  0  0  0  0  0  0  0
   -4.4950   24.5180  -30.8380 C   0  0  0  0  0  0  0  0  0  0  0  0
   -3.8540   25.6730  -30.4060 O   0  0  0  0  0  0  0  0  0  0  0  0
   -3.7950   23.3100  -30.8950 C   0  0  0  0  0  0  0  0  0  0  0  0
   -4.4390   22.1460  -31.3300 C   0  0  0  0  0  0  0  0  0  0  0  0
   -7.3850   20.2790  -31.2730 C   0  0  0  0  0  0  0  0  0  0  0  0
   -7.7600   18.9040  -31.8370 C   0  0  0  0  0  0  0  0  0  0  0  0
   -5.7892   16.8682  -34.4713 H   0  0  0  0  0  0  0  0  0  0  0  0
   -4.4484   15.1748  -35.7295 H   0  0  0  0  0  0  0  0  0  0  0  0
   -2.9737   13.1901  -35.7064 H   0  0  0  0  0  0  0  0  0  0  0  0
   -1.7475   11.4435  -34.4096 H   0  0  0  0  0  0  0  0  0  0  0  0
   -1.8767   11.4078  -31.9178 H   0  0  0  0  0  0  0  0  0  0  0  0
   -3.2312   13.1227  -30.7065 H   0  0  0  0  0  0  0  0  0  0  0  0
   -4.6799   18.9245  -33.0357 H   0  0  0  0  0  0  0  0  0  0  0  0
   -5.8584   18.4724  -34.3353 H   0  0  0  0  0  0  0  0  0  0  0  0
   -5.3475   21.0043  -33.9606 H   0  0  0  0  0  0  0  0  0  0  0  0
   -7.0625   20.4859  -34.1202 H   0  0  0  0  0  0  0  0  0  0  0  0
   -7.5435   23.4467  -31.9508 H   0  0  0  0  0  0  0  0  0  0  0  0
   -6.3899   25.5167  -31.1760 H   0  0  0  0  0  0  0  0  0  0  0  0
   -2.7366   23.2738  -30.5976 H   0  0  0  0  0  0  0  0  0  0  0  0
   -3.8824   21.1984  -31.3779 H   0  0  0  0  0  0  0  0  0  0  0  0
   -6.9081   20.1457  -30.2907 H   0  0  0  0  0  0  0  0  0  0  0  0
   -8.3023   20.8792  -31.1814 H   0  0  0  0  0  0  0  0  0  0  0  0
   -8.1918   18.2856  -31.0363 H   0  0  0  0  0  0  0  0  0  0  0  0
   -8.4966   19.0297  -32.6443 H   0  0  0  0  0  0  0  0  0  0  0  0
  1  2  2  0
  2  3  1  0
  3  4  2  0
  4  5  1  0
  5  6  2  0
  6  7  1  0
  7  8  2  0
  8  9  1  0
  9 10  2  0
 10 11  1  0
 11 12  2  0
  2 13  1  0
 13 14  1  0
 14 15  1  0
 15 16  1  0
 16 17  1  0
 17 18  2  0
 18 19  1  0
 19 20  2  0
 20 21  1  0
 20 22  1  0
 22 23  2  0
 16 24  1  0
 24 25  1  0
 12  3  1  0
 25 13  1  0
 11  6  1  0
 23 17  1  0
  4 26  1  0
  5 27  1  0
  7 28  1  0
  8 29  1  0
  9 30  1  0
 10 31  1  0
 14 32  1  0
 14 33  1  0
 15 34  1  0
 15 35  1  0
 18 36  1  0
 19 37  1  0
 22 38  1  0
 23 39  1  0
 24 40  1  0
 24 41  1  0
 25 42  1  0
 25 43  1  0
M  CHG  1  21  -1
M  END
>  <UniqueID>  (19) 
18

>  <SMILES>  (19) 
O=C(c1ccc2ccccc2n1)N1CCN(c2ccc([O-])cc2)CC1

>  <Energy>  (19) 
58.73119988706701

>  <Genealogy>  (19) 
O=C(c1ccc2ccccc2n1)N1CCN(c2ccc([O-])cc2)CC1 (protonated)
O=C(c1ccc2ccccc2n1)N1CCN(c2ccc([O-])cc2)CC1 (3D coordinates assigned)
O=C(c1ccc2ccccc2n1)N1CCN(c2ccc([O-])cc2)CC1 (nonaromatic ring conformer: 58.73119988706701 kcal/mol)

>  <smiles>  (19) 
O=C(c1ccc2ccccc2n1)N1CCN(c2ccc(O)cc2)CC1

>  <score_type>  (19) 
oracle

>  <origin>  (19) 
adgpu

>  <m_score__min__energy>  (19) 
-10.44

>  <m_primary>  (19) 
energy

$$$$
19:0
     RDKit          3D

 48 50  0  0  0  0  0  0  0  0999 V2000
   -0.2100   21.5860  -34.6630 C   0  0  0  0  0  0  0  0  0  0  0  0
   -0.7540   20.2410  -34.2630 C   0  0  0  0  0  0  0  0  0  0  0  0
   -0.1190   19.0790  -34.7240 C   0  0  0  0  0  0  0  0  0  0  0  0
   -0.6250   17.8180  -34.4040 C   0  0  0  0  0  0  0  0  0  0  0  0
   -1.7770   17.6900  -33.6140 C   0  0  0  0  0  0  0  0  0  0  0  0
   -2.3110   16.3370  -33.3020 C   0  0  0  0  0  0  0  0  0  0  0  0
   -1.5110   15.4360  -32.9260 O   0  0  0  0  0  0  0  0  0  0  0  0
   -3.7110   16.0270  -33.3580 N   0  0  0  0  0  0  0  0  0  0  0  0
   -4.7950   16.9630  -33.3920 C   0  0  0  0  0  0  0  0  0  0  0  0
   -5.4430   17.2970  -32.2010 C   0  0  0  0  0  0  0  0  0  0  0  0
   -6.4630   18.2500  -32.1970 C   0  0  0  0  0  0  0  0  0  0  0  0
   -6.8370   18.8670  -33.4070 C   0  0  0  0  0  0  0  0  0  0  0  0
   -7.7170   19.8280  -33.4620 N   0  0  0  0  0  0  0  0  0  0  0  0
   -8.4360   20.4400  -32.3390 C   0  0  0  0  0  0  0  0  0  0  0  0
   -7.6110   21.5200  -31.6810 C   0  0  0  0  0  0  0  0  0  0  0  0
   -7.9640   22.0210  -30.4150 C   0  0  0  0  0  0  0  0  0  0  0  0
   -7.2290   23.0630  -29.8410 C   0  0  0  0  0  0  0  0  0  0  0  0
   -6.1170   23.5970  -30.5100 C   0  0  0  0  0  0  0  0  0  0  0  0
   -5.2230   24.9510  -29.8350 S   0  0  0  0  0  0  0  0  0  0  0  0
   -3.8610   25.2960  -30.8400 N   0  0  0  0  0  0  0  0  0  0  0  0
   -4.7450   24.6030  -28.4510 O   0  0  0  0  0  0  0  0  0  0  0  0
   -6.0980   26.1720  -29.7680 O   0  0  0  0  0  0  0  0  0  0  0  0
   -5.7310   23.0610  -31.7450 C   0  0  0  0  0  0  0  0  0  0  0  0
   -6.4730   22.0290  -32.3290 C   0  0  0  0  0  0  0  0  0  0  0  0
   -6.2360   18.4740  -34.5620 N   0  0  0  0  0  0  0  0  0  0  0  0
   -5.2490   17.5420  -34.5880 C   0  0  0  0  0  0  0  0  0  0  0  0
   -2.3950   18.8490  -33.1170 C   0  0  0  0  0  0  0  0  0  0  0  0
   -1.9120   20.1240  -33.4560 C   0  0  0  0  0  0  0  0  0  0  0  0
   -2.6360   21.3450  -32.9550 C   0  0  0  0  0  0  0  0  0  0  0  0
    0.0259   22.1692  -33.7607 H   0  0  0  0  0  0  0  0  0  0  0  0
    0.7035   21.4492  -35.2603 H   0  0  0  0  0  0  0  0  0  0  0  0
   -0.9618   22.1227  -35.2603 H   0  0  0  0  0  0  0  0  0  0  0  0
    0.7862   19.1618  -35.3435 H   0  0  0  0  0  0  0  0  0  0  0  0
   -0.1156   16.9163  -34.7748 H   0  0  0  0  0  0  0  0  0  0  0  0
   -5.1483   16.8068  -31.2614 H   0  0  0  0  0  0  0  0  0  0  0  0
   -6.9700   18.5167  -31.2579 H   0  0  0  0  0  0  0  0  0  0  0  0
   -9.3723   20.8813  -32.7112 H   0  0  0  0  0  0  0  0  0  0  0  0
   -8.6429   19.6587  -31.5928 H   0  0  0  0  0  0  0  0  0  0  0  0
   -8.8208   21.5919  -29.8748 H   0  0  0  0  0  0  0  0  0  0  0  0
   -7.5238   23.4658  -28.8608 H   0  0  0  0  0  0  0  0  0  0  0  0
   -3.9950   26.2620  -31.2140 H   0  0  0  0  0  0  0  0  0  0  0  0
   -4.8405   23.4533  -32.2579 H   0  0  0  0  0  0  0  0  0  0  0  0
   -6.1642   21.6141  -33.2998 H   0  0  0  0  0  0  0  0  0  0  0  0
   -4.8042   17.2400  -35.5477 H   0  0  0  0  0  0  0  0  0  0  0  0
   -3.2680   18.7574  -32.4541 H   0  0  0  0  0  0  0  0  0  0  0  0
   -2.6363   21.3455  -31.8550 H   0  0  0  0  0  0  0  0  0  0  0  0
   -2.1278   22.2489  -33.3220 H   0  0  0  0  0  0  0  0  0  0  0  0
   -3.6729   21.3328  -33.3220 H   0  0  0  0  0  0  0  0  0  0  0  0
  1  2  1  0
  2  3  2  0
  3  4  1  0
  4  5  2  0
  5  6  1  0
  6  7  2  0
  6  8  1  0
  8  9  1  0
  9 10  1  0
 10 11  2  0
 11 12  1  0
 12 13  2  3
 13 14  1  0
 14 15  1  0
 15 16  2  0
 16 17  1  0
 17 18  2  0
 18 19  1  0
 19 20  1  0
 19 21  2  0
 19 22  2  0
 18 23  1  0
 23 24  2  0
 12 25  1  0
 25 26  1  0
  5 27  1  0
 27 28  2  0
 28 29  1  0
 28  2  1  0
 26  9  2  0
 24 15  1  0
  1 30  1  0
  1 31  1  0
  1 32  1  0
  3 33  1  0
  4 34  1  0
 10 35  1  0
 11 36  1  0
 14 37  1  0
 14 38  1  0
 16 39  1  0
 17 40  1  0
 20 41  1  0
 23 42  1  0
 24 43  1  0
 26 44  1  0
 27 45  1  0
 29 46  1  0
 29 47  1  0
 29 48  1  0
M  CHG  3   8  -1  20  -1  25  -1
M  END
>  <UniqueID>  (20) 
19

>  <SMILES>  (20) 
Cc1ccc(C(=O)[N-]c2ccc(=NCc3ccc(S([NH-])(=O)=O)cc3)[n-]c2)cc1C

>  <Energy>  (20) 
60.172898785101445

>  <Genealogy>  (20) 
Cc1ccc(C(=O)[N-]c2ccc(=NCc3ccc(S([NH-])(=O)=O)cc3)[n-]c2)cc1C (protonated)
Cc1ccc(C(=O)[N-]c2ccc(=NCc3ccc(S([NH-])(=O)=O)cc3)[n-]c2)cc1C (3D coordinates assigned)
Cc1ccc(C(=O)[N-]c2ccc(=NCc3ccc(S([NH-])(=O)=O)cc3)[n-]c2)cc1C (optimized conformer: 60.172898785101445 kcal/mol)

>  <smiles>  (20) 
Cc1ccc(C(=O)Nc2ccc(=NCc3ccc(S(N)(=O)=O)cc3)[nH]c2)cc1C

>  <score_type>  (20) 
oracle

>  <origin>  (20) 
adgpu

>  <m_score__min__energy>  (20) 
-12

>  <m_primary>  (20) 
energy

$$$$
20:0
     RDKit          3D

 45 47  0  0  0  0  0  0  0  0999 V2000
   -8.7950   18.2700  -31.5860 C   0  0  0  0  0  0  0  0  0  0  0  0
   -7.4860   18.8290  -32.0720 C   0  0  0  0  0  0  0  0  0  0  0  0
   -6.3070   18.0800  -31.9140 C   0  0  0  0  0  0  0  0  0  0  0  0
   -5.0770   18.6010  -32.3180 C   0  0  0  0  0  0  0  0  0  0  0  0
   -5.0100   19.8710  -32.8870 C   0  0  0  0  0  0  0  0  0  0  0  0
   -6.1690   20.6370  -33.0290 C   0  0  0  0  0  0  0  0  0  0  0  0
   -7.4160   20.1330  -32.6100 C   0  0  0  0  0  0  0  0  0  0  0  0
   -8.6120   20.9250  -32.6960 N   0  0  0  0  0  0  0  0  0  0  0  0
   -9.0100   22.2460  -31.6460 S   0  0  0  0  0  0  0  0  0  0  0  0
   -9.7860   21.7270  -30.4670 O   0  0  0  0  0  0  0  0  0  0  0  0
   -9.8590   23.2340  -32.3950 O   0  0  0  0  0  0  0  0  0  0  0  0
   -7.5270   22.9960  -31.0690 C   0  0  0  0  0  0  0  0  0  0  0  0
   -6.7750   23.8290  -31.9070 C   0  0  0  0  0  0  0  0  0  0  0  0
   -5.5350   24.3160  -31.4820 C   0  0  0  0  0  0  0  0  0  0  0  0
   -5.0420   23.9800  -30.2140 C   0  0  0  0  0  0  0  0  0  0  0  0
   -3.7320   24.3960  -29.8000 N   0  0  0  0  0  0  0  0  0  0  0  0
   -2.6550   23.4260  -29.6030 C   0  0  0  0  0  0  0  0  0  0  0  0
   -1.9170   23.7380  -28.3260 C   0  0  0  0  0  0  0  0  0  0  0  0
   -1.6480   22.7040  -27.4140 C   0  0  0  0  0  0  0  0  0  0  0  0
   -0.8990   22.9550  -26.2610 C   0  0  0  0  0  0  0  0  0  0  0  0
   -0.3990   24.2360  -26.0120 C   0  0  0  0  0  0  0  0  0  0  0  0
    0.3550   24.4680  -24.8640 O   0  0  0  0  0  0  0  0  0  0  0  0
   -0.6570   25.2710  -26.9190 C   0  0  0  0  0  0  0  0  0  0  0  0
   -1.4080   25.0290  -28.0740 C   0  0  0  0  0  0  0  0  0  0  0  0
   -1.6380   26.0720  -28.9630 O   0  0  0  0  0  0  0  0  0  0  0  0
   -5.8210   23.1900  -29.3570 C   0  0  0  0  0  0  0  0  0  0  0  0
   -7.0540   22.6940  -29.7860 C   0  0  0  0  0  0  0  0  0  0  0  0
   -8.8059   18.2653  -30.4861 H   0  0  0  0  0  0  0  0  0  0  0  0
   -9.6209   18.8939  -31.9582 H   0  0  0  0  0  0  0  0  0  0  0  0
   -8.9155   17.2419  -31.9582 H   0  0  0  0  0  0  0  0  0  0  0  0
   -6.3543   17.0754  -31.4684 H   0  0  0  0  0  0  0  0  0  0  0  0
   -4.1595   18.0084  -32.1871 H   0  0  0  0  0  0  0  0  0  0  0  0
   -4.0426   20.2710  -33.2249 H   0  0  0  0  0  0  0  0  0  0  0  0
   -6.1077   21.6421  -33.4716 H   0  0  0  0  0  0  0  0  0  0  0  0
   -7.1604   24.1005  -32.9009 H   0  0  0  0  0  0  0  0  0  0  0  0
   -4.9445   24.9651  -32.1453 H   0  0  0  0  0  0  0  0  0  0  0  0
   -3.6510   25.2970  -29.2770 H   0  0  0  0  0  0  0  0  0  0  0  0
   -3.0814   22.4139  -29.5409 H   0  0  0  0  0  0  0  0  0  0  0  0
   -1.9558   23.4811  -30.4504 H   0  0  0  0  0  0  0  0  0  0  0  0
   -2.0291   21.6906  -27.6085 H   0  0  0  0  0  0  0  0  0  0  0  0
   -0.7024   22.1415  -25.5471 H   0  0  0  0  0  0  0  0  0  0  0  0
   -0.0380   24.3510  -23.9380 H   0  0  0  0  0  0  0  0  0  0  0  0
   -0.2668   26.2804  -26.7221 H   0  0  0  0  0  0  0  0  0  0  0  0
   -5.4600   22.9601  -28.3437 H   0  0  0  0  0  0  0  0  0  0  0  0
   -7.6555   22.0642  -29.1140 H   0  0  0  0  0  0  0  0  0  0  0  0
  1  2  1  0
  2  3  2  0
  3  4  1  0
  4  5  2  0
  5  6  1  0
  6  7  2  0
  7  8  1  0
  8  9  1  0
  9 10  2  0
  9 11  2  0
  9 12  1  0
 12 13  2  0
 13 14  1  0
 14 15  2  0
 15 16  1  0
 16 17  1  0
 17 18  1  0
 18 19  2  0
 19 20  1  0
 20 21  2  0
 21 22  1  0
 21 23  1  0
 23 24  2  0
 24 25  1  0
 15 26  1  0
 26 27  2  0
  7  2  1  0
 27 12  1  0
 24 18  1  0
  1 28  1  0
  1 29  1  0
  1 30  1  0
  3 31  1  0
  4 32  1  0
  5 33  1  0
  6 34  1  0
 13 35  1  0
 14 36  1  0
 16 37  1  0
 17 38  1  0
 17 39  1  0
 19 40  1  0
 20 41  1  0
 22 42  1  0
 23 43  1  0
 26 44  1  0
 27 45  1  0
M  CHG  2   8  -1  25  -1
M  END
>  <UniqueID>  (21) 
20

>  <SMILES>  (21) 
Cc1ccccc1[N-]S(=O)(=O)c1ccc(NCc2ccc(O)cc2[O-])cc1

>  <Energy>  (21) 
50.95187763321748

>  <Genealogy>  (21) 
Cc1ccccc1[N-]S(=O)(=O)c1ccc(NCc2ccc(O)cc2[O-])cc1 (protonated)
Cc1ccccc1[N-]S(=O)(=O)c1ccc(NCc2ccc(O)cc2[O-])cc1 (3D coordinates assigned)
Cc1ccccc1[N-]S(=O)(=O)c1ccc(NCc2ccc(O)cc2[O-])cc1 (optimized conformer: 50.95187763321748 kcal/mol)

>  <smiles>  (21) 
Cc1ccccc1NS(=O)(=O)c1ccc(NCc2ccc(O)cc2O)cc1

>  <score_type>  (21) 
oracle

>  <origin>  (21) 
adgpu

>  <m_score__min__energy>  (21) 
-12.18

>  <m_primary>  (21) 
energy

$$$$
21:0
     RDKit          3D

 48 50  0  0  1  0  0  0  0  0999 V2000
   -4.5410   19.2420  -33.7680 C   0  0  0  0  0  0  0  0  0  0  0  0
   -5.4770   18.0380  -33.8990 C   0  0  0  0  0  0  0  0  0  0  0  0
   -6.8380   18.4460  -33.8170 N   0  0  0  0  0  0  0  0  0  0  0  0
   -7.3860   18.8590  -32.2590 S   0  0  0  0  0  0  0  0  0  0  0  0
   -8.7470   18.2060  -32.0780 O   0  0  0  0  0  0  0  0  0  0  0  0
   -6.4840   18.3310  -31.2070 O   0  0  0  0  0  0  0  0  0  0  0  0
   -7.6360   20.5700  -32.0310 C   0  0  0  0  0  0  0  0  0  0  0  0
   -8.8920   21.1380  -31.9600 C   0  0  0  0  0  0  0  0  0  0  0  0
   -9.0690   22.4930  -31.7800 C   0  0  0  0  0  0  0  0  0  0  0  0
   -7.9530   23.2890  -31.6680 C   0  0  0  0  0  0  0  0  0  0  0  0
   -6.6690   22.7610  -31.7330 C   0  0  0  0  0  0  0  0  0  0  0  0
   -5.5100   23.5850  -31.6180 N   0  0  0  0  0  0  0  0  0  0  0  0
   -4.8150   23.5090  -30.5450 C   0  0  0  0  0  0  0  0  0  0  0  0
   -5.1230   22.6880  -29.5200 N   0  0  0  0  0  0  0  0  0  0  0  0
   -4.3360   22.6650  -28.4170 C   0  0  0  0  0  0  0  0  0  0  0  0
   -4.6250   21.8560  -27.3870 F   0  0  0  0  0  0  0  0  0  0  0  0
   -3.2160   23.4670  -28.3150 C   0  0  0  0  0  0  0  0  0  0  0  0
   -2.9170   24.3000  -29.3750 C   0  0  0  0  0  0  0  0  0  0  0  0
   -1.8830   25.0740  -29.3390 N   0  0  0  0  0  0  0  0  0  0  0  0
   -1.0240   25.1000  -28.2260 C   0  0  0  0  0  0  0  0  0  0  0  0
    0.0340   24.2330  -28.0460 C   0  0  0  0  0  0  0  0  0  0  0  0
    0.8270   24.3390  -26.9100 C   0  0  0  0  0  0  0  0  0  0  0  0
    0.6000   25.2830  -25.9430 C   0  0  0  0  0  0  0  0  0  0  0  0
    1.4350   25.4150  -24.7210 C   0  0  0  0  0  0  0  0  0  0  0  0
   -0.4690   26.1530  -26.1330 C   0  0  0  0  0  0  0  0  0  0  0  0
   -1.2470   26.0490  -27.2490 C   0  0  0  0  0  0  0  0  0  0  0  0
   -3.7270   24.2920  -30.4540 N   0  0  0  0  0  0  0  0  0  0  0  0
   -6.5300   21.3900  -31.9160 C   0  0  0  0  0  0  0  0  0  0  0  0
   -4.3713   19.4603  -32.7033 H   0  0  0  0  0  0  0  0  0  0  0  0
   -3.5805   19.0142  -34.2533 H   0  0  0  0  0  0  0  0  0  0  0  0
   -4.9986   20.1167  -34.2533 H   0  0  0  0  0  0  0  0  0  0  0  0
   -5.3043   17.5506  -34.8699 H   0  0  0  0  0  0  0  0  0  0  0  0
   -5.2683   17.3374  -33.0770 H   0  0  0  0  0  0  0  0  0  0  0  0
   -7.1750   19.0850  -34.5650 H   0  0  0  0  0  0  0  0  0  0  0  0
   -9.7769   20.4908  -32.0496 H   0  0  0  0  0  0  0  0  0  0  0  0
  -10.0783   22.9272  -31.7272 H   0  0  0  0  0  0  0  0  0  0  0  0
   -8.0800   24.3720  -31.5232 H   0  0  0  0  0  0  0  0  0  0  0  0
   -5.9660   22.0840  -29.5960 H   0  0  0  0  0  0  0  0  0  0  0  0
   -2.5816   23.4429  -27.4167 H   0  0  0  0  0  0  0  0  0  0  0  0
    0.2490   23.4606  -28.7991 H   0  0  0  0  0  0  0  0  0  0  0  0
    1.6669   23.6403  -26.7824 H   0  0  0  0  0  0  0  0  0  0  0  0
    0.7986   25.3144  -23.8294 H   0  0  0  0  0  0  0  0  0  0  0  0
    2.2025   24.6270  -24.7145 H   0  0  0  0  0  0  0  0  0  0  0  0
    1.9220   26.4013  -24.7145 H   0  0  0  0  0  0  0  0  0  0  0  0
   -0.6874   26.9264  -25.3819 H   0  0  0  0  0  0  0  0  0  0  0  0
   -2.0856   26.7496  -27.3751 H   0  0  0  0  0  0  0  0  0  0  0  0
   -3.4580   24.9400  -31.2290 H   0  0  0  0  0  0  0  0  0  0  0  0
   -5.5229   20.9508  -31.9701 H   0  0  0  0  0  0  0  0  0  0  0  0
  1  2  1  0
  2  3  1  0
  3  4  1  0
  4  5  2  0
  4  6  2  0
  4  7  1  0
  7  8  2  0
  8  9  1  0
  9 10  2  0
 10 11  1  0
 11 12  1  0
 12 13  2  0
 13 14  1  0
 14 15  1  0
 15 16  1  0
 15 17  2  0
 17 18  1  0
 18 19  2  0
 19 20  1  0
 20 21  2  0
 21 22  1  0
 22 23  2  0
 23 24  1  0
 23 25  1  0
 25 26  2  0
 18 27  1  0
 11 28  2  0
 28  7  1  0
 27 13  1  0
 26 20  1  0
  1 29  1  0
  1 30  1  0
  1 31  1  0
  2 32  1  0
  2 33  1  0
  3 34  1  0
  8 35  1  0
  9 36  1  0
 10 37  1  0
 14 38  1  0
 17 39  1  0
 21 40  1  0
 22 41  1  0
 24 42  1  0
 24 43  1  0
 24 44  1  0
 25 45  1  0
 26 46  1  0
 27 47  1  0
 28 48  1  0
M  END
>  <smiles>  (22) 
CCNS(=O)(=O)c1cccc(N=c2[nH]c(F)cc(=Nc3ccc(C)cc3)[nH]2)c1

>  <score_type>  (22) 
oracle

>  <origin>  (22) 
adgpu

>  <m_score__min__energy>  (22) 
-9.6699999999999999

>  <m_primary>  (22) 
energy

$$$$
22:0
     RDKit          3D

 44 46  0  0  0  0  0  0  0  0999 V2000
   -2.6727   23.0828  -31.6609 H   0  0  0  0  0  0  0  0  0  0  0  0
   -3.6890   22.6920  -31.8170 C   0  0  0  0  0  0  0  0  0  0  0  0
   -3.8530   21.6060  -32.5130 N   0  0  0  0  0  0  0  0  0  0  0  0
   -2.8110   20.8310  -33.1340 C   0  0  0  0  0  0  0  0  0  0  0  0
   -1.4890   21.3030  -33.2220 C   0  0  0  0  0  0  0  0  0  0  0  0
   -1.2230   22.2721  -32.7746 H   0  0  0  0  0  0  0  0  0  0  0  0
   -0.5400   20.5690  -33.8560 N   0  0  0  0  0  0  0  0  0  0  0  0
   -0.8370   19.3710  -34.4230 C   0  0  0  0  0  0  0  0  0  0  0  0
    0.1880   18.6080  -35.0890 N   0  0  0  0  0  0  0  0  0  0  0  0
   -0.0030   17.1710  -35.3090 C   0  0  0  0  0  0  0  0  0  0  0  0
   -0.0713   16.6574  -34.3387 H   0  0  0  0  0  0  0  0  0  0  0  0
   -0.9308   17.0071  -35.8767 H   0  0  0  0  0  0  0  0  0  0  0  0
    0.8498   16.7704  -35.8767 H   0  0  0  0  0  0  0  0  0  0  0  0
    1.4140   19.2730  -35.5410 C   0  0  0  0  0  0  0  0  0  0  0  0
    2.0016   19.5917  -34.6675 H   0  0  0  0  0  0  0  0  0  0  0  0
    2.0083   18.5736  -36.1473 H   0  0  0  0  0  0  0  0  0  0  0  0
    1.1519   20.1526  -36.1473 H   0  0  0  0  0  0  0  0  0  0  0  0
   -2.1110   18.9020  -34.3630 N   0  0  0  0  0  0  0  0  0  0  0  0
   -3.1070   19.5900  -33.7420 C   0  0  0  0  0  0  0  0  0  0  0  0
   -4.4590   18.9880  -33.7300 C   0  0  0  0  0  0  0  0  0  0  0  0
   -4.9640   18.5150  -34.7850 O   0  0  0  0  0  0  0  0  0  0  0  0
   -5.2200   19.0100  -32.5160 N   0  0  0  0  0  0  0  0  0  0  0  0
   -6.6470   19.1170  -32.4040 C   0  0  0  0  0  0  0  0  0  0  0  0
   -7.4260   18.1140  -31.7960 C   0  0  0  0  0  0  0  0  0  0  0  0
   -6.9437   17.2057  -31.4057 H   0  0  0  0  0  0  0  0  0  0  0  0
   -8.8130   18.2700  -31.6870 C   0  0  0  0  0  0  0  0  0  0  0  0
   -9.4195   17.4798  -31.2204 H   0  0  0  0  0  0  0  0  0  0  0  0
   -9.4280   19.4280  -32.1700 C   0  0  0  0  0  0  0  0  0  0  0  0
  -10.5190   19.5450  -32.0919 H   0  0  0  0  0  0  0  0  0  0  0  0
   -8.6570   20.4370  -32.7520 C   0  0  0  0  0  0  0  0  0  0  0  0
   -9.1408   21.3518  -33.1251 H   0  0  0  0  0  0  0  0  0  0  0  0
   -7.2720   20.2860  -32.8610 C   0  0  0  0  0  0  0  0  0  0  0  0
   -6.6682   21.0894  -33.3082 H   0  0  0  0  0  0  0  0  0  0  0  0
   -4.8410   23.4140  -31.2300 C   0  0  0  0  0  0  0  0  0  0  0  0
   -6.1130   22.8200  -31.3090 C   0  0  0  0  0  0  0  0  0  0  0  0
   -6.2264   21.8398  -31.7951 H   0  0  0  0  0  0  0  0  0  0  0  0
   -7.2340   23.4610  -30.7770 C   0  0  0  0  0  0  0  0  0  0  0  0
   -8.2235   22.9856  -30.8468 H   0  0  0  0  0  0  0  0  0  0  0  0
   -7.1000   24.7040  -30.1570 C   0  0  0  0  0  0  0  0  0  0  0  0
   -7.9844   25.2097  -29.7422 H   0  0  0  0  0  0  0  0  0  0  0  0
   -5.8440   25.3060  -30.0630 C   0  0  0  0  0  0  0  0  0  0  0  0
   -5.7419   26.2847  -29.5713 H   0  0  0  0  0  0  0  0  0  0  0  0
   -4.7140   24.6710  -30.5910 C   0  0  0  0  0  0  0  0  0  0  0  0
   -3.4780   25.2960  -30.4640 O   0  0  0  0  0  0  0  0  0  0  0  0
  1  2  1  0
  2  3  2  0
  3  4  1  0
  4  5  2  0
  5  6  1  0
  5  7  1  0
  7  8  2  0
  8  9  1  0
  9 10  1  0
 10 11  1  0
 10 12  1  0
 10 13  1  0
  9 14  1  0
 14 15  1  0
 14 16  1  0
 14 17  1  0
  8 18  1  0
 18 19  2  0
 19 20  1  0
 20 21  2  0
 20 22  1  0
 22 23  1  0
 23 24  2  0
 24 25  1  0
 24 26  1  0
 26 27  1  0
 26 28  2  0
 28 29  1  0
 28 30  1  0
 30 31  1  0
 30 32  2  0
 32 33  1  0
  2 34  1  0
 34 35  2  0
 35 36  1  0
 35 37  1  0
 37 38  1  0
 37 39  2  0
 39 40  1  0
 39 41  1  0
 41 42  1  0
 41 43  2  0
 43 44  1  0
 19  4  1  0
 32 23  1  0
 43 34  1  0
M  CHG  2  22  -1  44  -1
M  END
>  <UniqueID>  (23) 
21

>  <SMILES>  (23) 
CN(C)c1ncc(/N=C/c2ccccc2[O-])c(C(=O)[N-]c2ccccc2)n1

>  <Energy>  (23) 
54.32852831249626

>  <Genealogy>  (23) 
CN(C)c1ncc(N=Cc2ccccc2[O-])c(C(=O)[N-]c2ccccc2)n1 (protonated)
CN(C)c1ncc(/N=C/c2ccccc2[O-])c(C(=O)[N-]c2ccccc2)n1 (cis-trans isomerization)
CN(C)c1ncc(/N=C/c2ccccc2[O-])c(C(=O)[N-]c2ccccc2)n1 (3D coordinates assigned)
CN(C)c1ncc(/N=C/c2ccccc2[O-])c(C(=O)[N-]c2ccccc2)n1 (optimized conformer: 54.32852831249626 kcal/mol)

>  <smiles>  (23) 
CN(C)c1ncc(N=Cc2ccccc2O)c(C(=O)Nc2ccccc2)n1

>  <score_type>  (23) 
oracle

>  <origin>  (23) 
adgpu

>  <m_score__min__energy>  (23) 
-11.390000000000001

>  <m_primary>  (23) 
energy

$$$$
23:0
     RDKit          3D

 59 62  0  0  0  0  0  0  0  0999 V2000
    1.2980   16.2330  -28.6930 C   0  0  0  0  0  0  0  0  0  0  0  0
    0.6420   17.1570  -29.5540 O   0  0  0  0  0  0  0  0  0  0  0  0
    0.1500   18.4120  -29.1540 C   0  0  0  0  0  0  0  0  0  0  0  0
   -0.5010   18.5890  -27.9200 C   0  0  0  0  0  0  0  0  0  0  0  0
   -0.9810   19.8440  -27.5430 C   0  0  0  0  0  0  0  0  0  0  0  0
   -0.8180   20.9520  -28.3870 C   0  0  0  0  0  0  0  0  0  0  0  0
   -1.3440   22.2840  -27.9940 C   0  0  0  0  0  0  0  0  0  0  0  0
   -0.6730   23.0610  -27.0320 C   0  0  0  0  0  0  0  0  0  0  0  0
   -1.1690   24.3140  -26.6650 C   0  0  0  0  0  0  0  0  0  0  0  0
   -2.3320   24.8090  -27.2560 C   0  0  0  0  0  0  0  0  0  0  0  0
   -3.0030   24.0570  -28.2340 C   0  0  0  0  0  0  0  0  0  0  0  0
   -4.2070   24.5330  -28.8530 N   0  0  0  0  0  0  0  0  0  0  0  0
   -4.4590   24.6060  -30.2640 C   0  0  0  0  0  0  0  0  0  0  0  0
   -4.1690   25.6690  -30.8750 O   0  0  0  0  0  0  0  0  0  0  0  0
   -5.0960   23.4910  -31.0050 C   0  0  0  0  0  0  0  0  0  0  0  0
   -4.3060   22.5860  -31.7300 C   0  0  0  0  0  0  0  0  0  0  0  0
   -4.8980   21.5210  -32.4120 C   0  0  0  0  0  0  0  0  0  0  0  0
   -6.2860   21.3590  -32.3950 C   0  0  0  0  0  0  0  0  0  0  0  0
   -7.0990   22.2800  -31.7130 C   0  0  0  0  0  0  0  0  0  0  0  0
   -8.5960   22.0990  -31.6540 C   0  0  0  0  0  0  0  0  0  0  0  0
   -9.2540   23.2160  -32.1410 F   0  0  0  0  0  0  0  0  0  0  0  0
   -8.9520   21.0000  -32.4130 F   0  0  0  0  0  0  0  0  0  0  0  0
   -9.0020   21.8950  -30.3460 F   0  0  0  0  0  0  0  0  0  0  0  0
   -6.4950   23.3370  -31.0100 C   0  0  0  0  0  0  0  0  0  0  0  0
   -2.5170   22.7920  -28.5840 C   0  0  0  0  0  0  0  0  0  0  0  0
   -0.1610   20.7800  -29.6160 C   0  0  0  0  0  0  0  0  0  0  0  0
    0.3110   19.5180  -30.0150 C   0  0  0  0  0  0  0  0  0  0  0  0
    1.0030   19.3730  -31.3590 C   0  0  0  0  0  0  0  0  0  0  0  0
    0.4360   20.2300  -32.4250 N   0  0  0  0  0  0  0  0  0  0  0  0
   -1.0140   20.0550  -32.6160 C   0  0  0  0  0  0  0  0  0  0  0  0
   -1.5670   21.1740  -33.5220 C   0  0  0  0  0  0  0  0  0  0  0  0
   -0.4890   21.9100  -34.2050 N   0  0  0  0  0  0  0  0  0  0  0  0
    0.4780   20.9810  -34.8000 C   0  0  0  0  0  0  0  0  0  0  0  0
    1.1600   20.1280  -33.7100 C   0  0  0  0  0  0  0  0  0  0  0  0
    1.1038   16.5065  -27.6454 H   0  0  0  0  0  0  0  0  0  0  0  0
    0.9163   15.2192  -28.8841 H   0  0  0  0  0  0  0  0  0  0  0  0
    2.3810   16.2591  -28.8841 H   0  0  0  0  0  0  0  0  0  0  0  0
   -0.6331   17.7301  -27.2456 H   0  0  0  0  0  0  0  0  0  0  0  0
   -1.4913   19.9651  -26.5761 H   0  0  0  0  0  0  0  0  0  0  0  0
    0.2476   22.6795  -26.5662 H   0  0  0  0  0  0  0  0  0  0  0  0
   -0.6412   24.9124  -25.9078 H   0  0  0  0  0  0  0  0  0  0  0  0
   -2.7246   25.7915  -26.9549 H   0  0  0  0  0  0  0  0  0  0  0  0
   -3.2142   22.7162  -31.7613 H   0  0  0  0  0  0  0  0  0  0  0  0
   -4.2696   20.8070  -32.9646 H   0  0  0  0  0  0  0  0  0  0  0  0
   -6.7441   20.5066  -32.9179 H   0  0  0  0  0  0  0  0  0  0  0  0
   -7.1228   24.0517  -30.4577 H   0  0  0  0  0  0  0  0  0  0  0  0
   -3.0573   22.1883  -29.3280 H   0  0  0  0  0  0  0  0  0  0  0  0
   -0.0135   21.6469  -30.2769 H   0  0  0  0  0  0  0  0  0  0  0  0
    2.0636   19.6356  -31.2319 H   0  0  0  0  0  0  0  0  0  0  0  0
    0.8596   18.3305  -31.6794 H   0  0  0  0  0  0  0  0  0  0  0  0
   -1.2041   19.0788  -33.0860 H   0  0  0  0  0  0  0  0  0  0  0  0
   -1.5148   20.1027  -31.6378 H   0  0  0  0  0  0  0  0  0  0  0  0
   -2.2266   20.7252  -34.2793 H   0  0  0  0  0  0  0  0  0  0  0  0
   -2.1175   21.8851  -32.8885 H   0  0  0  0  0  0  0  0  0  0  0  0
   -0.9180   22.4720  -34.9770 H   0  0  0  0  0  0  0  0  0  0  0  0
   -0.0457   20.3165  -35.5029 H   0  0  0  0  0  0  0  0  0  0  0  0
    1.2489   21.5633  -35.3259 H   0  0  0  0  0  0  0  0  0  0  0  0
    1.1734   19.0764  -34.0325 H   0  0  0  0  0  0  0  0  0  0  0  0
    2.1848   20.5004  -33.5646 H   0  0  0  0  0  0  0  0  0  0  0  0
  1  2  1  0
  2  3  1  0
  3  4  2  0
  4  5  1  0
  5  6  2  0
  6  7  1  0
  7  8  2  0
  8  9  1  0
  9 10  2  0
 10 11  1  0
 11 12  1  0
 12 13  1  0
 13 14  2  0
 13 15  1  0
 15 16  2  0
 16 17  1  0
 17 18  2  0
 18 19  1  0
 19 20  1  0
 20 21  1  0
 20 22  1  0
 20 23  1  0
 19 24  2  0
 11 25  2  0
  6 26  1  0
 26 27  2  0
 27 28  1  0
 28 29  1  0
 29 30  1  0
 30 31  1  0
 31 32  1  0
 32 33  1  0
 33 34  1  0
 27  3  1  0
 34 29  1  0
 25  7  1  0
 24 15  1  0
  1 35  1  0
  1 36  1  0
  1 37  1  0
  4 38  1  0
  5 39  1  0
  8 40  1  0
  9 41  1  0
 10 42  1  0
 16 43  1  0
 17 44  1  0
 18 45  1  0
 24 46  1  0
 25 47  1  0
 26 48  1  0
 28 49  1  0
 28 50  1  0
 30 51  1  0
 30 52  1  0
 31 53  1  0
 31 54  1  0
 32 55  1  0
 33 56  1  0
 33 57  1  0
 34 58  1  0
 34 59  1  0
M  CHG  1  12  -1
M  END
>  <UniqueID>  (24) 
22

>  <SMILES>  (24) 
COc1ccc(-c2cccc([N-]C(=O)c3cccc(C(F)(F)F)c3)c2)cc1CN1CCNCC1

>  <Energy>  (24) 
83.35564319711489

>  <Genealogy>  (24) 
COc1ccc(-c2cccc([N-]C(=O)c3cccc(C(F)(F)F)c3)c2)cc1CN1CCNCC1 (protonated)
COc1ccc(-c2cccc([N-]C(=O)c3cccc(C(F)(F)F)c3)c2)cc1CN1CCNCC1 (3D coordinates assigned)
COc1ccc(-c2cccc([N-]C(=O)c3cccc(C(F)(F)F)c3)c2)cc1CN1CCNCC1 (nonaromatic ring conformer: 83.35564319711489 kcal/mol)

>  <smiles>  (24) 
COc1ccc(-c2cccc(NC(=O)c3cccc(C(F)(F)F)c3)c2)cc1CN1CCNCC1

>  <score_type>  (24) 
oracle

>  <origin>  (24) 
adgpu

>  <m_score__min__energy>  (24) 
-11.24

>  <m_primary>  (24) 
energy

$$$$
24:0
     RDKit          3D

 56 59  0  0  0  0  0  0  0  0999 V2000
   -9.8620   19.3650  -33.0470 C   0  0  0  0  0  0  0  0  0  0  0  0
   -8.7390   20.1530  -32.5380 N   0  0  0  0  0  0  0  0  0  0  0  0
   -7.3890   19.6860  -32.7180 C   0  0  0  0  0  0  0  0  0  0  0  0
   -6.7240   19.8800  -33.9410 C   0  0  0  0  0  0  0  0  0  0  0  0
   -5.4130   19.4240  -34.1140 C   0  0  0  0  0  0  0  0  0  0  0  0
   -4.7510   18.7750  -33.0660 C   0  0  0  0  0  0  0  0  0  0  0  0
   -3.4010   18.3070  -33.2450 C   0  0  0  0  0  0  0  0  0  0  0  0
   -2.3150   17.9330  -33.3880 N   0  0  0  0  0  0  0  0  0  0  0  0
   -5.4040   18.5840  -31.8420 C   0  0  0  0  0  0  0  0  0  0  0  0
   -6.7150   19.0390  -31.6690 C   0  0  0  0  0  0  0  0  0  0  0  0
   -9.0500   21.6630  -31.7310 S   0  0  0  0  0  0  0  0  0  0  0  0
   -9.9500   21.4280  -30.5490 O   0  0  0  0  0  0  0  0  0  0  0  0
   -9.7570   22.5990  -32.6710 O   0  0  0  0  0  0  0  0  0  0  0  0
   -7.5370   22.3930  -31.1990 C   0  0  0  0  0  0  0  0  0  0  0  0
   -6.6150   22.8550  -32.1460 C   0  0  0  0  0  0  0  0  0  0  0  0
   -5.4150   23.4440  -31.7340 C   0  0  0  0  0  0  0  0  0  0  0  0
   -5.1210   23.5780  -30.3660 C   0  0  0  0  0  0  0  0  0  0  0  0
   -3.8600   24.2120  -29.9160 C   0  0  0  0  0  0  0  0  0  0  0  0
   -3.4860   25.2910  -30.4530 O   0  0  0  0  0  0  0  0  0  0  0  0
   -3.0290   23.5800  -28.9280 N   0  0  0  0  0  0  0  0  0  0  0  0
   -1.8260   24.1860  -28.4290 C   0  0  0  0  0  0  0  0  0  0  0  0
   -1.8870   25.4050  -27.7320 C   0  0  0  0  0  0  0  0  0  0  0  0
   -0.7210   25.9950  -27.2370 C   0  0  0  0  0  0  0  0  0  0  0  0
    0.5140   25.3740  -27.4300 C   0  0  0  0  0  0  0  0  0  0  0  0
    0.5870   24.1600  -28.1160 C   0  0  0  0  0  0  0  0  0  0  0  0
   -0.5750   23.5590  -28.6180 C   0  0  0  0  0  0  0  0  0  0  0  0
   -0.4250   22.0140  -29.5280 S   0  0  0  0  0  0  0  0  0  0  0  0
   -1.1760   21.0500  -28.2140 C   0  0  0  0  0  0  0  0  0  0  0  0
   -2.1940   20.1340  -28.5120 C   0  0  0  0  0  0  0  0  0  0  0  0
   -2.7640   19.3650  -27.4940 C   0  0  0  0  0  0  0  0  0  0  0  0
   -2.3270   19.5150  -26.1740 C   0  0  0  0  0  0  0  0  0  0  0  0
   -1.3230   20.4400  -25.8710 C   0  0  0  0  0  0  0  0  0  0  0  0
   -0.7490   21.2100  -26.8890 C   0  0  0  0  0  0  0  0  0  0  0  0
   -6.0450   23.1000  -29.4200 C   0  0  0  0  0  0  0  0  0  0  0  0
   -7.2460   22.5170  -29.8350 C   0  0  0  0  0  0  0  0  0  0  0  0
  -10.4387   18.9603  -32.2022 H   0  0  0  0  0  0  0  0  0  0  0  0
  -10.5116   20.0064  -33.6607 H   0  0  0  0  0  0  0  0  0  0  0  0
   -9.4799   18.5359  -33.6607 H   0  0  0  0  0  0  0  0  0  0  0  0
   -7.2377   20.3935  -34.7671 H   0  0  0  0  0  0  0  0  0  0  0  0
   -4.9014   19.5759  -35.0759 H   0  0  0  0  0  0  0  0  0  0  0  0
   -4.8853   18.0756  -31.0159 H   0  0  0  0  0  0  0  0  0  0  0  0
   -7.2221   18.8892  -30.7044 H   0  0  0  0  0  0  0  0  0  0  0  0
   -6.8353   22.7543  -33.2190 H   0  0  0  0  0  0  0  0  0  0  0  0
   -4.6969   23.8046  -32.4852 H   0  0  0  0  0  0  0  0  0  0  0  0
   -3.2070   22.5780  -28.6940 H   0  0  0  0  0  0  0  0  0  0  0  0
   -2.8581   25.8974  -27.5753 H   0  0  0  0  0  0  0  0  0  0  0  0
   -0.7765   26.9503  -26.6944 H   0  0  0  0  0  0  0  0  0  0  0  0
    1.4307   25.8414  -27.0413 H   0  0  0  0  0  0  0  0  0  0  0  0
    1.5621   23.6727  -28.2632 H   0  0  0  0  0  0  0  0  0  0  0  0
   -2.5447   20.0203  -29.5484 H   0  0  0  0  0  0  0  0  0  0  0  0
   -3.5573   18.6408  -27.7311 H   0  0  0  0  0  0  0  0  0  0  0  0
   -2.7730   18.9055  -25.3743 H   0  0  0  0  0  0  0  0  0  0  0  0
   -0.9841   20.5625  -24.8317 H   0  0  0  0  0  0  0  0  0  0  0  0
    0.0373   21.9408  -26.6490 H   0  0  0  0  0  0  0  0  0  0  0  0
   -5.8214   23.1853  -28.3464 H   0  0  0  0  0  0  0  0  0  0  0  0
   -7.9657   22.1540  -29.0865 H   0  0  0  0  0  0  0  0  0  0  0  0
  1  2  1  0
  2  3  1  0
  3  4  2  0
  4  5  1  0
  5  6  2  0
  6  7  1  0
  7  8  3  0
  6  9  1  0
  9 10  2  0
  2 11  1  0
 11 12  2  0
 11 13  2  0
 11 14  1  0
 14 15  2  0
 15 16  1  0
 16 17  2  0
 17 18  1  0
 18 19  2  0
 18 20  1  0
 20 21  1  0
 21 22  2  0
 22 23  1  0
 23 24  2  0
 24 25  1  0
 25 26  2  0
 26 27  1  0
 27 28  1  0
 28 29  2  0
 29 30  1  0
 30 31  2  0
 31 32  1  0
 32 33  2  0
 17 34  1  0
 34 35  2  0
 10  3  1  0
 35 14  1  0
 26 21  1  0
 33 28  1  0
  1 36  1  0
  1 37  1  0
  1 38  1  0
  4 39  1  0
  5 40  1  0
  9 41  1  0
 10 42  1  0
 15 43  1  0
 16 44  1  0
 20 45  1  0
 22 46  1  0
 23 47  1  0
 24 48  1  0
 25 49  1  0
 29 50  1  0
 30 51  1  0
 31 52  1  0
 32 53  1  0
 33 54  1  0
 34 55  1  0
 35 56  1  0
M  END
>  <UniqueID>  (25) 
23

>  <SMILES>  (25) 
CN(c1ccc(C#N)cc1)S(=O)(=O)c1ccc(C(=O)Nc2ccccc2Sc2ccccc2)cc1

>  <Energy>  (25) 
65.85127849642888

>  <Genealogy>  (25) 
CN(c1ccc(C#N)cc1)S(=O)(=O)c1ccc(C(=O)Nc2ccccc2Sc2ccccc2)cc1 (3D coordinates assigned)
CN(c1ccc(C#N)cc1)S(=O)(=O)c1ccc(C(=O)Nc2ccccc2Sc2ccccc2)cc1 (optimized conformer: 65.85127849642888 kcal/mol)

>  <smiles>  (25) 
CN(c1ccc(C#N)cc1)S(=O)(=O)c1ccc(C(=O)Nc2ccccc2Sc2ccccc2)cc1

>  <score_type>  (25) 
oracle

>  <origin>  (25) 
adgpu

>  <m_score__min__energy>  (25) 
-10.460000000000001

>  <m_primary>  (25) 
energy

$$$$
25:0
     RDKit          3D

 54 57  0  0  0  0  0  0  0  0999 V2000
   -3.0360   21.1360  -27.7200 C   0  0  0  0  0  0  0  0  0  0  0  0
   -2.5440   22.4790  -28.1720 C   0  0  0  0  0  0  0  0  0  0  0  0
   -1.3710   23.0220  -27.6260 C   0  0  0  0  0  0  0  0  0  0  0  0
   -0.9300   24.2960  -28.0180 C   0  0  0  0  0  0  0  0  0  0  0  0
    0.3550   24.8570  -27.4840 C   0  0  0  0  0  0  0  0  0  0  0  0
   -1.6700   25.0240  -28.9590 C   0  0  0  0  0  0  0  0  0  0  0  0
   -2.8660   24.5070  -29.4780 C   0  0  0  0  0  0  0  0  0  0  0  0
   -3.6270   25.2260  -30.4550 N   0  0  0  0  0  0  0  0  0  0  0  0
   -5.0600   25.2650  -30.5540 C   0  0  0  0  0  0  0  0  0  0  0  0
   -5.6270   26.3800  -30.6950 O   0  0  0  0  0  0  0  0  0  0  0  0
   -5.8920   24.0160  -30.6010 C   0  0  0  0  0  0  0  0  0  0  0  0
   -6.7370   23.8710  -32.2100 S   0  0  0  0  0  0  0  0  0  0  0  0
   -7.2900   22.1830  -31.9320 C   0  0  0  0  0  0  0  0  0  0  0  0
   -8.5860   21.8420  -31.8170 N   0  0  0  0  0  0  0  0  0  0  0  0
   -8.6240   20.5340  -31.6130 N   0  0  0  0  0  0  0  0  0  0  0  0
   -7.3490   20.0970  -31.5960 C   0  0  0  0  0  0  0  0  0  0  0  0
   -6.9860   18.6420  -31.4960 C   0  0  0  0  0  0  0  0  0  0  0  0
   -6.2850   18.1800  -32.7460 C   0  0  0  0  0  0  0  0  0  0  0  0
   -6.4210   18.9080  -33.9390 C   0  0  0  0  0  0  0  0  0  0  0  0
   -5.7320   18.5100  -35.0900 C   0  0  0  0  0  0  0  0  0  0  0  0
   -4.9020   17.3860  -35.0570 C   0  0  0  0  0  0  0  0  0  0  0  0
   -4.7690   16.6510  -33.8770 C   0  0  0  0  0  0  0  0  0  0  0  0
   -5.4630   17.0400  -32.7260 C   0  0  0  0  0  0  0  0  0  0  0  0
   -6.4800   21.1150  -31.7930 N   0  0  0  0  0  0  0  0  0  0  0  0
   -5.0500   21.0670  -31.9140 C   0  0  0  0  0  0  0  0  0  0  0  0
   -4.4210   21.5490  -33.0760 C   0  0  0  0  0  0  0  0  0  0  0  0
   -3.0310   21.4890  -33.2020 C   0  0  0  0  0  0  0  0  0  0  0  0
   -2.2600   20.9390  -32.1730 C   0  0  0  0  0  0  0  0  0  0  0  0
   -0.5160   20.8550  -32.3370 Cl  0  0  0  0  0  0  0  0  0  0  0  0
   -2.8780   20.4580  -31.0150 C   0  0  0  0  0  0  0  0  0  0  0  0
   -4.2660   20.5270  -30.8820 C   0  0  0  0  0  0  0  0  0  0  0  0
   -3.2860   23.2270  -29.0980 C   0  0  0  0  0  0  0  0  0  0  0  0
   -3.0488   21.1012  -26.6206 H   0  0  0  0  0  0  0  0  0  0  0  0
   -4.0534   20.9699  -28.1040 H   0  0  0  0  0  0  0  0  0  0  0  0
   -2.3667   20.3520  -28.1040 H   0  0  0  0  0  0  0  0  0  0  0  0
   -0.7940   22.4466  -26.8871 H   0  0  0  0  0  0  0  0  0  0  0  0
    0.3307   24.8464  -26.3843 H   0  0  0  0  0  0  0  0  0  0  0  0
    1.1975   24.2448  -27.8381 H   0  0  0  0  0  0  0  0  0  0  0  0
    0.4788   25.8911  -27.8381 H   0  0  0  0  0  0  0  0  0  0  0  0
   -1.3103   26.0083  -29.2932 H   0  0  0  0  0  0  0  0  0  0  0  0
   -5.2409   23.1417  -30.4541 H   0  0  0  0  0  0  0  0  0  0  0  0
   -6.6494   24.0632  -29.8047 H   0  0  0  0  0  0  0  0  0  0  0  0
   -6.3197   18.4948  -30.6332 H   0  0  0  0  0  0  0  0  0  0  0  0
   -7.9083   18.0557  -31.3711 H   0  0  0  0  0  0  0  0  0  0  0  0
   -7.0716   19.7945  -33.9688 H   0  0  0  0  0  0  0  0  0  0  0  0
   -5.8438   19.0828  -36.0224 H   0  0  0  0  0  0  0  0  0  0  0  0
   -4.3536   17.0804  -35.9603 H   0  0  0  0  0  0  0  0  0  0  0  0
   -4.1177   15.7649  -33.8524 H   0  0  0  0  0  0  0  0  0  0  0  0
   -5.3649   16.4514  -31.8019 H   0  0  0  0  0  0  0  0  0  0  0  0
   -5.0265   21.9753  -33.8895 H   0  0  0  0  0  0  0  0  0  0  0  0
   -2.5434   21.8740  -34.1097 H   0  0  0  0  0  0  0  0  0  0  0  0
   -2.2698   20.0245  -30.2074 H   0  0  0  0  0  0  0  0  0  0  0  0
   -4.7474   20.1568  -29.9649 H   0  0  0  0  0  0  0  0  0  0  0  0
   -4.2055   22.8042  -29.5291 H   0  0  0  0  0  0  0  0  0  0  0  0
  1  2  1  0
  2  3  2  0
  3  4  1  0
  4  5  1  0
  4  6  2  0
  6  7  1  0
  7  8  1  0
  8  9  1  0
  9 10  2  0
  9 11  1  0
 11 12  1  0
 12 13  1  0
 13 14  2  0
 14 15  1  0
 15 16  2  0
 16 17  1  0
 17 18  1  0
 18 19  2  0
 19 20  1  0
 20 21  2  0
 21 22  1  0
 22 23  2  0
 16 24  1  0
 24 25  1  0
 25 26  2  0
 26 27  1  0
 27 28  2  0
 28 29  1  0
 28 30  1  0
 30 31  2  0
  7 32  2  0
 32  2  1  0
 24 13  1  0
 31 25  1  0
 23 18  1  0
  1 33  1  0
  1 34  1  0
  1 35  1  0
  3 36  1  0
  5 37  1  0
  5 38  1  0
  5 39  1  0
  6 40  1  0
 11 41  1  0
 11 42  1  0
 17 43  1  0
 17 44  1  0
 19 45  1  0
 20 46  1  0
 21 47  1  0
 22 48  1  0
 23 49  1  0
 26 50  1  0
 27 51  1  0
 30 52  1  0
 31 53  1  0
 32 54  1  0
M  CHG  1   8  -1
M  END
>  <UniqueID>  (26) 
24

>  <SMILES>  (26) 
Cc1cc(C)cc([N-]C(=O)CSc2nnc(Cc3ccccc3)n2-c2ccc(Cl)cc2)c1

>  <Energy>  (26) 
90.79437702660019

>  <Genealogy>  (26) 
Cc1cc(C)cc([N-]C(=O)CSc2nnc(Cc3ccccc3)n2-c2ccc(Cl)cc2)c1 (protonated)
Cc1cc(C)cc([N-]C(=O)CSc2nnc(Cc3ccccc3)n2-c2ccc(Cl)cc2)c1 (3D coordinates assigned)
Cc1cc(C)cc([N-]C(=O)CSc2nnc(Cc3ccccc3)n2-c2ccc(Cl)cc2)c1 (optimized conformer: 90.79437702660019 kcal/mol)

>  <smiles>  (26) 
Cc1cc(C)cc(NC(=O)CSc2nnc(Cc3ccccc3)n2-c2ccc(Cl)cc2)c1

>  <score_type>  (26) 
oracle

>  <origin>  (26) 
adgpu

>  <m_score__min__energy>  (26) 
-11.77

>  <m_primary>  (26) 
energy

$$$$
26:0
     RDKit          3D

 55 58  0  0  0  0  0  0  0  0999 V2000
   -3.8630   16.8930  -33.2580 C   0  0  0  0  0  0  0  0  0  0  0  0
   -4.2040   18.2480  -32.8060 N   0  0  0  0  0  0  0  0  0  0  0  0
   -5.5750   18.5480  -32.4750 C   0  0  0  0  0  0  0  0  0  0  0  0
   -6.5600   17.5540  -32.5340 C   0  0  0  0  0  0  0  0  0  0  0  0
   -7.8710   17.8920  -32.2080 C   0  0  0  0  0  0  0  0  0  0  0  0
   -8.1710   19.1630  -31.8360 N   0  0  0  0  0  0  0  0  0  0  0  0
   -7.2100   20.1270  -31.7740 C   0  0  0  0  0  0  0  0  0  0  0  0
   -7.5560   21.4710  -31.3740 N   0  0  0  0  0  0  0  0  0  0  0  0
   -8.9710   21.8480  -31.2850 C   0  0  0  0  0  0  0  0  0  0  0  0
   -6.5320   22.4540  -31.1100 C   0  0  0  0  0  0  0  0  0  0  0  0
   -5.2760   22.0610  -30.6140 C   0  0  0  0  0  0  0  0  0  0  0  0
   -4.2760   23.0100  -30.3810 C   0  0  0  0  0  0  0  0  0  0  0  0
   -4.5120   24.3590  -30.6630 C   0  0  0  0  0  0  0  0  0  0  0  0
   -3.5090   25.3000  -30.4480 O   0  0  0  0  0  0  0  0  0  0  0  0
   -5.7510   24.7580  -31.1670 C   0  0  0  0  0  0  0  0  0  0  0  0
   -6.7600   23.8120  -31.3850 C   0  0  0  0  0  0  0  0  0  0  0  0
   -5.9260   19.8100  -32.1000 N   0  0  0  0  0  0  0  0  0  0  0  0
   -3.2130   19.3020  -32.7930 C   0  0  0  0  0  0  0  0  0  0  0  0
   -3.3740   20.4800  -33.5460 C   0  0  0  0  0  0  0  0  0  0  0  0
   -2.3890   21.4660  -33.4790 C   0  0  0  0  0  0  0  0  0  0  0  0
   -1.3040   21.2880  -32.6850 N   0  0  0  0  0  0  0  0  0  0  0  0
   -1.1590   20.1610  -31.9400 C   0  0  0  0  0  0  0  0  0  0  0  0
   -0.1010   20.0330  -31.1940 N   0  0  0  0  0  0  0  0  0  0  0  0
    0.2090   18.9690  -30.2740 C   0  0  0  0  0  0  0  0  0  0  0  0
    0.4930   17.7010  -30.7990 C   0  0  0  0  0  0  0  0  0  0  0  0
    0.9130   16.6640  -29.9640 C   0  0  0  0  0  0  0  0  0  0  0  0
    1.0670   16.8820  -28.5900 C   0  0  0  0  0  0  0  0  0  0  0  0
    1.6620   15.5840  -27.5570 S   0  0  0  0  0  0  0  0  0  0  0  0
    2.9150   16.2290  -26.4700 C   0  0  0  0  0  0  0  0  0  0  0  0
    2.2450   14.4900  -28.4120 O   0  0  0  0  0  0  0  0  0  0  0  0
    0.5410   15.0110  -26.7330 O   0  0  0  0  0  0  0  0  0  0  0  0
    0.7920   18.1490  -28.0570 C   0  0  0  0  0  0  0  0  0  0  0  0
    0.3730   19.1900  -28.8920 C   0  0  0  0  0  0  0  0  0  0  0  0
   -2.1040   19.1810  -32.0090 N   0  0  0  0  0  0  0  0  0  0  0  0
   -3.7000   16.2451  -32.3841 H   0  0  0  0  0  0  0  0  0  0  0  0
   -4.6878   16.4903  -33.8642 H   0  0  0  0  0  0  0  0  0  0  0  0
   -2.9458   16.9286  -33.8642 H   0  0  0  0  0  0  0  0  0  0  0  0
   -6.3031   16.5267  -32.8319 H   0  0  0  0  0  0  0  0  0  0  0  0
   -8.6630   17.1299  -32.2518 H   0  0  0  0  0  0  0  0  0  0  0  0
   -9.2639   21.9260  -30.2276 H   0  0  0  0  0  0  0  0  0  0  0  0
   -9.1238   22.8182  -31.7803 H   0  0  0  0  0  0  0  0  0  0  0  0
   -9.5863   21.0825  -31.7803 H   0  0  0  0  0  0  0  0  0  0  0  0
   -5.0788   20.9987  -30.4078 H   0  0  0  0  0  0  0  0  0  0  0  0
   -3.3031   22.6952  -29.9756 H   0  0  0  0  0  0  0  0  0  0  0  0
   -5.9352   25.8185  -31.3935 H   0  0  0  0  0  0  0  0  0  0  0  0
   -7.7371   24.1345  -31.7740 H   0  0  0  0  0  0  0  0  0  0  0  0
   -4.2632   20.6213  -34.1780 H   0  0  0  0  0  0  0  0  0  0  0  0
   -2.4925   22.3878  -34.0702 H   0  0  0  0  0  0  0  0  0  0  0  0
    0.3840   17.5212  -31.8787 H   0  0  0  0  0  0  0  0  0  0  0  0
    1.1239   15.6711  -30.3878 H   0  0  0  0  0  0  0  0  0  0  0  0
    2.6100   16.0720  -25.4249 H   0  0  0  0  0  0  0  0  0  0  0  0
    3.8658   15.7083  -26.6567 H   0  0  0  0  0  0  0  0  0  0  0  0
    3.0437   17.3054  -26.6567 H   0  0  0  0  0  0  0  0  0  0  0  0
    0.9062   18.3254  -26.9773 H   0  0  0  0  0  0  0  0  0  0  0  0
    0.1708   20.1848  -28.4683 H   0  0  0  0  0  0  0  0  0  0  0  0
  1  2  1  0
  2  3  1  0
  3  4  2  0
  4  5  1  0
  5  6  2  0
  6  7  1  0
  7  8  1  0
  8  9  1  0
  8 10  1  0
 10 11  2  0
 11 12  1  0
 12 13  2  0
 13 14  1  0
 13 15  1  0
 15 16  2  0
  7 17  2  0
  2 18  1  0
 18 19  1  0
 19 20  2  0
 20 21  1  0
 21 22  1  0
 22 23  2  3
 23 24  1  0
 24 25  2  0
 25 26  1  0
 26 27  2  0
 27 28  1  0
 28 29  1  0
 28 30  2  0
 28 31  2  0
 27 32  1  0
 32 33  2  0
 22 34  1  0
 17  3  1  0
 34 18  2  0
 16 10  1  0
 33 24  1  0
  1 35  1  0
  1 36  1  0
  1 37  1  0
  4 38  1  0
  5 39  1  0
  9 40  1  0
  9 41  1  0
  9 42  1  0
 11 43  1  0
 12 44  1  0
 15 45  1  0
 16 46  1  0
 19 47  1  0
 20 48  1  0
 25 49  1  0
 26 50  1  0
 29 51  1  0
 29 52  1  0
 29 53  1  0
 32 54  1  0
 33 55  1  0
M  CHG  2  14  -1  21  -1
M  END
>  <UniqueID>  (27) 
25

>  <SMILES>  (27) 
CN(c1ccnc(N(C)c2ccc([O-])cc2)n1)c1cc[n-]c(=Nc2ccc(S(C)(=O)=O)cc2)n1

>  <Energy>  (27) 
70.43575634959743

>  <Genealogy>  (27) 
CN(c1ccnc(N(C)c2ccc([O-])cc2)n1)c1cc[n-]c(=Nc2ccc(S(C)(=O)=O)cc2)n1 (protonated)
CN(c1ccnc(N(C)c2ccc([O-])cc2)n1)c1cc[n-]c(=Nc2ccc(S(C)(=O)=O)cc2)n1 (3D coordinates assigned)
CN(c1ccnc(N(C)c2ccc([O-])cc2)n1)c1cc[n-]c(=Nc2ccc(S(C)(=O)=O)cc2)n1 (optimized conformer: 70.43575634959743 kcal/mol)

>  <smiles>  (27) 
CN(c1ccnc(N(C)c2ccc(O)cc2)n1)c1cc[nH]c(=Nc2ccc(S(C)(=O)=O)cc2)n1

>  <score_type>  (27) 
oracle

>  <origin>  (27) 
adgpu

>  <m_score__min__energy>  (27) 
-12.529999999999999

>  <m_primary>  (27) 
energy

$$$$
27:0
     RDKit          3D

 47 50  0  0  0  0  0  0  0  0999 V2000
   -1.1950   18.4560  -35.0400 O   0  0  0  0  0  0  0  0  0  0  0  0
   -0.7850   19.4630  -34.4030 C   0  0  0  0  0  0  0  0  0  0  0  0
   -1.1410   19.6550  -33.0250 N   0  0  0  0  0  0  0  0  0  0  0  0
   -1.9920   20.6790  -32.4890 C   0  0  0  0  0  0  0  0  0  0  0  0
   -3.2270   21.0150  -33.0740 C   0  0  0  0  0  0  0  0  0  0  0  0
   -4.0220   22.0210  -32.5150 C   0  0  0  0  0  0  0  0  0  0  0  0
   -3.5790   22.7260  -31.3880 C   0  0  0  0  0  0  0  0  0  0  0  0
   -4.5710   23.9930  -30.6710 S   0  0  0  0  0  0  0  0  0  0  0  0
   -3.8590   25.3140  -30.7550 O   0  0  0  0  0  0  0  0  0  0  0  0
   -4.8190   23.6600  -29.2290 O   0  0  0  0  0  0  0  0  0  0  0  0
   -6.1000   24.1230  -31.4870 N   0  0  0  0  0  0  0  0  0  0  0  0
   -6.9940   23.1790  -31.5040 C   0  0  0  0  0  0  0  0  0  0  0  0
   -8.1950   23.3800  -32.1950 C   0  0  0  0  0  0  0  0  0  0  0  0
   -9.1570   22.3650  -32.2060 C   0  0  0  0  0  0  0  0  0  0  0  0
   -8.9130   21.1660  -31.5290 C   0  0  0  0  0  0  0  0  0  0  0  0
   -7.7030   21.0000  -30.8520 C   0  0  0  0  0  0  0  0  0  0  0  0
   -6.7780   21.9980  -30.8550 N   0  0  0  0  0  0  0  0  0  0  0  0
   -2.3380   22.4130  -30.8210 C   0  0  0  0  0  0  0  0  0  0  0  0
   -1.5480   21.3980  -31.3720 C   0  0  0  0  0  0  0  0  0  0  0  0
    0.1010   20.4270  -35.0710 C   0  0  0  0  0  0  0  0  0  0  0  0
    0.0700   21.8060  -34.9310 C   0  0  0  0  0  0  0  0  0  0  0  0
    1.0420   22.3710  -35.6810 N   0  0  0  0  0  0  0  0  0  0  0  0
    1.3190   23.7800  -35.7850 C   0  0  0  0  0  0  0  0  0  0  0  0
    0.2960   24.6910  -36.1000 C   0  0  0  0  0  0  0  0  0  0  0  0
    0.5760   26.0560  -36.2220 C   0  0  0  0  0  0  0  0  0  0  0  0
    1.8780   26.5240  -36.0280 C   0  0  0  0  0  0  0  0  0  0  0  0
    2.9000   25.6290  -35.7140 C   0  0  0  0  0  0  0  0  0  0  0  0
    2.6260   24.2630  -35.5980 C   0  0  0  0  0  0  0  0  0  0  0  0
    1.6810   21.3600  -36.3090 C   0  0  0  0  0  0  0  0  0  0  0  0
    2.7310   21.5260  -37.2090 O   0  0  0  0  0  0  0  0  0  0  0  0
    1.1270   20.1510  -35.9530 C   0  0  0  0  0  0  0  0  0  0  0  0
    1.5140   18.8950  -36.4100 O   0  0  0  0  0  0  0  0  0  0  0  0
   -3.5687   20.4842  -33.9748 H   0  0  0  0  0  0  0  0  0  0  0  0
   -4.9985   22.2595  -32.9617 H   0  0  0  0  0  0  0  0  0  0  0  0
   -8.3800   24.3266  -32.7238 H   0  0  0  0  0  0  0  0  0  0  0  0
  -10.1042   22.5096  -32.7464 H   0  0  0  0  0  0  0  0  0  0  0  0
   -9.6651   20.3633  -31.5297 H   0  0  0  0  0  0  0  0  0  0  0  0
   -7.4974   20.0618  -30.3159 H   0  0  0  0  0  0  0  0  0  0  0  0
   -1.9827   22.9667  -29.9394 H   0  0  0  0  0  0  0  0  0  0  0  0
   -0.5710   21.1630  -30.9246 H   0  0  0  0  0  0  0  0  0  0  0  0
   -0.6420   22.3596  -34.3012 H   0  0  0  0  0  0  0  0  0  0  0  0
   -0.7313   24.3282  -36.2515 H   0  0  0  0  0  0  0  0  0  0  0  0
   -0.2300   26.7619  -36.4710 H   0  0  0  0  0  0  0  0  0  0  0  0
    2.0967   27.5979  -36.1229 H   0  0  0  0  0  0  0  0  0  0  0  0
    3.9241   25.9985  -35.5572 H   0  0  0  0  0  0  0  0  0  0  0  0
    3.4386   23.5613  -35.3588 H   0  0  0  0  0  0  0  0  0  0  0  0
    0.9350   18.0780  -36.2470 H   0  0  0  0  0  0  0  0  0  0  0  0
  1  2  2  0
  2  3  1  0
  3  4  1  0
  4  5  2  0
  5  6  1  0
  6  7  2  0
  7  8  1  0
  8  9  2  0
  8 10  2  0
  8 11  1  0
 11 12  2  3
 12 13  1  0
 13 14  2  0
 14 15  1  0
 15 16  2  0
 16 17  1  0
  7 18  1  0
 18 19  2  0
  2 20  1  0
 20 21  2  0
 21 22  1  0
 22 23  1  0
 23 24  2  0
 24 25  1  0
 25 26  2  0
 26 27  1  0
 27 28  2  0
 22 29  1  0
 29 30  1  0
 29 31  2  0
 31 32  1  0
 19  4  1  0
 31 20  1  0
 17 12  1  0
 28 23  1  0
  5 33  1  0
  6 34  1  0
 13 35  1  0
 14 36  1  0
 15 37  1  0
 16 38  1  0
 18 39  1  0
 19 40  1  0
 21 41  1  0
 24 42  1  0
 25 43  1  0
 26 44  1  0
 27 45  1  0
 28 46  1  0
 32 47  1  0
M  CHG  3   3  -1  17  -1  30  -1
M  END
>  <UniqueID>  (28) 
26

>  <SMILES>  (28) 
O=C([N-]c1ccc(S(=O)(=O)N=c2cccc[n-]2)cc1)c1cn(-c2ccccc2)c([O-])c1O

>  <Energy>  (28) 
92.3512437289775

>  <Genealogy>  (28) 
O=C([N-]c1ccc(S(=O)(=O)N=c2cccc[n-]2)cc1)c1cn(-c2ccccc2)c([O-])c1O (protonated)
O=C([N-]c1ccc(S(=O)(=O)N=c2cccc[n-]2)cc1)c1cn(-c2ccccc2)c([O-])c1O (3D coordinates assigned)
O=C([N-]c1ccc(S(=O)(=O)N=c2cccc[n-]2)cc1)c1cn(-c2ccccc2)c([O-])c1O (optimized conformer: 92.3512437289775 kcal/mol)

>  <smiles>  (28) 
O=C(Nc1ccc(S(=O)(=O)N=c2cccc[nH]2)cc1)c1cn(-c2ccccc2)c(O)c1O

>  <score_type>  (28) 
oracle

>  <origin>  (28) 
adgpu

>  <m_score__min__energy>  (28) 
-12.039999999999999

>  <m_primary>  (28) 
energy

$$$$
28:0
     RDKit          3D

 44 46  0  0  0  0  0  0  0  0999 V2000
   -6.1070   15.1610  -33.9490 C   0  0  0  0  0  0  0  0  0  0  0  0
   -6.3730   16.6240  -33.8020 C   0  0  0  0  0  0  0  0  0  0  0  0
   -5.6760   17.5530  -34.5830 C   0  0  0  0  0  0  0  0  0  0  0  0
   -5.9370   18.9140  -34.4240 C   0  0  0  0  0  0  0  0  0  0  0  0
   -6.8910   19.3430  -33.4970 C   0  0  0  0  0  0  0  0  0  0  0  0
   -7.1430   20.7150  -33.3700 O   0  0  0  0  0  0  0  0  0  0  0  0
   -6.5120   21.5510  -32.4380 C   0  0  0  0  0  0  0  0  0  0  0  0
   -5.1180   21.6620  -32.4730 C   0  0  0  0  0  0  0  0  0  0  0  0
   -4.4470   22.4840  -31.5640 C   0  0  0  0  0  0  0  0  0  0  0  0
   -5.1640   23.2150  -30.6000 C   0  0  0  0  0  0  0  0  0  0  0  0
   -4.4700   24.0950  -29.6290 C   0  0  0  0  0  0  0  0  0  0  0  0
   -3.8590   25.1150  -30.0490 O   0  0  0  0  0  0  0  0  0  0  0  0
   -4.4960   23.8130  -28.2190 N   0  0  0  0  0  0  0  0  0  0  0  0
   -3.7570   24.6190  -27.2500 C   0  0  0  0  0  0  0  0  0  0  0  0
   -2.2870   24.6030  -27.5710 C   0  0  0  0  0  0  0  0  0  0  0  0
   -1.7210   23.5340  -28.2820 C   0  0  0  0  0  0  0  0  0  0  0  0
   -0.3570   23.5550  -28.5840 C   0  0  0  0  0  0  0  0  0  0  0  0
    0.4130   24.6050  -28.1930 N   0  0  0  0  0  0  0  0  0  0  0  0
   -0.1110   25.6560  -27.5050 C   0  0  0  0  0  0  0  0  0  0  0  0
   -1.4710   25.6750  -27.1840 C   0  0  0  0  0  0  0  0  0  0  0  0
   -6.5670   23.1240  -30.5840 C   0  0  0  0  0  0  0  0  0  0  0  0
   -7.2360   22.3000  -31.4940 C   0  0  0  0  0  0  0  0  0  0  0  0
   -7.5450   18.3820  -32.6970 C   0  0  0  0  0  0  0  0  0  0  0  0
   -8.5360   18.7760  -31.6420 C   0  0  0  0  0  0  0  0  0  0  0  0
   -7.2760   17.0610  -32.8810 N   0  0  0  0  0  0  0  0  0  0  0  0
   -6.0235   14.7016  -32.9530 H   0  0  0  0  0  0  0  0  0  0  0  0
   -6.9345   14.6915  -34.5011 H   0  0  0  0  0  0  0  0  0  0  0  0
   -5.1672   15.0129  -34.5011 H   0  0  0  0  0  0  0  0  0  0  0  0
   -4.9292   17.2130  -35.3155 H   0  0  0  0  0  0  0  0  0  0  0  0
   -5.3905   19.6517  -35.0299 H   0  0  0  0  0  0  0  0  0  0  0  0
   -4.5449   21.0970  -33.2229 H   0  0  0  0  0  0  0  0  0  0  0  0
   -3.3503   22.5599  -31.6027 H   0  0  0  0  0  0  0  0  0  0  0  0
   -5.1070   23.0520  -27.8500 H   0  0  0  0  0  0  0  0  0  0  0  0
   -4.1247   25.6552  -27.2842 H   0  0  0  0  0  0  0  0  0  0  0  0
   -3.9085   24.1985  -26.2449 H   0  0  0  0  0  0  0  0  0  0  0  0
   -2.3461   22.6862  -28.5991 H   0  0  0  0  0  0  0  0  0  0  0  0
    0.0949   22.7200  -29.1394 H   0  0  0  0  0  0  0  0  0  0  0  0
    0.5368   26.4915  -27.2012 H   0  0  0  0  0  0  0  0  0  0  0  0
   -1.8980   26.5250  -26.6316 H   0  0  0  0  0  0  0  0  0  0  0  0
   -7.1430   23.7059  -29.8494 H   0  0  0  0  0  0  0  0  0  0  0  0
   -8.3340   22.2375  -31.4712 H   0  0  0  0  0  0  0  0  0  0  0  0
   -8.1005   18.6028  -30.6469 H   0  0  0  0  0  0  0  0  0  0  0  0
   -8.7853   19.8416  -31.7528 H   0  0  0  0  0  0  0  0  0  0  0  0
   -9.4489   18.1724  -31.7528 H   0  0  0  0  0  0  0  0  0  0  0  0
  1  2  1  0
  2  3  2  0
  3  4  1  0
  4  5  2  0
  5  6  1  0
  6  7  1  0
  7  8  2  0
  8  9  1  0
  9 10  2  0
 10 11  1  0
 11 12  2  0
 11 13  1  0
 13 14  1  0
 14 15  1  0
 15 16  2  0
 16 17  1  0
 17 18  2  0
 18 19  1  0
 19 20  2  0
 10 21  1  0
 21 22  2  0
  5 23  1  0
 23 24  1  0
 23 25  2  0
 25  2  1  0
 22  7  1  0
 20 15  1  0
  1 26  1  0
  1 27  1  0
  1 28  1  0
  3 29  1  0
  4 30  1  0
  8 31  1  0
  9 32  1  0
 13 33  1  0
 14 34  1  0
 14 35  1  0
 16 36  1  0
 17 37  1  0
 19 38  1  0
 20 39  1  0
 21 40  1  0
 22 41  1  0
 24 42  1  0
 24 43  1  0
 24 44  1  0
M  END
>  <UniqueID>  (29) 
27

>  <SMILES>  (29) 
Cc1ccc(Oc2ccc(C(=O)NCc3ccncc3)cc2)c(C)n1

>  <Energy>  (29) 
54.273322777162676

>  <Genealogy>  (29) 
Cc1ccc(Oc2ccc(C(=O)NCc3ccncc3)cc2)c(C)n1 (3D coordinates assigned)
Cc1ccc(Oc2ccc(C(=O)NCc3ccncc3)cc2)c(C)n1 (optimized conformer: 54.273322777162676 kcal/mol)

>  <smiles>  (29) 
Cc1ccc(Oc2ccc(C(=O)NCc3ccncc3)cc2)c(C)n1

>  <score_type>  (29) 
oracle

>  <origin>  (29) 
adgpu

>  <m_score__min__energy>  (29) 
-8.9600000000000009

>  <m_primary>  (29) 
energy

$$$$
29:0
     RDKit          3D

 25 26  0  0  0  0  0  0  0  0999 V2000
   -5.5390   26.0930  -30.1810 O   0  0  0  0  0  0  0  0  0  0  0  0
   -4.9580   25.0290  -30.5300 C   0  0  0  0  0  0  0  0  0  0  0  0
   -3.5270   24.9400  -30.4790 N   0  0  0  0  0  0  0  0  0  0  0  0
   -2.7470   24.2180  -29.5130 C   0  0  0  0  0  0  0  0  0  0  0  0
   -3.0710   22.8990  -29.1460 C   0  0  0  0  0  0  0  0  0  0  0  0
   -2.2810   22.2070  -28.2220 C   0  0  0  0  0  0  0  0  0  0  0  0
   -2.6960   20.5640  -27.7690 Cl  0  0  0  0  0  0  0  0  0  0  0  0
   -1.1550   22.8200  -27.6680 C   0  0  0  0  0  0  0  0  0  0  0  0
   -0.8100   24.1190  -28.0450 C   0  0  0  0  0  0  0  0  0  0  0  0
   -1.5940   24.8210  -28.9690 C   0  0  0  0  0  0  0  0  0  0  0  0
   -1.2130   26.1140  -29.3260 O   0  0  0  0  0  0  0  0  0  0  0  0
   -5.7520   23.8890  -31.0470 C   0  0  0  0  0  0  0  0  0  0  0  0
   -7.1240   23.7830  -30.7620 C   0  0  0  0  0  0  0  0  0  0  0  0
   -7.8520   22.7010  -31.2620 C   0  0  0  0  0  0  0  0  0  0  0  0
   -7.2380   21.7550  -32.0190 N   0  0  0  0  0  0  0  0  0  0  0  0
   -5.9140   21.8290  -32.3130 C   0  0  0  0  0  0  0  0  0  0  0  0
   -5.1470   22.8940  -31.8350 C   0  0  0  0  0  0  0  0  0  0  0  0
   -3.9509   22.4089  -29.5883 H   0  0  0  0  0  0  0  0  0  0  0  0
   -0.5397   22.2789  -26.9342 H   0  0  0  0  0  0  0  0  0  0  0  0
    0.0833   24.5942  -27.6136 H   0  0  0  0  0  0  0  0  0  0  0  0
   -1.2430   26.4440  -30.2840 H   0  0  0  0  0  0  0  0  0  0  0  0
   -7.6220   24.5482  -30.1484 H   0  0  0  0  0  0  0  0  0  0  0  0
   -8.9263   22.6146  -31.0420 H   0  0  0  0  0  0  0  0  0  0  0  0
   -5.4445   21.0481  -32.9292 H   0  0  0  0  0  0  0  0  0  0  0  0
   -4.0749   22.9540  -32.0739 H   0  0  0  0  0  0  0  0  0  0  0  0
  1  2  2  0
  2  3  1  0
  3  4  1  0
  4  5  2  0
  5  6  1  0
  6  7  1  0
  6  8  2  0
  8  9  1  0
  9 10  2  0
 10 11  1  0
  2 12  1  0
 12 13  2  0
 13 14  1  0
 14 15  2  0
 15 16  1  0
 16 17  2  0
 10  4  1  0
 17 12  1  0
  5 18  1  0
  8 19  1  0
  9 20  1  0
 11 21  1  0
 13 22  1  0
 14 23  1  0
 16 24  1  0
 17 25  1  0
M  CHG  1   3  -1
M  END
>  <UniqueID>  (30) 
28

>  <SMILES>  (30) 
O=C([N-]c1cc(Cl)ccc1O)c1ccncc1

>  <Energy>  (30) 
31.356519439930782

>  <Genealogy>  (30) 
O=C([N-]c1cc(Cl)ccc1O)c1ccncc1 (protonated)
O=C([N-]c1cc(Cl)ccc1O)c1ccncc1 (3D coordinates assigned)
O=C([N-]c1cc(Cl)ccc1O)c1ccncc1 (optimized conformer: 31.356519439930782 kcal/mol)

>  <smiles>  (30) 
O=C(Nc1cc(Cl)ccc1O)c1ccncc1

>  <score_type>  (30) 
oracle

>  <origin>  (30) 
adgpu

>  <m_score__min__energy>  (30) 
-9.4000000000000004

>  <m_primary>  (30) 
energy

$$$$
30:0
     RDKit          3D

 37 38  0  0  0  0  0  0  0  0999 V2000
   -1.5310   21.3870  -31.9120 C   0  0  0  0  0  0  0  0  0  0  0  0
   -2.9940   21.3010  -31.7620 N   0  0  0  0  0  0  0  0  0  0  0  0
   -3.3220   20.8150  -30.4120 C   0  0  0  0  0  0  0  0  0  0  0  0
   -3.6240   22.6170  -31.9950 C   0  0  0  0  0  0  0  0  0  0  0  0
   -5.1320   22.5170  -31.8750 C   0  0  0  0  0  0  0  0  0  0  0  0
   -5.7590   21.4010  -32.4600 C   0  0  0  0  0  0  0  0  0  0  0  0
   -7.1440   21.2450  -32.3990 C   0  0  0  0  0  0  0  0  0  0  0  0
   -7.9250   22.1960  -31.7480 C   0  0  0  0  0  0  0  0  0  0  0  0
   -7.3250   23.3060  -31.1520 C   0  0  0  0  0  0  0  0  0  0  0  0
   -5.9300   23.4820  -31.2010 C   0  0  0  0  0  0  0  0  0  0  0  0
   -5.2330   24.8980  -30.3980 S   0  0  0  0  0  0  0  0  0  0  0  0
   -5.5750   26.1260  -31.1960 O   0  0  0  0  0  0  0  0  0  0  0  0
   -5.7890   25.0410  -29.0090 O   0  0  0  0  0  0  0  0  0  0  0  0
   -3.5130   24.6960  -30.3010 N   0  0  0  0  0  0  0  0  0  0  0  0
   -2.7640   24.3590  -29.1250 C   0  0  0  0  0  0  0  0  0  0  0  0
   -3.1860   23.2540  -28.3740 C   0  0  0  0  0  0  0  0  0  0  0  0
   -2.4920   22.8670  -27.2240 C   0  0  0  0  0  0  0  0  0  0  0  0
   -1.3730   23.5910  -26.8070 C   0  0  0  0  0  0  0  0  0  0  0  0
   -0.9560   24.7080  -27.5320 C   0  0  0  0  0  0  0  0  0  0  0  0
   -1.6490   25.1070  -28.6810 C   0  0  0  0  0  0  0  0  0  0  0  0
   -1.2350   26.2560  -29.3420 O   0  0  0  0  0  0  0  0  0  0  0  0
   -1.0615   21.4146  -30.9176 H   0  0  0  0  0  0  0  0  0  0  0  0
   -1.1669   20.5087  -32.4652 H   0  0  0  0  0  0  0  0  0  0  0  0
   -1.2723   22.3019  -32.4652 H   0  0  0  0  0  0  0  0  0  0  0  0
   -2.8716   21.4824  -29.6625 H   0  0  0  0  0  0  0  0  0  0  0  0
   -4.4142   20.8021  -30.2823 H   0  0  0  0  0  0  0  0  0  0  0  0
   -2.9253   19.7973  -30.2823 H   0  0  0  0  0  0  0  0  0  0  0  0
   -3.2491   23.3340  -31.2498 H   0  0  0  0  0  0  0  0  0  0  0  0
   -3.3714   22.9556  -33.0106 H   0  0  0  0  0  0  0  0  0  0  0  0
   -5.1492   20.6420  -32.9719 H   0  0  0  0  0  0  0  0  0  0  0  0
   -7.6194   20.3697  -32.8657 H   0  0  0  0  0  0  0  0  0  0  0  0
   -9.0171   22.0722  -31.7033 H   0  0  0  0  0  0  0  0  0  0  0  0
   -7.9496   24.0516  -30.6382 H   0  0  0  0  0  0  0  0  0  0  0  0
   -4.0722   22.6854  -28.6925 H   0  0  0  0  0  0  0  0  0  0  0  0
   -2.8273   21.9922  -26.6475 H   0  0  0  0  0  0  0  0  0  0  0  0
   -0.8207   23.2810  -25.9076 H   0  0  0  0  0  0  0  0  0  0  0  0
   -0.0769   25.2788  -27.1984 H   0  0  0  0  0  0  0  0  0  0  0  0
  1  2  1  0
  2  3  1  0
  2  4  1  0
  4  5  1  0
  5  6  2  0
  6  7  1  0
  7  8  2  0
  8  9  1  0
  9 10  2  0
 10 11  1  0
 11 12  2  0
 11 13  2  0
 11 14  1  0
 14 15  1  0
 15 16  2  0
 16 17  1  0
 17 18  2  0
 18 19  1  0
 19 20  2  0
 20 21  1  0
 10  5  1  0
 20 15  1  0
  1 22  1  0
  1 23  1  0
  1 24  1  0
  3 25  1  0
  3 26  1  0
  3 27  1  0
  4 28  1  0
  4 29  1  0
  6 30  1  0
  7 31  1  0
  8 32  1  0
  9 33  1  0
 16 34  1  0
 17 35  1  0
 18 36  1  0
 19 37  1  0
M  CHG  2  14  -1  21  -1
M  END
>  <UniqueID>  (31) 
29

>  <SMILES>  (31) 
CN(C)Cc1ccccc1S(=O)(=O)[N-]c1ccccc1[O-]

>  <Energy>  (31) 
47.14609579416103

>  <Genealogy>  (31) 
CN(C)Cc1ccccc1S(=O)(=O)[N-]c1ccccc1[O-] (protonated)
CN(C)Cc1ccccc1S(=O)(=O)[N-]c1ccccc1[O-] (3D coordinates assigned)
CN(C)Cc1ccccc1S(=O)(=O)[N-]c1ccccc1[O-] (optimized conformer: 47.14609579416103 kcal/mol)

>  <smiles>  (31) 
CN(C)Cc1ccccc1S(=O)(=O)Nc1ccccc1O

>  <score_type>  (31) 
oracle

>  <origin>  (31) 
adgpu

>  <m_score__min__energy>  (31) 
-12.109999999999999

>  <m_primary>  (31) 
energy

$$$$
31:0
     RDKit          3D

 42 44  0  0  0  0  0  0  0  0999 V2000
   -4.7900   16.7090  -34.5250 C   0  0  0  0  0  0  0  0  0  0  0  0
   -3.6930   17.6690  -34.1420 C   0  0  0  0  0  0  0  0  0  0  0  0
   -2.3630   17.2130  -34.1840 C   0  0  0  0  0  0  0  0  0  0  0  0
   -1.3060   18.0770  -33.8910 C   0  0  0  0  0  0  0  0  0  0  0  0
   -1.5620   19.4050  -33.5520 C   0  0  0  0  0  0  0  0  0  0  0  0
   -2.8760   19.8690  -33.4860 C   0  0  0  0  0  0  0  0  0  0  0  0
   -3.9550   19.0070  -33.7470 C   0  0  0  0  0  0  0  0  0  0  0  0
   -5.3270   19.5440  -33.6200 C   0  0  0  0  0  0  0  0  0  0  0  0
   -6.1140   19.4490  -34.6010 O   0  0  0  0  0  0  0  0  0  0  0  0
   -5.7550   20.1850  -32.4090 N   0  0  0  0  0  0  0  0  0  0  0  0
   -7.0960   20.6570  -32.2230 C   0  0  0  0  0  0  0  0  0  0  0  0
   -8.1630   19.7760  -32.4480 C   0  0  0  0  0  0  0  0  0  0  0  0
   -9.4810   20.2160  -32.3110 C   0  0  0  0  0  0  0  0  0  0  0  0
   -9.7440   21.5350  -31.9370 C   0  0  0  0  0  0  0  0  0  0  0  0
   -8.6890   22.4140  -31.6840 C   0  0  0  0  0  0  0  0  0  0  0  0
   -7.3570   21.9830  -31.8120 C   0  0  0  0  0  0  0  0  0  0  0  0
   -6.2790   22.8710  -31.4680 N   0  0  0  0  0  0  0  0  0  0  0  0
   -6.5840   24.1510  -30.8230 C   0  0  0  0  0  0  0  0  0  0  0  0
   -5.3680   24.6260  -30.0230 C   0  0  0  0  0  0  0  0  0  0  0  0
   -4.2040   24.6300  -30.8290 O   0  0  0  0  0  0  0  0  0  0  0  0
   -3.8850   23.3080  -31.2190 C   0  0  0  0  0  0  0  0  0  0  0  0
   -4.9780   22.7300  -32.1240 C   0  0  0  0  0  0  0  0  0  0  0  0
   -5.2552   16.3019  -33.6151 H   0  0  0  0  0  0  0  0  0  0  0  0
   -5.5492   17.2381  -35.1197 H   0  0  0  0  0  0  0  0  0  0  0  0
   -4.3662   15.8863  -35.1197 H   0  0  0  0  0  0  0  0  0  0  0  0
   -2.1538   16.1664  -34.4501 H   0  0  0  0  0  0  0  0  0  0  0  0
   -0.2699   17.7094  -33.9277 H   0  0  0  0  0  0  0  0  0  0  0  0
   -0.7269   20.0877  -33.3363 H   0  0  0  0  0  0  0  0  0  0  0  0
   -3.0696   20.9204  -33.2270 H   0  0  0  0  0  0  0  0  0  0  0  0
   -5.1080   20.2240  -31.5920 H   0  0  0  0  0  0  0  0  0  0  0  0
   -7.9609   18.7332  -32.7338 H   0  0  0  0  0  0  0  0  0  0  0  0
  -10.3137   19.5220  -32.4981 H   0  0  0  0  0  0  0  0  0  0  0  0
  -10.7834   21.8822  -31.8415 H   0  0  0  0  0  0  0  0  0  0  0  0
   -8.9015   23.4503  -31.3826 H   0  0  0  0  0  0  0  0  0  0  0  0
   -6.8313   24.8983  -31.5914 H   0  0  0  0  0  0  0  0  0  0  0  0
   -7.4403   24.0231  -30.1444 H   0  0  0  0  0  0  0  0  0  0  0  0
   -5.5548   25.6456  -29.6549 H   0  0  0  0  0  0  0  0  0  0  0  0
   -5.2101   23.9366  -29.1805 H   0  0  0  0  0  0  0  0  0  0  0  0
   -2.9300   23.3134  -31.7649 H   0  0  0  0  0  0  0  0  0  0  0  0
   -3.8064   22.6831  -30.3171 H   0  0  0  0  0  0  0  0  0  0  0  0
   -4.9884   23.2741  -33.0800 H   0  0  0  0  0  0  0  0  0  0  0  0
   -4.7747   21.6652  -32.3107 H   0  0  0  0  0  0  0  0  0  0  0  0
  1  2  1  0
  2  3  2  0
  3  4  1  0
  4  5  2  0
  5  6  1  0
  6  7  2  0
  7  8  1  0
  8  9  2  0
  8 10  1  0
 10 11  1  0
 11 12  2  0
 12 13  1  0
 13 14  2  0
 14 15  1  0
 15 16  2  0
 16 17  1  0
 17 18  1  0
 18 19  1  0
 19 20  1  0
 20 21  1  0
 21 22  1  0
  7  2  1  0
 16 11  1  0
 22 17  1  0
  1 23  1  0
  1 24  1  0
  1 25  1  0
  3 26  1  0
  4 27  1  0
  5 28  1  0
  6 29  1  0
 10 30  1  0
 12 31  1  0
 13 32  1  0
 14 33  1  0
 15 34  1  0
 18 35  1  0
 18 36  1  0
 19 37  1  0
 19 38  1  0
 21 39  1  0
 21 40  1  0
 22 41  1  0
 22 42  1  0
M  END
>  <UniqueID>  (32) 
30

>  <SMILES>  (32) 
Cc1ccccc1C(=O)Nc1ccccc1N1CCOCC1

>  <Energy>  (32) 
58.51548056162047

>  <Genealogy>  (32) 
Cc1ccccc1C(=O)Nc1ccccc1N1CCOCC1 (3D coordinates assigned)
Cc1ccccc1C(=O)Nc1ccccc1N1CCOCC1 (nonaromatic ring conformer: 58.51548056162047 kcal/mol)

>  <smiles>  (32) 
Cc1ccccc1C(=O)Nc1ccccc1N1CCOCC1

>  <score_type>  (32) 
oracle

>  <origin>  (32) 
adgpu

>  <m_score__min__energy>  (32) 
-8.4299999999999997

>  <m_primary>  (32) 
energy

$$$$
32:0
     RDKit          3D

 47 49  0  0  0  0  0  0  0  0999 V2000
   -3.5020   24.2470  -28.1450 O   0  0  0  0  0  0  0  0  0  0  0  0
   -2.9190   24.7920  -29.1200 C   0  0  0  0  0  0  0  0  0  0  0  0
   -1.5950   25.3110  -28.9680 N   0  0  0  0  0  0  0  0  0  0  0  0
   -0.4690   24.5200  -28.4880 C   0  0  0  0  0  0  0  0  0  0  0  0
   -0.8430   23.0630  -28.4160 C   0  0  0  0  0  0  0  0  0  0  0  0
   -1.1590   22.4760  -27.1760 C   0  0  0  0  0  0  0  0  0  0  0  0
   -1.4760   21.1150  -27.1000 C   0  0  0  0  0  0  0  0  0  0  0  0
   -1.4770   20.3310  -28.2590 C   0  0  0  0  0  0  0  0  0  0  0  0
   -1.1610   20.9060  -29.4950 C   0  0  0  0  0  0  0  0  0  0  0  0
   -0.8430   22.2670  -29.5760 C   0  0  0  0  0  0  0  0  0  0  0  0
   -3.5770   24.9030  -30.3870 N   0  0  0  0  0  0  0  0  0  0  0  0
   -4.8160   24.2390  -30.6700 C   0  0  0  0  0  0  0  0  0  0  0  0
   -6.0190   24.8400  -30.2650 C   0  0  0  0  0  0  0  0  0  0  0  0
   -7.2420   24.2290  -30.5490 C   0  0  0  0  0  0  0  0  0  0  0  0
   -7.2780   23.0190  -31.2590 C   0  0  0  0  0  0  0  0  0  0  0  0
   -8.8170   22.2430  -31.6300 S   0  0  0  0  0  0  0  0  0  0  0  0
   -9.5050   21.8060  -30.3640 O   0  0  0  0  0  0  0  0  0  0  0  0
   -9.6980   23.2330  -32.3390 O   0  0  0  0  0  0  0  0  0  0  0  0
   -8.5750   20.8570  -32.6530 N   0  0  0  0  0  0  0  0  0  0  0  0
   -8.1420   19.6950  -31.8780 C   0  0  0  0  0  0  0  0  0  0  0  0
   -7.1960   18.8470  -32.6940 C   0  0  0  0  0  0  0  0  0  0  0  0
   -6.4810   19.4150  -33.7640 C   0  0  0  0  0  0  0  0  0  0  0  0
   -5.6080   18.6320  -34.5370 C   0  0  0  0  0  0  0  0  0  0  0  0
   -5.4490   17.2750  -34.2550 C   0  0  0  0  0  0  0  0  0  0  0  0
   -6.1730   16.6940  -33.1990 C   0  0  0  0  0  0  0  0  0  0  0  0
   -7.0370   17.4790  -32.4180 C   0  0  0  0  0  0  0  0  0  0  0  0
   -6.0830   22.4270  -31.6810 C   0  0  0  0  0  0  0  0  0  0  0  0
   -4.8510   23.0240  -31.3850 C   0  0  0  0  0  0  0  0  0  0  0  0
   -3.3820   22.2550  -31.9750 Cl  0  0  0  0  0  0  0  0  0  0  0  0
    0.3798   24.6426  -29.1769 H   0  0  0  0  0  0  0  0  0  0  0  0
   -0.1925   24.8673  -27.4816 H   0  0  0  0  0  0  0  0  0  0  0  0
   -1.1567   23.0897  -26.2631 H   0  0  0  0  0  0  0  0  0  0  0  0
   -1.7244   20.6616  -26.1291 H   0  0  0  0  0  0  0  0  0  0  0  0
   -1.7265   19.2614  -28.1985 H   0  0  0  0  0  0  0  0  0  0  0  0
   -1.1625   20.2875  -30.4046 H   0  0  0  0  0  0  0  0  0  0  0  0
   -0.5926   22.7150  -30.5489 H   0  0  0  0  0  0  0  0  0  0  0  0
   -3.2040   25.5890  -31.0820 H   0  0  0  0  0  0  0  0  0  0  0  0
   -5.9977   25.7962  -29.7217 H   0  0  0  0  0  0  0  0  0  0  0  0
   -8.1797   24.6973  -30.2153 H   0  0  0  0  0  0  0  0  0  0  0  0
   -7.6295   20.0366  -30.9666 H   0  0  0  0  0  0  0  0  0  0  0  0
   -9.0232   19.0935  -31.6104 H   0  0  0  0  0  0  0  0  0  0  0  0
   -6.6068   20.4825  -33.9975 H   0  0  0  0  0  0  0  0  0  0  0  0
   -5.0486   19.0896  -35.3663 H   0  0  0  0  0  0  0  0  0  0  0  0
   -4.7606   16.6626  -34.8559 H   0  0  0  0  0  0  0  0  0  0  0  0
   -6.0624   15.6210  -32.9838 H   0  0  0  0  0  0  0  0  0  0  0  0
   -7.5918   17.0203  -31.5862 H   0  0  0  0  0  0  0  0  0  0  0  0
   -6.1110   21.4857  -32.2495 H   0  0  0  0  0  0  0  0  0  0  0  0
  1  2  2  0
  2  3  1  0
  3  4  1  0
  4  5  1  0
  5  6  2  0
  6  7  1  0
  7  8  2  0
  8  9  1  0
  9 10  2  0
  2 11  1  0
 11 12  1  0
 12 13  2  0
 13 14  1  0
 14 15  2  0
 15 16  1  0
 16 17  2  0
 16 18  2  0
 16 19  1  0
 19 20  1  0
 20 21  1  0
 21 22  2  0
 22 23  1  0
 23 24  2  0
 24 25  1  0
 25 26  2  0
 15 27  1  0
 27 28  2  0
 28 29  1  0
 10  5  1  0
 28 12  1  0
 26 21  1  0
  4 30  1  0
  4 31  1  0
  6 32  1  0
  7 33  1  0
  8 34  1  0
  9 35  1  0
 10 36  1  0
 11 37  1  0
 13 38  1  0
 14 39  1  0
 20 40  1  0
 20 41  1  0
 22 42  1  0
 23 43  1  0
 24 44  1  0
 25 45  1  0
 26 46  1  0
 27 47  1  0
M  CHG  2   3  -1  19  -1
M  END
>  <UniqueID>  (33) 
31

>  <SMILES>  (33) 
O=C([N-]Cc1ccccc1)Nc1ccc(S(=O)(=O)[N-]Cc2ccccc2)cc1Cl

>  <Energy>  (33) 
48.184452463568384

>  <Genealogy>  (33) 
O=C([N-]Cc1ccccc1)Nc1ccc(S(=O)(=O)[N-]Cc2ccccc2)cc1Cl (protonated)
O=C([N-]Cc1ccccc1)Nc1ccc(S(=O)(=O)[N-]Cc2ccccc2)cc1Cl (3D coordinates assigned)
O=C([N-]Cc1ccccc1)Nc1ccc(S(=O)(=O)[N-]Cc2ccccc2)cc1Cl (optimized conformer: 48.184452463568384 kcal/mol)

>  <smiles>  (33) 
O=C(NCc1ccccc1)Nc1ccc(S(=O)(=O)NCc2ccccc2)cc1Cl

>  <score_type>  (33) 
oracle

>  <origin>  (33) 
adgpu

>  <m_score__min__energy>  (33) 
-11.73

>  <m_primary>  (33) 
energy

$$$$
33:0
     RDKit          3D

 47 49  0  0  0  0  0  0  0  0999 V2000
   -9.4750   20.4290  -31.9660 C   0  0  0  0  0  0  0  0  0  0  0  0
   -8.8020   19.0840  -31.7010 C   0  0  0  0  0  0  0  0  0  0  0  0
   -7.4790   18.9940  -32.4080 C   0  0  0  0  0  0  0  0  0  0  0  0
   -7.0070   20.0790  -33.1690 C   0  0  0  0  0  0  0  0  0  0  0  0
   -5.7740   19.9930  -33.8250 C   0  0  0  0  0  0  0  0  0  0  0  0
   -5.0250   18.8090  -33.7690 C   0  0  0  0  0  0  0  0  0  0  0  0
   -3.7650   18.7490  -34.4480 N   0  0  0  0  0  0  0  0  0  0  0  0
   -2.2340   18.9400  -33.6520 S   0  0  0  0  0  0  0  0  0  0  0  0
   -1.8620   17.6360  -32.9940 O   0  0  0  0  0  0  0  0  0  0  0  0
   -1.1860   19.2630  -34.6810 O   0  0  0  0  0  0  0  0  0  0  0  0
   -2.2770   20.2360  -32.4600 C   0  0  0  0  0  0  0  0  0  0  0  0
   -1.4190   20.1960  -31.3580 C   0  0  0  0  0  0  0  0  0  0  0  0
   -1.4800   21.1980  -30.3830 C   0  0  0  0  0  0  0  0  0  0  0  0
   -2.3790   22.2620  -30.5080 C   0  0  0  0  0  0  0  0  0  0  0  0
   -2.4410   23.2550  -29.4710 N   0  0  0  0  0  0  0  0  0  0  0  0
   -2.7490   24.6430  -29.6510 C   0  0  0  0  0  0  0  0  0  0  0  0
   -3.6220   24.9940  -30.4890 O   0  0  0  0  0  0  0  0  0  0  0  0
   -2.0030   25.6540  -28.9600 N   0  0  0  0  0  0  0  0  0  0  0  0
   -1.2460   25.4690  -27.7550 C   0  0  0  0  0  0  0  0  0  0  0  0
   -1.5980   26.1330  -26.5650 C   0  0  0  0  0  0  0  0  0  0  0  0
   -0.8360   25.9540  -25.4080 C   0  0  0  0  0  0  0  0  0  0  0  0
    0.2870   25.1300  -25.4300 C   0  0  0  0  0  0  0  0  0  0  0  0
    0.6600   24.4880  -26.6120 C   0  0  0  0  0  0  0  0  0  0  0  0
   -0.0930   24.6610  -27.7780 C   0  0  0  0  0  0  0  0  0  0  0  0
    0.3100   24.0070  -28.9390 O   0  0  0  0  0  0  0  0  0  0  0  0
   -3.2450   22.2950  -31.6110 C   0  0  0  0  0  0  0  0  0  0  0  0
   -3.1920   21.2890  -32.5790 C   0  0  0  0  0  0  0  0  0  0  0  0
   -5.5110   17.7130  -33.0300 C   0  0  0  0  0  0  0  0  0  0  0  0
   -6.7270   17.8100  -32.3480 C   0  0  0  0  0  0  0  0  0  0  0  0
   -9.7171   20.9129  -31.0083 H   0  0  0  0  0  0  0  0  0  0  0  0
   -8.7931   21.0734  -32.5403 H   0  0  0  0  0  0  0  0  0  0  0  0
  -10.3995   20.2696  -32.5403 H   0  0  0  0  0  0  0  0  0  0  0  0
   -8.6399   18.9701  -30.6190 H   0  0  0  0  0  0  0  0  0  0  0  0
   -9.4562   18.2847  -32.0795 H   0  0  0  0  0  0  0  0  0  0  0  0
   -7.6083   20.9967  -33.2485 H   0  0  0  0  0  0  0  0  0  0  0  0
   -5.3908   20.8576  -34.3868 H   0  0  0  0  0  0  0  0  0  0  0  0
   -0.6939   19.3750  -31.2566 H   0  0  0  0  0  0  0  0  0  0  0  0
   -0.8138   21.1482  -29.5091 H   0  0  0  0  0  0  0  0  0  0  0  0
   -2.4762   26.7952  -26.5460 H   0  0  0  0  0  0  0  0  0  0  0  0
   -1.1234   26.4650  -24.4772 H   0  0  0  0  0  0  0  0  0  0  0  0
    0.8803   24.9851  -24.5151 H   0  0  0  0  0  0  0  0  0  0  0  0
    1.5507   23.8427  -26.6266 H   0  0  0  0  0  0  0  0  0  0  0  0
   -0.3380   23.7530  -29.6730 H   0  0  0  0  0  0  0  0  0  0  0  0
   -3.9691   23.1166  -31.7143 H   0  0  0  0  0  0  0  0  0  0  0  0
   -3.8743   21.3245  -33.4411 H   0  0  0  0  0  0  0  0  0  0  0  0
   -4.9322   16.7785  -32.9895 H   0  0  0  0  0  0  0  0  0  0  0  0
   -7.0963   16.9555  -31.7620 H   0  0  0  0  0  0  0  0  0  0  0  0
  1  2  1  0
  2  3  1  0
  3  4  2  0
  4  5  1  0
  5  6  2  0
  6  7  1  0
  7  8  1  0
  8  9  2  0
  8 10  2  0
  8 11  1  0
 11 12  2  0
 12 13  1  0
 13 14  2  0
 14 15  1  0
 15 16  1  0
 16 17  2  0
 16 18  1  0
 18 19  1  0
 19 20  2  0
 20 21  1  0
 21 22  2  0
 22 23  1  0
 23 24  2  0
 24 25  1  0
 14 26  1  0
 26 27  2  0
  6 28  1  0
 28 29  2  0
 29  3  1  0
 27 11  1  0
 24 19  1  0
  1 30  1  0
  1 31  1  0
  1 32  1  0
  2 33  1  0
  2 34  1  0
  4 35  1  0
  5 36  1  0
 12 37  1  0
 13 38  1  0
 20 39  1  0
 21 40  1  0
 22 41  1  0
 23 42  1  0
 25 43  1  0
 26 44  1  0
 27 45  1  0
 28 46  1  0
 29 47  1  0
M  CHG  3   7  -1  15  -1  18  -1
M  END
>  <UniqueID>  (34) 
32

>  <SMILES>  (34) 
CCc1ccc([N-]S(=O)(=O)c2ccc([N-]C(=O)[N-]c3ccccc3O)cc2)cc1

>  <Energy>  (34) 
60.013434879185326

>  <Genealogy>  (34) 
CCc1ccc([N-]S(=O)(=O)c2ccc([N-]C(=O)[N-]c3ccccc3O)cc2)cc1 (protonated)
CCc1ccc([N-]S(=O)(=O)c2ccc([N-]C(=O)[N-]c3ccccc3O)cc2)cc1 (3D coordinates assigned)
CCc1ccc([N-]S(=O)(=O)c2ccc([N-]C(=O)[N-]c3ccccc3O)cc2)cc1 (optimized conformer: 60.013434879185326 kcal/mol)

>  <smiles>  (34) 
CCc1ccc(NS(=O)(=O)c2ccc(NC(=O)Nc3ccccc3O)cc2)cc1

>  <score_type>  (34) 
oracle

>  <origin>  (34) 
adgpu

>  <m_score__min__energy>  (34) 
-12.44

>  <m_primary>  (34) 
energy

$$$$
34:0
     RDKit          3D

 49 52  0  0  0  0  0  0  0  0999 V2000
    0.9530   26.0850  -27.4430 O   0  0  0  0  0  0  0  0  0  0  0  0
   -0.0750   26.3980  -26.7830 C   0  0  0  0  0  0  0  0  0  0  0  0
   -1.0040   25.3730  -26.3880 N   0  0  0  0  0  0  0  0  0  0  0  0
   -0.7540   23.9550  -26.6310 C   0  0  0  0  0  0  0  0  0  0  0  0
   -0.6950   23.6710  -28.1360 C   0  0  0  0  0  0  0  0  0  0  0  0
   -1.6790   24.5600  -28.9040 C   0  0  0  0  0  0  0  0  0  0  0  0
   -2.6110   23.7230  -29.7330 C   0  0  0  0  0  0  0  0  0  0  0  0
   -2.4780   22.3700  -29.7260 N   0  0  0  0  0  0  0  0  0  0  0  0
   -3.3130   21.5660  -30.4360 C   0  0  0  0  0  0  0  0  0  0  0  0
   -3.1750   20.3160  -30.3730 O   0  0  0  0  0  0  0  0  0  0  0  0
   -4.3370   22.1440  -31.2030 C   0  0  0  0  0  0  0  0  0  0  0  0
   -5.2550   21.3390  -31.9570 N   0  0  0  0  0  0  0  0  0  0  0  0
   -4.8460   20.3120  -32.9150 C   0  0  0  0  0  0  0  0  0  0  0  0
   -6.1580   19.7060  -33.4730 C   0  0  0  0  0  0  0  0  0  0  0  0
   -7.2180   20.3850  -32.6780 C   0  0  0  0  0  0  0  0  0  0  0  0
   -8.5930   20.1470  -32.7000 C   0  0  0  0  0  0  0  0  0  0  0  0
   -9.4120   20.8640  -31.8130 C   0  0  0  0  0  0  0  0  0  0  0  0
   -8.8440   21.7870  -30.9130 C   0  0  0  0  0  0  0  0  0  0  0  0
   -7.4560   22.0060  -30.9060 C   0  0  0  0  0  0  0  0  0  0  0  0
   -6.6670   21.3020  -31.8240 C   0  0  0  0  0  0  0  0  0  0  0  0
   -4.4960   23.4940  -31.1780 N   0  0  0  0  0  0  0  0  0  0  0  0
   -3.6630   24.2970  -30.4660 C   0  0  0  0  0  0  0  0  0  0  0  0
   -3.8650   25.6730  -30.4720 O   0  0  0  0  0  0  0  0  0  0  0  0
   -0.3110   27.8210  -26.4420 C   0  0  0  0  0  0  0  0  0  0  0  0
   -0.8010   28.1670  -25.1680 C   0  0  0  0  0  0  0  0  0  0  0  0
   -1.0330   29.5050  -24.8340 C   0  0  0  0  0  0  0  0  0  0  0  0
   -0.7860   30.5110  -25.7700 C   0  0  0  0  0  0  0  0  0  0  0  0
   -0.3130   30.1820  -27.0410 C   0  0  0  0  0  0  0  0  0  0  0  0
   -0.0780   28.8460  -27.3790 C   0  0  0  0  0  0  0  0  0  0  0  0
   -1.9050   25.6330  -25.9280 H   0  0  0  0  0  0  0  0  0  0  0  0
    0.2046   23.6724  -26.1714 H   0  0  0  0  0  0  0  0  0  0  0  0
   -1.5734   23.3684  -26.1899 H   0  0  0  0  0  0  0  0  0  0  0  0
    0.3248   23.8669  -28.4989 H   0  0  0  0  0  0  0  0  0  0  0  0
   -0.9697   22.6192  -28.3042 H   0  0  0  0  0  0  0  0  0  0  0  0
   -2.2662   25.1527  -28.1871 H   0  0  0  0  0  0  0  0  0  0  0  0
   -1.1104   25.2245  -29.5712 H   0  0  0  0  0  0  0  0  0  0  0  0
   -4.2555   20.7601  -33.7277 H   0  0  0  0  0  0  0  0  0  0  0  0
   -4.2163   19.5449  -32.4407 H   0  0  0  0  0  0  0  0  0  0  0  0
   -6.2683   19.9262  -34.5451 H   0  0  0  0  0  0  0  0  0  0  0  0
   -6.1942   18.6098  -33.3888 H   0  0  0  0  0  0  0  0  0  0  0  0
   -9.0256   19.4139  -33.3968 H   0  0  0  0  0  0  0  0  0  0  0  0
  -10.5003   20.7045  -31.8209 H   0  0  0  0  0  0  0  0  0  0  0  0
   -9.4893   22.3382  -30.2132 H   0  0  0  0  0  0  0  0  0  0  0  0
   -7.0005   22.7130  -30.1969 H   0  0  0  0  0  0  0  0  0  0  0  0
   -1.0031   27.3778  -24.4289 H   0  0  0  0  0  0  0  0  0  0  0  0
   -1.4101   29.7648  -23.8338 H   0  0  0  0  0  0  0  0  0  0  0  0
   -0.9644   31.5637  -25.5054 H   0  0  0  0  0  0  0  0  0  0  0  0
   -0.1246   30.9759  -27.7788 H   0  0  0  0  0  0  0  0  0  0  0  0
    0.2915   28.5937  -28.3839 H   0  0  0  0  0  0  0  0  0  0  0  0
  1  2  2  0
  2  3  1  0
  3  4  1  0
  4  5  1  0
  5  6  1  0
  6  7  1  0
  7  8  1  0
  8  9  1  0
  9 10  2  0
  9 11  1  0
 11 12  1  0
 12 13  1  0
 13 14  1  0
 14 15  1  0
 15 16  2  0
 16 17  1  0
 17 18  2  0
 18 19  1  0
 19 20  2  0
 11 21  2  0
 21 22  1  0
 22 23  1  0
  2 24  1  0
 24 25  2  0
 25 26  1  0
 26 27  2  0
 27 28  1  0
 28 29  2  0
 22  7  2  0
 29 24  1  0
 20 12  1  0
 20 15  1  0
  3 30  1  0
  4 31  1  0
  4 32  1  0
  5 33  1  0
  5 34  1  0
  6 35  1  0
  6 36  1  0
 13 37  1  0
 13 38  1  0
 14 39  1  0
 14 40  1  0
 16 41  1  0
 17 42  1  0
 18 43  1  0
 19 44  1  0
 25 45  1  0
 26 46  1  0
 27 47  1  0
 28 48  1  0
 29 49  1  0
M  CHG  2   8  -1  23  -1
M  END
>  <UniqueID>  (35) 
33

>  <SMILES>  (35) 
O=C(NCCCc1[n-]c(=O)c(N2CCc3ccccc32)nc1[O-])c1ccccc1

>  <Energy>  (35) 
71.51642676853356

>  <Genealogy>  (35) 
O=C(NCCCc1[n-]c(=O)c(N2CCc3ccccc32)nc1[O-])c1ccccc1 (protonated)
O=C(NCCCc1[n-]c(=O)c(N2CCc3ccccc32)nc1[O-])c1ccccc1 (3D coordinates assigned)
O=C(NCCCc1[n-]c(=O)c(N2CCc3ccccc32)nc1[O-])c1ccccc1 (nonaromatic ring conformer: 71.51642676853356 kcal/mol)

>  <smiles>  (35) 
O=C(NCCCc1[nH]c(=O)c(N2CCc3ccccc32)nc1O)c1ccccc1

>  <score_type>  (35) 
oracle

>  <origin>  (35) 
adgpu

>  <m_score__min__energy>  (35) 
-11.98

>  <m_primary>  (35) 
energy

$$$$
35:0
     RDKit          3D

 42 44  0  0  0  0  0  0  0  0999 V2000
   -4.7290   17.2270  -35.1800 H   0  0  0  0  0  0  0  0  0  0  0  0
   -5.6110   17.6870  -34.8600 N   0  0  0  0  0  0  0  0  0  0  0  0
   -5.6360   18.7890  -34.1730 C   0  0  0  0  0  0  0  0  0  0  0  0
   -4.4430   19.4440  -33.8090 C   0  0  0  0  0  0  0  0  0  0  0  0
   -3.2080   18.8910  -34.1980 O   0  0  0  0  0  0  0  0  0  0  0  0
   -1.9410   19.1710  -33.6020 C   0  0  0  0  0  0  0  0  0  0  0  0
   -2.0704   19.2818  -32.5153 H   0  0  0  0  0  0  0  0  0  0  0  0
   -1.2559   18.3394  -33.8236 H   0  0  0  0  0  0  0  0  0  0  0  0
   -1.3480   20.4560  -34.1680 C   0  0  0  0  0  0  0  0  0  0  0  0
   -1.0440   21.1148  -33.3412 H   0  0  0  0  0  0  0  0  0  0  0  0
   -0.4705   20.2140  -34.7856 H   0  0  0  0  0  0  0  0  0  0  0  0
   -2.1015   20.9666  -34.7856 H   0  0  0  0  0  0  0  0  0  0  0  0
   -4.5310   20.6320  -33.0610 C   0  0  0  0  0  0  0  0  0  0  0  0
   -3.6118   21.1583  -32.7642 H   0  0  0  0  0  0  0  0  0  0  0  0
   -5.7800   21.1520  -32.6900 C   0  0  0  0  0  0  0  0  0  0  0  0
   -5.8800   22.4030  -31.8960 C   0  0  0  0  0  0  0  0  0  0  0  0
   -7.1370   22.9520  -31.5850 C   0  0  0  0  0  0  0  0  0  0  0  0
   -8.0534   22.4432  -31.9188 H   0  0  0  0  0  0  0  0  0  0  0  0
   -7.2290   24.1390  -30.8550 C   0  0  0  0  0  0  0  0  0  0  0  0
   -8.2162   24.5671  -30.6267 H   0  0  0  0  0  0  0  0  0  0  0  0
   -6.0720   24.7840  -30.4140 C   0  0  0  0  0  0  0  0  0  0  0  0
   -6.1518   25.7270  -29.8533 H   0  0  0  0  0  0  0  0  0  0  0  0
   -4.8110   24.2380  -30.6810 C   0  0  0  0  0  0  0  0  0  0  0  0
   -3.6440   24.9460  -30.2260 N   0  0  0  0  0  0  0  0  0  0  0  0
   -2.7100   24.4910  -29.4440 C   0  0  0  0  0  0  0  0  0  0  0  0
   -2.8000   23.2540  -28.8790 N   0  0  0  0  0  0  0  0  0  0  0  0
   -1.8340   22.7810  -28.0470 C   0  0  0  0  0  0  0  0  0  0  0  0
   -1.9620   21.4130  -27.4460 C   0  0  0  0  0  0  0  0  0  0  0  0
   -1.2040   20.4980  -28.1570 F   0  0  0  0  0  0  0  0  0  0  0  0
   -1.5200   21.4350  -26.1360 F   0  0  0  0  0  0  0  0  0  0  0  0
   -3.2860   21.0160  -27.4750 F   0  0  0  0  0  0  0  0  0  0  0  0
   -0.7310   23.5890  -27.7490 C   0  0  0  0  0  0  0  0  0  0  0  0
    0.0618   23.2309  -27.0758 H   0  0  0  0  0  0  0  0  0  0  0  0
   -0.6580   24.8570  -28.3230 C   0  0  0  0  0  0  0  0  0  0  0  0
    0.1984   25.5117  -28.1040 H   0  0  0  0  0  0  0  0  0  0  0  0
   -1.6450   25.2840  -29.1530 N   0  0  0  0  0  0  0  0  0  0  0  0
   -4.7180   23.0610  -31.4480 C   0  0  0  0  0  0  0  0  0  0  0  0
   -3.7286   22.6515  -31.6997 H   0  0  0  0  0  0  0  0  0  0  0  0
   -6.9340   20.4600  -33.0840 C   0  0  0  0  0  0  0  0  0  0  0  0
   -7.9249   20.8497  -32.8079 H   0  0  0  0  0  0  0  0  0  0  0  0
   -6.8380   19.3120  -33.8040 N   0  0  0  0  0  0  0  0  0  0  0  0
   -7.7210   18.8210  -34.0750 H   0  0  0  0  0  0  0  0  0  0  0  0
  1  2  1  0
  2  3  2  0
  3  4  1  0
  4  5  1  0
  5  6  1  0
  6  7  1  0
  6  8  1  0
  6  9  1  0
  9 10  1  0
  9 11  1  0
  9 12  1  0
  4 13  2  0
 13 14  1  0
 13 15  1  0
 15 16  1  0
 16 17  2  0
 17 18  1  0
 17 19  1  0
 19 20  1  0
 19 21  2  0
 21 22  1  0
 21 23  1  0
 23 24  1  0
 24 25  2  0
 25 26  1  0
 26 27  2  0
 27 28  1  0
 28 29  1  0
 28 30  1  0
 28 31  1  0
 27 32  1  0
 32 33  1  0
 32 34  2  0
 34 35  1  0
 34 36  1  0
 23 37  2  0
 37 38  1  0
 15 39  2  0
 39 40  1  0
 39 41  1  0
 41 42  1  0
 41  3  1  0
 37 16  1  0
 36 25  1  0
M  CHG  1  36  -1
M  END
>  <UniqueID>  (36) 
34

>  <SMILES>  (36) 
[H]/N=c1/[nH]cc(-c2cccc(/N=c3\nc(C(F)(F)F)cc[n-]3)c2)cc1OCC

>  <Energy>  (36) 
55.411058802408164

>  <Genealogy>  (36) 
CCOc1cc(-c2cccc(N=c3nc(C(F)(F)F)cc[n-]3)c2)c[nH]c1=N (protonated)
[H]/N=c1/[nH]cc(-c2cccc(/N=c3\nc(C(F)(F)F)cc[n-]3)c2)cc1OCC (cis-trans isomerization)
[H]/N=c1/[nH]cc(-c2cccc(/N=c3\nc(C(F)(F)F)cc[n-]3)c2)cc1OCC (3D coordinates assigned)
[H]/N=c1/[nH]cc(-c2cccc(/N=c3\nc(C(F)(F)F)cc[n-]3)c2)cc1OCC (optimized conformer: 55.411058802408164 kcal/mol)

>  <smiles>  (36) 
CCOc1cc(-c2cccc(N=c3nc(C(F)(F)F)cc[nH]3)c2)c[nH]c1=N

>  <score_type>  (36) 
oracle

>  <origin>  (36) 
adgpu

>  <m_score__min__energy>  (36) 
-9.0399999999999991

>  <m_primary>  (36) 
energy

$$$$
36:0
     RDKit          3D

 34 36  0  0  0  0  0  0  0  0999 V2000
   -6.7950   17.4610  -32.6830 C   0  0  0  0  0  0  0  0  0  0  0  0
   -7.1770   18.6170  -33.4400 O   0  0  0  0  0  0  0  0  0  0  0  0
   -7.2730   19.8270  -32.7710 C   0  0  0  0  0  0  0  0  0  0  0  0
   -6.1710   20.5180  -32.2940 C   0  0  0  0  0  0  0  0  0  0  0  0
   -6.3300   21.7170  -31.6360 C   0  0  0  0  0  0  0  0  0  0  0  0
   -5.2040   22.4920  -31.1090 C   0  0  0  0  0  0  0  0  0  0  0  0
   -5.1530   23.8680  -31.2380 C   0  0  0  0  0  0  0  0  0  0  0  0
   -4.1050   24.5580  -30.7460 N   0  0  0  0  0  0  0  0  0  0  0  0
   -3.0970   23.9170  -30.1250 C   0  0  0  0  0  0  0  0  0  0  0  0
   -2.0420   24.6300  -29.6330 N   0  0  0  0  0  0  0  0  0  0  0  0
   -1.0430   23.9670  -29.0150 C   0  0  0  0  0  0  0  0  0  0  0  0
   -0.0100   24.5790  -28.5230 N   0  0  0  0  0  0  0  0  0  0  0  0
   -1.0680   22.6260  -28.8750 N   0  0  0  0  0  0  0  0  0  0  0  0
   -2.1000   21.8730  -29.3500 C   0  0  0  0  0  0  0  0  0  0  0  0
   -2.0280   20.6160  -29.1670 N   0  0  0  0  0  0  0  0  0  0  0  0
   -3.1180   22.5450  -29.9790 C   0  0  0  0  0  0  0  0  0  0  0  0
   -4.1850   21.8330  -30.4790 C   0  0  0  0  0  0  0  0  0  0  0  0
   -7.6120   22.2150  -31.4640 C   0  0  0  0  0  0  0  0  0  0  0  0
   -8.7160   21.5350  -31.9360 C   0  0  0  0  0  0  0  0  0  0  0  0
   -8.5590   20.3300  -32.5970 C   0  0  0  0  0  0  0  0  0  0  0  0
   -9.6520   19.6560  -33.0650 O   0  0  0  0  0  0  0  0  0  0  0  0
   -6.8691   17.6853  -31.6087 H   0  0  0  0  0  0  0  0  0  0  0  0
   -7.4642   16.6236  -32.9298 H   0  0  0  0  0  0  0  0  0  0  0  0
   -5.7586   17.1872  -32.9298 H   0  0  0  0  0  0  0  0  0  0  0  0
   -5.1619   20.1059  -32.4420 H   0  0  0  0  0  0  0  0  0  0  0  0
   -5.9711   24.4014  -31.7442 H   0  0  0  0  0  0  0  0  0  0  0  0
   -1.9930   25.6730  -29.7250 H   0  0  0  0  0  0  0  0  0  0  0  0
    0.1190   25.5970  -28.5700 H   0  0  0  0  0  0  0  0  0  0  0  0
   -0.2670   22.1410  -28.3850 H   0  0  0  0  0  0  0  0  0  0  0  0
   -2.7280   19.9280  -29.4700 H   0  0  0  0  0  0  0  0  0  0  0  0
   -4.2176   20.7387  -30.3721 H   0  0  0  0  0  0  0  0  0  0  0  0
   -7.7522   23.1722  -30.9404 H   0  0  0  0  0  0  0  0  0  0  0  0
   -9.7229   21.9519  -31.7864 H   0  0  0  0  0  0  0  0  0  0  0  0
   -9.6590   18.9830  -33.8180 H   0  0  0  0  0  0  0  0  0  0  0  0
  1  2  1  0
  2  3  1  0
  3  4  2  0
  4  5  1  0
  5  6  1  0
  6  7  2  0
  7  8  1  0
  8  9  2  0
  9 10  1  0
 10 11  1  0
 11 12  2  3
 11 13  1  0
 13 14  1  0
 14 15  2  3
 14 16  1  0
 16 17  2  0
  5 18  2  0
 18 19  1  0
 19 20  2  0
 20 21  1  0
 20  3  1  0
 17  6  1  0
 16  9  1  0
  1 22  1  0
  1 23  1  0
  1 24  1  0
  4 25  1  0
  7 26  1  0
 10 27  1  0
 12 28  1  0
 13 29  1  0
 15 30  1  0
 17 31  1  0
 18 32  1  0
 19 33  1  0
 21 34  1  0
M  END
>  <smiles>  (37) 
COc1cc(-c2cnc3[nH]c(=N)[nH]c(=N)c3c2)ccc1O

>  <score_type>  (37) 
oracle

>  <origin>  (37) 
adgpu

>  <m_score__min__energy>  (37) 
-8.1400000000000006

>  <m_primary>  (37) 
energy

$$$$
37:0
     RDKit          3D

 50 53  0  0  0  0  0  0  0  0999 V2000
   -6.8950   15.8970  -34.1190 C   0  0  0  0  0  0  0  0  0  0  0  0
   -6.7890   17.3020  -33.6070 C   0  0  0  0  0  0  0  0  0  0  0  0
   -7.5560   17.7070  -32.5060 C   0  0  0  0  0  0  0  0  0  0  0  0
   -7.4760   19.0200  -32.0370 C   0  0  0  0  0  0  0  0  0  0  0  0
   -6.6400   19.9580  -32.6680 C   0  0  0  0  0  0  0  0  0  0  0  0
   -6.5530   21.3010  -32.1540 N   0  0  0  0  0  0  0  0  0  0  0  0
   -7.5700   22.1660  -31.9460 C   0  0  0  0  0  0  0  0  0  0  0  0
   -7.0540   23.3400  -31.4410 C   0  0  0  0  0  0  0  0  0  0  0  0
   -5.6910   23.1190  -31.3730 C   0  0  0  0  0  0  0  0  0  0  0  0
   -4.6790   24.0690  -30.8780 C   0  0  0  0  0  0  0  0  0  0  0  0
   -4.8900   25.3060  -30.9830 O   0  0  0  0  0  0  0  0  0  0  0  0
   -3.4870   23.6230  -30.2190 N   0  0  0  0  0  0  0  0  0  0  0  0
   -2.8570   24.2650  -29.1020 C   0  0  0  0  0  0  0  0  0  0  0  0
   -1.5800   24.8440  -29.2120 C   0  0  0  0  0  0  0  0  0  0  0  0
   -0.9910   25.4640  -28.1080 C   0  0  0  0  0  0  0  0  0  0  0  0
   -1.6720   25.5190  -26.8840 C   0  0  0  0  0  0  0  0  0  0  0  0
   -1.0480   26.1700  -25.7160 C   0  0  0  0  0  0  0  0  0  0  0  0
   -1.2170   27.5530  -25.5510 C   0  0  0  0  0  0  0  0  0  0  0  0
   -0.6270   28.2150  -24.4740 C   0  0  0  0  0  0  0  0  0  0  0  0
    0.1300   27.5020  -23.5460 C   0  0  0  0  0  0  0  0  0  0  0  0
    0.3010   26.1230  -23.6930 C   0  0  0  0  0  0  0  0  0  0  0  0
   -0.2880   25.4410  -24.7690 C   0  0  0  0  0  0  0  0  0  0  0  0
   -0.0850   23.6860  -24.8900 S   0  0  0  0  0  0  0  0  0  0  0  0
   -0.4590   22.9440  -23.3730 N   0  0  0  0  0  0  0  0  0  0  0  0
   -0.9990   23.1320  -25.9480 O   0  0  0  0  0  0  0  0  0  0  0  0
    1.3340   23.3700  -25.2750 O   0  0  0  0  0  0  0  0  0  0  0  0
   -2.9640   24.9840  -26.7840 C   0  0  0  0  0  0  0  0  0  0  0  0
   -3.5540   24.3640  -27.8910 C   0  0  0  0  0  0  0  0  0  0  0  0
   -5.4130   21.8720  -31.8000 N   0  0  0  0  0  0  0  0  0  0  0  0
   -5.8870   19.5530  -33.7870 C   0  0  0  0  0  0  0  0  0  0  0  0
   -5.9670   18.2380  -34.2550 C   0  0  0  0  0  0  0  0  0  0  0  0
   -6.9476   15.2002  -33.2695 H   0  0  0  0  0  0  0  0  0  0  0  0
   -7.8032   15.7975  -34.7316 H   0  0  0  0  0  0  0  0  0  0  0  0
   -6.0120   15.6624  -34.7316 H   0  0  0  0  0  0  0  0  0  0  0  0
   -8.2237   16.9877  -32.0093 H   0  0  0  0  0  0  0  0  0  0  0  0
   -8.0734   19.3236  -31.1647 H   0  0  0  0  0  0  0  0  0  0  0  0
   -8.6330   21.9664  -32.1464 H   0  0  0  0  0  0  0  0  0  0  0  0
   -7.6036   24.2492  -31.1559 H   0  0  0  0  0  0  0  0  0  0  0  0
   -1.0431   24.8083  -30.1714 H   0  0  0  0  0  0  0  0  0  0  0  0
    0.0102   25.9105  -28.1991 H   0  0  0  0  0  0  0  0  0  0  0  0
   -1.8193   28.1196  -26.2764 H   0  0  0  0  0  0  0  0  0  0  0  0
   -0.7594   29.3007  -24.3571 H   0  0  0  0  0  0  0  0  0  0  0  0
    0.5934   28.0255  -22.6968 H   0  0  0  0  0  0  0  0  0  0  0  0
    0.9026   25.5670  -22.9589 H   0  0  0  0  0  0  0  0  0  0  0  0
    0.4490   22.6620  -22.9420 H   0  0  0  0  0  0  0  0  0  0  0  0
   -0.8640   23.6840  -22.7570 H   0  0  0  0  0  0  0  0  0  0  0  0
   -3.5146   25.0517  -25.8341 H   0  0  0  0  0  0  0  0  0  0  0  0
   -4.5707   23.9521  -27.8098 H   0  0  0  0  0  0  0  0  0  0  0  0
   -5.2320   20.2755  -34.2958 H   0  0  0  0  0  0  0  0  0  0  0  0
   -5.3825   17.9348  -35.1361 H   0  0  0  0  0  0  0  0  0  0  0  0
  1  2  1  0
  2  3  2  0
  3  4  1  0
  4  5  2  0
  5  6  1  0
  6  7  1  0
  7  8  2  0
  8  9  1  0
  9 10  1  0
 10 11  2  0
 10 12  1  0
 12 13  1  0
 13 14  2  0
 14 15  1  0
 15 16  2  0
 16 17  1  0
 17 18  2  0
 18 19  1  0
 19 20  2  0
 20 21  1  0
 21 22  2  0
 22 23  1  0
 23 24  1  0
 23 25  2  0
 23 26  2  0
 16 27  1  0
 27 28  2  0
  9 29  2  0
  5 30  1  0
 30 31  2  0
 31  2  1  0
 29  6  1  0
 28 13  1  0
 22 17  1  0
  1 32  1  0
  1 33  1  0
  1 34  1  0
  3 35  1  0
  4 36  1  0
  7 37  1  0
  8 38  1  0
 14 39  1  0
 15 40  1  0
 18 41  1  0
 19 42  1  0
 20 43  1  0
 21 44  1  0
 24 45  1  0
 24 46  1  0
 27 47  1  0
 28 48  1  0
 30 49  1  0
 31 50  1  0
M  CHG  1  12  -1
M  END
>  <UniqueID>  (38) 
35

>  <SMILES>  (38) 
Cc1ccc(-n2ccc(C(=O)[N-]c3ccc(-c4ccccc4S(N)(=O)=O)cc3)n2)cc1

>  <Energy>  (38) 
94.27686298361839

>  <Genealogy>  (38) 
Cc1ccc(-n2ccc(C(=O)[N-]c3ccc(-c4ccccc4S(N)(=O)=O)cc3)n2)cc1 (protonated)
Cc1ccc(-n2ccc(C(=O)[N-]c3ccc(-c4ccccc4S(N)(=O)=O)cc3)n2)cc1 (3D coordinates assigned)
Cc1ccc(-n2ccc(C(=O)[N-]c3ccc(-c4ccccc4S(N)(=O)=O)cc3)n2)cc1 (optimized conformer: 94.27686298361839 kcal/mol)

>  <smiles>  (38) 
Cc1ccc(-n2ccc(C(=O)Nc3ccc(-c4ccccc4S(N)(=O)=O)cc3)n2)cc1

>  <score_type>  (38) 
oracle

>  <origin>  (38) 
adgpu

>  <m_score__min__energy>  (38) 
-12.279999999999999

>  <m_primary>  (38) 
energy

$$$$
38:0
     RDKit          3D

 39 41  0  0  0  0  0  0  0  0999 V2000
   -2.0100   21.5450  -32.8170 O   0  0  0  0  0  0  0  0  0  0  0  0
   -2.4500   21.9120  -31.6930 C   0  0  0  0  0  0  0  0  0  0  0  0
   -3.3670   22.9680  -31.5980 O   0  0  0  0  0  0  0  0  0  0  0  0
   -4.7620   22.8480  -31.7030 C   0  0  0  0  0  0  0  0  0  0  0  0
   -5.3620   21.6560  -32.1570 C   0  0  0  0  0  0  0  0  0  0  0  0
   -6.7520   21.5450  -32.2230 C   0  0  0  0  0  0  0  0  0  0  0  0
   -7.5580   22.6130  -31.8340 C   0  0  0  0  0  0  0  0  0  0  0  0
   -6.9800   23.7940  -31.3680 C   0  0  0  0  0  0  0  0  0  0  0  0
   -5.5810   23.9200  -31.2870 C   0  0  0  0  0  0  0  0  0  0  0  0
   -4.9850   25.1860  -30.7920 C   0  0  0  0  0  0  0  0  0  0  0  0
   -5.7240   26.1890  -30.6080 O   0  0  0  0  0  0  0  0  0  0  0  0
   -3.5970   25.2850  -30.4480 N   0  0  0  0  0  0  0  0  0  0  0  0
   -2.9720   24.7380  -29.2780 C   0  0  0  0  0  0  0  0  0  0  0  0
   -1.5780   24.7920  -29.0900 C   0  0  0  0  0  0  0  0  0  0  0  0
   -1.0050   24.2630  -27.9290 C   0  0  0  0  0  0  0  0  0  0  0  0
   -1.8160   23.6940  -26.9430 C   0  0  0  0  0  0  0  0  0  0  0  0
   -3.2030   23.6600  -27.1140 C   0  0  0  0  0  0  0  0  0  0  0  0
   -3.7790   24.1870  -28.2740 C   0  0  0  0  0  0  0  0  0  0  0  0
   -2.0090   21.2290  -30.4570 C   0  0  0  0  0  0  0  0  0  0  0  0
   -2.9100   21.1600  -29.3800 C   0  0  0  0  0  0  0  0  0  0  0  0
   -2.5760   20.4660  -28.2150 C   0  0  0  0  0  0  0  0  0  0  0  0
   -1.3380   19.8320  -28.1090 C   0  0  0  0  0  0  0  0  0  0  0  0
   -0.4230   19.9090  -29.1600 C   0  0  0  0  0  0  0  0  0  0  0  0
   -0.7340   20.6190  -30.3270 C   0  0  0  0  0  0  0  0  0  0  0  0
    0.2570   20.7230  -31.3060 O   0  0  0  0  0  0  0  0  0  0  0  0
   -4.7310   20.8079  -32.4612 H   0  0  0  0  0  0  0  0  0  0  0  0
   -7.2118   20.6127  -32.5827 H   0  0  0  0  0  0  0  0  0  0  0  0
   -8.6528   22.5246  -31.8945 H   0  0  0  0  0  0  0  0  0  0  0  0
   -7.6225   24.6327  -31.0617 H   0  0  0  0  0  0  0  0  0  0  0  0
   -0.9380   25.2512  -29.8578 H   0  0  0  0  0  0  0  0  0  0  0  0
    0.0859   24.2948  -27.7916 H   0  0  0  0  0  0  0  0  0  0  0  0
   -1.3631   23.2733  -26.0331 H   0  0  0  0  0  0  0  0  0  0  0  0
   -3.8419   23.2182  -26.3352 H   0  0  0  0  0  0  0  0  0  0  0  0
   -4.8717   24.1689  -28.3990 H   0  0  0  0  0  0  0  0  0  0  0  0
   -3.8880   21.6577  -29.4557 H   0  0  0  0  0  0  0  0  0  0  0  0
   -3.2902   20.4193  -27.3797 H   0  0  0  0  0  0  0  0  0  0  0  0
   -1.0830   19.2716  -27.1974 H   0  0  0  0  0  0  0  0  0  0  0  0
    0.5519   19.4073  -29.0712 H   0  0  0  0  0  0  0  0  0  0  0  0
    0.0770   21.0310  -32.2510 H   0  0  0  0  0  0  0  0  0  0  0  0
  1  2  2  0
  2  3  1  0
  3  4  1  0
  4  5  2  0
  5  6  1  0
  6  7  2  0
  7  8  1  0
  8  9  2  0
  9 10  1  0
 10 11  2  0
 10 12  1  0
 12 13  1  0
 13 14  2  0
 14 15  1  0
 15 16  2  0
 16 17  1  0
 17 18  2  0
  2 19  1  0
 19 20  2  0
 20 21  1  0
 21 22  2  0
 22 23  1  0
 23 24  2  0
 24 25  1  0
  9  4  1  0
 18 13  1  0
 24 19  1  0
  5 26  1  0
  6 27  1  0
  7 28  1  0
  8 29  1  0
 14 30  1  0
 15 31  1  0
 16 32  1  0
 17 33  1  0
 18 34  1  0
 20 35  1  0
 21 36  1  0
 22 37  1  0
 23 38  1  0
 25 39  1  0
M  CHG  1  12  -1
M  END
>  <UniqueID>  (39) 
36

>  <SMILES>  (39) 
O=C(Oc1ccccc1C(=O)[N-]c1ccccc1)c1ccccc1O

>  <Energy>  (39) 
59.80574687735714

>  <Genealogy>  (39) 
O=C(Oc1ccccc1C(=O)[N-]c1ccccc1)c1ccccc1O (protonated)
O=C(Oc1ccccc1C(=O)[N-]c1ccccc1)c1ccccc1O (3D coordinates assigned)
O=C(Oc1ccccc1C(=O)[N-]c1ccccc1)c1ccccc1O (optimized conformer: 59.80574687735714 kcal/mol)

>  <smiles>  (39) 
O=C(Oc1ccccc1C(=O)Nc1ccccc1)c1ccccc1O

>  <score_type>  (39) 
oracle

>  <origin>  (39) 
adgpu

>  <m_score__min__energy>  (39) 
-9.3399999999999999

>  <m_primary>  (39) 
energy

$$$$
39:0
     RDKit          3D

 53 55  0  0  0  0  0  0  0  0999 V2000
    1.2350   27.6100  -23.3220 C   0  0  0  0  0  0  0  0  0  0  0  0
    0.8580   26.9330  -24.5690 N   0  0  0  0  0  0  0  0  0  0  0  0
    1.1890   25.5050  -24.4860 C   0  0  0  0  0  0  0  0  0  0  0  0
   -0.8570   27.1140  -24.8350 S   0  0  0  0  0  0  0  0  0  0  0  0
   -1.1920   28.5590  -25.0860 O   0  0  0  0  0  0  0  0  0  0  0  0
   -1.6130   26.6530  -23.6190 O   0  0  0  0  0  0  0  0  0  0  0  0
   -1.3550   26.1320  -26.2100 C   0  0  0  0  0  0  0  0  0  0  0  0
   -0.6250   26.1550  -27.4060 C   0  0  0  0  0  0  0  0  0  0  0  0
   -1.0190   25.3600  -28.4860 C   0  0  0  0  0  0  0  0  0  0  0  0
   -2.1400   24.5170  -28.3770 C   0  0  0  0  0  0  0  0  0  0  0  0
   -2.5800   23.7050  -29.4800 N   0  0  0  0  0  0  0  0  0  0  0  0
   -3.5610   24.1140  -30.4430 C   0  0  0  0  0  0  0  0  0  0  0  0
   -3.9210   25.3210  -30.5130 O   0  0  0  0  0  0  0  0  0  0  0  0
   -4.0530   23.1550  -31.3860 N   0  0  0  0  0  0  0  0  0  0  0  0
   -5.4130   22.7160  -31.5270 C   0  0  0  0  0  0  0  0  0  0  0  0
   -6.4910   23.6200  -31.5340 C   0  0  0  0  0  0  0  0  0  0  0  0
   -7.8010   23.1470  -31.6490 C   0  0  0  0  0  0  0  0  0  0  0  0
   -8.0490   21.7760  -31.7450 C   0  0  0  0  0  0  0  0  0  0  0  0
   -6.9830   20.8660  -31.7180 C   0  0  0  0  0  0  0  0  0  0  0  0
   -7.2760   19.1310  -31.8040 S   0  0  0  0  0  0  0  0  0  0  0  0
   -6.2630   18.3930  -30.9700 O   0  0  0  0  0  0  0  0  0  0  0  0
   -8.6470   18.8540  -31.2540 O   0  0  0  0  0  0  0  0  0  0  0  0
   -7.1880   18.6020  -33.4700 N   0  0  0  0  0  0  0  0  0  0  0  0
   -6.1230   19.3160  -34.1830 C   0  0  0  0  0  0  0  0  0  0  0  0
   -4.8570   18.4760  -34.1090 C   0  0  0  0  0  0  0  0  0  0  0  0
   -5.3100   17.0910  -33.6910 C   0  0  0  0  0  0  0  0  0  0  0  0
   -6.8220   17.1830  -33.5390 C   0  0  0  0  0  0  0  0  0  0  0  0
   -5.6700   21.3410  -31.5970 C   0  0  0  0  0  0  0  0  0  0  0  0
   -2.8770   24.5130  -27.1840 C   0  0  0  0  0  0  0  0  0  0  0  0
   -2.4820   25.3080  -26.1040 C   0  0  0  0  0  0  0  0  0  0  0  0
    0.9006   27.0095  -22.4632 H   0  0  0  0  0  0  0  0  0  0  0  0
    2.3281   27.7269  -23.2843 H   0  0  0  0  0  0  0  0  0  0  0  0
    0.7588   28.6008  -23.2843 H   0  0  0  0  0  0  0  0  0  0  0  0
    1.2584   25.2055  -23.4298 H   0  0  0  0  0  0  0  0  0  0  0  0
    0.4033   24.9170  -24.9830 H   0  0  0  0  0  0  0  0  0  0  0  0
    2.1532   25.3226  -24.9830 H   0  0  0  0  0  0  0  0  0  0  0  0
    0.2610   26.8008  -27.4951 H   0  0  0  0  0  0  0  0  0  0  0  0
   -0.4494   25.3937  -29.4264 H   0  0  0  0  0  0  0  0  0  0  0  0
   -2.1030   22.7890  -29.6400 H   0  0  0  0  0  0  0  0  0  0  0  0
   -6.3025   24.7004  -31.4489 H   0  0  0  0  0  0  0  0  0  0  0  0
   -8.6405   23.8577  -31.6640 H   0  0  0  0  0  0  0  0  0  0  0  0
   -9.0817   21.4099  -31.8419 H   0  0  0  0  0  0  0  0  0  0  0  0
   -6.4119   19.4627  -35.2342 H   0  0  0  0  0  0  0  0  0  0  0  0
   -5.9530   20.3015  -33.7248 H   0  0  0  0  0  0  0  0  0  0  0  0
   -4.3634   18.4383  -35.0913 H   0  0  0  0  0  0  0  0  0  0  0  0
   -4.1299   18.8976  -33.3994 H   0  0  0  0  0  0  0  0  0  0  0  0
   -5.0459   16.3518  -34.4616 H   0  0  0  0  0  0  0  0  0  0  0  0
   -4.8260   16.7692  -32.7571 H   0  0  0  0  0  0  0  0  0  0  0  0
   -7.3129   16.7130  -34.4040 H   0  0  0  0  0  0  0  0  0  0  0  0
   -7.1455   16.6613  -32.6262 H   0  0  0  0  0  0  0  0  0  0  0  0
   -4.8338   20.6275  -31.5566 H   0  0  0  0  0  0  0  0  0  0  0  0
   -3.7723   23.8798  -27.0973 H   0  0  0  0  0  0  0  0  0  0  0  0
   -3.0587   25.2861  -25.1676 H   0  0  0  0  0  0  0  0  0  0  0  0
  1  2  1  0
  2  3  1  0
  2  4  1  0
  4  5  2  0
  4  6  2  0
  4  7  1  0
  7  8  2  0
  8  9  1  0
  9 10  2  0
 10 11  1  0
 11 12  1  0
 12 13  2  0
 12 14  1  0
 14 15  1  0
 15 16  2  0
 16 17  1  0
 17 18  2  0
 18 19  1  0
 19 20  1  0
 20 21  2  0
 20 22  2  0
 20 23  1  0
 23 24  1  0
 24 25  1  0
 25 26  1  0
 26 27  1  0
 19 28  2  0
 10 29  1  0
 29 30  2  0
 30  7  1  0
 28 15  1  0
 27 23  1  0
  1 31  1  0
  1 32  1  0
  1 33  1  0
  3 34  1  0
  3 35  1  0
  3 36  1  0
  8 37  1  0
  9 38  1  0
 11 39  1  0
 16 40  1  0
 17 41  1  0
 18 42  1  0
 24 43  1  0
 24 44  1  0
 25 45  1  0
 25 46  1  0
 26 47  1  0
 26 48  1  0
 27 49  1  0
 27 50  1  0
 28 51  1  0
 29 52  1  0
 30 53  1  0
M  CHG  1  14  -1
M  END
>  <UniqueID>  (40) 
37

>  <SMILES>  (40) 
CN(C)S(=O)(=O)c1ccc(NC(=O)[N-]c2cccc(S(=O)(=O)N3CCCC3)c2)cc1

>  <Energy>  (40) 
59.141362234481065

>  <Genealogy>  (40) 
CN(C)S(=O)(=O)c1ccc(NC(=O)[N-]c2cccc(S(=O)(=O)N3CCCC3)c2)cc1 (protonated)
CN(C)S(=O)(=O)c1ccc(NC(=O)[N-]c2cccc(S(=O)(=O)N3CCCC3)c2)cc1 (3D coordinates assigned)
CN(C)S(=O)(=O)c1ccc(NC(=O)[N-]c2cccc(S(=O)(=O)N3CCCC3)c2)cc1 (nonaromatic ring conformer: 59.141362234481065 kcal/mol)

>  <smiles>  (40) 
CN(C)S(=O)(=O)c1ccc(NC(=O)Nc2cccc(S(=O)(=O)N3CCCC3)c2)cc1

>  <score_type>  (40) 
oracle

>  <origin>  (40) 
adgpu

>  <m_score__min__energy>  (40) 
-11.17

>  <m_primary>  (40) 
energy

$$$$
40:0
     RDKit          3D

 30 31  0  0  0  0  0  0  0  0999 V2000
   -7.4709   21.3291  -33.0077 H   0  0  0  0  0  0  0  0  0  0  0  0
   -6.6890   20.6740  -32.5960 C   0  0  0  0  0  0  0  0  0  0  0  0
   -5.8750   21.1740  -31.6530 C   0  0  0  0  0  0  0  0  0  0  0  0
   -5.0931   20.5189  -31.2413 H   0  0  0  0  0  0  0  0  0  0  0  0
   -5.9710   22.5610  -31.1350 C   0  0  0  0  0  0  0  0  0  0  0  0
   -7.2050   23.2230  -30.9580 C   0  0  0  0  0  0  0  0  0  0  0  0
   -8.1438   22.7035  -31.2003 H   0  0  0  0  0  0  0  0  0  0  0  0
   -7.2410   24.5340  -30.4770 C   0  0  0  0  0  0  0  0  0  0  0  0
   -8.2077   25.0391  -30.3343 H   0  0  0  0  0  0  0  0  0  0  0  0
   -6.0550   25.2050  -30.1770 C   0  0  0  0  0  0  0  0  0  0  0  0
   -6.0901   26.2355  -29.7939 H   0  0  0  0  0  0  0  0  0  0  0  0
   -4.8200   24.5710  -30.3620 C   0  0  0  0  0  0  0  0  0  0  0  0
   -3.6040   25.2610  -30.0620 N   0  0  0  0  0  0  0  0  0  0  0  0
   -3.0190   25.6710  -30.8240 H   0  0  0  0  0  0  0  0  0  0  0  0
   -3.2800   25.3680  -29.0740 H   0  0  0  0  0  0  0  0  0  0  0  0
   -4.7830   23.2550  -30.8450 C   0  0  0  0  0  0  0  0  0  0  0  0
   -3.8129   22.7597  -30.9988 H   0  0  0  0  0  0  0  0  0  0  0  0
   -6.5930   19.2870  -33.1140 C   0  0  0  0  0  0  0  0  0  0  0  0
   -5.8050   18.9450  -34.2320 C   0  0  0  0  0  0  0  0  0  0  0  0
   -5.2382   19.7259  -34.7602 H   0  0  0  0  0  0  0  0  0  0  0  0
   -5.7390   17.6200  -34.6740 C   0  0  0  0  0  0  0  0  0  0  0  0
   -5.1268   17.3660  -35.5519 H   0  0  0  0  0  0  0  0  0  0  0  0
   -6.4480   16.6150  -34.0050 C   0  0  0  0  0  0  0  0  0  0  0  0
   -6.3790   15.2600  -34.4590 N   0  0  0  0  0  0  0  0  0  0  0  0
   -5.5020   14.8820  -34.8810 H   0  0  0  0  0  0  0  0  0  0  0  0
   -7.2050   14.6260  -34.3750 H   0  0  0  0  0  0  0  0  0  0  0  0
   -7.2190   16.9440  -32.8840 C   0  0  0  0  0  0  0  0  0  0  0  0
   -7.7737   16.1578  -32.3509 H   0  0  0  0  0  0  0  0  0  0  0  0
   -7.2870   18.2680  -32.4390 C   0  0  0  0  0  0  0  0  0  0  0  0
   -7.8894   18.5143  -31.5522 H   0  0  0  0  0  0  0  0  0  0  0  0
  1  2  1  0
  2  3  2  0
  3  4  1  0
  3  5  1  0
  5  6  2  0
  6  7  1  0
  6  8  1  0
  8  9  1  0
  8 10  2  0
 10 11  1  0
 10 12  1  0
 12 13  1  0
 13 14  1  0
 13 15  1  0
 12 16  2  0
 16 17  1  0
  2 18  1  0
 18 19  2  0
 19 20  1  0
 19 21  1  0
 21 22  1  0
 21 23  2  0
 23 24  1  0
 24 25  1  0
 24 26  1  0
 23 27  1  0
 27 28  1  0
 27 29  2  0
 29 30  1  0
 16  5  1  0
 29 18  1  0
M  END
>  <UniqueID>  (41) 
38

>  <SMILES>  (41) 
Nc1ccc(/C=C/c2cccc(N)c2)cc1

>  <Energy>  (41) 
33.73971644588396

>  <Genealogy>  (41) 
Nc1ccc(/C=C/c2cccc(N)c2)cc1 (cis-trans isomerization)
Nc1ccc(/C=C/c2cccc(N)c2)cc1 (3D coordinates assigned)
Nc1ccc(/C=C/c2cccc(N)c2)cc1 (optimized conformer: 33.73971644588396 kcal/mol)

>  <smiles>  (41) 
Nc1ccc(C=Cc2cccc(N)c2)cc1

>  <score_type>  (41) 
oracle

>  <origin>  (41) 
adgpu

>  <m_score__min__energy>  (41) 
-6.8899999999999997

>  <m_primary>  (41) 
energy

$$$$
41:0
     RDKit          3D

 37 39  0  0  0  0  0  0  0  0999 V2000
    1.8160   26.7870  -22.5020 H   0  0  0  0  0  0  0  0  0  0  0  0
    1.7830   26.6390  -23.5040 O   0  0  0  0  0  0  0  0  0  0  0  0
    0.6250   26.1920  -24.1350 C   0  0  0  0  0  0  0  0  0  0  0  0
   -0.4210   27.0900  -24.3740 C   0  0  0  0  0  0  0  0  0  0  0  0
   -0.3279   28.1384  -24.0544 H   0  0  0  0  0  0  0  0  0  0  0  0
   -1.5840   26.6580  -25.0180 C   0  0  0  0  0  0  0  0  0  0  0  0
   -2.4017   27.3682  -25.2103 H   0  0  0  0  0  0  0  0  0  0  0  0
   -1.7090   25.3240  -25.4180 C   0  0  0  0  0  0  0  0  0  0  0  0
   -2.6177   24.9918  -25.9413 H   0  0  0  0  0  0  0  0  0  0  0  0
   -0.6780   24.4060  -25.1540 C   0  0  0  0  0  0  0  0  0  0  0  0
   -0.7680   23.0030  -25.6100 C   0  0  0  0  0  0  0  0  0  0  0  0
   -0.5228   22.2171  -24.8804 H   0  0  0  0  0  0  0  0  0  0  0  0
   -1.1250   22.6110  -26.8430 C   0  0  0  0  0  0  0  0  0  0  0  0
   -1.0051   21.5454  -27.0880 H   0  0  0  0  0  0  0  0  0  0  0  0
   -1.6650   23.4910  -27.8970 C   0  0  0  0  0  0  0  0  0  0  0  0
   -0.9990   24.5290  -28.4540 N   0  0  0  0  0  0  0  0  0  0  0  0
   -1.7250   25.2160  -29.3350 N   0  0  0  0  0  0  0  0  0  0  0  0
   -2.9790   24.7400  -29.4760 C   0  0  0  0  0  0  0  0  0  0  0  0
   -3.8370   25.2880  -30.2880 N   0  0  0  0  0  0  0  0  0  0  0  0
   -5.1930   24.8860  -30.5320 C   0  0  0  0  0  0  0  0  0  0  0  0
   -6.1060   25.1370  -29.7000 O   0  0  0  0  0  0  0  0  0  0  0  0
   -5.4820   24.1360  -31.7170 N   0  0  0  0  0  0  0  0  0  0  0  0
   -6.3460   22.9950  -31.8160 C   0  0  0  0  0  0  0  0  0  0  0  0
   -5.8090   21.7850  -32.2760 C   0  0  0  0  0  0  0  0  0  0  0  0
   -4.7420   21.7255  -32.5368 H   0  0  0  0  0  0  0  0  0  0  0  0
   -6.6190   20.6530  -32.4060 C   0  0  0  0  0  0  0  0  0  0  0  0
   -6.1848   19.7041  -32.7540 H   0  0  0  0  0  0  0  0  0  0  0  0
   -7.9820   20.7250  -32.0940 C   0  0  0  0  0  0  0  0  0  0  0  0
   -8.8170   19.5610  -32.2310 C   0  0  0  0  0  0  0  0  0  0  0  0
   -9.4880   18.6250  -32.3410 N   0  0  0  0  0  0  0  0  0  0  0  0
   -8.5310   21.9370  -31.6580 C   0  0  0  0  0  0  0  0  0  0  0  0
   -9.6028   21.9985  -31.4184 H   0  0  0  0  0  0  0  0  0  0  0  0
   -7.7210   23.0700  -31.5260 C   0  0  0  0  0  0  0  0  0  0  0  0
   -8.1603   24.0224  -31.1945 H   0  0  0  0  0  0  0  0  0  0  0  0
   -3.2450   23.4060  -28.4720 S   0  0  0  0  0  0  0  0  0  0  0  0
    0.4990   24.8530  -24.5350 C   0  0  0  0  0  0  0  0  0  0  0  0
    1.3273   24.1501  -24.3624 H   0  0  0  0  0  0  0  0  0  0  0  0
  1  2  1  0
  2  3  1  0
  3  4  2  0
  4  5  1  0
  4  6  1  0
  6  7  1  0
  6  8  2  0
  8  9  1  0
  8 10  1  0
 10 11  1  0
 11 12  1  0
 11 13  2  3
 13 14  1  0
 13 15  1  0
 15 16  2  0
 16 17  1  0
 17 18  1  0
 18 19  2  0
 19 20  1  0
 20 21  2  0
 20 22  1  0
 22 23  1  0
 23 24  2  0
 24 25  1  0
 24 26  1  0
 26 27  1  0
 26 28  2  0
 28 29  1  0
 29 30  3  0
 28 31  1  0
 31 32  1  0
 31 33  2  0
 33 34  1  0
 18 35  1  0
 10 36  2  0
 36 37  1  0
 36  3  1  0
 35 15  1  0
 33 23  1  0
M  CHG  2  17  -1  22  -1
M  END
>  <UniqueID>  (42) 
39

>  <SMILES>  (42) 
N#Cc1ccc([N-]C(=O)/N=c2/[n-]nc(C=Cc3cccc(O)c3)s2)cc1

>  <Energy>  (42) 
86.85199866385747

>  <Genealogy>  (42) 
N#Cc1ccc([N-]C(=O)N=c2[n-]nc(C=Cc3cccc(O)c3)s2)cc1 (protonated)
N#Cc1ccc([N-]C(=O)/N=c2/[n-]nc(C=Cc3cccc(O)c3)s2)cc1 (cis-trans isomerization)
N#Cc1ccc([N-]C(=O)/N=c2/[n-]nc(C=Cc3cccc(O)c3)s2)cc1 (3D coordinates assigned)
N#Cc1ccc([N-]C(=O)/N=c2/[n-]nc(C=Cc3cccc(O)c3)s2)cc1 (optimized conformer: 86.85199866385747 kcal/mol)

>  <smiles>  (42) 
N#Cc1ccc(NC(=O)N=c2[nH]nc(C=Cc3cccc(O)c3)s2)cc1

>  <score_type>  (42) 
oracle

>  <origin>  (42) 
adgpu

>  <m_score__min__energy>  (42) 
-11.460000000000001

>  <m_primary>  (42) 
energy

$$$$
42:0
     RDKit          3D

 48 50  0  0  0  0  0  0  0  0999 V2000
   -7.7900   18.2160  -32.2240 C   0  0  0  0  0  0  0  0  0  0  0  0
   -6.4670   18.7790  -32.6650 C   0  0  0  0  0  0  0  0  0  0  0  0
   -6.3570   20.1420  -32.9800 C   0  0  0  0  0  0  0  0  0  0  0  0
   -5.1380   20.6760  -33.4020 C   0  0  0  0  0  0  0  0  0  0  0  0
   -4.0020   19.8570  -33.5130 C   0  0  0  0  0  0  0  0  0  0  0  0
   -2.7320   20.3830  -33.9350 N   0  0  0  0  0  0  0  0  0  0  0  0
   -1.4110   20.6570  -32.8420 S   0  0  0  0  0  0  0  0  0  0  0  0
   -0.5190   21.7250  -33.4090 O   0  0  0  0  0  0  0  0  0  0  0  0
   -0.6000   19.4020  -32.6850 O   0  0  0  0  0  0  0  0  0  0  0  0
   -2.0360   21.2030  -31.2890 C   0  0  0  0  0  0  0  0  0  0  0  0
   -1.6020   20.5840  -30.1090 C   0  0  0  0  0  0  0  0  0  0  0  0
   -2.0680   21.0310  -28.8700 C   0  0  0  0  0  0  0  0  0  0  0  0
   -2.9580   22.1050  -28.8010 C   0  0  0  0  0  0  0  0  0  0  0  0
   -3.3890   22.7390  -29.9740 C   0  0  0  0  0  0  0  0  0  0  0  0
   -4.4690   24.1320  -29.8830 S   0  0  0  0  0  0  0  0  0  0  0  0
   -3.8380   25.2930  -30.5990 O   0  0  0  0  0  0  0  0  0  0  0  0
   -4.6610   24.5210  -28.4430 O   0  0  0  0  0  0  0  0  0  0  0  0
   -6.0240   23.7820  -30.6000 N   0  0  0  0  0  0  0  0  0  0  0  0
   -5.8720   23.4960  -32.0370 C   0  0  0  0  0  0  0  0  0  0  0  0
   -7.2520   23.4320  -32.7180 C   0  0  0  0  0  0  0  0  0  0  0  0
   -8.3770   23.0710  -31.7330 C   0  0  0  0  0  0  0  0  0  0  0  0
   -7.8820   22.0900  -30.6680 C   0  0  0  0  0  0  0  0  0  0  0  0
   -6.6620   22.6470  -29.9010 C   0  0  0  0  0  0  0  0  0  0  0  0
   -2.9320   22.2790  -31.2180 C   0  0  0  0  0  0  0  0  0  0  0  0
   -4.1070   18.5000  -33.1790 C   0  0  0  0  0  0  0  0  0  0  0  0
   -5.3280   17.9560  -32.7660 C   0  0  0  0  0  0  0  0  0  0  0  0
   -5.3990   16.2400  -32.3810 Cl  0  0  0  0  0  0  0  0  0  0  0  0
   -7.8327   18.1978  -31.1250 H   0  0  0  0  0  0  0  0  0  0  0  0
   -8.6042   18.8456  -32.6122 H   0  0  0  0  0  0  0  0  0  0  0  0
   -7.9008   17.1928  -32.6122 H   0  0  0  0  0  0  0  0  0  0  0  0
   -7.2381   20.7948  -32.8938 H   0  0  0  0  0  0  0  0  0  0  0  0
   -5.0666   21.7455  -33.6493 H   0  0  0  0  0  0  0  0  0  0  0  0
   -2.6550   20.8130  -34.8830 H   0  0  0  0  0  0  0  0  0  0  0  0
   -0.8930   19.7444  -30.1584 H   0  0  0  0  0  0  0  0  0  0  0  0
   -1.7331   20.5358  -27.9466 H   0  0  0  0  0  0  0  0  0  0  0  0
   -3.3216   22.4542  -27.8233 H   0  0  0  0  0  0  0  0  0  0  0  0
   -5.2734   24.2919  -32.5041 H   0  0  0  0  0  0  0  0  0  0  0  0
   -5.3681   22.5256  -32.1574 H   0  0  0  0  0  0  0  0  0  0  0  0
   -7.4727   24.4141  -33.1615 H   0  0  0  0  0  0  0  0  0  0  0  0
   -7.2114   22.6433  -33.4837 H   0  0  0  0  0  0  0  0  0  0  0  0
   -8.7310   23.9883  -31.2399 H   0  0  0  0  0  0  0  0  0  0  0  0
   -9.1940   22.5945  -32.2947 H   0  0  0  0  0  0  0  0  0  0  0  0
   -8.6959   21.8994  -29.9530 H   0  0  0  0  0  0  0  0  0  0  0  0
   -7.5753   21.1620  -31.1727 H   0  0  0  0  0  0  0  0  0  0  0  0
   -6.9939   22.9856  -28.9084 H   0  0  0  0  0  0  0  0  0  0  0  0
   -5.9180   21.8403  -29.8253 H   0  0  0  0  0  0  0  0  0  0  0  0
   -3.2783   22.7648  -32.1421 H   0  0  0  0  0  0  0  0  0  0  0  0
   -3.2185   17.8546  -33.2423 H   0  0  0  0  0  0  0  0  0  0  0  0
  1  2  1  0
  2  3  2  0
  3  4  1  0
  4  5  2  0
  5  6  1  0
  6  7  1  0
  7  8  2  0
  7  9  2  0
  7 10  1  0
 10 11  2  0
 11 12  1  0
 12 13  2  0
 13 14  1  0
 14 15  1  0
 15 16  2  0
 15 17  2  0
 15 18  1  0
 18 19  1  0
 19 20  1  0
 20 21  1  0
 21 22  1  0
 22 23  1  0
 14 24  2  0
  5 25  1  0
 25 26  2  0
 26 27  1  0
 26  2  1  0
 24 10  1  0
 23 18  1  0
  1 28  1  0
  1 29  1  0
  1 30  1  0
  3 31  1  0
  4 32  1  0
  6 33  1  0
 11 34  1  0
 12 35  1  0
 13 36  1  0
 19 37  1  0
 19 38  1  0
 20 39  1  0
 20 40  1  0
 21 41  1  0
 21 42  1  0
 22 43  1  0
 22 44  1  0
 23 45  1  0
 23 46  1  0
 24 47  1  0
 25 48  1  0
M  END
>  <UniqueID>  (43) 
40

>  <SMILES>  (43) 
Cc1ccc(NS(=O)(=O)c2cccc(S(=O)(=O)N3CCCCC3)c2)cc1Cl

>  <Energy>  (43) 
51.76178387144325

>  <Genealogy>  (43) 
Cc1ccc(NS(=O)(=O)c2cccc(S(=O)(=O)N3CCCCC3)c2)cc1Cl (3D coordinates assigned)
Cc1ccc(NS(=O)(=O)c2cccc(S(=O)(=O)N3CCCCC3)c2)cc1Cl (nonaromatic ring conformer: 51.76178387144325 kcal/mol)

>  <smiles>  (43) 
Cc1ccc(NS(=O)(=O)c2cccc(S(=O)(=O)N3CCCCC3)c2)cc1Cl

>  <score_type>  (43) 
oracle

>  <origin>  (43) 
adgpu

>  <m_score__min__energy>  (43) 
-11.039999999999999

>  <m_primary>  (43) 
energy

$$$$
43:0
     RDKit          3D

 43 45  0  0  0  0  0  0  0  0999 V2000
   -9.4700   19.1120  -32.1680 C   0  0  0  0  0  0  0  0  0  0  0  0
   -8.4370   20.1430  -32.0510 N   0  0  0  0  0  0  0  0  0  0  0  0
   -7.0820   19.8720  -32.4730 C   0  0  0  0  0  0  0  0  0  0  0  0
   -6.0260   19.8830  -31.5410 C   0  0  0  0  0  0  0  0  0  0  0  0
   -4.7170   19.6060  -31.9470 C   0  0  0  0  0  0  0  0  0  0  0  0
   -4.4450   19.3120  -33.2840 C   0  0  0  0  0  0  0  0  0  0  0  0
   -5.4810   19.2930  -34.2180 C   0  0  0  0  0  0  0  0  0  0  0  0
   -6.7920   19.5710  -33.8190 C   0  0  0  0  0  0  0  0  0  0  0  0
   -8.8790   21.7080  -31.4240 S   0  0  0  0  0  0  0  0  0  0  0  0
   -9.5950   21.5220  -30.1140 O   0  0  0  0  0  0  0  0  0  0  0  0
   -9.8050   22.4040  -32.3810 O   0  0  0  0  0  0  0  0  0  0  0  0
   -7.4410   22.6960  -31.1820 C   0  0  0  0  0  0  0  0  0  0  0  0
   -6.6910   23.1310  -32.2820 C   0  0  0  0  0  0  0  0  0  0  0  0
   -5.5180   23.8660  -32.0860 C   0  0  0  0  0  0  0  0  0  0  0  0
   -5.0770   24.1610  -30.7840 C   0  0  0  0  0  0  0  0  0  0  0  0
   -3.8570   24.8780  -30.5460 N   0  0  0  0  0  0  0  0  0  0  0  0
   -2.7840   24.4530  -29.6940 C   0  0  0  0  0  0  0  0  0  0  0  0
   -1.9160   25.2980  -29.3460 O   0  0  0  0  0  0  0  0  0  0  0  0
   -2.6720   23.0610  -29.2020 C   0  0  0  0  0  0  0  0  0  0  0  0
   -2.7250   22.8260  -27.8180 C   0  0  0  0  0  0  0  0  0  0  0  0
   -2.5810   21.5320  -27.3130 C   0  0  0  0  0  0  0  0  0  0  0  0
   -2.3930   20.4570  -28.1840 C   0  0  0  0  0  0  0  0  0  0  0  0
   -2.3640   20.6730  -29.5630 C   0  0  0  0  0  0  0  0  0  0  0  0
   -2.5110   21.9660  -30.0820 C   0  0  0  0  0  0  0  0  0  0  0  0
   -2.5640   22.1530  -31.8310 Cl  0  0  0  0  0  0  0  0  0  0  0  0
   -5.8570   23.7680  -29.6900 C   0  0  0  0  0  0  0  0  0  0  0  0
   -7.0300   23.0320  -29.8870 C   0  0  0  0  0  0  0  0  0  0  0  0
   -9.7873   18.7953  -31.1635 H   0  0  0  0  0  0  0  0  0  0  0  0
  -10.3338   19.5188  -32.7142 H   0  0  0  0  0  0  0  0  0  0  0  0
   -9.0649   18.2474  -32.7142 H   0  0  0  0  0  0  0  0  0  0  0  0
   -6.2328   20.1114  -30.4850 H   0  0  0  0  0  0  0  0  0  0  0  0
   -3.8997   19.6198  -31.2110 H   0  0  0  0  0  0  0  0  0  0  0  0
   -3.4142   19.0954  -33.6011 H   0  0  0  0  0  0  0  0  0  0  0  0
   -5.2660   19.0587  -35.2710 H   0  0  0  0  0  0  0  0  0  0  0  0
   -7.6034   19.5546  -34.5615 H   0  0  0  0  0  0  0  0  0  0  0  0
   -7.0257   22.8938  -33.3026 H   0  0  0  0  0  0  0  0  0  0  0  0
   -4.9382   24.2147  -32.9533 H   0  0  0  0  0  0  0  0  0  0  0  0
   -2.8811   23.6675  -27.1270 H   0  0  0  0  0  0  0  0  0  0  0  0
   -2.6157   21.3593  -26.2272 H   0  0  0  0  0  0  0  0  0  0  0  0
   -2.2678   19.4401  -27.7837 H   0  0  0  0  0  0  0  0  0  0  0  0
   -2.2248   19.8224  -30.2465 H   0  0  0  0  0  0  0  0  0  0  0  0
   -5.5459   24.0393  -28.6704 H   0  0  0  0  0  0  0  0  0  0  0  0
   -7.6312   22.7163  -29.0216 H   0  0  0  0  0  0  0  0  0  0  0  0
  1  2  1  0
  2  3  1  0
  3  4  2  0
  4  5  1  0
  5  6  2  0
  6  7  1  0
  7  8  2  0
  2  9  1  0
  9 10  2  0
  9 11  2  0
  9 12  1  0
 12 13  2  0
 13 14  1  0
 14 15  2  0
 15 16  1  0
 16 17  1  0
 17 18  2  0
 17 19  1  0
 19 20  2  0
 20 21  1  0
 21 22  2  0
 22 23  1  0
 23 24  2  0
 24 25  1  0
 15 26  1  0
 26 27  2  0
  8  3  1  0
 27 12  1  0
 24 19  1  0
  1 28  1  0
  1 29  1  0
  1 30  1  0
  4 31  1  0
  5 32  1  0
  6 33  1  0
  7 34  1  0
  8 35  1  0
 13 36  1  0
 14 37  1  0
 20 38  1  0
 21 39  1  0
 22 40  1  0
 23 41  1  0
 26 42  1  0
 27 43  1  0
M  CHG  1  16  -1
M  END
>  <UniqueID>  (44) 
41

>  <SMILES>  (44) 
CN(c1ccccc1)S(=O)(=O)c1ccc([N-]C(=O)c2ccccc2Cl)cc1

>  <Energy>  (44) 
58.8376326612903

>  <Genealogy>  (44) 
CN(c1ccccc1)S(=O)(=O)c1ccc([N-]C(=O)c2ccccc2Cl)cc1 (protonated)
CN(c1ccccc1)S(=O)(=O)c1ccc([N-]C(=O)c2ccccc2Cl)cc1 (3D coordinates assigned)
CN(c1ccccc1)S(=O)(=O)c1ccc([N-]C(=O)c2ccccc2Cl)cc1 (optimized conformer: 58.8376326612903 kcal/mol)

>  <smiles>  (44) 
CN(c1ccccc1)S(=O)(=O)c1ccc(NC(=O)c2ccccc2Cl)cc1

>  <score_type>  (44) 
oracle

>  <origin>  (44) 
adgpu

>  <m_score__min__energy>  (44) 
-10.869999999999999

>  <m_primary>  (44) 
energy

$$$$
44:0
     RDKit          3D

 30 31  0  0  0  0  0  0  0  0999 V2000
   -1.5510   26.1860  -25.6130 C   0  0  0  0  0  0  0  0  0  0  0  0
   -1.5460   25.7010  -27.0230 C   0  0  0  0  0  0  0  0  0  0  0  0
   -1.1890   26.4650  -28.0730 N   0  0  0  0  0  0  0  0  0  0  0  0
   -1.2570   25.6720  -29.0970 O   0  0  0  0  0  0  0  0  0  0  0  0
   -1.6280   24.4790  -28.7070 C   0  0  0  0  0  0  0  0  0  0  0  0
   -1.7790   23.3030  -29.6170 C   0  0  0  0  0  0  0  0  0  0  0  0
   -3.0700   23.4250  -30.4310 C   0  0  0  0  0  0  0  0  0  0  0  0
   -3.5340   24.8130  -30.4940 N   0  0  0  0  0  0  0  0  0  0  0  0
   -5.2260   24.9670  -30.1010 S   0  0  0  0  0  0  0  0  0  0  0  0
   -5.3880   25.0330  -28.6080 O   0  0  0  0  0  0  0  0  0  0  0  0
   -5.7420   26.2510  -30.6850 O   0  0  0  0  0  0  0  0  0  0  0  0
   -6.1810   23.6320  -30.7500 C   0  0  0  0  0  0  0  0  0  0  0  0
   -5.8550   23.0840  -31.9980 C   0  0  0  0  0  0  0  0  0  0  0  0
   -6.5890   22.0070  -32.5050 C   0  0  0  0  0  0  0  0  0  0  0  0
   -7.6490   21.4700  -31.7660 C   0  0  0  0  0  0  0  0  0  0  0  0
   -8.5660   20.1160  -32.4020 Cl  0  0  0  0  0  0  0  0  0  0  0  0
   -7.9740   22.0120  -30.5180 C   0  0  0  0  0  0  0  0  0  0  0  0
   -7.2420   23.0890  -30.0100 C   0  0  0  0  0  0  0  0  0  0  0  0
   -1.8190   24.4270  -27.3740 N   0  0  0  0  0  0  0  0  0  0  0  0
   -1.5421   25.3246  -24.9289 H   0  0  0  0  0  0  0  0  0  0  0  0
   -0.6592   26.8048  -25.4349 H   0  0  0  0  0  0  0  0  0  0  0  0
   -2.4554   26.7863  -25.4349 H   0  0  0  0  0  0  0  0  0  0  0  0
   -0.9199   23.2618  -30.3027 H   0  0  0  0  0  0  0  0  0  0  0  0
   -1.8220   22.3851  -29.0123 H   0  0  0  0  0  0  0  0  0  0  0  0
   -2.8840   23.0632  -31.4530 H   0  0  0  0  0  0  0  0  0  0  0  0
   -3.8475   22.8225  -29.9386 H   0  0  0  0  0  0  0  0  0  0  0  0
   -5.0202   23.5018  -32.5799 H   0  0  0  0  0  0  0  0  0  0  0  0
   -6.3327   21.5813  -33.4864 H   0  0  0  0  0  0  0  0  0  0  0  0
   -8.8065   21.5902  -29.9358 H   0  0  0  0  0  0  0  0  0  0  0  0
   -7.4985   23.5119  -29.0275 H   0  0  0  0  0  0  0  0  0  0  0  0
  1  2  1  0
  2  3  2  0
  3  4  1  0
  4  5  1  0
  5  6  1  0
  6  7  1  0
  7  8  1  0
  8  9  1  0
  9 10  2  0
  9 11  2  0
  9 12  1  0
 12 13  2  0
 13 14  1  0
 14 15  2  0
 15 16  1  0
 15 17  1  0
 17 18  2  0
  5 19  2  0
 19  2  1  0
 18 12  1  0
  1 20  1  0
  1 21  1  0
  1 22  1  0
  6 23  1  0
  6 24  1  0
  7 25  1  0
  7 26  1  0
 13 27  1  0
 14 28  1  0
 17 29  1  0
 18 30  1  0
M  CHG  1   8  -1
M  END
>  <UniqueID>  (45) 
42

>  <SMILES>  (45) 
Cc1noc(CC[N-]S(=O)(=O)c2ccc(Cl)cc2)n1

>  <Energy>  (45) 
58.04162976744351

>  <Genealogy>  (45) 
Cc1noc(CC[N-]S(=O)(=O)c2ccc(Cl)cc2)n1 (protonated)
Cc1noc(CC[N-]S(=O)(=O)c2ccc(Cl)cc2)n1 (3D coordinates assigned)
Cc1noc(CC[N-]S(=O)(=O)c2ccc(Cl)cc2)n1 (optimized conformer: 58.04162976744351 kcal/mol)

>  <smiles>  (45) 
Cc1noc(CCNS(=O)(=O)c2ccc(Cl)cc2)n1

>  <score_type>  (45) 
oracle

>  <origin>  (45) 
adgpu

>  <m_score__min__energy>  (45) 
-9.1600000000000001

>  <m_primary>  (45) 
energy

$$$$
45:0
     RDKit          3D

 51 54  0  0  0  0  0  0  0  0999 V2000
   -9.2410   19.7630  -33.0660 N   0  0  0  0  0  0  0  0  0  0  0  0
   -8.5820   20.5480  -32.0680 C   0  0  0  0  0  0  0  0  0  0  0  0
   -9.1850   20.7920  -30.9870 O   0  0  0  0  0  0  0  0  0  0  0  0
   -7.2250   21.0970  -32.2930 C   0  0  0  0  0  0  0  0  0  0  0  0
   -6.2400   20.3100  -32.9150 C   0  0  0  0  0  0  0  0  0  0  0  0
   -4.9520   20.8150  -33.1120 C   0  0  0  0  0  0  0  0  0  0  0  0
   -4.6290   22.1020  -32.6800 C   0  0  0  0  0  0  0  0  0  0  0  0
   -5.5910   22.8970  -32.0500 C   0  0  0  0  0  0  0  0  0  0  0  0
   -5.2270   24.2180  -31.6190 N   0  0  0  0  0  0  0  0  0  0  0  0
   -4.9010   24.6190  -30.2800 C   0  0  0  0  0  0  0  0  0  0  0  0
   -5.4590   25.6410  -29.8010 O   0  0  0  0  0  0  0  0  0  0  0  0
   -3.8960   23.9020  -29.4740 C   0  0  0  0  0  0  0  0  0  0  0  0
   -3.8320   22.5340  -29.2870 C   0  0  0  0  0  0  0  0  0  0  0  0
   -2.7170   22.3460  -28.4930 C   0  0  0  0  0  0  0  0  0  0  0  0
   -2.2650   21.0420  -27.9590 C   0  0  0  0  0  0  0  0  0  0  0  0
   -3.1130   20.2900  -27.1320 C   0  0  0  0  0  0  0  0  0  0  0  0
   -2.7020   19.0470  -26.6450 C   0  0  0  0  0  0  0  0  0  0  0  0
   -1.4360   18.5510  -26.9620 C   0  0  0  0  0  0  0  0  0  0  0  0
   -0.5540   19.3100  -27.7510 C   0  0  0  0  0  0  0  0  0  0  0  0
    0.7970   18.7620  -28.1380 C   0  0  0  0  0  0  0  0  0  0  0  0
    1.7710   19.6870  -27.8170 F   0  0  0  0  0  0  0  0  0  0  0  0
    1.0530   17.5830  -27.4590 F   0  0  0  0  0  0  0  0  0  0  0  0
    0.8550   18.5000  -29.4960 F   0  0  0  0  0  0  0  0  0  0  0  0
   -0.9820   20.5510  -28.2550 C   0  0  0  0  0  0  0  0  0  0  0  0
   -2.1600   23.5560  -28.2370 N   0  0  0  0  0  0  0  0  0  0  0  0
   -0.9200   23.8400  -27.5680 C   0  0  0  0  0  0  0  0  0  0  0  0
    0.2630   23.9620  -28.3130 C   0  0  0  0  0  0  0  0  0  0  0  0
    1.4770   24.2150  -27.6720 C   0  0  0  0  0  0  0  0  0  0  0  0
    1.5240   24.3350  -26.2800 C   0  0  0  0  0  0  0  0  0  0  0  0
    0.3540   24.1930  -25.5210 C   0  0  0  0  0  0  0  0  0  0  0  0
    0.4030   24.3040  -24.0960 N   0  0  0  0  0  0  0  0  0  0  0  0
   -0.8630   23.9350  -26.1670 C   0  0  0  0  0  0  0  0  0  0  0  0
   -2.8800   24.4990  -28.8200 N   0  0  0  0  0  0  0  0  0  0  0  0
   -6.9010   22.4070  -31.8990 C   0  0  0  0  0  0  0  0  0  0  0  0
  -10.1780   19.3470  -32.8690 H   0  0  0  0  0  0  0  0  0  0  0  0
   -8.8520   19.6620  -34.0290 H   0  0  0  0  0  0  0  0  0  0  0  0
   -6.4846   19.2907  -33.2486 H   0  0  0  0  0  0  0  0  0  0  0  0
   -4.1905   20.1962  -33.6091 H   0  0  0  0  0  0  0  0  0  0  0  0
   -3.6127   22.4928  -32.8359 H   0  0  0  0  0  0  0  0  0  0  0  0
   -4.5151   21.7674  -29.6816 H   0  0  0  0  0  0  0  0  0  0  0  0
   -4.1061   20.6811  -26.8659 H   0  0  0  0  0  0  0  0  0  0  0  0
   -3.3784   18.4567  -26.0093 H   0  0  0  0  0  0  0  0  0  0  0  0
   -1.1273   17.5619  -26.5928 H   0  0  0  0  0  0  0  0  0  0  0  0
   -0.3052   21.1439  -28.8878 H   0  0  0  0  0  0  0  0  0  0  0  0
    0.2335   23.8577  -29.4076 H   0  0  0  0  0  0  0  0  0  0  0  0
    2.3985   24.3202  -28.2634 H   0  0  0  0  0  0  0  0  0  0  0  0
    2.4813   24.5413  -25.7791 H   0  0  0  0  0  0  0  0  0  0  0  0
    1.1010   24.9280  -23.6330 H   0  0  0  0  0  0  0  0  0  0  0  0
   -0.2580   23.7630  -23.4940 H   0  0  0  0  0  0  0  0  0  0  0  0
   -1.7799   23.8060  -25.5731 H   0  0  0  0  0  0  0  0  0  0  0  0
   -7.6789   23.0548  -31.4687 H   0  0  0  0  0  0  0  0  0  0  0  0
  1  2  1  0
  2  3  2  0
  2  4  1  0
  4  5  2  0
  5  6  1  0
  6  7  2  0
  7  8  1  0
  8  9  1  0
  9 10  1  0
 10 11  2  0
 10 12  1  0
 12 13  1  0
 13 14  2  0
 14 15  1  0
 15 16  2  0
 16 17  1  0
 17 18  2  0
 18 19  1  0
 19 20  1  0
 20 21  1  0
 20 22  1  0
 20 23  1  0
 19 24  2  0
 14 25  1  0
 25 26  1  0
 26 27  2  0
 27 28  1  0
 28 29  2  0
 29 30  1  0
 30 31  1  0
 30 32  2  0
 25 33  1  0
  8 34  2  0
 34  4  1  0
 33 12  2  0
 24 15  1  0
 32 26  1  0
  1 35  1  0
  1 36  1  0
  5 37  1  0
  6 38  1  0
  7 39  1  0
 13 40  1  0
 16 41  1  0
 17 42  1  0
 18 43  1  0
 24 44  1  0
 27 45  1  0
 28 46  1  0
 29 47  1  0
 31 48  1  0
 31 49  1  0
 32 50  1  0
 34 51  1  0
M  CHG  1   9  -1
M  END
>  <UniqueID>  (46) 
43

>  <SMILES>  (46) 
NC(=O)c1cccc([N-]C(=O)c2cc(-c3cccc(C(F)(F)F)c3)n(-c3cccc(N)c3)n2)c1

>  <Energy>  (46) 
97.92419821650331

>  <Genealogy>  (46) 
NC(=O)c1cccc([N-]C(=O)c2cc(-c3cccc(C(F)(F)F)c3)n(-c3cccc(N)c3)n2)c1 (protonated)
NC(=O)c1cccc([N-]C(=O)c2cc(-c3cccc(C(F)(F)F)c3)n(-c3cccc(N)c3)n2)c1 (3D coordinates assigned)
NC(=O)c1cccc([N-]C(=O)c2cc(-c3cccc(C(F)(F)F)c3)n(-c3cccc(N)c3)n2)c1 (optimized conformer: 97.92419821650331 kcal/mol)

>  <smiles>  (46) 
NC(=O)c1cccc(NC(=O)c2cc(-c3cccc(C(F)(F)F)c3)n(-c3cccc(N)c3)n2)c1

>  <score_type>  (46) 
oracle

>  <origin>  (46) 
adgpu

>  <m_score__min__energy>  (46) 
-10.84

>  <m_primary>  (46) 
energy

$$$$
46:0
     RDKit          3D

 43 45  0  0  0  0  0  0  0  0999 V2000
   -4.5360   25.5610  -30.8500 O   0  0  0  0  0  0  0  0  0  0  0  0
   -3.9800   24.7300  -30.0840 C   0  0  0  0  0  0  0  0  0  0  0  0
   -4.7170   23.4910  -29.6820 C   0  0  0  0  0  0  0  0  0  0  0  0
   -5.0550   22.6980  -30.8660 N   0  0  0  0  0  0  0  0  0  0  0  0
   -4.0660   21.8630  -31.4880 C   0  0  0  0  0  0  0  0  0  0  0  0
   -3.8140   21.9640  -32.8660 C   0  0  0  0  0  0  0  0  0  0  0  0
   -2.8570   21.1430  -33.4690 C   0  0  0  0  0  0  0  0  0  0  0  0
   -2.1450   20.2160  -32.7020 C   0  0  0  0  0  0  0  0  0  0  0  0
   -1.1930   19.4010  -33.3020 O   0  0  0  0  0  0  0  0  0  0  0  0
   -2.3930   20.1080  -31.3300 C   0  0  0  0  0  0  0  0  0  0  0  0
   -3.3490   20.9280  -30.7240 C   0  0  0  0  0  0  0  0  0  0  0  0
   -6.6820   22.7390  -31.4810 S   0  0  0  0  0  0  0  0  0  0  0  0
   -6.7530   23.5850  -32.7230 O   0  0  0  0  0  0  0  0  0  0  0  0
   -7.5840   23.3470  -30.4420 O   0  0  0  0  0  0  0  0  0  0  0  0
   -7.2150   21.1060  -31.8750 C   0  0  0  0  0  0  0  0  0  0  0  0
   -8.3630   20.5790  -31.2660 C   0  0  0  0  0  0  0  0  0  0  0  0
   -8.8060   19.2950  -31.5940 C   0  0  0  0  0  0  0  0  0  0  0  0
   -8.1040   18.5300  -32.5300 C   0  0  0  0  0  0  0  0  0  0  0  0
   -6.9600   19.0500  -33.1410 C   0  0  0  0  0  0  0  0  0  0  0  0
   -6.5180   20.3370  -32.8190 C   0  0  0  0  0  0  0  0  0  0  0  0
   -2.6330   24.9240  -29.6340 N   0  0  0  0  0  0  0  0  0  0  0  0
   -1.8740   24.0790  -28.7560 C   0  0  0  0  0  0  0  0  0  0  0  0
   -1.2380   22.9550  -29.2990 C   0  0  0  0  0  0  0  0  0  0  0  0
   -0.4870   22.1020  -28.4850 C   0  0  0  0  0  0  0  0  0  0  0  0
   -0.3810   22.3560  -27.1160 C   0  0  0  0  0  0  0  0  0  0  0  0
   -1.0370   23.4550  -26.5570 C   0  0  0  0  0  0  0  0  0  0  0  0
   -0.9560   23.6860  -25.2240 F   0  0  0  0  0  0  0  0  0  0  0  0
   -1.7880   24.3120  -27.3690 C   0  0  0  0  0  0  0  0  0  0  0  0
   -4.0826   22.8919  -29.0122 H   0  0  0  0  0  0  0  0  0  0  0  0
   -5.6445   23.7767  -29.1641 H   0  0  0  0  0  0  0  0  0  0  0  0
   -4.3720   22.6921  -33.4731 H   0  0  0  0  0  0  0  0  0  0  0  0
   -2.6637   21.2263  -34.5487 H   0  0  0  0  0  0  0  0  0  0  0  0
   -1.8349   19.3767  -30.7269 H   0  0  0  0  0  0  0  0  0  0  0  0
   -3.5405   20.8406  -29.6443 H   0  0  0  0  0  0  0  0  0  0  0  0
   -8.9164   21.1782  -30.5279 H   0  0  0  0  0  0  0  0  0  0  0  0
   -9.7079   18.8858  -31.1153 H   0  0  0  0  0  0  0  0  0  0  0  0
   -8.4523   17.5184  -32.7856 H   0  0  0  0  0  0  0  0  0  0  0  0
   -6.4068   18.4466  -33.8757 H   0  0  0  0  0  0  0  0  0  0  0  0
   -5.6217   20.7474  -33.3070 H   0  0  0  0  0  0  0  0  0  0  0  0
   -1.3303   22.7420  -30.3742 H   0  0  0  0  0  0  0  0  0  0  0  0
    0.0208   21.2301  -28.9232 H   0  0  0  0  0  0  0  0  0  0  0  0
    0.2191   21.6906  -26.4779 H   0  0  0  0  0  0  0  0  0  0  0  0
   -2.3127   25.1700  -26.9234 H   0  0  0  0  0  0  0  0  0  0  0  0
  1  2  2  0
  2  3  1  0
  3  4  1  0
  4  5  1  0
  5  6  2  0
  6  7  1  0
  7  8  2  0
  8  9  1  0
  8 10  1  0
 10 11  2  0
  4 12  1  0
 12 13  2  0
 12 14  2  0
 12 15  1  0
 15 16  2  0
 16 17  1  0
 17 18  2  0
 18 19  1  0
 19 20  2  0
  2 21  1  0
 21 22  1  0
 22 23  2  0
 23 24  1  0
 24 25  2  0
 25 26  1  0
 26 27  1  0
 26 28  2  0
 11  5  1  0
 20 15  1  0
 28 22  1  0
  3 29  1  0
  3 30  1  0
  6 31  1  0
  7 32  1  0
 10 33  1  0
 11 34  1  0
 16 35  1  0
 17 36  1  0
 18 37  1  0
 19 38  1  0
 20 39  1  0
 23 40  1  0
 24 41  1  0
 25 42  1  0
 28 43  1  0
M  CHG  2   9  -1  21  -1
M  END
>  <UniqueID>  (47) 
44

>  <SMILES>  (47) 
O=C(CN(c1ccc([O-])cc1)S(=O)(=O)c1ccccc1)[N-]c1cccc(F)c1

>  <Energy>  (47) 
51.316624213072075

>  <Genealogy>  (47) 
O=C(CN(c1ccc([O-])cc1)S(=O)(=O)c1ccccc1)[N-]c1cccc(F)c1 (protonated)
O=C(CN(c1ccc([O-])cc1)S(=O)(=O)c1ccccc1)[N-]c1cccc(F)c1 (3D coordinates assigned)
O=C(CN(c1ccc([O-])cc1)S(=O)(=O)c1ccccc1)[N-]c1cccc(F)c1 (optimized conformer: 51.316624213072075 kcal/mol)

>  <smiles>  (47) 
O=C(CN(c1ccc(O)cc1)S(=O)(=O)c1ccccc1)Nc1cccc(F)c1

>  <score_type>  (47) 
oracle

>  <origin>  (47) 
adgpu

>  <m_score__min__energy>  (47) 
-10.640000000000001

>  <m_primary>  (47) 
energy

$$$$
47:0
     RDKit          3D

 27 28  0  0  0  0  0  0  0  0999 V2000
   -5.7560   25.2300  -29.0600 N   0  0  0  0  0  0  0  0  0  0  0  0
   -5.1700   24.8510  -30.3080 C   0  0  0  0  0  0  0  0  0  0  0  0
   -4.2920   25.5930  -30.8240 O   0  0  0  0  0  0  0  0  0  0  0  0
   -5.5700   23.6110  -31.0030 C   0  0  0  0  0  0  0  0  0  0  0  0
   -6.7650   22.9280  -30.8440 C   0  0  0  0  0  0  0  0  0  0  0  0
   -6.6910   21.8450  -31.6940 C   0  0  0  0  0  0  0  0  0  0  0  0
   -7.9400   20.6430  -31.9440 S   0  0  0  0  0  0  0  0  0  0  0  0
   -8.4680   20.1770  -30.6150 O   0  0  0  0  0  0  0  0  0  0  0  0
   -9.0770   21.2510  -32.7170 O   0  0  0  0  0  0  0  0  0  0  0  0
   -7.2640   19.2830  -32.8310 C   0  0  0  0  0  0  0  0  0  0  0  0
   -7.4710   17.9710  -32.3800 C   0  0  0  0  0  0  0  0  0  0  0  0
   -6.9160   16.8940  -33.0790 C   0  0  0  0  0  0  0  0  0  0  0  0
   -6.1480   17.1220  -34.2240 C   0  0  0  0  0  0  0  0  0  0  0  0
   -5.9320   18.4290  -34.6720 C   0  0  0  0  0  0  0  0  0  0  0  0
   -6.4850   19.5080  -33.9770 C   0  0  0  0  0  0  0  0  0  0  0  0
   -5.4740   21.9050  -32.3390 C   0  0  0  0  0  0  0  0  0  0  0  0
   -4.7940   22.9840  -31.9120 N   0  0  0  0  0  0  0  0  0  0  0  0
   -5.4560   26.1120  -28.5900 H   0  0  0  0  0  0  0  0  0  0  0  0
   -6.4850   24.6470  -28.5950 H   0  0  0  0  0  0  0  0  0  0  0  0
   -7.5991   23.1944  -30.1782 H   0  0  0  0  0  0  0  0  0  0  0  0
   -8.0704   17.7889  -31.4758 H   0  0  0  0  0  0  0  0  0  0  0  0
   -7.0844   15.8656  -32.7267 H   0  0  0  0  0  0  0  0  0  0  0  0
   -5.7134   16.2735  -34.7728 H   0  0  0  0  0  0  0  0  0  0  0  0
   -5.3261   18.6080  -35.5725 H   0  0  0  0  0  0  0  0  0  0  0  0
   -6.3096   20.5354  -34.3286 H   0  0  0  0  0  0  0  0  0  0  0  0
   -5.1149   21.1826  -33.0868 H   0  0  0  0  0  0  0  0  0  0  0  0
   -3.8440   23.2760  -32.2330 H   0  0  0  0  0  0  0  0  0  0  0  0
  1  2  1  0
  2  3  2  0
  2  4  1  0
  4  5  2  0
  5  6  1  0
  6  7  1  0
  7  8  2  0
  7  9  2  0
  7 10  1  0
 10 11  2  0
 11 12  1  0
 12 13  2  0
 13 14  1  0
 14 15  2  0
  6 16  2  0
 16 17  1  0
 17  4  1  0
 15 10  1  0
  1 18  1  0
  1 19  1  0
  5 20  1  0
 11 21  1  0
 12 22  1  0
 13 23  1  0
 14 24  1  0
 15 25  1  0
 16 26  1  0
 17 27  1  0
M  END
>  <UniqueID>  (48) 
45

>  <SMILES>  (48) 
NC(=O)c1cc(S(=O)(=O)c2ccccc2)c[nH]1

>  <Energy>  (48) 
53.40691312630562

>  <Genealogy>  (48) 
NC(=O)c1cc(S(=O)(=O)c2ccccc2)c[nH]1 (3D coordinates assigned)
NC(=O)c1cc(S(=O)(=O)c2ccccc2)c[nH]1 (optimized conformer: 53.40691312630562 kcal/mol)

>  <smiles>  (48) 
NC(=O)c1cc(S(=O)(=O)c2ccccc2)c[nH]1

>  <score_type>  (48) 
oracle

>  <origin>  (48) 
adgpu

>  <m_score__min__energy>  (48) 
-7.8399999999999999

>  <m_primary>  (48) 
energy

$$$$
48:0
     RDKit          3D

 54 58  0  0  0  0  0  0  0  0999 V2000
   -6.7916   18.0358  -33.4948 H   0  0  0  0  0  0  0  0  0  0  0  0
   -7.3300   18.8030  -32.9190 C   0  0  0  0  0  0  0  0  0  0  0  0
   -7.0260   20.1160  -32.9760 N   0  0  0  0  0  0  0  0  0  0  0  0
   -7.9130   20.6830  -32.1420 C   0  0  0  0  0  0  0  0  0  0  0  0
   -7.9770   22.1520  -31.8540 C   0  0  0  0  0  0  0  0  0  0  0  0
   -8.0077   22.3057  -30.7652 H   0  0  0  0  0  0  0  0  0  0  0  0
   -8.8819   22.5657  -32.3230 H   0  0  0  0  0  0  0  0  0  0  0  0
   -6.8070   22.8370  -32.4030 N   0  0  0  0  0  0  0  0  0  0  0  0
   -6.7220   22.8720  -33.4450 H   0  0  0  0  0  0  0  0  0  0  0  0
   -5.7630   23.4360  -31.6100 C   0  0  0  0  0  0  0  0  0  0  0  0
   -5.8950   24.7710  -31.2070 C   0  0  0  0  0  0  0  0  0  0  0  0
   -6.7932   25.3390  -31.4910 H   0  0  0  0  0  0  0  0  0  0  0  0
   -4.8990   25.3880  -30.4490 C   0  0  0  0  0  0  0  0  0  0  0  0
   -5.0170   26.4373  -30.1405 H   0  0  0  0  0  0  0  0  0  0  0  0
   -3.7530   24.6800  -30.0800 C   0  0  0  0  0  0  0  0  0  0  0  0
   -2.7960   25.2990  -29.3460 N   0  0  0  0  0  0  0  0  0  0  0  0
   -1.6690   24.6580  -28.9510 C   0  0  0  0  0  0  0  0  0  0  0  0
   -0.9196   25.1955  -28.3514 H   0  0  0  0  0  0  0  0  0  0  0  0
   -1.4480   23.3210  -29.2970 C   0  0  0  0  0  0  0  0  0  0  0  0
   -0.2870   22.6860  -28.7140 C   0  0  0  0  0  0  0  0  0  0  0  0
    0.6420   22.1860  -28.2400 N   0  0  0  0  0  0  0  0  0  0  0  0
   -2.4090   22.6380  -30.1010 C   0  0  0  0  0  0  0  0  0  0  0  0
   -2.2660   21.4020  -30.5120 N   0  0  0  0  0  0  0  0  0  0  0  0
   -1.1250   20.5420  -30.4290 C   0  0  0  0  0  0  0  0  0  0  0  0
   -0.1310   20.6140  -31.4080 C   0  0  0  0  0  0  0  0  0  0  0  0
   -0.2449   21.3076  -32.2542 H   0  0  0  0  0  0  0  0  0  0  0  0
    1.0070   19.8090  -31.3170 C   0  0  0  0  0  0  0  0  0  0  0  0
    1.7760   19.8579  -32.1020 H   0  0  0  0  0  0  0  0  0  0  0  0
    1.1750   18.9340  -30.2240 C   0  0  0  0  0  0  0  0  0  0  0  0
    2.2940   18.0930  -30.1010 O   0  0  0  0  0  0  0  0  0  0  0  0
    2.3610   16.7390  -30.5480 C   0  0  0  0  0  0  0  0  0  0  0  0
    3.3698   16.5372  -30.9374 H   0  0  0  0  0  0  0  0  0  0  0  0
    2.1388   16.0758  -29.6990 H   0  0  0  0  0  0  0  0  0  0  0  0
    1.3510   16.4850  -31.6370 C   0  0  0  0  0  0  0  0  0  0  0  0
    0.2020   15.7220  -31.3680 C   0  0  0  0  0  0  0  0  0  0  0  0
    0.0400   15.3115  -30.3604 H   0  0  0  0  0  0  0  0  0  0  0  0
   -0.7360   15.4830  -32.3770 C   0  0  0  0  0  0  0  0  0  0  0  0
   -1.6371   14.8906  -32.1598 H   0  0  0  0  0  0  0  0  0  0  0  0
   -0.5310   15.9950  -33.6600 C   0  0  0  0  0  0  0  0  0  0  0  0
   -1.2721   15.8079  -34.4511 H   0  0  0  0  0  0  0  0  0  0  0  0
    0.6150   16.7450  -33.9400 C   0  0  0  0  0  0  0  0  0  0  0  0
    0.8150   17.2380  -35.1870 F   0  0  0  0  0  0  0  0  0  0  0  0
    1.5560   16.9860  -32.9330 C   0  0  0  0  0  0  0  0  0  0  0  0
    2.4605   17.5705  -33.1573 H   0  0  0  0  0  0  0  0  0  0  0  0
    0.1950   18.9010  -29.2190 C   0  0  0  0  0  0  0  0  0  0  0  0
    0.3760   17.8380  -27.8320 Cl  0  0  0  0  0  0  0  0  0  0  0  0
   -0.9440   19.7080  -29.3170 C   0  0  0  0  0  0  0  0  0  0  0  0
   -1.7002   19.6878  -28.5184 H   0  0  0  0  0  0  0  0  0  0  0  0
   -3.5920   23.3310  -30.4670 C   0  0  0  0  0  0  0  0  0  0  0  0
   -4.6110   22.7180  -31.2300 C   0  0  0  0  0  0  0  0  0  0  0  0
   -4.5039   21.6656  -31.5317 H   0  0  0  0  0  0  0  0  0  0  0  0
   -8.7210   19.7140  -31.5970 C   0  0  0  0  0  0  0  0  0  0  0  0
   -9.5330   19.8885  -30.8758 H   0  0  0  0  0  0  0  0  0  0  0  0
   -8.3560   18.5180  -32.0900 N   0  0  0  0  0  0  0  0  0  0  0  0
  1  2  1  0
  2  3  2  0
  3  4  1  0
  4  5  1  0
  5  6  1  0
  5  7  1  0
  5  8  1  0
  8  9  1  0
  8 10  1  0
 10 11  2  0
 11 12  1  0
 11 13  1  0
 13 14  1  0
 13 15  2  0
 15 16  1  0
 16 17  1  0
 17 18  1  0
 17 19  2  0
 19 20  1  0
 20 21  3  0
 19 22  1  0
 22 23  2  0
 23 24  1  0
 24 25  2  0
 25 26  1  0
 25 27  1  0
 27 28  1  0
 27 29  2  0
 29 30  1  0
 30 31  1  0
 31 32  1  0
 31 33  1  0
 31 34  1  0
 34 35  2  0
 35 36  1  0
 35 37  1  0
 37 38  1  0
 37 39  2  0
 39 40  1  0
 39 41  1  0
 41 42  1  0
 41 43  2  0
 43 44  1  0
 29 45  1  0
 45 46  1  0
 45 47  2  0
 47 48  1  0
 22 49  1  0
 49 50  2  0
 50 51  1  0
  4 52  2  0
 52 53  1  0
 52 54  1  0
 54  2  1  0
 50 10  1  0
 49 15  1  0
 47 24  1  0
 43 34  1  0
M  CHG  2  16  -1  54  -1
M  END
>  <UniqueID>  (49) 
46

>  <SMILES>  (49) 
N#Cc1c[n-]c2ccc(NCc3c[n-]cn3)cc2/c1=N/c1ccc(OCc2cccc(F)c2)c(Cl)c1

>  <Energy>  (49) 
106.77948233804406

>  <Genealogy>  (49) 
N#Cc1c[n-]c2ccc(NCc3c[n-]cn3)cc2c1=Nc1ccc(OCc2cccc(F)c2)c(Cl)c1 (protonated)
N#Cc1c[n-]c2ccc(NCc3c[n-]cn3)cc2/c1=N/c1ccc(OCc2cccc(F)c2)c(Cl)c1 (cis-trans isomerization)
N#Cc1c[n-]c2ccc(NCc3c[n-]cn3)cc2/c1=N/c1ccc(OCc2cccc(F)c2)c(Cl)c1 (3D coordinates assigned)
N#Cc1c[n-]c2ccc(NCc3c[n-]cn3)cc2/c1=N/c1ccc(OCc2cccc(F)c2)c(Cl)c1 (optimized conformer: 106.77948233804406 kcal/mol)

>  <smiles>  (49) 
N#Cc1c[nH]c2ccc(NCc3c[nH]cn3)cc2c1=Nc1ccc(OCc2cccc(F)c2)c(Cl)c1

>  <score_type>  (49) 
oracle

>  <origin>  (49) 
adgpu

>  <m_score__min__energy>  (49) 
-10.16

>  <m_primary>  (49) 
energy

$$$$
49:0
     RDKit          3D

 59 62  0  0  1  0  0  0  0  0999 V2000
    1.3130   23.5090  -36.1150 C   0  0  0  0  0  0  0  0  0  0  0  0
    0.8160   22.1730  -35.6770 C   0  0  0  0  0  0  0  0  0  0  0  0
    0.0550   22.0500  -34.6090 N   0  0  0  0  0  0  0  0  0  0  0  0
   -0.4570   20.9200  -34.1140 C   0  0  0  0  0  0  0  0  0  0  0  0
   -1.2860   20.8740  -32.9230 C   0  0  0  0  0  0  0  0  0  0  0  0
   -0.9640   21.4700  -31.7300 C   0  0  0  0  0  0  0  0  0  0  0  0
   -1.7760   21.4040  -30.6390 C   0  0  0  0  0  0  0  0  0  0  0  0
   -2.9860   20.7080  -30.7190 C   0  0  0  0  0  0  0  0  0  0  0  0
   -3.2870   20.1310  -31.8920 N   0  0  0  0  0  0  0  0  0  0  0  0
   -2.4850   20.1910  -32.9830 C   0  0  0  0  0  0  0  0  0  0  0  0
   -2.8910   19.5920  -34.0610 N   0  0  0  0  0  0  0  0  0  0  0  0
   -4.1610   18.9060  -34.0130 C   0  0  0  0  0  0  0  0  0  0  0  0
   -4.2350   17.6140  -34.4760 C   0  0  0  0  0  0  0  0  0  0  0  0
   -5.4400   16.9460  -34.4300 C   0  0  0  0  0  0  0  0  0  0  0  0
   -6.5120   17.5930  -33.9260 N   0  0  0  0  0  0  0  0  0  0  0  0
   -6.4420   18.8680  -33.4690 C   0  0  0  0  0  0  0  0  0  0  0  0
   -7.5050   19.4680  -32.9800 N   0  0  0  0  0  0  0  0  0  0  0  0
   -7.3780   20.8060  -32.5160 C   0  0  0  0  0  0  0  0  0  0  0  0
   -6.5410   20.8990  -31.2790 C   0  0  0  0  0  0  0  0  0  0  0  0
   -5.6090   21.9860  -31.2700 N   0  0  0  0  0  0  0  0  0  0  0  0
   -5.8200   22.6810  -29.9910 C   0  0  0  0  0  0  0  0  0  0  0  0
   -4.7710   23.7620  -29.8810 C   0  0  0  0  0  0  0  0  0  0  0  0
   -5.1340   24.8140  -30.8210 N   0  0  0  0  0  0  0  0  0  0  0  0
   -5.7100   25.9180  -30.0810 C   0  0  0  0  0  0  0  0  0  0  0  0
   -6.1330   24.3610  -31.7560 C   0  0  0  0  0  0  0  0  0  0  0  0
   -5.8940   22.9740  -32.2970 C   0  0  0  0  0  0  0  0  0  0  0  0
   -5.2560   19.5100  -33.5210 N   0  0  0  0  0  0  0  0  0  0  0  0
   -0.1320   19.7560  -34.8250 C   0  0  0  0  0  0  0  0  0  0  0  0
    0.6720   19.8250  -35.9660 C   0  0  0  0  0  0  0  0  0  0  0  0
    1.0170   18.8340  -36.6630 N   0  0  0  0  0  0  0  0  0  0  0  0
    1.1290   21.0520  -36.3630 N   0  0  0  0  0  0  0  0  0  0  0  0
    1.5414   24.1230  -35.2314 H   0  0  0  0  0  0  0  0  0  0  0  0
    2.2239   23.3816  -36.7184 H   0  0  0  0  0  0  0  0  0  0  0  0
    0.5403   24.0079  -36.7184 H   0  0  0  0  0  0  0  0  0  0  0  0
   -0.0153   22.0213  -31.6520 H   0  0  0  0  0  0  0  0  0  0  0  0
   -1.4817   21.8955  -29.6999 H   0  0  0  0  0  0  0  0  0  0  0  0
   -3.6635   20.6365  -29.8553 H   0  0  0  0  0  0  0  0  0  0  0  0
   -4.2140   19.6120  -31.9110 H   0  0  0  0  0  0  0  0  0  0  0  0
   -3.3404   17.1173  -34.8798 H   0  0  0  0  0  0  0  0  0  0  0  0
   -5.5257   15.9118  -34.7948 H   0  0  0  0  0  0  0  0  0  0  0  0
   -7.4050   17.0540  -33.9090 H   0  0  0  0  0  0  0  0  0  0  0  0
   -6.9106   21.4120  -33.3062 H   0  0  0  0  0  0  0  0  0  0  0  0
   -8.3848   21.1750  -32.2707 H   0  0  0  0  0  0  0  0  0  0  0  0
   -7.2144   21.0173  -30.4173 H   0  0  0  0  0  0  0  0  0  0  0  0
   -5.9439   19.9761  -31.2366 H   0  0  0  0  0  0  0  0  0  0  0  0
   -6.8243   23.1291  -29.9687 H   0  0  0  0  0  0  0  0  0  0  0  0
   -5.7388   21.9765  -29.1502 H   0  0  0  0  0  0  0  0  0  0  0  0
   -4.7495   24.1630  -28.8569 H   0  0  0  0  0  0  0  0  0  0  0  0
   -3.7727   23.3613  -30.1109 H   0  0  0  0  0  0  0  0  0  0  0  0
   -5.6107   25.7277  -29.0021 H   0  0  0  0  0  0  0  0  0  0  0  0
   -5.1821   26.8478  -30.3395 H   0  0  0  0  0  0  0  0  0  0  0  0
   -6.7746   26.0169  -30.3395 H   0  0  0  0  0  0  0  0  0  0  0  0
   -7.1088   24.3692  -31.2482 H   0  0  0  0  0  0  0  0  0  0  0  0
   -6.0924   25.0456  -32.6161 H   0  0  0  0  0  0  0  0  0  0  0  0
   -6.7931   22.6555  -32.8449 H   0  0  0  0  0  0  0  0  0  0  0  0
   -5.0057   23.0304  -32.9433 H   0  0  0  0  0  0  0  0  0  0  0  0
   -0.5123   18.7823  -34.4825 H   0  0  0  0  0  0  0  0  0  0  0  0
    0.7690   17.8420  -36.5080 H   0  0  0  0  0  0  0  0  0  0  0  0
    1.7290   21.1670  -37.1990 H   0  0  0  0  0  0  0  0  0  0  0  0
  1  2  1  0
  2  3  2  0
  3  4  1  0
  4  5  1  0
  5  6  2  0
  6  7  1  0
  7  8  2  0
  8  9  1  0
  9 10  1  0
 10 11  2  0
 11 12  1  0
 12 13  1  0
 13 14  2  0
 14 15  1  0
 15 16  1  0
 16 17  2  0
 17 18  1  0
 18 19  1  0
 19 20  1  0
 20 21  1  0
 21 22  1  0
 22 23  1  0
 23 24  1  0
 23 25  1  0
 25 26  1  0
 16 27  1  0
  4 28  2  0
 28 29  1  0
 29 30  2  3
 29 31  1  0
 31  2  1  0
 10  5  1  0
 27 12  2  0
 26 20  1  0
  1 32  1  0
  1 33  1  0
  1 34  1  0
  6 35  1  0
  7 36  1  0
  8 37  1  0
  9 38  1  0
 13 39  1  0
 14 40  1  0
 15 41  1  0
 18 42  1  0
 18 43  1  0
 19 44  1  0
 19 45  1  0
 21 46  1  0
 21 47  1  0
 22 48  1  0
 22 49  1  0
 24 50  1  0
 24 51  1  0
 24 52  1  0
 25 53  1  0
 25 54  1  0
 26 55  1  0
 26 56  1  0
 28 57  1  0
 30 58  1  0
 31 59  1  0
M  END
>  <smiles>  (50) 
Cc1nc(-c2ccc[nH]c2=Nc2cc[nH]c(=NCCN3CCN(C)CC3)n2)cc(=N)[nH]1

>  <score_type>  (50) 
oracle

>  <origin>  (50) 
adgpu

>  <m_score__min__energy>  (50) 
-9.0899999999999999

>  <m_primary>  (50) 
energy

$$$$
