0:0
     RDKit          3D

 37 40  0  0  0  0  0  0  0  0999 V2000
   -2.6250   22.9030  -31.4670 O   0  0  0  0  0  0  0  0  0  0  0  0
   -3.8240   22.5130  -31.5550 C   0  0  0  0  0  0  0  0  0  0  0  0
   -4.8580   23.3240  -31.0560 C   0  0  0  0  0  0  0  0  0  0  0  0
   -4.6110   24.5640  -30.4360 C   0  0  0  0  0  0  0  0  0  0  0  0
   -5.6780   25.3390  -29.9680 C   0  0  0  0  0  0  0  0  0  0  0  0
   -6.9920   24.8860  -30.1150 C   0  0  0  0  0  0  0  0  0  0  0  0
   -7.2460   23.6570  -30.7310 C   0  0  0  0  0  0  0  0  0  0  0  0
   -6.1830   22.8770  -31.2010 C   0  0  0  0  0  0  0  0  0  0  0  0
   -6.4280   21.6830  -31.7910 N   0  0  0  0  0  0  0  0  0  0  0  0
   -5.4250   20.8940  -32.2550 C   0  0  0  0  0  0  0  0  0  0  0  0
   -5.7970   19.5890  -32.8500 C   0  0  0  0  0  0  0  0  0  0  0  0
   -5.5500   19.3180  -34.2070 C   0  0  0  0  0  0  0  0  0  0  0  0
   -5.9010   18.0800  -34.7540 C   0  0  0  0  0  0  0  0  0  0  0  0
   -6.4850   17.0990  -33.9480 C   0  0  0  0  0  0  0  0  0  0  0  0
   -6.7140   17.3530  -32.5930 C   0  0  0  0  0  0  0  0  0  0  0  0
   -6.3660   18.5900  -32.0430 C   0  0  0  0  0  0  0  0  0  0  0  0
   -4.1160   21.3120  -32.1530 N   0  0  0  0  0  0  0  0  0  0  0  0
   -3.0440   20.5340  -32.7270 C   0  0  0  0  0  0  0  0  0  0  0  0
   -2.8560   19.1960  -32.3440 C   0  0  0  0  0  0  0  0  0  0  0  0
   -1.8080   18.4490  -32.8900 C   0  0  0  0  0  0  0  0  0  0  0  0
   -0.9450   19.0300  -33.8240 C   0  0  0  0  0  0  0  0  0  0  0  0
   -1.1300   20.3600  -34.2160 C   0  0  0  0  0  0  0  0  0  0  0  0
   -0.0450   21.0890  -35.3850 Cl  0  0  0  0  0  0  0  0  0  0  0  0
   -2.1780   21.1100  -33.6710 C   0  0  0  0  0  0  0  0  0  0  0  0
   -3.5781   24.9238  -30.3194 H   0  0  0  0  0  0  0  0  0  0  0  0
   -5.4822   26.3069  -29.4834 H   0  0  0  0  0  0  0  0  0  0  0  0
   -7.8281   25.4978  -29.7452 H   0  0  0  0  0  0  0  0  0  0  0  0
   -8.2811   23.3030  -30.8463 H   0  0  0  0  0  0  0  0  0  0  0  0
   -5.0786   20.0831  -34.8413 H   0  0  0  0  0  0  0  0  0  0  0  0
   -5.7173   17.8781  -35.8196 H   0  0  0  0  0  0  0  0  0  0  0  0
   -6.7644   16.1268  -34.3802 H   0  0  0  0  0  0  0  0  0  0  0  0
   -7.1688   16.5782  -31.9583 H   0  0  0  0  0  0  0  0  0  0  0  0
   -6.5385   18.7819  -30.9737 H   0  0  0  0  0  0  0  0  0  0  0  0
   -3.5353   18.7344  -31.6123 H   0  0  0  0  0  0  0  0  0  0  0  0
   -1.6622   17.4025  -32.5843 H   0  0  0  0  0  0  0  0  0  0  0  0
   -0.1200   18.4409  -34.2509 H   0  0  0  0  0  0  0  0  0  0  0  0
   -2.3242   22.1546  -33.9830 H   0  0  0  0  0  0  0  0  0  0  0  0
  1  2  2  0
  2  3  1  0
  3  4  2  0
  4  5  1  0
  5  6  2  0
  6  7  1  0
  7  8  2  0
  8  9  1  0
  9 10  2  0
 10 11  1  0
 11 12  2  0
 12 13  1  0
 13 14  2  0
 14 15  1  0
 15 16  2  0
 10 17  1  0
 17 18  1  0
 18 19  2  0
 19 20  1  0
 20 21  2  0
 21 22  1  0
 22 23  1  0
 22 24  2  0
 17  2  1  0
 24 18  1  0
  8  3  1  0
 16 11  1  0
  4 25  1  0
  5 26  1  0
  6 27  1  0
  7 28  1  0
 12 29  1  0
 13 30  1  0
 14 31  1  0
 15 32  1  0
 16 33  1  0
 19 34  1  0
 20 35  1  0
 21 36  1  0
 24 37  1  0
M  END
>  <UniqueID>  (1) 
1

>  <SMILES>  (1) 
O=c1c2ccccc2nc(-c2ccccc2)n1-c1cccc(Cl)c1

>  <Energy>  (1) 
61.65645020072543

>  <Genealogy>  (1) 
O=c1c2ccccc2nc(-c2ccccc2)n1-c1cccc(Cl)c1 (3D coordinates assigned)
O=c1c2ccccc2nc(-c2ccccc2)n1-c1cccc(Cl)c1 (optimized conformer: 61.65645020072543 kcal/mol)

>  <smiles>  (1) 
O=c1c2ccccc2nc(-c2ccccc2)n1-c1cccc(Cl)c1

>  <score_type>  (1) 
oracle

>  <origin>  (1) 
adgpu

>  <m_score__min__energy>  (1) 
-8.1400000000000006

>  <m_primary>  (1) 
energy

$$$$
1:0
     RDKit          3D

 24 25  0  0  0  0  0  0  0  0999 V2000
   -5.8830   26.5900  -28.3310 H   0  0  0  0  0  0  0  0  0  0  0  0
   -6.4870   26.0540  -28.9940 N   0  0  0  0  0  0  0  0  0  0  0  0
   -6.0130   25.1150  -29.7520 C   0  0  0  0  0  0  0  0  0  0  0  0
   -6.8710   24.4320  -30.6230 C   0  0  0  0  0  0  0  0  0  0  0  0
   -7.9386   24.6935  -30.6657 H   0  0  0  0  0  0  0  0  0  0  0  0
   -6.3610   23.4120  -31.4410 C   0  0  0  0  0  0  0  0  0  0  0  0
   -7.1690   22.7060  -32.3430 O   0  0  0  0  0  0  0  0  0  0  0  0
   -7.3950   21.3210  -32.3230 C   0  0  0  0  0  0  0  0  0  0  0  0
   -6.5530   20.4190  -33.0000 C   0  0  0  0  0  0  0  0  0  0  0  0
   -5.6801   20.7942  -33.5543 H   0  0  0  0  0  0  0  0  0  0  0  0
   -6.8230   19.0470  -32.9700 C   0  0  0  0  0  0  0  0  0  0  0  0
   -6.1581   18.3444  -33.4938 H   0  0  0  0  0  0  0  0  0  0  0  0
   -7.9370   18.5680  -32.2750 C   0  0  0  0  0  0  0  0  0  0  0  0
   -8.1440   17.4881  -32.2451 H   0  0  0  0  0  0  0  0  0  0  0  0
   -8.7880   19.4610  -31.6180 C   0  0  0  0  0  0  0  0  0  0  0  0
   -9.6691   19.0843  -31.0778 H   0  0  0  0  0  0  0  0  0  0  0  0
   -8.5200   20.8330  -31.6470 C   0  0  0  0  0  0  0  0  0  0  0  0
   -9.1970   21.5332  -31.1357 H   0  0  0  0  0  0  0  0  0  0  0  0
   -4.9950   23.1190  -31.3920 C   0  0  0  0  0  0  0  0  0  0  0  0
   -4.5723   22.3404  -32.0440 H   0  0  0  0  0  0  0  0  0  0  0  0
   -4.1700   23.8210  -30.5100 C   0  0  0  0  0  0  0  0  0  0  0  0
   -3.0964   23.5865  -30.4613 H   0  0  0  0  0  0  0  0  0  0  0  0
   -4.6870   24.7930  -29.7110 N   0  0  0  0  0  0  0  0  0  0  0  0
   -4.0420   25.2990  -29.0620 H   0  0  0  0  0  0  0  0  0  0  0  0
  1  2  1  0
  2  3  2  0
  3  4  1  0
  4  5  1  0
  4  6  2  0
  6  7  1  0
  7  8  1  0
  8  9  2  0
  9 10  1  0
  9 11  1  0
 11 12  1  0
 11 13  2  0
 13 14  1  0
 13 15  1  0
 15 16  1  0
 15 17  2  0
 17 18  1  0
  6 19  1  0
 19 20  1  0
 19 21  2  0
 21 22  1  0
 21 23  1  0
 23 24  1  0
 23  3  1  0
 17  8  1  0
M  END
>  <UniqueID>  (2) 
2

>  <SMILES>  (2) 
[H]/N=c1/cc(Oc2ccccc2)cc[nH]1

>  <Energy>  (2) 
31.580971767466785

>  <Genealogy>  (2) 
[H]/N=c1/cc(Oc2ccccc2)cc[nH]1 (cis-trans isomerization)
[H]/N=c1/cc(Oc2ccccc2)cc[nH]1 (3D coordinates assigned)
[H]/N=c1/cc(Oc2ccccc2)cc[nH]1 (optimized conformer: 31.580971767466785 kcal/mol)

>  <smiles>  (2) 
N=c1cc(Oc2ccccc2)cc[nH]1

>  <score_type>  (2) 
oracle

>  <origin>  (2) 
adgpu

>  <m_score__min__energy>  (2) 
-6.6600000000000001

>  <m_primary>  (2) 
energy

$$$$
2:0
     RDKit          3D

 30 31  0  0  0  0  0  0  0  0999 V2000
   -2.3140   24.5220  -28.2620 C   0  0  0  0  0  0  0  0  0  0  0  0
   -2.8830   25.1190  -29.4230 O   0  0  0  0  0  0  0  0  0  0  0  0
   -3.9780   24.5960  -30.1260 C   0  0  0  0  0  0  0  0  0  0  0  0
   -5.1830   25.3070  -30.1050 C   0  0  0  0  0  0  0  0  0  0  0  0
   -6.3030   24.8260  -30.7890 C   0  0  0  0  0  0  0  0  0  0  0  0
   -6.2370   23.6260  -31.5050 C   0  0  0  0  0  0  0  0  0  0  0  0
   -7.4120   23.1680  -32.1850 N   0  0  0  0  0  0  0  0  0  0  0  0
   -8.4560   21.8980  -31.6310 S   0  0  0  0  0  0  0  0  0  0  0  0
   -8.4840   21.9060  -30.1290 O   0  0  0  0  0  0  0  0  0  0  0  0
   -9.8460   22.1460  -32.1480 O   0  0  0  0  0  0  0  0  0  0  0  0
   -7.8580   20.3370  -32.1810 C   0  0  0  0  0  0  0  0  0  0  0  0
   -6.8230   20.2680  -33.1250 C   0  0  0  0  0  0  0  0  0  0  0  0
   -6.3450   19.0240  -33.5520 C   0  0  0  0  0  0  0  0  0  0  0  0
   -6.9000   17.8470  -33.0400 C   0  0  0  0  0  0  0  0  0  0  0  0
   -7.9350   17.9120  -32.1040 C   0  0  0  0  0  0  0  0  0  0  0  0
   -8.4150   19.1540  -31.6750 C   0  0  0  0  0  0  0  0  0  0  0  0
   -5.0270   22.9090  -31.5330 C   0  0  0  0  0  0  0  0  0  0  0  0
   -3.9070   23.3900  -30.8480 C   0  0  0  0  0  0  0  0  0  0  0  0
   -2.7508   24.9803  -27.3625 H   0  0  0  0  0  0  0  0  0  0  0  0
   -2.5260   23.4426  -28.2634 H   0  0  0  0  0  0  0  0  0  0  0  0
   -1.2257   24.6819  -28.2634 H   0  0  0  0  0  0  0  0  0  0  0  0
   -5.2494   26.2519  -29.5458 H   0  0  0  0  0  0  0  0  0  0  0  0
   -7.2438   25.3955  -30.7641 H   0  0  0  0  0  0  0  0  0  0  0  0
   -6.3865   21.1928  -33.5302 H   0  0  0  0  0  0  0  0  0  0  0  0
   -5.5319   18.9720  -34.2911 H   0  0  0  0  0  0  0  0  0  0  0  0
   -6.5215   16.8698  -33.3743 H   0  0  0  0  0  0  0  0  0  0  0  0
   -8.3730   16.9857  -31.7039 H   0  0  0  0  0  0  0  0  0  0  0  0
   -9.2312   19.2026  -30.9391 H   0  0  0  0  0  0  0  0  0  0  0  0
   -4.9617   21.9663  -32.0960 H   0  0  0  0  0  0  0  0  0  0  0  0
   -2.9650   22.8226  -30.8735 H   0  0  0  0  0  0  0  0  0  0  0  0
  1  2  1  0
  2  3  1  0
  3  4  2  0
  4  5  1  0
  5  6  2  0
  6  7  1  0
  7  8  1  0
  8  9  2  0
  8 10  2  0
  8 11  1  0
 11 12  2  0
 12 13  1  0
 13 14  2  0
 14 15  1  0
 15 16  2  0
  6 17  1  0
 17 18  2  0
 18  3  1  0
 16 11  1  0
  1 19  1  0
  1 20  1  0
  1 21  1  0
  4 22  1  0
  5 23  1  0
 12 24  1  0
 13 25  1  0
 14 26  1  0
 15 27  1  0
 16 28  1  0
 17 29  1  0
 18 30  1  0
M  CHG  1   7  -1
M  END
>  <UniqueID>  (3) 
3

>  <SMILES>  (3) 
COc1ccc([N-]S(=O)(=O)c2ccccc2)cc1

>  <Energy>  (3) 
32.92584846300876

>  <Genealogy>  (3) 
COc1ccc([N-]S(=O)(=O)c2ccccc2)cc1 (protonated)
COc1ccc([N-]S(=O)(=O)c2ccccc2)cc1 (3D coordinates assigned)
COc1ccc([N-]S(=O)(=O)c2ccccc2)cc1 (optimized conformer: 32.92584846300876 kcal/mol)

>  <smiles>  (3) 
COc1ccc(NS(=O)(=O)c2ccccc2)cc1

>  <score_type>  (3) 
oracle

>  <origin>  (3) 
adgpu

>  <m_score__min__energy>  (3) 
-7.6699999999999999

>  <m_primary>  (3) 
energy

$$$$
3:0
     RDKit          3D

 31 32  0  0  0  0  0  0  0  0999 V2000
   -2.9830   24.4800  -27.3730 C   0  0  0  0  0  0  0  0  0  0  0  0
   -2.1030   24.7000  -28.9500 S   0  0  0  0  0  0  0  0  0  0  0  0
   -3.5170   24.2220  -29.9440 C   0  0  0  0  0  0  0  0  0  0  0  0
   -3.4290   23.1270  -30.8090 C   0  0  0  0  0  0  0  0  0  0  0  0
   -4.5300   22.7540  -31.5850 C   0  0  0  0  0  0  0  0  0  0  0  0
   -5.7350   23.4770  -31.5060 C   0  0  0  0  0  0  0  0  0  0  0  0
   -6.8860   23.1280  -32.2970 N   0  0  0  0  0  0  0  0  0  0  0  0
   -8.2070   22.1650  -31.7140 S   0  0  0  0  0  0  0  0  0  0  0  0
   -9.4830   22.6360  -32.3520 O   0  0  0  0  0  0  0  0  0  0  0  0
   -8.3150   22.3320  -30.2230 O   0  0  0  0  0  0  0  0  0  0  0  0
   -7.9530   20.4740  -32.1360 C   0  0  0  0  0  0  0  0  0  0  0  0
   -8.7770   19.4760  -31.5960 C   0  0  0  0  0  0  0  0  0  0  0  0
   -8.5610   18.1340  -31.9270 C   0  0  0  0  0  0  0  0  0  0  0  0
   -7.5270   17.7850  -32.7980 C   0  0  0  0  0  0  0  0  0  0  0  0
   -6.7070   18.7780  -33.3430 C   0  0  0  0  0  0  0  0  0  0  0  0
   -6.9200   20.1200  -33.0140 C   0  0  0  0  0  0  0  0  0  0  0  0
   -5.8170   24.5670  -30.6240 C   0  0  0  0  0  0  0  0  0  0  0  0
   -4.7150   24.9380  -29.8480 C   0  0  0  0  0  0  0  0  0  0  0  0
   -2.2882   24.6537  -26.5381 H   0  0  0  0  0  0  0  0  0  0  0  0
   -3.8143   25.1980  -27.3137 H   0  0  0  0  0  0  0  0  0  0  0  0
   -3.3786   23.4553  -27.3137 H   0  0  0  0  0  0  0  0  0  0  0  0
   -2.4905   22.5574  -30.8790 H   0  0  0  0  0  0  0  0  0  0  0  0
   -4.4543   21.8900  -32.2616 H   0  0  0  0  0  0  0  0  0  0  0  0
   -6.9060   23.3930  -33.3080 H   0  0  0  0  0  0  0  0  0  0  0  0
   -9.5939   19.7486  -30.9116 H   0  0  0  0  0  0  0  0  0  0  0  0
   -9.2069   17.3524  -31.5004 H   0  0  0  0  0  0  0  0  0  0  0  0
   -7.3575   16.7291  -33.0554 H   0  0  0  0  0  0  0  0  0  0  0  0
   -5.8939   18.5031  -34.0310 H   0  0  0  0  0  0  0  0  0  0  0  0
   -6.2751   20.8998  -33.4454 H   0  0  0  0  0  0  0  0  0  0  0  0
   -6.7564   25.1336  -30.5432 H   0  0  0  0  0  0  0  0  0  0  0  0
   -4.7899   25.7939  -29.1611 H   0  0  0  0  0  0  0  0  0  0  0  0
  1  2  1  0
  2  3  1  0
  3  4  2  0
  4  5  1  0
  5  6  2  0
  6  7  1  0
  7  8  1  0
  8  9  2  0
  8 10  2  0
  8 11  1  0
 11 12  2  0
 12 13  1  0
 13 14  2  0
 14 15  1  0
 15 16  2  0
  6 17  1  0
 17 18  2  0
 18  3  1  0
 16 11  1  0
  1 19  1  0
  1 20  1  0
  1 21  1  0
  4 22  1  0
  5 23  1  0
  7 24  1  0
 12 25  1  0
 13 26  1  0
 14 27  1  0
 15 28  1  0
 16 29  1  0
 17 30  1  0
 18 31  1  0
M  END
>  <UniqueID>  (4) 
4

>  <SMILES>  (4) 
CSc1ccc(NS(=O)(=O)c2ccccc2)cc1

>  <Energy>  (4) 
29.780984798100533

>  <Genealogy>  (4) 
CSc1ccc(NS(=O)(=O)c2ccccc2)cc1 (3D coordinates assigned)
CSc1ccc(NS(=O)(=O)c2ccccc2)cc1 (optimized conformer: 29.780984798100533 kcal/mol)

>  <smiles>  (4) 
CSc1ccc(NS(=O)(=O)c2ccccc2)cc1

>  <score_type>  (4) 
oracle

>  <origin>  (4) 
adgpu

>  <m_score__min__energy>  (4) 
-7.6799999999999997

>  <m_primary>  (4) 
energy

$$$$
4:0
     RDKit          3D

 35 36  0  0  0  0  0  0  0  0999 V2000
   -3.4560   22.0800  -28.2430 C   0  0  0  0  0  0  0  0  0  0  0  0
   -2.6050   23.2370  -27.8330 C   0  0  0  0  0  0  0  0  0  0  0  0
   -1.8210   23.2090  -26.7330 N   0  0  0  0  0  0  0  0  0  0  0  0
   -1.1290   24.3370  -26.6960 N   0  0  0  0  0  0  0  0  0  0  0  0
   -0.1600   24.6530  -25.6510 C   0  0  0  0  0  0  0  0  0  0  0  0
   -1.4240   25.0920  -27.7740 C   0  0  0  0  0  0  0  0  0  0  0  0
   -0.8630   26.4530  -28.0560 C   0  0  0  0  0  0  0  0  0  0  0  0
   -2.3860   24.4330  -28.5090 C   0  0  0  0  0  0  0  0  0  0  0  0
   -2.9530   24.9150  -29.7350 N   0  0  0  0  0  0  0  0  0  0  0  0
   -4.5590   24.6090  -30.3100 S   0  0  0  0  0  0  0  0  0  0  0  0
   -5.4910   24.4960  -29.1360 O   0  0  0  0  0  0  0  0  0  0  0  0
   -4.9870   25.7280  -31.2170 O   0  0  0  0  0  0  0  0  0  0  0  0
   -4.5870   23.0960  -31.2330 C   0  0  0  0  0  0  0  0  0  0  0  0
   -3.3610   22.5030  -31.5780 C   0  0  0  0  0  0  0  0  0  0  0  0
   -3.3250   21.2950  -32.2710 C   0  0  0  0  0  0  0  0  0  0  0  0
   -4.5100   20.6550  -32.6220 C   0  0  0  0  0  0  0  0  0  0  0  0
   -5.7450   21.2260  -32.3010 C   0  0  0  0  0  0  0  0  0  0  0  0
   -7.1960   20.3310  -32.7470 Cl  0  0  0  0  0  0  0  0  0  0  0  0
   -5.8020   22.4720  -31.6290 C   0  0  0  0  0  0  0  0  0  0  0  0
   -7.1400   23.0840  -31.2850 C   0  0  0  0  0  0  0  0  0  0  0  0
   -3.8336   21.5666  -27.3464 H   0  0  0  0  0  0  0  0  0  0  0  0
   -4.3041   22.4428  -28.8423 H   0  0  0  0  0  0  0  0  0  0  0  0
   -2.8571   21.3785  -28.8423 H   0  0  0  0  0  0  0  0  0  0  0  0
   -0.6225   24.5022  -24.6644 H   0  0  0  0  0  0  0  0  0  0  0  0
    0.7148   23.9936  -25.7506 H   0  0  0  0  0  0  0  0  0  0  0  0
    0.1579   25.7014  -25.7506 H   0  0  0  0  0  0  0  0  0  0  0  0
   -0.6514   26.9663  -27.1064 H   0  0  0  0  0  0  0  0  0  0  0  0
    0.0674   26.3535  -28.6343 H   0  0  0  0  0  0  0  0  0  0  0  0
   -1.5933   27.0380  -28.6343 H   0  0  0  0  0  0  0  0  0  0  0  0
   -2.4194   22.9978  -31.2979 H   0  0  0  0  0  0  0  0  0  0  0  0
   -2.3579   20.8460  -32.5414 H   0  0  0  0  0  0  0  0  0  0  0  0
   -4.4746   19.6937  -33.1555 H   0  0  0  0  0  0  0  0  0  0  0  0
   -7.2500   23.1343  -30.1917 H   0  0  0  0  0  0  0  0  0  0  0  0
   -7.1985   24.0984  -31.7065 H   0  0  0  0  0  0  0  0  0  0  0  0
   -7.9456   22.4649  -31.7065 H   0  0  0  0  0  0  0  0  0  0  0  0
  1  2  1  0
  2  3  2  0
  3  4  1  0
  4  5  1  0
  4  6  1  0
  6  7  1  0
  6  8  2  0
  8  9  1  0
  9 10  1  0
 10 11  2  0
 10 12  2  0
 10 13  1  0
 13 14  2  0
 14 15  1  0
 15 16  2  0
 16 17  1  0
 17 18  1  0
 17 19  2  0
 19 20  1  0
  8  2  1  0
 19 13  1  0
  1 21  1  0
  1 22  1  0
  1 23  1  0
  5 24  1  0
  5 25  1  0
  5 26  1  0
  7 27  1  0
  7 28  1  0
  7 29  1  0
 14 30  1  0
 15 31  1  0
 16 32  1  0
 20 33  1  0
 20 34  1  0
 20 35  1  0
M  CHG  1   9  -1
M  END
>  <UniqueID>  (5) 
5

>  <SMILES>  (5) 
Cc1nn(C)c(C)c1[N-]S(=O)(=O)c1cccc(Cl)c1C

>  <Energy>  (5) 
74.38506587453699

>  <Genealogy>  (5) 
Cc1nn(C)c(C)c1[N-]S(=O)(=O)c1cccc(Cl)c1C (protonated)
Cc1nn(C)c(C)c1[N-]S(=O)(=O)c1cccc(Cl)c1C (3D coordinates assigned)
Cc1nn(C)c(C)c1[N-]S(=O)(=O)c1cccc(Cl)c1C (optimized conformer: 74.38506587453699 kcal/mol)

>  <smiles>  (5) 
Cc1nn(C)c(C)c1NS(=O)(=O)c1cccc(Cl)c1C

>  <score_type>  (5) 
oracle

>  <origin>  (5) 
adgpu

>  <m_score__min__energy>  (5) 
-8.6199999999999992

>  <m_primary>  (5) 
energy

$$$$
5:0
     RDKit          3D

 27 28  0  0  0  0  0  0  0  0999 V2000
   -9.3530   20.9400  -32.3300 C   0  0  0  0  0  0  0  0  0  0  0  0
   -8.0700   21.3910  -31.7060 C   0  0  0  0  0  0  0  0  0  0  0  0
   -7.9670   22.3260  -30.3120 S   0  0  0  0  0  0  0  0  0  0  0  0
   -6.2840   22.3960  -30.2660 C   0  0  0  0  0  0  0  0  0  0  0  0
   -5.4940   23.1260  -29.3120 N   0  0  0  0  0  0  0  0  0  0  0  0
   -4.4010   23.9910  -29.6680 C   0  0  0  0  0  0  0  0  0  0  0  0
   -4.2720   24.3950  -30.8540 O   0  0  0  0  0  0  0  0  0  0  0  0
   -3.4360   24.4510  -28.6520 C   0  0  0  0  0  0  0  0  0  0  0  0
   -3.6470   24.5480  -27.2780 C   0  0  0  0  0  0  0  0  0  0  0  0
   -2.5230   25.0040  -26.5780 C   0  0  0  0  0  0  0  0  0  0  0  0
   -1.4250   25.2650  -27.3870 C   0  0  0  0  0  0  0  0  0  0  0  0
   -1.8540   24.9240  -28.9760 S   0  0  0  0  0  0  0  0  0  0  0  0
   -5.7760   21.6940  -31.3580 C   0  0  0  0  0  0  0  0  0  0  0  0
   -4.3670   21.5890  -31.6420 C   0  0  0  0  0  0  0  0  0  0  0  0
   -3.2350   21.5050  -31.8690 N   0  0  0  0  0  0  0  0  0  0  0  0
   -6.7780   21.1040  -32.1580 C   0  0  0  0  0  0  0  0  0  0  0  0
   -6.4940   20.3310  -33.4160 C   0  0  0  0  0  0  0  0  0  0  0  0
  -10.0754   20.6861  -31.5403 H   0  0  0  0  0  0  0  0  0  0  0  0
   -9.7612   21.7485  -32.9542 H   0  0  0  0  0  0  0  0  0  0  0  0
   -9.1655   20.0539  -32.9542 H   0  0  0  0  0  0  0  0  0  0  0  0
   -5.7500   23.0420  -28.3040 H   0  0  0  0  0  0  0  0  0  0  0  0
   -4.6002   24.2922  -26.7922 H   0  0  0  0  0  0  0  0  0  0  0  0
   -2.5110   25.1428  -25.4869 H   0  0  0  0  0  0  0  0  0  0  0  0
   -0.4450   25.6312  -27.0471 H   0  0  0  0  0  0  0  0  0  0  0  0
   -6.1255   19.3280  -33.1548 H   0  0  0  0  0  0  0  0  0  0  0  0
   -7.4174   20.2400  -34.0068 H   0  0  0  0  0  0  0  0  0  0  0  0
   -5.7313   20.8595  -34.0068 H   0  0  0  0  0  0  0  0  0  0  0  0
  1  2  1  0
  2  3  1  0
  3  4  1  0
  4  5  1  0
  5  6  1  0
  6  7  2  0
  6  8  1  0
  8  9  2  0
  9 10  1  0
 10 11  2  0
 11 12  1  0
  4 13  2  0
 13 14  1  0
 14 15  3  0
 13 16  1  0
 16 17  1  0
 16  2  2  0
 12  8  1  0
  1 18  1  0
  1 19  1  0
  1 20  1  0
  5 21  1  0
  9 22  1  0
 10 23  1  0
 11 24  1  0
 17 25  1  0
 17 26  1  0
 17 27  1  0
M  END
>  <UniqueID>  (6) 
6

>  <SMILES>  (6) 
Cc1sc(NC(=O)c2cccs2)c(C#N)c1C

>  <Energy>  (6) 
79.47474343739184

>  <Genealogy>  (6) 
Cc1sc(NC(=O)c2cccs2)c(C#N)c1C (3D coordinates assigned)
Cc1sc(NC(=O)c2cccs2)c(C#N)c1C (optimized conformer: 79.47474343739184 kcal/mol)

>  <smiles>  (6) 
Cc1sc(NC(=O)c2cccs2)c(C#N)c1C

>  <score_type>  (6) 
oracle

>  <origin>  (6) 
adgpu

>  <m_score__min__energy>  (6) 
-6.96

>  <m_primary>  (6) 
energy

$$$$
6:0
     RDKit          3D

 29 30  0  0  0  0  0  0  0  0999 V2000
   -4.6830   14.9260  -34.2190 C   0  0  0  0  0  0  0  0  0  0  0  0
   -6.0800   15.3750  -34.1980 N   0  0  0  0  0  0  0  0  0  0  0  0
   -7.1480   14.4460  -34.5860 C   0  0  0  0  0  0  0  0  0  0  0  0
   -6.3750   16.7330  -33.7900 C   0  0  0  0  0  0  0  0  0  0  0  0
   -5.7880   17.8430  -34.4260 C   0  0  0  0  0  0  0  0  0  0  0  0
   -6.1030   19.1330  -33.9970 C   0  0  0  0  0  0  0  0  0  0  0  0
   -6.9990   19.3290  -32.9340 C   0  0  0  0  0  0  0  0  0  0  0  0
   -7.3410   20.6960  -32.4660 C   0  0  0  0  0  0  0  0  0  0  0  0
   -6.3570   21.7020  -32.4100 C   0  0  0  0  0  0  0  0  0  0  0  0
   -6.6830   22.9890  -31.9710 C   0  0  0  0  0  0  0  0  0  0  0  0
   -7.9900   23.2870  -31.5820 C   0  0  0  0  0  0  0  0  0  0  0  0
   -8.9760   22.2980  -31.6310 C   0  0  0  0  0  0  0  0  0  0  0  0
   -8.6560   21.0100  -32.0720 C   0  0  0  0  0  0  0  0  0  0  0  0
   -7.5610   18.1970  -32.3240 C   0  0  0  0  0  0  0  0  0  0  0  0
   -7.2420   16.9510  -32.7610 N   0  0  0  0  0  0  0  0  0  0  0  0
   -4.3198   14.8093  -33.1873 H   0  0  0  0  0  0  0  0  0  0  0  0
   -4.6158   13.9610  -34.7427 H   0  0  0  0  0  0  0  0  0  0  0  0
   -4.0662   15.6712  -34.7427 H   0  0  0  0  0  0  0  0  0  0  0  0
   -7.6217   14.0340  -33.6827 H   0  0  0  0  0  0  0  0  0  0  0  0
   -7.9008   14.9815  -35.1830 H   0  0  0  0  0  0  0  0  0  0  0  0
   -6.7219   13.6262  -35.1830 H   0  0  0  0  0  0  0  0  0  0  0  0
   -5.0838   17.6942  -35.2578 H   0  0  0  0  0  0  0  0  0  0  0  0
   -5.6466   20.0014  -34.4946 H   0  0  0  0  0  0  0  0  0  0  0  0
   -5.3247   21.4737  -32.7137 H   0  0  0  0  0  0  0  0  0  0  0  0
   -5.9077   23.7683  -31.9321 H   0  0  0  0  0  0  0  0  0  0  0  0
   -8.2438   24.3002  -31.2369 H   0  0  0  0  0  0  0  0  0  0  0  0
  -10.0053   22.5329  -31.3223 H   0  0  0  0  0  0  0  0  0  0  0  0
   -9.4372   20.2366  -32.1114 H   0  0  0  0  0  0  0  0  0  0  0  0
   -8.2641   18.3194  -31.4869 H   0  0  0  0  0  0  0  0  0  0  0  0
  1  2  1  0
  2  3  1  0
  2  4  1  0
  4  5  2  0
  5  6  1  0
  6  7  2  0
  7  8  1  0
  8  9  2  0
  9 10  1  0
 10 11  2  0
 11 12  1  0
 12 13  2  0
  7 14  1  0
 14 15  2  0
 15  4  1  0
 13  8  1  0
  1 16  1  0
  1 17  1  0
  1 18  1  0
  3 19  1  0
  3 20  1  0
  3 21  1  0
  5 22  1  0
  6 23  1  0
  9 24  1  0
 10 25  1  0
 11 26  1  0
 12 27  1  0
 13 28  1  0
 14 29  1  0
M  END
>  <UniqueID>  (7) 
7

>  <SMILES>  (7) 
CN(C)c1ccc(-c2ccccc2)cn1

>  <Energy>  (7) 
34.40724010472678

>  <Genealogy>  (7) 
CN(C)c1ccc(-c2ccccc2)cn1 (3D coordinates assigned)
CN(C)c1ccc(-c2ccccc2)cn1 (optimized conformer: 34.40724010472678 kcal/mol)

>  <smiles>  (7) 
CN(C)c1ccc(-c2ccccc2)cn1

>  <score_type>  (7) 
oracle

>  <origin>  (7) 
adgpu

>  <m_score__min__energy>  (7) 
-5.9000000000000004

>  <m_primary>  (7) 
energy

$$$$
7:0
     RDKit          3D

 39 41  0  0  0  0  0  0  0  0999 V2000
   -4.3320   25.2280  -30.8640 O   0  0  0  0  0  0  0  0  0  0  0  0
   -5.1070   24.4760  -29.8160 S   0  0  0  0  0  0  0  0  0  0  0  0
   -5.9850   25.4390  -29.0670 O   0  0  0  0  0  0  0  0  0  0  0  0
   -6.0790   23.2490  -30.6210 C   0  0  0  0  0  0  0  0  0  0  0  0
   -7.2870   22.8330  -30.0450 C   0  0  0  0  0  0  0  0  0  0  0  0
   -8.0700   21.8630  -30.6770 C   0  0  0  0  0  0  0  0  0  0  0  0
   -7.6490   21.3010  -31.8870 C   0  0  0  0  0  0  0  0  0  0  0  0
   -8.6320   20.0840  -32.6790 Cl  0  0  0  0  0  0  0  0  0  0  0  0
   -6.4410   21.7100  -32.4630 C   0  0  0  0  0  0  0  0  0  0  0  0
   -5.6570   22.6810  -31.8320 C   0  0  0  0  0  0  0  0  0  0  0  0
   -4.0180   23.7140  -28.6940 N   0  0  0  0  0  0  0  0  0  0  0  0
   -3.8920   24.2530  -27.3360 C   0  0  0  0  0  0  0  0  0  0  0  0
   -2.5630   24.9390  -27.1690 C   0  0  0  0  0  0  0  0  0  0  0  0
   -2.1360   25.3790  -25.9090 C   0  0  0  0  0  0  0  0  0  0  0  0
   -0.8810   25.9720  -25.7650 C   0  0  0  0  0  0  0  0  0  0  0  0
   -0.0590   26.1120  -26.8840 C   0  0  0  0  0  0  0  0  0  0  0  0
   -0.4810   25.6710  -28.0990 N   0  0  0  0  0  0  0  0  0  0  0  0
   -1.6990   25.0900  -28.2640 C   0  0  0  0  0  0  0  0  0  0  0  0
   -3.2250   22.5910  -29.1140 C   0  0  0  0  0  0  0  0  0  0  0  0
   -2.9860   21.5180  -28.2390 C   0  0  0  0  0  0  0  0  0  0  0  0
   -2.1960   20.4390  -28.6460 C   0  0  0  0  0  0  0  0  0  0  0  0
   -1.6370   20.4230  -29.9260 C   0  0  0  0  0  0  0  0  0  0  0  0
   -1.8680   21.4860  -30.8030 C   0  0  0  0  0  0  0  0  0  0  0  0
   -2.6580   22.5670  -30.3990 C   0  0  0  0  0  0  0  0  0  0  0  0
   -7.6199   23.2713  -29.0926 H   0  0  0  0  0  0  0  0  0  0  0  0
   -9.0185   21.5410  -30.2224 H   0  0  0  0  0  0  0  0  0  0  0  0
   -6.1077   21.2672  -33.4132 H   0  0  0  0  0  0  0  0  0  0  0  0
   -4.7074   23.0000  -32.2864 H   0  0  0  0  0  0  0  0  0  0  0  0
   -4.6998   24.9777  -27.1566 H   0  0  0  0  0  0  0  0  0  0  0  0
   -3.9615   23.4258  -26.6142 H   0  0  0  0  0  0  0  0  0  0  0  0
   -2.7902   25.2569  -25.0332 H   0  0  0  0  0  0  0  0  0  0  0  0
   -0.5432   26.3254  -24.7796 H   0  0  0  0  0  0  0  0  0  0  0  0
    0.9315   26.5797  -26.7830 H   0  0  0  0  0  0  0  0  0  0  0  0
   -2.0080   24.7372  -29.2590 H   0  0  0  0  0  0  0  0  0  0  0  0
   -3.4224   21.5271  -27.2293 H   0  0  0  0  0  0  0  0  0  0  0  0
   -2.0142   19.6010  -27.9570 H   0  0  0  0  0  0  0  0  0  0  0  0
   -1.0148   19.5733  -30.2437 H   0  0  0  0  0  0  0  0  0  0  0  0
   -1.4284   21.4726  -31.8113 H   0  0  0  0  0  0  0  0  0  0  0  0
   -2.8363   23.4030  -31.0913 H   0  0  0  0  0  0  0  0  0  0  0  0
  1  2  2  0
  2  3  2  0
  2  4  1  0
  4  5  2  0
  5  6  1  0
  6  7  2  0
  7  8  1  0
  7  9  1  0
  9 10  2  0
  2 11  1  0
 11 12  1  0
 12 13  1  0
 13 14  2  0
 14 15  1  0
 15 16  2  0
 16 17  1  0
 17 18  2  0
 11 19  1  0
 19 20  2  0
 20 21  1  0
 21 22  2  0
 22 23  1  0
 23 24  2  0
 10  4  1  0
 18 13  1  0
 24 19  1  0
  5 25  1  0
  6 26  1  0
  9 27  1  0
 10 28  1  0
 12 29  1  0
 12 30  1  0
 14 31  1  0
 15 32  1  0
 16 33  1  0
 18 34  1  0
 20 35  1  0
 21 36  1  0
 22 37  1  0
 23 38  1  0
 24 39  1  0
M  END
>  <UniqueID>  (8) 
8

>  <SMILES>  (8) 
O=S(=O)(c1ccc(Cl)cc1)N(Cc1cccnc1)c1ccccc1

>  <Energy>  (8) 
45.968762278288054

>  <Genealogy>  (8) 
O=S(=O)(c1ccc(Cl)cc1)N(Cc1cccnc1)c1ccccc1 (3D coordinates assigned)
O=S(=O)(c1ccc(Cl)cc1)N(Cc1cccnc1)c1ccccc1 (optimized conformer: 45.968762278288054 kcal/mol)

>  <smiles>  (8) 
O=S(=O)(c1ccc(Cl)cc1)N(Cc1cccnc1)c1ccccc1

>  <score_type>  (8) 
oracle

>  <origin>  (8) 
adgpu

>  <m_score__min__energy>  (8) 
-8.8499999999999996

>  <m_primary>  (8) 
energy

$$$$
8:0
     RDKit          3D

 39 40  0  0  0  0  0  0  0  0999 V2000
    1.0780   16.1920  -27.9420 C   0  0  0  0  0  0  0  0  0  0  0  0
    0.6060   17.2710  -27.1420 O   0  0  0  0  0  0  0  0  0  0  0  0
   -0.0020   18.4290  -27.6500 C   0  0  0  0  0  0  0  0  0  0  0  0
    0.6500   19.2810  -28.5620 C   0  0  0  0  0  0  0  0  0  0  0  0
    0.0080   20.4250  -29.0440 C   0  0  0  0  0  0  0  0  0  0  0  0
   -1.2960   20.7430  -28.6270 C   0  0  0  0  0  0  0  0  0  0  0  0
   -1.9780   21.9590  -29.1400 C   0  0  0  0  0  0  0  0  0  0  0  0
   -3.1090   21.8460  -29.9590 C   0  0  0  0  0  0  0  0  0  0  0  0
   -3.7590   22.9910  -30.4470 C   0  0  0  0  0  0  0  0  0  0  0  0
   -4.8960   22.9040  -31.2690 O   0  0  0  0  0  0  0  0  0  0  0  0
   -5.0620   21.9630  -32.3260 C   0  0  0  0  0  0  0  0  0  0  0  0
   -3.2780   24.2690  -30.1180 C   0  0  0  0  0  0  0  0  0  0  0  0
   -3.9860   25.3650  -30.6470 O   0  0  0  0  0  0  0  0  0  0  0  0
   -5.3670   25.6560  -30.4600 C   0  0  0  0  0  0  0  0  0  0  0  0
   -2.1320   24.3970  -29.2910 C   0  0  0  0  0  0  0  0  0  0  0  0
   -1.6450   25.6710  -28.9590 O   0  0  0  0  0  0  0  0  0  0  0  0
   -1.0040   26.0090  -27.7330 C   0  0  0  0  0  0  0  0  0  0  0  0
   -1.4970   23.2330  -28.8120 C   0  0  0  0  0  0  0  0  0  0  0  0
   -1.9450   19.8900  -27.7160 C   0  0  0  0  0  0  0  0  0  0  0  0
   -1.3030   18.7410  -27.2320 C   0  0  0  0  0  0  0  0  0  0  0  0
   -1.9560   17.9000  -26.3320 O   0  0  0  0  0  0  0  0  0  0  0  0
    1.4331   15.3802  -27.2901 H   0  0  0  0  0  0  0  0  0  0  0  0
    0.2599   15.8211  -28.5770 H   0  0  0  0  0  0  0  0  0  0  0  0
    1.9056   16.5410  -28.5770 H   0  0  0  0  0  0  0  0  0  0  0  0
    1.6707   19.0448  -28.8971 H   0  0  0  0  0  0  0  0  0  0  0  0
    0.5280   21.0825  -29.7562 H   0  0  0  0  0  0  0  0  0  0  0  0
   -3.4921   20.8492  -30.2227 H   0  0  0  0  0  0  0  0  0  0  0  0
   -5.2384   20.9632  -31.9025 H   0  0  0  0  0  0  0  0  0  0  0  0
   -5.9224   22.2557  -32.9457 H   0  0  0  0  0  0  0  0  0  0  0  0
   -4.1534   21.9436  -32.9457 H   0  0  0  0  0  0  0  0  0  0  0  0
   -5.5894   25.7029  -29.3837 H   0  0  0  0  0  0  0  0  0  0  0  0
   -5.6041   26.6238  -30.9259 H   0  0  0  0  0  0  0  0  0  0  0  0
   -5.9745   24.8661  -30.9259 H   0  0  0  0  0  0  0  0  0  0  0  0
   -1.6287   25.6796  -26.8896 H   0  0  0  0  0  0  0  0  0  0  0  0
   -0.0252   25.5098  -27.6812 H   0  0  0  0  0  0  0  0  0  0  0  0
   -0.8630   27.0987  -27.6812 H   0  0  0  0  0  0  0  0  0  0  0  0
   -0.6088   23.3269  -28.1699 H   0  0  0  0  0  0  0  0  0  0  0  0
   -2.9655   20.1264  -27.3802 H   0  0  0  0  0  0  0  0  0  0  0  0
   -1.5140   17.0620  -25.9720 H   0  0  0  0  0  0  0  0  0  0  0  0
  1  2  1  0
  2  3  1  0
  3  4  2  0
  4  5  1  0
  5  6  2  0
  6  7  1  0
  7  8  2  0
  8  9  1  0
  9 10  1  0
 10 11  1  0
  9 12  2  0
 12 13  1  0
 13 14  1  0
 12 15  1  0
 15 16  1  0
 16 17  1  0
 15 18  2  0
  6 19  1  0
 19 20  2  0
 20 21  1  0
 20  3  1  0
 18  7  1  0
  1 22  1  0
  1 23  1  0
  1 24  1  0
  4 25  1  0
  5 26  1  0
  8 27  1  0
 11 28  1  0
 11 29  1  0
 11 30  1  0
 14 31  1  0
 14 32  1  0
 14 33  1  0
 17 34  1  0
 17 35  1  0
 17 36  1  0
 18 37  1  0
 19 38  1  0
 21 39  1  0
M  END
>  <UniqueID>  (9) 
9

>  <SMILES>  (9) 
COc1ccc(-c2cc(OC)c(OC)c(OC)c2)cc1O

>  <Energy>  (9) 
45.191640387330914

>  <Genealogy>  (9) 
COc1ccc(-c2cc(OC)c(OC)c(OC)c2)cc1O (3D coordinates assigned)
COc1ccc(-c2cc(OC)c(OC)c(OC)c2)cc1O (optimized conformer: 45.191640387330914 kcal/mol)

>  <smiles>  (9) 
COc1ccc(-c2cc(OC)c(OC)c(OC)c2)cc1O

>  <score_type>  (9) 
oracle

>  <origin>  (9) 
adgpu

>  <m_score__min__energy>  (9) 
-6.6900000000000004

>  <m_primary>  (9) 
energy

$$$$
9:0
     RDKit          3D

 29 30  0  0  0  0  0  0  0  0999 V2000
   -2.5040   24.4920  -27.1720 C   0  0  0  0  0  0  0  0  0  0  0  0
   -2.0130   24.9350  -28.8250 S   0  0  0  0  0  0  0  0  0  0  0  0
   -1.1450   26.1580  -28.7570 O   0  0  0  0  0  0  0  0  0  0  0  0
   -1.2280   23.8210  -29.4570 O   0  0  0  0  0  0  0  0  0  0  0  0
   -3.4110   25.2980  -29.7850 N   0  0  0  0  0  0  0  0  0  0  0  0
   -4.3650   24.3440  -30.2720 C   0  0  0  0  0  0  0  0  0  0  0  0
   -5.7110   24.7220  -30.3390 C   0  0  0  0  0  0  0  0  0  0  0  0
   -6.6800   23.8280  -30.8040 C   0  0  0  0  0  0  0  0  0  0  0  0
   -6.3160   22.5330  -31.2130 C   0  0  0  0  0  0  0  0  0  0  0  0
   -7.3430   21.5800  -31.7070 C   0  0  0  0  0  0  0  0  0  0  0  0
   -6.9620   20.3530  -32.2850 C   0  0  0  0  0  0  0  0  0  0  0  0
   -7.9310   19.4580  -32.7480 C   0  0  0  0  0  0  0  0  0  0  0  0
   -9.2870   19.7750  -32.6430 C   0  0  0  0  0  0  0  0  0  0  0  0
  -10.2240   18.9050  -33.0930 F   0  0  0  0  0  0  0  0  0  0  0  0
   -9.6770   20.9880  -32.0710 C   0  0  0  0  0  0  0  0  0  0  0  0
   -8.7130   21.8860  -31.6050 C   0  0  0  0  0  0  0  0  0  0  0  0
   -4.9630   22.1550  -31.1470 C   0  0  0  0  0  0  0  0  0  0  0  0
   -3.9960   23.0520  -30.6820 C   0  0  0  0  0  0  0  0  0  0  0  0
   -1.8902   25.0458  -26.4464 H   0  0  0  0  0  0  0  0  0  0  0  0
   -3.5642   24.7451  -27.0242 H   0  0  0  0  0  0  0  0  0  0  0  0
   -2.3609   23.4114  -27.0242 H   0  0  0  0  0  0  0  0  0  0  0  0
   -6.0093   25.7324  -30.0227 H   0  0  0  0  0  0  0  0  0  0  0  0
   -7.7339   24.1397  -30.8502 H   0  0  0  0  0  0  0  0  0  0  0  0
   -5.8956   20.0977  -32.3725 H   0  0  0  0  0  0  0  0  0  0  0  0
   -7.6245   18.5014  -33.1963 H   0  0  0  0  0  0  0  0  0  0  0  0
  -10.7452   21.2370  -31.9871 H   0  0  0  0  0  0  0  0  0  0  0  0
   -9.0273   22.8393  -31.1550 H   0  0  0  0  0  0  0  0  0  0  0  0
   -4.6628   21.1453  -31.4638 H   0  0  0  0  0  0  0  0  0  0  0  0
   -2.9409   22.7442  -30.6371 H   0  0  0  0  0  0  0  0  0  0  0  0
  1  2  1  0
  2  3  2  0
  2  4  2  0
  2  5  1  0
  5  6  1  0
  6  7  2  0
  7  8  1  0
  8  9  2  0
  9 10  1  0
 10 11  2  0
 11 12  1  0
 12 13  2  0
 13 14  1  0
 13 15  1  0
 15 16  2  0
  9 17  1  0
 17 18  2  0
 18  6  1  0
 16 10  1  0
  1 19  1  0
  1 20  1  0
  1 21  1  0
  7 22  1  0
  8 23  1  0
 11 24  1  0
 12 25  1  0
 15 26  1  0
 16 27  1  0
 17 28  1  0
 18 29  1  0
M  CHG  1   5  -1
M  END
>  <UniqueID>  (10) 
10

>  <SMILES>  (10) 
CS(=O)(=O)[N-]c1ccc(-c2ccc(F)cc2)cc1

>  <Energy>  (10) 
33.90583916365369

>  <Genealogy>  (10) 
CS(=O)(=O)[N-]c1ccc(-c2ccc(F)cc2)cc1 (protonated)
CS(=O)(=O)[N-]c1ccc(-c2ccc(F)cc2)cc1 (3D coordinates assigned)
CS(=O)(=O)[N-]c1ccc(-c2ccc(F)cc2)cc1 (optimized conformer: 33.90583916365369 kcal/mol)

>  <smiles>  (10) 
CS(=O)(=O)Nc1ccc(-c2ccc(F)cc2)cc1

>  <score_type>  (10) 
oracle

>  <origin>  (10) 
adgpu

>  <m_score__min__energy>  (10) 
-9.1899999999999995

>  <m_primary>  (10) 
energy

$$$$
10:0
     RDKit          3D

 36 38  0  0  1  0  0  0  0  0999 V2000
   -3.5710   25.2830  -30.0740 O   0  0  0  0  0  0  0  0  0  0  0  0
   -4.5850   24.4080  -30.4920 C   0  0  0  0  0  0  0  0  0  0  0  0
   -5.7560   24.9210  -31.0540 C   0  0  0  0  0  0  0  0  0  0  0  0
   -6.7740   24.0600  -31.4740 C   0  0  0  0  0  0  0  0  0  0  0  0
   -6.6170   22.6910  -31.3300 C   0  0  0  0  0  0  0  0  0  0  0  0
   -7.6650   21.7680  -31.7620 C   0  0  0  0  0  0  0  0  0  0  0  0
   -8.9850   21.9110  -31.3840 C   0  0  0  0  0  0  0  0  0  0  0  0
   -9.8660   21.0170  -31.8300 N   0  0  0  0  0  0  0  0  0  0  0  0
   -9.5380   19.9920  -32.6200 C   0  0  0  0  0  0  0  0  0  0  0  0
   -8.2660   19.8120  -33.0130 N   0  0  0  0  0  0  0  0  0  0  0  0
   -7.3590   20.6950  -32.5810 C   0  0  0  0  0  0  0  0  0  0  0  0
   -6.1470   20.5500  -32.9360 N   0  0  0  0  0  0  0  0  0  0  0  0
   -5.6150   19.5090  -33.7810 C   0  0  0  0  0  0  0  0  0  0  0  0
   -4.1230   19.4400  -33.7580 C   0  0  0  0  0  0  0  0  0  0  0  0
   -3.3490   20.5350  -33.3590 C   0  0  0  0  0  0  0  0  0  0  0  0
   -1.9720   20.4880  -33.3350 C   0  0  0  0  0  0  0  0  0  0  0  0
   -1.2990   19.3440  -33.7060 C   0  0  0  0  0  0  0  0  0  0  0  0
   -2.0350   18.2480  -34.1040 C   0  0  0  0  0  0  0  0  0  0  0  0
   -3.4180   18.3140  -34.1230 C   0  0  0  0  0  0  0  0  0  0  0  0
   -5.4560   22.1930  -30.7730 C   0  0  0  0  0  0  0  0  0  0  0  0
   -4.4310   23.0330  -30.3490 C   0  0  0  0  0  0  0  0  0  0  0  0
   -3.0040   25.6840  -30.8120 H   0  0  0  0  0  0  0  0  0  0  0  0
   -5.8779   26.0084  -31.1668 H   0  0  0  0  0  0  0  0  0  0  0  0
   -7.6950   24.4673  -31.9166 H   0  0  0  0  0  0  0  0  0  0  0  0
   -9.3003   22.7397  -30.7330 H   0  0  0  0  0  0  0  0  0  0  0  0
  -10.3160   19.2888  -32.9520 H   0  0  0  0  0  0  0  0  0  0  0  0
   -8.0310   19.0090  -33.6280 H   0  0  0  0  0  0  0  0  0  0  0  0
   -6.0153   18.5428  -33.4401 H   0  0  0  0  0  0  0  0  0  0  0  0
   -5.9166   19.7389  -34.8136 H   0  0  0  0  0  0  0  0  0  0  0  0
   -3.8556   21.4628  -33.0548 H   0  0  0  0  0  0  0  0  0  0  0  0
   -1.4033   21.3739  -33.0160 H   0  0  0  0  0  0  0  0  0  0  0  0
   -0.1999   19.3061  -33.6851 H   0  0  0  0  0  0  0  0  0  0  0  0
   -1.5239   17.3220  -34.4062 H   0  0  0  0  0  0  0  0  0  0  0  0
   -3.9805   17.4252  -34.4448 H   0  0  0  0  0  0  0  0  0  0  0  0
   -5.3384   21.1050  -30.6616 H   0  0  0  0  0  0  0  0  0  0  0  0
   -3.5135   22.6164  -29.9078 H   0  0  0  0  0  0  0  0  0  0  0  0
  1  2  1  0
  2  3  2  0
  3  4  1  0
  4  5  2  0
  5  6  1  0
  6  7  2  0
  7  8  1  0
  8  9  2  0
  9 10  1  0
 10 11  1  0
 11 12  2  0
 12 13  1  0
 13 14  1  0
 14 15  2  0
 15 16  1  0
 16 17  2  0
 17 18  1  0
 18 19  2  0
  5 20  1  0
 20 21  2  0
 21  2  1  0
 11  6  1  0
 19 14  1  0
  1 22  1  0
  3 23  1  0
  4 24  1  0
  7 25  1  0
  9 26  1  0
 10 27  1  0
 13 28  1  0
 13 29  1  0
 15 30  1  0
 16 31  1  0
 17 32  1  0
 18 33  1  0
 19 34  1  0
 20 35  1  0
 21 36  1  0
M  END
>  <smiles>  (11) 
Oc1ccc(-c2cnc[nH]c2=NCc2ccccc2)cc1

>  <score_type>  (11) 
oracle

>  <origin>  (11) 
adgpu

>  <m_score__min__energy>  (11) 
-9.1999999999999993

>  <m_primary>  (11) 
energy

$$$$
11:0
     RDKit          3D

 20 21  0  0  0  0  0  0  0  0999 V2000
   -2.4700   24.4810  -28.5880 C   0  0  0  0  0  0  0  0  0  0  0  0
   -3.5660   24.3610  -29.5900 C   0  0  0  0  0  0  0  0  0  0  0  0
   -4.3510   23.2760  -29.7200 N   0  0  0  0  0  0  0  0  0  0  0  0
   -5.1480   23.6380  -30.7510 C   0  0  0  0  0  0  0  0  0  0  0  0
   -6.2060   22.7580  -31.3140 C   0  0  0  0  0  0  0  0  0  0  0  0
   -7.5440   22.9880  -30.9350 C   0  0  0  0  0  0  0  0  0  0  0  0
   -8.5760   22.1860  -31.4260 C   0  0  0  0  0  0  0  0  0  0  0  0
   -8.2930   21.1430  -32.3050 C   0  0  0  0  0  0  0  0  0  0  0  0
   -6.9770   20.9020  -32.7000 C   0  0  0  0  0  0  0  0  0  0  0  0
   -5.9300   21.6980  -32.2170 C   0  0  0  0  0  0  0  0  0  0  0  0
   -4.3120   21.3320  -32.8100 Cl  0  0  0  0  0  0  0  0  0  0  0  0
   -4.8430   24.8680  -31.2150 N   0  0  0  0  0  0  0  0  0  0  0  0
   -3.8630   25.2800  -30.4720 O   0  0  0  0  0  0  0  0  0  0  0  0
   -2.8936   24.4346  -27.5739 H   0  0  0  0  0  0  0  0  0  0  0  0
   -1.7558   23.6557  -28.7251 H   0  0  0  0  0  0  0  0  0  0  0  0
   -1.9513   25.4413  -28.7251 H   0  0  0  0  0  0  0  0  0  0  0  0
   -7.7782   23.8104  -30.2431 H   0  0  0  0  0  0  0  0  0  0  0  0
   -9.6144   22.3781  -31.1182 H   0  0  0  0  0  0  0  0  0  0  0  0
   -9.1070   20.5097  -32.6875 H   0  0  0  0  0  0  0  0  0  0  0  0
   -6.7593   20.0794  -33.3971 H   0  0  0  0  0  0  0  0  0  0  0  0
  1  2  1  0
  2  3  2  0
  3  4  1  0
  4  5  1  0
  5  6  2  0
  6  7  1  0
  7  8  2  0
  8  9  1  0
  9 10  2  0
 10 11  1  0
  4 12  2  0
 12 13  1  0
 13  2  1  0
 10  5  1  0
  1 14  1  0
  1 15  1  0
  1 16  1  0
  6 17  1  0
  7 18  1  0
  8 19  1  0
  9 20  1  0
M  END
>  <UniqueID>  (12) 
11

>  <SMILES>  (12) 
Cc1nc(-c2ccccc2Cl)no1

>  <Energy>  (12) 
56.17033962774076

>  <Genealogy>  (12) 
Cc1nc(-c2ccccc2Cl)no1 (3D coordinates assigned)
Cc1nc(-c2ccccc2Cl)no1 (optimized conformer: 56.17033962774076 kcal/mol)

>  <smiles>  (12) 
Cc1nc(-c2ccccc2Cl)no1

>  <score_type>  (12) 
oracle

>  <origin>  (12) 
adgpu

>  <m_score__min__energy>  (12) 
-6.9199999999999999

>  <m_primary>  (12) 
energy

$$$$
12:0
     RDKit          3D

 48 50  0  0  0  0  0  0  0  0999 V2000
    3.7880   21.8420  -35.7870 C   0  0  0  0  0  0  0  0  0  0  0  0
    2.4400   21.4820  -35.2340 C   0  0  0  0  0  0  0  0  0  0  0  0
    1.3040   22.2090  -35.6160 C   0  0  0  0  0  0  0  0  0  0  0  0
    0.0530   21.9000  -35.0740 C   0  0  0  0  0  0  0  0  0  0  0  0
   -0.0790   20.8660  -34.1290 C   0  0  0  0  0  0  0  0  0  0  0  0
   -1.4050   20.5510  -33.5440 C   0  0  0  0  0  0  0  0  0  0  0  0
   -1.8630   21.2300  -32.4010 C   0  0  0  0  0  0  0  0  0  0  0  0
   -3.1370   20.9740  -31.8870 C   0  0  0  0  0  0  0  0  0  0  0  0
   -3.9800   20.0460  -32.5070 C   0  0  0  0  0  0  0  0  0  0  0  0
   -5.2820   19.8890  -32.0030 O   0  0  0  0  0  0  0  0  0  0  0  0
   -6.4180   20.6550  -32.4100 C   0  0  0  0  0  0  0  0  0  0  0  0
   -6.4770   21.9740  -31.6900 C   0  0  0  0  0  0  0  0  0  0  0  0
   -5.4490   22.8840  -31.5400 C   0  0  0  0  0  0  0  0  0  0  0  0
   -5.9890   23.9420  -30.8340 C   0  0  0  0  0  0  0  0  0  0  0  0
   -5.2930   25.1810  -30.4540 C   0  0  0  0  0  0  0  0  0  0  0  0
   -5.9790   26.1760  -30.1010 O   0  0  0  0  0  0  0  0  0  0  0  0
   -3.8660   25.3010  -30.4830 N   0  0  0  0  0  0  0  0  0  0  0  0
   -2.7860   24.5450  -29.3530 S   0  0  0  0  0  0  0  0  0  0  0  0
   -3.7080   24.0330  -27.9240 C   0  0  0  0  0  0  0  0  0  0  0  0
   -2.1380   23.3440  -29.9810 O   0  0  0  0  0  0  0  0  0  0  0  0
   -1.7330   25.5230  -28.9150 O   0  0  0  0  0  0  0  0  0  0  0  0
   -7.2410   23.6860  -30.5250 O   0  0  0  0  0  0  0  0  0  0  0  0
   -7.5630   22.5130  -31.0240 C   0  0  0  0  0  0  0  0  0  0  0  0
   -8.9150   21.8940  -30.8930 C   0  0  0  0  0  0  0  0  0  0  0  0
   -3.5090   19.3310  -33.6230 C   0  0  0  0  0  0  0  0  0  0  0  0
   -2.2360   19.5850  -34.1380 C   0  0  0  0  0  0  0  0  0  0  0  0
    1.0670   20.1530  -33.7340 C   0  0  0  0  0  0  0  0  0  0  0  0
    2.3170   20.4630  -34.2790 C   0  0  0  0  0  0  0  0  0  0  0  0
    4.4865   22.0285  -34.9580 H   0  0  0  0  0  0  0  0  0  0  0  0
    4.1645   21.0129  -36.4042 H   0  0  0  0  0  0  0  0  0  0  0  0
    3.7010   22.7484  -36.4042 H   0  0  0  0  0  0  0  0  0  0  0  0
    1.3974   23.0267  -36.3459 H   0  0  0  0  0  0  0  0  0  0  0  0
   -0.8342   22.4691  -35.3885 H   0  0  0  0  0  0  0  0  0  0  0  0
   -1.2136   21.9682  -31.9078 H   0  0  0  0  0  0  0  0  0  0  0  0
   -3.4796   21.5066  -30.9876 H   0  0  0  0  0  0  0  0  0  0  0  0
   -6.3553   20.8406  -33.4924 H   0  0  0  0  0  0  0  0  0  0  0  0
   -7.3261   20.0852  -32.1636 H   0  0  0  0  0  0  0  0  0  0  0  0
   -4.4162   22.7869  -31.9060 H   0  0  0  0  0  0  0  0  0  0  0  0
   -3.1688   24.3324  -27.0131 H   0  0  0  0  0  0  0  0  0  0  0  0
   -4.6991   24.5099  -27.9369 H   0  0  0  0  0  0  0  0  0  0  0  0
   -3.8271   22.9395  -27.9369 H   0  0  0  0  0  0  0  0  0  0  0  0
   -9.1643   21.7798  -29.8277 H   0  0  0  0  0  0  0  0  0  0  0  0
   -9.6624   22.5396  -31.3774 H   0  0  0  0  0  0  0  0  0  0  0  0
   -8.9146   20.9064  -31.3774 H   0  0  0  0  0  0  0  0  0  0  0  0
   -4.1468   18.5677  -34.0926 H   0  0  0  0  0  0  0  0  0  0  0  0
   -1.8806   19.0248  -35.0154 H   0  0  0  0  0  0  0  0  0  0  0  0
    0.9796   19.3462  -32.9915 H   0  0  0  0  0  0  0  0  0  0  0  0
    3.2082   19.9045  -33.9568 H   0  0  0  0  0  0  0  0  0  0  0  0
  1  2  1  0
  2  3  2  0
  3  4  1  0
  4  5  2  0
  5  6  1  0
  6  7  2  0
  7  8  1  0
  8  9  2  0
  9 10  1  0
 10 11  1  0
 11 12  1  0
 12 13  1  0
 13 14  2  0
 14 15  1  0
 15 16  2  0
 15 17  1  0
 17 18  1  0
 18 19  1  0
 18 20  2  0
 18 21  2  0
 14 22  1  0
 22 23  1  0
 23 24  1  0
  9 25  1  0
 25 26  2  0
  5 27  1  0
 27 28  2  0
 28  2  1  0
 26  6  1  0
 23 12  2  0
  1 29  1  0
  1 30  1  0
  1 31  1  0
  3 32  1  0
  4 33  1  0
  7 34  1  0
  8 35  1  0
 11 36  1  0
 11 37  1  0
 13 38  1  0
 19 39  1  0
 19 40  1  0
 19 41  1  0
 24 42  1  0
 24 43  1  0
 24 44  1  0
 25 45  1  0
 26 46  1  0
 27 47  1  0
 28 48  1  0
M  CHG  1  17  -1
M  END
>  <UniqueID>  (13) 
12

>  <SMILES>  (13) 
Cc1ccc(-c2ccc(OCc3cc(C(=O)[N-]S(C)(=O)=O)oc3C)cc2)cc1

>  <Energy>  (13) 
78.19367620385435

>  <Genealogy>  (13) 
Cc1ccc(-c2ccc(OCc3cc(C(=O)[N-]S(C)(=O)=O)oc3C)cc2)cc1 (protonated)
Cc1ccc(-c2ccc(OCc3cc(C(=O)[N-]S(C)(=O)=O)oc3C)cc2)cc1 (3D coordinates assigned)
Cc1ccc(-c2ccc(OCc3cc(C(=O)[N-]S(C)(=O)=O)oc3C)cc2)cc1 (optimized conformer: 78.19367620385435 kcal/mol)

>  <smiles>  (13) 
Cc1ccc(-c2ccc(OCc3cc(C(=O)NS(C)(=O)=O)oc3C)cc2)cc1

>  <score_type>  (13) 
oracle

>  <origin>  (13) 
adgpu

>  <m_score__min__energy>  (13) 
-10.369999999999999

>  <m_primary>  (13) 
energy

$$$$
13:0
     RDKit          3D

 30 31  0  0  0  0  0  0  0  0999 V2000
   -6.0800   17.9620  -34.2580 C   0  0  0  0  0  0  0  0  0  0  0  0
   -6.7900   18.0850  -33.0290 O   0  0  0  0  0  0  0  0  0  0  0  0
   -7.4290   19.2570  -32.5970 C   0  0  0  0  0  0  0  0  0  0  0  0
   -8.8210   19.3280  -32.7000 C   0  0  0  0  0  0  0  0  0  0  0  0
   -9.5040   20.4720  -32.2860 C   0  0  0  0  0  0  0  0  0  0  0  0
   -8.8020   21.5590  -31.7610 C   0  0  0  0  0  0  0  0  0  0  0  0
   -7.4000   21.5120  -31.6410 C   0  0  0  0  0  0  0  0  0  0  0  0
   -6.6570   22.6260  -31.1040 N   0  0  0  0  0  0  0  0  0  0  0  0
   -5.3290   22.8570  -31.2290 C   0  0  0  0  0  0  0  0  0  0  0  0
   -5.0440   24.0420  -30.5830 C   0  0  0  0  0  0  0  0  0  0  0  0
   -3.8090   24.6870  -30.4680 O   0  0  0  0  0  0  0  0  0  0  0  0
   -2.7450   24.1720  -29.6780 C   0  0  0  0  0  0  0  0  0  0  0  0
   -6.2440   24.4830  -30.0720 C   0  0  0  0  0  0  0  0  0  0  0  0
   -6.4810   25.7620  -29.3410 C   0  0  0  0  0  0  0  0  0  0  0  0
   -7.2160   23.6140  -30.4140 N   0  0  0  0  0  0  0  0  0  0  0  0
   -6.7210   20.3550  -32.0680 C   0  0  0  0  0  0  0  0  0  0  0  0
   -5.0157   17.7776  -34.0498 H   0  0  0  0  0  0  0  0  0  0  0  0
   -6.4913   17.1217  -34.8366 H   0  0  0  0  0  0  0  0  0  0  0  0
   -6.1847   18.8917  -34.8366 H   0  0  0  0  0  0  0  0  0  0  0  0
   -9.3822   18.4757  -33.1105 H   0  0  0  0  0  0  0  0  0  0  0  0
  -10.5996   20.5179  -32.3735 H   0  0  0  0  0  0  0  0  0  0  0  0
   -9.3480   22.4580  -31.4390 H   0  0  0  0  0  0  0  0  0  0  0  0
   -4.6060   22.2142  -31.7525 H   0  0  0  0  0  0  0  0  0  0  0  0
   -2.9893   24.2902  -28.6120 H   0  0  0  0  0  0  0  0  0  0  0  0
   -2.6025   23.1052  -29.9054 H   0  0  0  0  0  0  0  0  0  0  0  0
   -1.8200   24.7221  -29.9054 H   0  0  0  0  0  0  0  0  0  0  0  0
   -6.4467   25.5767  -28.2573 H   0  0  0  0  0  0  0  0  0  0  0  0
   -5.7024   26.4897  -29.6134 H   0  0  0  0  0  0  0  0  0  0  0  0
   -7.4686   26.1624  -29.6134 H   0  0  0  0  0  0  0  0  0  0  0  0
   -5.6250   20.3073  -31.9878 H   0  0  0  0  0  0  0  0  0  0  0  0
  1  2  1  0
  2  3  1  0
  3  4  2  0
  4  5  1  0
  5  6  2  0
  6  7  1  0
  7  8  1  0
  8  9  1  0
  9 10  2  0
 10 11  1  0
 11 12  1  0
 10 13  1  0
 13 14  1  0
 13 15  2  0
  7 16  2  0
 16  3  1  0
 15  8  1  0
  1 17  1  0
  1 18  1  0
  1 19  1  0
  4 20  1  0
  5 21  1  0
  6 22  1  0
  9 23  1  0
 12 24  1  0
 12 25  1  0
 12 26  1  0
 14 27  1  0
 14 28  1  0
 14 29  1  0
 16 30  1  0
M  END
>  <UniqueID>  (14) 
13

>  <SMILES>  (14) 
COc1cccc(-n2cc(OC)c(C)n2)c1

>  <Energy>  (14) 
60.026464954700565

>  <Genealogy>  (14) 
COc1cccc(-n2cc(OC)c(C)n2)c1 (3D coordinates assigned)
COc1cccc(-n2cc(OC)c(C)n2)c1 (optimized conformer: 60.026464954700565 kcal/mol)

>  <smiles>  (14) 
COc1cccc(-n2cc(OC)c(C)n2)c1

>  <score_type>  (14) 
oracle

>  <origin>  (14) 
adgpu

>  <m_score__min__energy>  (14) 
-6.3499999999999996

>  <m_primary>  (14) 
energy

$$$$
14:0
     RDKit          3D

 26 28  0  0  0  0  0  0  0  0999 V2000
   -6.6655   20.1715  -33.0478 H   0  0  0  0  0  0  0  0  0  0  0  0
   -6.4090   21.1340  -32.5810 C   0  0  0  0  0  0  0  0  0  0  0  0
   -5.1240   21.5730  -32.5930 N   0  0  0  0  0  0  0  0  0  0  0  0
   -4.7660   22.7550  -32.0230 C   0  0  0  0  0  0  0  0  0  0  0  0
   -3.7166   23.0831  -32.0571 H   0  0  0  0  0  0  0  0  0  0  0  0
   -5.7290   23.5590  -31.3910 C   0  0  0  0  0  0  0  0  0  0  0  0
   -5.3450   24.8530  -30.7790 C   0  0  0  0  0  0  0  0  0  0  0  0
   -6.2430   25.6770  -30.4600 O   0  0  0  0  0  0  0  0  0  0  0  0
   -3.9800   25.1720  -30.4710 N   0  0  0  0  0  0  0  0  0  0  0  0
   -3.2380   24.5560  -29.6000 C   0  0  0  0  0  0  0  0  0  0  0  0
   -1.9670   24.9500  -29.3390 N   0  0  0  0  0  0  0  0  0  0  0  0
   -1.3870   24.1350  -28.4220 C   0  0  0  0  0  0  0  0  0  0  0  0
   -0.0840   24.2860  -27.9450 C   0  0  0  0  0  0  0  0  0  0  0  0
    0.5529   25.1074  -28.3052 H   0  0  0  0  0  0  0  0  0  0  0  0
    0.3990   23.3690  -26.9960 C   0  0  0  0  0  0  0  0  0  0  0  0
    1.4230   23.4728  -26.6079 H   0  0  0  0  0  0  0  0  0  0  0  0
   -0.4200   22.3170  -26.5380 C   0  0  0  0  0  0  0  0  0  0  0  0
   -0.0314   21.6050  -25.7950 H   0  0  0  0  0  0  0  0  0  0  0  0
   -1.7290   22.1730  -27.0250 C   0  0  0  0  0  0  0  0  0  0  0  0
   -2.3767   21.3555  -26.6753 H   0  0  0  0  0  0  0  0  0  0  0  0
   -2.1830   23.0960  -27.9640 C   0  0  0  0  0  0  0  0  0  0  0  0
   -3.6810   23.1700  -28.7190 S   0  0  0  0  0  0  0  0  0  0  0  0
   -7.0630   23.1200  -31.3860 C   0  0  0  0  0  0  0  0  0  0  0  0
   -7.8416   23.7377  -30.9146 H   0  0  0  0  0  0  0  0  0  0  0  0
   -7.4040   21.9030  -31.9770 C   0  0  0  0  0  0  0  0  0  0  0  0
   -8.4469   21.5534  -31.9668 H   0  0  0  0  0  0  0  0  0  0  0  0
  1  2  1  0
  2  3  2  0
  3  4  1  0
  4  5  1  0
  4  6  2  0
  6  7  1  0
  7  8  2  0
  7  9  1  0
  9 10  2  0
 10 11  1  0
 11 12  1  0
 12 13  2  0
 13 14  1  0
 13 15  1  0
 15 16  1  0
 15 17  2  0
 17 18  1  0
 17 19  1  0
 19 20  1  0
 19 21  2  0
 21 22  1  0
  6 23  1  0
 23 24  1  0
 23 25  2  0
 25 26  1  0
 25  2  1  0
 22 10  1  0
 21 12  1  0
M  CHG  1  11  -1
M  END
>  <UniqueID>  (15) 
14

>  <SMILES>  (15) 
O=C(/N=c1/[n-]c2ccccc2s1)c1cccnc1

>  <Energy>  (15) 
73.11592390554816

>  <Genealogy>  (15) 
O=C(N=c1[n-]c2ccccc2s1)c1cccnc1 (protonated)
O=C(/N=c1/[n-]c2ccccc2s1)c1cccnc1 (cis-trans isomerization)
O=C(/N=c1/[n-]c2ccccc2s1)c1cccnc1 (3D coordinates assigned)
O=C(/N=c1/[n-]c2ccccc2s1)c1cccnc1 (optimized conformer: 73.11592390554816 kcal/mol)

>  <smiles>  (15) 
O=C(N=c1[nH]c2ccccc2s1)c1cccnc1

>  <score_type>  (15) 
oracle

>  <origin>  (15) 
adgpu

>  <m_score__min__energy>  (15) 
-8.4700000000000006

>  <m_primary>  (15) 
energy

$$$$
15:0
     RDKit          3D

 46 49  0  0  0  0  0  0  0  0999 V2000
   -1.6250   26.3430  -25.0850 C   0  0  0  0  0  0  0  0  0  0  0  0
   -2.0680   25.6580  -26.3440 C   0  0  0  0  0  0  0  0  0  0  0  0
   -3.2700   24.9370  -26.3720 C   0  0  0  0  0  0  0  0  0  0  0  0
   -3.6660   24.2670  -27.5330 C   0  0  0  0  0  0  0  0  0  0  0  0
   -2.8570   24.3000  -28.6820 C   0  0  0  0  0  0  0  0  0  0  0  0
   -3.2690   23.5950  -29.9130 C   0  0  0  0  0  0  0  0  0  0  0  0
   -2.5280   22.6350  -30.5120 N   0  0  0  0  0  0  0  0  0  0  0  0
   -3.2720   22.2710  -31.5760 C   0  0  0  0  0  0  0  0  0  0  0  0
   -2.8930   21.1760  -32.4920 C   0  0  0  0  0  0  0  0  0  0  0  0
   -1.6370   21.1600  -33.1230 C   0  0  0  0  0  0  0  0  0  0  0  0
   -1.2900   20.1100  -33.9780 C   0  0  0  0  0  0  0  0  0  0  0  0
   -2.1990   19.0780  -34.2230 C   0  0  0  0  0  0  0  0  0  0  0  0
   -3.4590   19.0980  -33.6210 C   0  0  0  0  0  0  0  0  0  0  0  0
   -3.8100   20.1460  -32.7630 C   0  0  0  0  0  0  0  0  0  0  0  0
   -4.4220   23.0420  -31.5860 C   0  0  0  0  0  0  0  0  0  0  0  0
   -5.4840   23.0340  -32.5500 N   0  0  0  0  0  0  0  0  0  0  0  0
   -6.7650   22.4170  -32.3320 C   0  0  0  0  0  0  0  0  0  0  0  0
   -7.8950   23.1800  -31.9880 C   0  0  0  0  0  0  0  0  0  0  0  0
   -9.1330   22.5600  -31.8060 C   0  0  0  0  0  0  0  0  0  0  0  0
   -9.2530   21.1760  -31.9460 C   0  0  0  0  0  0  0  0  0  0  0  0
   -8.1260   20.3970  -32.2480 C   0  0  0  0  0  0  0  0  0  0  0  0
   -8.2590   18.9140  -32.4340 C   0  0  0  0  0  0  0  0  0  0  0  0
   -6.8850   21.0240  -32.4470 C   0  0  0  0  0  0  0  0  0  0  0  0
   -4.3990   23.8330  -30.5450 O   0  0  0  0  0  0  0  0  0  0  0  0
   -1.6450   25.0080  -28.6470 C   0  0  0  0  0  0  0  0  0  0  0  0
   -1.2510   25.6770  -27.4830 C   0  0  0  0  0  0  0  0  0  0  0  0
   -1.9894   25.7796  -24.2133 H   0  0  0  0  0  0  0  0  0  0  0  0
   -0.5262   26.3881  -25.0593 H   0  0  0  0  0  0  0  0  0  0  0  0
   -2.0346   27.3636  -25.0593 H   0  0  0  0  0  0  0  0  0  0  0  0
   -3.9053   24.8983  -25.4748 H   0  0  0  0  0  0  0  0  0  0  0  0
   -4.6152   23.7113  -27.5476 H   0  0  0  0  0  0  0  0  0  0  0  0
   -0.9237   21.9778  -32.9431 H   0  0  0  0  0  0  0  0  0  0  0  0
   -0.3005   20.0964  -34.4582 H   0  0  0  0  0  0  0  0  0  0  0  0
   -1.9221   18.2488  -34.8907 H   0  0  0  0  0  0  0  0  0  0  0  0
   -4.1765   18.2887  -33.8217 H   0  0  0  0  0  0  0  0  0  0  0  0
   -4.8072   20.1638  -32.2989 H   0  0  0  0  0  0  0  0  0  0  0  0
   -5.2820   23.4380  -33.4920 H   0  0  0  0  0  0  0  0  0  0  0  0
   -7.8035   24.2689  -31.8618 H   0  0  0  0  0  0  0  0  0  0  0  0
  -10.0165   23.1639  -31.5515 H   0  0  0  0  0  0  0  0  0  0  0  0
  -10.2341   20.6950  -31.8191 H   0  0  0  0  0  0  0  0  0  0  0  0
   -8.3030   18.4236  -31.4504 H   0  0  0  0  0  0  0  0  0  0  0  0
   -9.1803   18.6959  -32.9940 H   0  0  0  0  0  0  0  0  0  0  0  0
   -7.3912   18.5354  -32.9940 H   0  0  0  0  0  0  0  0  0  0  0  0
   -6.0008   20.4184  -32.6948 H   0  0  0  0  0  0  0  0  0  0  0  0
   -1.0021   25.0369  -29.5391 H   0  0  0  0  0  0  0  0  0  0  0  0
   -0.2950   26.2208  -27.4615 H   0  0  0  0  0  0  0  0  0  0  0  0
  1  2  1  0
  2  3  2  0
  3  4  1  0
  4  5  2  0
  5  6  1  0
  6  7  2  0
  7  8  1  0
  8  9  1  0
  9 10  2  0
 10 11  1  0
 11 12  2  0
 12 13  1  0
 13 14  2  0
  8 15  2  0
 15 16  1  0
 16 17  1  0
 17 18  2  0
 18 19  1  0
 19 20  2  0
 20 21  1  0
 21 22  1  0
 21 23  2  0
 15 24  1  0
  5 25  1  0
 25 26  2  0
 26  2  1  0
 24  6  1  0
 14  9  1  0
 23 17  1  0
  1 27  1  0
  1 28  1  0
  1 29  1  0
  3 30  1  0
  4 31  1  0
 10 32  1  0
 11 33  1  0
 12 34  1  0
 13 35  1  0
 14 36  1  0
 16 37  1  0
 18 38  1  0
 19 39  1  0
 20 40  1  0
 22 41  1  0
 22 42  1  0
 22 43  1  0
 23 44  1  0
 25 45  1  0
 26 46  1  0
M  END
>  <UniqueID>  (16) 
15

>  <SMILES>  (16) 
Cc1ccc(-c2nc(-c3ccccc3)c(Nc3cccc(C)c3)o2)cc1

>  <Energy>  (16) 
87.44240860329583

>  <Genealogy>  (16) 
Cc1ccc(-c2nc(-c3ccccc3)c(Nc3cccc(C)c3)o2)cc1 (3D coordinates assigned)
Cc1ccc(-c2nc(-c3ccccc3)c(Nc3cccc(C)c3)o2)cc1 (optimized conformer: 87.44240860329583 kcal/mol)

>  <smiles>  (16) 
Cc1ccc(-c2nc(-c3ccccc3)c(Nc3cccc(C)c3)o2)cc1

>  <score_type>  (16) 
oracle

>  <origin>  (16) 
adgpu

>  <m_score__min__energy>  (16) 
-9.4800000000000004

>  <m_primary>  (16) 
energy

$$$$
16:0
     RDKit          3D

 21 22  0  0  0  0  0  0  0  0999 V2000
   -9.5160   18.9750  -32.7190 C   0  0  0  0  0  0  0  0  0  0  0  0
   -8.8620   20.1980  -32.1710 C   0  0  0  0  0  0  0  0  0  0  0  0
   -9.4760   21.4250  -31.9560 C   0  0  0  0  0  0  0  0  0  0  0  0
   -8.6440   22.4100  -31.5230 N   0  0  0  0  0  0  0  0  0  0  0  0
   -7.3630   21.9860  -31.4020 C   0  0  0  0  0  0  0  0  0  0  0  0
   -6.2540   22.8600  -30.9550 C   0  0  0  0  0  0  0  0  0  0  0  0
   -6.4950   24.1880  -30.5520 C   0  0  0  0  0  0  0  0  0  0  0  0
   -5.4400   25.0040  -30.1330 C   0  0  0  0  0  0  0  0  0  0  0  0
   -4.1350   24.5060  -30.1090 C   0  0  0  0  0  0  0  0  0  0  0  0
   -3.1130   25.2990  -29.7020 F   0  0  0  0  0  0  0  0  0  0  0  0
   -3.8840   23.1910  -30.5060 C   0  0  0  0  0  0  0  0  0  0  0  0
   -4.9350   22.3710  -30.9270 C   0  0  0  0  0  0  0  0  0  0  0  0
   -7.2230   20.3610  -31.8390 S   0  0  0  0  0  0  0  0  0  0  0  0
   -9.8565   18.3382  -31.8892 H   0  0  0  0  0  0  0  0  0  0  0  0
  -10.3790   19.2659  -33.3360 H   0  0  0  0  0  0  0  0  0  0  0  0
   -8.7949   18.4188  -33.3360 H   0  0  0  0  0  0  0  0  0  0  0  0
  -10.5511   21.5875  -32.1228 H   0  0  0  0  0  0  0  0  0  0  0  0
   -7.5204   24.5858  -30.5671 H   0  0  0  0  0  0  0  0  0  0  0  0
   -5.6379   26.0403  -29.8216 H   0  0  0  0  0  0  0  0  0  0  0  0
   -2.8563   22.7992  -30.4874 H   0  0  0  0  0  0  0  0  0  0  0  0
   -4.7294   21.3363  -31.2385 H   0  0  0  0  0  0  0  0  0  0  0  0
  1  2  1  0
  2  3  2  0
  3  4  1  0
  4  5  2  0
  5  6  1  0
  6  7  2  0
  7  8  1  0
  8  9  2  0
  9 10  1  0
  9 11  1  0
 11 12  2  0
  5 13  1  0
 13  2  1  0
 12  6  1  0
  1 14  1  0
  1 15  1  0
  1 16  1  0
  3 17  1  0
  7 18  1  0
  8 19  1  0
 11 20  1  0
 12 21  1  0
M  END
>  <UniqueID>  (17) 
16

>  <SMILES>  (17) 
Cc1cnc(-c2ccc(F)cc2)s1

>  <Energy>  (17) 
51.05809790769324

>  <Genealogy>  (17) 
Cc1cnc(-c2ccc(F)cc2)s1 (3D coordinates assigned)
Cc1cnc(-c2ccc(F)cc2)s1 (optimized conformer: 51.05809790769324 kcal/mol)

>  <smiles>  (17) 
Cc1cnc(-c2ccc(F)cc2)s1

>  <score_type>  (17) 
oracle

>  <origin>  (17) 
adgpu

>  <m_score__min__energy>  (17) 
-5.8399999999999999

>  <m_primary>  (17) 
energy

$$$$
17:0
     RDKit          3D

 25 27  0  0  0  0  0  0  0  0999 V2000
   -4.6110   20.0000  -33.8080 O   0  0  0  0  0  0  0  0  0  0  0  0
   -5.3080   20.7040  -33.0270 C   0  0  0  0  0  0  0  0  0  0  0  0
   -4.7790   21.9710  -32.6100 N   0  0  0  0  0  0  0  0  0  0  0  0
   -5.3530   22.8610  -31.6440 C   0  0  0  0  0  0  0  0  0  0  0  0
   -4.4910   23.6340  -30.8470 C   0  0  0  0  0  0  0  0  0  0  0  0
   -4.9970   24.6110  -29.9880 C   0  0  0  0  0  0  0  0  0  0  0  0
   -6.3710   24.8460  -29.9330 C   0  0  0  0  0  0  0  0  0  0  0  0
   -7.2370   24.0970  -30.7320 C   0  0  0  0  0  0  0  0  0  0  0  0
   -6.7400   23.0960  -31.5770 C   0  0  0  0  0  0  0  0  0  0  0  0
   -7.6530   22.3750  -32.3410 O   0  0  0  0  0  0  0  0  0  0  0  0
   -7.7250   20.9840  -32.3140 C   0  0  0  0  0  0  0  0  0  0  0  0
   -8.9710   20.4040  -32.0380 C   0  0  0  0  0  0  0  0  0  0  0  0
   -9.1110   19.0180  -31.9690 C   0  0  0  0  0  0  0  0  0  0  0  0
   -8.0070   18.1970  -32.1900 C   0  0  0  0  0  0  0  0  0  0  0  0
   -6.7660   18.7620  -32.4960 C   0  0  0  0  0  0  0  0  0  0  0  0
   -6.6070   20.1610  -32.5650 C   0  0  0  0  0  0  0  0  0  0  0  0
   -3.8120   22.1930  -32.9410 H   0  0  0  0  0  0  0  0  0  0  0  0
   -3.4051   23.4671  -30.9008 H   0  0  0  0  0  0  0  0  0  0  0  0
   -4.3129   25.1951  -29.3549 H   0  0  0  0  0  0  0  0  0  0  0  0
   -6.7713   25.6198  -29.2615 H   0  0  0  0  0  0  0  0  0  0  0  0
   -8.3186   24.2945  -30.6978 H   0  0  0  0  0  0  0  0  0  0  0  0
   -9.8472   21.0485  -31.8742 H   0  0  0  0  0  0  0  0  0  0  0  0
  -10.0911   18.5739  -31.7406 H   0  0  0  0  0  0  0  0  0  0  0  0
   -8.1123   17.1041  -32.1236 H   0  0  0  0  0  0  0  0  0  0  0  0
   -5.9027   18.1071  -32.6853 H   0  0  0  0  0  0  0  0  0  0  0  0
  1  2  2  0
  2  3  1  0
  3  4  1  0
  4  5  2  0
  5  6  1  0
  6  7  2  0
  7  8  1  0
  8  9  2  0
  9 10  1  0
 10 11  1  0
 11 12  2  0
 12 13  1  0
 13 14  2  0
 14 15  1  0
 15 16  2  0
 16  2  1  0
  9  4  1  0
 16 11  1  0
  3 17  1  0
  5 18  1  0
  6 19  1  0
  7 20  1  0
  8 21  1  0
 12 22  1  0
 13 23  1  0
 14 24  1  0
 15 25  1  0
M  END
>  <UniqueID>  (18) 
17

>  <SMILES>  (18) 
O=C1Nc2ccccc2Oc2ccccc21

>  <Energy>  (18) 
50.28884690383043

>  <Genealogy>  (18) 
O=C1Nc2ccccc2Oc2ccccc21 (3D coordinates assigned)
O=C1Nc2ccccc2Oc2ccccc21 (nonaromatic ring conformer: 50.28884690383043 kcal/mol)

>  <smiles>  (18) 
O=C1Nc2ccccc2Oc2ccccc21

>  <score_type>  (18) 
oracle

>  <origin>  (18) 
adgpu

>  <m_score__min__energy>  (18) 
-6.7400000000000002

>  <m_primary>  (18) 
energy

$$$$
18:0
     RDKit          3D

 27 28  0  0  0  0  0  0  0  0999 V2000
  -10.2406   21.2184  -32.1022 H   0  0  0  0  0  0  0  0  0  0  0  0
   -9.1690   21.0140  -31.9610 C   0  0  0  0  0  0  0  0  0  0  0  0
   -8.7310   19.7040  -31.7480 C   0  0  0  0  0  0  0  0  0  0  0  0
   -9.4604   18.8819  -31.7029 H   0  0  0  0  0  0  0  0  0  0  0  0
   -7.3660   19.4360  -31.5920 C   0  0  0  0  0  0  0  0  0  0  0  0
   -6.9340   18.0980  -31.3130 N   0  0  0  0  0  0  0  0  0  0  0  0
   -6.1280   17.3260  -31.9970 C   0  0  0  0  0  0  0  0  0  0  0  0
   -5.6520   17.6300  -33.3060 C   0  0  0  0  0  0  0  0  0  0  0  0
   -6.1190   18.7450  -34.0960 C   0  0  0  0  0  0  0  0  0  0  0  0
   -6.4910   19.6320  -34.7400 N   0  0  0  0  0  0  0  0  0  0  0  0
   -4.7570   16.7480  -33.9220 C   0  0  0  0  0  0  0  0  0  0  0  0
   -4.3659   16.9807  -34.9235 H   0  0  0  0  0  0  0  0  0  0  0  0
   -4.3560   15.5780  -33.2800 C   0  0  0  0  0  0  0  0  0  0  0  0
   -3.4340   14.6930  -33.9490 C   0  0  0  0  0  0  0  0  0  0  0  0
   -2.6950   13.9820  -34.4870 N   0  0  0  0  0  0  0  0  0  0  0  0
   -4.8760   15.2810  -32.0090 C   0  0  0  0  0  0  0  0  0  0  0  0
   -4.5080   14.0780  -31.3190 N   0  0  0  0  0  0  0  0  0  0  0  0
   -3.6900   13.5010  -31.6110 H   0  0  0  0  0  0  0  0  0  0  0  0
   -5.0620   13.7530  -30.4970 H   0  0  0  0  0  0  0  0  0  0  0  0
   -5.7430   16.1510  -31.4180 N   0  0  0  0  0  0  0  0  0  0  0  0
   -6.1130   15.9160  -30.4680 H   0  0  0  0  0  0  0  0  0  0  0  0
   -6.4450   20.4960  -31.5890 C   0  0  0  0  0  0  0  0  0  0  0  0
   -5.3772   20.2953  -31.4175 H   0  0  0  0  0  0  0  0  0  0  0  0
   -6.8840   21.8080  -31.8040 C   0  0  0  0  0  0  0  0  0  0  0  0
   -5.7200   23.1210  -31.8270 Cl  0  0  0  0  0  0  0  0  0  0  0  0
   -8.2470   22.0660  -31.9950 C   0  0  0  0  0  0  0  0  0  0  0  0
   -8.6830   23.3330  -32.2030 F   0  0  0  0  0  0  0  0  0  0  0  0
  1  2  1  0
  2  3  2  0
  3  4  1  0
  3  5  1  0
  5  6  1  0
  6  7  2  0
  7  8  1  0
  8  9  1  0
  9 10  3  0
  8 11  2  0
 11 12  1  0
 11 13  1  0
 13 14  1  0
 14 15  3  0
 13 16  2  0
 16 17  1  0
 17 18  1  0
 17 19  1  0
 16 20  1  0
 20 21  1  0
  5 22  2  0
 22 23  1  0
 22 24  1  0
 24 25  1  0
 24 26  2  0
 26 27  1  0
 26  2  1  0
 20  7  1  0
M  END
>  <UniqueID>  (19) 
18

>  <SMILES>  (19) 
N#Cc1cc(C#N)/c(=N\c2ccc(F)c(Cl)c2)[nH]c1N

>  <Energy>  (19) 
43.399604449500195

>  <Genealogy>  (19) 
N#Cc1cc(C#N)/c(=N\c2ccc(F)c(Cl)c2)[nH]c1N (cis-trans isomerization)
N#Cc1cc(C#N)/c(=N\c2ccc(F)c(Cl)c2)[nH]c1N (3D coordinates assigned)
N#Cc1cc(C#N)/c(=N\c2ccc(F)c(Cl)c2)[nH]c1N (optimized conformer: 43.399604449500195 kcal/mol)

>  <smiles>  (19) 
N#Cc1cc(C#N)c(=Nc2ccc(F)c(Cl)c2)[nH]c1N

>  <score_type>  (19) 
oracle

>  <origin>  (19) 
adgpu

>  <m_score__min__energy>  (19) 
-6.7400000000000002

>  <m_primary>  (19) 
energy

$$$$
19:0
     RDKit          3D

 38 40  0  0  0  0  0  0  0  0999 V2000
   -2.0450   24.8820  -28.7460 C   0  0  0  0  0  0  0  0  0  0  0  0
   -3.0540   24.3520  -29.7120 C   0  0  0  0  0  0  0  0  0  0  0  0
   -3.8000   25.1220  -30.4720 O   0  0  0  0  0  0  0  0  0  0  0  0
   -4.6070   24.4190  -31.2120 N   0  0  0  0  0  0  0  0  0  0  0  0
   -4.3820   23.1240  -30.9200 C   0  0  0  0  0  0  0  0  0  0  0  0
   -5.0800   22.0110  -31.5840 C   0  0  0  0  0  0  0  0  0  0  0  0
   -6.4320   21.7380  -31.2890 C   0  0  0  0  0  0  0  0  0  0  0  0
   -7.3410   22.7270  -30.1490 Cl  0  0  0  0  0  0  0  0  0  0  0  0
   -7.0850   20.6750  -31.9220 C   0  0  0  0  0  0  0  0  0  0  0  0
   -6.4060   19.8860  -32.8520 C   0  0  0  0  0  0  0  0  0  0  0  0
   -5.0720   20.1590  -33.1620 C   0  0  0  0  0  0  0  0  0  0  0  0
   -4.4060   21.2190  -32.5370 C   0  0  0  0  0  0  0  0  0  0  0  0
   -2.7250   21.5250  -32.9640 Cl  0  0  0  0  0  0  0  0  0  0  0  0
   -3.3750   23.0290  -29.9750 C   0  0  0  0  0  0  0  0  0  0  0  0
   -2.7860   21.7970  -29.4010 C   0  0  0  0  0  0  0  0  0  0  0  0
   -3.4940   21.0690  -28.6560 O   0  0  0  0  0  0  0  0  0  0  0  0
   -1.4320   21.4030  -29.6950 N   0  0  0  0  0  0  0  0  0  0  0  0
   -0.6150   22.2620  -30.5590 C   0  0  0  0  0  0  0  0  0  0  0  0
   -0.8860   20.1760  -29.1620 C   0  0  0  0  0  0  0  0  0  0  0  0
   -1.1250   19.8020  -27.8250 C   0  0  0  0  0  0  0  0  0  0  0  0
   -0.5830   18.6190  -27.3130 C   0  0  0  0  0  0  0  0  0  0  0  0
    0.1960   17.7930  -28.1260 C   0  0  0  0  0  0  0  0  0  0  0  0
    0.8770   16.3120  -27.4790 Cl  0  0  0  0  0  0  0  0  0  0  0  0
    0.4300   18.1470  -29.4580 C   0  0  0  0  0  0  0  0  0  0  0  0
   -0.1100   19.3280  -29.9740 C   0  0  0  0  0  0  0  0  0  0  0  0
   -2.3910   24.7002  -27.7178 H   0  0  0  0  0  0  0  0  0  0  0  0
   -1.0829   24.3729  -28.9045 H   0  0  0  0  0  0  0  0  0  0  0  0
   -1.9182   25.9631  -28.9045 H   0  0  0  0  0  0  0  0  0  0  0  0
   -8.1377   20.4601  -31.6859 H   0  0  0  0  0  0  0  0  0  0  0  0
   -6.9228   19.0475  -33.3417 H   0  0  0  0  0  0  0  0  0  0  0  0
   -4.5429   19.5385  -33.9002 H   0  0  0  0  0  0  0  0  0  0  0  0
    0.0102   22.9193  -29.9368 H   0  0  0  0  0  0  0  0  0  0  0  0
    0.0295   21.6364  -31.1940 H   0  0  0  0  0  0  0  0  0  0  0  0
   -1.2721   22.8744  -31.1940 H   0  0  0  0  0  0  0  0  0  0  0  0
   -1.7419   20.4446  -27.1797 H   0  0  0  0  0  0  0  0  0  0  0  0
   -0.7709   18.3381  -26.2662 H   0  0  0  0  0  0  0  0  0  0  0  0
    1.0399   17.4951  -30.1007 H   0  0  0  0  0  0  0  0  0  0  0  0
    0.0732   19.5974  -31.0247 H   0  0  0  0  0  0  0  0  0  0  0  0
  1  2  1  0
  2  3  1  0
  3  4  1  0
  4  5  2  0
  5  6  1  0
  6  7  2  0
  7  8  1  0
  7  9  1  0
  9 10  2  0
 10 11  1  0
 11 12  2  0
 12 13  1  0
  5 14  1  0
 14 15  1  0
 15 16  2  0
 15 17  1  0
 17 18  1  0
 17 19  1  0
 19 20  2  0
 20 21  1  0
 21 22  2  0
 22 23  1  0
 22 24  1  0
 24 25  2  0
 14  2  2  0
 25 19  1  0
 12  6  1  0
  1 26  1  0
  1 27  1  0
  1 28  1  0
  9 29  1  0
 10 30  1  0
 11 31  1  0
 18 32  1  0
 18 33  1  0
 18 34  1  0
 20 35  1  0
 21 36  1  0
 24 37  1  0
 25 38  1  0
M  END
>  <UniqueID>  (20) 
19

>  <SMILES>  (20) 
Cc1onc(-c2c(Cl)cccc2Cl)c1C(=O)N(C)c1ccc(Cl)cc1

>  <Energy>  (20) 
86.83129192730445

>  <Genealogy>  (20) 
Cc1onc(-c2c(Cl)cccc2Cl)c1C(=O)N(C)c1ccc(Cl)cc1 (3D coordinates assigned)
Cc1onc(-c2c(Cl)cccc2Cl)c1C(=O)N(C)c1ccc(Cl)cc1 (optimized conformer: 86.83129192730445 kcal/mol)

>  <smiles>  (20) 
Cc1onc(-c2c(Cl)cccc2Cl)c1C(=O)N(C)c1ccc(Cl)cc1

>  <score_type>  (20) 
oracle

>  <origin>  (20) 
adgpu

>  <m_score__min__energy>  (20) 
-8.7400000000000002

>  <m_primary>  (20) 
energy

$$$$
20:0
     RDKit          3D

 35 38  0  0  0  0  0  0  0  0999 V2000
   -3.1857   15.8702  -36.1178 H   0  0  0  0  0  0  0  0  0  0  0  0
   -3.1930   16.6750  -35.3680 C   0  0  0  0  0  0  0  0  0  0  0  0
   -1.8140   17.3600  -34.6510 S   0  0  0  0  0  0  0  0  0  0  0  0
   -2.6840   18.4330  -33.7030 C   0  0  0  0  0  0  0  0  0  0  0  0
   -2.2060   19.3440  -32.8270 N   0  0  0  0  0  0  0  0  0  0  0  0
   -3.0710   20.1500  -32.1410 C   0  0  0  0  0  0  0  0  0  0  0  0
   -2.5520   21.0180  -31.3130 N   0  0  0  0  0  0  0  0  0  0  0  0
   -3.2120   22.0530  -30.5710 C   0  0  0  0  0  0  0  0  0  0  0  0
   -3.7770   21.7570  -29.3250 C   0  0  0  0  0  0  0  0  0  0  0  0
   -3.7347   20.7298  -28.9339 H   0  0  0  0  0  0  0  0  0  0  0  0
   -4.3950   22.7630  -28.5760 C   0  0  0  0  0  0  0  0  0  0  0  0
   -4.8554   22.5224  -27.6064 H   0  0  0  0  0  0  0  0  0  0  0  0
   -4.4280   24.0750  -29.0590 C   0  0  0  0  0  0  0  0  0  0  0  0
   -4.9206   24.8647  -28.4727 H   0  0  0  0  0  0  0  0  0  0  0  0
   -3.8350   24.3830  -30.2870 C   0  0  0  0  0  0  0  0  0  0  0  0
   -3.8580   25.6900  -30.7620 O   0  0  0  0  0  0  0  0  0  0  0  0
   -3.2160   23.3780  -31.0380 C   0  0  0  0  0  0  0  0  0  0  0  0
   -2.7323   23.6253  -31.9945 H   0  0  0  0  0  0  0  0  0  0  0  0
   -4.4850   19.9800  -32.3500 C   0  0  0  0  0  0  0  0  0  0  0  0
   -5.3490   20.6490  -31.6400 N   0  0  0  0  0  0  0  0  0  0  0  0
   -6.7820   20.6250  -31.7500 C   0  0  0  0  0  0  0  0  0  0  0  0
   -7.5000   19.4270  -31.9340 C   0  0  0  0  0  0  0  0  0  0  0  0
   -6.9654   18.4661  -31.9629 H   0  0  0  0  0  0  0  0  0  0  0  0
   -8.8900   19.4560  -32.0800 C   0  0  0  0  0  0  0  0  0  0  0  0
   -9.4483   18.5169  -32.2085 H   0  0  0  0  0  0  0  0  0  0  0  0
   -9.5710   20.6750  -32.0630 C   0  0  0  0  0  0  0  0  0  0  0  0
  -10.6660   20.6945  -32.1662 H   0  0  0  0  0  0  0  0  0  0  0  0
   -8.8620   21.8700  -31.9150 C   0  0  0  0  0  0  0  0  0  0  0  0
   -9.3976   22.8308  -31.9125 H   0  0  0  0  0  0  0  0  0  0  0  0
   -7.4710   21.8440  -31.7700 C   0  0  0  0  0  0  0  0  0  0  0  0
   -6.9145   22.7876  -31.6710 H   0  0  0  0  0  0  0  0  0  0  0  0
   -4.9180   19.0380  -33.2450 N   0  0  0  0  0  0  0  0  0  0  0  0
   -4.0270   18.2800  -33.9240 C   0  0  0  0  0  0  0  0  0  0  0  0
   -4.3380   17.2920  -34.8580 C   0  0  0  0  0  0  0  0  0  0  0  0
   -5.3634   17.0296  -35.1576 H   0  0  0  0  0  0  0  0  0  0  0  0
  1  2  1  0
  2  3  1  0
  3  4  1  0
  4  5  1  0
  5  6  1  0
  6  7  2  0
  7  8  1  0
  8  9  2  0
  9 10  1  0
  9 11  1  0
 11 12  1  0
 11 13  2  0
 13 14  1  0
 13 15  1  0
 15 16  1  0
 15 17  2  0
 17 18  1  0
  6 19  1  0
 19 20  2  0
 20 21  1  0
 21 22  2  0
 22 23  1  0
 22 24  1  0
 24 25  1  0
 24 26  2  0
 26 27  1  0
 26 28  1  0
 28 29  1  0
 28 30  2  0
 30 31  1  0
 19 32  1  0
 32 33  1  0
 33 34  1  0
 34 35  1  0
 34  2  2  0
 33  4  2  0
 17  8  1  0
 30 21  1  0
M  CHG  3   5  -1  16  -1  32  -1
M  END
>  <UniqueID>  (21) 
20

>  <SMILES>  (21) 
[O-]c1cccc(/N=c2/[n-]c3sccc3[n-]/c2=N\c2ccccc2)c1

>  <Energy>  (21) 
93.9905618096986

>  <Genealogy>  (21) 
[O-]c1cccc(N=c2[n-]c3sccc3[n-]c2=Nc2ccccc2)c1 (protonated)
[O-]c1cccc(/N=c2/[n-]c3sccc3[n-]/c2=N\c2ccccc2)c1 (cis-trans isomerization)
[O-]c1cccc(/N=c2/[n-]c3sccc3[n-]/c2=N\c2ccccc2)c1 (3D coordinates assigned)
[O-]c1cccc(/N=c2/[n-]c3sccc3[n-]/c2=N\c2ccccc2)c1 (optimized conformer: 93.9905618096986 kcal/mol)

>  <smiles>  (21) 
Oc1cccc(N=c2[nH]c3sccc3[nH]c2=Nc2ccccc2)c1

>  <score_type>  (21) 
oracle

>  <origin>  (21) 
adgpu

>  <m_score__min__energy>  (21) 
-11.25

>  <m_primary>  (21) 
energy

$$$$
21:0
     RDKit          3D

 23 24  0  0  0  0  0  0  0  0999 V2000
   -4.6060   24.8770  -30.9930 O   0  0  0  0  0  0  0  0  0  0  0  0
   -4.2720   24.0730  -30.0810 C   0  0  0  0  0  0  0  0  0  0  0  0
   -4.8330   22.7510  -30.0360 N   0  0  0  0  0  0  0  0  0  0  0  0
   -5.9690   22.3300  -30.8110 C   0  0  0  0  0  0  0  0  0  0  0  0
   -5.7810   21.4410  -31.8810 C   0  0  0  0  0  0  0  0  0  0  0  0
   -6.8740   21.0000  -32.6350 C   0  0  0  0  0  0  0  0  0  0  0  0
   -8.1630   21.4310  -32.3170 C   0  0  0  0  0  0  0  0  0  0  0  0
   -8.3640   22.2990  -31.2400 C   0  0  0  0  0  0  0  0  0  0  0  0
   -7.2750   22.7430  -30.4850 C   0  0  0  0  0  0  0  0  0  0  0  0
   -3.2710   24.4830  -29.0860 C   0  0  0  0  0  0  0  0  0  0  0  0
   -3.2350   24.0920  -27.7610 C   0  0  0  0  0  0  0  0  0  0  0  0
   -2.1310   24.7170  -27.2200 C   0  0  0  0  0  0  0  0  0  0  0  0
   -1.5640   25.4470  -28.2440 C   0  0  0  0  0  0  0  0  0  0  0  0
   -2.2650   25.2890  -29.3430 O   0  0  0  0  0  0  0  0  0  0  0  0
   -4.3330   22.0270  -29.4710 H   0  0  0  0  0  0  0  0  0  0  0  0
   -4.7685   21.0891  -32.1281 H   0  0  0  0  0  0  0  0  0  0  0  0
   -6.7173   20.3128  -33.4795 H   0  0  0  0  0  0  0  0  0  0  0  0
   -9.0207   21.0875  -32.9140 H   0  0  0  0  0  0  0  0  0  0  0  0
   -9.3809   22.6331  -30.9863 H   0  0  0  0  0  0  0  0  0  0  0  0
   -7.4389   23.4182  -29.6322 H   0  0  0  0  0  0  0  0  0  0  0  0
   -3.9394   23.4225  -27.2457 H   0  0  0  0  0  0  0  0  0  0  0  0
   -1.7746   24.6474  -26.1817 H   0  0  0  0  0  0  0  0  0  0  0  0
   -0.6606   26.0680  -28.1535 H   0  0  0  0  0  0  0  0  0  0  0  0
  1  2  2  0
  2  3  1  0
  3  4  1  0
  4  5  2  0
  5  6  1  0
  6  7  2  0
  7  8  1  0
  8  9  2  0
  2 10  1  0
 10 11  2  0
 11 12  1  0
 12 13  2  0
 13 14  1  0
  9  4  1  0
 14 10  1  0
  3 15  1  0
  5 16  1  0
  6 17  1  0
  7 18  1  0
  8 19  1  0
  9 20  1  0
 11 21  1  0
 12 22  1  0
 13 23  1  0
M  END
>  <UniqueID>  (22) 
21

>  <SMILES>  (22) 
O=C(Nc1ccccc1)c1ccco1

>  <Energy>  (22) 
51.965765852589634

>  <Genealogy>  (22) 
O=C(Nc1ccccc1)c1ccco1 (3D coordinates assigned)
O=C(Nc1ccccc1)c1ccco1 (optimized conformer: 51.965765852589634 kcal/mol)

>  <smiles>  (22) 
O=C(Nc1ccccc1)c1ccco1

>  <score_type>  (22) 
oracle

>  <origin>  (22) 
adgpu

>  <m_score__min__energy>  (22) 
-6.2300000000000004

>  <m_primary>  (22) 
energy

$$$$
22:0
     RDKit          3D

 27 28  0  0  0  0  0  0  0  0999 V2000
   -9.1140   19.1660  -31.6200 C   0  0  0  0  0  0  0  0  0  0  0  0
   -7.7800   19.4240  -32.2550 C   0  0  0  0  0  0  0  0  0  0  0  0
   -7.1390   18.4140  -32.9880 C   0  0  0  0  0  0  0  0  0  0  0  0
   -5.9180   18.6690  -33.6200 C   0  0  0  0  0  0  0  0  0  0  0  0
   -5.1290   17.4030  -34.5430 Cl  0  0  0  0  0  0  0  0  0  0  0  0
   -5.3330   19.9350  -33.5290 C   0  0  0  0  0  0  0  0  0  0  0  0
   -5.9610   20.9560  -32.7930 C   0  0  0  0  0  0  0  0  0  0  0  0
   -5.3960   22.2760  -32.7160 N   0  0  0  0  0  0  0  0  0  0  0  0
   -5.5260   23.1500  -31.5810 C   0  0  0  0  0  0  0  0  0  0  0  0
   -4.3980   23.4310  -30.7940 C   0  0  0  0  0  0  0  0  0  0  0  0
   -4.4960   24.2990  -29.7020 C   0  0  0  0  0  0  0  0  0  0  0  0
   -5.7180   24.9040  -29.3960 C   0  0  0  0  0  0  0  0  0  0  0  0
   -6.8410   24.6490  -30.1870 C   0  0  0  0  0  0  0  0  0  0  0  0
   -6.7470   23.7820  -31.2800 C   0  0  0  0  0  0  0  0  0  0  0  0
   -7.1970   20.6990  -32.1820 C   0  0  0  0  0  0  0  0  0  0  0  0
   -9.0090   19.1863  -30.5252 H   0  0  0  0  0  0  0  0  0  0  0  0
   -9.8262   19.9430  -31.9345 H   0  0  0  0  0  0  0  0  0  0  0  0
   -9.4852   18.1794  -31.9345 H   0  0  0  0  0  0  0  0  0  0  0  0
   -7.5987   17.4177  -33.0658 H   0  0  0  0  0  0  0  0  0  0  0  0
   -4.3769   20.1339  -34.0353 H   0  0  0  0  0  0  0  0  0  0  0  0
   -4.8560   22.6250  -33.5400 H   0  0  0  0  0  0  0  0  0  0  0  0
   -3.4315   22.9657  -31.0377 H   0  0  0  0  0  0  0  0  0  0  0  0
   -3.6103   24.5058  -29.0833 H   0  0  0  0  0  0  0  0  0  0  0  0
   -5.7957   25.5809  -28.5324 H   0  0  0  0  0  0  0  0  0  0  0  0
   -7.8008   25.1311  -29.9495 H   0  0  0  0  0  0  0  0  0  0  0  0
   -7.6308   23.5932  -31.9071 H   0  0  0  0  0  0  0  0  0  0  0  0
   -7.7147   21.5043  -31.6403 H   0  0  0  0  0  0  0  0  0  0  0  0
  1  2  1  0
  2  3  2  0
  3  4  1  0
  4  5  1  0
  4  6  2  0
  6  7  1  0
  7  8  1  0
  8  9  1  0
  9 10  2  0
 10 11  1  0
 11 12  2  0
 12 13  1  0
 13 14  2  0
  7 15  2  0
 15  2  1  0
 14  9  1  0
  1 16  1  0
  1 17  1  0
  1 18  1  0
  3 19  1  0
  6 20  1  0
  8 21  1  0
 10 22  1  0
 11 23  1  0
 12 24  1  0
 13 25  1  0
 14 26  1  0
 15 27  1  0
M  END
>  <UniqueID>  (23) 
22

>  <SMILES>  (23) 
Cc1cc(Cl)cc(Nc2ccccc2)c1

>  <Energy>  (23) 
31.896446907034537

>  <Genealogy>  (23) 
Cc1cc(Cl)cc(Nc2ccccc2)c1 (3D coordinates assigned)
Cc1cc(Cl)cc(Nc2ccccc2)c1 (optimized conformer: 31.896446907034537 kcal/mol)

>  <smiles>  (23) 
Cc1cc(Cl)cc(Nc2ccccc2)c1

>  <score_type>  (23) 
oracle

>  <origin>  (23) 
adgpu

>  <m_score__min__energy>  (23) 
-6.9100000000000001

>  <m_primary>  (23) 
energy

$$$$
23:0
     RDKit          3D

 21 22  0  0  0  0  0  0  0  0999 V2000
   -5.7260   17.6980  -34.4430 C   0  0  0  0  0  0  0  0  0  0  0  0
   -6.2770   18.8130  -33.6200 C   0  0  0  0  0  0  0  0  0  0  0  0
   -7.3890   18.7350  -32.7910 C   0  0  0  0  0  0  0  0  0  0  0  0
   -7.6280   19.9160  -32.0750 C   0  0  0  0  0  0  0  0  0  0  0  0
   -6.6910   20.9120  -32.3330 C   0  0  0  0  0  0  0  0  0  0  0  0
   -6.6560   22.2550  -31.7390 C   0  0  0  0  0  0  0  0  0  0  0  0
   -7.7370   22.9510  -31.2200 C   0  0  0  0  0  0  0  0  0  0  0  0
   -7.2330   24.1550  -30.7770 C   0  0  0  0  0  0  0  0  0  0  0  0
   -5.8820   24.1110  -31.0560 C   0  0  0  0  0  0  0  0  0  0  0  0
   -4.9410   25.1490  -30.7720 N   0  0  0  0  0  0  0  0  0  0  0  0
   -3.7180   24.9070  -30.7940 O   0  0  0  0  0  0  0  0  0  0  0  0
   -5.3760   26.4200  -30.4730 O   0  0  0  0  0  0  0  0  0  0  0  0
   -5.5620   22.9740  -31.6270 O   0  0  0  0  0  0  0  0  0  0  0  0
   -5.5690   20.3280  -33.4440 S   0  0  0  0  0  0  0  0  0  0  0  0
   -5.3370   16.9108  -33.7805 H   0  0  0  0  0  0  0  0  0  0  0  0
   -6.5225   17.2825  -35.0778 H   0  0  0  0  0  0  0  0  0  0  0  0
   -4.9121   18.0783  -35.0778 H   0  0  0  0  0  0  0  0  0  0  0  0
   -8.0184   17.8370  -32.7052 H   0  0  0  0  0  0  0  0  0  0  0  0
   -8.4708   20.0427  -31.3796 H   0  0  0  0  0  0  0  0  0  0  0  0
   -8.7823   22.6119  -31.1717 H   0  0  0  0  0  0  0  0  0  0  0  0
   -7.7894   24.9765  -30.3020 H   0  0  0  0  0  0  0  0  0  0  0  0
  1  2  1  0
  2  3  2  0
  3  4  1  0
  4  5  2  0
  5  6  1  0
  6  7  2  0
  7  8  1  0
  8  9  2  0
  9 10  1  0
 10 11  2  0
 10 12  1  0
  9 13  1  0
  5 14  1  0
 14  2  1  0
 13  6  1  0
  1 15  1  0
  1 16  1  0
  1 17  1  0
  3 18  1  0
  4 19  1  0
  7 20  1  0
  8 21  1  0
M  CHG  2  10   1  12  -1
M  END
>  <UniqueID>  (24) 
23

>  <SMILES>  (24) 
Cc1ccc(-c2ccc([N+](=O)[O-])o2)s1

>  <Energy>  (24) 
71.27334865150802

>  <Genealogy>  (24) 
Cc1ccc(-c2ccc([N+](=O)[O-])o2)s1 (3D coordinates assigned)
Cc1ccc(-c2ccc([N+](=O)[O-])o2)s1 (optimized conformer: 71.27334865150802 kcal/mol)

>  <smiles>  (24) 
Cc1ccc(-c2ccc([N+](=O)[O-])o2)s1

>  <score_type>  (24) 
oracle

>  <origin>  (24) 
adgpu

>  <m_score__min__energy>  (24) 
-6.7199999999999998

>  <m_primary>  (24) 
energy

$$$$
24:0
     RDKit          3D

 43 46  0  0  0  0  0  0  0  0999 V2000
   -1.9430   25.2870  -29.0780 O   0  0  0  0  0  0  0  0  0  0  0  0
   -2.0090   24.0490  -28.8470 C   0  0  0  0  0  0  0  0  0  0  0  0
   -1.4090   23.4970  -27.5920 C   0  0  0  0  0  0  0  0  0  0  0  0
   -1.6640   22.0620  -27.5190 N   0  0  0  0  0  0  0  0  0  0  0  0
   -0.7380   21.1040  -27.3280 C   0  0  0  0  0  0  0  0  0  0  0  0
   -1.3850   19.8930  -27.2210 C   0  0  0  0  0  0  0  0  0  0  0  0
   -2.7280   20.1990  -27.3490 C   0  0  0  0  0  0  0  0  0  0  0  0
   -2.8740   21.5260  -27.5200 N   0  0  0  0  0  0  0  0  0  0  0  0
   -2.6980   23.1760  -29.7530 N   0  0  0  0  0  0  0  0  0  0  0  0
   -3.5800   23.6850  -30.8050 C   0  0  2  0  0  0  0  0  0  0  0  0
   -4.6470   24.6290  -30.2000 C   0  0  0  0  0  0  0  0  0  0  0  0
   -5.7310   23.8490  -29.4250 C   0  0  0  0  0  0  0  0  0  0  0  0
   -6.4890   22.8620  -30.3370 C   0  0  0  0  0  0  0  0  0  0  0  0
   -5.5290   22.0970  -31.2080 C   0  0  0  0  0  0  0  0  0  0  0  0
   -4.2620   22.5390  -31.4930 C   0  0  0  0  0  0  0  0  0  0  0  0
   -3.7930   21.7100  -32.4900 C   0  0  0  0  0  0  0  0  0  0  0  0
   -4.7660   20.8320  -32.8170 N   0  0  0  0  0  0  0  0  0  0  0  0
   -5.8150   21.0700  -32.0380 N   0  0  0  0  0  0  0  0  0  0  0  0
   -7.0550   20.3590  -32.1560 C   0  0  0  0  0  0  0  0  0  0  0  0
   -7.0620   18.9550  -32.1290 C   0  0  0  0  0  0  0  0  0  0  0  0
   -8.2680   18.2540  -32.2280 C   0  0  0  0  0  0  0  0  0  0  0  0
   -9.4750   18.9490  -32.3380 C   0  0  0  0  0  0  0  0  0  0  0  0
   -9.4780   20.3470  -32.3420 C   0  0  0  0  0  0  0  0  0  0  0  0
   -8.2730   21.0510  -32.2450 C   0  0  0  0  0  0  0  0  0  0  0  0
   -0.3238   23.6765  -27.5950 H   0  0  0  0  0  0  0  0  0  0  0  0
   -1.8613   23.9937  -26.7210 H   0  0  0  0  0  0  0  0  0  0  0  0
    0.3490   21.2614  -27.2677 H   0  0  0  0  0  0  0  0  0  0  0  0
   -0.9337   18.9016  -27.0677 H   0  0  0  0  0  0  0  0  0  0  0  0
   -3.5506   19.4695  -27.3161 H   0  0  0  0  0  0  0  0  0  0  0  0
   -2.6620   22.1480  -29.5700 H   0  0  0  0  0  0  0  0  0  0  0  0
   -2.9747   24.2455  -31.5326 H   0  0  0  0  0  0  0  0  0  0  0  0
   -4.1525   25.3302  -29.5117 H   0  0  0  0  0  0  0  0  0  0  0  0
   -5.1370   25.1647  -31.0264 H   0  0  0  0  0  0  0  0  0  0  0  0
   -5.2509   23.2852  -28.6115 H   0  0  0  0  0  0  0  0  0  0  0  0
   -6.4566   24.5745  -29.0286 H   0  0  0  0  0  0  0  0  0  0  0  0
   -7.0528   22.1535  -29.7124 H   0  0  0  0  0  0  0  0  0  0  0  0
   -7.1742   23.4317  -30.9819 H   0  0  0  0  0  0  0  0  0  0  0  0
   -2.7921   21.7560  -32.9440 H   0  0  0  0  0  0  0  0  0  0  0  0
   -6.1150   18.4043  -32.0296 H   0  0  0  0  0  0  0  0  0  0  0  0
   -8.2663   17.1540  -32.2193 H   0  0  0  0  0  0  0  0  0  0  0  0
  -10.4225   18.3965  -32.4214 H   0  0  0  0  0  0  0  0  0  0  0  0
  -10.4290   20.8941  -32.4215 H   0  0  0  0  0  0  0  0  0  0  0  0
   -8.2800   22.1510  -32.2384 H   0  0  0  0  0  0  0  0  0  0  0  0
  1  2  2  0
  2  3  1  0
  3  4  1  0
  4  5  1  0
  5  6  2  0
  6  7  1  0
  7  8  2  0
  2  9  1  0
  9 10  1  0
 10 11  1  0
 11 12  1  0
 12 13  1  0
 13 14  1  0
 14 15  2  0
 15 16  1  0
 16 17  2  0
 17 18  1  0
 18 19  1  0
 19 20  2  0
 20 21  1  0
 21 22  2  0
 22 23  1  0
 23 24  2  0
  8  4  1  0
 15 10  1  0
 24 19  1  0
 18 14  1  0
  3 25  1  0
  3 26  1  0
  5 27  1  0
  6 28  1  0
  7 29  1  0
  9 30  1  0
 10 31  1  6
 11 32  1  0
 11 33  1  0
 12 34  1  0
 12 35  1  0
 13 36  1  0
 13 37  1  0
 16 38  1  0
 20 39  1  0
 21 40  1  0
 22 41  1  0
 23 42  1  0
 24 43  1  0
M  END
>  <UniqueID>  (25) 
24

>  <SMILES>  (25) 
O=C(Cn1cccn1)N[C@@H]1CCCc2c1cnn2-c1ccccc1

>  <Energy>  (25) 
107.73417274879338

>  <Genealogy>  (25) 
O=C(Cn1cccn1)N[C@@H]1CCCc2c1cnn2-c1ccccc1 (chirality)
O=C(Cn1cccn1)N[C@@H]1CCCc2c1cnn2-c1ccccc1 (3D coordinates assigned)
O=C(Cn1cccn1)N[C@@H]1CCCc2c1cnn2-c1ccccc1 (nonaromatic ring conformer: 107.73417274879338 kcal/mol)

>  <smiles>  (25) 
O=C(Cn1cccn1)NC1CCCc2c1cnn2-c1ccccc1

>  <score_type>  (25) 
oracle

>  <origin>  (25) 
adgpu

>  <m_score__min__energy>  (25) 
-7.9699999999999998

>  <m_primary>  (25) 
energy

$$$$
25:0
     RDKit          3D

 20 21  0  0  0  0  0  0  0  0999 V2000
   -5.4790   26.4270  -30.4620 O   0  0  0  0  0  0  0  0  0  0  0  0
   -4.9100   25.3280  -30.6950 C   0  0  0  0  0  0  0  0  0  0  0  0
   -3.5000   25.2180  -30.4660 N   0  0  0  0  0  0  0  0  0  0  0  0
   -2.8710   24.5500  -29.3640 C   0  0  0  0  0  0  0  0  0  0  0  0
   -1.5640   24.8740  -28.9530 C   0  0  0  0  0  0  0  0  0  0  0  0
   -0.9900   24.2240  -27.8560 C   0  0  0  0  0  0  0  0  0  0  0  0
   -1.7190   23.2610  -27.1530 C   0  0  0  0  0  0  0  0  0  0  0  0
   -3.0250   22.9530  -27.5410 C   0  0  0  0  0  0  0  0  0  0  0  0
   -3.6020   23.6010  -28.6380 C   0  0  0  0  0  0  0  0  0  0  0  0
   -5.7200   24.1690  -31.1260 C   0  0  0  0  0  0  0  0  0  0  0  0
   -6.8840   23.7700  -30.4670 C   0  0  0  0  0  0  0  0  0  0  0  0
   -7.3930   22.4240  -31.3100 S   0  0  0  0  0  0  0  0  0  0  0  0
   -6.1790   22.3690  -32.4380 N   0  0  0  0  0  0  0  0  0  0  0  0
   -5.3590   23.3850  -32.1890 N   0  0  0  0  0  0  0  0  0  0  0  0
   -0.9926   25.6409  -29.4965 H   0  0  0  0  0  0  0  0  0  0  0  0
    0.0362   24.4709  -27.5461 H   0  0  0  0  0  0  0  0  0  0  0  0
   -1.2643   22.7456  -26.2941 H   0  0  0  0  0  0  0  0  0  0  0  0
   -3.6005   22.1997  -26.9830 H   0  0  0  0  0  0  0  0  0  0  0  0
   -4.6351   23.3642  -28.9321 H   0  0  0  0  0  0  0  0  0  0  0  0
   -7.3578   24.2371  -29.5910 H   0  0  0  0  0  0  0  0  0  0  0  0
  1  2  2  0
  2  3  1  0
  3  4  1  0
  4  5  2  0
  5  6  1  0
  6  7  2  0
  7  8  1  0
  8  9  2  0
  2 10  1  0
 10 11  2  0
 11 12  1  0
 12 13  1  0
 13 14  2  0
  9  4  1  0
 14 10  1  0
  5 15  1  0
  6 16  1  0
  7 17  1  0
  8 18  1  0
  9 19  1  0
 11 20  1  0
M  CHG  1   3  -1
M  END
>  <UniqueID>  (26) 
25

>  <SMILES>  (26) 
O=C([N-]c1ccccc1)c1csnn1

>  <Energy>  (26) 
62.3578673928904

>  <Genealogy>  (26) 
O=C([N-]c1ccccc1)c1csnn1 (protonated)
O=C([N-]c1ccccc1)c1csnn1 (3D coordinates assigned)
O=C([N-]c1ccccc1)c1csnn1 (optimized conformer: 62.3578673928904 kcal/mol)

>  <smiles>  (26) 
O=C(Nc1ccccc1)c1csnn1

>  <score_type>  (26) 
oracle

>  <origin>  (26) 
adgpu

>  <m_score__min__energy>  (26) 
-7.3300000000000001

>  <m_primary>  (26) 
energy

$$$$
26:0
     RDKit          3D

 32 34  0  0  0  0  0  0  0  0999 V2000
   -5.6880   14.2480  -33.6170 C   0  0  0  0  0  0  0  0  0  0  0  0
   -4.8400   14.8740  -32.7010 C   0  0  0  0  0  0  0  0  0  0  0  0
   -4.9790   16.2390  -32.4340 C   0  0  0  0  0  0  0  0  0  0  0  0
   -5.9710   16.9970  -33.0900 C   0  0  0  0  0  0  0  0  0  0  0  0
   -6.1430   18.4470  -32.8160 C   0  0  0  0  0  0  0  0  0  0  0  0
   -7.1750   18.9270  -31.9890 C   0  0  0  0  0  0  0  0  0  0  0  0
   -7.2930   20.2980  -31.7590 C   0  0  0  0  0  0  0  0  0  0  0  0
   -6.4070   21.1910  -32.3640 C   0  0  0  0  0  0  0  0  0  0  0  0
   -6.5060   22.5930  -32.0710 N   0  0  0  0  0  0  0  0  0  0  0  0
   -5.6270   23.3450  -31.4670 C   0  0  0  0  0  0  0  0  0  0  0  0
   -4.3390   22.8880  -31.1210 C   0  0  0  0  0  0  0  0  0  0  0  0
   -3.4470   23.7550  -30.4860 C   0  0  0  0  0  0  0  0  0  0  0  0
   -3.8120   25.0370  -30.2140 N   0  0  0  0  0  0  0  0  0  0  0  0
   -5.0400   25.5100  -30.5560 C   0  0  0  0  0  0  0  0  0  0  0  0
   -5.9630   24.6760  -31.1930 C   0  0  0  0  0  0  0  0  0  0  0  0
   -5.3620   20.6760  -33.1460 C   0  0  0  0  0  0  0  0  0  0  0  0
   -5.2620   19.3370  -33.3550 N   0  0  0  0  0  0  0  0  0  0  0  0
   -6.8270   16.3490  -34.0010 C   0  0  0  0  0  0  0  0  0  0  0  0
   -6.6810   14.9840  -34.2640 C   0  0  0  0  0  0  0  0  0  0  0  0
   -5.5730   13.1746  -33.8284 H   0  0  0  0  0  0  0  0  0  0  0  0
   -4.0605   14.2914  -32.1882 H   0  0  0  0  0  0  0  0  0  0  0  0
   -4.3107   16.7249  -31.7079 H   0  0  0  0  0  0  0  0  0  0  0  0
   -7.8848   18.2254  -31.5264 H   0  0  0  0  0  0  0  0  0  0  0  0
   -8.0870   20.6766  -31.0986 H   0  0  0  0  0  0  0  0  0  0  0  0
   -4.0384   21.8549  -31.3498 H   0  0  0  0  0  0  0  0  0  0  0  0
   -2.4448   23.3996  -30.2045 H   0  0  0  0  0  0  0  0  0  0  0  0
   -3.1320   25.6730  -29.7400 H   0  0  0  0  0  0  0  0  0  0  0  0
   -5.3080   26.5528  -30.3305 H   0  0  0  0  0  0  0  0  0  0  0  0
   -6.9516   25.0648  -31.4785 H   0  0  0  0  0  0  0  0  0  0  0  0
   -4.6221   21.3576  -33.5909 H   0  0  0  0  0  0  0  0  0  0  0  0
   -7.6167   16.9214  -34.5096 H   0  0  0  0  0  0  0  0  0  0  0  0
   -7.3506   14.4890  -34.9828 H   0  0  0  0  0  0  0  0  0  0  0  0
  1  2  2  0
  2  3  1  0
  3  4  2  0
  4  5  1  0
  5  6  2  0
  6  7  1  0
  7  8  2  0
  8  9  1  0
  9 10  2  3
 10 11  1  0
 11 12  2  0
 12 13  1  0
 13 14  1  0
 14 15  2  0
  8 16  1  0
 16 17  2  0
  4 18  1  0
 18 19  2  0
 19  1  1  0
 17  5  1  0
 15 10  1  0
  1 20  1  0
  2 21  1  0
  3 22  1  0
  6 23  1  0
  7 24  1  0
 11 25  1  0
 12 26  1  0
 13 27  1  0
 14 28  1  0
 15 29  1  0
 16 30  1  0
 18 31  1  0
 19 32  1  0
M  END
>  <UniqueID>  (27) 
26

>  <SMILES>  (27) 
c1ccc(-c2ccc(N=c3cc[nH]cc3)cn2)cc1

>  <Energy>  (27) 
49.25985181343724

>  <Genealogy>  (27) 
c1ccc(-c2ccc(N=c3cc[nH]cc3)cn2)cc1 (3D coordinates assigned)
c1ccc(-c2ccc(N=c3cc[nH]cc3)cn2)cc1 (optimized conformer: 49.25985181343724 kcal/mol)

>  <smiles>  (27) 
c1ccc(-c2ccc(N=c3cc[nH]cc3)cn2)cc1

>  <score_type>  (27) 
oracle

>  <origin>  (27) 
adgpu

>  <m_score__min__energy>  (27) 
-7.3399999999999999

>  <m_primary>  (27) 
energy

$$$$
27:0
     RDKit          3D

 43 45  0  0  0  0  0  0  0  0999 V2000
    0.5490   21.4110  -34.3800 C   0  0  0  0  0  0  0  0  0  0  0  0
   -0.7030   21.0790  -33.6190 C   0  0  0  0  0  0  0  0  0  0  0  0
   -0.8610   21.4990  -32.2900 C   0  0  0  0  0  0  0  0  0  0  0  0
   -2.0190   21.1690  -31.5800 C   0  0  0  0  0  0  0  0  0  0  0  0
   -3.0300   20.4060  -32.1880 C   0  0  0  0  0  0  0  0  0  0  0  0
   -4.2850   20.0530  -31.4330 C   0  0  0  0  0  0  0  0  0  0  0  0
   -5.4320   20.7960  -31.9730 N   0  0  0  0  0  0  0  0  0  0  0  0
   -5.2390   22.1350  -32.5390 C   0  0  0  0  0  0  0  0  0  0  0  0
   -5.4230   23.1760  -31.4670 C   0  0  0  0  0  0  0  0  0  0  0  0
   -4.3280   23.5850  -30.6830 C   0  0  0  0  0  0  0  0  0  0  0  0
   -4.4880   24.5910  -29.7220 C   0  0  0  0  0  0  0  0  0  0  0  0
   -5.7340   25.2040  -29.5490 C   0  0  0  0  0  0  0  0  0  0  0  0
   -6.8260   24.8090  -30.3320 C   0  0  0  0  0  0  0  0  0  0  0  0
   -6.6710   23.8010  -31.2900 C   0  0  0  0  0  0  0  0  0  0  0  0
   -6.7220   20.1660  -32.0600 C   0  0  0  0  0  0  0  0  0  0  0  0
   -6.8290   18.7650  -32.0190 C   0  0  0  0  0  0  0  0  0  0  0  0
   -8.0790   18.1500  -32.1440 C   0  0  0  0  0  0  0  0  0  0  0  0
   -9.2280   18.9270  -32.3040 C   0  0  0  0  0  0  0  0  0  0  0  0
   -9.1300   20.3220  -32.3400 C   0  0  0  0  0  0  0  0  0  0  0  0
   -7.8810   20.9400  -32.2250 C   0  0  0  0  0  0  0  0  0  0  0  0
   -2.8550   19.9570  -33.5070 C   0  0  0  0  0  0  0  0  0  0  0  0
   -1.6990   20.2910  -34.2180 C   0  0  0  0  0  0  0  0  0  0  0  0
    1.3624   21.6267  -33.6716 H   0  0  0  0  0  0  0  0  0  0  0  0
    0.8309   20.5566  -35.0128 H   0  0  0  0  0  0  0  0  0  0  0  0
    0.3705   22.2928  -35.0128 H   0  0  0  0  0  0  0  0  0  0  0  0
   -0.0706   22.0903  -31.8046 H   0  0  0  0  0  0  0  0  0  0  0  0
   -2.1393   21.5082  -30.5405 H   0  0  0  0  0  0  0  0  0  0  0  0
   -4.4744   18.9737  -31.5287 H   0  0  0  0  0  0  0  0  0  0  0  0
   -4.1524   20.3203  -30.3742 H   0  0  0  0  0  0  0  0  0  0  0  0
   -4.2227   22.2131  -32.9526 H   0  0  0  0  0  0  0  0  0  0  0  0
   -5.9787   22.3013  -33.3360 H   0  0  0  0  0  0  0  0  0  0  0  0
   -3.3445   23.1135  -30.8254 H   0  0  0  0  0  0  0  0  0  0  0  0
   -3.6332   24.8997  -29.1024 H   0  0  0  0  0  0  0  0  0  0  0  0
   -5.8560   25.9973  -28.7969 H   0  0  0  0  0  0  0  0  0  0  0  0
   -7.8051   25.2910  -30.1939 H   0  0  0  0  0  0  0  0  0  0  0  0
   -7.5287   23.4959  -31.9075 H   0  0  0  0  0  0  0  0  0  0  0  0
   -5.9264   18.1501  -31.8881 H   0  0  0  0  0  0  0  0  0  0  0  0
   -8.1569   17.0531  -32.1162 H   0  0  0  0  0  0  0  0  0  0  0  0
  -10.2105   18.4421  -32.4018 H   0  0  0  0  0  0  0  0  0  0  0  0
  -10.0366   20.9335  -32.4589 H   0  0  0  0  0  0  0  0  0  0  0  0
   -7.8066   22.0368  -32.2640 H   0  0  0  0  0  0  0  0  0  0  0  0
   -3.6312   19.3396  -33.9828 H   0  0  0  0  0  0  0  0  0  0  0  0
   -1.5689   19.9352  -35.2507 H   0  0  0  0  0  0  0  0  0  0  0  0
  1  2  1  0
  2  3  2  0
  3  4  1  0
  4  5  2  0
  5  6  1  0
  6  7  1  0
  7  8  1  0
  8  9  1  0
  9 10  2  0
 10 11  1  0
 11 12  2  0
 12 13  1  0
 13 14  2  0
  7 15  1  0
 15 16  2  0
 16 17  1  0
 17 18  2  0
 18 19  1  0
 19 20  2  0
  5 21  1  0
 21 22  2  0
 22  2  1  0
 14  9  1  0
 20 15  1  0
  1 23  1  0
  1 24  1  0
  1 25  1  0
  3 26  1  0
  4 27  1  0
  6 28  1  0
  6 29  1  0
  8 30  1  0
  8 31  1  0
 10 32  1  0
 11 33  1  0
 12 34  1  0
 13 35  1  0
 14 36  1  0
 16 37  1  0
 17 38  1  0
 18 39  1  0
 19 40  1  0
 20 41  1  0
 21 42  1  0
 22 43  1  0
M  END
>  <UniqueID>  (28) 
27

>  <SMILES>  (28) 
Cc1ccc(CN(Cc2ccccc2)c2ccccc2)cc1

>  <Energy>  (28) 
45.87615492907867

>  <Genealogy>  (28) 
Cc1ccc(CN(Cc2ccccc2)c2ccccc2)cc1 (3D coordinates assigned)
Cc1ccc(CN(Cc2ccccc2)c2ccccc2)cc1 (optimized conformer: 45.87615492907867 kcal/mol)

>  <smiles>  (28) 
Cc1ccc(CN(Cc2ccccc2)c2ccccc2)cc1

>  <score_type>  (28) 
oracle

>  <origin>  (28) 
adgpu

>  <m_score__min__energy>  (28) 
-7.8499999999999996

>  <m_primary>  (28) 
energy

$$$$
28:0
     RDKit          3D

 34 35  0  0  0  0  0  0  0  0999 V2000
   -6.3610   25.4240  -29.3780 C   0  0  0  0  0  0  0  0  0  0  0  0
   -5.3830   24.7120  -30.6840 S   0  0  0  0  0  0  0  0  0  0  0  0
   -4.1090   25.4950  -30.8420 O   0  0  0  0  0  0  0  0  0  0  0  0
   -6.1750   24.7850  -31.9580 O   0  0  0  0  0  0  0  0  0  0  0  0
   -5.0060   23.0540  -30.3200 N   0  0  0  0  0  0  0  0  0  0  0  0
   -4.6270   22.6730  -28.9560 C   0  0  0  0  0  0  0  0  0  0  0  0
   -3.5750   23.6110  -28.4300 C   0  0  0  0  0  0  0  0  0  0  0  0
   -2.3700   23.7900  -29.1300 C   0  0  0  0  0  0  0  0  0  0  0  0
   -1.3720   24.6200  -28.6100 C   0  0  0  0  0  0  0  0  0  0  0  0
   -1.5660   25.2690  -27.3880 C   0  0  0  0  0  0  0  0  0  0  0  0
   -2.7570   25.0850  -26.6800 C   0  0  0  0  0  0  0  0  0  0  0  0
   -3.7570   24.2550  -27.1950 C   0  0  0  0  0  0  0  0  0  0  0  0
   -5.2280   22.0430  -31.3120 C   0  0  0  0  0  0  0  0  0  0  0  0
   -6.4990   21.4660  -31.4520 C   0  0  0  0  0  0  0  0  0  0  0  0
   -6.7190   20.4630  -32.4010 C   0  0  0  0  0  0  0  0  0  0  0  0
   -5.6690   20.0300  -33.2200 C   0  0  0  0  0  0  0  0  0  0  0  0
   -5.8950   18.9980  -34.1970 C   0  0  0  0  0  0  0  0  0  0  0  0
   -6.0760   18.1670  -34.9830 N   0  0  0  0  0  0  0  0  0  0  0  0
   -4.3990   20.6050  -33.0860 C   0  0  0  0  0  0  0  0  0  0  0  0
   -4.1770   21.6070  -32.1370 C   0  0  0  0  0  0  0  0  0  0  0  0
   -2.9470   22.1700  -32.0360 F   0  0  0  0  0  0  0  0  0  0  0  0
   -5.9473   25.1228  -28.4043 H   0  0  0  0  0  0  0  0  0  0  0  0
   -6.3414   26.5207  -29.4614 H   0  0  0  0  0  0  0  0  0  0  0  0
   -7.3986   25.0684  -29.4614 H   0  0  0  0  0  0  0  0  0  0  0  0
   -5.5132   22.7191  -28.3060 H   0  0  0  0  0  0  0  0  0  0  0  0
   -4.2235   21.6497  -28.9673 H   0  0  0  0  0  0  0  0  0  0  0  0
   -2.2113   23.2760  -30.0895 H   0  0  0  0  0  0  0  0  0  0  0  0
   -0.4324   24.7622  -29.1641 H   0  0  0  0  0  0  0  0  0  0  0  0
   -0.7813   25.9249  -26.9830 H   0  0  0  0  0  0  0  0  0  0  0  0
   -2.9076   25.5939  -25.7165 H   0  0  0  0  0  0  0  0  0  0  0  0
   -4.6896   24.1057  -26.6312 H   0  0  0  0  0  0  0  0  0  0  0  0
   -7.3270   21.8044  -30.8118 H   0  0  0  0  0  0  0  0  0  0  0  0
   -7.7177   20.0137  -32.5043 H   0  0  0  0  0  0  0  0  0  0  0  0
   -3.5735   20.2670  -33.7297 H   0  0  0  0  0  0  0  0  0  0  0  0
  1  2  1  0
  2  3  2  0
  2  4  2  0
  2  5  1  0
  5  6  1  0
  6  7  1  0
  7  8  2  0
  8  9  1  0
  9 10  2  0
 10 11  1  0
 11 12  2  0
  5 13  1  0
 13 14  2  0
 14 15  1  0
 15 16  2  0
 16 17  1  0
 17 18  3  0
 16 19  1  0
 19 20  2  0
 20 21  1  0
 12  7  1  0
 20 13  1  0
  1 22  1  0
  1 23  1  0
  1 24  1  0
  6 25  1  0
  6 26  1  0
  8 27  1  0
  9 28  1  0
 10 29  1  0
 11 30  1  0
 12 31  1  0
 14 32  1  0
 15 33  1  0
 19 34  1  0
M  END
>  <UniqueID>  (29) 
28

>  <SMILES>  (29) 
CS(=O)(=O)N(Cc1ccccc1)c1ccc(C#N)cc1F

>  <Energy>  (29) 
33.434761985777385

>  <Genealogy>  (29) 
CS(=O)(=O)N(Cc1ccccc1)c1ccc(C#N)cc1F (3D coordinates assigned)
CS(=O)(=O)N(Cc1ccccc1)c1ccc(C#N)cc1F (optimized conformer: 33.434761985777385 kcal/mol)

>  <smiles>  (29) 
CS(=O)(=O)N(Cc1ccccc1)c1ccc(C#N)cc1F

>  <score_type>  (29) 
oracle

>  <origin>  (29) 
adgpu

>  <m_score__min__energy>  (29) 
-7.8399999999999999

>  <m_primary>  (29) 
energy

$$$$
29:0
     RDKit          3D

 26 28  0  0  0  0  0  0  0  0999 V2000
   -4.2660   21.0740  -32.0230 O   0  0  0  0  0  0  0  0  0  0  0  0
   -5.3510   21.6870  -31.8140 C   0  0  0  0  0  0  0  0  0  0  0  0
   -5.3280   22.9880  -31.2820 C   0  0  0  0  0  0  0  0  0  0  0  0
   -4.1350   23.6680  -30.9830 C   0  0  0  0  0  0  0  0  0  0  0  0
   -4.1800   24.9260  -30.4680 N   0  0  0  0  0  0  0  0  0  0  0  0
   -5.3580   25.5610  -30.2260 C   0  0  0  0  0  0  0  0  0  0  0  0
   -6.5680   24.9230  -30.5070 C   0  0  0  0  0  0  0  0  0  0  0  0
   -6.5540   23.6310  -31.0370 C   0  0  0  0  0  0  0  0  0  0  0  0
   -7.7160   22.9930  -31.3140 N   0  0  0  0  0  0  0  0  0  0  0  0
   -7.7250   21.7370  -31.8300 C   0  0  0  0  0  0  0  0  0  0  0  0
   -6.5520   21.0820  -32.0880 N   0  0  0  0  0  0  0  0  0  0  0  0
   -6.6050   19.7540  -32.6470 C   0  0  0  0  0  0  0  0  0  0  0  0
   -7.2080   18.7040  -31.9340 C   0  0  0  0  0  0  0  0  0  0  0  0
   -7.2500   17.4150  -32.4750 C   0  0  0  0  0  0  0  0  0  0  0  0
   -6.6860   17.1630  -33.7300 C   0  0  0  0  0  0  0  0  0  0  0  0
   -6.7250   15.9140  -34.2530 F   0  0  0  0  0  0  0  0  0  0  0  0
   -6.0780   18.2010  -34.4430 C   0  0  0  0  0  0  0  0  0  0  0  0
   -6.0350   19.4910  -33.9050 C   0  0  0  0  0  0  0  0  0  0  0  0
   -3.1648   23.1828  -31.1655 H   0  0  0  0  0  0  0  0  0  0  0  0
   -5.3577   26.5786  -29.8083 H   0  0  0  0  0  0  0  0  0  0  0  0
   -7.5230   25.4332  -30.3128 H   0  0  0  0  0  0  0  0  0  0  0  0
   -8.6840   21.2418  -32.0424 H   0  0  0  0  0  0  0  0  0  0  0  0
   -7.6494   18.8969  -30.9451 H   0  0  0  0  0  0  0  0  0  0  0  0
   -7.7270   16.5985  -31.9130 H   0  0  0  0  0  0  0  0  0  0  0  0
   -5.6327   18.0024  -35.4290 H   0  0  0  0  0  0  0  0  0  0  0  0
   -5.5531   20.3035  -34.4685 H   0  0  0  0  0  0  0  0  0  0  0  0
  1  2  2  0
  2  3  1  0
  3  4  2  0
  4  5  1  0
  5  6  2  0
  6  7  1  0
  7  8  2  0
  8  9  1  0
  9 10  2  0
 10 11  1  0
 11 12  1  0
 12 13  2  0
 13 14  1  0
 14 15  2  0
 15 16  1  0
 15 17  1  0
 17 18  2  0
 11  2  1  0
 18 12  1  0
  8  3  1  0
  4 19  1  0
  6 20  1  0
  7 21  1  0
 10 22  1  0
 13 23  1  0
 14 24  1  0
 17 25  1  0
 18 26  1  0
M  END
>  <UniqueID>  (30) 
29

>  <SMILES>  (30) 
O=c1c2cnccc2ncn1-c1ccc(F)cc1

>  <Energy>  (30) 
42.918148031303595

>  <Genealogy>  (30) 
O=c1c2cnccc2ncn1-c1ccc(F)cc1 (3D coordinates assigned)
O=c1c2cnccc2ncn1-c1ccc(F)cc1 (optimized conformer: 42.918148031303595 kcal/mol)

>  <smiles>  (30) 
O=c1c2cnccc2ncn1-c1ccc(F)cc1

>  <score_type>  (30) 
oracle

>  <origin>  (30) 
adgpu

>  <m_score__min__energy>  (30) 
-7

>  <m_primary>  (30) 
energy

$$$$
30:0
     RDKit          3D

 44 46  0  0  0  0  0  0  0  0999 V2000
   -6.4930   25.6770  -29.5710 Cl  0  0  0  0  0  0  0  0  0  0  0  0
   -5.3750   24.3680  -29.9240 C   0  0  0  0  0  0  0  0  0  0  0  0
   -4.0000   24.6020  -29.8120 C   0  0  0  0  0  0  0  0  0  0  0  0
   -3.0860   23.5800  -30.0840 C   0  0  0  0  0  0  0  0  0  0  0  0
   -3.5390   22.3110  -30.4770 C   0  0  0  0  0  0  0  0  0  0  0  0
   -2.5940   21.2550  -30.7390 N   0  0  0  0  0  0  0  0  0  0  0  0
   -2.9130   20.2110  -31.7260 C   0  0  0  0  0  0  0  0  0  0  0  0
   -3.0440   20.8030  -33.1350 C   0  0  0  0  0  0  0  0  0  0  0  0
   -4.4480   21.0490  -33.4760 N   0  0  0  0  0  0  0  0  0  0  0  0
   -5.5190   20.1140  -33.2400 C   0  0  0  0  0  0  0  0  0  0  0  0
   -5.3220   18.7210  -33.3130 C   0  0  0  0  0  0  0  0  0  0  0  0
   -6.3800   17.8440  -33.0540 C   0  0  0  0  0  0  0  0  0  0  0  0
   -7.6420   18.3440  -32.7280 C   0  0  0  0  0  0  0  0  0  0  0  0
   -7.8510   19.7240  -32.6680 C   0  0  0  0  0  0  0  0  0  0  0  0
   -6.7970   20.6040  -32.9240 C   0  0  0  0  0  0  0  0  0  0  0  0
   -1.3390   21.1880  -29.9770 C   0  0  0  0  0  0  0  0  0  0  0  0
   -1.4880   20.2710  -28.7930 C   0  0  0  0  0  0  0  0  0  0  0  0
   -2.6010   20.3720  -27.9460 C   0  0  0  0  0  0  0  0  0  0  0  0
   -2.7230   19.4940  -26.8660 C   0  0  0  0  0  0  0  0  0  0  0  0
   -1.7720   18.5480  -26.6450 N   0  0  0  0  0  0  0  0  0  0  0  0
   -0.6860   18.4250  -27.4540 C   0  0  0  0  0  0  0  0  0  0  0  0
   -0.5240   19.2840  -28.5440 C   0  0  0  0  0  0  0  0  0  0  0  0
   -4.9180   22.0780  -30.5910 C   0  0  0  0  0  0  0  0  0  0  0  0
   -5.8360   23.1000  -30.3170 C   0  0  0  0  0  0  0  0  0  0  0  0
   -7.5550   22.7660  -30.4810 Cl  0  0  0  0  0  0  0  0  0  0  0  0
   -3.6366   25.5949  -29.5085 H   0  0  0  0  0  0  0  0  0  0  0  0
   -2.0069   23.7711  -29.9896 H   0  0  0  0  0  0  0  0  0  0  0  0
   -2.1100   19.4592  -31.7257 H   0  0  0  0  0  0  0  0  0  0  0  0
   -3.8736   19.7517  -31.4499 H   0  0  0  0  0  0  0  0  0  0  0  0
   -2.4921   21.7536  -33.1779 H   0  0  0  0  0  0  0  0  0  0  0  0
   -2.6305   20.0827  -33.8562 H   0  0  0  0  0  0  0  0  0  0  0  0
   -4.6870   21.9930  -33.8590 H   0  0  0  0  0  0  0  0  0  0  0  0
   -4.3313   18.3213  -33.5750 H   0  0  0  0  0  0  0  0  0  0  0  0
   -6.2174   16.7574  -33.1073 H   0  0  0  0  0  0  0  0  0  0  0  0
   -8.4710   17.6520  -32.5186 H   0  0  0  0  0  0  0  0  0  0  0  0
   -8.8472   20.1182  -32.4187 H   0  0  0  0  0  0  0  0  0  0  0  0
   -6.9691   21.6895  -32.8778 H   0  0  0  0  0  0  0  0  0  0  0  0
   -0.5392   20.8087  -30.6300 H   0  0  0  0  0  0  0  0  0  0  0  0
   -1.0884   22.1964  -29.6159 H   0  0  0  0  0  0  0  0  0  0  0  0
   -3.3711   21.1356  -28.1302 H   0  0  0  0  0  0  0  0  0  0  0  0
   -3.5901   19.5683  -26.1933 H   0  0  0  0  0  0  0  0  0  0  0  0
    0.0658   17.6484  -27.2501 H   0  0  0  0  0  0  0  0  0  0  0  0
    0.3526   19.1867  -29.2013 H   0  0  0  0  0  0  0  0  0  0  0  0
   -5.2807   21.0858  -30.8977 H   0  0  0  0  0  0  0  0  0  0  0  0
  1  2  1  0
  2  3  2  0
  3  4  1  0
  4  5  2  0
  5  6  1  0
  6  7  1  0
  7  8  1  0
  8  9  1  0
  9 10  1  0
 10 11  2  0
 11 12  1  0
 12 13  2  0
 13 14  1  0
 14 15  2  0
  6 16  1  0
 16 17  1  0
 17 18  2  0
 18 19  1  0
 19 20  2  0
 20 21  1  0
 21 22  2  0
  5 23  1  0
 23 24  2  0
 24 25  1  0
 24  2  1  0
 15 10  1  0
 22 17  1  0
  3 26  1  0
  4 27  1  0
  7 28  1  0
  7 29  1  0
  8 30  1  0
  8 31  1  0
  9 32  1  0
 11 33  1  0
 12 34  1  0
 13 35  1  0
 14 36  1  0
 15 37  1  0
 16 38  1  0
 16 39  1  0
 18 40  1  0
 19 41  1  0
 21 42  1  0
 22 43  1  0
 23 44  1  0
M  END
>  <UniqueID>  (31) 
30

>  <SMILES>  (31) 
Clc1ccc(N(CCNc2ccccc2)Cc2ccncc2)cc1Cl

>  <Energy>  (31) 
46.35455183846743

>  <Genealogy>  (31) 
Clc1ccc(N(CCNc2ccccc2)Cc2ccncc2)cc1Cl (3D coordinates assigned)
Clc1ccc(N(CCNc2ccccc2)Cc2ccncc2)cc1Cl (optimized conformer: 46.35455183846743 kcal/mol)

>  <smiles>  (31) 
Clc1ccc(N(CCNc2ccccc2)Cc2ccncc2)cc1Cl

>  <score_type>  (31) 
oracle

>  <origin>  (31) 
adgpu

>  <m_score__min__energy>  (31) 
-8.0199999999999996

>  <m_primary>  (31) 
energy

$$$$
31:0
     RDKit          3D

 22 23  0  0  0  0  0  0  0  0999 V2000
   -3.8630   25.6830  -30.4660 O   0  0  0  0  0  0  0  0  0  0  0  0
   -4.7190   24.6390  -30.7970 C   0  0  0  0  0  0  0  0  0  0  0  0
   -6.1000   24.8470  -30.8170 C   0  0  0  0  0  0  0  0  0  0  0  0
   -6.9630   23.7990  -31.1490 C   0  0  0  0  0  0  0  0  0  0  0  0
   -6.4520   22.5260  -31.4650 C   0  0  0  0  0  0  0  0  0  0  0  0
   -7.3670   21.4100  -31.8190 C   0  0  0  0  0  0  0  0  0  0  0  0
   -8.7520   21.6310  -31.9400 C   0  0  0  0  0  0  0  0  0  0  0  0
   -9.6110   20.5790  -32.2740 C   0  0  0  0  0  0  0  0  0  0  0  0
   -9.0990   19.2980  -32.4890 C   0  0  0  0  0  0  0  0  0  0  0  0
   -7.7270   19.0650  -32.3710 C   0  0  0  0  0  0  0  0  0  0  0  0
   -6.8630   20.1130  -32.0390 C   0  0  0  0  0  0  0  0  0  0  0  0
   -5.0590   22.3280  -31.4420 C   0  0  0  0  0  0  0  0  0  0  0  0
   -4.1990   23.3800  -31.1090 C   0  0  0  0  0  0  0  0  0  0  0  0
   -6.5093   25.8379  -30.5709 H   0  0  0  0  0  0  0  0  0  0  0  0
   -8.0495   23.9702  -31.1635 H   0  0  0  0  0  0  0  0  0  0  0  0
   -9.1614   22.6378  -31.7707 H   0  0  0  0  0  0  0  0  0  0  0  0
  -10.6918   20.7612  -32.3674 H   0  0  0  0  0  0  0  0  0  0  0  0
   -9.7764   18.4720  -32.7514 H   0  0  0  0  0  0  0  0  0  0  0  0
   -7.3253   18.0549  -32.5396 H   0  0  0  0  0  0  0  0  0  0  0  0
   -5.7832   19.9236  -31.9490 H   0  0  0  0  0  0  0  0  0  0  0  0
   -4.6435   21.3395  -31.6875 H   0  0  0  0  0  0  0  0  0  0  0  0
   -3.1114   23.2158  -31.0927 H   0  0  0  0  0  0  0  0  0  0  0  0
  1  2  1  0
  2  3  2  0
  3  4  1  0
  4  5  2  0
  5  6  1  0
  6  7  2  0
  7  8  1  0
  8  9  2  0
  9 10  1  0
 10 11  2  0
  5 12  1  0
 12 13  2  0
 13  2  1  0
 11  6  1  0
  3 14  1  0
  4 15  1  0
  7 16  1  0
  8 17  1  0
  9 18  1  0
 10 19  1  0
 11 20  1  0
 12 21  1  0
 13 22  1  0
M  CHG  1   1  -1
M  END
>  <UniqueID>  (32) 
31

>  <SMILES>  (32) 
[O-]c1ccc(-c2ccccc2)cc1

>  <Energy>  (32) 
28.23286404453445

>  <Genealogy>  (32) 
[O-]c1ccc(-c2ccccc2)cc1 (protonated)
[O-]c1ccc(-c2ccccc2)cc1 (3D coordinates assigned)
[O-]c1ccc(-c2ccccc2)cc1 (optimized conformer: 28.23286404453445 kcal/mol)

>  <smiles>  (32) 
Oc1ccc(-c2ccccc2)cc1

>  <score_type>  (32) 
oracle

>  <origin>  (32) 
adgpu

>  <m_score__min__energy>  (32) 
-9.7899999999999991

>  <m_primary>  (32) 
energy

$$$$
32:0
     RDKit          3D

 30 31  0  0  0  0  0  0  0  0999 V2000
  -10.3144   21.8264  -31.0003 H   0  0  0  0  0  0  0  0  0  0  0  0
   -9.3160   21.6430  -31.4240 C   0  0  0  0  0  0  0  0  0  0  0  0
   -8.9400   20.3470  -31.7870 C   0  0  0  0  0  0  0  0  0  0  0  0
   -9.6460   19.5141  -31.6534 H   0  0  0  0  0  0  0  0  0  0  0  0
   -7.6660   20.1040  -32.3210 C   0  0  0  0  0  0  0  0  0  0  0  0
   -7.2820   18.7220  -32.7580 C   0  0  0  0  0  0  0  0  0  0  0  0
   -7.1072   18.0928  -31.8728 H   0  0  0  0  0  0  0  0  0  0  0  0
   -8.0939   18.2892  -33.3609 H   0  0  0  0  0  0  0  0  0  0  0  0
   -6.3632   18.7701  -33.3609 H   0  0  0  0  0  0  0  0  0  0  0  0
   -6.7820   21.1770  -32.5130 C   0  0  0  0  0  0  0  0  0  0  0  0
   -5.7950   20.9975  -32.9641 H   0  0  0  0  0  0  0  0  0  0  0  0
   -7.1490   22.4790  -32.1330 C   0  0  0  0  0  0  0  0  0  0  0  0
   -6.2130   23.6280  -32.3690 C   0  0  0  0  0  0  0  0  0  0  0  0
   -5.9611   23.6836  -33.4383 H   0  0  0  0  0  0  0  0  0  0  0  0
   -6.6954   24.5671  -32.0600 H   0  0  0  0  0  0  0  0  0  0  0  0
   -4.9960   23.4230  -31.5910 N   0  0  0  0  0  0  0  0  0  0  0  0
   -3.9830   22.6710  -31.9290 C   0  0  0  0  0  0  0  0  0  0  0  0
   -2.8750   22.5770  -31.0630 C   0  0  0  0  0  0  0  0  0  0  0  0
   -2.8360   23.2950  -29.8100 C   0  0  0  0  0  0  0  0  0  0  0  0
   -2.8050   23.8710  -28.8070 N   0  0  0  0  0  0  0  0  0  0  0  0
   -1.7890   21.7730  -31.4220 C   0  0  0  0  0  0  0  0  0  0  0  0
   -0.9186   21.6933  -30.7541 H   0  0  0  0  0  0  0  0  0  0  0  0
   -1.8100   21.0730  -32.6260 C   0  0  0  0  0  0  0  0  0  0  0  0
   -0.9593   20.4379  -32.9140 H   0  0  0  0  0  0  0  0  0  0  0  0
   -2.9200   21.1850  -33.4630 C   0  0  0  0  0  0  0  0  0  0  0  0
   -2.9439   20.6360  -34.4159 H   0  0  0  0  0  0  0  0  0  0  0  0
   -3.9730   21.9690  -33.1080 N   0  0  0  0  0  0  0  0  0  0  0  0
   -4.7770   22.0150  -33.7720 H   0  0  0  0  0  0  0  0  0  0  0  0
   -8.4270   22.7060  -31.5980 C   0  0  0  0  0  0  0  0  0  0  0  0
   -8.7293   23.7250  -31.3148 H   0  0  0  0  0  0  0  0  0  0  0  0
  1  2  1  0
  2  3  2  0
  3  4  1  0
  3  5  1  0
  5  6  1  0
  6  7  1  0
  6  8  1  0
  6  9  1  0
  5 10  2  0
 10 11  1  0
 10 12  1  0
 12 13  1  0
 13 14  1  0
 13 15  1  0
 13 16  1  0
 16 17  2  0
 17 18  1  0
 18 19  1  0
 19 20  3  0
 18 21  2  0
 21 22  1  0
 21 23  1  0
 23 24  1  0
 23 25  2  0
 25 26  1  0
 25 27  1  0
 27 28  1  0
 12 29  2  0
 29 30  1  0
 29  2  1  0
 27 17  1  0
M  END
>  <UniqueID>  (33) 
32

>  <SMILES>  (33) 
Cc1cccc(C/N=c2\[nH]cccc2C#N)c1

>  <Energy>  (33) 
30.36463762345961

>  <Genealogy>  (33) 
Cc1cccc(C/N=c2\[nH]cccc2C#N)c1 (cis-trans isomerization)
Cc1cccc(C/N=c2\[nH]cccc2C#N)c1 (3D coordinates assigned)
Cc1cccc(C/N=c2\[nH]cccc2C#N)c1 (optimized conformer: 30.36463762345961 kcal/mol)

>  <smiles>  (33) 
Cc1cccc(CN=c2[nH]cccc2C#N)c1

>  <score_type>  (33) 
oracle

>  <origin>  (33) 
adgpu

>  <m_score__min__energy>  (33) 
-6.8200000000000003

>  <m_primary>  (33) 
energy

$$$$
33:0
     RDKit          3D

 38 40  0  0  0  0  0  0  0  0999 V2000
   -3.2394   22.0760  -33.4312 H   0  0  0  0  0  0  0  0  0  0  0  0
   -2.6530   21.2610  -32.9820 C   0  0  0  0  0  0  0  0  0  0  0  0
   -1.5980   21.5570  -32.1140 C   0  0  0  0  0  0  0  0  0  0  0  0
   -1.3495   22.6052  -31.8916 H   0  0  0  0  0  0  0  0  0  0  0  0
   -0.8570   20.5260  -31.5270 C   0  0  0  0  0  0  0  0  0  0  0  0
    0.2510   20.8600  -30.6750 N   0  0  0  0  0  0  0  0  0  0  0  0
    0.3190   20.6360  -29.4180 N   0  0  0  0  0  0  0  0  0  0  0  0
   -0.7580   20.1650  -28.5930 C   0  0  0  0  0  0  0  0  0  0  0  0
   -1.9950   20.7590  -28.4130 C   0  0  0  0  0  0  0  0  0  0  0  0
   -2.4710   22.0470  -28.9690 C   0  0  0  0  0  0  0  0  0  0  0  0
   -3.6110   22.0770  -29.7870 C   0  0  0  0  0  0  0  0  0  0  0  0
   -4.1456   21.1428  -30.0137 H   0  0  0  0  0  0  0  0  0  0  0  0
   -4.0710   23.2850  -30.3150 C   0  0  0  0  0  0  0  0  0  0  0  0
   -4.9677   23.2986  -30.9520 H   0  0  0  0  0  0  0  0  0  0  0  0
   -3.3960   24.4770  -30.0370 C   0  0  0  0  0  0  0  0  0  0  0  0
   -3.8680   25.6720  -30.5670 O   0  0  0  0  0  0  0  0  0  0  0  0
   -2.2510   24.4690  -29.2310 C   0  0  0  0  0  0  0  0  0  0  0  0
   -1.6000   25.6870  -28.9820 O   0  0  0  0  0  0  0  0  0  0  0  0
   -0.8150   25.9610  -27.8250 C   0  0  0  0  0  0  0  0  0  0  0  0
   -1.4081   25.7540  -26.9220 H   0  0  0  0  0  0  0  0  0  0  0  0
    0.0806   25.3223  -27.8298 H   0  0  0  0  0  0  0  0  0  0  0  0
   -0.5114   27.0183  -27.8298 H   0  0  0  0  0  0  0  0  0  0  0  0
   -1.7890   23.2470  -28.7010 C   0  0  0  0  0  0  0  0  0  0  0  0
   -0.8867   23.2322  -28.0720 H   0  0  0  0  0  0  0  0  0  0  0  0
   -2.7210   19.9670  -27.5910 N   0  0  0  0  0  0  0  0  0  0  0  0
   -3.6980   20.1430  -27.2670 H   0  0  0  0  0  0  0  0  0  0  0  0
   -2.0250   18.8860  -27.2700 N   0  0  0  0  0  0  0  0  0  0  0  0
   -0.8310   18.9860  -27.8790 C   0  0  0  0  0  0  0  0  0  0  0  0
    0.0610   18.1010  -27.8160 O   0  0  0  0  0  0  0  0  0  0  0  0
   -1.1460   19.1900  -31.8600 C   0  0  0  0  0  0  0  0  0  0  0  0
   -0.5278   18.3781  -31.4492 H   0  0  0  0  0  0  0  0  0  0  0  0
   -2.2180   18.8870  -32.7130 C   0  0  0  0  0  0  0  0  0  0  0  0
   -2.5120   17.4620  -33.0780 C   0  0  0  0  0  0  0  0  0  0  0  0
   -2.6348   16.8666  -32.1613 H   0  0  0  0  0  0  0  0  0  0  0  0
   -3.4380   17.4187  -33.6702 H   0  0  0  0  0  0  0  0  0  0  0  0
   -1.6787   17.0558  -33.6702 H   0  0  0  0  0  0  0  0  0  0  0  0
   -2.9640   19.9320  -33.2800 C   0  0  0  0  0  0  0  0  0  0  0  0
   -3.7967   19.7037  -33.9616 H   0  0  0  0  0  0  0  0  0  0  0  0
  1  2  1  0
  2  3  2  0
  3  4  1  0
  3  5  1  0
  5  6  1  0
  6  7  2  0
  7  8  1  0
  8  9  2  0
  9 10  1  0
 10 11  2  0
 11 12  1  0
 11 13  1  0
 13 14  1  0
 13 15  2  0
 15 16  1  0
 15 17  1  0
 17 18  1  0
 18 19  1  0
 19 20  1  0
 19 21  1  0
 19 22  1  0
 17 23  2  0
 23 24  1  0
  9 25  1  0
 25 26  1  0
 25 27  1  0
 27 28  1  0
 28 29  2  0
  5 30  2  0
 30 31  1  0
 30 32  1  0
 32 33  1  0
 33 34  1  0
 33 35  1  0
 33 36  1  0
 32 37  2  0
 37 38  1  0
 37  2  1  0
 28  8  1  0
 23 10  1  0
M  CHG  2  16  -1  27  -1
M  END
>  <UniqueID>  (34) 
33

>  <SMILES>  (34) 
COc1cc(-c2[nH][n-]c(=O)c2/N=N\c2cccc(C)c2)ccc1[O-]

>  <Energy>  (34) 
89.09400086300533

>  <Genealogy>  (34) 
COc1cc(-c2[nH][n-]c(=O)c2N=Nc2cccc(C)c2)ccc1[O-] (protonated)
COc1cc(-c2[nH][n-]c(=O)c2/N=N\c2cccc(C)c2)ccc1[O-] (cis-trans isomerization)
COc1cc(-c2[nH][n-]c(=O)c2/N=N\c2cccc(C)c2)ccc1[O-] (3D coordinates assigned)
COc1cc(-c2[nH][n-]c(=O)c2/N=N\c2cccc(C)c2)ccc1[O-] (optimized conformer: 89.09400086300533 kcal/mol)

>  <smiles>  (34) 
COc1cc(-c2[nH][nH]c(=O)c2N=Nc2cccc(C)c2)ccc1O

>  <score_type>  (34) 
oracle

>  <origin>  (34) 
adgpu

>  <m_score__min__energy>  (34) 
-10.31

>  <m_primary>  (34) 
energy

$$$$
34:0
     RDKit          3D

 39 40  0  0  0  0  0  0  0  0999 V2000
   -0.3490   25.9780  -27.4560 C   0  0  0  0  0  0  0  0  0  0  0  0
    0.1040   24.8450  -28.2770 N   0  0  0  0  0  0  0  0  0  0  0  0
    0.7970   23.8650  -27.4220 C   0  0  0  0  0  0  0  0  0  0  0  0
   -1.0470   24.2250  -28.9710 C   0  0  0  0  0  0  0  0  0  0  0  0
   -2.3640   24.8990  -28.5680 C   0  0  0  0  0  0  0  0  0  0  0  0
   -3.1510   25.2220  -29.7160 O   0  0  0  0  0  0  0  0  0  0  0  0
   -4.1780   24.4290  -30.2530 C   0  0  0  0  0  0  0  0  0  0  0  0
   -4.0390   23.0440  -30.4680 C   0  0  0  0  0  0  0  0  0  0  0  0
   -5.0990   22.3040  -30.9980 C   0  0  0  0  0  0  0  0  0  0  0  0
   -6.3170   22.9270  -31.3190 C   0  0  0  0  0  0  0  0  0  0  0  0
   -7.4440   22.1540  -31.8960 C   0  0  0  0  0  0  0  0  0  0  0  0
   -8.5740   22.7050  -31.9910 O   0  0  0  0  0  0  0  0  0  0  0  0
   -7.2880   20.7560  -32.3640 C   0  0  0  0  0  0  0  0  0  0  0  0
   -6.2890   20.4090  -33.2930 C   0  0  0  0  0  0  0  0  0  0  0  0
   -6.1420   19.0840  -33.7120 C   0  0  0  0  0  0  0  0  0  0  0  0
   -6.9830   18.0890  -33.2040 C   0  0  0  0  0  0  0  0  0  0  0  0
   -6.7960   16.4260  -33.7320 Cl  0  0  0  0  0  0  0  0  0  0  0  0
   -7.9680   18.4200  -32.2690 C   0  0  0  0  0  0  0  0  0  0  0  0
   -8.1180   19.7450  -31.8470 C   0  0  0  0  0  0  0  0  0  0  0  0
   -6.4410   24.3140  -31.1280 C   0  0  0  0  0  0  0  0  0  0  0  0
   -5.3810   25.0530  -30.5970 C   0  0  0  0  0  0  0  0  0  0  0  0
   -0.2470   25.7229  -26.3909 H   0  0  0  0  0  0  0  0  0  0  0  0
    0.2646   26.8627  -27.6815 H   0  0  0  0  0  0  0  0  0  0  0  0
   -1.4034   26.1958  -27.6815 H   0  0  0  0  0  0  0  0  0  0  0  0
    0.6220   24.1124  -26.3646 H   0  0  0  0  0  0  0  0  0  0  0  0
    0.4098   22.8570  -27.6316 H   0  0  0  0  0  0  0  0  0  0  0  0
    1.8765   23.8941  -27.6316 H   0  0  0  0  0  0  0  0  0  0  0  0
   -0.9089   24.3275  -30.0575 H   0  0  0  0  0  0  0  0  0  0  0  0
   -1.0964   23.1638  -28.6855 H   0  0  0  0  0  0  0  0  0  0  0  0
   -2.9345   24.2148  -27.9227 H   0  0  0  0  0  0  0  0  0  0  0  0
   -2.1291   25.8310  -28.0330 H   0  0  0  0  0  0  0  0  0  0  0  0
   -3.0923   22.5430  -30.2177 H   0  0  0  0  0  0  0  0  0  0  0  0
   -4.9790   21.2235  -31.1656 H   0  0  0  0  0  0  0  0  0  0  0  0
   -5.6198   21.1857  -33.6917 H   0  0  0  0  0  0  0  0  0  0  0  0
   -5.3628   18.8231  -34.4433 H   0  0  0  0  0  0  0  0  0  0  0  0
   -8.6263   17.6371  -31.8644 H   0  0  0  0  0  0  0  0  0  0  0  0
   -8.8903   19.9981  -31.1058 H   0  0  0  0  0  0  0  0  0  0  0  0
   -7.3790   24.8210  -31.3984 H   0  0  0  0  0  0  0  0  0  0  0  0
   -5.4940   26.1370  -30.4480 H   0  0  0  0  0  0  0  0  0  0  0  0
  1  2  1  0
  2  3  1  0
  2  4  1  0
  4  5  1  0
  5  6  1  0
  6  7  1  0
  7  8  2  0
  8  9  1  0
  9 10  2  0
 10 11  1  0
 11 12  2  0
 11 13  1  0
 13 14  2  0
 14 15  1  0
 15 16  2  0
 16 17  1  0
 16 18  1  0
 18 19  2  0
 10 20  1  0
 20 21  2  0
 21  7  1  0
 19 13  1  0
  1 22  1  0
  1 23  1  0
  1 24  1  0
  3 25  1  0
  3 26  1  0
  3 27  1  0
  4 28  1  0
  4 29  1  0
  5 30  1  0
  5 31  1  0
  8 32  1  0
  9 33  1  0
 14 34  1  0
 15 35  1  0
 18 36  1  0
 19 37  1  0
 20 38  1  0
 21 39  1  0
M  END
>  <UniqueID>  (35) 
34

>  <SMILES>  (35) 
CN(C)CCOc1ccc(C(=O)c2ccc(Cl)cc2)cc1

>  <Energy>  (35) 
44.59019555273761

>  <Genealogy>  (35) 
CN(C)CCOc1ccc(C(=O)c2ccc(Cl)cc2)cc1 (3D coordinates assigned)
CN(C)CCOc1ccc(C(=O)c2ccc(Cl)cc2)cc1 (optimized conformer: 44.59019555273761 kcal/mol)

>  <smiles>  (35) 
CN(C)CCOc1ccc(C(=O)c2ccc(Cl)cc2)cc1

>  <score_type>  (35) 
oracle

>  <origin>  (35) 
adgpu

>  <m_score__min__energy>  (35) 
-8.6500000000000004

>  <m_primary>  (35) 
energy

$$$$
35:0
     RDKit          3D

 37 40  0  0  0  0  0  0  0  0999 V2000
   -2.4130   19.1930  -26.5970 Cl  0  0  0  0  0  0  0  0  0  0  0  0
   -2.0460   20.2100  -27.9780 C   0  0  0  0  0  0  0  0  0  0  0  0
   -0.8340   20.0560  -28.6580 C   0  0  0  0  0  0  0  0  0  0  0  0
   -0.5450   20.8610  -29.7630 C   0  0  0  0  0  0  0  0  0  0  0  0
   -1.4670   21.8200  -30.1930 C   0  0  0  0  0  0  0  0  0  0  0  0
   -2.6860   21.9850  -29.5140 C   0  0  0  0  0  0  0  0  0  0  0  0
   -3.6750   22.9800  -29.9680 C   0  0  0  0  0  0  0  0  0  0  0  0
   -3.3680   24.1600  -30.5450 N   0  0  0  0  0  0  0  0  0  0  0  0
   -4.5200   24.7420  -30.8420 N   0  0  0  0  0  0  0  0  0  0  0  0
   -5.4810   23.8940  -30.4310 C   0  0  0  0  0  0  0  0  0  0  0  0
   -7.2360   24.1760  -30.6430 S   0  0  0  0  0  0  0  0  0  0  0  0
   -7.3100   23.4140  -32.3080 C   0  0  0  0  0  0  0  0  0  0  0  0
   -7.4600   21.9080  -32.2240 C   0  0  0  0  0  0  0  0  0  0  0  0
   -8.7380   21.3830  -31.9570 C   0  0  0  0  0  0  0  0  0  0  0  0
   -8.9590   20.0070  -31.9440 C   0  0  0  0  0  0  0  0  0  0  0  0
   -7.9110   19.1240  -32.1900 C   0  0  0  0  0  0  0  0  0  0  0  0
   -6.6240   19.6120  -32.4490 C   0  0  0  0  0  0  0  0  0  0  0  0
   -5.5730   18.7140  -32.6970 C   0  0  0  0  0  0  0  0  0  0  0  0
   -4.2880   19.1900  -32.9600 C   0  0  0  0  0  0  0  0  0  0  0  0
   -4.0400   20.5610  -32.9790 C   0  0  0  0  0  0  0  0  0  0  0  0
   -5.0730   21.4690  -32.7350 C   0  0  0  0  0  0  0  0  0  0  0  0
   -6.3820   21.0140  -32.4680 C   0  0  0  0  0  0  0  0  0  0  0  0
   -4.9730   22.8170  -29.8890 O   0  0  0  0  0  0  0  0  0  0  0  0
   -2.9700   21.1710  -28.4040 C   0  0  0  0  0  0  0  0  0  0  0  0
   -0.1077   19.3008  -28.3230 H   0  0  0  0  0  0  0  0  0  0  0  0
    0.4098   20.7399  -30.2956 H   0  0  0  0  0  0  0  0  0  0  0  0
   -1.2372   22.4479  -31.0664 H   0  0  0  0  0  0  0  0  0  0  0  0
   -8.1707   23.8290  -32.8530 H   0  0  0  0  0  0  0  0  0  0  0  0
   -6.3692   23.6382  -32.8321 H   0  0  0  0  0  0  0  0  0  0  0  0
   -9.5745   22.0684  -31.7557 H   0  0  0  0  0  0  0  0  0  0  0  0
   -9.9666   19.6166  -31.7383 H   0  0  0  0  0  0  0  0  0  0  0  0
   -8.0944   18.0394  -32.1809 H   0  0  0  0  0  0  0  0  0  0  0  0
   -5.7637   17.6307  -32.6838 H   0  0  0  0  0  0  0  0  0  0  0  0
   -3.4690   18.4814  -33.1527 H   0  0  0  0  0  0  0  0  0  0  0  0
   -3.0250   20.9304  -33.1873 H   0  0  0  0  0  0  0  0  0  0  0  0
   -4.8643   22.5489  -32.7511 H   0  0  0  0  0  0  0  0  0  0  0  0
   -3.9230   21.2898  -27.8676 H   0  0  0  0  0  0  0  0  0  0  0  0
  1  2  1  0
  2  3  2  0
  3  4  1  0
  4  5  2  0
  5  6  1  0
  6  7  1  0
  7  8  2  0
  8  9  1  0
  9 10  2  0
 10 11  1  0
 11 12  1  0
 12 13  1  0
 13 14  2  0
 14 15  1  0
 15 16  2  0
 16 17  1  0
 17 18  2  0
 18 19  1  0
 19 20  2  0
 20 21  1  0
 21 22  2  0
 10 23  1  0
  6 24  2  0
 24  2  1  0
 23  7  1  0
 22 13  1  0
 22 17  1  0
  3 25  1  0
  4 26  1  0
  5 27  1  0
 12 28  1  0
 12 29  1  0
 14 30  1  0
 15 31  1  0
 16 32  1  0
 18 33  1  0
 19 34  1  0
 20 35  1  0
 21 36  1  0
 24 37  1  0
M  END
>  <UniqueID>  (36) 
35

>  <SMILES>  (36) 
Clc1cccc(-c2nnc(SCc3cccc4ccccc34)o2)c1

>  <Energy>  (36) 
76.537021924707

>  <Genealogy>  (36) 
Clc1cccc(-c2nnc(SCc3cccc4ccccc34)o2)c1 (3D coordinates assigned)
Clc1cccc(-c2nnc(SCc3cccc4ccccc34)o2)c1 (optimized conformer: 76.537021924707 kcal/mol)

>  <smiles>  (36) 
Clc1cccc(-c2nnc(SCc3cccc4ccccc34)o2)c1

>  <score_type>  (36) 
oracle

>  <origin>  (36) 
adgpu

>  <m_score__min__energy>  (36) 
-9.6899999999999995

>  <m_primary>  (36) 
energy

$$$$
36:0
     RDKit          3D

 29 31  0  0  0  0  0  0  0  0999 V2000
   -6.1110   26.3310  -29.7410 O   0  0  0  0  0  0  0  0  0  0  0  0
   -5.6480   25.2790  -30.2530 C   0  0  0  0  0  0  0  0  0  0  0  0
   -6.4230   24.5410  -31.1510 C   0  0  0  0  0  0  0  0  0  0  0  0
   -5.8990   23.3690  -31.7120 C   0  0  0  0  0  0  0  0  0  0  0  0
   -6.6680   22.6290  -32.6780 N   0  0  0  0  0  0  0  0  0  0  0  0
   -7.2440   21.3370  -32.4220 C   0  0  0  0  0  0  0  0  0  0  0  0
   -8.3480   21.1840  -31.5630 C   0  0  0  0  0  0  0  0  0  0  0  0
   -8.8790   19.9140  -31.3130 C   0  0  0  0  0  0  0  0  0  0  0  0
   -8.3060   18.7860  -31.9070 C   0  0  0  0  0  0  0  0  0  0  0  0
   -7.1980   18.9260  -32.7470 C   0  0  0  0  0  0  0  0  0  0  0  0
   -6.4730   17.5090  -33.4850 Cl  0  0  0  0  0  0  0  0  0  0  0  0
   -6.6650   20.1950  -32.9990 C   0  0  0  0  0  0  0  0  0  0  0  0
   -4.5910   22.9760  -31.3620 C   0  0  0  0  0  0  0  0  0  0  0  0
   -3.9900   21.8060  -31.8660 C   0  0  0  0  0  0  0  0  0  0  0  0
   -2.6930   21.4600  -31.4790 C   0  0  0  0  0  0  0  0  0  0  0  0
   -1.9840   22.2670  -30.5860 C   0  0  0  0  0  0  0  0  0  0  0  0
   -2.5720   23.4230  -30.0690 C   0  0  0  0  0  0  0  0  0  0  0  0
   -3.8710   23.7820  -30.4470 C   0  0  0  0  0  0  0  0  0  0  0  0
   -4.4210   24.8810  -29.9390 O   0  0  0  0  0  0  0  0  0  0  0  0
   -7.4364   24.8773  -31.4155 H   0  0  0  0  0  0  0  0  0  0  0  0
   -6.8670   23.0850  -33.5960 H   0  0  0  0  0  0  0  0  0  0  0  0
   -8.7960   22.0678  -31.0854 H   0  0  0  0  0  0  0  0  0  0  0  0
   -9.7484   19.8031  -30.6483 H   0  0  0  0  0  0  0  0  0  0  0  0
   -8.7271   17.7884  -31.7133 H   0  0  0  0  0  0  0  0  0  0  0  0
   -5.7868   20.2988  -33.6533 H   0  0  0  0  0  0  0  0  0  0  0  0
   -4.5434   21.1630  -32.5662 H   0  0  0  0  0  0  0  0  0  0  0  0
   -2.2276   20.5473  -31.8796 H   0  0  0  0  0  0  0  0  0  0  0  0
   -0.9611   21.9914  -30.2898 H   0  0  0  0  0  0  0  0  0  0  0  0
   -2.0126   24.0537  -29.3623 H   0  0  0  0  0  0  0  0  0  0  0  0
  1  2  2  0
  2  3  1  0
  3  4  2  0
  4  5  1  0
  5  6  1  0
  6  7  2  0
  7  8  1  0
  8  9  2  0
  9 10  1  0
 10 11  1  0
 10 12  2  0
  4 13  1  0
 13 14  2  0
 14 15  1  0
 15 16  2  0
 16 17  1  0
 17 18  2  0
 18 19  1  0
 19  2  1  0
 12  6  1  0
 18 13  1  0
  3 20  1  0
  5 21  1  0
  7 22  1  0
  8 23  1  0
  9 24  1  0
 12 25  1  0
 14 26  1  0
 15 27  1  0
 16 28  1  0
 17 29  1  0
M  END
>  <UniqueID>  (37) 
36

>  <SMILES>  (37) 
O=c1cc(Nc2cccc(Cl)c2)c2ccccc2o1

>  <Energy>  (37) 
43.05633398255768

>  <Genealogy>  (37) 
O=c1cc(Nc2cccc(Cl)c2)c2ccccc2o1 (3D coordinates assigned)
O=c1cc(Nc2cccc(Cl)c2)c2ccccc2o1 (optimized conformer: 43.05633398255768 kcal/mol)

>  <smiles>  (37) 
O=c1cc(Nc2cccc(Cl)c2)c2ccccc2o1

>  <score_type>  (37) 
oracle

>  <origin>  (37) 
adgpu

>  <m_score__min__energy>  (37) 
-8.1500000000000004

>  <m_primary>  (37) 
energy

$$$$
37:0
     RDKit          3D

 31 33  0  0  0  0  0  0  0  0999 V2000
   -7.8490   22.9950  -31.2530 C   0  0  0  0  0  0  0  0  0  0  0  0
   -6.9020   22.0320  -30.8050 O   0  0  0  0  0  0  0  0  0  0  0  0
   -6.1720   21.1370  -31.6140 C   0  0  0  0  0  0  0  0  0  0  0  0
   -4.7700   21.2900  -31.6900 C   0  0  0  0  0  0  0  0  0  0  0  0
   -4.0650   22.3890  -30.9920 C   0  0  0  0  0  0  0  0  0  0  0  0
   -2.8890   22.1120  -30.2750 C   0  0  0  0  0  0  0  0  0  0  0  0
   -2.1960   23.1390  -29.6270 C   0  0  0  0  0  0  0  0  0  0  0  0
   -2.6590   24.4560  -29.7040 C   0  0  0  0  0  0  0  0  0  0  0  0
   -1.9660   25.4710  -29.0560 O   0  0  0  0  0  0  0  0  0  0  0  0
   -3.8170   24.7470  -30.4350 C   0  0  0  0  0  0  0  0  0  0  0  0
   -4.2750   26.0560  -30.5250 O   0  0  0  0  0  0  0  0  0  0  0  0
   -4.5130   23.7200  -31.0810 C   0  0  0  0  0  0  0  0  0  0  0  0
   -4.0360   20.4280  -32.3880 O   0  0  0  0  0  0  0  0  0  0  0  0
   -4.5560   19.4110  -33.0630 C   0  0  0  0  0  0  0  0  0  0  0  0
   -3.7110   18.5530  -33.7770 C   0  0  0  0  0  0  0  0  0  0  0  0
   -4.2450   17.4810  -34.4980 C   0  0  0  0  0  0  0  0  0  0  0  0
   -3.4010   16.6330  -35.2050 O   0  0  0  0  0  0  0  0  0  0  0  0
   -5.6250   17.2640  -34.5090 C   0  0  0  0  0  0  0  0  0  0  0  0
   -6.4780   18.1140  -33.7990 C   0  0  0  0  0  0  0  0  0  0  0  0
   -5.9500   19.1960  -33.0690 C   0  0  0  0  0  0  0  0  0  0  0  0
   -6.7650   20.0720  -32.3330 C   0  0  0  0  0  0  0  0  0  0  0  0
   -8.0130   19.8970  -32.3170 O   0  0  0  0  0  0  0  0  0  0  0  0
   -8.3219   23.4759  -30.3841 H   0  0  0  0  0  0  0  0  0  0  0  0
   -7.3382   23.7565  -31.8606 H   0  0  0  0  0  0  0  0  0  0  0  0
   -8.6189   22.4970  -31.8606 H   0  0  0  0  0  0  0  0  0  0  0  0
   -2.5109   21.0803  -30.2231 H   0  0  0  0  0  0  0  0  0  0  0  0
   -1.2845   22.9103  -29.0553 H   0  0  0  0  0  0  0  0  0  0  0  0
   -5.4168   23.9544  -31.6626 H   0  0  0  0  0  0  0  0  0  0  0  0
   -2.6242   18.7228  -33.7706 H   0  0  0  0  0  0  0  0  0  0  0  0
   -6.0422   16.4206  -35.0788 H   0  0  0  0  0  0  0  0  0  0  0  0
   -7.5636   17.9372  -33.8107 H   0  0  0  0  0  0  0  0  0  0  0  0
  1  2  1  0
  2  3  1  0
  3  4  2  0
  4  5  1  0
  5  6  2  0
  6  7  1  0
  7  8  2  0
  8  9  1  0
  8 10  1  0
 10 11  1  0
 10 12  2  0
  4 13  1  0
 13 14  1  0
 14 15  2  0
 15 16  1  0
 16 17  1  0
 16 18  2  0
 18 19  1  0
 19 20  2  0
 20 21  1  0
 21 22  2  0
 21  3  1  0
 12  5  1  0
 20 14  1  0
  1 23  1  0
  1 24  1  0
  1 25  1  0
  6 26  1  0
  7 27  1  0
 12 28  1  0
 15 29  1  0
 18 30  1  0
 19 31  1  0
M  CHG  3   9  -1  11  -1  17  -1
M  END
>  <UniqueID>  (38) 
37

>  <SMILES>  (38) 
COc1c(-c2ccc([O-])c([O-])c2)oc2cc([O-])ccc2c1=O

>  <Energy>  (38) 
47.26927153898001

>  <Genealogy>  (38) 
COc1c(-c2ccc([O-])c([O-])c2)oc2cc([O-])ccc2c1=O (protonated)
COc1c(-c2ccc([O-])c([O-])c2)oc2cc([O-])ccc2c1=O (3D coordinates assigned)
COc1c(-c2ccc([O-])c([O-])c2)oc2cc([O-])ccc2c1=O (optimized conformer: 47.26927153898001 kcal/mol)

>  <smiles>  (38) 
COc1c(-c2ccc(O)c(O)c2)oc2cc(O)ccc2c1=O

>  <score_type>  (38) 
oracle

>  <origin>  (38) 
adgpu

>  <m_score__min__energy>  (38) 
-11.73

>  <m_primary>  (38) 
energy

$$$$
38:0
     RDKit          3D

 26 28  0  0  0  0  0  0  0  0999 V2000
   -4.0380   21.2310  -33.4610 O   0  0  0  0  0  0  0  0  0  0  0  0
   -5.0790   20.6580  -33.0460 C   0  0  0  0  0  0  0  0  0  0  0  0
   -5.5450   19.3420  -33.4690 C   0  0  0  0  0  0  0  0  0  0  0  0
   -5.0280   18.4540  -34.4110 C   0  0  0  0  0  0  0  0  0  0  0  0
   -5.7020   17.2350  -34.6090 C   0  0  0  0  0  0  0  0  0  0  0  0
   -6.8660   16.9340  -33.8690 C   0  0  0  0  0  0  0  0  0  0  0  0
   -7.3670   17.8460  -32.9240 C   0  0  0  0  0  0  0  0  0  0  0  0
   -6.6800   19.0460  -32.7450 C   0  0  0  0  0  0  0  0  0  0  0  0
   -6.9470   20.1720  -31.8580 C   0  0  0  0  0  0  0  0  0  0  0  0
   -7.9340   20.2720  -31.0820 O   0  0  0  0  0  0  0  0  0  0  0  0
   -5.9510   21.1860  -32.0380 N   0  0  0  0  0  0  0  0  0  0  0  0
   -5.8470   22.4500  -31.3600 C   0  0  0  0  0  0  0  0  0  0  0  0
   -6.9520   23.3170  -31.3000 C   0  0  0  0  0  0  0  0  0  0  0  0
   -6.8500   24.5460  -30.6400 C   0  0  0  0  0  0  0  0  0  0  0  0
   -5.6470   24.9210  -30.0380 C   0  0  0  0  0  0  0  0  0  0  0  0
   -4.5410   24.0660  -30.0930 C   0  0  0  0  0  0  0  0  0  0  0  0
   -3.0290   24.5400  -29.3420 Cl  0  0  0  0  0  0  0  0  0  0  0  0
   -4.6400   22.8350  -30.7520 C   0  0  0  0  0  0  0  0  0  0  0  0
   -4.1205   18.6990  -34.9823 H   0  0  0  0  0  0  0  0  0  0  0  0
   -5.3197   16.5121  -35.3448 H   0  0  0  0  0  0  0  0  0  0  0  0
   -7.3850   15.9782  -34.0333 H   0  0  0  0  0  0  0  0  0  0  0  0
   -8.2735   17.6199  -32.3434 H   0  0  0  0  0  0  0  0  0  0  0  0
   -7.9013   23.0275  -31.7743 H   0  0  0  0  0  0  0  0  0  0  0  0
   -7.7192   25.2186  -30.5950 H   0  0  0  0  0  0  0  0  0  0  0  0
   -5.5690   25.8886  -29.5206 H   0  0  0  0  0  0  0  0  0  0  0  0
   -3.7683   22.1654  -30.7942 H   0  0  0  0  0  0  0  0  0  0  0  0
  1  2  2  0
  2  3  1  0
  3  4  2  0
  4  5  1  0
  5  6  2  0
  6  7  1  0
  7  8  2  0
  8  9  1  0
  9 10  2  0
  9 11  1  0
 11 12  1  0
 12 13  2  0
 13 14  1  0
 14 15  2  0
 15 16  1  0
 16 17  1  0
 16 18  2  0
 11  2  1  0
 18 12  1  0
  8  3  1  0
  4 19  1  0
  5 20  1  0
  6 21  1  0
  7 22  1  0
 13 23  1  0
 14 24  1  0
 15 25  1  0
 18 26  1  0
M  END
>  <UniqueID>  (39) 
38

>  <SMILES>  (39) 
O=C1c2ccccc2C(=O)N1c1cccc(Cl)c1

>  <Energy>  (39) 
65.72561384077994

>  <Genealogy>  (39) 
O=C1c2ccccc2C(=O)N1c1cccc(Cl)c1 (3D coordinates assigned)
O=C1c2ccccc2C(=O)N1c1cccc(Cl)c1 (nonaromatic ring conformer: 65.72561384077994 kcal/mol)

>  <smiles>  (39) 
O=C1c2ccccc2C(=O)N1c1cccc(Cl)c1

>  <score_type>  (39) 
oracle

>  <origin>  (39) 
adgpu

>  <m_score__min__energy>  (39) 
-7.2800000000000002

>  <m_primary>  (39) 
energy

$$$$
39:0
     RDKit          3D

 46 49  0  0  0  0  0  0  0  0999 V2000
   -5.9910   16.8900  -32.5480 C   0  0  0  0  0  0  0  0  0  0  0  0
   -6.8250   18.1430  -32.4770 C   0  0  0  0  0  0  0  0  0  0  0  0
   -7.9100   18.1810  -31.5840 C   0  0  0  0  0  0  0  0  0  0  0  0
   -8.7020   19.3250  -31.4750 C   0  0  0  0  0  0  0  0  0  0  0  0
   -8.4180   20.4470  -32.2500 C   0  0  0  0  0  0  0  0  0  0  0  0
   -7.3360   20.4340  -33.1320 C   0  0  0  0  0  0  0  0  0  0  0  0
   -6.5170   19.2970  -33.2460 C   0  0  0  0  0  0  0  0  0  0  0  0
   -5.3420   19.3380  -34.2020 C   0  0  0  0  0  0  0  0  0  0  0  0
   -4.1620   19.9240  -33.5630 N   0  0  0  0  0  0  0  0  0  0  0  0
   -4.2070   20.8190  -32.4370 C   0  0  0  0  0  0  0  0  0  0  0  0
   -3.8050   20.4030  -31.1360 C   0  0  0  0  0  0  0  0  0  0  0  0
   -3.8510   21.2950  -30.0490 C   0  0  0  0  0  0  0  0  0  0  0  0
   -4.3040   22.5890  -30.2930 C   0  0  0  0  0  0  0  0  0  0  0  0
   -4.7010   22.9940  -31.5310 C   0  0  0  0  0  0  0  0  0  0  0  0
   -4.6710   22.1390  -32.6290 C   0  0  0  0  0  0  0  0  0  0  0  0
   -5.1140   24.2750  -31.5010 N   0  0  0  0  0  0  0  0  0  0  0  0
   -4.9480   24.6210  -30.1990 C   0  0  0  0  0  0  0  0  0  0  0  0
   -4.4470   23.6160  -29.4380 N   0  0  0  0  0  0  0  0  0  0  0  0
   -4.2320   23.6360  -27.9920 C   0  0  0  0  0  0  0  0  0  0  0  0
   -3.0710   24.5290  -27.6530 C   0  0  0  0  0  0  0  0  0  0  0  0
   -2.0250   24.7230  -28.5710 C   0  0  0  0  0  0  0  0  0  0  0  0
   -0.9320   25.5280  -28.2350 C   0  0  0  0  0  0  0  0  0  0  0  0
   -0.8730   26.1420  -26.9800 C   0  0  0  0  0  0  0  0  0  0  0  0
   -1.9060   25.9480  -26.0580 C   0  0  0  0  0  0  0  0  0  0  0  0
   -3.0010   25.1430  -26.3910 C   0  0  0  0  0  0  0  0  0  0  0  0
   -5.7610   16.5444  -31.5293 H   0  0  0  0  0  0  0  0  0  0  0  0
   -6.5493   16.1078  -33.0832 H   0  0  0  0  0  0  0  0  0  0  0  0
   -5.0539   17.1031  -33.0832 H   0  0  0  0  0  0  0  0  0  0  0  0
   -8.1370   17.3004  -30.9651 H   0  0  0  0  0  0  0  0  0  0  0  0
   -9.5514   19.3406  -30.7763 H   0  0  0  0  0  0  0  0  0  0  0  0
   -9.0476   21.3452  -32.1669 H   0  0  0  0  0  0  0  0  0  0  0  0
   -7.1220   21.3226  -33.7441 H   0  0  0  0  0  0  0  0  0  0  0  0
   -5.1046   18.3132  -34.5235 H   0  0  0  0  0  0  0  0  0  0  0  0
   -5.6166   19.9608  -35.0662 H   0  0  0  0  0  0  0  0  0  0  0  0
   -3.2260   19.6190  -33.9170 H   0  0  0  0  0  0  0  0  0  0  0  0
   -3.4544   19.3723  -30.9790 H   0  0  0  0  0  0  0  0  0  0  0  0
   -3.5400   20.9812  -29.0416 H   0  0  0  0  0  0  0  0  0  0  0  0
   -5.0002   22.4826  -33.6207 H   0  0  0  0  0  0  0  0  0  0  0  0
   -5.1949   25.6163  -29.8010 H   0  0  0  0  0  0  0  0  0  0  0  0
   -5.1379   24.0131  -27.4950 H   0  0  0  0  0  0  0  0  0  0  0  0
   -4.0125   22.6148  -27.6472 H   0  0  0  0  0  0  0  0  0  0  0  0
   -2.0661   24.2396  -29.5582 H   0  0  0  0  0  0  0  0  0  0  0  0
   -0.1175   25.6784  -28.9589 H   0  0  0  0  0  0  0  0  0  0  0  0
   -0.0141   26.7774  -26.7183 H   0  0  0  0  0  0  0  0  0  0  0  0
   -1.8579   26.4287  -25.0698 H   0  0  0  0  0  0  0  0  0  0  0  0
   -3.8103   24.9902  -25.6619 H   0  0  0  0  0  0  0  0  0  0  0  0
  1  2  1  0
  2  3  2  0
  3  4  1  0
  4  5  2  0
  5  6  1  0
  6  7  2  0
  7  8  1  0
  8  9  1  0
  9 10  1  0
 10 11  2  0
 11 12  1  0
 12 13  2  0
 13 14  1  0
 14 15  2  0
 14 16  1  0
 16 17  2  0
 17 18  1  0
 18 19  1  0
 19 20  1  0
 20 21  2  0
 21 22  1  0
 22 23  2  0
 23 24  1  0
 24 25  2  0
  7  2  1  0
 15 10  1  0
 25 20  1  0
 18 13  1  0
  1 26  1  0
  1 27  1  0
  1 28  1  0
  3 29  1  0
  4 30  1  0
  5 31  1  0
  6 32  1  0
  8 33  1  0
  8 34  1  0
  9 35  1  0
 11 36  1  0
 12 37  1  0
 15 38  1  0
 17 39  1  0
 19 40  1  0
 19 41  1  0
 21 42  1  0
 22 43  1  0
 23 44  1  0
 24 45  1  0
 25 46  1  0
M  END
>  <UniqueID>  (40) 
39

>  <SMILES>  (40) 
Cc1ccccc1CNc1ccc2c(c1)ncn2Cc1ccccc1

>  <Energy>  (40) 
86.2775868193897

>  <Genealogy>  (40) 
Cc1ccccc1CNc1ccc2c(c1)ncn2Cc1ccccc1 (3D coordinates assigned)
Cc1ccccc1CNc1ccc2c(c1)ncn2Cc1ccccc1 (optimized conformer: 86.2775868193897 kcal/mol)

>  <smiles>  (40) 
Cc1ccccc1CNc1ccc2c(c1)ncn2Cc1ccccc1

>  <score_type>  (40) 
oracle

>  <origin>  (40) 
adgpu

>  <m_score__min__energy>  (40) 
-8.6799999999999997

>  <m_primary>  (40) 
energy

$$$$
40:0
     RDKit          3D

 34 36  0  0  0  0  0  0  0  0999 V2000
   -4.7630   16.1972  -34.3863 H   0  0  0  0  0  0  0  0  0  0  0  0
   -5.3670   17.0360  -34.0100 C   0  0  0  0  0  0  0  0  0  0  0  0
   -5.3290   18.2380  -34.6420 N   0  0  0  0  0  0  0  0  0  0  0  0
   -6.0650   19.2990  -34.2140 C   0  0  0  0  0  0  0  0  0  0  0  0
   -6.0071   20.2577  -34.7502 H   0  0  0  0  0  0  0  0  0  0  0  0
   -6.9010   19.1750  -33.0870 C   0  0  0  0  0  0  0  0  0  0  0  0
   -7.7110   20.3140  -32.5870 C   0  0  0  0  0  0  0  0  0  0  0  0
   -7.1080   21.5160  -32.3750 N   0  0  0  0  0  0  0  0  0  0  0  0
   -7.7970   22.5930  -31.9020 C   0  0  0  0  0  0  0  0  0  0  0  0
   -7.1970   23.7300  -31.7030 N   0  0  0  0  0  0  0  0  0  0  0  0
   -5.7790   23.9810  -31.9560 C   0  0  0  0  0  0  0  0  0  0  0  0
   -5.6652   24.9694  -32.4251 H   0  0  0  0  0  0  0  0  0  0  0  0
   -5.3940   23.1958  -32.6232 H   0  0  0  0  0  0  0  0  0  0  0  0
   -5.0000   23.9510  -30.6760 C   0  0  0  0  0  0  0  0  0  0  0  0
   -3.8700   24.5910  -30.4880 O   0  0  0  0  0  0  0  0  0  0  0  0
   -3.4600   24.3490  -29.2640 C   0  0  0  0  0  0  0  0  0  0  0  0
   -2.2200   24.9220  -28.6680 C   0  0  0  0  0  0  0  0  0  0  0  0
   -2.2914   24.8890  -27.5708 H   0  0  0  0  0  0  0  0  0  0  0  0
   -1.3499   24.3347  -28.9966 H   0  0  0  0  0  0  0  0  0  0  0  0
   -2.1034   25.9653  -28.9966 H   0  0  0  0  0  0  0  0  0  0  0  0
   -4.3540   23.5160  -28.6190 C   0  0  0  0  0  0  0  0  0  0  0  0
   -4.2859   23.1410  -27.5871 H   0  0  0  0  0  0  0  0  0  0  0  0
   -5.3490   23.2520  -29.5360 C   0  0  0  0  0  0  0  0  0  0  0  0
   -6.2357   22.6174  -29.3906 H   0  0  0  0  0  0  0  0  0  0  0  0
   -9.1250   22.4740  -31.6300 N   0  0  0  0  0  0  0  0  0  0  0  0
   -9.6620   23.2940  -31.2660 H   0  0  0  0  0  0  0  0  0  0  0  0
   -9.7720   21.2940  -31.8210 C   0  0  0  0  0  0  0  0  0  0  0  0
  -10.8457   21.2143  -31.5956 H   0  0  0  0  0  0  0  0  0  0  0  0
   -9.0780   20.1840  -32.3020 C   0  0  0  0  0  0  0  0  0  0  0  0
   -9.5933   19.2243  -32.4550 H   0  0  0  0  0  0  0  0  0  0  0  0
   -6.9360   17.9380  -32.4210 C   0  0  0  0  0  0  0  0  0  0  0  0
   -7.5690   17.8141  -31.5300 H   0  0  0  0  0  0  0  0  0  0  0  0
   -6.1720   16.8660  -32.8840 C   0  0  0  0  0  0  0  0  0  0  0  0
   -6.2044   15.8962  -32.3658 H   0  0  0  0  0  0  0  0  0  0  0  0
  1  2  1  0
  2  3  2  0
  3  4  1  0
  4  5  1  0
  4  6  2  0
  6  7  1  0
  7  8  2  0
  8  9  1  0
  9 10  2  0
 10 11  1  0
 11 12  1  0
 11 13  1  0
 11 14  1  0
 14 15  1  0
 15 16  1  0
 16 17  1  0
 17 18  1  0
 17 19  1  0
 17 20  1  0
 16 21  2  0
 21 22  1  0
 21 23  1  0
 23 24  1  0
  9 25  1  0
 25 26  1  0
 25 27  1  0
 27 28  1  0
 27 29  2  0
 29 30  1  0
  6 31  1  0
 31 32  1  0
 31 33  2  0
 33 34  1  0
 33  2  1  0
 29  7  1  0
 23 14  2  0
M  END
>  <UniqueID>  (41) 
40

>  <SMILES>  (41) 
Cc1ccc(C/N=c2\nc(-c3cccnc3)cc[nH]2)o1

>  <Energy>  (41) 
63.60438557769086

>  <Genealogy>  (41) 
Cc1ccc(C/N=c2\nc(-c3cccnc3)cc[nH]2)o1 (cis-trans isomerization)
Cc1ccc(C/N=c2\nc(-c3cccnc3)cc[nH]2)o1 (3D coordinates assigned)
Cc1ccc(C/N=c2\nc(-c3cccnc3)cc[nH]2)o1 (optimized conformer: 63.60438557769086 kcal/mol)

>  <smiles>  (41) 
Cc1ccc(CN=c2nc(-c3cccnc3)cc[nH]2)o1

>  <score_type>  (41) 
oracle

>  <origin>  (41) 
adgpu

>  <m_score__min__energy>  (41) 
-7.6100000000000003

>  <m_primary>  (41) 
energy

$$$$
41:0
     RDKit          3D

 36 38  0  0  0  0  0  0  0  0999 V2000
   -2.7470   21.3820  -33.0440 C   0  0  0  0  0  0  0  0  0  0  0  0
   -3.0460   22.1160  -31.8090 N   0  0  0  0  0  0  0  0  0  0  0  0
   -1.9930   22.3090  -30.8040 C   0  0  0  0  0  0  0  0  0  0  0  0
   -4.3740   22.6610  -31.6210 C   0  0  0  0  0  0  0  0  0  0  0  0
   -5.5300   21.8880  -31.8420 C   0  0  0  0  0  0  0  0  0  0  0  0
   -6.7990   22.4420  -31.6130 C   0  0  0  0  0  0  0  0  0  0  0  0
   -8.0260   21.6410  -31.8250 C   0  0  0  0  0  0  0  0  0  0  0  0
   -9.2700   22.1110  -31.6130 N   0  0  0  0  0  0  0  0  0  0  0  0
  -10.1600   21.1990  -31.9720 N   0  0  0  0  0  0  0  0  0  0  0  0
   -9.4910   20.1190  -32.4190 C   0  0  0  0  0  0  0  0  0  0  0  0
   -8.1300   20.3520  -32.3350 C   0  0  0  0  0  0  0  0  0  0  0  0
   -7.0600   19.3820  -32.6540 C   0  0  0  0  0  0  0  0  0  0  0  0
   -6.7670   18.3190  -31.7810 C   0  0  0  0  0  0  0  0  0  0  0  0
   -5.7500   17.4110  -32.0900 C   0  0  0  0  0  0  0  0  0  0  0  0
   -5.0260   17.5480  -33.2770 C   0  0  0  0  0  0  0  0  0  0  0  0
   -5.3230   18.5880  -34.1610 C   0  0  0  0  0  0  0  0  0  0  0  0
   -6.3400   19.4990  -33.8550 C   0  0  0  0  0  0  0  0  0  0  0  0
   -6.8960   23.7790  -31.2100 C   0  0  0  0  0  0  0  0  0  0  0  0
   -5.7340   24.5240  -31.0140 C   0  0  0  0  0  0  0  0  0  0  0  0
   -4.5170   23.9550  -31.2160 N   0  0  0  0  0  0  0  0  0  0  0  0
   -2.3430   20.3903  -32.7925 H   0  0  0  0  0  0  0  0  0  0  0  0
   -3.6687   21.2639  -33.6327 H   0  0  0  0  0  0  0  0  0  0  0  0
   -2.0051   21.9416  -33.6327 H   0  0  0  0  0  0  0  0  0  0  0  0
   -2.4282   22.2292  -29.7969 H   0  0  0  0  0  0  0  0  0  0  0  0
   -1.2190   21.5378  -30.9311 H   0  0  0  0  0  0  0  0  0  0  0  0
   -1.5429   23.3046  -30.9311 H   0  0  0  0  0  0  0  0  0  0  0  0
   -5.4385   20.8499  -32.1941 H   0  0  0  0  0  0  0  0  0  0  0  0
   -9.5220   23.0590  -31.2540 H   0  0  0  0  0  0  0  0  0  0  0  0
   -9.9551   19.1945  -32.7931 H   0  0  0  0  0  0  0  0  0  0  0  0
   -7.3411   18.2014  -30.8501 H   0  0  0  0  0  0  0  0  0  0  0  0
   -5.5195   16.5877  -31.3978 H   0  0  0  0  0  0  0  0  0  0  0  0
   -4.2217   16.8365  -33.5156 H   0  0  0  0  0  0  0  0  0  0  0  0
   -4.7569   18.6909  -35.0985 H   0  0  0  0  0  0  0  0  0  0  0  0
   -6.5771   20.3109  -34.5582 H   0  0  0  0  0  0  0  0  0  0  0  0
   -7.8823   24.2387  -31.0491 H   0  0  0  0  0  0  0  0  0  0  0  0
   -5.8027   25.5745  -30.6952 H   0  0  0  0  0  0  0  0  0  0  0  0
  1  2  1  0
  2  3  1  0
  2  4  1  0
  4  5  2  0
  5  6  1  0
  6  7  1  0
  7  8  1  0
  8  9  1  0
  9 10  2  0
 10 11  1  0
 11 12  1  0
 12 13  2  0
 13 14  1  0
 14 15  2  0
 15 16  1  0
 16 17  2  0
  6 18  2  0
 18 19  1  0
 19 20  2  0
 20  4  1  0
 11  7  2  0
 17 12  1  0
  1 21  1  0
  1 22  1  0
  1 23  1  0
  3 24  1  0
  3 25  1  0
  3 26  1  0
  5 27  1  0
  8 28  1  0
 10 29  1  0
 13 30  1  0
 14 31  1  0
 15 32  1  0
 16 33  1  0
 17 34  1  0
 18 35  1  0
 19 36  1  0
M  END
>  <UniqueID>  (42) 
41

>  <SMILES>  (42) 
CN(C)c1cc(-c2[nH]ncc2-c2ccccc2)ccn1

>  <Energy>  (42) 
75.3504259340937

>  <Genealogy>  (42) 
CN(C)c1cc(-c2[nH]ncc2-c2ccccc2)ccn1 (3D coordinates assigned)
CN(C)c1cc(-c2[nH]ncc2-c2ccccc2)ccn1 (optimized conformer: 75.3504259340937 kcal/mol)

>  <smiles>  (42) 
CN(C)c1cc(-c2[nH]ncc2-c2ccccc2)ccn1

>  <score_type>  (42) 
oracle

>  <origin>  (42) 
adgpu

>  <m_score__min__energy>  (42) 
-7.7400000000000002

>  <m_primary>  (42) 
energy

$$$$
42:0
     RDKit          3D

 35 37  0  0  0  0  0  0  0  0999 V2000
   -6.1390   25.3340  -29.4310 C   0  0  0  0  0  0  0  0  0  0  0  0
   -5.6410   24.1550  -30.2100 C   0  0  0  0  0  0  0  0  0  0  0  0
   -6.5320   23.2120  -30.6180 N   0  0  0  0  0  0  0  0  0  0  0  0
   -6.1650   22.1180  -31.2930 N   0  0  0  0  0  0  0  0  0  0  0  0
   -7.1920   21.1840  -31.6760 C   0  0  0  0  0  0  0  0  0  0  0  0
   -6.9370   19.7990  -31.7030 C   0  0  0  0  0  0  0  0  0  0  0  0
   -7.9500   18.9020  -32.0550 C   0  0  0  0  0  0  0  0  0  0  0  0
   -9.2270   19.3750  -32.3690 C   0  0  0  0  0  0  0  0  0  0  0  0
   -9.4940   20.7450  -32.3280 C   0  0  0  0  0  0  0  0  0  0  0  0
   -8.4840   21.6460  -31.9770 C   0  0  0  0  0  0  0  0  0  0  0  0
   -4.8490   21.9160  -31.6150 C   0  0  0  0  0  0  0  0  0  0  0  0
   -4.4890   20.9090  -32.2840 O   0  0  0  0  0  0  0  0  0  0  0  0
   -3.8900   22.8500  -31.2220 C   0  0  0  0  0  0  0  0  0  0  0  0
   -4.2840   23.9950  -30.5340 C   0  0  0  0  0  0  0  0  0  0  0  0
   -3.3130   24.9330  -30.1640 O   0  0  0  0  0  0  0  0  0  0  0  0
   -2.5980   24.8980  -28.9580 C   0  0  0  0  0  0  0  0  0  0  0  0
   -1.2190   25.1800  -28.8960 C   0  0  0  0  0  0  0  0  0  0  0  0
   -0.5440   25.1280  -27.6720 C   0  0  0  0  0  0  0  0  0  0  0  0
   -1.2350   24.7880  -26.5050 C   0  0  0  0  0  0  0  0  0  0  0  0
   -0.3860   24.7240  -24.9710 Cl  0  0  0  0  0  0  0  0  0  0  0  0
   -2.6010   24.4940  -26.5630 C   0  0  0  0  0  0  0  0  0  0  0  0
   -3.2780   24.5470  -27.7860 C   0  0  0  0  0  0  0  0  0  0  0  0
   -6.0511   25.1258  -28.3545 H   0  0  0  0  0  0  0  0  0  0  0  0
   -5.5384   26.2204  -29.6833 H   0  0  0  0  0  0  0  0  0  0  0  0
   -7.1931   25.5214  -29.6833 H   0  0  0  0  0  0  0  0  0  0  0  0
   -5.9363   19.4214  -31.4460 H   0  0  0  0  0  0  0  0  0  0  0  0
   -7.7416   17.8223  -32.0848 H   0  0  0  0  0  0  0  0  0  0  0  0
  -10.0220   18.6679  -32.6485 H   0  0  0  0  0  0  0  0  0  0  0  0
  -10.5004   21.1159  -32.5722 H   0  0  0  0  0  0  0  0  0  0  0  0
   -8.7025   22.7233  -31.9363 H   0  0  0  0  0  0  0  0  0  0  0  0
   -2.8279   22.6829  -31.4544 H   0  0  0  0  0  0  0  0  0  0  0  0
   -0.6713   25.4420  -29.8133 H   0  0  0  0  0  0  0  0  0  0  0  0
    0.5314   25.3548  -27.6275 H   0  0  0  0  0  0  0  0  0  0  0  0
   -3.1436   24.2208  -25.6460 H   0  0  0  0  0  0  0  0  0  0  0  0
   -4.3517   24.3113  -27.8269 H   0  0  0  0  0  0  0  0  0  0  0  0
  1  2  1  0
  2  3  2  0
  3  4  1  0
  4  5  1  0
  5  6  2  0
  6  7  1  0
  7  8  2  0
  8  9  1  0
  9 10  2  0
  4 11  1  0
 11 12  2  0
 11 13  1  0
 13 14  2  0
 14 15  1  0
 15 16  1  0
 16 17  2  0
 17 18  1  0
 18 19  2  0
 19 20  1  0
 19 21  1  0
 21 22  2  0
 14  2  1  0
 22 16  1  0
 10  5  1  0
  1 23  1  0
  1 24  1  0
  1 25  1  0
  6 26  1  0
  7 27  1  0
  8 28  1  0
  9 29  1  0
 10 30  1  0
 13 31  1  0
 17 32  1  0
 18 33  1  0
 21 34  1  0
 22 35  1  0
M  END
>  <UniqueID>  (43) 
42

>  <SMILES>  (43) 
Cc1nn(-c2ccccc2)c(=O)cc1Oc1ccc(Cl)cc1

>  <Energy>  (43) 
53.09869818718641

>  <Genealogy>  (43) 
Cc1nn(-c2ccccc2)c(=O)cc1Oc1ccc(Cl)cc1 (3D coordinates assigned)
Cc1nn(-c2ccccc2)c(=O)cc1Oc1ccc(Cl)cc1 (optimized conformer: 53.09869818718641 kcal/mol)

>  <smiles>  (43) 
Cc1nn(-c2ccccc2)c(=O)cc1Oc1ccc(Cl)cc1

>  <score_type>  (43) 
oracle

>  <origin>  (43) 
adgpu

>  <m_score__min__energy>  (43) 
-8.25

>  <m_primary>  (43) 
energy

$$$$
43:0
     RDKit          3D

 25 26  0  0  0  0  0  0  0  0999 V2000
   -6.4740   19.2190  -34.5390 N   0  0  0  0  0  0  0  0  0  0  0  0
   -6.2090   18.0650  -33.6780 C   0  0  0  0  0  0  0  0  0  0  0  0
   -6.6730   18.3090  -32.2350 C   0  0  0  0  0  0  0  0  0  0  0  0
   -7.7600   19.3420  -32.1660 C   0  0  0  0  0  0  0  0  0  0  0  0
   -9.1080   19.1500  -32.4530 C   0  0  0  0  0  0  0  0  0  0  0  0
   -9.7850   20.3150  -32.3410 N   0  0  0  0  0  0  0  0  0  0  0  0
   -8.8750   21.2420  -31.9930 C   0  0  0  0  0  0  0  0  0  0  0  0
   -9.0940   22.6010  -31.7750 C   0  0  0  0  0  0  0  0  0  0  0  0
   -7.9860   23.3990  -31.4310 C   0  0  0  0  0  0  0  0  0  0  0  0
   -6.6980   22.8270  -31.3160 C   0  0  0  0  0  0  0  0  0  0  0  0
   -5.2080   23.9270  -30.8510 Br  0  0  0  0  0  0  0  0  0  0  0  0
   -6.5090   21.4510  -31.5450 C   0  0  0  0  0  0  0  0  0  0  0  0
   -7.6260   20.6870  -31.8810 C   0  0  0  0  0  0  0  0  0  0  0  0
   -6.5020   18.9250  -35.5410 H   0  0  0  0  0  0  0  0  0  0  0  0
   -7.3820   19.6660  -34.2740 H   0  0  0  0  0  0  0  0  0  0  0  0
   -5.7090   19.9200  -34.4130 H   0  0  0  0  0  0  0  0  0  0  0  0
   -6.7426   17.1912  -34.0802 H   0  0  0  0  0  0  0  0  0  0  0  0
   -5.1226   17.8935  -33.6624 H   0  0  0  0  0  0  0  0  0  0  0  0
   -7.0526   17.3643  -31.8185 H   0  0  0  0  0  0  0  0  0  0  0  0
   -5.8130   18.6785  -31.6572 H   0  0  0  0  0  0  0  0  0  0  0  0
   -9.5592   18.1863  -32.7317 H   0  0  0  0  0  0  0  0  0  0  0  0
  -10.8060   20.4640  -32.5040 H   0  0  0  0  0  0  0  0  0  0  0  0
  -10.0999   23.0362  -31.8686 H   0  0  0  0  0  0  0  0  0  0  0  0
   -8.1235   24.4753  -31.2504 H   0  0  0  0  0  0  0  0  0  0  0  0
   -5.5123   20.9932  -31.4616 H   0  0  0  0  0  0  0  0  0  0  0  0
  1  2  1  0
  2  3  1  0
  3  4  1  0
  4  5  2  0
  5  6  1  0
  6  7  1  0
  7  8  2  0
  8  9  1  0
  9 10  2  0
 10 11  1  0
 10 12  1  0
 12 13  2  0
 13  4  1  0
 13  7  1  0
  1 14  1  0
  1 15  1  0
  1 16  1  0
  2 17  1  0
  2 18  1  0
  3 19  1  0
  3 20  1  0
  5 21  1  0
  6 22  1  0
  8 23  1  0
  9 24  1  0
 12 25  1  0
M  CHG  1   1   1
M  END
>  <UniqueID>  (44) 
43

>  <SMILES>  (44) 
[NH3+]CCc1c[nH]c2ccc(Br)cc12

>  <Energy>  (44) 
53.68324775225378

>  <Genealogy>  (44) 
[NH3+]CCc1c[nH]c2ccc(Br)cc12 (protonated)
[NH3+]CCc1c[nH]c2ccc(Br)cc12 (3D coordinates assigned)
[NH3+]CCc1c[nH]c2ccc(Br)cc12 (optimized conformer: 53.68324775225378 kcal/mol)

>  <smiles>  (44) 
NCCc1c[nH]c2ccc(Br)cc12

>  <score_type>  (44) 
oracle

>  <origin>  (44) 
adgpu

>  <m_score__min__energy>  (44) 
-5.8099999999999996

>  <m_primary>  (44) 
energy

$$$$
44:0
     RDKit          3D

 33 34  0  0  0  0  0  0  0  0999 V2000
   -6.8410   17.3090  -33.4790 C   0  0  0  0  0  0  0  0  0  0  0  0
   -6.8640   18.7220  -32.9760 C   0  0  0  0  0  0  0  0  0  0  0  0
   -5.7530   19.5570  -33.1730 C   0  0  0  0  0  0  0  0  0  0  0  0
   -5.7540   20.8610  -32.6680 C   0  0  0  0  0  0  0  0  0  0  0  0
   -6.8590   21.3390  -31.9510 C   0  0  0  0  0  0  0  0  0  0  0  0
   -6.8540   22.9750  -31.3020 S   0  0  0  0  0  0  0  0  0  0  0  0
   -7.0930   22.9140  -29.8200 O   0  0  0  0  0  0  0  0  0  0  0  0
   -7.9390   23.7980  -31.9400 O   0  0  0  0  0  0  0  0  0  0  0  0
   -5.3240   23.7350  -31.5970 N   0  0  0  0  0  0  0  0  0  0  0  0
   -4.5150   24.3490  -30.5880 C   0  0  0  0  0  0  0  0  0  0  0  0
   -3.9350   25.4330  -30.8580 O   0  0  0  0  0  0  0  0  0  0  0  0
   -4.3940   23.7700  -29.2760 N   0  0  0  0  0  0  0  0  0  0  0  0
   -3.4210   24.1930  -28.3050 C   0  0  0  0  0  0  0  0  0  0  0  0
   -3.8060   24.6430  -27.0280 C   0  0  0  0  0  0  0  0  0  0  0  0
   -2.8410   25.0700  -26.1110 C   0  0  0  0  0  0  0  0  0  0  0  0
   -1.4890   25.0650  -26.4620 C   0  0  0  0  0  0  0  0  0  0  0  0
   -1.1000   24.6420  -27.7360 C   0  0  0  0  0  0  0  0  0  0  0  0
   -2.0620   24.2140  -28.6560 C   0  0  0  0  0  0  0  0  0  0  0  0
   -7.9660   20.5040  -31.7460 C   0  0  0  0  0  0  0  0  0  0  0  0
   -7.9640   19.1980  -32.2480 C   0  0  0  0  0  0  0  0  0  0  0  0
   -6.8297   16.6159  -32.6249 H   0  0  0  0  0  0  0  0  0  0  0  0
   -7.7362   17.1228  -34.0905 H   0  0  0  0  0  0  0  0  0  0  0  0
   -5.9402   17.1521  -34.0905 H   0  0  0  0  0  0  0  0  0  0  0  0
   -4.8785   19.1843  -33.7265 H   0  0  0  0  0  0  0  0  0  0  0  0
   -4.8844   21.5138  -32.8342 H   0  0  0  0  0  0  0  0  0  0  0  0
   -5.1150   23.0870  -28.9620 H   0  0  0  0  0  0  0  0  0  0  0  0
   -4.8703   24.6587  -26.7505 H   0  0  0  0  0  0  0  0  0  0  0  0
   -3.1471   25.4107  -25.1109 H   0  0  0  0  0  0  0  0  0  0  0  0
   -0.7308   25.3938  -25.7360 H   0  0  0  0  0  0  0  0  0  0  0  0
   -0.0360   24.6458  -28.0152 H   0  0  0  0  0  0  0  0  0  0  0  0
   -1.7520   23.8918  -29.6610 H   0  0  0  0  0  0  0  0  0  0  0  0
   -8.8385   20.8764  -31.1891 H   0  0  0  0  0  0  0  0  0  0  0  0
   -8.8289   18.5418  -32.0709 H   0  0  0  0  0  0  0  0  0  0  0  0
  1  2  1  0
  2  3  2  0
  3  4  1  0
  4  5  2  0
  5  6  1  0
  6  7  2  0
  6  8  2  0
  6  9  1  0
  9 10  1  0
 10 11  2  0
 10 12  1  0
 12 13  1  0
 13 14  2  0
 14 15  1  0
 15 16  2  0
 16 17  1  0
 17 18  2  0
  5 19  1  0
 19 20  2  0
 20  2  1  0
 18 13  1  0
  1 21  1  0
  1 22  1  0
  1 23  1  0
  3 24  1  0
  4 25  1  0
 12 26  1  0
 14 27  1  0
 15 28  1  0
 16 29  1  0
 17 30  1  0
 18 31  1  0
 19 32  1  0
 20 33  1  0
M  CHG  1   9  -1
M  END
>  <UniqueID>  (45) 
44

>  <SMILES>  (45) 
Cc1ccc(S(=O)(=O)[N-]C(=O)Nc2ccccc2)cc1

>  <Energy>  (45) 
38.165857619133995

>  <Genealogy>  (45) 
Cc1ccc(S(=O)(=O)[N-]C(=O)Nc2ccccc2)cc1 (protonated)
Cc1ccc(S(=O)(=O)[N-]C(=O)Nc2ccccc2)cc1 (3D coordinates assigned)
Cc1ccc(S(=O)(=O)[N-]C(=O)Nc2ccccc2)cc1 (optimized conformer: 38.165857619133995 kcal/mol)

>  <smiles>  (45) 
Cc1ccc(S(=O)(=O)NC(=O)Nc2ccccc2)cc1

>  <score_type>  (45) 
oracle

>  <origin>  (45) 
adgpu

>  <m_score__min__energy>  (45) 
-9.1799999999999997

>  <m_primary>  (45) 
energy

$$$$
45:0
     RDKit          3D

 35 37  0  0  0  0  0  0  0  0999 V2000
   -6.8660   17.1950  -32.7250 C   0  0  0  0  0  0  0  0  0  0  0  0
   -6.8780   18.6960  -32.7250 C   0  0  0  0  0  0  0  0  0  0  0  0
   -5.7370   19.4090  -33.1040 C   0  0  0  0  0  0  0  0  0  0  0  0
   -5.7320   20.8040  -33.0660 C   0  0  0  0  0  0  0  0  0  0  0  0
   -6.8680   21.5180  -32.6390 C   0  0  0  0  0  0  0  0  0  0  0  0
   -6.8530   22.9620  -32.5970 N   0  0  0  0  0  0  0  0  0  0  0  0
   -6.8810   23.7430  -31.3590 C   0  0  0  0  0  0  0  0  0  0  0  0
   -5.4900   24.1020  -30.9300 C   0  0  0  0  0  0  0  0  0  0  0  0
   -4.9870   25.3580  -30.9410 N   0  0  0  0  0  0  0  0  0  0  0  0
   -3.7620   25.2950  -30.4870 O   0  0  0  0  0  0  0  0  0  0  0  0
   -3.4550   24.0560  -30.1840 C   0  0  0  0  0  0  0  0  0  0  0  0
   -2.2640   23.5560  -29.6670 C   0  0  0  0  0  0  0  0  0  0  0  0
   -2.1920   22.1710  -29.4210 C   0  0  0  0  0  0  0  0  0  0  0  0
   -3.3000   21.3350  -29.6950 C   0  0  0  0  0  0  0  0  0  0  0  0
   -4.4900   21.8750  -30.2190 C   0  0  0  0  0  0  0  0  0  0  0  0
   -4.5230   23.2490  -30.4490 C   0  0  0  0  0  0  0  0  0  0  0  0
   -8.0230   20.7970  -32.2440 C   0  0  0  0  0  0  0  0  0  0  0  0
   -9.2710   21.5060  -31.7900 C   0  0  0  0  0  0  0  0  0  0  0  0
   -8.0100   19.3920  -32.2800 C   0  0  0  0  0  0  0  0  0  0  0  0
   -6.8631   16.8283  -31.6879 H   0  0  0  0  0  0  0  0  0  0  0  0
   -7.7612   16.8212  -33.2435 H   0  0  0  0  0  0  0  0  0  0  0  0
   -5.9650   16.8355  -33.2435 H   0  0  0  0  0  0  0  0  0  0  0  0
   -4.8381   18.8676  -33.4340 H   0  0  0  0  0  0  0  0  0  0  0  0
   -4.8295   21.3526  -33.3734 H   0  0  0  0  0  0  0  0  0  0  0  0
   -6.7540   23.5020  -33.4850 H   0  0  0  0  0  0  0  0  0  0  0  0
   -7.4571   24.6651  -31.5262 H   0  0  0  0  0  0  0  0  0  0  0  0
   -7.3509   23.1387  -30.5690 H   0  0  0  0  0  0  0  0  0  0  0  0
   -1.4104   24.2177  -29.4582 H   0  0  0  0  0  0  0  0  0  0  0  0
   -1.2676   21.7362  -29.0129 H   0  0  0  0  0  0  0  0  0  0  0  0
   -3.2312   20.2551  -29.4972 H   0  0  0  0  0  0  0  0  0  0  0  0
   -5.3593   21.2375  -30.4382 H   0  0  0  0  0  0  0  0  0  0  0  0
   -9.3030   21.5242  -30.6906 H   0  0  0  0  0  0  0  0  0  0  0  0
   -9.2673   22.5369  -32.1738 H   0  0  0  0  0  0  0  0  0  0  0  0
  -10.1546   20.9750  -32.1738 H   0  0  0  0  0  0  0  0  0  0  0  0
   -8.8992   18.8319  -31.9549 H   0  0  0  0  0  0  0  0  0  0  0  0
  1  2  1  0
  2  3  2  0
  3  4  1  0
  4  5  2  0
  5  6  1  0
  6  7  1  0
  7  8  1  0
  8  9  2  0
  9 10  1  0
 10 11  1  0
 11 12  2  0
 12 13  1  0
 13 14  2  0
 14 15  1  0
 15 16  2  0
  5 17  1  0
 17 18  1  0
 17 19  2  0
 19  2  1  0
 16  8  1  0
 16 11  1  0
  1 20  1  0
  1 21  1  0
  1 22  1  0
  3 23  1  0
  4 24  1  0
  6 25  1  0
  7 26  1  0
  7 27  1  0
 12 28  1  0
 13 29  1  0
 14 30  1  0
 15 31  1  0
 18 32  1  0
 18 33  1  0
 18 34  1  0
 19 35  1  0
M  END
>  <UniqueID>  (46) 
45

>  <SMILES>  (46) 
Cc1ccc(NCc2noc3ccccc23)c(C)c1

>  <Energy>  (46) 
75.40447017435739

>  <Genealogy>  (46) 
Cc1ccc(NCc2noc3ccccc23)c(C)c1 (3D coordinates assigned)
Cc1ccc(NCc2noc3ccccc23)c(C)c1 (optimized conformer: 75.40447017435739 kcal/mol)

>  <smiles>  (46) 
Cc1ccc(NCc2noc3ccccc23)c(C)c1

>  <score_type>  (46) 
oracle

>  <origin>  (46) 
adgpu

>  <m_score__min__energy>  (46) 
-9.1099999999999994

>  <m_primary>  (46) 
energy

$$$$
