0:0
     RDKit          3D

 48 51  0  0  0  0  0  0  0  0999 V2000
   -8.5450   18.9200  -31.9690 C   0  0  0  0  0  0  0  0  0  0  0  0
   -9.4940   20.3900  -32.4700 S   0  0  0  0  0  0  0  0  0  0  0  0
   -8.2130   21.5290  -31.9570 C   0  0  0  0  0  0  0  0  0  0  0  0
   -8.4590   22.6340  -31.2130 N   0  0  0  0  0  0  0  0  0  0  0  0
   -7.3100   23.3150  -30.9750 C   0  0  0  0  0  0  0  0  0  0  0  0
   -7.2320   24.4930  -30.2330 C   0  0  0  0  0  0  0  0  0  0  0  0
   -5.9760   25.0980  -30.0550 C   0  0  0  0  0  0  0  0  0  0  0  0
   -4.8060   24.5190  -30.6080 C   0  0  0  0  0  0  0  0  0  0  0  0
   -3.5070   25.1010  -30.4290 N   0  0  0  0  0  0  0  0  0  0  0  0
   -2.3010   24.5450  -29.3150 S   0  0  0  0  0  0  0  0  0  0  0  0
   -2.8940   24.5040  -27.9350 O   0  0  0  0  0  0  0  0  0  0  0  0
   -1.1480   25.5060  -29.3030 O   0  0  0  0  0  0  0  0  0  0  0  0
   -1.8020   22.9120  -29.7610 C   0  0  0  0  0  0  0  0  0  0  0  0
   -2.0750   22.4650  -31.0630 C   0  0  0  0  0  0  0  0  0  0  0  0
   -1.7210   21.1700  -31.4630 C   0  0  0  0  0  0  0  0  0  0  0  0
   -2.1410   20.5750  -33.0680 S   0  0  0  0  0  0  0  0  0  0  0  0
   -0.8820   20.3300  -33.8480 O   0  0  0  0  0  0  0  0  0  0  0  0
   -2.9700   21.5970  -33.7930 O   0  0  0  0  0  0  0  0  0  0  0  0
   -3.0260   19.0820  -32.9050 N   0  0  0  0  0  0  0  0  0  0  0  0
   -4.2960   19.2970  -32.2150 C   0  0  0  0  0  0  0  0  0  0  0  0
   -5.2350   18.1980  -32.6850 C   0  0  0  0  0  0  0  0  0  0  0  0
   -4.6380   17.6900  -33.9890 C   0  0  0  0  0  0  0  0  0  0  0  0
   -3.3810   18.5180  -34.2070 C   0  0  0  0  0  0  0  0  0  0  0  0
   -1.0800   20.3190  -30.5570 C   0  0  0  0  0  0  0  0  0  0  0  0
   -0.7960   20.7570  -29.2620 C   0  0  0  0  0  0  0  0  0  0  0  0
   -1.1540   22.0500  -28.8550 C   0  0  0  0  0  0  0  0  0  0  0  0
   -0.8650   22.4690  -27.5560 O   0  0  0  0  0  0  0  0  0  0  0  0
   -4.9100   23.3350  -31.3560 C   0  0  0  0  0  0  0  0  0  0  0  0
   -6.1670   22.7580  -31.5220 C   0  0  0  0  0  0  0  0  0  0  0  0
   -6.5750   21.3560  -32.3520 S   0  0  0  0  0  0  0  0  0  0  0  0
   -8.5087   18.8637  -30.8710 H   0  0  0  0  0  0  0  0  0  0  0  0
   -9.0310   18.0168  -32.3666 H   0  0  0  0  0  0  0  0  0  0  0  0
   -7.5218   18.9911  -32.3666 H   0  0  0  0  0  0  0  0  0  0  0  0
   -8.1365   24.9404  -29.7952 H   0  0  0  0  0  0  0  0  0  0  0  0
   -5.8998   26.0323  -29.4795 H   0  0  0  0  0  0  0  0  0  0  0  0
   -2.5721   23.1384  -31.7767 H   0  0  0  0  0  0  0  0  0  0  0  0
   -4.1522   19.2339  -31.1263 H   0  0  0  0  0  0  0  0  0  0  0  0
   -4.7062   20.2928  -32.4387 H   0  0  0  0  0  0  0  0  0  0  0  0
   -5.2829   17.3883  -31.9420 H   0  0  0  0  0  0  0  0  0  0  0  0
   -6.2624   18.5668  -32.8207 H   0  0  0  0  0  0  0  0  0  0  0  0
   -4.3862   16.6224  -33.9069 H   0  0  0  0  0  0  0  0  0  0  0  0
   -5.3432   17.7882  -34.8275 H   0  0  0  0  0  0  0  0  0  0  0  0
   -2.5659   17.8807  -34.5804 H   0  0  0  0  0  0  0  0  0  0  0  0
   -3.5497   19.3099  -34.9516 H   0  0  0  0  0  0  0  0  0  0  0  0
   -0.7987   19.3013  -30.8656 H   0  0  0  0  0  0  0  0  0  0  0  0
   -0.2880   20.0831  -28.5564 H   0  0  0  0  0  0  0  0  0  0  0  0
   -1.2280   23.3400  -27.1850 H   0  0  0  0  0  0  0  0  0  0  0  0
   -4.0170   22.8726  -31.8018 H   0  0  0  0  0  0  0  0  0  0  0  0
  1  2  1  0
  2  3  1  0
  3  4  2  0
  4  5  1  0
  5  6  2  0
  6  7  1  0
  7  8  2  0
  8  9  1  0
  9 10  1  0
 10 11  2  0
 10 12  2  0
 10 13  1  0
 13 14  2  0
 14 15  1  0
 15 16  1  0
 16 17  2  0
 16 18  2  0
 16 19  1  0
 19 20  1  0
 20 21  1  0
 21 22  1  0
 22 23  1  0
 15 24  2  0
 24 25  1  0
 25 26  2  0
 26 27  1  0
  8 28  1  0
 28 29  2  0
 29 30  1  0
 30  3  1  0
 29  5  1  0
 26 13  1  0
 23 19  1  0
  1 31  1  0
  1 32  1  0
  1 33  1  0
  6 34  1  0
  7 35  1  0
 14 36  1  0
 20 37  1  0
 20 38  1  0
 21 39  1  0
 21 40  1  0
 22 41  1  0
 22 42  1  0
 23 43  1  0
 23 44  1  0
 24 45  1  0
 25 46  1  0
 27 47  1  0
 28 48  1  0
M  CHG  1   9  -1
M  END
>  <UniqueID>  (1) 
1

>  <SMILES>  (1) 
CSc1nc2ccc([N-]S(=O)(=O)c3cc(S(=O)(=O)N4CCCC4)ccc3O)cc2s1

>  <Energy>  (1) 
86.56231747293751

>  <Genealogy>  (1) 
CSc1nc2ccc([N-]S(=O)(=O)c3cc(S(=O)(=O)N4CCCC4)ccc3O)cc2s1 (protonated)
CSc1nc2ccc([N-]S(=O)(=O)c3cc(S(=O)(=O)N4CCCC4)ccc3O)cc2s1 (3D coordinates assigned)
CSc1nc2ccc([N-]S(=O)(=O)c3cc(S(=O)(=O)N4CCCC4)ccc3O)cc2s1 (nonaromatic ring conformer: 86.56231747293751 kcal/mol)

>  <smiles>  (1) 
CSc1nc2ccc(NS(=O)(=O)c3cc(S(=O)(=O)N4CCCC4)ccc3O)cc2s1

>  <score_type>  (1) 
oracle

>  <origin>  (1) 
adgpu

>  <m_score__min__energy>  (1) 
-10.73

>  <m_primary>  (1) 
energy

$$$$
1:0
     RDKit          3D

 54 56  0  0  0  0  0  0  0  0999 V2000
   -3.6470   16.7110  -34.2210 C   0  0  0  0  0  0  0  0  0  0  0  0
   -2.9720   18.0760  -34.3710 C   0  0  0  0  0  0  0  0  0  0  0  0
   -3.8270   19.2150  -33.7770 C   0  0  1  0  0  0  0  0  0  0  0  0
   -4.3320   18.8770  -32.3580 C   0  0  0  0  0  0  0  0  0  0  0  0
   -4.9630   20.0860  -31.6450 C   0  0  0  0  0  0  0  0  0  0  0  0
   -5.3250   21.2090  -32.6200 C   0  0  0  0  0  0  0  0  0  0  0  0
   -4.0990   21.6630  -33.4380 C   0  0  0  0  0  0  0  0  0  0  0  0
   -3.1930   20.5590  -33.8470 N   0  0  0  0  0  0  0  0  0  0  0  0
   -1.5700   20.7290  -33.1740 S   0  0  0  0  0  0  0  0  0  0  0  0
   -0.9010   21.9180  -33.8060 O   0  0  0  0  0  0  0  0  0  0  0  0
   -0.7410   19.5310  -33.5430 O   0  0  0  0  0  0  0  0  0  0  0  0
   -1.5210   20.9330  -31.4140 C   0  0  0  0  0  0  0  0  0  0  0  0
   -0.8440   19.9850  -30.6310 C   0  0  0  0  0  0  0  0  0  0  0  0
   -0.7780   20.1270  -29.2470 C   0  0  0  0  0  0  0  0  0  0  0  0
   -1.3610   21.2310  -28.6270 C   0  0  0  0  0  0  0  0  0  0  0  0
   -1.9960   22.2200  -29.3930 C   0  0  0  0  0  0  0  0  0  0  0  0
   -2.5700   23.3780  -28.7670 N   0  0  0  0  0  0  0  0  0  0  0  0
   -2.6440   24.6880  -29.3450 C   0  0  0  0  0  0  0  0  0  0  0  0
   -1.7650   25.5360  -29.0500 O   0  0  0  0  0  0  0  0  0  0  0  0
   -3.6920   25.0580  -30.2530 N   0  0  0  0  0  0  0  0  0  0  0  0
   -4.9240   24.3470  -30.4440 C   0  0  0  0  0  0  0  0  0  0  0  0
   -5.3970   23.4260  -29.4930 C   0  0  0  0  0  0  0  0  0  0  0  0
   -6.5880   22.7300  -29.7190 C   0  0  0  0  0  0  0  0  0  0  0  0
   -7.3360   22.9680  -30.8820 C   0  0  0  0  0  0  0  0  0  0  0  0
   -8.5890   22.1850  -31.1460 C   0  0  0  0  0  0  0  0  0  0  0  0
   -6.8700   23.8990  -31.8220 C   0  0  0  0  0  0  0  0  0  0  0  0
   -5.6780   24.5930  -31.5950 C   0  0  0  0  0  0  0  0  0  0  0  0
   -2.0850   22.0680  -30.7920 C   0  0  0  0  0  0  0  0  0  0  0  0
   -2.7170   23.0400  -31.5690 O   0  0  0  0  0  0  0  0  0  0  0  0
   -3.7637   16.4750  -33.1530 H   0  0  0  0  0  0  0  0  0  0  0  0
   -4.6364   16.7365  -34.7011 H   0  0  0  0  0  0  0  0  0  0  0  0
   -3.0262   15.9402  -34.7011 H   0  0  0  0  0  0  0  0  0  0  0  0
   -2.0031   18.0516  -33.8508 H   0  0  0  0  0  0  0  0  0  0  0  0
   -2.8435   18.2740  -35.4454 H   0  0  0  0  0  0  0  0  0  0  0  0
   -4.7067   19.2873  -34.4334 H   0  0  0  0  0  0  0  0  0  0  0  0
   -5.0871   18.0807  -32.4342 H   0  0  0  0  0  0  0  0  0  0  0  0
   -3.4622   18.5596  -31.7641 H   0  0  0  0  0  0  0  0  0  0  0  0
   -5.8772   19.7559  -31.1300 H   0  0  0  0  0  0  0  0  0  0  0  0
   -4.2232   20.4821  -30.9338 H   0  0  0  0  0  0  0  0  0  0  0  0
   -6.1013   20.8470  -33.3102 H   0  0  0  0  0  0  0  0  0  0  0  0
   -5.6893   22.0682  -32.0376 H   0  0  0  0  0  0  0  0  0  0  0  0
   -4.4590   22.1675  -34.3467 H   0  0  0  0  0  0  0  0  0  0  0  0
   -3.5125   22.3255  -32.7844 H   0  0  0  0  0  0  0  0  0  0  0  0
   -0.3615   19.1227  -31.1144 H   0  0  0  0  0  0  0  0  0  0  0  0
   -0.2643   19.3658  -28.6415 H   0  0  0  0  0  0  0  0  0  0  0  0
   -1.3230   21.3272  -27.5319 H   0  0  0  0  0  0  0  0  0  0  0  0
   -4.8279   23.2525  -28.5678 H   0  0  0  0  0  0  0  0  0  0  0  0
   -6.9401   21.9929  -28.9823 H   0  0  0  0  0  0  0  0  0  0  0  0
   -9.0498   21.8971  -30.1896 H   0  0  0  0  0  0  0  0  0  0  0  0
   -9.2937   22.8037  -31.7210 H   0  0  0  0  0  0  0  0  0  0  0  0
   -8.3418   21.2804  -31.7210 H   0  0  0  0  0  0  0  0  0  0  0  0
   -7.4449   24.0837  -32.7415 H   0  0  0  0  0  0  0  0  0  0  0  0
   -5.3312   25.3374  -32.3268 H   0  0  0  0  0  0  0  0  0  0  0  0
   -2.9520   23.9570  -31.2120 H   0  0  0  0  0  0  0  0  0  0  0  0
  1  2  1  0
  2  3  1  0
  3  4  1  0
  4  5  1  0
  5  6  1  0
  6  7  1  0
  7  8  1  0
  8  9  1  0
  9 10  2  0
  9 11  2  0
  9 12  1  0
 12 13  2  0
 13 14  1  0
 14 15  2  0
 15 16  1  0
 16 17  1  0
 17 18  1  0
 18 19  2  0
 18 20  1  0
 20 21  1  0
 21 22  2  0
 22 23  1  0
 23 24  2  0
 24 25  1  0
 24 26  1  0
 26 27  2  0
 16 28  2  0
 28 29  1  0
  8  3  1  0
 28 12  1  0
 27 21  1  0
  1 30  1  0
  1 31  1  0
  1 32  1  0
  2 33  1  0
  2 34  1  0
  3 35  1  6
  4 36  1  0
  4 37  1  0
  5 38  1  0
  5 39  1  0
  6 40  1  0
  6 41  1  0
  7 42  1  0
  7 43  1  0
 13 44  1  0
 14 45  1  0
 15 46  1  0
 22 47  1  0
 23 48  1  0
 25 49  1  0
 25 50  1  0
 25 51  1  0
 26 52  1  0
 27 53  1  0
 29 54  1  0
M  CHG  2  17  -1  20  -1
M  END
>  <UniqueID>  (2) 
2

>  <SMILES>  (2) 
CC[C@H]1CCCCN1S(=O)(=O)c1cccc([N-]C(=O)[N-]c2ccc(C)cc2)c1O

>  <Energy>  (2) 
71.96180991480631

>  <Genealogy>  (2) 
CCC1CCCCN1S(=O)(=O)c1cccc([N-]C(=O)[N-]c2ccc(C)cc2)c1O (protonated)
CC[C@H]1CCCCN1S(=O)(=O)c1cccc([N-]C(=O)[N-]c2ccc(C)cc2)c1O (chirality)
CC[C@H]1CCCCN1S(=O)(=O)c1cccc([N-]C(=O)[N-]c2ccc(C)cc2)c1O (3D coordinates assigned)
CC[C@H]1CCCCN1S(=O)(=O)c1cccc([N-]C(=O)[N-]c2ccc(C)cc2)c1O (nonaromatic ring conformer: 71.96180991480631 kcal/mol)

>  <smiles>  (2) 
CCC1CCCCN1S(=O)(=O)c1cccc(NC(=O)Nc2ccc(C)cc2)c1O

>  <score_type>  (2) 
oracle

>  <origin>  (2) 
adgpu

>  <m_score__min__energy>  (2) 
-13.369999999999999

>  <m_primary>  (2) 
energy

$$$$
2:0
     RDKit          3D

 59 62  0  0  0  0  0  0  0  0999 V2000
   -6.4770   16.8410  -33.0780 N   0  0  0  0  0  0  0  0  0  0  0  0
   -7.0020   18.1150  -32.6790 C   0  0  0  0  0  0  0  0  0  0  0  0
   -8.3560   18.2130  -32.3270 C   0  0  0  0  0  0  0  0  0  0  0  0
   -8.8910   19.4240  -31.8880 C   0  0  0  0  0  0  0  0  0  0  0  0
   -8.0800   20.5610  -31.7950 C   0  0  0  0  0  0  0  0  0  0  0  0
   -8.7580   22.0980  -31.2440 S   0  0  0  0  0  0  0  0  0  0  0  0
   -9.6860   21.8390  -30.0900 O   0  0  0  0  0  0  0  0  0  0  0  0
   -9.5630   22.7050  -32.3600 O   0  0  0  0  0  0  0  0  0  0  0  0
   -7.5320   23.2370  -30.7420 N   0  0  0  0  0  0  0  0  0  0  0  0
   -6.6620   23.6310  -31.8480 C   0  0  0  0  0  0  0  0  0  0  0  0
   -5.3480   24.0680  -31.2220 C   0  0  0  0  0  0  0  0  0  0  0  0
   -5.3280   23.4310  -29.8400 C   0  0  0  0  0  0  0  0  0  0  0  0
   -6.6440   22.6760  -29.7250 C   0  0  0  0  0  0  0  0  0  0  0  0
   -6.7310   20.4770  -32.1650 C   0  0  0  0  0  0  0  0  0  0  0  0
   -6.1770   19.2600  -32.5970 C   0  0  0  0  0  0  0  0  0  0  0  0
   -4.7990   19.2080  -33.0030 N   0  0  0  0  0  0  0  0  0  0  0  0
   -3.7830   20.0300  -32.4040 C   0  0  0  0  0  0  0  0  0  0  0  0
   -3.9990   20.5710  -31.2840 O   0  0  0  0  0  0  0  0  0  0  0  0
   -2.4690   20.2210  -33.0620 C   0  0  0  0  0  0  0  0  0  0  0  0
   -2.1010   19.4160  -34.1550 C   0  0  0  0  0  0  0  0  0  0  0  0
   -0.8620   19.5860  -34.7780 C   0  0  0  0  0  0  0  0  0  0  0  0
    0.0330   20.5590  -34.3170 C   0  0  0  0  0  0  0  0  0  0  0  0
    1.5970   20.7780  -35.1080 S   0  0  0  0  0  0  0  0  0  0  0  0
    2.6790   20.7740  -34.0650 O   0  0  0  0  0  0  0  0  0  0  0  0
    1.8450   19.6260  -36.0410 O   0  0  0  0  0  0  0  0  0  0  0  0
    1.6680   22.2740  -36.0050 N   0  0  0  0  0  0  0  0  0  0  0  0
    0.4540   23.0750  -35.7720 C   0  0  0  0  0  0  0  0  0  0  0  0
    0.6090   24.4870  -36.3730 C   0  0  0  0  0  0  0  0  0  0  0  0
    1.7460   24.5630  -37.2110 O   0  0  0  0  0  0  0  0  0  0  0  0
    2.9210   24.3530  -36.4470 C   0  0  0  0  0  0  0  0  0  0  0  0
    2.8620   23.0450  -35.6300 C   0  0  0  0  0  0  0  0  0  0  0  0
   -0.3190   21.3550  -33.2200 C   0  0  0  0  0  0  0  0  0  0  0  0
   -1.5590   21.1880  -32.5960 C   0  0  0  0  0  0  0  0  0  0  0  0
   -5.7950   16.3360  -32.4690 H   0  0  0  0  0  0  0  0  0  0  0  0
   -6.7010   16.4140  -34.0020 H   0  0  0  0  0  0  0  0  0  0  0  0
   -9.0026   17.3259  -32.3978 H   0  0  0  0  0  0  0  0  0  0  0  0
   -9.9545   19.4857  -31.6138 H   0  0  0  0  0  0  0  0  0  0  0  0
   -6.4970   22.7797  -32.5248 H   0  0  0  0  0  0  0  0  0  0  0  0
   -7.1113   24.4411  -32.4412 H   0  0  0  0  0  0  0  0  0  0  0  0
   -4.4981   23.7116  -31.8225 H   0  0  0  0  0  0  0  0  0  0  0  0
   -5.2641   25.1635  -31.1691 H   0  0  0  0  0  0  0  0  0  0  0  0
   -4.4778   22.7392  -29.7472 H   0  0  0  0  0  0  0  0  0  0  0  0
   -5.2162   24.1824  -29.0444 H   0  0  0  0  0  0  0  0  0  0  0  0
   -6.4845   21.6033  -29.9091 H   0  0  0  0  0  0  0  0  0  0  0  0
   -7.0757   22.7782  -28.7184 H   0  0  0  0  0  0  0  0  0  0  0  0
   -6.0977   21.3751  -32.1167 H   0  0  0  0  0  0  0  0  0  0  0  0
   -4.5180   18.5080  -33.7240 H   0  0  0  0  0  0  0  0  0  0  0  0
   -2.7948   18.6457  -34.5227 H   0  0  0  0  0  0  0  0  0  0  0  0
   -0.5884   18.9525  -35.6346 H   0  0  0  0  0  0  0  0  0  0  0  0
   -0.4048   22.5744  -36.2429 H   0  0  0  0  0  0  0  0  0  0  0  0
    0.2941   23.1677  -34.6876 H   0  0  0  0  0  0  0  0  0  0  0  0
   -0.2882   24.7267  -36.9626 H   0  0  0  0  0  0  0  0  0  0  0  0
    0.7342   25.2050  -35.5491 H   0  0  0  0  0  0  0  0  0  0  0  0
    3.7827   24.3056  -37.1290 H   0  0  0  0  0  0  0  0  0  0  0  0
    3.0155   25.1888  -35.7381 H   0  0  0  0  0  0  0  0  0  0  0  0
    3.7618   22.4463  -35.8346 H   0  0  0  0  0  0  0  0  0  0  0  0
    2.8135   23.2893  -34.5586 H   0  0  0  0  0  0  0  0  0  0  0  0
    0.3833   22.1152  -32.8475 H   0  0  0  0  0  0  0  0  0  0  0  0
   -1.8253   21.8174  -31.7341 H   0  0  0  0  0  0  0  0  0  0  0  0
  1  2  1  0
  2  3  2  0
  3  4  1  0
  4  5  2  0
  5  6  1  0
  6  7  2  0
  6  8  2  0
  6  9  1  0
  9 10  1  0
 10 11  1  0
 11 12  1  0
 12 13  1  0
  5 14  1  0
 14 15  2  0
 15 16  1  0
 16 17  1  0
 17 18  2  0
 17 19  1  0
 19 20  2  0
 20 21  1  0
 21 22  2  0
 22 23  1  0
 23 24  2  0
 23 25  2  0
 23 26  1  0
 26 27  1  0
 27 28  1  0
 28 29  1  0
 29 30  1  0
 30 31  1  0
 22 32  1  0
 32 33  2  0
 15  2  1  0
 33 19  1  0
 13  9  1  0
 31 26  1  0
  1 34  1  0
  1 35  1  0
  3 36  1  0
  4 37  1  0
 10 38  1  0
 10 39  1  0
 11 40  1  0
 11 41  1  0
 12 42  1  0
 12 43  1  0
 13 44  1  0
 13 45  1  0
 14 46  1  0
 16 47  1  0
 20 48  1  0
 21 49  1  0
 27 50  1  0
 27 51  1  0
 28 52  1  0
 28 53  1  0
 30 54  1  0
 30 55  1  0
 31 56  1  0
 31 57  1  0
 32 58  1  0
 33 59  1  0
M  END
>  <UniqueID>  (3) 
3

>  <SMILES>  (3) 
Nc1ccc(S(=O)(=O)N2CCCC2)cc1NC(=O)c1ccc(S(=O)(=O)N2CCOCC2)cc1

>  <Energy>  (3) 
75.5538915007238

>  <Genealogy>  (3) 
Nc1ccc(S(=O)(=O)N2CCCC2)cc1NC(=O)c1ccc(S(=O)(=O)N2CCOCC2)cc1 (3D coordinates assigned)
Nc1ccc(S(=O)(=O)N2CCCC2)cc1NC(=O)c1ccc(S(=O)(=O)N2CCOCC2)cc1 (nonaromatic ring conformer: 75.5538915007238 kcal/mol)

>  <smiles>  (3) 
Nc1ccc(S(=O)(=O)N2CCCC2)cc1NC(=O)c1ccc(S(=O)(=O)N2CCOCC2)cc1

>  <score_type>  (3) 
oracle

>  <origin>  (3) 
adgpu

>  <m_score__min__energy>  (3) 
-9.7300000000000004

>  <m_primary>  (3) 
energy

$$$$
3:0
     RDKit          3D

 42 44  0  0  0  0  0  0  0  0999 V2000
   -5.7510   26.2210  -31.1700 O   0  0  0  0  0  0  0  0  0  0  0  0
   -5.2930   25.0940  -30.2870 S   0  0  0  0  0  0  0  0  0  0  0  0
   -5.7030   25.3870  -28.8700 O   0  0  0  0  0  0  0  0  0  0  0  0
   -3.5660   24.9750  -30.3650 N   0  0  0  0  0  0  0  0  0  0  0  0
   -2.7450   24.2030  -29.4770 C   0  0  0  0  0  0  0  0  0  0  0  0
   -3.0860   22.8860  -29.1140 C   0  0  0  0  0  0  0  0  0  0  0  0
   -2.2620   22.1520  -28.2550 C   0  0  0  0  0  0  0  0  0  0  0  0
   -2.6960   20.5100  -27.8140 Cl  0  0  0  0  0  0  0  0  0  0  0  0
   -1.0940   22.7250  -27.7470 C   0  0  0  0  0  0  0  0  0  0  0  0
   -0.7490   24.0320  -28.0960 C   0  0  0  0  0  0  0  0  0  0  0  0
   -1.5660   24.7750  -28.9560 C   0  0  0  0  0  0  0  0  0  0  0  0
   -1.1860   26.0780  -29.2830 O   0  0  0  0  0  0  0  0  0  0  0  0
   -6.0220   23.5960  -30.8540 C   0  0  0  0  0  0  0  0  0  0  0  0
   -5.4390   22.8980  -31.9190 C   0  0  0  0  0  0  0  0  0  0  0  0
   -6.0040   21.7020  -32.3710 C   0  0  0  0  0  0  0  0  0  0  0  0
   -7.1560   21.1920  -31.7570 C   0  0  0  0  0  0  0  0  0  0  0  0
   -7.8970   19.7010  -32.3310 S   0  0  0  0  0  0  0  0  0  0  0  0
   -8.8720   20.0300  -33.4270 O   0  0  0  0  0  0  0  0  0  0  0  0
   -8.6440   19.0320  -31.2090 O   0  0  0  0  0  0  0  0  0  0  0  0
   -6.6530   18.6460  -32.9500 N   0  0  0  0  0  0  0  0  0  0  0  0
   -6.1250   19.1400  -34.2220 C   0  0  0  0  0  0  0  0  0  0  0  0
   -4.7020   18.6140  -34.3300 C   0  0  0  0  0  0  0  0  0  0  0  0
   -4.2920   18.2660  -32.9070 C   0  0  0  0  0  0  0  0  0  0  0  0
   -5.5040   18.5870  -32.0470 C   0  0  0  0  0  0  0  0  0  0  0  0
   -7.7440   21.8940  -30.6960 C   0  0  0  0  0  0  0  0  0  0  0  0
   -7.1800   23.0910  -30.2470 C   0  0  0  0  0  0  0  0  0  0  0  0
   -4.0067   22.4315  -29.5087 H   0  0  0  0  0  0  0  0  0  0  0  0
   -0.4460   22.1466  -27.0720 H   0  0  0  0  0  0  0  0  0  0  0  0
    0.1707   24.4807  -27.6926 H   0  0  0  0  0  0  0  0  0  0  0  0
   -1.2160   26.4300  -30.2310 H   0  0  0  0  0  0  0  0  0  0  0  0
   -4.5328   23.2925  -32.4018 H   0  0  0  0  0  0  0  0  0  0  0  0
   -5.5436   21.1601  -33.2102 H   0  0  0  0  0  0  0  0  0  0  0  0
   -6.7337   18.7648  -35.0579 H   0  0  0  0  0  0  0  0  0  0  0  0
   -6.1479   20.2390  -34.2632 H   0  0  0  0  0  0  0  0  0  0  0  0
   -4.6696   17.7197  -34.9697 H   0  0  0  0  0  0  0  0  0  0  0  0
   -4.0251   19.3540  -34.7818 H   0  0  0  0  0  0  0  0  0  0  0  0
   -4.0375   17.1986  -32.8301 H   0  0  0  0  0  0  0  0  0  0  0  0
   -3.4033   18.8304  -32.5880 H   0  0  0  0  0  0  0  0  0  0  0  0
   -5.6537   17.8000  -31.2932 H   0  0  0  0  0  0  0  0  0  0  0  0
   -5.3702   19.5390  -31.5123 H   0  0  0  0  0  0  0  0  0  0  0  0
   -8.6522   21.5015  -30.2153 H   0  0  0  0  0  0  0  0  0  0  0  0
   -7.6462   23.6386  -29.4147 H   0  0  0  0  0  0  0  0  0  0  0  0
  1  2  2  0
  2  3  2  0
  2  4  1  0
  4  5  1  0
  5  6  2  0
  6  7  1  0
  7  8  1  0
  7  9  2  0
  9 10  1  0
 10 11  2  0
 11 12  1  0
  2 13  1  0
 13 14  2  0
 14 15  1  0
 15 16  2  0
 16 17  1  0
 17 18  2  0
 17 19  2  0
 17 20  1  0
 20 21  1  0
 21 22  1  0
 22 23  1  0
 23 24  1  0
 16 25  1  0
 25 26  2  0
 11  5  1  0
 26 13  1  0
 24 20  1  0
  6 27  1  0
  9 28  1  0
 10 29  1  0
 12 30  1  0
 14 31  1  0
 15 32  1  0
 21 33  1  0
 21 34  1  0
 22 35  1  0
 22 36  1  0
 23 37  1  0
 23 38  1  0
 24 39  1  0
 24 40  1  0
 25 41  1  0
 26 42  1  0
M  CHG  1   4  -1
M  END
>  <UniqueID>  (4) 
4

>  <SMILES>  (4) 
O=S(=O)([N-]c1cc(Cl)ccc1O)c1ccc(S(=O)(=O)N2CCCC2)cc1

>  <Energy>  (4) 
46.99480409620246

>  <Genealogy>  (4) 
O=S(=O)([N-]c1cc(Cl)ccc1O)c1ccc(S(=O)(=O)N2CCCC2)cc1 (protonated)
O=S(=O)([N-]c1cc(Cl)ccc1O)c1ccc(S(=O)(=O)N2CCCC2)cc1 (3D coordinates assigned)
O=S(=O)([N-]c1cc(Cl)ccc1O)c1ccc(S(=O)(=O)N2CCCC2)cc1 (nonaromatic ring conformer: 46.99480409620246 kcal/mol)

>  <smiles>  (4) 
O=S(=O)(Nc1cc(Cl)ccc1O)c1ccc(S(=O)(=O)N2CCCC2)cc1

>  <score_type>  (4) 
oracle

>  <origin>  (4) 
adgpu

>  <m_score__min__energy>  (4) 
-12.880000000000001

>  <m_primary>  (4) 
energy

$$$$
4:0
     RDKit          3D

 53 56  0  0  0  0  0  0  0  0999 V2000
   -6.4710   17.6580  -31.4530 C   0  0  0  0  0  0  0  0  0  0  0  0
   -6.8630   17.6180  -32.9240 C   0  0  0  0  0  0  0  0  0  0  0  0
   -6.6920   18.9760  -33.5490 C   0  0  0  0  0  0  0  0  0  0  0  0
   -6.0900   19.0720  -34.6520 O   0  0  0  0  0  0  0  0  0  0  0  0
   -7.3330   20.1350  -32.9990 N   0  0  0  0  0  0  0  0  0  0  0  0
   -8.7670   20.1730  -32.7040 C   0  0  0  0  0  0  0  0  0  0  0  0
   -8.9730   21.3480  -31.7180 C   0  0  0  0  0  0  0  0  0  0  0  0
   -7.6090   21.9270  -31.5830 C   0  0  0  0  0  0  0  0  0  0  0  0
   -7.2290   23.0610  -30.8640 C   0  0  0  0  0  0  0  0  0  0  0  0
   -5.8850   23.4780  -30.9240 C   0  0  0  0  0  0  0  0  0  0  0  0
   -5.3580   24.9030  -30.0380 S   0  0  0  0  0  0  0  0  0  0  0  0
   -6.5280   25.8170  -29.7950 O   0  0  0  0  0  0  0  0  0  0  0  0
   -4.3300   25.6480  -30.8460 O   0  0  0  0  0  0  0  0  0  0  0  0
   -4.6830   24.4070  -28.5200 N   0  0  0  0  0  0  0  0  0  0  0  0
   -3.5160   23.5860  -28.4330 C   0  0  0  0  0  0  0  0  0  0  0  0
   -3.6380   22.2990  -27.8980 C   0  0  0  0  0  0  0  0  0  0  0  0
   -2.5260   21.4490  -27.8160 C   0  0  0  0  0  0  0  0  0  0  0  0
   -1.2800   21.8870  -28.3090 C   0  0  0  0  0  0  0  0  0  0  0  0
   -1.1510   23.1910  -28.8080 C   0  0  0  0  0  0  0  0  0  0  0  0
   -2.2530   24.0490  -28.8560 C   0  0  0  0  0  0  0  0  0  0  0  0
   -2.0620   25.3580  -29.3000 O   0  0  0  0  0  0  0  0  0  0  0  0
   -0.0550   21.0120  -28.1880 C   0  0  0  0  0  0  0  0  0  0  0  0
   -0.4160   19.5860  -28.0550 N   0  0  0  0  0  0  0  0  0  0  0  0
    0.7950   18.7830  -27.8310 C   0  0  0  0  0  0  0  0  0  0  0  0
   -1.3620   19.4030  -26.9390 C   0  0  0  0  0  0  0  0  0  0  0  0
   -2.7030   20.0470  -27.2940 C   0  0  0  0  0  0  0  0  0  0  0  0
   -4.9680   22.7760  -31.7360 C   0  0  0  0  0  0  0  0  0  0  0  0
   -5.3830   21.6470  -32.4610 C   0  0  0  0  0  0  0  0  0  0  0  0
   -6.7080   21.2170  -32.3270 C   0  0  0  0  0  0  0  0  0  0  0  0
   -7.3732   17.5659  -30.8305 H   0  0  0  0  0  0  0  0  0  0  0  0
   -5.7871   16.8250  -31.2330 H   0  0  0  0  0  0  0  0  0  0  0  0
   -5.9695   18.6120  -31.2330 H   0  0  0  0  0  0  0  0  0  0  0  0
   -6.2237   16.8937  -33.4500 H   0  0  0  0  0  0  0  0  0  0  0  0
   -7.9184   17.3184  -33.0042 H   0  0  0  0  0  0  0  0  0  0  0  0
   -9.3418   20.3436  -33.6262 H   0  0  0  0  0  0  0  0  0  0  0  0
   -9.1133   19.2221  -32.2729 H   0  0  0  0  0  0  0  0  0  0  0  0
   -9.6760   22.0878  -32.1285 H   0  0  0  0  0  0  0  0  0  0  0  0
   -9.4027   21.0316  -30.7561 H   0  0  0  0  0  0  0  0  0  0  0  0
   -7.9635   23.6174  -30.2632 H   0  0  0  0  0  0  0  0  0  0  0  0
   -4.6171   21.9502  -27.5378 H   0  0  0  0  0  0  0  0  0  0  0  0
   -0.1719   23.5424  -29.1655 H   0  0  0  0  0  0  0  0  0  0  0  0
   -2.8130   26.0320  -29.3470 H   0  0  0  0  0  0  0  0  0  0  0  0
    0.5657   21.1407  -29.0870 H   0  0  0  0  0  0  0  0  0  0  0  0
    0.4949   21.3133  -27.2842 H   0  0  0  0  0  0  0  0  0  0  0  0
    0.9653   18.6701  -26.7502 H   0  0  0  0  0  0  0  0  0  0  0  0
    0.6665   17.7905  -28.2876 H   0  0  0  0  0  0  0  0  0  0  0  0
    1.6592   19.2876  -28.2876 H   0  0  0  0  0  0  0  0  0  0  0  0
   -1.5088   18.3284  -26.7557 H   0  0  0  0  0  0  0  0  0  0  0  0
   -0.9562   19.8782  -26.0337 H   0  0  0  0  0  0  0  0  0  0  0  0
   -3.1975   19.4389  -28.0658 H   0  0  0  0  0  0  0  0  0  0  0  0
   -3.3132   20.0955  -26.3800 H   0  0  0  0  0  0  0  0  0  0  0  0
   -3.9235   23.1149  -31.8012 H   0  0  0  0  0  0  0  0  0  0  0  0
   -4.6823   21.1127  -33.1194 H   0  0  0  0  0  0  0  0  0  0  0  0
  1  2  1  0
  2  3  1  0
  3  4  2  0
  3  5  1  0
  5  6  1  0
  6  7  1  0
  7  8  1  0
  8  9  2  0
  9 10  1  0
 10 11  1  0
 11 12  2  0
 11 13  2  0
 11 14  1  0
 14 15  1  0
 15 16  2  0
 16 17  1  0
 17 18  2  0
 18 19  1  0
 19 20  2  0
 20 21  1  0
 18 22  1  0
 22 23  1  0
 23 24  1  0
 23 25  1  0
 25 26  1  0
 10 27  2  0
 27 28  1  0
 28 29  2  0
 29  5  1  0
 29  8  1  0
 20 15  1  0
 26 17  1  0
  1 30  1  0
  1 31  1  0
  1 32  1  0
  2 33  1  0
  2 34  1  0
  6 35  1  0
  6 36  1  0
  7 37  1  0
  7 38  1  0
  9 39  1  0
 16 40  1  0
 19 41  1  0
 21 42  1  0
 22 43  1  0
 22 44  1  0
 24 45  1  0
 24 46  1  0
 24 47  1  0
 25 48  1  0
 25 49  1  0
 26 50  1  0
 26 51  1  0
 27 52  1  0
 28 53  1  0
M  CHG  1  14  -1
M  END
>  <UniqueID>  (5) 
5

>  <SMILES>  (5) 
CCC(=O)N1CCc2cc(S(=O)(=O)[N-]c3cc4c(cc3O)CN(C)CC4)ccc21

>  <Energy>  (5) 
83.82474748906426

>  <Genealogy>  (5) 
CCC(=O)N1CCc2cc(S(=O)(=O)[N-]c3cc4c(cc3O)CN(C)CC4)ccc21 (protonated)
CCC(=O)N1CCc2cc(S(=O)(=O)[N-]c3cc4c(cc3O)CN(C)CC4)ccc21 (3D coordinates assigned)
CCC(=O)N1CCc2cc(S(=O)(=O)[N-]c3cc4c(cc3O)CN(C)CC4)ccc21 (nonaromatic ring conformer: 83.82474748906426 kcal/mol)

>  <smiles>  (5) 
CCC(=O)N1CCc2cc(S(=O)(=O)Nc3cc4c(cc3O)CN(C)CC4)ccc21

>  <score_type>  (5) 
oracle

>  <origin>  (5) 
adgpu

>  <m_score__min__energy>  (5) 
-12.44

>  <m_primary>  (5) 
energy

$$$$
5:0
     RDKit          3D

 54 59  0  0  0  0  0  0  0  0999 V2000
    4.0080   24.1380  -23.0100 C   0  0  0  0  0  0  0  0  0  0  0  0
    3.6450   24.5730  -24.3970 C   0  0  0  0  0  0  0  0  0  0  0  0
    4.3480   24.1760  -25.3640 O   0  0  0  0  0  0  0  0  0  0  0  0
    2.4990   25.3930  -24.6640 N   0  0  0  0  0  0  0  0  0  0  0  0
    1.5590   25.2310  -25.7360 C   0  0  0  0  0  0  0  0  0  0  0  0
    0.7050   26.3100  -26.0600 C   0  0  0  0  0  0  0  0  0  0  0  0
   -0.2560   26.1880  -27.0780 C   0  0  0  0  0  0  0  0  0  0  0  0
   -0.3510   24.9700  -27.7450 C   0  0  0  0  0  0  0  0  0  0  0  0
    0.4600   23.9060  -27.4220 C   0  0  0  0  0  0  0  0  0  0  0  0
    1.4190   23.9980  -26.4140 C   0  0  0  0  0  0  0  0  0  0  0  0
    0.0840   22.7850  -28.2760 C   0  0  0  0  0  0  0  0  0  0  0  0
    0.6100   21.6410  -28.2530 O   0  0  0  0  0  0  0  0  0  0  0  0
   -0.9810   23.1710  -29.1510 N   0  0  0  0  0  0  0  0  0  0  0  0
   -1.6490   22.3380  -30.1130 C   0  0  0  0  0  0  0  0  0  0  0  0
   -2.7510   21.5280  -29.8640 C   0  0  0  0  0  0  0  0  0  0  0  0
   -3.0350   20.9320  -31.0260 N   0  0  0  0  0  0  0  0  0  0  0  0
   -3.9990   20.0560  -31.2980 N   0  0  0  0  0  0  0  0  0  0  0  0
   -4.1190   19.5660  -32.5670 C   0  0  0  0  0  0  0  0  0  0  0  0
   -5.1720   18.5740  -32.8580 C   0  0  0  0  0  0  0  0  0  0  0  0
   -4.9520   17.2530  -33.1900 C   0  0  0  0  0  0  0  0  0  0  0  0
   -6.1390   16.6900  -33.4830 N   0  0  0  0  0  0  0  0  0  0  0  0
   -6.3390   15.3300  -33.9620 C   0  0  0  0  0  0  0  0  0  0  0  0
   -7.1100   17.5800  -33.3640 N   0  0  0  0  0  0  0  0  0  0  0  0
   -6.5530   18.7430  -32.9670 C   0  0  0  0  0  0  0  0  0  0  0  0
   -7.3540   19.9410  -32.6390 C   0  0  0  0  0  0  0  0  0  0  0  0
   -6.7570   21.2130  -32.5650 C   0  0  0  0  0  0  0  0  0  0  0  0
   -7.5260   22.3340  -32.2390 C   0  0  0  0  0  0  0  0  0  0  0  0
   -8.8910   22.1940  -31.9680 C   0  0  0  0  0  0  0  0  0  0  0  0
   -9.6340   23.2830  -31.6490 F   0  0  0  0  0  0  0  0  0  0  0  0
   -9.4860   20.9300  -32.0170 C   0  0  0  0  0  0  0  0  0  0  0  0
   -8.7200   19.8070  -32.3430 C   0  0  0  0  0  0  0  0  0  0  0  0
   -3.1920   19.9750  -33.5540 C   0  0  0  0  0  0  0  0  0  0  0  0
   -2.1870   20.9010  -33.2330 C   0  0  0  0  0  0  0  0  0  0  0  0
   -2.1460   21.3670  -31.9260 C   0  0  0  0  0  0  0  0  0  0  0  0
   -1.2590   22.2430  -31.4120 N   0  0  0  0  0  0  0  0  0  0  0  0
   -1.2490   24.5370  -28.8110 C   0  0  0  0  0  0  0  0  0  0  0  0
   -2.1390   25.2490  -29.3460 O   0  0  0  0  0  0  0  0  0  0  0  0
    3.4817   24.7687  -22.2784 H   0  0  0  0  0  0  0  0  0  0  0  0
    3.7148   23.0875  -22.8666 H   0  0  0  0  0  0  0  0  0  0  0  0
    5.0940   24.2384  -22.8666 H   0  0  0  0  0  0  0  0  0  0  0  0
    0.7939   27.2574  -25.5081 H   0  0  0  0  0  0  0  0  0  0  0  0
   -0.9136   27.0300  -27.3400 H   0  0  0  0  0  0  0  0  0  0  0  0
    2.0494   23.1351  -26.1533 H   0  0  0  0  0  0  0  0  0  0  0  0
   -3.2801   21.4033  -28.9077 H   0  0  0  0  0  0  0  0  0  0  0  0
   -3.9754   16.7473  -33.2115 H   0  0  0  0  0  0  0  0  0  0  0  0
   -6.4390   14.6498  -33.1033 H   0  0  0  0  0  0  0  0  0  0  0  0
   -7.2531   15.2869  -34.5723 H   0  0  0  0  0  0  0  0  0  0  0  0
   -5.4760   15.0256  -34.5723 H   0  0  0  0  0  0  0  0  0  0  0  0
   -5.6811   21.3258  -32.7644 H   0  0  0  0  0  0  0  0  0  0  0  0
   -7.0567   23.3279  -32.1955 H   0  0  0  0  0  0  0  0  0  0  0  0
  -10.5584   20.8189  -31.7987 H   0  0  0  0  0  0  0  0  0  0  0  0
   -9.1900   18.8128  -32.3678 H   0  0  0  0  0  0  0  0  0  0  0  0
   -3.2587   19.5673  -34.5735 H   0  0  0  0  0  0  0  0  0  0  0  0
   -1.4619   21.2432  -33.9860 H   0  0  0  0  0  0  0  0  0  0  0  0
  1  2  1  0
  2  3  2  0
  2  4  1  0
  4  5  1  0
  5  6  2  0
  6  7  1  0
  7  8  2  0
  8  9  1  0
  9 10  2  0
  9 11  1  0
 11 12  2  0
 11 13  1  0
 13 14  1  0
 14 15  2  0
 15 16  1  0
 16 17  1  0
 17 18  2  0
 18 19  1  0
 19 20  2  0
 20 21  1  0
 21 22  1  0
 21 23  1  0
 23 24  2  0
 24 25  1  0
 25 26  2  0
 26 27  1  0
 27 28  2  0
 28 29  1  0
 28 30  1  0
 30 31  2  0
 18 32  1  0
 32 33  2  0
 33 34  1  0
 34 35  2  0
 13 36  1  0
 36 37  2  0
 10  5  1  0
 35 14  1  0
 36  8  1  0
 34 16  1  0
 24 19  1  0
 31 25  1  0
  1 38  1  0
  1 39  1  0
  1 40  1  0
  6 41  1  0
  7 42  1  0
 10 43  1  0
 15 44  1  0
 20 45  1  0
 22 46  1  0
 22 47  1  0
 22 48  1  0
 26 49  1  0
 27 50  1  0
 30 51  1  0
 31 52  1  0
 32 53  1  0
 33 54  1  0
M  CHG  1   4  -1
M  END
>  <UniqueID>  (6) 
6

>  <SMILES>  (6) 
CC(=O)[N-]c1ccc2c(c1)C(=O)N(c1cn3nc(-c4cn(C)nc4-c4ccc(F)cc4)ccc3n1)C2=O

>  <Energy>  (6) 
172.3918678547532

>  <Genealogy>  (6) 
CC(=O)[N-]c1ccc2c(c1)C(=O)N(c1cn3nc(-c4cn(C)nc4-c4ccc(F)cc4)ccc3n1)C2=O (protonated)
CC(=O)[N-]c1ccc2c(c1)C(=O)N(c1cn3nc(-c4cn(C)nc4-c4ccc(F)cc4)ccc3n1)C2=O (3D coordinates assigned)
CC(=O)[N-]c1ccc2c(c1)C(=O)N(c1cn3nc(-c4cn(C)nc4-c4ccc(F)cc4)ccc3n1)C2=O (nonaromatic ring conformer: 172.3918678547532 kcal/mol)

>  <smiles>  (6) 
CC(=O)Nc1ccc2c(c1)C(=O)N(c1cn3nc(-c4cn(C)nc4-c4ccc(F)cc4)ccc3n1)C2=O

>  <score_type>  (6) 
oracle

>  <origin>  (6) 
adgpu

>  <m_score__min__energy>  (6) 
-9.4800000000000004

>  <m_primary>  (6) 
energy

$$$$
6:0
     RDKit          3D

 45 47  0  0  0  0  0  0  0  0999 V2000
   -4.6750   25.6540  -27.9160 H   0  0  0  0  0  0  0  0  0  0  0  0
   -5.2980   24.9770  -28.3360 O   0  0  0  0  0  0  0  0  0  0  0  0
   -5.0240   24.3990  -29.5730 C   0  0  0  0  0  0  0  0  0  0  0  0
   -5.7430   24.6150  -30.7220 C   0  0  0  0  0  0  0  0  0  0  0  0
   -6.6481   25.2349  -30.8022 H   0  0  0  0  0  0  0  0  0  0  0  0
   -5.1610   23.9450  -31.7360 N   0  0  0  0  0  0  0  0  0  0  0  0
   -4.1070   23.3190  -31.1670 C   0  0  0  0  0  0  0  0  0  0  0  0
   -3.3190   22.5540  -31.8710 N   0  0  0  0  0  0  0  0  0  0  0  0
   -2.2810   21.6920  -31.3890 C   0  0  0  0  0  0  0  0  0  0  0  0
   -0.9530   21.9350  -31.7640 C   0  0  0  0  0  0  0  0  0  0  0  0
   -0.7107   22.8055  -32.3913 H   0  0  0  0  0  0  0  0  0  0  0  0
    0.0650   21.0740  -31.3430 C   0  0  0  0  0  0  0  0  0  0  0  0
    1.1093   21.2800  -31.6207 H   0  0  0  0  0  0  0  0  0  0  0  0
   -0.2440   19.9510  -30.5690 C   0  0  0  0  0  0  0  0  0  0  0  0
    1.4510   19.3100  -30.3820 S   0  0  0  0  0  0  0  0  0  0  0  0
    1.4400   20.7820  -28.1830 F   0  0  0  0  0  0  0  0  0  0  0  0
    1.4410   20.7820  -28.1830 F   0  0  0  0  0  0  0  0  0  0  0  0
    1.4410   20.7820  -28.1830 F   0  0  0  0  0  0  0  0  0  0  0  0
    1.4400   20.7820  -28.1830 F   0  0  0  0  0  0  0  0  0  0  0  0
    1.4410   20.7830  -28.1830 F   0  0  0  0  0  0  0  0  0  0  0  0
   -1.5700   19.6820  -30.2270 C   0  0  0  0  0  0  0  0  0  0  0  0
   -1.8130   18.7921  -29.6277 H   0  0  0  0  0  0  0  0  0  0  0  0
   -2.5900   20.5420  -30.6450 C   0  0  0  0  0  0  0  0  0  0  0  0
   -3.6363   20.3173  -30.3906 H   0  0  0  0  0  0  0  0  0  0  0  0
   -3.9890   23.5790  -29.8360 N   0  0  0  0  0  0  0  0  0  0  0  0
   -2.9020   23.3040  -28.9370 C   0  0  0  0  0  0  0  0  0  0  0  0
   -2.8520   22.0770  -28.2610 C   0  0  0  0  0  0  0  0  0  0  0  0
   -3.6405   21.3283  -28.4272 H   0  0  0  0  0  0  0  0  0  0  0  0
   -1.8020   21.7990  -27.3740 C   0  0  0  0  0  0  0  0  0  0  0  0
   -1.7290   20.2400  -26.5580 S   0  0  0  0  0  0  0  0  0  0  0  0
   -1.5650   20.4590  -25.0800 O   0  0  0  0  0  0  0  0  0  0  0  0
   -0.5470   19.4570  -27.0570 O   0  0  0  0  0  0  0  0  0  0  0  0
   -3.2330   19.3260  -26.8540 C   0  0  0  0  0  0  0  0  0  0  0  0
   -3.0676   18.6197  -27.6809 H   0  0  0  0  0  0  0  0  0  0  0  0
   -4.0312   20.0387  -27.1089 H   0  0  0  0  0  0  0  0  0  0  0  0
   -3.6550   18.5490  -25.6120 C   0  0  0  0  0  0  0  0  0  0  0  0
   -3.3533   19.1046  -24.7118 H   0  0  0  0  0  0  0  0  0  0  0  0
   -4.7474   18.4196  -25.6140 H   0  0  0  0  0  0  0  0  0  0  0  0
   -3.1689   17.5623  -25.6140 H   0  0  0  0  0  0  0  0  0  0  0  0
   -0.8030   22.7570  -27.1620 C   0  0  0  0  0  0  0  0  0  0  0  0
    0.0270   22.5403  -26.4735 H   0  0  0  0  0  0  0  0  0  0  0  0
   -0.8570   23.9870  -27.8220 C   0  0  0  0  0  0  0  0  0  0  0  0
   -0.0708   24.7368  -27.6495 H   0  0  0  0  0  0  0  0  0  0  0  0
   -1.9070   24.2680  -28.7010 C   0  0  0  0  0  0  0  0  0  0  0  0
   -1.9600   25.5050  -29.3330 O   0  0  0  0  0  0  0  0  0  0  0  0
  1  2  1  0
  2  3  1  0
  3  4  2  0
  4  5  1  0
  4  6  1  0
  6  7  1  0
  7  8  2  0
  8  9  1  0
  9 10  2  0
 10 11  1  0
 10 12  1  0
 12 13  1  0
 12 14  2  0
 14 15  1  0
 15 16  1  0
 15 17  1  0
 15 18  1  0
 15 19  1  0
 15 20  1  0
 14 21  1  0
 21 22  1  0
 21 23  2  0
 23 24  1  0
  7 25  1  0
 25 26  1  0
 26 27  2  0
 27 28  1  0
 27 29  1  0
 29 30  1  0
 30 31  2  0
 30 32  2  0
 30 33  1  0
 33 34  1  0
 33 35  1  0
 33 36  1  0
 36 37  1  0
 36 38  1  0
 36 39  1  0
 29 40  2  0
 40 41  1  0
 40 42  1  0
 42 43  1  0
 42 44  2  0
 44 45  1  0
 25  3  1  0
 44 26  1  0
 23  9  1  0
M  CHG  2   6  -1  45  -1
M  END
>  <UniqueID>  (7) 
7

>  <SMILES>  (7) 
CCS(=O)(=O)c1ccc([O-])c(-n2c(O)c[n-]/c2=N/c2ccc(S(F)(F)(F)(F)F)cc2)c1

>  <Energy>  (7) 
78.7877691721858

>  <Genealogy>  (7) 
CCS(=O)(=O)c1ccc([O-])c(-n2c(O)c[n-]c2=Nc2ccc(S(F)(F)(F)(F)F)cc2)c1 (protonated)
CCS(=O)(=O)c1ccc([O-])c(-n2c(O)c[n-]/c2=N/c2ccc(S(F)(F)(F)(F)F)cc2)c1 (cis-trans isomerization)
CCS(=O)(=O)c1ccc([O-])c(-n2c(O)c[n-]/c2=N/c2ccc(S(F)(F)(F)(F)F)cc2)c1 (3D coordinates assigned)
CCS(=O)(=O)c1ccc([O-])c(-n2c(O)c[n-]/c2=N/c2ccc(S(F)(F)(F)(F)F)cc2)c1 (optimized conformer: 78.7877691721858 kcal/mol)

>  <smiles>  (7) 
CCS(=O)(=O)c1ccc(O)c(-n2c(O)c[nH]c2=Nc2ccc(S(F)(F)(F)(F)F)cc2)c1

>  <score_type>  (7) 
oracle

>  <origin>  (7) 
adgpu

>  <m_score__min__energy>  (7) 
-10.800000000000001

>  <m_primary>  (7) 
energy

$$$$
7:0
     RDKit          3D

 64 67  0  0  0  0  0  0  0  0999 V2000
    2.7110   23.5660  -35.4800 C   0  0  0  0  0  0  0  0  0  0  0  0
    1.9510   22.5490  -36.2260 N   0  0  0  0  0  0  0  0  0  0  0  0
    0.4830   22.7260  -36.0870 C   0  0  0  0  0  0  0  0  0  0  0  0
   -0.1380   21.8390  -34.9900 C   0  0  0  0  0  0  0  0  0  0  0  0
    0.8550   21.5740  -33.9420 N   0  0  0  0  0  0  0  0  0  0  0  0
    0.1010   20.7650  -32.5910 S   0  0  0  0  0  0  0  0  0  0  0  0
    0.9790   19.6450  -32.1040 O   0  0  0  0  0  0  0  0  0  0  0  0
   -0.1050   21.7390  -31.4640 O   0  0  0  0  0  0  0  0  0  0  0  0
   -1.4660   20.1340  -33.0860 C   0  0  0  0  0  0  0  0  0  0  0  0
   -1.5830   18.7920  -33.4720 C   0  0  0  0  0  0  0  0  0  0  0  0
   -2.8260   18.2740  -33.8470 C   0  0  0  0  0  0  0  0  0  0  0  0
   -3.9650   19.0940  -33.8440 C   0  0  0  0  0  0  0  0  0  0  0  0
   -5.3070   18.5250  -34.2120 C   0  0  0  0  0  0  0  0  0  0  0  0
   -6.3170   19.5850  -34.1820 N   0  0  0  0  0  0  0  0  0  0  0  0
   -7.0360   19.6690  -32.6020 S   0  0  0  0  0  0  0  0  0  0  0  0
   -8.4740   19.2390  -32.6910 O   0  0  0  0  0  0  0  0  0  0  0  0
   -6.3190   18.7390  -31.6610 O   0  0  0  0  0  0  0  0  0  0  0  0
   -6.9660   21.3200  -31.9920 C   0  0  0  0  0  0  0  0  0  0  0  0
   -8.1220   22.1090  -31.9760 C   0  0  0  0  0  0  0  0  0  0  0  0
   -8.0630   23.4310  -31.5280 C   0  0  0  0  0  0  0  0  0  0  0  0
   -6.8510   23.9700  -31.0900 C   0  0  0  0  0  0  0  0  0  0  0  0
   -5.6860   23.1850  -31.0870 C   0  0  0  0  0  0  0  0  0  0  0  0
   -4.4050   23.7660  -30.6360 C   0  0  0  0  0  0  0  0  0  0  0  0
   -4.1890   24.9930  -30.8360 O   0  0  0  0  0  0  0  0  0  0  0  0
   -3.4110   22.9730  -29.9620 N   0  0  0  0  0  0  0  0  0  0  0  0
   -3.7040   21.7500  -29.2320 C   0  0  0  0  0  0  0  0  0  0  0  0
   -2.5060   21.5200  -28.3220 C   0  0  0  0  0  0  0  0  0  0  0  0
   -1.3780   22.3660  -28.9040 C   0  0  0  0  0  0  0  0  0  0  0  0
   -2.0630   23.4550  -29.7170 C   0  0  0  0  0  0  0  0  0  0  0  0
   -5.7480   21.8630  -31.5590 C   0  0  0  0  0  0  0  0  0  0  0  0
   -3.8500   20.4320  -33.4340 C   0  0  0  0  0  0  0  0  0  0  0  0
   -2.6050   20.9500  -33.0610 C   0  0  0  0  0  0  0  0  0  0  0  0
    1.9650   20.7540  -34.4640 C   0  0  0  0  0  0  0  0  0  0  0  0
    2.3840   21.1780  -35.8910 C   0  0  0  0  0  0  0  0  0  0  0  0
    2.5857   23.3984  -34.4001 H   0  0  0  0  0  0  0  0  0  0  0  0
    3.7769   23.4920  -35.7413 H   0  0  0  0  0  0  0  0  0  0  0  0
    2.3380   24.5673  -35.7413 H   0  0  0  0  0  0  0  0  0  0  0  0
    0.2802   23.7788  -35.8408 H   0  0  0  0  0  0  0  0  0  0  0  0
    0.0274   22.4281  -37.0429 H   0  0  0  0  0  0  0  0  0  0  0  0
   -1.0040   22.3552  -34.5501 H   0  0  0  0  0  0  0  0  0  0  0  0
   -0.4603   20.8855  -35.4338 H   0  0  0  0  0  0  0  0  0  0  0  0
   -0.6940   18.1442  -33.4799 H   0  0  0  0  0  0  0  0  0  0  0  0
   -2.9118   17.2188  -34.1458 H   0  0  0  0  0  0  0  0  0  0  0  0
   -5.2573   18.0957  -35.2235 H   0  0  0  0  0  0  0  0  0  0  0  0
   -5.5804   17.7405  -33.4911 H   0  0  0  0  0  0  0  0  0  0  0  0
   -7.0820   19.3270  -34.8470 H   0  0  0  0  0  0  0  0  0  0  0  0
   -9.0790   21.6873  -32.3169 H   0  0  0  0  0  0  0  0  0  0  0  0
   -8.9730   24.0489  -31.5202 H   0  0  0  0  0  0  0  0  0  0  0  0
   -6.8086   25.0139  -30.7459 H   0  0  0  0  0  0  0  0  0  0  0  0
   -4.6213   21.8685  -28.6367 H   0  0  0  0  0  0  0  0  0  0  0  0
   -3.8688   20.9002  -29.9108 H   0  0  0  0  0  0  0  0  0  0  0  0
   -2.7365   21.8417  -27.2956 H   0  0  0  0  0  0  0  0  0  0  0  0
   -2.2318   20.4559  -28.2725 H   0  0  0  0  0  0  0  0  0  0  0  0
   -0.7754   22.8099  -28.0979 H   0  0  0  0  0  0  0  0  0  0  0  0
   -0.6946   21.7649  -29.5218 H   0  0  0  0  0  0  0  0  0  0  0  0
   -2.0897   24.3974  -29.1503 H   0  0  0  0  0  0  0  0  0  0  0  0
   -1.5275   23.6583  -30.6561 H   0  0  0  0  0  0  0  0  0  0  0  0
   -4.8351   21.2501  -31.5890 H   0  0  0  0  0  0  0  0  0  0  0  0
   -4.7419   21.0752  -33.4060 H   0  0  0  0  0  0  0  0  0  0  0  0
   -2.5200   22.0009  -32.7472 H   0  0  0  0  0  0  0  0  0  0  0  0
    2.8306   20.8619  -33.7939 H   0  0  0  0  0  0  0  0  0  0  0  0
    1.6213   19.7101  -34.5093 H   0  0  0  0  0  0  0  0  0  0  0  0
    3.4802   21.1265  -35.9662 H   0  0  0  0  0  0  0  0  0  0  0  0
    1.8961   20.4921  -36.5991 H   0  0  0  0  0  0  0  0  0  0  0  0
  1  2  1  0
  2  3  1  0
  3  4  1  0
  4  5  1  0
  5  6  1  0
  6  7  2  0
  6  8  2  0
  6  9  1  0
  9 10  2  0
 10 11  1  0
 11 12  2  0
 12 13  1  0
 13 14  1  0
 14 15  1  0
 15 16  2  0
 15 17  2  0
 15 18  1  0
 18 19  2  0
 19 20  1  0
 20 21  2  0
 21 22  1  0
 22 23  1  0
 23 24  2  0
 23 25  1  0
 25 26  1  0
 26 27  1  0
 27 28  1  0
 28 29  1  0
 22 30  2  0
 12 31  1  0
 31 32  2  0
  5 33  1  0
 33 34  1  0
 34  2  1  0
 32  9  1  0
 30 18  1  0
 29 25  1  0
  1 35  1  0
  1 36  1  0
  1 37  1  0
  3 38  1  0
  3 39  1  0
  4 40  1  0
  4 41  1  0
 10 42  1  0
 11 43  1  0
 13 44  1  0
 13 45  1  0
 14 46  1  0
 19 47  1  0
 20 48  1  0
 21 49  1  0
 26 50  1  0
 26 51  1  0
 27 52  1  0
 27 53  1  0
 28 54  1  0
 28 55  1  0
 29 56  1  0
 29 57  1  0
 30 58  1  0
 31 59  1  0
 32 60  1  0
 33 61  1  0
 33 62  1  0
 34 63  1  0
 34 64  1  0
M  END
>  <UniqueID>  (8) 
8

>  <SMILES>  (8) 
CN1CCN(S(=O)(=O)c2ccc(CNS(=O)(=O)c3cccc(C(=O)N4CCCC4)c3)cc2)CC1

>  <Energy>  (8) 
74.96995269485137

>  <Genealogy>  (8) 
CN1CCN(S(=O)(=O)c2ccc(CNS(=O)(=O)c3cccc(C(=O)N4CCCC4)c3)cc2)CC1 (3D coordinates assigned)
CN1CCN(S(=O)(=O)c2ccc(CNS(=O)(=O)c3cccc(C(=O)N4CCCC4)c3)cc2)CC1 (nonaromatic ring conformer: 74.96995269485137 kcal/mol)

>  <smiles>  (8) 
CN1CCN(S(=O)(=O)c2ccc(CNS(=O)(=O)c3cccc(C(=O)N4CCCC4)c3)cc2)CC1

>  <score_type>  (8) 
oracle

>  <origin>  (8) 
adgpu

>  <m_score__min__energy>  (8) 
-10.92

>  <m_primary>  (8) 
energy

$$$$
8:0
     RDKit          3D

 51 54  0  0  0  0  0  0  0  0999 V2000
   -3.6810   25.2940  -30.5740 O   0  0  0  0  0  0  0  0  0  0  0  0
   -3.4060   24.3820  -29.7490 C   0  0  0  0  0  0  0  0  0  0  0  0
   -4.3890   23.3910  -29.4050 N   0  0  0  0  0  0  0  0  0  0  0  0
   -5.6380   23.2180  -30.0910 C   0  0  0  0  0  0  0  0  0  0  0  0
   -6.5110   24.2400  -30.4120 C   0  0  0  0  0  0  0  0  0  0  0  0
   -7.6000   23.6360  -31.0090 C   0  0  0  0  0  0  0  0  0  0  0  0
   -7.4150   22.3050  -31.0500 N   0  0  0  0  0  0  0  0  0  0  0  0
   -8.5490   21.1470  -31.6570 S   0  0  0  0  0  0  0  0  0  0  0  0
   -9.3480   20.5850  -30.5130 O   0  0  0  0  0  0  0  0  0  0  0  0
   -9.4950   21.8130  -32.6160 O   0  0  0  0  0  0  0  0  0  0  0  0
   -7.6760   19.8680  -32.4920 C   0  0  0  0  0  0  0  0  0  0  0  0
   -6.7630   20.1740  -33.5110 C   0  0  0  0  0  0  0  0  0  0  0  0
   -6.0900   19.1460  -34.1800 C   0  0  0  0  0  0  0  0  0  0  0  0
   -6.3300   17.8110  -33.8380 C   0  0  0  0  0  0  0  0  0  0  0  0
   -5.6780   16.8180  -34.4890 F   0  0  0  0  0  0  0  0  0  0  0  0
   -7.2450   17.5050  -32.8270 C   0  0  0  0  0  0  0  0  0  0  0  0
   -7.9200   18.5290  -32.1580 C   0  0  0  0  0  0  0  0  0  0  0  0
   -6.2280   22.0280  -30.4800 C   0  0  0  0  0  0  0  0  0  0  0  0
   -2.0830   24.3780  -29.0880 C   0  0  0  0  0  0  0  0  0  0  0  0
   -1.6990   25.5200  -28.3680 C   0  0  0  0  0  0  0  0  0  0  0  0
   -0.4370   25.5820  -27.7860 C   0  0  0  0  0  0  0  0  0  0  0  0
    0.4230   24.5410  -27.9170 N   0  0  0  0  0  0  0  0  0  0  0  0
    0.0860   23.4150  -28.5960 C   0  0  0  0  0  0  0  0  0  0  0  0
   -1.1830   23.2840  -29.1890 C   0  0  0  0  0  0  0  0  0  0  0  0
   -1.6390   21.7790  -30.0350 S   0  0  0  0  0  0  0  0  0  0  0  0
   -0.5120   20.7940  -29.8970 O   0  0  0  0  0  0  0  0  0  0  0  0
   -2.8580   21.2100  -29.3650 O   0  0  0  0  0  0  0  0  0  0  0  0
   -1.9680   21.9310  -31.7480 N   0  0  0  0  0  0  0  0  0  0  0  0
   -3.3910   21.8280  -32.0720 C   0  0  0  0  0  0  0  0  0  0  0  0
   -3.4790   21.2160  -33.4560 C   0  0  0  0  0  0  0  0  0  0  0  0
   -2.2060   20.4060  -33.6100 C   0  0  0  0  0  0  0  0  0  0  0  0
   -1.2350   20.9660  -32.5750 C   0  0  0  0  0  0  0  0  0  0  0  0
   -4.1960   22.7560  -28.5990 H   0  0  0  0  0  0  0  0  0  0  0  0
   -6.3677   25.3152  -30.2293 H   0  0  0  0  0  0  0  0  0  0  0  0
   -8.4852   24.1642  -31.3930 H   0  0  0  0  0  0  0  0  0  0  0  0
   -6.5757   21.2228  -33.7846 H   0  0  0  0  0  0  0  0  0  0  0  0
   -5.3708   19.3880  -34.9764 H   0  0  0  0  0  0  0  0  0  0  0  0
   -7.4342   16.4555  -32.5574 H   0  0  0  0  0  0  0  0  0  0  0  0
   -8.6445   18.2838  -31.3675 H   0  0  0  0  0  0  0  0  0  0  0  0
   -5.7986   21.0242  -30.3457 H   0  0  0  0  0  0  0  0  0  0  0  0
   -2.3953   26.3652  -28.2640 H   0  0  0  0  0  0  0  0  0  0  0  0
   -0.1363   26.4755  -27.2193 H   0  0  0  0  0  0  0  0  0  0  0  0
    0.8140   22.5950  -28.6836 H   0  0  0  0  0  0  0  0  0  0  0  0
   -3.9010   21.1847  -31.3398 H   0  0  0  0  0  0  0  0  0  0  0  0
   -3.8758   22.8150  -32.0441 H   0  0  0  0  0  0  0  0  0  0  0  0
   -4.3627   20.5658  -33.5355 H   0  0  0  0  0  0  0  0  0  0  0  0
   -3.5787   21.9811  -34.2400 H   0  0  0  0  0  0  0  0  0  0  0  0
   -2.4025   19.3413  -33.4154 H   0  0  0  0  0  0  0  0  0  0  0  0
   -1.7994   20.4772  -34.6296 H   0  0  0  0  0  0  0  0  0  0  0  0
   -0.8484   20.1511  -31.9453 H   0  0  0  0  0  0  0  0  0  0  0  0
   -0.3837   21.4544  -33.0717 H   0  0  0  0  0  0  0  0  0  0  0  0
  1  2  2  0
  2  3  1  0
  3  4  1  0
  4  5  1  0
  5  6  2  0
  6  7  1  0
  7  8  1  0
  8  9  2  0
  8 10  2  0
  8 11  1  0
 11 12  2  0
 12 13  1  0
 13 14  2  0
 14 15  1  0
 14 16  1  0
 16 17  2  0
  7 18  1  0
  2 19  1  0
 19 20  2  0
 20 21  1  0
 21 22  2  0
 22 23  1  0
 23 24  2  0
 24 25  1  0
 25 26  2  0
 25 27  2  0
 25 28  1  0
 28 29  1  0
 29 30  1  0
 30 31  1  0
 31 32  1  0
 18  4  2  0
 24 19  1  0
 32 28  1  0
 17 11  1  0
  3 33  1  0
  5 34  1  0
  6 35  1  0
 12 36  1  0
 13 37  1  0
 16 38  1  0
 17 39  1  0
 18 40  1  0
 20 41  1  0
 21 42  1  0
 23 43  1  0
 29 44  1  0
 29 45  1  0
 30 46  1  0
 30 47  1  0
 31 48  1  0
 31 49  1  0
 32 50  1  0
 32 51  1  0
M  END
>  <UniqueID>  (9) 
9

>  <SMILES>  (9) 
O=C(Nc1ccn(S(=O)(=O)c2ccc(F)cc2)c1)c1ccncc1S(=O)(=O)N1CCCC1

>  <Energy>  (9) 
97.06718180186796

>  <Genealogy>  (9) 
O=C(Nc1ccn(S(=O)(=O)c2ccc(F)cc2)c1)c1ccncc1S(=O)(=O)N1CCCC1 (3D coordinates assigned)
O=C(Nc1ccn(S(=O)(=O)c2ccc(F)cc2)c1)c1ccncc1S(=O)(=O)N1CCCC1 (nonaromatic ring conformer: 97.06718180186796 kcal/mol)

>  <smiles>  (9) 
O=C(Nc1ccn(S(=O)(=O)c2ccc(F)cc2)c1)c1ccncc1S(=O)(=O)N1CCCC1

>  <score_type>  (9) 
oracle

>  <origin>  (9) 
adgpu

>  <m_score__min__energy>  (9) 
-9.7799999999999994

>  <m_primary>  (9) 
energy

$$$$
9:0
     RDKit          3D

 40 42  0  0  0  0  0  0  0  0999 V2000
   -4.1980   25.6660  -30.4020 O   0  0  0  0  0  0  0  0  0  0  0  0
   -3.9220   24.4390  -30.4530 C   0  0  0  0  0  0  0  0  0  0  0  0
   -4.3620   23.6840  -31.5920 N   0  0  0  0  0  0  0  0  0  0  0  0
   -3.9200   22.3680  -31.9530 C   0  0  0  0  0  0  0  0  0  0  0  0
   -2.5600   22.0140  -31.9290 C   0  0  0  0  0  0  0  0  0  0  0  0
   -2.1650   20.7210  -32.2830 C   0  0  0  0  0  0  0  0  0  0  0  0
   -3.1200   19.7700  -32.6490 C   0  0  0  0  0  0  0  0  0  0  0  0
   -4.4820   20.1070  -32.6500 C   0  0  0  0  0  0  0  0  0  0  0  0
   -5.7010   18.9300  -33.1280 S   0  0  0  0  0  0  0  0  0  0  0  0
   -6.0080   19.0690  -34.5950 O   0  0  0  0  0  0  0  0  0  0  0  0
   -5.1710   17.5470  -32.8720 O   0  0  0  0  0  0  0  0  0  0  0  0
   -7.1440   19.1880  -32.1800 N   0  0  0  0  0  0  0  0  0  0  0  0
   -7.9390   20.2930  -32.7150 C   0  0  0  0  0  0  0  0  0  0  0  0
   -9.3820   20.0170  -32.3230 C   0  0  0  0  0  0  0  0  0  0  0  0
   -9.4350   18.5340  -31.9920 C   0  0  0  0  0  0  0  0  0  0  0  0
   -8.0220   18.0200  -32.2160 C   0  0  0  0  0  0  0  0  0  0  0  0
   -4.8760   21.4020  -32.2950 C   0  0  0  0  0  0  0  0  0  0  0  0
   -3.0980   23.8280  -29.3800 C   0  0  0  0  0  0  0  0  0  0  0  0
   -3.4300   22.5580  -28.8750 C   0  0  0  0  0  0  0  0  0  0  0  0
   -2.6590   21.9710  -27.8700 C   0  0  0  0  0  0  0  0  0  0  0  0
   -1.5430   22.6390  -27.3610 C   0  0  0  0  0  0  0  0  0  0  0  0
   -0.7780   22.0530  -26.3620 O   0  0  0  0  0  0  0  0  0  0  0  0
   -1.1960   23.8970  -27.8620 C   0  0  0  0  0  0  0  0  0  0  0  0
   -1.9650   24.4940  -28.8670 C   0  0  0  0  0  0  0  0  0  0  0  0
   -1.6060   25.7540  -29.3350 O   0  0  0  0  0  0  0  0  0  0  0  0
   -1.8049   22.7563  -31.6309 H   0  0  0  0  0  0  0  0  0  0  0  0
   -1.0986   20.4515  -32.2733 H   0  0  0  0  0  0  0  0  0  0  0  0
   -2.8043   18.7563  -32.9366 H   0  0  0  0  0  0  0  0  0  0  0  0
   -7.6035   21.2469  -32.2819 H   0  0  0  0  0  0  0  0  0  0  0  0
   -7.8312   20.3680  -33.8071 H   0  0  0  0  0  0  0  0  0  0  0  0
   -9.6638   20.6173  -31.4454 H   0  0  0  0  0  0  0  0  0  0  0  0
  -10.0821   20.2810  -33.1293 H   0  0  0  0  0  0  0  0  0  0  0  0
   -9.7378   18.3838  -30.9452 H   0  0  0  0  0  0  0  0  0  0  0  0
  -10.1679   18.0014  -32.6159 H   0  0  0  0  0  0  0  0  0  0  0  0
   -7.7449   17.3119  -31.4212 H   0  0  0  0  0  0  0  0  0  0  0  0
   -7.9394   17.4902  -33.1765 H   0  0  0  0  0  0  0  0  0  0  0  0
   -5.9443   21.6638  -32.2843 H   0  0  0  0  0  0  0  0  0  0  0  0
   -4.3040   22.0231  -29.2750 H   0  0  0  0  0  0  0  0  0  0  0  0
   -2.9311   20.9799  -27.4780 H   0  0  0  0  0  0  0  0  0  0  0  0
   -0.3140   24.4202  -27.4642 H   0  0  0  0  0  0  0  0  0  0  0  0
  1  2  2  0
  2  3  1  0
  3  4  1  0
  4  5  2  0
  5  6  1  0
  6  7  2  0
  7  8  1  0
  8  9  1  0
  9 10  2  0
  9 11  2  0
  9 12  1  0
 12 13  1  0
 13 14  1  0
 14 15  1  0
 15 16  1  0
  8 17  2  0
  2 18  1  0
 18 19  2  0
 19 20  1  0
 20 21  2  0
 21 22  1  0
 21 23  1  0
 23 24  2  0
 24 25  1  0
 17  4  1  0
 24 18  1  0
 16 12  1  0
  5 26  1  0
  6 27  1  0
  7 28  1  0
 13 29  1  0
 13 30  1  0
 14 31  1  0
 14 32  1  0
 15 33  1  0
 15 34  1  0
 16 35  1  0
 16 36  1  0
 17 37  1  0
 19 38  1  0
 20 39  1  0
 23 40  1  0
M  CHG  3   3  -1  22  -1  25  -1
M  END
>  <UniqueID>  (10) 
10

>  <SMILES>  (10) 
O=C([N-]c1cccc(S(=O)(=O)N2CCCC2)c1)c1ccc([O-])cc1[O-]

>  <Energy>  (10) 
50.023371021146346

>  <Genealogy>  (10) 
O=C([N-]c1cccc(S(=O)(=O)N2CCCC2)c1)c1ccc([O-])cc1[O-] (protonated)
O=C([N-]c1cccc(S(=O)(=O)N2CCCC2)c1)c1ccc([O-])cc1[O-] (3D coordinates assigned)
O=C([N-]c1cccc(S(=O)(=O)N2CCCC2)c1)c1ccc([O-])cc1[O-] (nonaromatic ring conformer: 50.023371021146346 kcal/mol)

>  <smiles>  (10) 
O=C(Nc1cccc(S(=O)(=O)N2CCCC2)c1)c1ccc(O)cc1O

>  <score_type>  (10) 
oracle

>  <origin>  (10) 
adgpu

>  <m_score__min__energy>  (10) 
-13.51

>  <m_primary>  (10) 
energy

$$$$
10:0
     RDKit          3D

 45 48  0  0  0  0  0  0  0  0999 V2000
   -1.6970   20.2150  -27.2020 O   0  0  0  0  0  0  0  0  0  0  0  0
   -0.8040   21.1200  -28.0030 S   0  0  0  0  0  0  0  0  0  0  0  0
    0.2680   21.6680  -27.1030 O   0  0  0  0  0  0  0  0  0  0  0  0
   -0.0640   20.2080  -29.2770 N   0  0  0  0  0  0  0  0  0  0  0  0
   -0.6950   19.8620  -30.5190 C   0  0  0  0  0  0  0  0  0  0  0  0
   -2.0230   20.2460  -30.8120 C   0  0  0  0  0  0  0  0  0  0  0  0
   -2.5710   19.8790  -32.0420 C   0  0  0  0  0  0  0  0  0  0  0  0
   -1.8610   19.1620  -32.9510 C   0  0  0  0  0  0  0  0  0  0  0  0
   -0.5500   18.7610  -32.6970 C   0  0  0  0  0  0  0  0  0  0  0  0
    0.0360   19.1160  -31.4700 C   0  0  0  0  0  0  0  0  0  0  0  0
    1.3430   18.7270  -31.1980 O   0  0  0  0  0  0  0  0  0  0  0  0
   -2.6770   18.9000  -34.1530 C   0  0  0  0  0  0  0  0  0  0  0  0
   -3.9710   19.5810  -33.9150 N   0  0  0  0  0  0  0  0  0  0  0  0
   -5.3050   18.4660  -34.0760 S   0  0  0  0  0  0  0  0  0  0  0  0
   -4.8980   17.1110  -33.5690 O   0  0  0  0  0  0  0  0  0  0  0  0
   -5.7000   18.3450  -35.5230 O   0  0  0  0  0  0  0  0  0  0  0  0
   -6.6680   19.0450  -33.1190 C   0  0  0  0  0  0  0  0  0  0  0  0
   -7.4600   18.1500  -32.3840 C   0  0  0  0  0  0  0  0  0  0  0  0
   -8.5450   18.6240  -31.6390 C   0  0  0  0  0  0  0  0  0  0  0  0
   -8.8440   19.9900  -31.6280 C   0  0  0  0  0  0  0  0  0  0  0  0
   -8.0590   20.8840  -32.3630 C   0  0  0  0  0  0  0  0  0  0  0  0
   -8.3590   22.2410  -32.3540 O   0  0  0  0  0  0  0  0  0  0  0  0
   -6.9740   20.4120  -33.1090 C   0  0  0  0  0  0  0  0  0  0  0  0
   -3.9260   20.1640  -32.5540 C   0  0  0  0  0  0  0  0  0  0  0  0
   -1.7150   22.4640  -28.6840 C   0  0  0  0  0  0  0  0  0  0  0  0
   -3.0210   22.2760  -29.1610 C   0  0  0  0  0  0  0  0  0  0  0  0
   -3.7280   23.3490  -29.7120 C   0  0  0  0  0  0  0  0  0  0  0  0
   -3.1370   24.6140  -29.7890 C   0  0  0  0  0  0  0  0  0  0  0  0
   -3.8450   25.6760  -30.3380 O   0  0  0  0  0  0  0  0  0  0  0  0
   -1.8350   24.8060  -29.3120 C   0  0  0  0  0  0  0  0  0  0  0  0
   -1.2420   26.0610  -29.3840 O   0  0  0  0  0  0  0  0  0  0  0  0
   -1.1260   23.7330  -28.7620 C   0  0  0  0  0  0  0  0  0  0  0  0
   -2.6133   20.8229  -30.0849 H   0  0  0  0  0  0  0  0  0  0  0  0
    0.0136   18.1792  -33.4412 H   0  0  0  0  0  0  0  0  0  0  0  0
   -2.1858   19.3113  -35.0472 H   0  0  0  0  0  0  0  0  0  0  0  0
   -2.8112   17.8220  -34.3257 H   0  0  0  0  0  0  0  0  0  0  0  0
   -7.2276   17.0749  -32.3936 H   0  0  0  0  0  0  0  0  0  0  0  0
   -9.1636   17.9215  -31.0612 H   0  0  0  0  0  0  0  0  0  0  0  0
   -9.6969   20.3614  -31.0410 H   0  0  0  0  0  0  0  0  0  0  0  0
   -6.3595   21.1160  -33.6893 H   0  0  0  0  0  0  0  0  0  0  0  0
   -4.0998   21.2494  -32.5957 H   0  0  0  0  0  0  0  0  0  0  0  0
   -4.7038   19.7374  -31.9036 H   0  0  0  0  0  0  0  0  0  0  0  0
   -3.4895   21.2826  -29.1014 H   0  0  0  0  0  0  0  0  0  0  0  0
   -4.7514   23.1978  -30.0858 H   0  0  0  0  0  0  0  0  0  0  0  0
   -0.1024   23.8859  -28.3894 H   0  0  0  0  0  0  0  0  0  0  0  0
  1  2  2  0
  2  3  2  0
  2  4  1  0
  4  5  1  0
  5  6  2  0
  6  7  1  0
  7  8  2  0
  8  9  1  0
  9 10  2  0
 10 11  1  0
  8 12  1  0
 12 13  1  0
 13 14  1  0
 14 15  2  0
 14 16  2  0
 14 17  1  0
 17 18  2  0
 18 19  1  0
 19 20  2  0
 20 21  1  0
 21 22  1  0
 21 23  2  0
 13 24  1  0
  2 25  1  0
 25 26  2  0
 26 27  1  0
 27 28  2  0
 28 29  1  0
 28 30  1  0
 30 31  1  0
 30 32  2  0
 10  5  1  0
 23 17  1  0
 32 25  1  0
 24  7  1  0
  6 33  1  0
  9 34  1  0
 12 35  1  0
 12 36  1  0
 18 37  1  0
 19 38  1  0
 20 39  1  0
 23 40  1  0
 24 41  1  0
 24 42  1  0
 26 43  1  0
 27 44  1  0
 32 45  1  0
M  CHG  5   4  -1  11  -1  22  -1  29  -1  31  -1
M  END
>  <UniqueID>  (11) 
11

>  <SMILES>  (11) 
O=S(=O)([N-]c1cc2c(cc1[O-])CN(S(=O)(=O)c1cccc([O-])c1)C2)c1ccc([O-])c([O-])c1

>  <Energy>  (11) 
63.95251840112033

>  <Genealogy>  (11) 
O=S(=O)([N-]c1cc2c(cc1[O-])CN(S(=O)(=O)c1cccc([O-])c1)C2)c1ccc([O-])c([O-])c1 (protonated)
O=S(=O)([N-]c1cc2c(cc1[O-])CN(S(=O)(=O)c1cccc([O-])c1)C2)c1ccc([O-])c([O-])c1 (3D coordinates assigned)
O=S(=O)([N-]c1cc2c(cc1[O-])CN(S(=O)(=O)c1cccc([O-])c1)C2)c1ccc([O-])c([O-])c1 (nonaromatic ring conformer: 63.95251840112033 kcal/mol)

>  <smiles>  (11) 
O=S(=O)(Nc1cc2c(cc1O)CN(S(=O)(=O)c1cccc(O)c1)C2)c1ccc(O)c(O)c1

>  <score_type>  (11) 
oracle

>  <origin>  (11) 
adgpu

>  <m_score__min__energy>  (11) 
-15.220000000000001

>  <m_primary>  (11) 
energy

$$$$
11:0
     RDKit          3D

 41 43  0  0  0  0  0  0  0  0999 V2000
    1.4070   21.0100  -34.6050 C   0  0  0  0  0  0  0  0  0  0  0  0
    0.1810   20.8180  -33.7770 C   0  0  0  0  0  0  0  0  0  0  0  0
   -0.0320   19.7880  -32.8830 C   0  0  0  0  0  0  0  0  0  0  0  0
   -1.2900   20.0020  -32.3600 C   0  0  0  0  0  0  0  0  0  0  0  0
   -1.7620   21.1490  -32.9730 C   0  0  0  0  0  0  0  0  0  0  0  0
   -3.0700   21.7780  -32.7370 C   0  0  0  0  0  0  0  0  0  0  0  0
   -4.0320   21.5240  -33.5120 O   0  0  0  0  0  0  0  0  0  0  0  0
   -3.2380   22.7000  -31.6490 N   0  0  0  0  0  0  0  0  0  0  0  0
   -4.5130   23.2480  -31.2770 C   0  0  0  0  0  0  0  0  0  0  0  0
   -5.6780   22.5240  -31.5610 C   0  0  0  0  0  0  0  0  0  0  0  0
   -6.9360   23.0260  -31.2020 C   0  0  0  0  0  0  0  0  0  0  0  0
   -8.3930   22.0780  -31.5140 S   0  0  0  0  0  0  0  0  0  0  0  0
   -9.4640   22.9840  -32.0510 O   0  0  0  0  0  0  0  0  0  0  0  0
   -8.8870   21.4930  -30.2210 O   0  0  0  0  0  0  0  0  0  0  0  0
   -8.1010   20.7840  -32.6570 N   0  0  0  0  0  0  0  0  0  0  0  0
   -9.2810   19.9240  -32.7990 C   0  0  0  0  0  0  0  0  0  0  0  0
   -9.0910   18.7010  -31.9150 C   0  0  0  0  0  0  0  0  0  0  0  0
   -7.6200   18.6800  -31.5490 C   0  0  0  0  0  0  0  0  0  0  0  0
   -7.0110   19.9110  -32.2060 C   0  0  0  0  0  0  0  0  0  0  0  0
   -7.0290   24.2800  -30.5850 C   0  0  0  0  0  0  0  0  0  0  0  0
   -5.8740   25.0230  -30.3270 C   0  0  0  0  0  0  0  0  0  0  0  0
   -4.6180   24.5190  -30.6780 C   0  0  0  0  0  0  0  0  0  0  0  0
   -3.4880   25.2980  -30.4550 O   0  0  0  0  0  0  0  0  0  0  0  0
   -0.8640   21.6120  -33.8130 O   0  0  0  0  0  0  0  0  0  0  0  0
    2.2770   21.1462  -33.9458 H   0  0  0  0  0  0  0  0  0  0  0  0
    1.5630   20.1253  -35.2399 H   0  0  0  0  0  0  0  0  0  0  0  0
    1.2850   21.9000  -35.2399 H   0  0  0  0  0  0  0  0  0  0  0  0
    0.6582   18.9671  -32.6386 H   0  0  0  0  0  0  0  0  0  0  0  0
   -1.8105   19.3878  -31.6105 H   0  0  0  0  0  0  0  0  0  0  0  0
   -2.3830   23.1100  -31.2120 H   0  0  0  0  0  0  0  0  0  0  0  0
   -5.6046   21.5520  -32.0708 H   0  0  0  0  0  0  0  0  0  0  0  0
  -10.1811   20.4731  -32.4855 H   0  0  0  0  0  0  0  0  0  0  0  0
   -9.4019   19.6174  -33.8485 H   0  0  0  0  0  0  0  0  0  0  0  0
   -9.7099   18.7832  -31.0093 H   0  0  0  0  0  0  0  0  0  0  0  0
   -9.3929   17.7777  -32.4312 H   0  0  0  0  0  0  0  0  0  0  0  0
   -7.4963   18.7280  -30.4570 H   0  0  0  0  0  0  0  0  0  0  0  0
   -7.1312   17.7555  -31.8903 H   0  0  0  0  0  0  0  0  0  0  0  0
   -6.3825   20.4469  -31.4796 H   0  0  0  0  0  0  0  0  0  0  0  0
   -6.3877   19.6126  -33.0619 H   0  0  0  0  0  0  0  0  0  0  0  0
   -8.0137   24.6809  -30.3028 H   0  0  0  0  0  0  0  0  0  0  0  0
   -5.9533   26.0089  -29.8456 H   0  0  0  0  0  0  0  0  0  0  0  0
  1  2  1  0
  2  3  2  0
  3  4  1  0
  4  5  2  0
  5  6  1  0
  6  7  2  0
  6  8  1  0
  8  9  1  0
  9 10  2  0
 10 11  1  0
 11 12  1  0
 12 13  2  0
 12 14  2  0
 12 15  1  0
 15 16  1  0
 16 17  1  0
 17 18  1  0
 18 19  1  0
 11 20  2  0
 20 21  1  0
 21 22  2  0
 22 23  1  0
  5 24  1  0
 24  2  1  0
 22  9  1  0
 19 15  1  0
  1 25  1  0
  1 26  1  0
  1 27  1  0
  3 28  1  0
  4 29  1  0
  8 30  1  0
 10 31  1  0
 16 32  1  0
 16 33  1  0
 17 34  1  0
 17 35  1  0
 18 36  1  0
 18 37  1  0
 19 38  1  0
 19 39  1  0
 20 40  1  0
 21 41  1  0
M  CHG  1  23  -1
M  END
>  <UniqueID>  (12) 
12

>  <SMILES>  (12) 
Cc1ccc(C(=O)Nc2cc(S(=O)(=O)N3CCCC3)ccc2[O-])o1

>  <Energy>  (12) 
70.56262667226754

>  <Genealogy>  (12) 
Cc1ccc(C(=O)Nc2cc(S(=O)(=O)N3CCCC3)ccc2[O-])o1 (protonated)
Cc1ccc(C(=O)Nc2cc(S(=O)(=O)N3CCCC3)ccc2[O-])o1 (3D coordinates assigned)
Cc1ccc(C(=O)Nc2cc(S(=O)(=O)N3CCCC3)ccc2[O-])o1 (nonaromatic ring conformer: 70.56262667226754 kcal/mol)

>  <smiles>  (12) 
Cc1ccc(C(=O)Nc2cc(S(=O)(=O)N3CCCC3)ccc2O)o1

>  <score_type>  (12) 
oracle

>  <origin>  (12) 
adgpu

>  <m_score__min__energy>  (12) 
-11.82

>  <m_primary>  (12) 
energy

$$$$
12:0
     RDKit          3D

 36 38  0  0  0  0  0  0  0  0999 V2000
   -5.8880   25.3300  -29.0350 O   0  0  0  0  0  0  0  0  0  0  0  0
   -5.3140   25.2330  -30.4220 S   0  0  0  0  0  0  0  0  0  0  0  0
   -5.7770   26.3880  -31.2640 O   0  0  0  0  0  0  0  0  0  0  0  0
   -3.5810   25.2390  -30.3320 N   0  0  0  0  0  0  0  0  0  0  0  0
   -2.7400   24.5340  -29.4030 C   0  0  0  0  0  0  0  0  0  0  0  0
   -3.0820   23.2080  -29.1090 C   0  0  0  0  0  0  0  0  0  0  0  0
   -2.3200   22.4450  -28.2130 C   0  0  0  0  0  0  0  0  0  0  0  0
   -1.1710   23.0070  -27.6230 C   0  0  0  0  0  0  0  0  0  0  0  0
   -0.8390   24.3410  -27.8940 C   0  0  0  0  0  0  0  0  0  0  0  0
   -1.6100   25.1060  -28.7750 C   0  0  0  0  0  0  0  0  0  0  0  0
   -1.2400   26.4250  -28.9940 O   0  0  0  0  0  0  0  0  0  0  0  0
   -0.3610   22.2230  -26.6180 C   0  0  0  0  0  0  0  0  0  0  0  0
   -0.5530   20.7760  -26.7810 N   0  0  0  0  0  0  0  0  0  0  0  0
   -1.9800   20.4410  -26.7320 C   0  0  0  0  0  0  0  0  0  0  0  0
   -2.6860   21.0020  -27.9680 C   0  0  0  0  0  0  0  0  0  0  0  0
   -5.8750   23.7330  -31.1660 C   0  0  0  0  0  0  0  0  0  0  0  0
   -7.2290   23.3750  -31.0900 C   0  0  0  0  0  0  0  0  0  0  0  0
   -7.6790   22.1890  -31.6760 C   0  0  0  0  0  0  0  0  0  0  0  0
   -9.5250   21.7120  -31.5680 Br  0  0  0  0  0  0  0  0  0  0  0  0
   -6.7800   21.3520  -32.3390 C   0  0  0  0  0  0  0  0  0  0  0  0
   -5.4260   21.6940  -32.4220 C   0  0  0  0  0  0  0  0  0  0  0  0
   -4.3360   20.6040  -33.2690 Cl  0  0  0  0  0  0  0  0  0  0  0  0
   -4.9660   22.8900  -31.8330 C   0  0  0  0  0  0  0  0  0  0  0  0
   -3.6190   23.2560  -31.8990 O   0  0  0  0  0  0  0  0  0  0  0  0
   -3.9633   22.7577  -29.5892 H   0  0  0  0  0  0  0  0  0  0  0  0
    0.0387   24.7920  -27.4079 H   0  0  0  0  0  0  0  0  0  0  0  0
    0.7044   22.4596  -26.7554 H   0  0  0  0  0  0  0  0  0  0  0  0
   -0.6984   22.5038  -25.6094 H   0  0  0  0  0  0  0  0  0  0  0  0
   -0.0840   20.3000  -25.9750 H   0  0  0  0  0  0  0  0  0  0  0  0
   -2.0980   19.3476  -26.7087 H   0  0  0  0  0  0  0  0  0  0  0  0
   -2.4258   20.8809  -25.8277 H   0  0  0  0  0  0  0  0  0  0  0  0
   -2.3949   20.4064  -28.8458 H   0  0  0  0  0  0  0  0  0  0  0  0
   -3.7713   20.9478  -27.7971 H   0  0  0  0  0  0  0  0  0  0  0  0
   -7.9401   24.0310  -30.5666 H   0  0  0  0  0  0  0  0  0  0  0  0
   -7.1379   20.4189  -32.7985 H   0  0  0  0  0  0  0  0  0  0  0  0
   -3.2780   24.1590  -31.5950 H   0  0  0  0  0  0  0  0  0  0  0  0
  1  2  2  0
  2  3  2  0
  2  4  1  0
  4  5  1  0
  5  6  2  0
  6  7  1  0
  7  8  2  0
  8  9  1  0
  9 10  2  0
 10 11  1  0
  8 12  1  0
 12 13  1  0
 13 14  1  0
 14 15  1  0
  2 16  1  0
 16 17  2  0
 17 18  1  0
 18 19  1  0
 18 20  2  0
 20 21  1  0
 21 22  1  0
 21 23  2  0
 23 24  1  0
 10  5  1  0
 23 16  1  0
 15  7  1  0
  6 25  1  0
  9 26  1  0
 12 27  1  0
 12 28  1  0
 13 29  1  0
 14 30  1  0
 14 31  1  0
 15 32  1  0
 15 33  1  0
 17 34  1  0
 20 35  1  0
 24 36  1  0
M  CHG  2   4  -1  11  -1
M  END
>  <UniqueID>  (13) 
13

>  <SMILES>  (13) 
O=S(=O)([N-]c1cc2c(cc1[O-])CNCC2)c1cc(Br)cc(Cl)c1O

>  <Energy>  (13) 
48.16446850564917

>  <Genealogy>  (13) 
O=S(=O)([N-]c1cc2c(cc1[O-])CNCC2)c1cc(Br)cc(Cl)c1O (protonated)
O=S(=O)([N-]c1cc2c(cc1[O-])CNCC2)c1cc(Br)cc(Cl)c1O (3D coordinates assigned)
O=S(=O)([N-]c1cc2c(cc1[O-])CNCC2)c1cc(Br)cc(Cl)c1O (nonaromatic ring conformer: 48.16446850564917 kcal/mol)

>  <smiles>  (13) 
O=S(=O)(Nc1cc2c(cc1O)CNCC2)c1cc(Br)cc(Cl)c1O

>  <score_type>  (13) 
oracle

>  <origin>  (13) 
adgpu

>  <m_score__min__energy>  (13) 
-13.34

>  <m_primary>  (13) 
energy

$$$$
13:0
     RDKit          3D

 40 42  0  0  0  0  0  0  0  0999 V2000
   -1.3680   18.9820  -32.4270 C   0  0  0  0  0  0  0  0  0  0  0  0
   -1.1030   20.0000  -31.4110 N   0  0  0  0  0  0  0  0  0  0  0  0
   -1.5850   21.2690  -31.3600 C   0  0  0  0  0  0  0  0  0  0  0  0
   -2.4990   21.8880  -32.3430 C   0  0  0  0  0  0  0  0  0  0  0  0
   -2.4390   21.5710  -33.5610 O   0  0  0  0  0  0  0  0  0  0  0  0
   -3.4220   22.8930  -31.9040 N   0  0  0  0  0  0  0  0  0  0  0  0
   -4.8540   22.7850  -31.8830 C   0  0  0  0  0  0  0  0  0  0  0  0
   -5.4860   21.6010  -32.3090 C   0  0  0  0  0  0  0  0  0  0  0  0
   -6.8710   21.4630  -32.2180 C   0  0  0  0  0  0  0  0  0  0  0  0
   -7.6430   22.4940  -31.6850 C   0  0  0  0  0  0  0  0  0  0  0  0
   -7.0320   23.6670  -31.2400 C   0  0  0  0  0  0  0  0  0  0  0  0
   -5.6370   23.8320  -31.3330 C   0  0  0  0  0  0  0  0  0  0  0  0
   -5.0350   25.1080  -30.8670 C   0  0  0  0  0  0  0  0  0  0  0  0
   -5.7430   26.1510  -30.8300 O   0  0  0  0  0  0  0  0  0  0  0  0
   -3.6660   25.1550  -30.4410 N   0  0  0  0  0  0  0  0  0  0  0  0
   -3.0920   24.4880  -29.3060 C   0  0  0  0  0  0  0  0  0  0  0  0
   -3.7400   23.4120  -28.6690 C   0  0  0  0  0  0  0  0  0  0  0  0
   -3.1620   22.8030  -27.5510 C   0  0  0  0  0  0  0  0  0  0  0  0
   -1.9440   23.2670  -27.0500 C   0  0  0  0  0  0  0  0  0  0  0  0
   -1.3080   24.3510  -27.6600 C   0  0  0  0  0  0  0  0  0  0  0  0
   -1.8810   24.9650  -28.7780 C   0  0  0  0  0  0  0  0  0  0  0  0
   -1.2420   26.0510  -29.3660 O   0  0  0  0  0  0  0  0  0  0  0  0
   -1.0930   21.9230  -30.2370 C   0  0  0  0  0  0  0  0  0  0  0  0
   -0.2830   21.0110  -29.5960 C   0  0  0  0  0  0  0  0  0  0  0  0
    0.4320   21.2210  -28.4210 O   0  0  0  0  0  0  0  0  0  0  0  0
   -0.3080   19.8530  -30.3320 C   0  0  0  0  0  0  0  0  0  0  0  0
    0.3850   18.6880  -30.0170 O   0  0  0  0  0  0  0  0  0  0  0  0
   -1.6159   18.0295  -31.9358 H   0  0  0  0  0  0  0  0  0  0  0  0
   -2.2129   19.3017  -33.0547 H   0  0  0  0  0  0  0  0  0  0  0  0
   -0.4745   18.8491  -33.0547 H   0  0  0  0  0  0  0  0  0  0  0  0
   -4.8819   20.7774  -32.7173 H   0  0  0  0  0  0  0  0  0  0  0  0
   -7.3549   20.5390  -32.5674 H   0  0  0  0  0  0  0  0  0  0  0  0
   -8.7351   22.3828  -31.6151 H   0  0  0  0  0  0  0  0  0  0  0  0
   -7.6474   24.4719  -30.8117 H   0  0  0  0  0  0  0  0  0  0  0  0
   -4.7050   23.0492  -29.0527 H   0  0  0  0  0  0  0  0  0  0  0  0
   -3.6682   21.9560  -27.0648 H   0  0  0  0  0  0  0  0  0  0  0  0
   -1.4861   22.7798  -26.1765 H   0  0  0  0  0  0  0  0  0  0  0  0
   -0.3533   24.7227  -27.2595 H   0  0  0  0  0  0  0  0  0  0  0  0
   -1.3062   22.9558  -29.9242 H   0  0  0  0  0  0  0  0  0  0  0  0
    1.0070   20.4870  -28.0260 H   0  0  0  0  0  0  0  0  0  0  0  0
  1  2  1  0
  2  3  1  0
  3  4  1  0
  4  5  2  0
  4  6  1  0
  6  7  1  0
  7  8  2  0
  8  9  1  0
  9 10  2  0
 10 11  1  0
 11 12  2  0
 12 13  1  0
 13 14  2  0
 13 15  1  0
 15 16  1  0
 16 17  2  0
 17 18  1  0
 18 19  2  0
 19 20  1  0
 20 21  2  0
 21 22  1  0
  3 23  2  0
 23 24  1  0
 24 25  1  0
 24 26  2  0
 26 27  1  0
 26  2  1  0
 12  7  1  0
 21 16  1  0
  1 28  1  0
  1 29  1  0
  1 30  1  0
  8 31  1  0
  9 32  1  0
 10 33  1  0
 11 34  1  0
 17 35  1  0
 18 36  1  0
 19 37  1  0
 20 38  1  0
 23 39  1  0
 25 40  1  0
M  CHG  4   6  -1  15  -1  22  -1  27  -1
M  END
>  <UniqueID>  (14) 
14

>  <SMILES>  (14) 
Cn1c(C(=O)[N-]c2ccccc2C(=O)[N-]c2ccccc2[O-])cc(O)c1[O-]

>  <Energy>  (14) 
81.4287119583306

>  <Genealogy>  (14) 
Cn1c(C(=O)[N-]c2ccccc2C(=O)[N-]c2ccccc2[O-])cc(O)c1[O-] (protonated)
Cn1c(C(=O)[N-]c2ccccc2C(=O)[N-]c2ccccc2[O-])cc(O)c1[O-] (3D coordinates assigned)
Cn1c(C(=O)[N-]c2ccccc2C(=O)[N-]c2ccccc2[O-])cc(O)c1[O-] (optimized conformer: 81.4287119583306 kcal/mol)

>  <smiles>  (14) 
Cn1c(C(=O)Nc2ccccc2C(=O)Nc2ccccc2O)cc(O)c1O

>  <score_type>  (14) 
oracle

>  <origin>  (14) 
adgpu

>  <m_score__min__energy>  (14) 
-12.869999999999999

>  <m_primary>  (14) 
energy

$$$$
14:0
     RDKit          3D

 52 54  0  0  0  0  0  0  0  0999 V2000
   -9.1110   18.5330  -31.9940 C   0  0  0  0  0  0  0  0  0  0  0  0
   -7.3600   18.7590  -32.2200 S   0  0  0  0  0  0  0  0  0  0  0  0
   -6.6170   17.9290  -31.2050 O   0  0  0  0  0  0  0  0  0  0  0  0
   -6.9700   18.3080  -33.5990 O   0  0  0  0  0  0  0  0  0  0  0  0
   -6.9590   20.4650  -32.0210 C   0  0  0  0  0  0  0  0  0  0  0  0
   -7.9460   21.3710  -31.6100 C   0  0  0  0  0  0  0  0  0  0  0  0
   -7.6320   22.7250  -31.4360 C   0  0  0  0  0  0  0  0  0  0  0  0
   -6.3200   23.1880  -31.6510 C   0  0  0  0  0  0  0  0  0  0  0  0
   -5.9780   24.6500  -31.4900 C   0  0  0  0  0  0  0  0  0  0  0  0
   -5.2400   24.9350  -30.2070 C   0  0  0  0  0  0  0  0  0  0  0  0
   -5.8860   24.9730  -29.1260 O   0  0  0  0  0  0  0  0  0  0  0  0
   -3.8500   25.2960  -30.1970 N   0  0  0  0  0  0  0  0  0  0  0  0
   -2.7750   24.4600  -29.7480 C   0  0  0  0  0  0  0  0  0  0  0  0
   -2.8560   23.0600  -29.8570 C   0  0  0  0  0  0  0  0  0  0  0  0
   -1.8120   22.2500  -29.3840 C   0  0  0  0  0  0  0  0  0  0  0  0
   -1.9070   20.4930  -29.4950 S   0  0  0  0  0  0  0  0  0  0  0  0
   -3.0450   20.0220  -28.6270 O   0  0  0  0  0  0  0  0  0  0  0  0
   -0.6300   19.8730  -28.9950 O   0  0  0  0  0  0  0  0  0  0  0  0
   -2.1830   20.0480  -31.1650 N   0  0  0  0  0  0  0  0  0  0  0  0
   -2.2180   21.2380  -32.0580 C   0  0  0  0  0  0  0  0  0  0  0  0
   -1.0840   21.2760  -33.1010 C   0  0  0  0  0  0  0  0  0  0  0  0
    0.2440   20.8710  -32.4630 C   0  0  0  0  0  0  0  0  0  0  0  0
    0.1770   19.4740  -31.8200 C   0  0  0  0  0  0  0  0  0  0  0  0
   -1.2670   18.9780  -31.6060 C   0  0  0  0  0  0  0  0  0  0  0  0
   -0.6970   22.8420  -28.7760 C   0  0  0  0  0  0  0  0  0  0  0  0
   -0.6290   24.2330  -28.6360 C   0  0  0  0  0  0  0  0  0  0  0  0
   -1.6670   25.0410  -29.1130 C   0  0  0  0  0  0  0  0  0  0  0  0
   -1.5920   26.4220  -28.9590 O   0  0  0  0  0  0  0  0  0  0  0  0
   -5.3390   22.2760  -32.0800 C   0  0  0  0  0  0  0  0  0  0  0  0
   -5.6570   20.9240  -32.2610 C   0  0  0  0  0  0  0  0  0  0  0  0
   -9.3411   18.5033  -30.9187 H   0  0  0  0  0  0  0  0  0  0  0  0
   -9.6520   19.3688  -32.4618 H   0  0  0  0  0  0  0  0  0  0  0  0
   -9.4220   17.5873  -32.4618 H   0  0  0  0  0  0  0  0  0  0  0  0
   -8.9709   21.0177  -31.4234 H   0  0  0  0  0  0  0  0  0  0  0  0
   -8.4167   23.4321  -31.1290 H   0  0  0  0  0  0  0  0  0  0  0  0
   -5.3464   24.9592  -32.3358 H   0  0  0  0  0  0  0  0  0  0  0  0
   -6.9231   25.2121  -31.4625 H   0  0  0  0  0  0  0  0  0  0  0  0
   -3.7425   22.5974  -30.3155 H   0  0  0  0  0  0  0  0  0  0  0  0
   -3.1793   21.2404  -32.5927 H   0  0  0  0  0  0  0  0  0  0  0  0
   -2.0871   22.1209  -31.4150 H   0  0  0  0  0  0  0  0  0  0  0  0
   -1.3204   20.5788  -33.9183 H   0  0  0  0  0  0  0  0  0  0  0  0
   -0.9935   22.3006  -33.4908 H   0  0  0  0  0  0  0  0  0  0  0  0
    1.0234   20.8669  -33.2392 H   0  0  0  0  0  0  0  0  0  0  0  0
    0.4735   21.5977  -31.6697 H   0  0  0  0  0  0  0  0  0  0  0  0
    0.6990   18.7611  -32.4752 H   0  0  0  0  0  0  0  0  0  0  0  0
    0.6509   19.5445  -30.8298 H   0  0  0  0  0  0  0  0  0  0  0  0
   -1.6405   18.5653  -32.5548 H   0  0  0  0  0  0  0  0  0  0  0  0
   -1.2404   18.2182  -30.8110 H   0  0  0  0  0  0  0  0  0  0  0  0
    0.1265   22.2123  -28.4080 H   0  0  0  0  0  0  0  0  0  0  0  0
    0.2437   24.6927  -28.1492 H   0  0  0  0  0  0  0  0  0  0  0  0
   -4.3148   22.6270  -32.2747 H   0  0  0  0  0  0  0  0  0  0  0  0
   -4.8807   20.2190  -32.5932 H   0  0  0  0  0  0  0  0  0  0  0  0
  1  2  1  0
  2  3  2  0
  2  4  2  0
  2  5  1  0
  5  6  2  0
  6  7  1  0
  7  8  2  0
  8  9  1  0
  9 10  1  0
 10 11  2  0
 10 12  1  0
 12 13  1  0
 13 14  2  0
 14 15  1  0
 15 16  1  0
 16 17  2  0
 16 18  2  0
 16 19  1  0
 19 20  1  0
 20 21  1  0
 21 22  1  0
 22 23  1  0
 23 24  1  0
 15 25  2  0
 25 26  1  0
 26 27  2  0
 27 28  1  0
  8 29  1  0
 29 30  2  0
 30  5  1  0
 27 13  1  0
 24 19  1  0
  1 31  1  0
  1 32  1  0
  1 33  1  0
  6 34  1  0
  7 35  1  0
  9 36  1  0
  9 37  1  0
 14 38  1  0
 20 39  1  0
 20 40  1  0
 21 41  1  0
 21 42  1  0
 22 43  1  0
 22 44  1  0
 23 45  1  0
 23 46  1  0
 24 47  1  0
 24 48  1  0
 25 49  1  0
 26 50  1  0
 29 51  1  0
 30 52  1  0
M  CHG  2  12  -1  28  -1
M  END
>  <UniqueID>  (15) 
15

>  <SMILES>  (15) 
CS(=O)(=O)c1ccc(CC(=O)[N-]c2cc(S(=O)(=O)N3CCCCC3)ccc2[O-])cc1

>  <Energy>  (15) 
59.73561199964982

>  <Genealogy>  (15) 
CS(=O)(=O)c1ccc(CC(=O)[N-]c2cc(S(=O)(=O)N3CCCCC3)ccc2[O-])cc1 (protonated)
CS(=O)(=O)c1ccc(CC(=O)[N-]c2cc(S(=O)(=O)N3CCCCC3)ccc2[O-])cc1 (3D coordinates assigned)
CS(=O)(=O)c1ccc(CC(=O)[N-]c2cc(S(=O)(=O)N3CCCCC3)ccc2[O-])cc1 (nonaromatic ring conformer: 59.73561199964982 kcal/mol)

>  <smiles>  (15) 
CS(=O)(=O)c1ccc(CC(=O)Nc2cc(S(=O)(=O)N3CCCCC3)ccc2O)cc1

>  <score_type>  (15) 
oracle

>  <origin>  (15) 
adgpu

>  <m_score__min__energy>  (15) 
-13.99

>  <m_primary>  (15) 
energy

$$$$
15:0
     RDKit          3D

 47 50  0  0  0  0  0  0  0  0999 V2000
   -3.0850   21.0260  -30.1710 C   0  0  0  0  0  0  0  0  0  0  0  0
   -3.8770   22.1560  -29.5190 C   0  0  0  0  0  0  0  0  0  0  0  0
   -2.9530   23.1240  -28.8200 C   0  0  0  0  0  0  0  0  0  0  0  0
   -2.2910   22.7200  -27.6480 C   0  0  0  0  0  0  0  0  0  0  0  0
   -1.4620   23.6090  -26.9620 C   0  0  0  0  0  0  0  0  0  0  0  0
   -1.2860   24.9090  -27.4350 C   0  0  0  0  0  0  0  0  0  0  0  0
   -1.9470   25.3290  -28.5900 C   0  0  0  0  0  0  0  0  0  0  0  0
   -2.8030   24.4510  -29.2800 C   0  0  0  0  0  0  0  0  0  0  0  0
   -3.4890   24.8780  -30.4680 N   0  0  0  0  0  0  0  0  0  0  0  0
   -4.9100   24.9830  -30.6210 C   0  0  0  0  0  0  0  0  0  0  0  0
   -5.4740   26.0680  -30.3270 O   0  0  0  0  0  0  0  0  0  0  0  0
   -5.7190   23.8750  -31.1630 C   0  0  0  0  0  0  0  0  0  0  0  0
   -7.0440   23.5710  -30.7860 C   0  0  0  0  0  0  0  0  0  0  0  0
   -7.4830   22.4580  -31.4840 C   0  0  0  0  0  0  0  0  0  0  0  0
   -8.6090   21.6730  -31.6050 C   0  0  0  0  0  0  0  0  0  0  0  0
   -9.8820   21.8100  -30.8410 C   0  0  0  0  0  0  0  0  0  0  0  0
   -8.3430   20.6820  -32.5020 N   0  0  0  0  0  0  0  0  0  0  0  0
   -7.0920   20.8430  -32.9330 N   0  0  0  0  0  0  0  0  0  0  0  0
   -6.4550   20.0310  -33.9620 C   0  0  0  0  0  0  0  0  0  0  0  0
   -6.0440   18.7060  -33.3830 C   0  0  0  0  0  0  0  0  0  0  0  0
   -6.4480   18.3470  -32.0870 C   0  0  0  0  0  0  0  0  0  0  0  0
   -6.1040   17.0970  -31.5630 C   0  0  0  0  0  0  0  0  0  0  0  0
   -5.3640   16.1940  -32.3340 C   0  0  0  0  0  0  0  0  0  0  0  0
   -5.0340   14.9800  -31.8250 F   0  0  0  0  0  0  0  0  0  0  0  0
   -4.9700   16.5400  -33.6290 C   0  0  0  0  0  0  0  0  0  0  0  0
   -5.3120   17.7890  -34.1560 C   0  0  0  0  0  0  0  0  0  0  0  0
   -6.5920   21.9220  -32.3170 C   0  0  0  0  0  0  0  0  0  0  0  0
   -5.1350   22.7440  -32.3200 S   0  0  0  0  0  0  0  0  0  0  0  0
   -2.6404   20.3917  -29.3899 H   0  0  0  0  0  0  0  0  0  0  0  0
   -3.7573   20.4204  -30.7965 H   0  0  0  0  0  0  0  0  0  0  0  0
   -2.2864   21.4514  -30.7965 H   0  0  0  0  0  0  0  0  0  0  0  0
   -4.4432   22.6935  -30.2940 H   0  0  0  0  0  0  0  0  0  0  0  0
   -4.5623   21.7230  -28.7754 H   0  0  0  0  0  0  0  0  0  0  0  0
   -2.4271   21.6964  -27.2688 H   0  0  0  0  0  0  0  0  0  0  0  0
   -0.9465   23.2835  -26.0464 H   0  0  0  0  0  0  0  0  0  0  0  0
   -0.6251   25.6044  -26.8968 H   0  0  0  0  0  0  0  0  0  0  0  0
   -1.7979   26.3529  -28.9633 H   0  0  0  0  0  0  0  0  0  0  0  0
   -7.6381   24.1324  -30.0498 H   0  0  0  0  0  0  0  0  0  0  0  0
   -9.6667   21.7868  -29.7625 H   0  0  0  0  0  0  0  0  0  0  0  0
  -10.3631   22.7651  -31.0984 H   0  0  0  0  0  0  0  0  0  0  0  0
  -10.5554   20.9791  -31.0984 H   0  0  0  0  0  0  0  0  0  0  0  0
   -7.1635   19.8651  -34.7869 H   0  0  0  0  0  0  0  0  0  0  0  0
   -5.5641   20.5550  -34.3384 H   0  0  0  0  0  0  0  0  0  0  0  0
   -7.0372   19.0516  -31.4817 H   0  0  0  0  0  0  0  0  0  0  0  0
   -6.4154   16.8235  -30.5441 H   0  0  0  0  0  0  0  0  0  0  0  0
   -4.3898   15.8286  -34.2350 H   0  0  0  0  0  0  0  0  0  0  0  0
   -5.0071   18.0546  -35.1790 H   0  0  0  0  0  0  0  0  0  0  0  0
  1  2  1  0
  2  3  1  0
  3  4  2  0
  4  5  1  0
  5  6  2  0
  6  7  1  0
  7  8  2  0
  8  9  1  0
  9 10  1  0
 10 11  2  0
 10 12  1  0
 12 13  2  0
 13 14  1  0
 14 15  1  0
 15 16  1  0
 15 17  2  0
 17 18  1  0
 18 19  1  0
 19 20  1  0
 20 21  2  0
 21 22  1  0
 22 23  2  0
 23 24  1  0
 23 25  1  0
 25 26  2  0
 18 27  1  0
 27 28  1  0
  8  3  1  0
 28 12  1  0
 27 14  2  0
 26 20  1  0
  1 29  1  0
  1 30  1  0
  1 31  1  0
  2 32  1  0
  2 33  1  0
  4 34  1  0
  5 35  1  0
  6 36  1  0
  7 37  1  0
 13 38  1  0
 16 39  1  0
 16 40  1  0
 16 41  1  0
 19 42  1  0
 19 43  1  0
 21 44  1  0
 22 45  1  0
 25 46  1  0
 26 47  1  0
M  CHG  1   9  -1
M  END
>  <UniqueID>  (16) 
16

>  <SMILES>  (16) 
CCc1ccccc1[N-]C(=O)c1cc2c(C)nn(Cc3ccc(F)cc3)c2s1

>  <Energy>  (16) 
131.47734773647798

>  <Genealogy>  (16) 
CCc1ccccc1[N-]C(=O)c1cc2c(C)nn(Cc3ccc(F)cc3)c2s1 (protonated)
CCc1ccccc1[N-]C(=O)c1cc2c(C)nn(Cc3ccc(F)cc3)c2s1 (3D coordinates assigned)
CCc1ccccc1[N-]C(=O)c1cc2c(C)nn(Cc3ccc(F)cc3)c2s1 (optimized conformer: 131.47734773647798 kcal/mol)

>  <smiles>  (16) 
CCc1ccccc1NC(=O)c1cc2c(C)nn(Cc3ccc(F)cc3)c2s1

>  <score_type>  (16) 
oracle

>  <origin>  (16) 
adgpu

>  <m_score__min__energy>  (16) 
-11.210000000000001

>  <m_primary>  (16) 
energy

$$$$
16:0
     RDKit          3D

 56 59  0  0  0  0  0  0  0  0999 V2000
   -2.2030   22.1310  -27.4050 C   0  0  0  0  0  0  0  0  0  0  0  0
   -1.9800   21.8050  -28.8620 C   0  0  0  0  0  0  0  0  0  0  0  0
   -1.2870   20.6270  -29.1910 C   0  0  0  0  0  0  0  0  0  0  0  0
   -1.0500   20.2910  -30.5250 C   0  0  0  0  0  0  0  0  0  0  0  0
   -1.5190   21.1160  -31.5560 C   0  0  0  0  0  0  0  0  0  0  0  0
   -1.3070   20.6560  -33.2460 S   0  0  0  0  0  0  0  0  0  0  0  0
   -0.5830   19.3430  -33.3640 O   0  0  0  0  0  0  0  0  0  0  0  0
   -0.4850   21.7100  -33.9380 O   0  0  0  0  0  0  0  0  0  0  0  0
   -2.8600   20.5630  -34.0170 N   0  0  0  0  0  0  0  0  0  0  0  0
   -4.0760   20.1260  -33.3920 C   0  0  0  0  0  0  0  0  0  0  0  0
   -5.0740   21.0370  -32.9940 C   0  0  0  0  0  0  0  0  0  0  0  0
   -6.2670   20.5830  -32.4130 C   0  0  0  0  0  0  0  0  0  0  0  0
   -6.4810   19.1980  -32.2520 C   0  0  0  0  0  0  0  0  0  0  0  0
   -5.4720   18.2950  -32.6190 C   0  0  0  0  0  0  0  0  0  0  0  0
   -4.2740   18.7530  -33.1850 C   0  0  0  0  0  0  0  0  0  0  0  0
   -3.2820   17.8480  -33.5520 O   0  0  0  0  0  0  0  0  0  0  0  0
   -7.7400   18.6760  -31.5970 C   0  0  0  0  0  0  0  0  0  0  0  0
   -8.8660   19.6280  -31.6790 N   0  0  0  0  0  0  0  0  0  0  0  0
   -9.4870   19.6430  -33.0170 C   0  0  0  0  0  0  0  0  0  0  0  0
   -8.4650   20.9750  -31.2220 C   0  0  0  0  0  0  0  0  0  0  0  0
   -7.3420   21.5810  -32.0800 C   0  0  0  0  0  0  0  0  0  0  0  0
   -2.1970   22.3000  -31.2410 C   0  0  0  0  0  0  0  0  0  0  0  0
   -2.4160   22.6670  -29.9010 C   0  0  0  0  0  0  0  0  0  0  0  0
   -3.2230   24.2080  -29.5600 S   0  0  0  0  0  0  0  0  0  0  0  0
   -4.2790   23.9840  -28.5140 O   0  0  0  0  0  0  0  0  0  0  0  0
   -3.8620   24.7460  -30.8090 O   0  0  0  0  0  0  0  0  0  0  0  0
   -2.0430   25.3470  -28.9930 N   0  0  0  0  0  0  0  0  0  0  0  0
   -1.4070   25.3280  -27.7080 C   0  0  0  0  0  0  0  0  0  0  0  0
   -2.1800   25.6670  -26.5860 C   0  0  0  0  0  0  0  0  0  0  0  0
   -1.6190   25.6600  -25.3060 C   0  0  0  0  0  0  0  0  0  0  0  0
   -0.2830   25.2940  -25.1310 C   0  0  0  0  0  0  0  0  0  0  0  0
    0.4930   24.9340  -26.2380 C   0  0  0  0  0  0  0  0  0  0  0  0
   -0.0620   24.9410  -27.5260 C   0  0  0  0  0  0  0  0  0  0  0  0
    0.7260   24.5320  -28.5960 O   0  0  0  0  0  0  0  0  0  0  0  0
   -1.6920   21.3840  -26.7798 H   0  0  0  0  0  0  0  0  0  0  0  0
   -1.7984   23.1304  -27.1868 H   0  0  0  0  0  0  0  0  0  0  0  0
   -3.2810   22.1162  -27.1868 H   0  0  0  0  0  0  0  0  0  0  0  0
   -0.9282   19.9640  -28.3900 H   0  0  0  0  0  0  0  0  0  0  0  0
   -0.4925   19.3744  -30.7680 H   0  0  0  0  0  0  0  0  0  0  0  0
   -4.9160   22.1157  -33.1404 H   0  0  0  0  0  0  0  0  0  0  0  0
   -5.6224   17.2168  -32.4611 H   0  0  0  0  0  0  0  0  0  0  0  0
   -2.3510   18.1570  -33.8110 H   0  0  0  0  0  0  0  0  0  0  0  0
   -8.0337   17.7407  -32.0960 H   0  0  0  0  0  0  0  0  0  0  0  0
   -7.5174   18.5181  -30.5314 H   0  0  0  0  0  0  0  0  0  0  0  0
  -10.5817   19.6694  -32.9129 H   0  0  0  0  0  0  0  0  0  0  0  0
   -9.1495   20.5333  -33.5679 H   0  0  0  0  0  0  0  0  0  0  0  0
   -9.1929   18.7375  -33.5679 H   0  0  0  0  0  0  0  0  0  0  0  0
   -9.3412   21.6383  -31.2691 H   0  0  0  0  0  0  0  0  0  0  0  0
   -8.0839   20.8783  -30.1947 H   0  0  0  0  0  0  0  0  0  0  0  0
   -7.7780   21.9555  -33.0179 H   0  0  0  0  0  0  0  0  0  0  0  0
   -6.8771   22.3902  -31.4977 H   0  0  0  0  0  0  0  0  0  0  0  0
   -2.5621   22.9498  -32.0499 H   0  0  0  0  0  0  0  0  0  0  0  0
   -3.2375   25.9408  -26.7157 H   0  0  0  0  0  0  0  0  0  0  0  0
   -2.2301   25.9429  -24.4362 H   0  0  0  0  0  0  0  0  0  0  0  0
    0.1590   25.2887  -24.1237 H   0  0  0  0  0  0  0  0  0  0  0  0
    1.5447   24.6437  -26.0974 H   0  0  0  0  0  0  0  0  0  0  0  0
  1  2  1  0
  2  3  2  0
  3  4  1  0
  4  5  2  0
  5  6  1  0
  6  7  2  0
  6  8  2  0
  6  9  1  0
  9 10  1  0
 10 11  2  0
 11 12  1  0
 12 13  2  0
 13 14  1  0
 14 15  2  0
 15 16  1  0
 13 17  1  0
 17 18  1  0
 18 19  1  0
 18 20  1  0
 20 21  1  0
  5 22  1  0
 22 23  2  0
 23 24  1  0
 24 25  2  0
 24 26  2  0
 24 27  1  0
 27 28  1  0
 28 29  2  0
 29 30  1  0
 30 31  2  0
 31 32  1  0
 32 33  2  0
 33 34  1  0
 23  2  1  0
 33 28  1  0
 15 10  1  0
 21 12  1  0
  1 35  1  0
  1 36  1  0
  1 37  1  0
  3 38  1  0
  4 39  1  0
 11 40  1  0
 14 41  1  0
 16 42  1  0
 17 43  1  0
 17 44  1  0
 19 45  1  0
 19 46  1  0
 19 47  1  0
 20 48  1  0
 20 49  1  0
 21 50  1  0
 21 51  1  0
 22 52  1  0
 29 53  1  0
 30 54  1  0
 31 55  1  0
 32 56  1  0
M  CHG  3   9  -1  27  -1  34  -1
M  END
>  <UniqueID>  (17) 
17

>  <SMILES>  (17) 
Cc1ccc(S(=O)(=O)[N-]c2cc3c(cc2O)CN(C)CC3)cc1S(=O)(=O)[N-]c1ccccc1[O-]

>  <Energy>  (17) 
77.91754298699409

>  <Genealogy>  (17) 
Cc1ccc(S(=O)(=O)[N-]c2cc3c(cc2O)CN(C)CC3)cc1S(=O)(=O)[N-]c1ccccc1[O-] (protonated)
Cc1ccc(S(=O)(=O)[N-]c2cc3c(cc2O)CN(C)CC3)cc1S(=O)(=O)[N-]c1ccccc1[O-] (3D coordinates assigned)
Cc1ccc(S(=O)(=O)[N-]c2cc3c(cc2O)CN(C)CC3)cc1S(=O)(=O)[N-]c1ccccc1[O-] (nonaromatic ring conformer: 77.91754298699409 kcal/mol)

>  <smiles>  (17) 
Cc1ccc(S(=O)(=O)Nc2cc3c(cc2O)CN(C)CC3)cc1S(=O)(=O)Nc1ccccc1O

>  <score_type>  (17) 
oracle

>  <origin>  (17) 
adgpu

>  <m_score__min__energy>  (17) 
-14.07

>  <m_primary>  (17) 
energy

$$$$
17:0
     RDKit          3D

 68 72  0  0  0  0  0  0  0  0999 V2000
   -2.3040   20.3150  -34.5270 O   0  0  0  0  0  0  0  0  0  0  0  0
   -2.7400   20.7830  -33.4420 C   0  0  0  0  0  0  0  0  0  0  0  0
   -1.8790   21.5260  -32.5740 N   0  0  0  0  0  0  0  0  0  0  0  0
   -1.9210   21.5580  -31.1400 C   0  0  0  0  0  0  0  0  0  0  0  0
   -2.6130   20.5950  -30.3820 C   0  0  0  0  0  0  0  0  0  0  0  0
   -2.7270   20.7420  -28.9950 C   0  0  0  0  0  0  0  0  0  0  0  0
   -2.1820   21.8600  -28.3610 C   0  0  0  0  0  0  0  0  0  0  0  0
   -1.5080   22.8360  -29.1100 C   0  0  0  0  0  0  0  0  0  0  0  0
   -0.9090   24.3060  -28.3310 S   0  0  0  0  0  0  0  0  0  0  0  0
    0.5960   24.3060  -28.3730 O   0  0  0  0  0  0  0  0  0  0  0  0
   -1.3980   25.5020  -29.1040 O   0  0  0  0  0  0  0  0  0  0  0  0
   -1.4240   24.4450  -26.6640 N   0  0  0  0  0  0  0  0  0  0  0  0
   -0.3490   24.1330  -25.7270 C   0  0  0  0  0  0  0  0  0  0  0  0
   -0.6840   24.8560  -24.4330 C   0  0  0  0  0  0  0  0  0  0  0  0
   -1.6200   25.9840  -24.8370 C   0  0  0  0  0  0  0  0  0  0  0  0
   -1.8650   25.7990  -26.3300 C   0  0  0  0  0  0  0  0  0  0  0  0
   -1.3570   22.6620  -30.4930 C   0  0  0  0  0  0  0  0  0  0  0  0
   -4.1530   20.5960  -33.0480 C   0  0  0  0  0  0  0  0  0  0  0  0
   -4.8660   21.7130  -32.5810 C   0  0  0  0  0  0  0  0  0  0  0  0
   -6.2200   21.6110  -32.2430 C   0  0  0  0  0  0  0  0  0  0  0  0
   -7.0950   23.0420  -31.6900 S   0  0  0  0  0  0  0  0  0  0  0  0
   -8.5660   22.7290  -31.6710 O   0  0  0  0  0  0  0  0  0  0  0  0
   -6.8780   24.1640  -32.6690 O   0  0  0  0  0  0  0  0  0  0  0  0
   -6.5870   23.5800  -30.1020 N   0  0  0  0  0  0  0  0  0  0  0  0
   -5.2250   23.1290  -29.7350 C   0  0  0  0  0  0  0  0  0  0  0  0
   -4.1970   24.2710  -29.7500 C   0  0  0  0  0  0  0  0  0  0  0  0
   -4.4960   25.1760  -30.7860 O   0  0  0  0  0  0  0  0  0  0  0  0
   -5.6740   25.9000  -30.4750 C   0  0  0  0  0  0  0  0  0  0  0  0
   -6.8140   25.0230  -29.9000 C   0  0  0  0  0  0  0  0  0  0  0  0
   -6.8620   20.3700  -32.3350 C   0  0  0  0  0  0  0  0  0  0  0  0
   -6.1560   19.2450  -32.7650 C   0  0  0  0  0  0  0  0  0  0  0  0
   -4.8040   19.3460  -33.1270 C   0  0  0  0  0  0  0  0  0  0  0  0
   -4.1340   18.1920  -33.6460 N   0  0  0  0  0  0  0  0  0  0  0  0
   -4.4750   17.5800  -34.9160 C   0  0  0  0  0  0  0  0  0  0  0  0
   -3.3240   16.6340  -35.2380 C   0  0  0  0  0  0  0  0  0  0  0  0
   -2.5060   16.5030  -33.9510 C   0  0  0  0  0  0  0  0  0  0  0  0
   -2.9070   17.6790  -33.0710 C   0  0  0  0  0  0  0  0  0  0  0  0
   -3.0651   19.7251  -30.8808 H   0  0  0  0  0  0  0  0  0  0  0  0
   -3.2473   19.9748  -28.4029 H   0  0  0  0  0  0  0  0  0  0  0  0
   -2.2813   21.9759  -27.2716 H   0  0  0  0  0  0  0  0  0  0  0  0
   -0.2980   23.0479  -25.5542 H   0  0  0  0  0  0  0  0  0  0  0  0
    0.6276   24.4516  -26.1203 H   0  0  0  0  0  0  0  0  0  0  0  0
   -1.1830   24.1744  -23.7284 H   0  0  0  0  0  0  0  0  0  0  0  0
    0.2175   25.2314  -23.9267 H   0  0  0  0  0  0  0  0  0  0  0  0
   -2.5667   25.9150  -24.2812 H   0  0  0  0  0  0  0  0  0  0  0  0
   -1.1876   26.9708  -24.6148 H   0  0  0  0  0  0  0  0  0  0  0  0
   -2.9352   25.9156  -26.5558 H   0  0  0  0  0  0  0  0  0  0  0  0
   -1.3159   26.5499  -26.9170 H   0  0  0  0  0  0  0  0  0  0  0  0
   -0.7886   23.4020  -31.0755 H   0  0  0  0  0  0  0  0  0  0  0  0
   -4.3529   22.6807  -32.4797 H   0  0  0  0  0  0  0  0  0  0  0  0
   -5.2577   22.6985  -28.7233 H   0  0  0  0  0  0  0  0  0  0  0  0
   -4.9081   22.3874  -30.4831 H   0  0  0  0  0  0  0  0  0  0  0  0
   -4.2257   24.7993  -28.7856 H   0  0  0  0  0  0  0  0  0  0  0  0
   -3.1940   23.8511  -29.9164 H   0  0  0  0  0  0  0  0  0  0  0  0
   -5.4212   26.6709  -29.7321 H   0  0  0  0  0  0  0  0  0  0  0  0
   -6.0445   26.3289  -31.4178 H   0  0  0  0  0  0  0  0  0  0  0  0
   -6.8957   25.2175  -28.8204 H   0  0  0  0  0  0  0  0  0  0  0  0
   -7.7371   25.2896  -30.4356 H   0  0  0  0  0  0  0  0  0  0  0  0
   -7.9254   20.2813  -32.0678 H   0  0  0  0  0  0  0  0  0  0  0  0
   -6.6640   18.2709  -32.8205 H   0  0  0  0  0  0  0  0  0  0  0  0
   -5.4189   17.0214  -34.8318 H   0  0  0  0  0  0  0  0  0  0  0  0
   -4.6158   18.3328  -35.7055 H   0  0  0  0  0  0  0  0  0  0  0  0
   -3.7123   15.6516  -35.5447 H   0  0  0  0  0  0  0  0  0  0  0  0
   -2.7097   17.0174  -36.0660 H   0  0  0  0  0  0  0  0  0  0  0  0
   -2.7378   15.5531  -33.4469 H   0  0  0  0  0  0  0  0  0  0  0  0
   -1.4261   16.5089  -34.1602 H   0  0  0  0  0  0  0  0  0  0  0  0
   -3.0773   17.3448  -32.0369 H   0  0  0  0  0  0  0  0  0  0  0  0
   -2.1210   18.4477  -33.0340 H   0  0  0  0  0  0  0  0  0  0  0  0
  1  2  2  0
  2  3  1  0
  3  4  1  0
  4  5  2  0
  5  6  1  0
  6  7  2  0
  7  8  1  0
  8  9  1  0
  9 10  2  0
  9 11  2  0
  9 12  1  0
 12 13  1  0
 13 14  1  0
 14 15  1  0
 15 16  1  0
  8 17  2  0
  2 18  1  0
 18 19  2  0
 19 20  1  0
 20 21  1  0
 21 22  2  0
 21 23  2  0
 21 24  1  0
 24 25  1  0
 25 26  1  0
 26 27  1  0
 27 28  1  0
 28 29  1  0
 20 30  2  0
 30 31  1  0
 31 32  2  0
 32 33  1  0
 33 34  1  0
 34 35  1  0
 35 36  1  0
 36 37  1  0
 17  4  1  0
 32 18  1  0
 37 33  1  0
 16 12  1  0
 29 24  1  0
  5 38  1  0
  6 39  1  0
  7 40  1  0
 13 41  1  0
 13 42  1  0
 14 43  1  0
 14 44  1  0
 15 45  1  0
 15 46  1  0
 16 47  1  0
 16 48  1  0
 17 49  1  0
 19 50  1  0
 25 51  1  0
 25 52  1  0
 26 53  1  0
 26 54  1  0
 28 55  1  0
 28 56  1  0
 29 57  1  0
 29 58  1  0
 30 59  1  0
 31 60  1  0
 34 61  1  0
 34 62  1  0
 35 63  1  0
 35 64  1  0
 36 65  1  0
 36 66  1  0
 37 67  1  0
 37 68  1  0
M  CHG  1   3  -1
M  END
>  <UniqueID>  (18) 
18

>  <SMILES>  (18) 
O=C([N-]c1cccc(S(=O)(=O)N2CCCC2)c1)c1cc(S(=O)(=O)N2CCOCC2)ccc1N1CCCC1

>  <Energy>  (18) 
95.71379252478744

>  <Genealogy>  (18) 
O=C([N-]c1cccc(S(=O)(=O)N2CCCC2)c1)c1cc(S(=O)(=O)N2CCOCC2)ccc1N1CCCC1 (protonated)
O=C([N-]c1cccc(S(=O)(=O)N2CCCC2)c1)c1cc(S(=O)(=O)N2CCOCC2)ccc1N1CCCC1 (3D coordinates assigned)
O=C([N-]c1cccc(S(=O)(=O)N2CCCC2)c1)c1cc(S(=O)(=O)N2CCOCC2)ccc1N1CCCC1 (nonaromatic ring conformer: 95.71379252478744 kcal/mol)

>  <smiles>  (18) 
O=C(Nc1cccc(S(=O)(=O)N2CCCC2)c1)c1cc(S(=O)(=O)N2CCOCC2)ccc1N1CCCC1

>  <score_type>  (18) 
oracle

>  <origin>  (18) 
adgpu

>  <m_score__min__energy>  (18) 
-12.34

>  <m_primary>  (18) 
energy

$$$$
18:0
     RDKit          3D

 89 94  0  0  0  0  0  0  0  0999 V2000
   -5.1660   19.3330  -34.0630 C   0  0  0  0  0  0  0  0  0  0  0  0
   -6.2050   20.2910  -33.8910 O   0  0  0  0  0  0  0  0  0  0  0  0
   -6.1880   21.3240  -32.9390 C   0  0  0  0  0  0  0  0  0  0  0  0
   -7.3630   21.7510  -32.2880 C   0  0  0  0  0  0  0  0  0  0  0  0
   -7.3280   22.8280  -31.4000 C   0  0  0  0  0  0  0  0  0  0  0  0
   -6.1270   23.4980  -31.1500 C   0  0  0  0  0  0  0  0  0  0  0  0
   -6.1140   24.9100  -30.1000 S   0  0  0  0  0  0  0  0  0  0  0  0
   -5.4470   26.0560  -30.8080 O   0  0  0  0  0  0  0  0  0  0  0  0
   -7.5180   25.3170  -29.7450 O   0  0  0  0  0  0  0  0  0  0  0  0
   -5.2310   24.5290  -28.6640 N   0  0  0  0  0  0  0  0  0  0  0  0
   -4.0330   23.7560  -28.7300 C   0  0  0  0  0  0  0  0  0  0  0  0
   -3.8950   22.6010  -27.9470 C   0  0  0  0  0  0  0  0  0  0  0  0
   -2.7060   21.8580  -27.9900 C   0  0  0  0  0  0  0  0  0  0  0  0
   -1.6730   22.2510  -28.8480 C   0  0  0  0  0  0  0  0  0  0  0  0
   -1.8130   23.3980  -29.6430 C   0  0  0  0  0  0  0  0  0  0  0  0
   -2.9880   24.1540  -29.5780 C   0  0  0  0  0  0  0  0  0  0  0  0
   -3.1160   25.2970  -30.3600 O   0  0  0  0  0  0  0  0  0  0  0  0
   -0.4190   21.4280  -28.8570 C   0  0  0  0  0  0  0  0  0  0  0  0
   -0.0330   21.0570  -27.4810 N   0  0  0  0  0  0  0  0  0  0  0  0
    0.4300   22.2290  -26.7160 C   0  0  0  0  0  0  0  0  0  0  0  0
   -1.0890   20.3040  -26.7510 C   0  0  0  0  0  0  0  0  0  0  0  0
   -2.5510   20.5860  -27.2000 C   0  0  0  0  0  0  0  0  0  0  0  0
   -4.9540   23.0750  -31.7860 C   0  0  0  0  0  0  0  0  0  0  0  0
   -4.9670   21.9710  -32.6510 C   0  0  0  0  0  0  0  0  0  0  0  0
   -3.7400   21.5650  -33.2780 N   0  0  0  0  0  0  0  0  0  0  0  0
   -2.7230   20.8050  -32.6060 C   0  0  0  0  0  0  0  0  0  0  0  0
   -2.8470   20.5120  -31.3850 O   0  0  0  0  0  0  0  0  0  0  0  0
   -1.5290   20.3140  -33.3740 C   0  0  0  0  0  0  0  0  0  0  0  0
   -1.4770   18.8090  -33.4200 C   0  0  0  0  0  0  0  0  0  0  0  0
   -2.1430   18.1040  -34.4350 C   0  0  0  0  0  0  0  0  0  0  0  0
   -2.0820   16.7060  -34.4790 C   0  0  0  0  0  0  0  0  0  0  0  0
   -1.3550   15.9960  -33.5080 C   0  0  0  0  0  0  0  0  0  0  0  0
   -1.2740   14.5640  -33.5230 N   0  0  0  0  0  0  0  0  0  0  0  0
   -1.4660   13.7060  -32.3900 C   0  0  0  0  0  0  0  0  0  0  0  0
   -0.7720   13.8670  -31.3500 O   0  0  0  0  0  0  0  0  0  0  0  0
   -2.6030   12.7110  -32.4030 C   0  0  0  0  0  0  0  0  0  0  0  0
   -3.6260   12.9760  -31.2690 C   0  0  0  0  0  0  0  0  0  0  0  0
   -4.5560   14.1690  -31.5670 C   0  0  0  0  0  0  0  0  0  0  0  0
   -4.9320   14.2260  -32.9890 N   0  0  0  0  0  0  0  0  0  0  0  0
   -5.2030   15.4990  -33.6110 C   0  0  0  0  0  0  0  0  0  0  0  0
   -4.7570   15.7330  -34.7670 O   0  0  0  0  0  0  0  0  0  0  0  0
   -5.9740   16.5490  -32.9090 C   0  0  0  0  0  0  0  0  0  0  0  0
   -7.2110   16.9770  -33.4210 C   0  0  0  0  0  0  0  0  0  0  0  0
   -7.9490   17.9610  -32.7530 C   0  0  0  0  0  0  0  0  0  0  0  0
   -7.4650   18.5170  -31.5660 C   0  0  0  0  0  0  0  0  0  0  0  0
   -6.2460   18.0810  -31.0380 C   0  0  0  0  0  0  0  0  0  0  0  0
   -5.5040   17.1010  -31.7040 C   0  0  0  0  0  0  0  0  0  0  0  0
   -4.7370   13.0320  -33.8160 C   0  0  0  0  0  0  0  0  0  0  0  0
   -3.2570   12.6350  -33.8140 C   0  0  0  0  0  0  0  0  0  0  0  0
   -0.7340   16.6980  -32.4670 C   0  0  0  0  0  0  0  0  0  0  0  0
   -0.7830   18.0970  -32.4300 C   0  0  0  0  0  0  0  0  0  0  0  0
   -4.8063   19.0013  -33.0778 H   0  0  0  0  0  0  0  0  0  0  0  0
   -5.5533   18.4684  -34.6220 H   0  0  0  0  0  0  0  0  0  0  0  0
   -4.3356   19.7890  -34.6220 H   0  0  0  0  0  0  0  0  0  0  0  0
   -8.3137   21.2324  -32.4808 H   0  0  0  0  0  0  0  0  0  0  0  0
   -8.2502   23.1508  -30.8947 H   0  0  0  0  0  0  0  0  0  0  0  0
   -4.7213   22.2767  -27.2973 H   0  0  0  0  0  0  0  0  0  0  0  0
   -0.9991   23.7029  -30.3173 H   0  0  0  0  0  0  0  0  0  0  0  0
   -0.5906   20.5135  -29.4437 H   0  0  0  0  0  0  0  0  0  0  0  0
    0.3917   22.0206  -29.3060 H   0  0  0  0  0  0  0  0  0  0  0  0
    0.3474   22.0200  -25.6392 H   0  0  0  0  0  0  0  0  0  0  0  0
    1.4794   22.4408  -26.9690 H   0  0  0  0  0  0  0  0  0  0  0  0
   -0.1913   23.1008  -26.9690 H   0  0  0  0  0  0  0  0  0  0  0  0
   -0.8945   19.2301  -26.8883 H   0  0  0  0  0  0  0  0  0  0  0  0
   -1.0269   20.6384  -25.7049 H   0  0  0  0  0  0  0  0  0  0  0  0
   -2.8910   19.7461  -27.8237 H   0  0  0  0  0  0  0  0  0  0  0  0
   -3.1521   20.6997  -26.2858 H   0  0  0  0  0  0  0  0  0  0  0  0
   -4.0122   23.6140  -31.6055 H   0  0  0  0  0  0  0  0  0  0  0  0
   -3.5110   21.9810  -34.2090 H   0  0  0  0  0  0  0  0  0  0  0  0
   -1.5830   20.7005  -34.4024 H   0  0  0  0  0  0  0  0  0  0  0  0
   -0.6223   20.6732  -32.8652 H   0  0  0  0  0  0  0  0  0  0  0  0
   -2.7148   18.6519  -35.1984 H   0  0  0  0  0  0  0  0  0  0  0  0
   -2.6058   16.1604  -35.2777 H   0  0  0  0  0  0  0  0  0  0  0  0
   -2.1854   11.7156  -32.1913 H   0  0  0  0  0  0  0  0  0  0  0  0
   -4.2427   12.0751  -31.1350 H   0  0  0  0  0  0  0  0  0  0  0  0
   -3.0560   13.2206  -30.3606 H   0  0  0  0  0  0  0  0  0  0  0  0
   -5.4686   14.0693  -30.9610 H   0  0  0  0  0  0  0  0  0  0  0  0
   -4.0159   15.0945  -31.3184 H   0  0  0  0  0  0  0  0  0  0  0  0
   -7.6008   16.5368  -34.3507 H   0  0  0  0  0  0  0  0  0  0  0  0
   -8.9125   18.2975  -33.1635 H   0  0  0  0  0  0  0  0  0  0  0  0
   -8.0423   19.2967  -31.0476 H   0  0  0  0  0  0  0  0  0  0  0  0
   -5.8702   18.5097  -30.0972 H   0  0  0  0  0  0  0  0  0  0  0  0
   -4.5468   16.7597  -31.2829 H   0  0  0  0  0  0  0  0  0  0  0  0
   -5.3375   12.2046  -33.4101 H   0  0  0  0  0  0  0  0  0  0  0  0
   -5.0534   13.2488  -34.8470 H   0  0  0  0  0  0  0  0  0  0  0  0
   -3.1716   11.6025  -34.1837 H   0  0  0  0  0  0  0  0  0  0  0  0
   -2.7260   13.3504  -34.4592 H   0  0  0  0  0  0  0  0  0  0  0  0
   -0.2053   16.1477  -31.6748 H   0  0  0  0  0  0  0  0  0  0  0  0
   -0.2745   18.6408  -31.6202 H   0  0  0  0  0  0  0  0  0  0  0  0
  1  2  1  0
  2  3  1  0
  3  4  2  0
  4  5  1  0
  5  6  2  0
  6  7  1  0
  7  8  2  0
  7  9  2  0
  7 10  1  0
 10 11  1  0
 11 12  2  0
 12 13  1  0
 13 14  2  0
 14 15  1  0
 15 16  2  0
 16 17  1  0
 14 18  1  0
 18 19  1  0
 19 20  1  0
 19 21  1  0
 21 22  1  0
  6 23  1  0
 23 24  2  0
 24 25  1  0
 25 26  1  0
 26 27  2  0
 26 28  1  0
 28 29  1  0
 29 30  2  0
 30 31  1  0
 31 32  2  0
 32 33  1  0
 33 34  1  0
 34 35  2  0
 34 36  1  0
 36 37  1  0
 37 38  1  0
 38 39  1  0
 39 40  1  0
 40 41  2  0
 40 42  1  0
 42 43  2  0
 43 44  1  0
 44 45  2  0
 45 46  1  0
 46 47  2  0
 39 48  1  0
 48 49  1  0
 32 50  1  0
 50 51  2  0
 24  3  1  0
 51 29  1  0
 16 11  1  0
 49 36  1  0
 22 13  1  0
 47 42  1  0
  1 52  1  0
  1 53  1  0
  1 54  1  0
  4 55  1  0
  5 56  1  0
 12 57  1  0
 15 58  1  0
 18 59  1  0
 18 60  1  0
 20 61  1  0
 20 62  1  0
 20 63  1  0
 21 64  1  0
 21 65  1  0
 22 66  1  0
 22 67  1  0
 23 68  1  0
 25 69  1  0
 28 70  1  0
 28 71  1  0
 30 72  1  0
 31 73  1  0
 36 74  1  0
 37 75  1  0
 37 76  1  0
 38 77  1  0
 38 78  1  0
 43 79  1  0
 44 80  1  0
 45 81  1  0
 46 82  1  0
 47 83  1  0
 48 84  1  0
 48 85  1  0
 49 86  1  0
 49 87  1  0
 50 88  1  0
 51 89  1  0
M  CHG  3  10  -1  17  -1  33  -1
M  END
>  <UniqueID>  (19) 
19

>  <SMILES>  (19) 
COc1ccc(S(=O)(=O)[N-]c2cc3c(cc2[O-])CN(C)CC3)cc1NC(=O)Cc1ccc([N-]C(=O)C2CCN(C(=O)c3ccccc3)CC2)cc1

>  <Energy>  (19) 
131.46612191982473

>  <Genealogy>  (19) 
COc1ccc(S(=O)(=O)[N-]c2cc3c(cc2[O-])CN(C)CC3)cc1NC(=O)Cc1ccc([N-]C(=O)C2CCN(C(=O)c3ccccc3)CC2)cc1 (protonated)
COc1ccc(S(=O)(=O)[N-]c2cc3c(cc2[O-])CN(C)CC3)cc1NC(=O)Cc1ccc([N-]C(=O)C2CCN(C(=O)c3ccccc3)CC2)cc1 (3D coordinates assigned)
COc1ccc(S(=O)(=O)[N-]c2cc3c(cc2[O-])CN(C)CC3)cc1NC(=O)Cc1ccc([N-]C(=O)C2CCN(C(=O)c3ccccc3)CC2)cc1 (nonaromatic ring conformer: 131.46612191982473 kcal/mol)

>  <smiles>  (19) 
COc1ccc(S(=O)(=O)Nc2cc3c(cc2O)CN(C)CC3)cc1NC(=O)Cc1ccc(NC(=O)C2CCN(C(=O)c3ccccc3)CC2)cc1

>  <score_type>  (19) 
oracle

>  <origin>  (19) 
adgpu

>  <m_score__min__energy>  (19) 
-15.449999999999999

>  <m_primary>  (19) 
energy

$$$$
19:0
     RDKit          3D

 43 45  0  0  0  0  0  0  0  0999 V2000
   -1.5850   26.0320  -28.6960 N   0  0  0  0  0  0  0  0  0  0  0  0
   -1.1480   24.8140  -28.5980 C   0  0  0  0  0  0  0  0  0  0  0  0
    0.1470   24.6110  -28.2400 N   0  0  0  0  0  0  0  0  0  0  0  0
    0.6700   23.3650  -28.1180 C   0  0  0  0  0  0  0  0  0  0  0  0
   -0.1390   22.2570  -28.3660 C   0  0  0  0  0  0  0  0  0  0  0  0
    0.5020   20.6330  -28.2190 Cl  0  0  0  0  0  0  0  0  0  0  0  0
   -1.4330   22.4450  -28.7260 N   0  0  0  0  0  0  0  0  0  0  0  0
   -1.9740   23.6900  -28.8530 C   0  0  0  0  0  0  0  0  0  0  0  0
   -3.4190   23.8350  -29.2550 C   0  0  0  0  0  0  0  0  0  0  0  0
   -3.5760   24.8620  -30.2810 N   0  0  0  0  0  0  0  0  0  0  0  0
   -4.8360   25.2770  -30.8210 C   0  0  0  0  0  0  0  0  0  0  0  0
   -5.4010   26.2940  -30.3430 O   0  0  0  0  0  0  0  0  0  0  0  0
   -5.4340   24.6080  -31.9370 N   0  0  0  0  0  0  0  0  0  0  0  0
   -6.2060   23.4030  -31.8570 C   0  0  0  0  0  0  0  0  0  0  0  0
   -7.5720   23.4290  -31.5350 C   0  0  0  0  0  0  0  0  0  0  0  0
   -8.3040   22.2410  -31.4850 C   0  0  0  0  0  0  0  0  0  0  0  0
   -7.6870   21.0170  -31.7680 C   0  0  0  0  0  0  0  0  0  0  0  0
   -8.6650   19.5550  -31.6930 Cl  0  0  0  0  0  0  0  0  0  0  0  0
   -6.3200   20.9820  -32.1120 C   0  0  0  0  0  0  0  0  0  0  0  0
   -5.5160   19.4570  -32.5010 S   0  0  0  0  0  0  0  0  0  0  0  0
   -5.9620   18.3780  -31.5520 O   0  0  0  0  0  0  0  0  0  0  0  0
   -5.8900   19.0500  -33.9000 O   0  0  0  0  0  0  0  0  0  0  0  0
   -3.7880   19.6720  -32.3940 N   0  0  0  0  0  0  0  0  0  0  0  0
   -3.2860   20.4960  -33.4920 C   0  0  0  0  0  0  0  0  0  0  0  0
   -2.0240   21.1750  -32.9830 C   0  0  0  0  0  0  0  0  0  0  0  0
   -2.1030   21.0890  -31.4660 C   0  0  0  0  0  0  0  0  0  0  0  0
   -3.4130   20.3780  -31.1700 C   0  0  0  0  0  0  0  0  0  0  0  0
   -5.5930   22.1830  -32.1640 C   0  0  0  0  0  0  0  0  0  0  0  0
   -2.5620   26.2850  -28.9650 H   0  0  0  0  0  0  0  0  0  0  0  0
    1.7220   23.2304  -27.8263 H   0  0  0  0  0  0  0  0  0  0  0  0
   -3.7808   22.8740  -29.6495 H   0  0  0  0  0  0  0  0  0  0  0  0
   -4.0010   24.1318  -28.3700 H   0  0  0  0  0  0  0  0  0  0  0  0
   -8.0671   24.3878  -31.3215 H   0  0  0  0  0  0  0  0  0  0  0  0
   -9.3717   22.2672  -31.2217 H   0  0  0  0  0  0  0  0  0  0  0  0
   -3.0533   19.8664  -34.3635 H   0  0  0  0  0  0  0  0  0  0  0  0
   -4.0357   21.2367  -33.8074 H   0  0  0  0  0  0  0  0  0  0  0  0
   -1.1297   20.6516  -33.3521 H   0  0  0  0  0  0  0  0  0  0  0  0
   -1.9509   22.2161  -33.3306 H   0  0  0  0  0  0  0  0  0  0  0  0
   -1.2542   20.5133  -31.0684 H   0  0  0  0  0  0  0  0  0  0  0  0
   -2.0620   22.0832  -30.9971 H   0  0  0  0  0  0  0  0  0  0  0  0
   -3.2793   19.6631  -30.3447 H   0  0  0  0  0  0  0  0  0  0  0  0
   -4.1934   21.0917  -30.8675 H   0  0  0  0  0  0  0  0  0  0  0  0
   -4.5307   22.1642  -32.4490 H   0  0  0  0  0  0  0  0  0  0  0  0
  1  2  2  3
  2  3  1  0
  3  4  1  0
  4  5  2  0
  5  6  1  0
  5  7  1  0
  7  8  2  0
  8  9  1  0
  9 10  1  0
 10 11  1  0
 11 12  2  0
 11 13  1  0
 13 14  1  0
 14 15  2  0
 15 16  1  0
 16 17  2  0
 17 18  1  0
 17 19  1  0
 19 20  1  0
 20 21  2  0
 20 22  2  0
 20 23  1  0
 23 24  1  0
 24 25  1  0
 25 26  1  0
 26 27  1  0
 19 28  2  0
  8  2  1  0
 28 14  1  0
 27 23  1  0
  1 29  1  0
  4 30  1  0
  9 31  1  0
  9 32  1  0
 15 33  1  0
 16 34  1  0
 24 35  1  0
 24 36  1  0
 25 37  1  0
 25 38  1  0
 26 39  1  0
 26 40  1  0
 27 41  1  0
 27 42  1  0
 28 43  1  0
M  CHG  3   3  -1  10  -1  13  -1
M  END
>  <UniqueID>  (20) 
20

>  <SMILES>  (20) 
N=c1[n-]cc(Cl)nc1C[N-]C(=O)[N-]c1ccc(Cl)c(S(=O)(=O)N2CCCC2)c1

>  <Energy>  (20) 
54.72713154836777

>  <Genealogy>  (20) 
N=c1[n-]cc(Cl)nc1C[N-]C(=O)[N-]c1ccc(Cl)c(S(=O)(=O)N2CCCC2)c1 (protonated)
N=c1[n-]cc(Cl)nc1C[N-]C(=O)[N-]c1ccc(Cl)c(S(=O)(=O)N2CCCC2)c1 (3D coordinates assigned)
N=c1[n-]cc(Cl)nc1C[N-]C(=O)[N-]c1ccc(Cl)c(S(=O)(=O)N2CCCC2)c1 (nonaromatic ring conformer: 54.72713154836777 kcal/mol)

>  <smiles>  (20) 
N=c1[nH]cc(Cl)nc1CNC(=O)Nc1ccc(Cl)c(S(=O)(=O)N2CCCC2)c1

>  <score_type>  (20) 
oracle

>  <origin>  (20) 
adgpu

>  <m_score__min__energy>  (20) 
-13.02

>  <m_primary>  (20) 
energy

$$$$
20:0
     RDKit          3D

 54 57  0  0  0  0  0  0  0  0999 V2000
   -1.9170   24.8490  -28.4950 C   0  0  0  0  0  0  0  0  0  0  0  0
   -3.2310   24.3220  -28.9900 C   0  0  0  0  0  0  0  0  0  0  0  0
   -3.8380   23.2400  -28.3380 C   0  0  0  0  0  0  0  0  0  0  0  0
   -5.0670   22.7440  -28.7830 C   0  0  0  0  0  0  0  0  0  0  0  0
   -5.7190   23.3400  -29.8770 C   0  0  0  0  0  0  0  0  0  0  0  0
   -6.9670   22.8300  -30.3800 N   0  0  0  0  0  0  0  0  0  0  0  0
   -7.4330   23.0210  -31.7240 C   0  0  0  0  0  0  0  0  0  0  0  0
   -6.6400   23.3840  -32.6340 O   0  0  0  0  0  0  0  0  0  0  0  0
   -8.8540   22.7050  -32.0710 C   0  0  0  0  0  0  0  0  0  0  0  0
   -9.5750   21.5780  -30.8300 S   0  0  0  0  0  0  0  0  0  0  0  0
   -8.7790   20.1130  -31.4810 C   0  0  0  0  0  0  0  0  0  0  0  0
   -8.7830   18.9130  -30.8590 N   0  0  0  0  0  0  0  0  0  0  0  0
   -8.1060   17.9780  -31.5230 N   0  0  0  0  0  0  0  0  0  0  0  0
   -7.5630   18.4350  -32.6720 C   0  0  0  0  0  0  0  0  0  0  0  0
   -6.5360   17.4460  -33.7590 S   0  0  0  0  0  0  0  0  0  0  0  0
   -5.6770   18.8550  -34.5570 C   0  0  0  0  0  0  0  0  0  0  0  0
   -4.6890   19.5220  -33.6350 C   0  0  0  0  0  0  0  0  0  0  0  0
   -4.9180   20.8280  -33.1760 C   0  0  0  0  0  0  0  0  0  0  0  0
   -4.0610   21.4040  -32.2340 C   0  0  0  0  0  0  0  0  0  0  0  0
   -2.9570   20.6850  -31.7450 C   0  0  0  0  0  0  0  0  0  0  0  0
   -2.0680   21.2660  -30.7150 C   0  0  0  0  0  0  0  0  0  0  0  0
   -1.5670   22.4050  -30.9220 O   0  0  0  0  0  0  0  0  0  0  0  0
   -1.7330   20.5420  -29.4640 C   0  0  0  0  0  0  0  0  0  0  0  0
   -0.4190   20.1070  -29.2070 C   0  0  0  0  0  0  0  0  0  0  0  0
   -0.1110   19.4560  -28.0080 C   0  0  0  0  0  0  0  0  0  0  0  0
   -1.1070   19.2390  -27.0530 C   0  0  0  0  0  0  0  0  0  0  0  0
   -2.4120   19.6740  -27.2920 C   0  0  0  0  0  0  0  0  0  0  0  0
   -2.7240   20.3270  -28.4880 C   0  0  0  0  0  0  0  0  0  0  0  0
   -2.6970   19.4010  -32.2460 C   0  0  0  0  0  0  0  0  0  0  0  0
   -3.5640   18.8180  -33.1740 C   0  0  0  0  0  0  0  0  0  0  0  0
   -7.9190   20.0610  -32.9260 S   0  0  0  0  0  0  0  0  0  0  0  0
   -5.1030   24.4160  -30.5340 C   0  0  0  0  0  0  0  0  0  0  0  0
   -3.8750   24.9120  -30.0880 C   0  0  0  0  0  0  0  0  0  0  0  0
   -1.9134   24.8504  -27.3950 H   0  0  0  0  0  0  0  0  0  0  0  0
   -1.1026   24.2079  -28.8635 H   0  0  0  0  0  0  0  0  0  0  0  0
   -1.7712   25.8751  -28.8635 H   0  0  0  0  0  0  0  0  0  0  0  0
   -3.3442   22.7780  -27.4704 H   0  0  0  0  0  0  0  0  0  0  0  0
   -5.5262   21.8833  -28.2748 H   0  0  0  0  0  0  0  0  0  0  0  0
   -7.5500   22.2430  -29.7410 H   0  0  0  0  0  0  0  0  0  0  0  0
   -9.4371   23.6374  -32.0963 H   0  0  0  0  0  0  0  0  0  0  0  0
   -8.8810   22.2161  -33.0560 H   0  0  0  0  0  0  0  0  0  0  0  0
   -5.1397   18.4853  -35.4428 H   0  0  0  0  0  0  0  0  0  0  0  0
   -6.4380   19.6010  -34.8295 H   0  0  0  0  0  0  0  0  0  0  0  0
   -5.7754   21.4008  -33.5590 H   0  0  0  0  0  0  0  0  0  0  0  0
   -4.2517   22.4256  -31.8735 H   0  0  0  0  0  0  0  0  0  0  0  0
    0.3701   20.2801  -29.9535 H   0  0  0  0  0  0  0  0  0  0  0  0
    0.9170   19.1144  -27.8168 H   0  0  0  0  0  0  0  0  0  0  0  0
   -0.8629   18.7249  -26.1117 H   0  0  0  0  0  0  0  0  0  0  0  0
   -3.1951   19.5028  -26.5387 H   0  0  0  0  0  0  0  0  0  0  0  0
   -3.7518   20.6754  -28.6677 H   0  0  0  0  0  0  0  0  0  0  0  0
   -1.8069   18.8506  -31.9070 H   0  0  0  0  0  0  0  0  0  0  0  0
   -3.3645   17.8021  -33.5457 H   0  0  0  0  0  0  0  0  0  0  0  0
   -5.5909   24.8730  -31.4076 H   0  0  0  0  0  0  0  0  0  0  0  0
   -3.4115   25.7683  -30.5998 H   0  0  0  0  0  0  0  0  0  0  0  0
  1  2  1  0
  2  3  2  0
  3  4  1  0
  4  5  2  0
  5  6  1  0
  6  7  1  0
  7  8  2  0
  7  9  1  0
  9 10  1  0
 10 11  1  0
 11 12  2  0
 12 13  1  0
 13 14  2  0
 14 15  1  0
 15 16  1  0
 16 17  1  0
 17 18  2  0
 18 19  1  0
 19 20  2  0
 20 21  1  0
 21 22  2  0
 21 23  1  0
 23 24  2  0
 24 25  1  0
 25 26  2  0
 26 27  1  0
 27 28  2  0
 20 29  1  0
 29 30  2  0
 14 31  1  0
  5 32  1  0
 32 33  2  0
 33  2  1  0
 31 11  1  0
 30 17  1  0
 28 23  1  0
  1 34  1  0
  1 35  1  0
  1 36  1  0
  3 37  1  0
  4 38  1  0
  6 39  1  0
  9 40  1  0
  9 41  1  0
 16 42  1  0
 16 43  1  0
 18 44  1  0
 19 45  1  0
 24 46  1  0
 25 47  1  0
 26 48  1  0
 27 49  1  0
 28 50  1  0
 29 51  1  0
 30 52  1  0
 32 53  1  0
 33 54  1  0
M  END
>  <UniqueID>  (21) 
21

>  <SMILES>  (21) 
Cc1ccc(NC(=O)CSc2nnc(SCc3ccc(C(=O)c4ccccc4)cc3)s2)cc1

>  <Energy>  (21) 
89.51972754345195

>  <Genealogy>  (21) 
Cc1ccc(NC(=O)CSc2nnc(SCc3ccc(C(=O)c4ccccc4)cc3)s2)cc1 (3D coordinates assigned)
Cc1ccc(NC(=O)CSc2nnc(SCc3ccc(C(=O)c4ccccc4)cc3)s2)cc1 (optimized conformer: 89.51972754345195 kcal/mol)

>  <smiles>  (21) 
Cc1ccc(NC(=O)CSc2nnc(SCc3ccc(C(=O)c4ccccc4)cc3)s2)cc1

>  <score_type>  (21) 
oracle

>  <origin>  (21) 
adgpu

>  <m_score__min__energy>  (21) 
-10.81

>  <m_primary>  (21) 
energy

$$$$
21:0
     RDKit          3D

 64 68  0  0  0  0  0  0  0  0999 V2000
   -4.3050   18.5180  -34.5970 C   0  0  0  0  0  0  0  0  0  0  0  0
   -5.5230   17.7880  -34.9160 N   0  0  0  0  0  0  0  0  0  0  0  0
   -6.2500   17.1990  -33.4560 S   0  0  0  0  0  0  0  0  0  0  0  0
   -5.2080   16.5730  -32.5800 O   0  0  0  0  0  0  0  0  0  0  0  0
   -7.2550   16.1500  -33.8040 O   0  0  0  0  0  0  0  0  0  0  0  0
   -7.0580   18.5130  -32.5960 C   0  0  0  0  0  0  0  0  0  0  0  0
   -8.4030   18.3980  -32.2210 C   0  0  0  0  0  0  0  0  0  0  0  0
   -9.0410   19.4530  -31.5590 C   0  0  0  0  0  0  0  0  0  0  0  0
   -8.3390   20.6270  -31.2740 C   0  0  0  0  0  0  0  0  0  0  0  0
   -6.9860   20.7580  -31.6390 C   0  0  0  0  0  0  0  0  0  0  0  0
   -6.2440   22.0200  -31.3640 C   0  0  0  0  0  0  0  0  0  0  0  0
   -6.7790   23.2780  -31.7680 C   0  0  0  0  0  0  0  0  0  0  0  0
   -6.0830   24.4730  -31.5220 C   0  0  0  0  0  0  0  0  0  0  0  0
   -4.8700   24.3990  -30.8480 C   0  0  0  0  0  0  0  0  0  0  0  0
   -4.0740   25.4340  -30.5130 N   0  0  0  0  0  0  0  0  0  0  0  0
   -3.0390   24.8540  -29.8640 C   0  0  0  0  0  0  0  0  0  0  0  0
   -1.9790   25.5780  -29.3320 O   0  0  0  0  0  0  0  0  0  0  0  0
   -3.1750   23.4730  -29.7830 C   0  0  0  0  0  0  0  0  0  0  0  0
   -2.2260   22.5020  -29.1400 C   0  0  0  0  0  0  0  0  0  0  0  0
   -2.3440   21.1150  -29.7290 C   0  0  0  0  0  0  0  0  0  0  0  0
   -2.8500   20.1880  -29.0300 O   0  0  0  0  0  0  0  0  0  0  0  0
   -1.9440   20.8440  -31.0940 N   0  0  0  0  0  0  0  0  0  0  0  0
   -1.8700   21.9600  -32.0550 C   0  0  0  0  0  0  0  0  0  0  0  0
   -1.5780   21.4960  -33.4730 C   0  0  0  0  0  0  0  0  0  0  0  0
   -0.5430   20.4620  -33.4190 N   0  0  0  0  0  0  0  0  0  0  0  0
    0.1430   20.2610  -34.7120 C   0  0  0  0  0  0  0  0  0  0  0  0
    0.9400   21.4540  -35.1830 C   0  0  0  0  0  0  0  0  0  0  0  0
    0.2950   22.5690  -35.7320 C   0  0  0  0  0  0  0  0  0  0  0  0
    1.0520   23.6660  -36.1490 C   0  0  0  0  0  0  0  0  0  0  0  0
    2.3990   23.6530  -36.0160 N   0  0  0  0  0  0  0  0  0  0  0  0
    3.0490   22.5880  -35.4830 C   0  0  0  0  0  0  0  0  0  0  0  0
    2.3330   21.4720  -35.0550 C   0  0  0  0  0  0  0  0  0  0  0  0
   -1.1020   19.2220  -32.8660 C   0  0  0  0  0  0  0  0  0  0  0  0
   -1.7360   19.4320  -31.4770 C   0  0  0  0  0  0  0  0  0  0  0  0
   -4.3570   23.1970  -30.4320 C   0  0  0  0  0  0  0  0  0  0  0  0
   -5.0060   21.9900  -30.6790 C   0  0  0  0  0  0  0  0  0  0  0  0
   -6.3490   19.6810  -32.2900 C   0  0  0  0  0  0  0  0  0  0  0  0
   -4.1931   18.5851  -33.5048 H   0  0  0  0  0  0  0  0  0  0  0  0
   -3.4389   17.9900  -35.0226 H   0  0  0  0  0  0  0  0  0  0  0  0
   -4.3624   19.5307  -35.0226 H   0  0  0  0  0  0  0  0  0  0  0  0
   -6.1920   18.4670  -35.3460 H   0  0  0  0  0  0  0  0  0  0  0  0
   -8.9589   17.4762  -32.4475 H   0  0  0  0  0  0  0  0  0  0  0  0
  -10.0961   19.3580  -31.2627 H   0  0  0  0  0  0  0  0  0  0  0  0
   -8.8480   21.4558  -30.7601 H   0  0  0  0  0  0  0  0  0  0  0  0
   -7.7518   23.3135  -32.2802 H   0  0  0  0  0  0  0  0  0  0  0  0
   -6.4870   25.4408  -31.8538 H   0  0  0  0  0  0  0  0  0  0  0  0
   -1.1971   22.8627  -29.2858 H   0  0  0  0  0  0  0  0  0  0  0  0
   -2.4797   22.4384  -28.0715 H   0  0  0  0  0  0  0  0  0  0  0  0
   -2.8325   22.4926  -32.0504 H   0  0  0  0  0  0  0  0  0  0  0  0
   -1.0418   22.6129  -31.7423 H   0  0  0  0  0  0  0  0  0  0  0  0
   -2.4923   21.0828  -33.9240 H   0  0  0  0  0  0  0  0  0  0  0  0
   -1.2330   22.3434  -34.0836 H   0  0  0  0  0  0  0  0  0  0  0  0
    0.8287   19.4070  -34.6094 H   0  0  0  0  0  0  0  0  0  0  0  0
   -0.6425   20.0898  -35.4628 H   0  0  0  0  0  0  0  0  0  0  0  0
   -0.8002   22.5808  -35.8341 H   0  0  0  0  0  0  0  0  0  0  0  0
    0.5524   24.5428  -36.5866 H   0  0  0  0  0  0  0  0  0  0  0  0
    4.1448   22.6057  -35.3885 H   0  0  0  0  0  0  0  0  0  0  0  0
    2.8598   20.6103  -34.6191 H   0  0  0  0  0  0  0  0  0  0  0  0
   -1.8737   18.8450  -33.5533 H   0  0  0  0  0  0  0  0  0  0  0  0
   -0.2771   18.5031  -32.7531 H   0  0  0  0  0  0  0  0  0  0  0  0
   -2.7138   18.9282  -31.4682 H   0  0  0  0  0  0  0  0  0  0  0  0
   -1.0249   19.0166  -30.7478 H   0  0  0  0  0  0  0  0  0  0  0  0
   -4.5672   21.0366  -30.3498 H   0  0  0  0  0  0  0  0  0  0  0  0
   -5.2855   19.7594  -32.5598 H   0  0  0  0  0  0  0  0  0  0  0  0
  1  2  1  0
  2  3  1  0
  3  4  2  0
  3  5  2  0
  3  6  1  0
  6  7  2  0
  7  8  1  0
  8  9  2  0
  9 10  1  0
 10 11  1  0
 11 12  2  0
 12 13  1  0
 13 14  2  0
 14 15  1  0
 15 16  1  0
 16 17  1  0
 16 18  2  0
 18 19  1  0
 19 20  1  0
 20 21  2  0
 20 22  1  0
 22 23  1  0
 23 24  1  0
 24 25  1  0
 25 26  1  0
 26 27  1  0
 27 28  2  0
 28 29  1  0
 29 30  2  0
 30 31  1  0
 31 32  2  0
 25 33  1  0
 33 34  1  0
 18 35  1  0
 35 36  2  0
 10 37  2  0
 37  6  1  0
 36 11  1  0
 35 14  1  0
 34 22  1  0
 32 27  1  0
  1 38  1  0
  1 39  1  0
  1 40  1  0
  2 41  1  0
  7 42  1  0
  8 43  1  0
  9 44  1  0
 12 45  1  0
 13 46  1  0
 19 47  1  0
 19 48  1  0
 23 49  1  0
 23 50  1  0
 24 51  1  0
 24 52  1  0
 26 53  1  0
 26 54  1  0
 28 55  1  0
 29 56  1  0
 31 57  1  0
 32 58  1  0
 33 59  1  0
 33 60  1  0
 34 61  1  0
 34 62  1  0
 36 63  1  0
 37 64  1  0
M  CHG  2  15  -1  17  -1
M  END
>  <UniqueID>  (22) 
22

>  <SMILES>  (22) 
CNS(=O)(=O)c1cccc(-c2ccc3[n-]c([O-])c(CC(=O)N4CCN(Cc5ccncc5)CC4)c3c2)c1

>  <Energy>  (22) 
112.77587018383201

>  <Genealogy>  (22) 
CNS(=O)(=O)c1cccc(-c2ccc3[n-]c([O-])c(CC(=O)N4CCN(Cc5ccncc5)CC4)c3c2)c1 (protonated)
CNS(=O)(=O)c1cccc(-c2ccc3[n-]c([O-])c(CC(=O)N4CCN(Cc5ccncc5)CC4)c3c2)c1 (3D coordinates assigned)
CNS(=O)(=O)c1cccc(-c2ccc3[n-]c([O-])c(CC(=O)N4CCN(Cc5ccncc5)CC4)c3c2)c1 (nonaromatic ring conformer: 112.77587018383201 kcal/mol)

>  <smiles>  (22) 
CNS(=O)(=O)c1cccc(-c2ccc3[nH]c(O)c(CC(=O)N4CCN(Cc5ccncc5)CC4)c3c2)c1

>  <score_type>  (22) 
oracle

>  <origin>  (22) 
adgpu

>  <m_score__min__energy>  (22) 
-15.550000000000001

>  <m_primary>  (22) 
energy

$$$$
22:0
     RDKit          3D

 51 53  0  0  0  0  0  0  0  0999 V2000
   -1.4910   22.3190  -27.0450 C   0  0  0  0  0  0  0  0  0  0  0  0
   -1.9630   23.7080  -26.9840 N   0  0  0  0  0  0  0  0  0  0  0  0
   -3.1350   24.1070  -27.7880 C   0  0  0  0  0  0  0  0  0  0  0  0
   -2.7400   24.9240  -28.9950 C   0  0  0  0  0  0  0  0  0  0  0  0
   -1.6810   25.6040  -28.9480 O   0  0  0  0  0  0  0  0  0  0  0  0
   -3.5090   24.9290  -30.2060 N   0  0  0  0  0  0  0  0  0  0  0  0
   -4.7110   24.1850  -30.4250 C   0  0  0  0  0  0  0  0  0  0  0  0
   -4.7050   22.7830  -30.4310 C   0  0  0  0  0  0  0  0  0  0  0  0
   -5.8770   22.0780  -30.7210 C   0  0  0  0  0  0  0  0  0  0  0  0
   -7.0640   22.7690  -30.9990 C   0  0  0  0  0  0  0  0  0  0  0  0
   -8.5110   21.8900  -31.4930 S   0  0  0  0  0  0  0  0  0  0  0  0
   -9.3280   21.5530  -30.2760 O   0  0  0  0  0  0  0  0  0  0  0  0
   -9.3440   22.7710  -32.3830 O   0  0  0  0  0  0  0  0  0  0  0  0
   -8.1030   20.4220  -32.3480 N   0  0  0  0  0  0  0  0  0  0  0  0
   -8.0640   19.2720  -31.4200 C   0  0  0  0  0  0  0  0  0  0  0  0
   -7.3530   18.0590  -32.0560 C   0  0  0  0  0  0  0  0  0  0  0  0
   -7.2980   18.1880  -33.4630 O   0  0  0  0  0  0  0  0  0  0  0  0
   -6.4610   19.2760  -33.8140 C   0  0  0  0  0  0  0  0  0  0  0  0
   -6.8160   20.5710  -33.0490 C   0  0  0  0  0  0  0  0  0  0  0  0
   -7.0810   24.1690  -30.9300 C   0  0  0  0  0  0  0  0  0  0  0  0
   -5.9110   24.8730  -30.6340 C   0  0  0  0  0  0  0  0  0  0  0  0
   -1.3310   24.6320  -26.0650 C   0  0  0  0  0  0  0  0  0  0  0  0
   -1.9670   25.8400  -25.7150 C   0  0  0  0  0  0  0  0  0  0  0  0
   -1.3680   26.7270  -24.8170 C   0  0  0  0  0  0  0  0  0  0  0  0
   -0.1230   26.4250  -24.2560 C   0  0  0  0  0  0  0  0  0  0  0  0
    0.4930   27.3380  -23.3310 C   0  0  0  0  0  0  0  0  0  0  0  0
    0.9880   28.0730  -22.5860 N   0  0  0  0  0  0  0  0  0  0  0  0
    0.5210   25.2310  -24.5980 C   0  0  0  0  0  0  0  0  0  0  0  0
   -0.0770   24.3410  -25.4950 C   0  0  0  0  0  0  0  0  0  0  0  0
   -1.3593   21.9313  -26.0240 H   0  0  0  0  0  0  0  0  0  0  0  0
   -2.2304   21.7036  -27.5783 H   0  0  0  0  0  0  0  0  0  0  0  0
   -0.5297   22.2815  -27.5783 H   0  0  0  0  0  0  0  0  0  0  0  0
   -3.6579   23.2009  -28.1279 H   0  0  0  0  0  0  0  0  0  0  0  0
   -3.7863   24.7278  -27.1552 H   0  0  0  0  0  0  0  0  0  0  0  0
   -3.7768   22.2369  -30.2072 H   0  0  0  0  0  0  0  0  0  0  0  0
   -5.8673   20.9781  -30.7310 H   0  0  0  0  0  0  0  0  0  0  0  0
   -8.8560   20.2590  -33.0580 H   0  0  0  0  0  0  0  0  0  0  0  0
   -7.5234   19.5661  -30.5082 H   0  0  0  0  0  0  0  0  0  0  0  0
   -9.0986   18.9823  -31.1842 H   0  0  0  0  0  0  0  0  0  0  0  0
   -6.3289   17.9932  -31.6599 H   0  0  0  0  0  0  0  0  0  0  0  0
   -7.9196   17.1493  -31.8080 H   0  0  0  0  0  0  0  0  0  0  0  0
   -5.4192   19.0067  -33.5859 H   0  0  0  0  0  0  0  0  0  0  0  0
   -6.6040   19.4733  -34.8867 H   0  0  0  0  0  0  0  0  0  0  0  0
   -6.0263   20.7847  -32.3137 H   0  0  0  0  0  0  0  0  0  0  0  0
   -6.8981   21.3979  -33.7698 H   0  0  0  0  0  0  0  0  0  0  0  0
   -8.0188   24.7152  -31.1095 H   0  0  0  0  0  0  0  0  0  0  0  0
   -5.9335   25.9706  -30.5652 H   0  0  0  0  0  0  0  0  0  0  0  0
   -2.9452   26.0871  -26.1534 H   0  0  0  0  0  0  0  0  0  0  0  0
   -1.8768   27.6651  -24.5506 H   0  0  0  0  0  0  0  0  0  0  0  0
    1.5011   24.9917  -24.1596 H   0  0  0  0  0  0  0  0  0  0  0  0
    0.4370   23.4047  -25.7579 H   0  0  0  0  0  0  0  0  0  0  0  0
  1  2  1  0
  2  3  1  0
  3  4  1  0
  4  5  2  0
  4  6  1  0
  6  7  1  0
  7  8  2  0
  8  9  1  0
  9 10  2  0
 10 11  1  0
 11 12  2  0
 11 13  2  0
 11 14  1  0
 14 15  1  0
 15 16  1  0
 16 17  1  0
 17 18  1  0
 18 19  1  0
 10 20  1  0
 20 21  2  0
  2 22  1  0
 22 23  2  0
 23 24  1  0
 24 25  2  0
 25 26  1  0
 26 27  3  0
 25 28  1  0
 28 29  2  0
 21  7  1  0
 29 22  1  0
 19 14  1  0
  1 30  1  0
  1 31  1  0
  1 32  1  0
  3 33  1  0
  3 34  1  0
  8 35  1  0
  9 36  1  0
 14 37  1  0
 15 38  1  0
 15 39  1  0
 16 40  1  0
 16 41  1  0
 18 42  1  0
 18 43  1  0
 19 44  1  0
 19 45  1  0
 20 46  1  0
 21 47  1  0
 23 48  1  0
 24 49  1  0
 28 50  1  0
 29 51  1  0
M  CHG  2   6  -1  14   1
M  END
>  <UniqueID>  (23) 
23

>  <SMILES>  (23) 
CN(CC(=O)[N-]c1ccc(S(=O)(=O)[NH+]2CCOCC2)cc1)c1ccc(C#N)cc1

>  <Energy>  (23) 
61.47763185925195

>  <Genealogy>  (23) 
CN(CC(=O)[N-]c1ccc(S(=O)(=O)[NH+]2CCOCC2)cc1)c1ccc(C#N)cc1 (protonated)
CN(CC(=O)[N-]c1ccc(S(=O)(=O)[NH+]2CCOCC2)cc1)c1ccc(C#N)cc1 (3D coordinates assigned)
CN(CC(=O)[N-]c1ccc(S(=O)(=O)[NH+]2CCOCC2)cc1)c1ccc(C#N)cc1 (nonaromatic ring conformer: 61.47763185925195 kcal/mol)

>  <smiles>  (23) 
CN(CC(=O)Nc1ccc(S(=O)(=O)N2CCOCC2)cc1)c1ccc(C#N)cc1

>  <score_type>  (23) 
oracle

>  <origin>  (23) 
adgpu

>  <m_score__min__energy>  (23) 
-10.9

>  <m_primary>  (23) 
energy

$$$$
23:0
     RDKit          3D

 33 34  0  0  0  0  0  0  0  0999 V2000
   -8.8688   22.9695  -30.9978 H   0  0  0  0  0  0  0  0  0  0  0  0
   -8.4000   22.0800  -31.4440 C   0  0  0  0  0  0  0  0  0  0  0  0
   -9.0050   20.8300  -31.3060 C   0  0  0  0  0  0  0  0  0  0  0  0
   -9.9488   20.7404  -30.7482 H   0  0  0  0  0  0  0  0  0  0  0  0
   -8.4200   19.6840  -31.8730 C   0  0  0  0  0  0  0  0  0  0  0  0
   -9.0990   18.3500  -31.7110 C   0  0  0  0  0  0  0  0  0  0  0  0
   -9.2137   18.1246  -30.6405 H   0  0  0  0  0  0  0  0  0  0  0  0
  -10.0901   18.3828  -32.1871 H   0  0  0  0  0  0  0  0  0  0  0  0
   -8.4892   17.5680  -32.1871 H   0  0  0  0  0  0  0  0  0  0  0  0
   -7.2040   19.8080  -32.5880 C   0  0  0  0  0  0  0  0  0  0  0  0
   -6.5400   18.6100  -33.2160 C   0  0  0  0  0  0  0  0  0  0  0  0
   -6.1689   17.9404  -32.4261 H   0  0  0  0  0  0  0  0  0  0  0  0
   -7.2687   18.0721  -33.8402 H   0  0  0  0  0  0  0  0  0  0  0  0
   -5.6976   18.9429  -33.8402 H   0  0  0  0  0  0  0  0  0  0  0  0
   -6.6110   21.0740  -32.7260 C   0  0  0  0  0  0  0  0  0  0  0  0
   -5.6747   21.1782  -33.2939 H   0  0  0  0  0  0  0  0  0  0  0  0
   -7.2000   22.2030  -32.1480 C   0  0  0  0  0  0  0  0  0  0  0  0
   -6.4220   23.8120  -32.3260 S   0  0  0  0  0  0  0  0  0  0  0  0
   -5.9300   23.9490  -30.5720 C   0  0  0  0  0  0  0  0  0  0  0  0
   -6.0002   22.9578  -30.1001 H   0  0  0  0  0  0  0  0  0  0  0  0
   -6.6037   24.6615  -30.0735 H   0  0  0  0  0  0  0  0  0  0  0  0
   -4.5270   24.4520  -30.4470 C   0  0  0  0  0  0  0  0  0  0  0  0
   -4.2490   25.6190  -30.8390 O   0  0  0  0  0  0  0  0  0  0  0  0
   -3.5190   23.5990  -29.8830 N   0  0  0  0  0  0  0  0  0  0  0  0
   -2.4010   23.9910  -29.3480 C   0  0  0  0  0  0  0  0  0  0  0  0
   -2.0250   25.2830  -29.2210 N   0  0  0  0  0  0  0  0  0  0  0  0
   -0.8460   25.4220  -28.6190 N   0  0  0  0  0  0  0  0  0  0  0  0
   -0.2790   24.2430  -28.2760 C   0  0  0  0  0  0  0  0  0  0  0  0
    1.0040   24.1350  -27.5260 C   0  0  0  0  0  0  0  0  0  0  0  0
    0.7995   24.1522  -26.4453 H   0  0  0  0  0  0  0  0  0  0  0  0
    1.5045   23.1916  -27.7895 H   0  0  0  0  0  0  0  0  0  0  0  0
    1.6551   24.9815  -27.7895 H   0  0  0  0  0  0  0  0  0  0  0  0
   -1.2640   22.9400  -28.6930 S   0  0  0  0  0  0  0  0  0  0  0  0
  1  2  1  0
  2  3  2  0
  3  4  1  0
  3  5  1  0
  5  6  1  0
  6  7  1  0
  6  8  1  0
  6  9  1  0
  5 10  2  0
 10 11  1  0
 11 12  1  0
 11 13  1  0
 11 14  1  0
 10 15  1  0
 15 16  1  0
 15 17  2  0
 17 18  1  0
 18 19  1  0
 19 20  1  0
 19 21  1  0
 19 22  1  0
 22 23  2  0
 22 24  1  0
 24 25  2  0
 25 26  1  0
 26 27  1  0
 27 28  2  0
 28 29  1  0
 29 30  1  0
 29 31  1  0
 29 32  1  0
 28 33  1  0
 17  2  1  0
 33 25  1  0
M  CHG  1  26  -1
M  END
>  <UniqueID>  (24) 
24

>  <SMILES>  (24) 
Cc1n[n-]/c(=N\C(=O)CSc2ccc(C)c(C)c2)s1

>  <Energy>  (24) 
61.89268896759792

>  <Genealogy>  (24) 
Cc1n[n-]c(=NC(=O)CSc2ccc(C)c(C)c2)s1 (protonated)
Cc1n[n-]/c(=N\C(=O)CSc2ccc(C)c(C)c2)s1 (cis-trans isomerization)
Cc1n[n-]/c(=N\C(=O)CSc2ccc(C)c(C)c2)s1 (3D coordinates assigned)
Cc1n[n-]/c(=N\C(=O)CSc2ccc(C)c(C)c2)s1 (optimized conformer: 61.89268896759792 kcal/mol)

>  <smiles>  (24) 
Cc1n[nH]c(=NC(=O)CSc2ccc(C)c(C)c2)s1

>  <score_type>  (24) 
oracle

>  <origin>  (24) 
adgpu

>  <m_score__min__energy>  (24) 
-10.01

>  <m_primary>  (24) 
energy

$$$$
24:0
     RDKit          3D

 58 61  0  0  0  0  0  0  0  0999 V2000
   -3.1620   19.2900  -27.1630 C   0  0  0  0  0  0  0  0  0  0  0  0
   -1.7340   19.6360  -27.2440 N   0  0  0  0  0  0  0  0  0  0  0  0
   -1.4830   20.5070  -28.4140 C   0  0  0  0  0  0  0  0  0  0  0  0
   -0.1520   21.2600  -28.2730 C   0  0  0  0  0  0  0  0  0  0  0  0
   -0.1110   22.1180  -27.0640 N   0  0  0  0  0  0  0  0  0  0  0  0
   -0.3280   23.8020  -27.4790 S   0  0  0  0  0  0  0  0  0  0  0  0
    0.4800   24.1400  -28.7010 O   0  0  0  0  0  0  0  0  0  0  0  0
    0.1290   24.6770  -26.3440 O   0  0  0  0  0  0  0  0  0  0  0  0
   -2.0290   24.1000  -27.8270 C   0  0  0  0  0  0  0  0  0  0  0  0
   -2.9000   24.5390  -26.8200 C   0  0  0  0  0  0  0  0  0  0  0  0
   -4.2500   24.7560  -27.1070 C   0  0  0  0  0  0  0  0  0  0  0  0
   -4.7390   24.5280  -28.3960 C   0  0  0  0  0  0  0  0  0  0  0  0
   -3.8780   24.0690  -29.4080 C   0  0  0  0  0  0  0  0  0  0  0  0
   -4.3260   23.8450  -30.7180 O   0  0  0  0  0  0  0  0  0  0  0  0
   -5.1380   22.7790  -31.1270 C   0  0  0  0  0  0  0  0  0  0  0  0
   -4.6010   21.6030  -31.6810 C   0  0  0  0  0  0  0  0  0  0  0  0
   -5.4460   20.5720  -32.1010 C   0  0  0  0  0  0  0  0  0  0  0  0
   -6.8380   20.7070  -31.9880 C   0  0  0  0  0  0  0  0  0  0  0  0
   -7.9070   19.4040  -32.5190 S   0  0  0  0  0  0  0  0  0  0  0  0
   -8.9720   19.9790  -33.4110 O   0  0  0  0  0  0  0  0  0  0  0  0
   -8.5820   18.8050  -31.3160 O   0  0  0  0  0  0  0  0  0  0  0  0
   -7.0610   18.1420  -33.3830 N   0  0  0  0  0  0  0  0  0  0  0  0
   -6.1150   18.6800  -34.3570 C   0  0  0  0  0  0  0  0  0  0  0  0
   -5.0460   17.6160  -34.5510 C   0  0  0  0  0  0  0  0  0  0  0  0
   -5.1510   16.7100  -33.3320 C   0  0  0  0  0  0  0  0  0  0  0  0
   -6.2720   17.2980  -32.4890 C   0  0  0  0  0  0  0  0  0  0  0  0
   -7.3730   21.8810  -31.4370 C   0  0  0  0  0  0  0  0  0  0  0  0
   -6.5280   22.9130  -31.0220 C   0  0  0  0  0  0  0  0  0  0  0  0
   -2.5230   23.8700  -29.1180 C   0  0  0  0  0  0  0  0  0  0  0  0
   -1.0830   21.7290  -26.0230 C   0  0  0  0  0  0  0  0  0  0  0  0
   -1.2430   20.2040  -25.9620 C   0  0  0  0  0  0  0  0  0  0  0  0
   -3.4623   19.2172  -26.1073 H   0  0  0  0  0  0  0  0  0  0  0  0
   -3.7571   20.0700  -27.6606 H   0  0  0  0  0  0  0  0  0  0  0  0
   -3.3341   18.3242  -27.6606 H   0  0  0  0  0  0  0  0  0  0  0  0
   -1.4495   19.8868  -29.3219 H   0  0  0  0  0  0  0  0  0  0  0  0
   -2.2953   21.2460  -28.4776 H   0  0  0  0  0  0  0  0  0  0  0  0
    0.6644   20.5253  -28.2122 H   0  0  0  0  0  0  0  0  0  0  0  0
   -0.0428   21.9136  -29.1510 H   0  0  0  0  0  0  0  0  0  0  0  0
   -2.5200   24.7128  -25.8025 H   0  0  0  0  0  0  0  0  0  0  0  0
   -4.9295   25.1071  -26.3165 H   0  0  0  0  0  0  0  0  0  0  0  0
   -5.8009   24.7082  -28.6195 H   0  0  0  0  0  0  0  0  0  0  0  0
   -3.5113   21.4942  -31.7842 H   0  0  0  0  0  0  0  0  0  0  0  0
   -5.0178   19.6504  -32.5221 H   0  0  0  0  0  0  0  0  0  0  0  0
   -6.6252   18.8847  -35.3098 H   0  0  0  0  0  0  0  0  0  0  0  0
   -5.6767   19.6260  -34.0064 H   0  0  0  0  0  0  0  0  0  0  0  0
   -5.2341   17.0450  -35.4722 H   0  0  0  0  0  0  0  0  0  0  0  0
   -4.0429   18.0570  -34.6476 H   0  0  0  0  0  0  0  0  0  0  0  0
   -5.3967   15.6819  -33.6363 H   0  0  0  0  0  0  0  0  0  0  0  0
   -4.2032   16.6600  -32.7759 H   0  0  0  0  0  0  0  0  0  0  0  0
   -6.8977   16.4941  -32.0740 H   0  0  0  0  0  0  0  0  0  0  0  0
   -5.8732   17.8768  -31.6429 H   0  0  0  0  0  0  0  0  0  0  0  0
   -8.4625   21.9893  -31.3313 H   0  0  0  0  0  0  0  0  0  0  0  0
   -6.9576   23.8379  -30.6096 H   0  0  0  0  0  0  0  0  0  0  0  0
   -1.8401   23.5301  -29.9105 H   0  0  0  0  0  0  0  0  0  0  0  0
   -0.7296   22.0929  -25.0469 H   0  0  0  0  0  0  0  0  0  0  0  0
   -2.0581   22.1740  -26.2703 H   0  0  0  0  0  0  0  0  0  0  0  0
   -0.2665   19.7551  -25.7274 H   0  0  0  0  0  0  0  0  0  0  0  0
   -1.9879   19.9750  -25.1857 H   0  0  0  0  0  0  0  0  0  0  0  0
  1  2  1  0
  2  3  1  0
  3  4  1  0
  4  5  1  0
  5  6  1  0
  6  7  2  0
  6  8  2  0
  6  9  1  0
  9 10  2  0
 10 11  1  0
 11 12  2  0
 12 13  1  0
 13 14  1  0
 14 15  1  0
 15 16  2  0
 16 17  1  0
 17 18  2  0
 18 19  1  0
 19 20  2  0
 19 21  2  0
 19 22  1  0
 22 23  1  0
 23 24  1  0
 24 25  1  0
 25 26  1  0
 18 27  1  0
 27 28  2  0
 13 29  2  0
  5 30  1  0
 30 31  1  0
 31  2  1  0
 29  9  1  0
 28 15  1  0
 26 22  1  0
  1 32  1  0
  1 33  1  0
  1 34  1  0
  3 35  1  0
  3 36  1  0
  4 37  1  0
  4 38  1  0
 10 39  1  0
 11 40  1  0
 12 41  1  0
 16 42  1  0
 17 43  1  0
 23 44  1  0
 23 45  1  0
 24 46  1  0
 24 47  1  0
 25 48  1  0
 25 49  1  0
 26 50  1  0
 26 51  1  0
 27 52  1  0
 28 53  1  0
 29 54  1  0
 30 55  1  0
 30 56  1  0
 31 57  1  0
 31 58  1  0
M  END
>  <UniqueID>  (25) 
25

>  <SMILES>  (25) 
CN1CCN(S(=O)(=O)c2cccc(Oc3ccc(S(=O)(=O)N4CCCC4)cc3)c2)CC1

>  <Energy>  (25) 
77.66443343547019

>  <Genealogy>  (25) 
CN1CCN(S(=O)(=O)c2cccc(Oc3ccc(S(=O)(=O)N4CCCC4)cc3)c2)CC1 (3D coordinates assigned)
CN1CCN(S(=O)(=O)c2cccc(Oc3ccc(S(=O)(=O)N4CCCC4)cc3)c2)CC1 (nonaromatic ring conformer: 77.66443343547019 kcal/mol)

>  <smiles>  (25) 
CN1CCN(S(=O)(=O)c2cccc(Oc3ccc(S(=O)(=O)N4CCCC4)cc3)c2)CC1

>  <score_type>  (25) 
oracle

>  <origin>  (25) 
adgpu

>  <m_score__min__energy>  (25) 
-10.300000000000001

>  <m_primary>  (25) 
energy

$$$$
25:0
     RDKit          3D

 43 45  0  0  0  0  0  0  0  0999 V2000
   -0.4460   26.8770  -23.2430 C   0  0  0  0  0  0  0  0  0  0  0  0
   -1.1370   27.3220  -24.4070 O   0  0  0  0  0  0  0  0  0  0  0  0
   -1.3560   26.5340  -25.5470 C   0  0  0  0  0  0  0  0  0  0  0  0
   -0.4900   26.6850  -26.6350 C   0  0  0  0  0  0  0  0  0  0  0  0
   -0.6660   25.9240  -27.7940 C   0  0  0  0  0  0  0  0  0  0  0  0
   -1.7220   25.0040  -27.8830 C   0  0  0  0  0  0  0  0  0  0  0  0
   -1.8860   24.1530  -29.1120 C   0  0  0  0  0  0  0  0  0  0  0  0
   -3.3010   23.8530  -29.3280 N   0  0  0  0  0  0  0  0  0  0  0  0
   -4.1820   24.5490  -30.0700 C   0  0  0  0  0  0  0  0  0  0  0  0
   -3.8630   25.6650  -30.8370 O   0  0  0  0  0  0  0  0  0  0  0  0
   -5.4320   23.9790  -29.9460 C   0  0  0  0  0  0  0  0  0  0  0  0
   -6.6840   24.3940  -30.6550 C   0  0  0  0  0  0  0  0  0  0  0  0
   -6.7280   23.7920  -32.0610 C   0  0  0  0  0  0  0  0  0  0  0  0
   -7.4380   22.4650  -32.0450 C   0  0  0  0  0  0  0  0  0  0  0  0
   -6.7400   21.2840  -32.3520 C   0  0  0  0  0  0  0  0  0  0  0  0
   -7.3930   20.0480  -32.3050 C   0  0  0  0  0  0  0  0  0  0  0  0
   -8.7420   19.9820  -31.9420 C   0  0  0  0  0  0  0  0  0  0  0  0
   -9.4380   21.1510  -31.6220 C   0  0  0  0  0  0  0  0  0  0  0  0
   -8.7890   22.3880  -31.6680 C   0  0  0  0  0  0  0  0  0  0  0  0
   -5.3350   22.9120  -29.1260 N   0  0  0  0  0  0  0  0  0  0  0  0
   -4.0370   22.8730  -28.7620 C   0  0  0  0  0  0  0  0  0  0  0  0
   -3.5670   22.0090  -27.9750 O   0  0  0  0  0  0  0  0  0  0  0  0
   -2.5850   24.8410  -26.7890 C   0  0  0  0  0  0  0  0  0  0  0  0
   -2.4080   25.6020  -25.6300 C   0  0  0  0  0  0  0  0  0  0  0  0
   -0.9805   27.2212  -22.3453 H   0  0  0  0  0  0  0  0  0  0  0  0
   -0.3983   25.7780  -23.2426 H   0  0  0  0  0  0  0  0  0  0  0  0
    0.5742   27.2883  -23.2426 H   0  0  0  0  0  0  0  0  0  0  0  0
    0.3364   27.4087  -26.5780 H   0  0  0  0  0  0  0  0  0  0  0  0
    0.0262   26.0467  -28.6401 H   0  0  0  0  0  0  0  0  0  0  0  0
   -1.4910   24.6937  -29.9847 H   0  0  0  0  0  0  0  0  0  0  0  0
   -1.3342   23.2113  -28.9752 H   0  0  0  0  0  0  0  0  0  0  0  0
   -7.5565   24.0440  -30.0838 H   0  0  0  0  0  0  0  0  0  0  0  0
   -6.6997   25.4908  -30.7369 H   0  0  0  0  0  0  0  0  0  0  0  0
   -7.2621   24.4801  -32.7327 H   0  0  0  0  0  0  0  0  0  0  0  0
   -5.6977   23.6396  -32.4148 H   0  0  0  0  0  0  0  0  0  0  0  0
   -5.6768   21.3321  -32.6301 H   0  0  0  0  0  0  0  0  0  0  0  0
   -6.8451   19.1272  -32.5537 H   0  0  0  0  0  0  0  0  0  0  0  0
   -9.2554   19.0097  -31.9083 H   0  0  0  0  0  0  0  0  0  0  0  0
  -10.4981   21.0974  -31.3335 H   0  0  0  0  0  0  0  0  0  0  0  0
   -9.3383   23.3049  -31.4080 H   0  0  0  0  0  0  0  0  0  0  0  0
   -6.0970   22.2580  -28.8390 H   0  0  0  0  0  0  0  0  0  0  0  0
   -3.4054   24.1103  -26.8436 H   0  0  0  0  0  0  0  0  0  0  0  0
   -3.0933   25.4722  -24.7794 H   0  0  0  0  0  0  0  0  0  0  0  0
  1  2  1  0
  2  3  1  0
  3  4  2  0
  4  5  1  0
  5  6  2  0
  6  7  1  0
  7  8  1  0
  8  9  1  0
  9 10  1  0
  9 11  2  0
 11 12  1  0
 12 13  1  0
 13 14  1  0
 14 15  2  0
 15 16  1  0
 16 17  2  0
 17 18  1  0
 18 19  2  0
 11 20  1  0
 20 21  1  0
 21 22  2  0
  6 23  1  0
 23 24  2  0
 24  3  1  0
 21  8  1  0
 19 14  1  0
  1 25  1  0
  1 26  1  0
  1 27  1  0
  4 28  1  0
  5 29  1  0
  7 30  1  0
  7 31  1  0
 12 32  1  0
 12 33  1  0
 13 34  1  0
 13 35  1  0
 15 36  1  0
 16 37  1  0
 17 38  1  0
 18 39  1  0
 19 40  1  0
 20 41  1  0
 23 42  1  0
 24 43  1  0
M  CHG  1  10  -1
M  END
>  <UniqueID>  (26) 
26

>  <SMILES>  (26) 
COc1ccc(Cn2c([O-])c(CCc3ccccc3)[nH]c2=O)cc1

>  <Energy>  (26) 
72.80912782899557

>  <Genealogy>  (26) 
COc1ccc(Cn2c([O-])c(CCc3ccccc3)[nH]c2=O)cc1 (protonated)
COc1ccc(Cn2c([O-])c(CCc3ccccc3)[nH]c2=O)cc1 (3D coordinates assigned)
COc1ccc(Cn2c([O-])c(CCc3ccccc3)[nH]c2=O)cc1 (optimized conformer: 72.80912782899557 kcal/mol)

>  <smiles>  (26) 
COc1ccc(Cn2c(O)c(CCc3ccccc3)[nH]c2=O)cc1

>  <score_type>  (26) 
oracle

>  <origin>  (26) 
adgpu

>  <m_score__min__energy>  (26) 
-11.15

>  <m_primary>  (26) 
energy

$$$$
26:0
     RDKit          3D

 50 52  0  0  0  0  0  0  0  0999 V2000
   -3.0700   25.2990  -25.6930 C   0  0  0  0  0  0  0  0  0  0  0  0
   -1.8100   24.8490  -26.4490 C   0  0  0  0  0  0  0  0  0  0  0  0
   -1.8620   23.3330  -26.7590 C   0  0  0  0  0  0  0  0  0  0  0  0
   -2.7010   23.0200  -28.0070 C   0  0  0  0  0  0  0  0  0  0  0  0
   -2.3380   23.8880  -29.1390 N   0  0  0  0  0  0  0  0  0  0  0  0
   -3.1820   23.9180  -30.3060 C   0  0  0  0  0  0  0  0  0  0  0  0
   -3.5310   25.0300  -30.7910 O   0  0  0  0  0  0  0  0  0  0  0  0
   -3.6630   22.6710  -30.9390 C   0  0  0  0  0  0  0  0  0  0  0  0
   -3.2690   21.4190  -30.4450 C   0  0  0  0  0  0  0  0  0  0  0  0
   -3.7180   20.2440  -31.0520 C   0  0  0  0  0  0  0  0  0  0  0  0
   -4.5620   20.2940  -32.1760 C   0  0  0  0  0  0  0  0  0  0  0  0
   -5.0360   19.0780  -32.7970 N   0  0  0  0  0  0  0  0  0  0  0  0
   -4.1930   18.3610  -33.7570 C   0  0  0  0  0  0  0  0  0  0  0  0
   -6.5970   18.4200  -32.3880 S   0  0  0  0  0  0  0  0  0  0  0  0
   -7.1020   17.6050  -33.5460 O   0  0  0  0  0  0  0  0  0  0  0  0
   -6.4800   17.5160  -31.1920 O   0  0  0  0  0  0  0  0  0  0  0  0
   -7.7210   19.7280  -32.0220 C   0  0  0  0  0  0  0  0  0  0  0  0
   -8.9760   19.7640  -32.6470 C   0  0  0  0  0  0  0  0  0  0  0  0
   -9.8780   20.7900  -32.3500 C   0  0  0  0  0  0  0  0  0  0  0  0
   -9.5330   21.7830  -31.4270 C   0  0  0  0  0  0  0  0  0  0  0  0
   -8.2820   21.7530  -30.8040 C   0  0  0  0  0  0  0  0  0  0  0  0
   -7.9460   22.7170  -29.9100 F   0  0  0  0  0  0  0  0  0  0  0  0
   -7.3760   20.7290  -31.1020 C   0  0  0  0  0  0  0  0  0  0  0  0
   -4.9450   21.5530  -32.6760 C   0  0  0  0  0  0  0  0  0  0  0  0
   -4.4940   22.7280  -32.0680 C   0  0  0  0  0  0  0  0  0  0  0  0
   -1.2870   24.8990  -28.9680 C   0  0  0  0  0  0  0  0  0  0  0  0
   -1.5780   25.7280  -27.7140 C   0  0  0  0  0  0  0  0  0  0  0  0
   -2.8902   25.2348  -24.6097 H   0  0  0  0  0  0  0  0  0  0  0  0
   -3.3088   26.3380  -25.9641 H   0  0  0  0  0  0  0  0  0  0  0  0
   -3.9129   24.6463  -25.9641 H   0  0  0  0  0  0  0  0  0  0  0  0
   -0.9336   25.0009  -25.8018 H   0  0  0  0  0  0  0  0  0  0  0  0
   -0.8365   22.9703  -26.9225 H   0  0  0  0  0  0  0  0  0  0  0  0
   -2.3347   22.8310  -25.9020 H   0  0  0  0  0  0  0  0  0  0  0  0
   -2.5349   21.9713  -28.2944 H   0  0  0  0  0  0  0  0  0  0  0  0
   -3.7585   23.1992  -27.7629 H   0  0  0  0  0  0  0  0  0  0  0  0
   -2.6012   21.3620  -29.5728 H   0  0  0  0  0  0  0  0  0  0  0  0
   -3.4083   19.2694  -30.6468 H   0  0  0  0  0  0  0  0  0  0  0  0
   -3.4644   17.7413  -33.2139 H   0  0  0  0  0  0  0  0  0  0  0  0
   -4.8227   17.7175  -34.3890 H   0  0  0  0  0  0  0  0  0  0  0  0
   -3.6590   19.0858  -34.3890 H   0  0  0  0  0  0  0  0  0  0  0  0
   -9.2510   18.9838  -33.3720 H   0  0  0  0  0  0  0  0  0  0  0  0
  -10.8609   20.8165  -32.8431 H   0  0  0  0  0  0  0  0  0  0  0  0
  -10.2458   22.5870  -31.1916 H   0  0  0  0  0  0  0  0  0  0  0  0
   -6.3906   20.7090  -30.6135 H   0  0  0  0  0  0  0  0  0  0  0  0
   -5.6055   21.6126  -33.5536 H   0  0  0  0  0  0  0  0  0  0  0  0
   -4.7927   23.7042  -32.4776 H   0  0  0  0  0  0  0  0  0  0  0  0
   -0.3123   24.4006  -28.8604 H   0  0  0  0  0  0  0  0  0  0  0  0
   -1.2653   25.5589  -29.8478 H   0  0  0  0  0  0  0  0  0  0  0  0
   -0.7229   26.3942  -27.5270 H   0  0  0  0  0  0  0  0  0  0  0  0
   -2.5034   26.2934  -27.8984 H   0  0  0  0  0  0  0  0  0  0  0  0
  1  2  1  0
  2  3  1  0
  3  4  1  0
  4  5  1  0
  5  6  1  0
  6  7  2  0
  6  8  1  0
  8  9  2  0
  9 10  1  0
 10 11  2  0
 11 12  1  0
 12 13  1  0
 12 14  1  0
 14 15  2  0
 14 16  2  0
 14 17  1  0
 17 18  2  0
 18 19  1  0
 19 20  2  0
 20 21  1  0
 21 22  1  0
 21 23  2  0
 11 24  1  0
 24 25  2  0
  5 26  1  0
 26 27  1  0
 27  2  1  0
 25  8  1  0
 23 17  1  0
  1 28  1  0
  1 29  1  0
  1 30  1  0
  2 31  1  0
  3 32  1  0
  3 33  1  0
  4 34  1  0
  4 35  1  0
  9 36  1  0
 10 37  1  0
 13 38  1  0
 13 39  1  0
 13 40  1  0
 18 41  1  0
 19 42  1  0
 20 43  1  0
 23 44  1  0
 24 45  1  0
 25 46  1  0
 26 47  1  0
 26 48  1  0
 27 49  1  0
 27 50  1  0
M  END
>  <UniqueID>  (27) 
27

>  <SMILES>  (27) 
CC1CCN(C(=O)c2ccc(N(C)S(=O)(=O)c3cccc(F)c3)cc2)CC1

>  <Energy>  (27) 
61.602040110601465

>  <Genealogy>  (27) 
CC1CCN(C(=O)c2ccc(N(C)S(=O)(=O)c3cccc(F)c3)cc2)CC1 (3D coordinates assigned)
CC1CCN(C(=O)c2ccc(N(C)S(=O)(=O)c3cccc(F)c3)cc2)CC1 (nonaromatic ring conformer: 61.602040110601465 kcal/mol)

>  <smiles>  (27) 
CC1CCN(C(=O)c2ccc(N(C)S(=O)(=O)c3cccc(F)c3)cc2)CC1

>  <score_type>  (27) 
oracle

>  <origin>  (27) 
adgpu

>  <m_score__min__energy>  (27) 
-9.8499999999999996

>  <m_primary>  (27) 
energy

$$$$
27:0
     RDKit          3D

 51 54  0  0  0  0  0  0  0  0999 V2000
    0.6300   18.9830  -27.6020 C   0  0  0  0  0  0  0  0  0  0  0  0
   -0.4650   19.9620  -27.5200 N   0  0  0  0  0  0  0  0  0  0  0  0
   -1.7400   19.3290  -27.9040 C   0  0  0  0  0  0  0  0  0  0  0  0
   -2.9000   20.2790  -27.5960 C   0  0  0  0  0  0  0  0  0  0  0  0
   -2.6320   21.6750  -28.0990 C   0  0  0  0  0  0  0  0  0  0  0  0
   -3.6870   22.5970  -28.1530 C   0  0  0  0  0  0  0  0  0  0  0  0
   -3.4570   23.9330  -28.5250 C   0  0  0  0  0  0  0  0  0  0  0  0
   -4.5230   24.8990  -28.5130 N   0  0  0  0  0  0  0  0  0  0  0  0
   -5.6290   25.0930  -29.8390 S   0  0  0  0  0  0  0  0  0  0  0  0
   -5.0770   26.1200  -30.7880 O   0  0  0  0  0  0  0  0  0  0  0  0
   -6.9570   25.5660  -29.3170 O   0  0  0  0  0  0  0  0  0  0  0  0
   -5.8600   23.5500  -30.6600 C   0  0  0  0  0  0  0  0  0  0  0  0
   -4.8140   22.9600  -31.3690 C   0  0  0  0  0  0  0  0  0  0  0  0
   -4.9830   21.7080  -31.9560 C   0  0  0  0  0  0  0  0  0  0  0  0
   -6.2030   21.0150  -31.8510 C   0  0  0  0  0  0  0  0  0  0  0  0
   -7.2640   21.5990  -31.0970 C   0  0  0  0  0  0  0  0  0  0  0  0
   -7.0820   22.8800  -30.5460 C   0  0  0  0  0  0  0  0  0  0  0  0
   -8.6220   20.9490  -30.9050 C   0  0  0  0  0  0  0  0  0  0  0  0
   -9.2890   20.5220  -32.2200 C   0  0  0  0  0  0  0  0  0  0  0  0
   -8.7250   19.2830  -32.7800 N   0  0  0  0  0  0  0  0  0  0  0  0
   -7.4300   19.4500  -33.4580 C   0  0  0  0  0  0  0  0  0  0  0  0
   -6.2670   19.6310  -32.4740 C   0  0  0  0  0  0  0  0  0  0  0  0
   -2.1580   24.3270  -28.8900 C   0  0  0  0  0  0  0  0  0  0  0  0
   -1.9010   25.6350  -29.2850 O   0  0  0  0  0  0  0  0  0  0  0  0
   -1.1050   23.4100  -28.8430 C   0  0  0  0  0  0  0  0  0  0  0  0
   -1.3250   22.0920  -28.4190 C   0  0  0  0  0  0  0  0  0  0  0  0
   -0.1800   21.1080  -28.4070 C   0  0  0  0  0  0  0  0  0  0  0  0
    0.9460   18.7005  -26.5870 H   0  0  0  0  0  0  0  0  0  0  0  0
    0.2827   18.0887  -28.1402 H   0  0  0  0  0  0  0  0  0  0  0  0
    1.4800   19.4278  -28.1402 H   0  0  0  0  0  0  0  0  0  0  0  0
   -1.7272   19.1044  -28.9807 H   0  0  0  0  0  0  0  0  0  0  0  0
   -1.8707   18.3972  -27.3342 H   0  0  0  0  0  0  0  0  0  0  0  0
   -3.8112   19.8959  -28.0786 H   0  0  0  0  0  0  0  0  0  0  0  0
   -3.0203   20.3274  -26.5037 H   0  0  0  0  0  0  0  0  0  0  0  0
   -4.7070   22.2710  -27.9012 H   0  0  0  0  0  0  0  0  0  0  0  0
   -4.7640   25.3890  -27.6230 H   0  0  0  0  0  0  0  0  0  0  0  0
   -3.8522   23.4851  -31.4651 H   0  0  0  0  0  0  0  0  0  0  0  0
   -4.1489   21.2537  -32.5108 H   0  0  0  0  0  0  0  0  0  0  0  0
   -7.9158   23.3635  -30.0159 H   0  0  0  0  0  0  0  0  0  0  0  0
   -8.4948   20.0572  -30.2737 H   0  0  0  0  0  0  0  0  0  0  0  0
   -9.2769   21.7003  -30.4396 H   0  0  0  0  0  0  0  0  0  0  0  0
  -10.3616   20.3648  -32.0332 H   0  0  0  0  0  0  0  0  0  0  0  0
   -9.1105   21.3230  -32.9525 H   0  0  0  0  0  0  0  0  0  0  0  0
   -9.4030   18.8990  -33.4800 H   0  0  0  0  0  0  0  0  0  0  0  0
   -7.2363   18.5580  -34.0719 H   0  0  0  0  0  0  0  0  0  0  0  0
   -7.4909   20.3604  -34.0723 H   0  0  0  0  0  0  0  0  0  0  0  0
   -6.3769   18.8917  -31.6669 H   0  0  0  0  0  0  0  0  0  0  0  0
   -5.3377   19.4931  -33.0463 H   0  0  0  0  0  0  0  0  0  0  0  0
   -0.0942   23.7250  -29.1414 H   0  0  0  0  0  0  0  0  0  0  0  0
   -0.0157   20.7372  -29.4295 H   0  0  0  0  0  0  0  0  0  0  0  0
    0.7160   21.6233  -28.0306 H   0  0  0  0  0  0  0  0  0  0  0  0
  1  2  1  0
  2  3  1  0
  3  4  1  0
  4  5  1  0
  5  6  2  0
  6  7  1  0
  7  8  1  0
  8  9  1  0
  9 10  2  0
  9 11  2  0
  9 12  1  0
 12 13  2  0
 13 14  1  0
 14 15  2  0
 15 16  1  0
 16 17  2  0
 16 18  1  0
 18 19  1  0
 19 20  1  0
 20 21  1  0
 21 22  1  0
  7 23  2  0
 23 24  1  0
 23 25  1  0
 25 26  2  0
 26 27  1  0
 27  2  1  0
 26  5  1  0
 17 12  1  0
 22 15  1  0
  1 28  1  0
  1 29  1  0
  1 30  1  0
  3 31  1  0
  3 32  1  0
  4 33  1  0
  4 34  1  0
  6 35  1  0
  8 36  1  0
 13 37  1  0
 14 38  1  0
 17 39  1  0
 18 40  1  0
 18 41  1  0
 19 42  1  0
 19 43  1  0
 20 44  1  0
 21 45  1  0
 21 46  1  0
 22 47  1  0
 22 48  1  0
 25 49  1  0
 27 50  1  0
 27 51  1  0
M  CHG  1  24  -1
M  END
>  <UniqueID>  (28) 
28

>  <SMILES>  (28) 
CN1CCc2cc(NS(=O)(=O)c3ccc4c(c3)CCNCC4)c([O-])cc2C1

>  <Energy>  (28) 
68.4377776508258

>  <Genealogy>  (28) 
CN1CCc2cc(NS(=O)(=O)c3ccc4c(c3)CCNCC4)c([O-])cc2C1 (protonated)
CN1CCc2cc(NS(=O)(=O)c3ccc4c(c3)CCNCC4)c([O-])cc2C1 (3D coordinates assigned)
CN1CCc2cc(NS(=O)(=O)c3ccc4c(c3)CCNCC4)c([O-])cc2C1 (nonaromatic ring conformer: 68.4377776508258 kcal/mol)

>  <smiles>  (28) 
CN1CCc2cc(NS(=O)(=O)c3ccc4c(c3)CCNCC4)c(O)cc2C1

>  <score_type>  (28) 
oracle

>  <origin>  (28) 
adgpu

>  <m_score__min__energy>  (28) 
-12.779999999999999

>  <m_primary>  (28) 
energy

$$$$
28:0
     RDKit          3D

 44 47  0  0  0  0  0  0  0  0999 V2000
    3.6837   20.3669  -34.4054 H   0  0  0  0  0  0  0  0  0  0  0  0
    2.6900   20.7320  -34.7040 C   0  0  0  0  0  0  0  0  0  0  0  0
    2.5550   21.9780  -35.2290 N   0  0  0  0  0  0  0  0  0  0  0  0
    1.3470   22.4710  -35.6190 C   0  0  0  0  0  0  0  0  0  0  0  0
    1.2700   23.8280  -36.1880 C   0  0  0  0  0  0  0  0  0  0  0  0
    0.3990   24.6440  -35.7780 O   0  0  0  0  0  0  0  0  0  0  0  0
    2.1900   24.2190  -37.2110 N   0  0  0  0  0  0  0  0  0  0  0  0
    3.1740   25.2750  -37.0240 C   0  0  0  0  0  0  0  0  0  0  0  0
    3.3311   25.4435  -35.9484 H   0  0  0  0  0  0  0  0  0  0  0  0
    4.1244   24.9775  -37.4911 H   0  0  0  0  0  0  0  0  0  0  0  0
    2.8102   26.2021  -37.4911 H   0  0  0  0  0  0  0  0  0  0  0  0
    0.1980   21.6730  -35.4750 C   0  0  0  0  0  0  0  0  0  0  0  0
   -0.7827   22.0515  -35.7991 H   0  0  0  0  0  0  0  0  0  0  0  0
    0.3100   20.3900  -34.9150 C   0  0  0  0  0  0  0  0  0  0  0  0
   -0.8000   19.5470  -34.7590 O   0  0  0  0  0  0  0  0  0  0  0  0
   -1.9600   19.8540  -34.0310 C   0  0  0  0  0  0  0  0  0  0  0  0
   -2.9600   18.8650  -33.9080 C   0  0  0  0  0  0  0  0  0  0  0  0
   -2.8181   17.8856  -34.3883 H   0  0  0  0  0  0  0  0  0  0  0  0
   -4.1330   19.1170  -33.1800 C   0  0  0  0  0  0  0  0  0  0  0  0
   -4.9175   18.3513  -33.0892 H   0  0  0  0  0  0  0  0  0  0  0  0
   -4.2760   20.3630  -32.5760 C   0  0  0  0  0  0  0  0  0  0  0  0
   -5.5560   20.9410  -31.6550 S   0  0  0  0  0  0  0  0  0  0  0  0
   -4.7900   22.4300  -31.4170 C   0  0  0  0  0  0  0  0  0  0  0  0
   -5.3220   23.3990  -30.7320 N   0  0  0  0  0  0  0  0  0  0  0  0
   -4.7420   24.6880  -30.4870 C   0  0  0  0  0  0  0  0  0  0  0  0
   -5.0330   25.6400  -31.2590 O   0  0  0  0  0  0  0  0  0  0  0  0
   -3.8890   24.9160  -29.3560 N   0  0  0  0  0  0  0  0  0  0  0  0
   -2.7160   24.1590  -29.0280 C   0  0  0  0  0  0  0  0  0  0  0  0
   -2.8530   22.7860  -28.7850 C   0  0  0  0  0  0  0  0  0  0  0  0
   -3.8465   22.3171  -28.8406 H   0  0  0  0  0  0  0  0  0  0  0  0
   -1.7330   22.0080  -28.4720 C   0  0  0  0  0  0  0  0  0  0  0  0
   -1.8503   20.9336  -28.2674 H   0  0  0  0  0  0  0  0  0  0  0  0
   -0.4660   22.5940  -28.4190 C   0  0  0  0  0  0  0  0  0  0  0  0
    0.4124   21.9833  -28.1632 H   0  0  0  0  0  0  0  0  0  0  0  0
   -0.3150   23.9560  -28.6910 C   0  0  0  0  0  0  0  0  0  0  0  0
    0.6842   24.4144  -28.6536 H   0  0  0  0  0  0  0  0  0  0  0  0
   -1.4300   24.7400  -29.0110 C   0  0  0  0  0  0  0  0  0  0  0  0
   -1.2430   26.0770  -29.3420 O   0  0  0  0  0  0  0  0  0  0  0  0
   -3.5790   22.5000  -32.0230 N   0  0  0  0  0  0  0  0  0  0  0  0
   -3.2990   21.3400  -32.6700 C   0  0  0  0  0  0  0  0  0  0  0  0
   -2.1270   21.1020  -33.3860 C   0  0  0  0  0  0  0  0  0  0  0  0
   -1.3443   21.8724  -33.4485 H   0  0  0  0  0  0  0  0  0  0  0  0
    1.5710   19.9150  -34.5430 C   0  0  0  0  0  0  0  0  0  0  0  0
    1.6801   18.9030  -34.1258 H   0  0  0  0  0  0  0  0  0  0  0  0
  1  2  1  0
  2  3  2  0
  3  4  1  0
  4  5  1  0
  5  6  2  0
  5  7  1  0
  7  8  1  0
  8  9  1  0
  8 10  1  0
  8 11  1  0
  4 12  2  0
 12 13  1  0
 12 14  1  0
 14 15  1  0
 15 16  1  0
 16 17  2  0
 17 18  1  0
 17 19  1  0
 19 20  1  0
 19 21  2  0
 21 22  1  0
 22 23  1  0
 23 24  2  0
 24 25  1  0
 25 26  2  0
 25 27  1  0
 27 28  1  0
 28 29  2  0
 29 30  1  0
 29 31  1  0
 31 32  1  0
 31 33  2  0
 33 34  1  0
 33 35  1  0
 35 36  1  0
 35 37  2  0
 37 38  1  0
 23 39  1  0
 39 40  1  0
 40 41  2  0
 41 42  1  0
 14 43  2  0
 43 44  1  0
 43  2  1  0
 41 16  1  0
 40 21  1  0
 37 28  1  0
M  CHG  4   7  -1  27  -1  38  -1  39  -1
M  END
>  <UniqueID>  (29) 
29

>  <SMILES>  (29) 
C[N-]C(=O)c1cc(Oc2ccc3s/c(=N/C(=O)[N-]c4ccccc4[O-])[n-]c3c2)ccn1

>  <Energy>  (29) 
95.00090493099528

>  <Genealogy>  (29) 
C[N-]C(=O)c1cc(Oc2ccc3sc(=NC(=O)[N-]c4ccccc4[O-])[n-]c3c2)ccn1 (protonated)
C[N-]C(=O)c1cc(Oc2ccc3s/c(=N/C(=O)[N-]c4ccccc4[O-])[n-]c3c2)ccn1 (cis-trans isomerization)
C[N-]C(=O)c1cc(Oc2ccc3s/c(=N/C(=O)[N-]c4ccccc4[O-])[n-]c3c2)ccn1 (3D coordinates assigned)
C[N-]C(=O)c1cc(Oc2ccc3s/c(=N/C(=O)[N-]c4ccccc4[O-])[n-]c3c2)ccn1 (optimized conformer: 95.00090493099528 kcal/mol)

>  <smiles>  (29) 
CNC(=O)c1cc(Oc2ccc3sc(=NC(=O)Nc4ccccc4O)[nH]c3c2)ccn1

>  <score_type>  (29) 
oracle

>  <origin>  (29) 
adgpu

>  <m_score__min__energy>  (29) 
-14.609999999999999

>  <m_primary>  (29) 
energy

$$$$
29:0
     RDKit          3D

 64 67  0  0  0  0  0  0  0  0999 V2000
    0.0170   20.7420  -33.6330 C   0  0  0  0  0  0  0  0  0  0  0  0
   -1.3350   20.7810  -33.0890 N   0  0  0  0  0  0  0  0  0  0  0  0
   -2.0170   21.9020  -32.9020 N   0  0  0  0  0  0  0  0  0  0  0  0
   -3.1570   21.5840  -32.2530 C   0  0  0  0  0  0  0  0  0  0  0  0
   -3.1880   20.2250  -32.0000 C   0  0  0  0  0  0  0  0  0  0  0  0
   -2.0140   19.7490  -32.5470 C   0  0  0  0  0  0  0  0  0  0  0  0
   -1.5570   18.3520  -32.5200 C   0  0  0  0  0  0  0  0  0  0  0  0
   -2.1960   17.4070  -33.3340 C   0  0  0  0  0  0  0  0  0  0  0  0
   -1.8020   16.0640  -33.3020 C   0  0  0  0  0  0  0  0  0  0  0  0
   -2.6010   14.8810  -34.3390 S   0  0  0  0  0  0  0  0  0  0  0  0
   -2.0250   14.9660  -35.7250 O   0  0  0  0  0  0  0  0  0  0  0  0
   -2.3430   13.4980  -33.8050 O   0  0  0  0  0  0  0  0  0  0  0  0
   -4.3770   15.1660  -34.4100 C   0  0  0  0  0  0  0  0  0  0  0  0
   -4.6790   16.5820  -34.9490 C   0  0  0  0  0  0  0  0  0  0  0  0
   -6.0510   17.0870  -34.4930 C   0  0  0  0  0  0  0  0  0  0  0  0
   -6.1330   17.0960  -33.0240 N   0  0  0  0  0  0  0  0  0  0  0  0
   -6.9880   18.0440  -32.3540 C   0  0  0  0  0  0  0  0  0  0  0  0
   -7.9460   18.8020  -33.0920 N   0  0  0  0  0  0  0  0  0  0  0  0
   -6.9020   18.2070  -31.1070 O   0  0  0  0  0  0  0  0  0  0  0  0
   -5.3310   16.1460  -32.2360 C   0  0  0  0  0  0  0  0  0  0  0  0
   -5.0510   14.8730  -33.0460 C   0  0  0  0  0  0  0  0  0  0  0  0
   -0.7600   15.6710  -32.4530 C   0  0  0  0  0  0  0  0  0  0  0  0
   -0.1020   16.6130  -31.6590 C   0  0  0  0  0  0  0  0  0  0  0  0
   -0.4890   17.9670  -31.6890 C   0  0  0  0  0  0  0  0  0  0  0  0
    0.1680   18.9560  -30.9350 O   0  0  0  0  0  0  0  0  0  0  0  0
   -0.0660   19.2560  -29.5570 C   0  0  0  0  0  0  0  0  0  0  0  0
   -0.8180   20.5590  -29.4180 C   0  0  0  0  0  0  0  0  0  0  0  0
   -0.4890   21.6450  -30.2460 C   0  0  0  0  0  0  0  0  0  0  0  0
   -1.1530   22.8660  -30.1150 C   0  0  0  0  0  0  0  0  0  0  0  0
   -2.1660   23.0200  -29.1620 C   0  0  0  0  0  0  0  0  0  0  0  0
   -2.9790   24.5720  -28.9960 S   0  0  0  0  0  0  0  0  0  0  0  0
   -4.1730   24.4770  -27.6810 C   0  0  0  0  0  0  0  0  0  0  0  0
   -3.6810   24.9290  -30.2770 O   0  0  0  0  0  0  0  0  0  0  0  0
   -1.9670   25.6380  -28.6870 O   0  0  0  0  0  0  0  0  0  0  0  0
   -2.5120   21.9410  -28.3390 C   0  0  0  0  0  0  0  0  0  0  0  0
   -1.8520   20.7110  -28.4650 C   0  0  0  0  0  0  0  0  0  0  0  0
   -2.2640   19.6140  -27.6200 C   0  0  0  0  0  0  0  0  0  0  0  0
   -2.5940   18.7340  -26.9440 N   0  0  0  0  0  0  0  0  0  0  0  0
    0.7439   20.7210  -32.8076 H   0  0  0  0  0  0  0  0  0  0  0  0
    0.1377   19.8400  -34.2509 H   0  0  0  0  0  0  0  0  0  0  0  0
    0.1895   21.6355  -34.2509 H   0  0  0  0  0  0  0  0  0  0  0  0
   -3.9432   22.2986  -31.9682 H   0  0  0  0  0  0  0  0  0  0  0  0
   -3.9709   19.6530  -31.4805 H   0  0  0  0  0  0  0  0  0  0  0  0
   -3.0115   17.7222  -34.0016 H   0  0  0  0  0  0  0  0  0  0  0  0
   -4.8215   14.4556  -35.1226 H   0  0  0  0  0  0  0  0  0  0  0  0
   -3.9060   17.2739  -34.5833 H   0  0  0  0  0  0  0  0  0  0  0  0
   -4.6816   16.5346  -36.0480 H   0  0  0  0  0  0  0  0  0  0  0  0
   -6.2049   18.1086  -34.8707 H   0  0  0  0  0  0  0  0  0  0  0  0
   -6.8275   16.4161  -34.8892 H   0  0  0  0  0  0  0  0  0  0  0  0
   -7.6780   19.3020  -33.9680 H   0  0  0  0  0  0  0  0  0  0  0  0
   -4.3757   16.6184  -31.9635 H   0  0  0  0  0  0  0  0  0  0  0  0
   -5.8929   15.8735  -31.3305 H   0  0  0  0  0  0  0  0  0  0  0  0
   -4.3873   14.2215  -32.4587 H   0  0  0  0  0  0  0  0  0  0  0  0
   -6.0184   14.3912  -33.2511 H   0  0  0  0  0  0  0  0  0  0  0  0
   -0.4579   14.6141  -32.4112 H   0  0  0  0  0  0  0  0  0  0  0  0
    0.7241   16.2953  -31.0058 H   0  0  0  0  0  0  0  0  0  0  0  0
   -0.6587   18.4464  -29.1061 H   0  0  0  0  0  0  0  0  0  0  0  0
    0.9027   19.3486  -29.0442 H   0  0  0  0  0  0  0  0  0  0  0  0
    0.2993   21.5323  -31.0048 H   0  0  0  0  0  0  0  0  0  0  0  0
   -0.8786   23.7108  -30.7638 H   0  0  0  0  0  0  0  0  0  0  0  0
   -3.6548   24.5182  -26.7116 H   0  0  0  0  0  0  0  0  0  0  0  0
   -4.8725   25.3223  -27.7591 H   0  0  0  0  0  0  0  0  0  0  0  0
   -4.7300   23.5317  -27.7591 H   0  0  0  0  0  0  0  0  0  0  0  0
   -3.3073   22.0597  -27.5884 H   0  0  0  0  0  0  0  0  0  0  0  0
  1  2  1  0
  2  3  1  0
  3  4  2  0
  4  5  1  0
  5  6  2  0
  6  7  1  0
  7  8  2  0
  8  9  1  0
  9 10  1  0
 10 11  2  0
 10 12  2  0
 10 13  1  0
 13 14  1  0
 14 15  1  0
 15 16  1  0
 16 17  1  0
 17 18  1  0
 17 19  2  0
 16 20  1  0
 20 21  1  0
  9 22  2  0
 22 23  1  0
 23 24  2  0
 24 25  1  0
 25 26  1  0
 26 27  1  0
 27 28  2  0
 28 29  1  0
 29 30  2  0
 30 31  1  0
 31 32  1  0
 31 33  2  0
 31 34  2  0
 30 35  1  0
 35 36  2  0
 36 37  1  0
 37 38  3  0
  6  2  1  0
 24  7  1  0
 36 27  1  0
 21 13  1  0
  1 39  1  0
  1 40  1  0
  1 41  1  0
  4 42  1  0
  5 43  1  0
  8 44  1  0
 13 45  1  0
 14 46  1  0
 14 47  1  0
 15 48  1  0
 15 49  1  0
 18 50  1  0
 20 51  1  0
 20 52  1  0
 21 53  1  0
 21 54  1  0
 22 55  1  0
 23 56  1  0
 26 57  1  0
 26 58  1  0
 28 59  1  0
 29 60  1  0
 32 61  1  0
 32 62  1  0
 32 63  1  0
 35 64  1  0
M  CHG  1  18  -1
M  END
>  <UniqueID>  (30) 
30

>  <SMILES>  (30) 
Cn1nccc1-c1cc(S(=O)(=O)C2CCN(C([NH-])=O)CC2)ccc1OCc1ccc(S(C)(=O)=O)cc1C#N

>  <Energy>  (30) 
97.03995860143587

>  <Genealogy>  (30) 
Cn1nccc1-c1cc(S(=O)(=O)C2CCN(C([NH-])=O)CC2)ccc1OCc1ccc(S(C)(=O)=O)cc1C#N (protonated)
Cn1nccc1-c1cc(S(=O)(=O)C2CCN(C([NH-])=O)CC2)ccc1OCc1ccc(S(C)(=O)=O)cc1C#N (3D coordinates assigned)
Cn1nccc1-c1cc(S(=O)(=O)C2CCN(C([NH-])=O)CC2)ccc1OCc1ccc(S(C)(=O)=O)cc1C#N (nonaromatic ring conformer: 97.03995860143587 kcal/mol)

>  <smiles>  (30) 
Cn1nccc1-c1cc(S(=O)(=O)C2CCN(C(N)=O)CC2)ccc1OCc1ccc(S(C)(=O)=O)cc1C#N

>  <score_type>  (30) 
oracle

>  <origin>  (30) 
adgpu

>  <m_score__min__energy>  (30) 
-12.029999999999999

>  <m_primary>  (30) 
energy

$$$$
30:0
     RDKit          3D

 71 75  0  0  0  0  0  0  0  0999 V2000
   -1.1970   23.0470  -26.6690 C   0  0  0  0  0  0  0  0  0  0  0  0
   -1.2340   22.4060  -28.0310 C   0  0  0  0  0  0  0  0  0  0  0  0
   -0.5650   21.1880  -28.2220 C   0  0  0  0  0  0  0  0  0  0  0  0
   -0.4870   20.5980  -29.4890 C   0  0  0  0  0  0  0  0  0  0  0  0
    0.2770   19.3510  -29.6360 C   0  0  0  0  0  0  0  0  0  0  0  0
    1.6590   19.3330  -29.4010 C   0  0  0  0  0  0  0  0  0  0  0  0
    2.3590   18.1310  -29.5290 C   0  0  0  0  0  0  0  0  0  0  0  0
    1.6760   16.9660  -29.8860 C   0  0  0  0  0  0  0  0  0  0  0  0
    0.2960   17.0220  -30.1080 C   0  0  0  0  0  0  0  0  0  0  0  0
   -0.3680   18.2040  -29.9830 N   0  0  0  0  0  0  0  0  0  0  0  0
   -1.1070   21.2200  -30.5910 C   0  0  0  0  0  0  0  0  0  0  0  0
   -0.8810   20.6180  -32.2390 S   0  0  0  0  0  0  0  0  0  0  0  0
   -1.2690   19.1670  -32.2520 O   0  0  0  0  0  0  0  0  0  0  0  0
   -1.7420   21.3880  -33.2040 O   0  0  0  0  0  0  0  0  0  0  0  0
    0.7830   20.7900  -32.6990 N   0  0  0  0  0  0  0  0  0  0  0  0
    1.3910   20.1390  -33.8180 C   0  0  0  0  0  0  0  0  0  0  0  0
    2.3960   19.1830  -33.8390 C   0  0  0  0  0  0  0  0  0  0  0  0
    3.0990   18.5610  -32.6750 C   0  0  0  0  0  0  0  0  0  0  0  0
    2.6180   18.8090  -35.1170 N   0  0  0  0  0  0  0  0  0  0  0  0
    1.7790   19.4850  -35.8930 N   0  0  0  0  0  0  0  0  0  0  0  0
    1.6970   19.2870  -37.3360 C   0  0  0  0  0  0  0  0  0  0  0  0
    0.9900   20.2740  -35.1300 C   0  0  0  0  0  0  0  0  0  0  0  0
   -0.0980   21.1830  -35.6230 C   0  0  0  0  0  0  0  0  0  0  0  0
   -1.8200   22.4090  -30.3910 C   0  0  0  0  0  0  0  0  0  0  0  0
   -1.8950   23.0100  -29.1270 C   0  0  0  0  0  0  0  0  0  0  0  0
   -2.6580   24.6050  -29.0220 S   0  0  0  0  0  0  0  0  0  0  0  0
   -3.5830   24.6510  -27.8380 O   0  0  0  0  0  0  0  0  0  0  0  0
   -1.6300   25.6850  -28.8460 O   0  0  0  0  0  0  0  0  0  0  0  0
   -3.5650   24.8910  -30.4690 N   0  0  0  0  0  0  0  0  0  0  0  0
   -4.7190   24.1000  -30.7630 C   0  0  0  0  0  0  0  0  0  0  0  0
   -4.6100   23.0320  -31.6620 C   0  0  0  0  0  0  0  0  0  0  0  0
   -5.7400   22.2770  -32.0040 C   0  0  0  0  0  0  0  0  0  0  0  0
   -6.9900   22.6200  -31.4700 C   0  0  0  0  0  0  0  0  0  0  0  0
   -7.1040   23.6890  -30.5720 C   0  0  0  0  0  0  0  0  0  0  0  0
   -5.9670   24.4160  -30.1990 C   0  0  0  0  0  0  0  0  0  0  0  0
   -6.0690   25.4430  -29.2630 O   0  0  0  0  0  0  0  0  0  0  0  0
   -8.1660   21.7710  -31.8380 C   0  0  0  0  0  0  0  0  0  0  0  0
   -7.7350   20.3660  -31.8030 N   0  0  0  0  0  0  0  0  0  0  0  0
   -8.8910   19.4660  -31.9160 C   0  0  0  0  0  0  0  0  0  0  0  0
   -6.7430   20.0750  -32.8670 C   0  0  0  0  0  0  0  0  0  0  0  0
   -5.6450   21.1690  -33.0220 C   0  0  0  0  0  0  0  0  0  0  0  0
   -1.2420   22.2666  -25.8951 H   0  0  0  0  0  0  0  0  0  0  0  0
   -0.2643   23.6196  -26.5585 H   0  0  0  0  0  0  0  0  0  0  0  0
   -2.0576   23.7231  -26.5585 H   0  0  0  0  0  0  0  0  0  0  0  0
   -0.0942   20.6885  -27.3625 H   0  0  0  0  0  0  0  0  0  0  0  0
    2.1867   20.2560  -29.1187 H   0  0  0  0  0  0  0  0  0  0  0  0
    3.4438   18.1020  -29.3494 H   0  0  0  0  0  0  0  0  0  0  0  0
    2.2177   16.0144  -29.9915 H   0  0  0  0  0  0  0  0  0  0  0  0
   -0.2534   16.1099  -30.3839 H   0  0  0  0  0  0  0  0  0  0  0  0
    2.6668   18.9434  -31.7386 H   0  0  0  0  0  0  0  0  0  0  0  0
    2.9785   17.4684  -32.7151 H   0  0  0  0  0  0  0  0  0  0  0  0
    4.1688   18.8137  -32.7151 H   0  0  0  0  0  0  0  0  0  0  0  0
    1.2839   18.2895  -37.5463 H   0  0  0  0  0  0  0  0  0  0  0  0
    1.0428   20.0548  -37.7749 H   0  0  0  0  0  0  0  0  0  0  0  0
    2.7024   19.3675  -37.7749 H   0  0  0  0  0  0  0  0  0  0  0  0
   -0.6252   21.6234  -34.7639 H   0  0  0  0  0  0  0  0  0  0  0  0
    0.3428   21.9851  -36.2332 H   0  0  0  0  0  0  0  0  0  0  0  0
   -0.8089   20.6066  -36.2332 H   0  0  0  0  0  0  0  0  0  0  0  0
   -2.3314   22.8806  -31.2431 H   0  0  0  0  0  0  0  0  0  0  0  0
   -3.6327   22.7844  -32.1019 H   0  0  0  0  0  0  0  0  0  0  0  0
   -8.0877   23.9576  -30.1595 H   0  0  0  0  0  0  0  0  0  0  0  0
   -5.2950   25.6910  -28.6600 H   0  0  0  0  0  0  0  0  0  0  0  0
   -8.9822   21.9300  -31.1179 H   0  0  0  0  0  0  0  0  0  0  0  0
   -8.5318   22.0356  -32.8411 H   0  0  0  0  0  0  0  0  0  0  0  0
   -9.2424   19.1924  -30.9102 H   0  0  0  0  0  0  0  0  0  0  0  0
   -9.6997   19.9746  -32.4612 H   0  0  0  0  0  0  0  0  0  0  0  0
   -8.5963   18.5572  -32.4612 H   0  0  0  0  0  0  0  0  0  0  0  0
   -6.2501   19.1207  -32.6295 H   0  0  0  0  0  0  0  0  0  0  0  0
   -7.2953   20.0397  -33.8177 H   0  0  0  0  0  0  0  0  0  0  0  0
   -4.6606   20.6888  -32.9206 H   0  0  0  0  0  0  0  0  0  0  0  0
   -5.7898   21.6296  -34.0104 H   0  0  0  0  0  0  0  0  0  0  0  0
  1  2  1  0
  2  3  2  0
  3  4  1  0
  4  5  1  0
  5  6  2  0
  6  7  1  0
  7  8  2  0
  8  9  1  0
  9 10  2  0
  4 11  2  0
 11 12  1  0
 12 13  2  0
 12 14  2  0
 12 15  1  0
 15 16  1  0
 16 17  1  0
 17 18  1  0
 17 19  2  0
 19 20  1  0
 20 21  1  0
 20 22  1  0
 22 23  1  0
 11 24  1  0
 24 25  2  0
 25 26  1  0
 26 27  2  0
 26 28  2  0
 26 29  1  0
 29 30  1  0
 30 31  2  0
 31 32  1  0
 32 33  2  0
 33 34  1  0
 34 35  2  0
 35 36  1  0
 33 37  1  0
 37 38  1  0
 38 39  1  0
 38 40  1  0
 40 41  1  0
 25  2  1  0
 35 30  1  0
 10  5  1  0
 22 16  2  0
 41 32  1  0
  1 42  1  0
  1 43  1  0
  1 44  1  0
  3 45  1  0
  6 46  1  0
  7 47  1  0
  8 48  1  0
  9 49  1  0
 18 50  1  0
 18 51  1  0
 18 52  1  0
 21 53  1  0
 21 54  1  0
 21 55  1  0
 23 56  1  0
 23 57  1  0
 23 58  1  0
 24 59  1  0
 31 60  1  0
 34 61  1  0
 36 62  1  0
 37 63  1  0
 37 64  1  0
 39 65  1  0
 39 66  1  0
 39 67  1  0
 40 68  1  0
 40 69  1  0
 41 70  1  0
 41 71  1  0
M  CHG  2  15  -1  29  -1
M  END
>  <UniqueID>  (31) 
31

>  <SMILES>  (31) 
Cc1cc(-c2ccccn2)c(S(=O)(=O)[N-]c2c(C)nn(C)c2C)cc1S(=O)(=O)[N-]c1cc2c(cc1O)CN(C)CC2

>  <Energy>  (31) 
135.1540655390061

>  <Genealogy>  (31) 
Cc1cc(-c2ccccn2)c(S(=O)(=O)[N-]c2c(C)nn(C)c2C)cc1S(=O)(=O)[N-]c1cc2c(cc1O)CN(C)CC2 (protonated)
Cc1cc(-c2ccccn2)c(S(=O)(=O)[N-]c2c(C)nn(C)c2C)cc1S(=O)(=O)[N-]c1cc2c(cc1O)CN(C)CC2 (3D coordinates assigned)
Cc1cc(-c2ccccn2)c(S(=O)(=O)[N-]c2c(C)nn(C)c2C)cc1S(=O)(=O)[N-]c1cc2c(cc1O)CN(C)CC2 (nonaromatic ring conformer: 135.1540655390061 kcal/mol)

>  <smiles>  (31) 
Cc1cc(-c2ccccn2)c(S(=O)(=O)Nc2c(C)nn(C)c2C)cc1S(=O)(=O)Nc1cc2c(cc1O)CN(C)CC2

>  <score_type>  (31) 
oracle

>  <origin>  (31) 
adgpu

>  <m_score__min__energy>  (31) 
-13.51

>  <m_primary>  (31) 
energy

$$$$
31:0
     RDKit          3D

 60 63  0  0  0  0  0  0  0  0999 V2000
   -6.0230   25.7870  -30.8010 O   0  0  0  0  0  0  0  0  0  0  0  0
   -5.0590   24.9970  -30.9890 C   0  0  0  0  0  0  0  0  0  0  0  0
   -5.2530   23.7800  -31.7160 N   0  0  0  0  0  0  0  0  0  0  0  0
   -6.5000   23.0790  -31.8590 C   0  0  0  0  0  0  0  0  0  0  0  0
   -7.7300   23.7640  -31.8510 C   0  0  0  0  0  0  0  0  0  0  0  0
   -8.9290   23.0600  -31.9580 C   0  0  0  0  0  0  0  0  0  0  0  0
   -8.9180   21.6680  -32.0640 C   0  0  0  0  0  0  0  0  0  0  0  0
   -7.7030   20.9640  -32.0550 C   0  0  0  0  0  0  0  0  0  0  0  0
   -7.7290   19.1960  -32.1770 S   0  0  0  0  0  0  0  0  0  0  0  0
   -8.0170   18.6170  -30.8180 O   0  0  0  0  0  0  0  0  0  0  0  0
   -8.8360   18.7680  -33.1000 O   0  0  0  0  0  0  0  0  0  0  0  0
   -6.2060   18.5620  -32.7490 N   0  0  0  0  0  0  0  0  0  0  0  0
   -6.0990   17.1290  -32.4220 C   0  0  0  0  0  0  0  0  0  0  0  0
   -4.7200   16.6020  -32.8320 C   0  0  0  0  0  0  0  0  0  0  0  0
   -4.4820   16.8360  -34.3290 C   0  0  0  0  0  0  0  0  0  0  0  0
   -4.7130   18.3070  -34.6930 C   0  0  0  0  0  0  0  0  0  0  0  0
   -6.0890   18.7710  -34.2050 C   0  0  0  0  0  0  0  0  0  0  0  0
   -6.4910   21.6750  -31.9440 C   0  0  0  0  0  0  0  0  0  0  0  0
   -5.2740   20.9960  -31.9240 O   0  0  0  0  0  0  0  0  0  0  0  0
   -3.7620   25.2980  -30.4590 N   0  0  0  0  0  0  0  0  0  0  0  0
   -3.0990   24.4920  -29.4760 C   0  0  0  0  0  0  0  0  0  0  0  0
   -3.6870   23.2850  -29.0870 C   0  0  0  0  0  0  0  0  0  0  0  0
   -3.1140   22.5200  -28.0750 C   0  0  0  0  0  0  0  0  0  0  0  0
   -1.9380   22.9450  -27.4520 C   0  0  0  0  0  0  0  0  0  0  0  0
   -1.3070   24.1280  -27.8600 C   0  0  0  0  0  0  0  0  0  0  0  0
    0.2250   24.5910  -27.0950 S   0  0  0  0  0  0  0  0  0  0  0  0
    0.7780   23.4360  -26.3100 O   0  0  0  0  0  0  0  0  0  0  0  0
    1.2140   24.9220  -28.1780 O   0  0  0  0  0  0  0  0  0  0  0  0
    0.0370   25.9530  -26.0080 N   0  0  0  0  0  0  0  0  0  0  0  0
   -0.8550   25.6150  -24.8870 C   0  0  0  0  0  0  0  0  0  0  0  0
   -0.9750   26.8150  -23.9230 C   0  0  0  0  0  0  0  0  0  0  0  0
   -0.3510   27.9810  -24.4370 O   0  0  0  0  0  0  0  0  0  0  0  0
   -0.8440   28.2620  -25.7340 C   0  0  0  0  0  0  0  0  0  0  0  0
   -0.4730   27.1380  -26.7280 C   0  0  0  0  0  0  0  0  0  0  0  0
   -1.8790   24.8940  -28.8950 C   0  0  0  0  0  0  0  0  0  0  0  0
   -1.2310   26.0340  -29.3710 O   0  0  0  0  0  0  0  0  0  0  0  0
   -7.7453   24.8601  -31.7599 H   0  0  0  0  0  0  0  0  0  0  0  0
   -9.8858   23.6028  -31.9589 H   0  0  0  0  0  0  0  0  0  0  0  0
   -9.8670   21.1193  -32.1551 H   0  0  0  0  0  0  0  0  0  0  0  0
   -6.2351   16.9908  -31.3392 H   0  0  0  0  0  0  0  0  0  0  0  0
   -6.8759   16.5739  -32.9683 H   0  0  0  0  0  0  0  0  0  0  0  0
   -3.9448   17.1277  -32.2552 H   0  0  0  0  0  0  0  0  0  0  0  0
   -4.6755   15.5220  -32.6280 H   0  0  0  0  0  0  0  0  0  0  0  0
   -3.4460   16.5615  -34.5768 H   0  0  0  0  0  0  0  0  0  0  0  0
   -5.1891   16.2161  -34.8998 H   0  0  0  0  0  0  0  0  0  0  0  0
   -3.9344   18.9235  -34.2200 H   0  0  0  0  0  0  0  0  0  0  0  0
   -4.6690   18.4138  -35.7869 H   0  0  0  0  0  0  0  0  0  0  0  0
   -6.2137   19.8404  -34.4305 H   0  0  0  0  0  0  0  0  0  0  0  0
   -6.8687   18.1879  -34.7169 H   0  0  0  0  0  0  0  0  0  0  0  0
   -4.6059   22.9384  -29.5824 H   0  0  0  0  0  0  0  0  0  0  0  0
   -3.5888   21.5775  -27.7647 H   0  0  0  0  0  0  0  0  0  0  0  0
   -1.5047   22.3475  -26.6363 H   0  0  0  0  0  0  0  0  0  0  0  0
   -1.8513   25.3620  -25.2786 H   0  0  0  0  0  0  0  0  0  0  0  0
   -0.4375   24.7558  -24.3416 H   0  0  0  0  0  0  0  0  0  0  0  0
   -2.0408   27.0287  -23.7547 H   0  0  0  0  0  0  0  0  0  0  0  0
   -0.4671   26.5462  -22.9850 H   0  0  0  0  0  0  0  0  0  0  0  0
   -1.9392   28.3546  -25.6894 H   0  0  0  0  0  0  0  0  0  0  0  0
   -0.3896   29.2007  -26.0838 H   0  0  0  0  0  0  0  0  0  0  0  0
   -1.3670   26.8544  -27.3028 H   0  0  0  0  0  0  0  0  0  0  0  0
    0.3129   27.5075  -27.4032 H   0  0  0  0  0  0  0  0  0  0  0  0
  1  2  2  0
  2  3  1  0
  3  4  1  0
  4  5  2  0
  5  6  1  0
  6  7  2  0
  7  8  1  0
  8  9  1  0
  9 10  2  0
  9 11  2  0
  9 12  1  0
 12 13  1  0
 13 14  1  0
 14 15  1  0
 15 16  1  0
 16 17  1  0
  8 18  2  0
 18 19  1  0
  2 20  1  0
 20 21  1  0
 21 22  2  0
 22 23  1  0
 23 24  2  0
 24 25  1  0
 25 26  1  0
 26 27  2  0
 26 28  2  0
 26 29  1  0
 29 30  1  0
 30 31  1  0
 31 32  1  0
 32 33  1  0
 33 34  1  0
 25 35  2  0
 35 36  1  0
 18  4  1  0
 35 21  1  0
 17 12  1  0
 34 29  1  0
  5 37  1  0
  6 38  1  0
  7 39  1  0
 13 40  1  0
 13 41  1  0
 14 42  1  0
 14 43  1  0
 15 44  1  0
 15 45  1  0
 16 46  1  0
 16 47  1  0
 17 48  1  0
 17 49  1  0
 22 50  1  0
 23 51  1  0
 24 52  1  0
 30 53  1  0
 30 54  1  0
 31 55  1  0
 31 56  1  0
 33 57  1  0
 33 58  1  0
 34 59  1  0
 34 60  1  0
M  CHG  4   3  -1  19  -1  20  -1  36  -1
M  END
>  <UniqueID>  (32) 
32

>  <SMILES>  (32) 
O=C([N-]c1cccc(S(=O)(=O)N2CCCCC2)c1[O-])[N-]c1cccc(S(=O)(=O)N2CCOCC2)c1[O-]

>  <Energy>  (32) 
77.51941292357435

>  <Genealogy>  (32) 
O=C([N-]c1cccc(S(=O)(=O)N2CCCCC2)c1[O-])[N-]c1cccc(S(=O)(=O)N2CCOCC2)c1[O-] (protonated)
O=C([N-]c1cccc(S(=O)(=O)N2CCCCC2)c1[O-])[N-]c1cccc(S(=O)(=O)N2CCOCC2)c1[O-] (3D coordinates assigned)
O=C([N-]c1cccc(S(=O)(=O)N2CCCCC2)c1[O-])[N-]c1cccc(S(=O)(=O)N2CCOCC2)c1[O-] (nonaromatic ring conformer: 77.51941292357435 kcal/mol)

>  <smiles>  (32) 
O=C(Nc1cccc(S(=O)(=O)N2CCCCC2)c1O)Nc1cccc(S(=O)(=O)N2CCOCC2)c1O

>  <score_type>  (32) 
oracle

>  <origin>  (32) 
adgpu

>  <m_score__min__energy>  (32) 
-16.940000000000001

>  <m_primary>  (32) 
energy

$$$$
32:0
     RDKit          3D

 55 58  0  0  0  0  0  0  0  0999 V2000
    2.4350   16.3130  -30.0630 C   0  0  0  0  0  0  0  0  0  0  0  0
    2.6550   17.6300  -29.3790 C   0  0  0  0  0  0  0  0  0  0  0  0
    3.8420   17.9740  -29.1210 O   0  0  0  0  0  0  0  0  0  0  0  0
    1.5530   18.4950  -29.0030 N   0  0  0  0  0  0  0  0  0  0  0  0
    1.8460   19.8320  -28.4510 C   0  0  0  0  0  0  0  0  0  0  0  0
    0.7510   20.2830  -27.4800 C   0  0  0  0  0  0  0  0  0  0  0  0
   -0.5690   20.0640  -28.0750 N   0  0  0  0  0  0  0  0  0  0  0  0
   -1.6470   20.9740  -27.7980 C   0  0  0  0  0  0  0  0  0  0  0  0
   -2.7010   20.5350  -27.2610 O   0  0  0  0  0  0  0  0  0  0  0  0
   -1.5600   22.4090  -28.1770 C   0  0  0  0  0  0  0  0  0  0  0  0
   -0.4820   23.2000  -27.7400 C   0  0  0  0  0  0  0  0  0  0  0  0
   -0.3860   24.5390  -28.1240 C   0  0  0  0  0  0  0  0  0  0  0  0
   -1.3500   25.1010  -28.9620 C   0  0  0  0  0  0  0  0  0  0  0  0
   -1.2380   26.4360  -29.3360 O   0  0  0  0  0  0  0  0  0  0  0  0
   -2.4220   24.3270  -29.4270 C   0  0  0  0  0  0  0  0  0  0  0  0
   -3.3800   24.9320  -30.3070 N   0  0  0  0  0  0  0  0  0  0  0  0
   -5.0290   24.4310  -30.4990 S   0  0  0  0  0  0  0  0  0  0  0  0
   -5.8050   25.4850  -31.2350 O   0  0  0  0  0  0  0  0  0  0  0  0
   -5.6430   24.2060  -29.1450 O   0  0  0  0  0  0  0  0  0  0  0  0
   -5.0510   22.9290  -31.4190 C   0  0  0  0  0  0  0  0  0  0  0  0
   -3.8580   22.4000  -31.9370 C   0  0  0  0  0  0  0  0  0  0  0  0
   -3.8790   21.2410  -32.7210 C   0  0  0  0  0  0  0  0  0  0  0  0
   -5.0890   20.5960  -32.9910 C   0  0  0  0  0  0  0  0  0  0  0  0
   -6.2860   21.0980  -32.4600 C   0  0  0  0  0  0  0  0  0  0  0  0
   -6.2690   22.2760  -31.6810 C   0  0  0  0  0  0  0  0  0  0  0  0
   -7.4650   22.7820  -31.1500 O   0  0  0  0  0  0  0  0  0  0  0  0
   -8.7450   22.2790  -31.5420 C   0  0  0  0  0  0  0  0  0  0  0  0
   -8.6840   20.7690  -31.7650 C   0  0  0  0  0  0  0  0  0  0  0  0
   -7.5970   20.4290  -32.7930 C   0  0  0  0  0  0  0  0  0  0  0  0
   -2.5280   22.9830  -29.0210 C   0  0  0  0  0  0  0  0  0  0  0  0
   -0.8710   18.7140  -28.5530 C   0  0  0  0  0  0  0  0  0  0  0  0
    0.2020   18.2590  -29.5430 C   0  0  0  0  0  0  0  0  0  0  0  0
    2.3033   15.5247  -29.3071 H   0  0  0  0  0  0  0  0  0  0  0  0
    1.5343   16.3723  -30.6917 H   0  0  0  0  0  0  0  0  0  0  0  0
    3.3061   16.0763  -30.6917 H   0  0  0  0  0  0  0  0  0  0  0  0
    2.8069   19.7968  -27.9168 H   0  0  0  0  0  0  0  0  0  0  0  0
    1.8906   20.5500  -29.2831 H   0  0  0  0  0  0  0  0  0  0  0  0
    0.8305   19.7048  -26.5476 H   0  0  0  0  0  0  0  0  0  0  0  0
    0.8771   21.3548  -27.2670 H   0  0  0  0  0  0  0  0  0  0  0  0
    0.2904   22.7608  -27.0915 H   0  0  0  0  0  0  0  0  0  0  0  0
    0.4528   25.1533  -27.7646 H   0  0  0  0  0  0  0  0  0  0  0  0
   -2.9011   22.8996  -31.7253 H   0  0  0  0  0  0  0  0  0  0  0  0
   -2.9398   20.8363  -33.1261 H   0  0  0  0  0  0  0  0  0  0  0  0
   -5.1025   19.6940  -33.6204 H   0  0  0  0  0  0  0  0  0  0  0  0
   -9.4773   22.4983  -30.7510 H   0  0  0  0  0  0  0  0  0  0  0  0
   -9.0440   22.7646  -32.4826 H   0  0  0  0  0  0  0  0  0  0  0  0
   -8.4522   20.2701  -30.8125 H   0  0  0  0  0  0  0  0  0  0  0  0
   -9.6570   20.4223  -32.1433 H   0  0  0  0  0  0  0  0  0  0  0  0
   -7.4478   19.3393  -32.8071 H   0  0  0  0  0  0  0  0  0  0  0  0
   -7.9285   20.7939  -33.7764 H   0  0  0  0  0  0  0  0  0  0  0  0
   -3.3769   22.3753  -29.3675 H   0  0  0  0  0  0  0  0  0  0  0  0
   -0.8957   18.0217  -27.6985 H   0  0  0  0  0  0  0  0  0  0  0  0
   -1.8490   18.7190  -29.0566 H   0  0  0  0  0  0  0  0  0  0  0  0
    0.0764   17.1843  -29.7409 H   0  0  0  0  0  0  0  0  0  0  0  0
    0.0898   18.8375  -30.4718 H   0  0  0  0  0  0  0  0  0  0  0  0
  1  2  1  0
  2  3  2  0
  2  4  1  0
  4  5  1  0
  5  6  1  0
  6  7  1  0
  7  8  1  0
  8  9  2  0
  8 10  1  0
 10 11  2  0
 11 12  1  0
 12 13  2  0
 13 14  1  0
 13 15  1  0
 15 16  1  0
 16 17  1  0
 17 18  2  0
 17 19  2  0
 17 20  1  0
 20 21  2  0
 21 22  1  0
 22 23  2  0
 23 24  1  0
 24 25  2  0
 25 26  1  0
 26 27  1  0
 27 28  1  0
 28 29  1  0
 15 30  2  0
  7 31  1  0
 31 32  1  0
 32  4  1  0
 30 10  1  0
 25 20  1  0
 29 24  1  0
  1 33  1  0
  1 34  1  0
  1 35  1  0
  5 36  1  0
  5 37  1  0
  6 38  1  0
  6 39  1  0
 11 40  1  0
 12 41  1  0
 21 42  1  0
 22 43  1  0
 23 44  1  0
 27 45  1  0
 27 46  1  0
 28 47  1  0
 28 48  1  0
 29 49  1  0
 29 50  1  0
 30 51  1  0
 31 52  1  0
 31 53  1  0
 32 54  1  0
 32 55  1  0
M  CHG  2  14  -1  16  -1
M  END
>  <UniqueID>  (33) 
33

>  <SMILES>  (33) 
CC(=O)N1CCN(C(=O)c2ccc([O-])c([N-]S(=O)(=O)c3cccc4c3OCCC4)c2)CC1

>  <Energy>  (33) 
65.84303537203192

>  <Genealogy>  (33) 
CC(=O)N1CCN(C(=O)c2ccc([O-])c([N-]S(=O)(=O)c3cccc4c3OCCC4)c2)CC1 (protonated)
CC(=O)N1CCN(C(=O)c2ccc([O-])c([N-]S(=O)(=O)c3cccc4c3OCCC4)c2)CC1 (3D coordinates assigned)
CC(=O)N1CCN(C(=O)c2ccc([O-])c([N-]S(=O)(=O)c3cccc4c3OCCC4)c2)CC1 (nonaromatic ring conformer: 65.84303537203192 kcal/mol)

>  <smiles>  (33) 
CC(=O)N1CCN(C(=O)c2ccc(O)c(NS(=O)(=O)c3cccc4c3OCCC4)c2)CC1

>  <score_type>  (33) 
oracle

>  <origin>  (33) 
adgpu

>  <m_score__min__energy>  (33) 
-13.83

>  <m_primary>  (33) 
energy

$$$$
33:0
     RDKit          3D

 50 53  0  0  0  0  0  0  0  0999 V2000
   -0.8630   25.4670  -24.6940 C   0  0  0  0  0  0  0  0  0  0  0  0
   -0.6560   25.0940  -26.0540 O   0  0  0  0  0  0  0  0  0  0  0  0
   -1.6880   24.8600  -26.9750 C   0  0  0  0  0  0  0  0  0  0  0  0
   -3.0380   24.7640  -26.5880 C   0  0  0  0  0  0  0  0  0  0  0  0
   -4.0320   24.5420  -27.5460 C   0  0  0  0  0  0  0  0  0  0  0  0
   -3.6910   24.4120  -28.8990 C   0  0  0  0  0  0  0  0  0  0  0  0
   -4.9630   24.2330  -30.1090 S   0  0  0  0  0  0  0  0  0  0  0  0
   -4.8340   25.3650  -31.0900 O   0  0  0  0  0  0  0  0  0  0  0  0
   -6.3070   24.3160  -29.4390 O   0  0  0  0  0  0  0  0  0  0  0  0
   -4.8190   22.6820  -30.9590 C   0  0  0  0  0  0  0  0  0  0  0  0
   -3.5390   22.1960  -31.2620 C   0  0  0  0  0  0  0  0  0  0  0  0
   -3.3800   21.0230  -32.0070 C   0  0  0  0  0  0  0  0  0  0  0  0
   -2.0350   20.5210  -32.3690 C   0  0  0  0  0  0  0  0  0  0  0  0
   -0.7990   20.8800  -31.8370 C   0  0  0  0  0  0  0  0  0  0  0  0
   -0.5250   21.9040  -30.7800 C   0  0  0  0  0  0  0  0  0  0  0  0
    0.1780   20.1820  -32.4490 N   0  0  0  0  0  0  0  0  0  0  0  0
   -0.3870   19.4080  -33.3610 N   0  0  0  0  0  0  0  0  0  0  0  0
    0.3700   18.4940  -34.2080 C   0  0  0  0  0  0  0  0  0  0  0  0
   -1.7260   19.5860  -33.3450 C   0  0  0  0  0  0  0  0  0  0  0  0
   -2.7070   18.8630  -34.2200 C   0  0  0  0  0  0  0  0  0  0  0  0
   -4.4800   20.3230  -32.3860 N   0  0  0  0  0  0  0  0  0  0  0  0
   -5.7400   20.7280  -32.0840 C   0  0  0  0  0  0  0  0  0  0  0  0
   -6.8290   19.9530  -32.4990 C   0  0  0  0  0  0  0  0  0  0  0  0
   -8.1310   20.3520  -32.1930 C   0  0  0  0  0  0  0  0  0  0  0  0
   -9.4920   19.3710  -32.7030 Cl  0  0  0  0  0  0  0  0  0  0  0  0
   -8.3500   21.5260  -31.4680 C   0  0  0  0  0  0  0  0  0  0  0  0
   -7.2710   22.3110  -31.0520 C   0  0  0  0  0  0  0  0  0  0  0  0
   -5.9490   21.9270  -31.3580 C   0  0  0  0  0  0  0  0  0  0  0  0
   -2.3480   24.5080  -29.2860 C   0  0  0  0  0  0  0  0  0  0  0  0
   -1.3540   24.7260  -28.3280 C   0  0  0  0  0  0  0  0  0  0  0  0
   -0.4361   24.6977  -24.0338 H   0  0  0  0  0  0  0  0  0  0  0  0
   -0.3710   26.4314  -24.4993 H   0  0  0  0  0  0  0  0  0  0  0  0
   -1.9417   25.5598  -24.4993 H   0  0  0  0  0  0  0  0  0  0  0  0
   -3.3121   24.8641  -25.5274 H   0  0  0  0  0  0  0  0  0  0  0  0
   -5.0851   24.4692  -27.2366 H   0  0  0  0  0  0  0  0  0  0  0  0
   -2.6515   22.7425  -30.9104 H   0  0  0  0  0  0  0  0  0  0  0  0
   -0.6472   21.4474  -29.7867 H   0  0  0  0  0  0  0  0  0  0  0  0
    0.5044   22.2764  -30.8883 H   0  0  0  0  0  0  0  0  0  0  0  0
   -1.2309   22.7407  -30.8883 H   0  0  0  0  0  0  0  0  0  0  0  0
    0.9447   17.8002  -33.5769 H   0  0  0  0  0  0  0  0  0  0  0  0
   -0.3235   17.9232  -34.8431 H   0  0  0  0  0  0  0  0  0  0  0  0
    1.0599   19.0690  -34.8431 H   0  0  0  0  0  0  0  0  0  0  0  0
   -3.4337   18.3274  -33.5914 H   0  0  0  0  0  0  0  0  0  0  0  0
   -3.2362   19.5887  -34.8551 H   0  0  0  0  0  0  0  0  0  0  0  0
   -2.1704   18.1427  -34.8551 H   0  0  0  0  0  0  0  0  0  0  0  0
   -6.6583   19.0271  -33.0678 H   0  0  0  0  0  0  0  0  0  0  0  0
   -9.3772   21.8342  -31.2232 H   0  0  0  0  0  0  0  0  0  0  0  0
   -7.4541   23.2340  -30.4824 H   0  0  0  0  0  0  0  0  0  0  0  0
   -2.0750   24.4115  -30.3472 H   0  0  0  0  0  0  0  0  0  0  0  0
   -0.3011   24.7928  -28.6394 H   0  0  0  0  0  0  0  0  0  0  0  0
  1  2  1  0
  2  3  1  0
  3  4  2  0
  4  5  1  0
  5  6  2  0
  6  7  1  0
  7  8  2  0
  7  9  2  0
  7 10  1  0
 10 11  2  0
 11 12  1  0
 12 13  1  0
 13 14  1  0
 14 15  1  0
 14 16  2  0
 16 17  1  0
 17 18  1  0
 17 19  1  0
 19 20  1  0
 12 21  2  0
 21 22  1  0
 22 23  2  0
 23 24  1  0
 24 25  1  0
 24 26  2  0
 26 27  1  0
 27 28  2  0
  6 29  1  0
 29 30  2  0
 30  3  1  0
 28 10  1  0
 19 13  2  0
 28 22  1  0
  1 31  1  0
  1 32  1  0
  1 33  1  0
  4 34  1  0
  5 35  1  0
 11 36  1  0
 15 37  1  0
 15 38  1  0
 15 39  1  0
 18 40  1  0
 18 41  1  0
 18 42  1  0
 20 43  1  0
 20 44  1  0
 20 45  1  0
 23 46  1  0
 26 47  1  0
 27 48  1  0
 29 49  1  0
 30 50  1  0
M  END
>  <UniqueID>  (34) 
34

>  <SMILES>  (34) 
COc1ccc(S(=O)(=O)c2cc(-c3c(C)nn(C)c3C)nc3cc(Cl)ccc23)cc1

>  <Energy>  (34) 
92.59367999004697

>  <Genealogy>  (34) 
COc1ccc(S(=O)(=O)c2cc(-c3c(C)nn(C)c3C)nc3cc(Cl)ccc23)cc1 (3D coordinates assigned)
COc1ccc(S(=O)(=O)c2cc(-c3c(C)nn(C)c3C)nc3cc(Cl)ccc23)cc1 (optimized conformer: 92.59367999004697 kcal/mol)

>  <smiles>  (34) 
COc1ccc(S(=O)(=O)c2cc(-c3c(C)nn(C)c3C)nc3cc(Cl)ccc23)cc1

>  <score_type>  (34) 
oracle

>  <origin>  (34) 
adgpu

>  <m_score__min__energy>  (34) 
-9.3699999999999992

>  <m_primary>  (34) 
energy

$$$$
34:0
     RDKit          3D

 50 53  0  0  0  0  0  0  0  0999 V2000
   -5.9990   19.0670  -34.7570 C   0  0  0  0  0  0  0  0  0  0  0  0
   -5.1350   17.8650  -35.1300 C   0  0  0  0  0  0  0  0  0  0  0  0
   -4.8490   17.0380  -33.9350 N   0  0  0  0  0  0  0  0  0  0  0  0
   -5.8640   15.9810  -33.7380 C   0  0  0  0  0  0  0  0  0  0  0  0
   -7.2300   16.5760  -33.3630 C   0  0  0  0  0  0  0  0  0  0  0  0
   -7.0740   17.6800  -32.4140 N   0  0  0  0  0  0  0  0  0  0  0  0
   -8.2340   18.4320  -32.0100 C   0  0  0  0  0  0  0  0  0  0  0  0
   -9.3280   17.8280  -31.8330 O   0  0  0  0  0  0  0  0  0  0  0  0
   -8.1790   19.9030  -31.8310 C   0  0  0  0  0  0  0  0  0  0  0  0
   -9.3020   20.6940  -32.1200 C   0  0  0  0  0  0  0  0  0  0  0  0
   -9.2500   22.0790  -31.9520 C   0  0  0  0  0  0  0  0  0  0  0  0
   -8.0750   22.6910  -31.5080 C   0  0  0  0  0  0  0  0  0  0  0  0
   -6.9290   21.9240  -31.2400 C   0  0  0  0  0  0  0  0  0  0  0  0
   -5.6920   22.5950  -30.7620 C   0  0  0  0  0  0  0  0  0  0  0  0
   -5.5610   23.9940  -30.7580 C   0  0  0  0  0  0  0  0  0  0  0  0
   -4.3740   24.5710  -30.3060 C   0  0  0  0  0  0  0  0  0  0  0  0
   -4.2650   25.8270  -30.3100 O   0  0  0  0  0  0  0  0  0  0  0  0
   -3.3270   23.7430  -29.8520 C   0  0  0  0  0  0  0  0  0  0  0  0
   -2.0920   24.2460  -29.3780 C   0  0  0  0  0  0  0  0  0  0  0  0
   -1.8450   25.6160  -29.3430 O   0  0  0  0  0  0  0  0  0  0  0  0
   -1.0950   23.3570  -28.9350 C   0  0  0  0  0  0  0  0  0  0  0  0
    0.1300   23.8310  -28.4640 O   0  0  0  0  0  0  0  0  0  0  0  0
   -1.3260   21.9780  -28.9630 C   0  0  0  0  0  0  0  0  0  0  0  0
   -0.3420   21.0980  -28.5250 O   0  0  0  0  0  0  0  0  0  0  0  0
   -2.5420   21.4760  -29.4300 C   0  0  0  0  0  0  0  0  0  0  0  0
   -3.5400   22.3460  -29.8740 C   0  0  0  0  0  0  0  0  0  0  0  0
   -4.6880   21.8430  -30.3170 O   0  0  0  0  0  0  0  0  0  0  0  0
   -6.9940   20.5270  -31.4010 C   0  0  0  0  0  0  0  0  0  0  0  0
   -5.7970   17.8370  -31.7100 C   0  0  0  0  0  0  0  0  0  0  0  0
   -4.6220   17.8540  -32.7100 C   0  0  0  0  0  0  0  0  0  0  0  0
   -6.0586   19.1499  -33.6618 H   0  0  0  0  0  0  0  0  0  0  0  0
   -5.5512   19.9828  -35.1702 H   0  0  0  0  0  0  0  0  0  0  0  0
   -7.0098   18.9344  -35.1702 H   0  0  0  0  0  0  0  0  0  0  0  0
   -5.6674   17.2539  -35.8736 H   0  0  0  0  0  0  0  0  0  0  0  0
   -4.1836   18.2276  -35.5465 H   0  0  0  0  0  0  0  0  0  0  0  0
   -5.9679   15.4068  -34.6705 H   0  0  0  0  0  0  0  0  0  0  0  0
   -5.5318   15.3323  -32.9141 H   0  0  0  0  0  0  0  0  0  0  0  0
   -7.7226   16.9496  -34.2728 H   0  0  0  0  0  0  0  0  0  0  0  0
   -7.8393   15.7903  -32.8924 H   0  0  0  0  0  0  0  0  0  0  0  0
  -10.2271   20.2205  -32.4804 H   0  0  0  0  0  0  0  0  0  0  0  0
  -10.1377   22.6909  -32.1701 H   0  0  0  0  0  0  0  0  0  0  0  0
   -8.0471   23.7816  -31.3672 H   0  0  0  0  0  0  0  0  0  0  0  0
   -6.3878   24.6292  -31.1085 H   0  0  0  0  0  0  0  0  0  0  0  0
    0.8580   23.2110  -28.1300 H   0  0  0  0  0  0  0  0  0  0  0  0
   -2.7149   20.3898  -29.4483 H   0  0  0  0  0  0  0  0  0  0  0  0
   -6.1055   19.9147  -31.1875 H   0  0  0  0  0  0  0  0  0  0  0  0
   -5.8077   18.7832  -31.1492 H   0  0  0  0  0  0  0  0  0  0  0  0
   -5.6649   16.9880  -31.0231 H   0  0  0  0  0  0  0  0  0  0  0  0
   -4.4460   18.8954  -33.0173 H   0  0  0  0  0  0  0  0  0  0  0  0
   -3.7596   17.4104  -32.1909 H   0  0  0  0  0  0  0  0  0  0  0  0
  1  2  1  0
  2  3  1  0
  3  4  1  0
  4  5  1  0
  5  6  1  0
  6  7  1  0
  7  8  2  0
  7  9  1  0
  9 10  2  0
 10 11  1  0
 11 12  2  0
 12 13  1  0
 13 14  1  0
 14 15  2  0
 15 16  1  0
 16 17  2  0
 16 18  1  0
 18 19  2  0
 19 20  1  0
 19 21  1  0
 21 22  1  0
 21 23  2  0
 23 24  1  0
 23 25  1  0
 25 26  2  0
 26 27  1  0
 13 28  2  0
  6 29  1  0
 29 30  1  0
 30  3  1  0
 28  9  1  0
 27 14  1  0
 26 18  1  0
  1 31  1  0
  1 32  1  0
  1 33  1  0
  2 34  1  0
  2 35  1  0
  4 36  1  0
  4 37  1  0
  5 38  1  0
  5 39  1  0
 10 40  1  0
 11 41  1  0
 12 42  1  0
 15 43  1  0
 22 44  1  0
 25 45  1  0
 28 46  1  0
 29 47  1  0
 29 48  1  0
 30 49  1  0
 30 50  1  0
M  CHG  2  20  -1  24  -1
M  END
>  <UniqueID>  (35) 
35

>  <SMILES>  (35) 
CCN1CCN(C(=O)c2cccc(-c3cc(=O)c4c([O-])c(O)c([O-])cc4o3)c2)CC1

>  <Energy>  (35) 
73.83067588482982

>  <Genealogy>  (35) 
CCN1CCN(C(=O)c2cccc(-c3cc(=O)c4c([O-])c(O)c([O-])cc4o3)c2)CC1 (protonated)
CCN1CCN(C(=O)c2cccc(-c3cc(=O)c4c([O-])c(O)c([O-])cc4o3)c2)CC1 (3D coordinates assigned)
CCN1CCN(C(=O)c2cccc(-c3cc(=O)c4c([O-])c(O)c([O-])cc4o3)c2)CC1 (nonaromatic ring conformer: 73.83067588482982 kcal/mol)

>  <smiles>  (35) 
CCN1CCN(C(=O)c2cccc(-c3cc(=O)c4c(O)c(O)c(O)cc4o3)c2)CC1

>  <score_type>  (35) 
oracle

>  <origin>  (35) 
adgpu

>  <m_score__min__energy>  (35) 
-12.99

>  <m_primary>  (35) 
energy

$$$$
35:0
     RDKit          3D

 47 49  0  0  0  0  0  0  0  0999 V2000
   -9.0330   21.6900  -31.6040 C   0  0  0  0  0  0  0  0  0  0  0  0
   -7.5570   21.9690  -31.6810 C   0  0  0  0  0  0  0  0  0  0  0  0
   -7.0160   23.0490  -30.9630 C   0  0  0  0  0  0  0  0  0  0  0  0
   -5.6400   23.3070  -30.9890 C   0  0  0  0  0  0  0  0  0  0  0  0
   -4.9860   24.6450  -30.0490 S   0  0  0  0  0  0  0  0  0  0  0  0
   -6.0500   25.6630  -29.7440 O   0  0  0  0  0  0  0  0  0  0  0  0
   -3.9120   25.3220  -30.8530 O   0  0  0  0  0  0  0  0  0  0  0  0
   -4.2910   24.0530  -28.5750 N   0  0  0  0  0  0  0  0  0  0  0  0
   -3.2390   23.0810  -28.4550 C   0  0  0  0  0  0  0  0  0  0  0  0
   -3.4920   21.7020  -28.5790 C   0  0  0  0  0  0  0  0  0  0  0  0
   -2.4640   20.7750  -28.3950 C   0  0  0  0  0  0  0  0  0  0  0  0
   -1.1740   21.2090  -28.0810 C   0  0  0  0  0  0  0  0  0  0  0  0
    0.1090   20.0390  -27.8400 Cl  0  0  0  0  0  0  0  0  0  0  0  0
   -0.9080   22.5740  -27.9650 C   0  0  0  0  0  0  0  0  0  0  0  0
   -1.9260   23.5180  -28.1720 C   0  0  0  0  0  0  0  0  0  0  0  0
   -1.5980   24.9590  -28.0920 C   0  0  0  0  0  0  0  0  0  0  0  0
   -1.5990   25.6450  -29.1500 O   0  0  0  0  0  0  0  0  0  0  0  0
   -1.2970   25.6140  -26.7960 C   0  0  0  0  0  0  0  0  0  0  0  0
   -1.2310   24.8560  -25.6160 C   0  0  0  0  0  0  0  0  0  0  0  0
   -0.9410   25.4890  -24.4040 C   0  0  0  0  0  0  0  0  0  0  0  0
   -0.7110   26.8280  -24.3720 N   0  0  0  0  0  0  0  0  0  0  0  0
   -0.7600   27.5900  -25.4970 C   0  0  0  0  0  0  0  0  0  0  0  0
   -0.4050   29.3060  -25.4030 S   0  0  0  0  0  0  0  0  0  0  0  0
    0.9760   29.5660  -24.3130 C   0  0  0  0  0  0  0  0  0  0  0  0
   -0.0730   29.8320  -26.7710 O   0  0  0  0  0  0  0  0  0  0  0  0
   -1.6060   30.0380  -24.8740 O   0  0  0  0  0  0  0  0  0  0  0  0
   -1.0500   26.9960  -26.7300 C   0  0  0  0  0  0  0  0  0  0  0  0
   -4.7980   22.4890  -31.7510 C   0  0  0  0  0  0  0  0  0  0  0  0
   -5.3260   21.4250  -32.4830 C   0  0  0  0  0  0  0  0  0  0  0  0
   -6.6980   21.1540  -32.4550 C   0  0  0  0  0  0  0  0  0  0  0  0
   -7.1760   20.0740  -33.2000 O   0  0  0  0  0  0  0  0  0  0  0  0
   -9.3406   21.6318  -30.5495 H   0  0  0  0  0  0  0  0  0  0  0  0
   -9.5857   22.4996  -32.1031 H   0  0  0  0  0  0  0  0  0  0  0  0
   -9.2521   20.7345  -32.1031 H   0  0  0  0  0  0  0  0  0  0  0  0
   -7.6805   23.6986  -30.3743 H   0  0  0  0  0  0  0  0  0  0  0  0
   -4.5061   21.3522  -28.8224 H   0  0  0  0  0  0  0  0  0  0  0  0
   -2.6708   19.6995  -28.4977 H   0  0  0  0  0  0  0  0  0  0  0  0
    0.1069   22.9127  -27.7095 H   0  0  0  0  0  0  0  0  0  0  0  0
   -1.4065   23.7705  -25.6452 H   0  0  0  0  0  0  0  0  0  0  0  0
   -0.8989   24.9023  -23.4745 H   0  0  0  0  0  0  0  0  0  0  0  0
    0.6361   29.5020  -23.2688 H   0  0  0  0  0  0  0  0  0  0  0  0
    1.7392   28.7958  -24.4980 H   0  0  0  0  0  0  0  0  0  0  0  0
    1.4069   30.5610  -24.4980 H   0  0  0  0  0  0  0  0  0  0  0  0
   -1.0845   27.6077  -27.6436 H   0  0  0  0  0  0  0  0  0  0  0  0
   -3.7159   22.6857  -31.7729 H   0  0  0  0  0  0  0  0  0  0  0  0
   -4.6577   20.7939  -33.0872 H   0  0  0  0  0  0  0  0  0  0  0  0
   -7.6250   20.1810  -34.1000 H   0  0  0  0  0  0  0  0  0  0  0  0
  1  2  1  0
  2  3  2  0
  3  4  1  0
  4  5  1  0
  5  6  2  0
  5  7  2  0
  5  8  1  0
  8  9  1  0
  9 10  2  0
 10 11  1  0
 11 12  2  0
 12 13  1  0
 12 14  1  0
 14 15  2  0
 15 16  1  0
 16 17  2  0
 16 18  1  0
 18 19  2  0
 19 20  1  0
 20 21  2  0
 21 22  1  0
 22 23  1  0
 23 24  1  0
 23 25  2  0
 23 26  2  0
 22 27  2  0
  4 28  2  0
 28 29  1  0
 29 30  2  0
 30 31  1  0
 30  2  1  0
 15  9  1  0
 27 18  1  0
  1 32  1  0
  1 33  1  0
  1 34  1  0
  3 35  1  0
 10 36  1  0
 11 37  1  0
 14 38  1  0
 19 39  1  0
 20 40  1  0
 24 41  1  0
 24 42  1  0
 24 43  1  0
 27 44  1  0
 28 45  1  0
 29 46  1  0
 31 47  1  0
M  CHG  1   8  -1
M  END
>  <UniqueID>  (36) 
36

>  <SMILES>  (36) 
Cc1cc(S(=O)(=O)[N-]c2ccc(Cl)cc2C(=O)c2ccnc(S(C)(=O)=O)c2)ccc1O

>  <Energy>  (36) 
56.05034007671289

>  <Genealogy>  (36) 
Cc1cc(S(=O)(=O)[N-]c2ccc(Cl)cc2C(=O)c2ccnc(S(C)(=O)=O)c2)ccc1O (protonated)
Cc1cc(S(=O)(=O)[N-]c2ccc(Cl)cc2C(=O)c2ccnc(S(C)(=O)=O)c2)ccc1O (3D coordinates assigned)
Cc1cc(S(=O)(=O)[N-]c2ccc(Cl)cc2C(=O)c2ccnc(S(C)(=O)=O)c2)ccc1O (optimized conformer: 56.05034007671289 kcal/mol)

>  <smiles>  (36) 
Cc1cc(S(=O)(=O)Nc2ccc(Cl)cc2C(=O)c2ccnc(S(C)(=O)=O)c2)ccc1O

>  <score_type>  (36) 
oracle

>  <origin>  (36) 
adgpu

>  <m_score__min__energy>  (36) 
-11.289999999999999

>  <m_primary>  (36) 
energy

$$$$
36:0
     RDKit          3D

 56 59  0  0  0  0  0  0  0  0999 V2000
   -1.6450   21.2230  -33.0960 C   0  0  0  0  0  0  0  0  0  0  0  0
   -2.9560   21.7690  -33.1850 O   0  0  0  0  0  0  0  0  0  0  0  0
   -4.1390   21.0210  -33.0740 C   0  0  0  0  0  0  0  0  0  0  0  0
   -4.1410   19.6130  -33.2320 C   0  0  0  0  0  0  0  0  0  0  0  0
   -5.3480   18.9350  -33.0780 C   0  0  0  0  0  0  0  0  0  0  0  0
   -6.5140   19.5930  -32.8030 C   0  0  0  0  0  0  0  0  0  0  0  0
   -6.5620   20.9780  -32.6670 C   0  0  0  0  0  0  0  0  0  0  0  0
   -5.3540   21.7050  -32.7840 C   0  0  0  0  0  0  0  0  0  0  0  0
   -5.3460   23.1340  -32.6100 N   0  0  0  0  0  0  0  0  0  0  0  0
   -5.3070   23.8830  -31.0460 S   0  0  0  0  0  0  0  0  0  0  0  0
   -5.1220   25.3660  -31.2060 O   0  0  0  0  0  0  0  0  0  0  0  0
   -6.6100   23.6300  -30.3400 O   0  0  0  0  0  0  0  0  0  0  0  0
   -3.9530   23.2390  -30.1220 C   0  0  0  0  0  0  0  0  0  0  0  0
   -3.8710   21.8600  -29.8920 C   0  0  0  0  0  0  0  0  0  0  0  0
   -2.8330   21.3390  -29.1160 C   0  0  0  0  0  0  0  0  0  0  0  0
   -1.8750   22.1920  -28.5630 C   0  0  0  0  0  0  0  0  0  0  0  0
   -1.9480   23.5740  -28.7890 C   0  0  0  0  0  0  0  0  0  0  0  0
   -0.7340   24.6510  -28.0980 S   0  0  0  0  0  0  0  0  0  0  0  0
    0.6290   24.2230  -28.5640 O   0  0  0  0  0  0  0  0  0  0  0  0
   -0.9730   26.0490  -28.5940 O   0  0  0  0  0  0  0  0  0  0  0  0
   -0.7760   24.6510  -26.3480 N   0  0  0  0  0  0  0  0  0  0  0  0
   -1.9750   25.3300  -25.8460 C   0  0  0  0  0  0  0  0  0  0  0  0
   -1.5950   26.7490  -25.4450 C   0  0  0  0  0  0  0  0  0  0  0  0
   -0.0800   26.7920  -25.4550 C   0  0  0  0  0  0  0  0  0  0  0  0
    0.3700   25.3780  -25.7930 C   0  0  0  0  0  0  0  0  0  0  0  0
   -2.9920   24.0950  -29.5670 C   0  0  0  0  0  0  0  0  0  0  0  0
   -7.5250   18.7040  -32.7360 N   0  0  0  0  0  0  0  0  0  0  0  0
   -8.9480   18.9740  -32.5470 C   0  0  0  0  0  0  0  0  0  0  0  0
   -6.9360   17.5130  -33.0070 C   0  0  0  0  0  0  0  0  0  0  0  0
   -7.5700   16.4260  -33.0890 O   0  0  0  0  0  0  0  0  0  0  0  0
   -5.5980   17.6150  -33.1980 N   0  0  0  0  0  0  0  0  0  0  0  0
   -4.6650   16.5600  -33.5850 C   0  0  0  0  0  0  0  0  0  0  0  0
   -1.3671   21.1072  -32.0380 H   0  0  0  0  0  0  0  0  0  0  0  0
   -1.6225   20.2407  -33.5906 H   0  0  0  0  0  0  0  0  0  0  0  0
   -0.9319   21.8989  -33.5906 H   0  0  0  0  0  0  0  0  0  0  0  0
   -3.2144   19.0700  -33.4698 H   0  0  0  0  0  0  0  0  0  0  0  0
   -7.5144   21.4934  -32.4736 H   0  0  0  0  0  0  0  0  0  0  0  0
   -5.1940   23.7540  -33.4360 H   0  0  0  0  0  0  0  0  0  0  0  0
   -4.6256   21.1858  -30.3233 H   0  0  0  0  0  0  0  0  0  0  0  0
   -2.7699   20.2550  -28.9400 H   0  0  0  0  0  0  0  0  0  0  0  0
   -1.0614   21.7787  -27.9488 H   0  0  0  0  0  0  0  0  0  0  0  0
   -2.7418   25.3600  -26.6342 H   0  0  0  0  0  0  0  0  0  0  0  0
   -2.3789   24.7886  -24.9778 H   0  0  0  0  0  0  0  0  0  0  0  0
   -2.0031   27.4726  -26.1660 H   0  0  0  0  0  0  0  0  0  0  0  0
   -1.9999   27.0114  -24.4565 H   0  0  0  0  0  0  0  0  0  0  0  0
    0.2785   27.5008  -26.2160 H   0  0  0  0  0  0  0  0  0  0  0  0
    0.3230   27.1259  -24.4875 H   0  0  0  0  0  0  0  0  0  0  0  0
    1.1824   25.4132  -26.5338 H   0  0  0  0  0  0  0  0  0  0  0  0
    0.7389   24.8712  -24.8891 H   0  0  0  0  0  0  0  0  0  0  0  0
   -3.0569   25.1790  -29.7422 H   0  0  0  0  0  0  0  0  0  0  0  0
   -9.1734   19.0168  -31.4712 H   0  0  0  0  0  0  0  0  0  0  0  0
   -9.2037   19.9367  -33.0137 H   0  0  0  0  0  0  0  0  0  0  0  0
   -9.5386   18.1719  -33.0137 H   0  0  0  0  0  0  0  0  0  0  0  0
   -4.2487   16.0893  -32.6821 H   0  0  0  0  0  0  0  0  0  0  0  0
   -5.1946   15.8031  -34.1822 H   0  0  0  0  0  0  0  0  0  0  0  0
   -3.8490   16.9931  -34.1822 H   0  0  0  0  0  0  0  0  0  0  0  0
  1  2  1  0
  2  3  1  0
  3  4  2  0
  4  5  1  0
  5  6  2  0
  6  7  1  0
  7  8  2  0
  8  9  1  0
  9 10  1  0
 10 11  2  0
 10 12  2  0
 10 13  1  0
 13 14  2  0
 14 15  1  0
 15 16  2  0
 16 17  1  0
 17 18  1  0
 18 19  2  0
 18 20  2  0
 18 21  1  0
 21 22  1  0
 22 23  1  0
 23 24  1  0
 24 25  1  0
 17 26  2  0
  6 27  1  0
 27 28  1  0
 27 29  1  0
 29 30  2  0
 29 31  1  0
 31 32  1  0
  8  3  1  0
 26 13  1  0
 31  5  1  0
 25 21  1  0
  1 33  1  0
  1 34  1  0
  1 35  1  0
  4 36  1  0
  7 37  1  0
  9 38  1  0
 14 39  1  0
 15 40  1  0
 16 41  1  0
 22 42  1  0
 22 43  1  0
 23 44  1  0
 23 45  1  0
 24 46  1  0
 24 47  1  0
 25 48  1  0
 25 49  1  0
 26 50  1  0
 28 51  1  0
 28 52  1  0
 28 53  1  0
 32 54  1  0
 32 55  1  0
 32 56  1  0
M  END
>  <UniqueID>  (37) 
37

>  <SMILES>  (37) 
COc1cc2c(cc1NS(=O)(=O)c1cccc(S(=O)(=O)N3CCCC3)c1)n(C)c(=O)n2C

>  <Energy>  (37) 
100.269996230085

>  <Genealogy>  (37) 
COc1cc2c(cc1NS(=O)(=O)c1cccc(S(=O)(=O)N3CCCC3)c1)n(C)c(=O)n2C (3D coordinates assigned)
COc1cc2c(cc1NS(=O)(=O)c1cccc(S(=O)(=O)N3CCCC3)c1)n(C)c(=O)n2C (nonaromatic ring conformer: 100.269996230085 kcal/mol)

>  <smiles>  (37) 
COc1cc2c(cc1NS(=O)(=O)c1cccc(S(=O)(=O)N3CCCC3)c1)n(C)c(=O)n2C

>  <score_type>  (37) 
oracle

>  <origin>  (37) 
adgpu

>  <m_score__min__energy>  (37) 
-11.48

>  <m_primary>  (37) 
energy

$$$$
37:0
     RDKit          3D

 46 49  0  0  0  0  0  0  0  0999 V2000
   -8.3400   20.4360  -32.7340 C   0  0  0  0  0  0  0  0  0  0  0  0
   -7.5640   21.5420  -32.0720 C   0  0  0  0  0  0  0  0  0  0  0  0
   -8.2000   22.7700  -31.8310 C   0  0  0  0  0  0  0  0  0  0  0  0
   -7.5070   23.8230  -31.2280 C   0  0  0  0  0  0  0  0  0  0  0  0
   -6.1730   23.6590  -30.8450 C   0  0  0  0  0  0  0  0  0  0  0  0
   -5.2870   25.0040  -30.1320 S   0  0  0  0  0  0  0  0  0  0  0  0
   -5.8260   26.2900  -30.6900 O   0  0  0  0  0  0  0  0  0  0  0  0
   -5.4840   25.0220  -28.6410 O   0  0  0  0  0  0  0  0  0  0  0  0
   -3.5910   24.9090  -30.4810 N   0  0  0  0  0  0  0  0  0  0  0  0
   -2.6830   24.0770  -29.7500 C   0  0  0  0  0  0  0  0  0  0  0  0
   -2.9190   22.6960  -29.6270 C   0  0  0  0  0  0  0  0  0  0  0  0
   -2.0370   21.9040  -28.8880 C   0  0  0  0  0  0  0  0  0  0  0  0
   -0.9080   22.4680  -28.2950 C   0  0  0  0  0  0  0  0  0  0  0  0
   -0.6400   23.8320  -28.4430 C   0  0  0  0  0  0  0  0  0  0  0  0
   -1.5200   24.6400  -29.1760 C   0  0  0  0  0  0  0  0  0  0  0  0
   -1.2280   26.0010  -29.3110 O   0  0  0  0  0  0  0  0  0  0  0  0
   -0.0310   21.5360  -27.5260 C   0  0  0  0  0  0  0  0  0  0  0  0
   -0.8420   19.9660  -27.6850 S   0  0  0  0  0  0  0  0  0  0  0  0
   -1.2860   19.4360  -26.3480 O   0  0  0  0  0  0  0  0  0  0  0  0
    0.0300   18.9670  -28.3910 O   0  0  0  0  0  0  0  0  0  0  0  0
   -2.2280   20.4400  -28.6890 C   0  0  0  0  0  0  0  0  0  0  0  0
   -5.5330   22.4360  -31.0780 C   0  0  0  0  0  0  0  0  0  0  0  0
   -6.2040   21.3830  -31.7210 C   0  0  0  0  0  0  0  0  0  0  0  0
   -5.4760   20.1960  -32.0780 N   0  0  0  0  0  0  0  0  0  0  0  0
   -5.9780   18.8460  -31.8400 C   0  0  0  0  0  0  0  0  0  0  0  0
   -5.2480   17.9360  -32.8560 C   0  0  0  0  0  0  0  0  0  0  0  0
   -4.3640   18.7990  -33.6280 N   0  0  0  0  0  0  0  0  0  0  0  0
   -4.5460   20.1100  -33.1420 C   0  0  0  0  0  0  0  0  0  0  0  0
   -3.9150   21.1000  -33.5960 O   0  0  0  0  0  0  0  0  0  0  0  0
   -8.7912   19.7929  -31.9640 H   0  0  0  0  0  0  0  0  0  0  0  0
   -9.1333   20.8691  -33.3610 H   0  0  0  0  0  0  0  0  0  0  0  0
   -7.6628   19.8374  -33.3610 H   0  0  0  0  0  0  0  0  0  0  0  0
   -9.2530   22.9045  -32.1193 H   0  0  0  0  0  0  0  0  0  0  0  0
   -8.0131   24.7841  -31.0542 H   0  0  0  0  0  0  0  0  0  0  0  0
   -3.7955   22.2409  -30.1113 H   0  0  0  0  0  0  0  0  0  0  0  0
    0.2592   24.2701  -27.9853 H   0  0  0  0  0  0  0  0  0  0  0  0
   -1.2390   26.4710  -30.2050 H   0  0  0  0  0  0  0  0  0  0  0  0
    0.9794   21.5010  -27.9594 H   0  0  0  0  0  0  0  0  0  0  0  0
    0.1012   21.8429  -26.4780 H   0  0  0  0  0  0  0  0  0  0  0  0
   -2.2146   19.9084  -29.6519 H   0  0  0  0  0  0  0  0  0  0  0  0
   -3.1943   20.1960  -28.2235 H   0  0  0  0  0  0  0  0  0  0  0  0
   -4.4911   22.2979  -30.7533 H   0  0  0  0  0  0  0  0  0  0  0  0
   -5.7513   18.5295  -30.8112 H   0  0  0  0  0  0  0  0  0  0  0  0
   -7.0698   18.7939  -31.9634 H   0  0  0  0  0  0  0  0  0  0  0  0
   -4.6629   17.1694  -32.3268 H   0  0  0  0  0  0  0  0  0  0  0  0
   -5.9645   17.4163  -33.5091 H   0  0  0  0  0  0  0  0  0  0  0  0
  1  2  1  0
  2  3  2  0
  3  4  1  0
  4  5  2  0
  5  6  1  0
  6  7  2  0
  6  8  2  0
  6  9  1  0
  9 10  1  0
 10 11  2  0
 11 12  1  0
 12 13  2  0
 13 14  1  0
 14 15  2  0
 15 16  1  0
 13 17  1  0
 17 18  1  0
 18 19  2  0
 18 20  2  0
 18 21  1  0
  5 22  1  0
 22 23  2  0
 23 24  1  0
 24 25  1  0
 25 26  1  0
 26 27  1  0
 27 28  1  0
 28 29  2  0
 23  2  1  0
 28 24  1  0
 15 10  1  0
 21 12  1  0
  1 30  1  0
  1 31  1  0
  1 32  1  0
  3 33  1  0
  4 34  1  0
 11 35  1  0
 14 36  1  0
 16 37  1  0
 17 38  1  0
 17 39  1  0
 21 40  1  0
 21 41  1  0
 22 42  1  0
 25 43  1  0
 25 44  1  0
 26 45  1  0
 26 46  1  0
M  CHG  2   9  -1  27  -1
M  END
>  <UniqueID>  (38) 
38

>  <SMILES>  (38) 
Cc1ccc(S(=O)(=O)[N-]c2cc3c(cc2O)CS(=O)(=O)C3)cc1N1CC[N-]C1=O

>  <Energy>  (38) 
75.62220163629539

>  <Genealogy>  (38) 
Cc1ccc(S(=O)(=O)[N-]c2cc3c(cc2O)CS(=O)(=O)C3)cc1N1CC[N-]C1=O (protonated)
Cc1ccc(S(=O)(=O)[N-]c2cc3c(cc2O)CS(=O)(=O)C3)cc1N1CC[N-]C1=O (3D coordinates assigned)
Cc1ccc(S(=O)(=O)[N-]c2cc3c(cc2O)CS(=O)(=O)C3)cc1N1CC[N-]C1=O (nonaromatic ring conformer: 75.62220163629539 kcal/mol)

>  <smiles>  (38) 
Cc1ccc(S(=O)(=O)Nc2cc3c(cc2O)CS(=O)(=O)C3)cc1N1CCNC1=O

>  <score_type>  (38) 
oracle

>  <origin>  (38) 
adgpu

>  <m_score__min__energy>  (38) 
-12.640000000000001

>  <m_primary>  (38) 
energy

$$$$
38:0
     RDKit          3D

 69 73  0  0  0  0  0  0  0  0999 V2000
   -3.8020   21.0130  -33.0370 O   0  0  0  0  0  0  0  0  0  0  0  0
   -4.2650   20.1350  -32.2590 C   0  0  0  0  0  0  0  0  0  0  0  0
   -4.2140   20.3350  -30.8360 N   0  0  0  0  0  0  0  0  0  0  0  0
   -3.4500   21.3750  -30.2020 C   0  0  0  0  0  0  0  0  0  0  0  0
   -2.2410   21.0980  -29.5410 C   0  0  0  0  0  0  0  0  0  0  0  0
   -1.5360   22.1210  -28.8980 C   0  0  0  0  0  0  0  0  0  0  0  0
   -2.0350   23.4310  -28.8990 C   0  0  0  0  0  0  0  0  0  0  0  0
   -1.1520   24.7270  -28.0970 S   0  0  0  0  0  0  0  0  0  0  0  0
   -1.5830   26.0600  -28.6490 O   0  0  0  0  0  0  0  0  0  0  0  0
    0.3170   24.5510  -28.3680 O   0  0  0  0  0  0  0  0  0  0  0  0
   -1.4470   24.6660  -26.3750 N   0  0  0  0  0  0  0  0  0  0  0  0
   -2.3590   25.7510  -25.9470 C   0  0  0  0  0  0  0  0  0  0  0  0
   -1.6120   26.8920  -25.2330 C   0  0  0  0  0  0  0  0  0  0  0  0
   -0.9020   26.4600  -24.0810 O   0  0  0  0  0  0  0  0  0  0  0  0
   -0.3620   25.1480  -24.1980 C   0  0  0  0  0  0  0  0  0  0  0  0
   -0.1630   24.6760  -25.6480 C   0  0  0  0  0  0  0  0  0  0  0  0
   -3.2450   23.7080  -29.5480 C   0  0  0  0  0  0  0  0  0  0  0  0
   -3.9540   22.6840  -30.1840 C   0  0  0  0  0  0  0  0  0  0  0  0
   -4.8810   18.9150  -32.8290 C   0  0  0  0  0  0  0  0  0  0  0  0
   -4.0600   17.8710  -33.2930 C   0  0  0  0  0  0  0  0  0  0  0  0
   -4.6180   16.6910  -33.7990 C   0  0  0  0  0  0  0  0  0  0  0  0
   -3.5710   15.3830  -34.3650 S   0  0  0  0  0  0  0  0  0  0  0  0
   -3.8720   15.1070  -35.8120 O   0  0  0  0  0  0  0  0  0  0  0  0
   -2.1370   15.8260  -34.2650 O   0  0  0  0  0  0  0  0  0  0  0  0
   -3.7740   13.9070  -33.4520 N   0  0  0  0  0  0  0  0  0  0  0  0
   -3.8160   14.1520  -32.0110 C   0  0  0  0  0  0  0  0  0  0  0  0
   -4.5980   12.9980  -31.4010 C   0  0  0  0  0  0  0  0  0  0  0  0
   -5.3670   12.3740  -32.5590 C   0  0  0  0  0  0  0  0  0  0  0  0
   -5.0320   13.2330  -33.7670 C   0  0  0  0  0  0  0  0  0  0  0  0
   -6.0090   16.5380  -33.8200 C   0  0  0  0  0  0  0  0  0  0  0  0
   -6.8350   17.5620  -33.3560 C   0  0  0  0  0  0  0  0  0  0  0  0
   -6.2860   18.7540  -32.8680 C   0  0  0  0  0  0  0  0  0  0  0  0
   -7.1660   19.8050  -32.4460 N   0  0  0  0  0  0  0  0  0  0  0  0
   -8.3140   19.5870  -31.5850 C   0  0  0  0  0  0  0  0  0  0  0  0
   -8.9980   20.9430  -31.4790 C   0  0  0  0  0  0  0  0  0  0  0  0
   -7.9590   21.9730  -31.9270 C   0  0  0  0  0  0  0  0  0  0  0  0
   -6.9300   21.2050  -32.7460 C   0  0  0  0  0  0  0  0  0  0  0  0
   -4.7740   19.7070  -30.2160 H   0  0  0  0  0  0  0  0  0  0  0  0
   -1.8469   20.0711  -29.5292 H   0  0  0  0  0  0  0  0  0  0  0  0
   -0.5866   21.8966  -28.3898 H   0  0  0  0  0  0  0  0  0  0  0  0
   -2.8643   26.1595  -26.8346 H   0  0  0  0  0  0  0  0  0  0  0  0
   -3.0812   25.3237  -25.2358 H   0  0  0  0  0  0  0  0  0  0  0  0
   -0.8954   27.3367  -25.9392 H   0  0  0  0  0  0  0  0  0  0  0  0
   -2.3670   27.6188  -24.8987 H   0  0  0  0  0  0  0  0  0  0  0  0
    0.6147   25.1304  -23.6922 H   0  0  0  0  0  0  0  0  0  0  0  0
   -1.0912   24.4637  -23.7397 H   0  0  0  0  0  0  0  0  0  0  0  0
    0.5346   25.3575  -26.1569 H   0  0  0  0  0  0  0  0  0  0  0  0
    0.2431   23.6538  -25.6342 H   0  0  0  0  0  0  0  0  0  0  0  0
   -3.6391   24.7349  -29.5574 H   0  0  0  0  0  0  0  0  0  0  0  0
   -4.9136   22.9066  -30.6736 H   0  0  0  0  0  0  0  0  0  0  0  0
   -2.9663   17.9833  -33.2578 H   0  0  0  0  0  0  0  0  0  0  0  0
   -2.7960   14.1796  -31.6000 H   0  0  0  0  0  0  0  0  0  0  0  0
   -4.2902   15.1184  -31.7847 H   0  0  0  0  0  0  0  0  0  0  0  0
   -3.9130   12.2629  -30.9533 H   0  0  0  0  0  0  0  0  0  0  0  0
   -5.2701   13.3377  -30.5992 H   0  0  0  0  0  0  0  0  0  0  0  0
   -5.0433   11.3355  -32.7222 H   0  0  0  0  0  0  0  0  0  0  0  0
   -6.4492   12.3415  -32.3644 H   0  0  0  0  0  0  0  0  0  0  0  0
   -4.9138   12.6037  -34.6614 H   0  0  0  0  0  0  0  0  0  0  0  0
   -5.8326   13.9571  -33.9783 H   0  0  0  0  0  0  0  0  0  0  0  0
   -6.4524   15.6073  -34.2036 H   0  0  0  0  0  0  0  0  0  0  0  0
   -7.9271   17.4318  -33.3737 H   0  0  0  0  0  0  0  0  0  0  0  0
   -8.9943   18.8457  -32.0297 H   0  0  0  0  0  0  0  0  0  0  0  0
   -8.0200   19.1971  -30.5993 H   0  0  0  0  0  0  0  0  0  0  0  0
   -9.8801   20.9789  -32.1353 H   0  0  0  0  0  0  0  0  0  0  0  0
   -9.3467   21.1404  -30.4546 H   0  0  0  0  0  0  0  0  0  0  0  0
   -8.4336   22.7512  -32.5428 H   0  0  0  0  0  0  0  0  0  0  0  0
   -7.4939   22.4757  -31.0662 H   0  0  0  0  0  0  0  0  0  0  0  0
   -7.0712   21.3976  -33.8198 H   0  0  0  0  0  0  0  0  0  0  0  0
   -5.9018   21.5085  -32.4996 H   0  0  0  0  0  0  0  0  0  0  0  0
  1  2  2  0
  2  3  1  0
  3  4  1  0
  4  5  2  0
  5  6  1  0
  6  7  2  0
  7  8  1  0
  8  9  2  0
  8 10  2  0
  8 11  1  0
 11 12  1  0
 12 13  1  0
 13 14  1  0
 14 15  1  0
 15 16  1  0
  7 17  1  0
 17 18  2  0
  2 19  1  0
 19 20  2  0
 20 21  1  0
 21 22  1  0
 22 23  2  0
 22 24  2  0
 22 25  1  0
 25 26  1  0
 26 27  1  0
 27 28  1  0
 28 29  1  0
 21 30  2  0
 30 31  1  0
 31 32  2  0
 32 33  1  0
 33 34  1  0
 34 35  1  0
 35 36  1  0
 36 37  1  0
 18  4  1  0
 32 19  1  0
 37 33  1  0
 16 11  1  0
 29 25  1  0
  3 38  1  0
  5 39  1  0
  6 40  1  0
 12 41  1  0
 12 42  1  0
 13 43  1  0
 13 44  1  0
 15 45  1  0
 15 46  1  0
 16 47  1  0
 16 48  1  0
 17 49  1  0
 18 50  1  0
 20 51  1  0
 26 52  1  0
 26 53  1  0
 27 54  1  0
 27 55  1  0
 28 56  1  0
 28 57  1  0
 29 58  1  0
 29 59  1  0
 30 60  1  0
 31 61  1  0
 34 62  1  0
 34 63  1  0
 35 64  1  0
 35 65  1  0
 36 66  1  0
 36 67  1  0
 37 68  1  0
 37 69  1  0
M  END
>  <UniqueID>  (39) 
39

>  <SMILES>  (39) 
O=C(Nc1ccc(S(=O)(=O)N2CCOCC2)cc1)c1cc(S(=O)(=O)N2CCCC2)ccc1N1CCCC1

>  <Energy>  (39) 
97.63408307456099

>  <Genealogy>  (39) 
O=C(Nc1ccc(S(=O)(=O)N2CCOCC2)cc1)c1cc(S(=O)(=O)N2CCCC2)ccc1N1CCCC1 (3D coordinates assigned)
O=C(Nc1ccc(S(=O)(=O)N2CCOCC2)cc1)c1cc(S(=O)(=O)N2CCCC2)ccc1N1CCCC1 (nonaromatic ring conformer: 97.63408307456099 kcal/mol)

>  <smiles>  (39) 
O=C(Nc1ccc(S(=O)(=O)N2CCOCC2)cc1)c1cc(S(=O)(=O)N2CCCC2)ccc1N1CCCC1

>  <score_type>  (39) 
oracle

>  <origin>  (39) 
adgpu

>  <m_score__min__energy>  (39) 
-10.4

>  <m_primary>  (39) 
energy

$$$$
39:0
     RDKit          3D

 71 75  0  0  0  0  0  0  0  0999 V2000
    0.3600   19.2900  -34.0070 O   0  0  0  0  0  0  0  0  0  0  0  0
   -0.2370   20.2830  -34.5130 C   0  0  0  0  0  0  0  0  0  0  0  0
   -1.6760   20.3400  -34.5080 N   0  0  0  0  0  0  0  0  0  0  0  0
   -2.5240   19.2370  -34.1440 C   0  0  0  0  0  0  0  0  0  0  0  0
   -3.7090   19.4910  -33.4430 C   0  0  0  0  0  0  0  0  0  0  0  0
   -4.5630   18.4480  -33.0950 C   0  0  0  0  0  0  0  0  0  0  0  0
   -4.2590   17.1290  -33.4590 C   0  0  0  0  0  0  0  0  0  0  0  0
   -5.1590   16.0740  -33.0820 N   0  0  0  0  0  0  0  0  0  0  0  0
   -4.7240   15.0230  -32.1640 C   0  0  0  0  0  0  0  0  0  0  0  0
   -4.8060   13.6720  -32.8840 C   0  0  0  0  0  0  0  0  0  0  0  0
   -6.0990   13.4700  -33.4240 O   0  0  0  0  0  0  0  0  0  0  0  0
   -6.3690   14.4380  -34.4230 C   0  0  0  0  0  0  0  0  0  0  0  0
   -6.3950   15.8500  -33.8280 C   0  0  0  0  0  0  0  0  0  0  0  0
   -3.0850   16.8620  -34.1960 C   0  0  0  0  0  0  0  0  0  0  0  0
   -2.6730   15.2130  -34.6940 S   0  0  0  0  0  0  0  0  0  0  0  0
   -3.8870   14.5680  -35.3040 O   0  0  0  0  0  0  0  0  0  0  0  0
   -1.5820   15.2420  -35.7290 O   0  0  0  0  0  0  0  0  0  0  0  0
   -2.1540   14.2990  -33.3010 N   0  0  0  0  0  0  0  0  0  0  0  0
   -1.6910   12.9670  -33.7130 C   0  0  0  0  0  0  0  0  0  0  0  0
   -1.1990   12.1730  -32.4810 C   0  0  0  0  0  0  0  0  0  0  0  0
   -1.2150   12.9560  -31.3010 O   0  0  0  0  0  0  0  0  0  0  0  0
   -0.4570   14.1330  -31.5020 C   0  0  0  0  0  0  0  0  0  0  0  0
   -1.0810   15.0220  -32.5970 C   0  0  0  0  0  0  0  0  0  0  0  0
   -2.2240   17.9200  -34.5320 C   0  0  0  0  0  0  0  0  0  0  0  0
    0.5550   21.4230  -35.0350 C   0  0  0  0  0  0  0  0  0  0  0  0
   -0.0800   22.5210  -35.6440 C   0  0  0  0  0  0  0  0  0  0  0  0
    0.6660   23.6190  -36.0780 C   0  0  0  0  0  0  0  0  0  0  0  0
    2.0550   23.6420  -35.9080 C   0  0  0  0  0  0  0  0  0  0  0  0
    2.9800   25.0500  -36.4250 S   0  0  0  0  0  0  0  0  0  0  0  0
    4.4120   24.8680  -36.0040 O   0  0  0  0  0  0  0  0  0  0  0  0
    2.9370   25.1670  -37.9240 O   0  0  0  0  0  0  0  0  0  0  0  0
    2.3270   26.4870  -35.6830 N   0  0  0  0  0  0  0  0  0  0  0  0
    1.6160   27.2940  -36.6860 C   0  0  0  0  0  0  0  0  0  0  0  0
    1.0700   28.5880  -36.0430 C   0  0  0  0  0  0  0  0  0  0  0  0
    1.4970   28.7380  -34.7000 O   0  0  0  0  0  0  0  0  0  0  0  0
    2.9070   28.6670  -34.6390 C   0  0  0  0  0  0  0  0  0  0  0  0
    3.4120   27.2740  -35.0720 C   0  0  0  0  0  0  0  0  0  0  0  0
    2.6980   22.5390  -35.3330 C   0  0  0  0  0  0  0  0  0  0  0  0
    1.9540   21.4350  -34.9050 C   0  0  0  0  0  0  0  0  0  0  0  0
   -2.1220   21.2820  -34.5840 H   0  0  0  0  0  0  0  0  0  0  0  0
   -3.9675   20.5234  -33.1648 H   0  0  0  0  0  0  0  0  0  0  0  0
   -5.4828   18.6605  -32.5304 H   0  0  0  0  0  0  0  0  0  0  0  0
   -3.6868   15.2123  -31.8504 H   0  0  0  0  0  0  0  0  0  0  0  0
   -5.3716   15.0122  -31.2749 H   0  0  0  0  0  0  0  0  0  0  0  0
   -4.0673   13.6517  -33.6988 H   0  0  0  0  0  0  0  0  0  0  0  0
   -4.5968   12.8717  -32.1589 H   0  0  0  0  0  0  0  0  0  0  0  0
   -5.5861   14.3871  -35.1940 H   0  0  0  0  0  0  0  0  0  0  0  0
   -7.3555   14.2241  -34.8602 H   0  0  0  0  0  0  0  0  0  0  0  0
   -6.4765   16.5901  -34.6377 H   0  0  0  0  0  0  0  0  0  0  0  0
   -7.2593   15.9544  -33.1556 H   0  0  0  0  0  0  0  0  0  0  0  0
   -2.5210   12.4239  -34.1885 H   0  0  0  0  0  0  0  0  0  0  0  0
   -0.8606   13.0782  -34.4258 H   0  0  0  0  0  0  0  0  0  0  0  0
   -1.8535   11.3008  -32.3367 H   0  0  0  0  0  0  0  0  0  0  0  0
   -0.1597   11.8656  -32.6693 H   0  0  0  0  0  0  0  0  0  0  0  0
   -0.4182   14.6993  -30.5598 H   0  0  0  0  0  0  0  0  0  0  0  0
    0.5541   13.8437  -31.8245 H   0  0  0  0  0  0  0  0  0  0  0  0
   -1.4990   15.9276  -32.1331 H   0  0  0  0  0  0  0  0  0  0  0  0
   -0.2998   15.2928  -33.3226 H   0  0  0  0  0  0  0  0  0  0  0  0
   -1.3068   17.7158  -35.1039 H   0  0  0  0  0  0  0  0  0  0  0  0
   -1.1716   22.5145  -35.7792 H   0  0  0  0  0  0  0  0  0  0  0  0
    0.1592   24.4703  -36.5560 H   0  0  0  0  0  0  0  0  0  0  0  0
    2.3096   27.5570  -37.4983 H   0  0  0  0  0  0  0  0  0  0  0  0
    0.7738   26.7092  -37.0845 H   0  0  0  0  0  0  0  0  0  0  0  0
    1.4245   29.4506  -36.6262 H   0  0  0  0  0  0  0  0  0  0  0  0
   -0.0284   28.5292  -36.0443 H   0  0  0  0  0  0  0  0  0  0  0  0
    3.3344   29.4282  -35.3082 H   0  0  0  0  0  0  0  0  0  0  0  0
    3.2214   28.8455  -33.6001 H   0  0  0  0  0  0  0  0  0  0  0  0
    4.2238   27.3969  -35.8041 H   0  0  0  0  0  0  0  0  0  0  0  0
    3.7747   26.7397  -34.1815 H   0  0  0  0  0  0  0  0  0  0  0  0
    3.7919   22.5409  -35.2176 H   0  0  0  0  0  0  0  0  0  0  0  0
    2.4682   20.5689  -34.4629 H   0  0  0  0  0  0  0  0  0  0  0  0
  1  2  2  0
  2  3  1  0
  3  4  1  0
  4  5  2  0
  5  6  1  0
  6  7  2  0
  7  8  1  0
  8  9  1  0
  9 10  1  0
 10 11  1  0
 11 12  1  0
 12 13  1  0
  7 14  1  0
 14 15  1  0
 15 16  2  0
 15 17  2  0
 15 18  1  0
 18 19  1  0
 19 20  1  0
 20 21  1  0
 21 22  1  0
 22 23  1  0
 14 24  2  0
  2 25  1  0
 25 26  2  0
 26 27  1  0
 27 28  2  0
 28 29  1  0
 29 30  2  0
 29 31  2  0
 29 32  1  0
 32 33  1  0
 33 34  1  0
 34 35  1  0
 35 36  1  0
 36 37  1  0
 28 38  1  0
 38 39  2  0
 24  4  1  0
 39 25  1  0
 13  8  1  0
 23 18  1  0
 37 32  1  0
  3 40  1  0
  5 41  1  0
  6 42  1  0
  9 43  1  0
  9 44  1  0
 10 45  1  0
 10 46  1  0
 12 47  1  0
 12 48  1  0
 13 49  1  0
 13 50  1  0
 19 51  1  0
 19 52  1  0
 20 53  1  0
 20 54  1  0
 22 55  1  0
 22 56  1  0
 23 57  1  0
 23 58  1  0
 24 59  1  0
 26 60  1  0
 27 61  1  0
 33 62  1  0
 33 63  1  0
 34 64  1  0
 34 65  1  0
 36 66  1  0
 36 67  1  0
 37 68  1  0
 37 69  1  0
 38 70  1  0
 39 71  1  0
M  END
>  <UniqueID>  (40) 
40

>  <SMILES>  (40) 
O=C(Nc1ccc(N2CCOCC2)c(S(=O)(=O)N2CCOCC2)c1)c1ccc(S(=O)(=O)N2CCOCC2)cc1

>  <Energy>  (40) 
100.92505467593132

>  <Genealogy>  (40) 
O=C(Nc1ccc(N2CCOCC2)c(S(=O)(=O)N2CCOCC2)c1)c1ccc(S(=O)(=O)N2CCOCC2)cc1 (3D coordinates assigned)
O=C(Nc1ccc(N2CCOCC2)c(S(=O)(=O)N2CCOCC2)c1)c1ccc(S(=O)(=O)N2CCOCC2)cc1 (nonaromatic ring conformer: 100.92505467593132 kcal/mol)

>  <smiles>  (40) 
O=C(Nc1ccc(N2CCOCC2)c(S(=O)(=O)N2CCOCC2)c1)c1ccc(S(=O)(=O)N2CCOCC2)cc1

>  <score_type>  (40) 
oracle

>  <origin>  (40) 
adgpu

>  <m_score__min__energy>  (40) 
-8.9399999999999995

>  <m_primary>  (40) 
energy

$$$$
40:0
     RDKit          3D

 71 75  0  0  1  0  0  0  0  0999 V2000
   -0.4870   22.7120  -23.8500 O   0  0  0  0  0  0  0  0  0  0  0  0
    0.0690   23.7030  -24.8500 S   0  0  0  0  0  0  0  0  0  0  0  0
    1.5790   23.5930  -24.7220 O   0  0  0  0  0  0  0  0  0  0  0  0
   -0.4570   23.3200  -26.4660 C   0  0  0  0  0  0  0  0  0  0  0  0
   -1.0230   22.0870  -26.7080 C   0  0  0  0  0  0  0  0  0  0  0  0
   -1.4620   21.7310  -27.9870 C   0  0  0  0  0  0  0  0  0  0  0  0
   -1.3520   22.5890  -29.0630 C   0  0  0  0  0  0  0  0  0  0  0  0
   -1.8080   22.2160  -30.3930 C   0  0  0  0  0  0  0  0  0  0  0  0
   -3.0910   22.3870  -30.7970 C   0  0  0  0  0  0  0  0  0  0  0  0
   -3.4950   22.0230  -32.0620 C   0  0  0  0  0  0  0  0  0  0  0  0
   -4.6970   22.1920  -32.4080 N   0  0  0  0  0  0  0  0  0  0  0  0
   -5.7490   22.6940  -31.7430 C   0  0  0  0  0  0  0  0  0  0  0  0
   -6.3540   22.6470  -30.4470 C   0  0  0  0  0  0  0  0  0  0  0  0
   -7.8750   22.8800  -30.6110 C   0  0  0  0  0  0  0  0  0  0  0  0
   -8.5660   21.5800  -30.4470 C   0  0  0  0  0  0  0  0  0  0  0  0
   -8.6640   20.8440  -31.7480 C   0  0  0  0  0  0  0  0  0  0  0  0
   -7.5100   21.1210  -32.6740 C   0  0  0  0  0  0  0  0  0  0  0  0
   -6.9640   22.4820  -32.6960 C   0  0  0  0  0  0  0  0  0  0  0  0
   -2.6420   21.4840  -32.9550 N   0  0  0  0  0  0  0  0  0  0  0  0
   -1.3710   21.3210  -32.5450 C   0  0  0  0  0  0  0  0  0  0  0  0
   -0.4620   20.7520  -33.4810 N   0  0  0  0  0  0  0  0  0  0  0  0
    0.7840   20.1210  -33.0950 C   0  0  0  0  0  0  0  0  0  0  0  0
    1.6860   20.3780  -34.2940 C   0  0  0  0  0  0  0  0  0  0  0  0
    0.8560   21.0520  -35.3460 C   0  0  1  0  0  0  0  0  0  0  0  0
    1.1020   20.5490  -36.6210 O   0  0  0  0  0  0  0  0  0  0  0  0
   -0.5640   20.6800  -34.9260 C   0  0  0  0  0  0  0  0  0  0  0  0
   -0.9540   21.6690  -31.3090 N   0  0  0  0  0  0  0  0  0  0  0  0
   -0.7840   23.8200  -28.8070 C   0  0  0  0  0  0  0  0  0  0  0  0
   -0.3420   24.1850  -27.5320 C   0  0  0  0  0  0  0  0  0  0  0  0
   -0.3920   25.2580  -24.3530 N   0  0  0  0  0  0  0  0  0  0  0  0
    0.6750   26.0880  -23.9190 C   0  0  0  0  0  0  0  0  0  0  0  0
    0.3490   27.4950  -23.6100 C   0  0  0  0  0  0  0  0  0  0  0  0
   -0.9250   27.9510  -24.1100 N   0  0  0  0  0  0  0  0  0  0  0  0
   -1.2540   27.2690  -25.3480 C   0  0  0  0  0  0  0  0  0  0  0  0
   -1.4950   25.8380  -25.0040 C   0  0  0  0  0  0  0  0  0  0  0  0
   -1.1313   21.3703  -25.8806 H   0  0  0  0  0  0  0  0  0  0  0  0
   -1.9084   20.7374  -28.1404 H   0  0  0  0  0  0  0  0  0  0  0  0
   -3.8224   22.8245  -30.1015 H   0  0  0  0  0  0  0  0  0  0  0  0
   -5.1048   23.5300  -31.4330 H   0  0  0  0  0  0  0  0  0  0  0  0
   -6.1759   21.6629  -29.9890 H   0  0  0  0  0  0  0  0  0  0  0  0
   -5.9200   23.4221  -29.7983 H   0  0  0  0  0  0  0  0  0  0  0  0
   -8.2274   23.5875  -29.8459 H   0  0  0  0  0  0  0  0  0  0  0  0
   -8.0887   23.2996  -31.6051 H   0  0  0  0  0  0  0  0  0  0  0  0
   -8.0042   20.9643  -29.7292 H   0  0  0  0  0  0  0  0  0  0  0  0
   -9.5853   21.7739  -30.0818 H   0  0  0  0  0  0  0  0  0  0  0  0
   -8.6924   19.7646  -31.5379 H   0  0  0  0  0  0  0  0  0  0  0  0
   -9.5782   21.1909  -32.2519 H   0  0  0  0  0  0  0  0  0  0  0  0
   -6.6913   20.4433  -32.3902 H   0  0  0  0  0  0  0  0  0  0  0  0
   -7.9214   20.9706  -33.6830 H   0  0  0  0  0  0  0  0  0  0  0  0
   -6.6416   22.7086  -33.7230 H   0  0  0  0  0  0  0  0  0  0  0  0
   -7.7636   23.1510  -32.3453 H   0  0  0  0  0  0  0  0  0  0  0  0
    1.1953   20.5825  -32.1851 H   0  0  0  0  0  0  0  0  0  0  0  0
    0.6728   19.0526  -32.8582 H   0  0  0  0  0  0  0  0  0  0  0  0
    2.5230   21.0291  -34.0016 H   0  0  0  0  0  0  0  0  0  0  0  0
    2.1026   19.4339  -34.6750 H   0  0  0  0  0  0  0  0  0  0  0  0
    1.0607   22.1310  -35.4083 H   0  0  0  0  0  0  0  0  0  0  0  0
    0.6340   19.6750  -36.6750 H   0  0  0  0  0  0  0  0  0  0  0  0
   -1.3000   21.3995  -35.3139 H   0  0  0  0  0  0  0  0  0  0  0  0
   -0.9048   19.7053  -35.3052 H   0  0  0  0  0  0  0  0  0  0  0  0
    0.0500   21.4950  -31.1050 H   0  0  0  0  0  0  0  0  0  0  0  0
   -0.6754   24.5379  -29.6334 H   0  0  0  0  0  0  0  0  0  0  0  0
    0.1046   25.1783  -27.3775 H   0  0  0  0  0  0  0  0  0  0  0  0
    1.0961   25.6375  -23.0081 H   0  0  0  0  0  0  0  0  0  0  0  0
    1.3645   26.1366  -24.7747 H   0  0  0  0  0  0  0  0  0  0  0  0
    0.3479   27.6125  -22.5163 H   0  0  0  0  0  0  0  0  0  0  0  0
    1.1127   28.1048  -24.1148 H   0  0  0  0  0  0  0  0  0  0  0  0
   -1.6850   27.7640  -23.3980 H   0  0  0  0  0  0  0  0  0  0  0  0
   -2.1589   27.7086  -25.7930 H   0  0  0  0  0  0  0  0  0  0  0  0
   -0.4382   27.3659  -26.0795 H   0  0  0  0  0  0  0  0  0  0  0  0
   -2.3712   25.7750  -24.3419 H   0  0  0  0  0  0  0  0  0  0  0  0
   -1.6631   25.2877  -25.9415 H   0  0  0  0  0  0  0  0  0  0  0  0
  1  2  2  0
  2  3  2  0
  2  4  1  0
  4  5  2  0
  5  6  1  0
  6  7  2  0
  7  8  1  0
  8  9  2  0
  9 10  1  0
 10 11  2  0
 11 12  1  0
 12 13  1  0
 13 14  1  0
 14 15  1  0
 15 16  1  0
 16 17  1  0
 17 18  1  0
 10 19  1  0
 19 20  2  0
 20 21  1  0
 21 22  1  0
 22 23  1  0
 23 24  1  0
 24 25  1  0
 24 26  1  0
 20 27  1  0
  7 28  1  0
 28 29  2  0
  2 30  1  0
 30 31  1  0
 31 32  1  0
 32 33  1  0
 33 34  1  0
 34 35  1  0
 29  4  1  0
 35 30  1  0
 27  8  1  0
 18 12  1  0
 26 21  1  0
  5 36  1  0
  6 37  1  0
  9 38  1  0
 12 39  1  0
 13 40  1  0
 13 41  1  0
 14 42  1  0
 14 43  1  0
 15 44  1  0
 15 45  1  0
 16 46  1  0
 16 47  1  0
 17 48  1  0
 17 49  1  0
 18 50  1  0
 18 51  1  0
 22 52  1  0
 22 53  1  0
 23 54  1  0
 23 55  1  0
 24 56  1  6
 25 57  1  0
 26 58  1  0
 26 59  1  0
 27 60  1  0
 28 61  1  0
 29 62  1  0
 31 63  1  0
 31 64  1  0
 32 65  1  0
 32 66  1  0
 33 67  1  0
 34 68  1  0
 34 69  1  0
 35 70  1  0
 35 71  1  0
M  END
>  <smiles>  (41) 
O=S(=O)(c1ccc(-c2cc(=NC3CCCCCC3)nc(N3CCC(O)C3)[nH]2)cc1)N1CCNCC1

>  <score_type>  (41) 
oracle

>  <origin>  (41) 
adgpu

>  <m_score__min__energy>  (41) 
-8.2300000000000004

>  <m_primary>  (41) 
energy

$$$$
41:0
     RDKit          3D

 65 68  0  0  0  0  0  0  0  0999 V2000
   -3.4910   16.3610  -35.5790 C   0  0  0  0  0  0  0  0  0  0  0  0
   -3.8250   17.6710  -35.1300 O   0  0  0  0  0  0  0  0  0  0  0  0
   -4.5130   17.9580  -33.9380 C   0  0  0  0  0  0  0  0  0  0  0  0
   -5.6310   17.2030  -33.5290 C   0  0  0  0  0  0  0  0  0  0  0  0
   -6.3060   17.5220  -32.3500 C   0  0  0  0  0  0  0  0  0  0  0  0
   -5.8800   18.5950  -31.5670 C   0  0  0  0  0  0  0  0  0  0  0  0
   -4.7730   19.3490  -31.9570 C   0  0  0  0  0  0  0  0  0  0  0  0
   -4.0730   19.0360  -33.1360 C   0  0  0  0  0  0  0  0  0  0  0  0
   -2.8660   19.8640  -33.5120 C   0  0  0  0  0  0  0  0  0  0  0  0
   -2.4680   20.8060  -32.3860 C   0  0  0  0  0  0  0  0  0  0  0  0
   -3.2320   21.9600  -32.2100 C   0  0  0  0  0  0  0  0  0  0  0  0
   -2.9380   22.8620  -31.2000 C   0  0  0  0  0  0  0  0  0  0  0  0
   -3.6690   24.0880  -31.0620 N   0  0  0  0  0  0  0  0  0  0  0  0
   -5.2580   24.2340  -30.3700 S   0  0  0  0  0  0  0  0  0  0  0  0
   -5.1640   24.0190  -28.8830 O   0  0  0  0  0  0  0  0  0  0  0  0
   -5.7700   25.6250  -30.6190 O   0  0  0  0  0  0  0  0  0  0  0  0
   -6.4080   23.0810  -31.0490 C   0  0  0  0  0  0  0  0  0  0  0  0
   -6.0990   22.3980  -32.2310 C   0  0  0  0  0  0  0  0  0  0  0  0
   -6.9790   21.4410  -32.7390 C   0  0  0  0  0  0  0  0  0  0  0  0
   -8.1780   21.1420  -32.0670 C   0  0  0  0  0  0  0  0  0  0  0  0
   -9.0970   20.0890  -32.6310 C   0  0  0  0  0  0  0  0  0  0  0  0
   -8.5050   21.8470  -30.8850 C   0  0  0  0  0  0  0  0  0  0  0  0
   -9.7640   21.5450  -30.1110 C   0  0  0  0  0  0  0  0  0  0  0  0
   -7.6070   22.8050  -30.3840 C   0  0  0  0  0  0  0  0  0  0  0  0
   -1.9780   22.5190  -30.2450 C   0  0  0  0  0  0  0  0  0  0  0  0
   -1.7930   23.3050  -29.2740 O   0  0  0  0  0  0  0  0  0  0  0  0
   -1.2480   21.3540  -30.3570 N   0  0  0  0  0  0  0  0  0  0  0  0
   -0.3790   20.9650  -29.2150 C   0  0  0  0  0  0  0  0  0  0  0  0
   -1.1470   20.1310  -28.2200 C   0  0  0  0  0  0  0  0  0  0  0  0
   -2.4540   20.4960  -27.8470 C   0  0  0  0  0  0  0  0  0  0  0  0
   -3.1710   19.7200  -26.9320 C   0  0  0  0  0  0  0  0  0  0  0  0
   -2.5950   18.5710  -26.3850 C   0  0  0  0  0  0  0  0  0  0  0  0
   -1.2940   18.2030  -26.7440 C   0  0  0  0  0  0  0  0  0  0  0  0
   -0.5710   18.9820  -27.6530 C   0  0  0  0  0  0  0  0  0  0  0  0
   -1.4130   20.5390  -31.4680 C   0  0  0  0  0  0  0  0  0  0  0  0
   -0.5290   19.3280  -31.7000 C   0  0  0  0  0  0  0  0  0  0  0  0
   -3.3243   15.7071  -34.7103 H   0  0  0  0  0  0  0  0  0  0  0  0
   -4.3157   15.9603  -36.1867 H   0  0  0  0  0  0  0  0  0  0  0  0
   -2.5751   16.4041  -36.1867 H   0  0  0  0  0  0  0  0  0  0  0  0
   -5.9735   16.3571  -34.1431 H   0  0  0  0  0  0  0  0  0  0  0  0
   -7.1760   16.9259  -32.0374 H   0  0  0  0  0  0  0  0  0  0  0  0
   -6.4176   18.8469  -30.6410 H   0  0  0  0  0  0  0  0  0  0  0  0
   -4.4446   20.1960  -31.3368 H   0  0  0  0  0  0  0  0  0  0  0  0
   -2.0238   19.1908  -33.7303 H   0  0  0  0  0  0  0  0  0  0  0  0
   -3.1213   20.4679  -34.3953 H   0  0  0  0  0  0  0  0  0  0  0  0
   -4.0799   22.1567  -32.8826 H   0  0  0  0  0  0  0  0  0  0  0  0
   -5.1601   22.6160  -32.7610 H   0  0  0  0  0  0  0  0  0  0  0  0
   -6.7326   20.9158  -33.6735 H   0  0  0  0  0  0  0  0  0  0  0  0
   -9.5758   19.5404  -31.8065 H   0  0  0  0  0  0  0  0  0  0  0  0
   -9.8697   20.5696  -33.2491 H   0  0  0  0  0  0  0  0  0  0  0  0
   -8.5163   19.3885  -33.2491 H   0  0  0  0  0  0  0  0  0  0  0  0
   -9.5526   21.5957  -29.0327 H   0  0  0  0  0  0  0  0  0  0  0  0
  -10.5383   22.2829  -30.3679 H   0  0  0  0  0  0  0  0  0  0  0  0
  -10.1193   20.5362  -30.3679 H   0  0  0  0  0  0  0  0  0  0  0  0
   -7.8503   23.3447  -29.4569 H   0  0  0  0  0  0  0  0  0  0  0  0
    0.4740   20.3820  -29.5926 H   0  0  0  0  0  0  0  0  0  0  0  0
   -0.0254   21.8777  -28.7130 H   0  0  0  0  0  0  0  0  0  0  0  0
   -2.9140   21.3974  -28.2781 H   0  0  0  0  0  0  0  0  0  0  0  0
   -4.1904   20.0145  -26.6422 H   0  0  0  0  0  0  0  0  0  0  0  0
   -3.1641   17.9559  -25.6724 H   0  0  0  0  0  0  0  0  0  0  0  0
   -0.8392   17.2999  -26.3109 H   0  0  0  0  0  0  0  0  0  0  0  0
    0.4548   18.6933  -27.9256 H   0  0  0  0  0  0  0  0  0  0  0  0
   -0.2219   18.9072  -30.7312 H   0  0  0  0  0  0  0  0  0  0  0  0
   -1.0875   18.5698  -32.2685 H   0  0  0  0  0  0  0  0  0  0  0  0
    0.3633   19.6289  -32.2685 H   0  0  0  0  0  0  0  0  0  0  0  0
  1  2  1  0
  2  3  1  0
  3  4  2  0
  4  5  1  0
  5  6  2  0
  6  7  1  0
  7  8  2  0
  8  9  1  0
  9 10  1  0
 10 11  1  0
 11 12  2  0
 12 13  1  0
 13 14  1  0
 14 15  2  0
 14 16  2  0
 14 17  1  0
 17 18  2  0
 18 19  1  0
 19 20  2  0
 20 21  1  0
 20 22  1  0
 22 23  1  0
 22 24  2  0
 12 25  1  0
 25 26  2  0
 25 27  1  0
 27 28  1  0
 28 29  1  0
 29 30  2  0
 30 31  1  0
 31 32  2  0
 32 33  1  0
 33 34  2  0
 27 35  1  0
 35 36  1  0
  8  3  1  0
 35 10  2  0
 24 17  1  0
 34 29  1  0
  1 37  1  0
  1 38  1  0
  1 39  1  0
  4 40  1  0
  5 41  1  0
  6 42  1  0
  7 43  1  0
  9 44  1  0
  9 45  1  0
 11 46  1  0
 18 47  1  0
 19 48  1  0
 21 49  1  0
 21 50  1  0
 21 51  1  0
 23 52  1  0
 23 53  1  0
 23 54  1  0
 24 55  1  0
 28 56  1  0
 28 57  1  0
 30 58  1  0
 31 59  1  0
 32 60  1  0
 33 61  1  0
 34 62  1  0
 36 63  1  0
 36 64  1  0
 36 65  1  0
M  CHG  1  13  -1
M  END
>  <UniqueID>  (42) 
41

>  <SMILES>  (42) 
COc1ccccc1Cc1cc([N-]S(=O)(=O)c2ccc(C)c(C)c2)c(=O)n(Cc2ccccc2)c1C

>  <Energy>  (42) 
87.14665240191061

>  <Genealogy>  (42) 
COc1ccccc1Cc1cc([N-]S(=O)(=O)c2ccc(C)c(C)c2)c(=O)n(Cc2ccccc2)c1C (protonated)
COc1ccccc1Cc1cc([N-]S(=O)(=O)c2ccc(C)c(C)c2)c(=O)n(Cc2ccccc2)c1C (3D coordinates assigned)
COc1ccccc1Cc1cc([N-]S(=O)(=O)c2ccc(C)c(C)c2)c(=O)n(Cc2ccccc2)c1C (optimized conformer: 87.14665240191061 kcal/mol)

>  <smiles>  (42) 
COc1ccccc1Cc1cc(NS(=O)(=O)c2ccc(C)c(C)c2)c(=O)n(Cc2ccccc2)c1C

>  <score_type>  (42) 
oracle

>  <origin>  (42) 
adgpu

>  <m_score__min__energy>  (42) 
-12.57

>  <m_primary>  (42) 
energy

$$$$
42:0
     RDKit          3D

 50 53  0  0  0  0  0  0  0  0999 V2000
   -1.5850   25.6650  -28.9700 O   0  0  0  0  0  0  0  0  0  0  0  0
   -1.6770   24.4640  -28.6010 C   0  0  0  0  0  0  0  0  0  0  0  0
   -0.5980   23.6900  -28.3320 N   0  0  0  0  0  0  0  0  0  0  0  0
   -1.1330   22.4980  -28.0100 C   0  0  0  0  0  0  0  0  0  0  0  0
   -0.4700   21.3220  -27.6690 C   0  0  0  0  0  0  0  0  0  0  0  0
   -1.2550   20.1850  -27.3980 C   0  0  0  0  0  0  0  0  0  0  0  0
   -2.6650   20.2520  -27.4780 C   0  0  0  0  0  0  0  0  0  0  0  0
   -3.3040   21.4560  -27.8290 C   0  0  0  0  0  0  0  0  0  0  0  0
   -2.4980   22.5660  -28.0840 C   0  0  0  0  0  0  0  0  0  0  0  0
   -2.8580   23.8140  -28.4470 N   0  0  0  0  0  0  0  0  0  0  0  0
   -4.2030   24.3220  -28.7250 C   0  0  0  0  0  0  0  0  0  0  0  0
   -4.2540   24.9130  -30.1480 C   0  0  0  0  0  0  0  0  0  0  0  0
   -4.7540   23.9740  -31.1750 N   0  0  0  0  0  0  0  0  0  0  0  0
   -4.1060   22.6430  -31.1200 C   0  0  0  0  0  0  0  0  0  0  0  0
   -4.8390   21.6380  -32.0120 C   0  0  0  0  0  0  0  0  0  0  0  0
   -6.2920   21.4120  -31.5200 C   0  0  0  0  0  0  0  0  0  0  0  0
   -7.2120   20.9620  -32.6770 C   0  0  0  0  0  0  0  0  0  0  0  0
   -6.9050   19.5550  -33.1270 C   0  0  0  0  0  0  0  0  0  0  0  0
   -7.4630   18.4580  -32.4500 C   0  0  0  0  0  0  0  0  0  0  0  0
   -7.1570   17.1530  -32.8500 C   0  0  0  0  0  0  0  0  0  0  0  0
   -6.2900   16.9340  -33.9240 C   0  0  0  0  0  0  0  0  0  0  0  0
   -5.7250   18.0200  -34.5980 C   0  0  0  0  0  0  0  0  0  0  0  0
   -6.0290   19.3260  -34.2020 C   0  0  0  0  0  0  0  0  0  0  0  0
   -6.8650   22.6670  -30.8100 C   0  0  0  0  0  0  0  0  0  0  0  0
   -6.2300   23.9620  -31.3370 C   0  0  0  0  0  0  0  0  0  0  0  0
    0.4110   23.9510  -28.3820 H   0  0  0  0  0  0  0  0  0  0  0  0
    0.6279   21.2827  -27.6133 H   0  0  0  0  0  0  0  0  0  0  0  0
   -0.7679   19.2381  -27.1221 H   0  0  0  0  0  0  0  0  0  0  0  0
   -3.2671   19.3565  -27.2643 H   0  0  0  0  0  0  0  0  0  0  0  0
   -4.3999   21.5196  -27.8998 H   0  0  0  0  0  0  0  0  0  0  0  0
   -4.9281   23.4987  -28.6453 H   0  0  0  0  0  0  0  0  0  0  0  0
   -4.4525   25.1073  -27.9963 H   0  0  0  0  0  0  0  0  0  0  0  0
   -4.9147   25.7923  -30.1332 H   0  0  0  0  0  0  0  0  0  0  0  0
   -3.2191   25.1632  -30.4244 H   0  0  0  0  0  0  0  0  0  0  0  0
   -3.0649   22.7355  -31.4627 H   0  0  0  0  0  0  0  0  0  0  0  0
   -4.1396   22.2798  -30.0822 H   0  0  0  0  0  0  0  0  0  0  0  0
   -4.8642   22.0232  -33.0420 H   0  0  0  0  0  0  0  0  0  0  0  0
   -4.3028   20.6784  -31.9715 H   0  0  0  0  0  0  0  0  0  0  0  0
   -6.2582   20.6018  -30.7768 H   0  0  0  0  0  0  0  0  0  0  0  0
   -8.2574   21.0064  -32.3376 H   0  0  0  0  0  0  0  0  0  0  0  0
   -7.0420   21.6366  -33.5291 H   0  0  0  0  0  0  0  0  0  0  0  0
   -8.1432   18.6258  -31.6020 H   0  0  0  0  0  0  0  0  0  0  0  0
   -7.5995   16.2977  -32.3183 H   0  0  0  0  0  0  0  0  0  0  0  0
   -6.0524   15.9071  -34.2387 H   0  0  0  0  0  0  0  0  0  0  0  0
   -5.0401   17.8471  -35.4413 H   0  0  0  0  0  0  0  0  0  0  0  0
   -5.5806   20.1780  -34.7341 H   0  0  0  0  0  0  0  0  0  0  0  0
   -7.9508   22.7079  -30.9812 H   0  0  0  0  0  0  0  0  0  0  0  0
   -6.6358   22.5866  -29.7371 H   0  0  0  0  0  0  0  0  0  0  0  0
   -6.4691   24.0634  -32.4059 H   0  0  0  0  0  0  0  0  0  0  0  0
   -6.6390   24.7989  -30.7519 H   0  0  0  0  0  0  0  0  0  0  0  0
  1  2  2  0
  2  3  1  0
  3  4  1  0
  4  5  2  0
  5  6  1  0
  6  7  2  0
  7  8  1  0
  8  9  2  0
  9 10  1  0
 10 11  1  0
 11 12  1  0
 12 13  1  0
 13 14  1  0
 14 15  1  0
 15 16  1  0
 16 17  1  0
 17 18  1  0
 18 19  2  0
 19 20  1  0
 20 21  2  0
 21 22  1  0
 22 23  2  0
 16 24  1  0
 24 25  1  0
 10  2  1  0
 25 13  1  0
  9  4  1  0
 23 18  1  0
  3 26  1  0
  5 27  1  0
  6 28  1  0
  7 29  1  0
  8 30  1  0
 11 31  1  0
 11 32  1  0
 12 33  1  0
 12 34  1  0
 14 35  1  0
 14 36  1  0
 15 37  1  0
 15 38  1  0
 16 39  1  0
 17 40  1  0
 17 41  1  0
 19 42  1  0
 20 43  1  0
 21 44  1  0
 22 45  1  0
 23 46  1  0
 24 47  1  0
 24 48  1  0
 25 49  1  0
 25 50  1  0
M  END
>  <UniqueID>  (43) 
42

>  <SMILES>  (43) 
O=c1[nH]c2ccccc2n1CCN1CCC(Cc2ccccc2)CC1

>  <Energy>  (43) 
100.02420368892996

>  <Genealogy>  (43) 
O=c1[nH]c2ccccc2n1CCN1CCC(Cc2ccccc2)CC1 (3D coordinates assigned)
O=c1[nH]c2ccccc2n1CCN1CCC(Cc2ccccc2)CC1 (nonaromatic ring conformer: 100.02420368892996 kcal/mol)

>  <smiles>  (43) 
O=c1[nH]c2ccccc2n1CCN1CCC(Cc2ccccc2)CC1

>  <score_type>  (43) 
oracle

>  <origin>  (43) 
adgpu

>  <m_score__min__energy>  (43) 
-9.2300000000000004

>  <m_primary>  (43) 
energy

$$$$
43:0
     RDKit          3D

 44 47  0  0  0  0  0  0  0  0999 V2000
    2.3890   23.6790  -26.7970 O   0  0  0  0  0  0  0  0  0  0  0  0
    1.2790   23.6520  -27.3920 C   0  0  0  0  0  0  0  0  0  0  0  0
    0.5460   22.5170  -27.5110 N   0  0  0  0  0  0  0  0  0  0  0  0
   -0.5220   22.9470  -28.1990 C   0  0  0  0  0  0  0  0  0  0  0  0
   -1.6220   22.2020  -28.6140 C   0  0  0  0  0  0  0  0  0  0  0  0
   -2.6290   22.8700  -29.3360 C   0  0  0  0  0  0  0  0  0  0  0  0
   -2.5050   24.2540  -29.6440 C   0  0  0  0  0  0  0  0  0  0  0  0
   -3.4800   24.9370  -30.4430 N   0  0  0  0  0  0  0  0  0  0  0  0
   -5.1700   25.0140  -30.0580 S   0  0  0  0  0  0  0  0  0  0  0  0
   -5.3470   24.8860  -28.5710 O   0  0  0  0  0  0  0  0  0  0  0  0
   -5.7300   26.3330  -30.5130 O   0  0  0  0  0  0  0  0  0  0  0  0
   -5.9980   23.7160  -30.9080 C   0  0  0  0  0  0  0  0  0  0  0  0
   -5.3150   22.5200  -31.1610 C   0  0  0  0  0  0  0  0  0  0  0  0
   -6.0080   21.3990  -31.6240 C   0  0  0  0  0  0  0  0  0  0  0  0
   -7.3930   21.4640  -31.8300 C   0  0  0  0  0  0  0  0  0  0  0  0
   -8.2990   19.9970  -32.1990 S   0  0  0  0  0  0  0  0  0  0  0  0
   -9.4790   20.3460  -33.0630 O   0  0  0  0  0  0  0  0  0  0  0  0
   -8.8160   19.3980  -30.9210 O   0  0  0  0  0  0  0  0  0  0  0  0
   -7.2980   18.8250  -33.0260 N   0  0  0  0  0  0  0  0  0  0  0  0
   -6.4990   18.0570  -32.0580 C   0  0  0  0  0  0  0  0  0  0  0  0
   -5.5710   17.0680  -32.7960 C   0  0  0  0  0  0  0  0  0  0  0  0
   -5.7180   17.1560  -34.2020 O   0  0  0  0  0  0  0  0  0  0  0  0
   -5.4400   18.4760  -34.6280 C   0  0  0  0  0  0  0  0  0  0  0  0
   -6.4100   19.4940  -33.9900 C   0  0  0  0  0  0  0  0  0  0  0  0
   -8.0640   22.6800  -31.6440 C   0  0  0  0  0  0  0  0  0  0  0  0
   -7.3700   23.8020  -31.1850 C   0  0  0  0  0  0  0  0  0  0  0  0
   -1.3840   24.9720  -29.1800 C   0  0  0  0  0  0  0  0  0  0  0  0
   -0.4110   24.2780  -28.4650 C   0  0  0  0  0  0  0  0  0  0  0  0
    0.7350   24.7580  -27.9620 N   0  0  0  0  0  0  0  0  0  0  0  0
   -1.7017   21.1289  -28.3858 H   0  0  0  0  0  0  0  0  0  0  0  0
   -3.5208   22.3167  -29.6655 H   0  0  0  0  0  0  0  0  0  0  0  0
   -4.2292   22.4631  -30.9946 H   0  0  0  0  0  0  0  0  0  0  0  0
   -5.4659   20.4637  -31.8273 H   0  0  0  0  0  0  0  0  0  0  0  0
   -5.8890   18.7499  -31.4598 H   0  0  0  0  0  0  0  0  0  0  0  0
   -7.1772   17.4910  -31.4026 H   0  0  0  0  0  0  0  0  0  0  0  0
   -4.5275   17.2951  -32.5325 H   0  0  0  0  0  0  0  0  0  0  0  0
   -5.8445   16.0482  -32.4874 H   0  0  0  0  0  0  0  0  0  0  0  0
   -4.4104   18.7349  -34.3401 H   0  0  0  0  0  0  0  0  0  0  0  0
   -5.5645   18.5191  -35.7201 H   0  0  0  0  0  0  0  0  0  0  0  0
   -5.8296   20.2700  -33.4695 H   0  0  0  0  0  0  0  0  0  0  0  0
   -7.0227   19.9471  -34.7833 H   0  0  0  0  0  0  0  0  0  0  0  0
   -9.1402   22.7512  -31.8600 H   0  0  0  0  0  0  0  0  0  0  0  0
   -7.9006   24.7547  -31.0406 H   0  0  0  0  0  0  0  0  0  0  0  0
   -1.2808   26.0493  -29.3770 H   0  0  0  0  0  0  0  0  0  0  0  0
  1  2  2  0
  2  3  1  0
  3  4  1  0
  4  5  2  0
  5  6  1  0
  6  7  2  0
  7  8  1  0
  8  9  1  0
  9 10  2  0
  9 11  2  0
  9 12  1  0
 12 13  2  0
 13 14  1  0
 14 15  2  0
 15 16  1  0
 16 17  2  0
 16 18  2  0
 16 19  1  0
 19 20  1  0
 20 21  1  0
 21 22  1  0
 22 23  1  0
 23 24  1  0
 15 25  1  0
 25 26  2  0
  7 27  1  0
 27 28  2  0
 28 29  1  0
 29  2  1  0
 28  4  1  0
 26 12  1  0
 24 19  1  0
  5 30  1  0
  6 31  1  0
 13 32  1  0
 14 33  1  0
 20 34  1  0
 20 35  1  0
 21 36  1  0
 21 37  1  0
 23 38  1  0
 23 39  1  0
 24 40  1  0
 24 41  1  0
 25 42  1  0
 26 43  1  0
 27 44  1  0
M  CHG  3   3  -1   8  -1  29  -1
M  END
>  <UniqueID>  (44) 
43

>  <SMILES>  (44) 
O=c1[n-]c2ccc([N-]S(=O)(=O)c3ccc(S(=O)(=O)N4CCOCC4)cc3)cc2[n-]1

>  <Energy>  (44) 
92.49620885432893

>  <Genealogy>  (44) 
O=c1[n-]c2ccc([N-]S(=O)(=O)c3ccc(S(=O)(=O)N4CCOCC4)cc3)cc2[n-]1 (protonated)
O=c1[n-]c2ccc([N-]S(=O)(=O)c3ccc(S(=O)(=O)N4CCOCC4)cc3)cc2[n-]1 (3D coordinates assigned)
O=c1[n-]c2ccc([N-]S(=O)(=O)c3ccc(S(=O)(=O)N4CCOCC4)cc3)cc2[n-]1 (nonaromatic ring conformer: 92.49620885432893 kcal/mol)

>  <smiles>  (44) 
O=c1[nH]c2ccc(NS(=O)(=O)c3ccc(S(=O)(=O)N4CCOCC4)cc3)cc2[nH]1

>  <score_type>  (44) 
oracle

>  <origin>  (44) 
adgpu

>  <m_score__min__energy>  (44) 
-12.210000000000001

>  <m_primary>  (44) 
energy

$$$$
44:0
     RDKit          3D

 35 37  0  0  0  0  0  0  0  0999 V2000
   -1.8670   25.2970  -29.2610 O   0  0  0  0  0  0  0  0  0  0  0  0
   -2.8170   24.5250  -29.5520 C   0  0  0  0  0  0  0  0  0  0  0  0
   -2.8560   23.2300  -29.0230 C   0  0  0  0  0  0  0  0  0  0  0  0
   -3.9160   22.3830  -29.3550 C   0  0  0  0  0  0  0  0  0  0  0  0
   -4.9290   22.8370  -30.2110 C   0  0  0  0  0  0  0  0  0  0  0  0
   -6.0070   22.0130  -30.5640 C   0  0  0  0  0  0  0  0  0  0  0  0
   -7.0070   22.4940  -31.4220 C   0  0  0  0  0  0  0  0  0  0  0  0
   -8.3510   21.4570  -31.8960 S   0  0  0  0  0  0  0  0  0  0  0  0
   -8.7830   20.6040  -30.7350 O   0  0  0  0  0  0  0  0  0  0  0  0
   -9.5110   22.3160  -32.3120 O   0  0  0  0  0  0  0  0  0  0  0  0
   -7.8880   20.4430  -33.2270 N   0  0  0  0  0  0  0  0  0  0  0  0
   -6.4310   20.3650  -33.3110 C   0  0  0  0  0  0  0  0  0  0  0  0
   -6.0100   18.9190  -33.3320 C   0  0  0  0  0  0  0  0  0  0  0  0
   -5.0960   18.4850  -34.3090 C   0  0  0  0  0  0  0  0  0  0  0  0
   -4.6910   17.1480  -34.3590 C   0  0  0  0  0  0  0  0  0  0  0  0
   -5.1980   16.2300  -33.4390 C   0  0  0  0  0  0  0  0  0  0  0  0
   -6.1160   16.6440  -32.4720 C   0  0  0  0  0  0  0  0  0  0  0  0
   -6.5340   17.9790  -32.4120 C   0  0  0  0  0  0  0  0  0  0  0  0
   -7.4670   18.3330  -31.4350 O   0  0  0  0  0  0  0  0  0  0  0  0
   -6.9200   23.7970  -31.9320 C   0  0  0  0  0  0  0  0  0  0  0  0
   -5.8480   24.6230  -31.5820 C   0  0  0  0  0  0  0  0  0  0  0  0
   -4.8510   24.1510  -30.7220 C   0  0  0  0  0  0  0  0  0  0  0  0
   -3.8060   24.9520  -30.3810 N   0  0  0  0  0  0  0  0  0  0  0  0
   -2.0580   22.8817  -28.3508 H   0  0  0  0  0  0  0  0  0  0  0  0
   -3.9557   21.3627  -28.9459 H   0  0  0  0  0  0  0  0  0  0  0  0
   -6.0686   20.9887  -30.1679 H   0  0  0  0  0  0  0  0  0  0  0  0
   -6.0890   20.8606  -34.2315 H   0  0  0  0  0  0  0  0  0  0  0  0
   -5.9844   20.8661  -32.4395 H   0  0  0  0  0  0  0  0  0  0  0  0
   -4.6966   19.2036  -35.0398 H   0  0  0  0  0  0  0  0  0  0  0  0
   -3.9722   16.8196  -35.1241 H   0  0  0  0  0  0  0  0  0  0  0  0
   -4.8743   15.1793  -33.4755 H   0  0  0  0  0  0  0  0  0  0  0  0
   -6.5144   15.9150  -31.7510 H   0  0  0  0  0  0  0  0  0  0  0  0
   -8.0040   19.1900  -31.4660 H   0  0  0  0  0  0  0  0  0  0  0  0
   -7.6998   24.1715  -32.6115 H   0  0  0  0  0  0  0  0  0  0  0  0
   -5.7884   25.6454  -31.9834 H   0  0  0  0  0  0  0  0  0  0  0  0
  1  2  2  0
  2  3  1  0
  3  4  2  0
  4  5  1  0
  5  6  2  0
  6  7  1  0
  7  8  1  0
  8  9  2  0
  8 10  2  0
  8 11  1  0
 11 12  1  0
 12 13  1  0
 13 14  2  0
 14 15  1  0
 15 16  2  0
 16 17  1  0
 17 18  2  0
 18 19  1  0
  7 20  2  0
 20 21  1  0
 21 22  2  0
 22 23  1  0
 23  2  1  0
 22  5  1  0
 18 13  1  0
  3 24  1  0
  4 25  1  0
  6 26  1  0
 12 27  1  0
 12 28  1  0
 14 29  1  0
 15 30  1  0
 16 31  1  0
 17 32  1  0
 19 33  1  0
 20 34  1  0
 21 35  1  0
M  CHG  2  11  -1  23  -1
M  END
>  <UniqueID>  (45) 
44

>  <SMILES>  (45) 
O=c1ccc2cc(S(=O)(=O)[N-]Cc3ccccc3O)ccc2[n-]1

>  <Energy>  (45) 
40.15951838277569

>  <Genealogy>  (45) 
O=c1ccc2cc(S(=O)(=O)[N-]Cc3ccccc3O)ccc2[n-]1 (protonated)
O=c1ccc2cc(S(=O)(=O)[N-]Cc3ccccc3O)ccc2[n-]1 (3D coordinates assigned)
O=c1ccc2cc(S(=O)(=O)[N-]Cc3ccccc3O)ccc2[n-]1 (optimized conformer: 40.15951838277569 kcal/mol)

>  <smiles>  (45) 
O=c1ccc2cc(S(=O)(=O)NCc3ccccc3O)ccc2[nH]1

>  <score_type>  (45) 
oracle

>  <origin>  (45) 
adgpu

>  <m_score__min__energy>  (45) 
-10.380000000000001

>  <m_primary>  (45) 
energy

$$$$
45:0
     RDKit          3D

 55 58  0  0  0  0  0  0  0  0999 V2000
   -0.4930   19.1300  -29.4770 C   0  0  0  0  0  0  0  0  0  0  0  0
   -0.0820   19.6650  -28.1640 N   0  0  0  0  0  0  0  0  0  0  0  0
   -1.0250   19.3060  -27.0850 C   0  0  0  0  0  0  0  0  0  0  0  0
   -2.4110   19.9410  -27.2800 C   0  0  0  0  0  0  0  0  0  0  0  0
   -2.3400   21.3730  -27.7520 C   0  0  0  0  0  0  0  0  0  0  0  0
   -3.5180   22.1310  -27.8100 C   0  0  0  0  0  0  0  0  0  0  0  0
   -3.5190   23.4150  -28.3780 C   0  0  0  0  0  0  0  0  0  0  0  0
   -4.7480   24.1240  -28.5900 N   0  0  0  0  0  0  0  0  0  0  0  0
   -5.3930   24.4580  -30.1730 S   0  0  0  0  0  0  0  0  0  0  0  0
   -4.3180   25.1060  -31.0150 O   0  0  0  0  0  0  0  0  0  0  0  0
   -6.5650   25.4050  -30.0460 O   0  0  0  0  0  0  0  0  0  0  0  0
   -5.8990   22.9620  -30.9630 C   0  0  0  0  0  0  0  0  0  0  0  0
   -7.2330   22.7790  -31.3620 C   0  0  0  0  0  0  0  0  0  0  0  0
   -7.6550   21.5420  -31.8640 C   0  0  0  0  0  0  0  0  0  0  0  0
   -6.7500   20.4760  -31.9690 C   0  0  0  0  0  0  0  0  0  0  0  0
   -7.2990   18.8890  -32.5090 S   0  0  0  0  0  0  0  0  0  0  0  0
   -8.7870   18.9300  -32.7170 O   0  0  0  0  0  0  0  0  0  0  0  0
   -7.0180   17.8930  -31.4250 O   0  0  0  0  0  0  0  0  0  0  0  0
   -6.5200   18.3590  -33.9850 N   0  0  0  0  0  0  0  0  0  0  0  0
   -5.2020   18.9880  -34.1910 C   0  0  0  0  0  0  0  0  0  0  0  0
   -4.0720   18.2900  -33.3950 C   0  0  0  0  0  0  0  0  0  0  0  0
   -4.4730   17.0630  -32.8110 O   0  0  0  0  0  0  0  0  0  0  0  0
   -5.1380   16.2700  -33.7680 C   0  0  0  0  0  0  0  0  0  0  0  0
   -6.4990   16.8870  -34.1270 C   0  0  0  0  0  0  0  0  0  0  0  0
   -5.4110   20.6660  -31.5920 C   0  0  0  0  0  0  0  0  0  0  0  0
   -4.9860   21.9060  -31.1000 C   0  0  0  0  0  0  0  0  0  0  0  0
   -2.3070   23.9810  -28.8120 C   0  0  0  0  0  0  0  0  0  0  0  0
   -2.2550   25.2720  -29.3430 O   0  0  0  0  0  0  0  0  0  0  0  0
   -1.1270   23.2330  -28.7400 C   0  0  0  0  0  0  0  0  0  0  0  0
   -1.1420   21.9160  -28.2540 C   0  0  0  0  0  0  0  0  0  0  0  0
    0.1440   21.1260  -28.2100 C   0  0  0  0  0  0  0  0  0  0  0  0
   -1.1570   18.2656  -29.3292 H   0  0  0  0  0  0  0  0  0  0  0  0
   -1.0263   19.9100  -30.0401 H   0  0  0  0  0  0  0  0  0  0  0  0
    0.3981   18.8157  -30.0401 H   0  0  0  0  0  0  0  0  0  0  0  0
   -1.1378   18.2120  -27.0645 H   0  0  0  0  0  0  0  0  0  0  0  0
   -0.6123   19.6875  -26.1394 H   0  0  0  0  0  0  0  0  0  0  0  0
   -2.9648   19.3525  -28.0263 H   0  0  0  0  0  0  0  0  0  0  0  0
   -2.9149   19.9404  -26.3022 H   0  0  0  0  0  0  0  0  0  0  0  0
   -4.4525   21.7148  -27.4057 H   0  0  0  0  0  0  0  0  0  0  0  0
   -7.9487   23.6103  -31.2798 H   0  0  0  0  0  0  0  0  0  0  0  0
   -8.7006   21.4058  -32.1773 H   0  0  0  0  0  0  0  0  0  0  0  0
   -4.9556   18.9446  -35.2622 H   0  0  0  0  0  0  0  0  0  0  0  0
   -5.2700   20.0245  -33.8291 H   0  0  0  0  0  0  0  0  0  0  0  0
   -3.2332   18.0934  -34.0790 H   0  0  0  0  0  0  0  0  0  0  0  0
   -3.7879   18.9642  -32.5736 H   0  0  0  0  0  0  0  0  0  0  0  0
   -4.5200   16.2037  -34.6756 H   0  0  0  0  0  0  0  0  0  0  0  0
   -5.3022   15.2672  -33.3467 H   0  0  0  0  0  0  0  0  0  0  0  0
   -6.7356   16.6318  -35.1705 H   0  0  0  0  0  0  0  0  0  0  0  0
   -7.2417   16.4776  -33.4265 H   0  0  0  0  0  0  0  0  0  0  0  0
   -4.6931   19.8376  -31.6835 H   0  0  0  0  0  0  0  0  0  0  0  0
   -3.9324   22.0526  -30.8199 H   0  0  0  0  0  0  0  0  0  0  0  0
   -3.0730   25.7430  -29.7170 H   0  0  0  0  0  0  0  0  0  0  0  0
   -0.1775   23.6815  -29.0676 H   0  0  0  0  0  0  0  0  0  0  0  0
    0.7326   21.3624  -29.1087 H   0  0  0  0  0  0  0  0  0  0  0  0
    0.6746   21.4082  -27.2887 H   0  0  0  0  0  0  0  0  0  0  0  0
  1  2  1  0
  2  3  1  0
  3  4  1  0
  4  5  1  0
  5  6  2  0
  6  7  1  0
  7  8  1  0
  8  9  1  0
  9 10  2  0
  9 11  2  0
  9 12  1  0
 12 13  2  0
 13 14  1  0
 14 15  2  0
 15 16  1  0
 16 17  2  0
 16 18  2  0
 16 19  1  0
 19 20  1  0
 20 21  1  0
 21 22  1  0
 22 23  1  0
 23 24  1  0
 15 25  1  0
 25 26  2  0
  7 27  2  0
 27 28  1  0
 27 29  1  0
 29 30  2  0
 30 31  1  0
 31  2  1  0
 30  5  1  0
 26 12  1  0
 24 19  1  0
  1 32  1  0
  1 33  1  0
  1 34  1  0
  3 35  1  0
  3 36  1  0
  4 37  1  0
  4 38  1  0
  6 39  1  0
 13 40  1  0
 14 41  1  0
 20 42  1  0
 20 43  1  0
 21 44  1  0
 21 45  1  0
 23 46  1  0
 23 47  1  0
 24 48  1  0
 24 49  1  0
 25 50  1  0
 26 51  1  0
 28 52  1  0
 29 53  1  0
 31 54  1  0
 31 55  1  0
M  CHG  1   8  -1
M  END
>  <UniqueID>  (46) 
45

>  <SMILES>  (46) 
CN1CCc2cc([N-]S(=O)(=O)c3ccc(S(=O)(=O)N4CCOCC4)cc3)c(O)cc2C1

>  <Energy>  (46) 
78.33094206344518

>  <Genealogy>  (46) 
CN1CCc2cc([N-]S(=O)(=O)c3ccc(S(=O)(=O)N4CCOCC4)cc3)c(O)cc2C1 (protonated)
CN1CCc2cc([N-]S(=O)(=O)c3ccc(S(=O)(=O)N4CCOCC4)cc3)c(O)cc2C1 (3D coordinates assigned)
CN1CCc2cc([N-]S(=O)(=O)c3ccc(S(=O)(=O)N4CCOCC4)cc3)c(O)cc2C1 (nonaromatic ring conformer: 78.33094206344518 kcal/mol)

>  <smiles>  (46) 
CN1CCc2cc(NS(=O)(=O)c3ccc(S(=O)(=O)N4CCOCC4)cc3)c(O)cc2C1

>  <score_type>  (46) 
oracle

>  <origin>  (46) 
adgpu

>  <m_score__min__energy>  (46) 
-13.33

>  <m_primary>  (46) 
energy

$$$$
46:0
     RDKit          3D

 55 58  0  0  0  0  0  0  0  0999 V2000
   -1.8890   26.3930  -25.3010 C   0  0  0  0  0  0  0  0  0  0  0  0
   -1.8840   25.4110  -26.4340 C   0  0  0  0  0  0  0  0  0  0  0  0
   -3.0100   24.6140  -26.6900 C   0  0  0  0  0  0  0  0  0  0  0  0
   -3.0130   23.7230  -27.7680 C   0  0  0  0  0  0  0  0  0  0  0  0
   -1.8960   23.6330  -28.6110 C   0  0  0  0  0  0  0  0  0  0  0  0
   -1.8960   22.5400  -29.9890 S   0  0  0  0  0  0  0  0  0  0  0  0
   -0.4850   22.3770  -30.4790 O   0  0  0  0  0  0  0  0  0  0  0  0
   -2.4320   21.1880  -29.6030 O   0  0  0  0  0  0  0  0  0  0  0  0
   -2.8690   23.2010  -31.2630 N   0  0  0  0  0  0  0  0  0  0  0  0
   -4.2860   23.4220  -31.1930 C   0  0  0  0  0  0  0  0  0  0  0  0
   -5.2110   22.4300  -31.5680 C   0  0  0  0  0  0  0  0  0  0  0  0
   -6.5870   22.6920  -31.5200 C   0  0  0  0  0  0  0  0  0  0  0  0
   -7.5430   21.6680  -31.9680 C   0  0  0  0  0  0  0  0  0  0  0  0
   -8.7160   22.0250  -32.2750 O   0  0  0  0  0  0  0  0  0  0  0  0
   -7.1590   20.2770  -32.0360 N   0  0  0  0  0  0  0  0  0  0  0  0
   -5.9640   19.8190  -31.3050 C   0  0  0  0  0  0  0  0  0  0  0  0
   -5.9060   18.2930  -31.2230 C   0  0  0  0  0  0  0  0  0  0  0  0
   -6.1370   17.7160  -32.5520 N   0  0  0  0  0  0  0  0  0  0  0  0
   -5.2540   16.7060  -33.0700 C   0  0  0  0  0  0  0  0  0  0  0  0
   -4.6700   16.8540  -34.3400 C   0  0  0  0  0  0  0  0  0  0  0  0
   -3.8160   15.8670  -34.8410 C   0  0  0  0  0  0  0  0  0  0  0  0
   -3.5340   14.7290  -34.0780 C   0  0  0  0  0  0  0  0  0  0  0  0
   -4.1050   14.5770  -32.8110 C   0  0  0  0  0  0  0  0  0  0  0  0
   -4.9620   15.5610  -32.3080 C   0  0  0  0  0  0  0  0  0  0  0  0
   -7.2560   18.1980  -33.3770 C   0  0  0  0  0  0  0  0  0  0  0  0
   -8.0580   19.2960  -32.6640 C   0  0  0  0  0  0  0  0  0  0  0  0
   -7.0470   23.9430  -31.0920 C   0  0  0  0  0  0  0  0  0  0  0  0
   -6.1340   24.9240  -30.7020 C   0  0  0  0  0  0  0  0  0  0  0  0
   -4.7590   24.6690  -30.7590 C   0  0  0  0  0  0  0  0  0  0  0  0
   -3.8640   25.6670  -30.3950 O   0  0  0  0  0  0  0  0  0  0  0  0
   -0.7790   24.4420  -28.3690 C   0  0  0  0  0  0  0  0  0  0  0  0
   -0.7740   25.3280  -27.2870 C   0  0  0  0  0  0  0  0  0  0  0  0
   -1.8862   25.8495  -24.3447 H   0  0  0  0  0  0  0  0  0  0  0  0
   -0.9941   27.0296  -25.3636 H   0  0  0  0  0  0  0  0  0  0  0  0
   -2.7904   27.0204  -25.3636 H   0  0  0  0  0  0  0  0  0  0  0  0
   -3.8942   24.6903  -26.0401 H   0  0  0  0  0  0  0  0  0  0  0  0
   -3.8938   23.0912  -27.9551 H   0  0  0  0  0  0  0  0  0  0  0  0
   -4.8525   21.4446  -31.9003 H   0  0  0  0  0  0  0  0  0  0  0  0
   -5.0658   20.1831  -31.8252 H   0  0  0  0  0  0  0  0  0  0  0  0
   -6.0129   20.2174  -30.2809 H   0  0  0  0  0  0  0  0  0  0  0  0
   -4.9155   17.9841  -30.8576 H   0  0  0  0  0  0  0  0  0  0  0  0
   -6.6834   17.9361  -30.5314 H   0  0  0  0  0  0  0  0  0  0  0  0
   -4.8856   17.7493  -34.9416 H   0  0  0  0  0  0  0  0  0  0  0  0
   -3.3649   15.9855  -35.8372 H   0  0  0  0  0  0  0  0  0  0  0  0
   -2.8627   13.9534  -34.4751 H   0  0  0  0  0  0  0  0  0  0  0  0
   -3.8802   13.6836  -32.2099 H   0  0  0  0  0  0  0  0  0  0  0  0
   -5.4100   15.4386  -31.3109 H   0  0  0  0  0  0  0  0  0  0  0  0
   -6.8559   18.6034  -34.3180 H   0  0  0  0  0  0  0  0  0  0  0  0
   -7.9307   17.3503  -33.5671 H   0  0  0  0  0  0  0  0  0  0  0  0
   -8.6964   19.8101  -33.3976 H   0  0  0  0  0  0  0  0  0  0  0  0
   -8.6732   18.8300  -31.8802 H   0  0  0  0  0  0  0  0  0  0  0  0
   -8.1265   24.1525  -31.0631 H   0  0  0  0  0  0  0  0  0  0  0  0
   -6.4963   25.9007  -30.3487 H   0  0  0  0  0  0  0  0  0  0  0  0
    0.0968   24.3805  -29.0317 H   0  0  0  0  0  0  0  0  0  0  0  0
    0.1053   25.9632  -27.1041 H   0  0  0  0  0  0  0  0  0  0  0  0
  1  2  1  0
  2  3  2  0
  3  4  1  0
  4  5  2  0
  5  6  1  0
  6  7  2  0
  6  8  2  0
  6  9  1  0
  9 10  1  0
 10 11  2  0
 11 12  1  0
 12 13  1  0
 13 14  2  0
 13 15  1  0
 15 16  1  0
 16 17  1  0
 17 18  1  0
 18 19  1  0
 19 20  2  0
 20 21  1  0
 21 22  2  0
 22 23  1  0
 23 24  2  0
 18 25  1  0
 25 26  1  0
 12 27  2  0
 27 28  1  0
 28 29  2  0
 29 30  1  0
  5 31  1  0
 31 32  2  0
 32  2  1  0
 29 10  1  0
 26 15  1  0
 24 19  1  0
  1 33  1  0
  1 34  1  0
  1 35  1  0
  3 36  1  0
  4 37  1  0
 11 38  1  0
 16 39  1  0
 16 40  1  0
 17 41  1  0
 17 42  1  0
 20 43  1  0
 21 44  1  0
 22 45  1  0
 23 46  1  0
 24 47  1  0
 25 48  1  0
 25 49  1  0
 26 50  1  0
 26 51  1  0
 27 52  1  0
 28 53  1  0
 31 54  1  0
 32 55  1  0
M  CHG  2   9  -1  30  -1
M  END
>  <UniqueID>  (47) 
46

>  <SMILES>  (47) 
Cc1ccc(S(=O)(=O)[N-]c2cc(C(=O)N3CCN(c4ccccc4)CC3)ccc2[O-])cc1

>  <Energy>  (47) 
72.75348102555148

>  <Genealogy>  (47) 
Cc1ccc(S(=O)(=O)[N-]c2cc(C(=O)N3CCN(c4ccccc4)CC3)ccc2[O-])cc1 (protonated)
Cc1ccc(S(=O)(=O)[N-]c2cc(C(=O)N3CCN(c4ccccc4)CC3)ccc2[O-])cc1 (3D coordinates assigned)
Cc1ccc(S(=O)(=O)[N-]c2cc(C(=O)N3CCN(c4ccccc4)CC3)ccc2[O-])cc1 (nonaromatic ring conformer: 72.75348102555148 kcal/mol)

>  <smiles>  (47) 
Cc1ccc(S(=O)(=O)Nc2cc(C(=O)N3CCN(c4ccccc4)CC3)ccc2O)cc1

>  <score_type>  (47) 
oracle

>  <origin>  (47) 
adgpu

>  <m_score__min__energy>  (47) 
-13.029999999999999

>  <m_primary>  (47) 
energy

$$$$
47:0
     RDKit          3D

 40 42  0  0  0  0  0  0  0  0999 V2000
   -2.7110   22.7720  -27.4890 C   0  0  0  0  0  0  0  0  0  0  0  0
   -2.0980   22.0690  -28.6730 C   0  0  0  0  0  0  0  0  0  0  0  0
   -1.2270   20.9940  -28.4430 C   0  0  0  0  0  0  0  0  0  0  0  0
   -0.6040   20.3210  -29.5050 C   0  0  0  0  0  0  0  0  0  0  0  0
    0.3290   19.1780  -29.1970 C   0  0  0  0  0  0  0  0  0  0  0  0
   -0.8870   20.7120  -30.8330 C   0  0  0  0  0  0  0  0  0  0  0  0
   -0.1370   19.9050  -32.2220 S   0  0  0  0  0  0  0  0  0  0  0  0
   -1.1060   18.9320  -32.8390 O   0  0  0  0  0  0  0  0  0  0  0  0
    1.0690   19.1370  -31.7570 O   0  0  0  0  0  0  0  0  0  0  0  0
    0.3390   21.0940  -33.4090 N   0  0  0  0  0  0  0  0  0  0  0  0
    1.6830   20.7850  -33.9190 C   0  0  0  0  0  0  0  0  0  0  0  0
    2.1010   21.8330  -34.9720 C   0  0  0  0  0  0  0  0  0  0  0  0
    1.0350   22.6980  -35.3270 O   0  0  0  0  0  0  0  0  0  0  0  0
   -0.0930   21.9350  -35.7060 C   0  0  0  0  0  0  0  0  0  0  0  0
   -0.6360   21.1210  -34.5130 C   0  0  0  0  0  0  0  0  0  0  0  0
   -1.7630   21.7810  -31.0630 C   0  0  0  0  0  0  0  0  0  0  0  0
   -2.3770   22.4650  -30.0020 C   0  0  0  0  0  0  0  0  0  0  0  0
   -3.3160   23.5710  -30.3110 C   0  0  0  0  0  0  0  0  0  0  0  0
   -4.4850   23.4160  -30.9620 N   0  0  0  0  0  0  0  0  0  0  0  0
   -4.9760   24.6720  -31.0360 C   0  0  0  0  0  0  0  0  0  0  0  0
   -6.0770   24.9370  -31.5860 O   0  0  0  0  0  0  0  0  0  0  0  0
   -4.1960   25.6190  -30.4770 N   0  0  0  0  0  0  0  0  0  0  0  0
   -3.1490   24.9100  -30.0220 C   0  0  0  0  0  0  0  0  0  0  0  0
   -2.0780   25.4730  -29.3400 O   0  0  0  0  0  0  0  0  0  0  0  0
   -2.3247   22.3290  -26.5592 H   0  0  0  0  0  0  0  0  0  0  0  0
   -2.4509   23.8403  -27.5219 H   0  0  0  0  0  0  0  0  0  0  0  0
   -3.8048   22.6598  -27.5219 H   0  0  0  0  0  0  0  0  0  0  0  0
   -1.0284   20.6722  -27.4100 H   0  0  0  0  0  0  0  0  0  0  0  0
    0.4220   19.0641  -28.1069 H   0  0  0  0  0  0  0  0  0  0  0  0
   -0.0728   18.2499  -29.6297 H   0  0  0  0  0  0  0  0  0  0  0  0
    1.3188   19.3858  -29.6297 H   0  0  0  0  0  0  0  0  0  0  0  0
    2.4011   20.7991  -33.0858 H   0  0  0  0  0  0  0  0  0  0  0  0
    1.6724   19.7887  -34.3851 H   0  0  0  0  0  0  0  0  0  0  0  0
    2.9241   22.4367  -34.5621 H   0  0  0  0  0  0  0  0  0  0  0  0
    2.4101   21.2923  -35.8787 H   0  0  0  0  0  0  0  0  0  0  0  0
   -0.8806   22.6125  -36.0675 H   0  0  0  0  0  0  0  0  0  0  0  0
    0.2077   21.2354  -36.4998 H   0  0  0  0  0  0  0  0  0  0  0  0
   -1.5698   21.5814  -34.1579 H   0  0  0  0  0  0  0  0  0  0  0  0
   -0.8195   20.0887  -34.8458 H   0  0  0  0  0  0  0  0  0  0  0  0
   -1.9741   22.0909  -32.0971 H   0  0  0  0  0  0  0  0  0  0  0  0
  1  2  1  0
  2  3  2  0
  3  4  1  0
  4  5  1  0
  4  6  2  0
  6  7  1  0
  7  8  2  0
  7  9  2  0
  7 10  1  0
 10 11  1  0
 11 12  1  0
 12 13  1  0
 13 14  1  0
 14 15  1  0
  6 16  1  0
 16 17  2  0
 17 18  1  0
 18 19  1  0
 19 20  1  0
 20 21  2  0
 20 22  1  0
 22 23  1  0
 23 24  1  0
 17  2  1  0
 23 18  2  0
 15 10  1  0
  1 25  1  0
  1 26  1  0
  1 27  1  0
  3 28  1  0
  5 29  1  0
  5 30  1  0
  5 31  1  0
 11 32  1  0
 11 33  1  0
 12 34  1  0
 12 35  1  0
 14 36  1  0
 14 37  1  0
 15 38  1  0
 15 39  1  0
 16 40  1  0
M  CHG  3  19  -1  22  -1  24  -1
M  END
>  <UniqueID>  (48) 
47

>  <SMILES>  (48) 
Cc1cc(C)c(S(=O)(=O)N2CCOCC2)cc1-c1[n-]c(=O)[n-]c1[O-]

>  <Energy>  (48) 
84.25432251746265

>  <Genealogy>  (48) 
Cc1cc(C)c(S(=O)(=O)N2CCOCC2)cc1-c1[n-]c(=O)[n-]c1[O-] (protonated)
Cc1cc(C)c(S(=O)(=O)N2CCOCC2)cc1-c1[n-]c(=O)[n-]c1[O-] (3D coordinates assigned)
Cc1cc(C)c(S(=O)(=O)N2CCOCC2)cc1-c1[n-]c(=O)[n-]c1[O-] (nonaromatic ring conformer: 84.25432251746265 kcal/mol)

>  <smiles>  (48) 
Cc1cc(C)c(S(=O)(=O)N2CCOCC2)cc1-c1[nH]c(=O)[nH]c1O

>  <score_type>  (48) 
oracle

>  <origin>  (48) 
adgpu

>  <m_score__min__energy>  (48) 
-12.92

>  <m_primary>  (48) 
energy

$$$$
48:0
     RDKit          3D

 55 57  0  0  0  0  0  0  0  0999 V2000
   -7.7780   18.2060  -31.8930 C   0  0  0  0  0  0  0  0  0  0  0  0
   -8.9720   19.1520  -31.7970 C   0  0  0  0  0  0  0  0  0  0  0  0
   -8.7860   20.3750  -32.7060 C   0  0  0  0  0  0  0  0  0  0  0  0
   -8.7980   21.6930  -31.9190 C   0  0  0  0  0  0  0  0  0  0  0  0
   -7.4380   22.0300  -31.3610 C   0  0  0  0  0  0  0  0  0  0  0  0
   -6.3030   21.3170  -31.7740 C   0  0  0  0  0  0  0  0  0  0  0  0
   -5.0400   21.6500  -31.2770 C   0  0  0  0  0  0  0  0  0  0  0  0
   -4.8900   22.7040  -30.3580 C   0  0  0  0  0  0  0  0  0  0  0  0
   -3.5480   23.0620  -29.8320 C   0  0  0  0  0  0  0  0  0  0  0  0
   -3.1900   24.4070  -29.6440 C   0  0  0  0  0  0  0  0  0  0  0  0
   -1.9290   24.7470  -29.1490 C   0  0  0  0  0  0  0  0  0  0  0  0
   -1.6160   26.0860  -28.9660 O   0  0  0  0  0  0  0  0  0  0  0  0
   -0.9950   23.7450  -28.8430 C   0  0  0  0  0  0  0  0  0  0  0  0
    0.6450   24.1520  -28.1980 S   0  0  0  0  0  0  0  0  0  0  0  0
    0.0630   25.0540  -26.7420 C   0  0  0  0  0  0  0  0  0  0  0  0
    0.0550   26.4580  -26.7990 C   0  0  0  0  0  0  0  0  0  0  0  0
   -0.4410   27.2150  -25.7390 C   0  0  0  0  0  0  0  0  0  0  0  0
   -0.9130   26.5820  -24.5940 C   0  0  0  0  0  0  0  0  0  0  0  0
   -0.8560   25.1920  -24.4900 C   0  0  0  0  0  0  0  0  0  0  0  0
   -0.3460   24.4000  -25.5410 C   0  0  0  0  0  0  0  0  0  0  0  0
   -0.1450   22.9090  -25.2580 C   0  0  0  0  0  0  0  0  0  0  0  0
   -1.1760   22.0350  -25.9870 C   0  0  0  0  0  0  0  0  0  0  0  0
   -0.0640   22.5730  -23.7680 C   0  0  0  0  0  0  0  0  0  0  0  0
   -1.3510   22.3960  -29.0110 C   0  0  0  0  0  0  0  0  0  0  0  0
   -0.4450   21.3890  -28.6760 O   0  0  0  0  0  0  0  0  0  0  0  0
   -2.6170   22.0610  -29.5090 C   0  0  0  0  0  0  0  0  0  0  0  0
   -6.0300   23.4180  -29.9490 C   0  0  0  0  0  0  0  0  0  0  0  0
   -7.2920   23.0860  -30.4490 C   0  0  0  0  0  0  0  0  0  0  0  0
   -7.4401   17.9382  -30.8810 H   0  0  0  0  0  0  0  0  0  0  0  0
   -8.0745   17.2950  -32.4336 H   0  0  0  0  0  0  0  0  0  0  0  0
   -6.9590   18.7030  -32.4336 H   0  0  0  0  0  0  0  0  0  0  0  0
   -9.8816   18.6137  -32.1015 H   0  0  0  0  0  0  0  0  0  0  0  0
   -9.0573   19.5007  -30.7572 H   0  0  0  0  0  0  0  0  0  0  0  0
   -7.8225   20.2839  -33.2288 H   0  0  0  0  0  0  0  0  0  0  0  0
   -9.6269   20.3986  -33.4147 H   0  0  0  0  0  0  0  0  0  0  0  0
   -9.1177   22.5042  -32.5896 H   0  0  0  0  0  0  0  0  0  0  0  0
   -9.4930   21.5781  -31.0742 H   0  0  0  0  0  0  0  0  0  0  0  0
   -6.4075   20.4912  -32.4931 H   0  0  0  0  0  0  0  0  0  0  0  0
   -4.1567   21.0836  -31.6070 H   0  0  0  0  0  0  0  0  0  0  0  0
   -3.9105   25.2012  -29.8892 H   0  0  0  0  0  0  0  0  0  0  0  0
    0.4456   26.9667  -27.6926 H   0  0  0  0  0  0  0  0  0  0  0  0
   -0.4591   28.3127  -25.8080 H   0  0  0  0  0  0  0  0  0  0  0  0
   -1.3316   27.1780  -23.7696 H   0  0  0  0  0  0  0  0  0  0  0  0
   -1.2152   24.7042  -23.5718 H   0  0  0  0  0  0  0  0  0  0  0  0
    0.8440   22.6648  -25.6730 H   0  0  0  0  0  0  0  0  0  0  0  0
   -1.7977   21.5080  -25.2483 H   0  0  0  0  0  0  0  0  0  0  0  0
   -1.8152   22.6706  -26.6175 H   0  0  0  0  0  0  0  0  0  0  0  0
   -0.6536   21.3004  -26.6175 H   0  0  0  0  0  0  0  0  0  0  0  0
   -0.2813   23.4746  -23.1765 H   0  0  0  0  0  0  0  0  0  0  0  0
   -0.7993   21.7909  -23.5280 H   0  0  0  0  0  0  0  0  0  0  0  0
    0.9469   22.2119  -23.5280 H   0  0  0  0  0  0  0  0  0  0  0  0
    0.4490   21.5990  -28.2480 H   0  0  0  0  0  0  0  0  0  0  0  0
   -2.8846   21.0032  -29.6485 H   0  0  0  0  0  0  0  0  0  0  0  0
   -5.9278   24.2442  -29.2300 H   0  0  0  0  0  0  0  0  0  0  0  0
   -8.1757   23.6557  -30.1257 H   0  0  0  0  0  0  0  0  0  0  0  0
  1  2  1  0
  2  3  1  0
  3  4  1  0
  4  5  1  0
  5  6  2  0
  6  7  1  0
  7  8  2  0
  8  9  1  0
  9 10  2  0
 10 11  1  0
 11 12  1  0
 11 13  2  0
 13 14  1  0
 14 15  1  0
 15 16  2  0
 16 17  1  0
 17 18  2  0
 18 19  1  0
 19 20  2  0
 20 21  1  0
 21 22  1  0
 21 23  1  0
 13 24  1  0
 24 25  1  0
 24 26  2  0
  8 27  1  0
 27 28  2  0
 28  5  1  0
 26  9  1  0
 20 15  1  0
  1 29  1  0
  1 30  1  0
  1 31  1  0
  2 32  1  0
  2 33  1  0
  3 34  1  0
  3 35  1  0
  4 36  1  0
  4 37  1  0
  6 38  1  0
  7 39  1  0
 10 40  1  0
 16 41  1  0
 17 42  1  0
 18 43  1  0
 19 44  1  0
 21 45  1  0
 22 46  1  0
 22 47  1  0
 22 48  1  0
 23 49  1  0
 23 50  1  0
 23 51  1  0
 25 52  1  0
 26 53  1  0
 27 54  1  0
 28 55  1  0
M  CHG  1  12  -1
M  END
>  <UniqueID>  (49) 
48

>  <SMILES>  (49) 
CCCCc1ccc(-c2cc([O-])c(Sc3ccccc3C(C)C)c(O)c2)cc1

>  <Energy>  (49) 
57.73287170724096

>  <Genealogy>  (49) 
CCCCc1ccc(-c2cc([O-])c(Sc3ccccc3C(C)C)c(O)c2)cc1 (protonated)
CCCCc1ccc(-c2cc([O-])c(Sc3ccccc3C(C)C)c(O)c2)cc1 (3D coordinates assigned)
CCCCc1ccc(-c2cc([O-])c(Sc3ccccc3C(C)C)c(O)c2)cc1 (optimized conformer: 57.73287170724096 kcal/mol)

>  <smiles>  (49) 
CCCCc1ccc(-c2cc(O)c(Sc3ccccc3C(C)C)c(O)c2)cc1

>  <score_type>  (49) 
oracle

>  <origin>  (49) 
adgpu

>  <m_score__min__energy>  (49) 
-11.699999999999999

>  <m_primary>  (49) 
energy

$$$$
49:0
     RDKit          3D

 57 60  0  0  0  0  0  0  0  0999 V2000
    1.2510   20.5610  -28.0150 C   0  0  0  0  0  0  0  0  0  0  0  0
    0.0130   19.7690  -27.8690 N   0  0  0  0  0  0  0  0  0  0  0  0
   -0.4950   19.2680  -29.1630 C   0  0  0  0  0  0  0  0  0  0  0  0
   -0.9410   20.3990  -30.1000 C   0  0  0  0  0  0  0  0  0  0  0  0
   -1.7140   21.4710  -29.3780 C   0  0  0  0  0  0  0  0  0  0  0  0
   -2.3580   22.4620  -30.1300 C   0  0  0  0  0  0  0  0  0  0  0  0
   -3.0270   23.5250  -29.4990 C   0  0  0  0  0  0  0  0  0  0  0  0
   -3.6400   24.5750  -30.2600 N   0  0  0  0  0  0  0  0  0  0  0  0
   -5.3440   24.9130  -30.2770 S   0  0  0  0  0  0  0  0  0  0  0  0
   -5.8110   25.3370  -28.9080 O   0  0  0  0  0  0  0  0  0  0  0  0
   -5.6080   26.0430  -31.2330 O   0  0  0  0  0  0  0  0  0  0  0  0
   -6.2200   23.4760  -30.8140 C   0  0  0  0  0  0  0  0  0  0  0  0
   -5.5710   22.2330  -30.8510 C   0  0  0  0  0  0  0  0  0  0  0  0
   -6.2720   21.0860  -31.2300 C   0  0  0  0  0  0  0  0  0  0  0  0
   -7.6330   21.1670  -31.5620 C   0  0  0  0  0  0  0  0  0  0  0  0
   -8.5230   19.7180  -32.0460 S   0  0  0  0  0  0  0  0  0  0  0  0
   -8.8920   18.9270  -30.8180 O   0  0  0  0  0  0  0  0  0  0  0  0
   -9.7980   20.1250  -32.7360 O   0  0  0  0  0  0  0  0  0  0  0  0
   -7.5720   18.7090  -33.1120 N   0  0  0  0  0  0  0  0  0  0  0  0
   -7.0360   17.5190  -32.4040 C   0  0  0  0  0  0  0  0  0  0  0  0
   -5.5420   17.6390  -32.0740 C   0  0  0  0  0  0  0  0  0  0  0  0
   -4.7080   17.8470  -33.3490 C   0  0  0  0  0  0  0  0  0  0  0  0
   -5.4680   18.6320  -34.4360 C   0  0  0  0  0  0  0  0  0  0  0  0
   -6.5580   19.5160  -33.8230 C   0  0  0  0  0  0  0  0  0  0  0  0
   -8.2830   22.4070  -31.5120 C   0  0  0  0  0  0  0  0  0  0  0  0
   -7.5770   23.5580  -31.1560 C   0  0  0  0  0  0  0  0  0  0  0  0
   -3.0910   23.5580  -28.0940 C   0  0  0  0  0  0  0  0  0  0  0  0
   -3.7920   24.5620  -27.4220 O   0  0  0  0  0  0  0  0  0  0  0  0
   -2.4370   22.5790  -27.3400 C   0  0  0  0  0  0  0  0  0  0  0  0
   -1.7160   21.5540  -27.9710 C   0  0  0  0  0  0  0  0  0  0  0  0
   -1.0340   20.5020  -27.1280 C   0  0  0  0  0  0  0  0  0  0  0  0
    1.6447   20.8129  -27.0192 H   0  0  0  0  0  0  0  0  0  0  0  0
    1.9992   19.9734  -28.5673 H   0  0  0  0  0  0  0  0  0  0  0  0
    1.0312   21.4866  -28.5673 H   0  0  0  0  0  0  0  0  0  0  0  0
    0.3037   18.6955  -29.6572 H   0  0  0  0  0  0  0  0  0  0  0  0
   -1.3747   18.6411  -28.9553 H   0  0  0  0  0  0  0  0  0  0  0  0
   -0.0486   20.8530  -30.5556 H   0  0  0  0  0  0  0  0  0  0  0  0
   -1.6041   19.9622  -30.8613 H   0  0  0  0  0  0  0  0  0  0  0  0
   -2.3399   22.4076  -31.2285 H   0  0  0  0  0  0  0  0  0  0  0  0
   -4.5071   22.1614  -30.5808 H   0  0  0  0  0  0  0  0  0  0  0  0
   -5.7554   20.1156  -31.2684 H   0  0  0  0  0  0  0  0  0  0  0  0
   -7.5931   17.3900  -31.4643 H   0  0  0  0  0  0  0  0  0  0  0  0
   -7.1561   16.6556  -33.0750 H   0  0  0  0  0  0  0  0  0  0  0  0
   -5.3904   18.4964  -31.4018 H   0  0  0  0  0  0  0  0  0  0  0  0
   -5.2150   16.7063  -31.5911 H   0  0  0  0  0  0  0  0  0  0  0  0
   -3.7961   18.4032  -33.0861 H   0  0  0  0  0  0  0  0  0  0  0  0
   -4.4747   16.8533  -33.7590 H   0  0  0  0  0  0  0  0  0  0  0  0
   -4.7562   19.2678  -34.9828 H   0  0  0  0  0  0  0  0  0  0  0  0
   -5.9463   17.9110  -35.1152 H   0  0  0  0  0  0  0  0  0  0  0  0
   -6.0937   20.2147  -33.1115 H   0  0  0  0  0  0  0  0  0  0  0  0
   -7.0587   20.0616  -34.6364 H   0  0  0  0  0  0  0  0  0  0  0  0
   -9.3539   22.4742  -31.7542 H   0  0  0  0  0  0  0  0  0  0  0  0
   -8.0874   24.5323  -31.1439 H   0  0  0  0  0  0  0  0  0  0  0  0
   -4.3210   25.2780  -27.9070 H   0  0  0  0  0  0  0  0  0  0  0  0
   -2.4882   22.6126  -26.2417 H   0  0  0  0  0  0  0  0  0  0  0  0
   -0.5719   20.9926  -26.2587 H   0  0  0  0  0  0  0  0  0  0  0  0
   -1.7989   19.7723  -26.8240 H   0  0  0  0  0  0  0  0  0  0  0  0
  1  2  1  0
  2  3  1  0
  3  4  1  0
  4  5  1  0
  5  6  2  0
  6  7  1  0
  7  8  1  0
  8  9  1  0
  9 10  2  0
  9 11  2  0
  9 12  1  0
 12 13  2  0
 13 14  1  0
 14 15  2  0
 15 16  1  0
 16 17  2  0
 16 18  2  0
 16 19  1  0
 19 20  1  0
 20 21  1  0
 21 22  1  0
 22 23  1  0
 23 24  1  0
 15 25  1  0
 25 26  2  0
  7 27  2  0
 27 28  1  0
 27 29  1  0
 29 30  2  0
 30 31  1  0
 31  2  1  0
 30  5  1  0
 26 12  1  0
 24 19  1  0
  1 32  1  0
  1 33  1  0
  1 34  1  0
  3 35  1  0
  3 36  1  0
  4 37  1  0
  4 38  1  0
  6 39  1  0
 13 40  1  0
 14 41  1  0
 20 42  1  0
 20 43  1  0
 21 44  1  0
 21 45  1  0
 22 46  1  0
 22 47  1  0
 23 48  1  0
 23 49  1  0
 24 50  1  0
 24 51  1  0
 25 52  1  0
 26 53  1  0
 28 54  1  0
 29 55  1  0
 31 56  1  0
 31 57  1  0
M  CHG  1   8  -1
M  END
>  <UniqueID>  (50) 
49

>  <SMILES>  (50) 
CN1CCc2cc([N-]S(=O)(=O)c3ccc(S(=O)(=O)N4CCCCC4)cc3)c(O)cc2C1

>  <Energy>  (50) 
73.85645188137443

>  <Genealogy>  (50) 
CN1CCc2cc([N-]S(=O)(=O)c3ccc(S(=O)(=O)N4CCCCC4)cc3)c(O)cc2C1 (protonated)
CN1CCc2cc([N-]S(=O)(=O)c3ccc(S(=O)(=O)N4CCCCC4)cc3)c(O)cc2C1 (3D coordinates assigned)
CN1CCc2cc([N-]S(=O)(=O)c3ccc(S(=O)(=O)N4CCCCC4)cc3)c(O)cc2C1 (nonaromatic ring conformer: 73.85645188137443 kcal/mol)

>  <smiles>  (50) 
CN1CCc2cc(NS(=O)(=O)c3ccc(S(=O)(=O)N4CCCCC4)cc3)c(O)cc2C1

>  <score_type>  (50) 
oracle

>  <origin>  (50) 
adgpu

>  <m_score__min__energy>  (50) 
-13.699999999999999

>  <m_primary>  (50) 
energy

$$$$
