0:0
     RDKit          3D

 37 39  0  0  0  0  0  0  0  0999 V2000
   -3.6460   16.6600  -35.6750 C   0  0  0  0  0  0  0  0  0  0  0  0
   -4.7280   17.2580  -34.8420 C   0  0  0  0  0  0  0  0  0  0  0  0
   -5.1010   18.5550  -34.9180 N   0  0  0  0  0  0  0  0  0  0  0  0
   -6.0980   18.8620  -34.0910 N   0  0  0  0  0  0  0  0  0  0  0  0
   -6.5200   17.8060  -33.3600 C   0  0  0  0  0  0  0  0  0  0  0  0
   -7.4680   17.8660  -32.4770 N   0  0  0  0  0  0  0  0  0  0  0  0
   -8.3220   19.3270  -32.0970 S   0  0  0  0  0  0  0  0  0  0  0  0
   -9.2500   19.6750  -33.2270 O   0  0  0  0  0  0  0  0  0  0  0  0
   -9.1350   19.1190  -30.8510 O   0  0  0  0  0  0  0  0  0  0  0  0
   -7.1620   20.6230  -31.8190 C   0  0  0  0  0  0  0  0  0  0  0  0
   -5.8980   20.3260  -31.2960 C   0  0  0  0  0  0  0  0  0  0  0  0
   -4.9290   21.3280  -31.1870 C   0  0  0  0  0  0  0  0  0  0  0  0
   -5.2060   22.6280  -31.6250 C   0  0  0  0  0  0  0  0  0  0  0  0
   -4.1660   23.6150  -31.5880 N   0  0  0  0  0  0  0  0  0  0  0  0
   -3.8620   24.4520  -30.4640 C   0  0  0  0  0  0  0  0  0  0  0  0
   -4.2380   25.6540  -30.4820 O   0  0  0  0  0  0  0  0  0  0  0  0
   -3.1380   23.9390  -29.2760 C   0  0  0  0  0  0  0  0  0  0  0  0
   -3.5550   22.7360  -28.6810 C   0  0  0  0  0  0  0  0  0  0  0  0
   -2.9140   22.2530  -27.5360 C   0  0  0  0  0  0  0  0  0  0  0  0
   -1.8460   22.9600  -26.9800 C   0  0  0  0  0  0  0  0  0  0  0  0
   -1.4070   24.1440  -27.5750 C   0  0  0  0  0  0  0  0  0  0  0  0
   -2.0370   24.6310  -28.7250 C   0  0  0  0  0  0  0  0  0  0  0  0
   -1.5490   25.7870  -29.3240 O   0  0  0  0  0  0  0  0  0  0  0  0
   -6.4920   22.9360  -32.1020 C   0  0  0  0  0  0  0  0  0  0  0  0
   -7.4630   21.9380  -32.2020 C   0  0  0  0  0  0  0  0  0  0  0  0
   -5.6580   16.4080  -33.7200 S   0  0  0  0  0  0  0  0  0  0  0  0
   -2.8727   16.2326  -35.0198 H   0  0  0  0  0  0  0  0  0  0  0  0
   -4.0679   15.8670  -36.3099 H   0  0  0  0  0  0  0  0  0  0  0  0
   -3.1990   17.4392  -36.3099 H   0  0  0  0  0  0  0  0  0  0  0  0
   -5.6664   19.3013  -30.9698 H   0  0  0  0  0  0  0  0  0  0  0  0
   -3.9448   21.0935  -30.7552 H   0  0  0  0  0  0  0  0  0  0  0  0
   -4.3910   22.1708  -29.1188 H   0  0  0  0  0  0  0  0  0  0  0  0
   -3.2517   21.3144  -27.0724 H   0  0  0  0  0  0  0  0  0  0  0  0
   -1.3504   22.5839  -26.0729 H   0  0  0  0  0  0  0  0  0  0  0  0
   -0.5622   24.6963  -27.1377 H   0  0  0  0  0  0  0  0  0  0  0  0
   -6.7341   23.9675  -32.3976 H   0  0  0  0  0  0  0  0  0  0  0  0
   -8.4657   22.1835  -32.5818 H   0  0  0  0  0  0  0  0  0  0  0  0
  1  2  1  0
  2  3  2  0
  3  4  1  0
  4  5  1  0
  5  6  2  3
  6  7  1  0
  7  8  2  0
  7  9  2  0
  7 10  1  0
 10 11  2  0
 11 12  1  0
 12 13  2  0
 13 14  1  0
 14 15  1  0
 15 16  2  0
 15 17  1  0
 17 18  2  0
 18 19  1  0
 19 20  2  0
 20 21  1  0
 21 22  2  0
 22 23  1  0
 13 24  1  0
 24 25  2  0
  5 26  1  0
 26  2  1  0
 25 10  1  0
 22 17  1  0
  1 27  1  0
  1 28  1  0
  1 29  1  0
 11 30  1  0
 12 31  1  0
 18 32  1  0
 19 33  1  0
 20 34  1  0
 21 35  1  0
 24 36  1  0
 25 37  1  0
M  CHG  3   4  -1  14  -1  23  -1
M  END
>  <UniqueID>  (1) 
1

>  <SMILES>  (1) 
Cc1n[n-]c(=NS(=O)(=O)c2ccc([N-]C(=O)c3ccccc3[O-])cc2)s1

>  <Energy>  (1) 
83.07689499135815

>  <Genealogy>  (1) 
Cc1n[n-]c(=NS(=O)(=O)c2ccc([N-]C(=O)c3ccccc3[O-])cc2)s1 (protonated)
Cc1n[n-]c(=NS(=O)(=O)c2ccc([N-]C(=O)c3ccccc3[O-])cc2)s1 (3D coordinates assigned)
Cc1n[n-]c(=NS(=O)(=O)c2ccc([N-]C(=O)c3ccccc3[O-])cc2)s1 (optimized conformer: 83.07689499135815 kcal/mol)

>  <smiles>  (1) 
Cc1n[nH]c(=NS(=O)(=O)c2ccc(NC(=O)c3ccccc3O)cc2)s1

>  <score_type>  (1) 
oracle

>  <origin>  (1) 
adgpu

>  <m_score__min__energy>  (1) 
-13.220000000000001

>  <m_primary>  (1) 
energy

$$$$
1:0
     RDKit          3D

 38 40  0  0  0  0  0  0  0  0999 V2000
    0.7110   20.5400  -36.6100 C   0  0  0  0  0  0  0  0  0  0  0  0
    0.2600   20.9540  -35.2470 C   0  0  0  0  0  0  0  0  0  0  0  0
    0.3620   22.1620  -34.9050 O   0  0  0  0  0  0  0  0  0  0  0  0
   -0.3700   19.9970  -34.3820 N   0  0  0  0  0  0  0  0  0  0  0  0
   -0.6750   20.2390  -32.9980 C   0  0  0  0  0  0  0  0  0  0  0  0
    0.2470   19.9390  -31.9780 C   0  0  0  0  0  0  0  0  0  0  0  0
   -0.0840   20.1640  -30.6400 C   0  0  0  0  0  0  0  0  0  0  0  0
   -1.3400   20.6800  -30.2990 C   0  0  0  0  0  0  0  0  0  0  0  0
   -1.7300   20.9720  -28.6070 S   0  0  0  0  0  0  0  0  0  0  0  0
   -0.4780   20.7410  -27.8070 O   0  0  0  0  0  0  0  0  0  0  0  0
   -2.7960   20.0220  -28.1360 O   0  0  0  0  0  0  0  0  0  0  0  0
   -2.2950   22.6070  -28.3950 N   0  0  0  0  0  0  0  0  0  0  0  0
   -3.5070   23.0530  -29.0940 C   0  0  0  0  0  0  0  0  0  0  0  0
   -3.2550   24.3680  -29.7730 C   0  0  0  0  0  0  0  0  0  0  0  0
   -3.8920   24.6830  -30.8110 O   0  0  0  0  0  0  0  0  0  0  0  0
   -2.3370   25.2980  -29.1910 N   0  0  0  0  0  0  0  0  0  0  0  0
   -1.5460   24.9170  -28.0600 C   0  0  0  0  0  0  0  0  0  0  0  0
   -0.7880   25.8750  -27.3790 C   0  0  0  0  0  0  0  0  0  0  0  0
   -0.0370   25.5040  -26.2600 C   0  0  0  0  0  0  0  0  0  0  0  0
   -0.0450   24.1770  -25.8190 C   0  0  0  0  0  0  0  0  0  0  0  0
   -0.7930   23.2130  -26.5030 C   0  0  0  0  0  0  0  0  0  0  0  0
   -1.5340   23.5740  -27.6420 C   0  0  0  0  0  0  0  0  0  0  0  0
   -2.2710   20.9580  -31.3090 C   0  0  0  0  0  0  0  0  0  0  0  0
   -1.9420   20.7310  -32.6490 C   0  0  0  0  0  0  0  0  0  0  0  0
    1.5186   19.7987  -36.5195 H   0  0  0  0  0  0  0  0  0  0  0  0
   -0.1342   20.0966  -37.1569 H   0  0  0  0  0  0  0  0  0  0  0  0
    1.0806   21.4199  -37.1569 H   0  0  0  0  0  0  0  0  0  0  0  0
   -0.6990   19.1020  -34.8080 H   0  0  0  0  0  0  0  0  0  0  0  0
    1.2331   19.5253  -32.2358 H   0  0  0  0  0  0  0  0  0  0  0  0
    0.6461   19.9346  -29.8498 H   0  0  0  0  0  0  0  0  0  0  0  0
   -3.7899   22.3027  -29.8471 H   0  0  0  0  0  0  0  0  0  0  0  0
   -4.3205   23.1744  -28.3636 H   0  0  0  0  0  0  0  0  0  0  0  0
   -0.7828   26.9196  -27.7237 H   0  0  0  0  0  0  0  0  0  0  0  0
    0.5611   26.2568  -25.7256 H   0  0  0  0  0  0  0  0  0  0  0  0
    0.5386   23.8904  -24.9317 H   0  0  0  0  0  0  0  0  0  0  0  0
   -0.8015   22.1714  -26.1494 H   0  0  0  0  0  0  0  0  0  0  0  0
   -3.2626   21.3556  -31.0471 H   0  0  0  0  0  0  0  0  0  0  0  0
   -2.6821   20.9397  -33.4356 H   0  0  0  0  0  0  0  0  0  0  0  0
  1  2  1  0
  2  3  2  0
  2  4  1  0
  4  5  1  0
  5  6  2  0
  6  7  1  0
  7  8  2  0
  8  9  1  0
  9 10  2  0
  9 11  2  0
  9 12  1  0
 12 13  1  0
 13 14  1  0
 14 15  2  0
 14 16  1  0
 16 17  1  0
 17 18  2  0
 18 19  1  0
 19 20  2  0
 20 21  1  0
 21 22  2  0
  8 23  1  0
 23 24  2  0
 24  5  1  0
 22 12  1  0
 22 17  1  0
  1 25  1  0
  1 26  1  0
  1 27  1  0
  4 28  1  0
  6 29  1  0
  7 30  1  0
 13 31  1  0
 13 32  1  0
 18 33  1  0
 19 34  1  0
 20 35  1  0
 21 36  1  0
 23 37  1  0
 24 38  1  0
M  CHG  1  16  -1
M  END
>  <UniqueID>  (2) 
2

>  <SMILES>  (2) 
CC(=O)Nc1ccc(S(=O)(=O)N2CC(=O)[N-]c3ccccc32)cc1

>  <Energy>  (2) 
47.56926747015113

>  <Genealogy>  (2) 
CC(=O)Nc1ccc(S(=O)(=O)N2CC(=O)[N-]c3ccccc32)cc1 (protonated)
CC(=O)Nc1ccc(S(=O)(=O)N2CC(=O)[N-]c3ccccc32)cc1 (3D coordinates assigned)
CC(=O)Nc1ccc(S(=O)(=O)N2CC(=O)[N-]c3ccccc32)cc1 (nonaromatic ring conformer: 47.56926747015113 kcal/mol)

>  <smiles>  (2) 
CC(=O)Nc1ccc(S(=O)(=O)N2CC(=O)Nc3ccccc32)cc1

>  <score_type>  (2) 
oracle

>  <origin>  (2) 
adgpu

>  <m_score__min__energy>  (2) 
-9.5700000000000003

>  <m_primary>  (2) 
energy

$$$$
2:0
     RDKit          3D

 46 48  0  0  0  0  0  0  0  0999 V2000
   -5.5630   17.1310  -34.6100 C   0  0  0  0  0  0  0  0  0  0  0  0
   -6.3440   18.1430  -33.8450 C   0  0  0  0  0  0  0  0  0  0  0  0
   -6.4710   19.4320  -34.2300 N   0  0  0  0  0  0  0  0  0  0  0  0
   -7.1760   20.1690  -33.3740 N   0  0  0  0  0  0  0  0  0  0  0  0
   -7.6000   19.4660  -32.3010 C   0  0  0  0  0  0  0  0  0  0  0  0
   -8.3180   19.9640  -31.3420 N   0  0  0  0  0  0  0  0  0  0  0  0
   -8.8510   21.6140  -31.3200 S   0  0  0  0  0  0  0  0  0  0  0  0
   -9.4860   21.9520  -32.6390 O   0  0  0  0  0  0  0  0  0  0  0  0
   -9.8710   21.7940  -30.2300 O   0  0  0  0  0  0  0  0  0  0  0  0
   -7.4650   22.6690  -31.0630 C   0  0  0  0  0  0  0  0  0  0  0  0
   -6.6060   22.9540  -32.1330 C   0  0  0  0  0  0  0  0  0  0  0  0
   -5.4460   23.7050  -31.9230 C   0  0  0  0  0  0  0  0  0  0  0  0
   -5.1210   24.1520  -30.6380 C   0  0  0  0  0  0  0  0  0  0  0  0
   -3.8970   24.8670  -30.4330 N   0  0  0  0  0  0  0  0  0  0  0  0
   -2.8800   24.5230  -29.4820 C   0  0  0  0  0  0  0  0  0  0  0  0
   -1.8920   25.2910  -29.3480 O   0  0  0  0  0  0  0  0  0  0  0  0
   -2.8910   23.2150  -28.7270 C   0  0  0  0  0  0  0  0  0  0  0  0
   -1.9940   22.1490  -29.3930 C   0  0  2  0  0  0  0  0  0  0  0  0
   -0.5890   22.6840  -29.7100 C   0  0  0  0  0  0  0  0  0  0  0  0
   -2.6500   21.6200  -30.6560 C   0  0  0  0  0  0  0  0  0  0  0  0
   -3.8320   20.8610  -30.5730 C   0  0  0  0  0  0  0  0  0  0  0  0
   -4.4380   20.3670  -31.7330 C   0  0  0  0  0  0  0  0  0  0  0  0
   -3.8740   20.6270  -32.9840 C   0  0  0  0  0  0  0  0  0  0  0  0
   -2.7020   21.3810  -33.0790 C   0  0  0  0  0  0  0  0  0  0  0  0
   -2.0910   21.8760  -31.9240 C   0  0  0  0  0  0  0  0  0  0  0  0
   -6.0090   23.9150  -29.5770 C   0  0  0  0  0  0  0  0  0  0  0  0
   -7.1700   23.1670  -29.7870 C   0  0  0  0  0  0  0  0  0  0  0  0
   -7.1020   17.8610  -32.3630 S   0  0  0  0  0  0  0  0  0  0  0  0
   -5.0454   16.4603  -33.9084 H   0  0  0  0  0  0  0  0  0  0  0  0
   -6.2445   16.5440  -35.2432 H   0  0  0  0  0  0  0  0  0  0  0  0
   -4.8224   17.6415  -35.2432 H   0  0  0  0  0  0  0  0  0  0  0  0
   -6.8454   22.5855  -33.1414 H   0  0  0  0  0  0  0  0  0  0  0  0
   -4.7870   23.9451  -32.7704 H   0  0  0  0  0  0  0  0  0  0  0  0
   -2.5288   23.3936  -27.7038 H   0  0  0  0  0  0  0  0  0  0  0  0
   -3.9232   22.8347  -28.7258 H   0  0  0  0  0  0  0  0  0  0  0  0
   -1.8768   21.3277  -28.6708 H   0  0  0  0  0  0  0  0  0  0  0  0
   -0.0537   22.8878  -28.7709 H   0  0  0  0  0  0  0  0  0  0  0  0
   -0.0341   21.9343  -30.2930 H   0  0  0  0  0  0  0  0  0  0  0  0
   -0.6733   23.6130  -30.2930 H   0  0  0  0  0  0  0  0  0  0  0  0
   -4.2819   20.6550  -29.5906 H   0  0  0  0  0  0  0  0  0  0  0  0
   -5.3606   19.7725  -31.6597 H   0  0  0  0  0  0  0  0  0  0  0  0
   -4.3529   20.2379  -33.8947 H   0  0  0  0  0  0  0  0  0  0  0  0
   -2.2592   21.5855  -34.0650 H   0  0  0  0  0  0  0  0  0  0  0  0
   -1.1681   22.4691  -32.0050 H   0  0  0  0  0  0  0  0  0  0  0  0
   -5.7901   24.3193  -28.5777 H   0  0  0  0  0  0  0  0  0  0  0  0
   -7.8541   22.9685  -28.9488 H   0  0  0  0  0  0  0  0  0  0  0  0
  1  2  1  0
  2  3  2  0
  3  4  1  0
  4  5  1  0
  5  6  2  3
  6  7  1  0
  7  8  2  0
  7  9  2  0
  7 10  1  0
 10 11  2  0
 11 12  1  0
 12 13  2  0
 13 14  1  0
 14 15  1  0
 15 16  2  0
 15 17  1  0
 17 18  1  0
 18 19  1  0
 18 20  1  0
 20 21  2  0
 21 22  1  0
 22 23  2  0
 23 24  1  0
 24 25  2  0
 13 26  1  0
 26 27  2  0
  5 28  1  0
 28  2  1  0
 27 10  1  0
 25 20  1  0
  1 29  1  0
  1 30  1  0
  1 31  1  0
 11 32  1  0
 12 33  1  0
 17 34  1  0
 17 35  1  0
 18 36  1  1
 19 37  1  0
 19 38  1  0
 19 39  1  0
 21 40  1  0
 22 41  1  0
 23 42  1  0
 24 43  1  0
 25 44  1  0
 26 45  1  0
 27 46  1  0
M  CHG  2   4  -1  14  -1
M  END
>  <UniqueID>  (3) 
3

>  <SMILES>  (3) 
Cc1n[n-]c(=NS(=O)(=O)c2ccc([N-]C(=O)C[C@H](C)c3ccccc3)cc2)s1

>  <Energy>  (3) 
83.79658577796998

>  <Genealogy>  (3) 
Cc1n[n-]c(=NS(=O)(=O)c2ccc([N-]C(=O)CC(C)c3ccccc3)cc2)s1 (protonated)
Cc1n[n-]c(=NS(=O)(=O)c2ccc([N-]C(=O)C[C@H](C)c3ccccc3)cc2)s1 (chirality)
Cc1n[n-]c(=NS(=O)(=O)c2ccc([N-]C(=O)C[C@H](C)c3ccccc3)cc2)s1 (3D coordinates assigned)
Cc1n[n-]c(=NS(=O)(=O)c2ccc([N-]C(=O)C[C@H](C)c3ccccc3)cc2)s1 (optimized conformer: 83.79658577796998 kcal/mol)

>  <smiles>  (3) 
Cc1n[nH]c(=NS(=O)(=O)c2ccc(NC(=O)CC(C)c3ccccc3)cc2)s1

>  <score_type>  (3) 
oracle

>  <origin>  (3) 
adgpu

>  <m_score__min__energy>  (3) 
-11.81

>  <m_primary>  (3) 
energy

$$$$
3:0
     RDKit          3D

 30 31  0  0  0  0  0  0  0  0999 V2000
   -8.2350   19.0530  -32.3740 C   0  0  0  0  0  0  0  0  0  0  0  0
   -7.2490   19.8830  -32.9820 O   0  0  0  0  0  0  0  0  0  0  0  0
   -6.7380   21.0550  -32.4060 C   0  0  0  0  0  0  0  0  0  0  0  0
   -5.3980   21.4560  -32.5710 C   0  0  0  0  0  0  0  0  0  0  0  0
   -4.9370   22.6360  -31.9800 C   0  0  0  0  0  0  0  0  0  0  0  0
   -5.8050   23.4260  -31.2130 C   0  0  0  0  0  0  0  0  0  0  0  0
   -5.2320   24.9090  -30.4540 S   0  0  0  0  0  0  0  0  0  0  0  0
   -5.7320   24.9530  -29.0390 O   0  0  0  0  0  0  0  0  0  0  0  0
   -5.7400   26.1180  -31.1900 O   0  0  0  0  0  0  0  0  0  0  0  0
   -3.4990   24.9350  -30.4460 N   0  0  0  0  0  0  0  0  0  0  0  0
   -2.6620   24.1970  -29.5440 C   0  0  0  0  0  0  0  0  0  0  0  0
   -2.9440   22.8630  -29.1880 C   0  0  0  0  0  0  0  0  0  0  0  0
   -2.1070   22.1790  -28.3030 C   0  0  0  0  0  0  0  0  0  0  0  0
   -0.9850   22.8150  -27.7630 C   0  0  0  0  0  0  0  0  0  0  0  0
   -0.1570   22.1330  -26.8820 O   0  0  0  0  0  0  0  0  0  0  0  0
   -0.7000   24.1380  -28.1110 C   0  0  0  0  0  0  0  0  0  0  0  0
   -1.5330   24.8280  -28.9980 C   0  0  0  0  0  0  0  0  0  0  0  0
   -1.2380   26.1450  -29.3330 O   0  0  0  0  0  0  0  0  0  0  0  0
   -7.1370   23.0300  -31.0480 C   0  0  0  0  0  0  0  0  0  0  0  0
   -7.6000   21.8520  -31.6420 C   0  0  0  0  0  0  0  0  0  0  0  0
   -8.1502   19.1244  -31.2796 H   0  0  0  0  0  0  0  0  0  0  0  0
   -9.2364   19.3841  -32.6865 H   0  0  0  0  0  0  0  0  0  0  0  0
   -8.0796   18.0099  -32.6865 H   0  0  0  0  0  0  0  0  0  0  0  0
   -4.7110   20.8378  -33.1676 H   0  0  0  0  0  0  0  0  0  0  0  0
   -3.8904   22.9456  -32.1171 H   0  0  0  0  0  0  0  0  0  0  0  0
   -3.8264   22.3584  -29.6085 H   0  0  0  0  0  0  0  0  0  0  0  0
   -2.3313   21.1372  -28.0302 H   0  0  0  0  0  0  0  0  0  0  0  0
    0.1825   24.6386  -27.6860 H   0  0  0  0  0  0  0  0  0  0  0  0
   -7.8222   23.6477  -30.4489 H   0  0  0  0  0  0  0  0  0  0  0  0
   -8.6489   21.5489  -31.5084 H   0  0  0  0  0  0  0  0  0  0  0  0
  1  2  1  0
  2  3  1  0
  3  4  2  0
  4  5  1  0
  5  6  2  0
  6  7  1  0
  7  8  2  0
  7  9  2  0
  7 10  1  0
 10 11  1  0
 11 12  2  0
 12 13  1  0
 13 14  2  0
 14 15  1  0
 14 16  1  0
 16 17  2  0
 17 18  1  0
  6 19  1  0
 19 20  2  0
 20  3  1  0
 17 11  1  0
  1 21  1  0
  1 22  1  0
  1 23  1  0
  4 24  1  0
  5 25  1  0
 12 26  1  0
 13 27  1  0
 16 28  1  0
 19 29  1  0
 20 30  1  0
M  CHG  3  10  -1  15  -1  18  -1
M  END
>  <UniqueID>  (4) 
4

>  <SMILES>  (4) 
COc1ccc(S(=O)(=O)[N-]c2ccc([O-])cc2[O-])cc1

>  <Energy>  (4) 
33.5676063098242

>  <Genealogy>  (4) 
COc1ccc(S(=O)(=O)[N-]c2ccc([O-])cc2[O-])cc1 (protonated)
COc1ccc(S(=O)(=O)[N-]c2ccc([O-])cc2[O-])cc1 (3D coordinates assigned)
COc1ccc(S(=O)(=O)[N-]c2ccc([O-])cc2[O-])cc1 (optimized conformer: 33.5676063098242 kcal/mol)

>  <smiles>  (4) 
COc1ccc(S(=O)(=O)Nc2ccc(O)cc2O)cc1

>  <score_type>  (4) 
oracle

>  <origin>  (4) 
adgpu

>  <m_score__min__energy>  (4) 
-11.74

>  <m_primary>  (4) 
energy

$$$$
4:0
     RDKit          3D

 53 56  0  0  0  0  0  0  0  0999 V2000
   -4.3030   22.9930  -32.3050 O   0  0  0  0  0  0  0  0  0  0  0  0
   -4.6760   21.7950  -32.4060 C   0  0  0  0  0  0  0  0  0  0  0  0
   -5.9020   21.5110  -33.0900 N   0  0  0  0  0  0  0  0  0  0  0  0
   -6.7550   20.3880  -32.8300 C   0  0  0  0  0  0  0  0  0  0  0  0
   -7.9480   20.5330  -32.1010 C   0  0  0  0  0  0  0  0  0  0  0  0
   -8.7530   19.4200  -31.8430 C   0  0  0  0  0  0  0  0  0  0  0  0
   -8.3670   18.1560  -32.2990 C   0  0  0  0  0  0  0  0  0  0  0  0
   -7.1680   18.0010  -33.0050 C   0  0  0  0  0  0  0  0  0  0  0  0
   -6.6820   16.4150  -33.5730 Cl  0  0  0  0  0  0  0  0  0  0  0  0
   -6.3580   19.1140  -33.2570 C   0  0  0  0  0  0  0  0  0  0  0  0
   -3.9010   20.7390  -31.8120 N   0  0  0  0  0  0  0  0  0  0  0  0
   -2.8900   20.9340  -30.8080 C   0  0  0  0  0  0  0  0  0  0  0  0
   -1.5730   21.2010  -31.2130 C   0  0  0  0  0  0  0  0  0  0  0  0
   -0.5410   21.2570  -30.2760 C   0  0  0  0  0  0  0  0  0  0  0  0
   -0.8070   21.0280  -28.9210 C   0  0  0  0  0  0  0  0  0  0  0  0
    0.5590   20.8520  -27.7690 S   0  0  0  0  0  0  0  0  0  0  0  0
    0.6590   22.6310  -27.5510 C   0  0  0  0  0  0  0  0  0  0  0  0
    1.8550   23.2150  -27.1230 C   0  0  0  0  0  0  0  0  0  0  0  0
    1.9760   24.6060  -27.1300 C   0  0  0  0  0  0  0  0  0  0  0  0
    0.9540   25.3760  -27.5930 N   0  0  0  0  0  0  0  0  0  0  0  0
   -0.2260   24.8350  -28.0040 C   0  0  0  0  0  0  0  0  0  0  0  0
   -1.2360   25.6970  -28.6400 C   0  0  0  0  0  0  0  0  0  0  0  0
   -1.1650   26.9520  -28.5280 O   0  0  0  0  0  0  0  0  0  0  0  0
   -2.3470   25.0990  -29.3160 N   0  0  0  0  0  0  0  0  0  0  0  0
   -3.2610   24.1680  -28.6640 C   0  0  0  0  0  0  0  0  0  0  0  0
   -4.5790   24.1580  -29.3910 C   0  0  0  0  0  0  0  0  0  0  0  0
   -5.4340   23.0450  -29.3080 C   0  0  0  0  0  0  0  0  0  0  0  0
   -6.6240   23.0140  -30.0420 C   0  0  0  0  0  0  0  0  0  0  0  0
   -6.9670   24.0890  -30.8670 C   0  0  0  0  0  0  0  0  0  0  0  0
   -6.1200   25.1950  -30.9620 C   0  0  0  0  0  0  0  0  0  0  0  0
   -4.9280   25.2300  -30.2290 C   0  0  0  0  0  0  0  0  0  0  0  0
   -0.4060   23.4450  -27.9460 C   0  0  0  0  0  0  0  0  0  0  0  0
   -2.1220   20.8000  -28.5000 C   0  0  0  0  0  0  0  0  0  0  0  0
   -3.1580   20.7410  -29.4380 C   0  0  0  0  0  0  0  0  0  0  0  0
   -8.2488   21.5249  -31.7327 H   0  0  0  0  0  0  0  0  0  0  0  0
   -9.6910   19.5386  -31.2807 H   0  0  0  0  0  0  0  0  0  0  0  0
   -9.0060   17.2824  -32.1029 H   0  0  0  0  0  0  0  0  0  0  0  0
   -5.4055   18.9881  -33.7926 H   0  0  0  0  0  0  0  0  0  0  0  0
   -4.1020   19.7540  -32.0870 H   0  0  0  0  0  0  0  0  0  0  0  0
   -1.3528   21.3674  -32.2778 H   0  0  0  0  0  0  0  0  0  0  0  0
    0.4849   21.4818  -30.6030 H   0  0  0  0  0  0  0  0  0  0  0  0
    2.6913   22.5857  -26.7845 H   0  0  0  0  0  0  0  0  0  0  0  0
    2.8978   25.0796  -26.7611 H   0  0  0  0  0  0  0  0  0  0  0  0
   -2.8268   23.1575  -28.6803 H   0  0  0  0  0  0  0  0  0  0  0  0
   -3.4217   24.4843  -27.6228 H   0  0  0  0  0  0  0  0  0  0  0  0
   -5.1659   22.1952  -28.6631 H   0  0  0  0  0  0  0  0  0  0  0  0
   -7.2911   22.1423  -29.9700 H   0  0  0  0  0  0  0  0  0  0  0  0
   -7.9046   24.0637  -31.4417 H   0  0  0  0  0  0  0  0  0  0  0  0
   -6.3897   26.0394  -31.6133 H   0  0  0  0  0  0  0  0  0  0  0  0
   -4.2613   26.1012  -30.3096 H   0  0  0  0  0  0  0  0  0  0  0  0
   -1.3768   22.9997  -28.2091 H   0  0  0  0  0  0  0  0  0  0  0  0
   -2.3412   20.6670  -27.4303 H   0  0  0  0  0  0  0  0  0  0  0  0
   -4.1873   20.5429  -29.1045 H   0  0  0  0  0  0  0  0  0  0  0  0
  1  2  2  0
  2  3  1  0
  3  4  1  0
  4  5  2  0
  5  6  1  0
  6  7  2  0
  7  8  1  0
  8  9  1  0
  8 10  2  0
  2 11  1  0
 11 12  1  0
 12 13  2  0
 13 14  1  0
 14 15  2  0
 15 16  1  0
 16 17  1  0
 17 18  2  0
 18 19  1  0
 19 20  2  0
 20 21  1  0
 21 22  1  0
 22 23  2  0
 22 24  1  0
 24 25  1  0
 25 26  1  0
 26 27  2  0
 27 28  1  0
 28 29  2  0
 29 30  1  0
 30 31  2  0
 21 32  2  0
 15 33  1  0
 33 34  2  0
 10  4  1  0
 34 12  1  0
 32 17  1  0
 31 26  1  0
  5 35  1  0
  6 36  1  0
  7 37  1  0
 10 38  1  0
 11 39  1  0
 13 40  1  0
 14 41  1  0
 18 42  1  0
 19 43  1  0
 25 44  1  0
 25 45  1  0
 27 46  1  0
 28 47  1  0
 29 48  1  0
 30 49  1  0
 31 50  1  0
 32 51  1  0
 33 52  1  0
 34 53  1  0
M  CHG  2   3  -1  24  -1
M  END
>  <UniqueID>  (5) 
5

>  <SMILES>  (5) 
O=C([N-]c1cccc(Cl)c1)Nc1ccc(Sc2ccnc(C(=O)[N-]Cc3ccccc3)c2)cc1

>  <Energy>  (5) 
60.69806588402437

>  <Genealogy>  (5) 
O=C([N-]c1cccc(Cl)c1)Nc1ccc(Sc2ccnc(C(=O)[N-]Cc3ccccc3)c2)cc1 (protonated)
O=C([N-]c1cccc(Cl)c1)Nc1ccc(Sc2ccnc(C(=O)[N-]Cc3ccccc3)c2)cc1 (3D coordinates assigned)
O=C([N-]c1cccc(Cl)c1)Nc1ccc(Sc2ccnc(C(=O)[N-]Cc3ccccc3)c2)cc1 (optimized conformer: 60.69806588402437 kcal/mol)

>  <smiles>  (5) 
O=C(Nc1ccc(Sc2ccnc(C(=O)NCc3ccccc3)c2)cc1)Nc1cccc(Cl)c1

>  <score_type>  (5) 
oracle

>  <origin>  (5) 
adgpu

>  <m_score__min__energy>  (5) 
-11.949999999999999

>  <m_primary>  (5) 
energy

$$$$
5:0
     RDKit          3D

 78 83  0  0  0  0  0  0  0  0999 V2000
  -10.3093   22.5585  -30.6720 H   0  0  0  0  0  0  0  0  0  0  0  0
   -9.5730   21.9670  -31.2360 C   0  0  0  0  0  0  0  0  0  0  0  0
   -8.2580   22.2400  -31.3210 N   0  0  0  0  0  0  0  0  0  0  0  0
   -7.6950   21.3090  -32.0770 N   0  0  0  0  0  0  0  0  0  0  0  0
   -6.2910   21.2950  -32.4100 C   0  0  0  0  0  0  0  0  0  0  0  0
   -5.8060   20.3890  -33.3670 C   0  0  0  0  0  0  0  0  0  0  0  0
   -6.5022   19.6950  -33.8606 H   0  0  0  0  0  0  0  0  0  0  0  0
   -4.4510   20.3590  -33.6990 C   0  0  0  0  0  0  0  0  0  0  0  0
   -4.0893   19.6395  -34.4483 H   0  0  0  0  0  0  0  0  0  0  0  0
   -3.5460   21.2380  -33.0860 C   0  0  0  0  0  0  0  0  0  0  0  0
   -2.0950   21.1920  -33.4820 C   0  0  0  0  0  0  0  0  0  0  0  0
   -1.4687   21.1721  -32.5780 H   0  0  0  0  0  0  0  0  0  0  0  0
   -1.9063   20.2874  -34.0788 H   0  0  0  0  0  0  0  0  0  0  0  0
   -1.8494   22.0828  -34.0788 H   0  0  0  0  0  0  0  0  0  0  0  0
   -4.0160   22.1320  -32.0980 C   0  0  0  0  0  0  0  0  0  0  0  0
   -3.1250   23.0260  -31.4160 N   0  0  0  0  0  0  0  0  0  0  0  0
   -3.2380   24.0510  -31.5880 H   0  0  0  0  0  0  0  0  0  0  0  0
   -2.1790   22.5940  -30.4230 C   0  0  0  0  0  0  0  0  0  0  0  0
   -1.7960   23.4340  -29.3660 C   0  0  0  0  0  0  0  0  0  0  0  0
   -2.2329   24.4400  -29.2815 H   0  0  0  0  0  0  0  0  0  0  0  0
   -0.8640   23.0010  -28.4210 C   0  0  0  0  0  0  0  0  0  0  0  0
   -0.5797   23.6660  -27.5922 H   0  0  0  0  0  0  0  0  0  0  0  0
   -0.2860   21.7250  -28.5180 C   0  0  0  0  0  0  0  0  0  0  0  0
    0.7330   21.3130  -27.4880 C   0  0  0  0  0  0  0  0  0  0  0  0
    0.3236   21.4785  -26.4805 H   0  0  0  0  0  0  0  0  0  0  0  0
    0.9731   20.2471  -27.6157 H   0  0  0  0  0  0  0  0  0  0  0  0
    1.6464   21.9125  -27.6157 H   0  0  0  0  0  0  0  0  0  0  0  0
   -0.6870   20.8600  -29.5660 C   0  0  0  0  0  0  0  0  0  0  0  0
   -0.1690   19.4780  -29.6860 C   0  0  0  0  0  0  0  0  0  0  0  0
    0.1420   18.9450  -30.9390 C   0  0  0  0  0  0  0  0  0  0  0  0
    0.0291   19.5643  -31.8411 H   0  0  0  0  0  0  0  0  0  0  0  0
    0.5950   17.6310  -31.0510 C   0  0  0  0  0  0  0  0  0  0  0  0
    0.9320   17.1140  -32.3480 N   0  0  0  0  0  0  0  0  0  0  0  0
    0.0980   16.8340  -33.3120 C   0  0  0  0  0  0  0  0  0  0  0  0
    0.5940   16.2350  -34.4740 C   0  0  0  0  0  0  0  0  0  0  0  0
    1.6692   16.0240  -34.5715 H   0  0  0  0  0  0  0  0  0  0  0  0
   -0.2800   15.9070  -35.5070 C   0  0  0  0  0  0  0  0  0  0  0  0
    0.1025   15.4280  -36.4204 H   0  0  0  0  0  0  0  0  0  0  0  0
   -1.6400   16.1860  -35.3830 C   0  0  0  0  0  0  0  0  0  0  0  0
   -2.3360   15.9138  -36.1902 H   0  0  0  0  0  0  0  0  0  0  0  0
   -2.1170   16.8160  -34.2230 C   0  0  0  0  0  0  0  0  0  0  0  0
   -3.5220   17.1110  -34.0740 N   0  0  0  0  0  0  0  0  0  0  0  0
   -4.0550   17.3190  -32.7150 C   0  0  0  0  0  0  0  0  0  0  0  0
   -3.5754   16.5910  -32.0442 H   0  0  0  0  0  0  0  0  0  0  0  0
   -3.8328   18.3637  -32.4517 H   0  0  0  0  0  0  0  0  0  0  0  0
   -5.5900   17.1540  -32.5870 C   0  0  0  0  0  0  0  0  0  0  0  0
   -5.7892   16.3511  -31.8620 H   0  0  0  0  0  0  0  0  0  0  0  0
   -5.9825   18.1310  -32.2686 H   0  0  0  0  0  0  0  0  0  0  0  0
   -6.2790   16.8180  -33.8450 N   0  0  0  0  0  0  0  0  0  0  0  0
   -6.2310   15.3740  -34.1360 C   0  0  0  0  0  0  0  0  0  0  0  0
   -6.2123   14.8101  -33.1917 H   0  0  0  0  0  0  0  0  0  0  0  0
   -7.1201   15.0872  -34.7167 H   0  0  0  0  0  0  0  0  0  0  0  0
   -5.3248   15.1469  -34.7167 H   0  0  0  0  0  0  0  0  0  0  0  0
   -5.7890   17.6490  -34.9550 C   0  0  0  0  0  0  0  0  0  0  0  0
   -6.4022   17.4509  -35.8465 H   0  0  0  0  0  0  0  0  0  0  0  0
   -5.8630   18.7040  -34.6526 H   0  0  0  0  0  0  0  0  0  0  0  0
   -4.3250   17.3480  -35.2830 C   0  0  0  0  0  0  0  0  0  0  0  0
   -4.2815   16.4512  -35.9185 H   0  0  0  0  0  0  0  0  0  0  0  0
   -3.9074   18.2251  -35.7990 H   0  0  0  0  0  0  0  0  0  0  0  0
   -1.2380   17.1320  -33.2240 N   0  0  0  0  0  0  0  0  0  0  0  0
   -1.6020   17.6510  -32.3960 H   0  0  0  0  0  0  0  0  0  0  0  0
    0.7900   16.8720  -29.8810 C   0  0  0  0  0  0  0  0  0  0  0  0
    1.2750   15.7090  -29.9670 O   0  0  0  0  0  0  0  0  0  0  0  0
    0.4620   17.3940  -28.6570 N   0  0  0  0  0  0  0  0  0  0  0  0
    0.6270   16.5790  -27.4460 C   0  0  0  0  0  0  0  0  0  0  0  0
    0.4985   17.2135  -26.5567 H   0  0  0  0  0  0  0  0  0  0  0  0
   -0.1273   15.7784  -27.4373 H   0  0  0  0  0  0  0  0  0  0  0  0
    1.6333   16.1348  -27.4373 H   0  0  0  0  0  0  0  0  0  0  0  0
   -0.0210   18.6690  -28.5500 C   0  0  0  0  0  0  0  0  0  0  0  0
   -0.2966   19.0646  -27.5613 H   0  0  0  0  0  0  0  0  0  0  0  0
   -1.6110   21.3180  -30.5220 C   0  0  0  0  0  0  0  0  0  0  0  0
   -1.8919   20.6638  -31.3605 H   0  0  0  0  0  0  0  0  0  0  0  0
   -5.3830   22.1740  -31.7900 C   0  0  0  0  0  0  0  0  0  0  0  0
   -5.7511   22.9038  -31.0538 H   0  0  0  0  0  0  0  0  0  0  0  0
   -8.6420   20.4390  -32.4890 C   0  0  0  0  0  0  0  0  0  0  0  0
   -8.4731   19.5643  -33.1343 H   0  0  0  0  0  0  0  0  0  0  0  0
   -9.8550   20.8300  -31.9660 C   0  0  0  0  0  0  0  0  0  0  0  0
  -10.8324   20.3436  -32.1005 H   0  0  0  0  0  0  0  0  0  0  0  0
  1  2  1  0
  2  3  2  0
  3  4  1  0
  4  5  1  0
  5  6  2  0
  6  7  1  0
  6  8  1  0
  8  9  1  0
  8 10  2  0
 10 11  1  0
 11 12  1  0
 11 13  1  0
 11 14  1  0
 10 15  1  0
 15 16  1  0
 16 17  1  0
 16 18  1  0
 18 19  2  0
 19 20  1  0
 19 21  1  0
 21 22  1  0
 21 23  2  0
 23 24  1  0
 24 25  1  0
 24 26  1  0
 24 27  1  0
 23 28  1  0
 28 29  1  0
 29 30  1  0
 30 31  1  0
 30 32  2  0
 32 33  1  0
 33 34  2  0
 34 35  1  0
 35 36  1  0
 35 37  2  0
 37 38  1  0
 37 39  1  0
 39 40  1  0
 39 41  2  0
 41 42  1  0
 42 43  1  0
 43 44  1  0
 43 45  1  0
 43 46  1  0
 46 47  1  0
 46 48  1  0
 46 49  1  0
 49 50  1  0
 50 51  1  0
 50 52  1  0
 50 53  1  0
 49 54  1  0
 54 55  1  0
 54 56  1  0
 54 57  1  0
 57 58  1  0
 57 59  1  0
 41 60  1  0
 60 61  1  0
 32 62  1  0
 62 63  2  0
 62 64  1  0
 64 65  1  0
 65 66  1  0
 65 67  1  0
 65 68  1  0
 64 69  1  0
 69 70  1  0
 28 71  2  0
 71 72  1  0
 15 73  2  0
 73 74  1  0
  4 75  1  0
 75 76  1  0
 75 77  2  0
 77 78  1  0
 77  2  1  0
 73  5  1  0
 71 18  1  0
 69 29  2  0
 60 34  1  0
 57 42  1  0
M  END
>  <UniqueID>  (6) 
6

>  <SMILES>  (6) 
Cc1ccc(-n2cccn2)cc1Nc1ccc(C)c(-c2cc(/N=c3/cccc(N4CCN(C)CC4)[nH]3)c(=O)n(C)c2)c1

>  <Energy>  (6) 
154.54178600959364

>  <Genealogy>  (6) 
Cc1ccc(-n2cccn2)cc1Nc1ccc(C)c(-c2cc(/N=c3/cccc(N4CCN(C)CC4)[nH]3)c(=O)n(C)c2)c1 (cis-trans isomerization)
Cc1ccc(-n2cccn2)cc1Nc1ccc(C)c(-c2cc(/N=c3/cccc(N4CCN(C)CC4)[nH]3)c(=O)n(C)c2)c1 (3D coordinates assigned)
Cc1ccc(-n2cccn2)cc1Nc1ccc(C)c(-c2cc(/N=c3/cccc(N4CCN(C)CC4)[nH]3)c(=O)n(C)c2)c1 (nonaromatic ring conformer: 154.54178600959364 kcal/mol)

>  <smiles>  (6) 
Cc1ccc(-n2cccn2)cc1Nc1ccc(C)c(-c2cc(N=c3cccc(N4CCN(C)CC4)[nH]3)c(=O)n(C)c2)c1

>  <score_type>  (6) 
oracle

>  <origin>  (6) 
adgpu

>  <m_score__min__energy>  (6) 
-11.16

>  <m_primary>  (6) 
energy

$$$$
6:0
     RDKit          3D

 53 57  0  0  0  0  0  0  0  0999 V2000
   -6.3970   17.5490  -31.2390 C   0  0  0  0  0  0  0  0  0  0  0  0
   -7.1920   18.0390  -32.3780 N   0  0  0  0  0  0  0  0  0  0  0  0
   -6.3390   18.6860  -33.4050 C   0  0  0  0  0  0  0  0  0  0  0  0
   -6.4100   20.2290  -33.4150 C   0  0  0  0  0  0  0  0  0  0  0  0
   -6.7090   20.7640  -32.0810 N   0  0  0  0  0  0  0  0  0  0  0  0
   -6.0800   21.9790  -31.6290 C   0  0  0  0  0  0  0  0  0  0  0  0
   -6.4170   23.2310  -32.2150 C   0  0  0  0  0  0  0  0  0  0  0  0
   -5.7760   24.4150  -31.8070 C   0  0  0  0  0  0  0  0  0  0  0  0
   -4.8120   24.3170  -30.8090 C   0  0  0  0  0  0  0  0  0  0  0  0
   -4.0450   25.2980  -30.3090 N   0  0  0  0  0  0  0  0  0  0  0  0
   -3.2700   24.6320  -29.4120 C   0  0  0  0  0  0  0  0  0  0  0  0
   -2.1760   25.2920  -28.6320 C   0  0  0  0  0  0  0  0  0  0  0  0
   -0.8960   25.0380  -29.2790 N   0  0  0  0  0  0  0  0  0  0  0  0
   -0.0960   23.9050  -28.9370 C   0  0  0  0  0  0  0  0  0  0  0  0
    0.9880   24.0620  -28.3160 O   0  0  0  0  0  0  0  0  0  0  0  0
   -0.5210   22.5680  -29.3600 C   0  0  0  0  0  0  0  0  0  0  0  0
   -0.4220   21.4670  -28.5850 N   0  0  0  0  0  0  0  0  0  0  0  0
   -0.8730   20.4810  -29.3860 C   0  0  0  0  0  0  0  0  0  0  0  0
   -1.2220   21.0210  -30.6100 C   0  0  0  0  0  0  0  0  0  0  0  0
   -1.7400   20.3200  -31.8060 C   0  0  0  0  0  0  0  0  0  0  0  0
   -1.2780   19.0270  -32.1040 C   0  0  0  0  0  0  0  0  0  0  0  0
   -1.7540   18.3440  -33.2270 C   0  0  0  0  0  0  0  0  0  0  0  0
   -2.6960   18.9480  -34.0660 C   0  0  0  0  0  0  0  0  0  0  0  0
   -3.1660   20.2290  -33.7760 C   0  0  0  0  0  0  0  0  0  0  0  0
   -2.6930   20.9150  -32.6530 C   0  0  0  0  0  0  0  0  0  0  0  0
   -0.9980   22.3100  -30.5550 O   0  0  0  0  0  0  0  0  0  0  0  0
   -3.5170   23.2980  -29.3310 N   0  0  0  0  0  0  0  0  0  0  0  0
   -4.4940   23.1280  -30.2300 C   0  0  0  0  0  0  0  0  0  0  0  0
   -5.0990   21.9340  -30.6090 C   0  0  0  0  0  0  0  0  0  0  0  0
   -7.8250   20.1970  -31.3120 C   0  0  0  0  0  0  0  0  0  0  0  0
   -8.3180   18.8880  -31.9420 C   0  0  0  0  0  0  0  0  0  0  0  0
   -6.8818   17.8478  -30.2979 H   0  0  0  0  0  0  0  0  0  0  0  0
   -6.3290   16.4520  -31.2842 H   0  0  0  0  0  0  0  0  0  0  0  0
   -5.3865   17.9812  -31.2842 H   0  0  0  0  0  0  0  0  0  0  0  0
   -5.2954   18.3910  -33.2208 H   0  0  0  0  0  0  0  0  0  0  0  0
   -6.7144   18.3485  -34.3823 H   0  0  0  0  0  0  0  0  0  0  0  0
   -5.4421   20.6289  -33.7515 H   0  0  0  0  0  0  0  0  0  0  0  0
   -7.2182   20.5322  -34.0968 H   0  0  0  0  0  0  0  0  0  0  0  0
   -7.1890   23.2737  -32.9974 H   0  0  0  0  0  0  0  0  0  0  0  0
   -6.0283   25.3845  -32.2614 H   0  0  0  0  0  0  0  0  0  0  0  0
   -2.3574   26.3762  -28.5915 H   0  0  0  0  0  0  0  0  0  0  0  0
   -2.1573   24.8845  -27.6104 H   0  0  0  0  0  0  0  0  0  0  0  0
   -0.9508   19.4189  -29.1105 H   0  0  0  0  0  0  0  0  0  0  0  0
   -0.5357   18.5483  -31.4483 H   0  0  0  0  0  0  0  0  0  0  0  0
   -1.3876   17.3313  -33.4509 H   0  0  0  0  0  0  0  0  0  0  0  0
   -3.0658   18.4136  -34.9535 H   0  0  0  0  0  0  0  0  0  0  0  0
   -3.9113   20.7011  -34.4330 H   0  0  0  0  0  0  0  0  0  0  0  0
   -3.0679   21.9250  -32.4307 H   0  0  0  0  0  0  0  0  0  0  0  0
   -4.8233   20.9828  -30.1303 H   0  0  0  0  0  0  0  0  0  0  0  0
   -7.4885   19.9971  -30.2840 H   0  0  0  0  0  0  0  0  0  0  0  0
   -8.6540   20.9201  -31.3125 H   0  0  0  0  0  0  0  0  0  0  0  0
   -8.9146   18.3369  -31.2002 H   0  0  0  0  0  0  0  0  0  0  0  0
   -8.9241   19.1373  -32.8254 H   0  0  0  0  0  0  0  0  0  0  0  0
  1  2  1  0
  2  3  1  0
  3  4  1  0
  4  5  1  0
  5  6  1  0
  6  7  2  0
  7  8  1  0
  8  9  2  0
  9 10  1  0
 10 11  1  0
 11 12  1  0
 12 13  1  0
 13 14  1  0
 14 15  2  0
 14 16  1  0
 16 17  2  0
 17 18  1  0
 18 19  2  0
 19 20  1  0
 20 21  2  0
 21 22  1  0
 22 23  2  0
 23 24  1  0
 24 25  2  0
 19 26  1  0
 11 27  2  0
 27 28  1  0
 28 29  2  0
  5 30  1  0
 30 31  1  0
 31  2  1  0
 29  6  1  0
 28  9  1  0
 26 16  1  0
 25 20  1  0
  1 32  1  0
  1 33  1  0
  1 34  1  0
  3 35  1  0
  3 36  1  0
  4 37  1  0
  4 38  1  0
  7 39  1  0
  8 40  1  0
 12 41  1  0
 12 42  1  0
 18 43  1  0
 21 44  1  0
 22 45  1  0
 23 46  1  0
 24 47  1  0
 25 48  1  0
 29 49  1  0
 30 50  1  0
 30 51  1  0
 31 52  1  0
 31 53  1  0
M  CHG  2  10  -1  13  -1
M  END
>  <UniqueID>  (7) 
7

>  <SMILES>  (7) 
CN1CCN(c2ccc3[n-]c(C[N-]C(=O)c4ncc(-c5ccccc5)o4)nc3c2)CC1

>  <Energy>  (7) 
133.48776120290518

>  <Genealogy>  (7) 
CN1CCN(c2ccc3[n-]c(C[N-]C(=O)c4ncc(-c5ccccc5)o4)nc3c2)CC1 (protonated)
CN1CCN(c2ccc3[n-]c(C[N-]C(=O)c4ncc(-c5ccccc5)o4)nc3c2)CC1 (3D coordinates assigned)
CN1CCN(c2ccc3[n-]c(C[N-]C(=O)c4ncc(-c5ccccc5)o4)nc3c2)CC1 (nonaromatic ring conformer: 133.48776120290518 kcal/mol)

>  <smiles>  (7) 
CN1CCN(c2ccc3[nH]c(CNC(=O)c4ncc(-c5ccccc5)o4)nc3c2)CC1

>  <score_type>  (7) 
oracle

>  <origin>  (7) 
adgpu

>  <m_score__min__energy>  (7) 
-11.74

>  <m_primary>  (7) 
energy

$$$$
7:0
     RDKit          3D

 43 45  0  0  0  0  0  0  0  0999 V2000
    0.3300   17.8100  -32.9160 H   0  0  0  0  0  0  0  0  0  0  0  0
   -0.6770   17.5640  -33.0470 N   0  0  0  0  0  0  0  0  0  0  0  0
   -1.6100   18.4070  -32.7470 C   0  0  0  0  0  0  0  0  0  0  0  0
   -2.9210   18.1310  -32.8980 N   0  0  0  0  0  0  0  0  0  0  0  0
   -3.5190   19.2650  -32.4790 C   0  0  0  0  0  0  0  0  0  0  0  0
   -4.9860   19.4570  -32.4910 C   0  0  0  0  0  0  0  0  0  0  0  0
   -5.6090   20.2370  -33.4790 C   0  0  0  0  0  0  0  0  0  0  0  0
   -5.0035   20.7019  -34.2710 H   0  0  0  0  0  0  0  0  0  0  0  0
   -6.9930   20.4260  -33.4620 C   0  0  0  0  0  0  0  0  0  0  0  0
   -7.4678   21.0496  -34.2338 H   0  0  0  0  0  0  0  0  0  0  0  0
   -7.7800   19.8290  -32.4720 C   0  0  0  0  0  0  0  0  0  0  0  0
   -9.1640   20.0550  -32.4950 O   0  0  0  0  0  0  0  0  0  0  0  0
   -9.7980   21.2150  -31.9650 C   0  0  0  0  0  0  0  0  0  0  0  0
   -9.7761   21.1750  -30.8659 H   0  0  0  0  0  0  0  0  0  0  0  0
   -9.2657   22.1137  -32.3099 H   0  0  0  0  0  0  0  0  0  0  0  0
  -10.8419   21.2522  -32.3099 H   0  0  0  0  0  0  0  0  0  0  0  0
   -7.1620   19.0230  -31.4970 C   0  0  0  0  0  0  0  0  0  0  0  0
   -7.7717   18.5384  -30.7202 H   0  0  0  0  0  0  0  0  0  0  0  0
   -5.7770   18.8360  -31.5120 C   0  0  0  0  0  0  0  0  0  0  0  0
   -5.3037   18.1978  -30.7513 H   0  0  0  0  0  0  0  0  0  0  0  0
   -2.5420   20.1700  -32.0790 C   0  0  0  0  0  0  0  0  0  0  0  0
   -2.7260   21.5070  -31.4750 C   0  0  0  0  0  0  0  0  0  0  0  0
   -3.9540   22.1670  -31.6440 C   0  0  0  0  0  0  0  0  0  0  0  0
   -4.7573   21.6743  -32.2113 H   0  0  0  0  0  0  0  0  0  0  0  0
   -4.1770   23.4460  -31.1020 C   0  0  0  0  0  0  0  0  0  0  0  0
   -5.4960   24.1610  -31.3510 C   0  0  0  0  0  0  0  0  0  0  0  0
   -5.2700   25.1312  -31.8176 H   0  0  0  0  0  0  0  0  0  0  0  0
   -6.2330   24.4340  -30.0340 C   0  0  0  0  0  0  0  0  0  0  0  0
   -5.5741   24.1899  -29.1877 H   0  0  0  0  0  0  0  0  0  0  0  0
   -6.5148   25.4962  -29.9849 H   0  0  0  0  0  0  0  0  0  0  0  0
   -7.1387   23.8117  -29.9849 H   0  0  0  0  0  0  0  0  0  0  0  0
   -6.3790   23.3660  -32.3220 C   0  0  0  0  0  0  0  0  0  0  0  0
   -7.0777   22.7369  -31.7510 H   0  0  0  0  0  0  0  0  0  0  0  0
   -6.9471   24.0631  -32.9555 H   0  0  0  0  0  0  0  0  0  0  0  0
   -5.7452   22.7281  -32.9555 H   0  0  0  0  0  0  0  0  0  0  0  0
   -3.1560   24.0430  -30.3360 C   0  0  0  0  0  0  0  0  0  0  0  0
   -3.3330   25.2980  -29.7620 O   0  0  0  0  0  0  0  0  0  0  0  0
   -1.9420   23.3790  -30.1420 C   0  0  0  0  0  0  0  0  0  0  0  0
   -1.1584   23.8487  -29.5293 H   0  0  0  0  0  0  0  0  0  0  0  0
   -1.7100   22.1260  -30.7160 C   0  0  0  0  0  0  0  0  0  0  0  0
   -0.4550   21.5410  -30.5330 O   0  0  0  0  0  0  0  0  0  0  0  0
   -0.1940   20.6500  -30.9350 H   0  0  0  0  0  0  0  0  0  0  0  0
   -1.3750   19.6040  -32.2640 O   0  0  0  0  0  0  0  0  0  0  0  0
  1  2  1  0
  2  3  2  0
  3  4  1  0
  4  5  1  0
  5  6  1  0
  6  7  2  0
  7  8  1  0
  7  9  1  0
  9 10  1  0
  9 11  2  0
 11 12  1  0
 12 13  1  0
 13 14  1  0
 13 15  1  0
 13 16  1  0
 11 17  1  0
 17 18  1  0
 17 19  2  0
 19 20  1  0
  5 21  2  0
 21 22  1  0
 22 23  2  0
 23 24  1  0
 23 25  1  0
 25 26  1  0
 26 27  1  0
 26 28  1  0
 28 29  1  0
 28 30  1  0
 28 31  1  0
 26 32  1  0
 32 33  1  0
 32 34  1  0
 32 35  1  0
 25 36  2  0
 36 37  1  0
 36 38  1  0
 38 39  1  0
 38 40  2  0
 40 41  1  0
 41 42  1  0
 21 43  1  0
 43  3  1  0
 19  6  1  0
 40 22  1  0
M  CHG  2   4  -1  37  -1
M  END
>  <UniqueID>  (8) 
8

>  <SMILES>  (8) 
[H]/N=c1/[n-]c(-c2ccc(OC)cc2)c(-c2cc(C(C)C)c([O-])cc2O)o1

>  <Energy>  (8) 
80.3032689142667

>  <Genealogy>  (8) 
COc1ccc(-c2[n-]c(=N)oc2-c2cc(C(C)C)c([O-])cc2O)cc1 (protonated)
[H]/N=c1/[n-]c(-c2ccc(OC)cc2)c(-c2cc(C(C)C)c([O-])cc2O)o1 (cis-trans isomerization)
[H]/N=c1/[n-]c(-c2ccc(OC)cc2)c(-c2cc(C(C)C)c([O-])cc2O)o1 (3D coordinates assigned)
[H]/N=c1/[n-]c(-c2ccc(OC)cc2)c(-c2cc(C(C)C)c([O-])cc2O)o1 (optimized conformer: 80.3032689142667 kcal/mol)

>  <smiles>  (8) 
COc1ccc(-c2[nH]c(=N)oc2-c2cc(C(C)C)c(O)cc2O)cc1

>  <score_type>  (8) 
oracle

>  <origin>  (8) 
adgpu

>  <m_score__min__energy>  (8) 
-9.5

>  <m_primary>  (8) 
energy

$$$$
8:0
     RDKit          3D

 51 55  0  0  0  0  0  0  0  0999 V2000
   -9.6530   19.1150  -32.9210 O   0  0  0  0  0  0  0  0  0  0  0  0
   -9.0610   20.1110  -32.4190 C   0  0  0  0  0  0  0  0  0  0  0  0
   -9.8240   21.1910  -31.9720 C   0  0  0  0  0  0  0  0  0  0  0  0
   -9.1960   22.2930  -31.4070 C   0  0  0  0  0  0  0  0  0  0  0  0
   -7.8040   22.3230  -31.2950 C   0  0  0  0  0  0  0  0  0  0  0  0
   -7.1640   23.4340  -30.7270 C   0  0  0  0  0  0  0  0  0  0  0  0
   -5.7700   23.4670  -30.6180 C   0  0  0  0  0  0  0  0  0  0  0  0
   -4.9660   24.8530  -29.8860 S   0  0  0  0  0  0  0  0  0  0  0  0
   -5.9440   25.9690  -29.6430 O   0  0  0  0  0  0  0  0  0  0  0  0
   -3.8950   25.3380  -30.8200 O   0  0  0  0  0  0  0  0  0  0  0  0
   -4.2380   24.3970  -28.3760 N   0  0  0  0  0  0  0  0  0  0  0  0
   -3.0190   24.6530  -28.0000 C   0  0  0  0  0  0  0  0  0  0  0  0
   -2.6170   24.2320  -26.7720 N   0  0  0  0  0  0  0  0  0  0  0  0
   -1.3610   24.4740  -26.3170 C   0  0  0  0  0  0  0  0  0  0  0  0
   -0.4570   25.1690  -27.1140 C   0  0  0  0  0  0  0  0  0  0  0  0
   -0.8750   25.5980  -28.3710 C   0  0  0  0  0  0  0  0  0  0  0  0
   -2.1400   25.3360  -28.7980 N   0  0  0  0  0  0  0  0  0  0  0  0
   -5.0120   22.3920  -31.0910 C   0  0  0  0  0  0  0  0  0  0  0  0
   -5.6370   21.2790  -31.6570 C   0  0  0  0  0  0  0  0  0  0  0  0
   -7.0460   21.2180  -31.7620 C   0  0  0  0  0  0  0  0  0  0  0  0
   -7.6920   20.1280  -32.3100 N   0  0  0  0  0  0  0  0  0  0  0  0
   -6.9520   18.9790  -32.7680 C   0  0  0  0  0  0  0  0  0  0  0  0
   -6.8070   17.8580  -31.9400 C   0  0  0  0  0  0  0  0  0  0  0  0
   -6.0910   16.7450  -32.3850 C   0  0  0  0  0  0  0  0  0  0  0  0
   -5.5100   16.7340  -33.6660 C   0  0  0  0  0  0  0  0  0  0  0  0
   -4.7590   15.5410  -34.1280 C   0  0  0  0  0  0  0  0  0  0  0  0
   -5.2860   14.2520  -33.9360 C   0  0  0  0  0  0  0  0  0  0  0  0
   -4.5820   13.1270  -34.3770 C   0  0  0  0  0  0  0  0  0  0  0  0
   -3.3480   13.2770  -35.0180 C   0  0  0  0  0  0  0  0  0  0  0  0
   -2.4760   11.8560  -35.5690 Cl  0  0  0  0  0  0  0  0  0  0  0  0
   -2.8190   14.5560  -35.2210 C   0  0  0  0  0  0  0  0  0  0  0  0
   -1.6270   14.7120  -35.8500 F   0  0  0  0  0  0  0  0  0  0  0  0
   -3.5200   15.6830  -34.7800 C   0  0  0  0  0  0  0  0  0  0  0  0
   -5.6510   17.8670  -34.4910 C   0  0  0  0  0  0  0  0  0  0  0  0
   -5.0670   17.9140  -35.7160 F   0  0  0  0  0  0  0  0  0  0  0  0
   -6.3670   18.9810  -34.0410 C   0  0  0  0  0  0  0  0  0  0  0  0
  -10.9197   21.1692  -32.0671 H   0  0  0  0  0  0  0  0  0  0  0  0
   -9.7949   23.1427  -31.0475 H   0  0  0  0  0  0  0  0  0  0  0  0
   -7.7614   24.2839  -30.3653 H   0  0  0  0  0  0  0  0  0  0  0  0
   -1.0587   24.1212  -25.3199 H   0  0  0  0  0  0  0  0  0  0  0  0
    0.5638   25.3747  -26.7596 H   0  0  0  0  0  0  0  0  0  0  0  0
   -0.1803   26.1504  -29.0208 H   0  0  0  0  0  0  0  0  0  0  0  0
   -2.4040   25.6710  -29.7490 H   0  0  0  0  0  0  0  0  0  0  0  0
   -3.9149   22.4231  -31.0168 H   0  0  0  0  0  0  0  0  0  0  0  0
   -5.0270   20.4409  -32.0251 H   0  0  0  0  0  0  0  0  0  0  0  0
   -7.2584   17.8548  -30.9369 H   0  0  0  0  0  0  0  0  0  0  0  0
   -5.9803   15.8694  -31.7284 H   0  0  0  0  0  0  0  0  0  0  0  0
   -6.2578   14.1275  -33.4360 H   0  0  0  0  0  0  0  0  0  0  0  0
   -4.9998   12.1217  -34.2194 H   0  0  0  0  0  0  0  0  0  0  0  0
   -3.1003   16.6865  -34.9438 H   0  0  0  0  0  0  0  0  0  0  0  0
   -6.4713   19.8631  -34.6898 H   0  0  0  0  0  0  0  0  0  0  0  0
  1  2  2  0
  2  3  1  0
  3  4  2  0
  4  5  1  0
  5  6  2  0
  6  7  1  0
  7  8  1  0
  8  9  2  0
  8 10  2  0
  8 11  1  0
 11 12  2  3
 12 13  1  0
 13 14  2  0
 14 15  1  0
 15 16  2  0
 16 17  1  0
  7 18  2  0
 18 19  1  0
 19 20  2  0
 20 21  1  0
 21 22  1  0
 22 23  2  0
 23 24  1  0
 24 25  2  0
 25 26  1  0
 26 27  2  0
 27 28  1  0
 28 29  2  0
 29 30  1  0
 29 31  1  0
 31 32  1  0
 31 33  2  0
 25 34  1  0
 34 35  1  0
 34 36  2  0
 21  2  1  0
 36 22  1  0
 20  5  1  0
 33 26  1  0
 17 12  1  0
  3 37  1  0
  4 38  1  0
  6 39  1  0
 14 40  1  0
 15 41  1  0
 16 42  1  0
 17 43  1  0
 18 44  1  0
 19 45  1  0
 23 46  1  0
 24 47  1  0
 27 48  1  0
 28 49  1  0
 33 50  1  0
 36 51  1  0
M  END
>  <UniqueID>  (9) 
9

>  <SMILES>  (9) 
O=c1ccc2cc(S(=O)(=O)N=c3nccc[nH]3)ccc2n1-c1ccc(-c2ccc(Cl)c(F)c2)c(F)c1

>  <Energy>  (9) 
85.26297890095317

>  <Genealogy>  (9) 
O=c1ccc2cc(S(=O)(=O)N=c3nccc[nH]3)ccc2n1-c1ccc(-c2ccc(Cl)c(F)c2)c(F)c1 (3D coordinates assigned)
O=c1ccc2cc(S(=O)(=O)N=c3nccc[nH]3)ccc2n1-c1ccc(-c2ccc(Cl)c(F)c2)c(F)c1 (optimized conformer: 85.26297890095317 kcal/mol)

>  <smiles>  (9) 
O=c1ccc2cc(S(=O)(=O)N=c3nccc[nH]3)ccc2n1-c1ccc(-c2ccc(Cl)c(F)c2)c(F)c1

>  <score_type>  (9) 
oracle

>  <origin>  (9) 
adgpu

>  <m_score__min__energy>  (9) 
-12.24

>  <m_primary>  (9) 
energy

$$$$
9:0
     RDKit          3D

 41 43  0  0  0  0  0  0  0  0999 V2000
   -3.3500   21.2708  -28.3512 H   0  0  0  0  0  0  0  0  0  0  0  0
   -2.7720   21.2560  -29.2870 C   0  0  0  0  0  0  0  0  0  0  0  0
   -3.2540   20.5410  -30.3870 C   0  0  0  0  0  0  0  0  0  0  0  0
   -4.2115   20.0044  -30.3147 H   0  0  0  0  0  0  0  0  0  0  0  0
   -2.5240   20.5050  -31.5790 C   0  0  0  0  0  0  0  0  0  0  0  0
   -3.1300   19.5950  -32.9580 S   0  0  0  0  0  0  0  0  0  0  0  0
   -2.3840   18.3040  -33.1410 O   0  0  0  0  0  0  0  0  0  0  0  0
   -2.9230   20.4370  -34.1860 O   0  0  0  0  0  0  0  0  0  0  0  0
   -4.8280   19.2710  -32.8020 N   0  0  0  0  0  0  0  0  0  0  0  0
   -5.8210   20.0840  -32.5730 C   0  0  0  0  0  0  0  0  0  0  0  0
   -7.0540   19.6410  -32.4810 O   0  0  0  0  0  0  0  0  0  0  0  0
   -7.8810   20.6190  -32.2670 N   0  0  0  0  0  0  0  0  0  0  0  0
   -8.9140   20.5140  -32.1660 H   0  0  0  0  0  0  0  0  0  0  0  0
   -7.1760   21.7630  -32.2170 C   0  0  0  0  0  0  0  0  0  0  0  0
   -7.7880   23.1130  -32.0130 C   0  0  0  0  0  0  0  0  0  0  0  0
   -7.8796   23.3150  -30.9356 H   0  0  0  0  0  0  0  0  0  0  0  0
   -7.1492   23.8791  -32.4767 H   0  0  0  0  0  0  0  0  0  0  0  0
   -8.7852   23.1374  -32.4767 H   0  0  0  0  0  0  0  0  0  0  0  0
   -5.8290   21.4750  -32.3950 C   0  0  0  0  0  0  0  0  0  0  0  0
   -4.7310   22.4940  -32.4840 C   0  0  0  0  0  0  0  0  0  0  0  0
   -4.4176   22.7848  -31.4705 H   0  0  0  0  0  0  0  0  0  0  0  0
   -3.8743   22.0637  -33.0234 H   0  0  0  0  0  0  0  0  0  0  0  0
   -5.0962   23.3804  -33.0234 H   0  0  0  0  0  0  0  0  0  0  0  0
   -1.3120   21.2040  -31.6690 C   0  0  0  0  0  0  0  0  0  0  0  0
   -0.7391   21.1889  -32.6079 H   0  0  0  0  0  0  0  0  0  0  0  0
   -0.8290   21.9200  -30.5700 C   0  0  0  0  0  0  0  0  0  0  0  0
    0.1265   22.4596  -30.6465 H   0  0  0  0  0  0  0  0  0  0  0  0
   -1.5580   21.9550  -29.3650 C   0  0  0  0  0  0  0  0  0  0  0  0
   -1.0910   22.6820  -28.2120 N   0  0  0  0  0  0  0  0  0  0  0  0
   -0.2670   22.3090  -27.6890 H   0  0  0  0  0  0  0  0  0  0  0  0
   -1.7220   23.8920  -27.6830 C   0  0  0  0  0  0  0  0  0  0  0  0
   -2.0745   23.6974  -26.6593 H   0  0  0  0  0  0  0  0  0  0  0  0
   -0.9820   24.7059  -27.6837 H   0  0  0  0  0  0  0  0  0  0  0  0
   -2.8900   24.3000  -28.5380 C   0  0  0  0  0  0  0  0  0  0  0  0
   -2.6700   24.9250  -29.7250 N   0  0  0  0  0  0  0  0  0  0  0  0
   -3.6800   25.2950  -30.5120 N   0  0  0  0  0  0  0  0  0  0  0  0
   -4.9660   25.0590  -30.1470 C   0  0  0  0  0  0  0  0  0  0  0  0
   -5.9110   25.4130  -30.8980 O   0  0  0  0  0  0  0  0  0  0  0  0
   -5.2280   24.4410  -28.9680 N   0  0  0  0  0  0  0  0  0  0  0  0
   -4.2160   24.0550  -28.1510 C   0  0  0  0  0  0  0  0  0  0  0  0
   -4.4780   23.4850  -27.0590 O   0  0  0  0  0  0  0  0  0  0  0  0
  1  2  1  0
  2  3  2  0
  3  4  1  0
  3  5  1  0
  5  6  1  0
  6  7  2  0
  6  8  2  0
  6  9  1  0
  9 10  2  0
 10 11  1  0
 11 12  1  0
 12 13  1  0
 12 14  1  0
 14 15  1  0
 15 16  1  0
 15 17  1  0
 15 18  1  0
 14 19  2  0
 19 20  1  0
 20 21  1  0
 20 22  1  0
 20 23  1  0
  5 24  2  0
 24 25  1  0
 24 26  1  0
 26 27  1  0
 26 28  2  0
 28 29  1  0
 29 30  1  0
 29 31  1  0
 31 32  1  0
 31 33  1  0
 31 34  1  0
 34 35  2  0
 35 36  1  0
 36 37  1  0
 37 38  2  0
 37 39  1  0
 39 40  1  0
 40 41  2  0
 28  2  1  0
 40 34  1  0
 19 10  1  0
M  CHG  2  36  -1  39  -1
M  END
>  <UniqueID>  (10) 
10

>  <SMILES>  (10) 
Cc1[nH]o/c(=N/S(=O)(=O)c2ccc(NCc3n[n-]c(=O)[n-]c3=O)cc2)c1C

>  <Energy>  (10) 
85.15501512559524

>  <Genealogy>  (10) 
Cc1[nH]oc(=NS(=O)(=O)c2ccc(NCc3n[n-]c(=O)[n-]c3=O)cc2)c1C (protonated)
Cc1[nH]o/c(=N/S(=O)(=O)c2ccc(NCc3n[n-]c(=O)[n-]c3=O)cc2)c1C (cis-trans isomerization)
Cc1[nH]o/c(=N/S(=O)(=O)c2ccc(NCc3n[n-]c(=O)[n-]c3=O)cc2)c1C (3D coordinates assigned)
Cc1[nH]o/c(=N/S(=O)(=O)c2ccc(NCc3n[n-]c(=O)[n-]c3=O)cc2)c1C (optimized conformer: 85.15501512559524 kcal/mol)

>  <smiles>  (10) 
Cc1[nH]oc(=NS(=O)(=O)c2ccc(NCc3n[nH]c(=O)[nH]c3=O)cc2)c1C

>  <score_type>  (10) 
oracle

>  <origin>  (10) 
adgpu

>  <m_score__min__energy>  (10) 
-11.109999999999999

>  <m_primary>  (10) 
energy

$$$$
10:0
     RDKit          3D

 51 53  0  0  0  0  0  0  0  0999 V2000
   -6.1350   17.1570  -34.5420 C   0  0  0  0  0  0  0  0  0  0  0  0
   -5.3690   18.3500  -34.0450 C   0  0  0  0  0  0  0  0  0  0  0  0
   -3.9780   18.4090  -34.2190 C   0  0  0  0  0  0  0  0  0  0  0  0
   -3.2550   19.5070  -33.7440 C   0  0  0  0  0  0  0  0  0  0  0  0
   -3.9130   20.5520  -33.0870 C   0  0  0  0  0  0  0  0  0  0  0  0
   -5.3070   20.5040  -32.8940 C   0  0  0  0  0  0  0  0  0  0  0  0
   -6.0160   21.6140  -32.2060 C   0  0  0  0  0  0  0  0  0  0  0  0
   -7.4220   21.6920  -32.2330 C   0  0  0  0  0  0  0  0  0  0  0  0
   -8.0860   22.7530  -31.6100 C   0  0  0  0  0  0  0  0  0  0  0  0
   -7.3590   23.7460  -30.9540 C   0  0  0  0  0  0  0  0  0  0  0  0
   -5.9600   23.6800  -30.9120 C   0  0  0  0  0  0  0  0  0  0  0  0
   -5.0300   24.8970  -30.0430 S   0  0  0  0  0  0  0  0  0  0  0  0
   -3.6650   24.9980  -30.6640 O   0  0  0  0  0  0  0  0  0  0  0  0
   -5.7040   26.2380  -30.1180 O   0  0  0  0  0  0  0  0  0  0  0  0
   -4.8760   24.4300  -28.3810 N   0  0  0  0  0  0  0  0  0  0  0  0
   -3.6380   23.9790  -27.8060 C   0  0  0  0  0  0  0  0  0  0  0  0
   -3.2700   22.6220  -27.8210 C   0  0  0  0  0  0  0  0  0  0  0  0
   -2.0510   22.2150  -27.2770 C   0  0  0  0  0  0  0  0  0  0  0  0
   -1.1970   23.1500  -26.6900 C   0  0  0  0  0  0  0  0  0  0  0  0
   -1.5630   24.5040  -26.6350 C   0  0  0  0  0  0  0  0  0  0  0  0
   -0.6410   25.5130  -25.9990 C   0  0  0  0  0  0  0  0  0  0  0  0
   -1.3950   26.3590  -24.9600 C   0  0  0  0  0  0  0  0  0  0  0  0
   -0.8430   26.1610  -23.5340 C   0  0  0  0  0  0  0  0  0  0  0  0
    0.1550   27.1700  -23.1770 N   0  0  0  0  0  0  0  0  0  0  0  0
   -2.7780   24.9140  -27.2080 C   0  0  0  0  0  0  0  0  0  0  0  0
   -5.2930   22.6170  -31.5380 C   0  0  0  0  0  0  0  0  0  0  0  0
   -6.0280   19.3930  -33.3730 C   0  0  0  0  0  0  0  0  0  0  0  0
   -6.5073   16.5771  -33.6846 H   0  0  0  0  0  0  0  0  0  0  0  0
   -6.9850   17.4954  -35.1526 H   0  0  0  0  0  0  0  0  0  0  0  0
   -5.4735   16.5249  -35.1526 H   0  0  0  0  0  0  0  0  0  0  0  0
   -3.4545   17.5882  -34.7311 H   0  0  0  0  0  0  0  0  0  0  0  0
   -2.1652   19.5494  -33.8873 H   0  0  0  0  0  0  0  0  0  0  0  0
   -3.3388   21.4153  -32.7194 H   0  0  0  0  0  0  0  0  0  0  0  0
   -8.0021   20.9122  -32.7482 H   0  0  0  0  0  0  0  0  0  0  0  0
   -9.1844   22.8047  -31.6373 H   0  0  0  0  0  0  0  0  0  0  0  0
   -7.8844   24.5819  -30.4690 H   0  0  0  0  0  0  0  0  0  0  0  0
   -5.6820   24.6410  -27.7510 H   0  0  0  0  0  0  0  0  0  0  0  0
   -3.9470   21.8768  -28.2642 H   0  0  0  0  0  0  0  0  0  0  0  0
   -1.7623   21.1541  -27.3109 H   0  0  0  0  0  0  0  0  0  0  0  0
   -0.2341   22.8248  -26.2692 H   0  0  0  0  0  0  0  0  0  0  0  0
    0.1859   24.9840  -25.5025 H   0  0  0  0  0  0  0  0  0  0  0  0
   -0.2517   26.1796  -26.7826 H   0  0  0  0  0  0  0  0  0  0  0  0
   -1.3003   27.4206  -25.2320 H   0  0  0  0  0  0  0  0  0  0  0  0
   -2.4467   26.0366  -24.9620 H   0  0  0  0  0  0  0  0  0  0  0  0
   -1.6779   26.2220  -22.8204 H   0  0  0  0  0  0  0  0  0  0  0  0
   -0.3528   25.1769  -23.4978 H   0  0  0  0  0  0  0  0  0  0  0  0
    0.8870   26.7360  -22.5710 H   0  0  0  0  0  0  0  0  0  0  0  0
   -0.3060   27.9390  -22.6370 H   0  0  0  0  0  0  0  0  0  0  0  0
   -3.0584   25.9775  -27.1881 H   0  0  0  0  0  0  0  0  0  0  0  0
   -4.1946   22.5679  -31.5059 H   0  0  0  0  0  0  0  0  0  0  0  0
   -7.1160   19.3415  -33.2197 H   0  0  0  0  0  0  0  0  0  0  0  0
  1  2  1  0
  2  3  2  0
  3  4  1  0
  4  5  2  0
  5  6  1  0
  6  7  1  0
  7  8  2  0
  8  9  1  0
  9 10  2  0
 10 11  1  0
 11 12  1  0
 12 13  2  0
 12 14  2  0
 12 15  1  0
 15 16  1  0
 16 17  2  0
 17 18  1  0
 18 19  2  0
 19 20  1  0
 20 21  1  0
 21 22  1  0
 22 23  1  0
 23 24  1  0
 20 25  2  0
 11 26  2  0
  6 27  2  0
 27  2  1  0
 26  7  1  0
 25 16  1  0
  1 28  1  0
  1 29  1  0
  1 30  1  0
  3 31  1  0
  4 32  1  0
  5 33  1  0
  8 34  1  0
  9 35  1  0
 10 36  1  0
 15 37  1  0
 17 38  1  0
 18 39  1  0
 19 40  1  0
 21 41  1  0
 21 42  1  0
 22 43  1  0
 22 44  1  0
 23 45  1  0
 23 46  1  0
 24 47  1  0
 24 48  1  0
 25 49  1  0
 26 50  1  0
 27 51  1  0
M  END
>  <UniqueID>  (11) 
11

>  <SMILES>  (11) 
Cc1cccc(-c2cccc(S(=O)(=O)Nc3cccc(CCCN)c3)c2)c1

>  <Energy>  (11) 
54.618190401805606

>  <Genealogy>  (11) 
Cc1cccc(-c2cccc(S(=O)(=O)Nc3cccc(CCCN)c3)c2)c1 (3D coordinates assigned)
Cc1cccc(-c2cccc(S(=O)(=O)Nc3cccc(CCCN)c3)c2)c1 (optimized conformer: 54.618190401805606 kcal/mol)

>  <smiles>  (11) 
Cc1cccc(-c2cccc(S(=O)(=O)Nc3cccc(CCCN)c3)c2)c1

>  <score_type>  (11) 
oracle

>  <origin>  (11) 
adgpu

>  <m_score__min__energy>  (11) 
-11.08

>  <m_primary>  (11) 
energy

$$$$
11:0
     RDKit          3D

 46 48  0  0  0  0  0  0  0  0999 V2000
   -4.0740   21.1150  -33.4570 C   0  0  0  0  0  0  0  0  0  0  0  0
   -5.4100   20.5620  -33.0810 C   0  0  0  0  0  0  0  0  0  0  0  0
   -5.7820   19.2870  -33.3040 N   0  0  0  0  0  0  0  0  0  0  0  0
   -6.9920   19.1530  -32.8390 O   0  0  0  0  0  0  0  0  0  0  0  0
   -7.4300   20.2790  -32.3220 C   0  0  0  0  0  0  0  0  0  0  0  0
   -8.7720   20.4500  -31.6920 C   0  0  0  0  0  0  0  0  0  0  0  0
   -6.4380   21.2300  -32.4420 C   0  0  0  0  0  0  0  0  0  0  0  0
   -6.4920   22.9060  -31.9010 S   0  0  0  0  0  0  0  0  0  0  0  0
   -7.5410   23.0320  -30.8310 O   0  0  0  0  0  0  0  0  0  0  0  0
   -6.8500   23.8100  -33.0490 O   0  0  0  0  0  0  0  0  0  0  0  0
   -4.9330   23.3660  -31.2640 N   0  0  0  0  0  0  0  0  0  0  0  0
   -5.0160   24.6470  -30.5180 C   0  0  0  0  0  0  0  0  0  0  0  0
   -5.0420   24.4570  -28.9920 C   0  0  0  0  0  0  0  0  0  0  0  0
   -3.8020   23.6740  -28.4900 C   0  0  0  0  0  0  0  0  0  0  0  0
   -2.7210   24.6010  -27.9940 C   0  0  0  0  0  0  0  0  0  0  0  0
   -2.0630   25.2910  -28.8200 O   0  0  0  0  0  0  0  0  0  0  0  0
   -2.3810   24.6230  -26.5980 N   0  0  0  0  0  0  0  0  0  0  0  0
   -1.5280   25.6100  -25.9920 C   0  0  0  0  0  0  0  0  0  0  0  0
   -0.9260   25.3920  -24.7410 C   0  0  0  0  0  0  0  0  0  0  0  0
   -0.0820   26.3580  -24.1870 C   0  0  0  0  0  0  0  0  0  0  0  0
    0.1820   27.5450  -24.8750 C   0  0  0  0  0  0  0  0  0  0  0  0
    1.2500   28.7360  -24.1450 Cl  0  0  0  0  0  0  0  0  0  0  0  0
   -0.3970   27.7630  -26.1360 C   0  0  0  0  0  0  0  0  0  0  0  0
   -0.0820   29.2350  -27.0420 Cl  0  0  0  0  0  0  0  0  0  0  0  0
   -1.2420   26.7920  -26.6900 C   0  0  0  0  0  0  0  0  0  0  0  0
   -3.2350   22.7220  -29.5660 C   0  0  0  0  0  0  0  0  0  0  0  0
   -4.3490   22.2420  -30.5000 C   0  0  0  0  0  0  0  0  0  0  0  0
   -3.5050   21.3505  -32.5456 H   0  0  0  0  0  0  0  0  0  0  0  0
   -3.5232   20.3709  -34.0511 H   0  0  0  0  0  0  0  0  0  0  0  0
   -4.2102   22.0307  -34.0511 H   0  0  0  0  0  0  0  0  0  0  0  0
   -8.6674   20.4367  -30.5971 H   0  0  0  0  0  0  0  0  0  0  0  0
   -9.2054   21.4106  -32.0073 H   0  0  0  0  0  0  0  0  0  0  0  0
   -9.4324   19.6287  -32.0073 H   0  0  0  0  0  0  0  0  0  0  0  0
   -4.1417   25.2613  -30.7793 H   0  0  0  0  0  0  0  0  0  0  0  0
   -5.9610   25.1319  -30.8039 H   0  0  0  0  0  0  0  0  0  0  0  0
   -5.0583   25.4456  -28.5100 H   0  0  0  0  0  0  0  0  0  0  0  0
   -5.9407   23.8775  -28.7341 H   0  0  0  0  0  0  0  0  0  0  0  0
   -4.1486   23.0595  -27.6460 H   0  0  0  0  0  0  0  0  0  0  0  0
   -2.7080   23.8260  -26.0050 H   0  0  0  0  0  0  0  0  0  0  0  0
   -1.1201   24.4567  -24.1955 H   0  0  0  0  0  0  0  0  0  0  0  0
    0.3775   26.1828  -23.2030 H   0  0  0  0  0  0  0  0  0  0  0  0
   -1.6855   26.9588  -27.6827 H   0  0  0  0  0  0  0  0  0  0  0  0
   -2.4735   23.2543  -30.1549 H   0  0  0  0  0  0  0  0  0  0  0  0
   -2.7883   21.8489  -29.0679 H   0  0  0  0  0  0  0  0  0  0  0  0
   -3.9332   21.5074  -31.2053 H   0  0  0  0  0  0  0  0  0  0  0  0
   -5.1431   21.7890  -29.8883 H   0  0  0  0  0  0  0  0  0  0  0  0
  1  2  1  0
  2  3  2  0
  3  4  1  0
  4  5  1  0
  5  6  1  0
  5  7  2  0
  7  8  1  0
  8  9  2  0
  8 10  2  0
  8 11  1  0
 11 12  1  0
 12 13  1  0
 13 14  1  0
 14 15  1  0
 15 16  2  0
 15 17  1  0
 17 18  1  0
 18 19  2  0
 19 20  1  0
 20 21  2  0
 21 22  1  0
 21 23  1  0
 23 24  1  0
 23 25  2  0
 14 26  1  0
 26 27  1  0
  7  2  1  0
 27 11  1  0
 25 18  1  0
  1 28  1  0
  1 29  1  0
  1 30  1  0
  6 31  1  0
  6 32  1  0
  6 33  1  0
 12 34  1  0
 12 35  1  0
 13 36  1  0
 13 37  1  0
 14 38  1  0
 17 39  1  0
 19 40  1  0
 20 41  1  0
 25 42  1  0
 26 43  1  0
 26 44  1  0
 27 45  1  0
 27 46  1  0
M  END
>  <UniqueID>  (12) 
12

>  <SMILES>  (12) 
Cc1noc(C)c1S(=O)(=O)N1CCC(C(=O)Nc2ccc(Cl)c(Cl)c2)CC1

>  <Energy>  (12) 
85.71895186750542

>  <Genealogy>  (12) 
Cc1noc(C)c1S(=O)(=O)N1CCC(C(=O)Nc2ccc(Cl)c(Cl)c2)CC1 (3D coordinates assigned)
Cc1noc(C)c1S(=O)(=O)N1CCC(C(=O)Nc2ccc(Cl)c(Cl)c2)CC1 (nonaromatic ring conformer: 85.71895186750542 kcal/mol)

>  <smiles>  (12) 
Cc1noc(C)c1S(=O)(=O)N1CCC(C(=O)Nc2ccc(Cl)c(Cl)c2)CC1

>  <score_type>  (12) 
oracle

>  <origin>  (12) 
adgpu

>  <m_score__min__energy>  (12) 
-9.4900000000000002

>  <m_primary>  (12) 
energy

$$$$
12:0
     RDKit          3D

 55 58  0  0  0  0  0  0  0  0999 V2000
   -3.3360   18.0660  -33.2910 C   0  0  0  0  0  0  0  0  0  0  0  0
   -4.7100   18.5360  -33.6490 C   0  0  0  0  0  0  0  0  0  0  0  0
   -5.3030   18.2630  -34.8270 N   0  0  0  0  0  0  0  0  0  0  0  0
   -6.4810   18.8140  -34.7970 O   0  0  0  0  0  0  0  0  0  0  0  0
   -6.6950   19.4370  -33.6620 C   0  0  0  0  0  0  0  0  0  0  0  0
   -7.8270   20.0390  -33.4250 N   0  0  0  0  0  0  0  0  0  0  0  0
   -8.3580   20.9090  -32.0190 S   0  0  0  0  0  0  0  0  0  0  0  0
   -8.4960   19.9360  -30.8810 O   0  0  0  0  0  0  0  0  0  0  0  0
   -9.7070   21.5190  -32.2800 O   0  0  0  0  0  0  0  0  0  0  0  0
   -7.1710   22.1150  -31.5470 C   0  0  0  0  0  0  0  0  0  0  0  0
   -6.4020   22.7810  -32.5110 C   0  0  0  0  0  0  0  0  0  0  0  0
   -5.4210   23.6950  -32.1170 C   0  0  0  0  0  0  0  0  0  0  0  0
   -5.2000   23.9510  -30.7520 C   0  0  0  0  0  0  0  0  0  0  0  0
   -4.1740   24.8540  -30.3190 N   0  0  0  0  0  0  0  0  0  0  0  0
   -2.9350   24.4640  -29.7110 C   0  0  0  0  0  0  0  0  0  0  0  0
   -2.3320   25.2950  -28.9850 O   0  0  0  0  0  0  0  0  0  0  0  0
   -2.3800   23.1040  -29.8860 C   0  0  0  0  0  0  0  0  0  0  0  0
   -2.2360   22.4360  -31.0920 C   0  0  0  0  0  0  0  0  0  0  0  0
   -1.6790   21.2090  -30.7940 C   0  0  0  0  0  0  0  0  0  0  0  0
   -1.3140   20.1700  -31.8100 C   0  0  0  0  0  0  0  0  0  0  0  0
   -1.4740   21.0980  -29.4640 N   0  0  0  0  0  0  0  0  0  0  0  0
   -0.8690   19.9820  -28.7900 C   0  0  0  0  0  0  0  0  0  0  0  0
   -1.5580   19.3100  -27.7660 C   0  0  0  0  0  0  0  0  0  0  0  0
   -0.9610   18.2310  -27.1070 C   0  0  0  0  0  0  0  0  0  0  0  0
    0.3280   17.8200  -27.4640 C   0  0  0  0  0  0  0  0  0  0  0  0
    1.0200   18.4820  -28.4800 C   0  0  0  0  0  0  0  0  0  0  0  0
    0.4230   19.5600  -29.1430 C   0  0  0  0  0  0  0  0  0  0  0  0
   -1.9120   22.2490  -28.8990 C   0  0  0  0  0  0  0  0  0  0  0  0
   -1.8340   22.5740  -27.4320 C   0  0  0  0  0  0  0  0  0  0  0  0
   -6.0070   23.3260  -29.7960 C   0  0  0  0  0  0  0  0  0  0  0  0
   -6.9830   22.4060  -30.1900 C   0  0  0  0  0  0  0  0  0  0  0  0
   -5.5540   19.3070  -32.8630 C   0  0  0  0  0  0  0  0  0  0  0  0
   -5.2650   19.7400  -31.4580 C   0  0  0  0  0  0  0  0  0  0  0  0
   -3.2340   18.0311  -32.1963 H   0  0  0  0  0  0  0  0  0  0  0  0
   -3.1724   17.0608  -33.7067 H   0  0  0  0  0  0  0  0  0  0  0  0
   -2.5910   18.7604  -33.7067 H   0  0  0  0  0  0  0  0  0  0  0  0
   -6.5709   22.5839  -33.5799 H   0  0  0  0  0  0  0  0  0  0  0  0
   -4.8199   24.2158  -32.8769 H   0  0  0  0  0  0  0  0  0  0  0  0
   -2.5112   22.8099  -32.0892 H   0  0  0  0  0  0  0  0  0  0  0  0
   -0.9916   19.2523  -31.2964 H   0  0  0  0  0  0  0  0  0  0  0  0
   -2.1886   19.9498  -32.4398 H   0  0  0  0  0  0  0  0  0  0  0  0
   -0.4938   20.5452  -32.4398 H   0  0  0  0  0  0  0  0  0  0  0  0
   -2.5702   19.6339  -27.4820 H   0  0  0  0  0  0  0  0  0  0  0  0
   -1.5045   17.7053  -26.3081 H   0  0  0  0  0  0  0  0  0  0  0  0
    0.7975   16.9728  -26.9426 H   0  0  0  0  0  0  0  0  0  0  0  0
    2.0331   18.1566  -28.7589 H   0  0  0  0  0  0  0  0  0  0  0  0
    0.9685   20.0794  -29.9447 H   0  0  0  0  0  0  0  0  0  0  0  0
   -2.0510   21.6699  -26.8441 H   0  0  0  0  0  0  0  0  0  0  0  0
   -0.8237   22.9352  -27.1897 H   0  0  0  0  0  0  0  0  0  0  0  0
   -2.5703   23.3544  -27.1897 H   0  0  0  0  0  0  0  0  0  0  0  0
   -5.8732   23.5593  -28.7294 H   0  0  0  0  0  0  0  0  0  0  0  0
   -7.6055   21.9089  -29.4315 H   0  0  0  0  0  0  0  0  0  0  0  0
   -5.7341   19.0371  -30.7539 H   0  0  0  0  0  0  0  0  0  0  0  0
   -4.1773   19.7518  -31.2943 H   0  0  0  0  0  0  0  0  0  0  0  0
   -5.6714   20.7490  -31.2943 H   0  0  0  0  0  0  0  0  0  0  0  0
  1  2  1  0
  2  3  1  0
  3  4  1  0
  4  5  1  0
  5  6  2  3
  6  7  1  0
  7  8  2  0
  7  9  2  0
  7 10  1  0
 10 11  2  0
 11 12  1  0
 12 13  2  0
 13 14  1  0
 14 15  1  0
 15 16  2  0
 15 17  1  0
 17 18  1  0
 18 19  2  0
 19 20  1  0
 19 21  1  0
 21 22  1  0
 22 23  2  0
 23 24  1  0
 24 25  2  0
 25 26  1  0
 26 27  2  0
 21 28  1  0
 28 29  1  0
 13 30  1  0
 30 31  2  0
  5 32  1  0
 32 33  1  0
 32  2  2  0
 31 10  1  0
 28 17  2  0
 27 22  1  0
  1 34  1  0
  1 35  1  0
  1 36  1  0
 11 37  1  0
 12 38  1  0
 18 39  1  0
 20 40  1  0
 20 41  1  0
 20 42  1  0
 23 43  1  0
 24 44  1  0
 25 45  1  0
 26 46  1  0
 27 47  1  0
 29 48  1  0
 29 49  1  0
 29 50  1  0
 30 51  1  0
 31 52  1  0
 33 53  1  0
 33 54  1  0
 33 55  1  0
M  CHG  2   3  -1  14  -1
M  END
>  <UniqueID>  (13) 
13

>  <SMILES>  (13) 
Cc1[n-]oc(=NS(=O)(=O)c2ccc([N-]C(=O)c3cc(C)n(-c4ccccc4)c3C)cc2)c1C

>  <Energy>  (13) 
133.99519378047026

>  <Genealogy>  (13) 
Cc1[n-]oc(=NS(=O)(=O)c2ccc([N-]C(=O)c3cc(C)n(-c4ccccc4)c3C)cc2)c1C (protonated)
Cc1[n-]oc(=NS(=O)(=O)c2ccc([N-]C(=O)c3cc(C)n(-c4ccccc4)c3C)cc2)c1C (3D coordinates assigned)
Cc1[n-]oc(=NS(=O)(=O)c2ccc([N-]C(=O)c3cc(C)n(-c4ccccc4)c3C)cc2)c1C (optimized conformer: 133.99519378047026 kcal/mol)

>  <smiles>  (13) 
Cc1[nH]oc(=NS(=O)(=O)c2ccc(NC(=O)c3cc(C)n(-c4ccccc4)c3C)cc2)c1C

>  <score_type>  (13) 
oracle

>  <origin>  (13) 
adgpu

>  <m_score__min__energy>  (13) 
-12.1

>  <m_primary>  (13) 
energy

$$$$
13:0
     RDKit          3D

 36 37  0  0  0  0  0  0  0  0999 V2000
   -6.6070   25.6670  -29.3650 C   0  0  0  0  0  0  0  0  0  0  0  0
   -5.6010   25.9630  -30.4710 C   0  0  0  0  0  0  0  0  0  0  0  0
   -4.8550   24.7530  -30.8140 N   0  0  0  0  0  0  0  0  0  0  0  0
   -5.3400   23.6780  -31.4660 C   0  0  0  0  0  0  0  0  0  0  0  0
   -4.3610   22.7010  -31.5360 C   0  0  0  0  0  0  0  0  0  0  0  0
   -4.5200   21.3150  -32.1050 C   0  0  2  0  0  0  0  0  0  0  0  0
   -4.6520   21.4040  -33.5020 O   0  0  0  0  0  0  0  0  0  0  0  0
   -5.7160   20.6480  -31.5270 N   0  0  0  0  0  0  0  0  0  0  0  0
   -6.9230   20.6530  -32.3880 C   0  0  0  0  0  0  0  0  0  0  0  0
   -7.9600   21.7140  -31.9800 C   0  0  0  0  0  0  0  0  0  0  0  0
   -9.2750   20.9740  -31.7760 C   0  0  0  0  0  0  0  0  0  0  0  0
   -9.1340   19.6600  -32.5260 C   0  0  0  0  0  0  0  0  0  0  0  0
   -7.6600   19.3060  -32.4470 C   0  0  0  0  0  0  0  0  0  0  0  0
   -3.2460   23.1870  -30.8740 C   0  0  0  0  0  0  0  0  0  0  0  0
   -3.5950   24.4500  -30.4460 C   0  0  0  0  0  0  0  0  0  0  0  0
   -2.7710   25.2970  -29.7140 O   0  0  0  0  0  0  0  0  0  0  0  0
   -6.1270   25.8082  -28.3854 H   0  0  0  0  0  0  0  0  0  0  0  0
   -7.4635   26.3512  -29.4557 H   0  0  0  0  0  0  0  0  0  0  0  0
   -6.9565   24.6279  -29.4557 H   0  0  0  0  0  0  0  0  0  0  0  0
   -6.1362   26.3243  -31.3615 H   0  0  0  0  0  0  0  0  0  0  0  0
   -4.8963   26.7306  -30.1184 H   0  0  0  0  0  0  0  0  0  0  0  0
   -6.3559   23.5902  -31.8786 H   0  0  0  0  0  0  0  0  0  0  0  0
   -3.6325   20.7168  -31.8509 H   0  0  0  0  0  0  0  0  0  0  0  0
   -4.6110   22.3690  -33.7370 H   0  0  0  0  0  0  0  0  0  0  0  0
   -5.5060   19.6450  -31.3050 H   0  0  0  0  0  0  0  0  0  0  0  0
   -5.9610   21.1010  -30.6150 H   0  0  0  0  0  0  0  0  0  0  0  0
   -6.5064   20.8867  -33.3789 H   0  0  0  0  0  0  0  0  0  0  0  0
   -7.6523   22.2073  -31.0462 H   0  0  0  0  0  0  0  0  0  0  0  0
   -8.0566   22.4938  -32.7498 H   0  0  0  0  0  0  0  0  0  0  0  0
   -9.4469   20.7871  -30.7057 H   0  0  0  0  0  0  0  0  0  0  0  0
  -10.1297   21.5600  -32.1450 H   0  0  0  0  0  0  0  0  0  0  0  0
   -9.7435   18.8779  -32.0498 H   0  0  0  0  0  0  0  0  0  0  0  0
   -9.4788   19.7446  -33.5671 H   0  0  0  0  0  0  0  0  0  0  0  0
   -7.4537   18.7139  -31.5432 H   0  0  0  0  0  0  0  0  0  0  0  0
   -7.3371   18.6987  -33.3055 H   0  0  0  0  0  0  0  0  0  0  0  0
   -2.2851   22.6737  -30.7219 H   0  0  0  0  0  0  0  0  0  0  0  0
  1  2  1  0
  2  3  1  0
  3  4  1  0
  4  5  2  0
  5  6  1  0
  6  7  1  0
  6  8  1  0
  8  9  1  0
  9 10  1  0
 10 11  1  0
 11 12  1  0
 12 13  1  0
  5 14  1  0
 14 15  2  0
 15 16  1  0
 15  3  1  0
 13  9  1  0
  1 17  1  0
  1 18  1  0
  1 19  1  0
  2 20  1  0
  2 21  1  0
  4 22  1  0
  6 23  1  6
  7 24  1  0
  8 25  1  0
  8 26  1  0
  9 27  1  0
 10 28  1  0
 10 29  1  0
 11 30  1  0
 11 31  1  0
 12 32  1  0
 12 33  1  0
 13 34  1  0
 13 35  1  0
 14 36  1  0
M  CHG  2   8   1  16  -1
M  END
>  <UniqueID>  (14) 
14

>  <SMILES>  (14) 
CCn1cc([C@H](O)[NH2+]C2CCCC2)cc1[O-]

>  <Energy>  (14) 
64.41120747098165

>  <Genealogy>  (14) 
CCn1cc(C(O)[NH2+]C2CCCC2)cc1[O-] (protonated)
CCn1cc([C@H](O)[NH2+]C2CCCC2)cc1[O-] (chirality)
CCn1cc([C@H](O)[NH2+]C2CCCC2)cc1[O-] (3D coordinates assigned)
CCn1cc([C@H](O)[NH2+]C2CCCC2)cc1[O-] (nonaromatic ring conformer: 64.41120747098165 kcal/mol)

>  <smiles>  (14) 
CCn1cc(C(O)NC2CCCC2)cc1O

>  <score_type>  (14) 
oracle

>  <origin>  (14) 
adgpu

>  <m_score__min__energy>  (14) 
-8.8100000000000005

>  <m_primary>  (14) 
energy

$$$$
14:0
     RDKit          3D

 55 59  0  0  0  0  0  0  0  0999 V2000
   -1.2330   25.7940  -29.3330 O   0  0  0  0  0  0  0  0  0  0  0  0
   -1.3870   24.8590  -28.4980 C   0  0  0  0  0  0  0  0  0  0  0  0
   -0.1820   24.0450  -28.1180 C   0  0  0  0  0  0  0  0  0  0  0  0
   -0.3620   22.6590  -28.5420 N   0  0  0  0  0  0  0  0  0  0  0  0
   -0.1720   22.2150  -29.7800 N   0  0  0  0  0  0  0  0  0  0  0  0
   -0.4640   20.9180  -29.8720 N   0  0  0  0  0  0  0  0  0  0  0  0
   -0.8590   20.5450  -28.6410 C   0  0  0  0  0  0  0  0  0  0  0  0
   -1.2880   19.2960  -28.2030 C   0  0  0  0  0  0  0  0  0  0  0  0
   -1.6690   19.1800  -26.8500 C   0  0  0  0  0  0  0  0  0  0  0  0
   -1.6130   20.3040  -25.9900 C   0  0  0  0  0  0  0  0  0  0  0  0
   -1.1740   21.5520  -26.4720 C   0  0  0  0  0  0  0  0  0  0  0  0
   -0.8020   21.6220  -27.8130 C   0  0  0  0  0  0  0  0  0  0  0  0
   -2.7020   24.6030  -27.9550 N   0  0  0  0  0  0  0  0  0  0  0  0
   -3.0840   25.0390  -26.6010 C   0  0  0  0  0  0  0  0  0  0  0  0
   -1.8750   25.4540  -25.7970 C   0  0  0  0  0  0  0  0  0  0  0  0
   -1.5670   26.8150  -25.6180 C   0  0  0  0  0  0  0  0  0  0  0  0
   -0.4320   27.1940  -24.8950 C   0  0  0  0  0  0  0  0  0  0  0  0
    0.3990   26.2240  -24.3290 C   0  0  0  0  0  0  0  0  0  0  0  0
    1.5310   26.6170  -23.6200 O   0  0  0  0  0  0  0  0  0  0  0  0
    0.0830   24.8670  -24.4760 C   0  0  0  0  0  0  0  0  0  0  0  0
   -1.0530   24.4840  -25.1960 C   0  0  0  0  0  0  0  0  0  0  0  0
   -3.6570   23.9050  -28.7770 C   0  0  0  0  0  0  0  0  0  0  0  0
   -4.9420   24.4270  -28.9830 C   0  0  0  0  0  0  0  0  0  0  0  0
   -5.8660   23.7380  -29.7740 C   0  0  0  0  0  0  0  0  0  0  0  0
   -5.5200   22.5140  -30.3750 C   0  0  0  0  0  0  0  0  0  0  0  0
   -6.5010   21.7800  -31.2140 C   0  0  0  0  0  0  0  0  0  0  0  0
   -7.8820   22.0140  -31.0700 C   0  0  0  0  0  0  0  0  0  0  0  0
   -8.8030   21.3230  -31.8620 C   0  0  0  0  0  0  0  0  0  0  0  0
   -8.3590   20.3910  -32.8040 C   0  0  0  0  0  0  0  0  0  0  0  0
   -6.9920   20.1500  -32.9570 C   0  0  0  0  0  0  0  0  0  0  0  0
   -6.0660   20.8400  -32.1670 C   0  0  0  0  0  0  0  0  0  0  0  0
   -4.2280   21.9980  -30.1710 C   0  0  0  0  0  0  0  0  0  0  0  0
   -3.3040   22.6890  -29.3830 C   0  0  0  0  0  0  0  0  0  0  0  0
    0.7095   24.4631  -28.6083 H   0  0  0  0  0  0  0  0  0  0  0  0
   -0.0555   24.0751  -27.0257 H   0  0  0  0  0  0  0  0  0  0  0  0
   -1.3284   18.4336  -28.8846 H   0  0  0  0  0  0  0  0  0  0  0  0
   -2.0119   18.2102  -26.4601 H   0  0  0  0  0  0  0  0  0  0  0  0
   -1.9149   20.2011  -24.9372 H   0  0  0  0  0  0  0  0  0  0  0  0
   -1.1267   22.4347  -25.8174 H   0  0  0  0  0  0  0  0  0  0  0  0
   -3.7721   25.8935  -26.6805 H   0  0  0  0  0  0  0  0  0  0  0  0
   -3.5691   24.1953  -26.0884 H   0  0  0  0  0  0  0  0  0  0  0  0
   -2.2230   27.5854  -26.0494 H   0  0  0  0  0  0  0  0  0  0  0  0
   -0.1923   28.2604  -24.7713 H   0  0  0  0  0  0  0  0  0  0  0  0
    1.6300   26.4220  -22.6300 H   0  0  0  0  0  0  0  0  0  0  0  0
    0.7301   24.1009  -24.0239 H   0  0  0  0  0  0  0  0  0  0  0  0
   -1.3051   23.4177  -25.2928 H   0  0  0  0  0  0  0  0  0  0  0  0
   -5.2245   25.3838  -28.5197 H   0  0  0  0  0  0  0  0  0  0  0  0
   -6.8717   24.1563  -29.9277 H   0  0  0  0  0  0  0  0  0  0  0  0
   -8.2381   22.7453  -30.3295 H   0  0  0  0  0  0  0  0  0  0  0  0
   -9.8800   21.5131  -31.7437 H   0  0  0  0  0  0  0  0  0  0  0  0
   -9.0863   19.8473  -33.4249 H   0  0  0  0  0  0  0  0  0  0  0  0
   -6.6429   19.4171  -33.6993 H   0  0  0  0  0  0  0  0  0  0  0  0
   -4.9904   20.6464  -32.2916 H   0  0  0  0  0  0  0  0  0  0  0  0
   -3.9424   21.0427  -30.6355 H   0  0  0  0  0  0  0  0  0  0  0  0
   -2.2943   22.2778  -29.2367 H   0  0  0  0  0  0  0  0  0  0  0  0
  1  2  2  0
  2  3  1  0
  3  4  1  0
  4  5  1  0
  5  6  2  0
  6  7  1  0
  7  8  2  0
  8  9  1  0
  9 10  2  0
 10 11  1  0
 11 12  2  0
  2 13  1  0
 13 14  1  0
 14 15  1  0
 15 16  2  0
 16 17  1  0
 17 18  2  0
 18 19  1  0
 18 20  1  0
 20 21  2  0
 13 22  1  0
 22 23  2  0
 23 24  1  0
 24 25  2  0
 25 26  1  0
 26 27  2  0
 27 28  1  0
 28 29  2  0
 29 30  1  0
 30 31  2  0
 25 32  1  0
 32 33  2  0
 12  4  1  0
 21 15  1  0
 33 22  1  0
 12  7  1  0
 31 26  1  0
  3 34  1  0
  3 35  1  0
  8 36  1  0
  9 37  1  0
 10 38  1  0
 11 39  1  0
 14 40  1  0
 14 41  1  0
 16 42  1  0
 17 43  1  0
 19 44  1  0
 20 45  1  0
 21 46  1  0
 23 47  1  0
 24 48  1  0
 27 49  1  0
 28 50  1  0
 29 51  1  0
 30 52  1  0
 31 53  1  0
 32 54  1  0
 33 55  1  0
M  END
>  <UniqueID>  (15) 
15

>  <SMILES>  (15) 
O=C(Cn1nnc2ccccc21)N(Cc1ccc(O)cc1)c1ccc(-c2ccccc2)cc1

>  <Energy>  (15) 
114.2879960406168

>  <Genealogy>  (15) 
O=C(Cn1nnc2ccccc21)N(Cc1ccc(O)cc1)c1ccc(-c2ccccc2)cc1 (3D coordinates assigned)
O=C(Cn1nnc2ccccc21)N(Cc1ccc(O)cc1)c1ccc(-c2ccccc2)cc1 (optimized conformer: 114.2879960406168 kcal/mol)

>  <smiles>  (15) 
O=C(Cn1nnc2ccccc21)N(Cc1ccc(O)cc1)c1ccc(-c2ccccc2)cc1

>  <score_type>  (15) 
oracle

>  <origin>  (15) 
adgpu

>  <m_score__min__energy>  (15) 
-10.300000000000001

>  <m_primary>  (15) 
energy

$$$$
15:0
     RDKit          3D

 27 28  0  0  0  0  0  0  0  0999 V2000
   -8.6260   21.1800  -31.6520 C   0  0  0  0  0  0  0  0  0  0  0  0
   -7.1590   21.2660  -31.6870 N   0  0  0  0  0  0  0  0  0  0  0  0
   -6.6600   20.8020  -32.9870 C   0  0  0  0  0  0  0  0  0  0  0  0
   -6.6670   22.9220  -31.4370 S   0  0  0  0  0  0  0  0  0  0  0  0
   -6.7700   23.6840  -32.7280 O   0  0  0  0  0  0  0  0  0  0  0  0
   -7.5610   23.5820  -30.4210 O   0  0  0  0  0  0  0  0  0  0  0  0
   -4.9950   22.9730  -30.8860 C   0  0  0  0  0  0  0  0  0  0  0  0
   -4.1970   21.8210  -30.9800 C   0  0  0  0  0  0  0  0  0  0  0  0
   -2.8720   21.8400  -30.5310 C   0  0  0  0  0  0  0  0  0  0  0  0
   -2.3390   23.0110  -29.9830 C   0  0  0  0  0  0  0  0  0  0  0  0
   -1.0540   23.0470  -29.5400 N   0  0  0  0  0  0  0  0  0  0  0  0
   -0.5260   24.1780  -29.0020 C   0  0  0  0  0  0  0  0  0  0  0  0
    0.6680   24.1830  -28.6010 O   0  0  0  0  0  0  0  0  0  0  0  0
   -1.3220   25.3300  -28.9000 C   0  0  0  0  0  0  0  0  0  0  0  0
   -0.8560   26.3900  -28.4050 O   0  0  0  0  0  0  0  0  0  0  0  0
   -2.6070   25.2970  -29.3410 N   0  0  0  0  0  0  0  0  0  0  0  0
   -3.1380   24.1680  -29.8800 C   0  0  0  0  0  0  0  0  0  0  0  0
   -4.4620   24.1470  -30.3300 C   0  0  0  0  0  0  0  0  0  0  0  0
   -8.9673   21.1600  -30.6065 H   0  0  0  0  0  0  0  0  0  0  0  0
   -9.0568   22.0544  -32.1617 H   0  0  0  0  0  0  0  0  0  0  0  0
   -8.9517   20.2612  -32.1617 H   0  0  0  0  0  0  0  0  0  0  0  0
   -5.8627   20.0606  -32.8303 H   0  0  0  0  0  0  0  0  0  0  0  0
   -7.4833   20.3411  -33.5525 H   0  0  0  0  0  0  0  0  0  0  0  0
   -6.2601   21.6566  -33.5525 H   0  0  0  0  0  0  0  0  0  0  0  0
   -4.6160   20.8988  -31.4090 H   0  0  0  0  0  0  0  0  0  0  0  0
   -2.2507   20.9356  -30.6089 H   0  0  0  0  0  0  0  0  0  0  0  0
   -5.0854   25.0496  -30.2484 H   0  0  0  0  0  0  0  0  0  0  0  0
  1  2  1  0
  2  3  1  0
  2  4  1  0
  4  5  2  0
  4  6  2  0
  4  7  1  0
  7  8  2  0
  8  9  1  0
  9 10  2  0
 10 11  1  0
 11 12  1  0
 12 13  2  0
 12 14  1  0
 14 15  2  0
 14 16  1  0
 16 17  1  0
 17 18  2  0
 18  7  1  0
 17 10  1  0
  1 19  1  0
  1 20  1  0
  1 21  1  0
  3 22  1  0
  3 23  1  0
  3 24  1  0
  8 25  1  0
  9 26  1  0
 18 27  1  0
M  CHG  2  11  -1  16  -1
M  END
>  <UniqueID>  (16) 
16

>  <SMILES>  (16) 
CN(C)S(=O)(=O)c1ccc2[n-]c(=O)c(=O)[n-]c2c1

>  <Energy>  (16) 
29.81875464108942

>  <Genealogy>  (16) 
CN(C)S(=O)(=O)c1ccc2[n-]c(=O)c(=O)[n-]c2c1 (protonated)
CN(C)S(=O)(=O)c1ccc2[n-]c(=O)c(=O)[n-]c2c1 (3D coordinates assigned)
CN(C)S(=O)(=O)c1ccc2[n-]c(=O)c(=O)[n-]c2c1 (optimized conformer: 29.81875464108942 kcal/mol)

>  <smiles>  (16) 
CN(C)S(=O)(=O)c1ccc2[nH]c(=O)c(=O)[nH]c2c1

>  <score_type>  (16) 
oracle

>  <origin>  (16) 
adgpu

>  <m_score__min__energy>  (16) 
-8.8000000000000007

>  <m_primary>  (16) 
energy

$$$$
16:0
     RDKit          3D

 29 30  0  0  0  0  0  0  0  0999 V2000
   -8.7390   20.0150  -32.4700 C   0  0  0  0  0  0  0  0  0  0  0  0
   -7.8280   20.9300  -32.1230 C   0  0  0  0  0  0  0  0  0  0  0  0
   -7.8560   21.6020  -30.7800 C   0  0  0  0  0  0  0  0  0  0  0  0
   -6.8020   22.6740  -30.6960 C   0  0  0  0  0  0  0  0  0  0  0  0
   -7.1390   24.0200  -30.8990 C   0  0  0  0  0  0  0  0  0  0  0  0
   -6.1550   25.0080  -30.8470 C   0  0  0  0  0  0  0  0  0  0  0  0
   -4.8220   24.6650  -30.6020 C   0  0  0  0  0  0  0  0  0  0  0  0
   -3.8690   25.6750  -30.5220 O   0  0  0  0  0  0  0  0  0  0  0  0
   -4.4620   23.3140  -30.4170 C   0  0  0  0  0  0  0  0  0  0  0  0
   -3.0520   22.9200  -30.1740 C   0  0  0  0  0  0  0  0  0  0  0  0
   -2.5840   21.6660  -30.6020 C   0  0  0  0  0  0  0  0  0  0  0  0
   -1.2520   21.2970  -30.3830 C   0  0  0  0  0  0  0  0  0  0  0  0
   -0.3770   22.1760  -29.7420 C   0  0  0  0  0  0  0  0  0  0  0  0
   -0.8300   23.4300  -29.3210 C   0  0  0  0  0  0  0  0  0  0  0  0
    0.0430   24.3070  -28.6910 O   0  0  0  0  0  0  0  0  0  0  0  0
   -2.1610   23.8030  -29.5370 C   0  0  0  0  0  0  0  0  0  0  0  0
   -5.4620   22.3270  -30.4630 C   0  0  0  0  0  0  0  0  0  0  0  0
   -8.6919   19.5404  -33.4612 H   0  0  0  0  0  0  0  0  0  0  0  0
   -9.5356   19.7368  -31.7643 H   0  0  0  0  0  0  0  0  0  0  0  0
   -7.0375   21.1976  -32.8396 H   0  0  0  0  0  0  0  0  0  0  0  0
   -8.8456   22.0564  -30.6248 H   0  0  0  0  0  0  0  0  0  0  0  0
   -7.6547   20.8483  -30.0045 H   0  0  0  0  0  0  0  0  0  0  0  0
   -8.1840   24.2983  -31.1002 H   0  0  0  0  0  0  0  0  0  0  0  0
   -6.4295   26.0622  -30.9996 H   0  0  0  0  0  0  0  0  0  0  0  0
   -3.2678   20.9712  -31.1115 H   0  0  0  0  0  0  0  0  0  0  0  0
   -0.8935   20.3120  -30.7167 H   0  0  0  0  0  0  0  0  0  0  0  0
    0.6687   21.8821  -29.5682 H   0  0  0  0  0  0  0  0  0  0  0  0
   -2.5126   24.7917  -29.2071 H   0  0  0  0  0  0  0  0  0  0  0  0
   -5.1914   21.2712  -30.3148 H   0  0  0  0  0  0  0  0  0  0  0  0
  1  2  2  0
  2  3  1  0
  3  4  1  0
  4  5  2  0
  5  6  1  0
  6  7  2  0
  7  8  1  0
  7  9  1  0
  9 10  1  0
 10 11  2  0
 11 12  1  0
 12 13  2  0
 13 14  1  0
 14 15  1  0
 14 16  2  0
  9 17  2  0
 17  4  1  0
 16 10  1  0
  1 18  1  0
  1 19  1  0
  2 20  1  0
  3 21  1  0
  3 22  1  0
  5 23  1  0
  6 24  1  0
 11 25  1  0
 12 26  1  0
 13 27  1  0
 16 28  1  0
 17 29  1  0
M  CHG  2   8  -1  15  -1
M  END
>  <UniqueID>  (17) 
17

>  <SMILES>  (17) 
C=CCc1ccc([O-])c(-c2cccc([O-])c2)c1

>  <Energy>  (17) 
32.85794926378908

>  <Genealogy>  (17) 
C=CCc1ccc([O-])c(-c2cccc([O-])c2)c1 (protonated)
C=CCc1ccc([O-])c(-c2cccc([O-])c2)c1 (3D coordinates assigned)
C=CCc1ccc([O-])c(-c2cccc([O-])c2)c1 (optimized conformer: 32.85794926378908 kcal/mol)

>  <smiles>  (17) 
C=CCc1ccc(O)c(-c2cccc(O)c2)c1

>  <score_type>  (17) 
oracle

>  <origin>  (17) 
adgpu

>  <m_score__min__energy>  (17) 
-10.58

>  <m_primary>  (17) 
energy

$$$$
17:0
     RDKit          3D

 45 48  0  0  0  0  0  0  0  0999 V2000
   -2.8430   17.7930  -33.2320 C   0  0  0  0  0  0  0  0  0  0  0  0
   -3.5360   18.7570  -34.1870 C   0  0  0  0  0  0  0  0  0  0  0  0
   -4.7680   19.2640  -33.5880 N   0  0  0  0  0  0  0  0  0  0  0  0
   -5.8870   18.5640  -33.5000 N   0  0  0  0  0  0  0  0  0  0  0  0
   -6.8290   19.3630  -32.9620 C   0  0  0  0  0  0  0  0  0  0  0  0
   -8.2430   18.8990  -32.7240 C   0  0  0  0  0  0  0  0  0  0  0  0
   -9.2360   19.9690  -32.2950 C   0  0  0  0  0  0  0  0  0  0  0  0
   -8.7340   18.9480  -31.2840 C   0  0  0  0  0  0  0  0  0  0  0  0
   -6.2910   20.6210  -32.7120 C   0  0  0  0  0  0  0  0  0  0  0  0
   -4.9780   20.5090  -33.1240 C   0  0  0  0  0  0  0  0  0  0  0  0
   -4.0040   21.5170  -33.1390 O   0  0  0  0  0  0  0  0  0  0  0  0
   -2.9490   21.6330  -32.2220 C   0  0  0  0  0  0  0  0  0  0  0  0
   -1.7180   20.9950  -32.4540 C   0  0  0  0  0  0  0  0  0  0  0  0
   -0.6610   21.1460  -31.5560 C   0  0  0  0  0  0  0  0  0  0  0  0
   -0.8180   21.9430  -30.4210 C   0  0  0  0  0  0  0  0  0  0  0  0
    0.2090   22.0830  -29.5460 F   0  0  0  0  0  0  0  0  0  0  0  0
   -2.0300   22.5960  -30.1850 C   0  0  0  0  0  0  0  0  0  0  0  0
   -3.1060   22.4550  -31.0830 C   0  0  0  0  0  0  0  0  0  0  0  0
   -4.3960   23.1380  -30.8110 C   0  0  0  0  0  0  0  0  0  0  0  0
   -5.5570   22.4060  -30.5070 C   0  0  0  0  0  0  0  0  0  0  0  0
   -6.7560   23.0830  -30.2480 C   0  0  0  0  0  0  0  0  0  0  0  0
   -8.0120   22.3150  -29.9560 C   0  0  0  0  0  0  0  0  0  0  0  0
   -6.7860   24.4810  -30.3250 C   0  0  0  0  0  0  0  0  0  0  0  0
   -5.6140   25.1770  -30.6270 C   0  0  0  0  0  0  0  0  0  0  0  0
   -4.4600   24.4980  -30.8590 N   0  0  0  0  0  0  0  0  0  0  0  0
   -3.0557   18.0888  -32.1941 H   0  0  0  0  0  0  0  0  0  0  0  0
   -3.2158   16.7729  -33.4062 H   0  0  0  0  0  0  0  0  0  0  0  0
   -1.7573   17.8214  -33.4062 H   0  0  0  0  0  0  0  0  0  0  0  0
   -2.8635   19.6003  -34.4031 H   0  0  0  0  0  0  0  0  0  0  0  0
   -3.7826   18.2245  -35.1174 H   0  0  0  0  0  0  0  0  0  0  0  0
   -8.2158   18.1313  -33.5113 H   0  0  0  0  0  0  0  0  0  0  0  0
   -8.9158   21.0188  -32.2217 H   0  0  0  0  0  0  0  0  0  0  0  0
  -10.2267   20.2955  -32.6442 H   0  0  0  0  0  0  0  0  0  0  0  0
   -8.0509   19.2598  -30.4802 H   0  0  0  0  0  0  0  0  0  0  0  0
   -9.2113   18.2309  -30.6000 H   0  0  0  0  0  0  0  0  0  0  0  0
   -6.7946   21.5009  -32.2852 H   0  0  0  0  0  0  0  0  0  0  0  0
   -1.5871   20.3717  -33.3508 H   0  0  0  0  0  0  0  0  0  0  0  0
    0.2961   20.6369  -31.7425 H   0  0  0  0  0  0  0  0  0  0  0  0
   -2.1451   23.2256  -29.2904 H   0  0  0  0  0  0  0  0  0  0  0  0
   -5.5243   21.3070  -30.4726 H   0  0  0  0  0  0  0  0  0  0  0  0
   -8.1467   22.2326  -28.8674 H   0  0  0  0  0  0  0  0  0  0  0  0
   -8.8734   22.8410  -30.3933 H   0  0  0  0  0  0  0  0  0  0  0  0
   -7.9364   21.3085  -30.3933 H   0  0  0  0  0  0  0  0  0  0  0  0
   -7.7251   25.0261  -30.1490 H   0  0  0  0  0  0  0  0  0  0  0  0
   -5.6247   26.2758  -30.6772 H   0  0  0  0  0  0  0  0  0  0  0  0
  1  2  1  0
  2  3  1  0
  3  4  1  0
  4  5  2  0
  5  6  1  0
  6  7  1  0
  7  8  1  0
  5  9  1  0
  9 10  2  0
 10 11  1  0
 11 12  1  0
 12 13  2  0
 13 14  1  0
 14 15  2  0
 15 16  1  0
 15 17  1  0
 17 18  2  0
 18 19  1  0
 19 20  2  0
 20 21  1  0
 21 22  1  0
 21 23  2  0
 23 24  1  0
 24 25  2  0
 10  3  1  0
 18 12  1  0
 25 19  1  0
  8  6  1  0
  1 26  1  0
  1 27  1  0
  1 28  1  0
  2 29  1  0
  2 30  1  0
  6 31  1  0
  7 32  1  0
  7 33  1  0
  8 34  1  0
  8 35  1  0
  9 36  1  0
 13 37  1  0
 14 38  1  0
 17 39  1  0
 20 40  1  0
 22 41  1  0
 22 42  1  0
 22 43  1  0
 23 44  1  0
 24 45  1  0
M  END
>  <UniqueID>  (18) 
18

>  <SMILES>  (18) 
CCn1nc(C2CC2)cc1Oc1ccc(F)cc1-c1cc(C)ccn1

>  <Energy>  (18) 
348.96567583531174

>  <Genealogy>  (18) 
CCn1nc(C2CC2)cc1Oc1ccc(F)cc1-c1cc(C)ccn1 (3D coordinates assigned)
CCn1nc(C2CC2)cc1Oc1ccc(F)cc1-c1cc(C)ccn1 (nonaromatic ring conformer: 348.96567583531174 kcal/mol)

>  <smiles>  (18) 
CCn1nc(C2CC2)cc1Oc1ccc(F)cc1-c1cc(C)ccn1

>  <score_type>  (18) 
oracle

>  <origin>  (18) 
adgpu

>  <m_score__min__energy>  (18) 
-8.1600000000000001

>  <m_primary>  (18) 
energy

$$$$
18:0
     RDKit          3D

 55 58  0  0  0  0  0  0  0  0999 V2000
   -5.1590   25.2760  -30.4210 C   0  0  0  0  0  0  0  0  0  0  0  0
   -5.0000   24.1280  -31.2480 O   0  0  0  0  0  0  0  0  0  0  0  0
   -5.8970   23.0470  -31.2940 C   0  0  0  0  0  0  0  0  0  0  0  0
   -7.2650   23.2060  -31.0220 C   0  0  0  0  0  0  0  0  0  0  0  0
   -8.1270   22.1100  -31.1100 C   0  0  0  0  0  0  0  0  0  0  0  0
   -9.3520   22.2730  -30.8570 O   0  0  0  0  0  0  0  0  0  0  0  0
   -7.6480   20.8780  -31.4680 N   0  0  0  0  0  0  0  0  0  0  0  0
   -8.5610   19.7310  -31.5520 C   0  0  0  0  0  0  0  0  0  0  0  0
   -6.3160   20.7000  -31.7230 C   0  0  0  0  0  0  0  0  0  0  0  0
   -5.4150   21.7720  -31.6340 C   0  0  0  0  0  0  0  0  0  0  0  0
   -3.9750   21.5430  -31.9090 C   0  0  0  0  0  0  0  0  0  0  0  0
   -3.0100   22.1390  -31.0800 C   0  0  0  0  0  0  0  0  0  0  0  0
   -1.6460   21.9240  -31.3000 C   0  0  0  0  0  0  0  0  0  0  0  0
   -0.7000   22.5650  -30.4310 N   0  0  0  0  0  0  0  0  0  0  0  0
   -0.9670   23.1040  -29.1300 C   0  0  0  0  0  0  0  0  0  0  0  0
   -1.0500   22.3420  -28.1300 O   0  0  0  0  0  0  0  0  0  0  0  0
   -1.2270   24.5080  -28.9970 N   0  0  0  0  0  0  0  0  0  0  0  0
   -1.3730   25.1780  -27.7320 C   0  0  0  0  0  0  0  0  0  0  0  0
   -0.3890   26.0780  -27.2800 C   0  0  0  0  0  0  0  0  0  0  0  0
   -0.5440   26.7430  -26.0610 C   0  0  0  0  0  0  0  0  0  0  0  0
   -1.6850   26.5310  -25.2880 C   0  0  0  0  0  0  0  0  0  0  0  0
   -2.6780   25.6560  -25.7340 C   0  0  0  0  0  0  0  0  0  0  0  0
   -2.5320   24.9830  -26.9530 C   0  0  0  0  0  0  0  0  0  0  0  0
   -3.8000   23.8750  -27.4590 Cl  0  0  0  0  0  0  0  0  0  0  0  0
   -1.2400   21.1350  -32.3880 C   0  0  0  0  0  0  0  0  0  0  0  0
   -2.1910   20.5520  -33.2270 C   0  0  0  0  0  0  0  0  0  0  0  0
   -3.5630   20.7650  -33.0090 C   0  0  0  0  0  0  0  0  0  0  0  0
   -4.5320   20.1930  -33.8490 O   0  0  0  0  0  0  0  0  0  0  0  0
   -4.8760   18.8350  -33.8950 C   0  0  0  0  0  0  0  0  0  0  0  0
   -6.2140   18.4020  -33.8420 C   0  0  0  0  0  0  0  0  0  0  0  0
   -6.5120   17.0360  -33.8720 C   0  0  0  0  0  0  0  0  0  0  0  0
   -5.4810   16.0940  -33.9440 C   0  0  0  0  0  0  0  0  0  0  0  0
   -5.7720   14.7700  -33.9730 F   0  0  0  0  0  0  0  0  0  0  0  0
   -4.1500   16.5190  -33.9770 C   0  0  0  0  0  0  0  0  0  0  0  0
   -3.8490   17.8840  -33.9460 C   0  0  0  0  0  0  0  0  0  0  0  0
   -5.1173   24.9749  -29.3638 H   0  0  0  0  0  0  0  0  0  0  0  0
   -4.3516   25.9932  -30.6301 H   0  0  0  0  0  0  0  0  0  0  0  0
   -6.1309   25.7468  -30.6301 H   0  0  0  0  0  0  0  0  0  0  0  0
   -7.6583   24.1937  -30.7395 H   0  0  0  0  0  0  0  0  0  0  0  0
   -8.8259   19.3982  -30.5376 H   0  0  0  0  0  0  0  0  0  0  0  0
   -9.4732   20.0271  -32.0907 H   0  0  0  0  0  0  0  0  0  0  0  0
   -8.0678   18.9085  -32.0907 H   0  0  0  0  0  0  0  0  0  0  0  0
   -5.9459   19.7024  -32.0018 H   0  0  0  0  0  0  0  0  0  0  0  0
   -3.3313   22.7826  -30.2478 H   0  0  0  0  0  0  0  0  0  0  0  0
   -1.3680   25.0550  -29.8750 H   0  0  0  0  0  0  0  0  0  0  0  0
    0.5078   26.2588  -27.8907 H   0  0  0  0  0  0  0  0  0  0  0  0
    0.2357   27.4352  -25.7104 H   0  0  0  0  0  0  0  0  0  0  0  0
   -1.8030   27.0529  -24.3269 H   0  0  0  0  0  0  0  0  0  0  0  0
   -3.5794   25.4948  -25.1245 H   0  0  0  0  0  0  0  0  0  0  0  0
   -0.1686   20.9757  -32.5799 H   0  0  0  0  0  0  0  0  0  0  0  0
   -1.8638   19.9204  -34.0661 H   0  0  0  0  0  0  0  0  0  0  0  0
   -7.0273   19.1398  -33.7768 H   0  0  0  0  0  0  0  0  0  0  0  0
   -7.5595   16.7018  -33.8389 H   0  0  0  0  0  0  0  0  0  0  0  0
   -3.3381   15.7785  -34.0274 H   0  0  0  0  0  0  0  0  0  0  0  0
   -2.7995   18.2130  -33.9618 H   0  0  0  0  0  0  0  0  0  0  0  0
  1  2  1  0
  2  3  1  0
  3  4  2  0
  4  5  1  0
  5  6  2  0
  5  7  1  0
  7  8  1  0
  7  9  1  0
  9 10  2  0
 10 11  1  0
 11 12  2  0
 12 13  1  0
 13 14  1  0
 14 15  1  0
 15 16  2  0
 15 17  1  0
 17 18  1  0
 18 19  2  0
 19 20  1  0
 20 21  2  0
 21 22  1  0
 22 23  2  0
 23 24  1  0
 13 25  2  0
 25 26  1  0
 26 27  2  0
 27 28  1  0
 28 29  1  0
 29 30  2  0
 30 31  1  0
 31 32  2  0
 32 33  1  0
 32 34  1  0
 34 35  2  0
 10  3  1  0
 27 11  1  0
 35 29  1  0
 23 18  1  0
  1 36  1  0
  1 37  1  0
  1 38  1  0
  4 39  1  0
  8 40  1  0
  8 41  1  0
  8 42  1  0
  9 43  1  0
 12 44  1  0
 17 45  1  0
 19 46  1  0
 20 47  1  0
 21 48  1  0
 22 49  1  0
 25 50  1  0
 26 51  1  0
 30 52  1  0
 31 53  1  0
 34 54  1  0
 35 55  1  0
M  CHG  1  14  -1
M  END
>  <UniqueID>  (19) 
19

>  <SMILES>  (19) 
COc1cc(=O)n(C)cc1-c1cc([N-]C(=O)Nc2ccccc2Cl)ccc1Oc1ccc(F)cc1

>  <Energy>  (19) 
81.95574241306333

>  <Genealogy>  (19) 
COc1cc(=O)n(C)cc1-c1cc([N-]C(=O)Nc2ccccc2Cl)ccc1Oc1ccc(F)cc1 (protonated)
COc1cc(=O)n(C)cc1-c1cc([N-]C(=O)Nc2ccccc2Cl)ccc1Oc1ccc(F)cc1 (3D coordinates assigned)
COc1cc(=O)n(C)cc1-c1cc([N-]C(=O)Nc2ccccc2Cl)ccc1Oc1ccc(F)cc1 (optimized conformer: 81.95574241306333 kcal/mol)

>  <smiles>  (19) 
COc1cc(=O)n(C)cc1-c1cc(NC(=O)Nc2ccccc2Cl)ccc1Oc1ccc(F)cc1

>  <score_type>  (19) 
oracle

>  <origin>  (19) 
adgpu

>  <m_score__min__energy>  (19) 
-10.99

>  <m_primary>  (19) 
energy

$$$$
19:0
     RDKit          3D

 47 49  0  0  0  0  0  0  0  0999 V2000
   -4.1840   13.6500  -31.6080 C   0  0  0  0  0  0  0  0  0  0  0  0
   -4.3010   14.5830  -32.7710 C   0  0  0  0  0  0  0  0  0  0  0  0
   -5.5140   15.2140  -33.0610 C   0  0  0  0  0  0  0  0  0  0  0  0
   -5.5660   16.0910  -34.1470 C   0  0  0  0  0  0  0  0  0  0  0  0
   -6.6440   16.6720  -34.4400 O   0  0  0  0  0  0  0  0  0  0  0  0
   -4.4530   16.3150  -34.8920 N   0  0  0  0  0  0  0  0  0  0  0  0
   -3.2800   15.6980  -34.5930 C   0  0  0  0  0  0  0  0  0  0  0  0
   -1.8290   15.9810  -35.6060 S   0  0  0  0  0  0  0  0  0  0  0  0
   -0.9070   16.9030  -34.3240 C   0  0  0  0  0  0  0  0  0  0  0  0
   -1.8190   17.8090  -33.5510 C   0  0  0  0  0  0  0  0  0  0  0  0
   -1.5020   18.1390  -32.3760 O   0  0  0  0  0  0  0  0  0  0  0  0
   -2.9870   18.3590  -34.1850 N   0  0  0  0  0  0  0  0  0  0  0  0
   -3.7750   19.4310  -33.6400 C   0  0  0  0  0  0  0  0  0  0  0  0
   -3.1420   20.6350  -33.2930 C   0  0  0  0  0  0  0  0  0  0  0  0
   -3.8760   21.6900  -32.7460 C   0  0  0  0  0  0  0  0  0  0  0  0
   -5.2550   21.5580  -32.5470 C   0  0  0  0  0  0  0  0  0  0  0  0
   -6.1750   22.8720  -31.8190 S   0  0  0  0  0  0  0  0  0  0  0  0
   -6.8400   22.3410  -30.5820 O   0  0  0  0  0  0  0  0  0  0  0  0
   -7.2400   23.3760  -32.7500 O   0  0  0  0  0  0  0  0  0  0  0  0
   -5.1250   24.1760  -31.3570 N   0  0  0  0  0  0  0  0  0  0  0  0
   -4.1480   24.1950  -30.4960 C   0  0  0  0  0  0  0  0  0  0  0  0
   -3.4780   25.2960  -30.2490 O   0  0  0  0  0  0  0  0  0  0  0  0
   -2.5450   25.0980  -29.3640 N   0  0  0  0  0  0  0  0  0  0  0  0
   -2.6040   23.8010  -29.0110 C   0  0  0  0  0  0  0  0  0  0  0  0
   -1.6670   23.1730  -28.0300 C   0  0  0  0  0  0  0  0  0  0  0  0
   -3.6250   23.1680  -29.7060 C   0  0  0  0  0  0  0  0  0  0  0  0
   -3.9360   21.7010  -29.6560 C   0  0  0  0  0  0  0  0  0  0  0  0
   -5.9010   20.3780  -32.9330 C   0  0  0  0  0  0  0  0  0  0  0  0
   -5.1680   19.3230  -33.4840 C   0  0  0  0  0  0  0  0  0  0  0  0
   -3.2090   14.8460  -33.5370 N   0  0  0  0  0  0  0  0  0  0  0  0
   -4.2557   14.2215  -30.6708 H   0  0  0  0  0  0  0  0  0  0  0  0
   -4.9963   12.9094  -31.6489 H   0  0  0  0  0  0  0  0  0  0  0  0
   -3.2140   13.1329  -31.6489 H   0  0  0  0  0  0  0  0  0  0  0  0
   -6.4074   15.0243  -32.4479 H   0  0  0  0  0  0  0  0  0  0  0  0
   -0.4405   16.1867  -33.6317 H   0  0  0  0  0  0  0  0  0  0  0  0
   -0.1402   17.5175  -34.8184 H   0  0  0  0  0  0  0  0  0  0  0  0
   -3.1520   18.1070  -35.1860 H   0  0  0  0  0  0  0  0  0  0  0  0
   -2.0596   20.7485  -33.4531 H   0  0  0  0  0  0  0  0  0  0  0  0
   -3.3690   22.6267  -32.4710 H   0  0  0  0  0  0  0  0  0  0  0  0
   -2.0025   23.3979  -27.0068 H   0  0  0  0  0  0  0  0  0  0  0  0
   -1.6545   22.0834  -28.1807 H   0  0  0  0  0  0  0  0  0  0  0  0
   -0.6545   23.5756  -28.1807 H   0  0  0  0  0  0  0  0  0  0  0  0
   -4.0048   21.3763  -28.6073 H   0  0  0  0  0  0  0  0  0  0  0  0
   -4.8942   21.5119  -30.1620 H   0  0  0  0  0  0  0  0  0  0  0  0
   -3.1370   21.1393  -30.1620 H   0  0  0  0  0  0  0  0  0  0  0  0
   -6.9889   20.2805  -32.8024 H   0  0  0  0  0  0  0  0  0  0  0  0
   -5.6839   18.4033  -33.7972 H   0  0  0  0  0  0  0  0  0  0  0  0
  1  2  1  0
  2  3  2  0
  3  4  1  0
  4  5  2  0
  4  6  1  0
  6  7  1  0
  7  8  1  0
  8  9  1  0
  9 10  1  0
 10 11  2  0
 10 12  1  0
 12 13  1  0
 13 14  2  0
 14 15  1  0
 15 16  2  0
 16 17  1  0
 17 18  2  0
 17 19  2  0
 17 20  1  0
 20 21  2  3
 21 22  1  0
 22 23  1  0
 23 24  1  0
 24 25  1  0
 24 26  2  0
 26 27  1  0
 16 28  1  0
 28 29  2  0
  7 30  2  0
 30  2  1  0
 29 13  1  0
 26 21  1  0
  1 31  1  0
  1 32  1  0
  1 33  1  0
  3 34  1  0
  9 35  1  0
  9 36  1  0
 12 37  1  0
 14 38  1  0
 15 39  1  0
 25 40  1  0
 25 41  1  0
 25 42  1  0
 27 43  1  0
 27 44  1  0
 27 45  1  0
 28 46  1  0
 29 47  1  0
M  CHG  2   6  -1  23  -1
M  END
>  <UniqueID>  (20) 
20

>  <SMILES>  (20) 
Cc1cc(=O)[n-]c(SCC(=O)Nc2ccc(S(=O)(=O)N=c3o[n-]c(C)c3C)cc2)n1

>  <Energy>  (20) 
83.78259157733766

>  <Genealogy>  (20) 
Cc1cc(=O)[n-]c(SCC(=O)Nc2ccc(S(=O)(=O)N=c3o[n-]c(C)c3C)cc2)n1 (protonated)
Cc1cc(=O)[n-]c(SCC(=O)Nc2ccc(S(=O)(=O)N=c3o[n-]c(C)c3C)cc2)n1 (3D coordinates assigned)
Cc1cc(=O)[n-]c(SCC(=O)Nc2ccc(S(=O)(=O)N=c3o[n-]c(C)c3C)cc2)n1 (optimized conformer: 83.78259157733766 kcal/mol)

>  <smiles>  (20) 
Cc1cc(=O)[nH]c(SCC(=O)Nc2ccc(S(=O)(=O)N=c3o[nH]c(C)c3C)cc2)n1

>  <score_type>  (20) 
oracle

>  <origin>  (20) 
adgpu

>  <m_score__min__energy>  (20) 
-10.83

>  <m_primary>  (20) 
energy

$$$$
20:0
     RDKit          3D

 52 57  0  0  0  0  0  0  0  0999 V2000
   -3.7941   25.8762  -30.3979 H   0  0  0  0  0  0  0  0  0  0  0  0
   -3.9850   24.7960  -30.4800 C   0  0  0  0  0  0  0  0  0  0  0  0
   -5.0670   24.3520  -31.1720 N   0  0  0  0  0  0  0  0  0  0  0  0
   -5.3500   23.0270  -31.3090 C   0  0  0  0  0  0  0  0  0  0  0  0
   -6.5160   22.6250  -32.0540 N   0  0  0  0  0  0  0  0  0  0  0  0
   -6.4760   21.5440  -33.0400 C   0  0  0  0  0  0  0  0  0  0  0  0
   -5.4297   21.2590  -33.2244 H   0  0  0  0  0  0  0  0  0  0  0  0
   -6.9405   21.8929  -33.9741 H   0  0  0  0  0  0  0  0  0  0  0  0
   -7.2410   20.3380  -32.5270 C   0  0  0  0  0  0  0  0  0  0  0  0
   -7.0500   19.0490  -33.0930 C   0  0  0  0  0  0  0  0  0  0  0  0
   -5.9580   18.7530  -34.0400 C   0  0  0  0  0  0  0  0  0  0  0  0
   -6.1580   18.8970  -35.2770 O   0  0  0  0  0  0  0  0  0  0  0  0
   -4.7180   18.2230  -33.5430 N   0  0  0  0  0  0  0  0  0  0  0  0
   -3.6510   18.8830  -33.1980 C   0  0  0  0  0  0  0  0  0  0  0  0
   -3.4580   20.5730  -33.2250 S   0  0  0  0  0  0  0  0  0  0  0  0
   -1.8890   20.4750  -32.6300 C   0  0  0  0  0  0  0  0  0  0  0  0
   -0.9980   21.5080  -32.3540 C   0  0  0  0  0  0  0  0  0  0  0  0
   -1.2790   22.5580  -32.5231 H   0  0  0  0  0  0  0  0  0  0  0  0
    0.2710   21.1710  -31.8530 C   0  0  0  0  0  0  0  0  0  0  0  0
    0.9980   21.9647  -31.6260 H   0  0  0  0  0  0  0  0  0  0  0  0
    0.6170   19.8220  -31.6400 C   0  0  0  0  0  0  0  0  0  0  0  0
    1.6131   19.5693  -31.2477 H   0  0  0  0  0  0  0  0  0  0  0  0
   -0.3010   18.7970  -31.9250 C   0  0  0  0  0  0  0  0  0  0  0  0
   -0.0341   17.7429  -31.7587 H   0  0  0  0  0  0  0  0  0  0  0  0
   -1.5600   19.1430  -32.4240 C   0  0  0  0  0  0  0  0  0  0  0  0
   -2.5400   18.2580  -32.7400 N   0  0  0  0  0  0  0  0  0  0  0  0
   -2.4510   17.2220  -32.6370 H   0  0  0  0  0  0  0  0  0  0  0  0
   -7.9090   18.0000  -32.7330 C   0  0  0  0  0  0  0  0  0  0  0  0
   -7.7761   17.0073  -33.1879 H   0  0  0  0  0  0  0  0  0  0  0  0
   -8.9280   18.2020  -31.8060 C   0  0  0  0  0  0  0  0  0  0  0  0
   -9.5914   17.3690  -31.5302 H   0  0  0  0  0  0  0  0  0  0  0  0
   -9.1100   19.4550  -31.2270 C   0  0  0  0  0  0  0  0  0  0  0  0
   -9.9019   19.5991  -30.4772 H   0  0  0  0  0  0  0  0  0  0  0  0
   -8.2930   20.5350  -31.5910 C   0  0  0  0  0  0  0  0  0  0  0  0
   -8.5020   21.8590  -30.8810 C   0  0  0  0  0  0  0  0  0  0  0  0
   -8.0698   21.7892  -29.8719 H   0  0  0  0  0  0  0  0  0  0  0  0
   -9.5846   22.0507  -30.8477 H   0  0  0  0  0  0  0  0  0  0  0  0
   -7.8480   23.0310  -31.6130 C   0  0  0  0  0  0  0  0  0  0  0  0
   -7.7662   23.8922  -30.9335 H   0  0  0  0  0  0  0  0  0  0  0  0
   -8.4588   23.3172  -32.4819 H   0  0  0  0  0  0  0  0  0  0  0  0
   -4.5090   22.0820  -30.7010 C   0  0  0  0  0  0  0  0  0  0  0  0
   -4.7302   21.0079  -30.7863 H   0  0  0  0  0  0  0  0  0  0  0  0
   -3.3910   22.5140  -29.9880 C   0  0  0  0  0  0  0  0  0  0  0  0
   -2.7257   21.7763  -29.5157 H   0  0  0  0  0  0  0  0  0  0  0  0
   -3.1090   23.8840  -29.8690 C   0  0  0  0  0  0  0  0  0  0  0  0
   -1.9190   24.3370  -29.1090 C   0  0  0  0  0  0  0  0  0  0  0  0
   -1.5790   25.6330  -28.9540 N   0  0  0  0  0  0  0  0  0  0  0  0
   -0.4740   25.6930  -28.2270 N   0  0  0  0  0  0  0  0  0  0  0  0
   -0.1000   24.4390  -27.9130 C   0  0  0  0  0  0  0  0  0  0  0  0
    0.7834   24.1709  -27.3149 H   0  0  0  0  0  0  0  0  0  0  0  0
   -0.9940   23.5430  -28.4560 C   0  0  0  0  0  0  0  0  0  0  0  0
   -0.9763   22.4454  -28.3862 H   0  0  0  0  0  0  0  0  0  0  0  0
  1  2  1  0
  2  3  2  0
  3  4  1  0
  4  5  1  0
  5  6  1  0
  6  7  1  0
  6  8  1  0
  6  9  1  0
  9 10  2  0
 10 11  1  0
 11 12  2  0
 11 13  1  0
 13 14  2  0
 14 15  1  0
 15 16  1  0
 16 17  2  0
 17 18  1  0
 17 19  1  0
 19 20  1  0
 19 21  2  0
 21 22  1  0
 21 23  1  0
 23 24  1  0
 23 25  2  0
 25 26  1  0
 26 27  1  0
 10 28  1  0
 28 29  1  0
 28 30  2  0
 30 31  1  0
 30 32  1  0
 32 33  1  0
 32 34  2  0
 34 35  1  0
 35 36  1  0
 35 37  1  0
 35 38  1  0
 38 39  1  0
 38 40  1  0
  4 41  2  0
 41 42  1  0
 41 43  1  0
 43 44  1  0
 43 45  2  0
 45 46  1  0
 46 47  2  0
 47 48  1  0
 48 49  1  0
 49 50  1  0
 49 51  2  0
 51 52  1  0
 45  2  1  0
 51 46  1  0
 38  5  1  0
 34  9  1  0
 26 14  1  0
 25 16  1  0
M  CHG  1  48  -1
M  END
>  <UniqueID>  (21) 
21

>  <SMILES>  (21) 
O=C(/N=c1/[nH]c2ccccc2s1)c1cccc2c1CN(c1ccc(-c3cc[n-]n3)cn1)CC2

>  <Energy>  (21) 
142.99551206781314

>  <Genealogy>  (21) 
O=C(N=c1[nH]c2ccccc2s1)c1cccc2c1CN(c1ccc(-c3cc[n-]n3)cn1)CC2 (protonated)
O=C(/N=c1/[nH]c2ccccc2s1)c1cccc2c1CN(c1ccc(-c3cc[n-]n3)cn1)CC2 (cis-trans isomerization)
O=C(/N=c1/[nH]c2ccccc2s1)c1cccc2c1CN(c1ccc(-c3cc[n-]n3)cn1)CC2 (3D coordinates assigned)
O=C(/N=c1/[nH]c2ccccc2s1)c1cccc2c1CN(c1ccc(-c3cc[n-]n3)cn1)CC2 (nonaromatic ring conformer: 142.99551206781314 kcal/mol)

>  <smiles>  (21) 
O=C(N=c1[nH]c2ccccc2s1)c1cccc2c1CN(c1ccc(-c3cc[nH]n3)cn1)CC2

>  <score_type>  (21) 
oracle

>  <origin>  (21) 
adgpu

>  <m_score__min__energy>  (21) 
-11.94

>  <m_primary>  (21) 
energy

$$$$
21:0
     RDKit          3D

 27 28  0  0  0  0  0  0  0  0999 V2000
   -5.0828   20.1923  -33.8435 H   0  0  0  0  0  0  0  0  0  0  0  0
   -5.9190   20.3840  -33.1550 C   0  0  0  0  0  0  0  0  0  0  0  0
   -5.9490   21.5310  -32.4290 N   0  0  0  0  0  0  0  0  0  0  0  0
   -6.9610   21.8070  -31.5570 C   0  0  0  0  0  0  0  0  0  0  0  0
   -6.9780   22.9160  -30.8760 N   0  0  0  0  0  0  0  0  0  0  0  0
   -5.9530   23.9220  -30.8720 C   0  0  0  0  0  0  0  0  0  0  0  0
   -6.0800   24.9120  -31.6420 O   0  0  0  0  0  0  0  0  0  0  0  0
   -4.7890   23.8630  -29.9550 C   0  0  0  0  0  0  0  0  0  0  0  0
   -4.7300   22.9020  -28.9280 C   0  0  0  0  0  0  0  0  0  0  0  0
   -5.5500   22.1787  -28.8079 H   0  0  0  0  0  0  0  0  0  0  0  0
   -3.6350   22.8620  -28.0600 C   0  0  0  0  0  0  0  0  0  0  0  0
   -3.5919   22.1027  -27.2652 H   0  0  0  0  0  0  0  0  0  0  0  0
   -2.5960   23.7840  -28.2000 C   0  0  0  0  0  0  0  0  0  0  0  0
   -1.7330   23.7475  -27.5188 H   0  0  0  0  0  0  0  0  0  0  0  0
   -2.6520   24.7540  -29.2060 C   0  0  0  0  0  0  0  0  0  0  0  0
   -1.6200   25.6740  -29.3390 O   0  0  0  0  0  0  0  0  0  0  0  0
   -3.7460   24.7970  -30.0770 C   0  0  0  0  0  0  0  0  0  0  0  0
   -3.7901   25.5664  -30.8619 H   0  0  0  0  0  0  0  0  0  0  0  0
   -8.0160   20.8960  -31.4140 C   0  0  0  0  0  0  0  0  0  0  0  0
   -8.8398   21.1089  -30.7168 H   0  0  0  0  0  0  0  0  0  0  0  0
   -8.0160   19.7120  -32.1640 C   0  0  0  0  0  0  0  0  0  0  0  0
   -9.1140   18.7050  -31.9880 C   0  0  0  0  0  0  0  0  0  0  0  0
   -9.2927   18.5411  -30.9151 H   0  0  0  0  0  0  0  0  0  0  0  0
  -10.0343   19.0797  -32.4599 H   0  0  0  0  0  0  0  0  0  0  0  0
   -8.8201   17.7558  -32.4599 H   0  0  0  0  0  0  0  0  0  0  0  0
   -6.9460   19.4480  -33.0300 C   0  0  0  0  0  0  0  0  0  0  0  0
   -6.9163   18.5113  -33.6059 H   0  0  0  0  0  0  0  0  0  0  0  0
  1  2  1  0
  2  3  1  0
  3  4  1  0
  4  5  2  0
  5  6  1  0
  6  7  2  0
  6  8  1  0
  8  9  2  0
  9 10  1  0
  9 11  1  0
 11 12  1  0
 11 13  2  0
 13 14  1  0
 13 15  1  0
 15 16  1  0
 15 17  2  0
 17 18  1  0
  4 19  1  0
 19 20  1  0
 19 21  2  0
 21 22  1  0
 22 23  1  0
 22 24  1  0
 22 25  1  0
 21 26  1  0
 26 27  1  0
 26  2  2  0
 17  8  1  0
M  CHG  2   3  -1  16  -1
M  END
>  <UniqueID>  (22) 
22

>  <SMILES>  (22) 
Cc1cc[n-]/c(=N\C(=O)c2cccc([O-])c2)c1

>  <Energy>  (22) 
35.67309807791194

>  <Genealogy>  (22) 
Cc1cc[n-]c(=NC(=O)c2cccc([O-])c2)c1 (protonated)
Cc1cc[n-]/c(=N\C(=O)c2cccc([O-])c2)c1 (cis-trans isomerization)
Cc1cc[n-]/c(=N\C(=O)c2cccc([O-])c2)c1 (3D coordinates assigned)
Cc1cc[n-]/c(=N\C(=O)c2cccc([O-])c2)c1 (optimized conformer: 35.67309807791194 kcal/mol)

>  <smiles>  (22) 
Cc1cc[nH]c(=NC(=O)c2cccc(O)c2)c1

>  <score_type>  (22) 
oracle

>  <origin>  (22) 
adgpu

>  <m_score__min__energy>  (22) 
-9.8599999999999994

>  <m_primary>  (22) 
energy

$$$$
22:0
     RDKit          3D

 34 37  0  0  0  0  0  0  0  0999 V2000
   -5.3660   24.5420  -31.5830 O   0  0  0  0  0  0  0  0  0  0  0  0
   -5.4710   23.3160  -31.8550 C   0  0  0  0  0  0  0  0  0  0  0  0
   -4.3710   22.6160  -32.0910 O   0  0  0  0  0  0  0  0  0  0  0  0
   -4.3690   21.3180  -32.3780 C   0  0  0  0  0  0  0  0  0  0  0  0
   -3.0530   20.6760  -32.5900 C   0  0  0  0  0  0  0  0  0  0  0  0
   -2.5370   20.4340  -33.8730 C   0  0  0  0  0  0  0  0  0  0  0  0
   -1.2720   19.8650  -33.8670 C   0  0  0  0  0  0  0  0  0  0  0  0
   -0.7880   19.6880  -32.2690 S   0  0  0  0  0  0  0  0  0  0  0  0
   -2.1740   20.3240  -31.5680 C   0  0  0  0  0  0  0  0  0  0  0  0
   -5.5950   20.6110  -32.4730 C   0  0  0  0  0  0  0  0  0  0  0  0
   -5.6140   19.1830  -32.8760 C   0  0  0  0  0  0  0  0  0  0  0  0
   -5.5370   18.8280  -34.2320 C   0  0  0  0  0  0  0  0  0  0  0  0
   -5.5770   17.4820  -34.6090 C   0  0  0  0  0  0  0  0  0  0  0  0
   -5.6960   16.4850  -33.6360 C   0  0  0  0  0  0  0  0  0  0  0  0
   -5.7750   16.8330  -32.2830 C   0  0  0  0  0  0  0  0  0  0  0  0
   -5.7340   18.1780  -31.9030 C   0  0  0  0  0  0  0  0  0  0  0  0
   -6.7980   21.3220  -32.2410 C   0  0  0  0  0  0  0  0  0  0  0  0
   -8.0670   20.7120  -32.3500 C   0  0  0  0  0  0  0  0  0  0  0  0
   -9.2320   21.4450  -32.1120 C   0  0  0  0  0  0  0  0  0  0  0  0
   -9.1550   22.7930  -31.7710 C   0  0  0  0  0  0  0  0  0  0  0  0
   -7.9140   23.4220  -31.6750 C   0  0  0  0  0  0  0  0  0  0  0  0
   -6.7310   22.6990  -31.9140 C   0  0  0  0  0  0  0  0  0  0  0  0
   -3.0846   20.6732  -34.7965 H   0  0  0  0  0  0  0  0  0  0  0  0
   -0.6879   19.5795  -34.7543 H   0  0  0  0  0  0  0  0  0  0  0  0
   -2.3565   20.4423  -30.4897 H   0  0  0  0  0  0  0  0  0  0  0  0
   -5.4450   19.6104  -34.9997 H   0  0  0  0  0  0  0  0  0  0  0  0
   -5.5148   17.2073  -35.6723 H   0  0  0  0  0  0  0  0  0  0  0  0
   -5.7275   15.4267  -33.9342 H   0  0  0  0  0  0  0  0  0  0  0  0
   -5.8694   16.0482  -31.5180 H   0  0  0  0  0  0  0  0  0  0  0  0
   -5.7959   18.4494  -30.8388 H   0  0  0  0  0  0  0  0  0  0  0  0
   -8.1387   19.6493  -32.6250 H   0  0  0  0  0  0  0  0  0  0  0  0
  -10.2138   20.9557  -32.1942 H   0  0  0  0  0  0  0  0  0  0  0  0
  -10.0754   23.3632  -31.5769 H   0  0  0  0  0  0  0  0  0  0  0  0
   -7.8598   24.4885  -31.4112 H   0  0  0  0  0  0  0  0  0  0  0  0
  1  2  2  0
  2  3  1  0
  3  4  1  0
  4  5  1  0
  5  6  1  0
  6  7  2  0
  7  8  1  0
  8  9  1  0
  4 10  2  0
 10 11  1  0
 11 12  2  0
 12 13  1  0
 13 14  2  0
 14 15  1  0
 15 16  2  0
 10 17  1  0
 17 18  2  0
 18 19  1  0
 19 20  2  0
 20 21  1  0
 21 22  2  0
 22  2  1  0
  9  5  2  0
 16 11  1  0
 22 17  1  0
  6 23  1  0
  7 24  1  0
  9 25  1  0
 12 26  1  0
 13 27  1  0
 14 28  1  0
 15 29  1  0
 16 30  1  0
 18 31  1  0
 19 32  1  0
 20 33  1  0
 21 34  1  0
M  END
>  <UniqueID>  (23) 
23

>  <SMILES>  (23) 
O=c1oc(-c2ccsc2)c(-c2ccccc2)c2ccccc12

>  <Energy>  (23) 
84.3013105963694

>  <Genealogy>  (23) 
O=c1oc(-c2ccsc2)c(-c2ccccc2)c2ccccc12 (3D coordinates assigned)
O=c1oc(-c2ccsc2)c(-c2ccccc2)c2ccccc12 (optimized conformer: 84.3013105963694 kcal/mol)

>  <smiles>  (23) 
O=c1oc(-c2ccsc2)c(-c2ccccc2)c2ccccc12

>  <score_type>  (23) 
oracle

>  <origin>  (23) 
adgpu

>  <m_score__min__energy>  (23) 
-8.5099999999999998

>  <m_primary>  (23) 
energy

$$$$
23:0
     RDKit          3D

 23 23  0  0  0  0  0  0  0  0999 V2000
   -1.9696   22.6067  -31.7982 H   0  0  0  0  0  0  0  0  0  0  0  0
   -2.4900   22.8570  -30.8620 C   0  0  0  0  0  0  0  0  0  0  0  0
   -3.7770   23.0500  -30.9100 N   0  0  0  0  0  0  0  0  0  0  0  0
   -4.6630   23.4450  -29.8110 C   0  0  0  0  0  0  0  0  0  0  0  0
   -4.1075   23.3872  -28.8633 H   0  0  0  0  0  0  0  0  0  0  0  0
   -5.5259   22.7630  -29.7959 H   0  0  0  0  0  0  0  0  0  0  0  0
   -5.1770   24.8750  -30.0030 C   0  0  0  0  0  0  0  0  0  0  0  0
   -5.2206   25.3754  -29.0244 H   0  0  0  0  0  0  0  0  0  0  0  0
   -6.1771   24.8282  -30.4587 H   0  0  0  0  0  0  0  0  0  0  0  0
   -4.3000   25.6350  -30.8880 N   0  0  0  0  0  0  0  0  0  0  0  0
   -3.5060   25.0170  -31.1720 H   0  0  0  0  0  0  0  0  0  0  0  0
   -3.8860   26.4170  -30.3310 H   0  0  0  0  0  0  0  0  0  0  0  0
   -1.6870   22.9540  -29.6260 C   0  0  0  0  0  0  0  0  0  0  0  0
   -0.9460   21.8530  -29.1670 C   0  0  0  0  0  0  0  0  0  0  0  0
   -0.9842   20.9004  -29.7156 H   0  0  0  0  0  0  0  0  0  0  0  0
   -0.1600   21.9620  -28.0160 C   0  0  0  0  0  0  0  0  0  0  0  0
    0.5600   20.8650  -27.5590 O   0  0  0  0  0  0  0  0  0  0  0  0
   -0.0920   23.1770  -27.3280 C   0  0  0  0  0  0  0  0  0  0  0  0
    0.5182   23.2593  -26.4165 H   0  0  0  0  0  0  0  0  0  0  0  0
   -0.7990   24.2870  -27.7980 C   0  0  0  0  0  0  0  0  0  0  0  0
   -0.7351   25.2452  -27.2616 H   0  0  0  0  0  0  0  0  0  0  0  0
   -1.5880   24.1830  -28.9490 C   0  0  0  0  0  0  0  0  0  0  0  0
   -2.2790   25.3010  -29.4050 O   0  0  0  0  0  0  0  0  0  0  0  0
  1  2  1  0
  2  3  2  0
  3  4  1  0
  4  5  1  0
  4  6  1  0
  4  7  1  0
  7  8  1  0
  7  9  1  0
  7 10  1  0
 10 11  1  0
 10 12  1  0
  2 13  1  0
 13 14  2  0
 14 15  1  0
 14 16  1  0
 16 17  1  0
 16 18  2  0
 18 19  1  0
 18 20  1  0
 20 21  1  0
 20 22  2  0
 22 23  1  0
 22 13  1  0
M  CHG  2  17  -1  23  -1
M  END
>  <UniqueID>  (24) 
24

>  <SMILES>  (24) 
NCC/N=C\c1cc([O-])ccc1[O-]

>  <Energy>  (24) 
26.00495602701452

>  <Genealogy>  (24) 
NCCN=Cc1cc([O-])ccc1[O-] (protonated)
NCC/N=C\c1cc([O-])ccc1[O-] (cis-trans isomerization)
NCC/N=C\c1cc([O-])ccc1[O-] (3D coordinates assigned)
NCC/N=C\c1cc([O-])ccc1[O-] (optimized conformer: 26.00495602701452 kcal/mol)

>  <smiles>  (24) 
NCCN=Cc1cc(O)ccc1O

>  <score_type>  (24) 
oracle

>  <origin>  (24) 
adgpu

>  <m_score__min__energy>  (24) 
-8.0999999999999996

>  <m_primary>  (24) 
energy

$$$$
24:0
     RDKit          3D

 42 44  0  0  0  0  0  0  0  0999 V2000
   -3.4960   26.0280  -31.2350 H   0  0  0  0  0  0  0  0  0  0  0  0
   -3.4880   25.2840  -30.5020 N   0  0  0  0  0  0  0  0  0  0  0  0
   -5.1370   24.9250  -30.1300 S   0  0  0  0  0  0  0  0  0  0  0  0
   -6.0170   26.0330  -30.6380 O   0  0  0  0  0  0  0  0  0  0  0  0
   -5.3040   24.8210  -28.6400 O   0  0  0  0  0  0  0  0  0  0  0  0
   -5.5930   23.4060  -30.8940 C   0  0  0  0  0  0  0  0  0  0  0  0
   -6.8930   23.2220  -31.3800 C   0  0  0  0  0  0  0  0  0  0  0  0
   -7.6348   24.0281  -31.2804 H   0  0  0  0  0  0  0  0  0  0  0  0
   -7.2510   22.0180  -31.9910 C   0  0  0  0  0  0  0  0  0  0  0  0
   -8.2716   21.8837  -32.3787 H   0  0  0  0  0  0  0  0  0  0  0  0
   -6.3160   20.9790  -32.1130 C   0  0  0  0  0  0  0  0  0  0  0  0
   -6.6990   19.7430  -32.7370 N   0  0  0  0  0  0  0  0  0  0  0  0
   -6.3820   19.4980  -34.1490 C   0  0  0  0  0  0  0  0  0  0  0  0
   -7.3104   19.5339  -34.7379 H   0  0  0  0  0  0  0  0  0  0  0  0
   -5.6797   20.2726  -34.4908 H   0  0  0  0  0  0  0  0  0  0  0  0
   -5.7220   18.1210  -34.3330 C   0  0  0  0  0  0  0  0  0  0  0  0
   -5.9195   17.7754  -35.3585 H   0  0  0  0  0  0  0  0  0  0  0  0
   -4.6480   18.2498  -34.1333 H   0  0  0  0  0  0  0  0  0  0  0  0
   -6.2390   17.0490  -33.3490 C   0  0  0  0  0  0  0  0  0  0  0  0
   -6.3543   16.0989  -33.8913 H   0  0  0  0  0  0  0  0  0  0  0  0
   -5.5059   16.9634  -32.5333 H   0  0  0  0  0  0  0  0  0  0  0  0
   -7.5870   17.4250  -32.7250 C   0  0  0  0  0  0  0  0  0  0  0  0
   -8.3400   17.5272  -33.5203 H   0  0  0  0  0  0  0  0  0  0  0  0
   -7.8901   16.6359  -32.0212 H   0  0  0  0  0  0  0  0  0  0  0  0
   -7.4660   18.7540  -31.9670 C   0  0  0  0  0  0  0  0  0  0  0  0
   -8.4742   19.1513  -31.7782 H   0  0  0  0  0  0  0  0  0  0  0  0
   -6.9368   18.5659  -31.0212 H   0  0  0  0  0  0  0  0  0  0  0  0
   -5.0210   21.1400  -31.5850 C   0  0  0  0  0  0  0  0  0  0  0  0
   -4.0700   20.0710  -31.7030 N   0  0  0  0  0  0  0  0  0  0  0  0
   -3.0100   20.0610  -32.4570 C   0  0  0  0  0  0  0  0  0  0  0  0
   -2.5130   21.1050  -33.2210 C   0  0  0  0  0  0  0  0  0  0  0  0
   -2.9332   22.1119  -33.3611 H   0  0  0  0  0  0  0  0  0  0  0  0
   -1.3590   20.5700  -33.7640 C   0  0  0  0  0  0  0  0  0  0  0  0
   -0.3990   21.2790  -34.6600 C   0  0  0  0  0  0  0  0  0  0  0  0
    0.3377   21.8231  -34.0508 H   0  0  0  0  0  0  0  0  0  0  0  0
    0.1200   20.5458  -35.2948 H   0  0  0  0  0  0  0  0  0  0  0  0
   -0.9471   21.9907  -35.2948 H   0  0  0  0  0  0  0  0  0  0  0  0
   -1.2050   19.3360  -33.3360 O   0  0  0  0  0  0  0  0  0  0  0  0
   -2.1840   19.0050  -32.5470 N   0  0  0  0  0  0  0  0  0  0  0  0
   -2.2860   18.0820  -32.0710 H   0  0  0  0  0  0  0  0  0  0  0  0
   -4.6610   22.3670  -31.0010 C   0  0  0  0  0  0  0  0  0  0  0  0
   -3.6376   22.5120  -30.6247 H   0  0  0  0  0  0  0  0  0  0  0  0
  1  2  1  0
  2  3  1  0
  3  4  2  0
  3  5  2  0
  3  6  1  0
  6  7  2  0
  7  8  1  0
  7  9  1  0
  9 10  1  0
  9 11  2  0
 11 12  1  0
 12 13  1  0
 13 14  1  0
 13 15  1  0
 13 16  1  0
 16 17  1  0
 16 18  1  0
 16 19  1  0
 19 20  1  0
 19 21  1  0
 19 22  1  0
 22 23  1  0
 22 24  1  0
 22 25  1  0
 25 26  1  0
 25 27  1  0
 11 28  1  0
 28 29  1  0
 29 30  2  0
 30 31  1  0
 31 32  1  0
 31 33  2  0
 33 34  1  0
 34 35  1  0
 34 36  1  0
 34 37  1  0
 33 38  1  0
 38 39  1  0
 39 40  1  0
 28 41  2  0
 41 42  1  0
 41  6  1  0
 25 12  1  0
 39 30  1  0
M  CHG  1   2  -1
M  END
>  <UniqueID>  (25) 
25

>  <SMILES>  (25) 
Cc1c/c(=N\c2cc(S([NH-])(=O)=O)ccc2N2CCCCC2)[nH]o1

>  <Energy>  (25) 
85.39232326439785

>  <Genealogy>  (25) 
Cc1cc(=Nc2cc(S([NH-])(=O)=O)ccc2N2CCCCC2)[nH]o1 (protonated)
Cc1c/c(=N\c2cc(S([NH-])(=O)=O)ccc2N2CCCCC2)[nH]o1 (cis-trans isomerization)
Cc1c/c(=N\c2cc(S([NH-])(=O)=O)ccc2N2CCCCC2)[nH]o1 (3D coordinates assigned)
Cc1c/c(=N\c2cc(S([NH-])(=O)=O)ccc2N2CCCCC2)[nH]o1 (nonaromatic ring conformer: 85.39232326439785 kcal/mol)

>  <smiles>  (25) 
Cc1cc(=Nc2cc(S(N)(=O)=O)ccc2N2CCCCC2)[nH]o1

>  <score_type>  (25) 
oracle

>  <origin>  (25) 
adgpu

>  <m_score__min__energy>  (25) 
-10.57

>  <m_primary>  (25) 
energy

$$$$
25:0
     RDKit          3D

 47 50  0  0  0  0  0  0  0  0999 V2000
   -0.7970   28.5961  -26.0146 H   0  0  0  0  0  0  0  0  0  0  0  0
   -0.8950   27.5050  -25.9150 C   0  0  0  0  0  0  0  0  0  0  0  0
   -0.5010   26.3650  -27.0920 S   0  0  0  0  0  0  0  0  0  0  0  0
   -0.9490   25.0590  -26.1230 C   0  0  0  0  0  0  0  0  0  0  0  0
   -0.8890   23.8050  -26.4530 N   0  0  0  0  0  0  0  0  0  0  0  0
   -0.3250   23.2270  -27.9880 S   0  0  0  0  0  0  0  0  0  0  0  0
    0.3720   21.9070  -27.8140 O   0  0  0  0  0  0  0  0  0  0  0  0
    0.6330   24.2180  -28.5880 O   0  0  0  0  0  0  0  0  0  0  0  0
   -1.7060   23.0260  -29.0600 C   0  0  0  0  0  0  0  0  0  0  0  0
   -2.0180   21.7600  -29.5780 C   0  0  0  0  0  0  0  0  0  0  0  0
   -1.3935   20.8927  -29.3175 H   0  0  0  0  0  0  0  0  0  0  0  0
   -3.1180   21.5960  -30.4230 C   0  0  0  0  0  0  0  0  0  0  0  0
   -3.3522   20.6015  -30.8306 H   0  0  0  0  0  0  0  0  0  0  0  0
   -3.9280   22.6980  -30.7550 C   0  0  0  0  0  0  0  0  0  0  0  0
   -3.6280   23.9590  -30.2110 C   0  0  0  0  0  0  0  0  0  0  0  0
   -2.5180   24.1230  -29.3770 C   0  0  0  0  0  0  0  0  0  0  0  0
   -2.2813   25.1165  -28.9683 H   0  0  0  0  0  0  0  0  0  0  0  0
   -4.4430   25.0540  -30.5110 O   0  0  0  0  0  0  0  0  0  0  0  0
   -5.7270   24.8850  -31.1130 C   0  0  0  0  0  0  0  0  0  0  0  0
   -6.0417   25.8352  -31.5691 H   0  0  0  0  0  0  0  0  0  0  0  0
   -6.4474   24.5811  -30.3392 H   0  0  0  0  0  0  0  0  0  0  0  0
   -5.6700   23.8010  -32.1930 C   0  0  0  0  0  0  0  0  0  0  0  0
   -5.0738   24.1652  -33.0426 H   0  0  0  0  0  0  0  0  0  0  0  0
   -6.6930   23.5698  -32.5247 H   0  0  0  0  0  0  0  0  0  0  0  0
   -5.0530   22.5820  -31.6540 N   0  0  0  0  0  0  0  0  0  0  0  0
   -5.5190   21.3020  -32.1160 C   0  0  0  0  0  0  0  0  0  0  0  0
   -6.7790   20.8120  -31.7070 C   0  0  0  0  0  0  0  0  0  0  0  0
   -7.6520   21.6010  -30.7690 C   0  0  0  0  0  0  0  0  0  0  0  0
   -7.3851   21.3598  -29.7295 H   0  0  0  0  0  0  0  0  0  0  0  0
   -7.5023   22.6763  -30.9459 H   0  0  0  0  0  0  0  0  0  0  0  0
   -8.7067   21.3436  -30.9459 H   0  0  0  0  0  0  0  0  0  0  0  0
   -7.2060   19.5490  -32.1480 C   0  0  0  0  0  0  0  0  0  0  0  0
   -8.1766   19.1535  -31.8140 H   0  0  0  0  0  0  0  0  0  0  0  0
   -6.4070   18.7910  -33.0080 C   0  0  0  0  0  0  0  0  0  0  0  0
   -6.8600   17.5020  -33.4610 C   0  0  0  0  0  0  0  0  0  0  0  0
   -7.2240   16.4650  -33.8240 N   0  0  0  0  0  0  0  0  0  0  0  0
   -5.1690   19.2830  -33.4280 C   0  0  0  0  0  0  0  0  0  0  0  0
   -4.5464   18.6851  -34.1098 H   0  0  0  0  0  0  0  0  0  0  0  0
   -4.7140   20.5350  -32.9860 C   0  0  0  0  0  0  0  0  0  0  0  0
   -3.3730   21.0470  -33.4370 C   0  0  0  0  0  0  0  0  0  0  0  0
   -2.7558   21.2827  -32.5575 H   0  0  0  0  0  0  0  0  0  0  0  0
   -2.8710   20.2773  -34.0416 H   0  0  0  0  0  0  0  0  0  0  0  0
   -3.5118   21.9554  -34.0416 H   0  0  0  0  0  0  0  0  0  0  0  0
   -1.3930   25.4740  -24.9180 N   0  0  0  0  0  0  0  0  0  0  0  0
   -1.7240   24.8310  -24.1630 H   0  0  0  0  0  0  0  0  0  0  0  0
   -1.3660   26.8260  -24.7950 C   0  0  0  0  0  0  0  0  0  0  0  0
   -1.6912   27.3445  -23.8810 H   0  0  0  0  0  0  0  0  0  0  0  0
  1  2  1  0
  2  3  1  0
  3  4  1  0
  4  5  2  0
  5  6  1  0
  6  7  2  0
  6  8  2  0
  6  9  1  0
  9 10  2  0
 10 11  1  0
 10 12  1  0
 12 13  1  0
 12 14  2  0
 14 15  1  0
 15 16  2  0
 16 17  1  0
 15 18  1  0
 18 19  1  0
 19 20  1  0
 19 21  1  0
 19 22  1  0
 22 23  1  0
 22 24  1  0
 22 25  1  0
 25 26  1  0
 26 27  2  0
 27 28  1  0
 28 29  1  0
 28 30  1  0
 28 31  1  0
 27 32  1  0
 32 33  1  0
 32 34  2  0
 34 35  1  0
 35 36  3  0
 34 37  1  0
 37 38  1  0
 37 39  2  0
 39 40  1  0
 40 41  1  0
 40 42  1  0
 40 43  1  0
  4 44  1  0
 44 45  1  0
 44 46  1  0
 46 47  1  0
 46  2  2  0
 16  9  1  0
 39 26  1  0
 25 14  1  0
M  END
>  <UniqueID>  (26) 
26

>  <SMILES>  (26) 
Cc1cc(C#N)cc(C)c1N1CCOc2cc(S(=O)(=O)/N=c3/[nH]ccs3)ccc21

>  <Energy>  (26) 
91.08033706881129

>  <Genealogy>  (26) 
Cc1cc(C#N)cc(C)c1N1CCOc2cc(S(=O)(=O)/N=c3/[nH]ccs3)ccc21 (cis-trans isomerization)
Cc1cc(C#N)cc(C)c1N1CCOc2cc(S(=O)(=O)/N=c3/[nH]ccs3)ccc21 (3D coordinates assigned)
Cc1cc(C#N)cc(C)c1N1CCOc2cc(S(=O)(=O)/N=c3/[nH]ccs3)ccc21 (nonaromatic ring conformer: 91.08033706881129 kcal/mol)

>  <smiles>  (26) 
Cc1cc(C#N)cc(C)c1N1CCOc2cc(S(=O)(=O)N=c3[nH]ccs3)ccc21

>  <score_type>  (26) 
oracle

>  <origin>  (26) 
adgpu

>  <m_score__min__energy>  (26) 
-9.9399999999999995

>  <m_primary>  (26) 
energy

$$$$
26:0
     RDKit          3D

 49 51  0  0  0  0  0  0  0  0999 V2000
   -1.5690   21.2620  -26.9370 C   0  0  0  0  0  0  0  0  0  0  0  0
   -2.0550   22.3710  -27.8340 C   0  0  0  0  0  0  0  0  0  0  0  0
   -3.3180   22.2110  -28.4230 C   0  0  0  0  0  0  0  0  0  0  0  0
   -3.8450   23.1870  -29.2570 C   0  0  0  0  0  0  0  0  0  0  0  0
   -3.1020   24.3210  -29.5710 C   0  0  0  0  0  0  0  0  0  0  0  0
   -3.6840   25.2910  -30.4550 N   0  0  0  0  0  0  0  0  0  0  0  0
   -5.0590   25.3310  -30.8550 C   0  0  0  0  0  0  0  0  0  0  0  0
   -5.8560   26.0760  -30.2290 O   0  0  0  0  0  0  0  0  0  0  0  0
   -5.5530   24.5470  -31.9500 N   0  0  0  0  0  0  0  0  0  0  0  0
   -6.2210   23.2800  -31.8540 C   0  0  0  0  0  0  0  0  0  0  0  0
   -7.4960   23.2410  -31.2770 C   0  0  0  0  0  0  0  0  0  0  0  0
   -8.1910   22.0330  -31.1760 C   0  0  0  0  0  0  0  0  0  0  0  0
   -7.6090   20.8500  -31.6340 C   0  0  0  0  0  0  0  0  0  0  0  0
   -6.3160   20.8680  -32.1640 C   0  0  0  0  0  0  0  0  0  0  0  0
   -5.6090   22.0720  -32.2560 C   0  0  0  0  0  0  0  0  0  0  0  0
   -4.2980   22.0510  -32.7150 O   0  0  0  0  0  0  0  0  0  0  0  0
   -1.8410   24.5270  -28.9770 C   0  0  0  0  0  0  0  0  0  0  0  0
   -1.1470   25.6910  -29.3140 O   0  0  0  0  0  0  0  0  0  0  0  0
   -1.3240   23.5750  -28.0520 C   0  0  0  0  0  0  0  0  0  0  0  0
    0.1680   23.9380  -27.1260 S   0  0  0  0  0  0  0  0  0  0  0  0
    0.9850   22.6810  -27.0090 O   0  0  0  0  0  0  0  0  0  0  0  0
    1.0220   24.9120  -27.8870 O   0  0  0  0  0  0  0  0  0  0  0  0
   -0.1550   24.6640  -25.4970 C   0  0  0  0  0  0  0  0  0  0  0  0
   -1.5930   25.2420  -25.3410 C   0  0  0  0  0  0  0  0  0  0  0  0
   -1.6150   26.7670  -25.1740 C   0  0  0  0  0  0  0  0  0  0  0  0
   -0.7580   27.2200  -23.9790 C   0  0  0  0  0  0  0  0  0  0  0  0
    0.5520   26.4190  -23.8180 C   0  0  0  0  0  0  0  0  0  0  0  0
    0.9420   25.6760  -25.0990 C   0  0  0  0  0  0  0  0  0  0  0  0
   -1.6985   21.5576  -25.8854 H   0  0  0  0  0  0  0  0  0  0  0  0
   -2.1495   20.3489  -27.1354 H   0  0  0  0  0  0  0  0  0  0  0  0
   -0.5042   21.0699  -27.1354 H   0  0  0  0  0  0  0  0  0  0  0  0
   -3.8989   21.2990  -28.2210 H   0  0  0  0  0  0  0  0  0  0  0  0
   -4.8561   23.0635  -29.6723 H   0  0  0  0  0  0  0  0  0  0  0  0
   -7.9538   24.1677  -30.9006 H   0  0  0  0  0  0  0  0  0  0  0  0
   -9.1985   22.0144  -30.7348 H   0  0  0  0  0  0  0  0  0  0  0  0
   -8.1677   19.9041  -31.5778 H   0  0  0  0  0  0  0  0  0  0  0  0
   -5.8524   19.9324  -32.5101 H   0  0  0  0  0  0  0  0  0  0  0  0
   -0.1440   25.7850  -29.2700 H   0  0  0  0  0  0  0  0  0  0  0  0
   -0.1088   23.8326  -24.7782 H   0  0  0  0  0  0  0  0  0  0  0  0
   -2.1746   24.9797  -26.2371 H   0  0  0  0  0  0  0  0  0  0  0  0
   -2.0238   24.8062  -24.4275 H   0  0  0  0  0  0  0  0  0  0  0  0
   -1.2230   27.2319  -26.0906 H   0  0  0  0  0  0  0  0  0  0  0  0
   -2.6540   27.0772  -24.9886 H   0  0  0  0  0  0  0  0  0  0  0  0
   -0.5020   28.2809  -24.1171 H   0  0  0  0  0  0  0  0  0  0  0  0
   -1.3546   27.0479  -23.0710 H   0  0  0  0  0  0  0  0  0  0  0  0
    1.3615   27.1150  -23.5527 H   0  0  0  0  0  0  0  0  0  0  0  0
    0.3920   25.6684  -23.0299 H   0  0  0  0  0  0  0  0  0  0  0  0
    1.0745   26.4040  -25.9129 H   0  0  0  0  0  0  0  0  0  0  0  0
    1.8799   25.1297  -24.9201 H   0  0  0  0  0  0  0  0  0  0  0  0
  1  2  1  0
  2  3  2  0
  3  4  1  0
  4  5  2  0
  5  6  1  0
  6  7  1  0
  7  8  2  0
  7  9  1  0
  9 10  1  0
 10 11  2  0
 11 12  1  0
 12 13  2  0
 13 14  1  0
 14 15  2  0
 15 16  1  0
  5 17  1  0
 17 18  1  0
 17 19  2  0
 19 20  1  0
 20 21  2  0
 20 22  2  0
 20 23  1  0
 23 24  1  0
 24 25  1  0
 25 26  1  0
 26 27  1  0
 27 28  1  0
 19  2  1  0
 28 23  1  0
 15 10  1  0
  1 29  1  0
  1 30  1  0
  1 31  1  0
  3 32  1  0
  4 33  1  0
 11 34  1  0
 12 35  1  0
 13 36  1  0
 14 37  1  0
 18 38  1  0
 23 39  1  0
 24 40  1  0
 24 41  1  0
 25 42  1  0
 25 43  1  0
 26 44  1  0
 26 45  1  0
 27 46  1  0
 27 47  1  0
 28 48  1  0
 28 49  1  0
M  CHG  3   6  -1   9  -1  16  -1
M  END
>  <UniqueID>  (27) 
27

>  <SMILES>  (27) 
Cc1ccc([N-]C(=O)[N-]c2ccccc2[O-])c(O)c1S(=O)(=O)C1CCCCC1

>  <Energy>  (27) 
68.2573103800723

>  <Genealogy>  (27) 
Cc1ccc([N-]C(=O)[N-]c2ccccc2[O-])c(O)c1S(=O)(=O)C1CCCCC1 (protonated)
Cc1ccc([N-]C(=O)[N-]c2ccccc2[O-])c(O)c1S(=O)(=O)C1CCCCC1 (3D coordinates assigned)
Cc1ccc([N-]C(=O)[N-]c2ccccc2[O-])c(O)c1S(=O)(=O)C1CCCCC1 (nonaromatic ring conformer: 68.2573103800723 kcal/mol)

>  <smiles>  (27) 
Cc1ccc(NC(=O)Nc2ccccc2O)c(O)c1S(=O)(=O)C1CCCCC1

>  <score_type>  (27) 
oracle

>  <origin>  (27) 
adgpu

>  <m_score__min__energy>  (27) 
-15.26

>  <m_primary>  (27) 
energy

$$$$
27:0
     RDKit          3D

 44 46  0  0  0  0  0  0  0  0999 V2000
    1.3310   23.0970  -26.7210 C   0  0  0  0  0  0  0  0  0  0  0  0
    0.0480   23.4530  -27.4130 C   0  0  0  0  0  0  0  0  0  0  0  0
    0.0180   24.5420  -28.2290 N   0  0  0  0  0  0  0  0  0  0  0  0
   -1.1120   24.9130  -28.8840 C   0  0  0  0  0  0  0  0  0  0  0  0
   -2.2840   24.1610  -28.7230 C   0  0  0  0  0  0  0  0  0  0  0  0
   -3.5380   24.5320  -29.4140 C   0  0  0  0  0  0  0  0  0  0  0  0
   -3.5000   24.9150  -30.6160 O   0  0  0  0  0  0  0  0  0  0  0  0
   -4.7970   24.4600  -28.7280 N   0  0  0  0  0  0  0  0  0  0  0  0
   -6.0490   24.8960  -29.3430 C   0  0  0  0  0  0  0  0  0  0  0  0
   -6.5960   23.8140  -30.2330 C   0  0  0  0  0  0  0  0  0  0  0  0
   -7.5400   22.8960  -29.7480 C   0  0  0  0  0  0  0  0  0  0  0  0
   -8.0220   21.8770  -30.5750 C   0  0  0  0  0  0  0  0  0  0  0  0
   -7.5590   21.7510  -31.8890 C   0  0  0  0  0  0  0  0  0  0  0  0
   -8.0750   20.7230  -32.6910 O   0  0  0  0  0  0  0  0  0  0  0  0
   -7.4100   19.5300  -33.0120 C   0  0  0  0  0  0  0  0  0  0  0  0
   -7.8220   18.3430  -32.3940 C   0  0  0  0  0  0  0  0  0  0  0  0
   -7.1760   17.1360  -32.6770 C   0  0  0  0  0  0  0  0  0  0  0  0
   -6.1000   17.1100  -33.5730 C   0  0  0  0  0  0  0  0  0  0  0  0
   -5.2870   15.5970  -33.9270 Cl  0  0  0  0  0  0  0  0  0  0  0  0
   -5.6690   18.2950  -34.1790 C   0  0  0  0  0  0  0  0  0  0  0  0
   -6.3160   19.5020  -33.8960 C   0  0  0  0  0  0  0  0  0  0  0  0
   -6.6250   22.6800  -32.3820 C   0  0  0  0  0  0  0  0  0  0  0  0
   -6.1420   23.7000  -31.5560 C   0  0  0  0  0  0  0  0  0  0  0  0
   -2.2540   23.0720  -27.9080 N   0  0  0  0  0  0  0  0  0  0  0  0
   -1.1270   22.6920  -27.2480 C   0  0  0  0  0  0  0  0  0  0  0  0
   -1.1730   21.4800  -26.3670 C   0  0  0  0  0  0  0  0  0  0  0  0
    1.1836   23.1379  -25.6317 H   0  0  0  0  0  0  0  0  0  0  0  0
    1.6348   22.0806  -27.0120 H   0  0  0  0  0  0  0  0  0  0  0  0
    2.1151   23.8115  -27.0120 H   0  0  0  0  0  0  0  0  0  0  0  0
   -1.1078   25.7982  -29.5370 H   0  0  0  0  0  0  0  0  0  0  0  0
   -4.8370   24.0850  -27.7530 H   0  0  0  0  0  0  0  0  0  0  0  0
   -6.7815   25.1224  -28.5542 H   0  0  0  0  0  0  0  0  0  0  0  0
   -5.8575   25.7948  -29.9475 H   0  0  0  0  0  0  0  0  0  0  0  0
   -7.9023   22.9785  -28.7127 H   0  0  0  0  0  0  0  0  0  0  0  0
   -8.7707   21.1692  -30.1896 H   0  0  0  0  0  0  0  0  0  0  0  0
   -8.6595   18.3604  -31.6811 H   0  0  0  0  0  0  0  0  0  0  0  0
   -7.5130   16.2061  -32.1956 H   0  0  0  0  0  0  0  0  0  0  0  0
   -4.8204   18.2773  -34.8787 H   0  0  0  0  0  0  0  0  0  0  0  0
   -5.9681   20.4334  -34.3666 H   0  0  0  0  0  0  0  0  0  0  0  0
   -6.2730   22.6040  -33.4214 H   0  0  0  0  0  0  0  0  0  0  0  0
   -5.4031   24.4160  -31.9450 H   0  0  0  0  0  0  0  0  0  0  0  0
   -1.1611   21.7926  -25.3124 H   0  0  0  0  0  0  0  0  0  0  0  0
   -2.0933   20.9131  -26.5711 H   0  0  0  0  0  0  0  0  0  0  0  0
   -0.2983   20.8450  -26.5711 H   0  0  0  0  0  0  0  0  0  0  0  0
  1  2  1  0
  2  3  2  0
  3  4  1  0
  4  5  2  0
  5  6  1  0
  6  7  2  0
  6  8  1  0
  8  9  1  0
  9 10  1  0
 10 11  2  0
 11 12  1  0
 12 13  2  0
 13 14  1  0
 14 15  1  0
 15 16  2  0
 16 17  1  0
 17 18  2  0
 18 19  1  0
 18 20  1  0
 20 21  2  0
 13 22  1  0
 22 23  2  0
  5 24  1  0
 24 25  2  0
 25 26  1  0
 25  2  1  0
 23 10  1  0
 21 15  1  0
  1 27  1  0
  1 28  1  0
  1 29  1  0
  4 30  1  0
  8 31  1  0
  9 32  1  0
  9 33  1  0
 11 34  1  0
 12 35  1  0
 16 36  1  0
 17 37  1  0
 20 38  1  0
 21 39  1  0
 22 40  1  0
 23 41  1  0
 26 42  1  0
 26 43  1  0
 26 44  1  0
M  END
>  <UniqueID>  (28) 
28

>  <SMILES>  (28) 
Cc1ncc(C(=O)NCc2ccc(Oc3ccc(Cl)cc3)cc2)nc1C

>  <Energy>  (28) 
50.702984188677235

>  <Genealogy>  (28) 
Cc1ncc(C(=O)NCc2ccc(Oc3ccc(Cl)cc3)cc2)nc1C (3D coordinates assigned)
Cc1ncc(C(=O)NCc2ccc(Oc3ccc(Cl)cc3)cc2)nc1C (optimized conformer: 50.702984188677235 kcal/mol)

>  <smiles>  (28) 
Cc1ncc(C(=O)NCc2ccc(Oc3ccc(Cl)cc3)cc2)nc1C

>  <score_type>  (28) 
oracle

>  <origin>  (28) 
adgpu

>  <m_score__min__energy>  (28) 
-9.3200000000000003

>  <m_primary>  (28) 
energy

$$$$
28:0
     RDKit          3D

 38 40  0  0  0  0  0  0  0  0999 V2000
    0.1130   20.8770  -32.2840 C   0  0  0  0  0  0  0  0  0  0  0  0
   -0.4970   21.0200  -30.9260 C   0  0  0  0  0  0  0  0  0  0  0  0
   -0.5400   19.9150  -30.0480 C   0  0  0  0  0  0  0  0  0  0  0  0
   -1.1270   20.0730  -28.7790 C   0  0  0  0  0  0  0  0  0  0  0  0
   -1.2250   18.9270  -27.8170 C   0  0  0  0  0  0  0  0  0  0  0  0
   -1.6460   21.2920  -28.4740 N   0  0  0  0  0  0  0  0  0  0  0  0
   -2.2590   21.6490  -27.3570 N   0  0  0  0  0  0  0  0  0  0  0  0
   -2.6090   22.9510  -27.5000 C   0  0  0  0  0  0  0  0  0  0  0  0
   -2.1970   23.4220  -28.7450 C   0  0  0  0  0  0  0  0  0  0  0  0
   -2.4080   24.7590  -29.3350 C   0  0  0  0  0  0  0  0  0  0  0  0
   -1.5770   25.6750  -29.0990 O   0  0  0  0  0  0  0  0  0  0  0  0
   -3.4990   25.0300  -30.2230 N   0  0  0  0  0  0  0  0  0  0  0  0
   -4.3770   24.0540  -30.8030 C   0  0  0  0  0  0  0  0  0  0  0  0
   -5.7720   24.1360  -30.6500 C   0  0  0  0  0  0  0  0  0  0  0  0
   -6.6000   23.1770  -31.2370 C   0  0  0  0  0  0  0  0  0  0  0  0
   -6.0470   22.1420  -31.9950 C   0  0  0  0  0  0  0  0  0  0  0  0
   -4.6590   22.0700  -32.1870 C   0  0  0  0  0  0  0  0  0  0  0  0
   -4.0590   20.9400  -32.9840 C   0  0  0  0  0  0  0  0  0  0  0  0
   -2.6630   21.2160  -33.3160 N   0  0  0  0  0  0  0  0  0  0  0  0
   -3.8290   23.0290  -31.5840 C   0  0  0  0  0  0  0  0  0  0  0  0
   -1.6010   22.3250  -29.3230 C   0  0  0  0  0  0  0  0  0  0  0  0
   -1.0360   22.2180  -30.5500 N   0  0  0  0  0  0  0  0  0  0  0  0
    1.1794   20.6270  -32.1825 H   0  0  0  0  0  0  0  0  0  0  0  0
   -0.4009   20.0750  -32.8342 H   0  0  0  0  0  0  0  0  0  0  0  0
    0.0091   21.8238  -32.8342 H   0  0  0  0  0  0  0  0  0  0  0  0
   -0.1206   18.9445  -30.3517 H   0  0  0  0  0  0  0  0  0  0  0  0
   -1.1923   19.3097  -26.7862 H   0  0  0  0  0  0  0  0  0  0  0  0
   -2.1722   18.3918  -27.9795 H   0  0  0  0  0  0  0  0  0  0  0  0
   -0.3824   18.2388  -27.9795 H   0  0  0  0  0  0  0  0  0  0  0  0
   -3.1403   23.5480  -26.7441 H   0  0  0  0  0  0  0  0  0  0  0  0
   -6.2125   24.9578  -30.0663 H   0  0  0  0  0  0  0  0  0  0  0  0
   -7.6901   23.2366  -31.1023 H   0  0  0  0  0  0  0  0  0  0  0  0
   -6.7023   21.3805  -32.4431 H   0  0  0  0  0  0  0  0  0  0  0  0
   -4.1116   20.0146  -32.3916 H   0  0  0  0  0  0  0  0  0  0  0  0
   -4.6267   20.8316  -33.9199 H   0  0  0  0  0  0  0  0  0  0  0  0
   -2.2190   21.7190  -32.5120 H   0  0  0  0  0  0  0  0  0  0  0  0
   -2.6340   21.8540  -34.1440 H   0  0  0  0  0  0  0  0  0  0  0  0
   -2.7396   22.9746  -31.7263 H   0  0  0  0  0  0  0  0  0  0  0  0
  1  2  1  0
  2  3  1  0
  3  4  2  0
  4  5  1  0
  4  6  1  0
  6  7  1  0
  7  8  2  0
  8  9  1  0
  9 10  1  0
 10 11  2  0
 10 12  1  0
 12 13  1  0
 13 14  2  0
 14 15  1  0
 15 16  2  0
 16 17  1  0
 17 18  1  0
 18 19  1  0
 17 20  2  0
  9 21  2  0
 21 22  1  0
 22  2  2  0
 21  6  1  0
 20 13  1  0
  1 23  1  0
  1 24  1  0
  1 25  1  0
  3 26  1  0
  5 27  1  0
  5 28  1  0
  5 29  1  0
  8 30  1  0
 14 31  1  0
 15 32  1  0
 16 33  1  0
 18 34  1  0
 18 35  1  0
 19 36  1  0
 19 37  1  0
 20 38  1  0
M  CHG  1  12  -1
M  END
>  <UniqueID>  (29) 
29

>  <SMILES>  (29) 
Cc1cc(C)n2ncc(C(=O)[N-]c3cccc(CN)c3)c2n1

>  <Energy>  (29) 
79.63321843352902

>  <Genealogy>  (29) 
Cc1cc(C)n2ncc(C(=O)[N-]c3cccc(CN)c3)c2n1 (protonated)
Cc1cc(C)n2ncc(C(=O)[N-]c3cccc(CN)c3)c2n1 (3D coordinates assigned)
Cc1cc(C)n2ncc(C(=O)[N-]c3cccc(CN)c3)c2n1 (optimized conformer: 79.63321843352902 kcal/mol)

>  <smiles>  (29) 
Cc1cc(C)n2ncc(C(=O)Nc3cccc(CN)c3)c2n1

>  <score_type>  (29) 
oracle

>  <origin>  (29) 
adgpu

>  <m_score__min__energy>  (29) 
-9.5

>  <m_primary>  (29) 
energy

$$$$
29:0
     RDKit          3D

 52 55  0  0  0  0  0  0  0  0999 V2000
   -6.1120   17.9440  -34.2060 C   0  0  0  0  0  0  0  0  0  0  0  0
   -6.8910   18.8670  -33.4510 O   0  0  0  0  0  0  0  0  0  0  0  0
   -6.3670   19.9620  -32.7460 C   0  0  0  0  0  0  0  0  0  0  0  0
   -4.9980   20.0660  -32.4380 C   0  0  0  0  0  0  0  0  0  0  0  0
   -4.5020   21.1770  -31.7410 C   0  0  0  0  0  0  0  0  0  0  0  0
   -5.3920   22.1850  -31.3130 C   0  0  0  0  0  0  0  0  0  0  0  0
   -6.7540   22.0820  -31.6280 C   0  0  0  0  0  0  0  0  0  0  0  0
   -7.2480   20.9750  -32.3420 C   0  0  0  0  0  0  0  0  0  0  0  0
   -8.6070   20.8450  -32.6680 O   0  0  0  0  0  0  0  0  0  0  0  0
   -9.4100   19.7150  -32.3440 C   0  0  0  0  0  0  0  0  0  0  0  0
   -4.9090   23.4070  -30.5620 C   0  0  0  0  0  0  0  0  0  0  0  0
   -3.4920   23.3040  -30.1920 N   0  0  0  0  0  0  0  0  0  0  0  0
   -2.9930   24.0790  -29.0860 C   0  0  0  0  0  0  0  0  0  0  0  0
   -3.6700   24.1070  -27.8580 C   0  0  0  0  0  0  0  0  0  0  0  0
   -3.1680   24.8820  -26.8120 C   0  0  0  0  0  0  0  0  0  0  0  0
   -2.0010   25.6430  -26.9890 C   0  0  0  0  0  0  0  0  0  0  0  0
   -1.4620   26.4630  -25.8770 C   0  0  0  0  0  0  0  0  0  0  0  0
   -1.6430   26.0890  -24.6850 O   0  0  0  0  0  0  0  0  0  0  0  0
   -0.7630   27.6910  -26.1360 N   0  0  0  0  0  0  0  0  0  0  0  0
   -0.0200   28.3820  -25.1210 C   0  0  0  0  0  0  0  0  0  0  0  0
    0.6280   27.6350  -24.1250 C   0  0  0  0  0  0  0  0  0  0  0  0
    1.3610   28.2770  -23.1230 C   0  0  0  0  0  0  0  0  0  0  0  0
    1.4400   29.6710  -23.0990 C   0  0  0  0  0  0  0  0  0  0  0  0
    0.7770   30.4260  -24.0700 C   0  0  0  0  0  0  0  0  0  0  0  0
    0.0400   29.7910  -25.0780 C   0  0  0  0  0  0  0  0  0  0  0  0
   -0.8580   30.7900  -26.2150 Cl  0  0  0  0  0  0  0  0  0  0  0  0
   -1.3580   25.5920  -28.2360 C   0  0  0  0  0  0  0  0  0  0  0  0
   -1.8650   24.8270  -29.2390 N   0  0  0  0  0  0  0  0  0  0  0  0
   -2.5770   22.6600  -31.1380 C   0  0  0  0  0  0  0  0  0  0  0  0
   -3.0370   21.2280  -31.3850 C   0  0  0  0  0  0  0  0  0  0  0  0
   -5.5569   17.2863  -33.5209 H   0  0  0  0  0  0  0  0  0  0  0  0
   -6.7751   17.3372  -34.8401 H   0  0  0  0  0  0  0  0  0  0  0  0
   -5.4024   18.4957  -34.8401 H   0  0  0  0  0  0  0  0  0  0  0  0
   -4.3089   19.2665  -32.7476 H   0  0  0  0  0  0  0  0  0  0  0  0
   -7.4456   22.8772  -31.3128 H   0  0  0  0  0  0  0  0  0  0  0  0
   -9.4801   19.6164  -31.2507 H   0  0  0  0  0  0  0  0  0  0  0  0
  -10.4173   19.8480  -32.7655 H   0  0  0  0  0  0  0  0  0  0  0  0
   -8.9531   18.8075  -32.7655 H   0  0  0  0  0  0  0  0  0  0  0  0
   -5.0454   24.2924  -31.2003 H   0  0  0  0  0  0  0  0  0  0  0  0
   -5.4958   23.4887  -29.6352 H   0  0  0  0  0  0  0  0  0  0  0  0
   -4.5911   23.5216  -27.7204 H   0  0  0  0  0  0  0  0  0  0  0  0
   -3.6891   24.8970  -25.8434 H   0  0  0  0  0  0  0  0  0  0  0  0
   -0.9870   28.2140  -27.0120 H   0  0  0  0  0  0  0  0  0  0  0  0
    0.5585   26.5372  -24.1331 H   0  0  0  0  0  0  0  0  0  0  0  0
    1.8759   27.6839  -22.3529 H   0  0  0  0  0  0  0  0  0  0  0  0
    2.0245   30.1750  -22.3152 H   0  0  0  0  0  0  0  0  0  0  0  0
    0.8340   31.5242  -24.0428 H   0  0  0  0  0  0  0  0  0  0  0  0
   -0.4394   26.1739  -28.4023 H   0  0  0  0  0  0  0  0  0  0  0  0
   -2.5783   23.2157  -32.0873 H   0  0  0  0  0  0  0  0  0  0  0  0
   -1.5589   22.6543  -30.7215 H   0  0  0  0  0  0  0  0  0  0  0  0
   -2.4519   20.8014  -32.2131 H   0  0  0  0  0  0  0  0  0  0  0  0
   -2.8835   20.6498  -30.4619 H   0  0  0  0  0  0  0  0  0  0  0  0
  1  2  1  0
  2  3  1  0
  3  4  2  0
  4  5  1  0
  5  6  2  0
  6  7  1  0
  7  8  2  0
  8  9  1  0
  9 10  1  0
  6 11  1  0
 11 12  1  0
 12 13  1  0
 13 14  2  0
 14 15  1  0
 15 16  2  0
 16 17  1  0
 17 18  2  0
 17 19  1  0
 19 20  1  0
 20 21  2  0
 21 22  1  0
 22 23  2  0
 23 24  1  0
 24 25  2  0
 25 26  1  0
 16 27  1  0
 27 28  2  0
 12 29  1  0
 29 30  1  0
  8  3  1  0
 28 13  1  0
 30  5  1  0
 25 20  1  0
  1 31  1  0
  1 32  1  0
  1 33  1  0
  4 34  1  0
  7 35  1  0
 10 36  1  0
 10 37  1  0
 10 38  1  0
 11 39  1  0
 11 40  1  0
 14 41  1  0
 15 42  1  0
 19 43  1  0
 21 44  1  0
 22 45  1  0
 23 46  1  0
 24 47  1  0
 27 48  1  0
 29 49  1  0
 29 50  1  0
 30 51  1  0
 30 52  1  0
M  END
>  <UniqueID>  (30) 
30

>  <SMILES>  (30) 
COc1cc2c(cc1OC)CN(c1ccc(C(=O)Nc3ccccc3Cl)cn1)CC2

>  <Energy>  (30) 
68.54760849001438

>  <Genealogy>  (30) 
COc1cc2c(cc1OC)CN(c1ccc(C(=O)Nc3ccccc3Cl)cn1)CC2 (3D coordinates assigned)
COc1cc2c(cc1OC)CN(c1ccc(C(=O)Nc3ccccc3Cl)cn1)CC2 (nonaromatic ring conformer: 68.54760849001438 kcal/mol)

>  <smiles>  (30) 
COc1cc2c(cc1OC)CN(c1ccc(C(=O)Nc3ccccc3Cl)cn1)CC2

>  <score_type>  (30) 
oracle

>  <origin>  (30) 
adgpu

>  <m_score__min__energy>  (30) 
-7.9299999999999997

>  <m_primary>  (30) 
energy

$$$$
30:0
     RDKit          3D

 48 52  0  0  0  0  0  0  0  0999 V2000
   -5.5265   26.1361  -31.4387 H   0  0  0  0  0  0  0  0  0  0  0  0
   -5.0770   25.2370  -30.9920 C   0  0  0  0  0  0  0  0  0  0  0  0
   -3.8450   25.3060  -30.4300 N   0  0  0  0  0  0  0  0  0  0  0  0
   -3.2520   24.2220  -29.8650 C   0  0  0  0  0  0  0  0  0  0  0  0
   -1.9780   24.3480  -29.2990 C   0  0  0  0  0  0  0  0  0  0  0  0
   -1.4660   25.3215  -29.3106 H   0  0  0  0  0  0  0  0  0  0  0  0
   -1.3550   23.2390  -28.7190 C   0  0  0  0  0  0  0  0  0  0  0  0
    0.2430   23.4020  -28.0130 Cl  0  0  0  0  0  0  0  0  0  0  0  0
   -2.0030   22.0010  -28.7030 C   0  0  0  0  0  0  0  0  0  0  0  0
   -1.5095   21.1305  -28.2463 H   0  0  0  0  0  0  0  0  0  0  0  0
   -3.2760   21.8640  -29.2650 C   0  0  0  0  0  0  0  0  0  0  0  0
   -3.7786   20.8856  -29.2491 H   0  0  0  0  0  0  0  0  0  0  0  0
   -3.9190   22.9730  -29.8520 C   0  0  0  0  0  0  0  0  0  0  0  0
   -5.1990   22.8730  -30.4430 C   0  0  0  0  0  0  0  0  0  0  0  0
   -5.8180   21.7200  -30.4540 N   0  0  0  0  0  0  0  0  0  0  0  0
   -7.0740   21.4280  -31.0870 C   0  0  0  0  0  0  0  0  0  0  0  0
   -8.2440   21.9410  -30.5120 C   0  0  0  0  0  0  0  0  0  0  0  0
   -8.1845   22.5241  -29.5811 H   0  0  0  0  0  0  0  0  0  0  0  0
   -9.4840   21.7180  -31.1110 C   0  0  0  0  0  0  0  0  0  0  0  0
  -10.3963   22.1312  -30.6561 H   0  0  0  0  0  0  0  0  0  0  0  0
   -9.5680   20.9710  -32.2870 C   0  0  0  0  0  0  0  0  0  0  0  0
  -10.5448   20.8091  -32.7662 H   0  0  0  0  0  0  0  0  0  0  0  0
   -8.4140   20.4290  -32.8560 C   0  0  0  0  0  0  0  0  0  0  0  0
   -8.4881   19.8401  -33.7821 H   0  0  0  0  0  0  0  0  0  0  0  0
   -7.1570   20.6290  -32.2560 C   0  0  0  0  0  0  0  0  0  0  0  0
   -5.9620   19.9880  -32.8570 C   0  0  0  0  0  0  0  0  0  0  0  0
   -6.0620   18.7800  -33.4710 N   0  0  0  0  0  0  0  0  0  0  0  0
   -4.9760   18.1630  -34.0020 C   0  0  0  0  0  0  0  0  0  0  0  0
   -5.1160   17.0450  -34.5650 O   0  0  0  0  0  0  0  0  0  0  0  0
   -3.7140   18.7730  -33.9200 C   0  0  0  0  0  0  0  0  0  0  0  0
   -3.6360   20.0430  -33.3210 C   0  0  0  0  0  0  0  0  0  0  0  0
   -4.7540   20.6090  -32.7940 N   0  0  0  0  0  0  0  0  0  0  0  0
   -2.3230   20.7530  -33.1590 C   0  0  0  0  0  0  0  0  0  0  0  0
   -2.0065   20.6762  -32.1083 H   0  0  0  0  0  0  0  0  0  0  0  0
   -2.4678   21.8013  -33.4591 H   0  0  0  0  0  0  0  0  0  0  0  0
   -1.2240   20.1560  -34.0510 C   0  0  0  0  0  0  0  0  0  0  0  0
   -0.2467   20.5120  -33.6930 H   0  0  0  0  0  0  0  0  0  0  0  0
   -1.4183   20.4804  -35.0840 H   0  0  0  0  0  0  0  0  0  0  0  0
   -1.2250   18.6790  -34.0360 N   0  0  0  0  0  0  0  0  0  0  0  0
   -0.8870   18.1250  -32.7130 C   0  0  0  0  0  0  0  0  0  0  0  0
   -1.2878   18.7820  -31.9271 H   0  0  0  0  0  0  0  0  0  0  0  0
   -1.3271   17.1219  -32.6122 H   0  0  0  0  0  0  0  0  0  0  0  0
    0.2063   18.0575  -32.6122 H   0  0  0  0  0  0  0  0  0  0  0  0
   -2.4960   18.1350  -34.5540 C   0  0  0  0  0  0  0  0  0  0  0  0
   -2.5222   17.0537  -34.3536 H   0  0  0  0  0  0  0  0  0  0  0  0
   -2.5330   18.3536  -35.6314 H   0  0  0  0  0  0  0  0  0  0  0  0
   -5.7770   24.0300  -31.0060 C   0  0  0  0  0  0  0  0  0  0  0  0
   -6.7795   23.9808  -31.4561 H   0  0  0  0  0  0  0  0  0  0  0  0
  1  2  1  0
  2  3  1  0
  3  4  1  0
  4  5  2  0
  5  6  1  0
  5  7  1  0
  7  8  1  0
  7  9  2  0
  9 10  1  0
  9 11  1  0
 11 12  1  0
 11 13  2  0
 13 14  1  0
 14 15  2  0
 15 16  1  0
 16 17  2  0
 17 18  1  0
 17 19  1  0
 19 20  1  0
 19 21  2  0
 21 22  1  0
 21 23  1  0
 23 24  1  0
 23 25  2  0
 25 26  1  0
 26 27  2  0
 27 28  1  0
 28 29  2  0
 28 30  1  0
 30 31  2  0
 31 32  1  0
 31 33  1  0
 33 34  1  0
 33 35  1  0
 33 36  1  0
 36 37  1  0
 36 38  1  0
 36 39  1  0
 39 40  1  0
 40 41  1  0
 40 42  1  0
 40 43  1  0
 39 44  1  0
 44 45  1  0
 44 46  1  0
 14 47  1  0
 47 48  1  0
 47  2  2  0
 13  4  1  0
 25 16  1  0
 32 26  1  0
 44 30  1  0
M  CHG  2   3  -1  32  -1
M  END
>  <UniqueID>  (31) 
31

>  <SMILES>  (31) 
CN1CCc2[n-]c(-c3ccccc3/N=c3\cc[n-]c4cc(Cl)ccc34)nc(=O)c2C1

>  <Energy>  (31) 
78.43919397708447

>  <Genealogy>  (31) 
CN1CCc2[n-]c(-c3ccccc3N=c3cc[n-]c4cc(Cl)ccc34)nc(=O)c2C1 (protonated)
CN1CCc2[n-]c(-c3ccccc3/N=c3\cc[n-]c4cc(Cl)ccc34)nc(=O)c2C1 (cis-trans isomerization)
CN1CCc2[n-]c(-c3ccccc3/N=c3\cc[n-]c4cc(Cl)ccc34)nc(=O)c2C1 (3D coordinates assigned)
CN1CCc2[n-]c(-c3ccccc3/N=c3\cc[n-]c4cc(Cl)ccc34)nc(=O)c2C1 (nonaromatic ring conformer: 78.43919397708447 kcal/mol)

>  <smiles>  (31) 
CN1CCc2[nH]c(-c3ccccc3N=c3cc[nH]c4cc(Cl)ccc34)nc(=O)c2C1

>  <score_type>  (31) 
oracle

>  <origin>  (31) 
adgpu

>  <m_score__min__energy>  (31) 
-11.550000000000001

>  <m_primary>  (31) 
energy

$$$$
31:0
     RDKit          3D

 46 49  0  0  0  0  0  0  0  0999 V2000
    2.6780   20.9680  -36.6850 C   0  0  0  0  0  0  0  0  0  0  0  0
    1.6140   20.0090  -36.2550 C   0  0  0  0  0  0  0  0  0  0  0  0
    1.5500   18.7280  -36.8090 C   0  0  0  0  0  0  0  0  0  0  0  0
    0.5390   17.8630  -36.3780 C   0  0  0  0  0  0  0  0  0  0  0  0
    0.4380   16.4780  -36.9330 C   0  0  0  0  0  0  0  0  0  0  0  0
   -0.3440   18.2810  -35.4320 N   0  0  0  0  0  0  0  0  0  0  0  0
   -0.2690   19.5300  -34.8990 C   0  0  0  0  0  0  0  0  0  0  0  0
   -1.2120   19.9550  -33.9040 N   0  0  0  0  0  0  0  0  0  0  0  0
   -2.5100   20.0820  -34.1370 N   0  0  0  0  0  0  0  0  0  0  0  0
   -3.1030   20.4810  -32.9900 C   0  0  0  0  0  0  0  0  0  0  0  0
   -4.5610   20.6530  -32.8570 C   0  0  0  0  0  0  0  0  0  0  0  0
   -5.1090   21.8880  -32.4700 C   0  0  0  0  0  0  0  0  0  0  0  0
   -6.4930   22.0330  -32.3400 C   0  0  0  0  0  0  0  0  0  0  0  0
   -7.3390   20.9540  -32.6060 C   0  0  0  0  0  0  0  0  0  0  0  0
   -6.8030   19.7290  -33.0130 C   0  0  0  0  0  0  0  0  0  0  0  0
   -5.4190   19.5800  -33.1460 C   0  0  0  0  0  0  0  0  0  0  0  0
   -2.1470   20.6050  -31.9850 C   0  0  0  0  0  0  0  0  0  0  0  0
   -2.3560   20.7940  -30.5070 C   0  0  0  0  0  0  0  0  0  0  0  0
   -2.1440   22.2370  -30.1320 C   0  0  0  0  0  0  0  0  0  0  0  0
   -3.1020   23.2090  -30.4630 C   0  0  0  0  0  0  0  0  0  0  0  0
   -2.9240   24.5400  -30.0710 C   0  0  0  0  0  0  0  0  0  0  0  0
   -3.8810   25.4920  -30.4030 O   0  0  0  0  0  0  0  0  0  0  0  0
   -1.7860   24.9090  -29.3440 C   0  0  0  0  0  0  0  0  0  0  0  0
   -1.6090   26.2330  -28.9540 O   0  0  0  0  0  0  0  0  0  0  0  0
   -0.8280   23.9450  -29.0080 C   0  0  0  0  0  0  0  0  0  0  0  0
    0.3020   24.3060  -28.2850 O   0  0  0  0  0  0  0  0  0  0  0  0
   -1.0070   22.6140  -29.3990 C   0  0  0  0  0  0  0  0  0  0  0  0
   -0.9710   20.2500  -32.6110 C   0  0  0  0  0  0  0  0  0  0  0  0
    0.1590   20.1740  -32.0580 O   0  0  0  0  0  0  0  0  0  0  0  0
    0.7070   20.3810  -35.3140 N   0  0  0  0  0  0  0  0  0  0  0  0
    3.1604   21.4028  -35.7971 H   0  0  0  0  0  0  0  0  0  0  0  0
    3.4294   20.4362  -37.2871 H   0  0  0  0  0  0  0  0  0  0  0  0
    2.2268   21.7705  -37.2871 H   0  0  0  0  0  0  0  0  0  0  0  0
    2.2789   18.4067  -37.5676 H   0  0  0  0  0  0  0  0  0  0  0  0
    0.3852   15.7546  -36.1060 H   0  0  0  0  0  0  0  0  0  0  0  0
   -0.4685   16.3957  -37.5506 H   0  0  0  0  0  0  0  0  0  0  0  0
    1.3230   16.2650  -37.5506 H   0  0  0  0  0  0  0  0  0  0  0  0
   -4.4467   22.7429  -32.2688 H   0  0  0  0  0  0  0  0  0  0  0  0
   -6.9168   22.9988  -32.0276 H   0  0  0  0  0  0  0  0  0  0  0  0
   -8.4274   21.0683  -32.4952 H   0  0  0  0  0  0  0  0  0  0  0  0
   -7.4703   18.8816  -33.2288 H   0  0  0  0  0  0  0  0  0  0  0  0
   -5.0009   18.6184  -33.4783 H   0  0  0  0  0  0  0  0  0  0  0  0
   -3.3821   20.4973  -30.2443 H   0  0  0  0  0  0  0  0  0  0  0  0
   -1.6331   20.1711  -29.9598 H   0  0  0  0  0  0  0  0  0  0  0  0
   -3.9975   22.9221  -31.0338 H   0  0  0  0  0  0  0  0  0  0  0  0
   -0.2534   21.8588  -29.1310 H   0  0  0  0  0  0  0  0  0  0  0  0
  1  2  1  0
  2  3  2  0
  3  4  1  0
  4  5  1  0
  4  6  2  0
  6  7  1  0
  7  8  1  0
  8  9  1  0
  9 10  1  0
 10 11  1  0
 11 12  2  0
 12 13  1  0
 13 14  2  0
 14 15  1  0
 15 16  2  0
 10 17  2  0
 17 18  1  0
 18 19  1  0
 19 20  2  0
 20 21  1  0
 21 22  1  0
 21 23  2  0
 23 24  1  0
 23 25  1  0
 25 26  1  0
 25 27  2  0
 17 28  1  0
 28 29  2  0
  7 30  2  0
 30  2  1  0
 28  8  1  0
 16 11  1  0
 27 19  1  0
  1 31  1  0
  1 32  1  0
  1 33  1  0
  3 34  1  0
  5 35  1  0
  5 36  1  0
  5 37  1  0
 12 38  1  0
 13 39  1  0
 14 40  1  0
 15 41  1  0
 16 42  1  0
 18 43  1  0
 18 44  1  0
 20 45  1  0
 27 46  1  0
M  CHG  4   9  -1  22  -1  24  -1  26  -1
M  END
>  <UniqueID>  (32) 
32

>  <SMILES>  (32) 
Cc1cc(C)nc(-n2[n-]c(-c3ccccc3)c(Cc3cc([O-])c([O-])c([O-])c3)c2=O)n1

>  <Energy>  (32) 
84.89042758163285

>  <Genealogy>  (32) 
Cc1cc(C)nc(-n2[n-]c(-c3ccccc3)c(Cc3cc([O-])c([O-])c([O-])c3)c2=O)n1 (protonated)
Cc1cc(C)nc(-n2[n-]c(-c3ccccc3)c(Cc3cc([O-])c([O-])c([O-])c3)c2=O)n1 (3D coordinates assigned)
Cc1cc(C)nc(-n2[n-]c(-c3ccccc3)c(Cc3cc([O-])c([O-])c([O-])c3)c2=O)n1 (optimized conformer: 84.89042758163285 kcal/mol)

>  <smiles>  (32) 
Cc1cc(C)nc(-n2[nH]c(-c3ccccc3)c(Cc3cc(O)c(O)c(O)c3)c2=O)n1

>  <score_type>  (32) 
oracle

>  <origin>  (32) 
adgpu

>  <m_score__min__energy>  (32) 
-15.15

>  <m_primary>  (32) 
energy

$$$$
32:0
     RDKit          3D

 59 62  0  0  0  0  0  0  0  0999 V2000
    0.4190   13.7790  -34.1790 C   0  0  0  0  0  0  0  0  0  0  0  0
    0.1920   15.1640  -33.9360 O   0  0  0  0  0  0  0  0  0  0  0  0
   -1.0760   15.7610  -33.8500 C   0  0  0  0  0  0  0  0  0  0  0  0
   -2.1430   15.1490  -33.1670 C   0  0  0  0  0  0  0  0  0  0  0  0
   -3.3940   15.7680  -33.1030 C   0  0  0  0  0  0  0  0  0  0  0  0
   -3.6090   17.0090  -33.7240 C   0  0  0  0  0  0  0  0  0  0  0  0
   -4.9270   17.6860  -33.6340 C   0  0  0  0  0  0  0  0  0  0  0  0
   -5.5100   18.0560  -34.6910 O   0  0  0  0  0  0  0  0  0  0  0  0
   -5.5650   17.8890  -32.3610 N   0  0  0  0  0  0  0  0  0  0  0  0
   -6.5540   18.9070  -32.1180 C   0  0  0  0  0  0  0  0  0  0  0  0
   -7.9240   18.5950  -32.0400 C   0  0  0  0  0  0  0  0  0  0  0  0
   -8.8700   19.6040  -31.8310 C   0  0  0  0  0  0  0  0  0  0  0  0
   -8.4680   20.9440  -31.7080 C   0  0  0  0  0  0  0  0  0  0  0  0
   -9.4730   22.0100  -31.4910 C   0  0  0  0  0  0  0  0  0  0  0  0
  -10.3060   21.9220  -30.5500 O   0  0  0  0  0  0  0  0  0  0  0  0
   -9.5120   23.1240  -32.3240 O   0  0  0  0  0  0  0  0  0  0  0  0
   -7.1010   21.2560  -31.8120 C   0  0  0  0  0  0  0  0  0  0  0  0
   -6.1550   20.2460  -32.0200 C   0  0  0  0  0  0  0  0  0  0  0  0
   -2.5450   17.6220  -34.4040 C   0  0  0  0  0  0  0  0  0  0  0  0
   -1.2840   17.0110  -34.4660 C   0  0  0  0  0  0  0  0  0  0  0  0
   -0.1850   17.6870  -35.1930 C   0  0  0  0  0  0  0  0  0  0  0  0
    0.2620   17.1050  -36.3910 C   0  0  0  0  0  0  0  0  0  0  0  0
    1.3260   17.6620  -37.0990 C   0  0  0  0  0  0  0  0  0  0  0  0
    1.9570   18.8090  -36.6210 C   0  0  0  0  0  0  0  0  0  0  0  0
    1.5230   19.4080  -35.4360 C   0  0  0  0  0  0  0  0  0  0  0  0
    0.4440   18.8700  -34.7060 C   0  0  0  0  0  0  0  0  0  0  0  0
   -0.0040   19.5700  -33.4730 C   0  0  0  0  0  0  0  0  0  0  0  0
    0.8200   19.8550  -32.5630 O   0  0  0  0  0  0  0  0  0  0  0  0
   -1.3940   19.8680  -33.2850 N   0  0  0  0  0  0  0  0  0  0  0  0
   -1.9030   20.9550  -32.5030 C   0  0  0  0  0  0  0  0  0  0  0  0
   -1.1840   21.3800  -31.3790 C   0  0  0  0  0  0  0  0  0  0  0  0
   -1.6590   22.4320  -30.5920 C   0  0  0  0  0  0  0  0  0  0  0  0
   -2.8700   23.0580  -30.9100 C   0  0  0  0  0  0  0  0  0  0  0  0
   -3.4720   24.3850  -29.9210 S   0  0  0  0  0  0  0  0  0  0  0  0
   -2.1400   25.2590  -29.2480 N   0  0  0  0  0  0  0  0  0  0  0  0
   -4.3080   25.3110  -30.7610 O   0  0  0  0  0  0  0  0  0  0  0  0
   -4.3260   23.8410  -28.8110 O   0  0  0  0  0  0  0  0  0  0  0  0
   -3.6120   22.6100  -32.0120 C   0  0  0  0  0  0  0  0  0  0  0  0
   -3.1320   21.5640  -32.8050 C   0  0  0  0  0  0  0  0  0  0  0  0
    0.5061   13.2479  -33.2197 H   0  0  0  0  0  0  0  0  0  0  0  0
   -0.4232   13.3645  -34.7525 H   0  0  0  0  0  0  0  0  0  0  0  0
    1.3494   13.6550  -34.7525 H   0  0  0  0  0  0  0  0  0  0  0  0
   -1.9910   14.1748  -32.6792 H   0  0  0  0  0  0  0  0  0  0  0  0
   -4.2174   15.2791  -32.5616 H   0  0  0  0  0  0  0  0  0  0  0  0
   -5.3720   17.1950  -31.6000 H   0  0  0  0  0  0  0  0  0  0  0  0
   -8.2532   17.5506  -32.1441 H   0  0  0  0  0  0  0  0  0  0  0  0
   -9.9371   19.3459  -31.7625 H   0  0  0  0  0  0  0  0  0  0  0  0
   -6.7725   22.3025  -31.7292 H   0  0  0  0  0  0  0  0  0  0  0  0
   -5.0897   20.5057  -32.1072 H   0  0  0  0  0  0  0  0  0  0  0  0
   -2.7021   18.5940  -34.8945 H   0  0  0  0  0  0  0  0  0  0  0  0
   -0.2327   16.2004  -36.7744 H   0  0  0  0  0  0  0  0  0  0  0  0
    1.6675   17.1961  -38.0351 H   0  0  0  0  0  0  0  0  0  0  0  0
    2.7995   19.2440  -37.1786 H   0  0  0  0  0  0  0  0  0  0  0  0
    2.0302   20.3119  -35.0676 H   0  0  0  0  0  0  0  0  0  0  0  0
   -0.2394   20.8825  -31.1141 H   0  0  0  0  0  0  0  0  0  0  0  0
   -1.0797   22.7694  -29.7199 H   0  0  0  0  0  0  0  0  0  0  0  0
   -1.6100   25.6700  -30.0490 H   0  0  0  0  0  0  0  0  0  0  0  0
   -4.5752   23.0834  -32.2533 H   0  0  0  0  0  0  0  0  0  0  0  0
   -3.7186   21.2167  -33.6683 H   0  0  0  0  0  0  0  0  0  0  0  0
  1  2  1  0
  2  3  1  0
  3  4  2  0
  4  5  1  0
  5  6  2  0
  6  7  1  0
  7  8  2  0
  7  9  1  0
  9 10  1  0
 10 11  2  0
 11 12  1  0
 12 13  2  0
 13 14  1  0
 14 15  2  0
 14 16  1  0
 13 17  1  0
 17 18  2  0
  6 19  1  0
 19 20  2  0
 20 21  1  0
 21 22  2  0
 22 23  1  0
 23 24  2  0
 24 25  1  0
 25 26  2  0
 26 27  1  0
 27 28  2  0
 27 29  1  0
 29 30  1  0
 30 31  2  0
 31 32  1  0
 32 33  2  0
 33 34  1  0
 34 35  1  0
 34 36  2  0
 34 37  2  0
 33 38  1  0
 38 39  2  0
 20  3  1  0
 26 21  1  0
 39 30  1  0
 18 10  1  0
  1 40  1  0
  1 41  1  0
  1 42  1  0
  4 43  1  0
  5 44  1  0
  9 45  1  0
 11 46  1  0
 12 47  1  0
 17 48  1  0
 18 49  1  0
 19 50  1  0
 22 51  1  0
 23 52  1  0
 24 53  1  0
 25 54  1  0
 31 55  1  0
 32 56  1  0
 35 57  1  0
 38 58  1  0
 39 59  1  0
M  CHG  3  16  -1  29  -1  35  -1
M  END
>  <UniqueID>  (33) 
33

>  <SMILES>  (33) 
COc1ccc(C(=O)Nc2ccc(C(=O)[O-])cc2)cc1-c1ccccc1C(=O)[N-]c1ccc(S([NH-])(=O)=O)cc1

>  <Energy>  (33) 
83.59030946775637

>  <Genealogy>  (33) 
COc1ccc(C(=O)Nc2ccc(C(=O)[O-])cc2)cc1-c1ccccc1C(=O)[N-]c1ccc(S([NH-])(=O)=O)cc1 (protonated)
COc1ccc(C(=O)Nc2ccc(C(=O)[O-])cc2)cc1-c1ccccc1C(=O)[N-]c1ccc(S([NH-])(=O)=O)cc1 (3D coordinates assigned)
COc1ccc(C(=O)Nc2ccc(C(=O)[O-])cc2)cc1-c1ccccc1C(=O)[N-]c1ccc(S([NH-])(=O)=O)cc1 (optimized conformer: 83.59030946775637 kcal/mol)

>  <smiles>  (33) 
COc1ccc(C(=O)Nc2ccc(C(=O)O)cc2)cc1-c1ccccc1C(=O)Nc1ccc(S(N)(=O)=O)cc1

>  <score_type>  (33) 
oracle

>  <origin>  (33) 
adgpu

>  <m_score__min__energy>  (33) 
-13.34

>  <m_primary>  (33) 
energy

$$$$
33:0
     RDKit          3D

 27 28  0  0  0  0  0  0  0  0999 V2000
  -10.1140   21.8930  -32.4230 O   0  0  0  0  0  0  0  0  0  0  0  0
   -8.8920   21.7160  -31.5650 S   0  0  0  0  0  0  0  0  0  0  0  0
   -9.3210   21.5410  -30.1360 O   0  0  0  0  0  0  0  0  0  0  0  0
   -7.8960   23.1320  -31.6900 N   0  0  0  0  0  0  0  0  0  0  0  0
   -6.7340   23.3730  -30.8760 C   0  0  0  0  0  0  0  0  0  0  0  0
   -6.4580   22.6090  -29.7250 C   0  0  0  0  0  0  0  0  0  0  0  0
   -5.3150   22.8690  -28.9620 C   0  0  0  0  0  0  0  0  0  0  0  0
   -4.4420   23.8940  -29.3320 C   0  0  0  0  0  0  0  0  0  0  0  0
   -4.7090   24.6630  -30.4680 C   0  0  0  0  0  0  0  0  0  0  0  0
   -3.8410   25.6840  -30.8350 O   0  0  0  0  0  0  0  0  0  0  0  0
   -5.8500   24.4050  -31.2340 C   0  0  0  0  0  0  0  0  0  0  0  0
   -8.0060   20.3030  -32.1290 C   0  0  0  0  0  0  0  0  0  0  0  0
   -8.4040   19.0200  -31.7250 C   0  0  0  0  0  0  0  0  0  0  0  0
   -7.7090   17.8950  -32.1790 C   0  0  0  0  0  0  0  0  0  0  0  0
   -6.6130   18.0450  -33.0330 C   0  0  0  0  0  0  0  0  0  0  0  0
   -6.2100   19.3220  -33.4340 C   0  0  0  0  0  0  0  0  0  0  0  0
   -6.9030   20.4500  -32.9820 C   0  0  0  0  0  0  0  0  0  0  0  0
   -8.1320   23.8090  -32.4500 H   0  0  0  0  0  0  0  0  0  0  0  0
   -7.1449   21.8039  -29.4249 H   0  0  0  0  0  0  0  0  0  0  0  0
   -5.1032   22.2643  -28.0679 H   0  0  0  0  0  0  0  0  0  0  0  0
   -3.5442   24.0962  -28.7294 H   0  0  0  0  0  0  0  0  0  0  0  0
   -6.0575   25.0156  -32.1251 H   0  0  0  0  0  0  0  0  0  0  0  0
   -9.2641   18.8988  -31.0501 H   0  0  0  0  0  0  0  0  0  0  0  0
   -8.0255   16.8899  -31.8634 H   0  0  0  0  0  0  0  0  0  0  0  0
   -6.0677   17.1586  -33.3894 H   0  0  0  0  0  0  0  0  0  0  0  0
   -5.3470   19.4401  -34.1057 H   0  0  0  0  0  0  0  0  0  0  0  0
   -6.5820   21.4541  -33.2963 H   0  0  0  0  0  0  0  0  0  0  0  0
  1  2  2  0
  2  3  2  0
  2  4  1  0
  4  5  1  0
  5  6  2  0
  6  7  1  0
  7  8  2  0
  8  9  1  0
  9 10  1  0
  9 11  2  0
  2 12  1  0
 12 13  2  0
 13 14  1  0
 14 15  2  0
 15 16  1  0
 16 17  2  0
 11  5  1  0
 17 12  1  0
  4 18  1  0
  6 19  1  0
  7 20  1  0
  8 21  1  0
 11 22  1  0
 13 23  1  0
 14 24  1  0
 15 25  1  0
 16 26  1  0
 17 27  1  0
M  CHG  1  10  -1
M  END
>  <UniqueID>  (34) 
34

>  <SMILES>  (34) 
O=S(=O)(Nc1cccc([O-])c1)c1ccccc1

>  <Energy>  (34) 
30.49514102549

>  <Genealogy>  (34) 
O=S(=O)(Nc1cccc([O-])c1)c1ccccc1 (protonated)
O=S(=O)(Nc1cccc([O-])c1)c1ccccc1 (3D coordinates assigned)
O=S(=O)(Nc1cccc([O-])c1)c1ccccc1 (optimized conformer: 30.49514102549 kcal/mol)

>  <smiles>  (34) 
O=S(=O)(Nc1cccc(O)c1)c1ccccc1

>  <score_type>  (34) 
oracle

>  <origin>  (34) 
adgpu

>  <m_score__min__energy>  (34) 
-10.460000000000001

>  <m_primary>  (34) 
energy

$$$$
34:0
     RDKit          3D

 35 36  0  0  0  0  0  0  0  0999 V2000
   -4.5420   13.7540  -31.3010 C   0  0  0  0  0  0  0  0  0  0  0  0
   -4.2490   14.0510  -32.7670 C   0  0  0  0  0  0  0  0  0  0  0  0
   -4.4800   15.5060  -33.0730 C   0  0  0  0  0  0  0  0  0  0  0  0
   -3.5520   16.2250  -33.8410 C   0  0  0  0  0  0  0  0  0  0  0  0
   -3.7490   17.5840  -34.1000 C   0  0  0  0  0  0  0  0  0  0  0  0
   -4.8840   18.2450  -33.5950 C   0  0  0  0  0  0  0  0  0  0  0  0
   -5.1150   19.6440  -33.8170 N   0  0  0  0  0  0  0  0  0  0  0  0
   -4.4400   20.7330  -33.1780 C   0  0  0  0  0  0  0  0  0  0  0  0
   -3.5070   21.3440  -33.7660 O   0  0  0  0  0  0  0  0  0  0  0  0
   -4.8440   21.1170  -31.8580 N   0  0  0  0  0  0  0  0  0  0  0  0
   -4.1570   22.0200  -30.9800 C   0  0  0  0  0  0  0  0  0  0  0  0
   -3.2720   21.5690  -29.9890 C   0  0  0  0  0  0  0  0  0  0  0  0
   -2.6060   22.4840  -29.1690 C   0  0  0  0  0  0  0  0  0  0  0  0
   -2.7960   23.8700  -29.3270 C   0  0  0  0  0  0  0  0  0  0  0  0
   -2.0710   24.8120  -28.4330 C   0  0  0  0  0  0  0  0  0  0  0  0
   -1.3680   25.9380  -28.9570 N   0  0  0  0  0  0  0  0  0  0  0  0
   -2.0710   24.6270  -27.1860 O   0  0  0  0  0  0  0  0  0  0  0  0
   -3.6690   24.3180  -30.3460 C   0  0  0  0  0  0  0  0  0  0  0  0
   -3.8910   25.6730  -30.5650 O   0  0  0  0  0  0  0  0  0  0  0  0
   -4.3310   23.3950  -31.1630 C   0  0  0  0  0  0  0  0  0  0  0  0
   -5.7890   17.5340  -32.7980 C   0  0  0  0  0  0  0  0  0  0  0  0
   -5.5930   16.1740  -32.5400 C   0  0  0  0  0  0  0  0  0  0  0  0
   -3.9120   14.3926  -30.6645 H   0  0  0  0  0  0  0  0  0  0  0  0
   -5.6021   13.9583  -31.0903 H   0  0  0  0  0  0  0  0  0  0  0  0
   -4.3234   12.6967  -31.0903 H   0  0  0  0  0  0  0  0  0  0  0  0
   -3.2005   13.7988  -32.9836 H   0  0  0  0  0  0  0  0  0  0  0  0
   -4.9244   13.4475  -33.3912 H   0  0  0  0  0  0  0  0  0  0  0  0
   -2.6633   15.7156  -34.2420 H   0  0  0  0  0  0  0  0  0  0  0  0
   -3.0139   18.1393  -34.7010 H   0  0  0  0  0  0  0  0  0  0  0  0
   -3.1016   20.4903  -29.8569 H   0  0  0  0  0  0  0  0  0  0  0  0
   -1.9235   22.1159  -28.3888 H   0  0  0  0  0  0  0  0  0  0  0  0
   -1.2060   26.0400  -29.9840 H   0  0  0  0  0  0  0  0  0  0  0  0
   -4.9974   23.7562  -31.9601 H   0  0  0  0  0  0  0  0  0  0  0  0
   -6.6618   18.0498  -32.3711 H   0  0  0  0  0  0  0  0  0  0  0  0
   -6.3143   15.6253  -31.9166 H   0  0  0  0  0  0  0  0  0  0  0  0
  1  2  1  0
  2  3  1  0
  3  4  2  0
  4  5  1  0
  5  6  2  0
  6  7  1  0
  7  8  1  0
  8  9  2  0
  8 10  1  0
 10 11  1  0
 11 12  2  0
 12 13  1  0
 13 14  2  0
 14 15  1  0
 15 16  1  0
 15 17  2  0
 14 18  1  0
 18 19  1  0
 18 20  2  0
  6 21  1  0
 21 22  2  0
 22  3  1  0
 20 11  1  0
  1 23  1  0
  1 24  1  0
  1 25  1  0
  2 26  1  0
  2 27  1  0
  4 28  1  0
  5 29  1  0
 12 30  1  0
 13 31  1  0
 16 32  1  0
 20 33  1  0
 21 34  1  0
 22 35  1  0
M  CHG  4   7  -1  10  -1  16  -1  19  -1
M  END
>  <UniqueID>  (35) 
35

>  <SMILES>  (35) 
CCc1ccc([N-]C(=O)[N-]c2ccc(C([NH-])=O)c([O-])c2)cc1

>  <Energy>  (35) 
41.489346043088666

>  <Genealogy>  (35) 
CCc1ccc([N-]C(=O)[N-]c2ccc(C([NH-])=O)c([O-])c2)cc1 (protonated)
CCc1ccc([N-]C(=O)[N-]c2ccc(C([NH-])=O)c([O-])c2)cc1 (3D coordinates assigned)
CCc1ccc([N-]C(=O)[N-]c2ccc(C([NH-])=O)c([O-])c2)cc1 (optimized conformer: 41.489346043088666 kcal/mol)

>  <smiles>  (35) 
CCc1ccc(NC(=O)Nc2ccc(C(N)=O)c(O)c2)cc1

>  <score_type>  (35) 
oracle

>  <origin>  (35) 
adgpu

>  <m_score__min__energy>  (35) 
-12.16

>  <m_primary>  (35) 
energy

$$$$
35:0
     RDKit          3D

 39 42  0  0  1  0  0  0  0  0999 V2000
   -6.1710   17.5320  -33.0970 C   0  0  0  0  0  0  0  0  0  0  0  0
   -6.1060   18.6560  -33.9040 C   0  0  0  0  0  0  0  0  0  0  0  0
   -6.9180   19.7460  -33.6380 C   0  0  0  0  0  0  0  0  0  0  0  0
   -7.7760   19.6810  -32.5660 C   0  0  0  0  0  0  0  0  0  0  0  0
   -8.6320   20.8910  -32.3280 C   0  0  0  0  0  0  0  0  0  0  0  0
   -8.1640   21.4720  -31.1470 O   0  0  0  0  0  0  0  0  0  0  0  0
   -7.0050   22.2250  -31.0150 C   0  0  0  0  0  0  0  0  0  0  0  0
   -7.0280   23.2610  -30.1050 C   0  0  0  0  0  0  0  0  0  0  0  0
   -5.9570   24.0900  -29.8670 C   0  0  0  0  0  0  0  0  0  0  0  0
   -4.8030   23.8280  -30.6150 C   0  0  0  0  0  0  0  0  0  0  0  0
   -3.6950   24.6930  -30.3640 N   0  0  0  0  0  0  0  0  0  0  0  0
   -2.8090   24.3710  -29.4720 C   0  0  0  0  0  0  0  0  0  0  0  0
   -1.7490   25.1800  -29.2200 N   0  0  0  0  0  0  0  0  0  0  0  0
   -0.8300   24.8450  -28.2950 C   0  0  0  0  0  0  0  0  0  0  0  0
   -0.9520   23.6910  -27.6010 N   0  0  0  0  0  0  0  0  0  0  0  0
   -1.9900   22.8560  -27.8190 C   0  0  0  0  0  0  0  0  0  0  0  0
   -2.3240   21.6730  -27.2660 N   0  0  0  0  0  0  0  0  0  0  0  0
   -3.4580   21.2690  -27.8500 C   0  0  0  0  0  0  0  0  0  0  0  0
   -3.8370   22.1840  -28.7620 N   0  0  0  0  0  0  0  0  0  0  0  0
   -2.9560   23.1740  -28.7680 C   0  0  0  0  0  0  0  0  0  0  0  0
   -4.7560   22.8000  -31.5300 C   0  0  0  0  0  0  0  0  0  0  0  0
   -5.8580   21.9850  -31.7410 C   0  0  0  0  0  0  0  0  0  0  0  0
   -7.8750   18.5820  -31.7360 C   0  0  0  0  0  0  0  0  0  0  0  0
   -7.0530   17.5090  -32.0250 C   0  0  0  0  0  0  0  0  0  0  0  0
   -5.5283   16.6637  -33.3041 H   0  0  0  0  0  0  0  0  0  0  0  0
   -5.4100   18.6828  -34.7554 H   0  0  0  0  0  0  0  0  0  0  0  0
   -6.8772   20.6446  -34.2711 H   0  0  0  0  0  0  0  0  0  0  0  0
   -8.5350   21.5977  -33.1654 H   0  0  0  0  0  0  0  0  0  0  0  0
   -9.6954   20.6209  -32.2484 H   0  0  0  0  0  0  0  0  0  0  0  0
   -7.9546   23.4338  -29.5380 H   0  0  0  0  0  0  0  0  0  0  0  0
   -6.0041   24.9087  -29.1339 H   0  0  0  0  0  0  0  0  0  0  0  0
   -1.6130   26.0780  -29.7290 H   0  0  0  0  0  0  0  0  0  0  0  0
    0.0231   25.5124  -28.1031 H   0  0  0  0  0  0  0  0  0  0  0  0
   -1.7440   21.2190  -26.5170 H   0  0  0  0  0  0  0  0  0  0  0  0
   -3.9955   20.3369  -27.6212 H   0  0  0  0  0  0  0  0  0  0  0  0
   -3.8325   22.6230  -32.1009 H   0  0  0  0  0  0  0  0  0  0  0  0
   -5.8177   21.1643  -32.4723 H   0  0  0  0  0  0  0  0  0  0  0  0
   -8.5736   18.5614  -30.8866 H   0  0  0  0  0  0  0  0  0  0  0  0
   -7.0989   16.6129  -31.3887 H   0  0  0  0  0  0  0  0  0  0  0  0
  1  2  2  0
  2  3  1  0
  3  4  2  0
  4  5  1  0
  5  6  1  0
  6  7  1  0
  7  8  2  0
  8  9  1  0
  9 10  2  0
 10 11  1  0
 11 12  2  0
 12 13  1  0
 13 14  1  0
 14 15  2  0
 15 16  1  0
 16 17  1  0
 17 18  1  0
 18 19  2  0
 19 20  1  0
 10 21  1  0
 21 22  2  0
  4 23  1  0
 23 24  2  0
 24  1  1  0
 22  7  1  0
 20 12  1  0
 20 16  2  0
  1 25  1  0
  2 26  1  0
  3 27  1  0
  5 28  1  0
  5 29  1  0
  8 30  1  0
  9 31  1  0
 13 32  1  0
 14 33  1  0
 17 34  1  0
 18 35  1  0
 21 36  1  0
 22 37  1  0
 23 38  1  0
 24 39  1  0
M  END
>  <smiles>  (36) 
c1ccc(COc2ccc(N=c3[nH]cnc4[nH]cnc34)cc2)cc1

>  <score_type>  (36) 
oracle

>  <origin>  (36) 
adgpu

>  <m_score__min__energy>  (36) 
-8.3200000000000003

>  <m_primary>  (36) 
energy

$$$$
36:0
     RDKit          3D

 58 61  0  0  0  0  0  0  0  0999 V2000
   -0.8690   22.9500  -25.8580 C   0  0  0  0  0  0  0  0  0  0  0  0
   -1.5320   23.5210  -27.0850 C   0  0  0  0  0  0  0  0  0  0  0  0
   -2.9330   23.6230  -27.1260 C   0  0  0  0  0  0  0  0  0  0  0  0
   -3.5750   24.1620  -28.2420 C   0  0  0  0  0  0  0  0  0  0  0  0
   -2.8350   24.6040  -29.3410 C   0  0  0  0  0  0  0  0  0  0  0  0
   -3.5360   25.1680  -30.4580 N   0  0  0  0  0  0  0  0  0  0  0  0
   -4.9580   25.2480  -30.6230 C   0  0  0  0  0  0  0  0  0  0  0  0
   -5.5610   26.3430  -30.4450 O   0  0  0  0  0  0  0  0  0  0  0  0
   -5.7050   24.0540  -31.0620 C   0  0  0  0  0  0  0  0  0  0  0  0
   -5.0410   22.9010  -31.5080 C   0  0  0  0  0  0  0  0  0  0  0  0
   -5.8030   21.7880  -31.9010 C   0  0  0  0  0  0  0  0  0  0  0  0
   -5.1710   20.5700  -32.3410 N   0  0  0  0  0  0  0  0  0  0  0  0
   -5.6570   19.2660  -31.8730 C   0  0  0  0  0  0  0  0  0  0  0  0
   -4.1950   20.6170  -33.4420 C   0  0  0  0  0  0  0  0  0  0  0  0
   -2.7920   20.7710  -32.9120 C   0  0  0  0  0  0  0  0  0  0  0  0
   -1.7020   20.7730  -33.7960 C   0  0  0  0  0  0  0  0  0  0  0  0
   -0.4040   20.9660  -33.3120 C   0  0  0  0  0  0  0  0  0  0  0  0
   -0.1850   21.1550  -31.9450 C   0  0  0  0  0  0  0  0  0  0  0  0
   -1.2680   21.1380  -31.0460 C   0  0  0  0  0  0  0  0  0  0  0  0
   -1.0980   21.3530  -29.6700 O   0  0  0  0  0  0  0  0  0  0  0  0
   -1.4310   20.4480  -28.6510 C   0  0  0  0  0  0  0  0  0  0  0  0
   -2.7230   20.4950  -28.1100 C   0  0  0  0  0  0  0  0  0  0  0  0
   -3.1090   19.5910  -27.1140 C   0  0  0  0  0  0  0  0  0  0  0  0
   -2.2060   18.6280  -26.6540 C   0  0  0  0  0  0  0  0  0  0  0  0
   -0.9190   18.5640  -27.1960 C   0  0  0  0  0  0  0  0  0  0  0  0
   -0.5320   19.4640  -28.1960 C   0  0  0  0  0  0  0  0  0  0  0  0
   -2.5670   20.9590  -31.5390 C   0  0  0  0  0  0  0  0  0  0  0  0
   -7.1610   21.8580  -31.8320 N   0  0  0  0  0  0  0  0  0  0  0  0
   -7.7900   22.9800  -31.4000 C   0  0  0  0  0  0  0  0  0  0  0  0
   -7.0660   24.0640  -31.0210 N   0  0  0  0  0  0  0  0  0  0  0  0
   -1.4310   24.5350  -29.2990 C   0  0  0  0  0  0  0  0  0  0  0  0
   -0.7720   23.9950  -28.1810 C   0  0  0  0  0  0  0  0  0  0  0  0
    0.7330   23.9180  -28.1770 C   0  0  0  0  0  0  0  0  0  0  0  0
   -1.3475   23.3621  -24.9573 H   0  0  0  0  0  0  0  0  0  0  0  0
   -0.9739   21.8550  -25.8605 H   0  0  0  0  0  0  0  0  0  0  0  0
    0.1983   23.2161  -25.8605 H   0  0  0  0  0  0  0  0  0  0  0  0
   -3.5296   23.2746  -26.2700 H   0  0  0  0  0  0  0  0  0  0  0  0
   -4.6722   24.2393  -28.2561 H   0  0  0  0  0  0  0  0  0  0  0  0
   -3.9422   22.8691  -31.5492 H   0  0  0  0  0  0  0  0  0  0  0  0
   -5.6629   19.2501  -30.7731 H   0  0  0  0  0  0  0  0  0  0  0  0
   -6.6777   19.0991  -32.2476 H   0  0  0  0  0  0  0  0  0  0  0  0
   -4.9945   18.4718  -32.2476 H   0  0  0  0  0  0  0  0  0  0  0  0
   -4.2606   19.6842  -34.0213 H   0  0  0  0  0  0  0  0  0  0  0  0
   -4.4265   21.4829  -34.0797 H   0  0  0  0  0  0  0  0  0  0  0  0
   -1.8690   20.6223  -34.8728 H   0  0  0  0  0  0  0  0  0  0  0  0
    0.4467   20.9690  -34.0094 H   0  0  0  0  0  0  0  0  0  0  0  0
    0.8364   21.3175  -31.5704 H   0  0  0  0  0  0  0  0  0  0  0  0
   -3.4389   21.2481  -28.4710 H   0  0  0  0  0  0  0  0  0  0  0  0
   -4.1240   19.6382  -26.6926 H   0  0  0  0  0  0  0  0  0  0  0  0
   -2.5078   17.9216  -25.8666 H   0  0  0  0  0  0  0  0  0  0  0  0
   -0.2089   17.8049  -26.8360 H   0  0  0  0  0  0  0  0  0  0  0  0
    0.4778   19.4024  -28.6279 H   0  0  0  0  0  0  0  0  0  0  0  0
   -3.4192   20.9658  -30.8435 H   0  0  0  0  0  0  0  0  0  0  0  0
   -8.8887   23.0113  -31.3568 H   0  0  0  0  0  0  0  0  0  0  0  0
   -0.8422   24.9076  -30.1502 H   0  0  0  0  0  0  0  0  0  0  0  0
    1.0964   23.8994  -27.1389 H   0  0  0  0  0  0  0  0  0  0  0  0
    1.0547   23.0022  -28.6946 H   0  0  0  0  0  0  0  0  0  0  0  0
    1.1465   24.7962  -28.6946 H   0  0  0  0  0  0  0  0  0  0  0  0
  1  2  1  0
  2  3  2  0
  3  4  1  0
  4  5  2  0
  5  6  1  0
  6  7  1  0
  7  8  2  0
  7  9  1  0
  9 10  2  0
 10 11  1  0
 11 12  1  0
 12 13  1  0
 12 14  1  0
 14 15  1  0
 15 16  2  0
 16 17  1  0
 17 18  2  0
 18 19  1  0
 19 20  1  0
 20 21  1  0
 21 22  2  0
 22 23  1  0
 23 24  2  0
 24 25  1  0
 25 26  2  0
 19 27  2  0
 11 28  2  0
 28 29  1  0
 29 30  2  0
  5 31  1  0
 31 32  2  0
 32 33  1  0
 32  2  1  0
 30  9  1  0
 27 15  1  0
 26 21  1  0
  1 34  1  0
  1 35  1  0
  1 36  1  0
  3 37  1  0
  4 38  1  0
 10 39  1  0
 13 40  1  0
 13 41  1  0
 13 42  1  0
 14 43  1  0
 14 44  1  0
 16 45  1  0
 17 46  1  0
 18 47  1  0
 22 48  1  0
 23 49  1  0
 24 50  1  0
 25 51  1  0
 26 52  1  0
 27 53  1  0
 29 54  1  0
 31 55  1  0
 33 56  1  0
 33 57  1  0
 33 58  1  0
M  CHG  1   6  -1
M  END
>  <UniqueID>  (37) 
36

>  <SMILES>  (37) 
Cc1ccc([N-]C(=O)c2cc(N(C)Cc3cccc(Oc4ccccc4)c3)ncn2)cc1C

>  <Energy>  (37) 
75.59003041768341

>  <Genealogy>  (37) 
Cc1ccc([N-]C(=O)c2cc(N(C)Cc3cccc(Oc4ccccc4)c3)ncn2)cc1C (protonated)
Cc1ccc([N-]C(=O)c2cc(N(C)Cc3cccc(Oc4ccccc4)c3)ncn2)cc1C (3D coordinates assigned)
Cc1ccc([N-]C(=O)c2cc(N(C)Cc3cccc(Oc4ccccc4)c3)ncn2)cc1C (optimized conformer: 75.59003041768341 kcal/mol)

>  <smiles>  (37) 
Cc1ccc(NC(=O)c2cc(N(C)Cc3cccc(Oc4ccccc4)c3)ncn2)cc1C

>  <score_type>  (37) 
oracle

>  <origin>  (37) 
adgpu

>  <m_score__min__energy>  (37) 
-11.029999999999999

>  <m_primary>  (37) 
energy

$$$$
37:0
     RDKit          3D

 70 74  0  0  1  0  0  0  0  0999 V2000
   -1.4460   22.4540  -29.4480 C   0  0  0  0  0  0  0  0  0  0  0  0
   -2.2590   22.7110  -28.2740 N   0  0  0  0  0  0  0  0  0  0  0  0
   -3.1760   24.1770  -28.4690 S   0  0  0  0  0  0  0  0  0  0  0  0
   -2.3030   25.2900  -28.9610 O   0  0  0  0  0  0  0  0  0  0  0  0
   -3.6460   24.5530  -27.0760 O   0  0  0  0  0  0  0  0  0  0  0  0
   -4.5100   23.9750  -29.5530 C   0  0  0  0  0  0  0  0  0  0  0  0
   -5.4050   25.0210  -29.6940 C   0  0  0  0  0  0  0  0  0  0  0  0
   -6.4990   24.9380  -30.5400 C   0  0  0  0  0  0  0  0  0  0  0  0
   -6.6790   23.7550  -31.2580 C   0  0  0  0  0  0  0  0  0  0  0  0
   -5.8040   22.7190  -31.1280 C   0  0  0  0  0  0  0  0  0  0  0  0
   -5.9570   21.4900  -31.8470 N   0  0  0  0  0  0  0  0  0  0  0  0
   -5.0130   20.9620  -32.5290 C   0  0  0  0  0  0  0  0  0  0  0  0
   -3.8000   21.5470  -32.6120 N   0  0  0  0  0  0  0  0  0  0  0  0
   -2.8210   20.9740  -33.3320 C   0  0  0  0  0  0  0  0  0  0  0  0
   -1.6290   21.5130  -33.4400 N   0  0  0  0  0  0  0  0  0  0  0  0
   -0.6810   20.7920  -34.2400 C   0  0  0  0  0  0  0  0  0  0  0  0
   -0.1210   21.3070  -35.3850 C   0  0  0  0  0  0  0  0  0  0  0  0
    0.7860   20.5370  -36.1130 C   0  0  0  0  0  0  0  0  0  0  0  0
    1.1480   19.2620  -35.7190 C   0  0  0  0  0  0  0  0  0  0  0  0
    2.0810   18.4660  -36.4750 N   0  0  0  0  0  0  0  0  0  0  0  0
    3.4300   18.2770  -35.9980 C   0  0  0  0  0  0  0  0  0  0  0  0
    4.3860   18.0040  -37.1430 C   0  0  0  0  0  0  0  0  0  0  0  0
    3.8470   16.9800  -37.9850 N   0  0  0  0  0  0  0  0  0  0  0  0
    3.8820   15.6920  -37.3650 C   0  0  0  0  0  0  0  0  0  0  0  0
    2.6110   17.3330  -38.6060 C   0  0  0  0  0  0  0  0  0  0  0  0
    1.5660   17.8930  -37.7010 C   0  0  0  0  0  0  0  0  0  0  0  0
    0.5580   18.7910  -34.5620 C   0  0  0  0  0  0  0  0  0  0  0  0
   -0.3430   19.5260  -33.8210 C   0  0  0  0  0  0  0  0  0  0  0  0
   -0.9120   19.0000  -32.6560 O   0  0  0  0  0  0  0  0  0  0  0  0
   -0.4500   19.3710  -31.3560 C   0  0  0  0  0  0  0  0  0  0  0  0
   -3.0700   19.7990  -33.9750 N   0  0  0  0  0  0  0  0  0  0  0  0
   -4.2700   19.2040  -33.9030 C   0  0  0  0  0  0  0  0  0  0  0  0
   -4.7600   18.0260  -34.4600 C   0  0  0  0  0  0  0  0  0  0  0  0
   -6.0850   17.8880  -34.0570 C   0  0  0  0  0  0  0  0  0  0  0  0
   -6.3760   18.9650  -33.2740 N   0  0  0  0  0  0  0  0  0  0  0  0
   -7.6590   19.2140  -32.6420 C   0  0  0  0  0  0  0  0  0  0  0  0
   -5.2980   19.7600  -33.1750 C   0  0  0  0  0  0  0  0  0  0  0  0
   -4.7160   22.8220  -30.2750 C   0  0  0  0  0  0  0  0  0  0  0  0
   -0.4404   22.1361  -29.1352 H   0  0  0  0  0  0  0  0  0  0  0  0
   -1.9113   21.6591  -30.0494 H   0  0  0  0  0  0  0  0  0  0  0  0
   -1.3699   23.3719  -30.0494 H   0  0  0  0  0  0  0  0  0  0  0  0
   -1.7180   22.6970  -27.4020 H   0  0  0  0  0  0  0  0  0  0  0  0
   -5.2433   25.9442  -29.1182 H   0  0  0  0  0  0  0  0  0  0  0  0
   -7.2027   25.7772  -30.6424 H   0  0  0  0  0  0  0  0  0  0  0  0
   -7.5384   23.6578  -31.9376 H   0  0  0  0  0  0  0  0  0  0  0  0
   -3.6410   22.4440  -32.1090 H   0  0  0  0  0  0  0  0  0  0  0  0
   -0.3863   22.3191  -35.7246 H   0  0  0  0  0  0  0  0  0  0  0  0
    1.2270   20.9571  -37.0290 H   0  0  0  0  0  0  0  0  0  0  0  0
    3.7539   19.1858  -35.4697 H   0  0  0  0  0  0  0  0  0  0  0  0
    3.4409   17.4092  -35.3221 H   0  0  0  0  0  0  0  0  0  0  0  0
    4.5267   18.9238  -37.7296 H   0  0  0  0  0  0  0  0  0  0  0  0
    5.3542   17.6728  -36.7393 H   0  0  0  0  0  0  0  0  0  0  0  0
    3.8788   15.8112  -36.2715 H   0  0  0  0  0  0  0  0  0  0  0  0
    2.9993   15.1126  -37.6733 H   0  0  0  0  0  0  0  0  0  0  0  0
    4.7949   15.1614  -37.6733 H   0  0  0  0  0  0  0  0  0  0  0  0
    2.8249   18.0846  -39.3801 H   0  0  0  0  0  0  0  0  0  0  0  0
    2.1945   16.3932  -38.9975 H   0  0  0  0  0  0  0  0  0  0  0  0
    1.0235   18.6790  -38.2468 H   0  0  0  0  0  0  0  0  0  0  0  0
    0.9212   17.0515  -37.4076 H   0  0  0  0  0  0  0  0  0  0  0  0
    0.8198   17.7805  -34.2151 H   0  0  0  0  0  0  0  0  0  0  0  0
   -1.0672   18.8753  -30.5922 H   0  0  0  0  0  0  0  0  0  0  0  0
    0.5988   19.0614  -31.2374 H   0  0  0  0  0  0  0  0  0  0  0  0
   -0.5259   20.4620  -31.2374 H   0  0  0  0  0  0  0  0  0  0  0  0
   -2.3360   19.3200  -34.5450 H   0  0  0  0  0  0  0  0  0  0  0  0
   -4.2009   17.3299  -35.1026 H   0  0  0  0  0  0  0  0  0  0  0  0
   -6.7673   17.0663  -34.3202 H   0  0  0  0  0  0  0  0  0  0  0  0
   -7.5398   19.1909  -31.5487 H   0  0  0  0  0  0  0  0  0  0  0  0
   -8.0335   20.2016  -32.9492 H   0  0  0  0  0  0  0  0  0  0  0  0
   -8.3758   18.4382  -32.9492 H   0  0  0  0  0  0  0  0  0  0  0  0
   -4.0156   21.9797  -30.1751 H   0  0  0  0  0  0  0  0  0  0  0  0
  1  2  1  0
  2  3  1  0
  3  4  2  0
  3  5  2  0
  3  6  1  0
  6  7  2  0
  7  8  1  0
  8  9  2  0
  9 10  1  0
 10 11  1  0
 11 12  2  0
 12 13  1  0
 13 14  1  0
 14 15  2  0
 15 16  1  0
 16 17  2  0
 17 18  1  0
 18 19  2  0
 19 20  1  0
 20 21  1  0
 21 22  1  0
 22 23  1  0
 23 24  1  0
 23 25  1  0
 25 26  1  0
 19 27  1  0
 27 28  2  0
 28 29  1  0
 29 30  1  0
 14 31  1  0
 31 32  1  0
 32 33  1  0
 33 34  2  0
 34 35  1  0
 35 36  1  0
 35 37  1  0
 10 38  2  0
 38  6  1  0
 37 12  1  0
 28 16  1  0
 37 32  2  0
 26 20  1  0
  1 39  1  0
  1 40  1  0
  1 41  1  0
  2 42  1  0
  7 43  1  0
  8 44  1  0
  9 45  1  0
 13 46  1  0
 17 47  1  0
 18 48  1  0
 21 49  1  0
 21 50  1  0
 22 51  1  0
 22 52  1  0
 24 53  1  0
 24 54  1  0
 24 55  1  0
 25 56  1  0
 25 57  1  0
 26 58  1  0
 26 59  1  0
 27 60  1  0
 30 61  1  0
 30 62  1  0
 30 63  1  0
 31 64  1  0
 33 65  1  0
 34 66  1  0
 36 67  1  0
 36 68  1  0
 36 69  1  0
 38 70  1  0
M  END
>  <smiles>  (38) 
CNS(=O)(=O)c1cccc(N=c2[nH]c(=Nc3ccc(N4CCN(C)CC4)cc3OC)[nH]c3ccn(C)c23)c1

>  <score_type>  (38) 
oracle

>  <origin>  (38) 
adgpu

>  <m_score__min__energy>  (38) 
-9.6899999999999995

>  <m_primary>  (38) 
energy

$$$$
38:0
     RDKit          3D

 40 42  0  0  0  0  0  0  0  0999 V2000
   -2.4910   20.8450  -27.5420 C   0  0  0  0  0  0  0  0  0  0  0  0
   -2.1120   22.2160  -28.0180 C   0  0  0  0  0  0  0  0  0  0  0  0
   -0.9440   22.8280  -27.5450 C   0  0  0  0  0  0  0  0  0  0  0  0
   -0.6190   24.1260  -27.9450 C   0  0  0  0  0  0  0  0  0  0  0  0
   -1.4590   24.8270  -28.8200 C   0  0  0  0  0  0  0  0  0  0  0  0
   -1.1280   26.1210  -29.2220 O   0  0  0  0  0  0  0  0  0  0  0  0
   -2.6390   24.2310  -29.2900 C   0  0  0  0  0  0  0  0  0  0  0  0
   -3.4820   24.9810  -30.1760 N   0  0  0  0  0  0  0  0  0  0  0  0
   -5.1860   24.7360  -30.3840 S   0  0  0  0  0  0  0  0  0  0  0  0
   -5.8700   24.8170  -29.0470 O   0  0  0  0  0  0  0  0  0  0  0  0
   -5.7340   25.8150  -31.2740 O   0  0  0  0  0  0  0  0  0  0  0  0
   -5.4740   23.1740  -31.1460 C   0  0  0  0  0  0  0  0  0  0  0  0
   -6.7000   22.5150  -30.9870 C   0  0  0  0  0  0  0  0  0  0  0  0
   -6.9140   21.2730  -31.5900 C   0  0  0  0  0  0  0  0  0  0  0  0
   -5.9070   20.6720  -32.3670 C   0  0  0  0  0  0  0  0  0  0  0  0
   -6.1430   19.3630  -33.0250 C   0  0  0  0  0  0  0  0  0  0  0  0
   -5.5040   19.0460  -34.2400 C   0  0  0  0  0  0  0  0  0  0  0  0
   -5.7080   17.8020  -34.8450 C   0  0  0  0  0  0  0  0  0  0  0  0
   -6.5550   16.8650  -34.2480 C   0  0  0  0  0  0  0  0  0  0  0  0
   -7.2020   17.1680  -33.0500 C   0  0  0  0  0  0  0  0  0  0  0  0
   -6.9980   18.4100  -32.4380 C   0  0  0  0  0  0  0  0  0  0  0  0
   -4.6780   21.3400  -32.5200 C   0  0  0  0  0  0  0  0  0  0  0  0
   -4.4650   22.5800  -31.9110 C   0  0  0  0  0  0  0  0  0  0  0  0
   -2.9650   22.9250  -28.8770 C   0  0  0  0  0  0  0  0  0  0  0  0
   -2.4960   20.8271  -26.4422 H   0  0  0  0  0  0  0  0  0  0  0  0
   -3.4932   20.5906  -27.9174 H   0  0  0  0  0  0  0  0  0  0  0  0
   -1.7618   20.1119  -27.9174 H   0  0  0  0  0  0  0  0  0  0  0  0
   -0.2806   22.2844  -26.8562 H   0  0  0  0  0  0  0  0  0  0  0  0
    0.3006   24.6000  -27.5714 H   0  0  0  0  0  0  0  0  0  0  0  0
   -1.2390   26.4250  -30.1820 H   0  0  0  0  0  0  0  0  0  0  0  0
   -7.4967   22.9769  -30.3854 H   0  0  0  0  0  0  0  0  0  0  0  0
   -7.8782   20.7607  -31.4560 H   0  0  0  0  0  0  0  0  0  0  0  0
   -4.8399   19.7824  -34.7161 H   0  0  0  0  0  0  0  0  0  0  0  0
   -5.2015   17.5611  -35.7912 H   0  0  0  0  0  0  0  0  0  0  0  0
   -6.7121   15.8858  -34.7239 H   0  0  0  0  0  0  0  0  0  0  0  0
   -7.8731   16.4302  -32.5859 H   0  0  0  0  0  0  0  0  0  0  0  0
   -7.5088   18.6435  -31.4922 H   0  0  0  0  0  0  0  0  0  0  0  0
   -3.8794   20.8832  -33.1230 H   0  0  0  0  0  0  0  0  0  0  0  0
   -3.4988   23.0913  -32.0340 H   0  0  0  0  0  0  0  0  0  0  0  0
   -3.8956   22.4570  -29.2306 H   0  0  0  0  0  0  0  0  0  0  0  0
  1  2  1  0
  2  3  2  0
  3  4  1  0
  4  5  2  0
  5  6  1  0
  5  7  1  0
  7  8  1  0
  8  9  1  0
  9 10  2  0
  9 11  2  0
  9 12  1  0
 12 13  2  0
 13 14  1  0
 14 15  2  0
 15 16  1  0
 16 17  2  0
 17 18  1  0
 18 19  2  0
 19 20  1  0
 20 21  2  0
 15 22  1  0
 22 23  2  0
  7 24  2  0
 24  2  1  0
 23 12  1  0
 21 16  1  0
  1 25  1  0
  1 26  1  0
  1 27  1  0
  3 28  1  0
  4 29  1  0
  6 30  1  0
 13 31  1  0
 14 32  1  0
 17 33  1  0
 18 34  1  0
 19 35  1  0
 20 36  1  0
 21 37  1  0
 22 38  1  0
 23 39  1  0
 24 40  1  0
M  CHG  1   8  -1
M  END
>  <UniqueID>  (39) 
37

>  <SMILES>  (39) 
Cc1ccc(O)c([N-]S(=O)(=O)c2ccc(-c3ccccc3)cc2)c1

>  <Energy>  (39) 
49.9952387029019

>  <Genealogy>  (39) 
Cc1ccc(O)c([N-]S(=O)(=O)c2ccc(-c3ccccc3)cc2)c1 (protonated)
Cc1ccc(O)c([N-]S(=O)(=O)c2ccc(-c3ccccc3)cc2)c1 (3D coordinates assigned)
Cc1ccc(O)c([N-]S(=O)(=O)c2ccc(-c3ccccc3)cc2)c1 (optimized conformer: 49.9952387029019 kcal/mol)

>  <smiles>  (39) 
Cc1ccc(O)c(NS(=O)(=O)c2ccc(-c3ccccc3)cc2)c1

>  <score_type>  (39) 
oracle

>  <origin>  (39) 
adgpu

>  <m_score__min__energy>  (39) 
-11.880000000000001

>  <m_primary>  (39) 
energy

$$$$
39:0
     RDKit          3D

 60 63  0  0  0  0  0  0  0  0999 V2000
    1.3700   14.4450  -30.9410 C   0  0  0  0  0  0  0  0  0  0  0  0
    0.2990   15.1280  -31.7400 C   0  0  0  0  0  0  0  0  0  0  0  0
   -0.4770   14.3990  -32.6470 C   0  0  0  0  0  0  0  0  0  0  0  0
   -1.4570   15.0350  -33.4100 C   0  0  0  0  0  0  0  0  0  0  0  0
   -1.6710   16.4230  -33.2880 C   0  0  0  0  0  0  0  0  0  0  0  0
   -2.6890   17.0770  -34.0050 O   0  0  0  0  0  0  0  0  0  0  0  0
   -3.9440   16.5060  -34.3780 C   0  0  0  0  0  0  0  0  0  0  0  0
   -5.0800   17.3180  -33.8200 C   0  0  0  0  0  0  0  0  0  0  0  0
   -5.4440   18.5280  -34.4330 C   0  0  0  0  0  0  0  0  0  0  0  0
   -6.4820   19.3010  -33.9070 C   0  0  0  0  0  0  0  0  0  0  0  0
   -7.1750   18.8700  -32.7680 C   0  0  0  0  0  0  0  0  0  0  0  0
   -8.4420   19.8760  -32.0800 S   0  0  0  0  0  0  0  0  0  0  0  0
   -9.5540   20.0380  -33.0790 O   0  0  0  0  0  0  0  0  0  0  0  0
   -9.0090   19.2330  -30.8460 O   0  0  0  0  0  0  0  0  0  0  0  0
   -7.7570   21.4430  -31.6630 C   0  0  0  0  0  0  0  0  0  0  0  0
   -7.2140   22.2550  -32.6680 C   0  0  0  0  0  0  0  0  0  0  0  0
   -6.6920   23.5130  -32.3500 C   0  0  0  0  0  0  0  0  0  0  0  0
   -6.7150   23.9660  -31.0270 C   0  0  0  0  0  0  0  0  0  0  0  0
   -7.2610   23.1620  -30.0220 C   0  0  0  0  0  0  0  0  0  0  0  0
   -7.7840   21.9030  -30.3380 C   0  0  0  0  0  0  0  0  0  0  0  0
   -6.8190   17.6600  -32.1580 C   0  0  0  0  0  0  0  0  0  0  0  0
   -5.7820   16.8840  -32.6840 C   0  0  0  0  0  0  0  0  0  0  0  0
   -0.8570   17.1720  -32.4090 C   0  0  0  0  0  0  0  0  0  0  0  0
   -1.0330   18.6370  -32.2540 C   0  0  0  0  0  0  0  0  0  0  0  0
   -0.0170   19.3730  -32.1290 O   0  0  0  0  0  0  0  0  0  0  0  0
   -2.3410   19.2290  -32.3060 N   0  0  0  0  0  0  0  0  0  0  0  0
   -2.6680   20.4990  -31.7170 C   0  0  0  0  0  0  0  0  0  0  0  0
   -3.4550   21.4440  -32.4000 C   0  0  0  0  0  0  0  0  0  0  0  0
   -3.7360   22.6830  -31.8190 C   0  0  0  0  0  0  0  0  0  0  0  0
   -3.2270   23.0000  -30.5520 C   0  0  0  0  0  0  0  0  0  0  0  0
   -3.5650   24.5700  -29.8310 S   0  0  0  0  0  0  0  0  0  0  0  0
   -2.0950   25.2730  -29.2600 N   0  0  0  0  0  0  0  0  0  0  0  0
   -4.1910   25.4750  -30.8560 O   0  0  0  0  0  0  0  0  0  0  0  0
   -4.5210   24.4090  -28.6830 O   0  0  0  0  0  0  0  0  0  0  0  0
   -2.4190   22.0740  -29.8810 C   0  0  0  0  0  0  0  0  0  0  0  0
   -2.1370   20.8340  -30.4610 C   0  0  0  0  0  0  0  0  0  0  0  0
    0.1160   16.5130  -31.6360 C   0  0  0  0  0  0  0  0  0  0  0  0
    1.1661   14.5750  -29.8679 H   0  0  0  0  0  0  0  0  0  0  0  0
    1.3816   13.3724  -31.1847 H   0  0  0  0  0  0  0  0  0  0  0  0
    2.3474   14.8869  -31.1847 H   0  0  0  0  0  0  0  0  0  0  0  0
   -0.3136   13.3170  -32.7596 H   0  0  0  0  0  0  0  0  0  0  0  0
   -2.0675   14.4485  -34.1124 H   0  0  0  0  0  0  0  0  0  0  0  0
   -4.0197   16.4841  -35.4752 H   0  0  0  0  0  0  0  0  0  0  0  0
   -4.0043   15.4852  -33.9727 H   0  0  0  0  0  0  0  0  0  0  0  0
   -4.9091   18.8688  -35.3318 H   0  0  0  0  0  0  0  0  0  0  0  0
   -6.7562   20.2512  -34.3886 H   0  0  0  0  0  0  0  0  0  0  0  0
   -7.1983   21.9020  -33.7097 H   0  0  0  0  0  0  0  0  0  0  0  0
   -6.2633   24.1463  -33.1407 H   0  0  0  0  0  0  0  0  0  0  0  0
   -6.3034   24.9550  -30.7772 H   0  0  0  0  0  0  0  0  0  0  0  0
   -7.2795   23.5194  -28.9818 H   0  0  0  0  0  0  0  0  0  0  0  0
   -8.2167   21.2734  -29.5466 H   0  0  0  0  0  0  0  0  0  0  0  0
   -7.3577   17.3192  -31.2615 H   0  0  0  0  0  0  0  0  0  0  0  0
   -5.5150   15.9299  -32.2062 H   0  0  0  0  0  0  0  0  0  0  0  0
   -3.0740   18.7440  -32.8730 H   0  0  0  0  0  0  0  0  0  0  0  0
   -3.8517   21.2058  -33.3980 H   0  0  0  0  0  0  0  0  0  0  0  0
   -4.3588   23.4123  -32.3576 H   0  0  0  0  0  0  0  0  0  0  0  0
   -1.6070   25.6770  -30.0910 H   0  0  0  0  0  0  0  0  0  0  0  0
   -2.0044   22.3235  -28.8932 H   0  0  0  0  0  0  0  0  0  0  0  0
   -1.4949   20.1158  -29.9301 H   0  0  0  0  0  0  0  0  0  0  0  0
    0.7412   17.0926  -30.9409 H   0  0  0  0  0  0  0  0  0  0  0  0
  1  2  1  0
  2  3  2  0
  3  4  1  0
  4  5  2  0
  5  6  1  0
  6  7  1  0
  7  8  1  0
  8  9  2  0
  9 10  1  0
 10 11  2  0
 11 12  1  0
 12 13  2  0
 12 14  2  0
 12 15  1  0
 15 16  2  0
 16 17  1  0
 17 18  2  0
 18 19  1  0
 19 20  2  0
 11 21  1  0
 21 22  2  0
  5 23  1  0
 23 24  1  0
 24 25  2  0
 24 26  1  0
 26 27  1  0
 27 28  2  0
 28 29  1  0
 29 30  2  0
 30 31  1  0
 31 32  1  0
 31 33  2  0
 31 34  2  0
 30 35  1  0
 35 36  2  0
 23 37  2  0
 37  2  1  0
 22  8  1  0
 36 27  1  0
 20 15  1  0
  1 38  1  0
  1 39  1  0
  1 40  1  0
  3 41  1  0
  4 42  1  0
  7 43  1  0
  7 44  1  0
  9 45  1  0
 10 46  1  0
 16 47  1  0
 17 48  1  0
 18 49  1  0
 19 50  1  0
 20 51  1  0
 21 52  1  0
 22 53  1  0
 26 54  1  0
 28 55  1  0
 29 56  1  0
 32 57  1  0
 35 58  1  0
 36 59  1  0
 37 60  1  0
M  CHG  1  32  -1
M  END
>  <UniqueID>  (40) 
38

>  <SMILES>  (40) 
Cc1ccc(OCc2ccc(S(=O)(=O)c3ccccc3)cc2)c(C(=O)Nc2ccc(S([NH-])(=O)=O)cc2)c1

>  <Energy>  (40) 
71.89210013673252

>  <Genealogy>  (40) 
Cc1ccc(OCc2ccc(S(=O)(=O)c3ccccc3)cc2)c(C(=O)Nc2ccc(S([NH-])(=O)=O)cc2)c1 (protonated)
Cc1ccc(OCc2ccc(S(=O)(=O)c3ccccc3)cc2)c(C(=O)Nc2ccc(S([NH-])(=O)=O)cc2)c1 (3D coordinates assigned)
Cc1ccc(OCc2ccc(S(=O)(=O)c3ccccc3)cc2)c(C(=O)Nc2ccc(S([NH-])(=O)=O)cc2)c1 (optimized conformer: 71.89210013673252 kcal/mol)

>  <smiles>  (40) 
Cc1ccc(OCc2ccc(S(=O)(=O)c3ccccc3)cc2)c(C(=O)Nc2ccc(S(N)(=O)=O)cc2)c1

>  <score_type>  (40) 
oracle

>  <origin>  (40) 
adgpu

>  <m_score__min__energy>  (40) 
-13.17

>  <m_primary>  (40) 
energy

$$$$
40:0
     RDKit          3D

 45 46  0  0  0  0  0  0  0  0999 V2000
   -2.9680   22.6760  -30.8450 C   0  0  0  0  0  0  0  0  0  0  0  0
   -4.1250   22.1290  -30.0080 C   0  0  0  0  0  0  0  0  0  0  0  0
   -5.0280   23.2030  -29.5470 N   0  0  0  0  0  0  0  0  0  0  0  0
   -4.4530   23.9220  -28.3900 C   0  0  0  0  0  0  0  0  0  0  0  0
   -3.6550   22.9570  -27.5200 C   0  0  0  0  0  0  0  0  0  0  0  0
   -5.4170   24.3180  -30.8500 S   0  0  0  0  0  0  0  0  0  0  0  0
   -4.3030   25.3020  -31.0700 O   0  0  0  0  0  0  0  0  0  0  0  0
   -6.6410   25.0980  -30.4590 O   0  0  0  0  0  0  0  0  0  0  0  0
   -5.7580   23.4730  -32.3290 N   0  0  0  0  0  0  0  0  0  0  0  0
   -6.2970   22.1440  -32.3620 C   0  0  0  0  0  0  0  0  0  0  0  0
   -7.6050   21.7680  -32.0910 C   0  0  0  0  0  0  0  0  0  0  0  0
   -8.7070   22.6610  -31.6000 C   0  0  0  0  0  0  0  0  0  0  0  0
   -7.7010   20.4210  -32.2260 N   0  0  0  0  0  0  0  0  0  0  0  0
   -8.8970   19.6160  -31.9660 C   0  0  0  0  0  0  0  0  0  0  0  0
   -6.5240   19.9450  -32.6270 N   0  0  0  0  0  0  0  0  0  0  0  0
   -6.2270   18.5700  -32.9310 C   0  0  0  0  0  0  0  0  0  0  0  0
   -6.1090   18.1440  -34.2640 C   0  0  0  0  0  0  0  0  0  0  0  0
   -5.8090   16.8100  -34.5540 C   0  0  0  0  0  0  0  0  0  0  0  0
   -5.6170   15.8940  -33.5150 C   0  0  0  0  0  0  0  0  0  0  0  0
   -5.7220   16.3120  -32.1860 C   0  0  0  0  0  0  0  0  0  0  0  0
   -6.0230   17.6460  -31.8930 C   0  0  0  0  0  0  0  0  0  0  0  0
   -5.6570   20.9740  -32.7150 C   0  0  0  0  0  0  0  0  0  0  0  0
   -4.4680   20.8660  -33.1150 O   0  0  0  0  0  0  0  0  0  0  0  0
   -2.1774   23.0498  -30.1777 H   0  0  0  0  0  0  0  0  0  0  0  0
   -2.5633   21.8739  -31.4797 H   0  0  0  0  0  0  0  0  0  0  0  0
   -3.3310   23.4978  -31.4797 H   0  0  0  0  0  0  0  0  0  0  0  0
   -4.7008   21.4182  -30.6189 H   0  0  0  0  0  0  0  0  0  0  0  0
   -3.7005   21.6366  -29.1207 H   0  0  0  0  0  0  0  0  0  0  0  0
   -3.7889   24.7211  -28.7512 H   0  0  0  0  0  0  0  0  0  0  0  0
   -5.2687   24.3560  -27.7930 H   0  0  0  0  0  0  0  0  0  0  0  0
   -3.8402   23.1810  -26.4591 H   0  0  0  0  0  0  0  0  0  0  0  0
   -3.9667   21.9246  -27.7366 H   0  0  0  0  0  0  0  0  0  0  0  0
   -2.5824   23.0693  -27.7366 H   0  0  0  0  0  0  0  0  0  0  0  0
   -5.7800   24.0440  -33.2010 H   0  0  0  0  0  0  0  0  0  0  0  0
   -8.7126   22.6656  -30.5000 H   0  0  0  0  0  0  0  0  0  0  0  0
   -8.5425   23.6837  -31.9701 H   0  0  0  0  0  0  0  0  0  0  0  0
   -9.6734   22.2881  -31.9701 H   0  0  0  0  0  0  0  0  0  0  0  0
   -9.0437   19.5173  -30.8803 H   0  0  0  0  0  0  0  0  0  0  0  0
   -9.7742   20.1082  -32.4112 H   0  0  0  0  0  0  0  0  0  0  0  0
   -8.7712   18.6180  -32.4112 H   0  0  0  0  0  0  0  0  0  0  0  0
   -6.2533   18.8634  -35.0835 H   0  0  0  0  0  0  0  0  0  0  0  0
   -5.7239   16.4805  -35.6000 H   0  0  0  0  0  0  0  0  0  0  0  0
   -5.3832   14.8438  -33.7442 H   0  0  0  0  0  0  0  0  0  0  0  0
   -5.5678   15.5913  -31.3694 H   0  0  0  0  0  0  0  0  0  0  0  0
   -6.1003   17.9729  -30.8455 H   0  0  0  0  0  0  0  0  0  0  0  0
  1  2  1  0
  2  3  1  0
  3  4  1  0
  4  5  1  0
  3  6  1  0
  6  7  2  0
  6  8  2  0
  6  9  1  0
  9 10  1  0
 10 11  2  0
 11 12  1  0
 11 13  1  0
 13 14  1  0
 13 15  1  0
 15 16  1  0
 16 17  2  0
 17 18  1  0
 18 19  2  0
 19 20  1  0
 20 21  2  0
 15 22  1  0
 22 23  2  0
 22 10  1  0
 21 16  1  0
  1 24  1  0
  1 25  1  0
  1 26  1  0
  2 27  1  0
  2 28  1  0
  4 29  1  0
  4 30  1  0
  5 31  1  0
  5 32  1  0
  5 33  1  0
  9 34  1  0
 12 35  1  0
 12 36  1  0
 12 37  1  0
 14 38  1  0
 14 39  1  0
 14 40  1  0
 17 41  1  0
 18 42  1  0
 19 43  1  0
 20 44  1  0
 21 45  1  0
M  END
>  <UniqueID>  (41) 
39

>  <SMILES>  (41) 
CCN(CC)S(=O)(=O)Nc1c(C)n(C)n(-c2ccccc2)c1=O

>  <Energy>  (41) 
85.82192526635995

>  <Genealogy>  (41) 
CCN(CC)S(=O)(=O)Nc1c(C)n(C)n(-c2ccccc2)c1=O (3D coordinates assigned)
CCN(CC)S(=O)(=O)Nc1c(C)n(C)n(-c2ccccc2)c1=O (optimized conformer: 85.82192526635995 kcal/mol)

>  <smiles>  (41) 
CCN(CC)S(=O)(=O)Nc1c(C)n(C)n(-c2ccccc2)c1=O

>  <score_type>  (41) 
oracle

>  <origin>  (41) 
adgpu

>  <m_score__min__energy>  (41) 
-8.2100000000000009

>  <m_primary>  (41) 
energy

$$$$
41:0
     RDKit          3D

 32 33  0  0  0  0  0  0  0  0999 V2000
   -4.3960   24.9170  -31.5870 H   0  0  0  0  0  0  0  0  0  0  0  0
   -3.9390   25.4210  -30.8370 O   0  0  0  0  0  0  0  0  0  0  0  0
   -3.2420   24.7390  -29.8460 C   0  0  0  0  0  0  0  0  0  0  0  0
   -2.2760   25.2990  -29.0950 N   0  0  0  0  0  0  0  0  0  0  0  0
   -1.8470   24.3150  -28.2780 C   0  0  0  0  0  0  0  0  0  0  0  0
   -1.0539   24.4339  -27.5251 H   0  0  0  0  0  0  0  0  0  0  0  0
   -2.5340   23.1370  -28.5100 C   0  0  0  0  0  0  0  0  0  0  0  0
   -2.3871   22.1733  -28.0003 H   0  0  0  0  0  0  0  0  0  0  0  0
   -3.4400   23.4170  -29.5100 C   0  0  0  0  0  0  0  0  0  0  0  0
   -4.3750   22.4460  -30.1670 C   0  0  0  0  0  0  0  0  0  0  0  0
   -5.4020   22.6493  -29.8294 H   0  0  0  0  0  0  0  0  0  0  0  0
   -4.0760   21.4247  -29.8887 H   0  0  0  0  0  0  0  0  0  0  0  0
   -4.3130   22.5760  -31.6650 C   0  0  0  0  0  0  0  0  0  0  0  0
   -3.4308   22.1733  -32.1843 H   0  0  0  0  0  0  0  0  0  0  0  0
   -5.2440   23.1380  -32.3820 N   0  0  0  0  0  0  0  0  0  0  0  0
   -6.4770   23.7300  -31.9400 C   0  0  0  0  0  0  0  0  0  0  0  0
   -6.4870   24.6970  -31.1300 O   0  0  0  0  0  0  0  0  0  0  0  0
   -7.6790   23.2120  -32.4270 O   0  0  0  0  0  0  0  0  0  0  0  0
   -8.5180   22.3600  -31.6550 C   0  0  0  0  0  0  0  0  0  0  0  0
   -8.3316   22.5321  -30.5847 H   0  0  0  0  0  0  0  0  0  0  0  0
   -9.5724   22.5777  -31.8806 H   0  0  0  0  0  0  0  0  0  0  0  0
   -8.2160   20.9290  -31.9930 C   0  0  0  0  0  0  0  0  0  0  0  0
   -7.0800   20.6050  -32.7530 C   0  0  0  0  0  0  0  0  0  0  0  0
   -6.3923   21.3998  -33.0776 H   0  0  0  0  0  0  0  0  0  0  0  0
   -6.8210   19.2750  -33.0980 C   0  0  0  0  0  0  0  0  0  0  0  0
   -5.9257   19.0246  -33.6859 H   0  0  0  0  0  0  0  0  0  0  0  0
   -7.6980   18.2630  -32.6970 C   0  0  0  0  0  0  0  0  0  0  0  0
   -7.4899   17.2168  -32.9656 H   0  0  0  0  0  0  0  0  0  0  0  0
   -8.8390   18.5800  -31.9550 C   0  0  0  0  0  0  0  0  0  0  0  0
   -9.5308   17.7835  -31.6436 H   0  0  0  0  0  0  0  0  0  0  0  0
   -9.1020   19.9090  -31.6080 C   0  0  0  0  0  0  0  0  0  0  0  0
  -10.0056   20.1565  -31.0317 H   0  0  0  0  0  0  0  0  0  0  0  0
  1  2  1  0
  2  3  1  0
  3  4  1  0
  4  5  1  0
  5  6  1  0
  5  7  2  0
  7  8  1  0
  7  9  1  0
  9 10  1  0
 10 11  1  0
 10 12  1  0
 10 13  1  0
 13 14  1  0
 13 15  2  0
 15 16  1  0
 16 17  2  0
 16 18  1  0
 18 19  1  0
 19 20  1  0
 19 21  1  0
 19 22  1  0
 22 23  2  0
 23 24  1  0
 23 25  1  0
 25 26  1  0
 25 27  2  0
 27 28  1  0
 27 29  1  0
 29 30  1  0
 29 31  2  0
 31 32  1  0
  9  3  2  0
 31 22  1  0
M  CHG  1   4  -1
M  END
>  <UniqueID>  (42) 
40

>  <SMILES>  (42) 
O=C(/N=C\Cc1cc[n-]c1O)OCc1ccccc1

>  <Energy>  (42) 
55.97806824597077

>  <Genealogy>  (42) 
O=C(N=CCc1cc[n-]c1O)OCc1ccccc1 (protonated)
O=C(/N=C\Cc1cc[n-]c1O)OCc1ccccc1 (cis-trans isomerization)
O=C(/N=C\Cc1cc[n-]c1O)OCc1ccccc1 (3D coordinates assigned)
O=C(/N=C\Cc1cc[n-]c1O)OCc1ccccc1 (optimized conformer: 55.97806824597077 kcal/mol)

>  <smiles>  (42) 
O=C(N=CCc1cc[nH]c1O)OCc1ccccc1

>  <score_type>  (42) 
oracle

>  <origin>  (42) 
adgpu

>  <m_score__min__energy>  (42) 
-9.5299999999999994

>  <m_primary>  (42) 
energy

$$$$
42:0
     RDKit          3D

 51 54  0  0  0  0  0  0  0  0999 V2000
   -9.1170   21.1100  -30.8130 C   0  0  0  0  0  0  0  0  0  0  0  0
   -7.8050   21.2400  -31.4740 N   0  0  1  0  0  0  0  0  0  0  0  0
   -7.7260   20.4730  -32.7410 C   0  0  0  0  0  0  0  0  0  0  0  0
   -6.9690   19.1700  -32.6270 C   0  0  0  0  0  0  0  0  0  0  0  0
   -6.4090   18.5600  -33.7580 C   0  0  0  0  0  0  0  0  0  0  0  0
   -5.7170   17.3550  -33.6160 C   0  0  0  0  0  0  0  0  0  0  0  0
   -5.5960   16.7680  -32.3550 C   0  0  0  0  0  0  0  0  0  0  0  0
   -6.1670   17.4010  -31.2500 C   0  0  0  0  0  0  0  0  0  0  0  0
   -6.8370   18.5750  -31.4080 N   0  0  0  0  0  0  0  0  0  0  0  0
   -7.4530   22.6340  -31.6710 C   0  0  0  0  0  0  0  0  0  0  0  0
   -8.1410   23.3540  -32.4470 O   0  0  0  0  0  0  0  0  0  0  0  0
   -6.2480   23.2240  -31.0450 C   0  0  0  0  0  0  0  0  0  0  0  0
   -6.3490   24.2580  -30.0980 C   0  0  0  0  0  0  0  0  0  0  0  0
   -5.1990   24.8150  -29.5350 C   0  0  0  0  0  0  0  0  0  0  0  0
   -3.9270   24.3640  -29.9250 C   0  0  0  0  0  0  0  0  0  0  0  0
   -2.7320   24.9130  -29.3570 N   0  0  0  0  0  0  0  0  0  0  0  0
   -1.5800   24.1530  -28.9760 C   0  0  0  0  0  0  0  0  0  0  0  0
   -0.4530   24.7170  -28.9640 O   0  0  0  0  0  0  0  0  0  0  0  0
   -1.6940   22.7770  -28.5790 N   0  0  0  0  0  0  0  0  0  0  0  0
   -2.8750   22.2040  -27.9280 C   0  0  0  0  0  0  0  0  0  0  0  0
   -2.4220   20.8440  -27.5510 C   0  0  0  0  0  0  0  0  0  0  0  0
   -3.1570   19.8390  -26.9210 C   0  0  0  0  0  0  0  0  0  0  0  0
   -2.5290   18.6090  -26.6660 C   0  0  0  0  0  0  0  0  0  0  0  0
   -1.1880   18.4040  -27.0430 C   0  0  0  0  0  0  0  0  0  0  0  0
   -0.4680   19.4300  -27.6780 C   0  0  0  0  0  0  0  0  0  0  0  0
   -1.1130   20.6440  -27.9220 C   0  0  0  0  0  0  0  0  0  0  0  0
   -0.5580   21.8530  -28.5760 C   0  0  0  0  0  0  0  0  0  0  0  0
   -3.8250   23.3260  -30.8570 C   0  0  0  0  0  0  0  0  0  0  0  0
   -4.9750   22.7680  -31.4230 C   0  0  0  0  0  0  0  0  0  0  0  0
   -8.9806   21.1235  -29.7216 H   0  0  0  0  0  0  0  0  0  0  0  0
   -9.7630   21.9485  -31.1122 H   0  0  0  0  0  0  0  0  0  0  0  0
   -9.5859   20.1610  -31.1122 H   0  0  0  0  0  0  0  0  0  0  0  0
   -7.1110   20.7970  -30.8280 H   0  0  0  0  0  0  0  0  0  0  0  0
   -8.7503   20.2495  -33.0740 H   0  0  0  0  0  0  0  0  0  0  0  0
   -7.1737   21.0992  -33.4571 H   0  0  0  0  0  0  0  0  0  0  0  0
   -6.5136   19.0262  -34.7488 H   0  0  0  0  0  0  0  0  0  0  0  0
   -5.2685   16.8698  -34.4954 H   0  0  0  0  0  0  0  0  0  0  0  0
   -5.0565   15.8171  -32.2338 H   0  0  0  0  0  0  0  0  0  0  0  0
   -6.0754   16.9507  -30.2506 H   0  0  0  0  0  0  0  0  0  0  0  0
   -7.3398   24.6305  -29.7987 H   0  0  0  0  0  0  0  0  0  0  0  0
   -5.2896   25.6115  -28.7818 H   0  0  0  0  0  0  0  0  0  0  0  0
   -3.1581   22.7868  -27.0391 H   0  0  0  0  0  0  0  0  0  0  0  0
   -3.7662   22.2005  -28.5728 H   0  0  0  0  0  0  0  0  0  0  0  0
   -4.2047   20.0064  -26.6306 H   0  0  0  0  0  0  0  0  0  0  0  0
   -3.0875   17.8019  -26.1694 H   0  0  0  0  0  0  0  0  0  0  0  0
   -0.7027   17.4380  -26.8399 H   0  0  0  0  0  0  0  0  0  0  0  0
    0.5802   19.2801  -27.9761 H   0  0  0  0  0  0  0  0  0  0  0  0
    0.2838   22.2634  -27.9990 H   0  0  0  0  0  0  0  0  0  0  0  0
   -0.1566   21.6564  -29.5811 H   0  0  0  0  0  0  0  0  0  0  0  0
   -2.8339   22.9465  -31.1463 H   0  0  0  0  0  0  0  0  0  0  0  0
   -4.8819   21.9659  -32.1699 H   0  0  0  0  0  0  0  0  0  0  0  0
  1  2  1  0
  2  3  1  0
  3  4  1  0
  4  5  2  0
  5  6  1  0
  6  7  2  0
  7  8  1  0
  8  9  2  0
  2 10  1  0
 10 11  2  0
 10 12  1  0
 12 13  2  0
 13 14  1  0
 14 15  2  0
 15 16  1  0
 16 17  1  0
 17 18  2  0
 17 19  1  0
 19 20  1  0
 20 21  1  0
 21 22  2  0
 22 23  1  0
 23 24  2  0
 24 25  1  0
 25 26  2  0
 26 27  1  0
 15 28  1  0
 28 29  2  0
  9  4  1  0
 29 12  1  0
 27 19  1  0
 26 21  1  0
  1 30  1  0
  1 31  1  0
  1 32  1  0
  2 33  1  1
  3 34  1  0
  3 35  1  0
  5 36  1  0
  6 37  1  0
  7 38  1  0
  8 39  1  0
 13 40  1  0
 14 41  1  0
 20 42  1  0
 20 43  1  0
 22 44  1  0
 23 45  1  0
 24 46  1  0
 25 47  1  0
 27 48  1  0
 27 49  1  0
 28 50  1  0
 29 51  1  0
M  CHG  2   2   1  16  -1
M  END
>  <UniqueID>  (43) 
41

>  <SMILES>  (43) 
C[N@@H+](Cc1ccccn1)C(=O)c1ccc([N-]C(=O)N2Cc3ccccc3C2)cc1

>  <Energy>  (43) 
79.19028978652291

>  <Genealogy>  (43) 
C[NH+](Cc1ccccn1)C(=O)c1ccc([N-]C(=O)N2Cc3ccccc3C2)cc1 (protonated)
C[N@@H+](Cc1ccccn1)C(=O)c1ccc([N-]C(=O)N2Cc3ccccc3C2)cc1 (chirality)
C[N@@H+](Cc1ccccn1)C(=O)c1ccc([N-]C(=O)N2Cc3ccccc3C2)cc1 (3D coordinates assigned)
C[N@@H+](Cc1ccccn1)C(=O)c1ccc([N-]C(=O)N2Cc3ccccc3C2)cc1 (nonaromatic ring conformer: 79.19028978652291 kcal/mol)

>  <smiles>  (43) 
CN(Cc1ccccn1)C(=O)c1ccc(NC(=O)N2Cc3ccccc3C2)cc1

>  <score_type>  (43) 
oracle

>  <origin>  (43) 
adgpu

>  <m_score__min__energy>  (43) 
-10.550000000000001

>  <m_primary>  (43) 
energy

$$$$
43:0
     RDKit          3D

 42 45  0  0  0  0  0  0  0  0999 V2000
   -0.8040   26.3740  -23.7800 C   0  0  0  0  0  0  0  0  0  0  0  0
   -0.4060   26.3960  -25.1470 O   0  0  0  0  0  0  0  0  0  0  0  0
   -1.1610   25.8550  -26.2000 C   0  0  0  0  0  0  0  0  0  0  0  0
   -2.4160   25.3100  -25.9060 C   0  0  0  0  0  0  0  0  0  0  0  0
   -3.2050   24.7600  -26.9190 C   0  0  0  0  0  0  0  0  0  0  0  0
   -2.7490   24.7340  -28.2480 C   0  0  0  0  0  0  0  0  0  0  0  0
   -3.6050   24.1470  -29.3080 C   0  0  0  0  0  0  0  0  0  0  0  0
   -3.0960   23.9030  -30.4360 O   0  0  0  0  0  0  0  0  0  0  0  0
   -4.9930   23.8460  -29.0660 N   0  0  0  0  0  0  0  0  0  0  0  0
   -5.8970   23.3750  -30.0800 C   0  0  0  0  0  0  0  0  0  0  0  0
   -6.9410   24.2070  -30.5070 C   0  0  0  0  0  0  0  0  0  0  0  0
   -7.8200   23.7830  -31.5070 C   0  0  0  0  0  0  0  0  0  0  0  0
   -7.6550   22.5310  -32.1000 C   0  0  0  0  0  0  0  0  0  0  0  0
   -6.5990   21.6920  -31.7060 C   0  0  0  0  0  0  0  0  0  0  0  0
   -6.4180   20.3750  -32.3530 C   0  0  0  0  0  0  0  0  0  0  0  0
   -7.2140   19.3000  -32.1030 N   0  0  0  0  0  0  0  0  0  0  0  0
   -6.6780   18.3620  -32.9000 C   0  0  0  0  0  0  0  0  0  0  0  0
   -7.0870   17.0400  -33.0630 C   0  0  0  0  0  0  0  0  0  0  0  0
   -6.3600   16.2400  -33.9650 C   0  0  0  0  0  0  0  0  0  0  0  0
   -5.2580   16.7760  -34.6730 C   0  0  0  0  0  0  0  0  0  0  0  0
   -4.8750   18.1170  -34.4830 C   0  0  0  0  0  0  0  0  0  0  0  0
   -5.6180   18.8750  -33.5810 C   0  0  0  0  0  0  0  0  0  0  0  0
   -5.4640   20.1240  -33.2370 O   0  0  0  0  0  0  0  0  0  0  0  0
   -5.7180   22.1240  -30.6990 C   0  0  0  0  0  0  0  0  0  0  0  0
   -1.4930   25.2940  -28.5450 C   0  0  0  0  0  0  0  0  0  0  0  0
   -0.7040   25.8460  -27.5310 C   0  0  0  0  0  0  0  0  0  0  0  0
    0.0876   26.4233  -23.1377 H   0  0  0  0  0  0  0  0  0  0  0  0
   -1.4531   27.2376  -23.5732 H   0  0  0  0  0  0  0  0  0  0  0  0
   -1.3540   25.4441  -23.5732 H   0  0  0  0  0  0  0  0  0  0  0  0
   -2.7839   25.3148  -24.8694 H   0  0  0  0  0  0  0  0  0  0  0  0
   -4.1930   24.3431  -26.6740 H   0  0  0  0  0  0  0  0  0  0  0  0
   -5.3710   23.9200  -28.0970 H   0  0  0  0  0  0  0  0  0  0  0  0
   -7.0692   25.2002  -30.0519 H   0  0  0  0  0  0  0  0  0  0  0  0
   -8.6438   24.4377  -31.8274 H   0  0  0  0  0  0  0  0  0  0  0  0
   -8.3555   22.1988  -32.8803 H   0  0  0  0  0  0  0  0  0  0  0  0
   -7.9463   16.6363  -32.5074 H   0  0  0  0  0  0  0  0  0  0  0  0
   -6.6507   15.1906  -34.1206 H   0  0  0  0  0  0  0  0  0  0  0  0
   -4.6979   16.1413  -35.3754 H   0  0  0  0  0  0  0  0  0  0  0  0
   -4.0218   18.5498  -35.0259 H   0  0  0  0  0  0  0  0  0  0  0  0
   -4.8817   21.4786  -30.3924 H   0  0  0  0  0  0  0  0  0  0  0  0
   -1.1288   25.2977  -29.5830 H   0  0  0  0  0  0  0  0  0  0  0  0
    0.2789   26.2754  -27.7750 H   0  0  0  0  0  0  0  0  0  0  0  0
  1  2  1  0
  2  3  1  0
  3  4  2  0
  4  5  1  0
  5  6  2  0
  6  7  1  0
  7  8  2  0
  7  9  1  0
  9 10  1  0
 10 11  2  0
 11 12  1  0
 12 13  2  0
 13 14  1  0
 14 15  1  0
 15 16  2  0
 16 17  1  0
 17 18  2  0
 18 19  1  0
 19 20  2  0
 20 21  1  0
 21 22  2  0
 22 23  1  0
 14 24  2  0
  6 25  1  0
 25 26  2  0
 26  3  1  0
 24 10  1  0
 23 15  1  0
 22 17  1  0
  1 27  1  0
  1 28  1  0
  1 29  1  0
  4 30  1  0
  5 31  1  0
  9 32  1  0
 11 33  1  0
 12 34  1  0
 13 35  1  0
 18 36  1  0
 19 37  1  0
 20 38  1  0
 21 39  1  0
 24 40  1  0
 25 41  1  0
 26 42  1  0
M  END
>  <UniqueID>  (44) 
42

>  <SMILES>  (44) 
COc1ccc(C(=O)Nc2cccc(-c3nc4ccccc4o3)c2)cc1

>  <Energy>  (44) 
90.76418727449672

>  <Genealogy>  (44) 
COc1ccc(C(=O)Nc2cccc(-c3nc4ccccc4o3)c2)cc1 (3D coordinates assigned)
COc1ccc(C(=O)Nc2cccc(-c3nc4ccccc4o3)c2)cc1 (optimized conformer: 90.76418727449672 kcal/mol)

>  <smiles>  (44) 
COc1ccc(C(=O)Nc2cccc(-c3nc4ccccc4o3)c2)cc1

>  <score_type>  (44) 
oracle

>  <origin>  (44) 
adgpu

>  <m_score__min__energy>  (44) 
-8.1799999999999997

>  <m_primary>  (44) 
energy

$$$$
44:0
     RDKit          3D

 60 63  0  0  0  0  0  0  0  0999 V2000
   -6.9320   25.2350  -29.5850 C   0  0  0  0  0  0  0  0  0  0  0  0
   -6.5670   24.1780  -30.5960 C   0  0  0  0  0  0  0  0  0  0  0  0
   -7.5940   23.3770  -31.1240 C   0  0  0  0  0  0  0  0  0  0  0  0
   -7.3070   22.3510  -32.0250 C   0  0  0  0  0  0  0  0  0  0  0  0
   -5.9840   22.0960  -32.4150 C   0  0  0  0  0  0  0  0  0  0  0  0
   -5.6680   21.0370  -33.3350 N   0  0  0  0  0  0  0  0  0  0  0  0
   -5.9400   19.6520  -33.0670 C   0  0  0  0  0  0  0  0  0  0  0  0
   -7.2500   19.2640  -32.7350 C   0  0  0  0  0  0  0  0  0  0  0  0
   -7.5500   17.9280  -32.4720 C   0  0  0  0  0  0  0  0  0  0  0  0
   -6.5450   16.9630  -32.5310 C   0  0  0  0  0  0  0  0  0  0  0  0
   -5.2380   17.3310  -32.8560 C   0  0  0  0  0  0  0  0  0  0  0  0
   -4.9150   18.6740  -33.1270 C   0  0  0  0  0  0  0  0  0  0  0  0
   -3.5180   19.0180  -33.4900 C   0  0  0  0  0  0  0  0  0  0  0  0
   -3.2370   20.1800  -33.8880 O   0  0  0  0  0  0  0  0  0  0  0  0
   -2.4750   18.0370  -33.3720 N   0  0  0  0  0  0  0  0  0  0  0  0
   -1.0600   18.3820  -33.4800 C   0  0  0  0  0  0  0  0  0  0  0  0
   -0.6430   19.2240  -32.3050 C   0  0  0  0  0  0  0  0  0  0  0  0
   -0.6540   20.6270  -32.3890 C   0  0  0  0  0  0  0  0  0  0  0  0
   -0.2860   21.4010  -31.2840 C   0  0  0  0  0  0  0  0  0  0  0  0
    0.0890   20.7810  -30.0880 C   0  0  0  0  0  0  0  0  0  0  0  0
    0.0970   19.3860  -29.9950 C   0  0  0  0  0  0  0  0  0  0  0  0
   -0.2710   18.6090  -31.0990 C   0  0  0  0  0  0  0  0  0  0  0  0
   -4.9590   22.9140  -31.9220 C   0  0  0  0  0  0  0  0  0  0  0  0
   -5.2300   23.9640  -31.0230 C   0  0  0  0  0  0  0  0  0  0  0  0
   -4.0960   24.7990  -30.5530 C   0  0  0  0  0  0  0  0  0  0  0  0
   -4.2400   26.0500  -30.4660 O   0  0  0  0  0  0  0  0  0  0  0  0
   -2.8780   24.1880  -30.1120 N   0  0  0  0  0  0  0  0  0  0  0  0
   -2.7560   23.0530  -29.2430 C   0  0  0  0  0  0  0  0  0  0  0  0
   -3.1680   21.8010  -29.7130 C   0  0  0  0  0  0  0  0  0  0  0  0
   -3.0400   20.6640  -28.9100 C   0  0  0  0  0  0  0  0  0  0  0  0
   -2.4620   20.7550  -27.6310 C   0  0  0  0  0  0  0  0  0  0  0  0
   -2.3650   19.5370  -26.7480 C   0  0  0  0  0  0  0  0  0  0  0  0
   -1.4740   18.6410  -27.3060 F   0  0  0  0  0  0  0  0  0  0  0  0
   -3.6000   18.9250  -26.6220 F   0  0  0  0  0  0  0  0  0  0  0  0
   -1.9220   19.8840  -25.4830 F   0  0  0  0  0  0  0  0  0  0  0  0
   -2.0530   22.0140  -27.1590 C   0  0  0  0  0  0  0  0  0  0  0  0
   -2.1840   23.1510  -27.9630 C   0  0  0  0  0  0  0  0  0  0  0  0
   -6.7938   24.8347  -28.5698 H   0  0  0  0  0  0  0  0  0  0  0  0
   -6.2853   26.1140  -29.7237 H   0  0  0  0  0  0  0  0  0  0  0  0
   -7.9832   25.5276  -29.7237 H   0  0  0  0  0  0  0  0  0  0  0  0
   -8.6360   23.5610  -30.8235 H   0  0  0  0  0  0  0  0  0  0  0  0
   -8.1242   21.7377  -32.4324 H   0  0  0  0  0  0  0  0  0  0  0  0
   -5.0870   21.2630  -34.1740 H   0  0  0  0  0  0  0  0  0  0  0  0
   -8.0457   20.0216  -32.6822 H   0  0  0  0  0  0  0  0  0  0  0  0
   -8.5794   17.6352  -32.2180 H   0  0  0  0  0  0  0  0  0  0  0  0
   -6.7825   15.9097  -32.3210 H   0  0  0  0  0  0  0  0  0  0  0  0
   -4.4519   16.5629  -32.9008 H   0  0  0  0  0  0  0  0  0  0  0  0
   -2.7280   17.0340  -33.2220 H   0  0  0  0  0  0  0  0  0  0  0  0
   -0.4608   17.4597  -33.4978 H   0  0  0  0  0  0  0  0  0  0  0  0
   -0.8975   18.9513  -34.4071 H   0  0  0  0  0  0  0  0  0  0  0  0
   -0.9530   21.1177  -33.3270 H   0  0  0  0  0  0  0  0  0  0  0  0
   -0.2915   22.4986  -31.3557 H   0  0  0  0  0  0  0  0  0  0  0  0
    0.3779   21.3913  -29.2197 H   0  0  0  0  0  0  0  0  0  0  0  0
    0.3926   18.8992  -29.0539 H   0  0  0  0  0  0  0  0  0  0  0  0
   -0.2688   17.5117  -31.0216 H   0  0  0  0  0  0  0  0  0  0  0  0
   -3.9226   22.7328  -32.2431 H   0  0  0  0  0  0  0  0  0  0  0  0
   -3.5960   21.7108  -30.7223 H   0  0  0  0  0  0  0  0  0  0  0  0
   -3.3939   19.6909  -29.2811 H   0  0  0  0  0  0  0  0  0  0  0  0
   -1.6265   22.1060  -26.1492 H   0  0  0  0  0  0  0  0  0  0  0  0
   -1.8376   24.1267  -27.5916 H   0  0  0  0  0  0  0  0  0  0  0  0
  1  2  1  0
  2  3  2  0
  3  4  1  0
  4  5  2  0
  5  6  1  0
  6  7  1  0
  7  8  2  0
  8  9  1  0
  9 10  2  0
 10 11  1  0
 11 12  2  0
 12 13  1  0
 13 14  2  0
 13 15  1  0
 15 16  1  0
 16 17  1  0
 17 18  2  0
 18 19  1  0
 19 20  2  0
 20 21  1  0
 21 22  2  0
  5 23  1  0
 23 24  2  0
 24 25  1  0
 25 26  2  0
 25 27  1  0
 27 28  1  0
 28 29  2  0
 29 30  1  0
 30 31  2  0
 31 32  1  0
 32 33  1  0
 32 34  1  0
 32 35  1  0
 31 36  1  0
 36 37  2  0
 24  2  1  0
 37 28  1  0
 12  7  1  0
 22 17  1  0
  1 38  1  0
  1 39  1  0
  1 40  1  0
  3 41  1  0
  4 42  1  0
  6 43  1  0
  8 44  1  0
  9 45  1  0
 10 46  1  0
 11 47  1  0
 15 48  1  0
 16 49  1  0
 16 50  1  0
 18 51  1  0
 19 52  1  0
 20 53  1  0
 21 54  1  0
 22 55  1  0
 23 56  1  0
 29 57  1  0
 30 58  1  0
 36 59  1  0
 37 60  1  0
M  CHG  1  27  -1
M  END
>  <UniqueID>  (45) 
43

>  <SMILES>  (45) 
Cc1ccc(Nc2ccccc2C(=O)NCc2ccccc2)cc1C(=O)[N-]c1ccc(C(F)(F)F)cc1

>  <Energy>  (45) 
82.24924450101199

>  <Genealogy>  (45) 
Cc1ccc(Nc2ccccc2C(=O)NCc2ccccc2)cc1C(=O)[N-]c1ccc(C(F)(F)F)cc1 (protonated)
Cc1ccc(Nc2ccccc2C(=O)NCc2ccccc2)cc1C(=O)[N-]c1ccc(C(F)(F)F)cc1 (3D coordinates assigned)
Cc1ccc(Nc2ccccc2C(=O)NCc2ccccc2)cc1C(=O)[N-]c1ccc(C(F)(F)F)cc1 (optimized conformer: 82.24924450101199 kcal/mol)

>  <smiles>  (45) 
Cc1ccc(Nc2ccccc2C(=O)NCc2ccccc2)cc1C(=O)Nc1ccc(C(F)(F)F)cc1

>  <score_type>  (45) 
oracle

>  <origin>  (45) 
adgpu

>  <m_score__min__energy>  (45) 
-11.66

>  <m_primary>  (45) 
energy

$$$$
45:0
     RDKit          3D

 34 35  0  0  0  0  0  0  0  0999 V2000
   -1.3830   25.3530  -27.7030 C   0  0  0  0  0  0  0  0  0  0  0  0
   -2.0260   25.4680  -28.9690 O   0  0  0  0  0  0  0  0  0  0  0  0
   -2.9390   24.5340  -29.4800 C   0  0  0  0  0  0  0  0  0  0  0  0
   -2.5460   23.1920  -29.5550 C   0  0  0  0  0  0  0  0  0  0  0  0
   -3.4190   22.2230  -30.0540 C   0  0  0  0  0  0  0  0  0  0  0  0
   -4.7090   22.5770  -30.4750 C   0  0  0  0  0  0  0  0  0  0  0  0
   -5.5810   21.5650  -31.0070 N   0  0  0  0  0  0  0  0  0  0  0  0
   -5.3420   20.8700  -32.2430 C   0  0  0  0  0  0  0  0  0  0  0  0
   -4.6060   21.3920  -33.1240 O   0  0  0  0  0  0  0  0  0  0  0  0
   -6.0130   19.5800  -32.5270 C   0  0  0  0  0  0  0  0  0  0  0  0
   -5.2830   18.5490  -33.1460 C   0  0  0  0  0  0  0  0  0  0  0  0
   -5.8890   17.3250  -33.4400 C   0  0  0  0  0  0  0  0  0  0  0  0
   -4.9670   16.0550  -34.2240 Cl  0  0  0  0  0  0  0  0  0  0  0  0
   -7.2280   17.1140  -33.1140 C   0  0  0  0  0  0  0  0  0  0  0  0
   -7.9630   18.1190  -32.4830 C   0  0  0  0  0  0  0  0  0  0  0  0
   -7.3650   19.3570  -32.1730 C   0  0  0  0  0  0  0  0  0  0  0  0
   -8.0740   20.3650  -31.4990 O   0  0  0  0  0  0  0  0  0  0  0  0
   -9.2890   20.9470  -31.9580 C   0  0  0  0  0  0  0  0  0  0  0  0
   -5.1000   23.9260  -30.4190 C   0  0  0  0  0  0  0  0  0  0  0  0
   -4.2250   24.8960  -29.9200 C   0  0  0  0  0  0  0  0  0  0  0  0
   -2.1248   25.4857  -26.9016 H   0  0  0  0  0  0  0  0  0  0  0  0
   -0.9220   24.3582  -27.6149 H   0  0  0  0  0  0  0  0  0  0  0  0
   -0.6058   26.1264  -27.6149 H   0  0  0  0  0  0  0  0  0  0  0  0
   -1.5409   22.8986  -29.2179 H   0  0  0  0  0  0  0  0  0  0  0  0
   -3.0925   21.1745  -30.1173 H   0  0  0  0  0  0  0  0  0  0  0  0
   -6.4900   21.3920  -30.5200 H   0  0  0  0  0  0  0  0  0  0  0  0
   -4.2249   18.7081  -33.4010 H   0  0  0  0  0  0  0  0  0  0  0  0
   -7.7064   16.1532  -33.3546 H   0  0  0  0  0  0  0  0  0  0  0  0
   -9.0179   17.9433  -32.2255 H   0  0  0  0  0  0  0  0  0  0  0  0
   -9.9037   21.2414  -31.0946 H   0  0  0  0  0  0  0  0  0  0  0  0
   -9.0632   21.8347  -32.5671 H   0  0  0  0  0  0  0  0  0  0  0  0
   -9.8392   20.2147  -32.5671 H   0  0  0  0  0  0  0  0  0  0  0  0
   -6.1001   24.2204  -30.7698 H   0  0  0  0  0  0  0  0  0  0  0  0
   -4.5441   25.9476  -29.8713 H   0  0  0  0  0  0  0  0  0  0  0  0
  1  2  1  0
  2  3  1  0
  3  4  2  0
  4  5  1  0
  5  6  2  0
  6  7  1  0
  7  8  1  0
  8  9  2  0
  8 10  1  0
 10 11  2  0
 11 12  1  0
 12 13  1  0
 12 14  2  0
 14 15  1  0
 15 16  2  0
 16 17  1  0
 17 18  1  0
  6 19  1  0
 19 20  2  0
 20  3  1  0
 16 10  1  0
  1 21  1  0
  1 22  1  0
  1 23  1  0
  4 24  1  0
  5 25  1  0
  7 26  1  0
 11 27  1  0
 14 28  1  0
 15 29  1  0
 18 30  1  0
 18 31  1  0
 18 32  1  0
 19 33  1  0
 20 34  1  0
M  END
>  <UniqueID>  (46) 
44

>  <SMILES>  (46) 
COc1ccc(NC(=O)c2cc(Cl)ccc2OC)cc1

>  <Energy>  (46) 
40.45200804100129

>  <Genealogy>  (46) 
COc1ccc(NC(=O)c2cc(Cl)ccc2OC)cc1 (3D coordinates assigned)
COc1ccc(NC(=O)c2cc(Cl)ccc2OC)cc1 (optimized conformer: 40.45200804100129 kcal/mol)

>  <smiles>  (46) 
COc1ccc(NC(=O)c2cc(Cl)ccc2OC)cc1

>  <score_type>  (46) 
oracle

>  <origin>  (46) 
adgpu

>  <m_score__min__energy>  (46) 
-6.5199999999999996

>  <m_primary>  (46) 
energy

$$$$
46:0
     RDKit          3D

 31 32  0  0  0  0  0  0  0  0999 V2000
   -0.8660   23.1560  -27.8990 C   0  0  0  0  0  0  0  0  0  0  0  0
   -2.1910   23.5190  -27.5280 O   0  0  0  0  0  0  0  0  0  0  0  0
   -3.2360   23.7430  -28.4370 C   0  0  0  0  0  0  0  0  0  0  0  0
   -4.3920   22.9380  -28.4660 C   0  0  0  0  0  0  0  0  0  0  0  0
   -5.4100   23.1970  -29.3870 C   0  0  0  0  0  0  0  0  0  0  0  0
   -5.2980   24.2680  -30.2870 C   0  0  0  0  0  0  0  0  0  0  0  0
   -6.3910   24.5500  -31.2850 C   0  0  0  0  0  0  0  0  0  0  0  0
   -6.4070   23.5300  -32.3360 N   0  0  0  0  0  0  0  0  0  0  0  0
   -7.0760   22.2580  -32.2280 C   0  0  0  0  0  0  0  0  0  0  0  0
   -8.3460   22.1330  -31.6280 C   0  0  0  0  0  0  0  0  0  0  0  0
   -8.9680   20.8820  -31.5460 C   0  0  0  0  0  0  0  0  0  0  0  0
   -8.3310   19.7460  -32.0530 C   0  0  0  0  0  0  0  0  0  0  0  0
   -9.1140   18.1800  -31.9480 Cl  0  0  0  0  0  0  0  0  0  0  0  0
   -7.0700   19.8600  -32.6420 C   0  0  0  0  0  0  0  0  0  0  0  0
   -6.4440   21.1080  -32.7280 C   0  0  0  0  0  0  0  0  0  0  0  0
   -4.1410   25.0630  -30.2660 C   0  0  0  0  0  0  0  0  0  0  0  0
   -3.1210   24.8040  -29.3450 C   0  0  0  0  0  0  0  0  0  0  0  0
   -1.9860   25.6070  -29.3360 O   0  0  0  0  0  0  0  0  0  0  0  0
   -0.2638   22.9910  -26.9934 H   0  0  0  0  0  0  0  0  0  0  0  0
   -0.8923   22.2320  -28.4952 H   0  0  0  0  0  0  0  0  0  0  0  0
   -0.4177   23.9644  -28.4952 H   0  0  0  0  0  0  0  0  0  0  0  0
   -4.4935   22.1010  -27.7595 H   0  0  0  0  0  0  0  0  0  0  0  0
   -6.3048   22.5576  -29.4069 H   0  0  0  0  0  0  0  0  0  0  0  0
   -7.3616   24.5505  -30.7673 H   0  0  0  0  0  0  0  0  0  0  0  0
   -6.2046   25.5310  -31.7465 H   0  0  0  0  0  0  0  0  0  0  0  0
   -5.9340   23.7690  -33.2370 H   0  0  0  0  0  0  0  0  0  0  0  0
   -8.8500   23.0227  -31.2226 H   0  0  0  0  0  0  0  0  0  0  0  0
   -9.9610   20.7926  -31.0812 H   0  0  0  0  0  0  0  0  0  0  0  0
   -6.5675   18.9658  -33.0395 H   0  0  0  0  0  0  0  0  0  0  0  0
   -5.4494   21.1891  -33.1907 H   0  0  0  0  0  0  0  0  0  0  0  0
   -4.0362   25.8946  -30.9783 H   0  0  0  0  0  0  0  0  0  0  0  0
  1  2  1  0
  2  3  1  0
  3  4  2  0
  4  5  1  0
  5  6  2  0
  6  7  1  0
  7  8  1  0
  8  9  1  0
  9 10  2  0
 10 11  1  0
 11 12  2  0
 12 13  1  0
 12 14  1  0
 14 15  2  0
  6 16  1  0
 16 17  2  0
 17 18  1  0
 17  3  1  0
 15  9  1  0
  1 19  1  0
  1 20  1  0
  1 21  1  0
  4 22  1  0
  5 23  1  0
  7 24  1  0
  7 25  1  0
  8 26  1  0
 10 27  1  0
 11 28  1  0
 14 29  1  0
 15 30  1  0
 16 31  1  0
M  CHG  1  18  -1
M  END
>  <UniqueID>  (47) 
45

>  <SMILES>  (47) 
COc1ccc(CNc2ccc(Cl)cc2)cc1[O-]

>  <Energy>  (47) 
30.22235180717702

>  <Genealogy>  (47) 
COc1ccc(CNc2ccc(Cl)cc2)cc1[O-] (protonated)
COc1ccc(CNc2ccc(Cl)cc2)cc1[O-] (3D coordinates assigned)
COc1ccc(CNc2ccc(Cl)cc2)cc1[O-] (optimized conformer: 30.22235180717702 kcal/mol)

>  <smiles>  (47) 
COc1ccc(CNc2ccc(Cl)cc2)cc1O

>  <score_type>  (47) 
oracle

>  <origin>  (47) 
adgpu

>  <m_score__min__energy>  (47) 
-10.279999999999999

>  <m_primary>  (47) 
energy

$$$$
47:0
     RDKit          3D

 35 37  0  0  0  0  0  0  0  0999 V2000
   -1.5730   25.7510  -28.9720 O   0  0  0  0  0  0  0  0  0  0  0  0
   -2.4450   24.9080  -29.3150 C   0  0  0  0  0  0  0  0  0  0  0  0
   -3.4880   25.2660  -30.2300 N   0  0  0  0  0  0  0  0  0  0  0  0
   -4.6550   24.4880  -30.5390 C   0  0  0  0  0  0  0  0  0  0  0  0
   -4.5730   23.2520  -31.2070 C   0  0  0  0  0  0  0  0  0  0  0  0
   -5.7320   22.5140  -31.4660 C   0  0  0  0  0  0  0  0  0  0  0  0
   -6.9830   22.9960  -31.0560 C   0  0  0  0  0  0  0  0  0  0  0  0
   -8.4480   22.0710  -31.3600 S   0  0  0  0  0  0  0  0  0  0  0  0
   -9.3310   22.7840  -32.3450 O   0  0  0  0  0  0  0  0  0  0  0  0
   -9.2070   21.9140  -30.0730 O   0  0  0  0  0  0  0  0  0  0  0  0
   -8.0070   20.4970  -32.0100 C   0  0  0  0  0  0  0  0  0  0  0  0
   -7.0690   20.4120  -33.0510 C   0  0  0  0  0  0  0  0  0  0  0  0
   -6.7000   19.1640  -33.5620 C   0  0  0  0  0  0  0  0  0  0  0  0
   -7.2630   17.9960  -33.0360 C   0  0  0  0  0  0  0  0  0  0  0  0
   -8.1940   18.0750  -31.9950 C   0  0  0  0  0  0  0  0  0  0  0  0
   -8.5650   19.3210  -31.4790 C   0  0  0  0  0  0  0  0  0  0  0  0
   -7.0630   24.2140  -30.3700 C   0  0  0  0  0  0  0  0  0  0  0  0
   -5.9040   24.9510  -30.1060 C   0  0  0  0  0  0  0  0  0  0  0  0
   -2.4270   23.5630  -28.7260 C   0  0  0  0  0  0  0  0  0  0  0  0
   -3.3220   23.0350  -27.8150 C   0  0  0  0  0  0  0  0  0  0  0  0
   -2.9610   21.7700  -27.5270 N   0  0  0  0  0  0  0  0  0  0  0  0
   -1.8700   21.4900  -28.2260 N   0  0  0  0  0  0  0  0  0  0  0  0
   -1.5180   22.5550  -28.9670 C   0  0  0  0  0  0  0  0  0  0  0  0
   -3.5940   22.8653  -31.5264 H   0  0  0  0  0  0  0  0  0  0  0  0
   -5.6620   21.5513  -31.9936 H   0  0  0  0  0  0  0  0  0  0  0  0
   -6.6237   21.3286  -33.4652 H   0  0  0  0  0  0  0  0  0  0  0  0
   -5.9660   19.1002  -34.3788 H   0  0  0  0  0  0  0  0  0  0  0  0
   -6.9734   17.0153  -33.4413 H   0  0  0  0  0  0  0  0  0  0  0  0
   -8.6350   17.1560  -31.5816 H   0  0  0  0  0  0  0  0  0  0  0  0
   -9.2938   19.3807  -30.6572 H   0  0  0  0  0  0  0  0  0  0  0  0
   -8.0408   24.5926  -30.0375 H   0  0  0  0  0  0  0  0  0  0  0  0
   -5.9738   25.9004  -29.5548 H   0  0  0  0  0  0  0  0  0  0  0  0
   -4.1898   23.5631  -27.3930 H   0  0  0  0  0  0  0  0  0  0  0  0
   -1.3740   20.5730  -28.1970 H   0  0  0  0  0  0  0  0  0  0  0  0
   -0.6552   22.6122  -29.6470 H   0  0  0  0  0  0  0  0  0  0  0  0
  1  2  2  0
  2  3  1  0
  3  4  1  0
  4  5  2  0
  5  6  1  0
  6  7  2  0
  7  8  1  0
  8  9  2  0
  8 10  2  0
  8 11  1  0
 11 12  2  0
 12 13  1  0
 13 14  2  0
 14 15  1  0
 15 16  2  0
  7 17  1  0
 17 18  2  0
  2 19  1  0
 19 20  1  0
 20 21  2  0
 21 22  1  0
 22 23  1  0
 18  4  1  0
 23 19  2  0
 16 11  1  0
  5 24  1  0
  6 25  1  0
 12 26  1  0
 13 27  1  0
 14 28  1  0
 15 29  1  0
 16 30  1  0
 17 31  1  0
 18 32  1  0
 20 33  1  0
 22 34  1  0
 23 35  1  0
M  CHG  1   3  -1
M  END
>  <UniqueID>  (48) 
46

>  <SMILES>  (48) 
O=C([N-]c1ccc(S(=O)(=O)c2ccccc2)cc1)c1cn[nH]c1

>  <Energy>  (48) 
72.2145439609299

>  <Genealogy>  (48) 
O=C([N-]c1ccc(S(=O)(=O)c2ccccc2)cc1)c1cn[nH]c1 (protonated)
O=C([N-]c1ccc(S(=O)(=O)c2ccccc2)cc1)c1cn[nH]c1 (3D coordinates assigned)
O=C([N-]c1ccc(S(=O)(=O)c2ccccc2)cc1)c1cn[nH]c1 (optimized conformer: 72.2145439609299 kcal/mol)

>  <smiles>  (48) 
O=C(Nc1ccc(S(=O)(=O)c2ccccc2)cc1)c1cn[nH]c1

>  <score_type>  (48) 
oracle

>  <origin>  (48) 
adgpu

>  <m_score__min__energy>  (48) 
-10.529999999999999

>  <m_primary>  (48) 
energy

$$$$
48:0
     RDKit          3D

 45 46  0  0  0  0  0  0  0  0999 V2000
   -6.8410   17.3070  -33.6610 C   0  0  0  0  0  0  0  0  0  0  0  0
   -6.3550   18.5070  -32.9170 C   0  0  0  0  0  0  0  0  0  0  0  0
   -5.5170   18.3540  -31.9900 O   0  0  0  0  0  0  0  0  0  0  0  0
   -6.7710   19.8210  -33.3200 N   0  0  0  0  0  0  0  0  0  0  0  0
   -6.3820   21.0300  -32.6460 C   0  0  0  0  0  0  0  0  0  0  0  0
   -5.0350   21.4160  -32.6530 C   0  0  0  0  0  0  0  0  0  0  0  0
   -4.6240   22.5670  -31.9750 C   0  0  0  0  0  0  0  0  0  0  0  0
   -5.5610   23.3550  -31.2950 C   0  0  0  0  0  0  0  0  0  0  0  0
   -5.0430   24.7110  -30.2980 S   0  0  0  0  0  0  0  0  0  0  0  0
   -5.7010   25.9850  -30.7470 O   0  0  0  0  0  0  0  0  0  0  0  0
   -5.4150   24.4380  -28.8700 O   0  0  0  0  0  0  0  0  0  0  0  0
   -3.3200   24.8920  -30.4170 N   0  0  0  0  0  0  0  0  0  0  0  0
   -2.3710   24.2770  -29.5340 C   0  0  0  0  0  0  0  0  0  0  0  0
   -2.4590   22.9160  -29.1890 C   0  0  0  0  0  0  0  0  0  0  0  0
   -1.5760   22.3400  -28.2460 C   0  0  0  0  0  0  0  0  0  0  0  0
   -1.7060   20.8770  -27.7720 C   0  0  0  0  0  0  0  0  0  0  0  0
   -1.3440   20.8000  -26.2750 C   0  0  0  0  0  0  0  0  0  0  0  0
   -0.7460   19.9760  -28.5820 C   0  0  0  0  0  0  0  0  0  0  0  0
   -3.1330   20.3030  -27.9430 C   0  0  0  0  0  0  0  0  0  0  0  0
   -0.5850   23.1730  -27.6840 C   0  0  0  0  0  0  0  0  0  0  0  0
   -0.4660   24.5100  -28.0650 C   0  0  0  0  0  0  0  0  0  0  0  0
   -1.3550   25.0630  -28.9830 C   0  0  0  0  0  0  0  0  0  0  0  0
   -1.2380   26.4040  -29.3300 O   0  0  0  0  0  0  0  0  0  0  0  0
   -6.9150   23.0030  -31.3320 C   0  0  0  0  0  0  0  0  0  0  0  0
   -7.3260   21.8510  -32.0080 C   0  0  0  0  0  0  0  0  0  0  0  0
   -7.1543   16.5334  -32.9445 H   0  0  0  0  0  0  0  0  0  0  0  0
   -7.6958   17.5890  -34.2933 H   0  0  0  0  0  0  0  0  0  0  0  0
   -6.0309   16.9147  -34.2933 H   0  0  0  0  0  0  0  0  0  0  0  0
   -7.3030   19.9130  -34.2150 H   0  0  0  0  0  0  0  0  0  0  0  0
   -4.2958   20.8088  -33.1960 H   0  0  0  0  0  0  0  0  0  0  0  0
   -3.5623   22.8546  -31.9755 H   0  0  0  0  0  0  0  0  0  0  0  0
   -3.2288   22.2881  -29.6614 H   0  0  0  0  0  0  0  0  0  0  0  0
   -2.2427   20.9912  -25.6702 H   0  0  0  0  0  0  0  0  0  0  0  0
   -0.9524   19.7985  -26.0435 H   0  0  0  0  0  0  0  0  0  0  0  0
   -0.5787   21.5554  -26.0435 H   0  0  0  0  0  0  0  0  0  0  0  0
   -0.1220   19.3904  -27.8908 H   0  0  0  0  0  0  0  0  0  0  0  0
   -1.3311   19.2933  -29.2158 H   0  0  0  0  0  0  0  0  0  0  0  0
   -0.1018   20.6031  -29.2158 H   0  0  0  0  0  0  0  0  0  0  0  0
   -3.5774   20.1242  -26.9528 H   0  0  0  0  0  0  0  0  0  0  0  0
   -3.7531   21.0216  -28.4989 H   0  0  0  0  0  0  0  0  0  0  0  0
   -3.0828   19.3551  -28.4989 H   0  0  0  0  0  0  0  0  0  0  0  0
    0.1052   22.7613  -26.9329 H   0  0  0  0  0  0  0  0  0  0  0  0
    0.3350   25.1310  -27.6375 H   0  0  0  0  0  0  0  0  0  0  0  0
   -7.6592   23.6361  -30.8266 H   0  0  0  0  0  0  0  0  0  0  0  0
   -8.3932   21.5863  -32.0405 H   0  0  0  0  0  0  0  0  0  0  0  0
  1  2  1  0
  2  3  2  0
  2  4  1  0
  4  5  1  0
  5  6  2  0
  6  7  1  0
  7  8  2  0
  8  9  1  0
  9 10  2  0
  9 11  2  0
  9 12  1  0
 12 13  1  0
 13 14  2  0
 14 15  1  0
 15 16  1  0
 16 17  1  0
 16 18  1  0
 16 19  1  0
 15 20  2  0
 20 21  1  0
 21 22  2  0
 22 23  1  0
  8 24  1  0
 24 25  2  0
 25  5  1  0
 22 13  1  0
  1 26  1  0
  1 27  1  0
  1 28  1  0
  4 29  1  0
  6 30  1  0
  7 31  1  0
 14 32  1  0
 17 33  1  0
 17 34  1  0
 17 35  1  0
 18 36  1  0
 18 37  1  0
 18 38  1  0
 19 39  1  0
 19 40  1  0
 19 41  1  0
 20 42  1  0
 21 43  1  0
 24 44  1  0
 25 45  1  0
M  CHG  2  12  -1  23  -1
M  END
>  <UniqueID>  (49) 
47

>  <SMILES>  (49) 
CC(=O)Nc1ccc(S(=O)(=O)[N-]c2cc(C(C)(C)C)ccc2[O-])cc1

>  <Energy>  (49) 
50.18942881292831

>  <Genealogy>  (49) 
CC(=O)Nc1ccc(S(=O)(=O)[N-]c2cc(C(C)(C)C)ccc2[O-])cc1 (protonated)
CC(=O)Nc1ccc(S(=O)(=O)[N-]c2cc(C(C)(C)C)ccc2[O-])cc1 (3D coordinates assigned)
CC(=O)Nc1ccc(S(=O)(=O)[N-]c2cc(C(C)(C)C)ccc2[O-])cc1 (optimized conformer: 50.18942881292831 kcal/mol)

>  <smiles>  (49) 
CC(=O)Nc1ccc(S(=O)(=O)Nc2cc(C(C)(C)C)ccc2O)cc1

>  <score_type>  (49) 
oracle

>  <origin>  (49) 
adgpu

>  <m_score__min__energy>  (49) 
-13.449999999999999

>  <m_primary>  (49) 
energy

$$$$
49:0
     RDKit          3D

 59 62  0  0  0  0  0  0  0  0999 V2000
   -5.8470   26.0950  -30.1160 O   0  0  0  0  0  0  0  0  0  0  0  0
   -5.1210   25.1300  -30.4770 C   0  0  0  0  0  0  0  0  0  0  0  0
   -3.6950   25.2990  -30.4420 N   0  0  0  0  0  0  0  0  0  0  0  0
   -2.7500   24.5420  -29.6710 C   0  0  0  0  0  0  0  0  0  0  0  0
   -2.0420   25.1870  -28.6490 C   0  0  0  0  0  0  0  0  0  0  0  0
   -1.1110   24.4840  -27.8810 C   0  0  0  0  0  0  0  0  0  0  0  0
   -0.8810   23.1270  -28.1260 C   0  0  0  0  0  0  0  0  0  0  0  0
   -1.5660   22.4750  -29.1590 C   0  0  0  0  0  0  0  0  0  0  0  0
   -1.3370   20.7490  -29.4440 S   0  0  0  0  0  0  0  0  0  0  0  0
    0.0550   20.3530  -29.0320 O   0  0  0  0  0  0  0  0  0  0  0  0
   -2.3100   19.9920  -28.5830 O   0  0  0  0  0  0  0  0  0  0  0  0
   -1.5940   20.3220  -31.1180 N   0  0  0  0  0  0  0  0  0  0  0  0
   -0.7870   21.1950  -32.0050 C   0  0  0  0  0  0  0  0  0  0  0  0
   -1.2650   21.1700  -33.4770 C   0  0  0  0  0  0  0  0  0  0  0  0
   -2.0890   19.9170  -33.7880 C   0  0  0  0  0  0  0  0  0  0  0  0
   -3.3020   19.7970  -32.8480 C   0  0  0  0  0  0  0  0  0  0  0  0
   -3.0300   20.3900  -31.4500 C   0  0  0  0  0  0  0  0  0  0  0  0
   -2.4770   23.1910  -29.9460 C   0  0  0  0  0  0  0  0  0  0  0  0
   -5.7620   23.8570  -30.8830 C   0  0  0  0  0  0  0  0  0  0  0  0
   -5.2610   23.1000  -31.9570 C   0  0  0  0  0  0  0  0  0  0  0  0
   -5.8940   21.9150  -32.3440 C   0  0  0  0  0  0  0  0  0  0  0  0
   -7.0310   21.4630  -31.6580 C   0  0  0  0  0  0  0  0  0  0  0  0
   -7.8090   19.9430  -32.1170 S   0  0  0  0  0  0  0  0  0  0  0  0
   -8.5260   19.3830  -30.9220 O   0  0  0  0  0  0  0  0  0  0  0  0
   -8.8330   20.2230  -33.1810 O   0  0  0  0  0  0  0  0  0  0  0  0
   -6.6850   18.7500  -32.7210 N   0  0  0  0  0  0  0  0  0  0  0  0
   -7.2760   17.4140  -32.8060 C   0  0  0  0  0  0  0  0  0  0  0  0
   -6.4700   16.6610  -33.8560 C   0  0  0  0  0  0  0  0  0  0  0  0
   -5.7500   17.7380  -34.6600 C   0  0  0  0  0  0  0  0  0  0  0  0
   -6.2330   19.0560  -34.0760 C   0  0  0  0  0  0  0  0  0  0  0  0
   -7.5180   22.2030  -30.5720 C   0  0  0  0  0  0  0  0  0  0  0  0
   -6.8880   23.3880  -30.1860 C   0  0  0  0  0  0  0  0  0  0  0  0
   -2.2203   26.2540  -28.4499 H   0  0  0  0  0  0  0  0  0  0  0  0
   -0.5577   24.9991  -27.0819 H   0  0  0  0  0  0  0  0  0  0  0  0
   -0.1615   22.5710  -27.5070 H   0  0  0  0  0  0  0  0  0  0  0  0
   -1.2680   19.3320  -31.2230 H   0  0  0  0  0  0  0  0  0  0  0  0
   -0.8518   22.2282  -31.6330 H   0  0  0  0  0  0  0  0  0  0  0  0
    0.2456   20.8161  -31.9882 H   0  0  0  0  0  0  0  0  0  0  0  0
   -1.8848   22.0591  -33.6649 H   0  0  0  0  0  0  0  0  0  0  0  0
   -0.3757   21.1629  -34.1244 H   0  0  0  0  0  0  0  0  0  0  0  0
   -2.4452   19.9714  -34.8273 H   0  0  0  0  0  0  0  0  0  0  0  0
   -1.4481   19.0351  -33.6416 H   0  0  0  0  0  0  0  0  0  0  0  0
   -4.1511   20.3319  -33.2985 H   0  0  0  0  0  0  0  0  0  0  0  0
   -3.5192   18.7264  -32.7193 H   0  0  0  0  0  0  0  0  0  0  0  0
   -3.3532   21.4413  -31.4359 H   0  0  0  0  0  0  0  0  0  0  0  0
   -3.5902   19.8050  -30.7057 H   0  0  0  0  0  0  0  0  0  0  0  0
   -2.9827   22.6920  -30.7858 H   0  0  0  0  0  0  0  0  0  0  0  0
   -4.3654   23.4424  -32.4961 H   0  0  0  0  0  0  0  0  0  0  0  0
   -5.4985   21.3344  -33.1904 H   0  0  0  0  0  0  0  0  0  0  0  0
   -7.2074   16.9038  -31.8339 H   0  0  0  0  0  0  0  0  0  0  0  0
   -8.3412   17.4625  -33.0760 H   0  0  0  0  0  0  0  0  0  0  0  0
   -5.7438   15.9890  -33.3753 H   0  0  0  0  0  0  0  0  0  0  0  0
   -7.1112   16.0339  -34.4929 H   0  0  0  0  0  0  0  0  0  0  0  0
   -4.6602   17.6413  -34.5463 H   0  0  0  0  0  0  0  0  0  0  0  0
   -5.9630   17.6610  -35.7364 H   0  0  0  0  0  0  0  0  0  0  0  0
   -5.4115   19.7871  -34.0497 H   0  0  0  0  0  0  0  0  0  0  0  0
   -7.0391   19.4956  -34.6817 H   0  0  0  0  0  0  0  0  0  0  0  0
   -8.4013   21.8484  -30.0206 H   0  0  0  0  0  0  0  0  0  0  0  0
   -7.2764   23.9586  -29.3296 H   0  0  0  0  0  0  0  0  0  0  0  0
  1  2  2  0
  2  3  1  0
  3  4  1  0
  4  5  2  0
  5  6  1  0
  6  7  2  0
  7  8  1  0
  8  9  1  0
  9 10  2  0
  9 11  2  0
  9 12  1  0
 12 13  1  0
 13 14  1  0
 14 15  1  0
 15 16  1  0
 16 17  1  0
  8 18  2  0
  2 19  1  0
 19 20  2  0
 20 21  1  0
 21 22  2  0
 22 23  1  0
 23 24  2  0
 23 25  2  0
 23 26  1  0
 26 27  1  0
 27 28  1  0
 28 29  1  0
 29 30  1  0
 22 31  1  0
 31 32  2  0
 18  4  1  0
 32 19  1  0
 17 12  1  0
 30 26  1  0
  5 33  1  0
  6 34  1  0
  7 35  1  0
 12 36  1  0
 13 37  1  0
 13 38  1  0
 14 39  1  0
 14 40  1  0
 15 41  1  0
 15 42  1  0
 16 43  1  0
 16 44  1  0
 17 45  1  0
 17 46  1  0
 18 47  1  0
 20 48  1  0
 21 49  1  0
 27 50  1  0
 27 51  1  0
 28 52  1  0
 28 53  1  0
 29 54  1  0
 29 55  1  0
 30 56  1  0
 30 57  1  0
 31 58  1  0
 32 59  1  0
M  CHG  2   3  -1  12   1
M  END
>  <UniqueID>  (50) 
48

>  <SMILES>  (50) 
O=C([N-]c1cccc(S(=O)(=O)[NH+]2CCCCC2)c1)c1ccc(S(=O)(=O)N2CCCC2)cc1

>  <Energy>  (50) 
69.26455566406054

>  <Genealogy>  (50) 
O=C([N-]c1cccc(S(=O)(=O)[NH+]2CCCCC2)c1)c1ccc(S(=O)(=O)N2CCCC2)cc1 (protonated)
O=C([N-]c1cccc(S(=O)(=O)[NH+]2CCCCC2)c1)c1ccc(S(=O)(=O)N2CCCC2)cc1 (3D coordinates assigned)
O=C([N-]c1cccc(S(=O)(=O)[NH+]2CCCCC2)c1)c1ccc(S(=O)(=O)N2CCCC2)cc1 (nonaromatic ring conformer: 69.26455566406054 kcal/mol)

>  <smiles>  (50) 
O=C(Nc1cccc(S(=O)(=O)N2CCCCC2)c1)c1ccc(S(=O)(=O)N2CCCC2)cc1

>  <score_type>  (50) 
oracle

>  <origin>  (50) 
adgpu

>  <m_score__min__energy>  (50) 
-13.029999999999999

>  <m_primary>  (50) 
energy

$$$$
