0:0
     RDKit          3D

 27 28  0  0  0  0  0  0  0  0999 V2000
   -3.9140   24.5600  -27.2170 N   0  0  0  0  0  0  0  0  0  0  0  0
   -4.1860   23.9780  -28.4950 C   0  0  0  0  0  0  0  0  0  0  0  0
   -3.8680   22.6440  -28.7400 C   0  0  0  0  0  0  0  0  0  0  0  0
   -4.1440   22.1050  -29.9960 C   0  0  0  0  0  0  0  0  0  0  0  0
   -3.8530   20.8970  -30.2140 O   0  0  0  0  0  0  0  0  0  0  0  0
   -4.7230   22.8780  -30.9730 N   0  0  0  0  0  0  0  0  0  0  0  0
   -4.9820   22.3150  -32.3130 C   0  0  0  0  0  0  0  0  0  0  0  0
   -6.3200   21.6220  -32.3450 C   0  0  0  0  0  0  0  0  0  0  0  0
   -7.4760   22.2890  -31.9060 C   0  0  0  0  0  0  0  0  0  0  0  0
   -8.7120   21.6340  -31.9050 C   0  0  0  0  0  0  0  0  0  0  0  0
   -8.8020   20.3090  -32.3390 C   0  0  0  0  0  0  0  0  0  0  0  0
   -7.6570   19.6370  -32.7750 C   0  0  0  0  0  0  0  0  0  0  0  0
   -6.4200   20.2880  -32.7760 C   0  0  0  0  0  0  0  0  0  0  0  0
   -5.0210   24.1930  -30.7030 C   0  0  0  0  0  0  0  0  0  0  0  0
   -5.5480   24.9250  -31.5850 O   0  0  0  0  0  0  0  0  0  0  0  0
   -4.7540   24.7230  -29.4790 N   0  0  0  0  0  0  0  0  0  0  0  0
   -3.4080   24.0160  -26.4830 H   0  0  0  0  0  0  0  0  0  0  0  0
   -4.2170   25.5350  -26.9960 H   0  0  0  0  0  0  0  0  0  0  0  0
   -3.4068   22.0261  -27.9555 H   0  0  0  0  0  0  0  0  0  0  0  0
   -4.9775   23.1278  -33.0542 H   0  0  0  0  0  0  0  0  0  0  0  0
   -4.1962   21.5823  -32.5489 H   0  0  0  0  0  0  0  0  0  0  0  0
   -7.4088   23.3315  -31.5614 H   0  0  0  0  0  0  0  0  0  0  0  0
   -9.6138   22.1625  -31.5623 H   0  0  0  0  0  0  0  0  0  0  0  0
   -9.7744   19.7947  -32.3375 H   0  0  0  0  0  0  0  0  0  0  0  0
   -7.7292   18.5943  -33.1179 H   0  0  0  0  0  0  0  0  0  0  0  0
   -5.5205   19.7537  -33.1157 H   0  0  0  0  0  0  0  0  0  0  0  0
   -4.9910   25.7260  -29.2930 H   0  0  0  0  0  0  0  0  0  0  0  0
  1  2  1  0
  2  3  2  0
  3  4  1  0
  4  5  2  0
  4  6  1  0
  6  7  1  0
  7  8  1  0
  8  9  2  0
  9 10  1  0
 10 11  2  0
 11 12  1  0
 12 13  2  0
  6 14  1  0
 14 15  2  0
 14 16  1  0
 16  2  1  0
 13  8  1  0
  1 17  1  0
  1 18  1  0
  3 19  1  0
  7 20  1  0
  7 21  1  0
  9 22  1  0
 10 23  1  0
 11 24  1  0
 12 25  1  0
 13 26  1  0
 16 27  1  0
M  END
>  <UniqueID>  (1) 
1

>  <SMILES>  (1) 
Nc1cc(=O)n(Cc2ccccc2)c(=O)[nH]1

>  <Energy>  (1) 
30.064560603202867

>  <Genealogy>  (1) 
Nc1cc(=O)n(Cc2ccccc2)c(=O)[nH]1 (3D coordinates assigned)
Nc1cc(=O)n(Cc2ccccc2)c(=O)[nH]1 (optimized conformer: 30.064560603202867 kcal/mol)

>  <smiles>  (1) 
Nc1cc(=O)n(Cc2ccccc2)c(=O)[nH]1

>  <score_type>  (1) 
oracle

>  <origin>  (1) 
adgpu

>  <m_score__min__energy>  (1) 
-6.2699999999999996

>  <m_primary>  (1) 
energy

$$$$
1:0
     RDKit          3D

 62 66  0  0  0  0  0  0  0  0999 V2000
    0.6780   21.7690  -28.0810 O   0  0  0  0  0  0  0  0  0  0  0  0
   -0.1390   21.9620  -29.0210 C   0  0  0  0  0  0  0  0  0  0  0  0
   -0.7220   23.2680  -29.1480 N   0  0  0  0  0  0  0  0  0  0  0  0
   -1.9980   23.7270  -28.6730 C   0  0  0  0  0  0  0  0  0  0  0  0
   -3.0760   23.6910  -29.5650 C   0  0  0  0  0  0  0  0  0  0  0  0
   -4.3480   24.0970  -29.1610 C   0  0  0  0  0  0  0  0  0  0  0  0
   -5.8010   24.0280  -30.3890 Br  0  0  0  0  0  0  0  0  0  0  0  0
   -4.5530   24.5570  -27.8610 C   0  0  0  0  0  0  0  0  0  0  0  0
   -3.4840   24.6330  -26.9700 C   0  0  0  0  0  0  0  0  0  0  0  0
   -2.1920   24.2440  -27.3670 C   0  0  0  0  0  0  0  0  0  0  0  0
   -1.0790   24.4770  -26.4790 N   0  0  0  0  0  0  0  0  0  0  0  0
   -0.8000   25.8310  -25.9860 C   0  0  0  0  0  0  0  0  0  0  0  0
   -1.0530   25.8800  -24.4750 C   0  0  0  0  0  0  0  0  0  0  0  0
   -0.2990   24.8210  -23.7800 N   0  0  0  0  0  0  0  0  0  0  0  0
   -0.6750   23.4850  -24.2730 C   0  0  0  0  0  0  0  0  0  0  0  0
   -0.4180   23.3670  -25.7820 C   0  0  0  0  0  0  0  0  0  0  0  0
   -0.4070   20.8570  -29.9780 C   0  0  0  0  0  0  0  0  0  0  0  0
    0.2030   19.6050  -29.7840 C   0  0  0  0  0  0  0  0  0  0  0  0
   -0.0040   18.5680  -30.6920 C   0  0  0  0  0  0  0  0  0  0  0  0
   -0.8230   18.7620  -31.8060 C   0  0  0  0  0  0  0  0  0  0  0  0
   -1.4640   19.9940  -32.0110 C   0  0  0  0  0  0  0  0  0  0  0  0
   -2.5060   20.3080  -33.4170 S   0  0  0  0  0  0  0  0  0  0  0  0
   -2.5400   21.7940  -33.6300 O   0  0  0  0  0  0  0  0  0  0  0  0
   -1.8650   19.6780  -34.6220 O   0  0  0  0  0  0  0  0  0  0  0  0
   -4.1720   19.7780  -33.2930 N   0  0  0  0  0  0  0  0  0  0  0  0
   -4.3000   18.4290  -32.7240 C   0  0  0  0  0  0  0  0  0  0  0  0
   -5.7110   17.9080  -32.9900 C   0  0  0  0  0  0  0  0  0  0  0  0
   -6.7510   18.9080  -32.5600 C   0  0  0  0  0  0  0  0  0  0  0  0
   -8.0720   18.4840  -32.3670 C   0  0  0  0  0  0  0  0  0  0  0  0
   -9.0610   19.4010  -32.0040 C   0  0  0  0  0  0  0  0  0  0  0  0
   -8.7420   20.7460  -31.8300 C   0  0  0  0  0  0  0  0  0  0  0  0
   -7.4350   21.1850  -32.0390 C   0  0  0  0  0  0  0  0  0  0  0  0
   -6.4320   20.2770  -32.4180 C   0  0  0  0  0  0  0  0  0  0  0  0
   -5.0110   20.7710  -32.5950 C   0  0  0  0  0  0  0  0  0  0  0  0
   -1.2220   21.0440  -31.1100 C   0  0  0  0  0  0  0  0  0  0  0  0
   -2.9186   23.3389  -30.5952 H   0  0  0  0  0  0  0  0  0  0  0  0
   -5.5598   24.8604  -27.5381 H   0  0  0  0  0  0  0  0  0  0  0  0
   -3.6523   25.0006  -25.9470 H   0  0  0  0  0  0  0  0  0  0  0  0
    0.2495   26.0883  -26.1917 H   0  0  0  0  0  0  0  0  0  0  0  0
   -1.4575   26.5518  -26.4941 H   0  0  0  0  0  0  0  0  0  0  0  0
   -0.7365   26.8601  -24.0886 H   0  0  0  0  0  0  0  0  0  0  0  0
   -2.1266   25.7235  -24.2935 H   0  0  0  0  0  0  0  0  0  0  0  0
   -0.5010   24.8730  -22.7510 H   0  0  0  0  0  0  0  0  0  0  0  0
    0.7300   24.9740  -23.9190 H   0  0  0  0  0  0  0  0  0  0  0  0
   -0.0794   22.7254  -23.7455 H   0  0  0  0  0  0  0  0  0  0  0  0
   -1.7477   23.3296  -24.0854 H   0  0  0  0  0  0  0  0  0  0  0  0
    0.6644   23.4062  -25.9738 H   0  0  0  0  0  0  0  0  0  0  0  0
   -0.8210   22.4115  -26.1491 H   0  0  0  0  0  0  0  0  0  0  0  0
    0.8488   19.4427  -28.9085 H   0  0  0  0  0  0  0  0  0  0  0  0
    0.4796   17.5933  -30.5304 H   0  0  0  0  0  0  0  0  0  0  0  0
   -0.9669   17.9443  -32.5276 H   0  0  0  0  0  0  0  0  0  0  0  0
   -3.5650   17.7593  -33.1943 H   0  0  0  0  0  0  0  0  0  0  0  0
   -4.1154   18.4641  -31.6402 H   0  0  0  0  0  0  0  0  0  0  0  0
   -5.8244   17.7130  -34.0666 H   0  0  0  0  0  0  0  0  0  0  0  0
   -5.8559   16.9841  -32.4109 H   0  0  0  0  0  0  0  0  0  0  0  0
   -8.3317   17.4237  -32.5020 H   0  0  0  0  0  0  0  0  0  0  0  0
  -10.0961   19.0599  -31.8549 H   0  0  0  0  0  0  0  0  0  0  0  0
   -9.5209   21.4615  -31.5278 H   0  0  0  0  0  0  0  0  0  0  0  0
   -7.1878   22.2486  -31.9063 H   0  0  0  0  0  0  0  0  0  0  0  0
   -5.0272   21.7006  -33.1829 H   0  0  0  0  0  0  0  0  0  0  0  0
   -4.5807   20.9435  -31.5975 H   0  0  0  0  0  0  0  0  0  0  0  0
   -1.6770   22.0288  -31.2922 H   0  0  0  0  0  0  0  0  0  0  0  0
  1  2  2  0
  2  3  1  0
  3  4  1  0
  4  5  2  0
  5  6  1  0
  6  7  1  0
  6  8  2  0
  8  9  1  0
  9 10  2  0
 10 11  1  0
 11 12  1  0
 12 13  1  0
 13 14  1  0
 14 15  1  0
 15 16  1  0
  2 17  1  0
 17 18  2  0
 18 19  1  0
 19 20  2  0
 20 21  1  0
 21 22  1  0
 22 23  2  0
 22 24  2  0
 22 25  1  0
 25 26  1  0
 26 27  1  0
 27 28  1  0
 28 29  2  0
 29 30  1  0
 30 31  2  0
 31 32  1  0
 32 33  2  0
 33 34  1  0
 21 35  2  0
 10  4  1  0
 16 11  1  0
 35 17  1  0
 34 25  1  0
 33 28  1  0
  5 36  1  0
  8 37  1  0
  9 38  1  0
 12 39  1  0
 12 40  1  0
 13 41  1  0
 13 42  1  0
 14 43  1  0
 14 44  1  0
 15 45  1  0
 15 46  1  0
 16 47  1  0
 16 48  1  0
 18 49  1  0
 19 50  1  0
 20 51  1  0
 26 52  1  0
 26 53  1  0
 27 54  1  0
 27 55  1  0
 29 56  1  0
 30 57  1  0
 31 58  1  0
 32 59  1  0
 34 60  1  0
 34 61  1  0
 35 62  1  0
M  CHG  2   3  -1  14   1
M  END
>  <UniqueID>  (2) 
2

>  <SMILES>  (2) 
O=C([N-]c1cc(Br)ccc1N1CC[NH2+]CC1)c1cccc(S(=O)(=O)N2CCc3ccccc3C2)c1

>  <Energy>  (2) 
82.55489069216026

>  <Genealogy>  (2) 
O=C([N-]c1cc(Br)ccc1N1CC[NH2+]CC1)c1cccc(S(=O)(=O)N2CCc3ccccc3C2)c1 (protonated)
O=C([N-]c1cc(Br)ccc1N1CC[NH2+]CC1)c1cccc(S(=O)(=O)N2CCc3ccccc3C2)c1 (3D coordinates assigned)
O=C([N-]c1cc(Br)ccc1N1CC[NH2+]CC1)c1cccc(S(=O)(=O)N2CCc3ccccc3C2)c1 (nonaromatic ring conformer: 82.55489069216026 kcal/mol)

>  <smiles>  (2) 
O=C(Nc1cc(Br)ccc1N1CCNCC1)c1cccc(S(=O)(=O)N2CCc3ccccc3C2)c1

>  <score_type>  (2) 
oracle

>  <origin>  (2) 
adgpu

>  <m_score__min__energy>  (2) 
-12.880000000000001

>  <m_primary>  (2) 
energy

$$$$
2:0
     RDKit          3D

 44 46  0  0  0  0  0  0  0  0999 V2000
   -7.6030   22.7910  -30.5880 C   0  0  0  0  0  0  0  0  0  0  0  0
   -8.2010   23.0560  -31.9600 C   0  0  0  0  0  0  0  0  0  0  0  0
   -9.0280   21.9590  -32.3380 O   0  0  0  0  0  0  0  0  0  0  0  0
   -8.6160   20.6190  -32.3410 C   0  0  0  0  0  0  0  0  0  0  0  0
   -9.4630   19.5680  -31.9420 C   0  0  0  0  0  0  0  0  0  0  0  0
   -9.0010   18.2490  -31.9570 C   0  0  0  0  0  0  0  0  0  0  0  0
   -7.7000   17.9650  -32.3780 C   0  0  0  0  0  0  0  0  0  0  0  0
   -6.8490   19.0000  -32.7960 C   0  0  0  0  0  0  0  0  0  0  0  0
   -5.4700   18.6930  -33.2400 C   0  0  0  0  0  0  0  0  0  0  0  0
   -5.1140   17.6020  -34.0090 C   0  0  0  0  0  0  0  0  0  0  0  0
   -3.7340   17.6630  -34.0720 C   0  0  0  0  0  0  0  0  0  0  0  0
   -2.8510   16.7300  -34.8350 C   0  0  0  0  0  0  0  0  0  0  0  0
   -1.6480   17.3510  -35.1260 F   0  0  0  0  0  0  0  0  0  0  0  0
   -3.4630   16.3590  -36.0180 F   0  0  0  0  0  0  0  0  0  0  0  0
   -2.6090   15.6020  -34.0740 F   0  0  0  0  0  0  0  0  0  0  0  0
   -3.2910   18.7480  -33.4050 N   0  0  0  0  0  0  0  0  0  0  0  0
   -4.3460   19.3690  -32.8990 N   0  0  0  0  0  0  0  0  0  0  0  0
   -4.2400   20.6120  -32.1840 C   0  0  0  0  0  0  0  0  0  0  0  0
   -4.7060   21.7980  -32.7710 C   0  0  0  0  0  0  0  0  0  0  0  0
   -4.6130   23.0110  -32.0830 C   0  0  0  0  0  0  0  0  0  0  0  0
   -4.0610   23.0520  -30.7950 C   0  0  0  0  0  0  0  0  0  0  0  0
   -3.9530   24.5760  -29.9220 S   0  0  0  0  0  0  0  0  0  0  0  0
   -4.7770   24.4380  -28.4090 N   0  0  0  0  0  0  0  0  0  0  0  0
   -4.5780   25.6750  -30.7340 O   0  0  0  0  0  0  0  0  0  0  0  0
   -2.5100   24.9200  -29.6770 O   0  0  0  0  0  0  0  0  0  0  0  0
   -3.6230   21.8640  -30.1940 C   0  0  0  0  0  0  0  0  0  0  0  0
   -3.7170   20.6510  -30.8800 C   0  0  0  0  0  0  0  0  0  0  0  0
   -7.3110   20.3270  -32.7570 C   0  0  0  0  0  0  0  0  0  0  0  0
   -8.3146   23.1063  -29.8107 H   0  0  0  0  0  0  0  0  0  0  0  0
   -7.3947   21.7163  -30.4802 H   0  0  0  0  0  0  0  0  0  0  0  0
   -6.6669   23.3586  -30.4802 H   0  0  0  0  0  0  0  0  0  0  0  0
   -8.8043   23.9751  -31.9256 H   0  0  0  0  0  0  0  0  0  0  0  0
   -7.3919   23.1755  -32.6956 H   0  0  0  0  0  0  0  0  0  0  0  0
  -10.4913   19.7853  -31.6175 H   0  0  0  0  0  0  0  0  0  0  0  0
   -9.6641   17.4321  -31.6362 H   0  0  0  0  0  0  0  0  0  0  0  0
   -7.3406   16.9254  -32.3820 H   0  0  0  0  0  0  0  0  0  0  0  0
   -5.7779   16.8542  -34.4673 H   0  0  0  0  0  0  0  0  0  0  0  0
   -5.1470   21.7731  -33.7784 H   0  0  0  0  0  0  0  0  0  0  0  0
   -4.9743   23.9371  -32.5540 H   0  0  0  0  0  0  0  0  0  0  0  0
   -4.8150   25.3960  -27.9940 H   0  0  0  0  0  0  0  0  0  0  0  0
   -5.7620   24.1640  -28.6210 H   0  0  0  0  0  0  0  0  0  0  0  0
   -3.2033   21.8870  -29.1775 H   0  0  0  0  0  0  0  0  0  0  0  0
   -3.3801   19.7217  -30.3974 H   0  0  0  0  0  0  0  0  0  0  0  0
   -6.6399   21.1454  -33.0566 H   0  0  0  0  0  0  0  0  0  0  0  0
  1  2  1  0
  2  3  1  0
  3  4  1  0
  4  5  2  0
  5  6  1  0
  6  7  2  0
  7  8  1  0
  8  9  1  0
  9 10  2  0
 10 11  1  0
 11 12  1  0
 12 13  1  0
 12 14  1  0
 12 15  1  0
 11 16  2  0
 16 17  1  0
 17 18  1  0
 18 19  2  0
 19 20  1  0
 20 21  2  0
 21 22  1  0
 22 23  1  0
 22 24  2  0
 22 25  2  0
 21 26  1  0
 26 27  2  0
  8 28  2  0
 28  4  1  0
 17  9  1  0
 27 18  1  0
  1 29  1  0
  1 30  1  0
  1 31  1  0
  2 32  1  0
  2 33  1  0
  5 34  1  0
  6 35  1  0
  7 36  1  0
 10 37  1  0
 19 38  1  0
 20 39  1  0
 23 40  1  0
 23 41  1  0
 26 42  1  0
 27 43  1  0
 28 44  1  0
M  END
>  <UniqueID>  (3) 
3

>  <SMILES>  (3) 
CCOc1cccc(-c2cc(C(F)(F)F)nn2-c2ccc(S(N)(=O)=O)cc2)c1

>  <Energy>  (3) 
78.86572424518096

>  <Genealogy>  (3) 
CCOc1cccc(-c2cc(C(F)(F)F)nn2-c2ccc(S(N)(=O)=O)cc2)c1 (3D coordinates assigned)
CCOc1cccc(-c2cc(C(F)(F)F)nn2-c2ccc(S(N)(=O)=O)cc2)c1 (optimized conformer: 78.86572424518096 kcal/mol)

>  <smiles>  (3) 
CCOc1cccc(-c2cc(C(F)(F)F)nn2-c2ccc(S(N)(=O)=O)cc2)c1

>  <score_type>  (3) 
oracle

>  <origin>  (3) 
adgpu

>  <m_score__min__energy>  (3) 
-9.1600000000000001

>  <m_primary>  (3) 
energy

$$$$
3:0
     RDKit          3D

 44 47  0  0  0  0  0  0  0  0999 V2000
   -1.9530   25.6720  -28.8150 O   0  0  0  0  0  0  0  0  0  0  0  0
   -2.6590   24.7890  -29.3680 C   0  0  0  0  0  0  0  0  0  0  0  0
   -3.5550   25.1750  -30.4210 N   0  0  0  0  0  0  0  0  0  0  0  0
   -4.9670   24.8110  -30.5110 C   0  0  0  0  0  0  0  0  0  0  0  0
   -5.1290   23.4320  -31.1040 C   0  0  0  0  0  0  0  0  0  0  0  0
   -4.0140   22.7590  -31.6180 C   0  0  0  0  0  0  0  0  0  0  0  0
   -4.1130   21.4880  -32.1070 N   0  0  0  0  0  0  0  0  0  0  0  0
   -2.8910   20.8470  -32.5200 C   0  0  0  0  0  0  0  0  0  0  0  0
   -2.2940   19.8690  -31.7080 C   0  0  0  0  0  0  0  0  0  0  0  0
   -1.1320   19.2170  -32.1320 C   0  0  0  0  0  0  0  0  0  0  0  0
   -0.5650   19.5310  -33.3700 C   0  0  0  0  0  0  0  0  0  0  0  0
   -1.1570   20.4980  -34.1870 C   0  0  0  0  0  0  0  0  0  0  0  0
   -2.3180   21.1530  -33.7650 C   0  0  0  0  0  0  0  0  0  0  0  0
   -5.3320   20.8460  -32.1560 C   0  0  0  0  0  0  0  0  0  0  0  0
   -5.4700   19.5560  -32.7200 C   0  0  0  0  0  0  0  0  0  0  0  0
   -6.7130   18.9190  -32.7510 C   0  0  0  0  0  0  0  0  0  0  0  0
   -6.8590   17.3160  -33.4520 Cl  0  0  0  0  0  0  0  0  0  0  0  0
   -7.8400   19.5540  -32.2310 C   0  0  0  0  0  0  0  0  0  0  0  0
   -7.7340   20.8330  -31.6860 C   0  0  0  0  0  0  0  0  0  0  0  0
   -6.4900   21.4930  -31.6480 C   0  0  0  0  0  0  0  0  0  0  0  0
   -6.3750   22.7900  -31.1160 C   0  0  0  0  0  0  0  0  0  0  0  0
   -7.3890   23.3820  -30.6510 O   0  0  0  0  0  0  0  0  0  0  0  0
   -2.5700   23.3980  -28.8890 C   0  0  0  0  0  0  0  0  0  0  0  0
   -3.5540   22.8880  -28.0240 C   0  0  0  0  0  0  0  0  0  0  0  0
   -4.5960   23.6650  -27.6300 F   0  0  0  0  0  0  0  0  0  0  0  0
   -3.4840   21.5620  -27.5850 C   0  0  0  0  0  0  0  0  0  0  0  0
   -2.4350   20.7390  -28.0020 C   0  0  0  0  0  0  0  0  0  0  0  0
   -1.4410   21.2450  -28.8450 C   0  0  0  0  0  0  0  0  0  0  0  0
   -1.5010   22.5730  -29.2830 C   0  0  0  0  0  0  0  0  0  0  0  0
   -0.5070   23.0570  -30.0710 F   0  0  0  0  0  0  0  0  0  0  0  0
   -5.4076   24.8241  -29.5032 H   0  0  0  0  0  0  0  0  0  0  0  0
   -5.4771   25.5365  -31.1617 H   0  0  0  0  0  0  0  0  0  0  0  0
   -3.0374   23.2650  -31.6281 H   0  0  0  0  0  0  0  0  0  0  0  0
   -2.7417   19.6152  -30.7358 H   0  0  0  0  0  0  0  0  0  0  0  0
   -0.6637   18.4561  -31.4904 H   0  0  0  0  0  0  0  0  0  0  0  0
    0.3487   19.0163  -33.7020 H   0  0  0  0  0  0  0  0  0  0  0  0
   -0.7098   20.7437  -35.1615 H   0  0  0  0  0  0  0  0  0  0  0  0
   -2.7845   21.9113  -34.4110 H   0  0  0  0  0  0  0  0  0  0  0  0
   -4.5885   19.0487  -33.1390 H   0  0  0  0  0  0  0  0  0  0  0  0
   -8.8149   19.0449  -32.2507 H   0  0  0  0  0  0  0  0  0  0  0  0
   -8.6284   21.3304  -31.2827 H   0  0  0  0  0  0  0  0  0  0  0  0
   -4.2568   21.1661  -26.9097 H   0  0  0  0  0  0  0  0  0  0  0  0
   -2.3910   19.6922  -27.6669 H   0  0  0  0  0  0  0  0  0  0  0  0
   -0.6105   20.5984  -29.1645 H   0  0  0  0  0  0  0  0  0  0  0  0
  1  2  2  0
  2  3  1  0
  3  4  1  0
  4  5  1  0
  5  6  2  0
  6  7  1  0
  7  8  1  0
  8  9  2  0
  9 10  1  0
 10 11  2  0
 11 12  1  0
 12 13  2  0
  7 14  1  0
 14 15  2  0
 15 16  1  0
 16 17  1  0
 16 18  2  0
 18 19  1  0
 19 20  2  0
 20 21  1  0
 21 22  2  0
  2 23  1  0
 23 24  2  0
 24 25  1  0
 24 26  1  0
 26 27  2  0
 27 28  1  0
 28 29  2  0
 29 30  1  0
 21  5  1  0
 29 23  1  0
 13  8  1  0
 20 14  1  0
  4 31  1  0
  4 32  1  0
  6 33  1  0
  9 34  1  0
 10 35  1  0
 11 36  1  0
 12 37  1  0
 13 38  1  0
 15 39  1  0
 18 40  1  0
 19 41  1  0
 26 42  1  0
 27 43  1  0
 28 44  1  0
M  CHG  1   3  -1
M  END
>  <UniqueID>  (4) 
4

>  <SMILES>  (4) 
O=C([N-]Cc1cn(-c2ccccc2)c2cc(Cl)ccc2c1=O)c1c(F)cccc1F

>  <Energy>  (4) 
65.93400665309545

>  <Genealogy>  (4) 
O=C([N-]Cc1cn(-c2ccccc2)c2cc(Cl)ccc2c1=O)c1c(F)cccc1F (protonated)
O=C([N-]Cc1cn(-c2ccccc2)c2cc(Cl)ccc2c1=O)c1c(F)cccc1F (3D coordinates assigned)
O=C([N-]Cc1cn(-c2ccccc2)c2cc(Cl)ccc2c1=O)c1c(F)cccc1F (optimized conformer: 65.93400665309545 kcal/mol)

>  <smiles>  (4) 
O=C(NCc1cn(-c2ccccc2)c2cc(Cl)ccc2c1=O)c1c(F)cccc1F

>  <score_type>  (4) 
oracle

>  <origin>  (4) 
adgpu

>  <m_score__min__energy>  (4) 
-10.98

>  <m_primary>  (4) 
energy

$$$$
4:0
     RDKit          3D

 23 23  0  0  0  0  0  0  0  0999 V2000
   -3.3514   24.4193  -26.7789 H   0  0  0  0  0  0  0  0  0  0  0  0
   -3.2960   24.4770  -27.8760 C   0  0  0  0  0  0  0  0  0  0  0  0
   -2.0760   24.9430  -28.4820 C   0  0  0  0  0  0  0  0  0  0  0  0
   -1.0940   25.3180  -28.9680 N   0  0  0  0  0  0  0  0  0  0  0  0
   -4.3630   24.1120  -28.5910 C   0  0  0  0  0  0  0  0  0  0  0  0
   -5.2589   23.7668  -28.0541 H   0  0  0  0  0  0  0  0  0  0  0  0
   -4.4070   24.1560  -30.3520 S   0  0  0  0  0  0  0  0  0  0  0  0
   -4.6130   25.5670  -30.8250 O   0  0  0  0  0  0  0  0  0  0  0  0
   -3.1130   23.6330  -30.9100 O   0  0  0  0  0  0  0  0  0  0  0  0
   -5.7370   23.1490  -30.9160 C   0  0  0  0  0  0  0  0  0  0  0  0
   -6.9440   23.1110  -30.2040 C   0  0  0  0  0  0  0  0  0  0  0  0
   -7.0570   23.7047  -29.2849 H   0  0  0  0  0  0  0  0  0  0  0  0
   -8.0050   22.3210  -30.6580 C   0  0  0  0  0  0  0  0  0  0  0  0
   -8.9441   22.2836  -30.0864 H   0  0  0  0  0  0  0  0  0  0  0  0
   -7.8760   21.5760  -31.8400 C   0  0  0  0  0  0  0  0  0  0  0  0
   -9.0000   20.6990  -32.3070 C   0  0  0  0  0  0  0  0  0  0  0  0
   -9.5292   20.2861  -31.4356 H   0  0  0  0  0  0  0  0  0  0  0  0
   -9.7000   21.2920  -32.9139 H   0  0  0  0  0  0  0  0  0  0  0  0
   -8.5950   19.8758  -32.9139 H   0  0  0  0  0  0  0  0  0  0  0  0
   -6.6640   21.6080  -32.5460 C   0  0  0  0  0  0  0  0  0  0  0  0
   -6.5476   21.0095  -33.4616 H   0  0  0  0  0  0  0  0  0  0  0  0
   -5.6040   22.3970  -32.0910 C   0  0  0  0  0  0  0  0  0  0  0  0
   -4.6616   22.4279  -32.6574 H   0  0  0  0  0  0  0  0  0  0  0  0
  1  2  1  0
  2  3  1  0
  3  4  3  0
  2  5  2  0
  5  6  1  0
  5  7  1  0
  7  8  2  0
  7  9  2  0
  7 10  1  0
 10 11  2  0
 11 12  1  0
 11 13  1  0
 13 14  1  0
 13 15  2  0
 15 16  1  0
 16 17  1  0
 16 18  1  0
 16 19  1  0
 15 20  1  0
 20 21  1  0
 20 22  2  0
 22 23  1  0
 22 10  1  0
M  END
>  <UniqueID>  (5) 
5

>  <SMILES>  (5) 
Cc1ccc(S(=O)(=O)/C=C\C#N)cc1

>  <Energy>  (5) 
21.951731249302597

>  <Genealogy>  (5) 
Cc1ccc(S(=O)(=O)/C=C\C#N)cc1 (cis-trans isomerization)
Cc1ccc(S(=O)(=O)/C=C\C#N)cc1 (3D coordinates assigned)
Cc1ccc(S(=O)(=O)/C=C\C#N)cc1 (optimized conformer: 21.951731249302597 kcal/mol)

>  <smiles>  (5) 
Cc1ccc(S(=O)(=O)C=CC#N)cc1

>  <score_type>  (5) 
oracle

>  <origin>  (5) 
adgpu

>  <m_score__min__energy>  (5) 
-7.0499999999999998

>  <m_primary>  (5) 
energy

$$$$
5:0
     RDKit          3D

 55 58  0  0  0  0  0  0  0  0999 V2000
   -0.2700   20.8360  -31.2390 C   0  0  0  0  0  0  0  0  0  0  0  0
    0.0390   20.8850  -29.8520 O   0  0  0  0  0  0  0  0  0  0  0  0
   -0.8290   20.4110  -28.8610 C   0  0  0  0  0  0  0  0  0  0  0  0
   -0.7200   19.1310  -28.4020 N   0  0  0  0  0  0  0  0  0  0  0  0
   -1.5450   18.6380  -27.4420 C   0  0  0  0  0  0  0  0  0  0  0  0
   -2.5390   19.4480  -26.8920 C   0  0  0  0  0  0  0  0  0  0  0  0
   -2.6730   20.7640  -27.3360 C   0  0  0  0  0  0  0  0  0  0  0  0
   -1.8220   21.2570  -28.3350 C   0  0  0  0  0  0  0  0  0  0  0  0
   -1.9250   22.6690  -28.7660 C   0  0  0  0  0  0  0  0  0  0  0  0
   -1.0520   23.7070  -28.4090 C   0  0  0  0  0  0  0  0  0  0  0  0
    0.1140   23.6130  -27.4850 C   0  0  0  0  0  0  0  0  0  0  0  0
    1.1420   24.3020  -27.7240 O   0  0  0  0  0  0  0  0  0  0  0  0
    0.1370   22.7210  -26.2660 C   0  0  0  0  0  0  0  0  0  0  0  0
    0.0260   23.4880  -24.9260 C   0  0  0  0  0  0  0  0  0  0  0  0
   -0.8740   24.7260  -25.0300 C   0  0  0  0  0  0  0  0  0  0  0  0
   -0.4300   22.5840  -23.7720 C   0  0  0  0  0  0  0  0  0  0  0  0
   -1.5620   24.8390  -29.0400 C   0  0  0  0  0  0  0  0  0  0  0  0
   -1.0460   26.1300  -29.0030 O   0  0  0  0  0  0  0  0  0  0  0  0
   -2.6940   24.4570  -29.7210 C   0  0  0  0  0  0  0  0  0  0  0  0
   -3.4890   25.2990  -30.4890 O   0  0  0  0  0  0  0  0  0  0  0  0
   -2.9210   23.1400  -29.5590 N   0  0  0  0  0  0  0  0  0  0  0  0
   -4.0120   22.3970  -30.1300 C   0  0  0  0  0  0  0  0  0  0  0  0
   -3.7880   21.1500  -30.7300 C   0  0  0  0  0  0  0  0  0  0  0  0
   -4.8570   20.4090  -31.2400 C   0  0  0  0  0  0  0  0  0  0  0  0
   -6.1730   20.8990  -31.1590 C   0  0  0  0  0  0  0  0  0  0  0  0
   -7.3050   20.0960  -31.6900 C   0  0  0  0  0  0  0  0  0  0  0  0
   -7.3590   18.7070  -31.8180 C   0  0  0  0  0  0  0  0  0  0  0  0
   -8.5630   18.2400  -32.3610 C   0  0  0  0  0  0  0  0  0  0  0  0
   -9.4670   19.2460  -32.6680 C   0  0  0  0  0  0  0  0  0  0  0  0
   -8.7640   20.7160  -32.2640 S   0  0  0  0  0  0  0  0  0  0  0  0
   -6.3890   22.1590  -30.5700 C   0  0  0  0  0  0  0  0  0  0  0  0
   -5.3190   22.9000  -30.0640 C   0  0  0  0  0  0  0  0  0  0  0  0
   -1.3489   20.6649  -31.3685 H   0  0  0  0  0  0  0  0  0  0  0  0
    0.0092   21.7896  -31.7108 H   0  0  0  0  0  0  0  0  0  0  0  0
    0.2906   20.0155  -31.7108 H   0  0  0  0  0  0  0  0  0  0  0  0
   -1.4293   17.5996  -27.0980 H   0  0  0  0  0  0  0  0  0  0  0  0
   -3.2107   19.0529  -26.1157 H   0  0  0  0  0  0  0  0  0  0  0  0
   -3.4465   21.4147  -26.9021 H   0  0  0  0  0  0  0  0  0  0  0  0
   -0.7072   22.0191  -26.3344 H   0  0  0  0  0  0  0  0  0  0  0  0
    1.1113   22.2103  -26.2621 H   0  0  0  0  0  0  0  0  0  0  0  0
    1.0444   23.8358  -24.6981 H   0  0  0  0  0  0  0  0  0  0  0  0
   -1.1304   25.0788  -24.0202 H   0  0  0  0  0  0  0  0  0  0  0  0
   -0.3420   25.5216  -25.5722 H   0  0  0  0  0  0  0  0  0  0  0  0
   -1.7949   24.4653  -25.5722 H   0  0  0  0  0  0  0  0  0  0  0  0
   -0.1878   23.0641  -22.8124 H   0  0  0  0  0  0  0  0  0  0  0  0
   -1.5164   22.4246  -23.8384 H   0  0  0  0  0  0  0  0  0  0  0  0
    0.0874   21.6156  -23.8384 H   0  0  0  0  0  0  0  0  0  0  0  0
   -1.2390   26.7920  -29.7450 H   0  0  0  0  0  0  0  0  0  0  0  0
   -2.7647   20.7526  -30.7997 H   0  0  0  0  0  0  0  0  0  0  0  0
   -4.6676   19.4325  -31.7096 H   0  0  0  0  0  0  0  0  0  0  0  0
   -6.5345   18.0423  -31.5207 H   0  0  0  0  0  0  0  0  0  0  0  0
   -8.7722   17.1732  -32.5285 H   0  0  0  0  0  0  0  0  0  0  0  0
  -10.4687   19.1054  -33.1003 H   0  0  0  0  0  0  0  0  0  0  0  0
   -7.4100   22.5637  -30.5077 H   0  0  0  0  0  0  0  0  0  0  0  0
   -5.5029   23.8852  -29.6105 H   0  0  0  0  0  0  0  0  0  0  0  0
  1  2  1  0
  2  3  1  0
  3  4  2  0
  4  5  1  0
  5  6  2  0
  6  7  1  0
  7  8  2  0
  8  9  1  0
  9 10  2  0
 10 11  1  0
 11 12  2  0
 11 13  1  0
 13 14  1  0
 14 15  1  0
 14 16  1  0
 10 17  1  0
 17 18  1  0
 17 19  2  0
 19 20  1  0
 19 21  1  0
 21 22  1  0
 22 23  2  0
 23 24  1  0
 24 25  2  0
 25 26  1  0
 26 27  2  0
 27 28  1  0
 28 29  2  0
 29 30  1  0
 25 31  1  0
 31 32  2  0
  8  3  1  0
 21  9  1  0
 32 22  1  0
 30 26  1  0
  1 33  1  0
  1 34  1  0
  1 35  1  0
  5 36  1  0
  6 37  1  0
  7 38  1  0
 13 39  1  0
 13 40  1  0
 14 41  1  0
 15 42  1  0
 15 43  1  0
 15 44  1  0
 16 45  1  0
 16 46  1  0
 16 47  1  0
 18 48  1  0
 23 49  1  0
 24 50  1  0
 27 51  1  0
 28 52  1  0
 29 53  1  0
 31 54  1  0
 32 55  1  0
M  CHG  1  20  -1
M  END
>  <UniqueID>  (6) 
6

>  <SMILES>  (6) 
COc1ncccc1-c1c(C(=O)CC(C)C)c(O)c([O-])n1-c1ccc(-c2cccs2)cc1

>  <Energy>  (6) 
122.82604216232222

>  <Genealogy>  (6) 
COc1ncccc1-c1c(C(=O)CC(C)C)c(O)c([O-])n1-c1ccc(-c2cccs2)cc1 (protonated)
COc1ncccc1-c1c(C(=O)CC(C)C)c(O)c([O-])n1-c1ccc(-c2cccs2)cc1 (3D coordinates assigned)
COc1ncccc1-c1c(C(=O)CC(C)C)c(O)c([O-])n1-c1ccc(-c2cccs2)cc1 (optimized conformer: 122.82604216232222 kcal/mol)

>  <smiles>  (6) 
COc1ncccc1-c1c(C(=O)CC(C)C)c(O)c(O)n1-c1ccc(-c2cccs2)cc1

>  <score_type>  (6) 
oracle

>  <origin>  (6) 
adgpu

>  <m_score__min__energy>  (6) 
-13.17

>  <m_primary>  (6) 
energy

$$$$
6:0
     RDKit          3D

 53 56  0  0  0  0  0  0  0  0999 V2000
   -3.6190   21.0630  -33.4660 C   0  0  0  0  0  0  0  0  0  0  0  0
   -3.8080   22.2480  -32.7000 O   0  0  0  0  0  0  0  0  0  0  0  0
   -3.0690   22.5800  -31.5520 C   0  0  0  0  0  0  0  0  0  0  0  0
   -1.9300   21.8480  -31.1600 C   0  0  0  0  0  0  0  0  0  0  0  0
   -1.2200   22.2080  -30.0120 C   0  0  0  0  0  0  0  0  0  0  0  0
   -1.6230   23.3090  -29.2520 C   0  0  0  0  0  0  0  0  0  0  0  0
   -0.7450   23.7680  -27.7960 S   0  0  0  0  0  0  0  0  0  0  0  0
    0.3060   24.7960  -28.1080 O   0  0  0  0  0  0  0  0  0  0  0  0
   -1.7190   24.3430  -26.8050 O   0  0  0  0  0  0  0  0  0  0  0  0
    0.0120   22.3670  -27.1090 N   0  0  0  0  0  0  0  0  0  0  0  0
   -0.6180   21.0740  -27.1170 C   0  0  0  0  0  0  0  0  0  0  0  0
   -1.9590   20.9300  -26.7200 C   0  0  0  0  0  0  0  0  0  0  0  0
   -2.5630   19.6710  -26.7070 C   0  0  0  0  0  0  0  0  0  0  0  0
   -1.8370   18.5440  -27.0910 C   0  0  0  0  0  0  0  0  0  0  0  0
   -0.5050   18.6710  -27.4890 C   0  0  0  0  0  0  0  0  0  0  0  0
    0.1180   19.9350  -27.5040 C   0  0  0  0  0  0  0  0  0  0  0  0
    1.4640   20.0920  -27.8730 O   0  0  0  0  0  0  0  0  0  0  0  0
    2.1650   19.2230  -28.7570 C   0  0  0  0  0  0  0  0  0  0  0  0
   -2.7420   24.0510  -29.6480 C   0  0  0  0  0  0  0  0  0  0  0  0
   -3.4890   23.6730  -30.7760 C   0  0  0  0  0  0  0  0  0  0  0  0
   -4.6470   24.4160  -31.1880 N   0  0  0  0  0  0  0  0  0  0  0  0
   -5.9930   24.1970  -30.7460 C   0  0  0  0  0  0  0  0  0  0  0  0
   -6.5480   25.0110  -29.9600 O   0  0  0  0  0  0  0  0  0  0  0  0
   -6.7050   22.9830  -31.1790 C   0  0  0  0  0  0  0  0  0  0  0  0
   -8.0560   23.0310  -31.5610 C   0  0  0  0  0  0  0  0  0  0  0  0
   -8.6900   21.8580  -31.9720 C   0  0  0  0  0  0  0  0  0  0  0  0
   -9.9030   21.8930  -32.3140 O   0  0  0  0  0  0  0  0  0  0  0  0
   -7.9660   20.6550  -31.9960 C   0  0  0  0  0  0  0  0  0  0  0  0
   -8.5410   19.4380  -32.4030 C   0  0  0  0  0  0  0  0  0  0  0  0
   -7.7740   18.2680  -32.4090 C   0  0  0  0  0  0  0  0  0  0  0  0
   -6.4340   18.3030  -32.0130 C   0  0  0  0  0  0  0  0  0  0  0  0
   -5.8540   19.5080  -31.6050 C   0  0  0  0  0  0  0  0  0  0  0  0
   -6.6090   20.6850  -31.5970 C   0  0  0  0  0  0  0  0  0  0  0  0
   -6.0470   21.8270  -31.2130 O   0  0  0  0  0  0  0  0  0  0  0  0
   -3.4824   20.2067  -32.7891 H   0  0  0  0  0  0  0  0  0  0  0  0
   -4.5012   20.8919  -34.1004 H   0  0  0  0  0  0  0  0  0  0  0  0
   -2.7273   21.1748  -34.1004 H   0  0  0  0  0  0  0  0  0  0  0  0
   -1.5984   20.9886  -31.7613 H   0  0  0  0  0  0  0  0  0  0  0  0
   -0.3406   21.6226  -29.7053 H   0  0  0  0  0  0  0  0  0  0  0  0
    0.8480   22.5270  -26.5040 H   0  0  0  0  0  0  0  0  0  0  0  0
   -2.5368   21.8158  -26.4173 H   0  0  0  0  0  0  0  0  0  0  0  0
   -3.6124   19.5682  -26.3936 H   0  0  0  0  0  0  0  0  0  0  0  0
   -2.3147   17.5532  -27.0803 H   0  0  0  0  0  0  0  0  0  0  0  0
    0.0620   17.7787  -27.7929 H   0  0  0  0  0  0  0  0  0  0  0  0
    2.7497   18.4982  -28.1715 H   0  0  0  0  0  0  0  0  0  0  0  0
    1.4443   18.6859  -29.3912 H   0  0  0  0  0  0  0  0  0  0  0  0
    2.8424   19.8137  -29.3912 H   0  0  0  0  0  0  0  0  0  0  0  0
   -3.0392   24.9386  -29.0703 H   0  0  0  0  0  0  0  0  0  0  0  0
   -8.6077   23.9823  -31.5364 H   0  0  0  0  0  0  0  0  0  0  0  0
   -9.5948   19.4059  -32.7169 H   0  0  0  0  0  0  0  0  0  0  0  0
   -8.2271   17.3172  -32.7265 H   0  0  0  0  0  0  0  0  0  0  0  0
   -5.8346   17.3807  -32.0224 H   0  0  0  0  0  0  0  0  0  0  0  0
   -4.8005   19.5302  -31.2893 H   0  0  0  0  0  0  0  0  0  0  0  0
  1  2  1  0
  2  3  1  0
  3  4  2  0
  4  5  1  0
  5  6  2  0
  6  7  1  0
  7  8  2  0
  7  9  2  0
  7 10  1  0
 10 11  1  0
 11 12  2  0
 12 13  1  0
 13 14  2  0
 14 15  1  0
 15 16  2  0
 16 17  1  0
 17 18  1  0
  6 19  1  0
 19 20  2  0
 20 21  1  0
 21 22  1  0
 22 23  2  0
 22 24  1  0
 24 25  2  0
 25 26  1  0
 26 27  2  0
 26 28  1  0
 28 29  2  0
 29 30  1  0
 30 31  2  0
 31 32  1  0
 32 33  2  0
 33 34  1  0
 20  3  1  0
 34 24  1  0
 16 11  1  0
 33 28  1  0
  1 35  1  0
  1 36  1  0
  1 37  1  0
  4 38  1  0
  5 39  1  0
 10 40  1  0
 12 41  1  0
 13 42  1  0
 14 43  1  0
 15 44  1  0
 18 45  1  0
 18 46  1  0
 18 47  1  0
 19 48  1  0
 25 49  1  0
 29 50  1  0
 30 51  1  0
 31 52  1  0
 32 53  1  0
M  CHG  1  21  -1
M  END
>  <UniqueID>  (7) 
7

>  <SMILES>  (7) 
COc1ccc(S(=O)(=O)Nc2ccccc2OC)cc1[N-]C(=O)c1cc(=O)c2ccccc2o1

>  <Energy>  (7) 
67.14207864784736

>  <Genealogy>  (7) 
COc1ccc(S(=O)(=O)Nc2ccccc2OC)cc1[N-]C(=O)c1cc(=O)c2ccccc2o1 (protonated)
COc1ccc(S(=O)(=O)Nc2ccccc2OC)cc1[N-]C(=O)c1cc(=O)c2ccccc2o1 (3D coordinates assigned)
COc1ccc(S(=O)(=O)Nc2ccccc2OC)cc1[N-]C(=O)c1cc(=O)c2ccccc2o1 (optimized conformer: 67.14207864784736 kcal/mol)

>  <smiles>  (7) 
COc1ccc(S(=O)(=O)Nc2ccccc2OC)cc1NC(=O)c1cc(=O)c2ccccc2o1

>  <score_type>  (7) 
oracle

>  <origin>  (7) 
adgpu

>  <m_score__min__energy>  (7) 
-10.890000000000001

>  <m_primary>  (7) 
energy

$$$$
7:0
     RDKit          3D

 46 49  0  0  0  0  0  0  0  0999 V2000
   -4.9880   14.9180  -32.9230 C   0  0  0  0  0  0  0  0  0  0  0  0
   -6.1090   14.8160  -33.9010 C   0  0  0  0  0  0  0  0  0  0  0  0
   -6.2980   13.7340  -34.5190 O   0  0  0  0  0  0  0  0  0  0  0  0
   -6.8880   15.9800  -34.2030 N   0  0  0  0  0  0  0  0  0  0  0  0
   -6.6900   17.3030  -33.6750 C   0  0  0  0  0  0  0  0  0  0  0  0
   -7.5470   17.8340  -32.6970 C   0  0  0  0  0  0  0  0  0  0  0  0
   -7.3310   19.1150  -32.1850 C   0  0  0  0  0  0  0  0  0  0  0  0
   -6.2500   19.8940  -32.6300 C   0  0  0  0  0  0  0  0  0  0  0  0
   -6.0460   21.2570  -32.0740 C   0  0  0  0  0  0  0  0  0  0  0  0
   -6.9660   22.3030  -32.1920 C   0  0  0  0  0  0  0  0  0  0  0  0
   -6.3240   23.6400  -31.4050 S   0  0  0  0  0  0  0  0  0  0  0  0
   -4.9090   22.8570  -30.9390 C   0  0  0  0  0  0  0  0  0  0  0  0
   -3.7800   23.4380  -30.1590 C   0  0  0  0  0  0  0  0  0  0  0  0
   -2.9280   22.5780  -29.4460 C   0  0  0  0  0  0  0  0  0  0  0  0
   -1.8610   23.0840  -28.7060 C   0  0  0  0  0  0  0  0  0  0  0  0
   -1.6310   24.4670  -28.6760 C   0  0  0  0  0  0  0  0  0  0  0  0
   -0.5110   25.0580  -27.9000 C   0  0  0  0  0  0  0  0  0  0  0  0
    0.6610   24.3240  -27.6250 C   0  0  0  0  0  0  0  0  0  0  0  0
    1.7070   24.9020  -26.9000 C   0  0  0  0  0  0  0  0  0  0  0  0
    1.6010   26.2190  -26.4450 C   0  0  0  0  0  0  0  0  0  0  0  0
    2.6420   26.7900  -25.7220 O   0  0  0  0  0  0  0  0  0  0  0  0
    0.4500   26.9600  -26.7190 C   0  0  0  0  0  0  0  0  0  0  0  0
   -0.5980   26.3870  -27.4450 C   0  0  0  0  0  0  0  0  0  0  0  0
   -2.4720   25.2880  -29.3630 N   0  0  0  0  0  0  0  0  0  0  0  0
   -3.5210   24.8250  -30.0920 C   0  0  0  0  0  0  0  0  0  0  0  0
   -4.2480   25.6560  -30.6980 O   0  0  0  0  0  0  0  0  0  0  0  0
   -4.9190   21.5770  -31.3790 N   0  0  0  0  0  0  0  0  0  0  0  0
   -5.3730   19.3480  -33.5850 C   0  0  0  0  0  0  0  0  0  0  0  0
   -5.5770   18.0560  -34.1000 C   0  0  0  0  0  0  0  0  0  0  0  0
   -4.6280   17.4990  -35.1250 C   0  0  0  0  0  0  0  0  0  0  0  0
   -5.3898   14.8814  -31.8996 H   0  0  0  0  0  0  0  0  0  0  0  0
   -4.2923   14.0795  -33.0740 H   0  0  0  0  0  0  0  0  0  0  0  0
   -4.4550   15.8684  -33.0740 H   0  0  0  0  0  0  0  0  0  0  0  0
   -8.3949   17.2361  -32.3316 H   0  0  0  0  0  0  0  0  0  0  0  0
   -8.0153   19.5189  -31.4243 H   0  0  0  0  0  0  0  0  0  0  0  0
   -7.9365   22.2581  -32.7079 H   0  0  0  0  0  0  0  0  0  0  0  0
   -3.1052   21.4927  -29.4722 H   0  0  0  0  0  0  0  0  0  0  0  0
   -1.2025   22.4019  -28.1482 H   0  0  0  0  0  0  0  0  0  0  0  0
    0.7529   23.2883  -27.9839 H   0  0  0  0  0  0  0  0  0  0  0  0
    2.6153   24.3191  -26.6872 H   0  0  0  0  0  0  0  0  0  0  0  0
    0.3676   27.9974  -26.3627 H   0  0  0  0  0  0  0  0  0  0  0  0
   -1.4986   26.9799  -27.6626 H   0  0  0  0  0  0  0  0  0  0  0  0
   -4.5148   19.9410  -33.9339 H   0  0  0  0  0  0  0  0  0  0  0  0
   -3.7870   17.0054  -34.6160 H   0  0  0  0  0  0  0  0  0  0  0  0
   -5.1561   16.7675  -35.7544 H   0  0  0  0  0  0  0  0  0  0  0  0
   -4.2468   18.3167  -35.7544 H   0  0  0  0  0  0  0  0  0  0  0  0
  1  2  1  0
  2  3  2  0
  2  4  1  0
  4  5  1  0
  5  6  2  0
  6  7  1  0
  7  8  2  0
  8  9  1  0
  9 10  2  0
 10 11  1  0
 11 12  1  0
 12 13  1  0
 13 14  2  0
 14 15  1  0
 15 16  2  0
 16 17  1  0
 17 18  2  0
 18 19  1  0
 19 20  2  0
 20 21  1  0
 20 22  1  0
 22 23  2  0
 16 24  1  0
 24 25  1  0
 25 26  2  0
 12 27  2  0
  8 28  1  0
 28 29  2  0
 29 30  1  0
 29  5  1  0
 27  9  1  0
 25 13  1  0
 23 17  1  0
  1 31  1  0
  1 32  1  0
  1 33  1  0
  6 34  1  0
  7 35  1  0
 10 36  1  0
 14 37  1  0
 15 38  1  0
 18 39  1  0
 19 40  1  0
 22 41  1  0
 23 42  1  0
 28 43  1  0
 30 44  1  0
 30 45  1  0
 30 46  1  0
M  CHG  3   4  -1  21  -1  24  -1
M  END
>  <UniqueID>  (8) 
8

>  <SMILES>  (8) 
CC(=O)[N-]c1ccc(-c2csc(-c3ccc(-c4ccc([O-])cc4)[n-]c3=O)n2)cc1C

>  <Energy>  (8) 
92.77984790723838

>  <Genealogy>  (8) 
CC(=O)[N-]c1ccc(-c2csc(-c3ccc(-c4ccc([O-])cc4)[n-]c3=O)n2)cc1C (protonated)
CC(=O)[N-]c1ccc(-c2csc(-c3ccc(-c4ccc([O-])cc4)[n-]c3=O)n2)cc1C (3D coordinates assigned)
CC(=O)[N-]c1ccc(-c2csc(-c3ccc(-c4ccc([O-])cc4)[n-]c3=O)n2)cc1C (optimized conformer: 92.77984790723838 kcal/mol)

>  <smiles>  (8) 
CC(=O)Nc1ccc(-c2csc(-c3ccc(-c4ccc(O)cc4)[nH]c3=O)n2)cc1C

>  <score_type>  (8) 
oracle

>  <origin>  (8) 
adgpu

>  <m_score__min__energy>  (8) 
-10.99

>  <m_primary>  (8) 
energy

$$$$
8:0
     RDKit          3D

 26 27  0  0  0  0  0  0  0  0999 V2000
   -2.6600   21.0690  -27.5750 C   0  0  0  0  0  0  0  0  0  0  0  0
   -2.6580   22.4260  -28.2030 C   0  0  0  0  0  0  0  0  0  0  0  0
   -1.5090   23.2220  -28.1690 C   0  0  0  0  0  0  0  0  0  0  0  0
   -1.5570   24.4860  -28.7590 C   0  0  0  0  0  0  0  0  0  0  0  0
   -0.5410   25.2300  -28.7480 O   0  0  0  0  0  0  0  0  0  0  0  0
   -2.7030   24.9170  -29.3460 N   0  0  0  0  0  0  0  0  0  0  0  0
   -3.8120   24.1310  -29.3710 C   0  0  0  0  0  0  0  0  0  0  0  0
   -5.2850   24.7150  -30.1160 S   0  0  0  0  0  0  0  0  0  0  0  0
   -6.1150   25.4430  -29.0960 O   0  0  0  0  0  0  0  0  0  0  0  0
   -4.9440   25.6760  -31.2210 O   0  0  0  0  0  0  0  0  0  0  0  0
   -6.1910   23.3500  -30.7580 C   0  0  0  0  0  0  0  0  0  0  0  0
   -7.3870   22.9480  -30.1470 C   0  0  0  0  0  0  0  0  0  0  0  0
   -8.1170   21.8750  -30.6690 C   0  0  0  0  0  0  0  0  0  0  0  0
   -7.6590   21.2020  -31.8060 C   0  0  0  0  0  0  0  0  0  0  0  0
   -8.5750   19.8580  -32.4600 Cl  0  0  0  0  0  0  0  0  0  0  0  0
   -6.4700   21.6060  -32.4230 C   0  0  0  0  0  0  0  0  0  0  0  0
   -5.7390   22.6790  -31.9040 C   0  0  0  0  0  0  0  0  0  0  0  0
   -3.7850   22.8990  -28.7990 N   0  0  0  0  0  0  0  0  0  0  0  0
   -2.6598   21.1718  -26.4798 H   0  0  0  0  0  0  0  0  0  0  0  0
   -3.5590   20.5198  -27.8916 H   0  0  0  0  0  0  0  0  0  0  0  0
   -1.7627   20.5171  -27.8916 H   0  0  0  0  0  0  0  0  0  0  0  0
   -0.5881   22.8603  -27.6882 H   0  0  0  0  0  0  0  0  0  0  0  0
   -7.7523   23.4777  -29.2548 H   0  0  0  0  0  0  0  0  0  0  0  0
   -9.0529   21.5601  -30.1843 H   0  0  0  0  0  0  0  0  0  0  0  0
   -6.1095   21.0783  -33.3183 H   0  0  0  0  0  0  0  0  0  0  0  0
   -4.8078   22.9976  -32.3952 H   0  0  0  0  0  0  0  0  0  0  0  0
  1  2  1  0
  2  3  2  0
  3  4  1  0
  4  5  2  0
  4  6  1  0
  6  7  1  0
  7  8  1  0
  8  9  2  0
  8 10  2  0
  8 11  1  0
 11 12  2  0
 12 13  1  0
 13 14  2  0
 14 15  1  0
 14 16  1  0
 16 17  2  0
  7 18  2  0
 18  2  1  0
 17 11  1  0
  1 19  1  0
  1 20  1  0
  1 21  1  0
  3 22  1  0
 12 23  1  0
 13 24  1  0
 16 25  1  0
 17 26  1  0
M  CHG  1   6  -1
M  END
>  <UniqueID>  (9) 
9

>  <SMILES>  (9) 
Cc1cc(=O)[n-]c(S(=O)(=O)c2ccc(Cl)cc2)n1

>  <Energy>  (9) 
28.24561487570419

>  <Genealogy>  (9) 
Cc1cc(=O)[n-]c(S(=O)(=O)c2ccc(Cl)cc2)n1 (protonated)
Cc1cc(=O)[n-]c(S(=O)(=O)c2ccc(Cl)cc2)n1 (3D coordinates assigned)
Cc1cc(=O)[n-]c(S(=O)(=O)c2ccc(Cl)cc2)n1 (optimized conformer: 28.24561487570419 kcal/mol)

>  <smiles>  (9) 
Cc1cc(=O)[nH]c(S(=O)(=O)c2ccc(Cl)cc2)n1

>  <score_type>  (9) 
oracle

>  <origin>  (9) 
adgpu

>  <m_score__min__energy>  (9) 
-8.8399999999999999

>  <m_primary>  (9) 
energy

$$$$
9:0
     RDKit          3D

 51 54  0  0  0  0  0  0  0  0999 V2000
   -5.7450   26.4360  -30.5010 O   0  0  0  0  0  0  0  0  0  0  0  0
   -5.1550   25.3340  -30.6260 C   0  0  0  0  0  0  0  0  0  0  0  0
   -3.7290   25.2930  -30.4660 N   0  0  0  0  0  0  0  0  0  0  0  0
   -3.0180   24.5170  -29.4500 C   0  0  0  0  0  0  0  0  0  0  0  0
   -3.3370   23.0250  -29.5830 C   0  0  0  0  0  0  0  0  0  0  0  0
   -2.2950   22.2940  -30.3870 C   0  0  0  0  0  0  0  0  0  0  0  0
   -0.9140   22.3410  -30.1990 C   0  0  0  0  0  0  0  0  0  0  0  0
   -0.2800   21.6640  -31.1820 N   0  0  0  0  0  0  0  0  0  0  0  0
   -1.2400   21.2130  -32.0040 C   0  0  0  0  0  0  0  0  0  0  0  0
   -1.0710   20.4830  -33.1800 C   0  0  0  0  0  0  0  0  0  0  0  0
   -2.2190   20.1190  -33.9040 C   0  0  0  0  0  0  0  0  0  0  0  0
   -3.4960   20.4980  -33.4460 C   0  0  0  0  0  0  0  0  0  0  0  0
   -3.6390   21.2410  -32.2590 C   0  0  0  0  0  0  0  0  0  0  0  0
   -2.4840   21.5780  -31.5560 C   0  0  0  0  0  0  0  0  0  0  0  0
   -5.9430   24.1310  -30.9630 C   0  0  0  0  0  0  0  0  0  0  0  0
   -6.7200   23.4880  -29.9840 C   0  0  0  0  0  0  0  0  0  0  0  0
   -7.4240   22.3210  -30.2950 C   0  0  0  0  0  0  0  0  0  0  0  0
   -7.3400   21.7680  -31.5800 C   0  0  0  0  0  0  0  0  0  0  0  0
   -8.1930   20.2720  -31.9510 S   0  0  0  0  0  0  0  0  0  0  0  0
   -8.9810   19.8330  -30.7450 O   0  0  0  0  0  0  0  0  0  0  0  0
   -9.1510   20.5090  -33.0860 O   0  0  0  0  0  0  0  0  0  0  0  0
   -7.0380   19.0460  -32.4050 N   0  0  0  0  0  0  0  0  0  0  0  0
   -7.6460   17.7150  -32.4590 C   0  0  0  0  0  0  0  0  0  0  0  0
   -6.8130   16.9000  -33.4370 C   0  0  0  0  0  0  0  0  0  0  0  0
   -6.0820   17.9250  -34.2960 C   0  0  0  0  0  0  0  0  0  0  0  0
   -6.4910   19.2840  -33.7430 C   0  0  0  0  0  0  0  0  0  0  0  0
   -6.5420   22.3890  -32.5480 C   0  0  0  0  0  0  0  0  0  0  0  0
   -5.8460   23.5630  -32.2440 C   0  0  0  0  0  0  0  0  0  0  0  0
   -1.9353   24.6667  -29.5741 H   0  0  0  0  0  0  0  0  0  0  0  0
   -3.3404   24.8591  -28.4555 H   0  0  0  0  0  0  0  0  0  0  0  0
   -3.3853   22.5814  -28.5776 H   0  0  0  0  0  0  0  0  0  0  0  0
   -4.2992   22.9291  -30.1074 H   0  0  0  0  0  0  0  0  0  0  0  0
   -0.4113   22.8566  -29.3675 H   0  0  0  0  0  0  0  0  0  0  0  0
    0.7510   21.5420  -31.2890 H   0  0  0  0  0  0  0  0  0  0  0  0
   -0.0676   20.2001  -33.5309 H   0  0  0  0  0  0  0  0  0  0  0  0
   -2.1201   19.5361  -34.8316 H   0  0  0  0  0  0  0  0  0  0  0  0
   -4.3889   20.2110  -34.0207 H   0  0  0  0  0  0  0  0  0  0  0  0
   -4.6320   21.5462  -31.8974 H   0  0  0  0  0  0  0  0  0  0  0  0
   -6.7744   23.9053  -28.9677 H   0  0  0  0  0  0  0  0  0  0  0  0
   -8.0459   21.8352  -29.5287 H   0  0  0  0  0  0  0  0  0  0  0  0
   -6.2580   19.0420  -31.7060 H   0  0  0  0  0  0  0  0  0  0  0  0
   -7.6280   17.2481  -31.4632 H   0  0  0  0  0  0  0  0  0  0  0  0
   -8.6966   17.7699  -32.7802 H   0  0  0  0  0  0  0  0  0  0  0  0
   -6.0936   16.2675  -32.8962 H   0  0  0  0  0  0  0  0  0  0  0  0
   -7.4362   16.2267  -34.0439 H   0  0  0  0  0  0  0  0  0  0  0  0
   -4.9935   17.7885  -34.2149 H   0  0  0  0  0  0  0  0  0  0  0  0
   -6.3389   17.8232  -35.3607 H   0  0  0  0  0  0  0  0  0  0  0  0
   -5.6159   19.9477  -33.6824 H   0  0  0  0  0  0  0  0  0  0  0  0
   -7.2334   19.7691  -34.3937 H   0  0  0  0  0  0  0  0  0  0  0  0
   -6.4620   21.9508  -33.5538 H   0  0  0  0  0  0  0  0  0  0  0  0
   -5.2203   24.0434  -33.0107 H   0  0  0  0  0  0  0  0  0  0  0  0
  1  2  2  0
  2  3  1  0
  3  4  1  0
  4  5  1  0
  5  6  1  0
  6  7  2  0
  7  8  1  0
  8  9  1  0
  9 10  2  0
 10 11  1  0
 11 12  2  0
 12 13  1  0
 13 14  2  0
  2 15  1  0
 15 16  2  0
 16 17  1  0
 17 18  2  0
 18 19  1  0
 19 20  2  0
 19 21  2  0
 19 22  1  0
 22 23  1  0
 23 24  1  0
 24 25  1  0
 25 26  1  0
 18 27  1  0
 27 28  2  0
 14  6  1  0
 28 15  1  0
 14  9  1  0
 26 22  1  0
  4 29  1  0
  4 30  1  0
  5 31  1  0
  5 32  1  0
  7 33  1  0
  8 34  1  0
 10 35  1  0
 11 36  1  0
 12 37  1  0
 13 38  1  0
 16 39  1  0
 17 40  1  0
 22 41  1  0
 23 42  1  0
 23 43  1  0
 24 44  1  0
 24 45  1  0
 25 46  1  0
 25 47  1  0
 26 48  1  0
 26 49  1  0
 27 50  1  0
 28 51  1  0
M  CHG  2   3  -1  22   1
M  END
>  <UniqueID>  (10) 
10

>  <SMILES>  (10) 
O=C([N-]CCc1c[nH]c2ccccc12)c1ccc(S(=O)(=O)[NH+]2CCCC2)cc1

>  <Energy>  (10) 
90.43690986911433

>  <Genealogy>  (10) 
O=C([N-]CCc1c[nH]c2ccccc12)c1ccc(S(=O)(=O)[NH+]2CCCC2)cc1 (protonated)
O=C([N-]CCc1c[nH]c2ccccc12)c1ccc(S(=O)(=O)[NH+]2CCCC2)cc1 (3D coordinates assigned)
O=C([N-]CCc1c[nH]c2ccccc12)c1ccc(S(=O)(=O)[NH+]2CCCC2)cc1 (nonaromatic ring conformer: 90.43690986911433 kcal/mol)

>  <smiles>  (10) 
O=C(NCCc1c[nH]c2ccccc12)c1ccc(S(=O)(=O)N2CCCC2)cc1

>  <score_type>  (10) 
oracle

>  <origin>  (10) 
adgpu

>  <m_score__min__energy>  (10) 
-11.92

>  <m_primary>  (10) 
energy

$$$$
10:0
     RDKit          3D

 69 73  0  0  0  0  0  0  0  0999 V2000
   -3.4400   13.3050  -36.4650 C   0  0  0  0  0  0  0  0  0  0  0  0
   -2.9430   14.3740  -35.5380 C   0  0  0  0  0  0  0  0  0  0  0  0
   -3.2340   15.7230  -35.7900 C   0  0  0  0  0  0  0  0  0  0  0  0
   -2.7310   16.7230  -34.9510 C   0  0  0  0  0  0  0  0  0  0  0  0
   -1.9200   16.3870  -33.8550 C   0  0  0  0  0  0  0  0  0  0  0  0
   -1.3730   17.4330  -32.9690 C   0  0  0  0  0  0  0  0  0  0  0  0
   -0.1230   17.4390  -32.4640 N   0  0  0  0  0  0  0  0  0  0  0  0
   -0.0260   18.5310  -31.7200 N   0  0  0  0  0  0  0  0  0  0  0  0
   -1.2210   19.1510  -31.8000 C   0  0  0  0  0  0  0  0  0  0  0  0
   -1.5590   20.4190  -31.1250 C   0  0  0  0  0  0  0  0  0  0  0  0
   -2.9020   20.7250  -30.8430 C   0  0  0  0  0  0  0  0  0  0  0  0
   -3.2390   21.9400  -30.2450 C   0  0  0  0  0  0  0  0  0  0  0  0
   -2.2390   22.8620  -29.9110 C   0  0  0  0  0  0  0  0  0  0  0  0
   -2.6710   24.4510  -29.2850 S   0  0  0  0  0  0  0  0  0  0  0  0
   -3.1140   24.3170  -27.8530 O   0  0  0  0  0  0  0  0  0  0  0  0
   -1.4660   25.3540  -29.3340 O   0  0  0  0  0  0  0  0  0  0  0  0
   -3.9570   25.1540  -30.2170 N   0  0  0  0  0  0  0  0  0  0  0  0
   -5.1860   24.4640  -30.4460 C   0  0  0  0  0  0  0  0  0  0  0  0
   -5.7750   23.6900  -29.4350 C   0  0  0  0  0  0  0  0  0  0  0  0
   -6.9110   22.9240  -29.7100 C   0  0  0  0  0  0  0  0  0  0  0  0
   -7.4950   22.9590  -30.9880 C   0  0  0  0  0  0  0  0  0  0  0  0
   -8.6270   22.0260  -31.3270 C   0  0  0  0  0  0  0  0  0  0  0  0
   -8.1600   20.9830  -32.3520 C   0  0  0  0  0  0  0  0  0  0  0  0
   -7.2900   19.9740  -31.7230 N   0  0  0  0  0  0  0  0  0  0  0  0
   -7.3230   18.6740  -32.4230 C   0  0  0  0  0  0  0  0  0  0  0  0
   -6.0250   18.3080  -33.1830 C   0  0  1  0  0  0  0  0  0  0  0  0
   -4.9260   18.9900  -32.6330 O   0  0  0  0  0  0  0  0  0  0  0  0
   -5.7860   16.8100  -33.2340 C   0  0  0  0  0  0  0  0  0  0  0  0
   -6.4720   16.0290  -34.1780 C   0  0  0  0  0  0  0  0  0  0  0  0
   -6.2790   14.6460  -34.2190 C   0  0  0  0  0  0  0  0  0  0  0  0
   -5.3990   14.0520  -33.3140 C   0  0  0  0  0  0  0  0  0  0  0  0
   -4.7380   14.8160  -32.4040 N   0  0  0  0  0  0  0  0  0  0  0  0
   -4.9110   16.1630  -32.3390 C   0  0  0  0  0  0  0  0  0  0  0  0
   -6.9370   23.7840  -31.9800 C   0  0  0  0  0  0  0  0  0  0  0  0
   -5.7910   24.5380  -31.7060 C   0  0  0  0  0  0  0  0  0  0  0  0
   -0.8960   22.5510  -30.1700 C   0  0  0  0  0  0  0  0  0  0  0  0
   -0.5570   21.3380  -30.7760 C   0  0  0  0  0  0  0  0  0  0  0  0
   -2.0490   18.4820  -32.5650 O   0  0  0  0  0  0  0  0  0  0  0  0
   -1.6200   15.0370  -33.6110 C   0  0  0  0  0  0  0  0  0  0  0  0
   -2.1230   14.0390  -34.4500 C   0  0  0  0  0  0  0  0  0  0  0  0
   -3.8318   12.4623  -35.8764 H   0  0  0  0  0  0  0  0  0  0  0  0
   -4.2408   13.7129  -37.0993 H   0  0  0  0  0  0  0  0  0  0  0  0
   -2.6120   12.9556  -37.0993 H   0  0  0  0  0  0  0  0  0  0  0  0
   -3.8609   15.9958  -36.6517 H   0  0  0  0  0  0  0  0  0  0  0  0
   -2.9719   17.7775  -35.1508 H   0  0  0  0  0  0  0  0  0  0  0  0
   -3.6919   20.0022  -31.0953 H   0  0  0  0  0  0  0  0  0  0  0  0
   -4.2931   22.1743  -30.0353 H   0  0  0  0  0  0  0  0  0  0  0  0
   -5.3418   23.6861  -28.4239 H   0  0  0  0  0  0  0  0  0  0  0  0
   -7.3495   22.2917  -28.9239 H   0  0  0  0  0  0  0  0  0  0  0  0
   -8.9626   21.5137  -30.4133 H   0  0  0  0  0  0  0  0  0  0  0  0
   -9.4569   22.6068  -31.7559 H   0  0  0  0  0  0  0  0  0  0  0  0
   -9.0401   20.4815  -32.7808 H   0  0  0  0  0  0  0  0  0  0  0  0
   -7.5872   21.4973  -33.1378 H   0  0  0  0  0  0  0  0  0  0  0  0
   -6.3100   20.3360  -31.6610 H   0  0  0  0  0  0  0  0  0  0  0  0
   -7.6240   19.8040  -30.7450 H   0  0  0  0  0  0  0  0  0  0  0  0
   -7.5144   17.8891  -31.6765 H   0  0  0  0  0  0  0  0  0  0  0  0
   -8.1131   18.7542  -33.1841 H   0  0  0  0  0  0  0  0  0  0  0  0
   -6.1490   18.6341  -34.2262 H   0  0  0  0  0  0  0  0  0  0  0  0
   -4.1050   18.5450  -32.9730 H   0  0  0  0  0  0  0  0  0  0  0  0
   -7.1633   16.5075  -34.8873 H   0  0  0  0  0  0  0  0  0  0  0  0
   -6.8154   14.0317  -34.9572 H   0  0  0  0  0  0  0  0  0  0  0  0
   -5.2396   12.9638  -33.3367 H   0  0  0  0  0  0  0  0  0  0  0  0
   -4.3659   16.7498  -31.5850 H   0  0  0  0  0  0  0  0  0  0  0  0
   -7.4030   23.8369  -32.9750 H   0  0  0  0  0  0  0  0  0  0  0  0
   -5.3645   25.1903  -32.4823 H   0  0  0  0  0  0  0  0  0  0  0  0
   -0.1059   23.2651  -29.8949 H   0  0  0  0  0  0  0  0  0  0  0  0
    0.4980   21.1028  -30.9800 H   0  0  0  0  0  0  0  0  0  0  0  0
   -0.9857   14.7636  -32.7549 H   0  0  0  0  0  0  0  0  0  0  0  0
   -1.8747   12.9850  -34.2563 H   0  0  0  0  0  0  0  0  0  0  0  0
  1  2  1  0
  2  3  2  0
  3  4  1  0
  4  5  2  0
  5  6  1  0
  6  7  2  0
  7  8  1  0
  8  9  2  0
  9 10  1  0
 10 11  2  0
 11 12  1  0
 12 13  2  0
 13 14  1  0
 14 15  2  0
 14 16  2  0
 14 17  1  0
 17 18  1  0
 18 19  2  0
 19 20  1  0
 20 21  2  0
 21 22  1  0
 22 23  1  0
 23 24  1  0
 24 25  1  0
 25 26  1  0
 26 27  1  0
 26 28  1  0
 28 29  2  0
 29 30  1  0
 30 31  2  0
 31 32  1  0
 32 33  2  0
 21 34  1  0
 34 35  2  0
 13 36  1  0
 36 37  2  0
  9 38  1  0
  5 39  1  0
 39 40  2  0
 40  2  1  0
 38  6  1  0
 37 10  1  0
 35 18  1  0
 33 28  1  0
  1 41  1  0
  1 42  1  0
  1 43  1  0
  3 44  1  0
  4 45  1  0
 11 46  1  0
 12 47  1  0
 19 48  1  0
 20 49  1  0
 22 50  1  0
 22 51  1  0
 23 52  1  0
 23 53  1  0
 24 54  1  0
 24 55  1  0
 25 56  1  0
 25 57  1  0
 26 58  1  6
 27 59  1  0
 29 60  1  0
 30 61  1  0
 31 62  1  0
 33 63  1  0
 34 64  1  0
 35 65  1  0
 36 66  1  0
 37 67  1  0
 39 68  1  0
 40 69  1  0
M  CHG  2  17  -1  24   1
M  END
>  <UniqueID>  (11) 
11

>  <SMILES>  (11) 
Cc1ccc(-c2nnc(-c3ccc(S(=O)(=O)[N-]c4ccc(CC[NH2+]C[C@@H](O)c5cccnc5)cc4)cc3)o2)cc1

>  <Energy>  (11) 
117.0707970116445

>  <Genealogy>  (11) 
Cc1ccc(-c2nnc(-c3ccc(S(=O)(=O)[N-]c4ccc(CC[NH2+]CC(O)c5cccnc5)cc4)cc3)o2)cc1 (protonated)
Cc1ccc(-c2nnc(-c3ccc(S(=O)(=O)[N-]c4ccc(CC[NH2+]C[C@@H](O)c5cccnc5)cc4)cc3)o2)cc1 (chirality)
Cc1ccc(-c2nnc(-c3ccc(S(=O)(=O)[N-]c4ccc(CC[NH2+]C[C@@H](O)c5cccnc5)cc4)cc3)o2)cc1 (3D coordinates assigned)
Cc1ccc(-c2nnc(-c3ccc(S(=O)(=O)[N-]c4ccc(CC[NH2+]C[C@@H](O)c5cccnc5)cc4)cc3)o2)cc1 (optimized conformer: 117.0707970116445 kcal/mol)

>  <smiles>  (11) 
Cc1ccc(-c2nnc(-c3ccc(S(=O)(=O)Nc4ccc(CCNCC(O)c5cccnc5)cc4)cc3)o2)cc1

>  <score_type>  (11) 
oracle

>  <origin>  (11) 
adgpu

>  <m_score__min__energy>  (11) 
-10.73

>  <m_primary>  (11) 
energy

$$$$
11:0
     RDKit          3D

 42 44  0  0  0  0  0  0  0  0999 V2000
   -2.5868   22.8441  -26.6803 H   0  0  0  0  0  0  0  0  0  0  0  0
   -2.9130   23.2410  -27.6530 C   0  0  0  0  0  0  0  0  0  0  0  0
   -3.8300   22.4150  -28.7980 S   0  0  0  0  0  0  0  0  0  0  0  0
   -3.8330   23.7050  -29.8850 C   0  0  0  0  0  0  0  0  0  0  0  0
   -4.4510   23.7470  -31.0290 N   0  0  0  0  0  0  0  0  0  0  0  0
   -5.1600   22.6680  -31.6590 C   0  0  0  0  0  0  0  0  0  0  0  0
   -4.5080   21.7470  -32.4980 C   0  0  0  0  0  0  0  0  0  0  0  0
   -3.4225   21.8242  -32.6585 H   0  0  0  0  0  0  0  0  0  0  0  0
   -5.2360   20.7330  -33.1290 C   0  0  0  0  0  0  0  0  0  0  0  0
   -4.7191   20.0035  -33.7698 H   0  0  0  0  0  0  0  0  0  0  0  0
   -6.6180   20.6450  -32.9470 C   0  0  0  0  0  0  0  0  0  0  0  0
   -7.1869   19.8404  -33.4359 H   0  0  0  0  0  0  0  0  0  0  0  0
   -7.2790   21.5800  -32.1430 C   0  0  0  0  0  0  0  0  0  0  0  0
   -9.0570   21.4760  -31.9210 S   0  0  0  0  0  0  0  0  0  0  0  0
   -9.1300   19.7120  -32.3640 C   0  0  0  0  0  0  0  0  0  0  0  0
   -9.1551   19.1045  -31.4473 H   0  0  0  0  0  0  0  0  0  0  0  0
  -10.0369   19.5199  -32.9562 H   0  0  0  0  0  0  0  0  0  0  0  0
   -8.2421   19.4456  -32.9562 H   0  0  0  0  0  0  0  0  0  0  0  0
   -6.5510   22.5930  -31.5080 C   0  0  0  0  0  0  0  0  0  0  0  0
   -7.0741   23.3348  -30.8866 H   0  0  0  0  0  0  0  0  0  0  0  0
   -3.1600   24.7630  -29.3870 N   0  0  0  0  0  0  0  0  0  0  0  0
   -3.0810   25.6740  -29.8930 H   0  0  0  0  0  0  0  0  0  0  0  0
   -2.6370   24.5190  -28.1510 C   0  0  0  0  0  0  0  0  0  0  0  0
   -1.8470   25.5310  -27.4050 C   0  0  0  0  0  0  0  0  0  0  0  0
   -0.9000   26.3270  -28.0680 C   0  0  0  0  0  0  0  0  0  0  0  0
   -0.7431   26.2017  -29.1495 H   0  0  0  0  0  0  0  0  0  0  0  0
   -0.1560   27.2760  -27.3660 C   0  0  0  0  0  0  0  0  0  0  0  0
    0.5843   27.8915  -27.8982 H   0  0  0  0  0  0  0  0  0  0  0  0
   -0.3450   27.4520  -25.9830 C   0  0  0  0  0  0  0  0  0  0  0  0
    0.3860   28.3960  -25.2440 O   0  0  0  0  0  0  0  0  0  0  0  0
   -0.0620   29.7180  -24.9580 C   0  0  0  0  0  0  0  0  0  0  0  0
   -0.1105   29.8610  -23.8684 H   0  0  0  0  0  0  0  0  0  0  0  0
    0.6399   30.4450  -25.3924 H   0  0  0  0  0  0  0  0  0  0  0  0
   -1.0613   29.8685  -25.3924 H   0  0  0  0  0  0  0  0  0  0  0  0
   -1.2900   26.6650  -25.3100 C   0  0  0  0  0  0  0  0  0  0  0  0
   -1.4600   26.8650  -23.9300 O   0  0  0  0  0  0  0  0  0  0  0  0
   -0.4100   26.8100  -22.9690 C   0  0  0  0  0  0  0  0  0  0  0  0
   -0.8384   26.8324  -21.9561 H   0  0  0  0  0  0  0  0  0  0  0  0
    0.1627   25.8806  -23.1044 H   0  0  0  0  0  0  0  0  0  0  0  0
    0.2566   27.6745  -23.1044 H   0  0  0  0  0  0  0  0  0  0  0  0
   -2.0370   25.7080  -26.0250 C   0  0  0  0  0  0  0  0  0  0  0  0
   -2.7785   25.0917  -25.4955 H   0  0  0  0  0  0  0  0  0  0  0  0
  1  2  1  0
  2  3  1  0
  3  4  1  0
  4  5  2  0
  5  6  1  0
  6  7  2  0
  7  8  1  0
  7  9  1  0
  9 10  1  0
  9 11  2  0
 11 12  1  0
 11 13  1  0
 13 14  1  0
 14 15  1  0
 15 16  1  0
 15 17  1  0
 15 18  1  0
 13 19  2  0
 19 20  1  0
  4 21  1  0
 21 22  1  0
 21 23  1  0
 23 24  1  0
 24 25  2  0
 25 26  1  0
 25 27  1  0
 27 28  1  0
 27 29  2  0
 29 30  1  0
 30 31  1  0
 31 32  1  0
 31 33  1  0
 31 34  1  0
 29 35  1  0
 35 36  1  0
 36 37  1  0
 37 38  1  0
 37 39  1  0
 37 40  1  0
 35 41  2  0
 41 42  1  0
 23  2  2  0
 41 24  1  0
 19  6  1  0
M  END
>  <UniqueID>  (12) 
12

>  <SMILES>  (12) 
COc1ccc(-c2cs/c(=N\c3cccc(SC)c3)[nH]2)cc1OC

>  <Energy>  (12) 
79.47015541142525

>  <Genealogy>  (12) 
COc1ccc(-c2cs/c(=N\c3cccc(SC)c3)[nH]2)cc1OC (cis-trans isomerization)
COc1ccc(-c2cs/c(=N\c3cccc(SC)c3)[nH]2)cc1OC (3D coordinates assigned)
COc1ccc(-c2cs/c(=N\c3cccc(SC)c3)[nH]2)cc1OC (optimized conformer: 79.47015541142525 kcal/mol)

>  <smiles>  (12) 
COc1ccc(-c2csc(=Nc3cccc(SC)c3)[nH]2)cc1OC

>  <score_type>  (12) 
oracle

>  <origin>  (12) 
adgpu

>  <m_score__min__energy>  (12) 
-7.8600000000000003

>  <m_primary>  (12) 
energy

$$$$
12:0
     RDKit          3D

 45 47  0  0  1  0  0  0  0  0999 V2000
   -3.5200   24.5080  -27.9380 C   0  0  0  0  0  0  0  0  0  0  0  0
   -4.8820   24.1940  -28.3390 N   0  0  0  0  0  0  0  0  0  0  0  0
   -5.1380   24.6470  -29.9610 S   0  0  0  0  0  0  0  0  0  0  0  0
   -6.2300   25.6570  -30.1230 O   0  0  0  0  0  0  0  0  0  0  0  0
   -3.8680   25.3040  -30.4800 O   0  0  0  0  0  0  0  0  0  0  0  0
   -5.3990   23.2300  -30.9350 C   0  0  0  0  0  0  0  0  0  0  0  0
   -6.4990   22.4360  -30.7460 C   0  0  0  0  0  0  0  0  0  0  0  0
   -6.6900   21.3190  -31.5310 C   0  0  0  0  0  0  0  0  0  0  0  0
   -5.7880   20.9640  -32.5270 C   0  0  0  0  0  0  0  0  0  0  0  0
   -4.6780   21.7550  -32.7260 C   0  0  0  0  0  0  0  0  0  0  0  0
   -3.6880   21.5010  -33.7060 N   0  0  0  0  0  0  0  0  0  0  0  0
   -2.6550   20.8180  -33.3730 C   0  0  0  0  0  0  0  0  0  0  0  0
   -2.3000   20.2570  -32.2070 N   0  0  0  0  0  0  0  0  0  0  0  0
   -1.1090   19.6260  -32.3400 C   0  0  0  0  0  0  0  0  0  0  0  0
   -0.1780   18.7190  -31.1170 S   0  0  0  0  0  0  0  0  0  0  0  0
    0.3460   19.9010  -29.8420 C   0  0  0  0  0  0  0  0  0  0  0  0
   -0.8830   20.1970  -29.0300 C   0  0  0  0  0  0  0  0  0  0  0  0
   -1.6880   21.2860  -29.3500 C   0  0  0  0  0  0  0  0  0  0  0  0
   -2.8100   21.5140  -28.5680 C   0  0  0  0  0  0  0  0  0  0  0  0
   -3.1190   20.6830  -27.5010 C   0  0  0  0  0  0  0  0  0  0  0  0
   -2.3130   19.5990  -27.1890 C   0  0  0  0  0  0  0  0  0  0  0  0
   -2.6890   18.7320  -26.0290 C   0  0  0  0  0  0  0  0  0  0  0  0
   -1.1980   19.3680  -27.9610 C   0  0  0  0  0  0  0  0  0  0  0  0
   -0.4050   18.3080  -27.6580 F   0  0  0  0  0  0  0  0  0  0  0  0
   -0.7280   19.8090  -33.6280 N   0  0  0  0  0  0  0  0  0  0  0  0
   -1.6630   20.5250  -34.2390 N   0  0  0  0  0  0  0  0  0  0  0  0
   -4.5010   22.8730  -31.9290 C   0  0  0  0  0  0  0  0  0  0  0  0
   -3.4553   24.5229  -26.8400 H   0  0  0  0  0  0  0  0  0  0  0  0
   -2.8354   23.7441  -28.3353 H   0  0  0  0  0  0  0  0  0  0  0  0
   -3.2390   25.4945  -28.3353 H   0  0  0  0  0  0  0  0  0  0  0  0
   -5.6100   24.5540  -27.7170 H   0  0  0  0  0  0  0  0  0  0  0  0
   -7.2317   22.6903  -29.9660 H   0  0  0  0  0  0  0  0  0  0  0  0
   -7.5789   20.6927  -31.3649 H   0  0  0  0  0  0  0  0  0  0  0  0
   -5.9571   20.0692  -33.1441 H   0  0  0  0  0  0  0  0  0  0  0  0
    1.1275   19.4583  -29.2069 H   0  0  0  0  0  0  0  0  0  0  0  0
    0.7686   20.8147  -30.2854 H   0  0  0  0  0  0  0  0  0  0  0  0
   -1.4422   21.9447  -30.1960 H   0  0  0  0  0  0  0  0  0  0  0  0
   -3.4654   22.3672  -28.7972 H   0  0  0  0  0  0  0  0  0  0  0  0
   -4.0143   20.8866  -26.8952 H   0  0  0  0  0  0  0  0  0  0  0  0
   -2.4612   19.2572  -25.0897 H   0  0  0  0  0  0  0  0  0  0  0  0
   -3.7651   18.5080  -26.0722 H   0  0  0  0  0  0  0  0  0  0  0  0
   -2.1171   17.7933  -26.0722 H   0  0  0  0  0  0  0  0  0  0  0  0
    0.1510   19.4580  -34.1010 H   0  0  0  0  0  0  0  0  0  0  0  0
   -1.6130   20.8070  -35.2440 H   0  0  0  0  0  0  0  0  0  0  0  0
   -3.6135   23.5024  -32.0907 H   0  0  0  0  0  0  0  0  0  0  0  0
  1  2  1  0
  2  3  1  0
  3  4  2  0
  3  5  2  0
  3  6  1  0
  6  7  2  0
  7  8  1  0
  8  9  2  0
  9 10  1  0
 10 11  1  0
 11 12  2  0
 12 13  1  0
 13 14  2  0
 14 15  1  0
 15 16  1  0
 16 17  1  0
 17 18  2  0
 18 19  1  0
 19 20  2  0
 20 21  1  0
 21 22  1  0
 21 23  2  0
 23 24  1  0
 14 25  1  0
 25 26  1  0
 10 27  2  0
 27  6  1  0
 26 12  1  0
 23 17  1  0
  1 28  1  0
  1 29  1  0
  1 30  1  0
  2 31  1  0
  7 32  1  0
  8 33  1  0
  9 34  1  0
 16 35  1  0
 16 36  1  0
 18 37  1  0
 19 38  1  0
 20 39  1  0
 22 40  1  0
 22 41  1  0
 22 42  1  0
 25 43  1  0
 26 44  1  0
 27 45  1  0
M  END
>  <smiles>  (13) 
CNS(=O)(=O)c1cccc(N=c2nc(SCc3cccc(C)c3F)[nH][nH]2)c1

>  <score_type>  (13) 
oracle

>  <origin>  (13) 
adgpu

>  <m_score__min__energy>  (13) 
-10.56

>  <m_primary>  (13) 
energy

$$$$
13:0
     RDKit          3D

 47 49  0  0  0  0  0  0  0  0999 V2000
   -4.6500   17.0230  -33.5010 C   0  0  0  0  0  0  0  0  0  0  0  0
   -5.3200   18.3110  -33.2810 N   0  0  0  0  0  0  0  0  0  0  0  0
   -5.7590   18.8740  -34.5630 C   0  0  0  0  0  0  0  0  0  0  0  0
   -6.7080   18.0770  -32.2480 S   0  0  0  0  0  0  0  0  0  0  0  0
   -6.2690   17.6290  -30.8810 O   0  0  0  0  0  0  0  0  0  0  0  0
   -7.6030   17.0200  -32.8320 O   0  0  0  0  0  0  0  0  0  0  0  0
   -7.6210   19.5790  -32.1200 C   0  0  0  0  0  0  0  0  0  0  0  0
   -9.0210   19.5480  -32.1490 C   0  0  0  0  0  0  0  0  0  0  0  0
   -9.7500   20.7370  -32.0770 C   0  0  0  0  0  0  0  0  0  0  0  0
   -9.0870   21.9620  -31.9730 C   0  0  0  0  0  0  0  0  0  0  0  0
   -7.6880   22.0070  -31.9300 C   0  0  0  0  0  0  0  0  0  0  0  0
   -7.0570   23.2570  -31.8410 O   0  0  0  0  0  0  0  0  0  0  0  0
   -5.9300   23.5440  -31.0570 C   0  0  0  0  0  0  0  0  0  0  0  0
   -6.0950   24.3070  -29.8950 C   0  0  0  0  0  0  0  0  0  0  0  0
   -4.9980   24.6030  -29.0810 C   0  0  0  0  0  0  0  0  0  0  0  0
   -3.7220   24.1320  -29.4180 C   0  0  0  0  0  0  0  0  0  0  0  0
   -2.3410   24.4840  -28.3850 S   0  0  0  0  0  0  0  0  0  0  0  0
   -1.5590   25.6300  -28.9640 O   0  0  0  0  0  0  0  0  0  0  0  0
   -2.8180   24.8690  -27.0120 O   0  0  0  0  0  0  0  0  0  0  0  0
   -1.3080   23.0360  -28.2810 C   0  0  0  0  0  0  0  0  0  0  0  0
   -1.9070   22.0310  -27.2940 C   0  0  0  0  0  0  0  0  0  0  0  0
   -2.9330   21.0680  -27.8730 C   0  0  0  0  0  0  0  0  0  0  0  0
   -1.5290   20.5800  -27.5520 C   0  0  0  0  0  0  0  0  0  0  0  0
   -3.5560   23.3450  -30.5650 C   0  0  0  0  0  0  0  0  0  0  0  0
   -4.6530   23.0480  -31.3790 C   0  0  0  0  0  0  0  0  0  0  0  0
   -6.9560   20.8110  -32.0250 C   0  0  0  0  0  0  0  0  0  0  0  0
   -4.4110   16.5635  -32.5305 H   0  0  0  0  0  0  0  0  0  0  0  0
   -5.3153   16.3558  -34.0686 H   0  0  0  0  0  0  0  0  0  0  0  0
   -3.7218   17.1848  -34.0686 H   0  0  0  0  0  0  0  0  0  0  0  0
   -6.4258   19.7292  -34.3788 H   0  0  0  0  0  0  0  0  0  0  0  0
   -4.8818   19.2097  -35.1356 H   0  0  0  0  0  0  0  0  0  0  0  0
   -6.2984   18.1051  -35.1356 H   0  0  0  0  0  0  0  0  0  0  0  0
   -9.5473   18.5853  -32.2286 H   0  0  0  0  0  0  0  0  0  0  0  0
  -10.8493   20.7087  -32.1023 H   0  0  0  0  0  0  0  0  0  0  0  0
   -9.6665   22.8957  -31.9246 H   0  0  0  0  0  0  0  0  0  0  0  0
   -7.0943   24.6759  -29.6208 H   0  0  0  0  0  0  0  0  0  0  0  0
   -5.1368   25.2078  -28.1727 H   0  0  0  0  0  0  0  0  0  0  0  0
   -1.2341   22.5699  -29.2746 H   0  0  0  0  0  0  0  0  0  0  0  0
   -0.3082   23.3320  -27.9305 H   0  0  0  0  0  0  0  0  0  0  0  0
   -1.8819   22.7064  -26.4262 H   0  0  0  0  0  0  0  0  0  0  0  0
   -3.7840   20.7369  -27.2596 H   0  0  0  0  0  0  0  0  0  0  0  0
   -3.5739   21.0595  -28.7669 H   0  0  0  0  0  0  0  0  0  0  0  0
   -1.3645   19.8959  -26.7065 H   0  0  0  0  0  0  0  0  0  0  0  0
   -0.7339   20.0723  -28.1176 H   0  0  0  0  0  0  0  0  0  0  0  0
   -2.5593   22.9595  -30.8259 H   0  0  0  0  0  0  0  0  0  0  0  0
   -4.5175   22.4241  -32.2748 H   0  0  0  0  0  0  0  0  0  0  0  0
   -5.8564   20.8408  -32.0249 H   0  0  0  0  0  0  0  0  0  0  0  0
  1  2  1  0
  2  3  1  0
  2  4  1  0
  4  5  2  0
  4  6  2  0
  4  7  1  0
  7  8  2  0
  8  9  1  0
  9 10  2  0
 10 11  1  0
 11 12  1  0
 12 13  1  0
 13 14  2  0
 14 15  1  0
 15 16  2  0
 16 17  1  0
 17 18  2  0
 17 19  2  0
 17 20  1  0
 20 21  1  0
 21 22  1  0
 22 23  1  0
 16 24  1  0
 24 25  2  0
 11 26  2  0
 26  7  1  0
 25 13  1  0
 23 21  1  0
  1 27  1  0
  1 28  1  0
  1 29  1  0
  3 30  1  0
  3 31  1  0
  3 32  1  0
  8 33  1  0
  9 34  1  0
 10 35  1  0
 14 36  1  0
 15 37  1  0
 20 38  1  0
 20 39  1  0
 21 40  1  0
 22 41  1  0
 22 42  1  0
 23 43  1  0
 23 44  1  0
 24 45  1  0
 25 46  1  0
 26 47  1  0
M  END
>  <UniqueID>  (14) 
13

>  <SMILES>  (14) 
CN(C)S(=O)(=O)c1cccc(Oc2ccc(S(=O)(=O)CC3CC3)cc2)c1

>  <Energy>  (14) 
311.62807350805843

>  <Genealogy>  (14) 
CN(C)S(=O)(=O)c1cccc(Oc2ccc(S(=O)(=O)CC3CC3)cc2)c1 (3D coordinates assigned)
CN(C)S(=O)(=O)c1cccc(Oc2ccc(S(=O)(=O)CC3CC3)cc2)c1 (nonaromatic ring conformer: 311.62807350805843 kcal/mol)

>  <smiles>  (14) 
CN(C)S(=O)(=O)c1cccc(Oc2ccc(S(=O)(=O)CC3CC3)cc2)c1

>  <score_type>  (14) 
oracle

>  <origin>  (14) 
adgpu

>  <m_score__min__energy>  (14) 
-9.4600000000000009

>  <m_primary>  (14) 
energy

$$$$
14:0
     RDKit          3D

 49 52  0  0  0  0  0  0  0  0999 V2000
   -3.0277   16.1154  -35.0486 H   0  0  0  0  0  0  0  0  0  0  0  0
   -3.6890   16.8690  -34.5960 C   0  0  0  0  0  0  0  0  0  0  0  0
   -3.2330   18.1750  -34.4110 C   0  0  0  0  0  0  0  0  0  0  0  0
   -2.2109   18.4477  -34.7127 H   0  0  0  0  0  0  0  0  0  0  0  0
   -4.0730   19.1370  -33.8430 C   0  0  0  0  0  0  0  0  0  0  0  0
   -3.7062   20.1626  -33.6895 H   0  0  0  0  0  0  0  0  0  0  0  0
   -5.3850   18.7990  -33.4670 C   0  0  0  0  0  0  0  0  0  0  0  0
   -5.8340   17.4700  -33.6230 C   0  0  0  0  0  0  0  0  0  0  0  0
   -4.9850   16.5170  -34.2070 C   0  0  0  0  0  0  0  0  0  0  0  0
   -5.3412   15.4875  -34.3595 H   0  0  0  0  0  0  0  0  0  0  0  0
   -7.2420   17.0790  -33.2540 C   0  0  0  0  0  0  0  0  0  0  0  0
   -7.2179   16.1060  -32.7415 H   0  0  0  0  0  0  0  0  0  0  0  0
   -7.8341   17.0259  -34.1795 H   0  0  0  0  0  0  0  0  0  0  0  0
   -7.9000   18.1110  -32.3280 C   0  0  0  0  0  0  0  0  0  0  0  0
   -7.4619   18.0265  -31.3226 H   0  0  0  0  0  0  0  0  0  0  0  0
   -8.9816   17.9146  -32.2882 H   0  0  0  0  0  0  0  0  0  0  0  0
   -7.6820   19.4770  -32.8390 N   0  0  1  0  0  0  0  0  0  0  0  0
   -8.0130   19.5370  -33.8330 H   0  0  0  0  0  0  0  0  0  0  0  0
   -8.6190   20.6220  -31.9090 S   0  0  0  0  0  0  0  0  0  0  0  0
   -9.8090   21.0720  -32.7120 O   0  0  0  0  0  0  0  0  0  0  0  0
   -9.1250   19.9580  -30.6570 O   0  0  0  0  0  0  0  0  0  0  0  0
   -7.6460   22.0280  -31.4710 C   0  0  0  0  0  0  0  0  0  0  0  0
   -7.0810   22.1290  -30.1910 C   0  0  0  0  0  0  0  0  0  0  0  0
   -7.3052   21.3660  -29.4311 H   0  0  0  0  0  0  0  0  0  0  0  0
   -6.2340   23.1960  -29.8780 C   0  0  0  0  0  0  0  0  0  0  0  0
   -5.8091   23.2805  -28.8669 H   0  0  0  0  0  0  0  0  0  0  0  0
   -5.9240   24.1600  -30.8500 C   0  0  0  0  0  0  0  0  0  0  0  0
   -4.9570   25.2380  -30.5520 C   0  0  0  0  0  0  0  0  0  0  0  0
   -5.3630   26.4280  -30.4690 O   0  0  0  0  0  0  0  0  0  0  0  0
   -3.5530   24.9710  -30.3980 N   0  0  0  0  0  0  0  0  0  0  0  0
   -3.0030   24.4310  -29.3510 C   0  0  0  0  0  0  0  0  0  0  0  0
   -3.6660   24.1300  -28.2110 N   0  0  0  0  0  0  0  0  0  0  0  0
   -2.8770   23.6110  -27.2700 N   0  0  0  0  0  0  0  0  0  0  0  0
   -1.5850   23.5070  -27.6570 C   0  0  0  0  0  0  0  0  0  0  0  0
   -0.5100   22.9240  -26.7950 C   0  0  0  0  0  0  0  0  0  0  0  0
   -0.2936   23.6175  -25.9690 H   0  0  0  0  0  0  0  0  0  0  0  0
    0.3898   22.7685  -27.4083 H   0  0  0  0  0  0  0  0  0  0  0  0
   -0.9500   21.5800  -26.2190 C   0  0  0  0  0  0  0  0  0  0  0  0
   -0.9339   21.6291  -25.1202 H   0  0  0  0  0  0  0  0  0  0  0  0
   -1.9701   21.3508  -26.5609 H   0  0  0  0  0  0  0  0  0  0  0  0
   -0.2629   20.7919  -26.5609 H   0  0  0  0  0  0  0  0  0  0  0  0
   -1.3640   24.0720  -29.2330 S   0  0  0  0  0  0  0  0  0  0  0  0
   -6.5250   24.0800  -32.1160 C   0  0  0  0  0  0  0  0  0  0  0  0
   -6.3177   24.8532  -32.8704 H   0  0  0  0  0  0  0  0  0  0  0  0
   -7.3850   23.0230  -32.4220 C   0  0  0  0  0  0  0  0  0  0  0  0
   -7.8591   22.9716  -33.4133 H   0  0  0  0  0  0  0  0  0  0  0  0
   -6.2500   19.8310  -32.7830 C   0  0  0  0  0  0  0  0  0  0  0  0
   -5.9443   19.9086  -31.7292 H   0  0  0  0  0  0  0  0  0  0  0  0
   -6.1159   20.7885  -33.3077 H   0  0  0  0  0  0  0  0  0  0  0  0
  1  2  1  0
  2  3  2  0
  3  4  1  0
  3  5  1  0
  5  6  1  0
  5  7  2  0
  7  8  1  0
  8  9  2  0
  9 10  1  0
  8 11  1  0
 11 12  1  0
 11 13  1  0
 11 14  1  0
 14 15  1  0
 14 16  1  0
 14 17  1  0
 17 18  1  6
 17 19  1  0
 19 20  2  0
 19 21  2  0
 19 22  1  0
 22 23  2  0
 23 24  1  0
 23 25  1  0
 25 26  1  0
 25 27  2  0
 27 28  1  0
 28 29  2  0
 28 30  1  0
 30 31  2  0
 31 32  1  0
 32 33  1  0
 33 34  2  0
 34 35  1  0
 35 36  1  0
 35 37  1  0
 35 38  1  0
 38 39  1  0
 38 40  1  0
 38 41  1  0
 34 42  1  0
 27 43  1  0
 43 44  1  0
 43 45  2  0
 45 46  1  0
 17 47  1  0
 47 48  1  0
 47 49  1  0
  9  2  1  0
 45 22  1  0
 47  7  1  0
 42 31  1  0
M  CHG  2  17   1  32  -1
M  END
>  <UniqueID>  (15) 
14

>  <SMILES>  (15) 
CCc1n[n-]/c(=N\C(=O)c2ccc(S(=O)(=O)[N@@H+]3CCc4ccccc4C3)cc2)s1

>  <Energy>  (15) 
91.09229301197308

>  <Genealogy>  (15) 
CCc1n[n-]c(=NC(=O)c2ccc(S(=O)(=O)[NH+]3CCc4ccccc4C3)cc2)s1 (protonated)
CCc1n[n-]c(=NC(=O)c2ccc(S(=O)(=O)[N@@H+]3CCc4ccccc4C3)cc2)s1 (chirality)
CCc1n[n-]/c(=N\C(=O)c2ccc(S(=O)(=O)[N@@H+]3CCc4ccccc4C3)cc2)s1 (cis-trans isomerization)
CCc1n[n-]/c(=N\C(=O)c2ccc(S(=O)(=O)[N@@H+]3CCc4ccccc4C3)cc2)s1 (3D coordinates assigned)
CCc1n[n-]/c(=N\C(=O)c2ccc(S(=O)(=O)[N@@H+]3CCc4ccccc4C3)cc2)s1 (nonaromatic ring conformer: 91.09229301197308 kcal/mol)

>  <smiles>  (15) 
CCc1n[nH]c(=NC(=O)c2ccc(S(=O)(=O)N3CCc4ccccc4C3)cc2)s1

>  <score_type>  (15) 
oracle

>  <origin>  (15) 
adgpu

>  <m_score__min__energy>  (15) 
-11.890000000000001

>  <m_primary>  (15) 
energy

$$$$
15:0
     RDKit          3D

 40 43  0  0  0  0  0  0  0  0999 V2000
   -5.3700   15.7730  -31.4990 N   0  0  0  0  0  0  0  0  0  0  0  0
   -5.6970   16.8480  -32.3840 C   0  0  0  0  0  0  0  0  0  0  0  0
   -5.2490   16.8300  -33.7120 C   0  0  0  0  0  0  0  0  0  0  0  0
   -5.5690   17.8810  -34.5770 C   0  0  0  0  0  0  0  0  0  0  0  0
   -6.3370   18.9560  -34.1200 C   0  0  0  0  0  0  0  0  0  0  0  0
   -6.7860   18.9840  -32.7920 C   0  0  0  0  0  0  0  0  0  0  0  0
   -7.5760   20.0930  -32.3210 N   0  0  0  0  0  0  0  0  0  0  0  0
   -8.9430   20.0190  -32.4370 C   0  0  0  0  0  0  0  0  0  0  0  0
   -9.4890   19.0050  -32.9550 O   0  0  0  0  0  0  0  0  0  0  0  0
   -9.7520   21.0600  -31.9800 C   0  0  0  0  0  0  0  0  0  0  0  0
   -9.1750   22.1810  -31.3970 C   0  0  0  0  0  0  0  0  0  0  0  0
   -7.7860   22.2670  -31.2770 C   0  0  0  0  0  0  0  0  0  0  0  0
   -7.1960   23.3990  -30.6940 C   0  0  0  0  0  0  0  0  0  0  0  0
   -5.8050   23.4890  -30.5780 C   0  0  0  0  0  0  0  0  0  0  0  0
   -5.0630   24.9050  -29.8390 S   0  0  0  0  0  0  0  0  0  0  0  0
   -4.1800   25.5780  -30.8510 O   0  0  0  0  0  0  0  0  0  0  0  0
   -6.1150   25.8770  -29.3810 O   0  0  0  0  0  0  0  0  0  0  0  0
   -4.1040   24.4270  -28.4740 N   0  0  0  0  0  0  0  0  0  0  0  0
   -2.8300   24.6510  -28.3920 C   0  0  0  0  0  0  0  0  0  0  0  0
   -2.0390   24.2950  -27.3270 C   0  0  0  0  0  0  0  0  0  0  0  0
   -0.7900   24.7450  -27.7000 C   0  0  0  0  0  0  0  0  0  0  0  0
   -0.8810   25.3090  -28.8850 O   0  0  0  0  0  0  0  0  0  0  0  0
   -2.1010   25.2720  -29.3390 N   0  0  0  0  0  0  0  0  0  0  0  0
   -5.0010   22.4530  -31.0580 C   0  0  0  0  0  0  0  0  0  0  0  0
   -5.5760   21.3210  -31.6400 C   0  0  0  0  0  0  0  0  0  0  0  0
   -6.9800   21.2020  -31.7530 C   0  0  0  0  0  0  0  0  0  0  0  0
   -6.4670   17.9270  -31.9270 C   0  0  0  0  0  0  0  0  0  0  0  0
   -5.5120   15.8680  -30.4680 H   0  0  0  0  0  0  0  0  0  0  0  0
   -4.9850   14.8750  -31.8680 H   0  0  0  0  0  0  0  0  0  0  0  0
   -4.6437   15.9863  -34.0749 H   0  0  0  0  0  0  0  0  0  0  0  0
   -5.2159   17.8619  -35.6186 H   0  0  0  0  0  0  0  0  0  0  0  0
   -6.5893   19.7807  -34.8029 H   0  0  0  0  0  0  0  0  0  0  0  0
  -10.8453   20.9930  -32.0813 H   0  0  0  0  0  0  0  0  0  0  0  0
   -9.8112   23.0000  -31.0303 H   0  0  0  0  0  0  0  0  0  0  0  0
   -7.8303   24.2192  -30.3266 H   0  0  0  0  0  0  0  0  0  0  0  0
   -2.3309   23.7769  -26.4016 H   0  0  0  0  0  0  0  0  0  0  0  0
    0.1302   24.6483  -27.1051 H   0  0  0  0  0  0  0  0  0  0  0  0
   -3.9066   22.5290  -30.9771 H   0  0  0  0  0  0  0  0  0  0  0  0
   -4.9295   20.5136  -32.0144 H   0  0  0  0  0  0  0  0  0  0  0  0
   -6.8223   17.9446  -30.8861 H   0  0  0  0  0  0  0  0  0  0  0  0
  1  2  1  0
  2  3  2  0
  3  4  1  0
  4  5  2  0
  5  6  1  0
  6  7  1  0
  7  8  1  0
  8  9  2  0
  8 10  1  0
 10 11  2  0
 11 12  1  0
 12 13  2  0
 13 14  1  0
 14 15  1  0
 15 16  2  0
 15 17  2  0
 15 18  1  0
 18 19  2  3
 19 20  1  0
 20 21  2  0
 21 22  1  0
 22 23  1  0
 14 24  2  0
 24 25  1  0
 25 26  2  0
  6 27  2  0
 27  2  1  0
 26  7  1  0
 26 12  1  0
 23 19  1  0
  1 28  1  0
  1 29  1  0
  3 30  1  0
  4 31  1  0
  5 32  1  0
 10 33  1  0
 11 34  1  0
 13 35  1  0
 20 36  1  0
 21 37  1  0
 24 38  1  0
 25 39  1  0
 27 40  1  0
M  CHG  1  23  -1
M  END
>  <UniqueID>  (16) 
15

>  <SMILES>  (16) 
Nc1cccc(-n2c(=O)ccc3cc(S(=O)(=O)N=c4cco[n-]4)ccc32)c1

>  <Energy>  (16) 
92.71582099976725

>  <Genealogy>  (16) 
Nc1cccc(-n2c(=O)ccc3cc(S(=O)(=O)N=c4cco[n-]4)ccc32)c1 (protonated)
Nc1cccc(-n2c(=O)ccc3cc(S(=O)(=O)N=c4cco[n-]4)ccc32)c1 (3D coordinates assigned)
Nc1cccc(-n2c(=O)ccc3cc(S(=O)(=O)N=c4cco[n-]4)ccc32)c1 (optimized conformer: 92.71582099976725 kcal/mol)

>  <smiles>  (16) 
Nc1cccc(-n2c(=O)ccc3cc(S(=O)(=O)N=c4cco[nH]4)ccc32)c1

>  <score_type>  (16) 
oracle

>  <origin>  (16) 
adgpu

>  <m_score__min__energy>  (16) 
-12.460000000000001

>  <m_primary>  (16) 
energy

$$$$
16:0
     RDKit          3D

 47 49  0  0  0  0  0  0  0  0999 V2000
    1.8850   19.3460  -32.6310 C   0  0  0  0  0  0  0  0  0  0  0  0
    0.7710   19.5350  -31.7640 O   0  0  0  0  0  0  0  0  0  0  0  0
   -0.5270   19.8550  -32.1950 C   0  0  0  0  0  0  0  0  0  0  0  0
   -1.4660   18.8220  -32.3170 C   0  0  0  0  0  0  0  0  0  0  0  0
   -2.7640   19.0900  -32.7630 C   0  0  0  0  0  0  0  0  0  0  0  0
   -3.1500   20.4050  -33.0730 C   0  0  0  0  0  0  0  0  0  0  0  0
   -4.4730   20.7230  -33.5360 N   0  0  0  0  0  0  0  0  0  0  0  0
   -5.8940   20.8050  -32.5490 S   0  0  0  0  0  0  0  0  0  0  0  0
   -7.1070   20.6940  -33.4290 O   0  0  0  0  0  0  0  0  0  0  0  0
   -5.9010   19.6490  -31.5890 O   0  0  0  0  0  0  0  0  0  0  0  0
   -5.9610   22.3360  -31.6850 C   0  0  0  0  0  0  0  0  0  0  0  0
   -7.1900   22.9400  -31.3910 C   0  0  0  0  0  0  0  0  0  0  0  0
   -7.2290   24.1710  -30.7380 C   0  0  0  0  0  0  0  0  0  0  0  0
   -6.0380   24.8260  -30.3960 C   0  0  0  0  0  0  0  0  0  0  0  0
   -6.0770   26.0650  -29.7600 O   0  0  0  0  0  0  0  0  0  0  0  0
   -4.8020   24.2350  -30.6980 C   0  0  0  0  0  0  0  0  0  0  0  0
   -3.6010   24.9440  -30.3680 N   0  0  0  0  0  0  0  0  0  0  0  0
   -2.6220   24.6620  -28.9600 S   0  0  0  0  0  0  0  0  0  0  0  0
   -3.4610   24.8800  -27.7300 O   0  0  0  0  0  0  0  0  0  0  0  0
   -1.4810   25.6340  -28.9570 O   0  0  0  0  0  0  0  0  0  0  0  0
   -1.9640   23.0280  -28.9950 C   0  0  0  0  0  0  0  0  0  0  0  0
   -0.5920   22.8160  -29.2010 C   0  0  0  0  0  0  0  0  0  0  0  0
   -0.0780   21.5150  -29.2040 C   0  0  0  0  0  0  0  0  0  0  0  0
   -0.9250   20.4160  -28.9970 C   0  0  0  0  0  0  0  0  0  0  0  0
   -0.3960   19.0870  -28.9910 N   0  0  0  0  0  0  0  0  0  0  0  0
   -2.2970   20.6280  -28.8030 C   0  0  0  0  0  0  0  0  0  0  0  0
   -2.8160   21.9280  -28.8060 C   0  0  0  0  0  0  0  0  0  0  0  0
   -4.7690   22.9800  -31.3270 C   0  0  0  0  0  0  0  0  0  0  0  0
   -2.2210   21.4420  -32.9300 C   0  0  0  0  0  0  0  0  0  0  0  0
   -0.9150   21.1730  -32.5090 C   0  0  0  0  0  0  0  0  0  0  0  0
    2.7942   19.1917  -32.0314 H   0  0  0  0  0  0  0  0  0  0  0  0
    1.7104   18.4647  -33.2656 H   0  0  0  0  0  0  0  0  0  0  0  0
    2.0108   20.2356  -33.2656 H   0  0  0  0  0  0  0  0  0  0  0  0
   -1.1796   17.7916  -32.0598 H   0  0  0  0  0  0  0  0  0  0  0  0
   -3.4862   18.2675  -32.8717 H   0  0  0  0  0  0  0  0  0  0  0  0
   -8.1279   22.4412  -31.6764 H   0  0  0  0  0  0  0  0  0  0  0  0
   -8.1976   24.6298  -30.4903 H   0  0  0  0  0  0  0  0  0  0  0  0
   -5.3670   26.3430  -29.0910 H   0  0  0  0  0  0  0  0  0  0  0  0
    0.0791   23.6729  -29.3601 H   0  0  0  0  0  0  0  0  0  0  0  0
    0.9973   21.3526  -29.3697 H   0  0  0  0  0  0  0  0  0  0  0  0
   -0.5120   18.4700  -28.1580 H   0  0  0  0  0  0  0  0  0  0  0  0
    0.1480   18.7250  -29.8060 H   0  0  0  0  0  0  0  0  0  0  0  0
   -2.9678   19.7701  -28.6479 H   0  0  0  0  0  0  0  0  0  0  0  0
   -3.8944   22.0883  -28.6599 H   0  0  0  0  0  0  0  0  0  0  0  0
   -3.8025   22.4999  -31.5398 H   0  0  0  0  0  0  0  0  0  0  0  0
   -2.5207   22.4771  -33.1506 H   0  0  0  0  0  0  0  0  0  0  0  0
   -0.1874   21.9935  -32.4225 H   0  0  0  0  0  0  0  0  0  0  0  0
  1  2  1  0
  2  3  1  0
  3  4  2  0
  4  5  1  0
  5  6  2  0
  6  7  1  0
  7  8  1  0
  8  9  2  0
  8 10  2  0
  8 11  1  0
 11 12  2  0
 12 13  1  0
 13 14  2  0
 14 15  1  0
 14 16  1  0
 16 17  1  0
 17 18  1  0
 18 19  2  0
 18 20  2  0
 18 21  1  0
 21 22  2  0
 22 23  1  0
 23 24  2  0
 24 25  1  0
 24 26  1  0
 26 27  2  0
 16 28  2  0
  6 29  1  0
 29 30  2  0
 30  3  1  0
 28 11  1  0
 27 21  1  0
  1 31  1  0
  1 32  1  0
  1 33  1  0
  4 34  1  0
  5 35  1  0
 12 36  1  0
 13 37  1  0
 15 38  1  0
 22 39  1  0
 23 40  1  0
 25 41  1  0
 25 42  1  0
 26 43  1  0
 27 44  1  0
 28 45  1  0
 29 46  1  0
 30 47  1  0
M  CHG  2   7  -1  17  -1
M  END
>  <UniqueID>  (17) 
16

>  <SMILES>  (17) 
COc1ccc([N-]S(=O)(=O)c2ccc(O)c([N-]S(=O)(=O)c3ccc(N)cc3)c2)cc1

>  <Energy>  (17) 
54.45508948195656

>  <Genealogy>  (17) 
COc1ccc([N-]S(=O)(=O)c2ccc(O)c([N-]S(=O)(=O)c3ccc(N)cc3)c2)cc1 (protonated)
COc1ccc([N-]S(=O)(=O)c2ccc(O)c([N-]S(=O)(=O)c3ccc(N)cc3)c2)cc1 (3D coordinates assigned)
COc1ccc([N-]S(=O)(=O)c2ccc(O)c([N-]S(=O)(=O)c3ccc(N)cc3)c2)cc1 (optimized conformer: 54.45508948195656 kcal/mol)

>  <smiles>  (17) 
COc1ccc(NS(=O)(=O)c2ccc(O)c(NS(=O)(=O)c3ccc(N)cc3)c2)cc1

>  <score_type>  (17) 
oracle

>  <origin>  (17) 
adgpu

>  <m_score__min__energy>  (17) 
-10.199999999999999

>  <m_primary>  (17) 
energy

$$$$
17:0
     RDKit          3D

 63 66  0  0  0  0  0  0  0  0999 V2000
   -1.1540   19.3920  -27.8980 C   0  0  0  0  0  0  0  0  0  0  0  0
   -1.4080   20.8270  -28.2780 C   0  0  0  0  0  0  0  0  0  0  0  0
   -2.1320   21.6470  -27.3970 C   0  0  0  0  0  0  0  0  0  0  0  0
   -2.4130   22.9730  -27.7240 C   0  0  0  0  0  0  0  0  0  0  0  0
   -1.9870   23.5070  -28.9470 C   0  0  0  0  0  0  0  0  0  0  0  0
   -2.2890   24.9150  -29.3050 C   0  0  0  0  0  0  0  0  0  0  0  0
   -1.4880   25.8250  -28.9620 O   0  0  0  0  0  0  0  0  0  0  0  0
   -3.4850   25.2870  -30.0060 N   0  0  0  0  0  0  0  0  0  0  0  0
   -4.5140   24.3990  -30.4670 C   0  0  0  0  0  0  0  0  0  0  0  0
   -4.2320   23.3110  -31.3090 C   0  0  0  0  0  0  0  0  0  0  0  0
   -5.2640   22.4800  -31.7580 C   0  0  0  0  0  0  0  0  0  0  0  0
   -6.5990   22.7460  -31.4070 C   0  0  0  0  0  0  0  0  0  0  0  0
   -7.7170   21.8480  -31.8970 C   0  0  0  0  0  0  0  0  0  0  0  0
   -7.6480   20.4610  -31.3830 N   0  0  0  0  0  0  0  0  0  0  0  0
   -8.8510   19.6400  -31.6530 C   0  0  0  0  0  0  0  0  0  0  0  0
   -8.5900   18.5880  -32.7400 C   0  0  0  0  0  0  0  0  0  0  0  0
   -7.5000   17.6560  -32.3560 N   0  0  0  0  0  0  0  0  0  0  0  0
   -6.8760   17.0710  -33.5540 C   0  0  0  0  0  0  0  0  0  0  0  0
   -6.4800   18.2680  -31.4660 C   0  0  0  0  0  0  0  0  0  0  0  0
   -6.3650   19.7840  -31.6730 C   0  0  0  0  0  0  0  0  0  0  0  0
   -6.8750   23.8330  -30.5620 C   0  0  0  0  0  0  0  0  0  0  0  0
   -5.8420   24.6590  -30.1080 C   0  0  0  0  0  0  0  0  0  0  0  0
   -1.2400   22.7020  -29.8230 C   0  0  0  0  0  0  0  0  0  0  0  0
   -0.9380   21.3620  -29.5050 C   0  0  0  0  0  0  0  0  0  0  0  0
   -0.1580   20.5480  -30.4120 N   0  0  0  0  0  0  0  0  0  0  0  0
   -0.0900   20.7910  -31.8550 C   0  0  0  0  0  0  0  0  0  0  0  0
   -1.3180   20.2530  -32.5420 C   0  0  0  0  0  0  0  0  0  0  0  0
   -1.4890   18.8700  -32.7140 C   0  0  0  0  0  0  0  0  0  0  0  0
   -2.6530   18.3730  -33.3120 C   0  0  0  0  0  0  0  0  0  0  0  0
   -3.6580   19.2520  -33.7250 C   0  0  0  0  0  0  0  0  0  0  0  0
   -3.5020   20.6290  -33.5410 C   0  0  0  0  0  0  0  0  0  0  0  0
   -2.3380   21.1290  -32.9480 C   0  0  0  0  0  0  0  0  0  0  0  0
   -1.1378   19.3003  -26.8019 H   0  0  0  0  0  0  0  0  0  0  0  0
   -1.9538   18.7572  -28.3073 H   0  0  0  0  0  0  0  0  0  0  0  0
   -0.1850   19.0703  -28.3073 H   0  0  0  0  0  0  0  0  0  0  0  0
   -2.4816   21.2382  -26.4375 H   0  0  0  0  0  0  0  0  0  0  0  0
   -2.9726   23.6036  -27.0174 H   0  0  0  0  0  0  0  0  0  0  0  0
   -3.1950   23.1113  -31.6169 H   0  0  0  0  0  0  0  0  0  0  0  0
   -5.0289   21.6115  -32.3908 H   0  0  0  0  0  0  0  0  0  0  0  0
   -8.6754   22.2861  -31.5813 H   0  0  0  0  0  0  0  0  0  0  0  0
   -7.6177   21.7861  -32.9908 H   0  0  0  0  0  0  0  0  0  0  0  0
   -9.1483   19.1281  -30.7259 H   0  0  0  0  0  0  0  0  0  0  0  0
   -9.6490   20.3086  -32.0083 H   0  0  0  0  0  0  0  0  0  0  0  0
   -9.5113   18.0098  -32.9043 H   0  0  0  0  0  0  0  0  0  0  0  0
   -8.2834   19.1129  -33.6568 H   0  0  0  0  0  0  0  0  0  0  0  0
   -6.1048   16.3480  -33.2498 H   0  0  0  0  0  0  0  0  0  0  0  0
   -7.6427   16.5587  -34.1537 H   0  0  0  0  0  0  0  0  0  0  0  0
   -6.4142   17.8691  -34.1537 H   0  0  0  0  0  0  0  0  0  0  0  0
   -6.7599   18.0735  -30.4201 H   0  0  0  0  0  0  0  0  0  0  0  0
   -5.5059   17.8190  -31.7098 H   0  0  0  0  0  0  0  0  0  0  0  0
   -5.5898   20.1804  -31.0007 H   0  0  0  0  0  0  0  0  0  0  0  0
   -6.1001   19.9736  -32.7237 H   0  0  0  0  0  0  0  0  0  0  0  0
   -7.9115   24.0363  -30.2549 H   0  0  0  0  0  0  0  0  0  0  0  0
   -6.0746   25.5197  -29.4638 H   0  0  0  0  0  0  0  0  0  0  0  0
   -0.8843   23.1247  -30.7742 H   0  0  0  0  0  0  0  0  0  0  0  0
    0.3900   19.7440  -30.0320 H   0  0  0  0  0  0  0  0  0  0  0  0
   -0.0195   21.8737  -32.0363 H   0  0  0  0  0  0  0  0  0  0  0  0
    0.7955   20.2788  -32.2594 H   0  0  0  0  0  0  0  0  0  0  0  0
   -0.7057   18.1748  -32.3777 H   0  0  0  0  0  0  0  0  0  0  0  0
   -2.7768   17.2896  -33.4570 H   0  0  0  0  0  0  0  0  0  0  0  0
   -4.5721   18.8602  -34.1950 H   0  0  0  0  0  0  0  0  0  0  0  0
   -4.2952   21.3198  -33.8628 H   0  0  0  0  0  0  0  0  0  0  0  0
   -2.2210   22.2126  -32.7991 H   0  0  0  0  0  0  0  0  0  0  0  0
  1  2  1  0
  2  3  2  0
  3  4  1  0
  4  5  2  0
  5  6  1  0
  6  7  2  0
  6  8  1  0
  8  9  1  0
  9 10  2  0
 10 11  1  0
 11 12  2  0
 12 13  1  0
 13 14  1  0
 14 15  1  0
 15 16  1  0
 16 17  1  0
 17 18  1  0
 17 19  1  0
 19 20  1  0
 12 21  1  0
 21 22  2  0
  5 23  1  0
 23 24  2  0
 24 25  1  0
 25 26  1  0
 26 27  1  0
 27 28  2  0
 28 29  1  0
 29 30  2  0
 30 31  1  0
 31 32  2  0
 24  2  1  0
 32 27  1  0
 22  9  1  0
 20 14  1  0
  1 33  1  0
  1 34  1  0
  1 35  1  0
  3 36  1  0
  4 37  1  0
 10 38  1  0
 11 39  1  0
 13 40  1  0
 13 41  1  0
 15 42  1  0
 15 43  1  0
 16 44  1  0
 16 45  1  0
 18 46  1  0
 18 47  1  0
 18 48  1  0
 19 49  1  0
 19 50  1  0
 20 51  1  0
 20 52  1  0
 21 53  1  0
 22 54  1  0
 23 55  1  0
 25 56  1  0
 26 57  1  0
 26 58  1  0
 28 59  1  0
 29 60  1  0
 30 61  1  0
 31 62  1  0
 32 63  1  0
M  CHG  1   8  -1
M  END
>  <UniqueID>  (18) 
17

>  <SMILES>  (18) 
Cc1ccc(C(=O)[N-]c2ccc(CN3CCN(C)CC3)cc2)cc1NCc1ccccc1

>  <Energy>  (18) 
88.4057383447718

>  <Genealogy>  (18) 
Cc1ccc(C(=O)[N-]c2ccc(CN3CCN(C)CC3)cc2)cc1NCc1ccccc1 (protonated)
Cc1ccc(C(=O)[N-]c2ccc(CN3CCN(C)CC3)cc2)cc1NCc1ccccc1 (3D coordinates assigned)
Cc1ccc(C(=O)[N-]c2ccc(CN3CCN(C)CC3)cc2)cc1NCc1ccccc1 (nonaromatic ring conformer: 88.4057383447718 kcal/mol)

>  <smiles>  (18) 
Cc1ccc(C(=O)Nc2ccc(CN3CCN(C)CC3)cc2)cc1NCc1ccccc1

>  <score_type>  (18) 
oracle

>  <origin>  (18) 
adgpu

>  <m_score__min__energy>  (18) 
-11.789999999999999

>  <m_primary>  (18) 
energy

$$$$
18:0
     RDKit          3D

 42 44  0  0  0  0  0  0  0  0999 V2000
   -1.5780   25.3250  -28.1450 C   0  0  0  0  0  0  0  0  0  0  0  0
   -2.3370   24.8230  -29.2400 O   0  0  0  0  0  0  0  0  0  0  0  0
   -2.5480   23.4590  -29.4980 C   0  0  0  0  0  0  0  0  0  0  0  0
   -2.9120   22.6310  -28.4310 C   0  0  0  0  0  0  0  0  0  0  0  0
   -3.1410   21.2700  -28.6370 C   0  0  0  0  0  0  0  0  0  0  0  0
   -2.9990   20.7200  -29.9130 C   0  0  0  0  0  0  0  0  0  0  0  0
   -2.6150   21.5290  -30.9950 C   0  0  0  0  0  0  0  0  0  0  0  0
   -2.4680   20.9630  -32.3550 C   0  0  0  0  0  0  0  0  0  0  0  0
   -1.3140   21.0470  -33.0540 N   0  0  0  0  0  0  0  0  0  0  0  0
   -1.5780   20.4130  -34.2140 C   0  0  0  0  0  0  0  0  0  0  0  0
   -2.8720   19.9460  -34.2010 C   0  0  0  0  0  0  0  0  0  0  0  0
   -3.4350   20.3030  -33.0350 N   0  0  0  0  0  0  0  0  0  0  0  0
   -4.7080   19.8500  -32.5520 C   0  0  0  0  0  0  0  0  0  0  0  0
   -4.9140   18.4780  -32.3430 C   0  0  0  0  0  0  0  0  0  0  0  0
   -6.1370   18.0130  -31.8550 C   0  0  0  0  0  0  0  0  0  0  0  0
   -7.1640   18.9140  -31.5730 C   0  0  0  0  0  0  0  0  0  0  0  0
   -6.9670   20.2840  -31.7670 C   0  0  0  0  0  0  0  0  0  0  0  0
   -5.7360   20.7680  -32.2430 C   0  0  0  0  0  0  0  0  0  0  0  0
   -5.5240   22.1800  -32.4090 N   0  0  0  0  0  0  0  0  0  0  0  0
   -5.6190   23.1230  -31.3300 C   0  0  0  0  0  0  0  0  0  0  0  0
   -5.7600   22.7270  -30.1420 O   0  0  0  0  0  0  0  0  0  0  0  0
   -5.4580   24.5870  -31.6010 C   0  0  0  0  0  0  0  0  0  0  0  0
   -4.4180   25.1390  -30.7390 N   0  0  0  0  0  0  0  0  0  0  0  0
   -2.4060   22.9020  -30.7850 C   0  0  0  0  0  0  0  0  0  0  0  0
   -2.0478   25.0143  -27.2002 H   0  0  0  0  0  0  0  0  0  0  0  0
   -0.5544   24.9252  -28.1944 H   0  0  0  0  0  0  0  0  0  0  0  0
   -1.5454   26.4234  -28.1944 H   0  0  0  0  0  0  0  0  0  0  0  0
   -3.0185   23.0559  -27.4220 H   0  0  0  0  0  0  0  0  0  0  0  0
   -3.4340   20.6288  -27.7926 H   0  0  0  0  0  0  0  0  0  0  0  0
   -3.1888   19.6481  -30.0713 H   0  0  0  0  0  0  0  0  0  0  0  0
   -0.8673   20.2881  -35.0442 H   0  0  0  0  0  0  0  0  0  0  0  0
   -3.3610   19.3783  -35.0064 H   0  0  0  0  0  0  0  0  0  0  0  0
   -4.1071   17.7641  -32.5649 H   0  0  0  0  0  0  0  0  0  0  0  0
   -6.2906   16.9359  -31.6929 H   0  0  0  0  0  0  0  0  0  0  0  0
   -8.1301   18.5457  -31.1975 H   0  0  0  0  0  0  0  0  0  0  0  0
   -7.7817   20.9891  -31.5455 H   0  0  0  0  0  0  0  0  0  0  0  0
   -5.1970   22.5360  -33.3340 H   0  0  0  0  0  0  0  0  0  0  0  0
   -5.1756   24.7344  -32.6539 H   0  0  0  0  0  0  0  0  0  0  0  0
   -6.4090   25.1005  -31.3963 H   0  0  0  0  0  0  0  0  0  0  0  0
   -3.4940   24.9200  -31.1780 H   0  0  0  0  0  0  0  0  0  0  0  0
   -4.4430   24.6270  -29.8280 H   0  0  0  0  0  0  0  0  0  0  0  0
   -2.1293   23.5476  -31.6315 H   0  0  0  0  0  0  0  0  0  0  0  0
  1  2  1  0
  2  3  1  0
  3  4  2  0
  4  5  1  0
  5  6  2  0
  6  7  1  0
  7  8  1  0
  8  9  2  0
  9 10  1  0
 10 11  2  0
 11 12  1  0
 12 13  1  0
 13 14  2  0
 14 15  1  0
 15 16  2  0
 16 17  1  0
 17 18  2  0
 18 19  1  0
 19 20  1  0
 20 21  2  0
 20 22  1  0
 22 23  1  0
  7 24  2  0
 24  3  1  0
 12  8  1  0
 18 13  1  0
  1 25  1  0
  1 26  1  0
  1 27  1  0
  4 28  1  0
  5 29  1  0
  6 30  1  0
 10 31  1  0
 11 32  1  0
 14 33  1  0
 15 34  1  0
 16 35  1  0
 17 36  1  0
 19 37  1  0
 22 38  1  0
 22 39  1  0
 23 40  1  0
 23 41  1  0
 24 42  1  0
M  END
>  <UniqueID>  (19) 
18

>  <SMILES>  (19) 
COc1cccc(-c2nccn2-c2ccccc2NC(=O)CN)c1

>  <Energy>  (19) 
83.95781973096264

>  <Genealogy>  (19) 
COc1cccc(-c2nccn2-c2ccccc2NC(=O)CN)c1 (3D coordinates assigned)
COc1cccc(-c2nccn2-c2ccccc2NC(=O)CN)c1 (optimized conformer: 83.95781973096264 kcal/mol)

>  <smiles>  (19) 
COc1cccc(-c2nccn2-c2ccccc2NC(=O)CN)c1

>  <score_type>  (19) 
oracle

>  <origin>  (19) 
adgpu

>  <m_score__min__energy>  (19) 
-8.2300000000000004

>  <m_primary>  (19) 
energy

$$$$
19:0
     RDKit          3D

 46 48  0  0  0  0  0  0  0  0999 V2000
   -3.5670   17.4080  -34.0840 C   0  0  0  0  0  0  0  0  0  0  0  0
   -4.8030   16.6780  -34.6010 C   0  0  0  0  0  0  0  0  0  0  0  0
   -5.8730   16.7650  -33.6590 O   0  0  0  0  0  0  0  0  0  0  0  0
   -6.4290   17.9560  -33.1620 C   0  0  0  0  0  0  0  0  0  0  0  0
   -6.4910   19.1440  -33.9180 C   0  0  0  0  0  0  0  0  0  0  0  0
   -7.0570   20.2990  -33.3690 C   0  0  0  0  0  0  0  0  0  0  0  0
   -7.5740   20.2820  -32.0680 C   0  0  0  0  0  0  0  0  0  0  0  0
   -8.2580   21.7460  -31.3710 S   0  0  0  0  0  0  0  0  0  0  0  0
   -8.9900   21.4130  -30.1000 O   0  0  0  0  0  0  0  0  0  0  0  0
   -9.2420   22.3600  -32.3280 O   0  0  0  0  0  0  0  0  0  0  0  0
   -6.9570   22.8830  -31.0390 C   0  0  0  0  0  0  0  0  0  0  0  0
   -6.7560   23.9880  -31.8720 C   0  0  0  0  0  0  0  0  0  0  0  0
   -5.7330   24.8970  -31.5950 C   0  0  0  0  0  0  0  0  0  0  0  0
   -4.9080   24.7160  -30.4810 C   0  0  0  0  0  0  0  0  0  0  0  0
   -3.8710   25.6160  -30.2610 O   0  0  0  0  0  0  0  0  0  0  0  0
   -5.1190   23.6220  -29.6150 C   0  0  0  0  0  0  0  0  0  0  0  0
   -4.2790   23.4090  -28.4110 C   0  0  0  0  0  0  0  0  0  0  0  0
   -4.3480   22.3100  -27.7960 O   0  0  0  0  0  0  0  0  0  0  0  0
   -3.4470   24.4640  -27.9010 N   0  0  0  0  0  0  0  0  0  0  0  0
   -2.3440   24.2510  -27.0030 C   0  0  0  0  0  0  0  0  0  0  0  0
   -2.0080   25.1970  -26.0150 C   0  0  0  0  0  0  0  0  0  0  0  0
   -0.9460   24.9540  -25.1390 C   0  0  0  0  0  0  0  0  0  0  0  0
   -0.2190   23.7630  -25.2300 C   0  0  0  0  0  0  0  0  0  0  0  0
   -0.5600   22.8100  -26.1930 C   0  0  0  0  0  0  0  0  0  0  0  0
   -1.6210   23.0490  -27.0710 C   0  0  0  0  0  0  0  0  0  0  0  0
   -6.1430   22.7040  -29.9130 C   0  0  0  0  0  0  0  0  0  0  0  0
   -7.5100   19.1050  -31.3130 C   0  0  0  0  0  0  0  0  0  0  0  0
   -6.9450   17.9500  -31.8600 C   0  0  0  0  0  0  0  0  0  0  0  0
   -3.5726   17.4047  -32.9840 H   0  0  0  0  0  0  0  0  0  0  0  0
   -2.6619   16.8995  -34.4476 H   0  0  0  0  0  0  0  0  0  0  0  0
   -3.5754   18.4461  -34.4476 H   0  0  0  0  0  0  0  0  0  0  0  0
   -5.1203   17.1336  -35.5506 H   0  0  0  0  0  0  0  0  0  0  0  0
   -4.5501   15.6181  -34.7512 H   0  0  0  0  0  0  0  0  0  0  0  0
   -6.0929   19.1627  -34.9432 H   0  0  0  0  0  0  0  0  0  0  0  0
   -7.0962   21.2247  -33.9618 H   0  0  0  0  0  0  0  0  0  0  0  0
   -7.4049   24.1414  -32.7469 H   0  0  0  0  0  0  0  0  0  0  0  0
   -5.5752   25.7609  -32.2574 H   0  0  0  0  0  0  0  0  0  0  0  0
   -3.7290   25.4490  -28.1070 H   0  0  0  0  0  0  0  0  0  0  0  0
   -2.5836   26.1308  -25.9324 H   0  0  0  0  0  0  0  0  0  0  0  0
   -0.6817   25.7014  -24.3764 H   0  0  0  0  0  0  0  0  0  0  0  0
    0.6205   23.5766  -24.5441 H   0  0  0  0  0  0  0  0  0  0  0  0
    0.0074   21.8700  -26.2604 H   0  0  0  0  0  0  0  0  0  0  0  0
   -1.8915   22.2904  -27.8203 H   0  0  0  0  0  0  0  0  0  0  0  0
   -6.3059   21.8374  -29.2554 H   0  0  0  0  0  0  0  0  0  0  0  0
   -7.9054   19.0893  -30.2867 H   0  0  0  0  0  0  0  0  0  0  0  0
   -6.9051   17.0274  -31.2624 H   0  0  0  0  0  0  0  0  0  0  0  0
  1  2  1  0
  2  3  1  0
  3  4  1  0
  4  5  2  0
  5  6  1  0
  6  7  2  0
  7  8  1  0
  8  9  2  0
  8 10  2  0
  8 11  1  0
 11 12  2  0
 12 13  1  0
 13 14  2  0
 14 15  1  0
 14 16  1  0
 16 17  1  0
 17 18  2  0
 17 19  1  0
 19 20  1  0
 20 21  2  0
 21 22  1  0
 22 23  2  0
 23 24  1  0
 24 25  2  0
 16 26  2  0
  7 27  1  0
 27 28  2  0
 28  4  1  0
 26 11  1  0
 25 20  1  0
  1 29  1  0
  1 30  1  0
  1 31  1  0
  2 32  1  0
  2 33  1  0
  5 34  1  0
  6 35  1  0
 12 36  1  0
 13 37  1  0
 19 38  1  0
 21 39  1  0
 22 40  1  0
 23 41  1  0
 24 42  1  0
 25 43  1  0
 26 44  1  0
 27 45  1  0
 28 46  1  0
M  CHG  1  15  -1
M  END
>  <UniqueID>  (20) 
19

>  <SMILES>  (20) 
CCOc1ccc(S(=O)(=O)c2ccc([O-])c(C(=O)Nc3ccccc3)c2)cc1

>  <Energy>  (20) 
55.852189466591895

>  <Genealogy>  (20) 
CCOc1ccc(S(=O)(=O)c2ccc([O-])c(C(=O)Nc3ccccc3)c2)cc1 (protonated)
CCOc1ccc(S(=O)(=O)c2ccc([O-])c(C(=O)Nc3ccccc3)c2)cc1 (3D coordinates assigned)
CCOc1ccc(S(=O)(=O)c2ccc([O-])c(C(=O)Nc3ccccc3)c2)cc1 (optimized conformer: 55.852189466591895 kcal/mol)

>  <smiles>  (20) 
CCOc1ccc(S(=O)(=O)c2ccc(O)c(C(=O)Nc3ccccc3)c2)cc1

>  <score_type>  (20) 
oracle

>  <origin>  (20) 
adgpu

>  <m_score__min__energy>  (20) 
-12.67

>  <m_primary>  (20) 
energy

$$$$
20:0
     RDKit          3D

 41 44  0  0  0  0  0  0  0  0999 V2000
   -6.2080   16.5980  -33.4660 C   0  0  0  0  0  0  0  0  0  0  0  0
   -6.8610   17.8600  -32.9830 C   0  0  0  0  0  0  0  0  0  0  0  0
   -6.5240   19.0960  -33.5580 C   0  0  0  0  0  0  0  0  0  0  0  0
   -7.1600   20.2660  -33.1310 C   0  0  0  0  0  0  0  0  0  0  0  0
   -8.1430   20.2120  -32.1360 C   0  0  0  0  0  0  0  0  0  0  0  0
   -8.9270   21.6940  -31.5940 S   0  0  0  0  0  0  0  0  0  0  0  0
  -10.2150   21.8620  -32.3490 O   0  0  0  0  0  0  0  0  0  0  0  0
   -9.2280   21.6290  -30.1230 O   0  0  0  0  0  0  0  0  0  0  0  0
   -7.8990   23.0560  -31.9050 N   0  0  0  0  0  0  0  0  0  0  0  0
   -6.5840   23.2150  -31.3420 C   0  0  0  0  0  0  0  0  0  0  0  0
   -6.4030   24.0980  -30.2660 C   0  0  0  0  0  0  0  0  0  0  0  0
   -5.1390   24.2810  -29.6990 C   0  0  0  0  0  0  0  0  0  0  0  0
   -4.0250   23.5780  -30.1910 C   0  0  0  0  0  0  0  0  0  0  0  0
   -2.6700   23.7670  -29.6120 C   0  0  0  0  0  0  0  0  0  0  0  0
   -1.6620   22.7700  -29.7230 C   0  0  0  0  0  0  0  0  0  0  0  0
   -0.3910   22.9860  -29.1660 C   0  0  0  0  0  0  0  0  0  0  0  0
   -0.1820   24.1980  -28.5260 C   0  0  0  0  0  0  0  0  0  0  0  0
    0.9380   24.6360  -27.9250 N   0  0  0  0  0  0  0  0  0  0  0  0
    0.6550   25.8560  -27.4650 N   0  0  0  0  0  0  0  0  0  0  0  0
   -0.6290   26.1360  -27.7930 C   0  0  0  0  0  0  0  0  0  0  0  0
   -1.1560   25.1010  -28.4570 N   0  0  0  0  0  0  0  0  0  0  0  0
   -2.3720   24.9370  -28.9690 N   0  0  0  0  0  0  0  0  0  0  0  0
   -4.2060   22.6990  -31.2730 C   0  0  0  0  0  0  0  0  0  0  0  0
   -5.4700   22.5130  -31.8380 C   0  0  0  0  0  0  0  0  0  0  0  0
   -8.4980   18.9760  -31.5780 C   0  0  0  0  0  0  0  0  0  0  0  0
   -7.8630   17.8050  -32.0030 C   0  0  0  0  0  0  0  0  0  0  0  0
   -5.8951   15.9932  -32.6021 H   0  0  0  0  0  0  0  0  0  0  0  0
   -6.9228   16.0251  -34.0750 H   0  0  0  0  0  0  0  0  0  0  0  0
   -5.3275   16.8506  -34.0750 H   0  0  0  0  0  0  0  0  0  0  0  0
   -5.7580   19.1440  -34.3460 H   0  0  0  0  0  0  0  0  0  0  0  0
   -6.8866   21.2328  -33.5789 H   0  0  0  0  0  0  0  0  0  0  0  0
   -8.2400   23.7560  -32.6010 H   0  0  0  0  0  0  0  0  0  0  0  0
   -7.2649   24.6515  -29.8650 H   0  0  0  0  0  0  0  0  0  0  0  0
   -5.0143   24.9814  -28.8601 H   0  0  0  0  0  0  0  0  0  0  0  0
   -1.8784   21.8271  -30.2465 H   0  0  0  0  0  0  0  0  0  0  0  0
    0.4029   22.2277  -29.2344 H   0  0  0  0  0  0  0  0  0  0  0  0
   -1.1569   27.0701  -27.5508 H   0  0  0  0  0  0  0  0  0  0  0  0
   -3.3427   22.1516  -31.6793 H   0  0  0  0  0  0  0  0  0  0  0  0
   -5.5953   21.8126  -32.6769 H   0  0  0  0  0  0  0  0  0  0  0  0
   -9.2780   18.9272  -30.8039 H   0  0  0  0  0  0  0  0  0  0  0  0
   -8.1504   16.8368  -31.5671 H   0  0  0  0  0  0  0  0  0  0  0  0
  1  2  1  0
  2  3  2  0
  3  4  1  0
  4  5  2  0
  5  6  1  0
  6  7  2  0
  6  8  2  0
  6  9  1  0
  9 10  1  0
 10 11  2  0
 11 12  1  0
 12 13  2  0
 13 14  1  0
 14 15  1  0
 15 16  2  0
 16 17  1  0
 17 18  2  0
 18 19  1  0
 19 20  2  0
 20 21  1  0
 21 22  1  0
 13 23  1  0
 23 24  2  0
  5 25  1  0
 25 26  2  0
 26  2  1  0
 24 10  1  0
 22 14  2  0
 21 17  1  0
  1 27  1  0
  1 28  1  0
  1 29  1  0
  3 30  1  0
  4 31  1  0
  9 32  1  0
 11 33  1  0
 12 34  1  0
 15 35  1  0
 16 36  1  0
 20 37  1  0
 23 38  1  0
 24 39  1  0
 25 40  1  0
 26 41  1  0
M  END
>  <UniqueID>  (21) 
20

>  <SMILES>  (21) 
Cc1ccc(S(=O)(=O)Nc2ccc(-c3ccc4nncn4n3)cc2)cc1

>  <Energy>  (21) 
94.42531564916717

>  <Genealogy>  (21) 
Cc1ccc(S(=O)(=O)Nc2ccc(-c3ccc4nncn4n3)cc2)cc1 (3D coordinates assigned)
Cc1ccc(S(=O)(=O)Nc2ccc(-c3ccc4nncn4n3)cc2)cc1 (optimized conformer: 94.42531564916717 kcal/mol)

>  <smiles>  (21) 
Cc1ccc(S(=O)(=O)Nc2ccc(-c3ccc4nncn4n3)cc2)cc1

>  <score_type>  (21) 
oracle

>  <origin>  (21) 
adgpu

>  <m_score__min__energy>  (21) 
-10.130000000000001

>  <m_primary>  (21) 
energy

$$$$
21:0
     RDKit          3D

 41 43  0  0  0  0  0  0  0  0999 V2000
   -3.4850   25.9470  -31.2150 H   0  0  0  0  0  0  0  0  0  0  0  0
   -4.3100   25.6380  -30.6530 N   0  0  0  0  0  0  0  0  0  0  0  0
   -4.1490   23.9330  -30.4170 S   0  0  0  0  0  0  0  0  0  0  0  0
   -3.8860   23.6580  -28.9640 O   0  0  0  0  0  0  0  0  0  0  0  0
   -2.9890   23.4190  -31.2230 O   0  0  0  0  0  0  0  0  0  0  0  0
   -5.6270   23.1260  -30.9300 C   0  0  0  0  0  0  0  0  0  0  0  0
   -6.8700   23.5250  -30.4210 C   0  0  0  0  0  0  0  0  0  0  0  0
   -6.9245   24.3329  -29.6765 H   0  0  0  0  0  0  0  0  0  0  0  0
   -8.0400   22.8990  -30.8570 C   0  0  0  0  0  0  0  0  0  0  0  0
   -9.0145   23.2186  -30.4593 H   0  0  0  0  0  0  0  0  0  0  0  0
   -7.9750   21.8680  -31.7970 C   0  0  0  0  0  0  0  0  0  0  0  0
   -8.9015   21.3895  -32.1471 H   0  0  0  0  0  0  0  0  0  0  0  0
   -6.7400   21.4390  -32.2970 C   0  0  0  0  0  0  0  0  0  0  0  0
   -6.7220   20.3930  -33.2840 N   0  0  0  0  0  0  0  0  0  0  0  0
   -5.7020   19.6590  -33.6290 C   0  0  0  0  0  0  0  0  0  0  0  0
   -4.5070   19.7710  -32.9870 N   0  0  0  0  0  0  0  0  0  0  0  0
   -3.4340   18.9990  -33.3110 C   0  0  0  0  0  0  0  0  0  0  0  0
   -2.1870   19.1790  -32.5940 N   0  0  0  0  0  0  0  0  0  0  0  0
   -1.3190   18.0130  -32.3910 C   0  0  0  0  0  0  0  0  0  0  0  0
   -1.1878   17.8368  -31.3132 H   0  0  0  0  0  0  0  0  0  0  0  0
   -1.7798   17.1279  -32.8538 H   0  0  0  0  0  0  0  0  0  0  0  0
   -0.3389   18.2005  -32.8538 H   0  0  0  0  0  0  0  0  0  0  0  0
   -1.7560   20.4950  -32.0930 C   0  0  0  0  0  0  0  0  0  0  0  0
   -0.7222   20.6849  -32.4173 H   0  0  0  0  0  0  0  0  0  0  0  0
   -2.4280   21.2667  -32.4966 H   0  0  0  0  0  0  0  0  0  0  0  0
   -1.8180   20.5330  -30.5980 C   0  0  0  0  0  0  0  0  0  0  0  0
   -0.5270   20.2310  -29.5630 S   0  0  0  0  0  0  0  0  0  0  0  0
   -1.3920   20.4220  -28.1340 C   0  0  0  0  0  0  0  0  0  0  0  0
   -0.9835   20.3293  -27.1169 H   0  0  0  0  0  0  0  0  0  0  0  0
   -2.7110   20.7170  -28.4570 C   0  0  0  0  0  0  0  0  0  0  0  0
   -3.4913   20.8902  -27.7013 H   0  0  0  0  0  0  0  0  0  0  0  0
   -2.9530   20.7730  -29.8340 C   0  0  0  0  0  0  0  0  0  0  0  0
   -3.9414   20.9855  -30.2674 H   0  0  0  0  0  0  0  0  0  0  0  0
   -3.5770   18.0510  -34.3380 C   0  0  0  0  0  0  0  0  0  0  0  0
   -2.7316   17.4108  -34.6303 H   0  0  0  0  0  0  0  0  0  0  0  0
   -4.8090   17.9360  -34.9800 C   0  0  0  0  0  0  0  0  0  0  0  0
   -4.9414   17.1969  -35.7839 H   0  0  0  0  0  0  0  0  0  0  0  0
   -5.8470   18.7340  -34.6160 N   0  0  0  0  0  0  0  0  0  0  0  0
   -6.7630   18.6290  -35.1070 H   0  0  0  0  0  0  0  0  0  0  0  0
   -5.5640   22.0960  -31.8790 C   0  0  0  0  0  0  0  0  0  0  0  0
   -4.5922   21.7986  -32.2999 H   0  0  0  0  0  0  0  0  0  0  0  0
  1  2  1  0
  2  3  1  0
  3  4  2  0
  3  5  2  0
  3  6  1  0
  6  7  2  0
  7  8  1  0
  7  9  1  0
  9 10  1  0
  9 11  2  0
 11 12  1  0
 11 13  1  0
 13 14  1  0
 14 15  2  0
 15 16  1  0
 16 17  2  0
 17 18  1  0
 18 19  1  0
 19 20  1  0
 19 21  1  0
 19 22  1  0
 18 23  1  0
 23 24  1  0
 23 25  1  0
 23 26  1  0
 26 27  1  0
 27 28  1  0
 28 29  1  0
 28 30  2  0
 30 31  1  0
 30 32  1  0
 32 33  1  0
 17 34  1  0
 34 35  1  0
 34 36  2  0
 36 37  1  0
 36 38  1  0
 38 39  1  0
 13 40  2  0
 40 41  1  0
 40  6  1  0
 38 15  1  0
 32 26  2  0
M  CHG  1   2  -1
M  END
>  <UniqueID>  (22) 
21

>  <SMILES>  (22) 
CN(Cc1cccs1)c1cc[nH]/c(=N/c2cccc(S([NH-])(=O)=O)c2)n1

>  <Energy>  (22) 
73.15233088276088

>  <Genealogy>  (22) 
CN(Cc1cccs1)c1cc[nH]c(=Nc2cccc(S([NH-])(=O)=O)c2)n1 (protonated)
CN(Cc1cccs1)c1cc[nH]/c(=N/c2cccc(S([NH-])(=O)=O)c2)n1 (cis-trans isomerization)
CN(Cc1cccs1)c1cc[nH]/c(=N/c2cccc(S([NH-])(=O)=O)c2)n1 (3D coordinates assigned)
CN(Cc1cccs1)c1cc[nH]/c(=N/c2cccc(S([NH-])(=O)=O)c2)n1 (optimized conformer: 73.15233088276088 kcal/mol)

>  <smiles>  (22) 
CN(Cc1cccs1)c1cc[nH]c(=Nc2cccc(S(N)(=O)=O)c2)n1

>  <score_type>  (22) 
oracle

>  <origin>  (22) 
adgpu

>  <m_score__min__energy>  (22) 
-10.539999999999999

>  <m_primary>  (22) 
energy

$$$$
22:0
     RDKit          3D

 43 46  0  0  0  0  0  0  0  0999 V2000
   -6.0390   26.0650  -30.5820 O   0  0  0  0  0  0  0  0  0  0  0  0
   -5.3630   25.0200  -30.7810 C   0  0  0  0  0  0  0  0  0  0  0  0
   -3.9500   25.0610  -30.5270 N   0  0  0  0  0  0  0  0  0  0  0  0
   -3.3390   24.7380  -29.4200 C   0  0  0  0  0  0  0  0  0  0  0  0
   -4.0140   24.1770  -28.3140 C   0  0  0  0  0  0  0  0  0  0  0  0
   -3.2940   23.8550  -27.1620 C   0  0  0  0  0  0  0  0  0  0  0  0
   -1.9180   24.0770  -27.1150 C   0  0  0  0  0  0  0  0  0  0  0  0
   -1.2760   24.6150  -28.2300 C   0  0  0  0  0  0  0  0  0  0  0  0
   -1.9930   24.9270  -29.3440 N   0  0  0  0  0  0  0  0  0  0  0  0
   -6.0510   23.7690  -31.1870 C   0  0  0  0  0  0  0  0  0  0  0  0
   -7.4460   23.6620  -31.0730 C   0  0  0  0  0  0  0  0  0  0  0  0
   -8.0990   22.4880  -31.4530 C   0  0  0  0  0  0  0  0  0  0  0  0
   -7.3720   21.4030  -31.9520 C   0  0  0  0  0  0  0  0  0  0  0  0
   -8.2570   19.9460  -32.3940 Cl  0  0  0  0  0  0  0  0  0  0  0  0
   -5.9710   21.4930  -32.0720 C   0  0  0  0  0  0  0  0  0  0  0  0
   -5.0110   20.1380  -32.6830 S   0  0  0  0  0  0  0  0  0  0  0  0
   -5.4320   19.7980  -34.0860 O   0  0  0  0  0  0  0  0  0  0  0  0
   -5.2370   18.9400  -31.8050 O   0  0  0  0  0  0  0  0  0  0  0  0
   -3.3310   20.5650  -32.6840 N   0  0  0  0  0  0  0  0  0  0  0  0
   -2.4510   20.4590  -33.8460 C   0  0  0  0  0  0  0  0  0  0  0  0
   -1.0260   20.7780  -33.3310 C   0  0  0  0  0  0  0  0  0  0  0  0
   -1.2260   20.9770  -31.8670 C   0  0  0  0  0  0  0  0  0  0  0  0
   -0.2610   21.2520  -30.8950 C   0  0  0  0  0  0  0  0  0  0  0  0
   -0.6760   21.3870  -29.5600 C   0  0  0  0  0  0  0  0  0  0  0  0
   -2.0360   21.2440  -29.2220 C   0  0  0  0  0  0  0  0  0  0  0  0
   -2.9870   20.9670  -30.2170 C   0  0  0  0  0  0  0  0  0  0  0  0
   -2.5470   20.8440  -31.5390 C   0  0  0  0  0  0  0  0  0  0  0  0
   -5.3210   22.6710  -31.6750 C   0  0  0  0  0  0  0  0  0  0  0  0
   -5.0979   23.9952  -28.3596 H   0  0  0  0  0  0  0  0  0  0  0  0
   -3.8120   23.4262  -26.2915 H   0  0  0  0  0  0  0  0  0  0  0  0
   -1.3455   23.8305  -26.2086 H   0  0  0  0  0  0  0  0  0  0  0  0
   -0.1898   24.7873  -28.2091 H   0  0  0  0  0  0  0  0  0  0  0  0
   -8.0286   24.5090  -30.6816 H   0  0  0  0  0  0  0  0  0  0  0  0
   -9.1926   22.4162  -31.3592 H   0  0  0  0  0  0  0  0  0  0  0  0
   -2.4883   19.4416  -34.2624 H   0  0  0  0  0  0  0  0  0  0  0  0
   -2.7547   21.1497  -34.6464 H   0  0  0  0  0  0  0  0  0  0  0  0
   -0.3404   19.9399  -33.5246 H   0  0  0  0  0  0  0  0  0  0  0  0
   -0.5751   21.6507  -33.8260 H   0  0  0  0  0  0  0  0  0  0  0  0
    0.7989   21.3603  -31.1688 H   0  0  0  0  0  0  0  0  0  0  0  0
    0.0636   21.6052  -28.7756 H   0  0  0  0  0  0  0  0  0  0  0  0
   -2.3542   21.3498  -28.1743 H   0  0  0  0  0  0  0  0  0  0  0  0
   -4.0509   20.8497  -29.9634 H   0  0  0  0  0  0  0  0  0  0  0  0
   -4.2253   22.7366  -31.7465 H   0  0  0  0  0  0  0  0  0  0  0  0
  1  2  2  0
  2  3  1  0
  3  4  2  3
  4  5  1  0
  5  6  2  0
  6  7  1  0
  7  8  2  0
  8  9  1  0
  2 10  1  0
 10 11  2  0
 11 12  1  0
 12 13  2  0
 13 14  1  0
 13 15  1  0
 15 16  1  0
 16 17  2  0
 16 18  2  0
 16 19  1  0
 19 20  1  0
 20 21  1  0
 21 22  1  0
 22 23  2  0
 23 24  1  0
 24 25  2  0
 25 26  1  0
 26 27  2  0
 15 28  2  0
  9  4  1  0
 28 10  1  0
 27 19  1  0
 27 22  1  0
  5 29  1  0
  6 30  1  0
  7 31  1  0
  8 32  1  0
 11 33  1  0
 12 34  1  0
 20 35  1  0
 20 36  1  0
 21 37  1  0
 21 38  1  0
 23 39  1  0
 24 40  1  0
 25 41  1  0
 26 42  1  0
 28 43  1  0
M  CHG  1   9  -1
M  END
>  <UniqueID>  (23) 
22

>  <SMILES>  (23) 
O=C(N=c1cccc[n-]1)c1ccc(Cl)c(S(=O)(=O)N2CCc3ccccc32)c1

>  <Energy>  (23) 
75.833700292181

>  <Genealogy>  (23) 
O=C(N=c1cccc[n-]1)c1ccc(Cl)c(S(=O)(=O)N2CCc3ccccc32)c1 (protonated)
O=C(N=c1cccc[n-]1)c1ccc(Cl)c(S(=O)(=O)N2CCc3ccccc32)c1 (3D coordinates assigned)
O=C(N=c1cccc[n-]1)c1ccc(Cl)c(S(=O)(=O)N2CCc3ccccc32)c1 (nonaromatic ring conformer: 75.833700292181 kcal/mol)

>  <smiles>  (23) 
O=C(N=c1cccc[nH]1)c1ccc(Cl)c(S(=O)(=O)N2CCc3ccccc32)c1

>  <score_type>  (23) 
oracle

>  <origin>  (23) 
adgpu

>  <m_score__min__energy>  (23) 
-11.4

>  <m_primary>  (23) 
energy

$$$$
23:0
     RDKit          3D

 65 69  0  0  0  0  0  0  0  0999 V2000
   -9.1940   18.3880  -30.9580 O   0  0  0  0  0  0  0  0  0  0  0  0
   -8.8830   19.4650  -31.9580 S   0  0  0  0  0  0  0  0  0  0  0  0
   -9.7820   19.2760  -33.1460 O   0  0  0  0  0  0  0  0  0  0  0  0
   -9.2120   21.0070  -31.2390 N   0  0  0  0  0  0  0  0  0  0  0  0
   -8.2340   22.0460  -31.1620 C   0  0  0  0  0  0  0  0  0  0  0  0
   -7.6150   22.3160  -29.9360 C   0  0  0  0  0  0  0  0  0  0  0  0
   -6.6760   23.3480  -29.8300 C   0  0  0  0  0  0  0  0  0  0  0  0
   -6.3200   24.0980  -30.9640 C   0  0  0  0  0  0  0  0  0  0  0  0
   -5.3420   25.2370  -30.8490 C   0  0  0  0  0  0  0  0  0  0  0  0
   -4.1750   24.8520  -29.9290 C   0  0  0  0  0  0  0  0  0  0  0  0
   -3.2930   23.8700  -30.5760 N   0  0  0  0  0  0  0  0  0  0  0  0
   -3.7830   22.4850  -30.4500 C   0  0  0  0  0  0  0  0  0  0  0  0
   -2.8580   21.5310  -31.2190 C   0  0  1  0  0  0  0  0  0  0  0  0
   -2.0730   22.2740  -32.1150 O   0  0  0  0  0  0  0  0  0  0  0  0
   -1.9710   20.7570  -30.2690 C   0  0  0  0  0  0  0  0  0  0  0  0
   -2.2820   20.6720  -28.9020 C   0  0  0  0  0  0  0  0  0  0  0  0
   -1.4790   19.9150  -28.0470 C   0  0  0  0  0  0  0  0  0  0  0  0
   -0.3730   19.2410  -28.5680 C   0  0  0  0  0  0  0  0  0  0  0  0
   -0.0880   19.3240  -29.8940 N   0  0  0  0  0  0  0  0  0  0  0  0
   -0.8530   20.0540  -30.7460 C   0  0  0  0  0  0  0  0  0  0  0  0
   -6.9250   23.8070  -32.2000 C   0  0  0  0  0  0  0  0  0  0  0  0
   -7.8740   22.7870  -32.2980 C   0  0  0  0  0  0  0  0  0  0  0  0
   -7.1960   19.3210  -32.4450 C   0  0  0  0  0  0  0  0  0  0  0  0
   -6.6630   20.2010  -33.3960 C   0  0  0  0  0  0  0  0  0  0  0  0
   -5.3220   20.0950  -33.7800 C   0  0  0  0  0  0  0  0  0  0  0  0
   -4.4980   19.1050  -33.2130 C   0  0  0  0  0  0  0  0  0  0  0  0
   -3.0810   19.0050  -33.6110 C   0  0  0  0  0  0  0  0  0  0  0  0
   -2.3970   17.8490  -33.7160 N   0  0  0  0  0  0  0  0  0  0  0  0
   -1.1710   18.1770  -34.0920 N   0  0  0  0  0  0  0  0  0  0  0  0
   -1.1470   19.5220  -34.2010 C   0  0  0  0  0  0  0  0  0  0  0  0
    0.0480   20.3050  -34.6090 C   0  0  0  0  0  0  0  0  0  0  0  0
   -0.0910   21.2850  -35.6120 C   0  0  0  0  0  0  0  0  0  0  0  0
    1.0060   22.0490  -36.0230 C   0  0  0  0  0  0  0  0  0  0  0  0
    2.2600   21.8490  -35.4410 C   0  0  0  0  0  0  0  0  0  0  0  0
    3.6360   22.8110  -35.9590 Cl  0  0  0  0  0  0  0  0  0  0  0  0
    2.4180   20.8820  -34.4470 C   0  0  0  0  0  0  0  0  0  0  0  0
    1.3260   20.1060  -34.0260 C   0  0  0  0  0  0  0  0  0  0  0  0
    1.6300   18.8970  -32.7840 Cl  0  0  0  0  0  0  0  0  0  0  0  0
   -2.3200   20.0320  -33.9070 O   0  0  0  0  0  0  0  0  0  0  0  0
   -5.0390   18.2160  -32.2660 C   0  0  0  0  0  0  0  0  0  0  0  0
   -6.3810   18.3250  -31.8860 C   0  0  0  0  0  0  0  0  0  0  0  0
   -7.8681   21.7137  -29.0510 H   0  0  0  0  0  0  0  0  0  0  0  0
   -6.2153   23.5728  -28.8567 H   0  0  0  0  0  0  0  0  0  0  0  0
   -4.9506   25.4804  -31.8478 H   0  0  0  0  0  0  0  0  0  0  0  0
   -5.8594   26.1087  -30.4219 H   0  0  0  0  0  0  0  0  0  0  0  0
   -3.5934   25.7545  -29.6896 H   0  0  0  0  0  0  0  0  0  0  0  0
   -4.5858   24.4026  -29.0129 H   0  0  0  0  0  0  0  0  0  0  0  0
   -3.2470   24.1110  -31.5950 H   0  0  0  0  0  0  0  0  0  0  0  0
   -3.7998   22.1994  -29.3879 H   0  0  0  0  0  0  0  0  0  0  0  0
   -4.7982   22.4207  -30.8687 H   0  0  0  0  0  0  0  0  0  0  0  0
   -3.4728   20.8076  -31.7746 H   0  0  0  0  0  0  0  0  0  0  0  0
   -1.6070   22.9670  -31.5780 H   0  0  0  0  0  0  0  0  0  0  0  0
   -3.1597   21.2027  -28.5045 H   0  0  0  0  0  0  0  0  0  0  0  0
   -1.7151   19.8503  -26.9746 H   0  0  0  0  0  0  0  0  0  0  0  0
    0.2683   18.6422  -27.9045 H   0  0  0  0  0  0  0  0  0  0  0  0
   -0.5957   20.0948  -31.8147 H   0  0  0  0  0  0  0  0  0  0  0  0
   -6.6493   24.3857  -33.0939 H   0  0  0  0  0  0  0  0  0  0  0  0
   -8.3407   22.5638  -33.2687 H   0  0  0  0  0  0  0  0  0  0  0  0
   -7.3012   20.9779  -33.8422 H   0  0  0  0  0  0  0  0  0  0  0  0
   -4.9100   20.7882  -34.5281 H   0  0  0  0  0  0  0  0  0  0  0  0
   -1.0739   21.4511  -36.0772 H   0  0  0  0  0  0  0  0  0  0  0  0
    0.8809   22.8101  -36.8073 H   0  0  0  0  0  0  0  0  0  0  0  0
    3.4062   20.7265  -33.9896 H   0  0  0  0  0  0  0  0  0  0  0  0
   -4.4052   17.4334  -31.8234 H   0  0  0  0  0  0  0  0  0  0  0  0
   -6.7990   17.6269  -31.1458 H   0  0  0  0  0  0  0  0  0  0  0  0
  1  2  2  0
  2  3  2  0
  2  4  1  0
  4  5  1  0
  5  6  2  0
  6  7  1  0
  7  8  2  0
  8  9  1  0
  9 10  1  0
 10 11  1  0
 11 12  1  0
 12 13  1  0
 13 14  1  0
 13 15  1  0
 15 16  2  0
 16 17  1  0
 17 18  2  0
 18 19  1  0
 19 20  2  0
  8 21  1  0
 21 22  2  0
  2 23  1  0
 23 24  2  0
 24 25  1  0
 25 26  2  0
 26 27  1  0
 27 28  2  0
 28 29  1  0
 29 30  2  0
 30 31  1  0
 31 32  2  0
 32 33  1  0
 33 34  2  0
 34 35  1  0
 34 36  1  0
 36 37  2  0
 37 38  1  0
 30 39  1  0
 26 40  1  0
 40 41  2  0
 22  5  1  0
 41 23  1  0
 20 15  1  0
 39 27  1  0
 37 31  1  0
  6 42  1  0
  7 43  1  0
  9 44  1  0
  9 45  1  0
 10 46  1  0
 10 47  1  0
 11 48  1  0
 12 49  1  0
 12 50  1  0
 13 51  1  6
 14 52  1  0
 16 53  1  0
 17 54  1  0
 18 55  1  0
 20 56  1  0
 21 57  1  0
 22 58  1  0
 24 59  1  0
 25 60  1  0
 32 61  1  0
 33 62  1  0
 36 63  1  0
 40 64  1  0
 41 65  1  0
M  CHG  1   4  -1
M  END
>  <UniqueID>  (24) 
23

>  <SMILES>  (24) 
O=S(=O)([N-]c1ccc(CCNC[C@@H](O)c2cccnc2)cc1)c1ccc(-c2nnc(-c3ccc(Cl)cc3Cl)o2)cc1

>  <Energy>  (24) 
115.7345619135104

>  <Genealogy>  (24) 
O=S(=O)([N-]c1ccc(CCNCC(O)c2cccnc2)cc1)c1ccc(-c2nnc(-c3ccc(Cl)cc3Cl)o2)cc1 (protonated)
O=S(=O)([N-]c1ccc(CCNC[C@@H](O)c2cccnc2)cc1)c1ccc(-c2nnc(-c3ccc(Cl)cc3Cl)o2)cc1 (chirality)
O=S(=O)([N-]c1ccc(CCNC[C@@H](O)c2cccnc2)cc1)c1ccc(-c2nnc(-c3ccc(Cl)cc3Cl)o2)cc1 (3D coordinates assigned)
O=S(=O)([N-]c1ccc(CCNC[C@@H](O)c2cccnc2)cc1)c1ccc(-c2nnc(-c3ccc(Cl)cc3Cl)o2)cc1 (optimized conformer: 115.7345619135104 kcal/mol)

>  <smiles>  (24) 
O=S(=O)(Nc1ccc(CCNCC(O)c2cccnc2)cc1)c1ccc(-c2nnc(-c3ccc(Cl)cc3Cl)o2)cc1

>  <score_type>  (24) 
oracle

>  <origin>  (24) 
adgpu

>  <m_score__min__energy>  (24) 
-11.81

>  <m_primary>  (24) 
energy

$$$$
24:0
     RDKit          3D

 42 45  0  0  0  0  0  0  0  0999 V2000
   -2.4660   25.2140  -29.4190 F   0  0  0  0  0  0  0  0  0  0  0  0
   -3.6530   24.5810  -29.5970 C   0  0  0  0  0  0  0  0  0  0  0  0
   -4.6070   25.1160  -30.4670 C   0  0  0  0  0  0  0  0  0  0  0  0
   -5.8310   24.4660  -30.6500 C   0  0  0  0  0  0  0  0  0  0  0  0
   -6.1090   23.2720  -29.9630 C   0  0  0  0  0  0  0  0  0  0  0  0
   -7.4320   22.5800  -30.1370 C   0  0  0  0  0  0  0  0  0  0  0  0
   -8.0230   22.7440  -31.8580 S   0  0  0  0  0  0  0  0  0  0  0  0
   -8.0670   20.9760  -32.1780 C   0  0  0  0  0  0  0  0  0  0  0  0
   -9.2150   20.2670  -32.1530 N   0  0  0  0  0  0  0  0  0  0  0  0
   -8.8250   18.9930  -32.3530 C   0  0  0  0  0  0  0  0  0  0  0  0
   -7.4530   18.9470  -32.4840 C   0  0  0  0  0  0  0  0  0  0  0  0
   -6.6500   17.7220  -32.7130 C   0  0  0  0  0  0  0  0  0  0  0  0
   -6.4680   17.2060  -34.0060 C   0  0  0  0  0  0  0  0  0  0  0  0
   -5.7120   16.0490  -34.1980 C   0  0  0  0  0  0  0  0  0  0  0  0
   -5.1490   15.4090  -33.0940 C   0  0  0  0  0  0  0  0  0  0  0  0
   -5.3420   15.9100  -31.8460 N   0  0  0  0  0  0  0  0  0  0  0  0
   -6.0740   17.0350  -31.6310 C   0  0  0  0  0  0  0  0  0  0  0  0
   -6.9740   20.2060  -32.3740 N   0  0  0  0  0  0  0  0  0  0  0  0
   -5.6010   20.6120  -32.2310 C   0  0  0  0  0  0  0  0  0  0  0  0
   -5.0520   21.5750  -33.0910 C   0  0  0  0  0  0  0  0  0  0  0  0
   -3.7150   21.9610  -32.9530 C   0  0  0  0  0  0  0  0  0  0  0  0
   -2.9190   21.3860  -31.9590 C   0  0  0  0  0  0  0  0  0  0  0  0
   -3.4580   20.4240  -31.1000 C   0  0  0  0  0  0  0  0  0  0  0  0
   -4.7950   20.0370  -31.2350 C   0  0  0  0  0  0  0  0  0  0  0  0
   -5.1450   22.7430  -29.0880 C   0  0  0  0  0  0  0  0  0  0  0  0
   -3.9220   23.3950  -28.9080 C   0  0  0  0  0  0  0  0  0  0  0  0
   -4.3945   26.0497  -31.0084 H   0  0  0  0  0  0  0  0  0  0  0  0
   -6.5798   24.8909  -31.3347 H   0  0  0  0  0  0  0  0  0  0  0  0
   -7.3165   21.5133  -29.8947 H   0  0  0  0  0  0  0  0  0  0  0  0
   -8.1668   23.0460  -29.4641 H   0  0  0  0  0  0  0  0  0  0  0  0
   -9.4972   18.1238  -32.4039 H   0  0  0  0  0  0  0  0  0  0  0  0
   -6.9221   17.7147  -34.8691 H   0  0  0  0  0  0  0  0  0  0  0  0
   -5.5615   15.6456  -35.2102 H   0  0  0  0  0  0  0  0  0  0  0  0
   -4.5484   14.4981  -33.2339 H   0  0  0  0  0  0  0  0  0  0  0  0
   -6.2160   17.4089  -30.6063 H   0  0  0  0  0  0  0  0  0  0  0  0
   -5.6752   22.0278  -33.8763 H   0  0  0  0  0  0  0  0  0  0  0  0
   -3.2894   22.7183  -33.6279 H   0  0  0  0  0  0  0  0  0  0  0  0
   -1.8674   21.6906  -31.8524 H   0  0  0  0  0  0  0  0  0  0  0  0
   -2.8306   19.9715  -30.3180 H   0  0  0  0  0  0  0  0  0  0  0  0
   -5.2170   19.2793  -30.5584 H   0  0  0  0  0  0  0  0  0  0  0  0
   -5.3540   21.8112  -28.5421 H   0  0  0  0  0  0  0  0  0  0  0  0
   -3.1705   22.9745  -28.2236 H   0  0  0  0  0  0  0  0  0  0  0  0
  1  2  1  0
  2  3  2  0
  3  4  1  0
  4  5  2  0
  5  6  1  0
  6  7  1  0
  7  8  1  0
  8  9  2  0
  9 10  1  0
 10 11  2  0
 11 12  1  0
 12 13  2  0
 13 14  1  0
 14 15  2  0
 15 16  1  0
 16 17  2  0
 11 18  1  0
 18 19  1  0
 19 20  2  0
 20 21  1  0
 21 22  2  0
 22 23  1  0
 23 24  2  0
  5 25  1  0
 25 26  2  0
 26  2  1  0
 18  8  1  0
 24 19  1  0
 17 12  1  0
  3 27  1  0
  4 28  1  0
  6 29  1  0
  6 30  1  0
 10 31  1  0
 13 32  1  0
 14 33  1  0
 15 34  1  0
 17 35  1  0
 20 36  1  0
 21 37  1  0
 22 38  1  0
 23 39  1  0
 24 40  1  0
 25 41  1  0
 26 42  1  0
M  END
>  <UniqueID>  (25) 
24

>  <SMILES>  (25) 
Fc1ccc(CSc2ncc(-c3cccnc3)n2-c2ccccc2)cc1

>  <Energy>  (25) 
83.16819406091328

>  <Genealogy>  (25) 
Fc1ccc(CSc2ncc(-c3cccnc3)n2-c2ccccc2)cc1 (3D coordinates assigned)
Fc1ccc(CSc2ncc(-c3cccnc3)n2-c2ccccc2)cc1 (optimized conformer: 83.16819406091328 kcal/mol)

>  <smiles>  (25) 
Fc1ccc(CSc2ncc(-c3cccnc3)n2-c2ccccc2)cc1

>  <score_type>  (25) 
oracle

>  <origin>  (25) 
adgpu

>  <m_score__min__energy>  (25) 
-8.5

>  <m_primary>  (25) 
energy

$$$$
25:0
     RDKit          3D

 29 30  0  0  0  0  0  0  0  0999 V2000
   -4.4540   20.2710  -33.4840 O   0  0  0  0  0  0  0  0  0  0  0  0
   -5.7040   20.2370  -33.3300 C   0  0  0  0  0  0  0  0  0  0  0  0
   -6.4550   19.3650  -34.1090 O   0  0  0  0  0  0  0  0  0  0  0  0
   -6.3630   21.1110  -32.3340 C   0  0  0  0  0  0  0  0  0  0  0  0
   -7.6590   20.8190  -31.8710 C   0  0  0  0  0  0  0  0  0  0  0  0
   -8.2780   21.6480  -30.9310 C   0  0  0  0  0  0  0  0  0  0  0  0
   -7.6120   22.7740  -30.4430 C   0  0  0  0  0  0  0  0  0  0  0  0
   -6.3200   23.0760  -30.8890 C   0  0  0  0  0  0  0  0  0  0  0  0
   -5.4830   24.4900  -30.2540 S   0  0  0  0  0  0  0  0  0  0  0  0
   -4.3550   24.8950  -31.1610 O   0  0  0  0  0  0  0  0  0  0  0  0
   -6.4630   25.6240  -30.1540 O   0  0  0  0  0  0  0  0  0  0  0  0
   -4.8460   24.1420  -28.6770 N   0  0  0  0  0  0  0  0  0  0  0  0
   -3.6160   23.4270  -28.4480 C   0  0  0  0  0  0  0  0  0  0  0  0
   -3.6120   22.1320  -27.8930 C   0  0  0  0  0  0  0  0  0  0  0  0
   -2.4060   21.4580  -27.6750 C   0  0  0  0  0  0  0  0  0  0  0  0
   -1.1940   22.0610  -28.0120 C   0  0  0  0  0  0  0  0  0  0  0  0
   -1.1850   23.3400  -28.5700 C   0  0  0  0  0  0  0  0  0  0  0  0
   -2.3850   24.0240  -28.7900 C   0  0  0  0  0  0  0  0  0  0  0  0
   -2.3470   25.2990  -29.3430 O   0  0  0  0  0  0  0  0  0  0  0  0
   -5.7000   22.2470  -31.8360 C   0  0  0  0  0  0  0  0  0  0  0  0
   -8.1885   19.9329  -32.2510 H   0  0  0  0  0  0  0  0  0  0  0  0
   -9.2919   21.4128  -30.5750 H   0  0  0  0  0  0  0  0  0  0  0  0
   -8.1040   23.4256  -29.7059 H   0  0  0  0  0  0  0  0  0  0  0  0
   -5.4450   24.4070  -27.8650 H   0  0  0  0  0  0  0  0  0  0  0  0
   -4.5638   21.6477  -27.6293 H   0  0  0  0  0  0  0  0  0  0  0  0
   -2.4132   20.4492  -27.2364 H   0  0  0  0  0  0  0  0  0  0  0  0
   -0.2470   21.5291  -27.8382 H   0  0  0  0  0  0  0  0  0  0  0  0
   -0.2288   23.8129  -28.8383 H   0  0  0  0  0  0  0  0  0  0  0  0
   -4.6873   22.4874  -32.1918 H   0  0  0  0  0  0  0  0  0  0  0  0
  1  2  2  0
  2  3  1  0
  2  4  1  0
  4  5  2  0
  5  6  1  0
  6  7  2  0
  7  8  1  0
  8  9  1  0
  9 10  2  0
  9 11  2  0
  9 12  1  0
 12 13  1  0
 13 14  2  0
 14 15  1  0
 15 16  2  0
 16 17  1  0
 17 18  2  0
 18 19  1  0
  8 20  2  0
 20  4  1  0
 18 13  1  0
  5 21  1  0
  6 22  1  0
  7 23  1  0
 12 24  1  0
 14 25  1  0
 15 26  1  0
 16 27  1  0
 17 28  1  0
 20 29  1  0
M  CHG  2   3  -1  19  -1
M  END
>  <UniqueID>  (26) 
25

>  <SMILES>  (26) 
O=C([O-])c1cccc(S(=O)(=O)Nc2ccccc2[O-])c1

>  <Energy>  (26) 
33.92813887280851

>  <Genealogy>  (26) 
O=C([O-])c1cccc(S(=O)(=O)Nc2ccccc2[O-])c1 (protonated)
O=C([O-])c1cccc(S(=O)(=O)Nc2ccccc2[O-])c1 (3D coordinates assigned)
O=C([O-])c1cccc(S(=O)(=O)Nc2ccccc2[O-])c1 (optimized conformer: 33.92813887280851 kcal/mol)

>  <smiles>  (26) 
O=C(O)c1cccc(S(=O)(=O)Nc2ccccc2O)c1

>  <score_type>  (26) 
oracle

>  <origin>  (26) 
adgpu

>  <m_score__min__energy>  (26) 
-11.17

>  <m_primary>  (26) 
energy

$$$$
26:0
     RDKit          3D

 62 63  0  0  0  0  0  0  0  0999 V2000
   -6.5020   16.6490  -33.9930 C   0  0  0  0  0  0  0  0  0  0  0  0
   -6.0300   18.0500  -34.3730 C   0  0  0  0  0  0  0  0  0  0  0  0
   -5.9480   18.9590  -33.1390 C   0  0  0  0  0  0  0  0  0  0  0  0
   -6.3450   20.4200  -33.4420 C   0  0  0  0  0  0  0  0  0  0  0  0
   -6.6520   21.1820  -32.2170 N   0  0  0  0  0  0  0  0  0  0  0  0
   -7.8740   20.9040  -31.4370 C   0  0  0  0  0  0  0  0  0  0  0  0
   -9.1300   20.7470  -32.3140 C   0  0  0  0  0  0  0  0  0  0  0  0
   -9.4910   19.2810  -32.5770 C   0  0  0  0  0  0  0  0  0  0  0  0
   -8.7610   18.3540  -31.6110 C   0  0  0  0  0  0  0  0  0  0  0  0
   -5.7250   22.1830  -31.7420 C   0  0  0  0  0  0  0  0  0  0  0  0
   -6.1830   23.4440  -31.3110 C   0  0  0  0  0  0  0  0  0  0  0  0
   -5.2710   24.4170  -30.8490 C   0  0  0  0  0  0  0  0  0  0  0  0
   -5.7630   25.7620  -30.4190 C   0  0  0  0  0  0  0  0  0  0  0  0
   -3.9350   24.1450  -30.8170 N   0  0  0  0  0  0  0  0  0  0  0  0
   -3.4720   22.9350  -31.2200 C   0  0  0  0  0  0  0  0  0  0  0  0
   -2.1590   22.5960  -31.1840 N   0  0  0  0  0  0  0  0  0  0  0  0
   -1.9740   21.3250  -31.6140 C   0  0  0  0  0  0  0  0  0  0  0  0
   -0.6840   20.6840  -31.6660 N   0  0  0  0  0  0  0  0  0  0  0  0
    0.1960   20.9180  -32.8140 C   0  0  0  0  0  0  0  0  0  0  0  0
   -0.2540   19.7660  -30.6000 C   0  0  0  0  0  0  0  0  0  0  0  0
   -1.0540   19.9920  -29.3010 C   0  0  0  0  0  0  0  0  0  0  0  0
   -0.9500   21.3770  -28.7760 N   0  0  0  0  0  0  0  0  0  0  0  0
   -2.1730   21.7240  -28.0310 C   0  0  0  0  0  0  0  0  0  0  0  0
    0.2220   21.5350  -27.8930 C   0  0  0  0  0  0  0  0  0  0  0  0
   -3.4380   20.5870  -32.0450 S   0  0  0  0  0  0  0  0  0  0  0  0
   -4.3410   21.9580  -31.6770 C   0  0  0  0  0  0  0  0  0  0  0  0
   -6.5329   16.5571  -32.8973 H   0  0  0  0  0  0  0  0  0  0  0  0
   -7.5077   16.4769  -34.4039 H   0  0  0  0  0  0  0  0  0  0  0  0
   -5.8055   15.9034  -34.4039 H   0  0  0  0  0  0  0  0  0  0  0  0
   -5.0341   17.9806  -34.8349 H   0  0  0  0  0  0  0  0  0  0  0  0
   -6.7541   18.4833  -35.0786 H   0  0  0  0  0  0  0  0  0  0  0  0
   -6.6246   18.5643  -32.3667 H   0  0  0  0  0  0  0  0  0  0  0  0
   -4.9010   18.9644  -32.8018 H   0  0  0  0  0  0  0  0  0  0  0  0
   -5.5116   20.9118  -33.9651 H   0  0  0  0  0  0  0  0  0  0  0  0
   -7.2530   20.4003  -34.0626 H   0  0  0  0  0  0  0  0  0  0  0  0
   -7.7236   19.9725  -30.8715 H   0  0  0  0  0  0  0  0  0  0  0  0
   -8.0428   21.7661  -30.7750 H   0  0  0  0  0  0  0  0  0  0  0  0
   -9.9765   21.2317  -31.8056 H   0  0  0  0  0  0  0  0  0  0  0  0
   -8.9158   21.2150  -33.2862 H   0  0  0  0  0  0  0  0  0  0  0  0
  -10.5758   19.1498  -32.4502 H   0  0  0  0  0  0  0  0  0  0  0  0
   -9.1879   19.0252  -33.6030 H   0  0  0  0  0  0  0  0  0  0  0  0
   -8.9919   18.6472  -30.5763 H   0  0  0  0  0  0  0  0  0  0  0  0
   -9.0879   17.3174  -31.7800 H   0  0  0  0  0  0  0  0  0  0  0  0
   -7.6766   18.4287  -31.7800 H   0  0  0  0  0  0  0  0  0  0  0  0
   -7.2589   23.6716  -31.3348 H   0  0  0  0  0  0  0  0  0  0  0  0
   -5.7812   25.8117  -29.3203 H   0  0  0  0  0  0  0  0  0  0  0  0
   -5.0914   26.5404  -30.8102 H   0  0  0  0  0  0  0  0  0  0  0  0
   -6.7784   25.9233  -30.8102 H   0  0  0  0  0  0  0  0  0  0  0  0
    1.2014   21.1854  -32.4568 H   0  0  0  0  0  0  0  0  0  0  0  0
    0.2544   20.0042  -33.4235 H   0  0  0  0  0  0  0  0  0  0  0  0
   -0.2072   21.7401  -33.4235 H   0  0  0  0  0  0  0  0  0  0  0  0
   -0.4062   18.7302  -30.9376 H   0  0  0  0  0  0  0  0  0  0  0  0
    0.8083   19.9574  -30.3882 H   0  0  0  0  0  0  0  0  0  0  0  0
   -2.1133   19.7742  -29.5019 H   0  0  0  0  0  0  0  0  0  0  0  0
   -0.6286   19.3235  -28.5380 H   0  0  0  0  0  0  0  0  0  0  0  0
   -0.8660   22.0560  -29.5680 H   0  0  0  0  0  0  0  0  0  0  0  0
   -1.9729   21.6672  -26.9508 H   0  0  0  0  0  0  0  0  0  0  0  0
   -2.4844   22.7460  -28.2930 H   0  0  0  0  0  0  0  0  0  0  0  0
   -2.9747   21.0179  -28.2930 H   0  0  0  0  0  0  0  0  0  0  0  0
   -0.1017   21.4914  -26.8426 H   0  0  0  0  0  0  0  0  0  0  0  0
    0.9406   20.7256  -28.0891 H   0  0  0  0  0  0  0  0  0  0  0  0
    0.7006   22.5058  -28.0891 H   0  0  0  0  0  0  0  0  0  0  0  0
  1  2  1  0
  2  3  1  0
  3  4  1  0
  4  5  1  0
  5  6  1  0
  6  7  1  0
  7  8  1  0
  8  9  1  0
  5 10  1  0
 10 11  2  0
 11 12  1  0
 12 13  1  0
 12 14  2  0
 14 15  1  0
 15 16  1  0
 16 17  2  0
 17 18  1  0
 18 19  1  0
 18 20  1  0
 20 21  1  0
 21 22  1  0
 22 23  1  0
 22 24  1  0
 17 25  1  0
 25 26  1  0
 26 10  1  0
 26 15  2  0
  1 27  1  0
  1 28  1  0
  1 29  1  0
  2 30  1  0
  2 31  1  0
  3 32  1  0
  3 33  1  0
  4 34  1  0
  4 35  1  0
  6 36  1  0
  6 37  1  0
  7 38  1  0
  7 39  1  0
  8 40  1  0
  8 41  1  0
  9 42  1  0
  9 43  1  0
  9 44  1  0
 11 45  1  0
 13 46  1  0
 13 47  1  0
 13 48  1  0
 19 49  1  0
 19 50  1  0
 19 51  1  0
 20 52  1  0
 20 53  1  0
 21 54  1  0
 21 55  1  0
 22 56  1  0
 23 57  1  0
 23 58  1  0
 23 59  1  0
 24 60  1  0
 24 61  1  0
 24 62  1  0
M  CHG  1  22   1
M  END
>  <UniqueID>  (27) 
26

>  <SMILES>  (27) 
CCCCN(CCCC)c1cc(C)nc2nc(N(C)CC[NH+](C)C)sc12

>  <Energy>  (27) 
86.76291620507418

>  <Genealogy>  (27) 
CCCCN(CCCC)c1cc(C)nc2nc(N(C)CC[NH+](C)C)sc12 (protonated)
CCCCN(CCCC)c1cc(C)nc2nc(N(C)CC[NH+](C)C)sc12 (3D coordinates assigned)
CCCCN(CCCC)c1cc(C)nc2nc(N(C)CC[NH+](C)C)sc12 (optimized conformer: 86.76291620507418 kcal/mol)

>  <smiles>  (27) 
CCCCN(CCCC)c1cc(C)nc2nc(N(C)CCN(C)C)sc12

>  <score_type>  (27) 
oracle

>  <origin>  (27) 
adgpu

>  <m_score__min__energy>  (27) 
-6.9500000000000002

>  <m_primary>  (27) 
energy

$$$$
27:0
     RDKit          3D

 36 37  0  0  0  0  0  0  0  0999 V2000
   -9.2920   21.6120  -30.7990 C   0  0  0  0  0  0  0  0  0  0  0  0
   -8.9040   21.0020  -32.1410 C   0  0  0  0  0  0  0  0  0  0  0  0
   -7.4740   21.2120  -32.4020 N   0  0  0  0  0  0  0  0  0  0  0  0
   -6.6910   20.1590  -33.0610 C   0  0  0  0  0  0  0  0  0  0  0  0
   -7.2550   18.7850  -32.7180 C   0  0  0  0  0  0  0  0  0  0  0  0
   -6.9100   22.5250  -32.2320 C   0  0  0  0  0  0  0  0  0  0  0  0
   -7.5320   23.5270  -32.6800 O   0  0  0  0  0  0  0  0  0  0  0  0
   -5.6260   22.7230  -31.5190 C   0  0  0  0  0  0  0  0  0  0  0  0
   -4.4170   22.2870  -32.0880 C   0  0  0  0  0  0  0  0  0  0  0  0
   -3.2100   22.4630  -31.4070 C   0  0  0  0  0  0  0  0  0  0  0  0
   -3.1870   23.0710  -30.1420 C   0  0  0  0  0  0  0  0  0  0  0  0
   -1.9430   23.2520  -29.4420 N   0  0  0  0  0  0  0  0  0  0  0  0
   -1.1090   22.2900  -28.9970 C   0  0  0  0  0  0  0  0  0  0  0  0
   -1.3200   20.9280  -29.1750 O   0  0  0  0  0  0  0  0  0  0  0  0
   -0.0080   22.8360  -28.3690 C   0  0  0  0  0  0  0  0  0  0  0  0
   -0.1730   24.2080  -28.4320 C   0  0  0  0  0  0  0  0  0  0  0  0
   -1.3650   24.4210  -29.0930 C   0  0  0  0  0  0  0  0  0  0  0  0
   -1.9160   25.6730  -29.3430 O   0  0  0  0  0  0  0  0  0  0  0  0
   -4.3970   23.4950  -29.5670 C   0  0  0  0  0  0  0  0  0  0  0  0
   -5.6050   23.3190  -30.2480 C   0  0  0  0  0  0  0  0  0  0  0  0
   -8.8953   20.9883  -29.9843 H   0  0  0  0  0  0  0  0  0  0  0  0
   -8.8725   22.6260  -30.7221 H   0  0  0  0  0  0  0  0  0  0  0  0
  -10.3882   21.6619  -30.7221 H   0  0  0  0  0  0  0  0  0  0  0  0
   -9.1150   19.9226  -32.1235 H   0  0  0  0  0  0  0  0  0  0  0  0
   -9.4880   21.4873  -32.9369 H   0  0  0  0  0  0  0  0  0  0  0  0
   -6.7308   20.3056  -34.1505 H   0  0  0  0  0  0  0  0  0  0  0  0
   -5.6500   20.2155  -32.7101 H   0  0  0  0  0  0  0  0  0  0  0  0
   -7.3020   18.6704  -31.6250 H   0  0  0  0  0  0  0  0  0  0  0  0
   -8.2658   18.6876  -33.1407 H   0  0  0  0  0  0  0  0  0  0  0  0
   -6.6041   18.0055  -33.1407 H   0  0  0  0  0  0  0  0  0  0  0  0
   -4.4212   21.8039  -33.0762 H   0  0  0  0  0  0  0  0  0  0  0  0
   -2.2700   22.1224  -31.8658 H   0  0  0  0  0  0  0  0  0  0  0  0
    0.8306   22.2908  -27.9112 H   0  0  0  0  0  0  0  0  0  0  0  0
    0.5088   24.9746  -28.0351 H   0  0  0  0  0  0  0  0  0  0  0  0
   -4.3936   23.9687  -28.5742 H   0  0  0  0  0  0  0  0  0  0  0  0
   -6.5461   23.6499  -29.7846 H   0  0  0  0  0  0  0  0  0  0  0  0
  1  2  1  0
  2  3  1  0
  3  4  1  0
  4  5  1  0
  3  6  1  0
  6  7  2  0
  6  8  1  0
  8  9  2  0
  9 10  1  0
 10 11  2  0
 11 12  1  0
 12 13  1  0
 13 14  1  0
 13 15  2  0
 15 16  1  0
 16 17  2  0
 17 18  1  0
 11 19  1  0
 19 20  2  0
 20  8  1  0
 17 12  1  0
  1 21  1  0
  1 22  1  0
  1 23  1  0
  2 24  1  0
  2 25  1  0
  4 26  1  0
  4 27  1  0
  5 28  1  0
  5 29  1  0
  5 30  1  0
  9 31  1  0
 10 32  1  0
 15 33  1  0
 16 34  1  0
 19 35  1  0
 20 36  1  0
M  CHG  2  14  -1  18  -1
M  END
>  <UniqueID>  (28) 
27

>  <SMILES>  (28) 
CCN(CC)C(=O)c1ccc(-n2c([O-])ccc2[O-])cc1

>  <Energy>  (28) 
67.40743360934509

>  <Genealogy>  (28) 
CCN(CC)C(=O)c1ccc(-n2c([O-])ccc2[O-])cc1 (protonated)
CCN(CC)C(=O)c1ccc(-n2c([O-])ccc2[O-])cc1 (3D coordinates assigned)
CCN(CC)C(=O)c1ccc(-n2c([O-])ccc2[O-])cc1 (optimized conformer: 67.40743360934509 kcal/mol)

>  <smiles>  (28) 
CCN(CC)C(=O)c1ccc(-n2c(O)ccc2O)cc1

>  <score_type>  (28) 
oracle

>  <origin>  (28) 
adgpu

>  <m_score__min__energy>  (28) 
-9.5700000000000003

>  <m_primary>  (28) 
energy

$$$$
28:0
     RDKit          3D

 55 58  0  0  1  0  0  0  0  0999 V2000
   -0.6570   26.2440  -23.3670 C   0  0  0  0  0  0  0  0  0  0  0  0
   -1.1990   25.7600  -24.6490 C   0  0  0  0  0  0  0  0  0  0  0  0
   -0.7450   24.6440  -25.3230 C   0  0  0  0  0  0  0  0  0  0  0  0
   -1.5040   24.5240  -26.4780 C   0  0  0  0  0  0  0  0  0  0  0  0
   -1.3840   23.6090  -27.3680 N   0  0  0  0  0  0  0  0  0  0  0  0
   -2.2150   23.5710  -28.5250 C   0  0  0  0  0  0  0  0  0  0  0  0
   -3.2450   24.4480  -28.6780 N   0  0  0  0  0  0  0  0  0  0  0  0
   -4.0500   24.4540  -29.7400 C   0  0  0  0  0  0  0  0  0  0  0  0
   -5.0130   25.2800  -29.8740 N   0  0  0  0  0  0  0  0  0  0  0  0
   -5.8710   25.2580  -31.0440 C   0  0  0  0  0  0  0  0  0  0  0  0
   -6.4360   23.8960  -31.2360 C   0  0  0  0  0  0  0  0  0  0  0  0
   -7.1390   23.3400  -30.1830 C   0  0  0  0  0  0  0  0  0  0  0  0
   -7.6830   22.0740  -30.3180 C   0  0  0  0  0  0  0  0  0  0  0  0
   -7.4910   21.4270  -31.5130 C   0  0  0  0  0  0  0  0  0  0  0  0
   -8.1820   19.8170  -31.6820 S   0  0  0  0  0  0  0  0  0  0  0  0
   -9.0960   19.6840  -33.1410 N   0  0  0  0  0  0  0  0  0  0  0  0
   -9.1080   19.5480  -30.5090 O   0  0  0  0  0  0  0  0  0  0  0  0
   -7.0980   18.7830  -31.6100 O   0  0  0  0  0  0  0  0  0  0  0  0
   -6.7980   21.9650  -32.5640 C   0  0  0  0  0  0  0  0  0  0  0  0
   -6.2560   23.2230  -32.4330 C   0  0  0  0  0  0  0  0  0  0  0  0
   -3.8640   23.5570  -30.7340 N   0  0  0  0  0  0  0  0  0  0  0  0
   -2.8480   22.6870  -30.5900 C   0  0  0  0  0  0  0  0  0  0  0  0
   -2.6830   21.7460  -31.6720 N   0  0  0  0  0  0  0  0  0  0  0  0
   -1.4700   21.7040  -32.4660 C   0  0  0  0  0  0  0  0  0  0  0  0
   -1.4430   20.3260  -33.1090 C   0  0  0  0  0  0  0  0  0  0  0  0
   -2.4940   20.2320  -34.0810 N   0  0  0  0  0  0  0  0  0  0  0  0
   -3.7670   20.5120  -33.4870 C   0  0  0  0  0  0  0  0  0  0  0  0
   -3.7250   20.7970  -32.0170 C   0  0  0  0  0  0  0  0  0  0  0  0
   -2.0350   22.6820  -29.5170 N   0  0  0  0  0  0  0  0  0  0  0  0
   -2.3830   25.5480  -26.4760 N   0  0  0  0  0  0  0  0  0  0  0  0
   -2.1990   26.2870  -25.3800 N   0  0  0  0  0  0  0  0  0  0  0  0
   -1.1951   25.7635  -22.5366 H   0  0  0  0  0  0  0  0  0  0  0  0
    0.4126   25.9950  -23.3037 H   0  0  0  0  0  0  0  0  0  0  0  0
   -0.7839   27.3348  -23.3037 H   0  0  0  0  0  0  0  0  0  0  0  0
    0.0673   23.9746  -25.0037 H   0  0  0  0  0  0  0  0  0  0  0  0
   -6.6922   25.9768  -30.9068 H   0  0  0  0  0  0  0  0  0  0  0  0
   -5.2795   25.5313  -31.9302 H   0  0  0  0  0  0  0  0  0  0  0  0
   -7.2652   23.8997  -29.2445 H   0  0  0  0  0  0  0  0  0  0  0  0
   -8.2475   21.6047  -29.4988 H   0  0  0  0  0  0  0  0  0  0  0  0
   -9.1560   18.6590  -33.3750 H   0  0  0  0  0  0  0  0  0  0  0  0
   -8.5530   20.1270  -33.9090 H   0  0  0  0  0  0  0  0  0  0  0  0
   -6.6762   21.3997  -33.4998 H   0  0  0  0  0  0  0  0  0  0  0  0
   -5.6935   23.6829  -33.2589 H   0  0  0  0  0  0  0  0  0  0  0  0
   -1.4906   22.4868  -33.2385 H   0  0  0  0  0  0  0  0  0  0  0  0
   -0.5763   21.8806  -31.8495 H   0  0  0  0  0  0  0  0  0  0  0  0
   -0.4722   20.1703  -33.6023 H   0  0  0  0  0  0  0  0  0  0  0  0
   -1.5884   19.5573  -32.3357 H   0  0  0  0  0  0  0  0  0  0  0  0
   -2.2780   20.8000  -34.9090 H   0  0  0  0  0  0  0  0  0  0  0  0
   -4.1955   21.3893  -33.9936 H   0  0  0  0  0  0  0  0  0  0  0  0
   -4.3726   19.6018  -33.6089 H   0  0  0  0  0  0  0  0  0  0  0  0
   -4.6966   21.2101  -31.7084 H   0  0  0  0  0  0  0  0  0  0  0  0
   -3.5076   19.8528  -31.4961 H   0  0  0  0  0  0  0  0  0  0  0  0
   -1.2540   21.9830  -29.4450 H   0  0  0  0  0  0  0  0  0  0  0  0
   -3.0910   25.7170  -27.2280 H   0  0  0  0  0  0  0  0  0  0  0  0
   -2.7450   27.1370  -25.1320 H   0  0  0  0  0  0  0  0  0  0  0  0
  1  2  1  0
  2  3  2  0
  3  4  1  0
  4  5  2  0
  5  6  1  0
  6  7  2  0
  7  8  1  0
  8  9  2  0
  9 10  1  0
 10 11  1  0
 11 12  2  0
 12 13  1  0
 13 14  2  0
 14 15  1  0
 15 16  1  0
 15 17  2  0
 15 18  2  0
 14 19  1  0
 19 20  2  0
  8 21  1  0
 21 22  2  0
 22 23  1  0
 23 24  1  0
 24 25  1  0
 25 26  1  0
 26 27  1  0
 27 28  1  0
 22 29  1  0
  4 30  1  0
 30 31  1  0
 31  2  1  0
 29  6  1  0
 20 11  1  0
 28 23  1  0
  1 32  1  0
  1 33  1  0
  1 34  1  0
  3 35  1  0
 10 36  1  0
 10 37  1  0
 12 38  1  0
 13 39  1  0
 16 40  1  0
 16 41  1  0
 19 42  1  0
 20 43  1  0
 24 44  1  0
 24 45  1  0
 25 46  1  0
 25 47  1  0
 26 48  1  0
 27 49  1  0
 27 50  1  0
 28 51  1  0
 28 52  1  0
 29 53  1  0
 30 54  1  0
 31 55  1  0
M  END
>  <smiles>  (29) 
Cc1cc(=Nc2nc(=NCc3ccc(S(N)(=O)=O)cc3)nc(N3CCNCC3)[nH]2)[nH][nH]1

>  <score_type>  (29) 
oracle

>  <origin>  (29) 
adgpu

>  <m_score__min__energy>  (29) 
-9.6199999999999992

>  <m_primary>  (29) 
energy

$$$$
29:0
     RDKit          3D

 28 28  0  0  0  0  0  0  0  0999 V2000
   -3.8630   25.3220  -30.8420 N   0  0  0  0  0  0  0  0  0  0  0  0
   -5.1510   24.8560  -29.7890 S   0  0  0  0  0  0  0  0  0  0  0  0
   -4.5800   24.3790  -28.4830 O   0  0  0  0  0  0  0  0  0  0  0  0
   -6.0380   26.0390  -29.5230 O   0  0  0  0  0  0  0  0  0  0  0  0
   -6.0870   23.5670  -30.5400 C   0  0  0  0  0  0  0  0  0  0  0  0
   -5.6900   23.0310  -31.7740 C   0  0  0  0  0  0  0  0  0  0  0  0
   -6.4390   22.0150  -32.3720 C   0  0  0  0  0  0  0  0  0  0  0  0
   -7.5990   21.5280  -31.7480 C   0  0  0  0  0  0  0  0  0  0  0  0
   -8.3960   20.4150  -32.3720 C   0  0  0  0  0  0  0  0  0  0  0  0
   -7.5140   19.5240  -33.1220 N   0  0  0  0  0  0  0  0  0  0  0  0
   -6.8470   18.4100  -32.5120 C   0  0  0  0  0  0  0  0  0  0  0  0
   -6.9360   18.2170  -31.2690 O   0  0  0  0  0  0  0  0  0  0  0  0
   -6.0810   17.4410  -33.3560 C   0  0  0  0  0  0  0  0  0  0  0  0
   -5.3710   18.1720  -34.4480 C   0  0  0  0  0  0  0  0  0  0  0  0
   -4.1130   18.1630  -34.5040 O   0  0  0  0  0  0  0  0  0  0  0  0
   -6.0960   18.9090  -35.3760 O   0  0  0  0  0  0  0  0  0  0  0  0
   -7.9950   22.0700  -30.5160 C   0  0  0  0  0  0  0  0  0  0  0  0
   -7.2450   23.0860  -29.9180 C   0  0  0  0  0  0  0  0  0  0  0  0
   -2.9790   25.2580  -30.2900 H   0  0  0  0  0  0  0  0  0  0  0  0
   -4.7862   23.4119  -32.2721 H   0  0  0  0  0  0  0  0  0  0  0  0
   -6.1187   21.5942  -33.3365 H   0  0  0  0  0  0  0  0  0  0  0  0
   -8.9033   19.8432  -31.5810 H   0  0  0  0  0  0  0  0  0  0  0  0
   -9.1396   20.8462  -33.0583 H   0  0  0  0  0  0  0  0  0  0  0  0
   -7.3890   19.6920  -34.1460 H   0  0  0  0  0  0  0  0  0  0  0  0
   -5.3451   16.9143  -32.7307 H   0  0  0  0  0  0  0  0  0  0  0  0
   -6.7785   16.7148  -33.7989 H   0  0  0  0  0  0  0  0  0  0  0  0
   -8.9007   21.6931  -30.0182 H   0  0  0  0  0  0  0  0  0  0  0  0
   -7.5658   23.5094  -28.9548 H   0  0  0  0  0  0  0  0  0  0  0  0
  1  2  1  0
  2  3  2  0
  2  4  2  0
  2  5  1  0
  5  6  2  0
  6  7  1  0
  7  8  2  0
  8  9  1  0
  9 10  1  0
 10 11  1  0
 11 12  2  0
 11 13  1  0
 13 14  1  0
 14 15  2  0
 14 16  1  0
  8 17  1  0
 17 18  2  0
 18  5  1  0
  1 19  1  0
  6 20  1  0
  7 21  1  0
  9 22  1  0
  9 23  1  0
 10 24  1  0
 13 25  1  0
 13 26  1  0
 17 27  1  0
 18 28  1  0
M  CHG  2   1  -1  16  -1
M  END
>  <UniqueID>  (30) 
28

>  <SMILES>  (30) 
[NH-]S(=O)(=O)c1ccc(CNC(=O)CC(=O)[O-])cc1

>  <Energy>  (30) 
20.30551448359685

>  <Genealogy>  (30) 
[NH-]S(=O)(=O)c1ccc(CNC(=O)CC(=O)[O-])cc1 (protonated)
[NH-]S(=O)(=O)c1ccc(CNC(=O)CC(=O)[O-])cc1 (3D coordinates assigned)
[NH-]S(=O)(=O)c1ccc(CNC(=O)CC(=O)[O-])cc1 (optimized conformer: 20.30551448359685 kcal/mol)

>  <smiles>  (30) 
NS(=O)(=O)c1ccc(CNC(=O)CC(=O)O)cc1

>  <score_type>  (30) 
oracle

>  <origin>  (30) 
adgpu

>  <m_score__min__energy>  (30) 
-9.3499999999999996

>  <m_primary>  (30) 
energy

$$$$
30:0
     RDKit          3D

 35 37  0  0  0  0  0  0  0  0999 V2000
   -4.2680   25.9770  -29.5710 H   0  0  0  0  0  0  0  0  0  0  0  0
   -3.6310   25.2930  -30.0360 N   0  0  0  0  0  0  0  0  0  0  0  0
   -4.0320   24.2240  -30.6540 C   0  0  0  0  0  0  0  0  0  0  0  0
   -3.0980   23.4170  -31.2170 N   0  0  0  0  0  0  0  0  0  0  0  0
   -3.4140   22.2770  -31.8790 C   0  0  0  0  0  0  0  0  0  0  0  0
   -2.0750   21.2940  -32.5670 S   0  0  0  0  0  0  0  0  0  0  0  0
   -1.6580   20.5840  -30.9740 C   0  0  0  0  0  0  0  0  0  0  0  0
   -0.5480   19.7420  -30.8520 C   0  0  0  0  0  0  0  0  0  0  0  0
    0.0651   19.5116  -31.7358 H   0  0  0  0  0  0  0  0  0  0  0  0
   -0.2150   19.1920  -29.6100 C   0  0  0  0  0  0  0  0  0  0  0  0
    0.6540   18.5234  -29.5213 H   0  0  0  0  0  0  0  0  0  0  0  0
   -0.9870   19.4910  -28.4760 C   0  0  0  0  0  0  0  0  0  0  0  0
   -0.6540   18.8730  -27.1510 C   0  0  0  0  0  0  0  0  0  0  0  0
   -1.0073   19.5286  -26.3415 H   0  0  0  0  0  0  0  0  0  0  0  0
   -1.1459   17.8925  -27.0698 H   0  0  0  0  0  0  0  0  0  0  0  0
    0.4354   18.7445  -27.0698 H   0  0  0  0  0  0  0  0  0  0  0  0
   -2.1140   20.3170  -28.6080 C   0  0  0  0  0  0  0  0  0  0  0  0
   -2.7399   20.5336  -27.7297 H   0  0  0  0  0  0  0  0  0  0  0  0
   -2.4450   20.8660  -29.8510 C   0  0  0  0  0  0  0  0  0  0  0  0
   -3.3244   21.5199  -29.9464 H   0  0  0  0  0  0  0  0  0  0  0  0
   -4.7590   21.8950  -32.0160 C   0  0  0  0  0  0  0  0  0  0  0  0
   -5.0970   20.7140  -32.7820 C   0  0  0  0  0  0  0  0  0  0  0  0
   -5.3660   19.7710  -33.3960 N   0  0  0  0  0  0  0  0  0  0  0  0
   -5.7680   22.7010  -31.4410 C   0  0  0  0  0  0  0  0  0  0  0  0
   -7.1940   22.3110  -31.5570 C   0  0  0  0  0  0  0  0  0  0  0  0
   -7.8290   20.7950  -31.1900 S   0  0  0  0  0  0  0  0  0  0  0  0
   -9.4270   21.1700  -31.5510 C   0  0  0  0  0  0  0  0  0  0  0  0
  -10.2830   20.4833  -31.4757 H   0  0  0  0  0  0  0  0  0  0  0  0
   -9.4810   22.4970  -31.9610 C   0  0  0  0  0  0  0  0  0  0  0  0
  -10.4151   22.9975  -32.2557 H   0  0  0  0  0  0  0  0  0  0  0  0
   -8.2370   23.1370  -31.9640 C   0  0  0  0  0  0  0  0  0  0  0  0
   -8.0975   24.1876  -32.2585 H   0  0  0  0  0  0  0  0  0  0  0  0
   -5.4010   23.8800  -30.7490 C   0  0  0  0  0  0  0  0  0  0  0  0
   -6.4120   24.7010  -30.1120 C   0  0  0  0  0  0  0  0  0  0  0  0
   -7.2190   25.3550  -29.6030 N   0  0  0  0  0  0  0  0  0  0  0  0
  1  2  1  0
  2  3  2  0
  3  4  1  0
  4  5  1  0
  5  6  1  0
  6  7  1  0
  7  8  2  0
  8  9  1  0
  8 10  1  0
 10 11  1  0
 10 12  2  0
 12 13  1  0
 13 14  1  0
 13 15  1  0
 13 16  1  0
 12 17  1  0
 17 18  1  0
 17 19  2  0
 19 20  1  0
  5 21  2  0
 21 22  1  0
 22 23  3  0
 21 24  1  0
 24 25  1  0
 25 26  1  0
 26 27  1  0
 27 28  1  0
 27 29  2  0
 29 30  1  0
 29 31  1  0
 31 32  1  0
 24 33  2  0
 33 34  1  0
 34 35  3  0
 33  3  1  0
 19  7  1  0
 31 25  2  0
M  CHG  1   4  -1
M  END
>  <UniqueID>  (31) 
29

>  <SMILES>  (31) 
[H]/N=c1/[n-]c(Sc2ccc(C)cc2)c(C#N)c(-c2cccs2)c1C#N

>  <Energy>  (31) 
69.76229885557326

>  <Genealogy>  (31) 
Cc1ccc(Sc2[n-]c(=N)c(C#N)c(-c3cccs3)c2C#N)cc1 (protonated)
[H]/N=c1/[n-]c(Sc2ccc(C)cc2)c(C#N)c(-c2cccs2)c1C#N (cis-trans isomerization)
[H]/N=c1/[n-]c(Sc2ccc(C)cc2)c(C#N)c(-c2cccs2)c1C#N (3D coordinates assigned)
[H]/N=c1/[n-]c(Sc2ccc(C)cc2)c(C#N)c(-c2cccs2)c1C#N (optimized conformer: 69.76229885557326 kcal/mol)

>  <smiles>  (31) 
Cc1ccc(Sc2[nH]c(=N)c(C#N)c(-c3cccs3)c2C#N)cc1

>  <score_type>  (31) 
oracle

>  <origin>  (31) 
adgpu

>  <m_score__min__energy>  (31) 
-10.16

>  <m_primary>  (31) 
energy

$$$$
31:0
     RDKit          3D

 38 40  0  0  0  0  0  0  0  0999 V2000
   -5.6120   25.1710  -28.8210 O   0  0  0  0  0  0  0  0  0  0  0  0
   -5.2450   25.1130  -30.2770 S   0  0  0  0  0  0  0  0  0  0  0  0
   -5.5930   26.4230  -30.9240 O   0  0  0  0  0  0  0  0  0  0  0  0
   -3.5370   24.8470  -30.4190 N   0  0  0  0  0  0  0  0  0  0  0  0
   -2.7300   24.1210  -29.4800 C   0  0  0  0  0  0  0  0  0  0  0  0
   -3.0590   22.8160  -29.0680 C   0  0  0  0  0  0  0  0  0  0  0  0
   -2.2520   22.1460  -28.1430 C   0  0  0  0  0  0  0  0  0  0  0  0
   -1.1140   22.7670  -27.6250 C   0  0  0  0  0  0  0  0  0  0  0  0
   -0.7790   24.0600  -28.0320 C   0  0  0  0  0  0  0  0  0  0  0  0
   -1.5820   24.7360  -28.9560 C   0  0  0  0  0  0  0  0  0  0  0  0
   -1.2370   26.0240  -29.3500 O   0  0  0  0  0  0  0  0  0  0  0  0
   -6.1300   23.7920  -31.0340 C   0  0  0  0  0  0  0  0  0  0  0  0
   -7.5060   23.6510  -30.8180 C   0  0  0  0  0  0  0  0  0  0  0  0
   -8.2110   22.6160  -31.4390 C   0  0  0  0  0  0  0  0  0  0  0  0
   -7.5430   21.7120  -32.2690 C   0  0  0  0  0  0  0  0  0  0  0  0
   -6.1560   21.8260  -32.4710 C   0  0  0  0  0  0  0  0  0  0  0  0
   -5.4510   20.9270  -33.3440 N   0  0  0  0  0  0  0  0  0  0  0  0
   -5.6690   19.5060  -33.3940 C   0  0  0  0  0  0  0  0  0  0  0  0
   -4.9070   18.7220  -34.2740 C   0  0  0  0  0  0  0  0  0  0  0  0
   -5.0820   17.3360  -34.3200 C   0  0  0  0  0  0  0  0  0  0  0  0
   -6.0100   16.7190  -33.4760 C   0  0  0  0  0  0  0  0  0  0  0  0
   -6.7570   17.4880  -32.5800 C   0  0  0  0  0  0  0  0  0  0  0  0
   -6.5830   18.8740  -32.5310 C   0  0  0  0  0  0  0  0  0  0  0  0
   -5.4600   22.8800  -31.8610 C   0  0  0  0  0  0  0  0  0  0  0  0
   -3.9535   22.3216  -29.4748 H   0  0  0  0  0  0  0  0  0  0  0  0
   -2.5146   21.1270  -27.8227 H   0  0  0  0  0  0  0  0  0  0  0  0
   -0.4817   22.2381  -26.8967 H   0  0  0  0  0  0  0  0  0  0  0  0
    0.1188   24.5481  -27.6248 H   0  0  0  0  0  0  0  0  0  0  0  0
   -8.0333   24.3559  -30.1584 H   0  0  0  0  0  0  0  0  0  0  0  0
   -9.2937   22.5130  -31.2740 H   0  0  0  0  0  0  0  0  0  0  0  0
   -8.1045   20.9076  -32.7666 H   0  0  0  0  0  0  0  0  0  0  0  0
   -4.7330   21.3340  -33.9850 H   0  0  0  0  0  0  0  0  0  0  0  0
   -4.1672   19.2014  -34.9319 H   0  0  0  0  0  0  0  0  0  0  0  0
   -4.4890   16.7302  -35.0210 H   0  0  0  0  0  0  0  0  0  0  0  0
   -6.1520   15.6290  -33.5173 H   0  0  0  0  0  0  0  0  0  0  0  0
   -7.4833   17.0018  -31.9120 H   0  0  0  0  0  0  0  0  0  0  0  0
   -7.1634   19.4735  -31.8143 H   0  0  0  0  0  0  0  0  0  0  0  0
   -4.3793   22.9918  -32.0331 H   0  0  0  0  0  0  0  0  0  0  0  0
  1  2  2  0
  2  3  2  0
  2  4  1  0
  4  5  1  0
  5  6  2  0
  6  7  1  0
  7  8  2  0
  8  9  1  0
  9 10  2  0
 10 11  1  0
  2 12  1  0
 12 13  2  0
 13 14  1  0
 14 15  2  0
 15 16  1  0
 16 17  1  0
 17 18  1  0
 18 19  2  0
 19 20  1  0
 20 21  2  0
 21 22  1  0
 22 23  2  0
 16 24  2  0
 10  5  1  0
 24 12  1  0
 23 18  1  0
  6 25  1  0
  7 26  1  0
  8 27  1  0
  9 28  1  0
 13 29  1  0
 14 30  1  0
 15 31  1  0
 17 32  1  0
 19 33  1  0
 20 34  1  0
 21 35  1  0
 22 36  1  0
 23 37  1  0
 24 38  1  0
M  CHG  2   4  -1  11  -1
M  END
>  <UniqueID>  (32) 
30

>  <SMILES>  (32) 
O=S(=O)([N-]c1ccccc1[O-])c1cccc(Nc2ccccc2)c1

>  <Energy>  (32) 
49.465999272298646

>  <Genealogy>  (32) 
O=S(=O)([N-]c1ccccc1[O-])c1cccc(Nc2ccccc2)c1 (protonated)
O=S(=O)([N-]c1ccccc1[O-])c1cccc(Nc2ccccc2)c1 (3D coordinates assigned)
O=S(=O)([N-]c1ccccc1[O-])c1cccc(Nc2ccccc2)c1 (optimized conformer: 49.465999272298646 kcal/mol)

>  <smiles>  (32) 
O=S(=O)(Nc1ccccc1O)c1cccc(Nc2ccccc2)c1

>  <score_type>  (32) 
oracle

>  <origin>  (32) 
adgpu

>  <m_score__min__energy>  (32) 
-13.69

>  <m_primary>  (32) 
energy

$$$$
32:0
     RDKit          3D

 39 41  0  0  0  0  0  0  0  0999 V2000
   -1.6120   25.5540  -27.0650 C   0  0  0  0  0  0  0  0  0  0  0  0
   -2.5400   24.7310  -27.8960 C   0  0  0  0  0  0  0  0  0  0  0  0
   -3.1020   23.7250  -27.3840 O   0  0  0  0  0  0  0  0  0  0  0  0
   -2.7100   25.0340  -29.2900 N   0  0  0  0  0  0  0  0  0  0  0  0
   -3.7060   24.4280  -30.1310 C   0  0  0  0  0  0  0  0  0  0  0  0
   -4.9350   25.0710  -30.3110 C   0  0  0  0  0  0  0  0  0  0  0  0
   -5.9280   24.4950  -31.1030 C   0  0  0  0  0  0  0  0  0  0  0  0
   -5.7190   23.2480  -31.7210 C   0  0  0  0  0  0  0  0  0  0  0  0
   -6.7190   22.6280  -32.4920 O   0  0  0  0  0  0  0  0  0  0  0  0
   -7.9600   22.1270  -31.9960 C   0  0  0  0  0  0  0  0  0  0  0  0
   -7.9870   20.6270  -32.0550 C   0  0  0  0  0  0  0  0  0  0  0  0
   -8.7950   19.8880  -31.1800 C   0  0  0  0  0  0  0  0  0  0  0  0
   -8.8080   18.4940  -31.2720 C   0  0  0  0  0  0  0  0  0  0  0  0
   -8.0260   17.8540  -32.2350 C   0  0  0  0  0  0  0  0  0  0  0  0
   -7.2430   18.6230  -33.1000 C   0  0  0  0  0  0  0  0  0  0  0  0
   -7.2430   19.9780  -32.9940 N   0  0  0  0  0  0  0  0  0  0  0  0
   -4.4830   22.5880  -31.5420 C   0  0  0  0  0  0  0  0  0  0  0  0
   -4.2160   21.2730  -32.1740 C   0  0  0  0  0  0  0  0  0  0  0  0
   -4.5600   20.0410  -31.5900 C   0  0  0  0  0  0  0  0  0  0  0  0
   -4.2300   18.9420  -32.3690 C   0  0  0  0  0  0  0  0  0  0  0  0
   -3.5170   19.4990  -33.7840 S   0  0  0  0  0  0  0  0  0  0  0  0
   -3.6210   21.1380  -33.4270 C   0  0  0  0  0  0  0  0  0  0  0  0
   -3.4950   23.1760  -30.7320 C   0  0  0  0  0  0  0  0  0  0  0  0
   -1.8160   25.3731  -25.9993 H   0  0  0  0  0  0  0  0  0  0  0  0
   -0.5722   25.2757  -27.2917 H   0  0  0  0  0  0  0  0  0  0  0  0
   -1.7641   26.6196  -27.2917 H   0  0  0  0  0  0  0  0  0  0  0  0
   -2.0110   25.6710  -29.7350 H   0  0  0  0  0  0  0  0  0  0  0  0
   -5.1200   26.0396  -29.8236 H   0  0  0  0  0  0  0  0  0  0  0  0
   -6.8838   25.0204  -31.2460 H   0  0  0  0  0  0  0  0  0  0  0  0
   -8.0888   22.4499  -30.9524 H   0  0  0  0  0  0  0  0  0  0  0  0
   -8.7757   22.5207  -32.6201 H   0  0  0  0  0  0  0  0  0  0  0  0
   -9.4129   20.4007  -30.4281 H   0  0  0  0  0  0  0  0  0  0  0  0
   -9.4330   17.9021  -30.5871 H   0  0  0  0  0  0  0  0  0  0  0  0
   -8.0261   16.7567  -32.3121 H   0  0  0  0  0  0  0  0  0  0  0  0
   -6.6264   18.1315  -33.8670 H   0  0  0  0  0  0  0  0  0  0  0  0
   -5.0457   19.9567  -30.6067 H   0  0  0  0  0  0  0  0  0  0  0  0
   -4.4049   17.8884  -32.1058 H   0  0  0  0  0  0  0  0  0  0  0  0
   -3.2787   21.9616  -34.0708 H   0  0  0  0  0  0  0  0  0  0  0  0
   -2.5441   22.6483  -30.5669 H   0  0  0  0  0  0  0  0  0  0  0  0
  1  2  1  0
  2  3  2  0
  2  4  1  0
  4  5  1  0
  5  6  2  0
  6  7  1  0
  7  8  2  0
  8  9  1  0
  9 10  1  0
 10 11  1  0
 11 12  2  0
 12 13  1  0
 13 14  2  0
 14 15  1  0
 15 16  2  0
  8 17  1  0
 17 18  1  0
 18 19  1  0
 19 20  2  0
 20 21  1  0
 21 22  1  0
 17 23  2  0
 23  5  1  0
 16 11  1  0
 22 18  2  0
  1 24  1  0
  1 25  1  0
  1 26  1  0
  4 27  1  0
  6 28  1  0
  7 29  1  0
 10 30  1  0
 10 31  1  0
 12 32  1  0
 13 33  1  0
 14 34  1  0
 15 35  1  0
 19 36  1  0
 20 37  1  0
 22 38  1  0
 23 39  1  0
M  END
>  <UniqueID>  (33) 
31

>  <SMILES>  (33) 
CC(=O)Nc1ccc(OCc2ccccn2)c(-c2ccsc2)c1

>  <Energy>  (33) 
73.97744198102592

>  <Genealogy>  (33) 
CC(=O)Nc1ccc(OCc2ccccn2)c(-c2ccsc2)c1 (3D coordinates assigned)
CC(=O)Nc1ccc(OCc2ccccn2)c(-c2ccsc2)c1 (optimized conformer: 73.97744198102592 kcal/mol)

>  <smiles>  (33) 
CC(=O)Nc1ccc(OCc2ccccn2)c(-c2ccsc2)c1

>  <score_type>  (33) 
oracle

>  <origin>  (33) 
adgpu

>  <m_score__min__energy>  (33) 
-7.6799999999999997

>  <m_primary>  (33) 
energy

$$$$
33:0
     RDKit          3D

 33 35  0  0  0  0  0  0  0  0999 V2000
   -4.4340   16.6320  -34.7490 C   0  0  0  0  0  0  0  0  0  0  0  0
   -5.4560   17.3750  -33.9400 C   0  0  0  0  0  0  0  0  0  0  0  0
   -6.3630   16.6720  -33.1310 C   0  0  0  0  0  0  0  0  0  0  0  0
   -7.2920   17.3620  -32.3470 C   0  0  0  0  0  0  0  0  0  0  0  0
   -7.3140   18.7600  -32.3540 C   0  0  0  0  0  0  0  0  0  0  0  0
   -8.2140   19.4320  -31.5890 N   0  0  0  0  0  0  0  0  0  0  0  0
   -8.2700   20.7900  -31.5590 C   0  0  0  0  0  0  0  0  0  0  0  0
   -9.4810   21.5410  -30.5290 Cl  0  0  0  0  0  0  0  0  0  0  0  0
   -7.3760   21.5500  -32.3430 C   0  0  0  0  0  0  0  0  0  0  0  0
   -7.3720   23.0610  -32.3160 C   0  0  0  0  0  0  0  0  0  0  0  0
   -6.1990   23.5780  -31.5240 C   0  0  0  0  0  0  0  0  0  0  0  0
   -4.9740   22.8880  -31.5280 C   0  0  0  0  0  0  0  0  0  0  0  0
   -3.8830   23.3840  -30.8070 C   0  0  0  0  0  0  0  0  0  0  0  0
   -4.0060   24.5700  -30.0780 C   0  0  0  0  0  0  0  0  0  0  0  0
   -2.9460   25.0490  -29.3790 F   0  0  0  0  0  0  0  0  0  0  0  0
   -5.2200   25.2610  -30.0670 C   0  0  0  0  0  0  0  0  0  0  0  0
   -6.3130   24.7690  -30.7870 C   0  0  0  0  0  0  0  0  0  0  0  0
   -6.4340   20.8730  -33.1350 C   0  0  0  0  0  0  0  0  0  0  0  0
   -6.3970   19.4750  -33.1500 C   0  0  0  0  0  0  0  0  0  0  0  0
   -5.4660   18.7790  -33.9360 C   0  0  0  0  0  0  0  0  0  0  0  0
   -3.7319   16.1216  -34.0733 H   0  0  0  0  0  0  0  0  0  0  0  0
   -4.9385   15.8884  -35.3834 H   0  0  0  0  0  0  0  0  0  0  0  0
   -3.8823   17.3413  -35.3834 H   0  0  0  0  0  0  0  0  0  0  0  0
   -6.3424   15.5723  -33.1141 H   0  0  0  0  0  0  0  0  0  0  0  0
   -8.0067   16.8045  -31.7238 H   0  0  0  0  0  0  0  0  0  0  0  0
   -7.3067   23.4401  -33.3465 H   0  0  0  0  0  0  0  0  0  0  0  0
   -8.3005   23.4080  -31.8389 H   0  0  0  0  0  0  0  0  0  0  0  0
   -4.8732   21.9542  -32.1006 H   0  0  0  0  0  0  0  0  0  0  0  0
   -2.9270   22.8400  -30.8137 H   0  0  0  0  0  0  0  0  0  0  0  0
   -5.3162   26.1933  -29.4912 H   0  0  0  0  0  0  0  0  0  0  0  0
   -7.2668   25.3169  -30.7765 H   0  0  0  0  0  0  0  0  0  0  0  0
   -5.7214   21.4456  -33.7469 H   0  0  0  0  0  0  0  0  0  0  0  0
   -4.7423   19.3346  -34.5505 H   0  0  0  0  0  0  0  0  0  0  0  0
  1  2  1  0
  2  3  2  0
  3  4  1  0
  4  5  2  0
  5  6  1  0
  6  7  2  0
  7  8  1  0
  7  9  1  0
  9 10  1  0
 10 11  1  0
 11 12  2  0
 12 13  1  0
 13 14  2  0
 14 15  1  0
 14 16  1  0
 16 17  2  0
  9 18  2  0
 18 19  1  0
 19 20  2  0
 20  2  1  0
 19  5  1  0
 17 11  1  0
  1 21  1  0
  1 22  1  0
  1 23  1  0
  3 24  1  0
  4 25  1  0
 10 26  1  0
 10 27  1  0
 12 28  1  0
 13 29  1  0
 16 30  1  0
 17 31  1  0
 18 32  1  0
 20 33  1  0
M  END
>  <UniqueID>  (34) 
32

>  <SMILES>  (34) 
Cc1ccc2nc(Cl)c(Cc3ccc(F)cc3)cc2c1

>  <Energy>  (34) 
38.00253841921125

>  <Genealogy>  (34) 
Cc1ccc2nc(Cl)c(Cc3ccc(F)cc3)cc2c1 (3D coordinates assigned)
Cc1ccc2nc(Cl)c(Cc3ccc(F)cc3)cc2c1 (optimized conformer: 38.00253841921125 kcal/mol)

>  <smiles>  (34) 
Cc1ccc2nc(Cl)c(Cc3ccc(F)cc3)cc2c1

>  <score_type>  (34) 
oracle

>  <origin>  (34) 
adgpu

>  <m_score__min__energy>  (34) 
-8.4900000000000002

>  <m_primary>  (34) 
energy

$$$$
34:0
     RDKit          3D

 43 45  0  0  0  0  0  0  0  0999 V2000
    1.3920   21.1330  -36.6940 N   0  0  0  0  0  0  0  0  0  0  0  0
    0.6410   21.7440  -35.2630 S   0  0  0  0  0  0  0  0  0  0  0  0
    1.6880   22.0160  -34.2200 O   0  0  0  0  0  0  0  0  0  0  0  0
   -0.0650   23.0320  -35.5860 O   0  0  0  0  0  0  0  0  0  0  0  0
   -0.5100   20.5610  -34.6510 C   0  0  0  0  0  0  0  0  0  0  0  0
   -1.5860   20.9640  -33.8500 C   0  0  0  0  0  0  0  0  0  0  0  0
   -2.5060   20.0220  -33.3800 C   0  0  0  0  0  0  0  0  0  0  0  0
   -2.3700   18.6650  -33.7240 C   0  0  0  0  0  0  0  0  0  0  0  0
   -3.2810   17.6620  -33.2520 N   0  0  0  0  0  0  0  0  0  0  0  0
   -4.6720   17.5440  -33.5860 C   0  0  0  0  0  0  0  0  0  0  0  0
   -5.0790   16.5590  -34.2600 O   0  0  0  0  0  0  0  0  0  0  0  0
   -5.6400   18.5520  -33.0930 C   0  0  0  0  0  0  0  0  0  0  0  0
   -5.9360   19.6930  -33.8610 C   0  0  0  0  0  0  0  0  0  0  0  0
   -6.8480   20.6450  -33.3950 C   0  0  0  0  0  0  0  0  0  0  0  0
   -7.4730   20.4750  -32.1540 C   0  0  0  0  0  0  0  0  0  0  0  0
   -8.6130   21.6850  -31.5740 S   0  0  0  0  0  0  0  0  0  0  0  0
   -8.8730   21.5140  -30.1040 O   0  0  0  0  0  0  0  0  0  0  0  0
   -9.9080   21.5300  -32.3200 O   0  0  0  0  0  0  0  0  0  0  0  0
   -7.9810   23.2750  -31.8570 N   0  0  0  0  0  0  0  0  0  0  0  0
   -6.7230   23.7620  -31.3690 C   0  0  0  0  0  0  0  0  0  0  0  0
   -5.5070   23.1120  -31.6520 C   0  0  0  0  0  0  0  0  0  0  0  0
   -4.3050   23.6210  -31.1510 C   0  0  0  0  0  0  0  0  0  0  0  0
   -4.3040   24.7810  -30.3710 C   0  0  0  0  0  0  0  0  0  0  0  0
   -3.1080   25.2870  -29.8750 O   0  0  0  0  0  0  0  0  0  0  0  0
   -5.5090   25.4340  -30.0910 C   0  0  0  0  0  0  0  0  0  0  0  0
   -6.7120   24.9250  -30.5880 C   0  0  0  0  0  0  0  0  0  0  0  0
   -7.1850   19.3420  -31.3830 C   0  0  0  0  0  0  0  0  0  0  0  0
   -6.2740   18.3880  -31.8470 C   0  0  0  0  0  0  0  0  0  0  0  0
   -1.2800   18.2660  -34.5090 C   0  0  0  0  0  0  0  0  0  0  0  0
   -0.3610   19.2080  -34.9780 C   0  0  0  0  0  0  0  0  0  0  0  0
    1.8080   21.9510  -37.1930 H   0  0  0  0  0  0  0  0  0  0  0  0
   -1.7077   22.0258  -33.5897 H   0  0  0  0  0  0  0  0  0  0  0  0
   -3.3397   20.3435  -32.7385 H   0  0  0  0  0  0  0  0  0  0  0  0
   -5.4463   19.8373  -34.8354 H   0  0  0  0  0  0  0  0  0  0  0  0
   -7.0752   21.5310  -34.0060 H   0  0  0  0  0  0  0  0  0  0  0  0
   -5.5024   22.2013  -32.2689 H   0  0  0  0  0  0  0  0  0  0  0  0
   -3.3576   23.1073  -31.3712 H   0  0  0  0  0  0  0  0  0  0  0  0
   -5.5097   26.3484  -29.4795 H   0  0  0  0  0  0  0  0  0  0  0  0
   -7.6572   25.4414  -30.3643 H   0  0  0  0  0  0  0  0  0  0  0  0
   -7.6770   19.2020  -30.4092 H   0  0  0  0  0  0  0  0  0  0  0  0
   -6.0511   17.5026  -31.2336 H   0  0  0  0  0  0  0  0  0  0  0  0
   -1.1469   17.2028  -34.7579 H   0  0  0  0  0  0  0  0  0  0  0  0
    0.4824   18.8855  -35.6062 H   0  0  0  0  0  0  0  0  0  0  0  0
  1  2  1  0
  2  3  2  0
  2  4  2  0
  2  5  1  0
  5  6  2  0
  6  7  1  0
  7  8  2  0
  8  9  1  0
  9 10  1  0
 10 11  2  0
 10 12  1  0
 12 13  2  0
 13 14  1  0
 14 15  2  0
 15 16  1  0
 16 17  2  0
 16 18  2  0
 16 19  1  0
 19 20  1  0
 20 21  2  0
 21 22  1  0
 22 23  2  0
 23 24  1  0
 23 25  1  0
 25 26  2  0
 15 27  1  0
 27 28  2  0
  8 29  1  0
 29 30  2  0
 30  5  1  0
 28 12  1  0
 26 20  1  0
  1 31  1  0
  6 32  1  0
  7 33  1  0
 13 34  1  0
 14 35  1  0
 21 36  1  0
 22 37  1  0
 25 38  1  0
 26 39  1  0
 27 40  1  0
 28 41  1  0
 29 42  1  0
 30 43  1  0
M  CHG  4   1  -1   9  -1  19  -1  24  -1
M  END
>  <UniqueID>  (35) 
33

>  <SMILES>  (35) 
[NH-]S(=O)(=O)c1ccc([N-]C(=O)c2ccc(S(=O)(=O)[N-]c3ccc([O-])cc3)cc2)cc1

>  <Energy>  (35) 
53.209939498055384

>  <Genealogy>  (35) 
[NH-]S(=O)(=O)c1ccc([N-]C(=O)c2ccc(S(=O)(=O)[N-]c3ccc([O-])cc3)cc2)cc1 (protonated)
[NH-]S(=O)(=O)c1ccc([N-]C(=O)c2ccc(S(=O)(=O)[N-]c3ccc([O-])cc3)cc2)cc1 (3D coordinates assigned)
[NH-]S(=O)(=O)c1ccc([N-]C(=O)c2ccc(S(=O)(=O)[N-]c3ccc([O-])cc3)cc2)cc1 (optimized conformer: 53.209939498055384 kcal/mol)

>  <smiles>  (35) 
NS(=O)(=O)c1ccc(NC(=O)c2ccc(S(=O)(=O)Nc3ccc(O)cc3)cc2)cc1

>  <score_type>  (35) 
oracle

>  <origin>  (35) 
adgpu

>  <m_score__min__energy>  (35) 
-13.81

>  <m_primary>  (35) 
energy

$$$$
35:0
     RDKit          3D

 38 41  0  0  0  0  0  0  0  0999 V2000
   -5.4300   13.1390  -34.2470 O   0  0  0  0  0  0  0  0  0  0  0  0
   -6.1740   14.1550  -34.2330 C   0  0  0  0  0  0  0  0  0  0  0  0
   -7.4780   14.0420  -34.7030 O   0  0  0  0  0  0  0  0  0  0  0  0
   -5.6720   15.4510  -33.7250 C   0  0  0  0  0  0  0  0  0  0  0  0
   -4.3010   15.6230  -33.4530 C   0  0  0  0  0  0  0  0  0  0  0  0
   -3.8190   16.8440  -32.9710 C   0  0  0  0  0  0  0  0  0  0  0  0
   -4.7010   17.9060  -32.7570 C   0  0  0  0  0  0  0  0  0  0  0  0
   -4.2510   19.0950  -32.2820 N   0  0  0  0  0  0  0  0  0  0  0  0
   -5.0890   20.1450  -32.0670 C   0  0  0  0  0  0  0  0  0  0  0  0
   -4.5320   21.3840  -31.4800 C   0  0  0  0  0  0  0  0  0  0  0  0
   -5.2610   22.0740  -30.4950 C   0  0  0  0  0  0  0  0  0  0  0  0
   -4.7490   23.2410  -29.9230 C   0  0  0  0  0  0  0  0  0  0  0  0
   -3.5020   23.7270  -30.3200 C   0  0  0  0  0  0  0  0  0  0  0  0
   -2.9940   24.8880  -29.7500 O   0  0  0  0  0  0  0  0  0  0  0  0
   -2.7640   23.0450  -31.2930 C   0  0  0  0  0  0  0  0  0  0  0  0
   -3.2690   21.8760  -31.8740 C   0  0  0  0  0  0  0  0  0  0  0  0
   -2.3180   21.0830  -33.1260 Cl  0  0  0  0  0  0  0  0  0  0  0  0
   -6.4690   19.9920  -32.3560 C   0  0  0  0  0  0  0  0  0  0  0  0
   -7.4450   21.0980  -32.2090 C   0  0  0  0  0  0  0  0  0  0  0  0
   -7.1240   22.3910  -32.6510 C   0  0  0  0  0  0  0  0  0  0  0  0
   -8.0490   23.4260  -32.5200 C   0  0  0  0  0  0  0  0  0  0  0  0
   -9.2980   23.1600  -31.9600 C   0  0  0  0  0  0  0  0  0  0  0  0
   -9.6100   21.9020  -31.5490 N   0  0  0  0  0  0  0  0  0  0  0  0
   -8.7230   20.8730  -31.6600 C   0  0  0  0  0  0  0  0  0  0  0  0
   -9.0520   19.7240  -31.2560 O   0  0  0  0  0  0  0  0  0  0  0  0
   -6.9130   18.7910  -32.8200 N   0  0  0  0  0  0  0  0  0  0  0  0
   -6.0710   17.7470  -33.0250 C   0  0  0  0  0  0  0  0  0  0  0  0
   -6.5550   16.5260  -33.5070 C   0  0  0  0  0  0  0  0  0  0  0  0
   -3.6031   14.7895  -33.6212 H   0  0  0  0  0  0  0  0  0  0  0  0
   -2.7465   16.9681  -32.7606 H   0  0  0  0  0  0  0  0  0  0  0  0
   -6.2410   21.6921  -30.1728 H   0  0  0  0  0  0  0  0  0  0  0  0
   -5.3295   23.7780  -29.1584 H   0  0  0  0  0  0  0  0  0  0  0  0
   -1.7812   23.4295  -31.6033 H   0  0  0  0  0  0  0  0  0  0  0  0
   -6.1402   22.5882  -33.1019 H   0  0  0  0  0  0  0  0  0  0  0  0
   -7.7959   24.4427  -32.8552 H   0  0  0  0  0  0  0  0  0  0  0  0
  -10.0334   23.9706  -31.8504 H   0  0  0  0  0  0  0  0  0  0  0  0
  -10.5540   21.7280  -31.1350 H   0  0  0  0  0  0  0  0  0  0  0  0
   -7.6282   16.4055  -33.7162 H   0  0  0  0  0  0  0  0  0  0  0  0
  1  2  2  0
  2  3  1  0
  2  4  1  0
  4  5  2  0
  5  6  1  0
  6  7  2  0
  7  8  1  0
  8  9  2  0
  9 10  1  0
 10 11  2  0
 11 12  1  0
 12 13  2  0
 13 14  1  0
 13 15  1  0
 15 16  2  0
 16 17  1  0
  9 18  1  0
 18 19  1  0
 19 20  2  0
 20 21  1  0
 21 22  2  0
 22 23  1  0
 23 24  1  0
 24 25  2  0
 18 26  2  0
 26 27  1  0
 27 28  2  0
 28  4  1  0
 27  7  1  0
 16 10  1  0
 24 19  1  0
  5 29  1  0
  6 30  1  0
 11 31  1  0
 12 32  1  0
 15 33  1  0
 20 34  1  0
 21 35  1  0
 22 36  1  0
 23 37  1  0
 28 38  1  0
M  CHG  2   3  -1  14  -1
M  END
>  <UniqueID>  (36) 
34

>  <SMILES>  (36) 
O=C([O-])c1ccc2nc(-c3ccc([O-])cc3Cl)c(-c3ccc[nH]c3=O)nc2c1

>  <Energy>  (36) 
61.58815614648778

>  <Genealogy>  (36) 
O=C([O-])c1ccc2nc(-c3ccc([O-])cc3Cl)c(-c3ccc[nH]c3=O)nc2c1 (protonated)
O=C([O-])c1ccc2nc(-c3ccc([O-])cc3Cl)c(-c3ccc[nH]c3=O)nc2c1 (3D coordinates assigned)
O=C([O-])c1ccc2nc(-c3ccc([O-])cc3Cl)c(-c3ccc[nH]c3=O)nc2c1 (optimized conformer: 61.58815614648778 kcal/mol)

>  <smiles>  (36) 
O=C(O)c1ccc2nc(-c3ccc(O)cc3Cl)c(-c3ccc[nH]c3=O)nc2c1

>  <score_type>  (36) 
oracle

>  <origin>  (36) 
adgpu

>  <m_score__min__energy>  (36) 
-10.35

>  <m_primary>  (36) 
energy

$$$$
36:0
     RDKit          3D

 52 55  0  0  0  0  0  0  0  0999 V2000
   -5.3750   26.5440  -30.2810 O   0  0  0  0  0  0  0  0  0  0  0  0
   -5.0370   25.3540  -30.5310 C   0  0  0  0  0  0  0  0  0  0  0  0
   -3.6580   24.9620  -30.4690 N   0  0  0  0  0  0  0  0  0  0  0  0
   -3.1130   23.8190  -29.7920 C   0  0  0  0  0  0  0  0  0  0  0  0
   -2.2880   24.0300  -28.6800 C   0  0  0  0  0  0  0  0  0  0  0  0
   -1.7760   22.9480  -27.9590 C   0  0  0  0  0  0  0  0  0  0  0  0
   -2.0960   21.6370  -28.3380 C   0  0  0  0  0  0  0  0  0  0  0  0
   -1.6130   20.5010  -27.5380 C   0  0  0  0  0  0  0  0  0  0  0  0
   -1.9790   20.4170  -26.3350 O   0  0  0  0  0  0  0  0  0  0  0  0
   -0.7400   19.4970  -28.1070 N   0  0  0  0  0  0  0  0  0  0  0  0
   -0.3230   19.5800  -29.5130 C   0  0  0  0  0  0  0  0  0  0  0  0
    1.0070   18.8510  -29.7130 C   0  0  0  0  0  0  0  0  0  0  0  0
    0.9320   17.5320  -29.2090 O   0  0  0  0  0  0  0  0  0  0  0  0
    0.7720   17.5710  -27.8030 C   0  0  0  0  0  0  0  0  0  0  0  0
   -0.5680   18.2100  -27.4180 C   0  0  0  0  0  0  0  0  0  0  0  0
   -2.9300   21.4160  -29.4420 C   0  0  0  0  0  0  0  0  0  0  0  0
   -3.4460   22.4990  -30.1610 C   0  0  0  0  0  0  0  0  0  0  0  0
   -6.0760   24.3570  -30.8510 C   0  0  0  0  0  0  0  0  0  0  0  0
   -6.6530   23.5530  -29.8560 C   0  0  0  0  0  0  0  0  0  0  0  0
   -7.5840   22.6250  -30.2010 N   0  0  0  0  0  0  0  0  0  0  0  0
   -7.9660   22.4550  -31.4950 C   0  0  0  0  0  0  0  0  0  0  0  0
   -9.1540   21.1810  -31.9220 S   0  0  0  0  0  0  0  0  0  0  0  0
   -8.1700   19.8050  -31.2220 C   0  0  0  0  0  0  0  0  0  0  0  0
   -7.1020   19.3540  -32.1800 C   0  0  0  0  0  0  0  0  0  0  0  0
   -7.2550   18.1550  -32.9000 C   0  0  0  0  0  0  0  0  0  0  0  0
   -6.2680   17.7440  -33.8010 C   0  0  0  0  0  0  0  0  0  0  0  0
   -5.1290   18.5300  -34.0000 C   0  0  0  0  0  0  0  0  0  0  0  0
   -4.9750   19.7290  -33.2960 C   0  0  0  0  0  0  0  0  0  0  0  0
   -3.8690   20.4910  -33.4910 F   0  0  0  0  0  0  0  0  0  0  0  0
   -5.9540   20.1390  -32.3870 C   0  0  0  0  0  0  0  0  0  0  0  0
   -7.4100   23.2670  -32.4860 C   0  0  0  0  0  0  0  0  0  0  0  0
   -6.4770   24.1940  -32.1430 N   0  0  0  0  0  0  0  0  0  0  0  0
   -2.0409   25.0565  -28.3715 H   0  0  0  0  0  0  0  0  0  0  0  0
   -1.1212   23.1253  -27.0931 H   0  0  0  0  0  0  0  0  0  0  0  0
   -1.0914   19.1150  -30.1480 H   0  0  0  0  0  0  0  0  0  0  0  0
   -0.1979   20.6375  -29.7887 H   0  0  0  0  0  0  0  0  0  0  0  0
    1.2415   18.8148  -30.7871 H   0  0  0  0  0  0  0  0  0  0  0  0
    1.7944   19.3941  -29.1698 H   0  0  0  0  0  0  0  0  0  0  0  0
    0.8072   16.5447  -27.4087 H   0  0  0  0  0  0  0  0  0  0  0  0
    1.5842   18.1772  -27.3753 H   0  0  0  0  0  0  0  0  0  0  0  0
   -1.3872   17.5338  -27.7038 H   0  0  0  0  0  0  0  0  0  0  0  0
   -0.5813   18.3828  -26.3317 H   0  0  0  0  0  0  0  0  0  0  0  0
   -3.1795   20.3881  -29.7440 H   0  0  0  0  0  0  0  0  0  0  0  0
   -4.1136   22.3208  -31.0169 H   0  0  0  0  0  0  0  0  0  0  0  0
   -6.3538   23.6731  -28.8043 H   0  0  0  0  0  0  0  0  0  0  0  0
   -7.6951   20.1426  -30.2890 H   0  0  0  0  0  0  0  0  0  0  0  0
   -8.8450   18.9578  -31.0308 H   0  0  0  0  0  0  0  0  0  0  0  0
   -8.1543   17.5387  -32.7536 H   0  0  0  0  0  0  0  0  0  0  0  0
   -6.3878   16.8008  -34.3541 H   0  0  0  0  0  0  0  0  0  0  0  0
   -4.3540   18.2056  -34.7101 H   0  0  0  0  0  0  0  0  0  0  0  0
   -5.8260   21.0796  -31.8312 H   0  0  0  0  0  0  0  0  0  0  0  0
   -7.7243   23.1573  -33.5344 H   0  0  0  0  0  0  0  0  0  0  0  0
  1  2  2  0
  2  3  1  0
  3  4  1  0
  4  5  2  0
  5  6  1  0
  6  7  2  0
  7  8  1  0
  8  9  2  0
  8 10  1  0
 10 11  1  0
 11 12  1  0
 12 13  1  0
 13 14  1  0
 14 15  1  0
  7 16  1  0
 16 17  2  0
  2 18  1  0
 18 19  2  0
 19 20  1  0
 20 21  2  0
 21 22  1  0
 22 23  1  0
 23 24  1  0
 24 25  2  0
 25 26  1  0
 26 27  2  0
 27 28  1  0
 28 29  1  0
 28 30  2  0
 21 31  1  0
 31 32  2  0
 17  4  1  0
 32 18  1  0
 15 10  1  0
 30 24  1  0
  5 33  1  0
  6 34  1  0
 11 35  1  0
 11 36  1  0
 12 37  1  0
 12 38  1  0
 14 39  1  0
 14 40  1  0
 15 41  1  0
 15 42  1  0
 16 43  1  0
 17 44  1  0
 19 45  1  0
 23 46  1  0
 23 47  1  0
 25 48  1  0
 26 49  1  0
 27 50  1  0
 30 51  1  0
 31 52  1  0
M  CHG  1   3  -1
M  END
>  <UniqueID>  (37) 
35

>  <SMILES>  (37) 
O=C([N-]c1ccc(C(=O)N2CCOCC2)cc1)c1cnc(SCc2cccc(F)c2)cn1

>  <Energy>  (37) 
65.66242843606358

>  <Genealogy>  (37) 
O=C([N-]c1ccc(C(=O)N2CCOCC2)cc1)c1cnc(SCc2cccc(F)c2)cn1 (protonated)
O=C([N-]c1ccc(C(=O)N2CCOCC2)cc1)c1cnc(SCc2cccc(F)c2)cn1 (3D coordinates assigned)
O=C([N-]c1ccc(C(=O)N2CCOCC2)cc1)c1cnc(SCc2cccc(F)c2)cn1 (nonaromatic ring conformer: 65.66242843606358 kcal/mol)

>  <smiles>  (37) 
O=C(Nc1ccc(C(=O)N2CCOCC2)cc1)c1cnc(SCc2cccc(F)c2)cn1

>  <score_type>  (37) 
oracle

>  <origin>  (37) 
adgpu

>  <m_score__min__energy>  (37) 
-11.380000000000001

>  <m_primary>  (37) 
energy

$$$$
37:0
     RDKit          3D

 39 40  0  0  0  0  0  0  0  0999 V2000
   -5.8450   19.2530  -34.1680 C   0  0  0  0  0  0  0  0  0  0  0  0
   -6.5140   18.8250  -32.8660 C   0  0  0  0  0  0  0  0  0  0  0  0
   -7.1750   19.9690  -32.2190 N   0  0  0  0  0  0  0  0  0  0  0  0
   -8.6330   19.9500  -32.0130 C   0  0  0  0  0  0  0  0  0  0  0  0
   -9.0990   18.5620  -31.5850 C   0  0  0  0  0  0  0  0  0  0  0  0
   -6.3880   21.0760  -31.7230 C   0  0  0  0  0  0  0  0  0  0  0  0
   -6.9880   22.2410  -31.3660 N   0  0  0  0  0  0  0  0  0  0  0  0
   -6.2800   23.2960  -30.8850 C   0  0  0  0  0  0  0  0  0  0  0  0
   -7.0300   24.5300  -30.4800 C   0  0  0  0  0  0  0  0  0  0  0  0
   -4.8770   23.1930  -30.7590 C   0  0  0  0  0  0  0  0  0  0  0  0
   -4.0940   24.2590  -30.1920 N   0  0  0  0  0  0  0  0  0  0  0  0
   -3.8590   25.2940  -30.8480 O   0  0  0  0  0  0  0  0  0  0  0  0
   -3.5650   24.1350  -28.9280 O   0  0  0  0  0  0  0  0  0  0  0  0
   -4.2710   21.9810  -31.1460 C   0  0  0  0  0  0  0  0  0  0  0  0
   -2.8490   21.7990  -31.0900 N   0  0  0  0  0  0  0  0  0  0  0  0
   -2.0900   21.8870  -29.9850 C   0  0  0  0  0  0  0  0  0  0  0  0
   -0.7960   21.5730  -30.3310 C   0  0  0  0  0  0  0  0  0  0  0  0
   -0.7390   21.2600  -31.6430 N   0  0  0  0  0  0  0  0  0  0  0  0
   -2.0120   21.3940  -32.0720 C   0  0  0  0  0  0  0  0  0  0  0  0
   -2.4200   21.1090  -33.4830 C   0  0  0  0  0  0  0  0  0  0  0  0
   -5.0400   20.9590  -31.6020 N   0  0  0  0  0  0  0  0  0  0  0  0
   -4.9384   19.8330  -33.9410 H   0  0  0  0  0  0  0  0  0  0  0  0
   -5.5730   18.3608  -34.7511 H   0  0  0  0  0  0  0  0  0  0  0  0
   -6.5411   19.8739  -34.7511 H   0  0  0  0  0  0  0  0  0  0  0  0
   -7.2642   18.0504  -33.0834 H   0  0  0  0  0  0  0  0  0  0  0  0
   -5.7440   18.4313  -32.1862 H   0  0  0  0  0  0  0  0  0  0  0  0
   -8.8966   20.6767  -31.2304 H   0  0  0  0  0  0  0  0  0  0  0  0
   -9.1274   20.2127  -32.9599 H   0  0  0  0  0  0  0  0  0  0  0  0
   -9.1184   18.5042  -30.4867 H   0  0  0  0  0  0  0  0  0  0  0  0
  -10.1088   18.3763  -31.9798 H   0  0  0  0  0  0  0  0  0  0  0  0
   -8.4059   17.8046  -31.9798 H   0  0  0  0  0  0  0  0  0  0  0  0
   -7.0679   24.5924  -29.3824 H   0  0  0  0  0  0  0  0  0  0  0  0
   -6.5186   25.4178  -30.8803 H   0  0  0  0  0  0  0  0  0  0  0  0
   -8.0536   24.4849  -30.8803 H   0  0  0  0  0  0  0  0  0  0  0  0
   -2.4416   22.1620  -28.9796 H   0  0  0  0  0  0  0  0  0  0  0  0
    0.0622   21.5765  -29.6429 H   0  0  0  0  0  0  0  0  0  0  0  0
   -3.3218   20.4791  -33.4838 H   0  0  0  0  0  0  0  0  0  0  0  0
   -2.6334   22.0555  -34.0013 H   0  0  0  0  0  0  0  0  0  0  0  0
   -1.6048   20.5829  -34.0013 H   0  0  0  0  0  0  0  0  0  0  0  0
  1  2  1  0
  2  3  1  0
  3  4  1  0
  4  5  1  0
  3  6  1  0
  6  7  2  0
  7  8  1  0
  8  9  1  0
  8 10  2  0
 10 11  1  0
 11 12  2  0
 11 13  1  0
 10 14  1  0
 14 15  1  0
 15 16  1  0
 16 17  2  0
 17 18  1  0
 18 19  2  0
 19 20  1  0
 14 21  2  0
 21  6  1  0
 19 15  1  0
  1 22  1  0
  1 23  1  0
  1 24  1  0
  2 25  1  0
  2 26  1  0
  4 27  1  0
  4 28  1  0
  5 29  1  0
  5 30  1  0
  5 31  1  0
  9 32  1  0
  9 33  1  0
  9 34  1  0
 16 35  1  0
 17 36  1  0
 20 37  1  0
 20 38  1  0
 20 39  1  0
M  CHG  2  11   1  13  -1
M  END
>  <UniqueID>  (38) 
36

>  <SMILES>  (38) 
CCN(CC)c1nc(C)c([N+](=O)[O-])c(-n2ccnc2C)n1

>  <Energy>  (38) 
71.76965049225123

>  <Genealogy>  (38) 
CCN(CC)c1nc(C)c([N+](=O)[O-])c(-n2ccnc2C)n1 (3D coordinates assigned)
CCN(CC)c1nc(C)c([N+](=O)[O-])c(-n2ccnc2C)n1 (optimized conformer: 71.76965049225123 kcal/mol)

>  <smiles>  (38) 
CCN(CC)c1nc(C)c([N+](=O)[O-])c(-n2ccnc2C)n1

>  <score_type>  (38) 
oracle

>  <origin>  (38) 
adgpu

>  <m_score__min__energy>  (38) 
-6.8899999999999997

>  <m_primary>  (38) 
energy

$$$$
38:0
     RDKit          3D

 45 47  0  0  0  0  0  0  0  0999 V2000
   -2.3480   17.3910  -34.6460 C   0  0  0  0  0  0  0  0  0  0  0  0
   -2.9930   16.3270  -33.7950 C   0  0  0  0  0  0  0  0  0  0  0  0
   -2.1690   15.4110  -33.1150 C   0  0  0  0  0  0  0  0  0  0  0  0
   -2.7260   14.3960  -32.3350 C   0  0  0  0  0  0  0  0  0  0  0  0
   -4.1110   14.2760  -32.2270 C   0  0  0  0  0  0  0  0  0  0  0  0
   -4.9440   15.1700  -32.9020 C   0  0  0  0  0  0  0  0  0  0  0  0
   -4.4040   16.1990  -33.6920 C   0  0  0  0  0  0  0  0  0  0  0  0
   -5.5110   17.2940  -34.5400 S   0  0  0  0  0  0  0  0  0  0  0  0
   -5.0180   17.5630  -35.9340 O   0  0  0  0  0  0  0  0  0  0  0  0
   -6.8640   16.6450  -34.6340 O   0  0  0  0  0  0  0  0  0  0  0  0
   -5.6130   18.8300  -33.6870 C   0  0  0  0  0  0  0  0  0  0  0  0
   -6.8500   19.3240  -33.2520 C   0  0  0  0  0  0  0  0  0  0  0  0
   -6.9190   20.5390  -32.5650 C   0  0  0  0  0  0  0  0  0  0  0  0
   -5.7520   21.2800  -32.3030 C   0  0  0  0  0  0  0  0  0  0  0  0
   -5.8250   22.5690  -31.5700 C   0  0  0  0  0  0  0  0  0  0  0  0
   -7.0640   23.0790  -31.1430 C   0  0  0  0  0  0  0  0  0  0  0  0
   -7.1280   24.2900  -30.4500 C   0  0  0  0  0  0  0  0  0  0  0  0
   -5.9610   25.0070  -30.1740 C   0  0  0  0  0  0  0  0  0  0  0  0
   -4.7140   24.5130  -30.5940 C   0  0  0  0  0  0  0  0  0  0  0  0
   -3.4910   25.2170  -30.3380 N   0  0  0  0  0  0  0  0  0  0  0  0
   -2.2760   24.7310  -29.2020 S   0  0  0  0  0  0  0  0  0  0  0  0
   -3.0650   24.2820  -27.6730 C   0  0  0  0  0  0  0  0  0  0  0  0
   -1.3270   25.8690  -28.9480 O   0  0  0  0  0  0  0  0  0  0  0  0
   -1.5230   23.5440  -29.7330 O   0  0  0  0  0  0  0  0  0  0  0  0
   -4.6550   23.2990  -31.2890 C   0  0  0  0  0  0  0  0  0  0  0  0
   -4.5150   20.7800  -32.7500 C   0  0  0  0  0  0  0  0  0  0  0  0
   -4.4480   19.5650  -33.4370 C   0  0  0  0  0  0  0  0  0  0  0  0
   -1.8876   18.1505  -33.9970 H   0  0  0  0  0  0  0  0  0  0  0  0
   -1.5748   16.9339  -35.2810 H   0  0  0  0  0  0  0  0  0  0  0  0
   -3.1109   17.8651  -35.2810 H   0  0  0  0  0  0  0  0  0  0  0  0
   -1.0755   15.4956  -33.1989 H   0  0  0  0  0  0  0  0  0  0  0  0
   -2.0709   13.6894  -31.8044 H   0  0  0  0  0  0  0  0  0  0  0  0
   -4.5473   13.4768  -31.6098 H   0  0  0  0  0  0  0  0  0  0  0  0
   -6.0357   15.0678  -32.8144 H   0  0  0  0  0  0  0  0  0  0  0  0
   -7.7693   18.7539  -33.4518 H   0  0  0  0  0  0  0  0  0  0  0  0
   -7.8940   20.9193  -32.2262 H   0  0  0  0  0  0  0  0  0  0  0  0
   -7.9878   22.5212  -31.3559 H   0  0  0  0  0  0  0  0  0  0  0  0
   -8.1017   24.6811  -30.1200 H   0  0  0  0  0  0  0  0  0  0  0  0
   -6.0183   25.9597  -29.6271 H   0  0  0  0  0  0  0  0  0  0  0  0
   -2.4526   24.6305  -26.8283 H   0  0  0  0  0  0  0  0  0  0  0  0
   -4.0594   24.7495  -27.6224 H   0  0  0  0  0  0  0  0  0  0  0  0
   -3.1710   23.1883  -27.6224 H   0  0  0  0  0  0  0  0  0  0  0  0
   -3.6806   22.9104  -31.6200 H   0  0  0  0  0  0  0  0  0  0  0  0
   -3.5940   21.3497  -32.5572 H   0  0  0  0  0  0  0  0  0  0  0  0
   -3.4756   19.1844  -33.7829 H   0  0  0  0  0  0  0  0  0  0  0  0
  1  2  1  0
  2  3  2  0
  3  4  1  0
  4  5  2  0
  5  6  1  0
  6  7  2  0
  7  8  1  0
  8  9  2  0
  8 10  2  0
  8 11  1  0
 11 12  2  0
 12 13  1  0
 13 14  2  0
 14 15  1  0
 15 16  2  0
 16 17  1  0
 17 18  2  0
 18 19  1  0
 19 20  1  0
 20 21  1  0
 21 22  1  0
 21 23  2  0
 21 24  2  0
 19 25  2  0
 14 26  1  0
 26 27  2  0
  7  2  1  0
 27 11  1  0
 25 15  1  0
  1 28  1  0
  1 29  1  0
  1 30  1  0
  3 31  1  0
  4 32  1  0
  5 33  1  0
  6 34  1  0
 12 35  1  0
 13 36  1  0
 16 37  1  0
 17 38  1  0
 18 39  1  0
 22 40  1  0
 22 41  1  0
 22 42  1  0
 25 43  1  0
 26 44  1  0
 27 45  1  0
M  CHG  1  20  -1
M  END
>  <UniqueID>  (39) 
37

>  <SMILES>  (39) 
Cc1ccccc1S(=O)(=O)c1ccc(-c2cccc([N-]S(C)(=O)=O)c2)cc1

>  <Energy>  (39) 
54.66688504296065

>  <Genealogy>  (39) 
Cc1ccccc1S(=O)(=O)c1ccc(-c2cccc([N-]S(C)(=O)=O)c2)cc1 (protonated)
Cc1ccccc1S(=O)(=O)c1ccc(-c2cccc([N-]S(C)(=O)=O)c2)cc1 (3D coordinates assigned)
Cc1ccccc1S(=O)(=O)c1ccc(-c2cccc([N-]S(C)(=O)=O)c2)cc1 (optimized conformer: 54.66688504296065 kcal/mol)

>  <smiles>  (39) 
Cc1ccccc1S(=O)(=O)c1ccc(-c2cccc(NS(C)(=O)=O)c2)cc1

>  <score_type>  (39) 
oracle

>  <origin>  (39) 
adgpu

>  <m_score__min__energy>  (39) 
-11.33

>  <m_primary>  (39) 
energy

$$$$
39:0
     RDKit          3D

 36 38  0  0  0  0  0  0  0  0999 V2000
   -6.9030   23.8280  -30.7410 C   0  0  0  0  0  0  0  0  0  0  0  0
   -6.8170   23.5560  -32.2400 C   0  0  0  0  0  0  0  0  0  0  0  0
   -6.1940   22.2970  -32.4890 O   0  0  0  0  0  0  0  0  0  0  0  0
   -6.7180   21.0390  -32.1450 C   0  0  0  0  0  0  0  0  0  0  0  0
   -8.0270   20.8750  -31.6500 C   0  0  0  0  0  0  0  0  0  0  0  0
   -8.4950   19.6070  -31.2940 C   0  0  0  0  0  0  0  0  0  0  0  0
   -7.6680   18.4910  -31.4280 C   0  0  0  0  0  0  0  0  0  0  0  0
   -6.3710   18.6390  -31.9250 C   0  0  0  0  0  0  0  0  0  0  0  0
   -5.8940   19.9060  -32.2920 C   0  0  0  0  0  0  0  0  0  0  0  0
   -4.5530   20.0440  -32.7920 N   0  0  0  0  0  0  0  0  0  0  0  0
   -3.5200   20.7310  -32.2560 C   0  0  0  0  0  0  0  0  0  0  0  0
   -3.6000   21.6570  -31.1040 C   0  0  0  0  0  0  0  0  0  0  0  0
   -3.7900   21.1760  -29.7970 C   0  0  0  0  0  0  0  0  0  0  0  0
   -3.8700   22.0650  -28.7220 C   0  0  0  0  0  0  0  0  0  0  0  0
   -3.7750   23.4430  -28.9360 C   0  0  0  0  0  0  0  0  0  0  0  0
   -3.8550   24.3080  -27.8460 O   0  0  0  0  0  0  0  0  0  0  0  0
   -3.6040   23.9330  -30.2410 C   0  0  0  0  0  0  0  0  0  0  0  0
   -3.5140   25.3010  -30.4760 O   0  0  0  0  0  0  0  0  0  0  0  0
   -3.5250   23.0430  -31.3180 C   0  0  0  0  0  0  0  0  0  0  0  0
   -2.3700   20.4720  -32.9120 N   0  0  0  0  0  0  0  0  0  0  0  0
   -2.6530   19.6090  -33.8780 N   0  0  0  0  0  0  0  0  0  0  0  0
   -3.9710   19.3560  -33.7970 C   0  0  0  0  0  0  0  0  0  0  0  0
   -4.7290   18.2510  -34.7420 S   0  0  0  0  0  0  0  0  0  0  0  0
   -6.6165   22.9220  -30.1869 H   0  0  0  0  0  0  0  0  0  0  0  0
   -6.2209   24.6498  -30.4777 H   0  0  0  0  0  0  0  0  0  0  0  0
   -7.9336   24.1083  -30.4777 H   0  0  0  0  0  0  0  0  0  0  0  0
   -7.8319   23.5469  -32.6642 H   0  0  0  0  0  0  0  0  0  0  0  0
   -6.2145   24.3477  -32.7091 H   0  0  0  0  0  0  0  0  0  0  0  0
   -8.6846   21.7503  -31.5431 H   0  0  0  0  0  0  0  0  0  0  0  0
   -9.5179   19.4885  -30.9072 H   0  0  0  0  0  0  0  0  0  0  0  0
   -8.0374   17.4950  -31.1423 H   0  0  0  0  0  0  0  0  0  0  0  0
   -5.7207   17.7579  -32.0291 H   0  0  0  0  0  0  0  0  0  0  0  0
   -3.8762   20.0938  -29.6195 H   0  0  0  0  0  0  0  0  0  0  0  0
   -4.0085   21.6783  -27.7016 H   0  0  0  0  0  0  0  0  0  0  0  0
   -4.0370   25.2990  -27.9560 H   0  0  0  0  0  0  0  0  0  0  0  0
   -3.4033   23.4318  -32.3398 H   0  0  0  0  0  0  0  0  0  0  0  0
  1  2  1  0
  2  3  1  0
  3  4  1  0
  4  5  2  0
  5  6  1  0
  6  7  2  0
  7  8  1  0
  8  9  2  0
  9 10  1  0
 10 11  1  0
 11 12  1  0
 12 13  2  0
 13 14  1  0
 14 15  2  0
 15 16  1  0
 15 17  1  0
 17 18  1  0
 17 19  2  0
 11 20  2  0
 20 21  1  0
 21 22  1  0
 22 23  2  0
  9  4  1  0
 22 10  1  0
 19 12  1  0
  1 24  1  0
  1 25  1  0
  1 26  1  0
  2 27  1  0
  2 28  1  0
  5 29  1  0
  6 30  1  0
  7 31  1  0
  8 32  1  0
 13 33  1  0
 14 34  1  0
 16 35  1  0
 19 36  1  0
M  CHG  2  18  -1  21  -1
M  END
>  <UniqueID>  (40) 
38

>  <SMILES>  (40) 
CCOc1ccccc1-n1c(-c2ccc(O)c([O-])c2)n[n-]c1=S

>  <Energy>  (40) 
82.29178548031997

>  <Genealogy>  (40) 
CCOc1ccccc1-n1c(-c2ccc(O)c([O-])c2)n[n-]c1=S (protonated)
CCOc1ccccc1-n1c(-c2ccc(O)c([O-])c2)n[n-]c1=S (3D coordinates assigned)
CCOc1ccccc1-n1c(-c2ccc(O)c([O-])c2)n[n-]c1=S (optimized conformer: 82.29178548031997 kcal/mol)

>  <smiles>  (40) 
CCOc1ccccc1-n1c(-c2ccc(O)c(O)c2)n[nH]c1=S

>  <score_type>  (40) 
oracle

>  <origin>  (40) 
adgpu

>  <m_score__min__energy>  (40) 
-10.67

>  <m_primary>  (40) 
energy

$$$$
40:0
     RDKit          3D

 37 39  0  0  0  0  0  0  0  0999 V2000
   -1.1510   17.0060  -34.5560 N   0  0  0  0  0  0  0  0  0  0  0  0
   -2.2220   17.6760  -34.2740 C   0  0  0  0  0  0  0  0  0  0  0  0
   -2.1710   19.0230  -34.2100 N   0  0  0  0  0  0  0  0  0  0  0  0
   -3.2730   19.7480  -33.9180 C   0  0  0  0  0  0  0  0  0  0  0  0
   -3.1930   21.0330  -33.8640 N   0  0  0  0  0  0  0  0  0  0  0  0
   -4.4810   19.1550  -33.6770 C   0  0  0  0  0  0  0  0  0  0  0  0
   -5.5930   19.8460  -33.3850 N   0  0  0  0  0  0  0  0  0  0  0  0
   -6.7540   19.1930  -33.1580 C   0  0  0  0  0  0  0  0  0  0  0  0
   -8.0160   19.9020  -32.8300 C   0  0  0  0  0  0  0  0  0  0  0  0
   -7.9770   20.4890  -31.5080 N   0  0  0  0  0  0  0  0  0  0  0  0
   -7.2700   21.6990  -31.2740 C   0  0  0  0  0  0  0  0  0  0  0  0
   -7.9340   22.9070  -31.2030 C   0  0  0  0  0  0  0  0  0  0  0  0
   -7.2450   24.0990  -30.9730 C   0  0  0  0  0  0  0  0  0  0  0  0
   -5.8780   24.0080  -30.8230 C   0  0  0  0  0  0  0  0  0  0  0  0
   -5.1350   25.2400  -30.5820 C   0  0  0  0  0  0  0  0  0  0  0  0
   -3.8980   25.2990  -30.8210 O   0  0  0  0  0  0  0  0  0  0  0  0
   -5.7560   26.3840  -30.0850 O   0  0  0  0  0  0  0  0  0  0  0  0
   -5.1770   22.8280  -30.8870 C   0  0  0  0  0  0  0  0  0  0  0  0
   -5.8990   21.6700  -31.1160 C   0  0  0  0  0  0  0  0  0  0  0  0
   -6.8180   17.8080  -33.2220 C   0  0  0  0  0  0  0  0  0  0  0  0
   -5.7100   17.0650  -33.5150 C   0  0  0  0  0  0  0  0  0  0  0  0
   -4.5270   17.7700  -33.7440 C   0  0  0  0  0  0  0  0  0  0  0  0
   -3.4100   17.0480  -34.0390 N   0  0  0  0  0  0  0  0  0  0  0  0
   -1.1980   15.9810  -34.6030 H   0  0  0  0  0  0  0  0  0  0  0  0
   -1.2810   19.5100  -34.3850 H   0  0  0  0  0  0  0  0  0  0  0  0
   -2.3050   21.5470  -34.0370 H   0  0  0  0  0  0  0  0  0  0  0  0
   -8.1778   20.7005  -33.5691 H   0  0  0  0  0  0  0  0  0  0  0  0
   -8.8353   19.1683  -32.8533 H   0  0  0  0  0  0  0  0  0  0  0  0
   -8.4710   20.0110  -30.7420 H   0  0  0  0  0  0  0  0  0  0  0  0
   -9.0264   22.9308  -31.3300 H   0  0  0  0  0  0  0  0  0  0  0  0
   -7.7681   25.0649  -30.9143 H   0  0  0  0  0  0  0  0  0  0  0  0
   -5.6890   26.6580  -29.1120 H   0  0  0  0  0  0  0  0  0  0  0  0
   -4.0845   22.8048  -30.7611 H   0  0  0  0  0  0  0  0  0  0  0  0
   -5.3700   20.7073  -31.1733 H   0  0  0  0  0  0  0  0  0  0  0  0
   -7.7758   17.3009  -33.0338 H   0  0  0  0  0  0  0  0  0  0  0  0
   -5.7479   15.9669  -33.5678 H   0  0  0  0  0  0  0  0  0  0  0  0
   -3.4450   16.0130  -34.0890 H   0  0  0  0  0  0  0  0  0  0  0  0
  1  2  2  3
  2  3  1  0
  3  4  1  0
  4  5  2  3
  4  6  1  0
  6  7  2  0
  7  8  1  0
  8  9  1  0
  9 10  1  0
 10 11  1  0
 11 12  2  0
 12 13  1  0
 13 14  2  0
 14 15  1  0
 15 16  2  0
 15 17  1  0
 14 18  1  0
 18 19  2  0
  8 20  2  0
 20 21  1  0
 21 22  2  0
 22 23  1  0
 23  2  1  0
 22  6  1  0
 19 11  1  0
  1 24  1  0
  3 25  1  0
  5 26  1  0
  9 27  1  0
  9 28  1  0
 10 29  1  0
 12 30  1  0
 13 31  1  0
 17 32  1  0
 18 33  1  0
 19 34  1  0
 20 35  1  0
 21 36  1  0
 23 37  1  0
M  END
>  <smiles>  (41) 
N=c1[nH]c(=N)c2nc(CNc3ccc(C(=O)O)cc3)ccc2[nH]1

>  <score_type>  (41) 
oracle

>  <origin>  (41) 
adgpu

>  <m_score__min__energy>  (41) 
-8.3699999999999992

>  <m_primary>  (41) 
energy

$$$$
41:0
     RDKit          3D

 51 53  0  0  0  0  0  0  0  0999 V2000
   -5.3280   14.9290  -34.1470 C   0  0  0  0  0  0  0  0  0  0  0  0
   -5.6440   16.1480  -33.3440 C   0  0  0  0  0  0  0  0  0  0  0  0
   -5.1710   16.2570  -32.1790 O   0  0  0  0  0  0  0  0  0  0  0  0
   -6.3680   17.2300  -33.9490 N   0  0  0  0  0  0  0  0  0  0  0  0
   -6.9290   18.3490  -33.2360 C   0  0  0  0  0  0  0  0  0  0  0  0
   -6.5760   19.6490  -33.6290 C   0  0  0  0  0  0  0  0  0  0  0  0
   -7.1480   20.7620  -33.0070 C   0  0  0  0  0  0  0  0  0  0  0  0
   -8.0810   20.5930  -31.9780 C   0  0  0  0  0  0  0  0  0  0  0  0
   -8.8960   22.0070  -31.3090 S   0  0  0  0  0  0  0  0  0  0  0  0
  -10.2590   21.5880  -30.8290 O   0  0  0  0  0  0  0  0  0  0  0  0
   -9.0530   23.0830  -32.3540 O   0  0  0  0  0  0  0  0  0  0  0  0
   -7.9860   22.6220  -29.9650 N   0  0  0  0  0  0  0  0  0  0  0  0
   -6.6920   23.2180  -30.1150 C   0  0  0  0  0  0  0  0  0  0  0  0
   -6.5360   24.5860  -29.8720 C   0  0  0  0  0  0  0  0  0  0  0  0
   -5.2600   25.1590  -29.8560 C   0  0  0  0  0  0  0  0  0  0  0  0
   -4.1210   24.3630  -30.0730 C   0  0  0  0  0  0  0  0  0  0  0  0
   -2.8000   24.9210  -30.0260 N   0  0  0  0  0  0  0  0  0  0  0  0
   -1.8060   24.9840  -28.6060 S   0  0  0  0  0  0  0  0  0  0  0  0
   -2.7560   24.5060  -27.1760 C   0  0  0  0  0  0  0  0  0  0  0  0
   -1.2510   26.3670  -28.4240 O   0  0  0  0  0  0  0  0  0  0  0  0
   -0.6670   24.0200  -28.7730 O   0  0  0  0  0  0  0  0  0  0  0  0
   -4.2820   22.9900  -30.3490 C   0  0  0  0  0  0  0  0  0  0  0  0
   -3.1810   22.1410  -30.5310 O   0  0  0  0  0  0  0  0  0  0  0  0
   -3.0290   21.2610  -31.6140 C   0  0  0  0  0  0  0  0  0  0  0  0
   -3.7450   20.0600  -31.6060 C   0  0  0  0  0  0  0  0  0  0  0  0
   -3.6360   19.1610  -32.6720 C   0  0  0  0  0  0  0  0  0  0  0  0
   -2.8090   19.4540  -33.7550 C   0  0  0  0  0  0  0  0  0  0  0  0
   -2.0690   20.6360  -33.7610 C   0  0  0  0  0  0  0  0  0  0  0  0
   -2.1640   21.5320  -32.6920 C   0  0  0  0  0  0  0  0  0  0  0  0
   -5.5650   22.4400  -30.4200 C   0  0  0  0  0  0  0  0  0  0  0  0
   -8.4420   19.2970  -31.5800 C   0  0  0  0  0  0  0  0  0  0  0  0
   -7.8810   18.1820  -32.2140 C   0  0  0  0  0  0  0  0  0  0  0  0
   -5.1105   14.0900  -33.4697 H   0  0  0  0  0  0  0  0  0  0  0  0
   -6.1898   14.6742  -34.7814 H   0  0  0  0  0  0  0  0  0  0  0  0
   -4.4510   15.1250  -34.7814 H   0  0  0  0  0  0  0  0  0  0  0  0
   -6.4090   17.2520  -34.9960 H   0  0  0  0  0  0  0  0  0  0  0  0
   -5.8415   19.7935  -34.4350 H   0  0  0  0  0  0  0  0  0  0  0  0
   -6.8636   21.7751  -33.3276 H   0  0  0  0  0  0  0  0  0  0  0  0
   -7.4207   25.2146  -29.6926 H   0  0  0  0  0  0  0  0  0  0  0  0
   -5.1469   26.2377  -29.6728 H   0  0  0  0  0  0  0  0  0  0  0  0
   -2.2081   24.7817  -26.2629 H   0  0  0  0  0  0  0  0  0  0  0  0
   -3.7268   25.0229  -27.1912 H   0  0  0  0  0  0  0  0  0  0  0  0
   -2.9195   23.4183  -27.1912 H   0  0  0  0  0  0  0  0  0  0  0  0
   -4.3991   19.8203  -30.7547 H   0  0  0  0  0  0  0  0  0  0  0  0
   -4.2048   18.2196  -32.6556 H   0  0  0  0  0  0  0  0  0  0  0  0
   -2.7403   18.7554  -34.6019 H   0  0  0  0  0  0  0  0  0  0  0  0
   -1.4080   20.8643  -34.6101 H   0  0  0  0  0  0  0  0  0  0  0  0
   -1.5610   22.4520  -32.6928 H   0  0  0  0  0  0  0  0  0  0  0  0
   -5.6921   21.3886  -30.7174 H   0  0  0  0  0  0  0  0  0  0  0  0
   -9.1689   19.1564  -30.7664 H   0  0  0  0  0  0  0  0  0  0  0  0
   -8.1864   17.1695  -31.9112 H   0  0  0  0  0  0  0  0  0  0  0  0
  1  2  1  0
  2  3  2  0
  2  4  1  0
  4  5  1  0
  5  6  2  0
  6  7  1  0
  7  8  2  0
  8  9  1  0
  9 10  2  0
  9 11  2  0
  9 12  1  0
 12 13  1  0
 13 14  2  0
 14 15  1  0
 15 16  2  0
 16 17  1  0
 17 18  1  0
 18 19  1  0
 18 20  2  0
 18 21  2  0
 16 22  1  0
 22 23  1  0
 23 24  1  0
 24 25  2  0
 25 26  1  0
 26 27  2  0
 27 28  1  0
 28 29  2  0
 22 30  2  0
  8 31  1  0
 31 32  2  0
 32  5  1  0
 30 13  1  0
 29 24  1  0
  1 33  1  0
  1 34  1  0
  1 35  1  0
  4 36  1  0
  6 37  1  0
  7 38  1  0
 14 39  1  0
 15 40  1  0
 19 41  1  0
 19 42  1  0
 19 43  1  0
 25 44  1  0
 26 45  1  0
 27 46  1  0
 28 47  1  0
 29 48  1  0
 30 49  1  0
 31 50  1  0
 32 51  1  0
M  CHG  2  12  -1  17  -1
M  END
>  <UniqueID>  (42) 
39

>  <SMILES>  (42) 
CC(=O)Nc1ccc(S(=O)(=O)[N-]c2ccc([N-]S(C)(=O)=O)c(Oc3ccccc3)c2)cc1

>  <Energy>  (42) 
63.87022152334685

>  <Genealogy>  (42) 
CC(=O)Nc1ccc(S(=O)(=O)[N-]c2ccc([N-]S(C)(=O)=O)c(Oc3ccccc3)c2)cc1 (protonated)
CC(=O)Nc1ccc(S(=O)(=O)[N-]c2ccc([N-]S(C)(=O)=O)c(Oc3ccccc3)c2)cc1 (3D coordinates assigned)
CC(=O)Nc1ccc(S(=O)(=O)[N-]c2ccc([N-]S(C)(=O)=O)c(Oc3ccccc3)c2)cc1 (optimized conformer: 63.87022152334685 kcal/mol)

>  <smiles>  (42) 
CC(=O)Nc1ccc(S(=O)(=O)Nc2ccc(NS(C)(=O)=O)c(Oc3ccccc3)c2)cc1

>  <score_type>  (42) 
oracle

>  <origin>  (42) 
adgpu

>  <m_score__min__energy>  (42) 
-11.359999999999999

>  <m_primary>  (42) 
energy

$$$$
42:0
     RDKit          3D

 20 21  0  0  0  0  0  0  0  0999 V2000
   -9.2100   18.8800  -33.2990 H   0  0  0  0  0  0  0  0  0  0  0  0
   -8.2720   19.2820  -33.0780 N   0  0  0  0  0  0  0  0  0  0  0  0
   -8.1550   20.4520  -32.5400 C   0  0  0  0  0  0  0  0  0  0  0  0
   -6.9620   21.0010  -32.2380 N   0  0  0  0  0  0  0  0  0  0  0  0
   -7.1080   22.2380  -31.6880 C   0  0  0  0  0  0  0  0  0  0  0  0
   -5.9480   23.0360  -31.2320 C   0  0  0  0  0  0  0  0  0  0  0  0
   -6.1770   24.2800  -30.6140 C   0  0  0  0  0  0  0  0  0  0  0  0
   -7.2040   24.6641  -30.5264 H   0  0  0  0  0  0  0  0  0  0  0  0
   -5.1120   25.0310  -30.1110 C   0  0  0  0  0  0  0  0  0  0  0  0
   -5.3036   26.0017  -29.6304 H   0  0  0  0  0  0  0  0  0  0  0  0
   -3.8050   24.5520  -30.2170 C   0  0  0  0  0  0  0  0  0  0  0  0
   -2.7490   25.2970  -29.7090 O   0  0  0  0  0  0  0  0  0  0  0  0
   -3.5610   23.3250  -30.8390 C   0  0  0  0  0  0  0  0  0  0  0  0
   -2.5301   22.9494  -30.9179 H   0  0  0  0  0  0  0  0  0  0  0  0
   -4.6170   22.5690  -31.3630 C   0  0  0  0  0  0  0  0  0  0  0  0
   -4.3020   21.3830  -32.0310 O   0  0  0  0  0  0  0  0  0  0  0  0
   -4.9990   20.7210  -32.3440 H   0  0  0  0  0  0  0  0  0  0  0  0
   -8.4320   22.6590  -31.5370 C   0  0  0  0  0  0  0  0  0  0  0  0
   -8.7583   23.6157  -31.1031 H   0  0  0  0  0  0  0  0  0  0  0  0
   -9.4420   21.4510  -32.1330 S   0  0  0  0  0  0  0  0  0  0  0  0
  1  2  1  0
  2  3  2  0
  3  4  1  0
  4  5  1  0
  5  6  1  0
  6  7  2  0
  7  8  1  0
  7  9  1  0
  9 10  1  0
  9 11  2  0
 11 12  1  0
 11 13  1  0
 13 14  1  0
 13 15  2  0
 15 16  1  0
 16 17  1  0
  5 18  2  0
 18 19  1  0
 18 20  1  0
 20  3  1  0
 15  6  1  0
M  CHG  2   4  -1  12  -1
M  END
>  <UniqueID>  (43) 
40

>  <SMILES>  (43) 
[H]/N=c1/[n-]c(-c2ccc([O-])cc2O)cs1

>  <Energy>  (43) 
56.88168148284885

>  <Genealogy>  (43) 
N=c1[n-]c(-c2ccc([O-])cc2O)cs1 (protonated)
[H]/N=c1/[n-]c(-c2ccc([O-])cc2O)cs1 (cis-trans isomerization)
[H]/N=c1/[n-]c(-c2ccc([O-])cc2O)cs1 (3D coordinates assigned)
[H]/N=c1/[n-]c(-c2ccc([O-])cc2O)cs1 (optimized conformer: 56.88168148284885 kcal/mol)

>  <smiles>  (43) 
N=c1[nH]c(-c2ccc(O)cc2O)cs1

>  <score_type>  (43) 
oracle

>  <origin>  (43) 
adgpu

>  <m_score__min__energy>  (43) 
-8.4900000000000002

>  <m_primary>  (43) 
energy

$$$$
43:0
     RDKit          3D

 45 47  0  0  0  0  0  0  0  0999 V2000
   -0.3690   20.8120  -34.5810 C   0  0  0  0  0  0  0  0  0  0  0  0
   -0.5970   20.5370  -33.1250 C   0  0  0  0  0  0  0  0  0  0  0  0
    0.4890   20.2870  -32.2730 C   0  0  0  0  0  0  0  0  0  0  0  0
    0.2740   20.0100  -30.9200 C   0  0  0  0  0  0  0  0  0  0  0  0
   -1.0270   19.9680  -30.3990 C   0  0  0  0  0  0  0  0  0  0  0  0
   -1.1980   19.6920  -29.0030 N   0  0  0  0  0  0  0  0  0  0  0  0
   -1.9310   20.7640  -27.8530 S   0  0  0  0  0  0  0  0  0  0  0  0
   -0.9040   21.1720  -26.8350 O   0  0  0  0  0  0  0  0  0  0  0  0
   -3.0510   20.0450  -27.1520 O   0  0  0  0  0  0  0  0  0  0  0  0
   -2.5230   22.2060  -28.6720 C   0  0  0  0  0  0  0  0  0  0  0  0
   -1.7590   23.3770  -28.6920 C   0  0  0  0  0  0  0  0  0  0  0  0
   -2.2430   24.5190  -29.3300 C   0  0  0  0  0  0  0  0  0  0  0  0
   -1.4770   25.6780  -29.3380 O   0  0  0  0  0  0  0  0  0  0  0  0
   -3.4950   24.5020  -29.9600 C   0  0  0  0  0  0  0  0  0  0  0  0
   -3.9430   25.6570  -30.5930 O   0  0  0  0  0  0  0  0  0  0  0  0
   -4.2780   23.3230  -29.9530 C   0  0  0  0  0  0  0  0  0  0  0  0
   -5.6090   23.2640  -30.6140 C   0  0  0  0  0  0  0  0  0  0  0  0
   -6.5910   23.8910  -30.1320 O   0  0  0  0  0  0  0  0  0  0  0  0
   -5.7900   22.4680  -31.7940 N   0  0  0  0  0  0  0  0  0  0  0  0
   -6.8860   21.5690  -31.9960 C   0  0  0  0  0  0  0  0  0  0  0  0
   -8.1720   21.9980  -31.6440 C   0  0  0  0  0  0  0  0  0  0  0  0
   -9.2750   21.1630  -31.8400 C   0  0  0  0  0  0  0  0  0  0  0  0
   -9.1000   19.8870  -32.3750 C   0  0  0  0  0  0  0  0  0  0  0  0
   -7.8190   19.4340  -32.7020 C   0  0  0  0  0  0  0  0  0  0  0  0
   -6.6980   20.2550  -32.4930 C   0  0  0  0  0  0  0  0  0  0  0  0
   -5.3290   19.7120  -32.8060 C   0  0  0  0  0  0  0  0  0  0  0  0
   -3.7730   22.1810  -29.3020 C   0  0  0  0  0  0  0  0  0  0  0  0
   -2.1170   20.1980  -31.2580 C   0  0  0  0  0  0  0  0  0  0  0  0
   -1.9020   20.4740  -32.6120 C   0  0  0  0  0  0  0  0  0  0  0  0
    0.3296   21.6546  -34.6900 H   0  0  0  0  0  0  0  0  0  0  0  0
    0.0567   19.9183  -35.0607 H   0  0  0  0  0  0  0  0  0  0  0  0
   -1.3261   21.0648  -35.0607 H   0  0  0  0  0  0  0  0  0  0  0  0
    1.5141   20.3091  -32.6714 H   0  0  0  0  0  0  0  0  0  0  0  0
    1.1327   19.8234  -30.2584 H   0  0  0  0  0  0  0  0  0  0  0  0
   -0.7737   23.3976  -28.2033 H   0  0  0  0  0  0  0  0  0  0  0  0
   -8.3146   22.9988  -31.2104 H   0  0  0  0  0  0  0  0  0  0  0  0
  -10.2829   21.5126  -31.5719 H   0  0  0  0  0  0  0  0  0  0  0  0
   -9.9714   19.2363  -32.5398 H   0  0  0  0  0  0  0  0  0  0  0  0
   -7.6874   18.4276  -33.1260 H   0  0  0  0  0  0  0  0  0  0  0  0
   -4.7952   19.5003  -31.8678 H   0  0  0  0  0  0  0  0  0  0  0  0
   -5.4270   18.7846  -33.3894 H   0  0  0  0  0  0  0  0  0  0  0  0
   -4.7647   20.4544  -33.3894 H   0  0  0  0  0  0  0  0  0  0  0  0
   -4.3689   21.2565  -29.2883 H   0  0  0  0  0  0  0  0  0  0  0  0
   -3.1429   20.1606  -30.8630 H   0  0  0  0  0  0  0  0  0  0  0  0
   -2.7605   20.6427  -33.2788 H   0  0  0  0  0  0  0  0  0  0  0  0
  1  2  1  0
  2  3  2  0
  3  4  1  0
  4  5  2  0
  5  6  1  0
  6  7  1  0
  7  8  2  0
  7  9  2  0
  7 10  1  0
 10 11  2  0
 11 12  1  0
 12 13  1  0
 12 14  2  0
 14 15  1  0
 14 16  1  0
 16 17  1  0
 17 18  2  0
 17 19  1  0
 19 20  1  0
 20 21  2  0
 21 22  1  0
 22 23  2  0
 23 24  1  0
 24 25  2  0
 25 26  1  0
 16 27  2  0
  5 28  1  0
 28 29  2  0
 29  2  1  0
 27 10  1  0
 25 20  1  0
  1 30  1  0
  1 31  1  0
  1 32  1  0
  3 33  1  0
  4 34  1  0
 11 35  1  0
 21 36  1  0
 22 37  1  0
 23 38  1  0
 24 39  1  0
 26 40  1  0
 26 41  1  0
 26 42  1  0
 27 43  1  0
 28 44  1  0
 29 45  1  0
M  CHG  4   6  -1  13  -1  15  -1  19  -1
M  END
>  <UniqueID>  (44) 
41

>  <SMILES>  (44) 
Cc1ccc([N-]S(=O)(=O)c2cc([O-])c([O-])c(C(=O)[N-]c3ccccc3C)c2)cc1

>  <Energy>  (44) 
59.27086805597656

>  <Genealogy>  (44) 
Cc1ccc([N-]S(=O)(=O)c2cc([O-])c([O-])c(C(=O)[N-]c3ccccc3C)c2)cc1 (protonated)
Cc1ccc([N-]S(=O)(=O)c2cc([O-])c([O-])c(C(=O)[N-]c3ccccc3C)c2)cc1 (3D coordinates assigned)
Cc1ccc([N-]S(=O)(=O)c2cc([O-])c([O-])c(C(=O)[N-]c3ccccc3C)c2)cc1 (optimized conformer: 59.27086805597656 kcal/mol)

>  <smiles>  (44) 
Cc1ccc(NS(=O)(=O)c2cc(O)c(O)c(C(=O)Nc3ccccc3C)c2)cc1

>  <score_type>  (44) 
oracle

>  <origin>  (44) 
adgpu

>  <m_score__min__energy>  (44) 
-15.35

>  <m_primary>  (44) 
energy

$$$$
44:0
     RDKit          3D

 47 49  0  0  0  0  0  0  0  0999 V2000
   -0.3840   22.6210  -25.0650 C   0  0  0  0  0  0  0  0  0  0  0  0
   -0.2880   22.4230  -26.4720 O   0  0  0  0  0  0  0  0  0  0  0  0
   -1.0890   23.0720  -27.4250 C   0  0  0  0  0  0  0  0  0  0  0  0
   -1.1070   24.4740  -27.5490 C   0  0  0  0  0  0  0  0  0  0  0  0
   -1.8920   25.0900  -28.5250 C   0  0  0  0  0  0  0  0  0  0  0  0
   -2.6730   24.3170  -29.3990 C   0  0  0  0  0  0  0  0  0  0  0  0
   -3.4870   24.9080  -30.4210 N   0  0  0  0  0  0  0  0  0  0  0  0
   -5.2210   24.8940  -30.4520 S   0  0  0  0  0  0  0  0  0  0  0  0
   -5.7080   26.1120  -31.1860 O   0  0  0  0  0  0  0  0  0  0  0  0
   -5.7370   24.9300  -29.0420 O   0  0  0  0  0  0  0  0  0  0  0  0
   -5.7980   23.4250  -31.2320 C   0  0  0  0  0  0  0  0  0  0  0  0
   -7.1640   23.1180  -31.2230 C   0  0  0  0  0  0  0  0  0  0  0  0
   -7.6260   21.9460  -31.8310 C   0  0  0  0  0  0  0  0  0  0  0  0
   -6.7270   21.0770  -32.4660 C   0  0  0  0  0  0  0  0  0  0  0  0
   -7.2180   19.7990  -33.0810 C   0  0  0  0  0  0  0  0  0  0  0  0
   -5.3570   21.3800  -32.4620 C   0  0  0  0  0  0  0  0  0  0  0  0
   -4.8950   22.5520  -31.8550 C   0  0  0  0  0  0  0  0  0  0  0  0
   -2.6630   22.9250  -29.2720 C   0  0  0  0  0  0  0  0  0  0  0  0
   -1.8820   22.2960  -28.2910 C   0  0  0  0  0  0  0  0  0  0  0  0
   -1.9080   20.8620  -28.1800 N   0  0  0  0  0  0  0  0  0  0  0  0
   -0.7070   20.0780  -28.4960 C   0  0  0  0  0  0  0  0  0  0  0  0
   -0.7830   18.6950  -27.8440 C   0  0  0  0  0  0  0  0  0  0  0  0
   -1.3280   18.8300  -26.4890 N   0  0  0  0  0  0  0  0  0  0  0  0
   -2.7460   19.2390  -26.5010 C   0  0  0  0  0  0  0  0  0  0  0  0
   -3.1040   20.1800  -27.6720 C   0  0  0  0  0  0  0  0  0  0  0  0
    0.0383   21.7500  -24.5425 H   0  0  0  0  0  0  0  0  0  0  0  0
    0.1759   23.5248  -24.7829 H   0  0  0  0  0  0  0  0  0  0  0  0
   -1.4404   22.7411  -24.7829 H   0  0  0  0  0  0  0  0  0  0  0  0
   -0.4973   25.0893  -26.8710 H   0  0  0  0  0  0  0  0  0  0  0  0
   -1.8988   26.1867  -28.6099 H   0  0  0  0  0  0  0  0  0  0  0  0
   -7.8762   23.8006  -30.7363 H   0  0  0  0  0  0  0  0  0  0  0  0
   -8.6991   21.7050  -31.8109 H   0  0  0  0  0  0  0  0  0  0  0  0
   -7.4904   19.0901  -32.2852 H   0  0  0  0  0  0  0  0  0  0  0  0
   -8.1001   20.0072  -33.7043 H   0  0  0  0  0  0  0  0  0  0  0  0
   -6.4234   19.3630  -33.7043 H   0  0  0  0  0  0  0  0  0  0  0  0
   -4.6429   20.6923  -32.9386 H   0  0  0  0  0  0  0  0  0  0  0  0
   -3.8210   22.7894  -31.8663 H   0  0  0  0  0  0  0  0  0  0  0  0
   -3.2762   22.3142  -29.9509 H   0  0  0  0  0  0  0  0  0  0  0  0
   -0.6282   19.9602  -29.5868 H   0  0  0  0  0  0  0  0  0  0  0  0
    0.1757   20.6068  -28.1071 H   0  0  0  0  0  0  0  0  0  0  0  0
   -1.4375   18.0425  -28.4405 H   0  0  0  0  0  0  0  0  0  0  0  0
    0.2233   18.2535  -27.7953 H   0  0  0  0  0  0  0  0  0  0  0  0
   -1.2600   17.8990  -26.0140 H   0  0  0  0  0  0  0  0  0  0  0  0
   -3.3687   18.3354  -26.5771 H   0  0  0  0  0  0  0  0  0  0  0  0
   -2.9311   19.7949  -25.5700 H   0  0  0  0  0  0  0  0  0  0  0  0
   -3.5541   19.5897  -28.4837 H   0  0  0  0  0  0  0  0  0  0  0  0
   -3.8136   20.9382  -27.3093 H   0  0  0  0  0  0  0  0  0  0  0  0
  1  2  1  0
  2  3  1  0
  3  4  2  0
  4  5  1  0
  5  6  2  0
  6  7  1  0
  7  8  1  0
  8  9  2  0
  8 10  2  0
  8 11  1  0
 11 12  2  0
 12 13  1  0
 13 14  2  0
 14 15  1  0
 14 16  1  0
 16 17  2  0
  6 18  1  0
 18 19  2  0
 19 20  1  0
 20 21  1  0
 21 22  1  0
 22 23  1  0
 23 24  1  0
 24 25  1  0
 19  3  1  0
 25 20  1  0
 17 11  1  0
  1 26  1  0
  1 27  1  0
  1 28  1  0
  4 29  1  0
  5 30  1  0
 12 31  1  0
 13 32  1  0
 15 33  1  0
 15 34  1  0
 15 35  1  0
 16 36  1  0
 17 37  1  0
 18 38  1  0
 21 39  1  0
 21 40  1  0
 22 41  1  0
 22 42  1  0
 23 43  1  0
 24 44  1  0
 24 45  1  0
 25 46  1  0
 25 47  1  0
M  CHG  1   7  -1
M  END
>  <UniqueID>  (45) 
42

>  <SMILES>  (45) 
COc1ccc([N-]S(=O)(=O)c2ccc(C)cc2)cc1N1CCNCC1

>  <Energy>  (45) 
58.52418824521961

>  <Genealogy>  (45) 
COc1ccc([N-]S(=O)(=O)c2ccc(C)cc2)cc1N1CCNCC1 (protonated)
COc1ccc([N-]S(=O)(=O)c2ccc(C)cc2)cc1N1CCNCC1 (3D coordinates assigned)
COc1ccc([N-]S(=O)(=O)c2ccc(C)cc2)cc1N1CCNCC1 (nonaromatic ring conformer: 58.52418824521961 kcal/mol)

>  <smiles>  (45) 
COc1ccc(NS(=O)(=O)c2ccc(C)cc2)cc1N1CCNCC1

>  <score_type>  (45) 
oracle

>  <origin>  (45) 
adgpu

>  <m_score__min__energy>  (45) 
-9.5800000000000001

>  <m_primary>  (45) 
energy

$$$$
45:0
     RDKit          3D

 70 74  0  0  0  0  0  0  0  0999 V2000
   -0.0670   18.2790  -33.0290 C   0  0  0  0  0  0  0  0  0  0  0  0
   -0.3480   18.8710  -31.6800 C   0  0  0  0  0  0  0  0  0  0  0  0
    0.4300   18.7390  -30.5280 C   0  0  0  0  0  0  0  0  0  0  0  0
    1.6550   17.8790  -30.4140 C   0  0  0  0  0  0  0  0  0  0  0  0
   -0.1360   19.4230  -29.4940 N   0  0  0  0  0  0  0  0  0  0  0  0
    0.3100   19.4290  -28.0950 C   0  0  0  0  0  0  0  0  0  0  0  0
    0.0850   20.7860  -27.4830 C   0  0  0  0  0  0  0  0  0  0  0  0
    0.9040   21.8660  -27.8470 C   0  0  0  0  0  0  0  0  0  0  0  0
    0.6680   23.1400  -27.3210 C   0  0  0  0  0  0  0  0  0  0  0  0
   -0.3960   23.3540  -26.4340 C   0  0  0  0  0  0  0  0  0  0  0  0
   -0.6480   24.7020  -25.8790 C   0  0  0  0  0  0  0  0  0  0  0  0
   -0.3450   24.9290  -24.5250 C   0  0  0  0  0  0  0  0  0  0  0  0
   -0.4770   26.2020  -23.9700 C   0  0  0  0  0  0  0  0  0  0  0  0
   -0.9100   27.2660  -24.7580 C   0  0  0  0  0  0  0  0  0  0  0  0
   -1.2290   27.0580  -26.1010 C   0  0  0  0  0  0  0  0  0  0  0  0
   -1.1220   25.7790  -26.6780 C   0  0  0  0  0  0  0  0  0  0  0  0
   -1.5560   25.5980  -28.0870 C   0  0  0  0  0  0  0  0  0  0  0  0
   -1.2240   26.4360  -28.9660 O   0  0  0  0  0  0  0  0  0  0  0  0
   -2.3680   24.5300  -28.4520 O   0  0  0  0  0  0  0  0  0  0  0  0
   -1.2030   22.2690  -26.0520 C   0  0  0  0  0  0  0  0  0  0  0  0
   -0.9660   20.9960  -26.5770 C   0  0  0  0  0  0  0  0  0  0  0  0
   -1.2520   20.0000  -29.9980 C   0  0  0  0  0  0  0  0  0  0  0  0
   -2.1830   20.8070  -29.3360 C   0  0  0  0  0  0  0  0  0  0  0  0
   -3.2830   21.2910  -30.0640 C   0  0  0  0  0  0  0  0  0  0  0  0
   -3.4500   20.9660  -31.4350 C   0  0  0  0  0  0  0  0  0  0  0  0
   -4.6140   21.4660  -32.2040 C   0  0  0  0  0  0  0  0  0  0  0  0
   -4.4250   21.9790  -33.3410 O   0  0  0  0  0  0  0  0  0  0  0  0
   -5.9510   21.3560  -31.6870 N   0  0  0  0  0  0  0  0  0  0  0  0
   -7.1140   21.8660  -32.4110 C   0  0  0  0  0  0  0  0  0  0  0  0
   -8.2880   20.8840  -32.2990 C   0  0  0  0  0  0  0  0  0  0  0  0
   -7.9740   19.5900  -32.9440 N   0  0  0  0  0  0  0  0  0  0  0  0
   -7.8260   18.5060  -31.9420 C   0  0  0  0  0  0  0  0  0  0  0  0
   -6.3480   18.1810  -31.6600 C   0  0  0  0  0  0  0  0  0  0  0  0
   -5.6320   17.7620  -32.8130 O   0  0  0  0  0  0  0  0  0  0  0  0
   -6.1130   18.3310  -34.0230 C   0  0  0  0  0  0  0  0  0  0  0  0
   -6.7960   19.6960  -33.8380 C   0  0  0  0  0  0  0  0  0  0  0  0
   -2.4810   20.1620  -32.0770 C   0  0  0  0  0  0  0  0  0  0  0  0
   -1.4020   19.6920  -31.3280 C   0  0  0  0  0  0  0  0  0  0  0  0
    0.4017   17.2915  -32.9057 H   0  0  0  0  0  0  0  0  0  0  0  0
   -1.0097   18.1705  -33.5854 H   0  0  0  0  0  0  0  0  0  0  0  0
    0.6131   18.9408  -33.5854 H   0  0  0  0  0  0  0  0  0  0  0  0
    1.8898   17.7142  -29.3521 H   0  0  0  0  0  0  0  0  0  0  0  0
    1.4704   16.9112  -30.9032 H   0  0  0  0  0  0  0  0  0  0  0  0
    2.5025   18.3814  -30.9032 H   0  0  0  0  0  0  0  0  0  0  0  0
   -0.2588   18.6765  -27.5292 H   0  0  0  0  0  0  0  0  0  0  0  0
    1.3838   19.1931  -28.0598 H   0  0  0  0  0  0  0  0  0  0  0  0
    1.7358   21.7095  -28.5496 H   0  0  0  0  0  0  0  0  0  0  0  0
    1.3208   23.9786  -27.6048 H   0  0  0  0  0  0  0  0  0  0  0  0
   -0.0003   24.0943  -23.8969 H   0  0  0  0  0  0  0  0  0  0  0  0
   -0.2388   26.3659  -22.9087 H   0  0  0  0  0  0  0  0  0  0  0  0
   -1.0007   28.2715  -24.3213 H   0  0  0  0  0  0  0  0  0  0  0  0
   -1.5683   27.9046  -26.7160 H   0  0  0  0  0  0  0  0  0  0  0  0
   -2.0246   22.4224  -25.3368 H   0  0  0  0  0  0  0  0  0  0  0  0
   -1.6070   20.1534  -26.2784 H   0  0  0  0  0  0  0  0  0  0  0  0
   -2.0572   21.0565  -28.2721 H   0  0  0  0  0  0  0  0  0  0  0  0
   -4.0251   21.9308  -29.5640 H   0  0  0  0  0  0  0  0  0  0  0  0
   -6.1220   20.8700  -30.7780 H   0  0  0  0  0  0  0  0  0  0  0  0
   -7.4104   22.8352  -31.9836 H   0  0  0  0  0  0  0  0  0  0  0  0
   -6.8492   21.9853  -33.4719 H   0  0  0  0  0  0  0  0  0  0  0  0
   -8.5082   20.7095  -31.2355 H   0  0  0  0  0  0  0  0  0  0  0  0
   -9.1567   21.3237  -32.8109 H   0  0  0  0  0  0  0  0  0  0  0  0
   -8.3058   18.8214  -31.0037 H   0  0  0  0  0  0  0  0  0  0  0  0
   -8.3022   17.6009  -32.3470 H   0  0  0  0  0  0  0  0  0  0  0  0
   -5.8635   19.0828  -31.2574 H   0  0  0  0  0  0  0  0  0  0  0  0
   -6.3303   17.3449  -30.9454 H   0  0  0  0  0  0  0  0  0  0  0  0
   -5.2622   18.4589  -34.7084 H   0  0  0  0  0  0  0  0  0  0  0  0
   -6.8739   17.6431  -34.4204 H   0  0  0  0  0  0  0  0  0  0  0  0
   -6.0750   20.4013  -33.3991 H   0  0  0  0  0  0  0  0  0  0  0  0
   -7.1366   20.0510  -34.8219 H   0  0  0  0  0  0  0  0  0  0  0  0
   -2.5756   19.9123  -33.1441 H   0  0  0  0  0  0  0  0  0  0  0  0
  1  2  1  0
  2  3  2  0
  3  4  1  0
  3  5  1  0
  5  6  1  0
  6  7  1  0
  7  8  2  0
  8  9  1  0
  9 10  2  0
 10 11  1  0
 11 12  2  0
 12 13  1  0
 13 14  2  0
 14 15  1  0
 15 16  2  0
 16 17  1  0
 17 18  2  0
 17 19  1  0
 10 20  1  0
 20 21  2  0
  5 22  1  0
 22 23  2  0
 23 24  1  0
 24 25  2  0
 25 26  1  0
 26 27  2  0
 26 28  1  0
 28 29  1  0
 29 30  1  0
 30 31  1  0
 31 32  1  0
 32 33  1  0
 33 34  1  0
 34 35  1  0
 35 36  1  0
 25 37  1  0
 37 38  2  0
 38  2  1  0
 21  7  1  0
 38 22  1  0
 16 11  1  0
 36 31  1  0
  1 39  1  0
  1 40  1  0
  1 41  1  0
  4 42  1  0
  4 43  1  0
  4 44  1  0
  6 45  1  0
  6 46  1  0
  8 47  1  0
  9 48  1  0
 12 49  1  0
 13 50  1  0
 14 51  1  0
 15 52  1  0
 20 53  1  0
 21 54  1  0
 23 55  1  0
 24 56  1  0
 28 57  1  0
 29 58  1  0
 29 59  1  0
 30 60  1  0
 30 61  1  0
 32 62  1  0
 32 63  1  0
 33 64  1  0
 33 65  1  0
 35 66  1  0
 35 67  1  0
 36 68  1  0
 36 69  1  0
 37 70  1  0
M  CHG  1  19  -1
M  END
>  <UniqueID>  (46) 
43

>  <SMILES>  (46) 
Cc1c(C)n(Cc2ccc(-c3ccccc3C(=O)[O-])cc2)c2ccc(C(=O)NCCN3CCOCC3)cc12

>  <Energy>  (46) 
131.33305397432804

>  <Genealogy>  (46) 
Cc1c(C)n(Cc2ccc(-c3ccccc3C(=O)[O-])cc2)c2ccc(C(=O)NCCN3CCOCC3)cc12 (protonated)
Cc1c(C)n(Cc2ccc(-c3ccccc3C(=O)[O-])cc2)c2ccc(C(=O)NCCN3CCOCC3)cc12 (3D coordinates assigned)
Cc1c(C)n(Cc2ccc(-c3ccccc3C(=O)[O-])cc2)c2ccc(C(=O)NCCN3CCOCC3)cc12 (nonaromatic ring conformer: 131.33305397432804 kcal/mol)

>  <smiles>  (46) 
Cc1c(C)n(Cc2ccc(-c3ccccc3C(=O)O)cc2)c2ccc(C(=O)NCCN3CCOCC3)cc12

>  <score_type>  (46) 
oracle

>  <origin>  (46) 
adgpu

>  <m_score__min__energy>  (46) 
-12.67

>  <m_primary>  (46) 
energy

$$$$
46:0
     RDKit          3D

 35 36  0  0  0  0  0  0  0  0999 V2000
   -3.7947   24.0444  -26.4998 H   0  0  0  0  0  0  0  0  0  0  0  0
   -3.6540   23.6450  -27.5150 C   0  0  0  0  0  0  0  0  0  0  0  0
   -4.4308   23.0127  -27.9699 H   0  0  0  0  0  0  0  0  0  0  0  0
   -2.5390   23.9280  -28.1960 C   0  0  0  0  0  0  0  0  0  0  0  0
   -1.7721   24.5617  -27.7267 H   0  0  0  0  0  0  0  0  0  0  0  0
   -2.3040   23.4040  -29.5860 C   0  0  0  0  0  0  0  0  0  0  0  0
   -1.6508   24.1028  -30.1291 H   0  0  0  0  0  0  0  0  0  0  0  0
   -1.8300   22.4140  -29.5140 H   0  0  0  0  0  0  0  0  0  0  0  0
   -3.6070   23.2630  -30.3330 C   0  0  0  0  0  0  0  0  0  0  0  0
   -4.1160   21.9790  -30.5990 C   0  0  0  0  0  0  0  0  0  0  0  0
   -3.5511   21.0923  -30.2755 H   0  0  0  0  0  0  0  0  0  0  0  0
   -5.3410   21.8160  -31.2750 C   0  0  0  0  0  0  0  0  0  0  0  0
   -5.9190   20.4820  -31.5720 C   0  0  0  0  0  0  0  0  0  0  0  0
   -5.2389   19.6180  -31.6021 H   0  0  0  0  0  0  0  0  0  0  0  0
   -7.2230   20.2680  -31.8060 C   0  0  0  0  0  0  0  0  0  0  0  0
   -7.9123   21.1246  -31.7733 H   0  0  0  0  0  0  0  0  0  0  0  0
   -7.7710   18.9280  -32.1060 C   0  0  0  0  0  0  0  0  0  0  0  0
   -9.0170   18.7650  -32.0150 O   0  0  0  0  0  0  0  0  0  0  0  0
   -6.9240   17.7730  -32.4880 C   0  0  0  0  0  0  0  0  0  0  0  0
   -6.8490   17.3390  -33.8250 C   0  0  0  0  0  0  0  0  0  0  0  0
   -7.4400   17.8496  -34.5996 H   0  0  0  0  0  0  0  0  0  0  0  0
   -6.0280   16.2630  -34.1740 C   0  0  0  0  0  0  0  0  0  0  0  0
   -5.9809   15.9249  -35.2197 H   0  0  0  0  0  0  0  0  0  0  0  0
   -5.2670   15.6160  -33.1970 C   0  0  0  0  0  0  0  0  0  0  0  0
   -4.6265   14.7652  -33.4724 H   0  0  0  0  0  0  0  0  0  0  0  0
   -5.3200   16.0500  -31.8710 C   0  0  0  0  0  0  0  0  0  0  0  0
   -4.7160   15.5441  -31.1033 H   0  0  0  0  0  0  0  0  0  0  0  0
   -6.1390   17.1260  -31.5170 C   0  0  0  0  0  0  0  0  0  0  0  0
   -6.1697   17.4689  -30.4722 H   0  0  0  0  0  0  0  0  0  0  0  0
   -6.0660   22.9570  -31.6510 C   0  0  0  0  0  0  0  0  0  0  0  0
   -7.0336   22.8439  -32.1618 H   0  0  0  0  0  0  0  0  0  0  0  0
   -5.5710   24.2340  -31.3830 C   0  0  0  0  0  0  0  0  0  0  0  0
   -6.1469   25.1197  -31.6895 H   0  0  0  0  0  0  0  0  0  0  0  0
   -4.3470   24.3930  -30.7270 C   0  0  0  0  0  0  0  0  0  0  0  0
   -3.8800   25.6780  -30.4690 O   0  0  0  0  0  0  0  0  0  0  0  0
  1  2  1  0
  2  3  1  0
  2  4  2  0
  4  5  1  0
  4  6  1  0
  6  7  1  0
  6  8  1  0
  6  9  1  0
  9 10  2  0
 10 11  1  0
 10 12  1  0
 12 13  1  0
 13 14  1  0
 13 15  2  0
 15 16  1  0
 15 17  1  0
 17 18  2  0
 17 19  1  0
 19 20  2  0
 20 21  1  0
 20 22  1  0
 22 23  1  0
 22 24  2  0
 24 25  1  0
 24 26  1  0
 26 27  1  0
 26 28  2  0
 28 29  1  0
 12 30  2  0
 30 31  1  0
 30 32  1  0
 32 33  1  0
 32 34  2  0
 34 35  1  0
 34  9  1  0
 28 19  1  0
M  CHG  1  35  -1
M  END
>  <UniqueID>  (47) 
44

>  <SMILES>  (47) 
C=CCc1cc(/C=C/C(=O)c2ccccc2)ccc1[O-]

>  <Energy>  (47) 
40.21086141893395

>  <Genealogy>  (47) 
C=CCc1cc(C=CC(=O)c2ccccc2)ccc1[O-] (protonated)
C=CCc1cc(/C=C/C(=O)c2ccccc2)ccc1[O-] (cis-trans isomerization)
C=CCc1cc(/C=C/C(=O)c2ccccc2)ccc1[O-] (3D coordinates assigned)
C=CCc1cc(/C=C/C(=O)c2ccccc2)ccc1[O-] (optimized conformer: 40.21086141893395 kcal/mol)

>  <smiles>  (47) 
C=CCc1cc(C=CC(=O)c2ccccc2)ccc1O

>  <score_type>  (47) 
oracle

>  <origin>  (47) 
adgpu

>  <m_score__min__energy>  (47) 
-10.31

>  <m_primary>  (47) 
energy

$$$$
47:0
     RDKit          3D

 60 63  0  0  0  0  0  0  0  0999 V2000
   -1.7300   25.6680  -28.9310 O   0  0  0  0  0  0  0  0  0  0  0  0
   -2.7320   24.9190  -29.0840 C   0  0  0  0  0  0  0  0  0  0  0  0
   -3.0880   23.8920  -28.0390 C   0  0  0  0  0  0  0  0  0  0  0  0
   -1.9830   22.9320  -27.7700 N   0  0  0  0  0  0  0  0  0  0  0  0
   -2.4600   21.5320  -27.9030 C   0  0  0  0  0  0  0  0  0  0  0  0
   -2.5690   21.0970  -29.3700 C   0  0  0  0  0  0  0  0  0  0  0  0
   -1.3080   21.3340  -30.0850 N   0  0  0  0  0  0  0  0  0  0  0  0
   -1.0840   20.7770  -31.4020 C   0  0  0  0  0  0  0  0  0  0  0  0
   -0.9070   19.3930  -31.5930 C   0  0  0  0  0  0  0  0  0  0  0  0
   -0.7000   18.8960  -32.8820 C   0  0  0  0  0  0  0  0  0  0  0  0
   -0.6690   19.7690  -33.9680 C   0  0  0  0  0  0  0  0  0  0  0  0
   -0.8470   21.1350  -33.7490 C   0  0  0  0  0  0  0  0  0  0  0  0
   -1.0470   21.6010  -32.4880 N   0  0  0  0  0  0  0  0  0  0  0  0
   -0.2200   22.0200  -29.3740 C   0  0  0  0  0  0  0  0  0  0  0  0
   -0.7750   23.2290  -28.6050 C   0  0  0  0  0  0  0  0  0  0  0  0
   -3.4770   24.9480  -30.3080 N   0  0  0  0  0  0  0  0  0  0  0  0
   -4.4550   23.9860  -30.7330 C   0  0  0  0  0  0  0  0  0  0  0  0
   -4.0860   22.8220  -31.4340 C   0  0  0  0  0  0  0  0  0  0  0  0
   -5.0620   21.9070  -31.8530 C   0  0  0  0  0  0  0  0  0  0  0  0
   -4.6090   20.4450  -32.7270 S   0  0  0  0  0  0  0  0  0  0  0  0
   -3.7440   20.8370  -33.8920 O   0  0  0  0  0  0  0  0  0  0  0  0
   -3.8300   19.5260  -31.8250 O   0  0  0  0  0  0  0  0  0  0  0  0
   -6.0390   19.6210  -33.3030 N   0  0  0  0  0  0  0  0  0  0  0  0
   -6.6600   18.8550  -32.1980 C   0  0  0  0  0  0  0  0  0  0  0  0
   -7.6160   17.7810  -32.7260 C   0  0  0  0  0  0  0  0  0  0  0  0
   -6.8680   16.7480  -33.5890 C   0  0  0  0  0  0  0  0  0  0  0  0
   -5.5890   17.3190  -34.2230 C   0  0  0  0  0  0  0  0  0  0  0  0
   -5.7400   18.8190  -34.5170 C   0  0  0  0  0  0  0  0  0  0  0  0
   -6.4120   22.1670  -31.5940 C   0  0  0  0  0  0  0  0  0  0  0  0
   -6.7870   23.3290  -30.9180 C   0  0  0  0  0  0  0  0  0  0  0  0
   -5.8160   24.2430  -30.4950 C   0  0  0  0  0  0  0  0  0  0  0  0
   -6.3230   25.6970  -29.6470 Cl  0  0  0  0  0  0  0  0  0  0  0  0
   -3.3345   24.4146  -27.1030 H   0  0  0  0  0  0  0  0  0  0  0  0
   -3.9417   23.3136  -28.4221 H   0  0  0  0  0  0  0  0  0  0  0  0
   -1.7120   23.0440  -26.7630 H   0  0  0  0  0  0  0  0  0  0  0  0
   -1.7530   20.8658  -27.3870 H   0  0  0  0  0  0  0  0  0  0  0  0
   -3.4634   21.4719  -27.4562 H   0  0  0  0  0  0  0  0  0  0  0  0
   -2.8090   20.0243  -29.4101 H   0  0  0  0  0  0  0  0  0  0  0  0
   -3.3615   21.6878  -29.8525 H   0  0  0  0  0  0  0  0  0  0  0  0
   -0.9316   18.7078  -30.7328 H   0  0  0  0  0  0  0  0  0  0  0  0
   -0.5615   17.8162  -33.0398 H   0  0  0  0  0  0  0  0  0  0  0  0
   -0.5061   19.3852  -34.9859 H   0  0  0  0  0  0  0  0  0  0  0  0
   -0.8255   21.8353  -34.5970 H   0  0  0  0  0  0  0  0  0  0  0  0
    0.2493   21.3217  -28.6654 H   0  0  0  0  0  0  0  0  0  0  0  0
    0.5256   22.3678  -30.1041 H   0  0  0  0  0  0  0  0  0  0  0  0
    0.0167   23.6074  -27.9417 H   0  0  0  0  0  0  0  0  0  0  0  0
   -1.0897   23.9635  -29.3610 H   0  0  0  0  0  0  0  0  0  0  0  0
   -3.0256   22.6294  -31.6542 H   0  0  0  0  0  0  0  0  0  0  0  0
   -5.8671   18.3696  -31.6100 H   0  0  0  0  0  0  0  0  0  0  0  0
   -7.2373   19.5545  -31.5756 H   0  0  0  0  0  0  0  0  0  0  0  0
   -8.0835   17.2660  -31.8738 H   0  0  0  0  0  0  0  0  0  0  0  0
   -8.3796   18.2692  -33.3493 H   0  0  0  0  0  0  0  0  0  0  0  0
   -6.5944   15.8918  -32.9549 H   0  0  0  0  0  0  0  0  0  0  0  0
   -7.5399   16.4500  -34.4074 H   0  0  0  0  0  0  0  0  0  0  0  0
   -4.7477   17.1716  -33.5298 H   0  0  0  0  0  0  0  0  0  0  0  0
   -5.4047   16.7937  -35.1717 H   0  0  0  0  0  0  0  0  0  0  0  0
   -4.8012   19.1862  -34.9573 H   0  0  0  0  0  0  0  0  0  0  0  0
   -6.5897   18.9354  -35.2059 H   0  0  0  0  0  0  0  0  0  0  0  0
   -7.1808   21.4530  -31.9244 H   0  0  0  0  0  0  0  0  0  0  0  0
   -7.8502   23.5270  -30.7170 H   0  0  0  0  0  0  0  0  0  0  0  0
  1  2  2  0
  2  3  1  0
  3  4  1  0
  4  5  1  0
  5  6  1  0
  6  7  1  0
  7  8  1  0
  8  9  2  0
  9 10  1  0
 10 11  2  0
 11 12  1  0
 12 13  2  0
  7 14  1  0
 14 15  1  0
  2 16  1  0
 16 17  1  0
 17 18  2  0
 18 19  1  0
 19 20  1  0
 20 21  2  0
 20 22  2  0
 20 23  1  0
 23 24  1  0
 24 25  1  0
 25 26  1  0
 26 27  1  0
 27 28  1  0
 19 29  2  0
 29 30  1  0
 30 31  2  0
 31 32  1  0
 15  4  1  0
 31 17  1  0
 13  8  1  0
 28 23  1  0
  3 33  1  0
  3 34  1  0
  4 35  1  0
  5 36  1  0
  5 37  1  0
  6 38  1  0
  6 39  1  0
  9 40  1  0
 10 41  1  0
 11 42  1  0
 12 43  1  0
 14 44  1  0
 14 45  1  0
 15 46  1  0
 15 47  1  0
 18 48  1  0
 24 49  1  0
 24 50  1  0
 25 51  1  0
 25 52  1  0
 26 53  1  0
 26 54  1  0
 27 55  1  0
 27 56  1  0
 28 57  1  0
 28 58  1  0
 29 59  1  0
 30 60  1  0
M  CHG  2   4   1  16  -1
M  END
>  <UniqueID>  (48) 
45

>  <SMILES>  (48) 
O=C(C[NH+]1CCN(c2ccccn2)CC1)[N-]c1cc(S(=O)(=O)N2CCCCC2)ccc1Cl

>  <Energy>  (48) 
84.02605195514823

>  <Genealogy>  (48) 
O=C(C[NH+]1CCN(c2ccccn2)CC1)[N-]c1cc(S(=O)(=O)N2CCCCC2)ccc1Cl (protonated)
O=C(C[NH+]1CCN(c2ccccn2)CC1)[N-]c1cc(S(=O)(=O)N2CCCCC2)ccc1Cl (3D coordinates assigned)
O=C(C[NH+]1CCN(c2ccccn2)CC1)[N-]c1cc(S(=O)(=O)N2CCCCC2)ccc1Cl (nonaromatic ring conformer: 84.02605195514823 kcal/mol)

>  <smiles>  (48) 
O=C(CN1CCN(c2ccccn2)CC1)Nc1cc(S(=O)(=O)N2CCCCC2)ccc1Cl

>  <score_type>  (48) 
oracle

>  <origin>  (48) 
adgpu

>  <m_score__min__energy>  (48) 
-10.699999999999999

>  <m_primary>  (48) 
energy

$$$$
48:0
     RDKit          3D

 40 42  0  0  0  0  0  0  0  0999 V2000
   -5.2970   20.2610  -32.1040 C   0  0  0  0  0  0  0  0  0  0  0  0
   -6.6680   20.8790  -32.0140 C   0  0  0  0  0  0  0  0  0  0  0  0
   -7.7860   20.0980  -32.3530 C   0  0  0  0  0  0  0  0  0  0  0  0
   -9.0720   20.6370  -32.3000 C   0  0  0  0  0  0  0  0  0  0  0  0
   -9.2590   21.9640  -31.9170 C   0  0  0  0  0  0  0  0  0  0  0  0
   -8.1590   22.7580  -31.5910 C   0  0  0  0  0  0  0  0  0  0  0  0
   -6.8560   22.2350  -31.6420 C   0  0  0  0  0  0  0  0  0  0  0  0
   -5.4940   23.2890  -31.2280 S   0  0  0  0  0  0  0  0  0  0  0  0
   -5.9060   24.7220  -31.4170 O   0  0  0  0  0  0  0  0  0  0  0  0
   -4.3210   22.9860  -32.1180 O   0  0  0  0  0  0  0  0  0  0  0  0
   -5.0350   23.0110  -29.5800 N   0  0  0  0  0  0  0  0  0  0  0  0
   -3.7290   23.2340  -29.0270 C   0  0  0  0  0  0  0  0  0  0  0  0
   -3.1780   22.3640  -28.0670 C   0  0  0  0  0  0  0  0  0  0  0  0
   -1.9040   22.6110  -27.5380 C   0  0  0  0  0  0  0  0  0  0  0  0
   -1.1670   23.7200  -27.9730 C   0  0  0  0  0  0  0  0  0  0  0  0
   -1.7050   24.5800  -28.9380 C   0  0  0  0  0  0  0  0  0  0  0  0
   -2.9820   24.3470  -29.4600 C   0  0  0  0  0  0  0  0  0  0  0  0
   -3.4860   25.2300  -30.4150 O   0  0  0  0  0  0  0  0  0  0  0  0
    0.2230   23.9200  -27.4320 C   0  0  0  0  0  0  0  0  0  0  0  0
    0.2710   23.6750  -25.9120 C   0  0  0  0  0  0  0  0  0  0  0  0
   -0.5950   22.4860  -25.4130 C   0  0  0  0  0  0  0  0  0  0  0  0
   -1.2770   21.6830  -26.5330 C   0  0  0  0  0  0  0  0  0  0  0  0
   -4.9068   20.0851  -31.0907 H   0  0  0  0  0  0  0  0  0  0  0  0
   -5.3606   19.3045  -32.6435 H   0  0  0  0  0  0  0  0  0  0  0  0
   -4.6225   20.9421  -32.6435 H   0  0  0  0  0  0  0  0  0  0  0  0
   -7.6460   19.0519  -32.6631 H   0  0  0  0  0  0  0  0  0  0  0  0
   -9.9398   20.0134  -32.5610 H   0  0  0  0  0  0  0  0  0  0  0  0
  -10.2741   22.3854  -31.8717 H   0  0  0  0  0  0  0  0  0  0  0  0
   -8.3136   23.8049  -31.2908 H   0  0  0  0  0  0  0  0  0  0  0  0
   -3.7499   21.4866  -27.7307 H   0  0  0  0  0  0  0  0  0  0  0  0
   -1.1204   25.4437  -29.2877 H   0  0  0  0  0  0  0  0  0  0  0  0
   -3.8000   24.9240  -31.3280 H   0  0  0  0  0  0  0  0  0  0  0  0
    0.9064   23.2167  -27.9303 H   0  0  0  0  0  0  0  0  0  0  0  0
    0.5257   24.9595  -27.6265 H   0  0  0  0  0  0  0  0  0  0  0  0
    1.3160   23.4782  -25.6305 H   0  0  0  0  0  0  0  0  0  0  0  0
   -0.1445   24.5780  -25.4409 H   0  0  0  0  0  0  0  0  0  0  0  0
    0.0535   21.8024  -24.8454 H   0  0  0  0  0  0  0  0  0  0  0  0
   -1.4006   22.9191  -24.8019 H   0  0  0  0  0  0  0  0  0  0  0  0
   -0.5271   21.0560  -27.0374 H   0  0  0  0  0  0  0  0  0  0  0  0
   -2.0627   21.0522  -26.0916 H   0  0  0  0  0  0  0  0  0  0  0  0
  1  2  1  0
  2  3  2  0
  3  4  1  0
  4  5  2  0
  5  6  1  0
  6  7  2  0
  7  8  1  0
  8  9  2  0
  8 10  2  0
  8 11  1  0
 11 12  1  0
 12 13  2  0
 13 14  1  0
 14 15  2  0
 15 16  1  0
 16 17  2  0
 17 18  1  0
 15 19  1  0
 19 20  1  0
 20 21  1  0
 21 22  1  0
  7  2  1  0
 17 12  1  0
 22 14  1  0
  1 23  1  0
  1 24  1  0
  1 25  1  0
  3 26  1  0
  4 27  1  0
  5 28  1  0
  6 29  1  0
 13 30  1  0
 16 31  1  0
 18 32  1  0
 19 33  1  0
 19 34  1  0
 20 35  1  0
 20 36  1  0
 21 37  1  0
 21 38  1  0
 22 39  1  0
 22 40  1  0
M  CHG  1  11  -1
M  END
>  <UniqueID>  (49) 
46

>  <SMILES>  (49) 
Cc1ccccc1S(=O)(=O)[N-]c1cc2c(cc1O)CCCC2

>  <Energy>  (49) 
51.42409746123721

>  <Genealogy>  (49) 
Cc1ccccc1S(=O)(=O)[N-]c1cc2c(cc1O)CCCC2 (protonated)
Cc1ccccc1S(=O)(=O)[N-]c1cc2c(cc1O)CCCC2 (3D coordinates assigned)
Cc1ccccc1S(=O)(=O)[N-]c1cc2c(cc1O)CCCC2 (nonaromatic ring conformer: 51.42409746123721 kcal/mol)

>  <smiles>  (49) 
Cc1ccccc1S(=O)(=O)Nc1cc2c(cc1O)CCCC2

>  <score_type>  (49) 
oracle

>  <origin>  (49) 
adgpu

>  <m_score__min__energy>  (49) 
-9.6500000000000004

>  <m_primary>  (49) 
energy

$$$$
