0:0
     RDKit          3D

 45 47  0  0  0  0  0  0  0  0999 V2000
   -2.1920   22.1300  -30.0060 C   0  0  0  0  0  0  0  0  0  0  0  0
   -2.3860   21.2520  -31.1990 C   0  0  0  0  0  0  0  0  0  0  0  0
   -3.4270   20.3570  -31.3720 C   0  0  0  0  0  0  0  0  0  0  0  0
   -3.2470   19.8140  -32.6280 C   0  0  0  0  0  0  0  0  0  0  0  0
   -4.2480   18.5740  -33.3700 S   0  0  0  0  0  0  0  0  0  0  0  0
   -3.9250   17.2520  -32.7320 O   0  0  0  0  0  0  0  0  0  0  0  0
   -3.9310   18.4890  -34.8370 O   0  0  0  0  0  0  0  0  0  0  0  0
   -5.9440   18.9330  -33.1420 N   0  0  0  0  0  0  0  0  0  0  0  0
   -6.4800   18.3850  -31.8710 C   0  0  0  0  0  0  0  0  0  0  0  0
   -8.0160   18.2470  -31.7930 C   0  0  0  0  0  0  0  0  0  0  0  0
   -9.0030   19.6830  -32.3770 S   0  0  0  0  0  0  0  0  0  0  0  0
   -7.9350   20.9620  -31.7060 C   0  0  0  0  0  0  0  0  0  0  0  0
   -8.3880   21.7800  -30.6670 C   0  0  0  0  0  0  0  0  0  0  0  0
   -7.5650   22.7880  -30.1590 C   0  0  0  0  0  0  0  0  0  0  0  0
   -6.2840   22.9890  -30.6920 C   0  0  0  0  0  0  0  0  0  0  0  0
   -5.2610   24.2830  -30.0770 S   0  0  0  0  0  0  0  0  0  0  0  0
   -6.2840   25.6030  -29.4660 C   0  0  0  0  0  0  0  0  0  0  0  0
   -4.3770   24.7970  -31.1790 O   0  0  0  0  0  0  0  0  0  0  0  0
   -4.3930   23.7640  -28.9650 O   0  0  0  0  0  0  0  0  0  0  0  0
   -5.8380   22.1840  -31.7490 C   0  0  0  0  0  0  0  0  0  0  0  0
   -6.6550   21.1610  -32.2540 C   0  0  0  0  0  0  0  0  0  0  0  0
   -6.2310   20.3530  -33.4590 C   0  0  0  0  0  0  0  0  0  0  0  0
   -2.1190   20.4050  -33.1690 C   0  0  0  0  0  0  0  0  0  0  0  0
   -1.5170   20.0990  -34.5030 C   0  0  0  0  0  0  0  0  0  0  0  0
   -1.6000   21.2870  -32.2930 N   0  0  0  0  0  0  0  0  0  0  0  0
   -2.3231   21.5368  -29.0890 H   0  0  0  0  0  0  0  0  0  0  0  0
   -1.1780   22.5561  -30.0253 H   0  0  0  0  0  0  0  0  0  0  0  0
   -2.9320   22.9436  -30.0253 H   0  0  0  0  0  0  0  0  0  0  0  0
   -4.2307   20.1263  -30.6573 H   0  0  0  0  0  0  0  0  0  0  0  0
   -6.0436   17.3861  -31.7236 H   0  0  0  0  0  0  0  0  0  0  0  0
   -6.2057   19.1126  -31.0930 H   0  0  0  0  0  0  0  0  0  0  0  0
   -8.3038   17.3756  -32.3995 H   0  0  0  0  0  0  0  0  0  0  0  0
   -8.2445   18.1554  -30.7209 H   0  0  0  0  0  0  0  0  0  0  0  0
   -9.3942   21.6297  -30.2487 H   0  0  0  0  0  0  0  0  0  0  0  0
   -7.9233   23.4263  -29.3379 H   0  0  0  0  0  0  0  0  0  0  0  0
   -6.2767   25.5935  -28.3661 H   0  0  0  0  0  0  0  0  0  0  0  0
   -5.8942   26.5662  -29.8270 H   0  0  0  0  0  0  0  0  0  0  0  0
   -7.3140   25.4658  -29.8270 H   0  0  0  0  0  0  0  0  0  0  0  0
   -4.8426   22.3550  -32.1849 H   0  0  0  0  0  0  0  0  0  0  0  0
   -7.0390   20.3878  -34.2046 H   0  0  0  0  0  0  0  0  0  0  0  0
   -5.2984   20.7972  -33.8372 H   0  0  0  0  0  0  0  0  0  0  0  0
   -0.5445   19.6047  -34.3617 H   0  0  0  0  0  0  0  0  0  0  0  0
   -2.1888   19.4329  -35.0643 H   0  0  0  0  0  0  0  0  0  0  0  0
   -1.3748   21.0342  -35.0643 H   0  0  0  0  0  0  0  0  0  0  0  0
   -0.7520   21.8810  -32.4330 H   0  0  0  0  0  0  0  0  0  0  0  0
  1  2  1  0
  2  3  2  0
  3  4  1  0
  4  5  1  0
  5  6  2  0
  5  7  2  0
  5  8  1  0
  8  9  1  0
  9 10  1  0
 10 11  1  0
 11 12  1  0
 12 13  2  0
 13 14  1  0
 14 15  2  0
 15 16  1  0
 16 17  1  0
 16 18  2  0
 16 19  2  0
 15 20  1  0
 20 21  2  0
 21 22  1  0
  4 23  2  0
 23 24  1  0
 23 25  1  0
 25  2  1  0
 22  8  1  0
 21 12  1  0
  1 26  1  0
  1 27  1  0
  1 28  1  0
  3 29  1  0
  9 30  1  0
  9 31  1  0
 10 32  1  0
 10 33  1  0
 13 34  1  0
 14 35  1  0
 17 36  1  0
 17 37  1  0
 17 38  1  0
 20 39  1  0
 22 40  1  0
 22 41  1  0
 24 42  1  0
 24 43  1  0
 24 44  1  0
 25 45  1  0
M  END
>  <UniqueID>  (1) 
1

>  <SMILES>  (1) 
Cc1cc(S(=O)(=O)N2CCSc3ccc(S(C)(=O)=O)cc3C2)c(C)[nH]1

>  <Energy>  (1) 
79.14336050191481

>  <Genealogy>  (1) 
Cc1cc(S(=O)(=O)N2CCSc3ccc(S(C)(=O)=O)cc3C2)c(C)[nH]1 (3D coordinates assigned)
Cc1cc(S(=O)(=O)N2CCSc3ccc(S(C)(=O)=O)cc3C2)c(C)[nH]1 (nonaromatic ring conformer: 79.14336050191481 kcal/mol)

>  <smiles>  (1) 
Cc1cc(S(=O)(=O)N2CCSc3ccc(S(C)(=O)=O)cc3C2)c(C)[nH]1

>  <score_type>  (1) 
oracle

>  <origin>  (1) 
adgpu

>  <m_score__min__energy>  (1) 
-7.8399999999999999

>  <m_primary>  (1) 
energy

$$$$
1:0
     RDKit          3D

 50 53  0  0  0  0  0  0  0  0999 V2000
   -6.0560   18.9350  -33.9100 C   0  0  0  0  0  0  0  0  0  0  0  0
   -7.0810   19.4820  -33.0290 N   0  0  0  0  0  0  0  0  0  0  0  0
   -8.3390   18.8180  -32.6880 C   0  0  0  0  0  0  0  0  0  0  0  0
   -9.0800   19.7840  -31.7300 C   0  0  0  0  0  0  0  0  0  0  0  0
   -8.1470   20.9410  -31.6150 C   0  0  0  0  0  0  0  0  0  0  0  0
   -8.3030   22.1010  -30.8580 C   0  0  0  0  0  0  0  0  0  0  0  0
   -7.2810   23.0640  -30.8870 C   0  0  0  0  0  0  0  0  0  0  0  0
   -6.1260   22.8620  -31.6840 C   0  0  0  0  0  0  0  0  0  0  0  0
   -5.0530   23.8130  -31.7160 N   0  0  0  0  0  0  0  0  0  0  0  0
   -4.9550   25.0080  -30.9340 C   0  0  0  0  0  0  0  0  0  0  0  0
   -5.9370   25.7940  -30.8990 O   0  0  0  0  0  0  0  0  0  0  0  0
   -3.7580   25.3020  -30.2000 N   0  0  0  0  0  0  0  0  0  0  0  0
   -3.1480   24.4920  -29.1840 C   0  0  0  0  0  0  0  0  0  0  0  0
   -3.7580   23.3170  -28.7090 C   0  0  0  0  0  0  0  0  0  0  0  0
   -3.1230   22.5380  -27.7390 C   0  0  0  0  0  0  0  0  0  0  0  0
   -1.8770   22.9170  -27.2410 C   0  0  0  0  0  0  0  0  0  0  0  0
   -1.2490   24.0780  -27.7090 C   0  0  0  0  0  0  0  0  0  0  0  0
    0.3410   24.5150  -27.0720 S   0  0  0  0  0  0  0  0  0  0  0  0
    1.2700   24.8850  -28.1960 O   0  0  0  0  0  0  0  0  0  0  0  0
    0.9050   23.3320  -26.3370 O   0  0  0  0  0  0  0  0  0  0  0  0
    0.1870   25.8620  -25.9700 N   0  0  0  0  0  0  0  0  0  0  0  0
   -0.5960   25.4990  -24.7890 C   0  0  0  0  0  0  0  0  0  0  0  0
   -1.2340   26.7810  -24.2810 C   0  0  0  0  0  0  0  0  0  0  0  0
   -1.2090   27.7380  -25.4620 C   0  0  0  0  0  0  0  0  0  0  0  0
   -0.5340   26.9730  -26.5890 C   0  0  0  0  0  0  0  0  0  0  0  0
   -1.8800   24.8550  -28.7000 C   0  0  0  0  0  0  0  0  0  0  0  0
   -1.2580   25.9900  -29.2100 O   0  0  0  0  0  0  0  0  0  0  0  0
   -5.9920   21.6690  -32.4160 C   0  0  0  0  0  0  0  0  0  0  0  0
   -7.0250   20.7300  -32.3660 C   0  0  0  0  0  0  0  0  0  0  0  0
   -5.2454   18.5024  -33.3052 H   0  0  0  0  0  0  0  0  0  0  0  0
   -6.4975   18.1526  -34.5447 H   0  0  0  0  0  0  0  0  0  0  0  0
   -5.6518   19.7373  -34.5447 H   0  0  0  0  0  0  0  0  0  0  0  0
   -8.9377   18.6431  -33.5941 H   0  0  0  0  0  0  0  0  0  0  0  0
   -8.1655   17.8377  -32.2200 H   0  0  0  0  0  0  0  0  0  0  0  0
  -10.0447   20.0973  -32.1557 H   0  0  0  0  0  0  0  0  0  0  0  0
   -9.3178   19.3263  -30.7584 H   0  0  0  0  0  0  0  0  0  0  0  0
   -9.2068   22.2588  -30.2511 H   0  0  0  0  0  0  0  0  0  0  0  0
   -7.3774   23.9811  -30.2873 H   0  0  0  0  0  0  0  0  0  0  0  0
   -4.7383   23.0106  -29.1027 H   0  0  0  0  0  0  0  0  0  0  0  0
   -3.6072   21.6230  -27.3670 H   0  0  0  0  0  0  0  0  0  0  0  0
   -1.3840   22.2999  -26.4754 H   0  0  0  0  0  0  0  0  0  0  0  0
   -1.3734   24.7690  -25.0586 H   0  0  0  0  0  0  0  0  0  0  0  0
    0.0392   25.0390  -24.0177 H   0  0  0  0  0  0  0  0  0  0  0  0
   -2.2689   26.5945  -23.9582 H   0  0  0  0  0  0  0  0  0  0  0  0
   -0.6976   27.1890  -23.4116 H   0  0  0  0  0  0  0  0  0  0  0  0
   -2.2323   28.0219  -25.7488 H   0  0  0  0  0  0  0  0  0  0  0  0
   -0.6740   28.6688  -25.2223 H   0  0  0  0  0  0  0  0  0  0  0  0
   -1.2883   26.5904  -27.2924 H   0  0  0  0  0  0  0  0  0  0  0  0
    0.1504   27.6230  -27.1539 H   0  0  0  0  0  0  0  0  0  0  0  0
   -5.0905   21.4787  -33.0169 H   0  0  0  0  0  0  0  0  0  0  0  0
  1  2  1  0
  2  3  1  0
  3  4  1  0
  4  5  1  0
  5  6  2  0
  6  7  1  0
  7  8  2  0
  8  9  1  0
  9 10  1  0
 10 11  2  0
 10 12  1  0
 12 13  1  0
 13 14  2  0
 14 15  1  0
 15 16  2  0
 16 17  1  0
 17 18  1  0
 18 19  2  0
 18 20  2  0
 18 21  1  0
 21 22  1  0
 22 23  1  0
 23 24  1  0
 24 25  1  0
 17 26  2  0
 26 27  1  0
  8 28  1  0
 28 29  2  0
 29  2  1  0
 29  5  1  0
 26 13  1  0
 25 21  1  0
  1 30  1  0
  1 31  1  0
  1 32  1  0
  3 33  1  0
  3 34  1  0
  4 35  1  0
  4 36  1  0
  6 37  1  0
  7 38  1  0
 14 39  1  0
 15 40  1  0
 16 41  1  0
 22 42  1  0
 22 43  1  0
 23 44  1  0
 23 45  1  0
 24 46  1  0
 24 47  1  0
 25 48  1  0
 25 49  1  0
 28 50  1  0
M  CHG  3   9  -1  12  -1  27  -1
M  END
>  <UniqueID>  (2) 
2

>  <SMILES>  (2) 
CN1CCc2ccc([N-]C(=O)[N-]c3cccc(S(=O)(=O)N4CCCC4)c3[O-])cc21

>  <Energy>  (2) 
73.62722781283827

>  <Genealogy>  (2) 
CN1CCc2ccc([N-]C(=O)[N-]c3cccc(S(=O)(=O)N4CCCC4)c3[O-])cc21 (protonated)
CN1CCc2ccc([N-]C(=O)[N-]c3cccc(S(=O)(=O)N4CCCC4)c3[O-])cc21 (3D coordinates assigned)
CN1CCc2ccc([N-]C(=O)[N-]c3cccc(S(=O)(=O)N4CCCC4)c3[O-])cc21 (nonaromatic ring conformer: 73.62722781283827 kcal/mol)

>  <smiles>  (2) 
CN1CCc2ccc(NC(=O)Nc3cccc(S(=O)(=O)N4CCCC4)c3O)cc21

>  <score_type>  (2) 
oracle

>  <origin>  (2) 
adgpu

>  <m_score__min__energy>  (2) 
-16.109999999999999

>  <m_primary>  (2) 
energy

$$$$
2:0
     RDKit          3D

 55 58  0  0  0  0  0  0  0  0999 V2000
    3.3920   16.2920  -27.5570 C   0  0  0  0  0  0  0  0  0  0  0  0
    3.0270   17.6750  -28.0040 C   0  0  0  0  0  0  0  0  0  0  0  0
    3.9560   18.4980  -28.2340 O   0  0  0  0  0  0  0  0  0  0  0  0
    1.6510   18.0850  -28.1700 N   0  0  0  0  0  0  0  0  0  0  0  0
    1.3720   19.3300  -28.9060 C   0  0  0  0  0  0  0  0  0  0  0  0
   -0.1260   19.4950  -29.1830 C   0  0  0  0  0  0  0  0  0  0  0  0
   -0.8830   19.2790  -27.9410 N   0  0  0  0  0  0  0  0  0  0  0  0
   -2.0200   20.1000  -27.6000 C   0  0  0  0  0  0  0  0  0  0  0  0
   -3.0010   19.5780  -27.0020 O   0  0  0  0  0  0  0  0  0  0  0  0
   -2.0760   21.5450  -27.9260 C   0  0  0  0  0  0  0  0  0  0  0  0
   -0.9020   22.3050  -28.0380 C   0  0  0  0  0  0  0  0  0  0  0  0
   -0.9690   23.6510  -28.4020 C   0  0  0  0  0  0  0  0  0  0  0  0
   -2.2070   24.2670  -28.6180 C   0  0  0  0  0  0  0  0  0  0  0  0
   -2.2290   25.6040  -29.0140 O   0  0  0  0  0  0  0  0  0  0  0  0
   -3.3960   23.5370  -28.4380 C   0  0  0  0  0  0  0  0  0  0  0  0
   -4.6600   24.1930  -28.6190 N   0  0  0  0  0  0  0  0  0  0  0  0
   -5.2880   24.7640  -30.1330 S   0  0  0  0  0  0  0  0  0  0  0  0
   -6.4090   25.7270  -29.8660 O   0  0  0  0  0  0  0  0  0  0  0  0
   -4.2150   25.4860  -30.8980 O   0  0  0  0  0  0  0  0  0  0  0  0
   -5.9200   23.3990  -31.0470 C   0  0  0  0  0  0  0  0  0  0  0  0
   -5.0810   22.6260  -31.8780 C   0  0  0  0  0  0  0  0  0  0  0  0
   -5.5850   21.4920  -32.5340 C   0  0  0  0  0  0  0  0  0  0  0  0
   -6.9290   21.1550  -32.3610 C   0  0  0  0  0  0  0  0  0  0  0  0
   -7.7510   21.9140  -31.5680 C   0  0  0  0  0  0  0  0  0  0  0  0
   -7.2710   23.0380  -30.8940 C   0  0  0  0  0  0  0  0  0  0  0  0
   -9.1260   21.3690  -31.5060 C   0  0  0  0  0  0  0  0  0  0  0  0
   -9.0890   20.1590  -32.4580 C   0  0  0  0  0  0  0  0  0  0  0  0
   -7.6310   19.9810  -32.9280 C   0  0  0  0  0  0  0  0  0  0  0  0
   -3.3180   22.1740  -28.1010 C   0  0  0  0  0  0  0  0  0  0  0  0
   -0.5760   18.1060  -27.1060 C   0  0  0  0  0  0  0  0  0  0  0  0
    0.5330   17.2400  -27.7170 C   0  0  0  0  0  0  0  0  0  0  0  0
    3.4024   16.2527  -26.4577 H   0  0  0  0  0  0  0  0  0  0  0  0
    2.6524   15.5749  -27.9426 H   0  0  0  0  0  0  0  0  0  0  0  0
    4.3892   16.0332  -27.9426 H   0  0  0  0  0  0  0  0  0  0  0  0
    1.7212   20.1847  -28.3080 H   0  0  0  0  0  0  0  0  0  0  0  0
    1.8986   19.2859  -29.8708 H   0  0  0  0  0  0  0  0  0  0  0  0
   -0.3194   20.5109  -29.5579 H   0  0  0  0  0  0  0  0  0  0  0  0
   -0.4419   18.7586  -29.9366 H   0  0  0  0  0  0  0  0  0  0  0  0
    0.0741   21.8388  -27.8384 H   0  0  0  0  0  0  0  0  0  0  0  0
   -0.0422   24.2316  -28.5199 H   0  0  0  0  0  0  0  0  0  0  0  0
   -3.0730   26.0590  -29.3400 H   0  0  0  0  0  0  0  0  0  0  0  0
   -4.0277   22.9134  -32.0121 H   0  0  0  0  0  0  0  0  0  0  0  0
   -4.9324   20.8793  -33.1734 H   0  0  0  0  0  0  0  0  0  0  0  0
   -7.9388   23.6324  -30.2531 H   0  0  0  0  0  0  0  0  0  0  0  0
   -9.3761   21.0538  -30.4822 H   0  0  0  0  0  0  0  0  0  0  0  0
   -9.8885   22.1090  -31.7905 H   0  0  0  0  0  0  0  0  0  0  0  0
   -9.4258   19.2551  -31.9293 H   0  0  0  0  0  0  0  0  0  0  0  0
   -9.7552   20.3230  -33.3178 H   0  0  0  0  0  0  0  0  0  0  0  0
   -7.2055   19.0445  -32.5381 H   0  0  0  0  0  0  0  0  0  0  0  0
   -7.5422   19.9212  -34.0228 H   0  0  0  0  0  0  0  0  0  0  0  0
   -4.2432   21.5930  -27.9728 H   0  0  0  0  0  0  0  0  0  0  0  0
   -0.2505   18.4518  -26.1138 H   0  0  0  0  0  0  0  0  0  0  0  0
   -1.4860   17.4922  -27.0347 H   0  0  0  0  0  0  0  0  0  0  0  0
    0.8981   16.5306  -26.9597 H   0  0  0  0  0  0  0  0  0  0  0  0
    0.1253   16.6934  -28.5802 H   0  0  0  0  0  0  0  0  0  0  0  0
  1  2  1  0
  2  3  2  0
  2  4  1  0
  4  5  1  0
  5  6  1  0
  6  7  1  0
  7  8  1  0
  8  9  2  0
  8 10  1  0
 10 11  2  0
 11 12  1  0
 12 13  2  0
 13 14  1  0
 13 15  1  0
 15 16  1  0
 16 17  1  0
 17 18  2  0
 17 19  2  0
 17 20  1  0
 20 21  2  0
 21 22  1  0
 22 23  2  0
 23 24  1  0
 24 25  2  0
 24 26  1  0
 26 27  1  0
 27 28  1  0
 15 29  2  0
  7 30  1  0
 30 31  1  0
 31  4  1  0
 29 10  1  0
 25 20  1  0
 28 23  1  0
  1 32  1  0
  1 33  1  0
  1 34  1  0
  5 35  1  0
  5 36  1  0
  6 37  1  0
  6 38  1  0
 11 39  1  0
 12 40  1  0
 14 41  1  0
 21 42  1  0
 22 43  1  0
 25 44  1  0
 26 45  1  0
 26 46  1  0
 27 47  1  0
 27 48  1  0
 28 49  1  0
 28 50  1  0
 29 51  1  0
 30 52  1  0
 30 53  1  0
 31 54  1  0
 31 55  1  0
M  CHG  1  16  -1
M  END
>  <UniqueID>  (3) 
3

>  <SMILES>  (3) 
CC(=O)N1CCN(C(=O)c2ccc(O)c([N-]S(=O)(=O)c3ccc4c(c3)CCC4)c2)CC1

>  <Energy>  (3) 
73.54574796438922

>  <Genealogy>  (3) 
CC(=O)N1CCN(C(=O)c2ccc(O)c([N-]S(=O)(=O)c3ccc4c(c3)CCC4)c2)CC1 (protonated)
CC(=O)N1CCN(C(=O)c2ccc(O)c([N-]S(=O)(=O)c3ccc4c(c3)CCC4)c2)CC1 (3D coordinates assigned)
CC(=O)N1CCN(C(=O)c2ccc(O)c([N-]S(=O)(=O)c3ccc4c(c3)CCC4)c2)CC1 (nonaromatic ring conformer: 73.54574796438922 kcal/mol)

>  <smiles>  (3) 
CC(=O)N1CCN(C(=O)c2ccc(O)c(NS(=O)(=O)c3ccc4c(c3)CCC4)c2)CC1

>  <score_type>  (3) 
oracle

>  <origin>  (3) 
adgpu

>  <m_score__min__energy>  (3) 
-13.23

>  <m_primary>  (3) 
energy

$$$$
3:0
     RDKit          3D

 60 64  0  0  0  0  0  0  0  0999 V2000
   -0.6190   19.9620  -29.9400 O   0  0  0  0  0  0  0  0  0  0  0  0
   -1.1770   20.9530  -30.4880 C   0  0  0  0  0  0  0  0  0  0  0  0
   -1.4780   22.1450  -29.6690 C   0  0  0  0  0  0  0  0  0  0  0  0
   -0.4370   22.8680  -29.0650 C   0  0  0  0  0  0  0  0  0  0  0  0
   -0.7200   23.9900  -28.2810 C   0  0  0  0  0  0  0  0  0  0  0  0
   -2.0440   24.4100  -28.1000 C   0  0  0  0  0  0  0  0  0  0  0  0
   -2.3280   25.5290  -27.3210 O   0  0  0  0  0  0  0  0  0  0  0  0
   -3.0870   23.7000  -28.7140 C   0  0  0  0  0  0  0  0  0  0  0  0
   -4.4410   24.1150  -28.5440 N   0  0  0  0  0  0  0  0  0  0  0  0
   -5.3000   24.8690  -29.8410 S   0  0  0  0  0  0  0  0  0  0  0  0
   -4.3160   25.3960  -30.8470 O   0  0  0  0  0  0  0  0  0  0  0  0
   -6.1070   26.0220  -29.3120 O   0  0  0  0  0  0  0  0  0  0  0  0
   -6.3480   23.6860  -30.6200 C   0  0  0  0  0  0  0  0  0  0  0  0
   -6.3550   23.5730  -32.0190 C   0  0  0  0  0  0  0  0  0  0  0  0
   -7.1870   22.6380  -32.6440 C   0  0  0  0  0  0  0  0  0  0  0  0
   -8.0130   21.8120  -31.8760 C   0  0  0  0  0  0  0  0  0  0  0  0
   -7.9970   21.9080  -30.4810 C   0  0  0  0  0  0  0  0  0  0  0  0
   -7.1640   22.8390  -29.8520 C   0  0  0  0  0  0  0  0  0  0  0  0
   -2.8020   22.5810  -29.5050 C   0  0  0  0  0  0  0  0  0  0  0  0
   -1.5290   20.8950  -31.8850 N   0  0  0  0  0  0  0  0  0  0  0  0
   -2.7750   21.5250  -32.3490 C   0  0  0  0  0  0  0  0  0  0  0  0
   -3.2020   21.0210  -33.7340 C   0  0  0  0  0  0  0  0  0  0  0  0
   -3.0030   19.4960  -33.9320 C   0  0  0  0  0  0  0  0  0  0  0  0
   -4.1810   18.7330  -33.4500 N   0  0  0  0  0  0  0  0  0  0  0  0
   -5.4770   19.3380  -33.2470 C   0  0  0  0  0  0  0  0  0  0  0  0
   -5.7710   20.4470  -33.7640 O   0  0  0  0  0  0  0  0  0  0  0  0
   -6.4390   18.6670  -32.4900 O   0  0  0  0  0  0  0  0  0  0  0  0
   -6.0930   17.5530  -31.6720 C   0  0  0  0  0  0  0  0  0  0  0  0
   -5.0550   16.7000  -32.3460 C   0  0  0  0  0  0  0  0  0  0  0  0
   -4.9920   15.3230  -32.0780 C   0  0  0  0  0  0  0  0  0  0  0  0
   -4.0120   14.5360  -32.6820 C   0  0  0  0  0  0  0  0  0  0  0  0
   -3.0850   15.1150  -33.5490 C   0  0  0  0  0  0  0  0  0  0  0  0
   -3.1270   16.4890  -33.8080 C   0  0  0  0  0  0  0  0  0  0  0  0
   -4.0990   17.3050  -33.1920 C   0  0  0  0  0  0  0  0  0  0  0  0
   -1.6510   18.9520  -33.3770 C   0  0  0  0  0  0  0  0  0  0  0  0
   -0.7580   20.0570  -32.8090 C   0  0  0  0  0  0  0  0  0  0  0  0
    0.6061   22.5500  -29.2094 H   0  0  0  0  0  0  0  0  0  0  0  0
    0.1007   24.5457  -27.8040 H   0  0  0  0  0  0  0  0  0  0  0  0
   -3.2810   25.8000  -27.1080 H   0  0  0  0  0  0  0  0  0  0  0  0
   -5.7049   24.2210  -32.6252 H   0  0  0  0  0  0  0  0  0  0  0  0
   -7.1913   22.5527  -33.7407 H   0  0  0  0  0  0  0  0  0  0  0  0
   -8.6760   21.0860  -32.3694 H   0  0  0  0  0  0  0  0  0  0  0  0
   -8.6403   21.2506  -29.8777 H   0  0  0  0  0  0  0  0  0  0  0  0
   -7.1479   22.9080  -28.7543 H   0  0  0  0  0  0  0  0  0  0  0  0
   -3.6210   22.0398  -30.0013 H   0  0  0  0  0  0  0  0  0  0  0  0
   -3.5750   21.2995  -31.6284 H   0  0  0  0  0  0  0  0  0  0  0  0
   -2.5964   22.6077  -32.4254 H   0  0  0  0  0  0  0  0  0  0  0  0
   -4.2680   21.2530  -33.8743 H   0  0  0  0  0  0  0  0  0  0  0  0
   -2.5613   21.5268  -34.4713 H   0  0  0  0  0  0  0  0  0  0  0  0
   -2.9289   19.3342  -35.0175 H   0  0  0  0  0  0  0  0  0  0  0  0
   -5.6936   17.9185  -30.7145 H   0  0  0  0  0  0  0  0  0  0  0  0
   -6.9942   16.9453  -31.5030 H   0  0  0  0  0  0  0  0  0  0  0  0
   -5.7174   14.8641  -31.3900 H   0  0  0  0  0  0  0  0  0  0  0  0
   -3.9698   13.4566  -32.4744 H   0  0  0  0  0  0  0  0  0  0  0  0
   -2.3189   14.4893  -34.0303 H   0  0  0  0  0  0  0  0  0  0  0  0
   -2.3962   16.9368  -34.4975 H   0  0  0  0  0  0  0  0  0  0  0  0
   -1.8649   18.2270  -32.5779 H   0  0  0  0  0  0  0  0  0  0  0  0
   -1.1112   18.4867  -34.2149 H   0  0  0  0  0  0  0  0  0  0  0  0
    0.0871   19.6027  -32.2710 H   0  0  0  0  0  0  0  0  0  0  0  0
   -0.3816   20.6791  -33.6344 H   0  0  0  0  0  0  0  0  0  0  0  0
  1  2  2  0
  2  3  1  0
  3  4  2  0
  4  5  1  0
  5  6  2  0
  6  7  1  0
  6  8  1  0
  8  9  1  0
  9 10  1  0
 10 11  2  0
 10 12  2  0
 10 13  1  0
 13 14  2  0
 14 15  1  0
 15 16  2  0
 16 17  1  0
 17 18  2  0
  8 19  2  0
  2 20  1  0
 20 21  1  0
 21 22  1  0
 22 23  1  0
 23 24  1  0
 24 25  1  0
 25 26  2  0
 25 27  1  0
 27 28  1  0
 28 29  1  0
 29 30  2  0
 30 31  1  0
 31 32  2  0
 32 33  1  0
 33 34  2  0
 23 35  1  0
 35 36  1  0
 19  3  1  0
 36 20  1  0
 18 13  1  0
 34 24  1  0
 34 29  1  0
  4 37  1  0
  5 38  1  0
  7 39  1  0
 14 40  1  0
 15 41  1  0
 16 42  1  0
 17 43  1  0
 18 44  1  0
 19 45  1  0
 21 46  1  0
 21 47  1  0
 22 48  1  0
 22 49  1  0
 23 50  1  0
 28 51  1  0
 28 52  1  0
 30 53  1  0
 31 54  1  0
 32 55  1  0
 33 56  1  0
 35 57  1  0
 35 58  1  0
 36 59  1  0
 36 60  1  0
M  CHG  1   9  -1
M  END
>  <UniqueID>  (4) 
4

>  <SMILES>  (4) 
O=C(c1ccc(O)c([N-]S(=O)(=O)c2ccccc2)c1)N1CCC(N2C(=O)OCc3ccccc32)CC1

>  <Energy>  (4) 
89.21636956817822

>  <Genealogy>  (4) 
O=C(c1ccc(O)c([N-]S(=O)(=O)c2ccccc2)c1)N1CCC(N2C(=O)OCc3ccccc32)CC1 (protonated)
O=C(c1ccc(O)c([N-]S(=O)(=O)c2ccccc2)c1)N1CCC(N2C(=O)OCc3ccccc32)CC1 (3D coordinates assigned)
O=C(c1ccc(O)c([N-]S(=O)(=O)c2ccccc2)c1)N1CCC(N2C(=O)OCc3ccccc32)CC1 (nonaromatic ring conformer: 89.21636956817822 kcal/mol)

>  <smiles>  (4) 
O=C(c1ccc(O)c(NS(=O)(=O)c2ccccc2)c1)N1CCC(N2C(=O)OCc3ccccc32)CC1

>  <score_type>  (4) 
oracle

>  <origin>  (4) 
adgpu

>  <m_score__min__energy>  (4) 
-11.07

>  <m_primary>  (4) 
energy

$$$$
4:0
     RDKit          3D

 39 41  0  0  0  0  0  0  0  0999 V2000
   -9.8390   21.3790  -31.7010 N   0  0  0  0  0  0  0  0  0  0  0  0
   -8.7130   21.6340  -31.7780 C   0  0  0  0  0  0  0  0  0  0  0  0
   -7.3100   21.9530  -31.8730 C   0  0  0  0  0  0  0  0  0  0  0  0
   -6.7750   22.9260  -31.0190 C   0  0  0  0  0  0  0  0  0  0  0  0
   -5.4050   23.2180  -31.0490 C   0  0  0  0  0  0  0  0  0  0  0  0
   -4.7480   24.4620  -29.9900 S   0  0  0  0  0  0  0  0  0  0  0  0
   -3.8620   25.3690  -30.7950 O   0  0  0  0  0  0  0  0  0  0  0  0
   -5.8560   25.2750  -29.3780 O   0  0  0  0  0  0  0  0  0  0  0  0
   -3.8130   23.7360  -28.7220 N   0  0  0  0  0  0  0  0  0  0  0  0
   -2.7400   24.2570  -28.2050 C   0  0  0  0  0  0  0  0  0  0  0  0
   -2.1900   25.4350  -28.5820 N   0  0  0  0  0  0  0  0  0  0  0  0
   -1.0780   25.7320  -27.8580 C   0  0  0  0  0  0  0  0  0  0  0  0
   -0.7370   24.7850  -26.8980 C   0  0  0  0  0  0  0  0  0  0  0  0
   -1.8690   23.5390  -26.9640 S   0  0  0  0  0  0  0  0  0  0  0  0
   -4.5640   22.5130  -31.9180 C   0  0  0  0  0  0  0  0  0  0  0  0
   -5.0920   21.5400  -32.7700 C   0  0  0  0  0  0  0  0  0  0  0  0
   -6.4650   21.2690  -32.7740 C   0  0  0  0  0  0  0  0  0  0  0  0
   -6.9530   20.2960  -33.6560 O   0  0  0  0  0  0  0  0  0  0  0  0
   -6.5400   18.9550  -33.6750 C   0  0  0  0  0  0  0  0  0  0  0  0
   -7.0990   17.9920  -32.8160 C   0  0  0  0  0  0  0  0  0  0  0  0
   -6.6630   16.6660  -32.8700 C   0  0  0  0  0  0  0  0  0  0  0  0
   -5.6770   16.2890  -33.7840 C   0  0  0  0  0  0  0  0  0  0  0  0
   -5.1200   17.2310  -34.6570 C   0  0  0  0  0  0  0  0  0  0  0  0
   -4.1360   16.7950  -35.5590 O   0  0  0  0  0  0  0  0  0  0  0  0
   -2.8030   16.4270  -35.2110 C   0  0  0  0  0  0  0  0  0  0  0  0
   -2.2100   15.7390  -36.2550 F   0  0  0  0  0  0  0  0  0  0  0  0
   -2.8060   15.6430  -34.0720 F   0  0  0  0  0  0  0  0  0  0  0  0
   -2.0720   17.5720  -34.9610 F   0  0  0  0  0  0  0  0  0  0  0  0
   -5.5630   18.5680  -34.6000 C   0  0  0  0  0  0  0  0  0  0  0  0
   -7.4339   23.4636  -30.3212 H   0  0  0  0  0  0  0  0  0  0  0  0
   -2.5530   26.0600  -29.3350 H   0  0  0  0  0  0  0  0  0  0  0  0
   -0.4935   26.6499  -28.0190 H   0  0  0  0  0  0  0  0  0  0  0  0
    0.1228   24.8401  -26.2142 H   0  0  0  0  0  0  0  0  0  0  0  0
   -3.4848   22.7257  -31.9300 H   0  0  0  0  0  0  0  0  0  0  0  0
   -4.4236   20.9827  -33.4428 H   0  0  0  0  0  0  0  0  0  0  0  0
   -7.8814   18.2836  -32.0999 H   0  0  0  0  0  0  0  0  0  0  0  0
   -7.0973   15.9173  -32.1911 H   0  0  0  0  0  0  0  0  0  0  0  0
   -5.3354   15.2440  -33.8183 H   0  0  0  0  0  0  0  0  0  0  0  0
   -5.1375   19.3134  -35.2880 H   0  0  0  0  0  0  0  0  0  0  0  0
  1  2  3  0
  2  3  1  0
  3  4  2  0
  4  5  1  0
  5  6  1  0
  6  7  2  0
  6  8  2  0
  6  9  1  0
  9 10  2  3
 10 11  1  0
 11 12  1  0
 12 13  2  0
 13 14  1  0
  5 15  2  0
 15 16  1  0
 16 17  2  0
 17 18  1  0
 18 19  1  0
 19 20  2  0
 20 21  1  0
 21 22  2  0
 22 23  1  0
 23 24  1  0
 24 25  1  0
 25 26  1  0
 25 27  1  0
 25 28  1  0
 23 29  2  0
 17  3  1  0
 29 19  1  0
 14 10  1  0
  4 30  1  0
 11 31  1  0
 12 32  1  0
 13 33  1  0
 15 34  1  0
 16 35  1  0
 20 36  1  0
 21 37  1  0
 22 38  1  0
 29 39  1  0
M  END
>  <UniqueID>  (5) 
5

>  <SMILES>  (5) 
N#Cc1cc(S(=O)(=O)N=c2[nH]ccs2)ccc1Oc1cccc(OC(F)(F)F)c1

>  <Energy>  (5) 
82.4203068445144

>  <Genealogy>  (5) 
N#Cc1cc(S(=O)(=O)N=c2[nH]ccs2)ccc1Oc1cccc(OC(F)(F)F)c1 (3D coordinates assigned)
N#Cc1cc(S(=O)(=O)N=c2[nH]ccs2)ccc1Oc1cccc(OC(F)(F)F)c1 (optimized conformer: 82.4203068445144 kcal/mol)

>  <smiles>  (5) 
N#Cc1cc(S(=O)(=O)N=c2[nH]ccs2)ccc1Oc1cccc(OC(F)(F)F)c1

>  <score_type>  (5) 
oracle

>  <origin>  (5) 
adgpu

>  <m_score__min__energy>  (5) 
-9.5899999999999999

>  <m_primary>  (5) 
energy

$$$$
5:0
     RDKit          3D

 35 37  0  0  0  0  0  0  0  0999 V2000
   -2.9300   22.3580  -31.7470 C   0  0  0  0  0  0  0  0  0  0  0  0
   -4.4180   22.2190  -31.8830 C   0  0  0  0  0  0  0  0  0  0  0  0
   -5.0130   21.1720  -32.4940 N   0  0  0  0  0  0  0  0  0  0  0  0
   -6.3220   21.3470  -32.4160 N   0  0  0  0  0  0  0  0  0  0  0  0
   -7.2930   20.4070  -32.9760 C   0  0  0  0  0  0  0  0  0  0  0  0
   -6.5890   22.5070  -31.7820 C   0  0  0  0  0  0  0  0  0  0  0  0
   -7.9620   22.9980  -31.4470 C   0  0  0  0  0  0  0  0  0  0  0  0
   -5.3840   23.0900  -31.4140 C   0  0  0  0  0  0  0  0  0  0  0  0
   -5.1460   24.5910  -30.5210 S   0  0  0  0  0  0  0  0  0  0  0  0
   -5.7760   25.7190  -31.2960 O   0  0  0  0  0  0  0  0  0  0  0  0
   -5.7980   24.5150  -29.1640 O   0  0  0  0  0  0  0  0  0  0  0  0
   -3.4590   24.9190  -30.3030 N   0  0  0  0  0  0  0  0  0  0  0  0
   -2.6300   24.3360  -29.2900 C   0  0  0  0  0  0  0  0  0  0  0  0
   -2.9060   23.0530  -28.7640 C   0  0  0  0  0  0  0  0  0  0  0  0
   -2.0710   22.5620  -27.7660 C   0  0  0  0  0  0  0  0  0  0  0  0
   -1.0180   23.2950  -27.2740 C   0  0  0  0  0  0  0  0  0  0  0  0
   -0.7090   24.5560  -27.7750 C   0  0  0  0  0  0  0  0  0  0  0  0
   -1.5230   25.0720  -28.8000 C   0  0  0  0  0  0  0  0  0  0  0  0
   -1.2380   26.3220  -29.3240 O   0  0  0  0  0  0  0  0  0  0  0  0
   -0.3640   22.4800  -26.2610 C   0  0  0  0  0  0  0  0  0  0  0  0
    0.6400   22.8370  -25.5800 O   0  0  0  0  0  0  0  0  0  0  0  0
   -1.0010   21.2080  -26.1270 N   0  0  0  0  0  0  0  0  0  0  0  0
   -2.0650   21.2730  -27.0860 C   0  0  0  0  0  0  0  0  0  0  0  0
   -2.8480   20.3190  -27.3260 O   0  0  0  0  0  0  0  0  0  0  0  0
   -2.6600   22.3832  -30.6809 H   0  0  0  0  0  0  0  0  0  0  0  0
   -2.4361   21.5021  -32.2302 H   0  0  0  0  0  0  0  0  0  0  0  0
   -2.6032   23.2906  -32.2302 H   0  0  0  0  0  0  0  0  0  0  0  0
   -7.8216   19.8953  -32.1583 H   0  0  0  0  0  0  0  0  0  0  0  0
   -8.0185   20.9548  -33.5954 H   0  0  0  0  0  0  0  0  0  0  0  0
   -6.7691   19.6642  -33.5954 H   0  0  0  0  0  0  0  0  0  0  0  0
   -8.0798   23.0401  -30.3541 H   0  0  0  0  0  0  0  0  0  0  0  0
   -8.1054   24.0031  -31.8703 H   0  0  0  0  0  0  0  0  0  0  0  0
   -8.7102   22.3117  -31.8703 H   0  0  0  0  0  0  0  0  0  0  0  0
   -3.7561   22.4606  -29.1332 H   0  0  0  0  0  0  0  0  0  0  0  0
    0.1433   25.1302  -27.3827 H   0  0  0  0  0  0  0  0  0  0  0  0
  1  2  1  0
  2  3  2  0
  3  4  1  0
  4  5  1  0
  4  6  1  0
  6  7  1  0
  6  8  2  0
  8  9  1  0
  9 10  2  0
  9 11  2  0
  9 12  1  0
 12 13  1  0
 13 14  2  0
 14 15  1  0
 15 16  2  0
 16 17  1  0
 17 18  2  0
 18 19  1  0
 16 20  1  0
 20 21  2  0
 20 22  1  0
 22 23  1  0
 23 24  2  0
  8  2  1  0
 18 13  1  0
 23 15  1  0
  1 25  1  0
  1 26  1  0
  1 27  1  0
  5 28  1  0
  5 29  1  0
  5 30  1  0
  7 31  1  0
  7 32  1  0
  7 33  1  0
 14 34  1  0
 17 35  1  0
M  CHG  3  12  -1  19  -1  22  -1
M  END
>  <UniqueID>  (6) 
6

>  <SMILES>  (6) 
Cc1nn(C)c(C)c1S(=O)(=O)[N-]c1cc2c(cc1[O-])C(=O)[N-]C2=O

>  <Energy>  (6) 
100.09024745947049

>  <Genealogy>  (6) 
Cc1nn(C)c(C)c1S(=O)(=O)[N-]c1cc2c(cc1[O-])C(=O)[N-]C2=O (protonated)
Cc1nn(C)c(C)c1S(=O)(=O)[N-]c1cc2c(cc1[O-])C(=O)[N-]C2=O (3D coordinates assigned)
Cc1nn(C)c(C)c1S(=O)(=O)[N-]c1cc2c(cc1[O-])C(=O)[N-]C2=O (nonaromatic ring conformer: 100.09024745947049 kcal/mol)

>  <smiles>  (6) 
Cc1nn(C)c(C)c1S(=O)(=O)Nc1cc2c(cc1O)C(=O)NC2=O

>  <score_type>  (6) 
oracle

>  <origin>  (6) 
adgpu

>  <m_score__min__energy>  (6) 
-12.57

>  <m_primary>  (6) 
energy

$$$$
6:0
     RDKit          3D

 59 62  0  0  0  0  0  0  0  0999 V2000
   -2.0930   24.9550  -29.5580 O   0  0  0  0  0  0  0  0  0  0  0  0
   -2.6200   23.8100  -29.5860 C   0  0  0  0  0  0  0  0  0  0  0  0
   -1.9790   22.7410  -28.8780 N   0  0  0  0  0  0  0  0  0  0  0  0
   -0.6830   22.1390  -29.1950 C   0  0  0  0  0  0  0  0  0  0  0  0
   -0.4470   22.0140  -30.7180 C   0  0  0  0  0  0  0  0  0  0  0  0
   -1.1120   20.8650  -31.3710 N   0  0  0  0  0  0  0  0  0  0  0  0
   -1.9090   21.2200  -32.5540 C   0  0  0  0  0  0  0  0  0  0  0  0
   -2.6650   20.0180  -33.0600 C   0  0  0  0  0  0  0  0  0  0  0  0
   -2.2360   18.7590  -32.8420 C   0  0  0  0  0  0  0  0  0  0  0  0
   -2.9780   17.6070  -33.4250 C   0  0  0  0  0  0  0  0  0  0  0  0
   -2.3160   16.3990  -33.7220 C   0  0  0  0  0  0  0  0  0  0  0  0
   -3.0190   15.3180  -34.2590 C   0  0  0  0  0  0  0  0  0  0  0  0
   -4.3900   15.4270  -34.5030 C   0  0  0  0  0  0  0  0  0  0  0  0
   -5.0710   14.3770  -35.0220 F   0  0  0  0  0  0  0  0  0  0  0  0
   -5.0570   16.6190  -34.2170 C   0  0  0  0  0  0  0  0  0  0  0  0
   -4.3590   17.7020  -33.6760 C   0  0  0  0  0  0  0  0  0  0  0  0
   -1.0680   18.4890  -31.9090 C   0  0  0  0  0  0  0  0  0  0  0  0
   -0.2150   19.7380  -31.6680 C   0  0  0  0  0  0  0  0  0  0  0  0
   -3.8570   23.6070  -30.3700 C   0  0  0  0  0  0  0  0  0  0  0  0
   -4.2780   22.3080  -30.6970 C   0  0  0  0  0  0  0  0  0  0  0  0
   -5.4210   22.1050  -31.4840 C   0  0  0  0  0  0  0  0  0  0  0  0
   -5.9130   20.4640  -31.9330 S   0  0  0  0  0  0  0  0  0  0  0  0
   -5.7620   20.3080  -33.4230 O   0  0  0  0  0  0  0  0  0  0  0  0
   -4.9970   19.4730  -31.2670 O   0  0  0  0  0  0  0  0  0  0  0  0
   -7.5560   20.0750  -31.4600 N   0  0  0  0  0  0  0  0  0  0  0  0
   -8.0890   18.9000  -32.1690 C   0  0  0  0  0  0  0  0  0  0  0  0
   -9.3930   19.3100  -32.8380 C   0  0  0  0  0  0  0  0  0  0  0  0
   -9.8020   20.5820  -32.1280 C   0  0  0  0  0  0  0  0  0  0  0  0
   -8.4860   21.1910  -31.6850 C   0  0  0  0  0  0  0  0  0  0  0  0
   -6.1520   23.2160  -31.9350 C   0  0  0  0  0  0  0  0  0  0  0  0
   -5.7620   24.5070  -31.5710 C   0  0  0  0  0  0  0  0  0  0  0  0
   -4.6200   24.7080  -30.7930 C   0  0  0  0  0  0  0  0  0  0  0  0
   -4.2360   26.0040  -30.4650 O   0  0  0  0  0  0  0  0  0  0  0  0
    0.1121   22.7656  -28.7647 H   0  0  0  0  0  0  0  0  0  0  0  0
   -0.6718   21.1246  -28.7698 H   0  0  0  0  0  0  0  0  0  0  0  0
   -0.8143   22.9346  -31.1950 H   0  0  0  0  0  0  0  0  0  0  0  0
    0.6334   21.8511  -30.8449 H   0  0  0  0  0  0  0  0  0  0  0  0
   -2.6245   22.0109  -32.2847 H   0  0  0  0  0  0  0  0  0  0  0  0
   -1.2328   21.5748  -33.3458 H   0  0  0  0  0  0  0  0  0  0  0  0
   -3.5960   20.1733  -33.6249 H   0  0  0  0  0  0  0  0  0  0  0  0
   -1.2369   16.3066  -33.5294 H   0  0  0  0  0  0  0  0  0  0  0  0
   -2.4925   14.3802  -34.4899 H   0  0  0  0  0  0  0  0  0  0  0  0
   -6.1350   16.7063  -34.4179 H   0  0  0  0  0  0  0  0  0  0  0  0
   -4.8931   18.6354  -33.4448 H   0  0  0  0  0  0  0  0  0  0  0  0
   -1.4606   18.1372  -30.9435 H   0  0  0  0  0  0  0  0  0  0  0  0
   -0.4274   17.7307  -32.3829 H   0  0  0  0  0  0  0  0  0  0  0  0
    0.4608   19.5673  -30.8170 H   0  0  0  0  0  0  0  0  0  0  0  0
    0.3878   19.9610  -32.5607 H   0  0  0  0  0  0  0  0  0  0  0  0
   -3.7062   21.4418  -30.3327 H   0  0  0  0  0  0  0  0  0  0  0  0
   -7.3686   18.5634  -32.9290 H   0  0  0  0  0  0  0  0  0  0  0  0
   -8.2628   18.0733  -31.4645 H   0  0  0  0  0  0  0  0  0  0  0  0
   -9.2372   19.4968  -33.9108 H   0  0  0  0  0  0  0  0  0  0  0  0
  -10.1624   18.5269  -32.7678 H   0  0  0  0  0  0  0  0  0  0  0  0
  -10.3355   21.2581  -32.8123 H   0  0  0  0  0  0  0  0  0  0  0  0
  -10.4883   20.3975  -31.2884 H   0  0  0  0  0  0  0  0  0  0  0  0
   -8.0949   21.8580  -32.4675 H   0  0  0  0  0  0  0  0  0  0  0  0
   -8.6154   21.7876  -30.7700 H   0  0  0  0  0  0  0  0  0  0  0  0
   -7.0336   23.0693  -32.5763 H   0  0  0  0  0  0  0  0  0  0  0  0
   -6.3584   25.3710  -31.8994 H   0  0  0  0  0  0  0  0  0  0  0  0
  1  2  2  0
  2  3  1  0
  3  4  1  0
  4  5  1  0
  5  6  1  0
  6  7  1  0
  7  8  1  0
  8  9  2  0
  9 10  1  0
 10 11  2  0
 11 12  1  0
 12 13  2  0
 13 14  1  0
 13 15  1  0
 15 16  2  0
  9 17  1  0
 17 18  1  0
  2 19  1  0
 19 20  2  0
 20 21  1  0
 21 22  1  0
 22 23  2  0
 22 24  2  0
 22 25  1  0
 25 26  1  0
 26 27  1  0
 27 28  1  0
 28 29  1  0
 21 30  2  0
 30 31  1  0
 31 32  2  0
 32 33  1  0
 18  6  1  0
 32 19  1  0
 16 10  1  0
 29 25  1  0
  4 34  1  0
  4 35  1  0
  5 36  1  0
  5 37  1  0
  7 38  1  0
  7 39  1  0
  8 40  1  0
 11 41  1  0
 12 42  1  0
 15 43  1  0
 16 44  1  0
 17 45  1  0
 17 46  1  0
 18 47  1  0
 18 48  1  0
 20 49  1  0
 26 50  1  0
 26 51  1  0
 27 52  1  0
 27 53  1  0
 28 54  1  0
 28 55  1  0
 29 56  1  0
 29 57  1  0
 30 58  1  0
 31 59  1  0
M  CHG  2   3  -1  33  -1
M  END
>  <UniqueID>  (7) 
7

>  <SMILES>  (7) 
O=C([N-]CCN1CC=C(c2ccc(F)cc2)CC1)c1cc(S(=O)(=O)N2CCCC2)ccc1[O-]

>  <Energy>  (7) 
79.0877593413432

>  <Genealogy>  (7) 
O=C([N-]CCN1CC=C(c2ccc(F)cc2)CC1)c1cc(S(=O)(=O)N2CCCC2)ccc1[O-] (protonated)
O=C([N-]CCN1CC=C(c2ccc(F)cc2)CC1)c1cc(S(=O)(=O)N2CCCC2)ccc1[O-] (3D coordinates assigned)
O=C([N-]CCN1CC=C(c2ccc(F)cc2)CC1)c1cc(S(=O)(=O)N2CCCC2)ccc1[O-] (nonaromatic ring conformer: 79.0877593413432 kcal/mol)

>  <smiles>  (7) 
O=C(NCCN1CC=C(c2ccc(F)cc2)CC1)c1cc(S(=O)(=O)N2CCCC2)ccc1O

>  <score_type>  (7) 
oracle

>  <origin>  (7) 
adgpu

>  <m_score__min__energy>  (7) 
-15.65

>  <m_primary>  (7) 
energy

$$$$
7:0
     RDKit          3D

 44 47  0  0  0  0  0  0  0  0999 V2000
   -3.3550   24.5580  -27.3010 C   0  0  0  0  0  0  0  0  0  0  0  0
   -2.6860   23.7290  -28.3480 C   0  0  0  0  0  0  0  0  0  0  0  0
   -1.8540   22.7030  -28.0980 N   0  0  0  0  0  0  0  0  0  0  0  0
   -1.3870   22.2230  -29.2400 N   0  0  0  0  0  0  0  0  0  0  0  0
   -1.9150   22.9490  -30.2480 C   0  0  0  0  0  0  0  0  0  0  0  0
   -2.7390   23.9150  -29.7090 C   0  0  0  0  0  0  0  0  0  0  0  0
   -3.4880   24.9160  -30.4010 N   0  0  0  0  0  0  0  0  0  0  0  0
   -5.2180   24.9850  -30.3760 S   0  0  0  0  0  0  0  0  0  0  0  0
   -5.6830   25.1940  -28.9610 O   0  0  0  0  0  0  0  0  0  0  0  0
   -5.6810   26.1410  -31.2170 O   0  0  0  0  0  0  0  0  0  0  0  0
   -5.8790   23.4950  -31.0410 C   0  0  0  0  0  0  0  0  0  0  0  0
   -5.0310   22.4950  -31.5320 C   0  0  0  0  0  0  0  0  0  0  0  0
   -5.5620   21.3210  -32.0690 C   0  0  0  0  0  0  0  0  0  0  0  0
   -6.9530   21.1260  -32.1240 C   0  0  0  0  0  0  0  0  0  0  0  0
   -7.5140   19.9480  -32.6650 C   0  0  0  0  0  0  0  0  0  0  0  0
   -6.6850   18.9090  -33.1950 N   0  0  0  0  0  0  0  0  0  0  0  0
   -6.0630   18.9850  -34.5010 C   0  0  0  0  0  0  0  0  0  0  0  0
   -5.2170   17.7230  -34.6160 C   0  0  0  0  0  0  0  0  0  0  0  0
   -5.7140   16.7790  -33.5200 C   0  0  0  0  0  0  0  0  0  0  0  0
   -6.4620   17.6490  -32.5170 C   0  0  0  0  0  0  0  0  0  0  0  0
   -8.9050   19.7900  -32.6980 C   0  0  0  0  0  0  0  0  0  0  0  0
   -9.7430   20.7890  -32.2010 C   0  0  0  0  0  0  0  0  0  0  0  0
   -9.2010   21.9600  -31.6700 C   0  0  0  0  0  0  0  0  0  0  0  0
   -7.8110   22.1390  -31.6250 C   0  0  0  0  0  0  0  0  0  0  0  0
   -7.2660   23.3160  -31.0890 C   0  0  0  0  0  0  0  0  0  0  0  0
   -3.0627   24.1958  -26.3043 H   0  0  0  0  0  0  0  0  0  0  0  0
   -3.0486   25.6084  -27.4138 H   0  0  0  0  0  0  0  0  0  0  0  0
   -4.4464   24.4803  -27.4138 H   0  0  0  0  0  0  0  0  0  0  0  0
   -1.5970   22.3310  -27.1560 H   0  0  0  0  0  0  0  0  0  0  0  0
   -1.7207   22.7959  -31.3198 H   0  0  0  0  0  0  0  0  0  0  0  0
   -3.9406   22.6352  -31.4944 H   0  0  0  0  0  0  0  0  0  0  0  0
   -4.8864   20.5421  -32.4523 H   0  0  0  0  0  0  0  0  0  0  0  0
   -6.8277   19.0099  -35.2913 H   0  0  0  0  0  0  0  0  0  0  0  0
   -5.4582   19.8966  -34.6153 H   0  0  0  0  0  0  0  0  0  0  0  0
   -5.3505   17.2626  -35.6061 H   0  0  0  0  0  0  0  0  0  0  0  0
   -4.1458   17.9449  -34.5005 H   0  0  0  0  0  0  0  0  0  0  0  0
   -6.3888   16.0218  -33.9459 H   0  0  0  0  0  0  0  0  0  0  0  0
   -4.8797   16.2440  -33.0429 H   0  0  0  0  0  0  0  0  0  0  0  0
   -7.4205   17.1840  -32.2432 H   0  0  0  0  0  0  0  0  0  0  0  0
   -5.8938   17.7803  -31.5843 H   0  0  0  0  0  0  0  0  0  0  0  0
   -9.3403   18.8716  -33.1188 H   0  0  0  0  0  0  0  0  0  0  0  0
  -10.8342   20.6529  -32.2279 H   0  0  0  0  0  0  0  0  0  0  0  0
   -9.8671   22.7462  -31.2850 H   0  0  0  0  0  0  0  0  0  0  0  0
   -7.9327   24.1020  -30.7046 H   0  0  0  0  0  0  0  0  0  0  0  0
  1  2  1  0
  2  3  1  0
  3  4  1  0
  4  5  2  0
  5  6  1  0
  6  7  1  0
  7  8  1  0
  8  9  2  0
  8 10  2  0
  8 11  1  0
 11 12  2  0
 12 13  1  0
 13 14  2  0
 14 15  1  0
 15 16  1  0
 16 17  1  0
 17 18  1  0
 18 19  1  0
 19 20  1  0
 15 21  2  0
 21 22  1  0
 22 23  2  0
 23 24  1  0
 24 25  2  0
  6  2  2  0
 25 11  1  0
 24 14  1  0
 20 16  1  0
  1 26  1  0
  1 27  1  0
  1 28  1  0
  3 29  1  0
  5 30  1  0
 12 31  1  0
 13 32  1  0
 17 33  1  0
 17 34  1  0
 18 35  1  0
 18 36  1  0
 19 37  1  0
 19 38  1  0
 20 39  1  0
 20 40  1  0
 21 41  1  0
 22 42  1  0
 23 43  1  0
 25 44  1  0
M  CHG  1   7  -1
M  END
>  <UniqueID>  (8) 
8

>  <SMILES>  (8) 
Cc1[nH]ncc1[N-]S(=O)(=O)c1ccc2c(N3CCCC3)cccc2c1

>  <Energy>  (8) 
88.42198459769385

>  <Genealogy>  (8) 
Cc1[nH]ncc1[N-]S(=O)(=O)c1ccc2c(N3CCCC3)cccc2c1 (protonated)
Cc1[nH]ncc1[N-]S(=O)(=O)c1ccc2c(N3CCCC3)cccc2c1 (3D coordinates assigned)
Cc1[nH]ncc1[N-]S(=O)(=O)c1ccc2c(N3CCCC3)cccc2c1 (nonaromatic ring conformer: 88.42198459769385 kcal/mol)

>  <smiles>  (8) 
Cc1[nH]ncc1NS(=O)(=O)c1ccc2c(N3CCCC3)cccc2c1

>  <score_type>  (8) 
oracle

>  <origin>  (8) 
adgpu

>  <m_score__min__energy>  (8) 
-11.17

>  <m_primary>  (8) 
energy

$$$$
8:0
     RDKit          3D

 40 42  0  0  0  0  0  0  0  0999 V2000
   -4.7230   19.6270  -32.4140 C   0  0  0  0  0  0  0  0  0  0  0  0
   -5.4270   20.9470  -32.1760 C   0  0  0  0  0  0  0  0  0  0  0  0
   -6.8110   21.0770  -32.4670 C   0  0  0  0  0  0  0  0  0  0  0  0
   -7.5680   20.0690  -33.3240 C   0  0  0  0  0  0  0  0  0  0  0  0
   -7.3570   18.6510  -32.8480 C   0  0  0  0  0  0  0  0  0  0  0  0
   -7.9290   18.2930  -31.7830 O   0  0  0  0  0  0  0  0  0  0  0  0
   -6.5330   17.7060  -33.5730 N   0  0  0  0  0  0  0  0  0  0  0  0
   -6.7640   16.2680  -33.3820 C   0  0  0  0  0  0  0  0  0  0  0  0
   -5.4930   15.4740  -33.6990 C   0  0  0  0  0  0  0  0  0  0  0  0
   -4.9830   15.8290  -34.9680 O   0  0  0  0  0  0  0  0  0  0  0  0
   -4.5520   17.1750  -34.9410 C   0  0  0  0  0  0  0  0  0  0  0  0
   -5.7370   18.1230  -34.7360 C   0  0  0  0  0  0  0  0  0  0  0  0
   -7.4950   22.1820  -31.9270 C   0  0  0  0  0  0  0  0  0  0  0  0
   -8.7450   22.2860  -32.0500 O   0  0  0  0  0  0  0  0  0  0  0  0
   -6.8430   23.1300  -31.2750 O   0  0  0  0  0  0  0  0  0  0  0  0
   -5.5270   23.1340  -31.1040 C   0  0  0  0  0  0  0  0  0  0  0  0
   -4.9180   24.2230  -30.4350 C   0  0  0  0  0  0  0  0  0  0  0  0
   -5.7140   25.3470  -29.8790 C   0  0  0  0  0  0  0  0  0  0  0  0
   -5.7230   26.4850  -30.4190 O   0  0  0  0  0  0  0  0  0  0  0  0
   -3.5200   24.2470  -30.2970 C   0  0  0  0  0  0  0  0  0  0  0  0
   -2.8850   25.2960  -29.6390 O   0  0  0  0  0  0  0  0  0  0  0  0
   -2.7430   23.2250  -30.8340 C   0  0  0  0  0  0  0  0  0  0  0  0
   -3.3320   22.1490  -31.4970 C   0  0  0  0  0  0  0  0  0  0  0  0
   -2.4850   21.2210  -32.0930 O   0  0  0  0  0  0  0  0  0  0  0  0
   -4.7450   22.0540  -31.5950 C   0  0  0  0  0  0  0  0  0  0  0  0
   -4.4759   19.1637  -31.4474 H   0  0  0  0  0  0  0  0  0  0  0  0
   -5.3834   18.9567  -32.9837 H   0  0  0  0  0  0  0  0  0  0  0  0
   -3.7985   19.8020  -32.9837 H   0  0  0  0  0  0  0  0  0  0  0  0
   -8.6422   20.3020  -33.2811 H   0  0  0  0  0  0  0  0  0  0  0  0
   -7.1860   20.1427  -34.3529 H   0  0  0  0  0  0  0  0  0  0  0  0
   -7.0549   16.0837  -32.3373 H   0  0  0  0  0  0  0  0  0  0  0  0
   -7.5655   15.9429  -34.0617 H   0  0  0  0  0  0  0  0  0  0  0  0
   -4.7336   15.6878  -32.9324 H   0  0  0  0  0  0  0  0  0  0  0  0
   -5.7394   14.4020  -33.7053 H   0  0  0  0  0  0  0  0  0  0  0  0
   -3.8371   17.3080  -34.1156 H   0  0  0  0  0  0  0  0  0  0  0  0
   -4.0748   17.4111  -35.9036 H   0  0  0  0  0  0  0  0  0  0  0  0
   -5.3603   19.1431  -34.5702 H   0  0  0  0  0  0  0  0  0  0  0  0
   -6.3743   18.0958  -35.6322 H   0  0  0  0  0  0  0  0  0  0  0  0
   -6.3120   25.1811  -28.9708 H   0  0  0  0  0  0  0  0  0  0  0  0
   -1.6483   23.2666  -30.7340 H   0  0  0  0  0  0  0  0  0  0  0  0
  1  2  1  0
  2  3  2  0
  3  4  1  0
  4  5  1  0
  5  6  2  0
  5  7  1  0
  7  8  1  0
  8  9  1  0
  9 10  1  0
 10 11  1  0
 11 12  1  0
  3 13  1  0
 13 14  2  0
 13 15  1  0
 15 16  1  0
 16 17  2  0
 17 18  1  0
 18 19  2  0
 17 20  1  0
 20 21  1  0
 20 22  2  0
 22 23  1  0
 23 24  1  0
 23 25  2  0
 25  2  1  0
 12  7  1  0
 25 16  1  0
  1 26  1  0
  1 27  1  0
  1 28  1  0
  4 29  1  0
  4 30  1  0
  8 31  1  0
  8 32  1  0
  9 33  1  0
  9 34  1  0
 11 35  1  0
 11 36  1  0
 12 37  1  0
 12 38  1  0
 18 39  1  0
 22 40  1  0
M  CHG  2  21  -1  24  -1
M  END
>  <UniqueID>  (9) 
9

>  <SMILES>  (9) 
Cc1c(CC(=O)N2CCOCC2)c(=O)oc2c(C=O)c([O-])cc([O-])c12

>  <Energy>  (9) 
62.2099460842689

>  <Genealogy>  (9) 
Cc1c(CC(=O)N2CCOCC2)c(=O)oc2c(C=O)c([O-])cc([O-])c12 (protonated)
Cc1c(CC(=O)N2CCOCC2)c(=O)oc2c(C=O)c([O-])cc([O-])c12 (3D coordinates assigned)
Cc1c(CC(=O)N2CCOCC2)c(=O)oc2c(C=O)c([O-])cc([O-])c12 (nonaromatic ring conformer: 62.2099460842689 kcal/mol)

>  <smiles>  (9) 
Cc1c(CC(=O)N2CCOCC2)c(=O)oc2c(C=O)c(O)cc(O)c12

>  <score_type>  (9) 
oracle

>  <origin>  (9) 
adgpu

>  <m_score__min__energy>  (9) 
-10.75

>  <m_primary>  (9) 
energy

$$$$
9:0
     RDKit          3D

 60 62  0  0  0  0  0  0  0  0999 V2000
   -3.8440   24.1050  -27.4320 C   0  0  0  0  0  0  0  0  0  0  0  0
   -3.8310   22.6650  -27.9340 C   0  0  0  0  0  0  0  0  0  0  0  0
   -3.9560   22.6230  -29.3540 O   0  0  0  0  0  0  0  0  0  0  0  0
   -2.9550   22.2230  -30.2600 C   0  0  0  0  0  0  0  0  0  0  0  0
   -1.5870   22.3460  -29.9640 C   0  0  0  0  0  0  0  0  0  0  0  0
   -0.6270   21.9170  -30.8770 C   0  0  0  0  0  0  0  0  0  0  0  0
   -1.0030   21.3610  -32.1020 C   0  0  0  0  0  0  0  0  0  0  0  0
    0.0190   20.8840  -32.9920 N   0  0  0  0  0  0  0  0  0  0  0  0
    0.1740   21.4740  -34.3210 C   0  0  0  0  0  0  0  0  0  0  0  0
    0.8560   19.7560  -32.5880 C   0  0  0  0  0  0  0  0  0  0  0  0
   -2.3730   21.2570  -32.4380 C   0  0  0  0  0  0  0  0  0  0  0  0
   -2.7900   20.6490  -33.7590 C   0  0  0  0  0  0  0  0  0  0  0  0
   -3.3480   21.6730  -31.4960 C   0  0  0  0  0  0  0  0  0  0  0  0
   -4.7910   21.5290  -31.7800 C   0  0  0  0  0  0  0  0  0  0  0  0
   -5.3610   20.2500  -31.8370 C   0  0  0  0  0  0  0  0  0  0  0  0
   -6.7260   20.0940  -32.0920 C   0  0  0  0  0  0  0  0  0  0  0  0
   -7.4290   18.4780  -32.0920 S   0  0  0  0  0  0  0  0  0  0  0  0
   -6.8330   17.6570  -30.9830 O   0  0  0  0  0  0  0  0  0  0  0  0
   -8.9080   18.6060  -31.8500 O   0  0  0  0  0  0  0  0  0  0  0  0
   -7.1560   17.7040  -33.6390 N   0  0  1  0  0  0  0  0  0  0  0  0
   -6.0570   18.3370  -34.3780 C   0  0  0  0  0  0  0  0  0  0  0  0
   -4.7320   17.7820  -33.8820 C   0  0  0  0  0  0  0  0  0  0  0  0
   -5.0170   16.0940  -33.2900 S   0  0  0  0  0  0  0  0  0  0  0  0
   -6.8180   16.2850  -33.4670 C   0  0  0  0  0  0  0  0  0  0  0  0
   -7.5270   21.2240  -32.2970 C   0  0  0  0  0  0  0  0  0  0  0  0
   -6.9620   22.5020  -32.2590 C   0  0  0  0  0  0  0  0  0  0  0  0
   -5.5860   22.6660  -32.0150 C   0  0  0  0  0  0  0  0  0  0  0  0
   -4.9890   23.9360  -31.9540 O   0  0  0  0  0  0  0  0  0  0  0  0
   -4.9490   24.7570  -30.8210 C   0  0  0  0  0  0  0  0  0  0  0  0
   -6.1660   24.8840  -29.9690 C   0  0  0  0  0  0  0  0  0  0  0  0
   -3.8760   25.3110  -30.4560 O   0  0  0  0  0  0  0  0  0  0  0  0
   -3.8440   24.1098  -26.3320 H   0  0  0  0  0  0  0  0  0  0  0  0
   -2.9506   24.6300  -27.8010 H   0  0  0  0  0  0  0  0  0  0  0  0
   -4.7468   24.6138  -27.8010 H   0  0  0  0  0  0  0  0  0  0  0  0
   -2.8834   22.1894  -27.6411 H   0  0  0  0  0  0  0  0  0  0  0  0
   -4.6820   22.1286  -27.4889 H   0  0  0  0  0  0  0  0  0  0  0  0
   -1.2724   22.7839  -29.0052 H   0  0  0  0  0  0  0  0  0  0  0  0
    0.4403   22.0172  -30.6305 H   0  0  0  0  0  0  0  0  0  0  0  0
    0.4524   22.5335  -34.2216 H   0  0  0  0  0  0  0  0  0  0  0  0
    0.9618   20.9379  -34.8706 H   0  0  0  0  0  0  0  0  0  0  0  0
   -0.7755   21.3943  -34.8706 H   0  0  0  0  0  0  0  0  0  0  0  0
    0.8952   19.7032  -31.4900 H   0  0  0  0  0  0  0  0  0  0  0  0
    0.4301   18.8227  -32.9850 H   0  0  0  0  0  0  0  0  0  0  0  0
    1.8727   19.8931  -32.9850 H   0  0  0  0  0  0  0  0  0  0  0  0
   -3.4033   19.7548  -33.5738 H   0  0  0  0  0  0  0  0  0  0  0  0
   -3.3756   21.3830  -34.3319 H   0  0  0  0  0  0  0  0  0  0  0  0
   -1.8943   20.3670  -34.3319 H   0  0  0  0  0  0  0  0  0  0  0  0
   -4.7297   19.3630  -31.6800 H   0  0  0  0  0  0  0  0  0  0  0  0
   -8.0390   17.7860  -34.1970 H   0  0  0  0  0  0  0  0  0  0  0  0
   -6.1656   18.1239  -35.4517 H   0  0  0  0  0  0  0  0  0  0  0  0
   -6.0838   19.4249  -34.2173 H   0  0  0  0  0  0  0  0  0  0  0  0
   -4.0011   17.7707  -34.7040 H   0  0  0  0  0  0  0  0  0  0  0  0
   -4.3354   18.4093  -33.0701 H   0  0  0  0  0  0  0  0  0  0  0  0
   -7.1600   15.7195  -34.3463 H   0  0  0  0  0  0  0  0  0  0  0  0
   -7.3133   15.9019  -32.5626 H   0  0  0  0  0  0  0  0  0  0  0  0
   -8.6037   21.1057  -32.4885 H   0  0  0  0  0  0  0  0  0  0  0  0
   -7.5973   23.3853  -32.4209 H   0  0  0  0  0  0  0  0  0  0  0  0
   -5.8759   24.8537  -28.9084 H   0  0  0  0  0  0  0  0  0  0  0  0
   -6.6668   25.8393  -30.1850 H   0  0  0  0  0  0  0  0  0  0  0  0
   -6.8532   24.0527  -30.1850 H   0  0  0  0  0  0  0  0  0  0  0  0
  1  2  1  0
  2  3  1  0
  3  4  1  0
  4  5  2  0
  5  6  1  0
  6  7  2  0
  7  8  1  0
  8  9  1  0
  8 10  1  0
  7 11  1  0
 11 12  1  0
 11 13  2  0
 13 14  1  0
 14 15  2  0
 15 16  1  0
 16 17  1  0
 17 18  2  0
 17 19  2  0
 17 20  1  0
 20 21  1  0
 21 22  1  0
 22 23  1  0
 23 24  1  0
 16 25  2  0
 25 26  1  0
 26 27  2  0
 27 28  1  0
 28 29  1  0
 29 30  1  0
 29 31  2  0
 13  4  1  0
 27 14  1  0
 24 20  1  0
  1 32  1  0
  1 33  1  0
  1 34  1  0
  2 35  1  0
  2 36  1  0
  5 37  1  0
  6 38  1  0
  9 39  1  0
  9 40  1  0
  9 41  1  0
 10 42  1  0
 10 43  1  0
 10 44  1  0
 12 45  1  0
 12 46  1  0
 12 47  1  0
 15 48  1  0
 20 49  1  6
 21 50  1  0
 21 51  1  0
 22 52  1  0
 22 53  1  0
 24 54  1  0
 24 55  1  0
 25 56  1  0
 26 57  1  0
 30 58  1  0
 30 59  1  0
 30 60  1  0
M  CHG  1  20   1
M  END
>  <UniqueID>  (10) 
10

>  <SMILES>  (10) 
CCOc1ccc(N(C)C)c(C)c1-c1cc(S(=O)(=O)[N@H+]2CCSC2)ccc1OC(C)=O

>  <Energy>  (10) 
70.5592604698032

>  <Genealogy>  (10) 
CCOc1ccc(N(C)C)c(C)c1-c1cc(S(=O)(=O)[NH+]2CCSC2)ccc1OC(C)=O (protonated)
CCOc1ccc(N(C)C)c(C)c1-c1cc(S(=O)(=O)[N@H+]2CCSC2)ccc1OC(C)=O (chirality)
CCOc1ccc(N(C)C)c(C)c1-c1cc(S(=O)(=O)[N@H+]2CCSC2)ccc1OC(C)=O (3D coordinates assigned)
CCOc1ccc(N(C)C)c(C)c1-c1cc(S(=O)(=O)[N@H+]2CCSC2)ccc1OC(C)=O (nonaromatic ring conformer: 70.5592604698032 kcal/mol)

>  <smiles>  (10) 
CCOc1ccc(N(C)C)c(C)c1-c1cc(S(=O)(=O)N2CCSC2)ccc1OC(C)=O

>  <score_type>  (10) 
oracle

>  <origin>  (10) 
adgpu

>  <m_score__min__energy>  (10) 
-9.3200000000000003

>  <m_primary>  (10) 
energy

$$$$
10:0
     RDKit          3D

 68 73  0  0  0  0  0  0  0  0999 V2000
   -3.8600   25.5450  -30.8190 O   0  0  0  0  0  0  0  0  0  0  0  0
   -4.1710   24.4370  -30.3010 C   0  0  0  0  0  0  0  0  0  0  0  0
   -5.3140   23.7280  -30.7960 N   0  0  0  0  0  0  0  0  0  0  0  0
   -5.4350   22.2710  -30.7760 C   0  0  2  0  0  0  0  0  0  0  0  0
   -4.2380   21.6570  -31.4840 C   0  0  0  0  0  0  0  0  0  0  0  0
   -3.2950   20.8360  -30.8330 C   0  0  0  0  0  0  0  0  0  0  0  0
   -2.1650   20.3750  -31.5140 C   0  0  0  0  0  0  0  0  0  0  0  0
   -1.9710   20.6920  -32.8680 C   0  0  0  0  0  0  0  0  0  0  0  0
   -0.7590   20.3060  -33.5380 N   0  0  0  0  0  0  0  0  0  0  0  0
    0.5240   20.4650  -32.8350 C   0  0  0  0  0  0  0  0  0  0  0  0
    1.7090   20.3980  -33.8080 C   0  0  0  0  0  0  0  0  0  0  0  0
    1.3930   21.1560  -35.0260 N   0  0  0  0  0  0  0  0  0  0  0  0
    2.2940   22.1650  -35.5190 C   0  0  0  0  0  0  0  0  0  0  0  0
    3.6560   21.8670  -35.6930 C   0  0  0  0  0  0  0  0  0  0  0  0
    4.5340   22.8360  -36.1900 C   0  0  0  0  0  0  0  0  0  0  0  0
    4.0610   24.1060  -36.5230 C   0  0  0  0  0  0  0  0  0  0  0  0
    2.7060   24.4110  -36.3610 C   0  0  0  0  0  0  0  0  0  0  0  0
    1.8210   23.4460  -35.8680 C   0  0  0  0  0  0  0  0  0  0  0  0
    0.4700   23.7600  -35.7460 O   0  0  0  0  0  0  0  0  0  0  0  0
    0.1340   20.9030  -35.7460 C   0  0  0  0  0  0  0  0  0  0  0  0
   -0.7740   19.9480  -34.9630 C   0  0  0  0  0  0  0  0  0  0  0  0
   -2.9250   21.4780  -33.5290 C   0  0  0  0  0  0  0  0  0  0  0  0
   -4.0480   21.9520  -32.8460 C   0  0  0  0  0  0  0  0  0  0  0  0
   -6.7910   21.8000  -31.3200 C   0  0  0  0  0  0  0  0  0  0  0  0
   -7.8400   22.7310  -31.5390 C   0  0  0  0  0  0  0  0  0  0  0  0
   -7.6440   24.0960  -31.3590 O   0  0  0  0  0  0  0  0  0  0  0  0
   -9.0990   22.3000  -31.9540 C   0  0  0  0  0  0  0  0  0  0  0  0
   -9.3410   20.9550  -32.2050 C   0  0  0  0  0  0  0  0  0  0  0  0
   -8.3090   20.0190  -32.0900 C   0  0  0  0  0  0  0  0  0  0  0  0
   -8.5540   18.6740  -32.4090 C   0  0  0  0  0  0  0  0  0  0  0  0
   -7.5240   17.7380  -32.3490 C   0  0  0  0  0  0  0  0  0  0  0  0
   -6.2420   18.1330  -31.9810 C   0  0  0  0  0  0  0  0  0  0  0  0
   -5.9810   19.4660  -31.6510 C   0  0  0  0  0  0  0  0  0  0  0  0
   -7.0140   20.4330  -31.6720 C   0  0  0  0  0  0  0  0  0  0  0  0
   -3.3660   23.8950  -29.1730 C   0  0  0  0  0  0  0  0  0  0  0  0
   -3.7980   22.7250  -28.5170 C   0  0  0  0  0  0  0  0  0  0  0  0
   -3.0510   22.1780  -27.4700 C   0  0  0  0  0  0  0  0  0  0  0  0
   -1.8680   22.7890  -27.0570 C   0  0  0  0  0  0  0  0  0  0  0  0
   -1.4270   23.9510  -27.6900 C   0  0  0  0  0  0  0  0  0  0  0  0
   -2.1660   24.5100  -28.7400 C   0  0  0  0  0  0  0  0  0  0  0  0
   -1.6860   25.6690  -29.3400 O   0  0  0  0  0  0  0  0  0  0  0  0
   -5.4185   21.9144  -29.7355 H   0  0  0  0  0  0  0  0  0  0  0  0
   -3.4498   20.5559  -29.7806 H   0  0  0  0  0  0  0  0  0  0  0  0
   -1.4223   19.7594  -30.9855 H   0  0  0  0  0  0  0  0  0  0  0  0
    0.5343   21.4398  -32.3254 H   0  0  0  0  0  0  0  0  0  0  0  0
    0.6251   19.6439  -32.1101 H   0  0  0  0  0  0  0  0  0  0  0  0
    2.6001   20.8301  -33.3293 H   0  0  0  0  0  0  0  0  0  0  0  0
    1.9042   19.3483  -34.0726 H   0  0  0  0  0  0  0  0  0  0  0  0
    4.0340   20.8662  -35.4370 H   0  0  0  0  0  0  0  0  0  0  0  0
    5.5998   22.5963  -36.3186 H   0  0  0  0  0  0  0  0  0  0  0  0
    4.7536   24.8666  -36.9126 H   0  0  0  0  0  0  0  0  0  0  0  0
    2.3346   25.4130  -36.6220 H   0  0  0  0  0  0  0  0  0  0  0  0
   -0.3924   21.8576  -35.8934 H   0  0  0  0  0  0  0  0  0  0  0  0
    0.3750   20.4377  -36.7132 H   0  0  0  0  0  0  0  0  0  0  0  0
   -1.8017   20.0229  -35.3479 H   0  0  0  0  0  0  0  0  0  0  0  0
   -0.4083   18.9176  -35.0833 H   0  0  0  0  0  0  0  0  0  0  0  0
   -2.7886   21.7233  -34.5926 H   0  0  0  0  0  0  0  0  0  0  0  0
   -4.7916   22.5625  -33.3793 H   0  0  0  0  0  0  0  0  0  0  0  0
   -9.9094   23.0323  -32.0841 H   0  0  0  0  0  0  0  0  0  0  0  0
  -10.3493   20.6251  -32.4956 H   0  0  0  0  0  0  0  0  0  0  0  0
   -9.5643   18.3577  -32.7078 H   0  0  0  0  0  0  0  0  0  0  0  0
   -7.7249   16.6844  -32.5931 H   0  0  0  0  0  0  0  0  0  0  0  0
   -5.4293   17.3924  -31.9495 H   0  0  0  0  0  0  0  0  0  0  0  0
   -4.9605   19.7669  -31.3717 H   0  0  0  0  0  0  0  0  0  0  0  0
   -4.7323   22.2374  -28.8321 H   0  0  0  0  0  0  0  0  0  0  0  0
   -3.3979   21.2617  -26.9699 H   0  0  0  0  0  0  0  0  0  0  0  0
   -1.2829   22.3551  -26.2327 H   0  0  0  0  0  0  0  0  0  0  0  0
   -0.4931   24.4312  -27.3625 H   0  0  0  0  0  0  0  0  0  0  0  0
  1  2  2  0
  2  3  1  0
  3  4  1  0
  4  5  1  0
  5  6  2  0
  6  7  1  0
  7  8  2  0
  8  9  1  0
  9 10  1  0
 10 11  1  0
 11 12  1  0
 12 13  1  0
 13 14  2  0
 14 15  1  0
 15 16  2  0
 16 17  1  0
 17 18  2  0
 18 19  1  0
 12 20  1  0
 20 21  1  0
  8 22  1  0
 22 23  2  0
  4 24  1  0
 24 25  2  0
 25 26  1  0
 25 27  1  0
 27 28  2  0
 28 29  1  0
 29 30  2  0
 30 31  1  0
 31 32  2  0
 32 33  1  0
 33 34  2  0
  2 35  1  0
 35 36  2  0
 36 37  1  0
 37 38  2  0
 38 39  1  0
 39 40  2  0
 40 41  1  0
 23  5  1  0
 34 24  1  0
 40 35  1  0
 21  9  1  0
 34 29  1  0
 18 13  1  0
  4 42  1  1
  6 43  1  0
  7 44  1  0
 10 45  1  0
 10 46  1  0
 11 47  1  0
 11 48  1  0
 14 49  1  0
 15 50  1  0
 16 51  1  0
 17 52  1  0
 20 53  1  0
 20 54  1  0
 21 55  1  0
 21 56  1  0
 22 57  1  0
 23 58  1  0
 27 59  1  0
 28 60  1  0
 30 61  1  0
 31 62  1  0
 32 63  1  0
 33 64  1  0
 36 65  1  0
 37 66  1  0
 38 67  1  0
 39 68  1  0
M  CHG  4   3  -1  19  -1  26  -1  41  -1
M  END
>  <UniqueID>  (11) 
11

>  <SMILES>  (11) 
O=C([N-][C@H](c1ccc(N2CCN(c3ccccc3[O-])CC2)cc1)c1c([O-])ccc2ccccc12)c1ccccc1[O-]

>  <Energy>  (11) 
100.3287351565873

>  <Genealogy>  (11) 
O=C([N-]C(c1ccc(N2CCN(c3ccccc3[O-])CC2)cc1)c1c([O-])ccc2ccccc12)c1ccccc1[O-] (protonated)
O=C([N-][C@H](c1ccc(N2CCN(c3ccccc3[O-])CC2)cc1)c1c([O-])ccc2ccccc12)c1ccccc1[O-] (chirality)
O=C([N-][C@H](c1ccc(N2CCN(c3ccccc3[O-])CC2)cc1)c1c([O-])ccc2ccccc12)c1ccccc1[O-] (3D coordinates assigned)
O=C([N-][C@H](c1ccc(N2CCN(c3ccccc3[O-])CC2)cc1)c1c([O-])ccc2ccccc12)c1ccccc1[O-] (nonaromatic ring conformer: 100.3287351565873 kcal/mol)

>  <smiles>  (11) 
O=C(NC(c1ccc(N2CCN(c3ccccc3O)CC2)cc1)c1c(O)ccc2ccccc12)c1ccccc1O

>  <score_type>  (11) 
oracle

>  <origin>  (11) 
adgpu

>  <m_score__min__energy>  (11) 
-16.66

>  <m_primary>  (11) 
energy

$$$$
11:0
     RDKit          3D

 46 49  0  0  0  0  0  0  0  0999 V2000
   -6.3870   18.9720  -33.8910 C   0  0  0  0  0  0  0  0  0  0  0  0
   -7.0020   19.9130  -32.9590 N   0  0  0  0  0  0  0  0  0  0  0  0
   -8.3130   20.0180  -32.6320 C   0  0  0  0  0  0  0  0  0  0  0  0
   -9.2030   19.2340  -33.0620 O   0  0  0  0  0  0  0  0  0  0  0  0
   -8.5760   21.0700  -31.8160 N   0  0  0  0  0  0  0  0  0  0  0  0
   -9.8800   21.5460  -31.3630 C   0  0  0  0  0  0  0  0  0  0  0  0
   -7.3800   21.6730  -31.6620 C   0  0  0  0  0  0  0  0  0  0  0  0
   -7.0790   22.8570  -30.9890 C   0  0  0  0  0  0  0  0  0  0  0  0
   -5.7500   23.3270  -31.0430 C   0  0  0  0  0  0  0  0  0  0  0  0
   -5.3190   24.8680  -30.3060 S   0  0  0  0  0  0  0  0  0  0  0  0
   -6.5690   25.6780  -30.1120 O   0  0  0  0  0  0  0  0  0  0  0  0
   -4.3750   25.6380  -31.1880 O   0  0  0  0  0  0  0  0  0  0  0  0
   -4.5700   24.5830  -28.7670 N   0  0  0  0  0  0  0  0  0  0  0  0
   -3.3950   23.7670  -28.6220 C   0  0  0  0  0  0  0  0  0  0  0  0
   -3.4930   22.4280  -28.2020 C   0  0  0  0  0  0  0  0  0  0  0  0
   -2.3450   21.6490  -28.0100 C   0  0  0  0  0  0  0  0  0  0  0  0
   -1.0740   22.2130  -28.2380 C   0  0  0  0  0  0  0  0  0  0  0  0
   -0.9770   23.5310  -28.7070 C   0  0  0  0  0  0  0  0  0  0  0  0
   -2.1260   24.3060  -28.8920 C   0  0  0  0  0  0  0  0  0  0  0  0
   -1.9960   25.6180  -29.3310 O   0  0  0  0  0  0  0  0  0  0  0  0
    0.1780   21.3820  -28.0820 C   0  0  0  0  0  0  0  0  0  0  0  0
   -0.0260   20.2270  -27.1970 N   0  0  0  0  0  0  0  0  0  0  0  0
   -1.1920   19.4440  -27.6250 C   0  0  0  0  0  0  0  0  0  0  0  0
   -2.4850   20.2520  -27.4630 C   0  0  0  0  0  0  0  0  0  0  0  0
   -4.7690   22.6020  -31.7630 C   0  0  0  0  0  0  0  0  0  0  0  0
   -5.1040   21.4120  -32.4310 C   0  0  0  0  0  0  0  0  0  0  0  0
   -6.4260   20.9740  -32.3560 C   0  0  0  0  0  0  0  0  0  0  0  0
   -5.8705   18.1816  -33.3266 H   0  0  0  0  0  0  0  0  0  0  0  0
   -7.1655   18.5214  -34.5242 H   0  0  0  0  0  0  0  0  0  0  0  0
   -5.6618   19.5041  -34.5242 H   0  0  0  0  0  0  0  0  0  0  0  0
   -9.9052   21.5552  -30.2633 H   0  0  0  0  0  0  0  0  0  0  0  0
  -10.0506   22.5644  -31.7422 H   0  0  0  0  0  0  0  0  0  0  0  0
  -10.6665   20.8770  -31.7422 H   0  0  0  0  0  0  0  0  0  0  0  0
   -7.8533   23.4068  -30.4338 H   0  0  0  0  0  0  0  0  0  0  0  0
   -5.1110   24.8610  -27.9190 H   0  0  0  0  0  0  0  0  0  0  0  0
   -4.4845   21.9869  -28.0220 H   0  0  0  0  0  0  0  0  0  0  0  0
    0.0113   23.9588  -28.9312 H   0  0  0  0  0  0  0  0  0  0  0  0
    0.4868   21.0181  -29.0731 H   0  0  0  0  0  0  0  0  0  0  0  0
    0.9513   22.0202  -27.6295 H   0  0  0  0  0  0  0  0  0  0  0  0
   -0.1840   20.5710  -26.2190 H   0  0  0  0  0  0  0  0  0  0  0  0
   -1.0709   19.1670  -28.6826 H   0  0  0  0  0  0  0  0  0  0  0  0
   -1.2599   18.5437  -26.9966 H   0  0  0  0  0  0  0  0  0  0  0  0
   -3.2953   19.7386  -28.0013 H   0  0  0  0  0  0  0  0  0  0  0  0
   -2.7088   20.3267  -26.3886 H   0  0  0  0  0  0  0  0  0  0  0  0
   -3.7346   22.9743  -31.7996 H   0  0  0  0  0  0  0  0  0  0  0  0
   -4.3486   20.8447  -32.9944 H   0  0  0  0  0  0  0  0  0  0  0  0
  1  2  1  0
  2  3  1  0
  3  4  2  0
  3  5  1  0
  5  6  1  0
  5  7  1  0
  7  8  2  0
  8  9  1  0
  9 10  1  0
 10 11  2  0
 10 12  2  0
 10 13  1  0
 13 14  1  0
 14 15  2  0
 15 16  1  0
 16 17  2  0
 17 18  1  0
 18 19  2  0
 19 20  1  0
 17 21  1  0
 21 22  1  0
 22 23  1  0
 23 24  1  0
  9 25  2  0
 25 26  1  0
 26 27  2  0
 27  2  1  0
 27  7  1  0
 19 14  1  0
 24 16  1  0
  1 28  1  0
  1 29  1  0
  1 30  1  0
  6 31  1  0
  6 32  1  0
  6 33  1  0
  8 34  1  0
 13 35  1  0
 15 36  1  0
 18 37  1  0
 21 38  1  0
 21 39  1  0
 22 40  1  0
 23 41  1  0
 23 42  1  0
 24 43  1  0
 24 44  1  0
 25 45  1  0
 26 46  1  0
M  CHG  1  20  -1
M  END
>  <UniqueID>  (12) 
12

>  <SMILES>  (12) 
Cn1c(=O)n(C)c2cc(S(=O)(=O)Nc3cc4c(cc3[O-])CNCC4)ccc21

>  <Energy>  (12) 
94.28225355611737

>  <Genealogy>  (12) 
Cn1c(=O)n(C)c2cc(S(=O)(=O)Nc3cc4c(cc3[O-])CNCC4)ccc21 (protonated)
Cn1c(=O)n(C)c2cc(S(=O)(=O)Nc3cc4c(cc3[O-])CNCC4)ccc21 (3D coordinates assigned)
Cn1c(=O)n(C)c2cc(S(=O)(=O)Nc3cc4c(cc3[O-])CNCC4)ccc21 (nonaromatic ring conformer: 94.28225355611737 kcal/mol)

>  <smiles>  (12) 
Cn1c(=O)n(C)c2cc(S(=O)(=O)Nc3cc4c(cc3O)CNCC4)ccc21

>  <score_type>  (12) 
oracle

>  <origin>  (12) 
adgpu

>  <m_score__min__energy>  (12) 
-13.6

>  <m_primary>  (12) 
energy

$$$$
12:0
     RDKit          3D

 64 67  0  0  0  0  0  0  0  0999 V2000
   -0.1570   27.0440  -25.9470 C   0  0  0  0  0  0  0  0  0  0  0  0
    0.6880   25.8750  -25.6630 N   0  0  0  0  0  0  0  0  0  0  0  0
    0.2110   25.1380  -24.4640 C   0  0  0  0  0  0  0  0  0  0  0  0
   -0.5520   23.8560  -24.8310 C   0  0  0  0  0  0  0  0  0  0  0  0
    0.2990   22.9210  -25.6040 N   0  0  0  0  0  0  0  0  0  0  0  0
   -0.7080   21.8100  -26.5010 S   0  0  0  0  0  0  0  0  0  0  0  0
   -1.2440   20.7520  -25.5770 O   0  0  0  0  0  0  0  0  0  0  0  0
    0.0940   21.1390  -27.5820 O   0  0  0  0  0  0  0  0  0  0  0  0
   -2.0660   22.6810  -27.2130 C   0  0  0  0  0  0  0  0  0  0  0  0
   -3.2670   22.0060  -27.4620 C   0  0  0  0  0  0  0  0  0  0  0  0
   -4.3590   22.6910  -28.0010 C   0  0  0  0  0  0  0  0  0  0  0  0
   -4.2540   24.0540  -28.2980 C   0  0  0  0  0  0  0  0  0  0  0  0
   -5.6570   24.9190  -29.0080 S   0  0  0  0  0  0  0  0  0  0  0  0
   -6.1440   23.5000  -30.0040 C   0  0  0  0  0  0  0  0  0  0  0  0
   -7.4520   23.0250  -29.8250 C   0  0  0  0  0  0  0  0  0  0  0  0
   -7.8920   21.8770  -30.4790 C   0  0  0  0  0  0  0  0  0  0  0  0
   -7.0330   21.1890  -31.3350 C   0  0  0  0  0  0  0  0  0  0  0  0
   -7.5940   19.7200  -32.1260 S   0  0  0  0  0  0  0  0  0  0  0  0
   -8.6370   19.0410  -31.2820 O   0  0  0  0  0  0  0  0  0  0  0  0
   -8.2110   20.0930  -33.4450 O   0  0  0  0  0  0  0  0  0  0  0  0
   -6.2460   18.6410  -32.3840 N   0  0  0  0  0  0  0  0  0  0  0  0
   -6.6890   17.2220  -32.3920 C   0  0  0  0  0  0  0  0  0  0  0  0
   -6.8150   16.6390  -33.8050 C   0  0  0  0  0  0  0  0  0  0  0  0
   -5.4860   16.7310  -34.5780 C   0  0  0  0  0  0  0  0  0  0  0  0
   -4.6220   17.9240  -34.1320 C   0  0  0  0  0  0  0  0  0  0  0  0
   -5.4930   19.0600  -33.5890 C   0  0  0  0  0  0  0  0  0  0  0  0
   -5.7380   21.6760  -31.5620 C   0  0  0  0  0  0  0  0  0  0  0  0
   -5.2710   22.8400  -30.9160 C   0  0  0  0  0  0  0  0  0  0  0  0
   -3.9400   23.3250  -31.2210 N   0  0  0  0  0  0  0  0  0  0  0  0
   -3.1490   22.6110  -31.8770 O   0  0  0  0  0  0  0  0  0  0  0  0
   -3.5240   24.5900  -30.8730 O   0  0  0  0  0  0  0  0  0  0  0  0
   -3.0590   24.7350  -28.0390 C   0  0  0  0  0  0  0  0  0  0  0  0
   -1.9670   24.0510  -27.4990 C   0  0  0  0  0  0  0  0  0  0  0  0
    1.2690   23.6050  -26.5040 C   0  0  0  0  0  0  0  0  0  0  0  0
    0.8130   25.0260  -26.8700 C   0  0  0  0  0  0  0  0  0  0  0  0
   -0.4851   27.4979  -25.0003 H   0  0  0  0  0  0  0  0  0  0  0  0
    0.4188   27.7805  -26.5266 H   0  0  0  0  0  0  0  0  0  0  0  0
   -1.0370   26.7282  -26.5266 H   0  0  0  0  0  0  0  0  0  0  0  0
    1.0802   24.8675  -23.8464 H   0  0  0  0  0  0  0  0  0  0  0  0
   -0.4812   25.7963  -23.9185 H   0  0  0  0  0  0  0  0  0  0  0  0
   -0.8813   23.3588  -23.9067 H   0  0  0  0  0  0  0  0  0  0  0  0
   -1.4147   24.1338  -25.4544 H   0  0  0  0  0  0  0  0  0  0  0  0
    0.8470   22.3410  -24.9250 H   0  0  0  0  0  0  0  0  0  0  0  0
   -3.3512   20.9335  -27.2327 H   0  0  0  0  0  0  0  0  0  0  0  0
   -5.3021   22.1581  -28.1920 H   0  0  0  0  0  0  0  0  0  0  0  0
   -8.1394   23.5669  -29.1588 H   0  0  0  0  0  0  0  0  0  0  0  0
   -8.9177   21.5128  -30.3202 H   0  0  0  0  0  0  0  0  0  0  0  0
   -5.9567   16.6235  -31.8304 H   0  0  0  0  0  0  0  0  0  0  0  0
   -7.6879   17.1877  -31.9327 H   0  0  0  0  0  0  0  0  0  0  0  0
   -7.1117   15.5824  -33.7299 H   0  0  0  0  0  0  0  0  0  0  0  0
   -7.5712   17.2220  -34.3511 H   0  0  0  0  0  0  0  0  0  0  0  0
   -4.9178   15.8036  -34.4131 H   0  0  0  0  0  0  0  0  0  0  0  0
   -5.7288   16.8751  -35.6411 H   0  0  0  0  0  0  0  0  0  0  0  0
   -3.9306   17.5924  -33.3433 H   0  0  0  0  0  0  0  0  0  0  0  0
   -4.0631   18.2968  -35.0030 H   0  0  0  0  0  0  0  0  0  0  0  0
   -4.8474   19.9117  -33.3284 H   0  0  0  0  0  0  0  0  0  0  0  0
   -6.2177   19.3405  -34.3676 H   0  0  0  0  0  0  0  0  0  0  0  0
   -5.0739   21.1407  -32.2566 H   0  0  0  0  0  0  0  0  0  0  0  0
   -2.9795   25.8095  -28.2608 H   0  0  0  0  0  0  0  0  0  0  0  0
   -1.0280   24.5875  -27.2977 H   0  0  0  0  0  0  0  0  0  0  0  0
    2.2431   23.6645  -25.9964 H   0  0  0  0  0  0  0  0  0  0  0  0
    1.3392   23.0212  -27.4336 H   0  0  0  0  0  0  0  0  0  0  0  0
    1.5511   25.4758  -27.5504 H   0  0  0  0  0  0  0  0  0  0  0  0
   -0.1723   24.9620  -27.3548 H   0  0  0  0  0  0  0  0  0  0  0  0
  1  2  1  0
  2  3  1  0
  3  4  1  0
  4  5  1  0
  5  6  1  0
  6  7  2  0
  6  8  2  0
  6  9  1  0
  9 10  2  0
 10 11  1  0
 11 12  2  0
 12 13  1  0
 13 14  1  0
 14 15  2  0
 15 16  1  0
 16 17  2  0
 17 18  1  0
 18 19  2  0
 18 20  2  0
 18 21  1  0
 21 22  1  0
 22 23  1  0
 23 24  1  0
 24 25  1  0
 25 26  1  0
 17 27  1  0
 27 28  2  0
 28 29  1  0
 29 30  2  0
 29 31  1  0
 12 32  1  0
 32 33  2  0
  5 34  1  0
 34 35  1  0
 35  2  1  0
 33  9  1  0
 28 14  1  0
 26 21  1  0
  1 36  1  0
  1 37  1  0
  1 38  1  0
  3 39  1  0
  3 40  1  0
  4 41  1  0
  4 42  1  0
  5 43  1  0
 10 44  1  0
 11 45  1  0
 15 46  1  0
 16 47  1  0
 22 48  1  0
 22 49  1  0
 23 50  1  0
 23 51  1  0
 24 52  1  0
 24 53  1  0
 25 54  1  0
 25 55  1  0
 26 56  1  0
 26 57  1  0
 27 58  1  0
 32 59  1  0
 33 60  1  0
 34 61  1  0
 34 62  1  0
 35 63  1  0
 35 64  1  0
M  CHG  3   5   1  29   1  31  -1
M  END
>  <UniqueID>  (13) 
13

>  <SMILES>  (13) 
CN1CC[NH+](S(=O)(=O)c2ccc(Sc3ccc(S(=O)(=O)N4CCCCC4)cc3[N+](=O)[O-])cc2)CC1

>  <Energy>  (13) 
82.54059816802639

>  <Genealogy>  (13) 
CN1CC[NH+](S(=O)(=O)c2ccc(Sc3ccc(S(=O)(=O)N4CCCCC4)cc3[N+](=O)[O-])cc2)CC1 (protonated)
CN1CC[NH+](S(=O)(=O)c2ccc(Sc3ccc(S(=O)(=O)N4CCCCC4)cc3[N+](=O)[O-])cc2)CC1 (3D coordinates assigned)
CN1CC[NH+](S(=O)(=O)c2ccc(Sc3ccc(S(=O)(=O)N4CCCCC4)cc3[N+](=O)[O-])cc2)CC1 (nonaromatic ring conformer: 82.54059816802639 kcal/mol)

>  <smiles>  (13) 
CN1CCN(S(=O)(=O)c2ccc(Sc3ccc(S(=O)(=O)N4CCCCC4)cc3[N+](=O)[O-])cc2)CC1

>  <score_type>  (13) 
oracle

>  <origin>  (13) 
adgpu

>  <m_score__min__energy>  (13) 
-10.609999999999999

>  <m_primary>  (13) 
energy

$$$$
13:0
     RDKit          3D

 53 56  0  0  0  0  0  0  0  0999 V2000
   -0.8300   19.9330  -26.7220 C   0  0  0  0  0  0  0  0  0  0  0  0
   -0.0160   20.2140  -27.9190 N   0  0  0  0  0  0  0  0  0  0  0  0
   -0.6320   19.7050  -29.1600 C   0  0  0  0  0  0  0  0  0  0  0  0
   -1.9590   20.4130  -29.4840 C   0  0  0  0  0  0  0  0  0  0  0  0
   -1.8500   21.9100  -29.3370 C   0  0  0  0  0  0  0  0  0  0  0  0
   -2.8510   22.7270  -29.8900 C   0  0  0  0  0  0  0  0  0  0  0  0
   -2.7610   24.1270  -29.7990 C   0  0  0  0  0  0  0  0  0  0  0  0
   -3.6940   24.9990  -30.4570 N   0  0  0  0  0  0  0  0  0  0  0  0
   -5.3920   24.7170  -30.6710 S   0  0  0  0  0  0  0  0  0  0  0  0
   -5.9500   25.7980  -31.5630 O   0  0  0  0  0  0  0  0  0  0  0  0
   -6.0810   24.7830  -29.3350 O   0  0  0  0  0  0  0  0  0  0  0  0
   -5.6920   23.1630  -31.4480 C   0  0  0  0  0  0  0  0  0  0  0  0
   -6.8720   22.4580  -31.1650 C   0  0  0  0  0  0  0  0  0  0  0  0
   -7.1190   21.2280  -31.7820 C   0  0  0  0  0  0  0  0  0  0  0  0
   -6.1960   20.6980  -32.6970 C   0  0  0  0  0  0  0  0  0  0  0  0
   -6.4930   19.1280  -33.4540 S   0  0  0  0  0  0  0  0  0  0  0  0
   -6.4550   19.2950  -34.9500 O   0  0  0  0  0  0  0  0  0  0  0  0
   -7.8690   18.6500  -33.0760 O   0  0  0  0  0  0  0  0  0  0  0  0
   -5.3240   17.9160  -32.9880 N   0  0  0  0  0  0  0  0  0  0  0  0
   -5.8510   17.0110  -31.9700 C   0  0  0  0  0  0  0  0  0  0  0  0
   -5.0200   15.7490  -32.0700 C   0  0  0  0  0  0  0  0  0  0  0  0
   -4.5640   15.7010  -33.5200 C   0  0  0  0  0  0  0  0  0  0  0  0
   -4.9260   17.0610  -34.1070 C   0  0  0  0  0  0  0  0  0  0  0  0
   -5.0130   21.4030  -32.9740 C   0  0  0  0  0  0  0  0  0  0  0  0
   -4.7630   22.6300  -32.3530 C   0  0  0  0  0  0  0  0  0  0  0  0
   -1.7040   24.7010  -29.0810 C   0  0  0  0  0  0  0  0  0  0  0  0
   -1.6110   26.0850  -28.9630 O   0  0  0  0  0  0  0  0  0  0  0  0
   -0.7300   23.8930  -28.4900 C   0  0  0  0  0  0  0  0  0  0  0  0
   -0.7940   22.4950  -28.6060 C   0  0  0  0  0  0  0  0  0  0  0  0
    0.3280   21.6500  -28.0330 C   0  0  0  0  0  0  0  0  0  0  0  0
   -0.2366   20.1378  -25.8187 H   0  0  0  0  0  0  0  0  0  0  0  0
   -1.7234   20.5748  -26.7272 H   0  0  0  0  0  0  0  0  0  0  0  0
   -1.1372   18.8768  -26.7272 H   0  0  0  0  0  0  0  0  0  0  0  0
    0.0674   19.8648  -29.9938 H   0  0  0  0  0  0  0  0  0  0  0  0
   -0.8465   18.6358  -29.0161 H   0  0  0  0  0  0  0  0  0  0  0  0
   -2.2437   20.1775  -30.5201 H   0  0  0  0  0  0  0  0  0  0  0  0
   -2.7179   20.0556  -28.7724 H   0  0  0  0  0  0  0  0  0  0  0  0
   -3.7116   22.2674  -30.3980 H   0  0  0  0  0  0  0  0  0  0  0  0
   -7.6037   22.8738  -30.4567 H   0  0  0  0  0  0  0  0  0  0  0  0
   -8.0401   20.6735  -31.5495 H   0  0  0  0  0  0  0  0  0  0  0  0
   -5.7495   17.4583  -30.9702 H   0  0  0  0  0  0  0  0  0  0  0  0
   -6.9203   16.8051  -32.1257 H   0  0  0  0  0  0  0  0  0  0  0  0
   -4.1547   15.7996  -31.3927 H   0  0  0  0  0  0  0  0  0  0  0  0
   -5.5887   14.8523  -31.7826 H   0  0  0  0  0  0  0  0  0  0  0  0
   -3.4780   15.5350  -33.5760 H   0  0  0  0  0  0  0  0  0  0  0  0
   -5.0432   14.8784  -34.0711 H   0  0  0  0  0  0  0  0  0  0  0  0
   -4.0561   17.4938  -34.6227 H   0  0  0  0  0  0  0  0  0  0  0  0
   -5.7406   16.9685  -34.8403 H   0  0  0  0  0  0  0  0  0  0  0  0
   -4.2807   20.9879  -33.6822 H   0  0  0  0  0  0  0  0  0  0  0  0
   -3.8357   23.1786  -32.5747 H   0  0  0  0  0  0  0  0  0  0  0  0
    0.0948   24.3560  -27.9285 H   0  0  0  0  0  0  0  0  0  0  0  0
    1.2067   21.7471  -28.6875 H   0  0  0  0  0  0  0  0  0  0  0  0
    0.5246   22.0184  -27.0154 H   0  0  0  0  0  0  0  0  0  0  0  0
  1  2  1  0
  2  3  1  0
  3  4  1  0
  4  5  1  0
  5  6  2  0
  6  7  1  0
  7  8  1  0
  8  9  1  0
  9 10  2  0
  9 11  2  0
  9 12  1  0
 12 13  2  0
 13 14  1  0
 14 15  2  0
 15 16  1  0
 16 17  2  0
 16 18  2  0
 16 19  1  0
 19 20  1  0
 20 21  1  0
 21 22  1  0
 22 23  1  0
 15 24  1  0
 24 25  2  0
  7 26  2  0
 26 27  1  0
 26 28  1  0
 28 29  2  0
 29 30  1  0
 30  2  1  0
 29  5  1  0
 25 12  1  0
 23 19  1  0
  1 31  1  0
  1 32  1  0
  1 33  1  0
  3 34  1  0
  3 35  1  0
  4 36  1  0
  4 37  1  0
  6 38  1  0
 13 39  1  0
 14 40  1  0
 20 41  1  0
 20 42  1  0
 21 43  1  0
 21 44  1  0
 22 45  1  0
 22 46  1  0
 23 47  1  0
 23 48  1  0
 24 49  1  0
 25 50  1  0
 28 51  1  0
 30 52  1  0
 30 53  1  0
M  CHG  2   8  -1  27  -1
M  END
>  <UniqueID>  (14) 
14

>  <SMILES>  (14) 
CN1CCc2cc([N-]S(=O)(=O)c3ccc(S(=O)(=O)N4CCCC4)cc3)c([O-])cc2C1

>  <Energy>  (14) 
63.50920768885362

>  <Genealogy>  (14) 
CN1CCc2cc([N-]S(=O)(=O)c3ccc(S(=O)(=O)N4CCCC4)cc3)c([O-])cc2C1 (protonated)
CN1CCc2cc([N-]S(=O)(=O)c3ccc(S(=O)(=O)N4CCCC4)cc3)c([O-])cc2C1 (3D coordinates assigned)
CN1CCc2cc([N-]S(=O)(=O)c3ccc(S(=O)(=O)N4CCCC4)cc3)c([O-])cc2C1 (nonaromatic ring conformer: 63.50920768885362 kcal/mol)

>  <smiles>  (14) 
CN1CCc2cc(NS(=O)(=O)c3ccc(S(=O)(=O)N4CCCC4)cc3)c(O)cc2C1

>  <score_type>  (14) 
oracle

>  <origin>  (14) 
adgpu

>  <m_score__min__energy>  (14) 
-15.289999999999999

>  <m_primary>  (14) 
energy

$$$$
14:0
     RDKit          3D

 62 66  0  0  0  0  0  0  0  0999 V2000
   -6.0980   17.8860  -34.5610 C   0  0  0  0  0  0  0  0  0  0  0  0
   -5.2910   16.6090  -34.3260 C   0  0  0  0  0  0  0  0  0  0  0  0
   -3.9910   16.6840  -34.9900 N   0  0  0  0  0  0  0  0  0  0  0  0
   -2.9850   17.4020  -34.5910 C   0  0  0  0  0  0  0  0  0  0  0  0
   -3.0790   18.1860  -33.4820 N   0  0  0  0  0  0  0  0  0  0  0  0
   -2.0200   18.9170  -33.0460 C   0  0  0  0  0  0  0  0  0  0  0  0
   -2.1290   19.6970  -31.8890 C   0  0  0  0  0  0  0  0  0  0  0  0
   -1.0140   20.4060  -31.4060 C   0  0  0  0  0  0  0  0  0  0  0  0
   -1.1060   21.1770  -30.1460 C   0  0  0  0  0  0  0  0  0  0  0  0
   -0.5050   20.7030  -28.9710 C   0  0  0  0  0  0  0  0  0  0  0  0
   -0.5780   21.4480  -27.7910 C   0  0  0  0  0  0  0  0  0  0  0  0
   -1.2330   22.6950  -27.7700 C   0  0  0  0  0  0  0  0  0  0  0  0
   -1.2790   23.4860  -26.6120 O   0  0  0  0  0  0  0  0  0  0  0  0
   -0.4170   23.3350  -25.4900 C   0  0  0  0  0  0  0  0  0  0  0  0
   -1.8460   23.1680  -28.9450 C   0  0  0  0  0  0  0  0  0  0  0  0
   -2.6370   24.7450  -28.9820 S   0  0  0  0  0  0  0  0  0  0  0  0
   -1.5710   25.8050  -28.9290 O   0  0  0  0  0  0  0  0  0  0  0  0
   -3.5660   24.8880  -27.8060 O   0  0  0  0  0  0  0  0  0  0  0  0
   -3.5620   24.9020  -30.4460 N   0  0  0  0  0  0  0  0  0  0  0  0
   -4.7600   24.1680  -30.7490 C   0  0  0  0  0  0  0  0  0  0  0  0
   -4.7470   23.0510  -31.6040 C   0  0  0  0  0  0  0  0  0  0  0  0
   -5.9230   22.3240  -31.8490 C   0  0  0  0  0  0  0  0  0  0  0  0
   -7.1300   22.7360  -31.2740 C   0  0  0  0  0  0  0  0  0  0  0  0
   -7.1570   23.8740  -30.4550 C   0  0  0  0  0  0  0  0  0  0  0  0
   -5.9780   24.5850  -30.1840 C   0  0  0  0  0  0  0  0  0  0  0  0
   -6.0370   25.7010  -29.3430 O   0  0  0  0  0  0  0  0  0  0  0  0
   -8.3790   21.9540  -31.5810 C   0  0  0  0  0  0  0  0  0  0  0  0
   -8.0810   20.4500  -31.4980 C   0  0  0  0  0  0  0  0  0  0  0  0
   -6.8500   20.0120  -32.3300 C   0  0  0  0  0  0  0  0  0  0  0  0
   -5.9290   21.1590  -32.8030 C   0  0  0  0  0  0  0  0  0  0  0  0
   -1.7810   22.4080  -30.1220 C   0  0  0  0  0  0  0  0  0  0  0  0
    0.2000   20.3450  -32.1120 C   0  0  0  0  0  0  0  0  0  0  0  0
    0.3050   19.5890  -33.2830 C   0  0  0  0  0  0  0  0  0  0  0  0
   -0.8010   18.8670  -33.7490 C   0  0  0  0  0  0  0  0  0  0  0  0
   -0.7330   18.0730  -34.8960 C   0  0  0  0  0  0  0  0  0  0  0  0
   -1.8190   17.3580  -35.2890 N   0  0  0  0  0  0  0  0  0  0  0  0
   -6.3767   18.3270  -33.5926 H   0  0  0  0  0  0  0  0  0  0  0  0
   -5.4897   18.6047  -35.1297 H   0  0  0  0  0  0  0  0  0  0  0  0
   -7.0082   17.6451  -35.1297 H   0  0  0  0  0  0  0  0  0  0  0  0
   -5.1362   16.4745  -33.2453 H   0  0  0  0  0  0  0  0  0  0  0  0
   -5.8500   15.7582  -34.7428 H   0  0  0  0  0  0  0  0  0  0  0  0
   -3.0893   19.7558  -31.3558 H   0  0  0  0  0  0  0  0  0  0  0  0
    0.0265   19.7400  -28.9782 H   0  0  0  0  0  0  0  0  0  0  0  0
   -0.1200   21.0573  -26.8704 H   0  0  0  0  0  0  0  0  0  0  0  0
   -1.0004   23.4372  -24.5631 H   0  0  0  0  0  0  0  0  0  0  0  0
    0.0529   22.3409  -25.5198 H   0  0  0  0  0  0  0  0  0  0  0  0
    0.3628   24.1102  -25.5198 H   0  0  0  0  0  0  0  0  0  0  0  0
   -3.8066   22.7442  -32.0852 H   0  0  0  0  0  0  0  0  0  0  0  0
   -8.1099   24.2119  -30.0216 H   0  0  0  0  0  0  0  0  0  0  0  0
   -5.3560   25.8800  -28.6170 H   0  0  0  0  0  0  0  0  0  0  0  0
   -9.1609   22.2127  -30.8518 H   0  0  0  0  0  0  0  0  0  0  0  0
   -8.7239   22.2017  -32.5957 H   0  0  0  0  0  0  0  0  0  0  0  0
   -7.8988   20.1897  -30.4449 H   0  0  0  0  0  0  0  0  0  0  0  0
   -8.9537   19.9260  -31.9150 H   0  0  0  0  0  0  0  0  0  0  0  0
   -6.2497   19.3268  -31.7134 H   0  0  0  0  0  0  0  0  0  0  0  0
   -7.2505   19.5479  -33.2434 H   0  0  0  0  0  0  0  0  0  0  0  0
   -4.9031   20.7728  -32.8947 H   0  0  0  0  0  0  0  0  0  0  0  0
   -6.3130   21.5196  -33.7687 H   0  0  0  0  0  0  0  0  0  0  0  0
   -2.2645   22.7807  -31.0371 H   0  0  0  0  0  0  0  0  0  0  0  0
    1.0754   20.8973  -31.7395 H   0  0  0  0  0  0  0  0  0  0  0  0
    1.2546   19.5612  -33.8376 H   0  0  0  0  0  0  0  0  0  0  0  0
    0.1981   18.0268  -35.4799 H   0  0  0  0  0  0  0  0  0  0  0  0
  1  2  1  0
  2  3  1  0
  3  4  2  3
  4  5  1  0
  5  6  2  0
  6  7  1  0
  7  8  2  0
  8  9  1  0
  9 10  2  0
 10 11  1  0
 11 12  2  0
 12 13  1  0
 13 14  1  0
 12 15  1  0
 15 16  1  0
 16 17  2  0
 16 18  2  0
 16 19  1  0
 19 20  1  0
 20 21  2  0
 21 22  1  0
 22 23  2  0
 23 24  1  0
 24 25  2  0
 25 26  1  0
 23 27  1  0
 27 28  1  0
 28 29  1  0
 29 30  1  0
 15 31  2  0
  8 32  1  0
 32 33  2  0
 33 34  1  0
 34 35  2  0
 35 36  1  0
 36  4  1  0
 34  6  1  0
 31  9  1  0
 25 20  1  0
 30 22  1  0
  1 37  1  0
  1 38  1  0
  1 39  1  0
  2 40  1  0
  2 41  1  0
  7 42  1  0
 10 43  1  0
 11 44  1  0
 14 45  1  0
 14 46  1  0
 14 47  1  0
 21 48  1  0
 24 49  1  0
 26 50  1  0
 27 51  1  0
 27 52  1  0
 28 53  1  0
 28 54  1  0
 29 55  1  0
 29 56  1  0
 30 57  1  0
 30 58  1  0
 31 59  1  0
 32 60  1  0
 33 61  1  0
 35 62  1  0
M  CHG  2  19  -1  36  -1
M  END
>  <UniqueID>  (15) 
15

>  <SMILES>  (15) 
CCN=c1nc2cc(-c3ccc(OC)c(S(=O)(=O)[N-]c4cc5c(cc4O)CCCC5)c3)ccc2c[n-]1

>  <Energy>  (15) 
83.03457692505415

>  <Genealogy>  (15) 
CCN=c1nc2cc(-c3ccc(OC)c(S(=O)(=O)[N-]c4cc5c(cc4O)CCCC5)c3)ccc2c[n-]1 (protonated)
CCN=c1nc2cc(-c3ccc(OC)c(S(=O)(=O)[N-]c4cc5c(cc4O)CCCC5)c3)ccc2c[n-]1 (3D coordinates assigned)
CCN=c1nc2cc(-c3ccc(OC)c(S(=O)(=O)[N-]c4cc5c(cc4O)CCCC5)c3)ccc2c[n-]1 (nonaromatic ring conformer: 83.03457692505415 kcal/mol)

>  <smiles>  (15) 
CCN=c1nc2cc(-c3ccc(OC)c(S(=O)(=O)Nc4cc5c(cc4O)CCCC5)c3)ccc2c[nH]1

>  <score_type>  (15) 
oracle

>  <origin>  (15) 
adgpu

>  <m_score__min__energy>  (15) 
-13.76

>  <m_primary>  (15) 
energy

$$$$
15:0
     RDKit          3D

 77 82  0  0  0  0  0  0  0  0999 V2000
   -1.2870   20.8330  -25.7340 C   0  0  0  0  0  0  0  0  0  0  0  0
   -0.5720   20.4620  -26.9680 N   0  0  0  0  0  0  0  0  0  0  0  0
   -1.4240   19.7200  -27.9190 C   0  0  0  0  0  0  0  0  0  0  0  0
   -2.5810   20.5730  -28.4690 C   0  0  0  0  0  0  0  0  0  0  0  0
   -2.1560   21.9790  -28.8070 C   0  0  0  0  0  0  0  0  0  0  0  0
   -3.0380   22.8080  -29.5180 C   0  0  0  0  0  0  0  0  0  0  0  0
   -2.7190   24.1500  -29.7560 C   0  0  0  0  0  0  0  0  0  0  0  0
   -3.6180   24.9640  -30.5120 N   0  0  0  0  0  0  0  0  0  0  0  0
   -5.3360   24.7730  -30.3870 S   0  0  0  0  0  0  0  0  0  0  0  0
   -6.0050   26.0340  -30.8550 O   0  0  0  0  0  0  0  0  0  0  0  0
   -5.7150   24.5370  -28.9520 O   0  0  0  0  0  0  0  0  0  0  0  0
   -5.8610   23.4200  -31.3840 C   0  0  0  0  0  0  0  0  0  0  0  0
   -7.2080   23.0450  -31.3850 C   0  0  0  0  0  0  0  0  0  0  0  0
   -7.6040   21.8450  -31.9890 C   0  0  0  0  0  0  0  0  0  0  0  0
   -6.6560   21.0220  -32.6250 C   0  0  0  0  0  0  0  0  0  0  0  0
   -5.2990   21.4280  -32.6670 C   0  0  0  0  0  0  0  0  0  0  0  0
   -4.2630   20.6210  -33.3390 C   0  0  0  0  0  0  0  0  0  0  0  0
   -4.5770   19.5090  -33.8370 O   0  0  0  0  0  0  0  0  0  0  0  0
   -2.8990   21.0530  -33.4010 N   0  0  0  0  0  0  0  0  0  0  0  0
   -1.7830   20.4050  -32.7770 C   0  0  0  0  0  0  0  0  0  0  0  0
   -1.5960   19.0150  -32.8670 C   0  0  0  0  0  0  0  0  0  0  0  0
   -0.5670   18.3920  -32.1550 C   0  0  0  0  0  0  0  0  0  0  0  0
    0.2830   19.1480  -31.3340 C   0  0  0  0  0  0  0  0  0  0  0  0
    1.5030   18.3490  -30.3340 S   0  0  0  0  0  0  0  0  0  0  0  0
    1.4730   16.8820  -30.6550 O   0  0  0  0  0  0  0  0  0  0  0  0
    2.8580   18.8680  -30.7290 O   0  0  0  0  0  0  0  0  0  0  0  0
    1.2580   18.5340  -28.6040 N   0  0  0  0  0  0  0  0  0  0  0  0
    2.4380   19.0690  -27.8980 C   0  0  0  0  0  0  0  0  0  0  0  0
    3.4130   17.9610  -27.4590 C   0  0  0  0  0  0  0  0  0  0  0  0
    2.7400   16.9480  -26.7390 O   0  0  0  0  0  0  0  0  0  0  0  0
    1.7860   16.3340  -27.5790 C   0  0  0  0  0  0  0  0  0  0  0  0
    0.6960   17.3380  -27.9500 C   0  0  0  0  0  0  0  0  0  0  0  0
    0.0980   20.5350  -31.2460 C   0  0  0  0  0  0  0  0  0  0  0  0
   -0.9290   21.1570  -31.9600 C   0  0  0  0  0  0  0  0  0  0  0  0
   -4.9190   22.6300  -32.0530 C   0  0  0  0  0  0  0  0  0  0  0  0
   -7.1710   19.7700  -33.3000 C   0  0  0  0  0  0  0  0  0  0  0  0
   -8.1450   19.0080  -32.3820 C   0  0  0  0  0  0  0  0  0  0  0  0
   -9.1280   19.9110  -31.5910 C   0  0  0  0  0  0  0  0  0  0  0  0
   -9.0420   21.4010  -31.9600 C   0  0  0  0  0  0  0  0  0  0  0  0
   -1.5280   24.6810  -29.2320 C   0  0  0  0  0  0  0  0  0  0  0  0
   -1.2490   26.0370  -29.3390 O   0  0  0  0  0  0  0  0  0  0  0  0
   -0.6200   23.8470  -28.5790 C   0  0  0  0  0  0  0  0  0  0  0  0
   -0.9380   22.5050  -28.3310 C   0  0  0  0  0  0  0  0  0  0  0  0
    0.0600   21.6280  -27.6150 C   0  0  0  0  0  0  0  0  0  0  0  0
   -0.6941   20.5253  -24.8601 H   0  0  0  0  0  0  0  0  0  0  0  0
   -1.4367   21.9225  -25.7104 H   0  0  0  0  0  0  0  0  0  0  0  0
   -2.2640   20.3281  -25.7104 H   0  0  0  0  0  0  0  0  0  0  0  0
   -0.8017   19.3852  -28.7620 H   0  0  0  0  0  0  0  0  0  0  0  0
   -1.8654   18.8705  -27.3773 H   0  0  0  0  0  0  0  0  0  0  0  0
   -2.9696   20.0940  -29.3798 H   0  0  0  0  0  0  0  0  0  0  0  0
   -3.3493   20.6372  -27.6844 H   0  0  0  0  0  0  0  0  0  0  0  0
   -3.9885   22.3993  -29.8915 H   0  0  0  0  0  0  0  0  0  0  0  0
   -7.9585   23.6941  -30.9102 H   0  0  0  0  0  0  0  0  0  0  0  0
   -2.2635   18.4136  -33.5016 H   0  0  0  0  0  0  0  0  0  0  0  0
   -0.4232   17.3047  -32.2388 H   0  0  0  0  0  0  0  0  0  0  0  0
    2.9682   19.7600  -28.5699 H   0  0  0  0  0  0  0  0  0  0  0  0
    2.0824   19.5807  -26.9915 H   0  0  0  0  0  0  0  0  0  0  0  0
    3.8793   17.5183  -28.3515 H   0  0  0  0  0  0  0  0  0  0  0  0
    4.1769   18.4064  -26.8048 H   0  0  0  0  0  0  0  0  0  0  0  0
    2.2814   15.9787  -28.4946 H   0  0  0  0  0  0  0  0  0  0  0  0
    1.3304   15.4847  -27.0488 H   0  0  0  0  0  0  0  0  0  0  0  0
   -0.0141   16.8557  -28.6379 H   0  0  0  0  0  0  0  0  0  0  0  0
    0.1931   17.6566  -27.0250 H   0  0  0  0  0  0  0  0  0  0  0  0
    0.7652   21.1367  -30.6113 H   0  0  0  0  0  0  0  0  0  0  0  0
   -1.0681   22.2452  -31.8801 H   0  0  0  0  0  0  0  0  0  0  0  0
   -3.8692   22.9556  -32.0976 H   0  0  0  0  0  0  0  0  0  0  0  0
   -7.6944   20.0501  -34.2261 H   0  0  0  0  0  0  0  0  0  0  0  0
   -6.3156   19.1154  -33.5232 H   0  0  0  0  0  0  0  0  0  0  0  0
   -8.7362   18.3204  -33.0046 H   0  0  0  0  0  0  0  0  0  0  0  0
   -7.5271   18.4899  -31.6338 H   0  0  0  0  0  0  0  0  0  0  0  0
  -10.1528   19.5639  -31.7895 H   0  0  0  0  0  0  0  0  0  0  0  0
   -8.8517   19.8292  -30.5294 H   0  0  0  0  0  0  0  0  0  0  0  0
   -9.4908   21.5565  -32.9522 H   0  0  0  0  0  0  0  0  0  0  0  0
   -9.5854   21.9902  -31.2067 H   0  0  0  0  0  0  0  0  0  0  0  0
    0.3530   24.2460  -28.2563 H   0  0  0  0  0  0  0  0  0  0  0  0
    0.8002   21.2680  -28.3447 H   0  0  0  0  0  0  0  0  0  0  0  0
    0.5301   22.2332  -26.8259 H   0  0  0  0  0  0  0  0  0  0  0  0
  1  2  1  0
  2  3  1  0
  3  4  1  0
  4  5  1  0
  5  6  2  0
  6  7  1  0
  7  8  1  0
  8  9  1  0
  9 10  2  0
  9 11  2  0
  9 12  1  0
 12 13  2  0
 13 14  1  0
 14 15  2  0
 15 16  1  0
 16 17  1  0
 17 18  2  0
 17 19  1  0
 19 20  1  0
 20 21  2  0
 21 22  1  0
 22 23  2  0
 23 24  1  0
 24 25  2  0
 24 26  2  0
 24 27  1  0
 27 28  1  0
 28 29  1  0
 29 30  1  0
 30 31  1  0
 31 32  1  0
 23 33  1  0
 33 34  2  0
 16 35  2  0
 15 36  1  0
 36 37  1  0
 37 38  1  0
 38 39  1  0
  7 40  2  0
 40 41  1  0
 40 42  1  0
 42 43  2  0
 43 44  1  0
 44  2  1  0
 43  5  1  0
 35 12  1  0
 39 14  1  0
 34 20  1  0
 32 27  1  0
  1 45  1  0
  1 46  1  0
  1 47  1  0
  3 48  1  0
  3 49  1  0
  4 50  1  0
  4 51  1  0
  6 52  1  0
 13 53  1  0
 21 54  1  0
 22 55  1  0
 28 56  1  0
 28 57  1  0
 29 58  1  0
 29 59  1  0
 31 60  1  0
 31 61  1  0
 32 62  1  0
 32 63  1  0
 33 64  1  0
 34 65  1  0
 35 66  1  0
 36 67  1  0
 36 68  1  0
 37 69  1  0
 37 70  1  0
 38 71  1  0
 38 72  1  0
 39 73  1  0
 39 74  1  0
 42 75  1  0
 44 76  1  0
 44 77  1  0
M  CHG  3   8  -1  19  -1  41  -1
M  END
>  <UniqueID>  (16) 
16

>  <SMILES>  (16) 
CN1CCc2cc([N-]S(=O)(=O)c3cc4c(c(C(=O)[N-]c5ccc(S(=O)(=O)N6CCOCC6)cc5)c3)CCCC4)c([O-])cc2C1

>  <Energy>  (16) 
115.77378998528465

>  <Genealogy>  (16) 
CN1CCc2cc([N-]S(=O)(=O)c3cc4c(c(C(=O)[N-]c5ccc(S(=O)(=O)N6CCOCC6)cc5)c3)CCCC4)c([O-])cc2C1 (protonated)
CN1CCc2cc([N-]S(=O)(=O)c3cc4c(c(C(=O)[N-]c5ccc(S(=O)(=O)N6CCOCC6)cc5)c3)CCCC4)c([O-])cc2C1 (3D coordinates assigned)
CN1CCc2cc([N-]S(=O)(=O)c3cc4c(c(C(=O)[N-]c5ccc(S(=O)(=O)N6CCOCC6)cc5)c3)CCCC4)c([O-])cc2C1 (nonaromatic ring conformer: 115.77378998528465 kcal/mol)

>  <smiles>  (16) 
CN1CCc2cc(NS(=O)(=O)c3cc4c(c(C(=O)Nc5ccc(S(=O)(=O)N6CCOCC6)cc5)c3)CCCC4)c(O)cc2C1

>  <score_type>  (16) 
oracle

>  <origin>  (16) 
adgpu

>  <m_score__min__energy>  (16) 
-17.120000000000001

>  <m_primary>  (16) 
energy

$$$$
16:0
     RDKit          3D

 73 77  0  0  0  0  0  0  0  0999 V2000
    2.6420   21.9560  -35.0610 C   0  0  0  0  0  0  0  0  0  0  0  0
    1.3520   21.9350  -34.3560 N   0  0  0  0  0  0  0  0  0  0  0  0
    1.3160   20.8060  -33.3990 C   0  0  0  0  0  0  0  0  0  0  0  0
   -0.0800   20.6310  -32.7950 C   0  0  0  0  0  0  0  0  0  0  0  0
   -1.0850   20.5080  -33.8530 N   0  0  0  0  0  0  0  0  0  0  0  0
   -2.4410   20.1750  -33.5220 C   0  0  0  0  0  0  0  0  0  0  0  0
   -3.0390   19.0530  -34.1100 C   0  0  0  0  0  0  0  0  0  0  0  0
   -4.3590   18.7170  -33.8070 C   0  0  0  0  0  0  0  0  0  0  0  0
   -5.0980   19.5030  -32.9160 C   0  0  0  0  0  0  0  0  0  0  0  0
   -6.7610   19.0590  -32.5430 S   0  0  0  0  0  0  0  0  0  0  0  0
   -6.8310   18.5740  -31.1210 O   0  0  0  0  0  0  0  0  0  0  0  0
   -7.2130   17.9500  -33.4540 O   0  0  0  0  0  0  0  0  0  0  0  0
   -7.7830   20.4610  -32.7340 N   0  0  0  0  0  0  0  0  0  0  0  0
   -9.1710   20.1560  -32.3890 C   0  0  0  0  0  0  0  0  0  0  0  0
   -9.7990   21.4580  -31.9210 C   0  0  0  0  0  0  0  0  0  0  0  0
   -8.6310   22.3640  -31.5610 C   0  0  0  0  0  0  0  0  0  0  0  0
   -7.3820   21.5400  -31.8340 C   0  0  0  0  0  0  0  0  0  0  0  0
   -4.4980   20.6130  -32.3080 C   0  0  0  0  0  0  0  0  0  0  0  0
   -3.1620   20.9460  -32.5940 C   0  0  0  0  0  0  0  0  0  0  0  0
   -2.5230   22.0760  -31.9820 N   0  0  0  0  0  0  0  0  0  0  0  0
   -3.0650   22.9240  -30.9630 C   0  0  0  0  0  0  0  0  0  0  0  0
   -3.9790   23.7470  -31.2390 O   0  0  0  0  0  0  0  0  0  0  0  0
   -2.5410   22.8540  -29.5820 C   0  0  0  0  0  0  0  0  0  0  0  0
   -2.3430   21.5870  -29.0030 C   0  0  0  0  0  0  0  0  0  0  0  0
   -1.9300   21.4640  -27.6680 C   0  0  0  0  0  0  0  0  0  0  0  0
   -1.6420   19.8690  -26.9660 S   0  0  0  0  0  0  0  0  0  0  0  0
   -2.7340   18.9300  -27.3990 O   0  0  0  0  0  0  0  0  0  0  0  0
   -1.6880   19.9740  -25.4670 O   0  0  0  0  0  0  0  0  0  0  0  0
   -0.0950   19.2130  -27.4630 N   0  0  0  0  0  0  0  0  0  0  0  0
    0.7450   20.2410  -28.0920 C   0  0  0  0  0  0  0  0  0  0  0  0
    0.7690   19.9990  -29.5990 C   0  0  0  0  0  0  0  0  0  0  0  0
   -0.0740   18.7640  -29.8340 C   0  0  0  0  0  0  0  0  0  0  0  0
   -0.2690   18.1510  -28.4590 C   0  0  0  0  0  0  0  0  0  0  0  0
   -1.7310   22.6160  -26.9000 C   0  0  0  0  0  0  0  0  0  0  0  0
   -1.8930   23.8780  -27.4710 C   0  0  0  0  0  0  0  0  0  0  0  0
   -2.2660   24.0120  -28.8130 C   0  0  0  0  0  0  0  0  0  0  0  0
   -2.3120   25.3020  -29.3500 O   0  0  0  0  0  0  0  0  0  0  0  0
   -0.7080   20.7560  -35.2450 C   0  0  0  0  0  0  0  0  0  0  0  0
    0.2130   21.9830  -35.3150 C   0  0  0  0  0  0  0  0  0  0  0  0
    3.4610   21.9693  -34.3267 H   0  0  0  0  0  0  0  0  0  0  0  0
    2.7297   21.0592  -35.6919 H   0  0  0  0  0  0  0  0  0  0  0  0
    2.7005   22.8552  -35.6919 H   0  0  0  0  0  0  0  0  0  0  0  0
    1.5970   19.8817  -33.9250 H   0  0  0  0  0  0  0  0  0  0  0  0
    2.0221   21.0205  -32.5833 H   0  0  0  0  0  0  0  0  0  0  0  0
   -0.0947   19.7229  -32.1745 H   0  0  0  0  0  0  0  0  0  0  0  0
   -0.3154   21.5133  -32.1817 H   0  0  0  0  0  0  0  0  0  0  0  0
   -2.4648   18.4334  -34.8145 H   0  0  0  0  0  0  0  0  0  0  0  0
   -4.8198   17.8319  -34.2698 H   0  0  0  0  0  0  0  0  0  0  0  0
   -9.7055   19.7723  -33.2705 H   0  0  0  0  0  0  0  0  0  0  0  0
   -9.2246   19.3859  -31.6054 H   0  0  0  0  0  0  0  0  0  0  0  0
  -10.4000   21.9064  -32.7258 H   0  0  0  0  0  0  0  0  0  0  0  0
  -10.4742   21.3024  -31.0667 H   0  0  0  0  0  0  0  0  0  0  0  0
   -8.6392   23.2692  -32.1859 H   0  0  0  0  0  0  0  0  0  0  0  0
   -8.6800   22.6983  -30.5142 H   0  0  0  0  0  0  0  0  0  0  0  0
   -6.6116   22.1646  -32.3097 H   0  0  0  0  0  0  0  0  0  0  0  0
   -6.9575   21.1414  -30.9007 H   0  0  0  0  0  0  0  0  0  0  0  0
   -5.0755   21.2282  -31.6023 H   0  0  0  0  0  0  0  0  0  0  0  0
   -2.5141   20.6820  -29.6044 H   0  0  0  0  0  0  0  0  0  0  0  0
    0.3285   21.2376  -27.8838 H   0  0  0  0  0  0  0  0  0  0  0  0
    1.7667   20.1889  -27.6878 H   0  0  0  0  0  0  0  0  0  0  0  0
    0.3416   20.8612  -30.1319 H   0  0  0  0  0  0  0  0  0  0  0  0
    1.7956   19.8640  -29.9702 H   0  0  0  0  0  0  0  0  0  0  0  0
   -1.0435   19.0366  -30.2763 H   0  0  0  0  0  0  0  0  0  0  0  0
    0.4066   18.0638  -30.5331 H   0  0  0  0  0  0  0  0  0  0  0  0
   -1.2805   17.7260  -28.3793 H   0  0  0  0  0  0  0  0  0  0  0  0
    0.4612   17.3455  -28.2916 H   0  0  0  0  0  0  0  0  0  0  0  0
   -1.4456   22.5262  -25.8415 H   0  0  0  0  0  0  0  0  0  0  0  0
   -1.7258   24.7774  -26.8601 H   0  0  0  0  0  0  0  0  0  0  0  0
   -3.1140   25.6740  -29.8340 H   0  0  0  0  0  0  0  0  0  0  0  0
   -0.1795   19.8776  -35.6438 H   0  0  0  0  0  0  0  0  0  0  0  0
   -1.6127   20.9420  -35.8424 H   0  0  0  0  0  0  0  0  0  0  0  0
    0.6205   22.0531  -36.3343 H   0  0  0  0  0  0  0  0  0  0  0  0
   -0.3970   22.8575  -35.0446 H   0  0  0  0  0  0  0  0  0  0  0  0
  1  2  1  0
  2  3  1  0
  3  4  1  0
  4  5  1  0
  5  6  1  0
  6  7  2  0
  7  8  1  0
  8  9  2  0
  9 10  1  0
 10 11  2  0
 10 12  2  0
 10 13  1  0
 13 14  1  0
 14 15  1  0
 15 16  1  0
 16 17  1  0
  9 18  1  0
 18 19  2  0
 19 20  1  0
 20 21  1  0
 21 22  2  0
 21 23  1  0
 23 24  2  0
 24 25  1  0
 25 26  1  0
 26 27  2  0
 26 28  2  0
 26 29  1  0
 29 30  1  0
 30 31  1  0
 31 32  1  0
 32 33  1  0
 25 34  2  0
 34 35  1  0
 35 36  2  0
 36 37  1  0
  5 38  1  0
 38 39  1  0
 39  2  1  0
 19  6  1  0
 36 23  1  0
 17 13  1  0
 33 29  1  0
  1 40  1  0
  1 41  1  0
  1 42  1  0
  3 43  1  0
  3 44  1  0
  4 45  1  0
  4 46  1  0
  7 47  1  0
  8 48  1  0
 14 49  1  0
 14 50  1  0
 15 51  1  0
 15 52  1  0
 16 53  1  0
 16 54  1  0
 17 55  1  0
 17 56  1  0
 18 57  1  0
 24 58  1  0
 30 59  1  0
 30 60  1  0
 31 61  1  0
 31 62  1  0
 32 63  1  0
 32 64  1  0
 33 65  1  0
 33 66  1  0
 34 67  1  0
 35 68  1  0
 37 69  1  0
 38 70  1  0
 38 71  1  0
 39 72  1  0
 39 73  1  0
M  CHG  1  20  -1
M  END
>  <UniqueID>  (17) 
17

>  <SMILES>  (17) 
CN1CCN(c2ccc(S(=O)(=O)N3CCCC3)cc2[N-]C(=O)c2cc(S(=O)(=O)N3CCCC3)ccc2O)CC1

>  <Energy>  (17) 
96.14390519329223

>  <Genealogy>  (17) 
CN1CCN(c2ccc(S(=O)(=O)N3CCCC3)cc2[N-]C(=O)c2cc(S(=O)(=O)N3CCCC3)ccc2O)CC1 (protonated)
CN1CCN(c2ccc(S(=O)(=O)N3CCCC3)cc2[N-]C(=O)c2cc(S(=O)(=O)N3CCCC3)ccc2O)CC1 (3D coordinates assigned)
CN1CCN(c2ccc(S(=O)(=O)N3CCCC3)cc2[N-]C(=O)c2cc(S(=O)(=O)N3CCCC3)ccc2O)CC1 (nonaromatic ring conformer: 96.14390519329223 kcal/mol)

>  <smiles>  (17) 
CN1CCN(c2ccc(S(=O)(=O)N3CCCC3)cc2NC(=O)c2cc(S(=O)(=O)N3CCCC3)ccc2O)CC1

>  <score_type>  (17) 
oracle

>  <origin>  (17) 
adgpu

>  <m_score__min__energy>  (17) 
-12.44

>  <m_primary>  (17) 
energy

$$$$
17:0
     RDKit          3D

 47 50  0  0  0  0  0  0  0  0999 V2000
   -3.9770   21.7370  -32.5890 O   0  0  0  0  0  0  0  0  0  0  0  0
   -4.7180   22.1580  -31.6600 C   0  0  0  0  0  0  0  0  0  0  0  0
   -6.0200   21.5830  -31.4570 N   0  0  0  0  0  0  0  0  0  0  0  0
   -6.4220   20.3070  -31.9840 C   0  0  0  0  0  0  0  0  0  0  0  0
   -7.6230   19.7290  -31.5470 C   0  0  0  0  0  0  0  0  0  0  0  0
   -8.0250   18.4830  -32.0300 C   0  0  0  0  0  0  0  0  0  0  0  0
   -7.2240   17.7920  -32.9430 C   0  0  0  0  0  0  0  0  0  0  0  0
   -6.0050   18.3390  -33.3650 C   0  0  0  0  0  0  0  0  0  0  0  0
   -4.9830   17.4600  -34.5080 S   0  0  0  0  0  0  0  0  0  0  0  0
   -5.2510   15.9880  -34.3700 O   0  0  0  0  0  0  0  0  0  0  0  0
   -5.3480   17.8700  -35.9080 O   0  0  0  0  0  0  0  0  0  0  0  0
   -3.2770   17.7520  -34.2580 N   0  0  0  0  0  0  0  0  0  0  0  0
   -2.9710   19.1780  -34.1640 C   0  0  0  0  0  0  0  0  0  0  0  0
   -1.6850   19.2870  -33.3610 C   0  0  0  0  0  0  0  0  0  0  0  0
   -1.5740   17.9740  -32.5980 C   0  0  0  0  0  0  0  0  0  0  0  0
   -2.7960   17.1660  -33.0090 C   0  0  0  0  0  0  0  0  0  0  0  0
   -5.6090   19.5980  -32.8870 C   0  0  0  0  0  0  0  0  0  0  0  0
   -4.2450   23.2720  -30.8200 C   0  0  0  0  0  0  0  0  0  0  0  0
   -3.5590   23.1740  -29.6260 C   0  0  0  0  0  0  0  0  0  0  0  0
   -3.3410   24.4900  -29.2520 C   0  0  0  0  0  0  0  0  0  0  0  0
   -2.6340   24.9630  -28.0310 C   0  0  0  0  0  0  0  0  0  0  0  0
   -3.0140   24.4870  -26.7600 C   0  0  0  0  0  0  0  0  0  0  0  0
   -2.3530   24.9210  -25.6090 C   0  0  0  0  0  0  0  0  0  0  0  0
   -1.3050   25.8350  -25.7050 C   0  0  0  0  0  0  0  0  0  0  0  0
   -0.9130   26.3170  -26.9540 C   0  0  0  0  0  0  0  0  0  0  0  0
   -1.5690   25.8900  -28.1150 C   0  0  0  0  0  0  0  0  0  0  0  0
   -1.1550   26.4030  -29.3390 O   0  0  0  0  0  0  0  0  0  0  0  0
   -3.8720   25.3060  -30.1850 N   0  0  0  0  0  0  0  0  0  0  0  0
   -4.4180   24.5680  -31.1370 N   0  0  0  0  0  0  0  0  0  0  0  0
   -6.7480   22.1640  -30.9820 H   0  0  0  0  0  0  0  0  0  0  0  0
   -8.2522   20.2615  -30.8186 H   0  0  0  0  0  0  0  0  0  0  0  0
   -8.9748   18.0437  -31.6912 H   0  0  0  0  0  0  0  0  0  0  0  0
   -7.5512   16.8162  -33.3314 H   0  0  0  0  0  0  0  0  0  0  0  0
   -2.8301   19.6042  -35.1682 H   0  0  0  0  0  0  0  0  0  0  0  0
   -3.7907   19.7317  -33.6828 H   0  0  0  0  0  0  0  0  0  0  0  0
   -0.8224   19.4171  -34.0311 H   0  0  0  0  0  0  0  0  0  0  0  0
   -1.6967   20.1543  -32.6844 H   0  0  0  0  0  0  0  0  0  0  0  0
   -0.6507   17.4442  -32.8752 H   0  0  0  0  0  0  0  0  0  0  0  0
   -1.5350   18.1339  -31.5104 H   0  0  0  0  0  0  0  0  0  0  0  0
   -2.5208   16.1124  -33.1643 H   0  0  0  0  0  0  0  0  0  0  0  0
   -3.5726   17.1936  -32.2305 H   0  0  0  0  0  0  0  0  0  0  0  0
   -4.6557   20.0335  -33.2210 H   0  0  0  0  0  0  0  0  0  0  0  0
   -3.2552   22.2606  -29.0937 H   0  0  0  0  0  0  0  0  0  0  0  0
   -3.8402   23.7659  -26.6737 H   0  0  0  0  0  0  0  0  0  0  0  0
   -2.6603   24.5405  -24.6237 H   0  0  0  0  0  0  0  0  0  0  0  0
   -0.7873   26.1760  -24.7963 H   0  0  0  0  0  0  0  0  0  0  0  0
   -0.0841   27.0364  -27.0272 H   0  0  0  0  0  0  0  0  0  0  0  0
  1  2  2  0
  2  3  1  0
  3  4  1  0
  4  5  2  0
  5  6  1  0
  6  7  2  0
  7  8  1  0
  8  9  1  0
  9 10  2  0
  9 11  2  0
  9 12  1  0
 12 13  1  0
 13 14  1  0
 14 15  1  0
 15 16  1  0
  8 17  2  0
  2 18  1  0
 18 19  1  0
 19 20  2  0
 20 21  1  0
 21 22  2  0
 22 23  1  0
 23 24  2  0
 24 25  1  0
 25 26  2  0
 26 27  1  0
 20 28  1  0
 28 29  1  0
 17  4  1  0
 29 18  2  0
 16 12  1  0
 26 21  1  0
  3 30  1  0
  5 31  1  0
  6 32  1  0
  7 33  1  0
 13 34  1  0
 13 35  1  0
 14 36  1  0
 14 37  1  0
 15 38  1  0
 15 39  1  0
 16 40  1  0
 16 41  1  0
 17 42  1  0
 19 43  1  0
 22 44  1  0
 23 45  1  0
 24 46  1  0
 25 47  1  0
M  CHG  2  27  -1  28  -1
M  END
>  <UniqueID>  (18) 
18

>  <SMILES>  (18) 
O=C(Nc1cccc(S(=O)(=O)N2CCCC2)c1)c1cc(-c2ccccc2[O-])[n-]n1

>  <Energy>  (18) 
87.04873040473667

>  <Genealogy>  (18) 
O=C(Nc1cccc(S(=O)(=O)N2CCCC2)c1)c1cc(-c2ccccc2[O-])[n-]n1 (protonated)
O=C(Nc1cccc(S(=O)(=O)N2CCCC2)c1)c1cc(-c2ccccc2[O-])[n-]n1 (3D coordinates assigned)
O=C(Nc1cccc(S(=O)(=O)N2CCCC2)c1)c1cc(-c2ccccc2[O-])[n-]n1 (nonaromatic ring conformer: 87.04873040473667 kcal/mol)

>  <smiles>  (18) 
O=C(Nc1cccc(S(=O)(=O)N2CCCC2)c1)c1cc(-c2ccccc2O)[nH]n1

>  <score_type>  (18) 
oracle

>  <origin>  (18) 
adgpu

>  <m_score__min__energy>  (18) 
-14.960000000000001

>  <m_primary>  (18) 
energy

$$$$
18:0
     RDKit          3D

 63 66  0  0  0  0  0  0  0  0999 V2000
   -9.6220   21.4550  -31.7460 C   0  0  0  0  0  0  0  0  0  0  0  0
   -8.3330   20.7610  -31.7540 N   0  0  0  0  0  0  0  0  0  0  0  0
   -8.0970   19.5070  -32.3890 C   0  0  0  0  0  0  0  0  0  0  0  0
   -9.0210   18.6960  -32.6670 O   0  0  0  0  0  0  0  0  0  0  0  0
   -6.6440   19.2740  -32.7080 C   0  0  0  0  0  0  0  0  0  0  0  0
   -6.4320   19.1630  -34.2240 C   0  0  0  0  0  0  0  0  0  0  0  0
   -6.0980   18.0440  -31.9680 C   0  0  0  0  0  0  0  0  0  0  0  0
   -6.0600   20.5530  -32.1720 C   0  0  0  0  0  0  0  0  0  0  0  0
   -4.7210   20.9490  -32.1420 C   0  0  0  0  0  0  0  0  0  0  0  0
   -4.3970   22.1990  -31.5990 C   0  0  0  0  0  0  0  0  0  0  0  0
   -5.4090   23.0500  -31.1060 C   0  0  0  0  0  0  0  0  0  0  0  0
   -4.9950   24.6220  -30.4230 S   0  0  0  0  0  0  0  0  0  0  0  0
   -5.4860   24.6740  -29.0050 O   0  0  0  0  0  0  0  0  0  0  0  0
   -5.6760   25.7110  -31.2050 O   0  0  0  0  0  0  0  0  0  0  0  0
   -3.2840   24.8880  -30.4400 N   0  0  0  0  0  0  0  0  0  0  0  0
   -2.3920   24.2200  -29.5460 C   0  0  0  0  0  0  0  0  0  0  0  0
   -2.5170   22.8450  -29.3300 C   0  0  0  0  0  0  0  0  0  0  0  0
   -1.7170   22.1970  -28.3840 C   0  0  0  0  0  0  0  0  0  0  0  0
   -1.9870   20.7840  -28.0670 C   0  0  0  0  0  0  0  0  0  0  0  0
   -3.0040   20.4610  -27.3970 O   0  0  0  0  0  0  0  0  0  0  0  0
   -1.0760   19.7750  -28.5220 N   0  0  0  0  0  0  0  0  0  0  0  0
   -0.8820   19.5810  -29.9640 C   0  0  0  0  0  0  0  0  0  0  0  0
    0.4280   18.8460  -30.2390 C   0  0  0  0  0  0  0  0  0  0  0  0
    1.4370   19.3210  -29.2850 N   0  0  0  0  0  0  0  0  0  0  0  0
    3.0360   18.8250  -29.7880 S   0  0  0  0  0  0  0  0  0  0  0  0
    3.1780   17.0500  -29.9010 C   0  0  0  0  0  0  0  0  0  0  0  0
    3.3270   19.4210  -31.1370 O   0  0  0  0  0  0  0  0  0  0  0  0
    4.0590   19.3290  -28.8090 O   0  0  0  0  0  0  0  0  0  0  0  0
    1.1450   18.8400  -27.9180 C   0  0  0  0  0  0  0  0  0  0  0  0
   -0.3560   18.9360  -27.5590 C   0  0  0  0  0  0  0  0  0  0  0  0
   -0.7730   22.9330  -27.6520 C   0  0  0  0  0  0  0  0  0  0  0  0
   -0.6810   24.3200  -27.8270 C   0  0  0  0  0  0  0  0  0  0  0  0
   -1.5140   24.9700  -28.7500 C   0  0  0  0  0  0  0  0  0  0  0  0
   -1.4710   26.3540  -28.8890 O   0  0  0  0  0  0  0  0  0  0  0  0
   -6.7540   22.6320  -31.1390 C   0  0  0  0  0  0  0  0  0  0  0  0
   -7.0520   21.3730  -31.6710 C   0  0  0  0  0  0  0  0  0  0  0  0
   -9.9398   21.6261  -30.7069 H   0  0  0  0  0  0  0  0  0  0  0  0
   -9.5216   22.4210  -32.2625 H   0  0  0  0  0  0  0  0  0  0  0  0
  -10.3731   20.8394  -32.2625 H   0  0  0  0  0  0  0  0  0  0  0  0
   -5.4738   18.6613  -34.4245 H   0  0  0  0  0  0  0  0  0  0  0  0
   -7.2517   18.5784  -34.6670 H   0  0  0  0  0  0  0  0  0  0  0  0
   -6.4185   20.1697  -34.6670 H   0  0  0  0  0  0  0  0  0  0  0  0
   -6.1704   18.2071  -30.8826 H   0  0  0  0  0  0  0  0  0  0  0  0
   -6.6872   17.1576  -32.2457 H   0  0  0  0  0  0  0  0  0  0  0  0
   -5.0454   17.8864  -32.2457 H   0  0  0  0  0  0  0  0  0  0  0  0
   -3.9340   20.2904  -32.5381 H   0  0  0  0  0  0  0  0  0  0  0  0
   -3.3456   22.5197  -31.5566 H   0  0  0  0  0  0  0  0  0  0  0  0
   -3.2518   22.2670  -29.9097 H   0  0  0  0  0  0  0  0  0  0  0  0
   -1.7186   18.9896  -30.3644 H   0  0  0  0  0  0  0  0  0  0  0  0
   -0.8432   20.5665  -30.4511 H   0  0  0  0  0  0  0  0  0  0  0  0
    0.2795   17.7633  -30.1138 H   0  0  0  0  0  0  0  0  0  0  0  0
    0.7612   19.0416  -31.2689 H   0  0  0  0  0  0  0  0  0  0  0  0
    3.2124   16.6198  -28.8892 H   0  0  0  0  0  0  0  0  0  0  0  0
    2.3093   16.6463  -30.4417 H   0  0  0  0  0  0  0  0  0  0  0  0
    4.0998   16.7896  -30.4417 H   0  0  0  0  0  0  0  0  0  0  0  0
    1.4587   17.7885  -27.8405 H   0  0  0  0  0  0  0  0  0  0  0  0
    1.6962   19.4821  -27.2152 H   0  0  0  0  0  0  0  0  0  0  0  0
   -0.7923   17.9262  -27.5654 H   0  0  0  0  0  0  0  0  0  0  0  0
   -0.4485   19.3906  -26.5616 H   0  0  0  0  0  0  0  0  0  0  0  0
   -0.1063   22.4219  -26.9419 H   0  0  0  0  0  0  0  0  0  0  0  0
    0.0457   24.9004  -27.2396 H   0  0  0  0  0  0  0  0  0  0  0  0
   -1.2240   26.7950  -29.7690 H   0  0  0  0  0  0  0  0  0  0  0  0
   -7.5534   23.2823  -30.7543 H   0  0  0  0  0  0  0  0  0  0  0  0
  1  2  1  0
  2  3  1  0
  3  4  2  0
  3  5  1  0
  5  6  1  0
  5  7  1  0
  5  8  1  0
  8  9  2  0
  9 10  1  0
 10 11  2  0
 11 12  1  0
 12 13  2  0
 12 14  2  0
 12 15  1  0
 15 16  1  0
 16 17  2  0
 17 18  1  0
 18 19  1  0
 19 20  2  0
 19 21  1  0
 21 22  1  0
 22 23  1  0
 23 24  1  0
 24 25  1  0
 25 26  1  0
 25 27  2  0
 25 28  2  0
 24 29  1  0
 29 30  1  0
 18 31  2  0
 31 32  1  0
 32 33  2  0
 33 34  1  0
 11 35  1  0
 35 36  2  0
 36  2  1  0
 36  8  1  0
 33 16  1  0
 30 21  1  0
  1 37  1  0
  1 38  1  0
  1 39  1  0
  6 40  1  0
  6 41  1  0
  6 42  1  0
  7 43  1  0
  7 44  1  0
  7 45  1  0
  9 46  1  0
 10 47  1  0
 17 48  1  0
 22 49  1  0
 22 50  1  0
 23 51  1  0
 23 52  1  0
 26 53  1  0
 26 54  1  0
 26 55  1  0
 29 56  1  0
 29 57  1  0
 30 58  1  0
 30 59  1  0
 31 60  1  0
 32 61  1  0
 34 62  1  0
 35 63  1  0
M  CHG  1  15  -1
M  END
>  <UniqueID>  (19) 
19

>  <SMILES>  (19) 
CN1C(=O)C(C)(C)c2ccc(S(=O)(=O)[N-]c3cc(C(=O)N4CCN(S(C)(=O)=O)CC4)ccc3O)cc21

>  <Energy>  (19) 
93.53861775755843

>  <Genealogy>  (19) 
CN1C(=O)C(C)(C)c2ccc(S(=O)(=O)[N-]c3cc(C(=O)N4CCN(S(C)(=O)=O)CC4)ccc3O)cc21 (protonated)
CN1C(=O)C(C)(C)c2ccc(S(=O)(=O)[N-]c3cc(C(=O)N4CCN(S(C)(=O)=O)CC4)ccc3O)cc21 (3D coordinates assigned)
CN1C(=O)C(C)(C)c2ccc(S(=O)(=O)[N-]c3cc(C(=O)N4CCN(S(C)(=O)=O)CC4)ccc3O)cc21 (nonaromatic ring conformer: 93.53861775755843 kcal/mol)

>  <smiles>  (19) 
CN1C(=O)C(C)(C)c2ccc(S(=O)(=O)Nc3cc(C(=O)N4CCN(S(C)(=O)=O)CC4)ccc3O)cc21

>  <score_type>  (19) 
oracle

>  <origin>  (19) 
adgpu

>  <m_score__min__energy>  (19) 
-13.24

>  <m_primary>  (19) 
energy

$$$$
19:0
     RDKit          3D

 48 51  0  0  0  0  0  0  0  0999 V2000
   -5.5700   25.8910  -30.9410 O   0  0  0  0  0  0  0  0  0  0  0  0
   -4.6420   25.0450  -30.8260 C   0  0  0  0  0  0  0  0  0  0  0  0
   -3.5830   25.2960  -29.8960 N   0  0  0  0  0  0  0  0  0  0  0  0
   -2.9210   24.3130  -29.0860 C   0  0  0  0  0  0  0  0  0  0  0  0
   -3.5260   23.0750  -28.8050 C   0  0  0  0  0  0  0  0  0  0  0  0
   -2.8610   22.1250  -28.0320 C   0  0  0  0  0  0  0  0  0  0  0  0
   -1.5800   22.3860  -27.5460 C   0  0  0  0  0  0  0  0  0  0  0  0
   -0.9460   23.6000  -27.8440 C   0  0  0  0  0  0  0  0  0  0  0  0
    0.6740   23.9250  -27.2190 S   0  0  0  0  0  0  0  0  0  0  0  0
    1.4810   22.6550  -27.1980 O   0  0  0  0  0  0  0  0  0  0  0  0
    1.3510   24.8990  -28.1430 O   0  0  0  0  0  0  0  0  0  0  0  0
    0.5830   24.6180  -25.6110 N   0  0  0  0  0  0  0  0  0  0  0  0
   -0.8140   24.7100  -25.1340 C   0  0  0  0  0  0  0  0  0  0  0  0
   -1.4140   26.1170  -25.3120 C   0  0  0  0  0  0  0  0  0  0  0  0
   -0.8610   26.7480  -26.4460 O   0  0  0  0  0  0  0  0  0  0  0  0
    0.5050   27.0510  -26.2230 C   0  0  0  0  0  0  0  0  0  0  0  0
    1.2850   25.9100  -25.5270 C   0  0  0  0  0  0  0  0  0  0  0  0
   -1.6160   24.5680  -28.6160 C   0  0  0  0  0  0  0  0  0  0  0  0
   -0.9790   25.7790  -28.8980 O   0  0  0  0  0  0  0  0  0  0  0  0
   -4.6730   23.8330  -31.5890 N   0  0  0  0  0  0  0  0  0  0  0  0
   -5.8390   23.0140  -31.7430 C   0  0  0  0  0  0  0  0  0  0  0  0
   -7.0670   23.5240  -31.3050 C   0  0  0  0  0  0  0  0  0  0  0  0
   -8.2300   22.7590  -31.3970 C   0  0  0  0  0  0  0  0  0  0  0  0
   -8.1860   21.4760  -31.9440 C   0  0  0  0  0  0  0  0  0  0  0  0
   -6.9740   20.9580  -32.4240 C   0  0  0  0  0  0  0  0  0  0  0  0
   -6.9250   19.6830  -33.0060 C   0  0  0  0  0  0  0  0  0  0  0  0
   -5.7540   19.2040  -33.5030 N   0  0  0  0  0  0  0  0  0  0  0  0
   -4.6070   19.9300  -33.4590 C   0  0  0  0  0  0  0  0  0  0  0  0
   -4.6020   21.2040  -32.8870 C   0  0  0  0  0  0  0  0  0  0  0  0
   -5.7870   21.7300  -32.3400 C   0  0  0  0  0  0  0  0  0  0  0  0
   -4.5298   22.8552  -29.1975 H   0  0  0  0  0  0  0  0  0  0  0  0
   -3.3484   21.1655  -27.8043 H   0  0  0  0  0  0  0  0  0  0  0  0
   -1.0655   21.6365  -26.9267 H   0  0  0  0  0  0  0  0  0  0  0  0
   -1.4265   23.9926  -25.6998 H   0  0  0  0  0  0  0  0  0  0  0  0
   -0.8118   24.4847  -24.0573 H   0  0  0  0  0  0  0  0  0  0  0  0
   -2.5034   26.0329  -25.4392 H   0  0  0  0  0  0  0  0  0  0  0  0
   -1.1826   26.7187  -24.4207 H   0  0  0  0  0  0  0  0  0  0  0  0
    0.9794   27.2550  -27.1943 H   0  0  0  0  0  0  0  0  0  0  0  0
    0.5377   27.9216  -25.5515 H   0  0  0  0  0  0  0  0  0  0  0  0
    2.2688   25.8095  -26.0086 H   0  0  0  0  0  0  0  0  0  0  0  0
    1.3822   26.1705  -24.4627 H   0  0  0  0  0  0  0  0  0  0  0  0
   -0.3450   26.2260  -28.2470 H   0  0  0  0  0  0  0  0  0  0  0  0
   -7.1154   24.5390  -30.8837 H   0  0  0  0  0  0  0  0  0  0  0  0
   -9.1853   23.1687  -31.0370 H   0  0  0  0  0  0  0  0  0  0  0  0
   -9.1026   20.8703  -31.9988 H   0  0  0  0  0  0  0  0  0  0  0  0
   -7.8362   19.0692  -33.0604 H   0  0  0  0  0  0  0  0  0  0  0  0
   -3.6783   19.5129  -33.8756 H   0  0  0  0  0  0  0  0  0  0  0  0
   -3.6743   21.7947  -32.8641 H   0  0  0  0  0  0  0  0  0  0  0  0
  1  2  2  0
  2  3  1  0
  3  4  1  0
  4  5  2  0
  5  6  1  0
  6  7  2  0
  7  8  1  0
  8  9  1  0
  9 10  2  0
  9 11  2  0
  9 12  1  0
 12 13  1  0
 13 14  1  0
 14 15  1  0
 15 16  1  0
 16 17  1  0
  8 18  2  0
 18 19  1  0
  2 20  1  0
 20 21  1  0
 21 22  2  0
 22 23  1  0
 23 24  2  0
 24 25  1  0
 25 26  2  0
 26 27  1  0
 27 28  2  0
 28 29  1  0
 29 30  2  0
 18  4  1  0
 30 21  1  0
 17 12  1  0
 30 25  1  0
  5 31  1  0
  6 32  1  0
  7 33  1  0
 13 34  1  0
 13 35  1  0
 14 36  1  0
 14 37  1  0
 16 38  1  0
 16 39  1  0
 17 40  1  0
 17 41  1  0
 19 42  1  0
 22 43  1  0
 23 44  1  0
 24 45  1  0
 26 46  1  0
 28 47  1  0
 29 48  1  0
M  CHG  2   3  -1  20  -1
M  END
>  <UniqueID>  (20) 
20

>  <SMILES>  (20) 
O=C([N-]c1cccc(S(=O)(=O)N2CCOCC2)c1O)[N-]c1cccc2cnccc12

>  <Energy>  (20) 
78.84336348081382

>  <Genealogy>  (20) 
O=C([N-]c1cccc(S(=O)(=O)N2CCOCC2)c1O)[N-]c1cccc2cnccc12 (protonated)
O=C([N-]c1cccc(S(=O)(=O)N2CCOCC2)c1O)[N-]c1cccc2cnccc12 (3D coordinates assigned)
O=C([N-]c1cccc(S(=O)(=O)N2CCOCC2)c1O)[N-]c1cccc2cnccc12 (nonaromatic ring conformer: 78.84336348081382 kcal/mol)

>  <smiles>  (20) 
O=C(Nc1cccc(S(=O)(=O)N2CCOCC2)c1O)Nc1cccc2cnccc12

>  <score_type>  (20) 
oracle

>  <origin>  (20) 
adgpu

>  <m_score__min__energy>  (20) 
-13.029999999999999

>  <m_primary>  (20) 
energy

$$$$
20:0
     RDKit          3D

 55 58  0  0  0  0  0  0  0  0999 V2000
   -4.8070   23.6270  -31.7130 O   0  0  0  0  0  0  0  0  0  0  0  0
   -5.5740   23.0240  -30.9140 C   0  0  0  0  0  0  0  0  0  0  0  0
   -5.3520   23.1510  -29.4400 C   0  0  0  0  0  0  0  0  0  0  0  0
   -3.9690   23.6620  -29.1680 C   0  0  0  0  0  0  0  0  0  0  0  0
   -3.3830   24.8040  -29.6860 C   0  0  0  0  0  0  0  0  0  0  0  0
   -3.9450   25.6740  -30.6130 O   0  0  0  0  0  0  0  0  0  0  0  0
   -2.1430   24.9270  -29.0950 C   0  0  0  0  0  0  0  0  0  0  0  0
   -1.2380   25.9520  -29.3370 O   0  0  0  0  0  0  0  0  0  0  0  0
   -1.9320   23.9110  -28.2300 N   0  0  0  0  0  0  0  0  0  0  0  0
   -0.7790   23.7360  -27.3480 C   0  0  0  0  0  0  0  0  0  0  0  0
   -0.7590   24.8190  -26.3040 C   0  0  0  0  0  0  0  0  0  0  0  0
    0.4500   25.1920  -25.6950 C   0  0  0  0  0  0  0  0  0  0  0  0
    0.4590   26.1650  -24.6900 C   0  0  0  0  0  0  0  0  0  0  0  0
   -0.7380   26.7630  -24.2800 C   0  0  0  0  0  0  0  0  0  0  0  0
   -1.9450   26.3910  -24.8750 C   0  0  0  0  0  0  0  0  0  0  0  0
   -1.9590   25.4180  -25.8800 C   0  0  0  0  0  0  0  0  0  0  0  0
   -3.0510   23.1540  -28.2620 C   0  0  0  0  0  0  0  0  0  0  0  0
   -3.2460   22.0220  -27.4740 O   0  0  0  0  0  0  0  0  0  0  0  0
   -6.5960   22.1440  -31.3990 N   0  0  0  0  0  0  0  0  0  0  0  0
   -6.3930   20.9290  -32.1340 C   0  0  0  0  0  0  0  0  0  0  0  0
   -7.3660   19.9120  -32.1720 C   0  0  0  0  0  0  0  0  0  0  0  0
   -7.1210   18.7290  -32.8750 C   0  0  0  0  0  0  0  0  0  0  0  0
   -5.8990   18.5370  -33.5330 C   0  0  0  0  0  0  0  0  0  0  0  0
   -5.5780   17.0580  -34.4320 S   0  0  0  0  0  0  0  0  0  0  0  0
   -6.8700   16.3040  -34.5930 O   0  0  0  0  0  0  0  0  0  0  0  0
   -5.0380   17.3910  -35.7970 O   0  0  0  0  0  0  0  0  0  0  0  0
   -4.4290   16.0800  -33.5550 N   0  0  0  0  0  0  0  0  0  0  0  0
   -3.4450   15.5050  -34.4860 C   0  0  0  0  0  0  0  0  0  0  0  0
   -2.4840   14.5570  -33.7370 C   0  0  0  0  0  0  0  0  0  0  0  0
   -2.7880   14.4800  -32.3560 O   0  0  0  0  0  0  0  0  0  0  0  0
   -4.1200   14.0370  -32.1830 C   0  0  0  0  0  0  0  0  0  0  0  0
   -5.1300   15.0040  -32.8370 C   0  0  0  0  0  0  0  0  0  0  0  0
   -4.9210   19.5420  -33.4810 C   0  0  0  0  0  0  0  0  0  0  0  0
   -5.1650   20.7260  -32.7790 C   0  0  0  0  0  0  0  0  0  0  0  0
   -6.0879   23.8528  -29.0206 H   0  0  0  0  0  0  0  0  0  0  0  0
   -5.4682   22.1621  -28.9725 H   0  0  0  0  0  0  0  0  0  0  0  0
   -0.8441   22.7553  -26.8540 H   0  0  0  0  0  0  0  0  0  0  0  0
    0.1433   23.7934  -27.9447 H   0  0  0  0  0  0  0  0  0  0  0  0
    1.3918   24.7182  -26.0088 H   0  0  0  0  0  0  0  0  0  0  0  0
    1.4090   26.4607  -24.2210 H   0  0  0  0  0  0  0  0  0  0  0  0
   -0.7279   27.5267  -23.4884 H   0  0  0  0  0  0  0  0  0  0  0  0
   -2.8851   26.8631  -24.5535 H   0  0  0  0  0  0  0  0  0  0  0  0
   -2.9124   25.1201  -26.3406 H   0  0  0  0  0  0  0  0  0  0  0  0
   -8.3226   20.0490  -31.6465 H   0  0  0  0  0  0  0  0  0  0  0  0
   -7.8915   17.9448  -32.9118 H   0  0  0  0  0  0  0  0  0  0  0  0
   -3.9734   14.9409  -35.2687 H   0  0  0  0  0  0  0  0  0  0  0  0
   -2.8612   16.3213  -34.9365 H   0  0  0  0  0  0  0  0  0  0  0  0
   -2.5634   13.5512  -34.1752 H   0  0  0  0  0  0  0  0  0  0  0  0
   -1.4637   14.9550  -33.8398 H   0  0  0  0  0  0  0  0  0  0  0  0
   -4.2282   13.0434  -32.6424 H   0  0  0  0  0  0  0  0  0  0  0  0
   -4.3317   13.9963  -31.1043 H   0  0  0  0  0  0  0  0  0  0  0  0
   -5.7574   14.4451  -33.5470 H   0  0  0  0  0  0  0  0  0  0  0  0
   -5.7526   15.4519  -32.0485 H   0  0  0  0  0  0  0  0  0  0  0  0
   -3.9590   19.3976  -33.9944 H   0  0  0  0  0  0  0  0  0  0  0  0
   -4.3883   21.5035  -32.7324 H   0  0  0  0  0  0  0  0  0  0  0  0
  1  2  2  0
  2  3  1  0
  3  4  1  0
  4  5  1  0
  5  6  1  0
  5  7  2  0
  7  8  1  0
  7  9  1  0
  9 10  1  0
 10 11  1  0
 11 12  2  0
 12 13  1  0
 13 14  2  0
 14 15  1  0
 15 16  2  0
  9 17  1  0
 17 18  1  0
  2 19  1  0
 19 20  1  0
 20 21  2  0
 21 22  1  0
 22 23  2  0
 23 24  1  0
 24 25  2  0
 24 26  2  0
 24 27  1  0
 27 28  1  0
 28 29  1  0
 29 30  1  0
 30 31  1  0
 31 32  1  0
 23 33  1  0
 33 34  2  0
 17  4  2  0
 34 20  1  0
 16 11  1  0
 32 27  1  0
  3 35  1  0
  3 36  1  0
 10 37  1  0
 10 38  1  0
 12 39  1  0
 13 40  1  0
 14 41  1  0
 15 42  1  0
 16 43  1  0
 21 44  1  0
 22 45  1  0
 28 46  1  0
 28 47  1  0
 29 48  1  0
 29 49  1  0
 31 50  1  0
 31 51  1  0
 32 52  1  0
 32 53  1  0
 33 54  1  0
 34 55  1  0
M  CHG  4   6  -1   8  -1  18  -1  19  -1
M  END
>  <UniqueID>  (21) 
21

>  <SMILES>  (21) 
O=C(Cc1c([O-])c([O-])n(Cc2ccccc2)c1[O-])[N-]c1ccc(S(=O)(=O)N2CCOCC2)cc1

>  <Energy>  (21) 
95.5701328334153

>  <Genealogy>  (21) 
O=C(Cc1c([O-])c([O-])n(Cc2ccccc2)c1[O-])[N-]c1ccc(S(=O)(=O)N2CCOCC2)cc1 (protonated)
O=C(Cc1c([O-])c([O-])n(Cc2ccccc2)c1[O-])[N-]c1ccc(S(=O)(=O)N2CCOCC2)cc1 (3D coordinates assigned)
O=C(Cc1c([O-])c([O-])n(Cc2ccccc2)c1[O-])[N-]c1ccc(S(=O)(=O)N2CCOCC2)cc1 (nonaromatic ring conformer: 95.5701328334153 kcal/mol)

>  <smiles>  (21) 
O=C(Cc1c(O)c(O)n(Cc2ccccc2)c1O)Nc1ccc(S(=O)(=O)N2CCOCC2)cc1

>  <score_type>  (21) 
oracle

>  <origin>  (21) 
adgpu

>  <m_score__min__energy>  (21) 
-15.51

>  <m_primary>  (21) 
energy

$$$$
21:0
     RDKit          3D

 43 46  0  0  0  0  0  0  0  0999 V2000
   -6.6500   25.6210  -29.7770 C   0  0  0  0  0  0  0  0  0  0  0  0
   -5.9510   24.4370  -30.3840 C   0  0  0  0  0  0  0  0  0  0  0  0
   -6.6610   23.2570  -30.6540 C   0  0  0  0  0  0  0  0  0  0  0  0
   -6.0160   22.1550  -31.2230 C   0  0  0  0  0  0  0  0  0  0  0  0
   -6.7480   21.0070  -31.5020 O   0  0  0  0  0  0  0  0  0  0  0  0
   -4.6440   22.2150  -31.5150 C   0  0  0  0  0  0  0  0  0  0  0  0
   -3.8270   20.8390  -32.2620 S   0  0  0  0  0  0  0  0  0  0  0  0
   -4.5990   19.5720  -32.0240 O   0  0  0  0  0  0  0  0  0  0  0  0
   -3.7220   21.0750  -33.7420 O   0  0  0  0  0  0  0  0  0  0  0  0
   -2.2470   20.6870  -31.5740 N   0  0  0  0  0  0  0  0  0  0  0  0
   -1.0750   20.7650  -32.2350 C   0  0  0  0  0  0  0  0  0  0  0  0
   -0.0280   20.6080  -31.3450 C   0  0  0  0  0  0  0  0  0  0  0  0
   -0.6110   20.4480  -30.1030 C   0  0  0  0  0  0  0  0  0  0  0  0
    0.0980   20.2290  -28.8790 N   0  0  0  0  0  0  0  0  0  0  0  0
    0.6980   21.2610  -28.0860 C   0  0  0  0  0  0  0  0  0  0  0  0
    1.7740   21.0140  -27.4810 O   0  0  0  0  0  0  0  0  0  0  0  0
    0.1400   22.6310  -28.0600 C   0  0  0  0  0  0  0  0  0  0  0  0
    1.0000   23.6680  -28.2350 N   0  0  0  0  0  0  0  0  0  0  0  0
    0.6000   24.9390  -28.1940 N   0  0  0  0  0  0  0  0  0  0  0  0
   -0.6950   25.2720  -27.9730 C   0  0  0  0  0  0  0  0  0  0  0  0
   -1.0190   26.4900  -27.9300 O   0  0  0  0  0  0  0  0  0  0  0  0
   -1.6510   24.2590  -27.8000 C   0  0  0  0  0  0  0  0  0  0  0  0
   -3.0090   24.5640  -27.5870 C   0  0  0  0  0  0  0  0  0  0  0  0
   -3.9480   23.5410  -27.4620 C   0  0  0  0  0  0  0  0  0  0  0  0
   -3.5480   22.2080  -27.5490 C   0  0  0  0  0  0  0  0  0  0  0  0
   -2.2030   21.8870  -27.7470 C   0  0  0  0  0  0  0  0  0  0  0  0
   -1.2330   22.9060  -27.8560 C   0  0  0  0  0  0  0  0  0  0  0  0
   -1.9800   20.4800  -30.2730 C   0  0  0  0  0  0  0  0  0  0  0  0
   -3.9370   23.4000  -31.2660 C   0  0  0  0  0  0  0  0  0  0  0  0
   -4.5850   24.5070  -30.7060 C   0  0  0  0  0  0  0  0  0  0  0  0
   -3.8630   25.6740  -30.4750 O   0  0  0  0  0  0  0  0  0  0  0  0
   -6.6076   25.5492  -28.6802 H   0  0  0  0  0  0  0  0  0  0  0  0
   -6.1536   26.5468  -30.1033 H   0  0  0  0  0  0  0  0  0  0  0  0
   -7.7004   25.6336  -30.1033 H   0  0  0  0  0  0  0  0  0  0  0  0
   -7.7334   23.1988  -30.4161 H   0  0  0  0  0  0  0  0  0  0  0  0
   -0.9675   20.9286  -33.3174 H   0  0  0  0  0  0  0  0  0  0  0  0
    1.0470   20.6101  -31.5781 H   0  0  0  0  0  0  0  0  0  0  0  0
   -3.3304   25.6138  -27.5189 H   0  0  0  0  0  0  0  0  0  0  0  0
   -5.0072   23.7861  -27.2943 H   0  0  0  0  0  0  0  0  0  0  0  0
   -4.2951   21.4054  -27.4613 H   0  0  0  0  0  0  0  0  0  0  0  0
   -1.8979   20.8326  -27.8184 H   0  0  0  0  0  0  0  0  0  0  0  0
   -2.7284   20.3566  -29.4763 H   0  0  0  0  0  0  0  0  0  0  0  0
   -2.8666   23.4600  -31.5123 H   0  0  0  0  0  0  0  0  0  0  0  0
  1  2  1  0
  2  3  2  0
  3  4  1  0
  4  5  1  0
  4  6  2  0
  6  7  1  0
  7  8  2  0
  7  9  2  0
  7 10  1  0
 10 11  1  0
 11 12  2  0
 12 13  1  0
 13 14  1  0
 14 15  1  0
 15 16  2  0
 15 17  1  0
 17 18  2  0
 18 19  1  0
 19 20  1  0
 20 21  2  0
 20 22  1  0
 22 23  2  0
 23 24  1  0
 24 25  2  0
 25 26  1  0
 26 27  2  0
 13 28  2  0
  6 29  1  0
 29 30  2  0
 30 31  1  0
 30  2  1  0
 28 10  1  0
 27 17  1  0
 27 22  1  0
  1 32  1  0
  1 33  1  0
  1 34  1  0
  3 35  1  0
 11 36  1  0
 12 37  1  0
 23 38  1  0
 24 39  1  0
 25 40  1  0
 26 41  1  0
 28 42  1  0
 29 43  1  0
M  CHG  4   5  -1  14  -1  19  -1  31  -1
M  END
>  <UniqueID>  (22) 
22

>  <SMILES>  (22) 
Cc1cc([O-])c(S(=O)(=O)n2ccc([N-]C(=O)c3n[n-]c(=O)c4ccccc34)c2)cc1[O-]

>  <Energy>  (22) 
87.53585704525375

>  <Genealogy>  (22) 
Cc1cc([O-])c(S(=O)(=O)n2ccc([N-]C(=O)c3n[n-]c(=O)c4ccccc34)c2)cc1[O-] (protonated)
Cc1cc([O-])c(S(=O)(=O)n2ccc([N-]C(=O)c3n[n-]c(=O)c4ccccc34)c2)cc1[O-] (3D coordinates assigned)
Cc1cc([O-])c(S(=O)(=O)n2ccc([N-]C(=O)c3n[n-]c(=O)c4ccccc34)c2)cc1[O-] (optimized conformer: 87.53585704525375 kcal/mol)

>  <smiles>  (22) 
Cc1cc(O)c(S(=O)(=O)n2ccc(NC(=O)c3n[nH]c(=O)c4ccccc34)c2)cc1O

>  <score_type>  (22) 
oracle

>  <origin>  (22) 
adgpu

>  <m_score__min__energy>  (22) 
-13.050000000000001

>  <m_primary>  (22) 
energy

$$$$
22:0
     RDKit          3D

 55 58  0  0  0  0  0  0  0  0999 V2000
    0.7150   23.0920  -23.1440 H   0  0  0  0  0  0  0  0  0  0  0  0
    0.9680   23.0980  -24.1040 O   0  0  0  0  0  0  0  0  0  0  0  0
    0.9460   24.4390  -24.5260 C   0  0  0  0  0  0  0  0  0  0  0  0
    1.5472   25.0707  -23.8556 H   0  0  0  0  0  0  0  0  0  0  0  0
    1.5780   24.5520  -25.9290 C   0  0  0  0  0  0  0  0  0  0  0  0
    2.5272   23.9962  -25.9405 H   0  0  0  0  0  0  0  0  0  0  0  0
    1.7482   25.6162  -26.1491 H   0  0  0  0  0  0  0  0  0  0  0  0
    0.6490   23.9770  -27.0050 C   0  0  0  0  0  0  0  0  0  0  0  0
    0.6060   22.8833  -26.8955 H   0  0  0  0  0  0  0  0  0  0  0  0
    1.0470   24.2512  -27.9931 H   0  0  0  0  0  0  0  0  0  0  0  0
   -0.7070   24.5250  -26.8800 N   0  0  0  0  0  0  0  0  0  0  0  0
   -1.7340   24.0640  -27.7680 C   0  0  0  0  0  0  0  0  0  0  0  0
   -2.1130   22.7080  -27.7970 C   0  0  0  0  0  0  0  0  0  0  0  0
   -1.4780   21.7030  -26.8750 C   0  0  0  0  0  0  0  0  0  0  0  0
   -1.6627   21.9954  -25.8308 H   0  0  0  0  0  0  0  0  0  0  0  0
   -1.9128   20.7097  -27.0600 H   0  0  0  0  0  0  0  0  0  0  0  0
   -0.3942   21.6691  -27.0600 H   0  0  0  0  0  0  0  0  0  0  0  0
   -3.1390   22.2960  -28.6650 C   0  0  0  0  0  0  0  0  0  0  0  0
   -3.4514   21.2413  -28.6735 H   0  0  0  0  0  0  0  0  0  0  0  0
   -3.7740   23.2170  -29.5260 C   0  0  0  0  0  0  0  0  0  0  0  0
   -4.7920   22.8200  -30.4320 C   0  0  0  0  0  0  0  0  0  0  0  0
   -5.1200   21.5510  -30.4720 N   0  0  0  0  0  0  0  0  0  0  0  0
   -5.9710   20.8570  -31.3920 C   0  0  0  0  0  0  0  0  0  0  0  0
   -7.3570   20.8710  -31.1960 C   0  0  0  0  0  0  0  0  0  0  0  0
   -7.7882   21.4507  -30.3665 H   0  0  0  0  0  0  0  0  0  0  0  0
   -8.1940   20.1500  -32.0520 C   0  0  0  0  0  0  0  0  0  0  0  0
   -9.2839   20.1772  -31.9059 H   0  0  0  0  0  0  0  0  0  0  0  0
   -7.6480   19.3940  -33.0940 C   0  0  0  0  0  0  0  0  0  0  0  0
   -8.3102   18.8363  -33.7725 H   0  0  0  0  0  0  0  0  0  0  0  0
   -6.2600   19.3450  -33.2760 C   0  0  0  0  0  0  0  0  0  0  0  0
   -5.5890   18.3660  -34.5770 S   0  0  0  0  0  0  0  0  0  0  0  0
   -4.0890   18.4740  -34.5950 O   0  0  0  0  0  0  0  0  0  0  0  0
   -6.1220   18.8680  -35.8890 O   0  0  0  0  0  0  0  0  0  0  0  0
   -6.0470   16.7030  -34.3720 N   0  0  0  0  0  0  0  0  0  0  0  0
   -5.7680   16.2790  -33.0040 C   0  0  0  0  0  0  0  0  0  0  0  0
   -6.2324   16.9847  -32.2995 H   0  0  0  0  0  0  0  0  0  0  0  0
   -6.1809   15.2726  -32.8406 H   0  0  0  0  0  0  0  0  0  0  0  0
   -4.6804   16.2600  -32.8406 H   0  0  0  0  0  0  0  0  0  0  0  0
   -5.4220   20.0640  -32.4120 C   0  0  0  0  0  0  0  0  0  0  0  0
   -4.3303   20.0065  -32.5338 H   0  0  0  0  0  0  0  0  0  0  0  0
   -5.4120   23.8230  -31.2350 C   0  0  0  0  0  0  0  0  0  0  0  0
   -6.5820   23.5950  -32.0510 C   0  0  0  0  0  0  0  0  0  0  0  0
   -7.5210   23.4220  -32.7040 N   0  0  0  0  0  0  0  0  0  0  0  0
   -4.9510   25.1430  -31.1600 C   0  0  0  0  0  0  0  0  0  0  0  0
   -5.4049   25.9148  -31.7990 H   0  0  0  0  0  0  0  0  0  0  0  0
   -3.9520   25.4800  -30.3090 N   0  0  0  0  0  0  0  0  0  0  0  0
   -3.3650   24.5690  -29.4950 C   0  0  0  0  0  0  0  0  0  0  0  0
   -2.3540   24.9810  -28.6230 C   0  0  0  0  0  0  0  0  0  0  0  0
   -2.0429   26.0360  -28.6088 H   0  0  0  0  0  0  0  0  0  0  0  0
   -1.0330   25.4820  -25.8190 C   0  0  0  0  0  0  0  0  0  0  0  0
   -2.1244   25.6083  -25.7650 H   0  0  0  0  0  0  0  0  0  0  0  0
   -0.5566   26.4475  -26.0445 H   0  0  0  0  0  0  0  0  0  0  0  0
   -0.5140   24.9670  -24.4710 C   0  0  0  0  0  0  0  0  0  0  0  0
   -1.1675   24.1476  -24.1371 H   0  0  0  0  0  0  0  0  0  0  0  0
   -0.5222   25.8194  -23.7758 H   0  0  0  0  0  0  0  0  0  0  0  0
  1  2  1  0
  2  3  1  0
  3  4  1  0
  3  5  1  0
  5  6  1  0
  5  7  1  0
  5  8  1  0
  8  9  1  0
  8 10  1  0
  8 11  1  0
 11 12  1  0
 12 13  2  0
 13 14  1  0
 14 15  1  0
 14 16  1  0
 14 17  1  0
 13 18  1  0
 18 19  1  0
 18 20  2  0
 20 21  1  0
 21 22  2  0
 22 23  1  0
 23 24  2  0
 24 25  1  0
 24 26  1  0
 26 27  1  0
 26 28  2  0
 28 29  1  0
 28 30  1  0
 30 31  1  0
 31 32  2  0
 31 33  2  0
 31 34  1  0
 34 35  1  0
 35 36  1  0
 35 37  1  0
 35 38  1  0
 30 39  2  0
 39 40  1  0
 21 41  1  0
 41 42  1  0
 42 43  3  0
 41 44  2  0
 44 45  1  0
 44 46  1  0
 46 47  1  0
 47 48  2  0
 48 49  1  0
 11 50  1  0
 50 51  1  0
 50 52  1  0
 50 53  1  0
 53 54  1  0
 53 55  1  0
 53  3  1  0
 48 12  1  0
 47 20  1  0
 39 23  1  0
M  CHG  2  34  -1  46  -1
M  END
>  <UniqueID>  (23) 
23

>  <SMILES>  (23) 
C[N-]S(=O)(=O)c1cccc(/N=c2\c(C#N)c[n-]c3cc(N4CCC(O)CC4)c(C)cc23)c1

>  <Energy>  (23) 
83.80505967797797

>  <Genealogy>  (23) 
C[N-]S(=O)(=O)c1cccc(N=c2c(C#N)c[n-]c3cc(N4CCC(O)CC4)c(C)cc23)c1 (protonated)
C[N-]S(=O)(=O)c1cccc(/N=c2\c(C#N)c[n-]c3cc(N4CCC(O)CC4)c(C)cc23)c1 (cis-trans isomerization)
C[N-]S(=O)(=O)c1cccc(/N=c2\c(C#N)c[n-]c3cc(N4CCC(O)CC4)c(C)cc23)c1 (3D coordinates assigned)
C[N-]S(=O)(=O)c1cccc(/N=c2\c(C#N)c[n-]c3cc(N4CCC(O)CC4)c(C)cc23)c1 (nonaromatic ring conformer: 83.80505967797797 kcal/mol)

>  <smiles>  (23) 
CNS(=O)(=O)c1cccc(N=c2c(C#N)c[nH]c3cc(N4CCC(O)CC4)c(C)cc23)c1

>  <score_type>  (23) 
oracle

>  <origin>  (23) 
adgpu

>  <m_score__min__energy>  (23) 
-11.52

>  <m_primary>  (23) 
energy

$$$$
23:0
     RDKit          3D

 51 53  0  0  0  0  0  0  0  0999 V2000
   -9.8610   20.7920  -32.3390 C   0  0  0  0  0  0  0  0  0  0  0  0
   -8.4700   21.2540  -31.9930 C   0  0  0  0  0  0  0  0  0  0  0  0
   -8.2280   22.6320  -31.8580 C   0  0  0  0  0  0  0  0  0  0  0  0
   -6.9600   23.1020  -31.5170 C   0  0  0  0  0  0  0  0  0  0  0  0
   -5.9140   22.2040  -31.2900 C   0  0  0  0  0  0  0  0  0  0  0  0
   -4.3080   22.8100  -30.8900 S   0  0  0  0  0  0  0  0  0  0  0  0
   -4.2530   24.2800  -31.2030 O   0  0  0  0  0  0  0  0  0  0  0  0
   -4.0420   22.6240  -29.4210 O   0  0  0  0  0  0  0  0  0  0  0  0
   -3.1100   21.9630  -31.8340 N   0  0  0  0  0  0  0  0  0  0  0  0
   -3.6840   21.5460  -33.1270 C   0  0  0  0  0  0  0  0  0  0  0  0
   -2.8550   20.4320  -33.8060 C   0  0  0  0  0  0  0  0  0  0  0  0
   -1.4700   20.3670  -33.2990 N   0  0  0  0  0  0  0  0  0  0  0  0
   -0.6660   21.5210  -33.7410 C   0  0  0  0  0  0  0  0  0  0  0  0
   -1.4160   20.1730  -31.8300 C   0  0  0  0  0  0  0  0  0  0  0  0
   -2.6110   20.8030  -31.0860 C   0  0  0  0  0  0  0  0  0  0  0  0
   -6.1420   20.8280  -31.4150 C   0  0  0  0  0  0  0  0  0  0  0  0
   -7.4130   20.3400  -31.7560 C   0  0  0  0  0  0  0  0  0  0  0  0
   -7.6490   18.5870  -31.8810 S   0  0  0  0  0  0  0  0  0  0  0  0
   -9.0910   18.2400  -31.6320 O   0  0  0  0  0  0  0  0  0  0  0  0
   -6.8040   17.9070  -30.8410 O   0  0  0  0  0  0  0  0  0  0  0  0
   -7.1930   18.0380  -33.4760 N   0  0  0  0  0  0  0  0  0  0  0  0
   -6.8430   16.6000  -33.4670 C   0  0  0  0  0  0  0  0  0  0  0  0
   -5.3270   16.3700  -33.5990 C   0  0  0  0  0  0  0  0  0  0  0  0
   -4.7780   16.9390  -34.7790 O   0  0  0  0  0  0  0  0  0  0  0  0
   -5.3790   18.1740  -35.1530 C   0  0  0  0  0  0  0  0  0  0  0  0
   -6.1170   18.8920  -34.0120 C   0  0  0  0  0  0  0  0  0  0  0  0
  -10.4258   20.6044  -31.4139 H   0  0  0  0  0  0  0  0  0  0  0  0
  -10.3697   21.5694  -32.9279 H   0  0  0  0  0  0  0  0  0  0  0  0
   -9.8035   19.8647  -32.9279 H   0  0  0  0  0  0  0  0  0  0  0  0
   -9.0473   23.3472  -32.0230 H   0  0  0  0  0  0  0  0  0  0  0  0
   -6.7827   24.1838  -31.4264 H   0  0  0  0  0  0  0  0  0  0  0  0
   -4.7048   21.1732  -32.9569 H   0  0  0  0  0  0  0  0  0  0  0  0
   -3.6812   22.4209  -33.7938 H   0  0  0  0  0  0  0  0  0  0  0  0
   -3.3445   19.4648  -33.6191 H   0  0  0  0  0  0  0  0  0  0  0  0
   -2.8063   20.6606  -34.8809 H   0  0  0  0  0  0  0  0  0  0  0  0
   -0.2883   22.0631  -32.8615 H   0  0  0  0  0  0  0  0  0  0  0  0
    0.1820   21.1670  -34.3456 H   0  0  0  0  0  0  0  0  0  0  0  0
   -1.2918   22.1939  -34.3456 H   0  0  0  0  0  0  0  0  0  0  0  0
   -1.4048   19.0931  -31.6208 H   0  0  0  0  0  0  0  0  0  0  0  0
   -0.5065   20.6753  -31.4688 H   0  0  0  0  0  0  0  0  0  0  0  0
   -3.4145   20.0580  -30.9897 H   0  0  0  0  0  0  0  0  0  0  0  0
   -2.2847   21.1291  -30.0874 H   0  0  0  0  0  0  0  0  0  0  0  0
   -5.3160   20.1219  -31.2441 H   0  0  0  0  0  0  0  0  0  0  0  0
   -7.1874   16.1575  -32.5207 H   0  0  0  0  0  0  0  0  0  0  0  0
   -7.3328   16.1277  -34.3313 H   0  0  0  0  0  0  0  0  0  0  0  0
   -4.8275   16.8198  -32.7283 H   0  0  0  0  0  0  0  0  0  0  0  0
   -5.1633   15.2835  -33.6518 H   0  0  0  0  0  0  0  0  0  0  0  0
   -4.5888   18.8422  -35.5258 H   0  0  0  0  0  0  0  0  0  0  0  0
   -6.1352   17.9369  -35.9158 H   0  0  0  0  0  0  0  0  0  0  0  0
   -5.4031   19.1227  -33.2076 H   0  0  0  0  0  0  0  0  0  0  0  0
   -6.5601   19.8199  -34.4028 H   0  0  0  0  0  0  0  0  0  0  0  0
  1  2  1  0
  2  3  2  0
  3  4  1  0
  4  5  2  0
  5  6  1  0
  6  7  2  0
  6  8  2  0
  6  9  1  0
  9 10  1  0
 10 11  1  0
 11 12  1  0
 12 13  1  0
 12 14  1  0
 14 15  1  0
  5 16  1  0
 16 17  2  0
 17 18  1  0
 18 19  2  0
 18 20  2  0
 18 21  1  0
 21 22  1  0
 22 23  1  0
 23 24  1  0
 24 25  1  0
 25 26  1  0
 17  2  1  0
 26 21  1  0
 15  9  1  0
  1 27  1  0
  1 28  1  0
  1 29  1  0
  3 30  1  0
  4 31  1  0
 10 32  1  0
 10 33  1  0
 11 34  1  0
 11 35  1  0
 13 36  1  0
 13 37  1  0
 13 38  1  0
 14 39  1  0
 14 40  1  0
 15 41  1  0
 15 42  1  0
 16 43  1  0
 22 44  1  0
 22 45  1  0
 23 46  1  0
 23 47  1  0
 25 48  1  0
 25 49  1  0
 26 50  1  0
 26 51  1  0
M  END
>  <UniqueID>  (24) 
24

>  <SMILES>  (24) 
Cc1ccc(S(=O)(=O)N2CCN(C)CC2)cc1S(=O)(=O)N1CCOCC1

>  <Energy>  (24) 
72.17836732797078

>  <Genealogy>  (24) 
Cc1ccc(S(=O)(=O)N2CCN(C)CC2)cc1S(=O)(=O)N1CCOCC1 (3D coordinates assigned)
Cc1ccc(S(=O)(=O)N2CCN(C)CC2)cc1S(=O)(=O)N1CCOCC1 (nonaromatic ring conformer: 72.17836732797078 kcal/mol)

>  <smiles>  (24) 
Cc1ccc(S(=O)(=O)N2CCN(C)CC2)cc1S(=O)(=O)N1CCOCC1

>  <score_type>  (24) 
oracle

>  <origin>  (24) 
adgpu

>  <m_score__min__energy>  (24) 
-9.4700000000000006

>  <m_primary>  (24) 
energy

$$$$
24:0
     RDKit          3D

 57 60  0  0  0  0  0  0  0  0999 V2000
    3.3990   24.2010  -27.1400 C   0  0  0  0  0  0  0  0  0  0  0  0
    1.9960   24.2480  -26.7590 N   0  0  0  0  0  0  0  0  0  0  0  0
    1.0300   25.0490  -27.4440 C   0  0  0  0  0  0  0  0  0  0  0  0
    1.1100   26.3050  -27.3910 O   0  0  0  0  0  0  0  0  0  0  0  0
   -0.1180   24.4270  -28.1300 C   0  0  0  0  0  0  0  0  0  0  0  0
   -0.1510   23.0720  -28.2100 N   0  0  0  0  0  0  0  0  0  0  0  0
   -1.1170   22.4000  -28.8860 C   0  0  0  0  0  0  0  0  0  0  0  0
   -2.1400   23.0930  -29.5600 C   0  0  0  0  0  0  0  0  0  0  0  0
   -3.1370   22.3560  -30.3190 N   0  0  0  0  0  0  0  0  0  0  0  0
   -4.5520   22.7010  -30.3300 C   0  0  0  0  0  0  0  0  0  0  0  0
   -5.2560   21.5830  -31.0770 C   0  0  0  0  0  0  0  0  0  0  0  0
   -4.1680   20.8950  -31.9020 C   0  0  2  0  0  0  0  0  0  0  0  0
   -4.3790   19.4450  -31.9770 N   0  0  0  0  0  0  0  0  0  0  0  0
   -3.4570   18.7330  -33.2690 S   0  0  0  0  0  0  0  0  0  0  0  0
   -3.9650   19.2650  -34.5810 O   0  0  0  0  0  0  0  0  0  0  0  0
   -2.0200   19.1440  -33.1390 O   0  0  0  0  0  0  0  0  0  0  0  0
   -3.5800   16.9630  -33.2500 C   0  0  0  0  0  0  0  0  0  0  0  0
   -2.4980   16.2410  -32.7150 C   0  0  0  0  0  0  0  0  0  0  0  0
   -2.5100   14.8480  -32.6870 C   0  0  0  0  0  0  0  0  0  0  0  0
   -3.6020   14.1510  -33.1910 C   0  0  0  0  0  0  0  0  0  0  0  0
   -4.6830   14.8450  -33.7300 C   0  0  0  0  0  0  0  0  0  0  0  0
   -4.6940   16.2510  -33.7720 C   0  0  0  0  0  0  0  0  0  0  0  0
   -6.1220   17.0430  -34.4770 S   0  0  0  0  0  0  0  0  0  0  0  0
   -7.1100   16.0040  -34.9260 O   0  0  0  0  0  0  0  0  0  0  0  0
   -5.7160   17.8370  -35.6850 O   0  0  0  0  0  0  0  0  0  0  0  0
   -6.9250   18.0820  -33.2980 C   0  0  0  0  0  0  0  0  0  0  0  0
   -7.5020   17.5230  -32.1460 C   0  0  0  0  0  0  0  0  0  0  0  0
   -8.1360   18.3410  -31.2060 C   0  0  0  0  0  0  0  0  0  0  0  0
   -8.1860   19.7230  -31.4010 C   0  0  0  0  0  0  0  0  0  0  0  0
   -7.6000   20.2890  -32.5360 C   0  0  0  0  0  0  0  0  0  0  0  0
   -6.9680   19.4750  -33.4840 C   0  0  0  0  0  0  0  0  0  0  0  0
   -6.3960   20.0470  -34.5710 F   0  0  0  0  0  0  0  0  0  0  0  0
   -2.8650   21.1990  -31.1640 C   0  0  0  0  0  0  0  0  0  0  0  0
   -2.1430   24.5060  -29.4670 C   0  0  0  0  0  0  0  0  0  0  0  0
   -3.1240   25.2710  -30.0910 O   0  0  0  0  0  0  0  0  0  0  0  0
   -1.1530   25.1730  -28.7330 C   0  0  0  0  0  0  0  0  0  0  0  0
   -1.2540   26.5610  -28.5980 O   0  0  0  0  0  0  0  0  0  0  0  0
    4.0242   24.1801  -26.2352 H   0  0  0  0  0  0  0  0  0  0  0  0
    3.5869   23.2961  -27.7365 H   0  0  0  0  0  0  0  0  0  0  0  0
    3.6470   25.0913  -27.7365 H   0  0  0  0  0  0  0  0  0  0  0  0
   -1.1003   21.3003  -28.9074 H   0  0  0  0  0  0  0  0  0  0  0  0
   -4.9349   22.7721  -29.3013 H   0  0  0  0  0  0  0  0  0  0  0  0
   -4.7229   23.6746  -30.8127 H   0  0  0  0  0  0  0  0  0  0  0  0
   -5.7085   20.8730  -30.3691 H   0  0  0  0  0  0  0  0  0  0  0  0
   -6.0693   21.9649  -31.7116 H   0  0  0  0  0  0  0  0  0  0  0  0
   -4.1651   21.2578  -32.9405 H   0  0  0  0  0  0  0  0  0  0  0  0
   -1.6299   16.7839  -32.3129 H   0  0  0  0  0  0  0  0  0  0  0  0
   -1.6547   14.2994  -32.2657 H   0  0  0  0  0  0  0  0  0  0  0  0
   -3.6126   13.0514  -33.1642 H   0  0  0  0  0  0  0  0  0  0  0  0
   -5.5414   14.2847  -34.1290 H   0  0  0  0  0  0  0  0  0  0  0  0
   -7.4549   16.4362  -31.9825 H   0  0  0  0  0  0  0  0  0  0  0  0
   -8.5960   17.8955  -30.3116 H   0  0  0  0  0  0  0  0  0  0  0  0
   -8.6864   20.3654  -30.6615 H   0  0  0  0  0  0  0  0  0  0  0  0
   -7.6352   21.3782  -32.6855 H   0  0  0  0  0  0  0  0  0  0  0  0
   -2.5660   20.3384  -30.5476 H   0  0  0  0  0  0  0  0  0  0  0  0
   -2.0434   21.4002  -31.8672 H   0  0  0  0  0  0  0  0  0  0  0  0
   -0.6510   27.1060  -27.9970 H   0  0  0  0  0  0  0  0  0  0  0  0
  1  2  1  0
  2  3  1  0
  3  4  2  0
  3  5  1  0
  5  6  2  0
  6  7  1  0
  7  8  2  0
  8  9  1  0
  9 10  1  0
 10 11  1  0
 11 12  1  0
 12 13  1  0
 13 14  1  0
 14 15  2  0
 14 16  2  0
 14 17  1  0
 17 18  2  0
 18 19  1  0
 19 20  2  0
 20 21  1  0
 21 22  2  0
 22 23  1  0
 23 24  2  0
 23 25  2  0
 23 26  1  0
 26 27  2  0
 27 28  1  0
 28 29  2  0
 29 30  1  0
 30 31  2  0
 31 32  1  0
 12 33  1  0
  8 34  1  0
 34 35  1  0
 34 36  2  0
 36 37  1  0
 36  5  1  0
 33  9  1  0
 22 17  1  0
 31 26  1  0
  1 38  1  0
  1 39  1  0
  1 40  1  0
  7 41  1  0
 10 42  1  0
 10 43  1  0
 11 44  1  0
 11 45  1  0
 12 46  1  6
 18 47  1  0
 19 48  1  0
 20 49  1  0
 21 50  1  0
 27 51  1  0
 28 52  1  0
 29 53  1  0
 30 54  1  0
 33 55  1  0
 33 56  1  0
 37 57  1  0
M  CHG  3   2  -1  13  -1  35  -1
M  END
>  <UniqueID>  (25) 
25

>  <SMILES>  (25) 
C[N-]C(=O)c1ncc(N2CC[C@H]([N-]S(=O)(=O)c3ccccc3S(=O)(=O)c3ccccc3F)C2)c([O-])c1O

>  <Energy>  (25) 
74.1800427268597

>  <Genealogy>  (25) 
C[N-]C(=O)c1ncc(N2CCC([N-]S(=O)(=O)c3ccccc3S(=O)(=O)c3ccccc3F)C2)c([O-])c1O (protonated)
C[N-]C(=O)c1ncc(N2CC[C@H]([N-]S(=O)(=O)c3ccccc3S(=O)(=O)c3ccccc3F)C2)c([O-])c1O (chirality)
C[N-]C(=O)c1ncc(N2CC[C@H]([N-]S(=O)(=O)c3ccccc3S(=O)(=O)c3ccccc3F)C2)c([O-])c1O (3D coordinates assigned)
C[N-]C(=O)c1ncc(N2CC[C@H]([N-]S(=O)(=O)c3ccccc3S(=O)(=O)c3ccccc3F)C2)c([O-])c1O (nonaromatic ring conformer: 74.1800427268597 kcal/mol)

>  <smiles>  (25) 
CNC(=O)c1ncc(N2CCC(NS(=O)(=O)c3ccccc3S(=O)(=O)c3ccccc3F)C2)c(O)c1O

>  <score_type>  (25) 
oracle

>  <origin>  (25) 
adgpu

>  <m_score__min__energy>  (25) 
-13.24

>  <m_primary>  (25) 
energy

$$$$
25:0
     RDKit          3D

 45 48  0  0  0  0  0  0  0  0999 V2000
   -2.4410   20.0810  -27.2260 C   0  0  0  0  0  0  0  0  0  0  0  0
   -2.2980   21.4680  -27.7790 C   0  0  0  0  0  0  0  0  0  0  0  0
   -1.0400   21.9720  -28.1300 C   0  0  0  0  0  0  0  0  0  0  0  0
   -0.9180   23.2720  -28.6250 C   0  0  0  0  0  0  0  0  0  0  0  0
   -2.0460   24.0870  -28.7650 C   0  0  0  0  0  0  0  0  0  0  0  0
   -1.8810   25.3790  -29.2630 O   0  0  0  0  0  0  0  0  0  0  0  0
   -3.3170   23.5980  -28.4010 C   0  0  0  0  0  0  0  0  0  0  0  0
   -4.4620   24.4530  -28.5390 N   0  0  0  0  0  0  0  0  0  0  0  0
   -5.2250   24.8830  -30.0360 S   0  0  0  0  0  0  0  0  0  0  0  0
   -6.4020   25.7720  -29.7510 O   0  0  0  0  0  0  0  0  0  0  0  0
   -4.2490   25.6370  -30.8960 O   0  0  0  0  0  0  0  0  0  0  0  0
   -5.7960   23.4320  -30.8550 C   0  0  0  0  0  0  0  0  0  0  0  0
   -4.8970   22.6690  -31.6270 C   0  0  0  0  0  0  0  0  0  0  0  0
   -5.3400   21.5230  -32.3070 C   0  0  0  0  0  0  0  0  0  0  0  0
   -6.6830   21.1480  -32.1830 C   0  0  0  0  0  0  0  0  0  0  0  0
   -7.5640   21.9100  -31.4650 C   0  0  0  0  0  0  0  0  0  0  0  0
   -7.1480   23.0520  -30.7780 C   0  0  0  0  0  0  0  0  0  0  0  0
   -8.9490   21.3820  -31.5920 C   0  0  0  0  0  0  0  0  0  0  0  0
   -8.7840   20.1800  -32.5510 C   0  0  0  0  0  0  0  0  0  0  0  0
   -7.3500   20.0710  -32.8280 N   0  0  0  0  0  0  0  0  0  0  0  0
   -6.7660   18.9260  -33.4720 C   0  0  0  0  0  0  0  0  0  0  0  0
   -6.2280   19.0720  -34.6040 O   0  0  0  0  0  0  0  0  0  0  0  0
   -6.8680   17.5540  -32.8530 C   0  0  0  0  0  0  0  0  0  0  0  0
   -6.5110   17.5010  -31.3740 C   0  0  0  0  0  0  0  0  0  0  0  0
   -5.5650   16.9010  -32.4020 C   0  0  0  0  0  0  0  0  0  0  0  0
   -3.4320   22.2820  -27.9140 C   0  0  0  0  0  0  0  0  0  0  0  0
   -2.4367   20.1223  -26.1268 H   0  0  0  0  0  0  0  0  0  0  0  0
   -3.3890   19.6439  -27.5728 H   0  0  0  0  0  0  0  0  0  0  0  0
   -1.6022   19.4597  -27.5728 H   0  0  0  0  0  0  0  0  0  0  0  0
   -0.1453   21.3423  -28.0156 H   0  0  0  0  0  0  0  0  0  0  0  0
    0.0727   23.6580  -28.9070 H   0  0  0  0  0  0  0  0  0  0  0  0
   -2.6530   26.0280  -29.3560 H   0  0  0  0  0  0  0  0  0  0  0  0
   -3.8422   22.9730  -31.6973 H   0  0  0  0  0  0  0  0  0  0  0  0
   -4.6465   20.9326  -32.9239 H   0  0  0  0  0  0  0  0  0  0  0  0
   -7.8638   23.6431  -30.1879 H   0  0  0  0  0  0  0  0  0  0  0  0
   -9.3380   21.0569  -30.6158 H   0  0  0  0  0  0  0  0  0  0  0  0
   -9.6640   22.1323  -31.9607 H   0  0  0  0  0  0  0  0  0  0  0  0
   -9.1513   19.2591  -32.0746 H   0  0  0  0  0  0  0  0  0  0  0  0
   -9.3608   20.3240  -33.4765 H   0  0  0  0  0  0  0  0  0  0  0  0
   -7.7121   17.2280  -33.4785 H   0  0  0  0  0  0  0  0  0  0  0  0
   -6.2321   18.4229  -30.8427 H   0  0  0  0  0  0  0  0  0  0  0  0
   -7.0103   17.1286  -30.4673 H   0  0  0  0  0  0  0  0  0  0  0  0
   -4.6026   17.3892  -32.6149 H   0  0  0  0  0  0  0  0  0  0  0  0
   -5.0974   15.9160  -32.5474 H   0  0  0  0  0  0  0  0  0  0  0  0
   -4.4210   21.8884  -27.6367 H   0  0  0  0  0  0  0  0  0  0  0  0
  1  2  1  0
  2  3  2  0
  3  4  1  0
  4  5  2  0
  5  6  1  0
  5  7  1  0
  7  8  1  0
  8  9  1  0
  9 10  2  0
  9 11  2  0
  9 12  1  0
 12 13  2  0
 13 14  1  0
 14 15  2  0
 15 16  1  0
 16 17  2  0
 16 18  1  0
 18 19  1  0
 19 20  1  0
 20 21  1  0
 21 22  2  0
 21 23  1  0
 23 24  1  0
 24 25  1  0
  7 26  2  0
 26  2  1  0
 17 12  1  0
 25 23  1  0
 20 15  1  0
  1 27  1  0
  1 28  1  0
  1 29  1  0
  3 30  1  0
  4 31  1  0
  6 32  1  0
 13 33  1  0
 14 34  1  0
 17 35  1  0
 18 36  1  0
 18 37  1  0
 19 38  1  0
 19 39  1  0
 23 40  1  0
 24 41  1  0
 24 42  1  0
 25 43  1  0
 25 44  1  0
 26 45  1  0
M  CHG  1   8  -1
M  END
>  <UniqueID>  (26) 
26

>  <SMILES>  (26) 
Cc1ccc(O)c([N-]S(=O)(=O)c2ccc3c(c2)CCN3C(=O)C2CC2)c1

>  <Energy>  (26) 
332.2892240883779

>  <Genealogy>  (26) 
Cc1ccc(O)c([N-]S(=O)(=O)c2ccc3c(c2)CCN3C(=O)C2CC2)c1 (protonated)
Cc1ccc(O)c([N-]S(=O)(=O)c2ccc3c(c2)CCN3C(=O)C2CC2)c1 (3D coordinates assigned)
Cc1ccc(O)c([N-]S(=O)(=O)c2ccc3c(c2)CCN3C(=O)C2CC2)c1 (nonaromatic ring conformer: 332.2892240883779 kcal/mol)

>  <smiles>  (26) 
Cc1ccc(O)c(NS(=O)(=O)c2ccc3c(c2)CCN3C(=O)C2CC2)c1

>  <score_type>  (26) 
oracle

>  <origin>  (26) 
adgpu

>  <m_score__min__energy>  (26) 
-12.85

>  <m_primary>  (26) 
energy

$$$$
26:0
     RDKit          3D

 44 46  0  0  1  0  0  0  0  0999 V2000
    2.6720   16.5680  -29.9600 C   0  0  0  0  0  0  0  0  0  0  0  0
    1.4010   17.0890  -29.4820 N   0  0  0  0  0  0  0  0  0  0  0  0
    1.3820   18.2480  -28.6740 C   0  0  0  0  0  0  0  0  0  0  0  0
    2.5330   18.7540  -28.4260 O   0  0  0  0  0  0  0  0  0  0  0  0
    0.2040   18.8790  -28.1290 C   0  0  0  0  0  0  0  0  0  0  0  0
   -0.1080   20.1550  -28.5620 C   0  0  0  0  0  0  0  0  0  0  0  0
   -1.2110   20.8170  -28.0880 C   0  0  0  0  0  0  0  0  0  0  0  0
   -1.4800   22.1280  -28.5710 N   0  0  0  0  0  0  0  0  0  0  0  0
   -2.4960   22.4710  -29.2480 C   0  0  0  0  0  0  0  0  0  0  0  0
   -2.6060   23.7880  -29.6410 C   0  0  0  0  0  0  0  0  0  0  0  0
   -3.6980   24.1720  -30.3730 C   0  0  0  0  0  0  0  0  0  0  0  0
   -3.8560   25.4840  -30.7930 O   0  0  0  0  0  0  0  0  0  0  0  0
   -4.6360   23.1800  -30.6710 C   0  0  0  0  0  0  0  0  0  0  0  0
   -5.6570   23.5480  -31.3580 N   0  0  0  0  0  0  0  0  0  0  0  0
   -6.6650   22.6380  -31.7170 C   0  0  0  0  0  0  0  0  0  0  0  0
   -8.0250   22.8810  -31.4920 C   0  0  0  0  0  0  0  0  0  0  0  0
   -8.9390   21.9010  -31.8920 C   0  0  0  0  0  0  0  0  0  0  0  0
   -8.5290   20.7280  -32.4920 C   0  0  0  0  0  0  0  0  0  0  0  0
   -7.1600   20.5470  -32.6890 C   0  0  0  0  0  0  0  0  0  0  0  0
   -6.7120   19.2770  -33.3380 C   0  0  0  0  0  0  0  0  0  0  0  0
   -6.2740   21.4810  -32.3080 N   0  0  0  0  0  0  0  0  0  0  0  0
   -4.4690   21.9110  -30.2570 N   0  0  0  0  0  0  0  0  0  0  0  0
   -3.4110   21.5330  -29.5470 N   0  0  0  0  0  0  0  0  0  0  0  0
   -2.0700   20.2620  -27.1630 C   0  0  0  0  0  0  0  0  0  0  0  0
   -1.7740   18.9910  -26.7220 C   0  0  0  0  0  0  0  0  0  0  0  0
   -0.6490   18.3250  -27.2080 C   0  0  0  0  0  0  0  0  0  0  0  0
   -0.4350   17.0870  -26.7230 F   0  0  0  0  0  0  0  0  0  0  0  0
    3.3078   16.3074  -29.1010 H   0  0  0  0  0  0  0  0  0  0  0  0
    2.4941   15.6703  -30.5702 H   0  0  0  0  0  0  0  0  0  0  0  0
    3.1754   17.3323  -30.5702 H   0  0  0  0  0  0  0  0  0  0  0  0
    0.5470   16.5890  -29.7530 H   0  0  0  0  0  0  0  0  0  0  0  0
    0.5411   20.6480  -29.3006 H   0  0  0  0  0  0  0  0  0  0  0  0
   -1.8292   24.5185  -29.3710 H   0  0  0  0  0  0  0  0  0  0  0  0
   -4.2460   25.6740  -31.6930 H   0  0  0  0  0  0  0  0  0  0  0  0
   -8.3640   23.8129  -31.0159 H   0  0  0  0  0  0  0  0  0  0  0  0
  -10.0129   22.0697  -31.7239 H   0  0  0  0  0  0  0  0  0  0  0  0
   -9.2556   19.9632  -32.8037 H   0  0  0  0  0  0  0  0  0  0  0  0
   -6.4523   18.5409  -32.5629 H   0  0  0  0  0  0  0  0  0  0  0  0
   -7.5240   18.8790  -33.9643 H   0  0  0  0  0  0  0  0  0  0  0  0
   -5.8300   19.4766  -33.9643 H   0  0  0  0  0  0  0  0  0  0  0  0
   -5.2010   21.1920  -30.5040 H   0  0  0  0  0  0  0  0  0  0  0  0
   -3.2890   20.5480  -29.2300 H   0  0  0  0  0  0  0  0  0  0  0  0
   -2.9505   20.8087  -26.7945 H   0  0  0  0  0  0  0  0  0  0  0  0
   -2.4264   18.5001  -25.9848 H   0  0  0  0  0  0  0  0  0  0  0  0
  1  2  1  0
  2  3  1  0
  3  4  2  0
  3  5  1  0
  5  6  2  0
  6  7  1  0
  7  8  1  0
  8  9  2  0
  9 10  1  0
 10 11  2  0
 11 12  1  0
 11 13  1  0
 13 14  2  0
 14 15  1  0
 15 16  2  0
 16 17  1  0
 17 18  2  0
 18 19  1  0
 19 20  1  0
 19 21  2  0
 13 22  1  0
 22 23  1  0
  7 24  2  0
 24 25  1  0
 25 26  2  0
 26 27  1  0
 26  5  1  0
 23  9  1  0
 21 15  1  0
  1 28  1  0
  1 29  1  0
  1 30  1  0
  2 31  1  0
  6 32  1  0
 10 33  1  0
 12 34  1  0
 16 35  1  0
 17 36  1  0
 18 37  1  0
 20 38  1  0
 20 39  1  0
 20 40  1  0
 22 41  1  0
 23 42  1  0
 24 43  1  0
 25 44  1  0
M  END
>  <smiles>  (27) 
CNC(=O)c1cc(N=c2cc(O)c(=Nc3cccc(C)n3)[nH][nH]2)ccc1F

>  <score_type>  (27) 
oracle

>  <origin>  (27) 
adgpu

>  <m_score__min__energy>  (27) 
-9.0099999999999998

>  <m_primary>  (27) 
energy

$$$$
27:0
     RDKit          3D

 65 69  0  0  0  0  0  0  0  0999 V2000
   -1.2350   27.1880  -29.7090 H   0  0  0  0  0  0  0  0  0  0  0  0
   -1.0520   26.7260  -28.7890 N   0  0  0  0  0  0  0  0  0  0  0  0
   -1.5710   25.5790  -28.4930 C   0  0  0  0  0  0  0  0  0  0  0  0
   -1.3140   25.0150  -27.2890 N   0  0  0  0  0  0  0  0  0  0  0  0
   -1.8350   23.8070  -26.9560 C   0  0  0  0  0  0  0  0  0  0  0  0
   -1.6257   23.3770  -25.9654 H   0  0  0  0  0  0  0  0  0  0  0  0
   -2.6420   23.0990  -27.8690 C   0  0  0  0  0  0  0  0  0  0  0  0
   -3.2610   21.7620  -27.4990 C   0  0  0  0  0  0  0  0  0  0  0  0
   -3.5957   21.8130  -26.4524 H   0  0  0  0  0  0  0  0  0  0  0  0
   -4.0912   21.5895  -28.1997 H   0  0  0  0  0  0  0  0  0  0  0  0
   -2.3180   20.5920  -27.6400 C   0  0  0  0  0  0  0  0  0  0  0  0
   -1.2060   20.6740  -28.4920 C   0  0  0  0  0  0  0  0  0  0  0  0
   -1.0239   21.5939  -29.0669 H   0  0  0  0  0  0  0  0  0  0  0  0
   -0.3280   19.5920  -28.6140 C   0  0  0  0  0  0  0  0  0  0  0  0
    0.5338   19.6608  -29.2942 H   0  0  0  0  0  0  0  0  0  0  0  0
   -0.5410   18.4170  -27.8720 C   0  0  0  0  0  0  0  0  0  0  0  0
    0.3740   17.2630  -28.0120 C   0  0  0  0  0  0  0  0  0  0  0  0
    0.5060   16.4470  -27.0600 O   0  0  0  0  0  0  0  0  0  0  0  0
    1.1540   17.0840  -29.2030 N   0  0  0  0  0  0  0  0  0  0  0  0
    2.6110   16.9530  -29.1070 C   0  0  0  0  0  0  0  0  0  0  0  0
    2.9470   17.3231  -28.1271 H   0  0  0  0  0  0  0  0  0  0  0  0
    2.8882   15.8944  -29.2189 H   0  0  0  0  0  0  0  0  0  0  0  0
    3.2820   17.7720  -30.2180 C   0  0  0  0  0  0  0  0  0  0  0  0
    3.2829   18.8328  -29.9271 H   0  0  0  0  0  0  0  0  0  0  0  0
    4.3077   17.3964  -30.3474 H   0  0  0  0  0  0  0  0  0  0  0  0
    2.5780   17.6310  -31.5030 N   0  0  0  0  0  0  0  0  0  0  0  0
    3.0390   18.3880  -32.6380 C   0  0  0  0  0  0  0  0  0  0  0  0
    4.3320   18.2610  -33.0520 N   0  0  0  0  0  0  0  0  0  0  0  0
    4.8240   18.9620  -34.1080 C   0  0  0  0  0  0  0  0  0  0  0  0
    5.8717   18.8294  -34.4157 H   0  0  0  0  0  0  0  0  0  0  0  0
    4.0000   19.8500  -34.8020 C   0  0  0  0  0  0  0  0  0  0  0  0
    4.3896   20.4120  -35.6636 H   0  0  0  0  0  0  0  0  0  0  0  0
    2.6770   20.0170  -34.3910 C   0  0  0  0  0  0  0  0  0  0  0  0
    2.0182   20.7171  -34.9256 H   0  0  0  0  0  0  0  0  0  0  0  0
    2.1910   19.2940  -33.3000 C   0  0  0  0  0  0  0  0  0  0  0  0
    1.1536   19.4318  -32.9610 H   0  0  0  0  0  0  0  0  0  0  0  0
    1.4750   16.6650  -31.6230 C   0  0  0  0  0  0  0  0  0  0  0  0
    0.9722   16.8012  -32.5918 H   0  0  0  0  0  0  0  0  0  0  0  0
    1.8749   15.6423  -31.5576 H   0  0  0  0  0  0  0  0  0  0  0  0
    0.4710   16.8930  -30.4910 C   0  0  0  0  0  0  0  0  0  0  0  0
   -0.1262   17.7888  -30.7165 H   0  0  0  0  0  0  0  0  0  0  0  0
   -0.1739   16.0052  -30.4142 H   0  0  0  0  0  0  0  0  0  0  0  0
   -1.6560   18.3380  -27.0220 C   0  0  0  0  0  0  0  0  0  0  0  0
   -1.8389   17.4192  -26.4455 H   0  0  0  0  0  0  0  0  0  0  0  0
   -2.5350   19.4180  -26.9030 C   0  0  0  0  0  0  0  0  0  0  0  0
   -3.4010   19.3473  -26.2284 H   0  0  0  0  0  0  0  0  0  0  0  0
   -2.9330   23.7340  -29.1000 C   0  0  0  0  0  0  0  0  0  0  0  0
   -4.0120   23.0290  -30.3070 S   0  0  0  0  0  0  0  0  0  0  0  0
   -5.1550   22.3410  -29.6140 O   0  0  0  0  0  0  0  0  0  0  0  0
   -4.5740   24.1230  -31.1720 O   0  0  0  0  0  0  0  0  0  0  0  0
   -3.1230   21.9020  -31.3280 C   0  0  0  0  0  0  0  0  0  0  0  0
   -1.7220   21.9240  -31.3660 C   0  0  0  0  0  0  0  0  0  0  0  0
   -1.1673   22.6535  -30.7577 H   0  0  0  0  0  0  0  0  0  0  0  0
   -1.0290   21.0200  -32.1760 C   0  0  0  0  0  0  0  0  0  0  0  0
    0.0703   21.0439  -32.2082 H   0  0  0  0  0  0  0  0  0  0  0  0
   -1.7280   20.0860  -32.9450 C   0  0  0  0  0  0  0  0  0  0  0  0
   -1.1777   19.3808  -33.5852 H   0  0  0  0  0  0  0  0  0  0  0  0
   -3.1310   20.0450  -32.9030 C   0  0  0  0  0  0  0  0  0  0  0  0
   -3.8820   19.0750  -33.7670 C   0  0  0  0  0  0  0  0  0  0  0  0
   -4.4311   18.3658  -33.1302 H   0  0  0  0  0  0  0  0  0  0  0  0
   -4.5929   19.6239  -34.4021 H   0  0  0  0  0  0  0  0  0  0  0  0
   -3.1726   18.5242  -34.4021 H   0  0  0  0  0  0  0  0  0  0  0  0
   -3.8240   20.9670  -32.1010 C   0  0  0  0  0  0  0  0  0  0  0  0
   -4.9237   20.9548  -32.0798 H   0  0  0  0  0  0  0  0  0  0  0  0
   -2.3800   24.9430  -29.3790 N   0  0  0  0  0  0  0  0  0  0  0  0
  1  2  1  0
  2  3  2  0
  3  4  1  0
  4  5  2  0
  5  6  1  0
  5  7  1  0
  7  8  1  0
  8  9  1  0
  8 10  1  0
  8 11  1  0
 11 12  2  0
 12 13  1  0
 12 14  1  0
 14 15  1  0
 14 16  2  0
 16 17  1  0
 17 18  2  0
 17 19  1  0
 19 20  1  0
 20 21  1  0
 20 22  1  0
 20 23  1  0
 23 24  1  0
 23 25  1  0
 23 26  1  0
 26 27  1  0
 27 28  2  0
 28 29  1  0
 29 30  1  0
 29 31  2  0
 31 32  1  0
 31 33  1  0
 33 34  1  0
 33 35  2  0
 35 36  1  0
 26 37  1  0
 37 38  1  0
 37 39  1  0
 37 40  1  0
 40 41  1  0
 40 42  1  0
 16 43  1  0
 43 44  1  0
 43 45  2  0
 45 46  1  0
  7 47  2  0
 47 48  1  0
 48 49  2  0
 48 50  2  0
 48 51  1  0
 51 52  2  0
 52 53  1  0
 52 54  1  0
 54 55  1  0
 54 56  2  0
 56 57  1  0
 56 58  1  0
 58 59  1  0
 59 60  1  0
 59 61  1  0
 59 62  1  0
 58 63  2  0
 63 64  1  0
 47 65  1  0
 65  3  1  0
 45 11  1  0
 63 51  1  0
 40 19  1  0
 35 27  1  0
M  CHG  1  65  -1
M  END
>  <UniqueID>  (28) 
27

>  <SMILES>  (28) 
[H]/N=c1/ncc(Cc2ccc(C(=O)N3CCN(c4ccccn4)CC3)cc2)c(S(=O)(=O)c2cccc(C)c2)[n-]1

>  <Energy>  (28) 
84.39383770263908

>  <Genealogy>  (28) 
Cc1cccc(S(=O)(=O)c2[n-]c(=N)ncc2Cc2ccc(C(=O)N3CCN(c4ccccn4)CC3)cc2)c1 (protonated)
[H]/N=c1/ncc(Cc2ccc(C(=O)N3CCN(c4ccccn4)CC3)cc2)c(S(=O)(=O)c2cccc(C)c2)[n-]1 (cis-trans isomerization)
[H]/N=c1/ncc(Cc2ccc(C(=O)N3CCN(c4ccccn4)CC3)cc2)c(S(=O)(=O)c2cccc(C)c2)[n-]1 (3D coordinates assigned)
[H]/N=c1/ncc(Cc2ccc(C(=O)N3CCN(c4ccccn4)CC3)cc2)c(S(=O)(=O)c2cccc(C)c2)[n-]1 (nonaromatic ring conformer: 84.39383770263908 kcal/mol)

>  <smiles>  (28) 
Cc1cccc(S(=O)(=O)c2[nH]c(=N)ncc2Cc2ccc(C(=O)N3CCN(c4ccccn4)CC3)cc2)c1

>  <score_type>  (28) 
oracle

>  <origin>  (28) 
adgpu

>  <m_score__min__energy>  (28) 
-10.779999999999999

>  <m_primary>  (28) 
energy

$$$$
28:0
     RDKit          3D

 47 49  0  0  0  0  0  0  0  0999 V2000
   -2.9600   18.2500  -33.2200 C   0  0  0  0  0  0  0  0  0  0  0  0
   -4.2090   18.2080  -33.9940 N   0  0  0  0  0  0  0  0  0  0  0  0
   -4.9500   19.4810  -33.8420 C   0  0  0  0  0  0  0  0  0  0  0  0
   -6.4200   19.3190  -34.2530 C   0  0  0  0  0  0  0  0  0  0  0  0
   -7.1260   18.2960  -33.4440 N   0  0  0  0  0  0  0  0  0  0  0  0
   -8.1760   19.0420  -32.2630 S   0  0  0  0  0  0  0  0  0  0  0  0
   -8.3190   18.1400  -31.0670 O   0  0  0  0  0  0  0  0  0  0  0  0
   -9.5370   19.2740  -32.8590 O   0  0  0  0  0  0  0  0  0  0  0  0
   -7.5030   20.5950  -31.7770 C   0  0  0  0  0  0  0  0  0  0  0  0
   -8.3310   21.7120  -31.5950 C   0  0  0  0  0  0  0  0  0  0  0  0
   -7.7830   22.9370  -31.1990 C   0  0  0  0  0  0  0  0  0  0  0  0
   -6.4030   23.0540  -30.9850 C   0  0  0  0  0  0  0  0  0  0  0  0
   -5.7020   24.5950  -30.5020 S   0  0  0  0  0  0  0  0  0  0  0  0
   -6.0610   25.6760  -31.4840 O   0  0  0  0  0  0  0  0  0  0  0  0
   -6.2410   24.9660  -29.1490 O   0  0  0  0  0  0  0  0  0  0  0  0
   -3.9730   24.4590  -30.4130 N   0  0  0  0  0  0  0  0  0  0  0  0
   -3.2720   23.8540  -29.3100 C   0  0  0  0  0  0  0  0  0  0  0  0
   -3.7130   22.6450  -28.7340 C   0  0  0  0  0  0  0  0  0  0  0  0
   -3.0180   22.0760  -27.6640 C   0  0  0  0  0  0  0  0  0  0  0  0
   -1.8770   22.6980  -27.1580 C   0  0  0  0  0  0  0  0  0  0  0  0
   -1.4250   23.8920  -27.7240 C   0  0  0  0  0  0  0  0  0  0  0  0
   -2.1150   24.4700  -28.7950 C   0  0  0  0  0  0  0  0  0  0  0  0
   -1.6450   25.6610  -29.3390 O   0  0  0  0  0  0  0  0  0  0  0  0
   -5.5780   21.9350  -31.1600 C   0  0  0  0  0  0  0  0  0  0  0  0
   -6.1250   20.7120  -31.5540 C   0  0  0  0  0  0  0  0  0  0  0  0
   -6.2220   17.3390  -32.7720 C   0  0  0  0  0  0  0  0  0  0  0  0
   -5.0150   17.0060  -33.6600 C   0  0  0  0  0  0  0  0  0  0  0  0
   -3.1942   18.2421  -32.1453 H   0  0  0  0  0  0  0  0  0  0  0  0
   -2.3454   17.3720  -33.4678 H   0  0  0  0  0  0  0  0  0  0  0  0
   -2.4058   19.1673  -33.4678 H   0  0  0  0  0  0  0  0  0  0  0  0
   -4.9044   19.7995  -32.7901 H   0  0  0  0  0  0  0  0  0  0  0  0
   -4.4862   20.2346  -34.4954 H   0  0  0  0  0  0  0  0  0  0  0  0
   -6.9308   20.2847  -34.1245 H   0  0  0  0  0  0  0  0  0  0  0  0
   -6.4395   18.9879  -35.3018 H   0  0  0  0  0  0  0  0  0  0  0  0
   -9.4144   21.6249  -31.7640 H   0  0  0  0  0  0  0  0  0  0  0  0
   -8.4367   23.8100  -31.0554 H   0  0  0  0  0  0  0  0  0  0  0  0
   -3.4310   24.9270  -31.1740 H   0  0  0  0  0  0  0  0  0  0  0  0
   -4.6102   22.1465  -29.1297 H   0  0  0  0  0  0  0  0  0  0  0  0
   -3.3719   21.1343  -27.2192 H   0  0  0  0  0  0  0  0  0  0  0  0
   -1.3335   22.2486  -26.3138 H   0  0  0  0  0  0  0  0  0  0  0  0
   -0.5230   24.3799  -27.3262 H   0  0  0  0  0  0  0  0  0  0  0  0
   -4.4951   22.0202  -30.9863 H   0  0  0  0  0  0  0  0  0  0  0  0
   -5.4716   19.8376  -31.6897 H   0  0  0  0  0  0  0  0  0  0  0  0
   -5.8647   17.7819  -31.8306 H   0  0  0  0  0  0  0  0  0  0  0  0
   -6.7784   16.4109  -32.5744 H   0  0  0  0  0  0  0  0  0  0  0  0
   -4.3737   16.2869  -33.1293 H   0  0  0  0  0  0  0  0  0  0  0  0
   -5.3974   16.5862  -34.6021 H   0  0  0  0  0  0  0  0  0  0  0  0
  1  2  1  0
  2  3  1  0
  3  4  1  0
  4  5  1  0
  5  6  1  0
  6  7  2  0
  6  8  2  0
  6  9  1  0
  9 10  2  0
 10 11  1  0
 11 12  2  0
 12 13  1  0
 13 14  2  0
 13 15  2  0
 13 16  1  0
 16 17  1  0
 17 18  2  0
 18 19  1  0
 19 20  2  0
 20 21  1  0
 21 22  2  0
 22 23  1  0
 12 24  1  0
 24 25  2  0
  5 26  1  0
 26 27  1  0
 27  2  1  0
 25  9  1  0
 22 17  1  0
  1 28  1  0
  1 29  1  0
  1 30  1  0
  3 31  1  0
  3 32  1  0
  4 33  1  0
  4 34  1  0
 10 35  1  0
 11 36  1  0
 16 37  1  0
 18 38  1  0
 19 39  1  0
 20 40  1  0
 21 41  1  0
 24 42  1  0
 25 43  1  0
 26 44  1  0
 26 45  1  0
 27 46  1  0
 27 47  1  0
M  CHG  1  23  -1
M  END
>  <UniqueID>  (29) 
28

>  <SMILES>  (29) 
CN1CCN(S(=O)(=O)c2ccc(S(=O)(=O)Nc3ccccc3[O-])cc2)CC1

>  <Energy>  (29) 
61.8515449719152

>  <Genealogy>  (29) 
CN1CCN(S(=O)(=O)c2ccc(S(=O)(=O)Nc3ccccc3[O-])cc2)CC1 (protonated)
CN1CCN(S(=O)(=O)c2ccc(S(=O)(=O)Nc3ccccc3[O-])cc2)CC1 (3D coordinates assigned)
CN1CCN(S(=O)(=O)c2ccc(S(=O)(=O)Nc3ccccc3[O-])cc2)CC1 (nonaromatic ring conformer: 61.8515449719152 kcal/mol)

>  <smiles>  (29) 
CN1CCN(S(=O)(=O)c2ccc(S(=O)(=O)Nc3ccccc3O)cc2)CC1

>  <score_type>  (29) 
oracle

>  <origin>  (29) 
adgpu

>  <m_score__min__energy>  (29) 
-13.51

>  <m_primary>  (29) 
energy

$$$$
29:0
     RDKit          3D

 54 58  0  0  0  0  0  0  0  0999 V2000
   -5.6270   26.4920  -30.4820 O   0  0  0  0  0  0  0  0  0  0  0  0
   -4.9600   25.4900  -30.1120 C   0  0  0  0  0  0  0  0  0  0  0  0
   -3.8480   25.0670  -30.7650 N   0  0  0  0  0  0  0  0  0  0  0  0
   -3.4780   23.9970  -30.0370 C   0  0  0  0  0  0  0  0  0  0  0  0
   -2.3830   23.1630  -30.2440 C   0  0  0  0  0  0  0  0  0  0  0  0
   -2.1860   22.0970  -29.3430 C   0  0  0  0  0  0  0  0  0  0  0  0
   -0.7890   21.0420  -29.5440 S   0  0  0  0  0  0  0  0  0  0  0  0
   -1.2380   19.6120  -29.4480 O   0  0  0  0  0  0  0  0  0  0  0  0
    0.2230   21.3030  -28.4640 O   0  0  0  0  0  0  0  0  0  0  0  0
   -0.0680   21.3150  -31.1030 N   0  0  0  0  0  0  0  0  0  0  0  0
   -0.6260   20.4060  -32.1060 C   0  0  0  0  0  0  0  0  0  0  0  0
   -2.0410   20.8470  -32.4920 C   0  0  0  0  0  0  0  0  0  0  0  0
   -3.1310   20.0020  -31.8100 C   0  0  0  0  0  0  0  0  0  0  0  0
   -4.4250   20.0360  -32.5190 N   0  0  0  0  0  0  0  0  0  0  0  0
   -4.8280   18.8590  -33.2350 C   0  0  0  0  0  0  0  0  0  0  0  0
   -4.3340   18.6050  -34.5250 C   0  0  0  0  0  0  0  0  0  0  0  0
   -4.7310   17.4560  -35.2150 C   0  0  0  0  0  0  0  0  0  0  0  0
   -5.6230   16.5580  -34.6230 C   0  0  0  0  0  0  0  0  0  0  0  0
   -6.1220   16.8090  -33.3420 C   0  0  0  0  0  0  0  0  0  0  0  0
   -5.7340   17.9670  -32.6490 C   0  0  0  0  0  0  0  0  0  0  0  0
   -6.2510   18.2570  -31.2740 C   0  0  0  0  0  0  0  0  0  0  0  0
   -7.2300   19.4270  -31.3110 C   0  0  0  0  0  0  0  0  0  0  0  0
   -6.7090   20.7920  -31.7510 C   0  0  0  0  0  0  0  0  0  0  0  0
   -7.6010   21.8640  -31.5520 C   0  0  0  0  0  0  0  0  0  0  0  0
   -7.2370   23.1740  -31.8550 C   0  0  0  0  0  0  0  0  0  0  0  0
   -5.9660   23.4470  -32.3470 C   0  0  0  0  0  0  0  0  0  0  0  0
   -5.0580   22.4100  -32.5480 C   0  0  0  0  0  0  0  0  0  0  0  0
   -5.4070   21.0700  -32.2750 C   0  0  0  0  0  0  0  0  0  0  0  0
   -3.0860   21.9040  -28.2630 C   0  0  0  0  0  0  0  0  0  0  0  0
   -4.1820   22.7670  -28.0830 C   0  0  0  0  0  0  0  0  0  0  0  0
   -4.3420   23.8050  -28.9970 C   0  0  0  0  0  0  0  0  0  0  0  0
   -5.2920   24.7460  -29.0300 N   0  0  0  0  0  0  0  0  0  0  0  0
   -1.6931   23.3305  -31.0842 H   0  0  0  0  0  0  0  0  0  0  0  0
    0.0140   20.4153  -33.0006 H   0  0  0  0  0  0  0  0  0  0  0  0
   -0.6692   19.3906  -31.6851 H   0  0  0  0  0  0  0  0  0  0  0  0
   -2.1748   21.8985  -32.1979 H   0  0  0  0  0  0  0  0  0  0  0  0
   -2.1469   20.7130  -33.5787 H   0  0  0  0  0  0  0  0  0  0  0  0
   -2.7858   18.9586  -31.7633 H   0  0  0  0  0  0  0  0  0  0  0  0
   -3.2962   20.4291  -30.8098 H   0  0  0  0  0  0  0  0  0  0  0  0
   -3.6332   19.3118  -34.9933 H   0  0  0  0  0  0  0  0  0  0  0  0
   -4.3411   17.2586  -36.2245 H   0  0  0  0  0  0  0  0  0  0  0  0
   -5.9327   15.6527  -35.1658 H   0  0  0  0  0  0  0  0  0  0  0  0
   -6.8200   16.0981  -32.8757 H   0  0  0  0  0  0  0  0  0  0  0  0
   -6.7652   17.3660  -30.8845 H   0  0  0  0  0  0  0  0  0  0  0  0
   -5.4048   18.5195  -30.6220 H   0  0  0  0  0  0  0  0  0  0  0  0
   -8.0419   19.1507  -31.9998 H   0  0  0  0  0  0  0  0  0  0  0  0
   -7.5192   19.5726  -30.2597 H   0  0  0  0  0  0  0  0  0  0  0  0
   -8.6047   21.6627  -31.1494 H   0  0  0  0  0  0  0  0  0  0  0  0
   -7.9559   23.9929  -31.7048 H   0  0  0  0  0  0  0  0  0  0  0  0
   -5.6769   24.4829  -32.5778 H   0  0  0  0  0  0  0  0  0  0  0  0
   -4.0509   22.6396  -32.9263 H   0  0  0  0  0  0  0  0  0  0  0  0
   -2.9252   21.0727  -27.5608 H   0  0  0  0  0  0  0  0  0  0  0  0
   -4.8871   22.6269  -27.2504 H   0  0  0  0  0  0  0  0  0  0  0  0
   -6.0960   24.8780  -28.3760 H   0  0  0  0  0  0  0  0  0  0  0  0
  1  2  2  0
  2  3  1  0
  3  4  1  0
  4  5  2  0
  5  6  1  0
  6  7  1  0
  7  8  2  0
  7  9  2  0
  7 10  1  0
 10 11  1  0
 11 12  1  0
 12 13  1  0
 13 14  1  0
 14 15  1  0
 15 16  2  0
 16 17  1  0
 17 18  2  0
 18 19  1  0
 19 20  2  0
 20 21  1  0
 21 22  1  0
 22 23  1  0
 23 24  2  0
 24 25  1  0
 25 26  2  0
 26 27  1  0
 27 28  2  0
  6 29  2  0
 29 30  1  0
 30 31  2  0
 31 32  1  0
 32  2  1  0
 31  4  1  0
 28 14  1  0
 20 15  1  0
 28 23  1  0
  5 33  1  0
 11 34  1  0
 11 35  1  0
 12 36  1  0
 12 37  1  0
 13 38  1  0
 13 39  1  0
 16 40  1  0
 17 41  1  0
 18 42  1  0
 19 43  1  0
 21 44  1  0
 21 45  1  0
 22 46  1  0
 22 47  1  0
 24 48  1  0
 25 49  1  0
 26 50  1  0
 27 51  1  0
 29 52  1  0
 30 53  1  0
 32 54  1  0
M  CHG  2   3  -1  10  -1
M  END
>  <UniqueID>  (30) 
29

>  <SMILES>  (30) 
O=c1[n-]c2cc(S(=O)(=O)[N-]CCCN3c4ccccc4CCc4ccccc43)ccc2[nH]1

>  <Energy>  (30) 
110.73104420251207

>  <Genealogy>  (30) 
O=c1[n-]c2cc(S(=O)(=O)[N-]CCCN3c4ccccc4CCc4ccccc43)ccc2[nH]1 (protonated)
O=c1[n-]c2cc(S(=O)(=O)[N-]CCCN3c4ccccc4CCc4ccccc43)ccc2[nH]1 (3D coordinates assigned)
O=c1[n-]c2cc(S(=O)(=O)[N-]CCCN3c4ccccc4CCc4ccccc43)ccc2[nH]1 (nonaromatic ring conformer: 110.73104420251207 kcal/mol)

>  <smiles>  (30) 
O=c1[nH]c2ccc(S(=O)(=O)NCCCN3c4ccccc4CCc4ccccc43)cc2[nH]1

>  <score_type>  (30) 
oracle

>  <origin>  (30) 
adgpu

>  <m_score__min__energy>  (30) 
-10.119999999999999

>  <m_primary>  (30) 
energy

$$$$
30:0
     RDKit          3D

 60 63  0  0  0  0  0  0  0  0999 V2000
   -3.5980   21.8050  -33.4020 O   0  0  0  0  0  0  0  0  0  0  0  0
   -3.0180   22.0490  -32.3090 C   0  0  0  0  0  0  0  0  0  0  0  0
   -3.3350   23.2470  -31.5970 N   0  0  0  0  0  0  0  0  0  0  0  0
   -4.6680   23.5690  -31.1780 C   0  0  0  0  0  0  0  0  0  0  0  0
   -5.7400   22.6920  -31.4240 C   0  0  0  0  0  0  0  0  0  0  0  0
   -7.0320   22.9980  -30.9780 C   0  0  0  0  0  0  0  0  0  0  0  0
   -8.3520   21.8620  -31.2700 S   0  0  0  0  0  0  0  0  0  0  0  0
   -9.2300   22.3910  -32.3720 O   0  0  0  0  0  0  0  0  0  0  0  0
   -9.1800   21.7470  -30.0190 O   0  0  0  0  0  0  0  0  0  0  0  0
   -7.7250   20.2850  -31.6960 N   0  0  0  0  0  0  0  0  0  0  0  0
   -8.8370   19.3380  -31.8790 C   0  0  0  0  0  0  0  0  0  0  0  0
   -8.3040   17.9010  -32.0400 C   0  0  0  0  0  0  0  0  0  0  0  0
   -6.8630   17.8650  -32.5800 C   0  0  0  0  0  0  0  0  0  0  0  0
   -6.6220   19.0060  -33.5660 C   0  0  0  0  0  0  0  0  0  0  0  0
   -6.8990   20.3800  -32.9210 C   0  0  0  0  0  0  0  0  0  0  0  0
   -7.2590   24.2050  -30.3070 C   0  0  0  0  0  0  0  0  0  0  0  0
   -6.2060   25.0970  -30.0900 C   0  0  0  0  0  0  0  0  0  0  0  0
   -4.9120   24.7810  -30.5220 C   0  0  0  0  0  0  0  0  0  0  0  0
   -3.8710   25.6730  -30.2890 O   0  0  0  0  0  0  0  0  0  0  0  0
   -1.9160   21.1860  -31.8510 C   0  0  0  0  0  0  0  0  0  0  0  0
   -1.6680   21.0960  -30.4740 C   0  0  0  0  0  0  0  0  0  0  0  0
   -0.6990   20.2150  -29.9770 C   0  0  0  0  0  0  0  0  0  0  0  0
   -0.4610   20.0420  -28.2400 S   0  0  0  0  0  0  0  0  0  0  0  0
   -1.3690   18.9660  -27.7090 O   0  0  0  0  0  0  0  0  0  0  0  0
    0.9630   19.6270  -27.9890 O   0  0  0  0  0  0  0  0  0  0  0  0
   -0.7860   21.5570  -27.4310 N   0  0  0  0  0  0  0  0  0  0  0  0
    0.1480   22.6150  -27.8770 C   0  0  0  0  0  0  0  0  0  0  0  0
   -0.5080   23.5840  -28.8790 C   0  0  0  0  0  0  0  0  0  0  0  0
   -1.6660   24.2320  -28.3680 O   0  0  0  0  0  0  0  0  0  0  0  0
   -2.4010   23.4410  -27.4420 C   0  0  0  0  0  0  0  0  0  0  0  0
   -2.2030   21.9270  -27.6210 C   0  0  0  0  0  0  0  0  0  0  0  0
    0.0540   19.4460  -30.8700 C   0  0  0  0  0  0  0  0  0  0  0  0
   -0.1750   19.5380  -32.2460 C   0  0  0  0  0  0  0  0  0  0  0  0
   -1.1550   20.4010  -32.7470 C   0  0  0  0  0  0  0  0  0  0  0  0
   -1.3330   20.4720  -34.1300 O   0  0  0  0  0  0  0  0  0  0  0  0
   -5.5616   21.7555  -31.9727 H   0  0  0  0  0  0  0  0  0  0  0  0
   -9.4979   19.3823  -31.0008 H   0  0  0  0  0  0  0  0  0  0  0  0
   -9.3926   19.6143  -32.7873 H   0  0  0  0  0  0  0  0  0  0  0  0
   -8.3257   17.4045  -31.0587 H   0  0  0  0  0  0  0  0  0  0  0  0
   -8.9472   17.3850  -32.7680 H   0  0  0  0  0  0  0  0  0  0  0  0
   -6.1607   17.9614  -31.7389 H   0  0  0  0  0  0  0  0  0  0  0  0
   -6.7073   16.9098  -33.1029 H   0  0  0  0  0  0  0  0  0  0  0  0
   -5.5748   18.9733  -33.9012 H   0  0  0  0  0  0  0  0  0  0  0  0
   -7.3097   18.8789  -34.4151 H   0  0  0  0  0  0  0  0  0  0  0  0
   -5.9372   20.8459  -32.6606 H   0  0  0  0  0  0  0  0  0  0  0  0
   -7.4601   20.9808  -33.6519 H   0  0  0  0  0  0  0  0  0  0  0  0
   -8.2695   24.4520  -29.9494 H   0  0  0  0  0  0  0  0  0  0  0  0
   -6.3942   26.0519  -29.5775 H   0  0  0  0  0  0  0  0  0  0  0  0
   -2.2408   21.7243  -29.7761 H   0  0  0  0  0  0  0  0  0  0  0  0
    0.4822   23.1862  -26.9984 H   0  0  0  0  0  0  0  0  0  0  0  0
    0.9947   22.1276  -28.3826 H   0  0  0  0  0  0  0  0  0  0  0  0
    0.2291   24.3534  -29.1525 H   0  0  0  0  0  0  0  0  0  0  0  0
   -0.8282   22.9856  -29.7447 H   0  0  0  0  0  0  0  0  0  0  0  0
   -2.0834   23.7139  -26.4248 H   0  0  0  0  0  0  0  0  0  0  0  0
   -3.4665   23.6470  -27.6214 H   0  0  0  0  0  0  0  0  0  0  0  0
   -2.8174   21.3930  -26.8811 H   0  0  0  0  0  0  0  0  0  0  0  0
   -2.5057   21.6502  -28.6417 H   0  0  0  0  0  0  0  0  0  0  0  0
    0.8297   18.7659  -30.4881 H   0  0  0  0  0  0  0  0  0  0  0  0
    0.4203   18.9268  -32.9402 H   0  0  0  0  0  0  0  0  0  0  0  0
   -1.9040   21.1770  -34.5740 H   0  0  0  0  0  0  0  0  0  0  0  0
  1  2  2  0
  2  3  1  0
  3  4  1  0
  4  5  2  0
  5  6  1  0
  6  7  1  0
  7  8  2  0
  7  9  2  0
  7 10  1  0
 10 11  1  0
 11 12  1  0
 12 13  1  0
 13 14  1  0
 14 15  1  0
  6 16  2  0
 16 17  1  0
 17 18  2  0
 18 19  1  0
  2 20  1  0
 20 21  2  0
 21 22  1  0
 22 23  1  0
 23 24  2  0
 23 25  2  0
 23 26  1  0
 26 27  1  0
 27 28  1  0
 28 29  1  0
 29 30  1  0
 30 31  1  0
 22 32  2  0
 32 33  1  0
 33 34  2  0
 34 35  1  0
 18  4  1  0
 34 20  1  0
 15 10  1  0
 31 26  1  0
  5 36  1  0
 11 37  1  0
 11 38  1  0
 12 39  1  0
 12 40  1  0
 13 41  1  0
 13 42  1  0
 14 43  1  0
 14 44  1  0
 15 45  1  0
 15 46  1  0
 16 47  1  0
 17 48  1  0
 21 49  1  0
 27 50  1  0
 27 51  1  0
 28 52  1  0
 28 53  1  0
 30 54  1  0
 30 55  1  0
 31 56  1  0
 31 57  1  0
 32 58  1  0
 33 59  1  0
 35 60  1  0
M  CHG  2   3  -1  19  -1
M  END
>  <UniqueID>  (31) 
30

>  <SMILES>  (31) 
O=C([N-]c1cc(S(=O)(=O)N2CCCCC2)ccc1[O-])c1cc(S(=O)(=O)N2CCOCC2)ccc1O

>  <Energy>  (31) 
91.94960288847822

>  <Genealogy>  (31) 
O=C([N-]c1cc(S(=O)(=O)N2CCCCC2)ccc1[O-])c1cc(S(=O)(=O)N2CCOCC2)ccc1O (protonated)
O=C([N-]c1cc(S(=O)(=O)N2CCCCC2)ccc1[O-])c1cc(S(=O)(=O)N2CCOCC2)ccc1O (3D coordinates assigned)
O=C([N-]c1cc(S(=O)(=O)N2CCCCC2)ccc1[O-])c1cc(S(=O)(=O)N2CCOCC2)ccc1O (nonaromatic ring conformer: 91.94960288847822 kcal/mol)

>  <smiles>  (31) 
O=C(Nc1cc(S(=O)(=O)N2CCCCC2)ccc1O)c1cc(S(=O)(=O)N2CCOCC2)ccc1O

>  <score_type>  (31) 
oracle

>  <origin>  (31) 
adgpu

>  <m_score__min__energy>  (31) 
-14.41

>  <m_primary>  (31) 
energy

$$$$
31:0
     RDKit          3D

 38 39  0  0  0  0  0  0  0  0999 V2000
   -3.6380   18.1210  -34.2070 C   0  0  0  0  0  0  0  0  0  0  0  0
   -3.5530   19.5160  -33.9320 O   0  0  0  0  0  0  0  0  0  0  0  0
   -4.5510   20.2630  -33.2850 C   0  0  0  0  0  0  0  0  0  0  0  0
   -5.8910   19.8350  -33.2350 C   0  0  0  0  0  0  0  0  0  0  0  0
   -6.8670   20.6020  -32.5700 C   0  0  0  0  0  0  0  0  0  0  0  0
   -8.2120   20.1970  -32.5130 O   0  0  0  0  0  0  0  0  0  0  0  0
   -8.6680   18.9720  -31.9450 C   0  0  0  0  0  0  0  0  0  0  0  0
   -6.4900   21.8060  -31.9490 C   0  0  0  0  0  0  0  0  0  0  0  0
   -7.6770   22.7870  -31.0800 S   0  0  0  0  0  0  0  0  0  0  0  0
   -8.7610   21.9220  -30.4980 O   0  0  0  0  0  0  0  0  0  0  0  0
   -8.2910   23.7620  -32.0450 O   0  0  0  0  0  0  0  0  0  0  0  0
   -6.9160   23.6680  -29.7910 N   0  0  0  0  0  0  0  0  0  0  0  0
   -5.5050   23.9600  -29.7390 C   0  0  0  0  0  0  0  0  0  0  0  0
   -4.6210   23.2040  -28.9450 C   0  0  0  0  0  0  0  0  0  0  0  0
   -3.2580   23.4950  -28.9370 C   0  0  0  0  0  0  0  0  0  0  0  0
   -2.7780   24.5470  -29.7160 C   0  0  0  0  0  0  0  0  0  0  0  0
   -3.6360   25.2800  -30.4700 N   0  0  0  0  0  0  0  0  0  0  0  0
   -4.9710   25.0190  -30.5010 C   0  0  0  0  0  0  0  0  0  0  0  0
   -5.7210   25.7300  -31.2230 O   0  0  0  0  0  0  0  0  0  0  0  0
   -5.1610   22.2420  -32.0230 C   0  0  0  0  0  0  0  0  0  0  0  0
   -4.1850   21.4700  -32.6750 C   0  0  0  0  0  0  0  0  0  0  0  0
   -2.8400   21.8680  -32.7360 O   0  0  0  0  0  0  0  0  0  0  0  0
   -1.8550   21.5380  -31.7610 C   0  0  0  0  0  0  0  0  0  0  0  0
   -3.6721   17.5620  -33.2602 H   0  0  0  0  0  0  0  0  0  0  0  0
   -4.5503   17.9164  -34.7866 H   0  0  0  0  0  0  0  0  0  0  0  0
   -2.7573   17.8072  -34.7866 H   0  0  0  0  0  0  0  0  0  0  0  0
   -6.1790   18.8910  -33.7207 H   0  0  0  0  0  0  0  0  0  0  0  0
   -8.6411   19.0442  -30.8477 H   0  0  0  0  0  0  0  0  0  0  0  0
   -9.6991   18.7765  -32.2745 H   0  0  0  0  0  0  0  0  0  0  0  0
   -8.0157   18.1498  -32.2745 H   0  0  0  0  0  0  0  0  0  0  0  0
   -7.5500   24.0620  -29.0590 H   0  0  0  0  0  0  0  0  0  0  0  0
   -5.0082   22.3797  -28.3281 H   0  0  0  0  0  0  0  0  0  0  0  0
   -2.5671   22.9000  -28.3216 H   0  0  0  0  0  0  0  0  0  0  0  0
   -1.7036   24.7829  -29.7195 H   0  0  0  0  0  0  0  0  0  0  0  0
   -4.8779   23.2011  -31.5648 H   0  0  0  0  0  0  0  0  0  0  0  0
   -2.2745   21.6785  -30.7539 H   0  0  0  0  0  0  0  0  0  0  0  0
   -1.5503   20.4887  -31.8882 H   0  0  0  0  0  0  0  0  0  0  0  0
   -0.9797   22.1920  -31.8882 H   0  0  0  0  0  0  0  0  0  0  0  0
  1  2  1  0
  2  3  1  0
  3  4  2  0
  4  5  1  0
  5  6  1  0
  6  7  1  0
  5  8  2  0
  8  9  1  0
  9 10  2  0
  9 11  2  0
  9 12  1  0
 12 13  1  0
 13 14  2  0
 14 15  1  0
 15 16  2  0
 16 17  1  0
 17 18  1  0
 18 19  2  0
  8 20  1  0
 20 21  2  0
 21 22  1  0
 22 23  1  0
 21  3  1  0
 18 13  1  0
  1 24  1  0
  1 25  1  0
  1 26  1  0
  4 27  1  0
  7 28  1  0
  7 29  1  0
  7 30  1  0
 12 31  1  0
 14 32  1  0
 15 33  1  0
 16 34  1  0
 20 35  1  0
 23 36  1  0
 23 37  1  0
 23 38  1  0
M  CHG  1  17  -1
M  END
>  <UniqueID>  (32) 
31

>  <SMILES>  (32) 
COc1cc(OC)c(S(=O)(=O)Nc2ccc[n-]c2=O)cc1OC

>  <Energy>  (32) 
41.708479344820084

>  <Genealogy>  (32) 
COc1cc(OC)c(S(=O)(=O)Nc2ccc[n-]c2=O)cc1OC (protonated)
COc1cc(OC)c(S(=O)(=O)Nc2ccc[n-]c2=O)cc1OC (3D coordinates assigned)
COc1cc(OC)c(S(=O)(=O)Nc2ccc[n-]c2=O)cc1OC (optimized conformer: 41.708479344820084 kcal/mol)

>  <smiles>  (32) 
COc1cc(OC)c(S(=O)(=O)Nc2ccc[nH]c2=O)cc1OC

>  <score_type>  (32) 
oracle

>  <origin>  (32) 
adgpu

>  <m_score__min__energy>  (32) 
-8.5700000000000003

>  <m_primary>  (32) 
energy

$$$$
32:0
     RDKit          3D

 76 80  0  0  0  0  0  0  0  0999 V2000
    0.6230   30.4920  -22.4270 H   0  0  0  0  0  0  0  0  0  0  0  0
    1.5690   30.0840  -22.2480 N   0  0  0  0  0  0  0  0  0  0  0  0
    1.8640   28.7340  -22.6010 C   0  0  0  0  0  0  0  0  0  0  0  0
    2.8200   28.1440  -22.0270 O   0  0  0  0  0  0  0  0  0  0  0  0
    1.0620   28.0310  -23.6280 C   0  0  0  0  0  0  0  0  0  0  0  0
    1.3060   28.2300  -24.9960 C   0  0  0  0  0  0  0  0  0  0  0  0
    2.1045   28.9159  -25.3152 H   0  0  0  0  0  0  0  0  0  0  0  0
    0.5600   27.5790  -25.9290 N   0  0  0  0  0  0  0  0  0  0  0  0
   -0.4450   26.7270  -25.5920 C   0  0  0  0  0  0  0  0  0  0  0  0
   -1.1890   26.0580  -26.6260 N   0  0  0  0  0  0  0  0  0  0  0  0
   -0.6260   26.0090  -27.9840 C   0  0  0  0  0  0  0  0  0  0  0  0
    0.3309   25.4674  -27.9532 H   0  0  0  0  0  0  0  0  0  0  0  0
   -0.4848   27.0427  -28.3326 H   0  0  0  0  0  0  0  0  0  0  0  0
   -1.5670   25.2990  -28.9670 C   0  0  0  0  0  0  0  0  0  0  0  0
   -1.0023   25.0150  -29.8673 H   0  0  0  0  0  0  0  0  0  0  0  0
   -2.3858   25.9839  -29.2325 H   0  0  0  0  0  0  0  0  0  0  0  0
   -2.1380   24.0920  -28.3540 N   0  0  0  0  0  0  0  0  0  0  0  0
   -2.5310   23.0080  -29.2120 C   0  0  0  0  0  0  0  0  0  0  0  0
   -1.7330   21.8510  -29.2530 C   0  0  0  0  0  0  0  0  0  0  0  0
   -0.5740   21.8050  -28.4610 O   0  0  0  0  0  0  0  0  0  0  0  0
   -0.5420   21.3990  -27.0960 C   0  0  0  0  0  0  0  0  0  0  0  0
   -0.6119   22.2852  -26.4481 H   0  0  0  0  0  0  0  0  0  0  0  0
   -1.3901   20.7286  -26.8929 H   0  0  0  0  0  0  0  0  0  0  0  0
    0.4006   20.8697  -26.8929 H   0  0  0  0  0  0  0  0  0  0  0  0
   -2.1110   20.7770  -30.0770 C   0  0  0  0  0  0  0  0  0  0  0  0
   -1.5046   19.8593  -30.0890 H   0  0  0  0  0  0  0  0  0  0  0  0
   -3.2530   20.8650  -30.8830 C   0  0  0  0  0  0  0  0  0  0  0  0
   -3.6860   19.7500  -31.6780 N   0  0  0  0  0  0  0  0  0  0  0  0
   -2.9760   19.0610  -32.5290 C   0  0  0  0  0  0  0  0  0  0  0  0
   -3.5490   17.9200  -33.1060 C   0  0  0  0  0  0  0  0  0  0  0  0
   -4.5768   17.6289  -32.8436 H   0  0  0  0  0  0  0  0  0  0  0  0
   -2.8150   17.1500  -34.0160 C   0  0  0  0  0  0  0  0  0  0  0  0
   -3.3770   15.9120  -34.6010 C   0  0  0  0  0  0  0  0  0  0  0  0
   -3.1090   15.4530  -35.8740 C   0  0  0  0  0  0  0  0  0  0  0  0
   -2.4054   15.9166  -36.5811 H   0  0  0  0  0  0  0  0  0  0  0  0
   -3.8410   14.3510  -36.1170 N   0  0  0  0  0  0  0  0  0  0  0  0
   -4.5480   14.1530  -34.9830 C   0  0  0  0  0  0  0  0  0  0  0  0
   -5.5680   13.0520  -34.8680 C   0  0  0  0  0  0  0  0  0  0  0  0
   -5.5632   12.4562  -35.7927 H   0  0  0  0  0  0  0  0  0  0  0  0
   -5.3111   12.4178  -34.0067 H   0  0  0  0  0  0  0  0  0  0  0  0
   -6.8600   13.5920  -34.6690 O   0  0  0  0  0  0  0  0  0  0  0  0
   -7.7820   12.9810  -35.5450 C   0  0  0  0  0  0  0  0  0  0  0  0
   -8.5583   12.4665  -34.9596 H   0  0  0  0  0  0  0  0  0  0  0  0
   -8.2494   13.7487  -36.1791 H   0  0  0  0  0  0  0  0  0  0  0  0
   -7.2571   12.2514  -36.1791 H   0  0  0  0  0  0  0  0  0  0  0  0
   -4.2930   15.0930  -34.0350 N   0  0  0  0  0  0  0  0  0  0  0  0
   -4.9560   15.2480  -32.7340 C   0  0  0  0  0  0  0  0  0  0  0  0
   -6.0455   15.2618  -32.8852 H   0  0  0  0  0  0  0  0  0  0  0  0
   -4.6172   16.1904  -32.2789 H   0  0  0  0  0  0  0  0  0  0  0  0
   -4.5970   14.0980  -31.7940 C   0  0  0  0  0  0  0  0  0  0  0  0
   -4.7010   14.4310  -30.7508 H   0  0  0  0  0  0  0  0  0  0  0  0
   -5.2731   13.2499  -31.9773 H   0  0  0  0  0  0  0  0  0  0  0  0
   -3.5585   13.7852  -31.9773 H   0  0  0  0  0  0  0  0  0  0  0  0
   -1.5040   17.5340  -34.3260 C   0  0  0  0  0  0  0  0  0  0  0  0
   -0.8981   16.9259  -35.0138 H   0  0  0  0  0  0  0  0  0  0  0  0
   -0.9710   18.6900  -33.7590 C   0  0  0  0  0  0  0  0  0  0  0  0
    0.0512   19.0040  -34.0170 H   0  0  0  0  0  0  0  0  0  0  0  0
   -1.7070   19.4330  -32.8880 N   0  0  0  0  0  0  0  0  0  0  0  0
   -1.2760   20.3140  -32.5320 H   0  0  0  0  0  0  0  0  0  0  0  0
   -4.0610   22.0020  -30.8130 C   0  0  0  0  0  0  0  0  0  0  0  0
   -4.9800   22.0514  -31.4154 H   0  0  0  0  0  0  0  0  0  0  0  0
   -3.7170   23.0860  -29.9830 C   0  0  0  0  0  0  0  0  0  0  0  0
   -4.5970   24.3190  -29.9390 C   0  0  0  0  0  0  0  0  0  0  0  0
   -4.9630   24.6440  -28.6430 F   0  0  0  0  0  0  0  0  0  0  0  0
   -3.9240   25.4020  -30.4730 F   0  0  0  0  0  0  0  0  0  0  0  0
   -5.7480   24.0940  -30.6700 F   0  0  0  0  0  0  0  0  0  0  0  0
   -2.6720   24.1350  -26.9850 C   0  0  0  0  0  0  0  0  0  0  0  0
   -2.1164   23.4188  -26.3618 H   0  0  0  0  0  0  0  0  0  0  0  0
   -3.7401   23.8746  -27.0224 H   0  0  0  0  0  0  0  0  0  0  0  0
   -2.5390   25.5320  -26.3760 C   0  0  0  0  0  0  0  0  0  0  0  0
   -2.7139   25.4757  -25.2915 H   0  0  0  0  0  0  0  0  0  0  0  0
   -3.2805   26.2011  -26.8369 H   0  0  0  0  0  0  0  0  0  0  0  0
   -0.7120   26.4870  -24.2350 C   0  0  0  0  0  0  0  0  0  0  0  0
   -1.5086   25.7867  -23.9434 H   0  0  0  0  0  0  0  0  0  0  0  0
    0.0390   27.1420  -23.2580 C   0  0  0  0  0  0  0  0  0  0  0  0
   -0.1710   26.9614  -22.1934 H   0  0  0  0  0  0  0  0  0  0  0  0
  1  2  1  0
  2  3  1  0
  3  4  2  0
  3  5  1  0
  5  6  2  0
  6  7  1  0
  6  8  1  0
  8  9  2  0
  9 10  1  0
 10 11  1  0
 11 12  1  0
 11 13  1  0
 11 14  1  0
 14 15  1  0
 14 16  1  0
 14 17  1  0
 17 18  1  0
 18 19  2  0
 19 20  1  0
 20 21  1  0
 21 22  1  0
 21 23  1  0
 21 24  1  0
 19 25  1  0
 25 26  1  0
 25 27  2  0
 27 28  1  0
 28 29  2  0
 29 30  1  0
 30 31  1  0
 30 32  2  0
 32 33  1  0
 33 34  2  0
 34 35  1  0
 34 36  1  0
 36 37  2  0
 37 38  1  0
 38 39  1  0
 38 40  1  0
 38 41  1  0
 41 42  1  0
 42 43  1  0
 42 44  1  0
 42 45  1  0
 37 46  1  0
 46 47  1  0
 47 48  1  0
 47 49  1  0
 47 50  1  0
 50 51  1  0
 50 52  1  0
 50 53  1  0
 32 54  1  0
 54 55  1  0
 54 56  2  0
 56 57  1  0
 56 58  1  0
 58 59  1  0
 27 60  1  0
 60 61  1  0
 60 62  2  0
 62 63  1  0
 63 64  1  0
 63 65  1  0
 63 66  1  0
 17 67  1  0
 67 68  1  0
 67 69  1  0
 67 70  1  0
 70 71  1  0
 70 72  1  0
  9 73  1  0
 73 74  1  0
 73 75  2  0
 75 76  1  0
 75  5  1  0
 70 10  1  0
 62 18  1  0
 58 29  1  0
 46 33  1  0
M  CHG  1   2  -1
M  END
>  <UniqueID>  (33) 
32

>  <SMILES>  (33) 
CCn1c(-c2cc[nH]/c(=N\c3cc(OC)c(N4CCN(c5ccc(C([NH-])=O)cn5)CC4)c(C(F)(F)F)c3)c2)cnc1COC

>  <Energy>  (33) 
135.42906638995967

>  <Genealogy>  (33) 
CCn1c(-c2cc[nH]c(=Nc3cc(OC)c(N4CCN(c5ccc(C([NH-])=O)cn5)CC4)c(C(F)(F)F)c3)c2)cnc1COC (protonated)
CCn1c(-c2cc[nH]/c(=N\c3cc(OC)c(N4CCN(c5ccc(C([NH-])=O)cn5)CC4)c(C(F)(F)F)c3)c2)cnc1COC (cis-trans isomerization)
CCn1c(-c2cc[nH]/c(=N\c3cc(OC)c(N4CCN(c5ccc(C([NH-])=O)cn5)CC4)c(C(F)(F)F)c3)c2)cnc1COC (3D coordinates assigned)
CCn1c(-c2cc[nH]/c(=N\c3cc(OC)c(N4CCN(c5ccc(C([NH-])=O)cn5)CC4)c(C(F)(F)F)c3)c2)cnc1COC (nonaromatic ring conformer: 135.42906638995967 kcal/mol)

>  <smiles>  (33) 
CCn1c(-c2cc[nH]c(=Nc3cc(OC)c(N4CCN(c5ccc(C(N)=O)cn5)CC4)c(C(F)(F)F)c3)c2)cnc1COC

>  <score_type>  (33) 
oracle

>  <origin>  (33) 
adgpu

>  <m_score__min__energy>  (33) 
-5.6699999999999999

>  <m_primary>  (33) 
energy

$$$$
33:0
     RDKit          3D

 47 49  0  0  0  0  0  0  0  0999 V2000
   -4.3000   17.4110  -35.1200 C   0  0  0  0  0  0  0  0  0  0  0  0
   -4.4740   18.4300  -34.0690 N   0  0  1  0  0  0  0  0  0  0  0  0
   -5.0890   17.8860  -32.8360 C   0  0  0  0  0  0  0  0  0  0  0  0
   -6.4780   18.4020  -32.5620 C   0  0  0  0  0  0  0  0  0  0  0  0
   -7.3010   17.9990  -31.5300 C   0  0  0  0  0  0  0  0  0  0  0  0
   -8.4620   18.7290  -31.6740 C   0  0  0  0  0  0  0  0  0  0  0  0
   -8.2730   19.5320  -32.7820 C   0  0  0  0  0  0  0  0  0  0  0  0
   -7.0810   19.3150  -33.2890 O   0  0  0  0  0  0  0  0  0  0  0  0
   -3.2180   19.1040  -33.7910 C   0  0  0  0  0  0  0  0  0  0  0  0
   -2.1510   18.6960  -34.3310 O   0  0  0  0  0  0  0  0  0  0  0  0
   -3.1440   20.2510  -32.8550 C   0  0  0  0  0  0  0  0  0  0  0  0
   -4.3020   20.9950  -32.5740 C   0  0  0  0  0  0  0  0  0  0  0  0
   -4.2530   22.0710  -31.6840 C   0  0  0  0  0  0  0  0  0  0  0  0
   -3.0520   22.4110  -31.0520 C   0  0  0  0  0  0  0  0  0  0  0  0
   -3.0060   23.7840  -29.9490 S   0  0  0  0  0  0  0  0  0  0  0  0
   -1.5830   24.1850  -29.6720 O   0  0  0  0  0  0  0  0  0  0  0  0
   -3.6530   23.3910  -28.6520 O   0  0  0  0  0  0  0  0  0  0  0  0
   -3.8670   25.1260  -30.6350 N   0  0  0  0  0  0  0  0  0  0  0  0
   -5.1690   25.2610  -29.9890 C   0  0  0  0  0  0  0  0  0  0  0  0
   -6.1160   24.2530  -30.5740 C   0  0  0  0  0  0  0  0  0  0  0  0
   -6.7780   23.3360  -29.7410 C   0  0  0  0  0  0  0  0  0  0  0  0
   -7.6860   22.4200  -30.2830 C   0  0  0  0  0  0  0  0  0  0  0  0
   -7.9460   22.4220  -31.6560 C   0  0  0  0  0  0  0  0  0  0  0  0
   -7.3040   23.3430  -32.4880 C   0  0  0  0  0  0  0  0  0  0  0  0
   -6.3960   24.2600  -31.9500 C   0  0  0  0  0  0  0  0  0  0  0  0
   -1.8960   21.6660  -31.3190 C   0  0  0  0  0  0  0  0  0  0  0  0
   -1.9420   20.5900  -32.2100 C   0  0  0  0  0  0  0  0  0  0  0  0
   -4.1323   16.4287  -34.6542 H   0  0  0  0  0  0  0  0  0  0  0  0
   -5.2043   17.3708  -35.7450 H   0  0  0  0  0  0  0  0  0  0  0  0
   -3.4336   17.6731  -35.7450 H   0  0  0  0  0  0  0  0  0  0  0  0
   -5.1610   19.1240  -34.4430 H   0  0  0  0  0  0  0  0  0  0  0  0
   -5.1394   16.7911  -32.9292 H   0  0  0  0  0  0  0  0  0  0  0  0
   -4.4580   18.2124  -31.9962 H   0  0  0  0  0  0  0  0  0  0  0  0
   -7.0775   17.2516  -30.7545 H   0  0  0  0  0  0  0  0  0  0  0  0
   -9.3569   18.6815  -31.0361 H   0  0  0  0  0  0  0  0  0  0  0  0
   -9.0097   20.2455  -33.1797 H   0  0  0  0  0  0  0  0  0  0  0  0
   -5.2534   20.7288  -33.0577 H   0  0  0  0  0  0  0  0  0  0  0  0
   -5.1632   22.6537  -31.4792 H   0  0  0  0  0  0  0  0  0  0  0  0
   -5.0640   25.0837  -28.9085 H   0  0  0  0  0  0  0  0  0  0  0  0
   -5.5604   26.2757  -30.1538 H   0  0  0  0  0  0  0  0  0  0  0  0
   -6.5818   23.3381  -28.6586 H   0  0  0  0  0  0  0  0  0  0  0  0
   -8.1955   21.6979  -29.6281 H   0  0  0  0  0  0  0  0  0  0  0  0
   -8.6564   21.6982  -32.0820 H   0  0  0  0  0  0  0  0  0  0  0  0
   -7.5133   23.3466  -33.5679 H   0  0  0  0  0  0  0  0  0  0  0  0
   -5.8993   24.9893  -32.6068 H   0  0  0  0  0  0  0  0  0  0  0  0
   -0.9486   21.9288  -30.8256 H   0  0  0  0  0  0  0  0  0  0  0  0
   -1.0318   20.0048  -32.4077 H   0  0  0  0  0  0  0  0  0  0  0  0
  1  2  1  0
  2  3  1  0
  3  4  1  0
  4  5  2  0
  5  6  1  0
  6  7  2  0
  7  8  1  0
  2  9  1  0
  9 10  2  0
  9 11  1  0
 11 12  2  0
 12 13  1  0
 13 14  2  0
 14 15  1  0
 15 16  2  0
 15 17  2  0
 15 18  1  0
 18 19  1  0
 19 20  1  0
 20 21  2  0
 21 22  1  0
 22 23  2  0
 23 24  1  0
 24 25  2  0
 14 26  1  0
 26 27  2  0
  8  4  1  0
 27 11  1  0
 25 20  1  0
  1 28  1  0
  1 29  1  0
  1 30  1  0
  2 31  1  6
  3 32  1  0
  3 33  1  0
  5 34  1  0
  6 35  1  0
  7 36  1  0
 12 37  1  0
 13 38  1  0
 19 39  1  0
 19 40  1  0
 21 41  1  0
 22 42  1  0
 23 43  1  0
 24 44  1  0
 25 45  1  0
 26 46  1  0
 27 47  1  0
M  CHG  2   2   1  18  -1
M  END
>  <UniqueID>  (34) 
33

>  <SMILES>  (34) 
C[N@@H+](Cc1ccco1)C(=O)c1ccc(S(=O)(=O)[N-]Cc2ccccc2)cc1

>  <Energy>  (34) 
80.11436975792081

>  <Genealogy>  (34) 
C[NH+](Cc1ccco1)C(=O)c1ccc(S(=O)(=O)[N-]Cc2ccccc2)cc1 (protonated)
C[N@@H+](Cc1ccco1)C(=O)c1ccc(S(=O)(=O)[N-]Cc2ccccc2)cc1 (chirality)
C[N@@H+](Cc1ccco1)C(=O)c1ccc(S(=O)(=O)[N-]Cc2ccccc2)cc1 (3D coordinates assigned)
C[N@@H+](Cc1ccco1)C(=O)c1ccc(S(=O)(=O)[N-]Cc2ccccc2)cc1 (optimized conformer: 80.11436975792081 kcal/mol)

>  <smiles>  (34) 
CN(Cc1ccco1)C(=O)c1ccc(S(=O)(=O)NCc2ccccc2)cc1

>  <score_type>  (34) 
oracle

>  <origin>  (34) 
adgpu

>  <m_score__min__energy>  (34) 
-9.3399999999999999

>  <m_primary>  (34) 
energy

$$$$
34:0
     RDKit          3D

 45 47  0  0  0  0  0  0  0  0999 V2000
   -5.8770   26.0040  -29.5330 O   0  0  0  0  0  0  0  0  0  0  0  0
   -5.2420   25.4330  -30.4590 C   0  0  0  0  0  0  0  0  0  0  0  0
   -3.8220   25.2660  -30.3700 N   0  0  0  0  0  0  0  0  0  0  0  0
   -3.1310   24.5160  -29.3600 C   0  0  0  0  0  0  0  0  0  0  0  0
   -3.6950   23.3130  -28.9170 C   0  0  0  0  0  0  0  0  0  0  0  0
   -3.0510   22.5450  -27.9430 C   0  0  0  0  0  0  0  0  0  0  0  0
   -1.8270   22.9650  -27.4180 C   0  0  0  0  0  0  0  0  0  0  0  0
   -1.2390   24.1460  -27.8760 C   0  0  0  0  0  0  0  0  0  0  0  0
   -1.8750   24.9170  -28.8560 C   0  0  0  0  0  0  0  0  0  0  0  0
   -1.2360   26.0520  -29.3420 O   0  0  0  0  0  0  0  0  0  0  0  0
   -5.9630   24.8880  -31.5670 N   0  0  0  0  0  0  0  0  0  0  0  0
   -6.0830   23.4850  -31.8310 C   0  0  0  0  0  0  0  0  0  0  0  0
   -7.3650   22.9430  -31.9740 C   0  0  0  0  0  0  0  0  0  0  0  0
   -7.5360   21.5740  -32.1810 C   0  0  0  0  0  0  0  0  0  0  0  0
   -9.1500   20.9060  -32.3410 Cl  0  0  0  0  0  0  0  0  0  0  0  0
   -6.4230   20.7350  -32.2540 C   0  0  0  0  0  0  0  0  0  0  0  0
   -5.1290   21.2580  -32.1410 C   0  0  0  0  0  0  0  0  0  0  0  0
   -3.7540   20.1560  -32.2900 S   0  0  0  0  0  0  0  0  0  0  0  0
   -3.0450   20.0980  -30.9650 O   0  0  0  0  0  0  0  0  0  0  0  0
   -2.7810   20.6590  -33.3220 O   0  0  0  0  0  0  0  0  0  0  0  0
   -4.3110   18.5560  -32.7200 N   0  0  0  0  0  0  0  0  0  0  0  0
   -5.4330   18.1570  -31.8420 C   0  0  0  0  0  0  0  0  0  0  0  0
   -6.2190   16.9860  -32.4360 C   0  0  0  0  0  0  0  0  0  0  0  0
   -6.8590   17.3750  -33.7810 C   0  0  0  0  0  0  0  0  0  0  0  0
   -6.1060   18.5140  -34.4900 C   0  0  0  0  0  0  0  0  0  0  0  0
   -4.6040   18.4660  -34.1740 C   0  0  0  0  0  0  0  0  0  0  0  0
   -4.9500   22.6460  -31.9640 C   0  0  0  0  0  0  0  0  0  0  0  0
   -3.6570   23.1750  -31.9650 O   0  0  0  0  0  0  0  0  0  0  0  0
   -4.6514   22.9703  -29.3386 H   0  0  0  0  0  0  0  0  0  0  0  0
   -3.5085   21.6091  -27.5897 H   0  0  0  0  0  0  0  0  0  0  0  0
   -1.3260   22.3655  -26.6436 H   0  0  0  0  0  0  0  0  0  0  0  0
   -0.2721   24.4717  -27.4649 H   0  0  0  0  0  0  0  0  0  0  0  0
   -8.2447   23.6014  -31.9228 H   0  0  0  0  0  0  0  0  0  0  0  0
   -6.5635   19.6540  -32.4015 H   0  0  0  0  0  0  0  0  0  0  0  0
   -5.0318   17.8582  -30.8623 H   0  0  0  0  0  0  0  0  0  0  0  0
   -6.1143   19.0146  -31.7403 H   0  0  0  0  0  0  0  0  0  0  0  0
   -5.5361   16.1384  -32.5947 H   0  0  0  0  0  0  0  0  0  0  0  0
   -7.0199   16.7104  -31.7342 H   0  0  0  0  0  0  0  0  0  0  0  0
   -6.8614   16.4926  -34.4377 H   0  0  0  0  0  0  0  0  0  0  0  0
   -7.8790   17.7303  -33.5729 H   0  0  0  0  0  0  0  0  0  0  0  0
   -6.2476   18.4163  -35.5765 H   0  0  0  0  0  0  0  0  0  0  0  0
   -6.5074   19.4735  -34.1319 H   0  0  0  0  0  0  0  0  0  0  0  0
   -4.1962   17.5182  -34.5553 H   0  0  0  0  0  0  0  0  0  0  0  0
   -4.1392   19.3383  -34.6568 H   0  0  0  0  0  0  0  0  0  0  0  0
   -3.4370   24.0930  -31.6030 H   0  0  0  0  0  0  0  0  0  0  0  0
  1  2  2  0
  2  3  1  0
  3  4  1  0
  4  5  2  0
  5  6  1  0
  6  7  2  0
  7  8  1  0
  8  9  2  0
  9 10  1  0
  2 11  1  0
 11 12  1  0
 12 13  2  0
 13 14  1  0
 14 15  1  0
 14 16  2  0
 16 17  1  0
 17 18  1  0
 18 19  2  0
 18 20  2  0
 18 21  1  0
 21 22  1  0
 22 23  1  0
 23 24  1  0
 24 25  1  0
 25 26  1  0
 17 27  2  0
 27 28  1  0
  9  4  1  0
 27 12  1  0
 26 21  1  0
  5 29  1  0
  6 30  1  0
  7 31  1  0
  8 32  1  0
 13 33  1  0
 16 34  1  0
 22 35  1  0
 22 36  1  0
 23 37  1  0
 23 38  1  0
 24 39  1  0
 24 40  1  0
 25 41  1  0
 25 42  1  0
 26 43  1  0
 26 44  1  0
 28 45  1  0
M  CHG  3   3  -1  10  -1  11  -1
M  END
>  <UniqueID>  (35) 
34

>  <SMILES>  (35) 
O=C([N-]c1ccccc1[O-])[N-]c1cc(Cl)cc(S(=O)(=O)N2CCCCC2)c1O

>  <Energy>  (35) 
64.23823128496241

>  <Genealogy>  (35) 
O=C([N-]c1ccccc1[O-])[N-]c1cc(Cl)cc(S(=O)(=O)N2CCCCC2)c1O (protonated)
O=C([N-]c1ccccc1[O-])[N-]c1cc(Cl)cc(S(=O)(=O)N2CCCCC2)c1O (3D coordinates assigned)
O=C([N-]c1ccccc1[O-])[N-]c1cc(Cl)cc(S(=O)(=O)N2CCCCC2)c1O (nonaromatic ring conformer: 64.23823128496241 kcal/mol)

>  <smiles>  (35) 
O=C(Nc1ccccc1O)Nc1cc(Cl)cc(S(=O)(=O)N2CCCCC2)c1O

>  <score_type>  (35) 
oracle

>  <origin>  (35) 
adgpu

>  <m_score__min__energy>  (35) 
-14.65

>  <m_primary>  (35) 
energy

$$$$
35:0
     RDKit          3D

 66 70  0  0  0  0  0  0  0  0999 V2000
   -5.7770   17.0960  -34.2660 C   0  0  0  0  0  0  0  0  0  0  0  0
   -6.1040   18.3120  -33.4490 C   0  0  0  0  0  0  0  0  0  0  0  0
   -7.3960   18.4910  -32.9310 C   0  0  0  0  0  0  0  0  0  0  0  0
   -7.7110   19.6370  -32.1850 C   0  0  0  0  0  0  0  0  0  0  0  0
   -9.1000   19.8470  -31.6580 C   0  0  0  0  0  0  0  0  0  0  0  0
   -6.7320   20.6240  -31.9860 C   0  0  0  0  0  0  0  0  0  0  0  0
   -5.4460   20.4630  -32.5220 C   0  0  0  0  0  0  0  0  0  0  0  0
   -4.2150   21.7060  -32.3030 S   0  0  0  0  0  0  0  0  0  0  0  0
   -3.8880   22.2620  -33.6610 O   0  0  0  0  0  0  0  0  0  0  0  0
   -2.9610   21.1140  -31.7250 O   0  0  0  0  0  0  0  0  0  0  0  0
   -4.8030   23.0070  -31.2490 C   0  0  0  0  0  0  0  0  0  0  0  0
   -5.7680   23.8900  -31.7630 C   0  0  0  0  0  0  0  0  0  0  0  0
   -6.3300   24.8770  -30.9520 C   0  0  0  0  0  0  0  0  0  0  0  0
   -5.9530   24.9850  -29.6150 C   0  0  0  0  0  0  0  0  0  0  0  0
   -4.9890   24.1250  -29.0900 C   0  0  0  0  0  0  0  0  0  0  0  0
   -4.3790   23.1560  -29.9050 C   0  0  0  0  0  0  0  0  0  0  0  0
   -3.2740   22.3620  -29.3250 C   0  0  0  0  0  0  0  0  0  0  0  0
   -3.4340   21.1280  -29.1430 O   0  0  0  0  0  0  0  0  0  0  0  0
   -2.0220   22.9640  -28.9600 N   0  0  0  0  0  0  0  0  0  0  0  0
   -1.8760   24.1540  -28.1720 C   0  0  0  0  0  0  0  0  0  0  0  0
   -2.5480   24.2530  -26.9480 C   0  0  0  0  0  0  0  0  0  0  0  0
   -2.3290   25.3500  -26.1090 C   0  0  0  0  0  0  0  0  0  0  0  0
   -1.4540   26.3770  -26.5030 C   0  0  0  0  0  0  0  0  0  0  0  0
   -1.1290   27.4950  -25.5910 C   0  0  0  0  0  0  0  0  0  0  0  0
   -1.2500   28.6720  -26.0350 O   0  0  0  0  0  0  0  0  0  0  0  0
   -0.7190   27.2600  -24.2080 N   0  0  2  0  0  0  0  0  0  0  0  0
    0.2770   28.2500  -23.7290 C   0  0  0  0  0  0  0  0  0  0  0  0
    1.6270   28.1620  -24.4820 C   0  0  0  0  0  0  0  0  0  0  0  0
    1.9880   26.7660  -24.9310 C   0  0  0  0  0  0  0  0  0  0  0  0
    3.1950   26.5550  -25.6160 C   0  0  0  0  0  0  0  0  0  0  0  0
    3.5210   25.2850  -26.1020 C   0  0  0  0  0  0  0  0  0  0  0  0
    2.6470   24.2130  -25.9020 C   0  0  0  0  0  0  0  0  0  0  0  0
    1.4440   24.4080  -25.2200 C   0  0  0  0  0  0  0  0  0  0  0  0
    1.1030   25.6840  -24.7420 C   0  0  0  0  0  0  0  0  0  0  0  0
   -0.1830   25.8960  -23.9930 C   0  0  0  0  0  0  0  0  0  0  0  0
   -0.8620   26.3240  -27.7740 C   0  0  0  0  0  0  0  0  0  0  0  0
   -1.0730   25.2230  -28.6040 C   0  0  0  0  0  0  0  0  0  0  0  0
   -5.1380   19.3100  -33.2550 C   0  0  0  0  0  0  0  0  0  0  0  0
   -5.5505   16.2538  -33.5956 H   0  0  0  0  0  0  0  0  0  0  0  0
   -6.6377   16.8383  -34.9006 H   0  0  0  0  0  0  0  0  0  0  0  0
   -4.9031   17.3048  -34.9006 H   0  0  0  0  0  0  0  0  0  0  0  0
   -8.1672   17.7275  -33.1111 H   0  0  0  0  0  0  0  0  0  0  0  0
   -9.0793   19.8439  -30.5582 H   0  0  0  0  0  0  0  0  0  0  0  0
   -9.4853   20.8136  -32.0147 H   0  0  0  0  0  0  0  0  0  0  0  0
   -9.7538   19.0375  -32.0147 H   0  0  0  0  0  0  0  0  0  0  0  0
   -6.9749   21.5273  -31.4072 H   0  0  0  0  0  0  0  0  0  0  0  0
   -6.0830   23.8025  -32.8133 H   0  0  0  0  0  0  0  0  0  0  0  0
   -7.0732   25.5721  -31.3698 H   0  0  0  0  0  0  0  0  0  0  0  0
   -6.4160   25.7491  -28.9733 H   0  0  0  0  0  0  0  0  0  0  0  0
   -4.7040   24.2056  -28.0306 H   0  0  0  0  0  0  0  0  0  0  0  0
   -3.2518   23.4639  -26.6447 H   0  0  0  0  0  0  0  0  0  0  0  0
   -2.8428   25.4094  -25.1382 H   0  0  0  0  0  0  0  0  0  0  0  0
   -1.5740   27.3620  -23.6110 H   0  0  0  0  0  0  0  0  0  0  0  0
   -0.1371   29.2595  -23.8684 H   0  0  0  0  0  0  0  0  0  0  0  0
    0.4760   28.0307  -22.6696 H   0  0  0  0  0  0  0  0  0  0  0  0
    1.5705   28.8078  -25.3707 H   0  0  0  0  0  0  0  0  0  0  0  0
    2.4075   28.4819  -23.7760 H   0  0  0  0  0  0  0  0  0  0  0  0
    3.8889   27.3942  -25.7715 H   0  0  0  0  0  0  0  0  0  0  0  0
    4.4664   25.1296  -26.6423 H   0  0  0  0  0  0  0  0  0  0  0  0
    2.9070   23.2141  -26.2823 H   0  0  0  0  0  0  0  0  0  0  0  0
    0.7620   23.5605  -25.0568 H   0  0  0  0  0  0  0  0  0  0  0  0
   -0.9244   25.1618  -24.3412 H   0  0  0  0  0  0  0  0  0  0  0  0
    0.0188   25.7703  -22.9190 H   0  0  0  0  0  0  0  0  0  0  0  0
   -0.2283   27.1549  -28.1176 H   0  0  0  0  0  0  0  0  0  0  0  0
   -0.6089   25.1915  -29.6008 H   0  0  0  0  0  0  0  0  0  0  0  0
   -4.1316   19.1864  -33.6814 H   0  0  0  0  0  0  0  0  0  0  0  0
  1  2  1  0
  2  3  2  0
  3  4  1  0
  4  5  1  0
  4  6  2  0
  6  7  1  0
  7  8  1  0
  8  9  2  0
  8 10  2  0
  8 11  1  0
 11 12  2  0
 12 13  1  0
 13 14  2  0
 14 15  1  0
 15 16  2  0
 16 17  1  0
 17 18  2  0
 17 19  1  0
 19 20  1  0
 20 21  2  0
 21 22  1  0
 22 23  2  0
 23 24  1  0
 24 25  2  0
 24 26  1  0
 26 27  1  0
 27 28  1  0
 28 29  1  0
 29 30  2  0
 30 31  1  0
 31 32  2  0
 32 33  1  0
 33 34  2  0
 34 35  1  0
 23 36  1  0
 36 37  2  0
  7 38  2  0
 38  2  1  0
 16 11  1  0
 37 20  1  0
 35 26  1  0
 34 29  1  0
  1 39  1  0
  1 40  1  0
  1 41  1  0
  3 42  1  0
  5 43  1  0
  5 44  1  0
  5 45  1  0
  6 46  1  0
 12 47  1  0
 13 48  1  0
 14 49  1  0
 15 50  1  0
 21 51  1  0
 22 52  1  0
 26 53  1  1
 27 54  1  0
 27 55  1  0
 28 56  1  0
 28 57  1  0
 30 58  1  0
 31 59  1  0
 32 60  1  0
 33 61  1  0
 35 62  1  0
 35 63  1  0
 36 64  1  0
 37 65  1  0
 38 66  1  0
M  CHG  2  19  -1  26   1
M  END
>  <UniqueID>  (36) 
35

>  <SMILES>  (36) 
Cc1cc(C)cc(S(=O)(=O)c2ccccc2C(=O)[N-]c2ccc(C(=O)[N@@H+]3CCc4ccccc4C3)cc2)c1

>  <Energy>  (36) 
94.9447840604519

>  <Genealogy>  (36) 
Cc1cc(C)cc(S(=O)(=O)c2ccccc2C(=O)[N-]c2ccc(C(=O)[NH+]3CCc4ccccc4C3)cc2)c1 (protonated)
Cc1cc(C)cc(S(=O)(=O)c2ccccc2C(=O)[N-]c2ccc(C(=O)[N@@H+]3CCc4ccccc4C3)cc2)c1 (chirality)
Cc1cc(C)cc(S(=O)(=O)c2ccccc2C(=O)[N-]c2ccc(C(=O)[N@@H+]3CCc4ccccc4C3)cc2)c1 (3D coordinates assigned)
Cc1cc(C)cc(S(=O)(=O)c2ccccc2C(=O)[N-]c2ccc(C(=O)[N@@H+]3CCc4ccccc4C3)cc2)c1 (nonaromatic ring conformer: 94.9447840604519 kcal/mol)

>  <smiles>  (36) 
Cc1cc(C)cc(S(=O)(=O)c2ccccc2C(=O)Nc2ccc(C(=O)N3CCc4ccccc4C3)cc2)c1

>  <score_type>  (36) 
oracle

>  <origin>  (36) 
adgpu

>  <m_score__min__energy>  (36) 
-12.77

>  <m_primary>  (36) 
energy

$$$$
36:0
     RDKit          3D

 62 64  0  0  0  0  0  0  0  0999 V2000
   -8.3920   22.2040  -30.6940 C   0  0  0  0  0  0  0  0  0  0  0  0
   -8.4320   21.3470  -31.9660 C   0  0  0  0  0  0  0  0  0  0  0  0
   -7.0130   21.2140  -32.5680 C   0  0  0  0  0  0  0  0  0  0  0  0
   -6.8790   19.9630  -33.4390 C   0  0  0  0  0  0  0  0  0  0  0  0
   -7.1980   18.7530  -32.6630 N   0  0  0  0  0  0  0  0  0  0  0  0
   -6.7410   17.4640  -33.1150 C   0  0  0  0  0  0  0  0  0  0  0  0
   -7.5380   16.4850  -33.1190 O   0  0  0  0  0  0  0  0  0  0  0  0
   -5.3580   17.2690  -33.5960 C   0  0  0  0  0  0  0  0  0  0  0  0
   -4.3370   16.9210  -32.6980 C   0  0  0  0  0  0  0  0  0  0  0  0
   -3.0160   16.8180  -33.1380 C   0  0  0  0  0  0  0  0  0  0  0  0
   -2.6950   17.0740  -34.4800 C   0  0  0  0  0  0  0  0  0  0  0  0
   -1.2530   17.1200  -34.9160 C   0  0  0  0  0  0  0  0  0  0  0  0
   -0.7300   18.4800  -34.7970 N   0  0  0  0  0  0  0  0  0  0  0  0
   -1.1420   19.4100  -33.7880 C   0  0  0  0  0  0  0  0  0  0  0  0
   -0.5540   19.4080  -32.6750 O   0  0  0  0  0  0  0  0  0  0  0  0
   -2.2070   20.3370  -34.0340 N   0  0  0  0  0  0  0  0  0  0  0  0
   -3.4130   20.3610  -33.2080 C   0  0  0  0  0  0  0  0  0  0  0  0
   -3.2690   21.3040  -32.0460 C   0  0  0  0  0  0  0  0  0  0  0  0
   -2.2880   21.0800  -31.0800 C   0  0  0  0  0  0  0  0  0  0  0  0
   -2.1420   21.9610  -30.0100 C   0  0  0  0  0  0  0  0  0  0  0  0
   -2.9740   23.0870  -29.8770 C   0  0  0  0  0  0  0  0  0  0  0  0
   -2.6890   24.1800  -28.5040 S   0  0  0  0  0  0  0  0  0  0  0  0
   -1.6630   23.4340  -27.2510 C   0  0  0  0  0  0  0  0  0  0  0  0
   -1.9810   25.4230  -28.9640 O   0  0  0  0  0  0  0  0  0  0  0  0
   -4.0050   24.5540  -27.8810 O   0  0  0  0  0  0  0  0  0  0  0  0
   -4.0160   23.2940  -30.8280 C   0  0  0  0  0  0  0  0  0  0  0  0
   -4.9710   24.4720  -30.7550 C   0  0  0  0  0  0  0  0  0  0  0  0
   -5.8310   24.3430  -29.6790 F   0  0  0  0  0  0  0  0  0  0  0  0
   -5.7530   24.5630  -31.8940 F   0  0  0  0  0  0  0  0  0  0  0  0
   -4.2500   25.6430  -30.6350 F   0  0  0  0  0  0  0  0  0  0  0  0
   -4.1280   22.4030  -31.9150 C   0  0  0  0  0  0  0  0  0  0  0  0
   -3.7250   17.3570  -35.3920 C   0  0  0  0  0  0  0  0  0  0  0  0
   -5.0490   17.4480  -34.9530 C   0  0  0  0  0  0  0  0  0  0  0  0
   -8.0970   18.8450  -31.5030 C   0  0  0  0  0  0  0  0  0  0  0  0
   -9.1100   19.9780  -31.6980 C   0  0  0  0  0  0  0  0  0  0  0  0
   -8.4225   21.5499  -29.8101 H   0  0  0  0  0  0  0  0  0  0  0  0
   -7.4652   22.7964  -30.6800 H   0  0  0  0  0  0  0  0  0  0  0  0
   -9.2596   22.8801  -30.6800 H   0  0  0  0  0  0  0  0  0  0  0  0
   -9.0545   21.8514  -32.7197 H   0  0  0  0  0  0  0  0  0  0  0  0
   -6.8033   22.1008  -33.1842 H   0  0  0  0  0  0  0  0  0  0  0  0
   -6.2963   21.1303  -31.7377 H   0  0  0  0  0  0  0  0  0  0  0  0
   -7.5717   20.0394  -34.2900 H   0  0  0  0  0  0  0  0  0  0  0  0
   -5.8415   19.8905  -33.7973 H   0  0  0  0  0  0  0  0  0  0  0  0
   -4.5788   16.7285  -31.6423 H   0  0  0  0  0  0  0  0  0  0  0  0
   -2.2234   16.5350  -32.4297 H   0  0  0  0  0  0  0  0  0  0  0  0
   -0.6600   16.4462  -34.2801 H   0  0  0  0  0  0  0  0  0  0  0  0
   -1.1867   16.8018  -35.9669 H   0  0  0  0  0  0  0  0  0  0  0  0
   -2.2520   20.7970  -34.9710 H   0  0  0  0  0  0  0  0  0  0  0  0
   -4.2631   20.6841  -33.8268 H   0  0  0  0  0  0  0  0  0  0  0  0
   -3.5785   19.3485  -32.8111 H   0  0  0  0  0  0  0  0  0  0  0  0
   -1.6271   20.2046  -31.1631 H   0  0  0  0  0  0  0  0  0  0  0  0
   -1.3628   21.7724  -29.2568 H   0  0  0  0  0  0  0  0  0  0  0  0
   -2.0415   23.7092  -26.2555 H   0  0  0  0  0  0  0  0  0  0  0  0
   -1.6855   22.3399  -27.3622 H   0  0  0  0  0  0  0  0  0  0  0  0
   -0.6291   23.7927  -27.3622 H   0  0  0  0  0  0  0  0  0  0  0  0
   -4.9048   22.5740  -32.6748 H   0  0  0  0  0  0  0  0  0  0  0  0
   -3.4889   17.5076  -36.4558 H   0  0  0  0  0  0  0  0  0  0  0  0
   -5.8519   17.6608  -35.6742 H   0  0  0  0  0  0  0  0  0  0  0  0
   -8.6362   17.8933  -31.3865 H   0  0  0  0  0  0  0  0  0  0  0  0
   -7.4981   19.0539  -30.6043 H   0  0  0  0  0  0  0  0  0  0  0  0
   -9.7543   19.7306  -32.5546 H   0  0  0  0  0  0  0  0  0  0  0  0
   -9.6888   20.0703  -30.7672 H   0  0  0  0  0  0  0  0  0  0  0  0
  1  2  1  0
  2  3  1  0
  3  4  1  0
  4  5  1  0
  5  6  1  0
  6  7  2  0
  6  8  1  0
  8  9  2  0
  9 10  1  0
 10 11  2  0
 11 12  1  0
 12 13  1  0
 13 14  1  0
 14 15  2  0
 14 16  1  0
 16 17  1  0
 17 18  1  0
 18 19  2  0
 19 20  1  0
 20 21  2  0
 21 22  1  0
 22 23  1  0
 22 24  2  0
 22 25  2  0
 21 26  1  0
 26 27  1  0
 27 28  1  0
 27 29  1  0
 27 30  1  0
 26 31  2  0
 11 32  1  0
 32 33  2  0
  5 34  1  0
 34 35  1  0
 35  2  1  0
 33  8  1  0
 31 18  1  0
  1 36  1  0
  1 37  1  0
  1 38  1  0
  2 39  1  0
  3 40  1  0
  3 41  1  0
  4 42  1  0
  4 43  1  0
  9 44  1  0
 10 45  1  0
 12 46  1  0
 12 47  1  0
 16 48  1  0
 17 49  1  0
 17 50  1  0
 19 51  1  0
 20 52  1  0
 23 53  1  0
 23 54  1  0
 23 55  1  0
 31 56  1  0
 32 57  1  0
 33 58  1  0
 34 59  1  0
 34 60  1  0
 35 61  1  0
 35 62  1  0
M  CHG  1  13  -1
M  END
>  <UniqueID>  (37) 
36

>  <SMILES>  (37) 
CC1CCN(C(=O)c2ccc(C[N-]C(=O)NCc3ccc(S(C)(=O)=O)c(C(F)(F)F)c3)cc2)CC1

>  <Energy>  (37) 
69.57242927150679

>  <Genealogy>  (37) 
CC1CCN(C(=O)c2ccc(C[N-]C(=O)NCc3ccc(S(C)(=O)=O)c(C(F)(F)F)c3)cc2)CC1 (protonated)
CC1CCN(C(=O)c2ccc(C[N-]C(=O)NCc3ccc(S(C)(=O)=O)c(C(F)(F)F)c3)cc2)CC1 (3D coordinates assigned)
CC1CCN(C(=O)c2ccc(C[N-]C(=O)NCc3ccc(S(C)(=O)=O)c(C(F)(F)F)c3)cc2)CC1 (nonaromatic ring conformer: 69.57242927150679 kcal/mol)

>  <smiles>  (37) 
CC1CCN(C(=O)c2ccc(CNC(=O)NCc3ccc(S(C)(=O)=O)c(C(F)(F)F)c3)cc2)CC1

>  <score_type>  (37) 
oracle

>  <origin>  (37) 
adgpu

>  <m_score__min__energy>  (37) 
-11.109999999999999

>  <m_primary>  (37) 
energy

$$$$
37:0
     RDKit          3D

 56 58  0  0  0  0  0  0  0  0999 V2000
   -5.1070   16.1960  -32.3280 C   0  0  0  0  0  0  0  0  0  0  0  0
   -6.1340   16.7970  -33.1090 O   0  0  0  0  0  0  0  0  0  0  0  0
   -6.8300   17.9650  -32.7560 C   0  0  0  0  0  0  0  0  0  0  0  0
   -8.0470   17.9120  -32.0490 C   0  0  0  0  0  0  0  0  0  0  0  0
   -8.7140   19.0860  -31.7000 C   0  0  0  0  0  0  0  0  0  0  0  0
   -8.1880   20.3270  -32.0570 C   0  0  0  0  0  0  0  0  0  0  0  0
   -9.1090   21.9310  -31.5830 Br  0  0  0  0  0  0  0  0  0  0  0  0
   -6.9900   20.3950  -32.7710 C   0  0  0  0  0  0  0  0  0  0  0  0
   -6.2940   19.2220  -33.1150 C   0  0  0  0  0  0  0  0  0  0  0  0
   -4.9990   19.3340  -33.8880 C   0  0  0  0  0  0  0  0  0  0  0  0
   -3.9360   19.9770  -33.0810 N   0  0  0  0  0  0  0  0  0  0  0  0
   -3.7900   21.3950  -33.4520 C   0  0  0  0  0  0  0  0  0  0  0  0
   -2.6360   19.2570  -33.1020 C   0  0  0  0  0  0  0  0  0  0  0  0
   -1.4560   20.1300  -33.4360 C   0  0  0  0  0  0  0  0  0  0  0  0
   -1.2130   20.4020  -34.6420 O   0  0  0  0  0  0  0  0  0  0  0  0
   -0.6430   20.6750  -32.3890 N   0  0  0  0  0  0  0  0  0  0  0  0
   -1.1070   21.0420  -31.0820 C   0  0  0  0  0  0  0  0  0  0  0  0
   -1.7040   22.2940  -30.8470 C   0  0  0  0  0  0  0  0  0  0  0  0
   -2.1630   22.6370  -29.5680 C   0  0  0  0  0  0  0  0  0  0  0  0
   -2.9350   24.2050  -29.2950 S   0  0  0  0  0  0  0  0  0  0  0  0
   -1.8870   25.2820  -29.3360 O   0  0  0  0  0  0  0  0  0  0  0  0
   -3.5520   24.2110  -27.9230 O   0  0  0  0  0  0  0  0  0  0  0  0
   -4.1720   24.5700  -30.4740 N   0  0  0  0  0  0  0  0  0  0  0  0
   -5.3590   25.1660  -29.8640 C   0  0  0  0  0  0  0  0  0  0  0  0
   -6.5130   24.8770  -30.8090 C   0  0  0  0  0  0  0  0  0  0  0  0
   -6.0630   23.6800  -31.6350 C   0  0  0  0  0  0  0  0  0  0  0  0
   -4.6510   23.3700  -31.1590 C   0  0  0  0  0  0  0  0  0  0  0  0
   -2.0240   21.7250  -28.5160 C   0  0  0  0  0  0  0  0  0  0  0  0
   -1.3980   20.4940  -28.7310 C   0  0  0  0  0  0  0  0  0  0  0  0
   -0.9290   20.1500  -30.0040 C   0  0  0  0  0  0  0  0  0  0  0  0
   -0.3030   18.9140  -30.1740 O   0  0  0  0  0  0  0  0  0  0  0  0
   -5.3336   16.3286  -31.2598 H   0  0  0  0  0  0  0  0  0  0  0  0
   -5.0505   15.1223  -32.5603 H   0  0  0  0  0  0  0  0  0  0  0  0
   -4.1432   16.6726  -32.5603 H   0  0  0  0  0  0  0  0  0  0  0  0
   -8.4745   16.9376  -31.7701 H   0  0  0  0  0  0  0  0  0  0  0  0
   -9.6595   19.0327  -31.1404 H   0  0  0  0  0  0  0  0  0  0  0  0
   -6.5869   21.3747  -33.0672 H   0  0  0  0  0  0  0  0  0  0  0  0
   -4.6673   18.3257  -34.1768 H   0  0  0  0  0  0  0  0  0  0  0  0
   -5.1812   19.9571  -34.7760 H   0  0  0  0  0  0  0  0  0  0  0  0
   -3.7269   22.0078  -32.5407 H   0  0  0  0  0  0  0  0  0  0  0  0
   -2.8736   21.5261  -34.0462 H   0  0  0  0  0  0  0  0  0  0  0  0
   -4.6605   21.7101  -34.0462 H   0  0  0  0  0  0  0  0  0  0  0  0
   -2.4692   18.8159  -32.1082 H   0  0  0  0  0  0  0  0  0  0  0  0
   -2.7054   18.4994  -33.8965 H   0  0  0  0  0  0  0  0  0  0  0  0
   -1.8115   23.0104  -31.6748 H   0  0  0  0  0  0  0  0  0  0  0  0
   -5.5498   24.7133  -28.8798 H   0  0  0  0  0  0  0  0  0  0  0  0
   -5.2295   26.2473  -29.7091 H   0  0  0  0  0  0  0  0  0  0  0  0
   -7.4239   24.6340  -30.2423 H   0  0  0  0  0  0  0  0  0  0  0  0
   -6.7541   25.7448  -31.4405 H   0  0  0  0  0  0  0  0  0  0  0  0
   -6.7260   22.8200  -31.4596 H   0  0  0  0  0  0  0  0  0  0  0  0
   -6.0943   23.8919  -32.7140 H   0  0  0  0  0  0  0  0  0  0  0  0
   -4.6623   22.5157  -30.4662 H   0  0  0  0  0  0  0  0  0  0  0  0
   -3.9960   23.1043  -32.0018 H   0  0  0  0  0  0  0  0  0  0  0  0
   -2.4085   21.9776  -27.5168 H   0  0  0  0  0  0  0  0  0  0  0  0
   -1.2731   19.7910  -27.8943 H   0  0  0  0  0  0  0  0  0  0  0  0
    0.0380   18.5990  -31.0730 H   0  0  0  0  0  0  0  0  0  0  0  0
  1  2  1  0
  2  3  1  0
  3  4  2  0
  4  5  1  0
  5  6  2  0
  6  7  1  0
  6  8  1  0
  8  9  2  0
  9 10  1  0
 10 11  1  0
 11 12  1  0
 11 13  1  0
 13 14  1  0
 14 15  2  0
 14 16  1  0
 16 17  1  0
 17 18  2  0
 18 19  1  0
 19 20  1  0
 20 21  2  0
 20 22  2  0
 20 23  1  0
 23 24  1  0
 24 25  1  0
 25 26  1  0
 26 27  1  0
 19 28  2  0
 28 29  1  0
 29 30  2  0
 30 31  1  0
  9  3  1  0
 30 17  1  0
 27 23  1  0
  1 32  1  0
  1 33  1  0
  1 34  1  0
  4 35  1  0
  5 36  1  0
  8 37  1  0
 10 38  1  0
 10 39  1  0
 12 40  1  0
 12 41  1  0
 12 42  1  0
 13 43  1  0
 13 44  1  0
 18 45  1  0
 24 46  1  0
 24 47  1  0
 25 48  1  0
 25 49  1  0
 26 50  1  0
 26 51  1  0
 27 52  1  0
 27 53  1  0
 28 54  1  0
 29 55  1  0
 31 56  1  0
M  CHG  1  16  -1
M  END
>  <UniqueID>  (38) 
37

>  <SMILES>  (38) 
COc1ccc(Br)cc1CN(C)CC(=O)[N-]c1cc(S(=O)(=O)N2CCCC2)ccc1O

>  <Energy>  (38) 
64.16785170059498

>  <Genealogy>  (38) 
COc1ccc(Br)cc1CN(C)CC(=O)[N-]c1cc(S(=O)(=O)N2CCCC2)ccc1O (protonated)
COc1ccc(Br)cc1CN(C)CC(=O)[N-]c1cc(S(=O)(=O)N2CCCC2)ccc1O (3D coordinates assigned)
COc1ccc(Br)cc1CN(C)CC(=O)[N-]c1cc(S(=O)(=O)N2CCCC2)ccc1O (nonaromatic ring conformer: 64.16785170059498 kcal/mol)

>  <smiles>  (38) 
COc1ccc(Br)cc1CN(C)CC(=O)Nc1cc(S(=O)(=O)N2CCCC2)ccc1O

>  <score_type>  (38) 
oracle

>  <origin>  (38) 
adgpu

>  <m_score__min__energy>  (38) 
-12.050000000000001

>  <m_primary>  (38) 
energy

$$$$
38:0
     RDKit          3D

 34 36  0  0  0  0  0  0  0  0999 V2000
   -8.7350   18.2680  -32.5300 O   0  0  0  0  0  0  0  0  0  0  0  0
   -7.3860   18.9090  -32.3660 S   0  0  0  0  0  0  0  0  0  0  0  0
   -6.6890   18.2370  -31.2150 O   0  0  0  0  0  0  0  0  0  0  0  0
   -7.6010   20.6220  -31.9940 C   0  0  0  0  0  0  0  0  0  0  0  0
   -8.8810   21.1920  -32.0120 C   0  0  0  0  0  0  0  0  0  0  0  0
   -9.0490   22.5480  -31.7340 C   0  0  0  0  0  0  0  0  0  0  0  0
   -7.9440   23.3470  -31.4300 C   0  0  0  0  0  0  0  0  0  0  0  0
   -6.6500   22.7920  -31.3970 C   0  0  0  0  0  0  0  0  0  0  0  0
   -5.4960   23.5990  -31.0850 N   0  0  0  0  0  0  0  0  0  0  0  0
   -4.2950   23.2170  -30.6110 C   0  0  0  0  0  0  0  0  0  0  0  0
   -3.5010   24.2920  -30.4590 N   0  0  0  0  0  0  0  0  0  0  0  0
   -4.2350   25.3270  -30.8450 N   0  0  0  0  0  0  0  0  0  0  0  0
   -5.4350   24.9120  -31.2220 N   0  0  0  0  0  0  0  0  0  0  0  0
   -6.4930   21.4230  -31.6790 C   0  0  0  0  0  0  0  0  0  0  0  0
   -6.4530   18.6750  -33.8280 N   0  0  0  0  0  0  0  0  0  0  0  0
   -6.1380   17.2410  -34.0120 C   0  0  0  0  0  0  0  0  0  0  0  0
   -4.9200   17.0650  -34.9350 C   0  0  0  0  0  0  0  0  0  0  0  0
   -3.7310   17.6770  -34.4500 O   0  0  0  0  0  0  0  0  0  0  0  0
   -3.9650   18.7400  -33.5350 C   0  0  0  0  0  0  0  0  0  0  0  0
   -5.2440   19.5370  -33.8460 C   0  0  0  0  0  0  0  0  0  0  0  0
   -9.7559   20.5678  -32.2462 H   0  0  0  0  0  0  0  0  0  0  0  0
  -10.0559   22.9905  -31.7541 H   0  0  0  0  0  0  0  0  0  0  0  0
   -8.0855   24.4165  -31.2150 H   0  0  0  0  0  0  0  0  0  0  0  0
   -4.0063   22.1805  -30.3822 H   0  0  0  0  0  0  0  0  0  0  0  0
   -5.4889   20.9747  -31.6522 H   0  0  0  0  0  0  0  0  0  0  0  0
   -7.0690   18.9700  -34.6220 H   0  0  0  0  0  0  0  0  0  0  0  0
   -5.9167   16.7915  -33.0327 H   0  0  0  0  0  0  0  0  0  0  0  0
   -7.0050   16.7451  -34.4728 H   0  0  0  0  0  0  0  0  0  0  0  0
   -4.7302   15.9882  -35.0550 H   0  0  0  0  0  0  0  0  0  0  0  0
   -5.1675   17.5610  -35.8851 H   0  0  0  0  0  0  0  0  0  0  0  0
   -4.0538   18.3173  -32.5233 H   0  0  0  0  0  0  0  0  0  0  0  0
   -3.1175   19.4362  -33.6190 H   0  0  0  0  0  0  0  0  0  0  0  0
   -5.3612   20.3294  -33.0921 H   0  0  0  0  0  0  0  0  0  0  0  0
   -5.1435   19.9614  -34.8558 H   0  0  0  0  0  0  0  0  0  0  0  0
  1  2  2  0
  2  3  2  0
  2  4  1  0
  4  5  2  0
  5  6  1  0
  6  7  2  0
  7  8  1  0
  8  9  1  0
  9 10  1  0
 10 11  2  0
 11 12  1  0
 12 13  2  0
  8 14  2  0
  2 15  1  0
 15 16  1  0
 16 17  1  0
 17 18  1  0
 18 19  1  0
 19 20  1  0
 14  4  1  0
 20 15  1  0
 13  9  1  0
  5 21  1  0
  6 22  1  0
  7 23  1  0
 10 24  1  0
 14 25  1  0
 15 26  1  0
 16 27  1  0
 16 28  1  0
 17 29  1  0
 17 30  1  0
 19 31  1  0
 19 32  1  0
 20 33  1  0
 20 34  1  0
M  CHG  1  15   1
M  END
>  <UniqueID>  (39) 
38

>  <SMILES>  (39) 
O=S(=O)(c1cccc(-n2cnnn2)c1)[NH+]1CCOCC1

>  <Energy>  (39) 
88.81664092289104

>  <Genealogy>  (39) 
O=S(=O)(c1cccc(-n2cnnn2)c1)[NH+]1CCOCC1 (protonated)
O=S(=O)(c1cccc(-n2cnnn2)c1)[NH+]1CCOCC1 (3D coordinates assigned)
O=S(=O)(c1cccc(-n2cnnn2)c1)[NH+]1CCOCC1 (nonaromatic ring conformer: 88.81664092289104 kcal/mol)

>  <smiles>  (39) 
O=S(=O)(c1cccc(-n2cnnn2)c1)N1CCOCC1

>  <score_type>  (39) 
oracle

>  <origin>  (39) 
adgpu

>  <m_score__min__energy>  (39) 
-8.6999999999999993

>  <m_primary>  (39) 
energy

$$$$
39:0
     RDKit          3D

 37 38  0  0  0  0  0  0  0  0999 V2000
   -6.0120   25.1100  -29.6810 C   0  0  0  0  0  0  0  0  0  0  0  0
   -4.9550   24.6670  -30.6460 C   0  0  0  0  0  0  0  0  0  0  0  0
   -3.8810   25.3190  -30.7150 O   0  0  0  0  0  0  0  0  0  0  0  0
   -5.1430   23.5470  -31.5220 N   0  0  0  0  0  0  0  0  0  0  0  0
   -6.3520   22.7950  -31.7040 C   0  0  0  0  0  0  0  0  0  0  0  0
   -7.6000   23.4240  -31.8170 C   0  0  0  0  0  0  0  0  0  0  0  0
   -8.7590   22.6620  -31.9670 C   0  0  0  0  0  0  0  0  0  0  0  0
   -8.6920   21.2630  -31.9820 C   0  0  0  0  0  0  0  0  0  0  0  0
   -9.8580   20.5180  -32.1470 O   0  0  0  0  0  0  0  0  0  0  0  0
   -7.4470   20.6210  -31.8260 C   0  0  0  0  0  0  0  0  0  0  0  0
   -7.3120   18.8540  -31.7960 S   0  0  0  0  0  0  0  0  0  0  0  0
   -8.5870   18.2760  -31.2470 O   0  0  0  0  0  0  0  0  0  0  0  0
   -6.1920   18.4440  -30.8790 O   0  0  0  0  0  0  0  0  0  0  0  0
   -7.0230   18.1940  -33.3910 N   0  0  0  0  0  0  0  0  0  0  0  0
   -5.9450   18.9430  -34.0750 C   0  0  0  0  0  0  0  0  0  0  0  0
   -5.3730   18.1510  -35.2550 C   0  0  0  0  0  0  0  0  0  0  0  0
   -4.7340   16.8350  -34.7780 C   0  0  0  0  0  0  0  0  0  0  0  0
   -5.3540   16.3120  -33.4700 C   0  0  0  0  0  0  0  0  0  0  0  0
   -6.8290   16.7230  -33.3540 C   0  0  0  0  0  0  0  0  0  0  0  0
   -6.2870   21.3980  -31.6880 C   0  0  0  0  0  0  0  0  0  0  0  0
   -5.6546   24.9602  -28.6515 H   0  0  0  0  0  0  0  0  0  0  0  0
   -6.2315   26.1759  -29.8415 H   0  0  0  0  0  0  0  0  0  0  0  0
   -6.9259   24.5192  -29.8415 H   0  0  0  0  0  0  0  0  0  0  0  0
   -7.6655   24.5216  -31.7873 H   0  0  0  0  0  0  0  0  0  0  0  0
   -9.7322   23.1634  -32.0742 H   0  0  0  0  0  0  0  0  0  0  0  0
   -9.8420   19.5050  -32.1830 H   0  0  0  0  0  0  0  0  0  0  0  0
   -6.3516   19.8950  -34.4470 H   0  0  0  0  0  0  0  0  0  0  0  0
   -5.1347   19.1192  -33.3522 H   0  0  0  0  0  0  0  0  0  0  0  0
   -6.1845   17.9215  -35.9613 H   0  0  0  0  0  0  0  0  0  0  0  0
   -4.5979   18.7602  -35.7431 H   0  0  0  0  0  0  0  0  0  0  0  0
   -4.8701   16.0741  -35.5606 H   0  0  0  0  0  0  0  0  0  0  0  0
   -3.6697   17.0342  -34.5841 H   0  0  0  0  0  0  0  0  0  0  0  0
   -5.2846   15.2143  -33.4533 H   0  0  0  0  0  0  0  0  0  0  0  0
   -4.8025   16.7473  -32.6236 H   0  0  0  0  0  0  0  0  0  0  0  0
   -7.3852   16.2744  -34.1903 H   0  0  0  0  0  0  0  0  0  0  0  0
   -7.1957   16.3659  -32.3803 H   0  0  0  0  0  0  0  0  0  0  0  0
   -5.3130   20.9016  -31.5655 H   0  0  0  0  0  0  0  0  0  0  0  0
  1  2  1  0
  2  3  2  0
  2  4  1  0
  4  5  1  0
  5  6  2  0
  6  7  1  0
  7  8  2  0
  8  9  1  0
  8 10  1  0
 10 11  1  0
 11 12  2  0
 11 13  2  0
 11 14  1  0
 14 15  1  0
 15 16  1  0
 16 17  1  0
 17 18  1  0
 18 19  1  0
 10 20  2  0
 20  5  1  0
 19 14  1  0
  1 21  1  0
  1 22  1  0
  1 23  1  0
  6 24  1  0
  7 25  1  0
  9 26  1  0
 15 27  1  0
 15 28  1  0
 16 29  1  0
 16 30  1  0
 17 31  1  0
 17 32  1  0
 18 33  1  0
 18 34  1  0
 19 35  1  0
 19 36  1  0
 20 37  1  0
M  CHG  1   4  -1
M  END
>  <UniqueID>  (40) 
39

>  <SMILES>  (40) 
CC(=O)[N-]c1ccc(O)c(S(=O)(=O)N2CCCCC2)c1

>  <Energy>  (40) 
44.7282738103121

>  <Genealogy>  (40) 
CC(=O)[N-]c1ccc(O)c(S(=O)(=O)N2CCCCC2)c1 (protonated)
CC(=O)[N-]c1ccc(O)c(S(=O)(=O)N2CCCCC2)c1 (3D coordinates assigned)
CC(=O)[N-]c1ccc(O)c(S(=O)(=O)N2CCCCC2)c1 (nonaromatic ring conformer: 44.7282738103121 kcal/mol)

>  <smiles>  (40) 
CC(=O)Nc1ccc(O)c(S(=O)(=O)N2CCCCC2)c1

>  <score_type>  (40) 
oracle

>  <origin>  (40) 
adgpu

>  <m_score__min__energy>  (40) 
-8.7699999999999996

>  <m_primary>  (40) 
energy

$$$$
40:0
     RDKit          3D

 51 55  0  0  0  0  0  0  0  0999 V2000
   -3.4320   17.6750  -34.8120 O   0  0  0  0  0  0  0  0  0  0  0  0
   -3.3420   18.7230  -34.1170 C   0  0  0  0  0  0  0  0  0  0  0  0
   -1.9930   19.1580  -33.6300 C   0  0  0  0  0  0  0  0  0  0  0  0
   -2.1030   19.9140  -32.4280 O   0  0  0  0  0  0  0  0  0  0  0  0
   -3.1680   20.7860  -32.1930 C   0  0  0  0  0  0  0  0  0  0  0  0
   -3.0340   21.7870  -31.2250 C   0  0  0  0  0  0  0  0  0  0  0  0
   -4.0800   22.6830  -30.9870 C   0  0  0  0  0  0  0  0  0  0  0  0
   -3.8940   23.9560  -29.7820 S   0  0  0  0  0  0  0  0  0  0  0  0
   -3.7050   25.2780  -30.4750 O   0  0  0  0  0  0  0  0  0  0  0  0
   -5.1570   24.0130  -28.9690 O   0  0  0  0  0  0  0  0  0  0  0  0
   -2.5330   23.6580  -28.7290 N   0  0  0  0  0  0  0  0  0  0  0  0
   -1.5550   24.7190  -28.4540 C   0  0  0  0  0  0  0  0  0  0  0  0
   -0.1360   24.1620  -28.6100 C   0  0  0  0  0  0  0  0  0  0  0  0
    0.0200   22.9740  -27.8340 O   0  0  0  0  0  0  0  0  0  0  0  0
   -1.0150   22.0440  -27.6830 C   0  0  0  0  0  0  0  0  0  0  0  0
   -0.7630   20.8110  -27.0730 C   0  0  0  0  0  0  0  0  0  0  0  0
   -1.7960   19.8840  -26.9130 C   0  0  0  0  0  0  0  0  0  0  0  0
   -3.0840   20.1890  -27.3580 C   0  0  0  0  0  0  0  0  0  0  0  0
   -3.3470   21.4240  -27.9630 C   0  0  0  0  0  0  0  0  0  0  0  0
   -2.3110   22.3620  -28.1330 C   0  0  0  0  0  0  0  0  0  0  0  0
   -5.2600   22.5800  -31.7330 C   0  0  0  0  0  0  0  0  0  0  0  0
   -5.4070   21.5700  -32.6880 C   0  0  0  0  0  0  0  0  0  0  0  0
   -4.3670   20.6450  -32.9190 C   0  0  0  0  0  0  0  0  0  0  0  0
   -4.5060   19.5360  -33.8440 N   0  0  0  0  0  0  0  0  0  0  0  0
   -5.8190   19.1400  -34.3890 C   0  0  0  0  0  0  0  0  0  0  0  0
   -6.8350   19.0000  -33.2840 C   0  0  0  0  0  0  0  0  0  0  0  0
   -7.9020   19.9080  -33.1730 C   0  0  0  0  0  0  0  0  0  0  0  0
   -8.8340   19.7790  -32.1390 C   0  0  0  0  0  0  0  0  0  0  0  0
   -8.7140   18.7380  -31.2130 C   0  0  0  0  0  0  0  0  0  0  0  0
   -7.6620   17.8250  -31.3200 C   0  0  0  0  0  0  0  0  0  0  0  0
   -6.7250   17.9540  -32.3500 C   0  0  0  0  0  0  0  0  0  0  0  0
   -1.3752   18.2680  -33.4398 H   0  0  0  0  0  0  0  0  0  0  0  0
   -1.5299   19.7914  -34.4009 H   0  0  0  0  0  0  0  0  0  0  0  0
   -2.1009   21.8694  -30.6483 H   0  0  0  0  0  0  0  0  0  0  0  0
   -1.7035   25.5467  -29.1631 H   0  0  0  0  0  0  0  0  0  0  0  0
   -1.6928   25.0859  -27.4262 H   0  0  0  0  0  0  0  0  0  0  0  0
    0.0479   23.9298  -29.6694 H   0  0  0  0  0  0  0  0  0  0  0  0
    0.5840   24.9155  -28.2579 H   0  0  0  0  0  0  0  0  0  0  0  0
    0.2502   20.5706  -26.7186 H   0  0  0  0  0  0  0  0  0  0  0  0
   -1.5946   18.9134  -26.4362 H   0  0  0  0  0  0  0  0  0  0  0  0
   -3.8949   19.4564  -27.2328 H   0  0  0  0  0  0  0  0  0  0  0  0
   -4.3647   21.6618  -28.3060 H   0  0  0  0  0  0  0  0  0  0  0  0
   -6.0764   23.2982  -31.5667 H   0  0  0  0  0  0  0  0  0  0  0  0
   -6.3411   21.4957  -33.2641 H   0  0  0  0  0  0  0  0  0  0  0  0
   -6.1614   19.9072  -35.0991 H   0  0  0  0  0  0  0  0  0  0  0  0
   -5.7129   18.1699  -34.8966 H   0  0  0  0  0  0  0  0  0  0  0  0
   -8.0043   20.7242  -33.9033 H   0  0  0  0  0  0  0  0  0  0  0  0
   -9.6628   20.4973  -32.0537 H   0  0  0  0  0  0  0  0  0  0  0  0
   -9.4482   18.6380  -30.4000 H   0  0  0  0  0  0  0  0  0  0  0  0
   -7.5707   17.0041  -30.5935 H   0  0  0  0  0  0  0  0  0  0  0  0
   -5.8975   17.2337  -32.4302 H   0  0  0  0  0  0  0  0  0  0  0  0
  1  2  2  0
  2  3  1  0
  3  4  1  0
  4  5  1  0
  5  6  2  0
  6  7  1  0
  7  8  1  0
  8  9  2  0
  8 10  2  0
  8 11  1  0
 11 12  1  0
 12 13  1  0
 13 14  1  0
 14 15  1  0
 15 16  2  0
 16 17  1  0
 17 18  2  0
 18 19  1  0
 19 20  2  0
  7 21  2  0
 21 22  1  0
 22 23  2  0
 23 24  1  0
 24 25  1  0
 25 26  1  0
 26 27  2  0
 27 28  1  0
 28 29  2  0
 29 30  1  0
 30 31  2  0
 24  2  1  0
 31 26  1  0
 23  5  1  0
 20 11  1  0
 20 15  1  0
  3 32  1  0
  3 33  1  0
  6 34  1  0
 12 35  1  0
 12 36  1  0
 13 37  1  0
 13 38  1  0
 16 39  1  0
 17 40  1  0
 18 41  1  0
 19 42  1  0
 21 43  1  0
 22 44  1  0
 25 45  1  0
 25 46  1  0
 27 47  1  0
 28 48  1  0
 29 49  1  0
 30 50  1  0
 31 51  1  0
M  END
>  <UniqueID>  (41) 
40

>  <SMILES>  (41) 
O=C1COc2cc(S(=O)(=O)N3CCOc4ccccc43)ccc2N1Cc1ccccc1

>  <Energy>  (41) 
65.99019897818538

>  <Genealogy>  (41) 
O=C1COc2cc(S(=O)(=O)N3CCOc4ccccc43)ccc2N1Cc1ccccc1 (3D coordinates assigned)
O=C1COc2cc(S(=O)(=O)N3CCOc4ccccc43)ccc2N1Cc1ccccc1 (nonaromatic ring conformer: 65.99019897818538 kcal/mol)

>  <smiles>  (41) 
O=C1COc2cc(S(=O)(=O)N3CCOc4ccccc43)ccc2N1Cc1ccccc1

>  <score_type>  (41) 
oracle

>  <origin>  (41) 
adgpu

>  <m_score__min__energy>  (41) 
-9.9700000000000006

>  <m_primary>  (41) 
energy

$$$$
41:0
     RDKit          3D

 26 27  0  0  0  0  0  0  0  0999 V2000
   -1.5250   18.2090  -34.9880 H   0  0  0  0  0  0  0  0  0  0  0  0
   -2.3230   17.5340  -34.9840 N   0  0  0  0  0  0  0  0  0  0  0  0
   -3.4410   17.8110  -34.3930 C   0  0  0  0  0  0  0  0  0  0  0  0
   -3.5960   19.0000  -33.7580 N   0  0  0  0  0  0  0  0  0  0  0  0
   -4.7510   19.3280  -33.1220 C   0  0  0  0  0  0  0  0  0  0  0  0
   -4.8270   20.6450  -32.4480 C   0  0  0  0  0  0  0  0  0  0  0  0
   -5.8850   21.5320  -32.7090 C   0  0  0  0  0  0  0  0  0  0  0  0
   -6.6613   21.2574  -33.4383 H   0  0  0  0  0  0  0  0  0  0  0  0
   -5.9570   22.7620  -32.0470 C   0  0  0  0  0  0  0  0  0  0  0  0
   -6.7851   23.4533  -32.2625 H   0  0  0  0  0  0  0  0  0  0  0  0
   -4.9770   23.1160  -31.1100 C   0  0  0  0  0  0  0  0  0  0  0  0
   -5.0750   24.6580  -30.2660 S   0  0  0  0  0  0  0  0  0  0  0  0
   -6.4120   25.2950  -30.5200 O   0  0  0  0  0  0  0  0  0  0  0  0
   -4.9160   24.4410  -28.7870 O   0  0  0  0  0  0  0  0  0  0  0  0
   -3.8570   25.6750  -30.8170 O   0  0  0  0  0  0  0  0  0  0  0  0
   -3.9360   22.2220  -30.8260 C   0  0  0  0  0  0  0  0  0  0  0  0
   -3.1730   22.4882  -30.0797 H   0  0  0  0  0  0  0  0  0  0  0  0
   -3.8640   20.9930  -31.4880 C   0  0  0  0  0  0  0  0  0  0  0  0
   -3.0472   20.2940  -31.2551 H   0  0  0  0  0  0  0  0  0  0  0  0
   -5.8310   18.4170  -33.1420 C   0  0  0  0  0  0  0  0  0  0  0  0
   -7.1100   18.7660  -32.5580 C   0  0  0  0  0  0  0  0  0  0  0  0
   -8.1320   19.0450  -32.0910 N   0  0  0  0  0  0  0  0  0  0  0  0
   -5.6490   17.1840  -33.8020 C   0  0  0  0  0  0  0  0  0  0  0  0
   -6.8520   16.0630  -33.8700 S   0  0  0  0  0  0  0  0  0  0  0  0
   -4.4580   16.9100  -34.4070 N   0  0  0  0  0  0  0  0  0  0  0  0
   -4.3240   15.9950  -34.8980 H   0  0  0  0  0  0  0  0  0  0  0  0
  1  2  1  0
  2  3  2  0
  3  4  1  0
  4  5  1  0
  5  6  1  0
  6  7  2  0
  7  8  1  0
  7  9  1  0
  9 10  1  0
  9 11  2  0
 11 12  1  0
 12 13  2  0
 12 14  2  0
 12 15  1  0
 11 16  1  0
 16 17  1  0
 16 18  2  0
 18 19  1  0
  5 20  2  0
 20 21  1  0
 21 22  3  0
 20 23  1  0
 23 24  2  0
 23 25  1  0
 25 26  1  0
 25  3  1  0
 18  6  1  0
M  CHG  2   4  -1  15  -1
M  END
>  <UniqueID>  (42) 
41

>  <SMILES>  (42) 
[H]/N=c1\[n-]c(-c2ccc(S(=O)(=O)[O-])cc2)c(C#N)c(=S)[nH]1

>  <Energy>  (42) 
37.10175636677908

>  <Genealogy>  (42) 
N#Cc1c(-c2ccc(S(=O)(=O)[O-])cc2)[n-]c(=N)[nH]c1=S (protonated)
[H]/N=c1\[n-]c(-c2ccc(S(=O)(=O)[O-])cc2)c(C#N)c(=S)[nH]1 (cis-trans isomerization)
[H]/N=c1\[n-]c(-c2ccc(S(=O)(=O)[O-])cc2)c(C#N)c(=S)[nH]1 (3D coordinates assigned)
[H]/N=c1\[n-]c(-c2ccc(S(=O)(=O)[O-])cc2)c(C#N)c(=S)[nH]1 (optimized conformer: 37.10175636677908 kcal/mol)

>  <smiles>  (42) 
N#Cc1c(-c2ccc(S(=O)(=O)O)cc2)[nH]c(=N)[nH]c1=S

>  <score_type>  (42) 
oracle

>  <origin>  (42) 
adgpu

>  <m_score__min__energy>  (42) 
-10.039999999999999

>  <m_primary>  (42) 
energy

$$$$
42:0
     RDKit          3D

 50 53  0  0  0  0  0  0  0  0999 V2000
   -0.9420   26.2870  -27.4220 C   0  0  0  0  0  0  0  0  0  0  0  0
   -1.2670   24.9850  -28.0830 C   0  0  0  0  0  0  0  0  0  0  0  0
   -2.4260   24.8550  -28.8540 C   0  0  0  0  0  0  0  0  0  0  0  0
   -2.7150   23.6400  -29.4960 C   0  0  0  0  0  0  0  0  0  0  0  0
   -3.9230   23.5770  -30.3510 C   0  0  0  0  0  0  0  0  0  0  0  0
   -4.2370   24.5640  -31.0680 O   0  0  0  0  0  0  0  0  0  0  0  0
   -4.7380   22.3930  -30.3500 N   0  0  0  0  0  0  0  0  0  0  0  0
   -6.0590   22.3240  -30.9160 C   0  0  0  0  0  0  0  0  0  0  0  0
   -6.8360   23.4810  -31.1050 C   0  0  0  0  0  0  0  0  0  0  0  0
   -8.1250   23.3840  -31.6360 C   0  0  0  0  0  0  0  0  0  0  0  0
   -8.6560   22.1360  -31.9670 C   0  0  0  0  0  0  0  0  0  0  0  0
   -7.9030   20.9730  -31.7580 C   0  0  0  0  0  0  0  0  0  0  0  0
   -8.5920   19.4040  -32.1640 S   0  0  0  0  0  0  0  0  0  0  0  0
   -9.0040   18.7170  -30.8930 O   0  0  0  0  0  0  0  0  0  0  0  0
   -9.8030   19.5830  -33.0400 O   0  0  0  0  0  0  0  0  0  0  0  0
   -7.3980   18.4400  -32.9990 N   0  0  0  0  0  0  0  0  0  0  0  0
   -6.6210   17.6510  -32.0300 C   0  0  0  0  0  0  0  0  0  0  0  0
   -5.5600   16.8070  -32.7690 C   0  0  0  0  0  0  0  0  0  0  0  0
   -5.4750   17.1340  -34.1450 O   0  0  0  0  0  0  0  0  0  0  0  0
   -5.2830   18.5270  -34.2950 C   0  0  0  0  0  0  0  0  0  0  0  0
   -6.5040   19.3130  -33.7780 C   0  0  0  0  0  0  0  0  0  0  0  0
   -6.6080   21.0720  -31.2290 C   0  0  0  0  0  0  0  0  0  0  0  0
   -1.8270   22.5450  -29.3280 C   0  0  0  0  0  0  0  0  0  0  0  0
   -2.0750   21.2660  -29.8710 C   0  0  0  0  0  0  0  0  0  0  0  0
   -1.1630   20.2250  -29.6770 C   0  0  0  0  0  0  0  0  0  0  0  0
   -0.0010   20.4350  -28.9330 C   0  0  0  0  0  0  0  0  0  0  0  0
    0.2480   21.6850  -28.3640 C   0  0  0  0  0  0  0  0  0  0  0  0
   -0.6580   22.7350  -28.5480 C   0  0  0  0  0  0  0  0  0  0  0  0
   -0.4160   23.9360  -27.9600 N   0  0  0  0  0  0  0  0  0  0  0  0
   -0.9733   26.1615  -26.3296 H   0  0  0  0  0  0  0  0  0  0  0  0
    0.0646   26.6109  -27.7252 H   0  0  0  0  0  0  0  0  0  0  0  0
   -1.6783   27.0460  -27.7252 H   0  0  0  0  0  0  0  0  0  0  0  0
   -3.1137   25.7072  -28.9580 H   0  0  0  0  0  0  0  0  0  0  0  0
   -4.3080   21.5070  -29.9990 H   0  0  0  0  0  0  0  0  0  0  0  0
   -6.4276   24.4657  -30.8339 H   0  0  0  0  0  0  0  0  0  0  0  0
   -8.7230   24.2937  -31.7936 H   0  0  0  0  0  0  0  0  0  0  0  0
   -9.6678   22.0655  -32.3928 H   0  0  0  0  0  0  0  0  0  0  0  0
   -6.1200   18.3305  -31.3248 H   0  0  0  0  0  0  0  0  0  0  0  0
   -7.2996   16.9805  -31.4823 H   0  0  0  0  0  0  0  0  0  0  0  0
   -4.5797   16.9837  -32.3023 H   0  0  0  0  0  0  0  0  0  0  0  0
   -5.8573   15.7507  -32.6921 H   0  0  0  0  0  0  0  0  0  0  0  0
   -4.3925   18.8306  -33.7251 H   0  0  0  0  0  0  0  0  0  0  0  0
   -5.1512   18.7489  -35.3643 H   0  0  0  0  0  0  0  0  0  0  0  0
   -6.1571   20.1372  -33.1374 H   0  0  0  0  0  0  0  0  0  0  0  0
   -7.0607   19.7063  -34.6414 H   0  0  0  0  0  0  0  0  0  0  0  0
   -6.0177   20.1597  -31.0581 H   0  0  0  0  0  0  0  0  0  0  0  0
   -2.9925   21.0874  -30.4509 H   0  0  0  0  0  0  0  0  0  0  0  0
   -1.3620   19.2349  -30.1130 H   0  0  0  0  0  0  0  0  0  0  0  0
    0.7190   19.6149  -28.7949 H   0  0  0  0  0  0  0  0  0  0  0  0
    1.1593   21.8450  -27.7691 H   0  0  0  0  0  0  0  0  0  0  0  0
  1  2  1  0
  2  3  2  0
  3  4  1  0
  4  5  1  0
  5  6  2  0
  5  7  1  0
  7  8  1  0
  8  9  2  0
  9 10  1  0
 10 11  2  0
 11 12  1  0
 12 13  1  0
 13 14  2  0
 13 15  2  0
 13 16  1  0
 16 17  1  0
 17 18  1  0
 18 19  1  0
 19 20  1  0
 20 21  1  0
 12 22  2  0
  4 23  2  0
 23 24  1  0
 24 25  2  0
 25 26  1  0
 26 27  2  0
 27 28  1  0
 28 29  2  0
 29  2  1  0
 22  8  1  0
 28 23  1  0
 21 16  1  0
  1 30  1  0
  1 31  1  0
  1 32  1  0
  3 33  1  0
  7 34  1  0
  9 35  1  0
 10 36  1  0
 11 37  1  0
 17 38  1  0
 17 39  1  0
 18 40  1  0
 18 41  1  0
 20 42  1  0
 20 43  1  0
 21 44  1  0
 21 45  1  0
 22 46  1  0
 24 47  1  0
 25 48  1  0
 26 49  1  0
 27 50  1  0
M  END
>  <UniqueID>  (43) 
42

>  <SMILES>  (43) 
Cc1cc(C(=O)Nc2cccc(S(=O)(=O)N3CCOCC3)c2)c2ccccc2n1

>  <Energy>  (43) 
72.90515091579539

>  <Genealogy>  (43) 
Cc1cc(C(=O)Nc2cccc(S(=O)(=O)N3CCOCC3)c2)c2ccccc2n1 (3D coordinates assigned)
Cc1cc(C(=O)Nc2cccc(S(=O)(=O)N3CCOCC3)c2)c2ccccc2n1 (nonaromatic ring conformer: 72.90515091579539 kcal/mol)

>  <smiles>  (43) 
Cc1cc(C(=O)Nc2cccc(S(=O)(=O)N3CCOCC3)c2)c2ccccc2n1

>  <score_type>  (43) 
oracle

>  <origin>  (43) 
adgpu

>  <m_score__min__energy>  (43) 
-9.7899999999999991

>  <m_primary>  (43) 
energy

$$$$
43:0
     RDKit          3D

 51 54  0  0  0  0  0  0  0  0999 V2000
    0.6902   22.1989  -30.1379 H   0  0  0  0  0  0  0  0  0  0  0  0
   -0.2900   21.8440  -30.4890 C   0  0  0  0  0  0  0  0  0  0  0  0
   -0.3960   21.2050  -31.7270 C   0  0  0  0  0  0  0  0  0  0  0  0
    0.5038   21.0558  -32.3420 H   0  0  0  0  0  0  0  0  0  0  0  0
   -1.6390   20.7520  -32.1930 C   0  0  0  0  0  0  0  0  0  0  0  0
   -1.7270   20.0990  -33.4710 N   0  0  0  0  0  0  0  0  0  0  0  0
   -1.0420   20.6790  -34.6250 C   0  0  0  0  0  0  0  0  0  0  0  0
   -0.2454   21.3535  -34.2777 H   0  0  0  0  0  0  0  0  0  0  0  0
   -0.6022   19.8745  -35.2328 H   0  0  0  0  0  0  0  0  0  0  0  0
   -1.7629   21.2454  -35.2328 H   0  0  0  0  0  0  0  0  0  0  0  0
   -2.5750   18.9190  -33.6530 C   0  0  0  0  0  0  0  0  0  0  0  0
   -2.8625   18.5189  -32.6695 H   0  0  0  0  0  0  0  0  0  0  0  0
   -3.4791   19.2000  -34.2131 H   0  0  0  0  0  0  0  0  0  0  0  0
   -2.0204   18.1517  -34.2131 H   0  0  0  0  0  0  0  0  0  0  0  0
   -2.7920   20.9810  -31.4160 C   0  0  0  0  0  0  0  0  0  0  0  0
   -4.0720   20.5250  -31.8740 N   0  0  0  0  0  0  0  0  0  0  0  0
   -5.2640   21.0480  -31.7240 C   0  0  0  0  0  0  0  0  0  0  0  0
   -5.5060   22.3890  -31.2810 C   0  0  0  0  0  0  0  0  0  0  0  0
   -4.5330   23.4170  -31.3080 C   0  0  0  0  0  0  0  0  0  0  0  0
   -3.5351   23.2092  -31.7214 H   0  0  0  0  0  0  0  0  0  0  0  0
   -4.8240   24.6930  -30.8160 C   0  0  0  0  0  0  0  0  0  0  0  0
   -3.8440   25.6780  -30.8220 O   0  0  0  0  0  0  0  0  0  0  0  0
   -6.0980   24.9850  -30.3310 C   0  0  0  0  0  0  0  0  0  0  0  0
   -6.3109   25.9758  -29.9032 H   0  0  0  0  0  0  0  0  0  0  0  0
   -7.1010   24.0200  -30.3890 C   0  0  0  0  0  0  0  0  0  0  0  0
   -8.1146   24.2621  -30.0370 H   0  0  0  0  0  0  0  0  0  0  0  0
   -6.8250   22.7440  -30.8930 C   0  0  0  0  0  0  0  0  0  0  0  0
   -7.8480   21.8700  -31.0540 N   0  0  0  0  0  0  0  0  0  0  0  0
   -7.6720   20.6420  -31.5980 C   0  0  0  0  0  0  0  0  0  0  0  0
   -8.7800   19.8080  -31.7780 C   0  0  0  0  0  0  0  0  0  0  0  0
   -9.7813   20.1569  -31.4853 H   0  0  0  0  0  0  0  0  0  0  0  0
   -8.6210   18.5360  -32.3270 C   0  0  0  0  0  0  0  0  0  0  0  0
   -9.4980   17.8880  -32.4722 H   0  0  0  0  0  0  0  0  0  0  0  0
   -7.3490   18.0810  -32.6940 C   0  0  0  0  0  0  0  0  0  0  0  0
   -7.1890   16.7730  -33.2540 N   0  0  0  0  0  0  0  0  0  0  0  0
   -6.6430   16.0390  -32.7500 H   0  0  0  0  0  0  0  0  0  0  0  0
   -7.6080   16.5330  -34.1800 H   0  0  0  0  0  0  0  0  0  0  0  0
   -6.2340   18.9090  -32.5080 C   0  0  0  0  0  0  0  0  0  0  0  0
   -5.2343   18.5458  -32.7885 H   0  0  0  0  0  0  0  0  0  0  0  0
   -6.3790   20.2060  -31.9640 C   0  0  0  0  0  0  0  0  0  0  0  0
   -2.6730   21.5930  -30.1570 C   0  0  0  0  0  0  0  0  0  0  0  0
   -3.5673   21.7262  -29.5305 H   0  0  0  0  0  0  0  0  0  0  0  0
   -1.4300   22.0350  -29.6910 C   0  0  0  0  0  0  0  0  0  0  0  0
   -1.3650   22.6700  -28.4060 N   0  0  0  0  0  0  0  0  0  0  0  0
   -1.1540   24.3700  -28.1440 S   0  0  0  0  0  0  0  0  0  0  0  0
   -1.8590   25.1440  -29.2220 O   0  0  0  0  0  0  0  0  0  0  0  0
    0.3100   24.7100  -28.1430 O   0  0  0  0  0  0  0  0  0  0  0  0
   -1.8510   24.8010  -26.5670 C   0  0  0  0  0  0  0  0  0  0  0  0
   -1.2121   24.4059  -25.7634 H   0  0  0  0  0  0  0  0  0  0  0  0
   -1.9138   25.8958  -26.4807 H   0  0  0  0  0  0  0  0  0  0  0  0
   -2.8585   24.3680  -26.4807 H   0  0  0  0  0  0  0  0  0  0  0  0
  1  2  1  0
  2  3  2  0
  3  4  1  0
  3  5  1  0
  5  6  1  0
  6  7  1  0
  7  8  1  0
  7  9  1  0
  7 10  1  0
  6 11  1  0
 11 12  1  0
 11 13  1  0
 11 14  1  0
  5 15  2  0
 15 16  1  0
 16 17  2  0
 17 18  1  0
 18 19  2  0
 19 20  1  0
 19 21  1  0
 21 22  1  0
 21 23  2  0
 23 24  1  0
 23 25  1  0
 25 26  1  0
 25 27  2  0
 27 28  1  0
 28 29  1  0
 29 30  2  0
 30 31  1  0
 30 32  1  0
 32 33  1  0
 32 34  2  0
 34 35  1  0
 35 36  1  0
 35 37  1  0
 34 38  1  0
 38 39  1  0
 38 40  2  0
 15 41  1  0
 41 42  1  0
 41 43  2  0
 43 44  1  0
 44 45  1  0
 45 46  2  0
 45 47  2  0
 45 48  1  0
 48 49  1  0
 48 50  1  0
 48 51  1  0
 43  2  1  0
 40 17  1  0
 27 18  1  0
 40 29  1  0
M  CHG  3  22  -1  28  -1  44  -1
M  END
>  <UniqueID>  (44) 
43

>  <SMILES>  (44) 
CN(C)c1ccc([N-]S(C)(=O)=O)cc1/N=c1/c2cc(N)ccc2[n-]c2ccc([O-])cc12

>  <Energy>  (44) 
83.60966773080499

>  <Genealogy>  (44) 
CN(C)c1ccc([N-]S(C)(=O)=O)cc1N=c1c2cc(N)ccc2[n-]c2ccc([O-])cc12 (protonated)
CN(C)c1ccc([N-]S(C)(=O)=O)cc1/N=c1/c2cc(N)ccc2[n-]c2ccc([O-])cc12 (cis-trans isomerization)
CN(C)c1ccc([N-]S(C)(=O)=O)cc1/N=c1/c2cc(N)ccc2[n-]c2ccc([O-])cc12 (3D coordinates assigned)
CN(C)c1ccc([N-]S(C)(=O)=O)cc1/N=c1/c2cc(N)ccc2[n-]c2ccc([O-])cc12 (optimized conformer: 83.60966773080499 kcal/mol)

>  <smiles>  (44) 
CN(C)c1ccc(NS(C)(=O)=O)cc1N=c1c2cc(N)ccc2[nH]c2ccc(O)cc12

>  <score_type>  (44) 
oracle

>  <origin>  (44) 
adgpu

>  <m_score__min__energy>  (44) 
-13.51

>  <m_primary>  (44) 
energy

$$$$
44:0
     RDKit          3D

 61 65  0  0  0  0  0  0  0  0999 V2000
   -2.6820   21.7750  -28.2480 O   0  0  0  0  0  0  0  0  0  0  0  0
   -1.6800   22.0860  -29.3210 S   0  0  0  0  0  0  0  0  0  0  0  0
   -0.4550   22.7070  -28.7070 O   0  0  0  0  0  0  0  0  0  0  0  0
   -2.4110   23.2110  -30.4230 N   0  0  0  0  0  0  0  0  0  0  0  0
   -3.8170   23.2450  -30.6880 C   0  0  0  0  0  0  0  0  0  0  0  0
   -4.5060   22.0320  -30.8100 C   0  0  0  0  0  0  0  0  0  0  0  0
   -5.8760   22.0170  -31.1050 C   0  0  0  0  0  0  0  0  0  0  0  0
   -6.5620   23.2360  -31.2900 C   0  0  0  0  0  0  0  0  0  0  0  0
   -5.8810   24.4510  -31.1100 C   0  0  0  0  0  0  0  0  0  0  0  0
   -4.5170   24.4600  -30.8070 C   0  0  0  0  0  0  0  0  0  0  0  0
   -3.8720   25.6770  -30.6010 O   0  0  0  0  0  0  0  0  0  0  0  0
   -8.0460   23.2480  -31.5760 C   0  0  0  0  0  0  0  0  0  0  0  0
   -8.5160   21.9790  -32.1480 N   0  0  0  0  0  0  0  0  0  0  0  0
   -8.0960   20.8490  -31.3130 C   0  0  0  0  0  0  0  0  0  0  0  0
   -6.5690   20.6960  -31.3200 C   0  0  0  0  0  0  0  0  0  0  0  0
   -1.1940   20.6300  -30.2140 C   0  0  0  0  0  0  0  0  0  0  0  0
   -1.5900   20.5460  -31.5600 C   0  0  0  0  0  0  0  0  0  0  0  0
   -1.2460   19.4480  -32.3500 C   0  0  0  0  0  0  0  0  0  0  0  0
   -1.7540   19.3900  -34.0340 S   0  0  0  0  0  0  0  0  0  0  0  0
   -0.8710   18.4540  -34.8120 O   0  0  0  0  0  0  0  0  0  0  0  0
   -1.6480   20.7630  -34.6360 O   0  0  0  0  0  0  0  0  0  0  0  0
   -3.4170   18.8090  -34.1290 C   0  0  0  0  0  0  0  0  0  0  0  0
   -4.4890   19.6640  -33.8240 C   0  0  0  0  0  0  0  0  0  0  0  0
   -5.8050   19.1870  -33.8840 C   0  0  0  0  0  0  0  0  0  0  0  0
   -6.0540   17.8600  -34.2430 C   0  0  0  0  0  0  0  0  0  0  0  0
   -4.9860   17.0020  -34.5400 C   0  0  0  0  0  0  0  0  0  0  0  0
   -3.6700   17.4750  -34.4800 C   0  0  0  0  0  0  0  0  0  0  0  0
   -0.4800   18.4210  -31.8000 C   0  0  0  0  0  0  0  0  0  0  0  0
   -0.0550   18.4930  -30.4730 C   0  0  0  0  0  0  0  0  0  0  0  0
   -0.3940   19.5900  -29.6640 C   0  0  0  0  0  0  0  0  0  0  0  0
    0.2300   19.6140  -28.0020 S   0  0  0  0  0  0  0  0  0  0  0  0
   -0.9060   19.7290  -27.0210 O   0  0  0  0  0  0  0  0  0  0  0  0
    1.1230   20.8130  -27.8270 O   0  0  0  0  0  0  0  0  0  0  0  0
    1.0920   18.1200  -27.6390 C   0  0  0  0  0  0  0  0  0  0  0  0
    0.3730   16.9280  -27.4700 C   0  0  0  0  0  0  0  0  0  0  0  0
    1.0480   15.7290  -27.2180 C   0  0  0  0  0  0  0  0  0  0  0  0
    2.4410   15.7170  -27.1220 C   0  0  0  0  0  0  0  0  0  0  0  0
    3.1620   16.9060  -27.2750 C   0  0  0  0  0  0  0  0  0  0  0  0
    2.4900   18.1070  -27.5310 C   0  0  0  0  0  0  0  0  0  0  0  0
   -3.9673   21.0828  -30.6731 H   0  0  0  0  0  0  0  0  0  0  0  0
   -6.4251   25.4020  -31.2082 H   0  0  0  0  0  0  0  0  0  0  0  0
   -8.5856   23.4330  -30.6355 H   0  0  0  0  0  0  0  0  0  0  0  0
   -8.2391   24.0406  -32.3139 H   0  0  0  0  0  0  0  0  0  0  0  0
   -8.1060   21.8670  -33.1040 H   0  0  0  0  0  0  0  0  0  0  0  0
   -8.4355   21.0191  -30.2806 H   0  0  0  0  0  0  0  0  0  0  0  0
   -8.5417   19.9291  -31.7193 H   0  0  0  0  0  0  0  0  0  0  0  0
   -6.2762   20.0047  -30.5160 H   0  0  0  0  0  0  0  0  0  0  0  0
   -6.2677   20.3065  -32.3036 H   0  0  0  0  0  0  0  0  0  0  0  0
   -2.1828   21.3618  -31.9995 H   0  0  0  0  0  0  0  0  0  0  0  0
   -4.2952   20.7083  -33.5380 H   0  0  0  0  0  0  0  0  0  0  0  0
   -6.6437   19.8585  -33.6480 H   0  0  0  0  0  0  0  0  0  0  0  0
   -7.0882   17.4884  -34.2926 H   0  0  0  0  0  0  0  0  0  0  0  0
   -5.1822   15.9566  -34.8203 H   0  0  0  0  0  0  0  0  0  0  0  0
   -2.8327   16.7992  -34.7086 H   0  0  0  0  0  0  0  0  0  0  0  0
   -0.2095   17.5501  -32.4150 H   0  0  0  0  0  0  0  0  0  0  0  0
    0.5545   17.6787  -30.0542 H   0  0  0  0  0  0  0  0  0  0  0  0
   -0.7250   16.9358  -27.5358 H   0  0  0  0  0  0  0  0  0  0  0  0
    0.4808   14.7945  -27.0953 H   0  0  0  0  0  0  0  0  0  0  0  0
    2.9711   14.7732  -26.9262 H   0  0  0  0  0  0  0  0  0  0  0  0
    4.2590   16.8972  -27.1940 H   0  0  0  0  0  0  0  0  0  0  0  0
    3.0590   19.0412  -27.6475 H   0  0  0  0  0  0  0  0  0  0  0  0
  1  2  2  0
  2  3  2  0
  2  4  1  0
  4  5  1  0
  5  6  2  0
  6  7  1  0
  7  8  2  0
  8  9  1  0
  9 10  2  0
 10 11  1  0
  8 12  1  0
 12 13  1  0
 13 14  1  0
 14 15  1  0
  2 16  1  0
 16 17  2  0
 17 18  1  0
 18 19  1  0
 19 20  2  0
 19 21  2  0
 19 22  1  0
 22 23  2  0
 23 24  1  0
 24 25  2  0
 25 26  1  0
 26 27  2  0
 18 28  2  0
 28 29  1  0
 29 30  2  0
 30 31  1  0
 31 32  2  0
 31 33  2  0
 31 34  1  0
 34 35  2  0
 35 36  1  0
 36 37  2  0
 37 38  1  0
 38 39  2  0
 10  5  1  0
 30 16  1  0
 39 34  1  0
 15  7  1  0
 27 22  1  0
  6 40  1  0
  9 41  1  0
 12 42  1  0
 12 43  1  0
 13 44  1  0
 14 45  1  0
 14 46  1  0
 15 47  1  0
 15 48  1  0
 17 49  1  0
 23 50  1  0
 24 51  1  0
 25 52  1  0
 26 53  1  0
 27 54  1  0
 28 55  1  0
 29 56  1  0
 35 57  1  0
 36 58  1  0
 37 59  1  0
 38 60  1  0
 39 61  1  0
M  CHG  2   4  -1  11  -1
M  END
>  <UniqueID>  (45) 
44

>  <SMILES>  (45) 
O=S(=O)([N-]c1cc2c(cc1[O-])CNCC2)c1cc(S(=O)(=O)c2ccccc2)ccc1S(=O)(=O)c1ccccc1

>  <Energy>  (45) 
83.55360944409276

>  <Genealogy>  (45) 
O=S(=O)([N-]c1cc2c(cc1[O-])CNCC2)c1cc(S(=O)(=O)c2ccccc2)ccc1S(=O)(=O)c1ccccc1 (protonated)
O=S(=O)([N-]c1cc2c(cc1[O-])CNCC2)c1cc(S(=O)(=O)c2ccccc2)ccc1S(=O)(=O)c1ccccc1 (3D coordinates assigned)
O=S(=O)([N-]c1cc2c(cc1[O-])CNCC2)c1cc(S(=O)(=O)c2ccccc2)ccc1S(=O)(=O)c1ccccc1 (nonaromatic ring conformer: 83.55360944409276 kcal/mol)

>  <smiles>  (45) 
O=S(=O)(Nc1cc2c(cc1O)CNCC2)c1cc(S(=O)(=O)c2ccccc2)ccc1S(=O)(=O)c1ccccc1

>  <score_type>  (45) 
oracle

>  <origin>  (45) 
adgpu

>  <m_score__min__energy>  (45) 
-14.710000000000001

>  <m_primary>  (45) 
energy

$$$$
45:0
     RDKit          3D

 55 59  0  0  0  0  0  0  0  0999 V2000
   -1.4290   20.4830  -25.8470 C   0  0  0  0  0  0  0  0  0  0  0  0
   -0.5390   20.3540  -27.0160 N   0  0  0  0  0  0  0  0  0  0  0  0
   -1.1890   19.6700  -28.1510 C   0  0  0  0  0  0  0  0  0  0  0  0
   -2.3550   20.4780  -28.7390 C   0  0  0  0  0  0  0  0  0  0  0  0
   -2.0220   21.9410  -28.8840 C   0  0  0  0  0  0  0  0  0  0  0  0
   -2.8700   22.7620  -29.6390 C   0  0  0  0  0  0  0  0  0  0  0  0
   -2.6430   24.1450  -29.7280 C   0  0  0  0  0  0  0  0  0  0  0  0
   -3.5390   24.9940  -30.4590 N   0  0  0  0  0  0  0  0  0  0  0  0
   -5.2600   24.7790  -30.4810 S   0  0  0  0  0  0  0  0  0  0  0  0
   -5.9160   25.9660  -31.1310 O   0  0  0  0  0  0  0  0  0  0  0  0
   -5.7630   24.6600  -29.0710 O   0  0  0  0  0  0  0  0  0  0  0  0
   -5.6270   23.2900  -31.3500 C   0  0  0  0  0  0  0  0  0  0  0  0
   -6.9440   22.8570  -31.5050 C   0  0  0  0  0  0  0  0  0  0  0  0
   -7.2290   21.7550  -32.3060 C   0  0  0  0  0  0  0  0  0  0  0  0
   -6.2020   21.0550  -32.9670 C   0  0  0  0  0  0  0  0  0  0  0  0
   -4.8430   21.4620  -32.7820 C   0  0  0  0  0  0  0  0  0  0  0  0
   -4.5890   22.5930  -31.9770 C   0  0  0  0  0  0  0  0  0  0  0  0
   -3.6620   20.7620  -33.3890 C   0  0  0  0  0  0  0  0  0  0  0  0
   -2.5210   21.2840  -33.2670 O   0  0  0  0  0  0  0  0  0  0  0  0
   -3.7360   19.4800  -34.1800 C   0  0  0  0  0  0  0  0  0  0  0  0
   -4.5930   18.4370  -33.5080 C   0  0  0  0  0  0  0  0  0  0  0  0
   -4.0130   17.2620  -32.9940 C   0  0  0  0  0  0  0  0  0  0  0  0
   -4.8100   16.2910  -32.3790 C   0  0  0  0  0  0  0  0  0  0  0  0
   -6.1890   16.4850  -32.2690 C   0  0  0  0  0  0  0  0  0  0  0  0
   -6.7740   17.6510  -32.7680 C   0  0  0  0  0  0  0  0  0  0  0  0
   -5.9840   18.6310  -33.3920 C   0  0  0  0  0  0  0  0  0  0  0  0
   -6.6030   19.9140  -33.8710 C   0  0  0  0  0  0  0  0  0  0  0  0
   -1.5170   24.7010  -29.0930 C   0  0  0  0  0  0  0  0  0  0  0  0
   -1.2360   26.0650  -29.1750 O   0  0  0  0  0  0  0  0  0  0  0  0
   -0.6700   23.8840  -28.3390 C   0  0  0  0  0  0  0  0  0  0  0  0
   -0.9270   22.5120  -28.2040 C   0  0  0  0  0  0  0  0  0  0  0  0
    0.0390   21.6520  -27.4230 C   0  0  0  0  0  0  0  0  0  0  0  0
   -0.8368   20.3972  -24.9240 H   0  0  0  0  0  0  0  0  0  0  0  0
   -1.9282   21.4629  -25.8726 H   0  0  0  0  0  0  0  0  0  0  0  0
   -2.1858   19.6852  -25.8726 H   0  0  0  0  0  0  0  0  0  0  0  0
   -0.4400   19.5074  -28.9400 H   0  0  0  0  0  0  0  0  0  0  0  0
   -1.5977   18.7197  -27.7771 H   0  0  0  0  0  0  0  0  0  0  0  0
   -2.6023   20.0716  -29.7308 H   0  0  0  0  0  0  0  0  0  0  0  0
   -3.2056   20.3937  -28.0466 H   0  0  0  0  0  0  0  0  0  0  0  0
   -3.7251   22.3173  -30.1692 H   0  0  0  0  0  0  0  0  0  0  0  0
   -7.7597   23.3881  -30.9926 H   0  0  0  0  0  0  0  0  0  0  0  0
   -8.2720   21.4262  -32.4243 H   0  0  0  0  0  0  0  0  0  0  0  0
   -3.5522   22.9338  -31.8397 H   0  0  0  0  0  0  0  0  0  0  0  0
   -4.1601   19.7005  -35.1707 H   0  0  0  0  0  0  0  0  0  0  0  0
   -2.7161   19.0755  -34.2583 H   0  0  0  0  0  0  0  0  0  0  0  0
   -2.9272   17.1066  -33.0764 H   0  0  0  0  0  0  0  0  0  0  0  0
   -4.3506   15.3739  -31.9817 H   0  0  0  0  0  0  0  0  0  0  0  0
   -6.8150   15.7185  -31.7888 H   0  0  0  0  0  0  0  0  0  0  0  0
   -7.8592   17.8028  -32.6719 H   0  0  0  0  0  0  0  0  0  0  0  0
   -6.2594   20.1233  -34.8948 H   0  0  0  0  0  0  0  0  0  0  0  0
   -7.6982   19.8119  -33.8563 H   0  0  0  0  0  0  0  0  0  0  0  0
   -1.2210   26.5600  -30.0560 H   0  0  0  0  0  0  0  0  0  0  0  0
    0.2095   24.3228  -27.8451 H   0  0  0  0  0  0  0  0  0  0  0  0
    0.9227   21.4607  -28.0494 H   0  0  0  0  0  0  0  0  0  0  0  0
    0.2962   22.1991  -26.5041 H   0  0  0  0  0  0  0  0  0  0  0  0
  1  2  1  0
  2  3  1  0
  3  4  1  0
  4  5  1  0
  5  6  2  0
  6  7  1  0
  7  8  1  0
  8  9  1  0
  9 10  2  0
  9 11  2  0
  9 12  1  0
 12 13  2  0
 13 14  1  0
 14 15  2  0
 15 16  1  0
 16 17  2  0
 16 18  1  0
 18 19  2  0
 18 20  1  0
 20 21  1  0
 21 22  2  0
 22 23  1  0
 23 24  2  0
 24 25  1  0
 25 26  2  0
 26 27  1  0
  7 28  2  0
 28 29  1  0
 28 30  1  0
 30 31  2  0
 31 32  1  0
 32  2  1  0
 31  5  1  0
 17 12  1  0
 26 21  1  0
 27 15  1  0
  1 33  1  0
  1 34  1  0
  1 35  1  0
  3 36  1  0
  3 37  1  0
  4 38  1  0
  4 39  1  0
  6 40  1  0
 13 41  1  0
 14 42  1  0
 17 43  1  0
 20 44  1  0
 20 45  1  0
 22 46  1  0
 23 47  1  0
 24 48  1  0
 25 49  1  0
 27 50  1  0
 27 51  1  0
 29 52  1  0
 30 53  1  0
 32 54  1  0
 32 55  1  0
M  CHG  1   8  -1
M  END
>  <UniqueID>  (46) 
45

>  <SMILES>  (46) 
CN1CCc2cc([N-]S(=O)(=O)c3ccc4c(c3)C(=O)Cc3ccccc3C4)c(O)cc2C1

>  <Energy>  (46) 
79.18378686972665

>  <Genealogy>  (46) 
CN1CCc2cc([N-]S(=O)(=O)c3ccc4c(c3)C(=O)Cc3ccccc3C4)c(O)cc2C1 (protonated)
CN1CCc2cc([N-]S(=O)(=O)c3ccc4c(c3)C(=O)Cc3ccccc3C4)c(O)cc2C1 (3D coordinates assigned)
CN1CCc2cc([N-]S(=O)(=O)c3ccc4c(c3)C(=O)Cc3ccccc3C4)c(O)cc2C1 (nonaromatic ring conformer: 79.18378686972665 kcal/mol)

>  <smiles>  (46) 
CN1CCc2cc(NS(=O)(=O)c3ccc4c(c3)C(=O)Cc3ccccc3C4)c(O)cc2C1

>  <score_type>  (46) 
oracle

>  <origin>  (46) 
adgpu

>  <m_score__min__energy>  (46) 
-11.82

>  <m_primary>  (46) 
energy

$$$$
46:0
     RDKit          3D

 43 45  0  0  0  0  0  0  0  0999 V2000
   -2.7980   20.3990  -27.4270 C   0  0  0  0  0  0  0  0  0  0  0  0
   -2.4670   21.7960  -27.8650 C   0  0  0  0  0  0  0  0  0  0  0  0
   -1.4100   22.4900  -27.2660 C   0  0  0  0  0  0  0  0  0  0  0  0
   -1.0690   23.7700  -27.7100 C   0  0  0  0  0  0  0  0  0  0  0  0
   -1.7650   24.3700  -28.7660 C   0  0  0  0  0  0  0  0  0  0  0  0
   -1.3170   25.6170  -29.2070 O   0  0  0  0  0  0  0  0  0  0  0  0
   -2.8550   23.6870  -29.3650 C   0  0  0  0  0  0  0  0  0  0  0  0
   -3.6920   24.2890  -30.4290 C   0  0  0  0  0  0  0  0  0  0  0  0
   -3.8680   25.5350  -30.4730 O   0  0  0  0  0  0  0  0  0  0  0  0
   -4.3040   23.4350  -31.4040 N   0  0  0  0  0  0  0  0  0  0  0  0
   -5.5670   22.7590  -31.3070 C   0  0  0  0  0  0  0  0  0  0  0  0
   -6.6820   23.3500  -30.6830 C   0  0  0  0  0  0  0  0  0  0  0  0
   -7.8860   22.6460  -30.5750 C   0  0  0  0  0  0  0  0  0  0  0  0
   -7.9840   21.3450  -31.0710 C   0  0  0  0  0  0  0  0  0  0  0  0
   -6.8760   20.7390  -31.6680 C   0  0  0  0  0  0  0  0  0  0  0  0
   -5.6670   21.4390  -31.7820 C   0  0  0  0  0  0  0  0  0  0  0  0
   -4.5400   20.7990  -32.3920 N   0  0  0  0  0  0  0  0  0  0  0  0
   -3.2460   20.8010  -31.7010 C   0  0  0  0  0  0  0  0  0  0  0  0
   -2.0770   20.8810  -32.7070 C   0  0  0  0  0  0  0  0  0  0  0  0
   -2.3860   20.3360  -34.0460 N   0  0  0  0  0  0  0  0  0  0  0  0
   -3.4370   19.3120  -34.0160 C   0  0  0  0  0  0  0  0  0  0  0  0
   -4.7610   19.9250  -33.5460 C   0  0  0  0  0  0  0  0  0  0  0  0
   -3.1740   22.3910  -28.9200 C   0  0  0  0  0  0  0  0  0  0  0  0
   -2.8091   20.3522  -26.3281 H   0  0  0  0  0  0  0  0  0  0  0  0
   -3.7877   20.1176  -27.8160 H   0  0  0  0  0  0  0  0  0  0  0  0
   -2.0398   19.7034  -27.8160 H   0  0  0  0  0  0  0  0  0  0  0  0
   -0.8459   22.0265  -26.4432 H   0  0  0  0  0  0  0  0  0  0  0  0
   -0.2444   24.3124  -27.2244 H   0  0  0  0  0  0  0  0  0  0  0  0
   -1.6240   26.0500  -30.0680 H   0  0  0  0  0  0  0  0  0  0  0  0
   -6.6061   24.3701  -30.2785 H   0  0  0  0  0  0  0  0  0  0  0  0
   -8.7573   23.1187  -30.0982 H   0  0  0  0  0  0  0  0  0  0  0  0
   -8.9343   20.7966  -30.9917 H   0  0  0  0  0  0  0  0  0  0  0  0
   -6.9525   19.7101  -32.0495 H   0  0  0  0  0  0  0  0  0  0  0  0
   -3.2001   21.6695  -31.0274 H   0  0  0  0  0  0  0  0  0  0  0  0
   -3.1530   19.8642  -31.1320 H   0  0  0  0  0  0  0  0  0  0  0  0
   -1.7940   21.9377  -32.8224 H   0  0  0  0  0  0  0  0  0  0  0  0
   -1.2656   20.2626  -32.2957 H   0  0  0  0  0  0  0  0  0  0  0  0
   -2.7010   21.1200  -34.6680 H   0  0  0  0  0  0  0  0  0  0  0  0
   -3.5676   18.8959  -35.0258 H   0  0  0  0  0  0  0  0  0  0  0  0
   -3.1421   18.5158  -33.3166 H   0  0  0  0  0  0  0  0  0  0  0  0
   -5.1995   20.5123  -34.3663 H   0  0  0  0  0  0  0  0  0  0  0  0
   -5.4443   19.1144  -33.2529 H   0  0  0  0  0  0  0  0  0  0  0  0
   -3.9898   21.8363  -29.4066 H   0  0  0  0  0  0  0  0  0  0  0  0
  1  2  1  0
  2  3  2  0
  3  4  1  0
  4  5  2  0
  5  6  1  0
  5  7  1  0
  7  8  1  0
  8  9  2  0
  8 10  1  0
 10 11  1  0
 11 12  2  0
 12 13  1  0
 13 14  2  0
 14 15  1  0
 15 16  2  0
 16 17  1  0
 17 18  1  0
 18 19  1  0
 19 20  1  0
 20 21  1  0
 21 22  1  0
  7 23  2  0
 23  2  1  0
 16 11  1  0
 22 17  1  0
  1 24  1  0
  1 25  1  0
  1 26  1  0
  3 27  1  0
  4 28  1  0
  6 29  1  0
 12 30  1  0
 13 31  1  0
 14 32  1  0
 15 33  1  0
 18 34  1  0
 18 35  1  0
 19 36  1  0
 19 37  1  0
 20 38  1  0
 21 39  1  0
 21 40  1  0
 22 41  1  0
 22 42  1  0
 23 43  1  0
M  CHG  1  10  -1
M  END
>  <UniqueID>  (47) 
46

>  <SMILES>  (47) 
Cc1ccc(O)c(C(=O)[N-]c2ccccc2N2CCNCC2)c1

>  <Energy>  (47) 
62.08301105557159

>  <Genealogy>  (47) 
Cc1ccc(O)c(C(=O)[N-]c2ccccc2N2CCNCC2)c1 (protonated)
Cc1ccc(O)c(C(=O)[N-]c2ccccc2N2CCNCC2)c1 (3D coordinates assigned)
Cc1ccc(O)c(C(=O)[N-]c2ccccc2N2CCNCC2)c1 (nonaromatic ring conformer: 62.08301105557159 kcal/mol)

>  <smiles>  (47) 
Cc1ccc(O)c(C(=O)Nc2ccccc2N2CCNCC2)c1

>  <score_type>  (47) 
oracle

>  <origin>  (47) 
adgpu

>  <m_score__min__energy>  (47) 
-9.8499999999999996

>  <m_primary>  (47) 
energy

$$$$
47:0
     RDKit          3D

 51 54  0  0  0  0  0  0  0  0999 V2000
   -8.2570   18.2170  -32.3950 C   0  0  0  0  0  0  0  0  0  0  0  0
   -8.4580   19.6470  -32.6850 N   0  0  0  0  0  0  0  0  0  0  0  0
   -9.1230   20.3180  -31.5370 C   0  0  0  0  0  0  0  0  0  0  0  0
   -8.9320   21.8360  -31.5530 C   0  0  0  0  0  0  0  0  0  0  0  0
   -7.4660   22.1240  -31.5120 C   0  0  0  0  0  0  0  0  0  0  0  0
   -6.9470   23.1820  -30.7540 C   0  0  0  0  0  0  0  0  0  0  0  0
   -5.5720   23.4540  -30.7760 C   0  0  0  0  0  0  0  0  0  0  0  0
   -4.9510   24.8840  -29.9540 S   0  0  0  0  0  0  0  0  0  0  0  0
   -3.9500   25.5720  -30.8410 O   0  0  0  0  0  0  0  0  0  0  0  0
   -6.0830   25.8340  -29.6810 O   0  0  0  0  0  0  0  0  0  0  0  0
   -4.1930   24.4600  -28.4510 N   0  0  0  0  0  0  0  0  0  0  0  0
   -3.0670   23.5820  -28.3830 C   0  0  0  0  0  0  0  0  0  0  0  0
   -3.2170   22.2770  -27.8920 C   0  0  0  0  0  0  0  0  0  0  0  0
   -2.1440   21.3780  -27.9150 C   0  0  0  0  0  0  0  0  0  0  0  0
   -0.8750   21.8200  -28.3450 C   0  0  0  0  0  0  0  0  0  0  0  0
   -0.7170   23.1380  -28.7980 C   0  0  0  0  0  0  0  0  0  0  0  0
   -1.8020   24.0200  -28.8160 C   0  0  0  0  0  0  0  0  0  0  0  0
   -1.6050   25.3210  -29.2820 O   0  0  0  0  0  0  0  0  0  0  0  0
    0.2920   20.8630  -28.4160 C   0  0  0  0  0  0  0  0  0  0  0  0
    0.0830   19.6890  -27.5460 N   0  0  0  0  0  0  0  0  0  0  0  0
    1.1870   18.7320  -27.7100 C   0  0  0  0  0  0  0  0  0  0  0  0
   -1.2090   19.0470  -27.8490 C   0  0  0  0  0  0  0  0  0  0  0  0
   -2.3500   19.9720  -27.4150 C   0  0  0  0  0  0  0  0  0  0  0  0
   -4.7150   22.6440  -31.5370 C   0  0  0  0  0  0  0  0  0  0  0  0
   -5.2340   21.5850  -32.2880 C   0  0  0  0  0  0  0  0  0  0  0  0
   -6.6110   21.3210  -32.2800 C   0  0  0  0  0  0  0  0  0  0  0  0
   -7.2060   20.2790  -33.1980 C   0  0  0  0  0  0  0  0  0  0  0  0
   -8.2354   18.0632  -31.3060 H   0  0  0  0  0  0  0  0  0  0  0  0
   -9.0822   17.6349  -32.8312 H   0  0  0  0  0  0  0  0  0  0  0  0
   -7.3033   17.8849  -32.8312 H   0  0  0  0  0  0  0  0  0  0  0  0
  -10.2000   20.0978  -31.5757 H   0  0  0  0  0  0  0  0  0  0  0  0
   -8.6638   19.9337  -30.6143 H   0  0  0  0  0  0  0  0  0  0  0  0
   -9.3683   22.2563  -32.4712 H   0  0  0  0  0  0  0  0  0  0  0  0
   -9.4324   22.2905  -30.6852 H   0  0  0  0  0  0  0  0  0  0  0  0
   -7.6194   23.8000  -30.1408 H   0  0  0  0  0  0  0  0  0  0  0  0
   -4.1873   21.9565  -27.4848 H   0  0  0  0  0  0  0  0  0  0  0  0
    0.2698   23.4811  -29.1424 H   0  0  0  0  0  0  0  0  0  0  0  0
   -2.0680   25.6750  -30.1110 H   0  0  0  0  0  0  0  0  0  0  0  0
    0.4113   20.5213  -29.4548 H   0  0  0  0  0  0  0  0  0  0  0  0
    1.1931   21.3916  -28.0715 H   0  0  0  0  0  0  0  0  0  0  0  0
    1.5497   18.4176  -26.7203 H   0  0  0  0  0  0  0  0  0  0  0  0
    0.8303   17.8526  -28.2662 H   0  0  0  0  0  0  0  0  0  0  0  0
    2.0069   19.2099  -28.2662 H   0  0  0  0  0  0  0  0  0  0  0  0
   -1.2805   18.8582  -28.9303 H   0  0  0  0  0  0  0  0  0  0  0  0
   -1.2820   18.0932  -27.3059 H   0  0  0  0  0  0  0  0  0  0  0  0
   -3.2970   19.5846  -27.8188 H   0  0  0  0  0  0  0  0  0  0  0  0
   -2.3733   19.9975  -26.3155 H   0  0  0  0  0  0  0  0  0  0  0  0
   -3.6331   22.8426  -31.5426 H   0  0  0  0  0  0  0  0  0  0  0  0
   -4.5592   20.9564  -32.8876 H   0  0  0  0  0  0  0  0  0  0  0  0
   -7.4327   20.7587  -34.1616 H   0  0  0  0  0  0  0  0  0  0  0  0
   -6.4609   19.4744  -33.2841 H   0  0  0  0  0  0  0  0  0  0  0  0
  1  2  1  0
  2  3  1  0
  3  4  1  0
  4  5  1  0
  5  6  2  0
  6  7  1  0
  7  8  1  0
  8  9  2  0
  8 10  2  0
  8 11  1  0
 11 12  1  0
 12 13  2  0
 13 14  1  0
 14 15  2  0
 15 16  1  0
 16 17  2  0
 17 18  1  0
 15 19  1  0
 19 20  1  0
 20 21  1  0
 20 22  1  0
 22 23  1  0
  7 24  2  0
 24 25  1  0
 25 26  2  0
 26 27  1  0
 27  2  1  0
 26  5  1  0
 17 12  1  0
 23 14  1  0
  1 28  1  0
  1 29  1  0
  1 30  1  0
  3 31  1  0
  3 32  1  0
  4 33  1  0
  4 34  1  0
  6 35  1  0
 13 36  1  0
 16 37  1  0
 18 38  1  0
 19 39  1  0
 19 40  1  0
 21 41  1  0
 21 42  1  0
 21 43  1  0
 22 44  1  0
 22 45  1  0
 23 46  1  0
 23 47  1  0
 24 48  1  0
 25 49  1  0
 27 50  1  0
 27 51  1  0
M  CHG  1  11  -1
M  END
>  <UniqueID>  (48) 
47

>  <SMILES>  (48) 
CN1CCc2cc(S(=O)(=O)[N-]c3cc4c(cc3O)CN(C)CC4)ccc2C1

>  <Energy>  (48) 
72.99251190312346

>  <Genealogy>  (48) 
CN1CCc2cc(S(=O)(=O)[N-]c3cc4c(cc3O)CN(C)CC4)ccc2C1 (protonated)
CN1CCc2cc(S(=O)(=O)[N-]c3cc4c(cc3O)CN(C)CC4)ccc2C1 (3D coordinates assigned)
CN1CCc2cc(S(=O)(=O)[N-]c3cc4c(cc3O)CN(C)CC4)ccc2C1 (nonaromatic ring conformer: 72.99251190312346 kcal/mol)

>  <smiles>  (48) 
CN1CCc2cc(S(=O)(=O)Nc3cc4c(cc3O)CN(C)CC4)ccc2C1

>  <score_type>  (48) 
oracle

>  <origin>  (48) 
adgpu

>  <m_score__min__energy>  (48) 
-11.949999999999999

>  <m_primary>  (48) 
energy

$$$$
48:0
     RDKit          3D

 35 37  0  0  0  0  0  0  0  0999 V2000
    1.5530   24.8770  -26.5000 C   0  0  0  0  0  0  0  0  0  0  0  0
    1.2480   24.6730  -27.8760 O   0  0  0  0  0  0  0  0  0  0  0  0
    0.0710   24.0730  -28.3500 C   0  0  0  0  0  0  0  0  0  0  0  0
   -0.9670   24.8230  -28.9340 C   0  0  0  0  0  0  0  0  0  0  0  0
   -2.1240   24.1910  -29.3950 C   0  0  0  0  0  0  0  0  0  0  0  0
   -3.1170   24.9230  -29.9560 N   0  0  0  0  0  0  0  0  0  0  0  0
   -4.2550   24.3440  -30.4140 C   0  0  0  0  0  0  0  0  0  0  0  0
   -5.1530   25.0740  -30.9130 O   0  0  0  0  0  0  0  0  0  0  0  0
   -4.4270   22.9860  -30.3210 N   0  0  0  0  0  0  0  0  0  0  0  0
   -5.6400   22.3790  -30.8120 C   0  0  0  0  0  0  0  0  0  0  0  0
   -5.6010   21.4980  -31.9040 C   0  0  0  0  0  0  0  0  0  0  0  0
   -6.7770   20.9110  -32.3790 C   0  0  0  0  0  0  0  0  0  0  0  0
   -8.0010   21.1980  -31.7660 C   0  0  0  0  0  0  0  0  0  0  0  0
   -9.4760   20.4590  -32.3620 Cl  0  0  0  0  0  0  0  0  0  0  0  0
   -8.0480   22.0740  -30.6770 C   0  0  0  0  0  0  0  0  0  0  0  0
   -6.8720   22.6630  -30.2000 C   0  0  0  0  0  0  0  0  0  0  0  0
   -3.4450   22.2060  -29.7630 C   0  0  0  0  0  0  0  0  0  0  0  0
   -3.5950   20.9530  -29.6900 O   0  0  0  0  0  0  0  0  0  0  0  0
   -2.2630   22.7980  -29.2820 C   0  0  0  0  0  0  0  0  0  0  0  0
   -1.2270   22.0450  -28.7000 C   0  0  0  0  0  0  0  0  0  0  0  0
   -0.0590   22.6790  -28.2320 C   0  0  0  0  0  0  0  0  0  0  0  0
    0.9950   21.9610  -27.6460 O   0  0  0  0  0  0  0  0  0  0  0  0
    1.2240   20.5680  -27.8290 C   0  0  0  0  0  0  0  0  0  0  0  0
    0.7986   24.3724  -25.8785 H   0  0  0  0  0  0  0  0  0  0  0  0
    2.5473   24.4615  -26.2793 H   0  0  0  0  0  0  0  0  0  0  0  0
    1.5487   25.9546  -26.2793 H   0  0  0  0  0  0  0  0  0  0  0  0
   -0.8663   25.9143  -29.0280 H   0  0  0  0  0  0  0  0  0  0  0  0
   -4.6403   21.2685  -32.3882 H   0  0  0  0  0  0  0  0  0  0  0  0
   -6.7399   20.2224  -33.2360 H   0  0  0  0  0  0  0  0  0  0  0  0
   -9.0105   22.3002  -30.1949 H   0  0  0  0  0  0  0  0  0  0  0  0
   -6.9123   23.3510  -29.3426 H   0  0  0  0  0  0  0  0  0  0  0  0
   -1.3295   20.9535  -28.6097 H   0  0  0  0  0  0  0  0  0  0  0  0
    1.3046   20.0776  -26.8477 H   0  0  0  0  0  0  0  0  0  0  0  0
    0.3859   20.1293  -28.3904 H   0  0  0  0  0  0  0  0  0  0  0  0
    2.1584   20.4207  -28.3904 H   0  0  0  0  0  0  0  0  0  0  0  0
  1  2  1  0
  2  3  1  0
  3  4  2  0
  4  5  1  0
  5  6  1  0
  6  7  1  0
  7  8  2  0
  7  9  1  0
  9 10  1  0
 10 11  2  0
 11 12  1  0
 12 13  2  0
 13 14  1  0
 13 15  1  0
 15 16  2  0
  9 17  1  0
 17 18  2  0
 17 19  1  0
 19 20  1  0
 20 21  2  0
 21 22  1  0
 22 23  1  0
 21  3  1  0
 19  5  2  0
 16 10  1  0
  1 24  1  0
  1 25  1  0
  1 26  1  0
  4 27  1  0
 11 28  1  0
 12 29  1  0
 15 30  1  0
 16 31  1  0
 20 32  1  0
 23 33  1  0
 23 34  1  0
 23 35  1  0
M  CHG  1   6  -1
M  END
>  <UniqueID>  (49) 
48

>  <SMILES>  (49) 
COc1cc2[n-]c(=O)n(-c3ccc(Cl)cc3)c(=O)c2cc1OC

>  <Energy>  (49) 
51.368475412546495

>  <Genealogy>  (49) 
COc1cc2[n-]c(=O)n(-c3ccc(Cl)cc3)c(=O)c2cc1OC (protonated)
COc1cc2[n-]c(=O)n(-c3ccc(Cl)cc3)c(=O)c2cc1OC (3D coordinates assigned)
COc1cc2[n-]c(=O)n(-c3ccc(Cl)cc3)c(=O)c2cc1OC (optimized conformer: 51.368475412546495 kcal/mol)

>  <smiles>  (49) 
COc1cc2[nH]c(=O)n(-c3ccc(Cl)cc3)c(=O)c2cc1OC

>  <score_type>  (49) 
oracle

>  <origin>  (49) 
adgpu

>  <m_score__min__energy>  (49) 
-8.1600000000000001

>  <m_primary>  (49) 
energy

$$$$
49:0
     RDKit          3D

 54 58  0  0  0  0  0  0  0  0999 V2000
   -2.4780   20.8790  -32.1520 C   0  0  0  0  0  0  0  0  0  0  0  0
   -3.8970   20.5560  -32.0530 N   0  0  0  0  0  0  0  0  0  0  0  0
   -4.5470   19.4760  -32.7230 C   0  0  0  0  0  0  0  0  0  0  0  0
   -3.9220   18.5010  -33.2180 O   0  0  0  0  0  0  0  0  0  0  0  0
   -6.0450   19.6380  -32.7810 C   0  0  0  0  0  0  0  0  0  0  0  0
   -6.5370   19.6930  -34.2350 C   0  0  0  0  0  0  0  0  0  0  0  0
   -6.7510   18.5370  -31.9790 C   0  0  0  0  0  0  0  0  0  0  0  0
   -6.1790   20.9770  -32.1070 C   0  0  0  0  0  0  0  0  0  0  0  0
   -7.3440   21.7100  -31.8610 C   0  0  0  0  0  0  0  0  0  0  0  0
   -7.2340   22.9490  -31.2140 C   0  0  0  0  0  0  0  0  0  0  0  0
   -5.9730   23.4470  -30.8260 C   0  0  0  0  0  0  0  0  0  0  0  0
   -5.8760   24.9730  -29.9520 S   0  0  0  0  0  0  0  0  0  0  0  0
   -5.3440   26.0660  -30.8370 O   0  0  0  0  0  0  0  0  0  0  0  0
   -7.2530   25.3490  -29.4830 O   0  0  0  0  0  0  0  0  0  0  0  0
   -4.8280   24.7880  -28.5810 N   0  0  0  0  0  0  0  0  0  0  0  0
   -3.7870   23.7960  -28.5270 C   0  0  0  0  0  0  0  0  0  0  0  0
   -4.0110   22.5410  -27.9100 C   0  0  0  0  0  0  0  0  0  0  0  0
   -2.9600   21.6330  -27.8570 C   0  0  0  0  0  0  0  0  0  0  0  0
   -2.9690   20.4270  -27.3330 O   0  0  0  0  0  0  0  0  0  0  0  0
   -1.7650   19.9180  -27.5160 C   0  0  0  0  0  0  0  0  0  0  0  0
   -0.9410   20.8260  -28.1580 C   0  0  0  0  0  0  0  0  0  0  0  0
   -1.7310   21.9270  -28.3910 C   0  0  0  0  0  0  0  0  0  0  0  0
   -1.4720   23.1340  -29.0300 C   0  0  0  0  0  0  0  0  0  0  0  0
   -2.5150   24.0780  -29.0980 C   0  0  0  0  0  0  0  0  0  0  0  0
   -2.2780   25.2980  -29.7200 O   0  0  0  0  0  0  0  0  0  0  0  0
    0.4590   20.5340  -28.6030 C   0  0  0  0  0  0  0  0  0  0  0  0
    1.0100   19.3050  -27.8530 C   0  0  0  0  0  0  0  0  0  0  0  0
   -0.0190   18.1540  -27.8080 C   0  0  0  0  0  0  0  0  0  0  0  0
   -1.3070   18.5660  -27.0650 C   0  0  0  0  0  0  0  0  0  0  0  0
   -4.8100   22.6990  -31.0910 C   0  0  0  0  0  0  0  0  0  0  0  0
   -4.9420   21.4620  -31.7280 C   0  0  0  0  0  0  0  0  0  0  0  0
   -2.0527   20.9758  -31.1422 H   0  0  0  0  0  0  0  0  0  0  0  0
   -1.9563   20.0766  -32.6942 H   0  0  0  0  0  0  0  0  0  0  0  0
   -2.3550   21.8281  -32.6942 H   0  0  0  0  0  0  0  0  0  0  0  0
   -7.6301   19.8152  -34.2478 H   0  0  0  0  0  0  0  0  0  0  0  0
   -6.0668   20.5442  -34.7492 H   0  0  0  0  0  0  0  0  0  0  0  0
   -6.2664   18.7590  -34.7492 H   0  0  0  0  0  0  0  0  0  0  0  0
   -6.6271   18.7302  -30.9032 H   0  0  0  0  0  0  0  0  0  0  0  0
   -7.8221   18.5305  -32.2294 H   0  0  0  0  0  0  0  0  0  0  0  0
   -6.3100   17.5609  -32.2294 H   0  0  0  0  0  0  0  0  0  0  0  0
   -8.3265   21.3226  -32.1687 H   0  0  0  0  0  0  0  0  0  0  0  0
   -8.1397   23.5380  -31.0071 H   0  0  0  0  0  0  0  0  0  0  0  0
   -5.0830   25.3170  -27.7170 H   0  0  0  0  0  0  0  0  0  0  0  0
   -4.9934   22.2908  -27.4829 H   0  0  0  0  0  0  0  0  0  0  0  0
   -0.4852   23.3448  -29.4680 H   0  0  0  0  0  0  0  0  0  0  0  0
    0.4619   20.3314  -29.6842 H   0  0  0  0  0  0  0  0  0  0  0  0
    1.0948   21.4041  -28.3825 H   0  0  0  0  0  0  0  0  0  0  0  0
    1.9173   18.9521  -28.3652 H   0  0  0  0  0  0  0  0  0  0  0  0
    1.2328   19.6062  -26.8188 H   0  0  0  0  0  0  0  0  0  0  0  0
   -0.2782   17.8675  -28.8379 H   0  0  0  0  0  0  0  0  0  0  0  0
    0.4341   17.3112  -27.2655 H   0  0  0  0  0  0  0  0  0  0  0  0
   -2.0963   17.8287  -27.2734 H   0  0  0  0  0  0  0  0  0  0  0  0
   -1.0975   18.6039  -25.9858 H   0  0  0  0  0  0  0  0  0  0  0  0
   -3.8191   23.0799  -30.8030 H   0  0  0  0  0  0  0  0  0  0  0  0
  1  2  1  0
  2  3  1  0
  3  4  2  0
  3  5  1  0
  5  6  1  0
  5  7  1  0
  5  8  1  0
  8  9  2  0
  9 10  1  0
 10 11  2  0
 11 12  1  0
 12 13  2  0
 12 14  2  0
 12 15  1  0
 15 16  1  0
 16 17  2  0
 17 18  1  0
 18 19  1  0
 19 20  1  0
 20 21  2  0
 21 22  1  0
 22 23  1  0
 23 24  2  0
 24 25  1  0
 21 26  1  0
 26 27  1  0
 27 28  1  0
 28 29  1  0
 11 30  1  0
 30 31  2  0
 31  2  1  0
 31  8  1  0
 24 16  1  0
 22 18  2  0
 29 20  1  0
  1 32  1  0
  1 33  1  0
  1 34  1  0
  6 35  1  0
  6 36  1  0
  6 37  1  0
  7 38  1  0
  7 39  1  0
  7 40  1  0
  9 41  1  0
 10 42  1  0
 15 43  1  0
 17 44  1  0
 23 45  1  0
 26 46  1  0
 26 47  1  0
 27 48  1  0
 27 49  1  0
 28 50  1  0
 28 51  1  0
 29 52  1  0
 29 53  1  0
 30 54  1  0
M  CHG  1  25  -1
M  END
>  <UniqueID>  (50) 
49

>  <SMILES>  (50) 
CN1C(=O)C(C)(C)c2ccc(S(=O)(=O)Nc3cc4oc5c(c4cc3[O-])CCCC5)cc21

>  <Energy>  (50) 
111.01103455220598

>  <Genealogy>  (50) 
CN1C(=O)C(C)(C)c2ccc(S(=O)(=O)Nc3cc4oc5c(c4cc3[O-])CCCC5)cc21 (protonated)
CN1C(=O)C(C)(C)c2ccc(S(=O)(=O)Nc3cc4oc5c(c4cc3[O-])CCCC5)cc21 (3D coordinates assigned)
CN1C(=O)C(C)(C)c2ccc(S(=O)(=O)Nc3cc4oc5c(c4cc3[O-])CCCC5)cc21 (nonaromatic ring conformer: 111.01103455220598 kcal/mol)

>  <smiles>  (50) 
CN1C(=O)C(C)(C)c2ccc(S(=O)(=O)Nc3cc4oc5c(c4cc3O)CCCC5)cc21

>  <score_type>  (50) 
oracle

>  <origin>  (50) 
adgpu

>  <m_score__min__energy>  (50) 
-14.529999999999999

>  <m_primary>  (50) 
energy

$$$$
