0:0
     RDKit          3D

 32 34  0  0  0  0  0  0  0  0999 V2000
    4.7610   26.4990  -25.9080 H   0  0  0  0  0  0  0  0  0  0  0  0
    3.9640   27.0310  -26.2280 O   0  0  0  0  0  0  0  0  0  0  0  0
    2.7450   26.4520  -26.5820 C   0  0  0  0  0  0  0  0  0  0  0  0
    1.6200   27.2810  -26.6350 C   0  0  0  0  0  0  0  0  0  0  0  0
    1.7088   28.3369  -26.3397 H   0  0  0  0  0  0  0  0  0  0  0  0
    0.3860   26.7850  -27.0580 C   0  0  0  0  0  0  0  0  0  0  0  0
   -0.4877   27.4525  -27.0925 H   0  0  0  0  0  0  0  0  0  0  0  0
    0.2510   25.4400  -27.4400 C   0  0  0  0  0  0  0  0  0  0  0  0
   -1.0530   24.8920  -27.9010 C   0  0  0  0  0  0  0  0  0  0  0  0
   -1.6200   25.3020  -29.0710 N   0  0  0  0  0  0  0  0  0  0  0  0
   -2.8040   24.7000  -29.3050 C   0  0  0  0  0  0  0  0  0  0  0  0
   -3.4870   24.9180  -30.3890 N   0  0  0  0  0  0  0  0  0  0  0  0
   -4.7720   24.3650  -30.7170 C   0  0  0  0  0  0  0  0  0  0  0  0
   -4.8380   23.2960  -31.6200 C   0  0  0  0  0  0  0  0  0  0  0  0
   -3.9115   22.8765  -32.0390 H   0  0  0  0  0  0  0  0  0  0  0  0
   -6.0740   22.7590  -31.9920 C   0  0  0  0  0  0  0  0  0  0  0  0
   -6.1162   21.9077  -32.6873 H   0  0  0  0  0  0  0  0  0  0  0  0
   -7.2570   23.3030  -31.4810 C   0  0  0  0  0  0  0  0  0  0  0  0
   -8.8070   22.6320  -31.9510 Cl  0  0  0  0  0  0  0  0  0  0  0  0
   -7.2020   24.3930  -30.6060 C   0  0  0  0  0  0  0  0  0  0  0  0
   -8.1320   24.8276  -30.2108 H   0  0  0  0  0  0  0  0  0  0  0  0
   -5.9660   24.9310  -30.2330 C   0  0  0  0  0  0  0  0  0  0  0  0
   -5.9271   25.7995  -29.5590 H   0  0  0  0  0  0  0  0  0  0  0  0
   -3.1970   23.6130  -28.0780 S   0  0  0  0  0  0  0  0  0  0  0  0
   -1.8010   23.9410  -27.1990 C   0  0  0  0  0  0  0  0  0  0  0  0
   -1.5237   23.4856  -26.2368 H   0  0  0  0  0  0  0  0  0  0  0  0
    1.3760   24.5980  -27.3600 C   0  0  0  0  0  0  0  0  0  0  0  0
    1.2807   23.5413  -27.6502 H   0  0  0  0  0  0  0  0  0  0  0  0
    2.6200   25.0820  -26.9160 C   0  0  0  0  0  0  0  0  0  0  0  0
    3.7450   24.1300  -26.7810 C   0  0  0  0  0  0  0  0  0  0  0  0
    3.7720   23.0810  -27.4790 O   0  0  0  0  0  0  0  0  0  0  0  0
    4.7450   24.3420  -25.8410 O   0  0  0  0  0  0  0  0  0  0  0  0
  1  2  1  0
  2  3  1  0
  3  4  2  0
  4  5  1  0
  4  6  1  0
  6  7  1  0
  6  8  2  0
  8  9  1  0
  9 10  1  0
 10 11  1  0
 11 12  2  0
 12 13  1  0
 13 14  2  0
 14 15  1  0
 14 16  1  0
 16 17  1  0
 16 18  2  0
 18 19  1  0
 18 20  1  0
 20 21  1  0
 20 22  2  0
 22 23  1  0
 11 24  1  0
 24 25  1  0
 25 26  1  0
  8 27  1  0
 27 28  1  0
 27 29  2  0
 29 30  1  0
 30 31  2  0
 30 32  1  0
 29  3  1  0
 25  9  2  0
 22 13  1  0
M  CHG  2  10  -1  32  -1
M  END
>  <UniqueID>  (1) 
1

>  <SMILES>  (1) 
O=C([O-])c1cc(-c2cs/c(=N\c3ccc(Cl)cc3)[n-]2)ccc1O

>  <Energy>  (1) 
80.32752560327148

>  <Genealogy>  (1) 
O=C([O-])c1cc(-c2csc(=Nc3ccc(Cl)cc3)[n-]2)ccc1O (protonated)
O=C([O-])c1cc(-c2cs/c(=N\c3ccc(Cl)cc3)[n-]2)ccc1O (cis-trans isomerization)
O=C([O-])c1cc(-c2cs/c(=N\c3ccc(Cl)cc3)[n-]2)ccc1O (3D coordinates assigned)
O=C([O-])c1cc(-c2cs/c(=N\c3ccc(Cl)cc3)[n-]2)ccc1O (optimized conformer: 80.32752560327148 kcal/mol)

>  <smiles>  (1) 
O=C(O)c1cc(-c2csc(=Nc3ccc(Cl)cc3)[nH]2)ccc1O

>  <score_type>  (1) 
oracle

>  <origin>  (1) 
adgpu

>  <m_score__min__energy>  (1) 
-9.4700000000000006

>  <m_primary>  (1) 
energy

$$$$
1:0
     RDKit          3D

 35 37  0  0  0  0  0  0  0  0999 V2000
   -3.6388   14.0643  -34.7626 H   0  0  0  0  0  0  0  0  0  0  0  0
   -4.1220   14.8260  -34.1330 C   0  0  0  0  0  0  0  0  0  0  0  0
   -4.4320   14.5410  -32.8410 N   0  0  0  0  0  0  0  0  0  0  0  0
   -5.0340   15.4540  -32.0360 C   0  0  0  0  0  0  0  0  0  0  0  0
   -5.2777   15.1918  -30.9959 H   0  0  0  0  0  0  0  0  0  0  0  0
   -5.3450   16.7260  -32.5250 C   0  0  0  0  0  0  0  0  0  0  0  0
   -5.8406   17.4629  -31.8759 H   0  0  0  0  0  0  0  0  0  0  0  0
   -5.0190   17.0580  -33.8560 C   0  0  0  0  0  0  0  0  0  0  0  0
   -5.2910   18.2210  -34.3820 N   0  0  0  0  0  0  0  0  0  0  0  0
   -5.8180   19.3790  -33.7170 C   0  0  0  0  0  0  0  0  0  0  0  0
   -4.9510   20.4250  -33.3770 C   0  0  0  0  0  0  0  0  0  0  0  0
   -3.8896   20.3698  -33.6607 H   0  0  0  0  0  0  0  0  0  0  0  0
   -5.4270   21.5390  -32.6790 C   0  0  0  0  0  0  0  0  0  0  0  0
   -4.7437   22.3652  -32.4330 H   0  0  0  0  0  0  0  0  0  0  0  0
   -6.7720   21.6060  -32.2920 C   0  0  0  0  0  0  0  0  0  0  0  0
   -7.3760   23.0000  -31.4010 S   0  0  0  0  0  0  0  0  0  0  0  0
   -7.6140   22.5980  -29.9730 O   0  0  0  0  0  0  0  0  0  0  0  0
   -8.6680   23.4890  -31.9940 O   0  0  0  0  0  0  0  0  0  0  0  0
   -6.2110   24.2860  -31.4430 N   0  0  0  0  0  0  0  0  0  0  0  0
   -5.0830   24.2730  -30.7990 C   0  0  0  0  0  0  0  0  0  0  0  0
   -4.2050   25.2910  -30.8460 N   0  0  0  0  0  0  0  0  0  0  0  0
   -3.2040   24.9510  -30.0880 O   0  0  0  0  0  0  0  0  0  0  0  0
   -3.3940   23.7630  -29.5580 C   0  0  0  0  0  0  0  0  0  0  0  0
   -2.4450   23.0900  -28.6250 C   0  0  0  0  0  0  0  0  0  0  0  0
   -2.7409   23.2999  -27.5865 H   0  0  0  0  0  0  0  0  0  0  0  0
   -2.4666   22.0042  -28.8001 H   0  0  0  0  0  0  0  0  0  0  0  0
   -1.4275   23.4695  -28.8001 H   0  0  0  0  0  0  0  0  0  0  0  0
   -4.6070   23.2640  -29.9810 C   0  0  0  0  0  0  0  0  0  0  0  0
   -5.0792   22.3026  -29.7305 H   0  0  0  0  0  0  0  0  0  0  0  0
   -7.6350   20.5480  -32.6040 C   0  0  0  0  0  0  0  0  0  0  0  0
   -8.6910   20.5940  -32.2995 H   0  0  0  0  0  0  0  0  0  0  0  0
   -7.1590   19.4340  -33.3010 C   0  0  0  0  0  0  0  0  0  0  0  0
   -7.8368   18.5970  -33.5248 H   0  0  0  0  0  0  0  0  0  0  0  0
   -4.4160   16.0850  -34.6630 C   0  0  0  0  0  0  0  0  0  0  0  0
   -4.1743   16.3115  -35.7120 H   0  0  0  0  0  0  0  0  0  0  0  0
  1  2  1  0
  2  3  1  0
  3  4  1  0
  4  5  1  0
  4  6  2  0
  6  7  1  0
  6  8  1  0
  8  9  2  3
  9 10  1  0
 10 11  2  0
 11 12  1  0
 11 13  1  0
 13 14  1  0
 13 15  2  0
 15 16  1  0
 16 17  2  0
 16 18  2  0
 16 19  1  0
 19 20  2  0
 20 21  1  0
 21 22  1  0
 22 23  1  0
 23 24  1  0
 24 25  1  0
 24 26  1  0
 24 27  1  0
 23 28  2  0
 28 29  1  0
 15 30  1  0
 30 31  1  0
 30 32  2  0
 32 33  1  0
  8 34  1  0
 34 35  1  0
 34  2  2  0
 32 10  1  0
 28 20  1  0
M  CHG  2   3  -1  21  -1
M  END
>  <UniqueID>  (2) 
2

>  <SMILES>  (2) 
Cc1c/c(=N\S(=O)(=O)c2ccc(N=c3cc[n-]cc3)cc2)[n-]o1

>  <Energy>  (2) 
80.99003041425202

>  <Genealogy>  (2) 
Cc1cc(=NS(=O)(=O)c2ccc(N=c3cc[n-]cc3)cc2)[n-]o1 (protonated)
Cc1c/c(=N\S(=O)(=O)c2ccc(N=c3cc[n-]cc3)cc2)[n-]o1 (cis-trans isomerization)
Cc1c/c(=N\S(=O)(=O)c2ccc(N=c3cc[n-]cc3)cc2)[n-]o1 (3D coordinates assigned)
Cc1c/c(=N\S(=O)(=O)c2ccc(N=c3cc[n-]cc3)cc2)[n-]o1 (optimized conformer: 80.99003041425202 kcal/mol)

>  <smiles>  (2) 
Cc1cc(=NS(=O)(=O)c2ccc(N=c3cc[nH]cc3)cc2)[nH]o1

>  <score_type>  (2) 
oracle

>  <origin>  (2) 
adgpu

>  <m_score__min__energy>  (2) 
-10.25

>  <m_primary>  (2) 
energy

$$$$
2:0
     RDKit          3D

 31 33  0  0  0  0  0  0  0  0999 V2000
   -9.7970   19.7820  -32.6930 N   0  0  0  0  0  0  0  0  0  0  0  0
   -8.5040   19.7970  -32.6830 C   0  0  0  0  0  0  0  0  0  0  0  0
   -7.8040   18.7150  -33.1130 N   0  0  0  0  0  0  0  0  0  0  0  0
   -6.4430   18.7040  -33.1140 C   0  0  0  0  0  0  0  0  0  0  0  0
   -5.7270   17.4980  -33.6060 C   0  0  0  0  0  0  0  0  0  0  0  0
   -4.5600   17.6450  -34.3810 C   0  0  0  0  0  0  0  0  0  0  0  0
   -3.8780   16.5220  -34.8580 C   0  0  0  0  0  0  0  0  0  0  0  0
   -4.3550   15.2390  -34.5760 C   0  0  0  0  0  0  0  0  0  0  0  0
   -3.6750   14.1240  -35.0510 O   0  0  0  0  0  0  0  0  0  0  0  0
   -5.5170   15.0790  -33.8190 C   0  0  0  0  0  0  0  0  0  0  0  0
   -6.2030   16.2000  -33.3390 C   0  0  0  0  0  0  0  0  0  0  0  0
   -5.7530   19.8430  -32.6710 C   0  0  0  0  0  0  0  0  0  0  0  0
   -6.4860   20.9520  -32.2170 C   0  0  0  0  0  0  0  0  0  0  0  0
   -5.8170   22.1870  -31.7350 C   0  0  0  0  0  0  0  0  0  0  0  0
   -6.5220   23.3990  -31.5990 C   0  0  0  0  0  0  0  0  0  0  0  0
   -5.8700   24.5530  -31.1520 C   0  0  0  0  0  0  0  0  0  0  0  0
   -4.5080   24.5140  -30.8410 C   0  0  0  0  0  0  0  0  0  0  0  0
   -3.8640   25.6620  -30.3960 O   0  0  0  0  0  0  0  0  0  0  0  0
   -3.7960   23.3220  -30.9820 C   0  0  0  0  0  0  0  0  0  0  0  0
   -4.4420   22.1650  -31.4300 C   0  0  0  0  0  0  0  0  0  0  0  0
   -7.8460   20.8980  -32.2430 N   0  0  0  0  0  0  0  0  0  0  0  0
  -10.3320   18.9490  -33.0280 H   0  0  0  0  0  0  0  0  0  0  0  0
   -4.1823   18.6518  -34.6127 H   0  0  0  0  0  0  0  0  0  0  0  0
   -2.9639   16.6484  -35.4566 H   0  0  0  0  0  0  0  0  0  0  0  0
   -5.8941   14.0693  -33.5994 H   0  0  0  0  0  0  0  0  0  0  0  0
   -7.1213   16.0663  -32.7484 H   0  0  0  0  0  0  0  0  0  0  0  0
   -4.6533   19.8670  -32.6792 H   0  0  0  0  0  0  0  0  0  0  0  0
   -7.5932   23.4382  -31.8462 H   0  0  0  0  0  0  0  0  0  0  0  0
   -6.4306   25.4934  -31.0450 H   0  0  0  0  0  0  0  0  0  0  0  0
   -2.7234   23.2922  -30.7401 H   0  0  0  0  0  0  0  0  0  0  0  0
   -3.8721   21.2312  -31.5450 H   0  0  0  0  0  0  0  0  0  0  0  0
  1  2  2  3
  2  3  1  0
  3  4  2  0
  4  5  1  0
  5  6  2  0
  6  7  1  0
  7  8  2  0
  8  9  1  0
  8 10  1  0
 10 11  2  0
  4 12  1  0
 12 13  2  0
 13 14  1  0
 14 15  2  0
 15 16  1  0
 16 17  2  0
 17 18  1  0
 17 19  1  0
 19 20  2  0
 13 21  1  0
 21  2  1  0
 11  5  1  0
 20 14  1  0
  1 22  1  0
  6 23  1  0
  7 24  1  0
 10 25  1  0
 11 26  1  0
 12 27  1  0
 15 28  1  0
 16 29  1  0
 19 30  1  0
 20 31  1  0
M  CHG  3   9  -1  18  -1  21  -1
M  END
>  <UniqueID>  (3) 
3

>  <SMILES>  (3) 
N=c1nc(-c2ccc([O-])cc2)cc(-c2ccc([O-])cc2)[n-]1

>  <Energy>  (3) 
42.605871400450894

>  <Genealogy>  (3) 
N=c1nc(-c2ccc([O-])cc2)cc(-c2ccc([O-])cc2)[n-]1 (protonated)
N=c1nc(-c2ccc([O-])cc2)cc(-c2ccc([O-])cc2)[n-]1 (3D coordinates assigned)
N=c1nc(-c2ccc([O-])cc2)cc(-c2ccc([O-])cc2)[n-]1 (optimized conformer: 42.605871400450894 kcal/mol)

>  <smiles>  (3) 
N=c1nc(-c2ccc(O)cc2)cc(-c2ccc(O)cc2)[nH]1

>  <score_type>  (3) 
oracle

>  <origin>  (3) 
adgpu

>  <m_score__min__energy>  (3) 
-10.279999999999999

>  <m_primary>  (3) 
energy

$$$$
3:0
     RDKit          3D

 44 45  0  0  0  0  0  0  0  0999 V2000
   -9.1150   19.3980  -32.0110 C   0  0  0  0  0  0  0  0  0  0  0  0
   -8.8490   20.7730  -32.2730 O   0  0  0  0  0  0  0  0  0  0  0  0
   -7.5990   21.3870  -32.0940 C   0  0  0  0  0  0  0  0  0  0  0  0
   -7.3940   22.4100  -31.1460 C   0  0  0  0  0  0  0  0  0  0  0  0
   -6.1320   23.0120  -31.0030 C   0  0  0  0  0  0  0  0  0  0  0  0
   -5.9200   24.1090  -29.9930 C   0  0  0  0  0  0  0  0  0  0  0  0
   -4.9500   25.1460  -30.4910 C   0  0  0  0  0  0  0  0  0  0  0  0
   -5.3810   26.2730  -30.8530 O   0  0  0  0  0  0  0  0  0  0  0  0
   -3.5360   24.9290  -30.4540 N   0  0  0  0  0  0  0  0  0  0  0  0
   -2.8230   24.2750  -29.4000 C   0  0  0  0  0  0  0  0  0  0  0  0
   -3.0400   22.9120  -29.1740 C   0  0  0  0  0  0  0  0  0  0  0  0
   -2.4090   22.2660  -28.1100 C   0  0  0  0  0  0  0  0  0  0  0  0
   -1.5840   22.9860  -27.2420 C   0  0  0  0  0  0  0  0  0  0  0  0
   -1.3870   24.3660  -27.4270 C   0  0  0  0  0  0  0  0  0  0  0  0
   -0.5950   25.1190  -26.4860 N   0  0  0  0  0  0  0  0  0  0  0  0
   -1.2110   25.6940  -25.2920 C   0  0  0  0  0  0  0  0  0  0  0  0
    1.1000   25.3920  -26.7710 S   0  0  0  0  0  0  0  0  0  0  0  0
    2.0360   24.8950  -25.3400 C   0  0  0  0  0  0  0  0  0  0  0  0
    1.3500   26.8470  -27.0500 O   0  0  0  0  0  0  0  0  0  0  0  0
    1.5430   24.5910  -27.9630 O   0  0  0  0  0  0  0  0  0  0  0  0
   -1.9990   25.0020  -28.5250 C   0  0  0  0  0  0  0  0  0  0  0  0
   -5.0630   22.5610  -31.7920 C   0  0  0  0  0  0  0  0  0  0  0  0
   -5.2590   21.5440  -32.7320 C   0  0  0  0  0  0  0  0  0  0  0  0
   -6.5240   20.9640  -32.8900 C   0  0  0  0  0  0  0  0  0  0  0  0
   -6.7200   19.9590  -33.8350 O   0  0  0  0  0  0  0  0  0  0  0  0
   -9.1472   19.2314  -30.9242 H   0  0  0  0  0  0  0  0  0  0  0  0
  -10.0834   19.1211  -32.4533 H   0  0  0  0  0  0  0  0  0  0  0  0
   -8.3198   18.7799  -32.4533 H   0  0  0  0  0  0  0  0  0  0  0  0
   -8.2300   22.7404  -30.5119 H   0  0  0  0  0  0  0  0  0  0  0  0
   -6.8853   24.5943  -29.7863 H   0  0  0  0  0  0  0  0  0  0  0  0
   -5.5012   23.6585  -29.0811 H   0  0  0  0  0  0  0  0  0  0  0  0
   -3.7109   22.3468  -29.8377 H   0  0  0  0  0  0  0  0  0  0  0  0
   -2.5614   21.1878  -27.9543 H   0  0  0  0  0  0  0  0  0  0  0  0
   -1.0853   22.4699  -26.4084 H   0  0  0  0  0  0  0  0  0  0  0  0
   -0.7461   25.2601  -24.3944 H   0  0  0  0  0  0  0  0  0  0  0  0
   -1.0624   26.7839  -25.2914 H   0  0  0  0  0  0  0  0  0  0  0  0
   -2.2881   25.4708  -25.2914 H   0  0  0  0  0  0  0  0  0  0  0  0
    1.4926   25.1835  -24.4281 H   0  0  0  0  0  0  0  0  0  0  0  0
    2.1756   23.8040  -25.3539 H   0  0  0  0  0  0  0  0  0  0  0  0
    3.0180   25.3905  -25.3539 H   0  0  0  0  0  0  0  0  0  0  0  0
   -1.8305   26.0751  -28.6983 H   0  0  0  0  0  0  0  0  0  0  0  0
   -4.0659   23.0094  -31.6707 H   0  0  0  0  0  0  0  0  0  0  0  0
   -4.4167   21.1985  -33.3493 H   0  0  0  0  0  0  0  0  0  0  0  0
   -7.6490   19.6630  -34.1120 H   0  0  0  0  0  0  0  0  0  0  0  0
  1  2  1  0
  2  3  1  0
  3  4  2  0
  4  5  1  0
  5  6  1  0
  6  7  1  0
  7  8  2  0
  7  9  1  0
  9 10  1  0
 10 11  2  0
 11 12  1  0
 12 13  2  0
 13 14  1  0
 14 15  1  0
 15 16  1  0
 15 17  1  0
 17 18  1  0
 17 19  2  0
 17 20  2  0
 14 21  2  0
  5 22  2  0
 22 23  1  0
 23 24  2  0
 24 25  1  0
 24  3  1  0
 21 10  1  0
  1 26  1  0
  1 27  1  0
  1 28  1  0
  4 29  1  0
  6 30  1  0
  6 31  1  0
 11 32  1  0
 12 33  1  0
 13 34  1  0
 16 35  1  0
 16 36  1  0
 16 37  1  0
 18 38  1  0
 18 39  1  0
 18 40  1  0
 21 41  1  0
 22 42  1  0
 23 43  1  0
 25 44  1  0
M  CHG  1   9  -1
M  END
>  <UniqueID>  (4) 
4

>  <SMILES>  (4) 
COc1cc(CC(=O)[N-]c2cccc(N(C)S(C)(=O)=O)c2)ccc1O

>  <Energy>  (4) 
46.76636787643224

>  <Genealogy>  (4) 
COc1cc(CC(=O)[N-]c2cccc(N(C)S(C)(=O)=O)c2)ccc1O (protonated)
COc1cc(CC(=O)[N-]c2cccc(N(C)S(C)(=O)=O)c2)ccc1O (3D coordinates assigned)
COc1cc(CC(=O)[N-]c2cccc(N(C)S(C)(=O)=O)c2)ccc1O (optimized conformer: 46.76636787643224 kcal/mol)

>  <smiles>  (4) 
COc1cc(CC(=O)Nc2cccc(N(C)S(C)(=O)=O)c2)ccc1O

>  <score_type>  (4) 
oracle

>  <origin>  (4) 
adgpu

>  <m_score__min__energy>  (4) 
-9.5999999999999996

>  <m_primary>  (4) 
energy

$$$$
4:0
     RDKit          3D

 36 39  0  0  1  0  0  0  0  0999 V2000
   -3.7540   18.5720  -25.7920 C   0  0  0  0  0  0  0  0  0  0  0  0
   -2.6810   18.9650  -26.7260 C   0  0  0  0  0  0  0  0  0  0  0  0
   -2.7730   19.9650  -27.6510 C   0  0  0  0  0  0  0  0  0  0  0  0
   -1.5380   19.9780  -28.2980 C   0  0  0  0  0  0  0  0  0  0  0  0
   -1.1660   20.7460  -29.2380 N   0  0  0  0  0  0  0  0  0  0  0  0
   -1.9880   21.7660  -29.8060 C   0  0  0  0  0  0  0  0  0  0  0  0
   -2.7760   21.5120  -30.8640 N   0  0  0  0  0  0  0  0  0  0  0  0
   -3.5670   22.4620  -31.4240 C   0  0  0  0  0  0  0  0  0  0  0  0
   -4.3260   22.0840  -32.4990 O   0  0  0  0  0  0  0  0  0  0  0  0
   -5.4060   21.2570  -32.5470 C   0  0  0  0  0  0  0  0  0  0  0  0
   -5.4320   19.9590  -32.9650 C   0  0  0  0  0  0  0  0  0  0  0  0
   -6.5860   19.1790  -32.9820 C   0  0  0  0  0  0  0  0  0  0  0  0
   -7.7750   19.7180  -32.5610 C   0  0  0  0  0  0  0  0  0  0  0  0
   -7.7760   21.0260  -32.1330 C   0  0  0  0  0  0  0  0  0  0  0  0
   -9.3160   21.6990  -31.5970 Cl  0  0  0  0  0  0  0  0  0  0  0  0
   -6.6290   21.7920  -32.1200 C   0  0  0  0  0  0  0  0  0  0  0  0
   -3.5260   23.6750  -30.8680 N   0  0  0  0  0  0  0  0  0  0  0  0
   -2.7590   23.9850  -29.8120 C   0  0  0  0  0  0  0  0  0  0  0  0
   -2.5950   25.1520  -29.1270 N   0  0  0  0  0  0  0  0  0  0  0  0
   -1.7000   24.9000  -28.1490 C   0  0  0  0  0  0  0  0  0  0  0  0
   -1.3120   23.6110  -28.2190 N   0  0  0  0  0  0  0  0  0  0  0  0
   -1.9580   23.0260  -29.2440 C   0  0  0  0  0  0  0  0  0  0  0  0
   -0.7620   19.0120  -27.7590 N   0  0  0  0  0  0  0  0  0  0  0  0
   -1.4730   18.4020  -26.8000 N   0  0  0  0  0  0  0  0  0  0  0  0
   -3.4043   18.7001  -24.7570 H   0  0  0  0  0  0  0  0  0  0  0  0
   -4.6376   19.2049  -25.9614 H   0  0  0  0  0  0  0  0  0  0  0  0
   -4.0198   17.5181  -25.9614 H   0  0  0  0  0  0  0  0  0  0  0  0
   -3.6357   20.6195  -27.8442 H   0  0  0  0  0  0  0  0  0  0  0  0
   -4.4910   19.5035  -33.3071 H   0  0  0  0  0  0  0  0  0  0  0  0
   -6.5440   18.1367  -33.3311 H   0  0  0  0  0  0  0  0  0  0  0  0
   -8.7000   19.1227  -32.5653 H   0  0  0  0  0  0  0  0  0  0  0  0
   -6.6747   22.8341  -31.7707 H   0  0  0  0  0  0  0  0  0  0  0  0
   -3.0800   26.0410  -29.3420 H   0  0  0  0  0  0  0  0  0  0  0  0
   -1.3428   25.6323  -27.4099 H   0  0  0  0  0  0  0  0  0  0  0  0
    0.2190   18.8000  -28.0560 H   0  0  0  0  0  0  0  0  0  0  0  0
   -1.0500   17.6140  -26.2510 H   0  0  0  0  0  0  0  0  0  0  0  0
  1  2  1  0
  2  3  2  0
  3  4  1  0
  4  5  2  0
  5  6  1  0
  6  7  2  0
  7  8  1  0
  8  9  1  0
  9 10  1  0
 10 11  2  0
 11 12  1  0
 12 13  2  0
 13 14  1  0
 14 15  1  0
 14 16  2  0
  8 17  2  0
 17 18  1  0
 18 19  1  0
 19 20  1  0
 20 21  2  0
 21 22  1  0
  4 23  1  0
 23 24  1  0
 24  2  1  0
 22  6  1  0
 16 10  1  0
 22 18  2  0
  1 25  1  0
  1 26  1  0
  1 27  1  0
  3 28  1  0
 11 29  1  0
 12 30  1  0
 13 31  1  0
 16 32  1  0
 19 33  1  0
 20 34  1  0
 23 35  1  0
 24 36  1  0
M  END
>  <smiles>  (5) 
Cc1cc(=Nc2nc(Oc3cccc(Cl)c3)nc3[nH]cnc23)[nH][nH]1

>  <score_type>  (5) 
oracle

>  <origin>  (5) 
adgpu

>  <m_score__min__energy>  (5) 
-8.7200000000000006

>  <m_primary>  (5) 
energy

$$$$
5:0
     RDKit          3D

 46 49  0  0  0  0  0  0  0  0999 V2000
   -0.4790   22.3260  -24.2160 C   0  0  0  0  0  0  0  0  0  0  0  0
   -1.2000   21.3750  -24.9930 O   0  0  0  0  0  0  0  0  0  0  0  0
   -1.3580   21.4440  -26.3870 C   0  0  0  0  0  0  0  0  0  0  0  0
   -0.8700   22.5270  -27.1420 C   0  0  0  0  0  0  0  0  0  0  0  0
   -1.0460   22.5580  -28.5280 C   0  0  0  0  0  0  0  0  0  0  0  0
   -1.6990   21.5050  -29.1860 C   0  0  0  0  0  0  0  0  0  0  0  0
   -1.9080   21.5300  -30.6470 C   0  0  0  0  0  0  0  0  0  0  0  0
   -1.0060   21.0490  -31.5260 N   0  0  0  0  0  0  0  0  0  0  0  0
   -1.4770   21.2380  -32.7510 N   0  0  0  0  0  0  0  0  0  0  0  0
   -0.7690   20.8420  -33.9440 C   0  0  0  0  0  0  0  0  0  0  0  0
   -0.7280   19.4860  -34.3190 C   0  0  0  0  0  0  0  0  0  0  0  0
   -0.0440   19.0870  -35.4720 C   0  0  0  0  0  0  0  0  0  0  0  0
    0.6100   20.0330  -36.2620 C   0  0  0  0  0  0  0  0  0  0  0  0
    0.5820   21.3820  -35.9010 C   0  0  0  0  0  0  0  0  0  0  0  0
   -0.1010   21.7870  -34.7500 C   0  0  0  0  0  0  0  0  0  0  0  0
   -2.6820   21.8450  -32.6780 C   0  0  0  0  0  0  0  0  0  0  0  0
   -2.9870   22.0500  -31.3500 C   0  0  0  0  0  0  0  0  0  0  0  0
   -4.3710   22.9530  -30.7460 S   0  0  0  0  0  0  0  0  0  0  0  0
   -4.3770   22.9280  -29.2430 O   0  0  0  0  0  0  0  0  0  0  0  0
   -4.3030   24.3800  -31.2140 O   0  0  0  0  0  0  0  0  0  0  0  0
   -5.8530   22.2290  -31.3650 C   0  0  0  0  0  0  0  0  0  0  0  0
   -7.0890   22.8600  -31.1660 C   0  0  0  0  0  0  0  0  0  0  0  0
   -8.2640   22.2660  -31.6360 C   0  0  0  0  0  0  0  0  0  0  0  0
   -8.2100   21.0380  -32.3040 C   0  0  0  0  0  0  0  0  0  0  0  0
   -6.9800   20.4010  -32.4960 C   0  0  0  0  0  0  0  0  0  0  0  0
   -5.8040   20.9940  -32.0270 C   0  0  0  0  0  0  0  0  0  0  0  0
   -2.2060   20.4380  -28.4310 C   0  0  0  0  0  0  0  0  0  0  0  0
   -2.0310   20.4020  -27.0420 C   0  0  0  0  0  0  0  0  0  0  0  0
   -2.7220   18.9160  -26.0550 Br  0  0  0  0  0  0  0  0  0  0  0  0
   -0.6352   22.1199  -23.1468 H   0  0  0  0  0  0  0  0  0  0  0  0
    0.5933   22.2537  -24.4505 H   0  0  0  0  0  0  0  0  0  0  0  0
   -0.8381   23.3389  -24.4505 H   0  0  0  0  0  0  0  0  0  0  0  0
   -0.3472   23.3535  -26.6384 H   0  0  0  0  0  0  0  0  0  0  0  0
   -0.6698   23.4142  -29.1072 H   0  0  0  0  0  0  0  0  0  0  0  0
   -1.2383   18.7335  -33.6999 H   0  0  0  0  0  0  0  0  0  0  0  0
   -0.0216   18.0247  -35.7566 H   0  0  0  0  0  0  0  0  0  0  0  0
    1.1472   19.7167  -37.1683 H   0  0  0  0  0  0  0  0  0  0  0  0
    1.0984   22.1275  -36.5236 H   0  0  0  0  0  0  0  0  0  0  0  0
   -0.1174   22.8509  -34.4711 H   0  0  0  0  0  0  0  0  0  0  0  0
   -3.3127   22.1276  -33.5338 H   0  0  0  0  0  0  0  0  0  0  0  0
   -7.1343   23.8245  -30.6390 H   0  0  0  0  0  0  0  0  0  0  0  0
   -9.2320   22.7647  -31.4804 H   0  0  0  0  0  0  0  0  0  0  0  0
   -9.1345   20.5738  -32.6780 H   0  0  0  0  0  0  0  0  0  0  0  0
   -6.9377   19.4328  -33.0163 H   0  0  0  0  0  0  0  0  0  0  0  0
   -4.8378   20.4904  -32.1778 H   0  0  0  0  0  0  0  0  0  0  0  0
   -2.7459   19.6221  -28.9339 H   0  0  0  0  0  0  0  0  0  0  0  0
  1  2  1  0
  2  3  1  0
  3  4  2  0
  4  5  1  0
  5  6  2  0
  6  7  1  0
  7  8  2  0
  8  9  1  0
  9 10  1  0
 10 11  2  0
 11 12  1  0
 12 13  2  0
 13 14  1  0
 14 15  2  0
  9 16  1  0
 16 17  2  0
 17 18  1  0
 18 19  2  0
 18 20  2  0
 18 21  1  0
 21 22  2  0
 22 23  1  0
 23 24  2  0
 24 25  1  0
 25 26  2  0
  6 27  1  0
 27 28  2  0
 28 29  1  0
 28  3  1  0
 17  7  1  0
 26 21  1  0
 15 10  1  0
  1 30  1  0
  1 31  1  0
  1 32  1  0
  4 33  1  0
  5 34  1  0
 11 35  1  0
 12 36  1  0
 13 37  1  0
 14 38  1  0
 15 39  1  0
 16 40  1  0
 22 41  1  0
 23 42  1  0
 24 43  1  0
 25 44  1  0
 26 45  1  0
 27 46  1  0
M  END
>  <UniqueID>  (6) 
5

>  <SMILES>  (6) 
COc1ccc(-c2nn(-c3ccccc3)cc2S(=O)(=O)c2ccccc2)cc1Br

>  <Energy>  (6) 
89.65001976363406

>  <Genealogy>  (6) 
COc1ccc(-c2nn(-c3ccccc3)cc2S(=O)(=O)c2ccccc2)cc1Br (3D coordinates assigned)
COc1ccc(-c2nn(-c3ccccc3)cc2S(=O)(=O)c2ccccc2)cc1Br (optimized conformer: 89.65001976363406 kcal/mol)

>  <smiles>  (6) 
COc1ccc(-c2nn(-c3ccccc3)cc2S(=O)(=O)c2ccccc2)cc1Br

>  <score_type>  (6) 
oracle

>  <origin>  (6) 
adgpu

>  <m_score__min__energy>  (6) 
-8.9000000000000004

>  <m_primary>  (6) 
energy

$$$$
6:0
     RDKit          3D

 51 53  0  0  0  0  0  0  0  0999 V2000
    1.5470   23.3780  -35.7820 C   0  0  0  0  0  0  0  0  0  0  0  0
    1.2420   21.9300  -35.4070 C   0  0  0  0  0  0  0  0  0  0  0  0
   -0.0810   21.8110  -34.8820 O   0  0  0  0  0  0  0  0  0  0  0  0
   -0.4070   21.3870  -33.5820 C   0  0  0  0  0  0  0  0  0  0  0  0
   -1.7050   21.4940  -33.0470 C   0  0  0  0  0  0  0  0  0  0  0  0
   -1.9690   21.0610  -31.7440 C   0  0  0  0  0  0  0  0  0  0  0  0
   -0.9490   20.5160  -30.9570 C   0  0  0  0  0  0  0  0  0  0  0  0
   -1.2560   20.1220  -29.6120 N   0  0  0  0  0  0  0  0  0  0  0  0
   -1.9120   21.1610  -28.3860 S   0  0  0  0  0  0  0  0  0  0  0  0
   -2.9270   20.3820  -27.5980 O   0  0  0  0  0  0  0  0  0  0  0  0
   -0.7990   21.5860  -27.4690 O   0  0  0  0  0  0  0  0  0  0  0  0
   -2.7070   22.5720  -29.1060 C   0  0  0  0  0  0  0  0  0  0  0  0
   -3.9900   22.4340  -29.6550 C   0  0  0  0  0  0  0  0  0  0  0  0
   -4.6290   23.5230  -30.2570 C   0  0  0  0  0  0  0  0  0  0  0  0
   -6.2260   23.3280  -30.9830 S   0  0  0  0  0  0  0  0  0  0  0  0
   -6.5290   24.4590  -31.9250 O   0  0  0  0  0  0  0  0  0  0  0  0
   -7.2460   23.3550  -29.8790 O   0  0  0  0  0  0  0  0  0  0  0  0
   -6.3130   21.7950  -31.8700 C   0  0  0  0  0  0  0  0  0  0  0  0
   -5.1430   21.2940  -32.4650 C   0  0  0  0  0  0  0  0  0  0  0  0
   -5.1660   20.0980  -33.1820 C   0  0  0  0  0  0  0  0  0  0  0  0
   -6.3570   19.3870  -33.3210 C   0  0  0  0  0  0  0  0  0  0  0  0
   -7.5300   19.8710  -32.7390 C   0  0  0  0  0  0  0  0  0  0  0  0
   -7.5240   21.0670  -32.0010 C   0  0  0  0  0  0  0  0  0  0  0  0
   -8.8210   21.5640  -31.4210 C   0  0  0  0  0  0  0  0  0  0  0  0
   -3.9760   24.7620  -30.2760 C   0  0  0  0  0  0  0  0  0  0  0  0
   -4.5200   25.7670  -30.8050 O   0  0  0  0  0  0  0  0  0  0  0  0
   -2.7430   24.8870  -29.7210 N   0  0  0  0  0  0  0  0  0  0  0  0
   -2.0930   23.8430  -29.1350 C   0  0  0  0  0  0  0  0  0  0  0  0
   -0.7270   24.0860  -28.5670 C   0  0  0  0  0  0  0  0  0  0  0  0
    0.3460   20.4010  -31.4930 C   0  0  0  0  0  0  0  0  0  0  0  0
    0.6080   20.8310  -32.7960 C   0  0  0  0  0  0  0  0  0  0  0  0
    1.6728   23.9751  -34.8668 H   0  0  0  0  0  0  0  0  0  0  0  0
    2.4729   23.4160  -36.3747 H   0  0  0  0  0  0  0  0  0  0  0  0
    0.7151   23.7863  -36.3747 H   0  0  0  0  0  0  0  0  0  0  0  0
    1.3328   21.2984  -36.3030 H   0  0  0  0  0  0  0  0  0  0  0  0
    1.9578   21.6064  -34.6370 H   0  0  0  0  0  0  0  0  0  0  0  0
   -2.5151   21.9202  -33.6570 H   0  0  0  0  0  0  0  0  0  0  0  0
   -2.9862   21.1496  -31.3348 H   0  0  0  0  0  0  0  0  0  0  0  0
   -4.4989   21.4598  -29.6118 H   0  0  0  0  0  0  0  0  0  0  0  0
   -4.1995   21.8505  -32.3643 H   0  0  0  0  0  0  0  0  0  0  0  0
   -4.2418   19.7147  -33.6391 H   0  0  0  0  0  0  0  0  0  0  0  0
   -6.3725   18.4451  -33.8890 H   0  0  0  0  0  0  0  0  0  0  0  0
   -8.4688   19.3104  -32.8593 H   0  0  0  0  0  0  0  0  0  0  0  0
   -8.7638   21.5421  -30.3227 H   0  0  0  0  0  0  0  0  0  0  0  0
   -9.0022   22.5952  -31.7582 H   0  0  0  0  0  0  0  0  0  0  0  0
   -9.6449   20.9179  -31.7582 H   0  0  0  0  0  0  0  0  0  0  0  0
   -0.7798   24.0766  -27.4683 H   0  0  0  0  0  0  0  0  0  0  0  0
   -0.0422   23.2956  -28.9080 H   0  0  0  0  0  0  0  0  0  0  0  0
   -0.3568   25.0641  -28.9080 H   0  0  0  0  0  0  0  0  0  0  0  0
    1.1552   19.9711  -30.8843 H   0  0  0  0  0  0  0  0  0  0  0  0
    1.6229   20.7314  -33.2083 H   0  0  0  0  0  0  0  0  0  0  0  0
  1  2  1  0
  2  3  1  0
  3  4  1  0
  4  5  2  0
  5  6  1  0
  6  7  2  0
  7  8  1  0
  8  9  1  0
  9 10  2  0
  9 11  2  0
  9 12  1  0
 12 13  1  0
 13 14  2  0
 14 15  1  0
 15 16  2  0
 15 17  2  0
 15 18  1  0
 18 19  2  0
 19 20  1  0
 20 21  2  0
 21 22  1  0
 22 23  2  0
 23 24  1  0
 14 25  1  0
 25 26  2  0
 25 27  1  0
 27 28  1  0
 28 29  1  0
  7 30  1  0
 30 31  2  0
 31  4  1  0
 28 12  2  0
 23 18  1  0
  1 32  1  0
  1 33  1  0
  1 34  1  0
  2 35  1  0
  2 36  1  0
  5 37  1  0
  6 38  1  0
 13 39  1  0
 19 40  1  0
 20 41  1  0
 21 42  1  0
 22 43  1  0
 24 44  1  0
 24 45  1  0
 24 46  1  0
 29 47  1  0
 29 48  1  0
 29 49  1  0
 30 50  1  0
 31 51  1  0
M  CHG  2   8  -1  27  -1
M  END
>  <UniqueID>  (7) 
6

>  <SMILES>  (7) 
CCOc1ccc([N-]S(=O)(=O)c2cc(S(=O)(=O)c3ccccc3C)c(=O)[n-]c2C)cc1

>  <Energy>  (7) 
59.21957818201023

>  <Genealogy>  (7) 
CCOc1ccc([N-]S(=O)(=O)c2cc(S(=O)(=O)c3ccccc3C)c(=O)[n-]c2C)cc1 (protonated)
CCOc1ccc([N-]S(=O)(=O)c2cc(S(=O)(=O)c3ccccc3C)c(=O)[n-]c2C)cc1 (3D coordinates assigned)
CCOc1ccc([N-]S(=O)(=O)c2cc(S(=O)(=O)c3ccccc3C)c(=O)[n-]c2C)cc1 (optimized conformer: 59.21957818201023 kcal/mol)

>  <smiles>  (7) 
CCOc1ccc(NS(=O)(=O)c2cc(S(=O)(=O)c3ccccc3C)c(=O)[nH]c2C)cc1

>  <score_type>  (7) 
oracle

>  <origin>  (7) 
adgpu

>  <m_score__min__energy>  (7) 
-11.449999999999999

>  <m_primary>  (7) 
energy

$$$$
7:0
     RDKit          3D

 41 43  0  0  0  0  0  0  0  0999 V2000
    1.0210   22.0000  -28.0450 H   0  0  0  0  0  0  0  0  0  0  0  0
    0.0990   21.9600  -28.5340 N   0  0  0  0  0  0  0  0  0  0  0  0
   -0.7980   22.8740  -28.3610 C   0  0  0  0  0  0  0  0  0  0  0  0
   -0.5590   23.9190  -27.5290 N   0  0  0  0  0  0  0  0  0  0  0  0
   -1.5010   24.8820  -27.3470 C   0  0  0  0  0  0  0  0  0  0  0  0
   -1.2550   25.9970  -26.4650 N   0  0  0  0  0  0  0  0  0  0  0  0
   -0.5190   27.1650  -26.9760 C   0  0  0  0  0  0  0  0  0  0  0  0
    0.4843   26.8433  -27.2920 H   0  0  0  0  0  0  0  0  0  0  0  0
   -1.0849   27.5825  -27.8218 H   0  0  0  0  0  0  0  0  0  0  0  0
   -0.3770   28.2590  -25.9110 C   0  0  0  0  0  0  0  0  0  0  0  0
    0.3316   29.0217  -26.2662 H   0  0  0  0  0  0  0  0  0  0  0  0
   -1.3620   28.7148  -25.7320 H   0  0  0  0  0  0  0  0  0  0  0  0
    0.1410   27.6590  -24.6000 C   0  0  0  0  0  0  0  0  0  0  0  0
    1.1684   27.3007  -24.7616 H   0  0  0  0  0  0  0  0  0  0  0  0
    0.0939   28.4507  -23.8377 H   0  0  0  0  0  0  0  0  0  0  0  0
   -0.7220   26.4700  -24.0850 C   0  0  2  0  0  0  0  0  0  0  0  0
   -1.2530   26.8292  -23.1911 H   0  0  0  0  0  0  0  0  0  0  0  0
    0.1340   25.3330  -23.7200 N   0  0  0  0  0  0  0  0  0  0  0  0
   -0.4350   24.5790  -23.2680 H   0  0  0  0  0  0  0  0  0  0  0  0
    0.6000   24.9510  -24.5740 H   0  0  0  0  0  0  0  0  0  0  0  0
    0.8800   25.6450  -23.0560 H   0  0  0  0  0  0  0  0  0  0  0  0
   -1.8020   26.0270  -25.0990 C   0  0  0  0  0  0  0  0  0  0  0  0
   -2.1577   25.0213  -24.8307 H   0  0  0  0  0  0  0  0  0  0  0  0
   -2.6324   26.7478  -25.0673 H   0  0  0  0  0  0  0  0  0  0  0  0
   -2.6870   24.7830  -28.0070 N   0  0  0  0  0  0  0  0  0  0  0  0
   -2.9390   23.7410  -28.8430 C   0  0  0  0  0  0  0  0  0  0  0  0
   -4.2400   23.6370  -29.5640 C   0  0  0  0  0  0  0  0  0  0  0  0
   -5.1020   22.5560  -29.2880 C   0  0  0  0  0  0  0  0  0  0  0  0
   -4.8049   21.8010  -28.5453 H   0  0  0  0  0  0  0  0  0  0  0  0
   -6.3280   22.4310  -29.9450 C   0  0  0  0  0  0  0  0  0  0  0  0
   -6.9821   21.5747  -29.7239 H   0  0  0  0  0  0  0  0  0  0  0  0
   -6.7290   23.3890  -30.8830 C   0  0  0  0  0  0  0  0  0  0  0  0
   -8.0280   23.2320  -31.6170 C   0  0  0  0  0  0  0  0  0  0  0  0
   -8.8492   23.1327  -30.8919 H   0  0  0  0  0  0  0  0  0  0  0  0
   -8.2014   24.1157  -32.2486 H   0  0  0  0  0  0  0  0  0  0  0  0
   -7.9858   22.3324  -32.2486 H   0  0  0  0  0  0  0  0  0  0  0  0
   -5.8750   24.4580  -31.1810 C   0  0  0  0  0  0  0  0  0  0  0  0
   -6.1744   25.2004  -31.9355 H   0  0  0  0  0  0  0  0  0  0  0  0
   -4.6440   24.5910  -30.5280 C   0  0  0  0  0  0  0  0  0  0  0  0
   -3.8380   25.6760  -30.8560 O   0  0  0  0  0  0  0  0  0  0  0  0
   -1.9840   22.7880  -29.0130 N   0  0  0  0  0  0  0  0  0  0  0  0
  1  2  1  0
  2  3  2  0
  3  4  1  0
  4  5  2  0
  5  6  1  0
  6  7  1  0
  7  8  1  0
  7  9  1  0
  7 10  1  0
 10 11  1  0
 10 12  1  0
 10 13  1  0
 13 14  1  0
 13 15  1  0
 13 16  1  0
 16 17  1  1
 16 18  1  0
 18 19  1  0
 18 20  1  0
 18 21  1  0
 16 22  1  0
 22 23  1  0
 22 24  1  0
  5 25  1  0
 25 26  2  0
 26 27  1  0
 27 28  2  0
 28 29  1  0
 28 30  1  0
 30 31  1  0
 30 32  2  0
 32 33  1  0
 33 34  1  0
 33 35  1  0
 33 36  1  0
 32 37  1  0
 37 38  1  0
 37 39  2  0
 39 40  1  0
 26 41  1  0
 41  3  1  0
 22  6  1  0
 39 27  1  0
M  CHG  3  18   1  40  -1  41  -1
M  END
>  <UniqueID>  (8) 
7

>  <SMILES>  (8) 
[H]/N=c1\nc(N2CCC[C@H]([NH3+])C2)nc(-c2ccc(C)cc2[O-])[n-]1

>  <Energy>  (8) 
46.80486846556987

>  <Genealogy>  (8) 
Cc1ccc(-c2nc(N3CCCC([NH3+])C3)nc(=N)[n-]2)c([O-])c1 (protonated)
Cc1ccc(-c2nc(N3CCC[C@H]([NH3+])C3)nc(=N)[n-]2)c([O-])c1 (chirality)
[H]/N=c1\nc(N2CCC[C@H]([NH3+])C2)nc(-c2ccc(C)cc2[O-])[n-]1 (cis-trans isomerization)
[H]/N=c1\nc(N2CCC[C@H]([NH3+])C2)nc(-c2ccc(C)cc2[O-])[n-]1 (3D coordinates assigned)
[H]/N=c1\nc(N2CCC[C@H]([NH3+])C2)nc(-c2ccc(C)cc2[O-])[n-]1 (nonaromatic ring conformer: 46.80486846556987 kcal/mol)

>  <smiles>  (8) 
Cc1ccc(-c2nc(N3CCCC(N)C3)nc(=N)[nH]2)c(O)c1

>  <score_type>  (8) 
oracle

>  <origin>  (8) 
adgpu

>  <m_score__min__energy>  (8) 
-11.16

>  <m_primary>  (8) 
energy

$$$$
8:0
     RDKit          3D

 42 44  0  0  0  0  0  0  0  0999 V2000
    0.3060   26.6270  -22.1220 H   0  0  0  0  0  0  0  0  0  0  0  0
   -0.4080   26.9330  -22.8220 N   0  0  0  0  0  0  0  0  0  0  0  0
   -0.6820   26.2300  -23.8740 C   0  0  0  0  0  0  0  0  0  0  0  0
   -1.6210   26.6770  -24.7480 N   0  0  0  0  0  0  0  0  0  0  0  0
   -1.9340   25.9710  -25.8640 C   0  0  0  0  0  0  0  0  0  0  0  0
   -2.6965   26.3531  -26.5587 H   0  0  0  0  0  0  0  0  0  0  0  0
   -1.2890   24.7570  -26.1340 C   0  0  0  0  0  0  0  0  0  0  0  0
   -1.6200   23.9600  -27.3410 C   0  0  0  0  0  0  0  0  0  0  0  0
   -1.8390   22.5750  -27.2280 C   0  0  0  0  0  0  0  0  0  0  0  0
   -1.7632   22.0886  -26.2443 H   0  0  0  0  0  0  0  0  0  0  0  0
   -2.1520   21.8130  -28.3560 C   0  0  0  0  0  0  0  0  0  0  0  0
   -2.3339   20.7329  -28.2546 H   0  0  0  0  0  0  0  0  0  0  0  0
   -2.2350   22.4190  -29.6150 C   0  0  0  0  0  0  0  0  0  0  0  0
   -2.5660   21.6160  -30.8030 C   0  0  0  0  0  0  0  0  0  0  0  0
   -1.6090   20.6950  -31.2610 C   0  0  0  0  0  0  0  0  0  0  0  0
   -0.6517   20.5929  -30.7289 H   0  0  0  0  0  0  0  0  0  0  0  0
   -1.8630   19.9090  -32.3850 C   0  0  0  0  0  0  0  0  0  0  0  0
   -1.1085   19.1885  -32.7337 H   0  0  0  0  0  0  0  0  0  0  0  0
   -3.0730   20.0360  -33.0670 C   0  0  0  0  0  0  0  0  0  0  0  0
   -3.2709   19.4180  -33.9552 H   0  0  0  0  0  0  0  0  0  0  0  0
   -4.0330   20.9470  -32.6230 C   0  0  0  0  0  0  0  0  0  0  0  0
   -4.9844   21.0421  -33.1669 H   0  0  0  0  0  0  0  0  0  0  0  0
   -3.7990   21.7430  -31.4910 C   0  0  0  0  0  0  0  0  0  0  0  0
   -5.0720   22.8890  -31.0230 S   0  0  0  0  0  0  0  0  0  0  0  0
   -5.5360   22.6780  -29.6090 O   0  0  0  0  0  0  0  0  0  0  0  0
   -6.2500   22.6880  -31.9330 O   0  0  0  0  0  0  0  0  0  0  0  0
   -4.4980   24.5170  -31.2050 N   0  0  0  0  0  0  0  0  0  0  0  0
   -4.9940   25.3430  -30.1080 C   0  0  0  0  0  0  0  0  0  0  0  0
   -4.6012   24.9603  -29.1544 H   0  0  0  0  0  0  0  0  0  0  0  0
   -4.6610   26.3815  -30.2518 H   0  0  0  0  0  0  0  0  0  0  0  0
   -6.5140   25.2970  -30.0850 C   0  0  0  0  0  0  0  0  0  0  0  0
   -6.8648   25.2864  -29.0425 H   0  0  0  0  0  0  0  0  0  0  0  0
   -6.9155   26.1834  -30.5979 H   0  0  0  0  0  0  0  0  0  0  0  0
   -6.8611   24.3879  -30.5979 H   0  0  0  0  0  0  0  0  0  0  0  0
   -2.0290   23.7990  -29.7360 C   0  0  0  0  0  0  0  0  0  0  0  0
   -2.1129   24.2810  -30.7212 H   0  0  0  0  0  0  0  0  0  0  0  0
   -1.7170   24.5670  -28.6090 C   0  0  0  0  0  0  0  0  0  0  0  0
   -1.4730   25.8930  -28.7670 F   0  0  0  0  0  0  0  0  0  0  0  0
   -0.3300   24.3100  -25.2150 C   0  0  0  0  0  0  0  0  0  0  0  0
    0.1921   23.3574  -25.3881 H   0  0  0  0  0  0  0  0  0  0  0  0
   -0.0420   25.0490  -24.1100 N   0  0  0  0  0  0  0  0  0  0  0  0
    0.6810   24.6970  -23.4420 H   0  0  0  0  0  0  0  0  0  0  0  0
  1  2  1  0
  2  3  2  0
  3  4  1  0
  4  5  2  0
  5  6  1  0
  5  7  1  0
  7  8  1  0
  8  9  2  0
  9 10  1  0
  9 11  1  0
 11 12  1  0
 11 13  2  0
 13 14  1  0
 14 15  2  0
 15 16  1  0
 15 17  1  0
 17 18  1  0
 17 19  2  0
 19 20  1  0
 19 21  1  0
 21 22  1  0
 21 23  2  0
 23 24  1  0
 24 25  2  0
 24 26  2  0
 24 27  1  0
 27 28  1  0
 28 29  1  0
 28 30  1  0
 28 31  1  0
 31 32  1  0
 31 33  1  0
 31 34  1  0
 13 35  1  0
 35 36  1  0
 35 37  2  0
 37 38  1  0
  7 39  2  0
 39 40  1  0
 39 41  1  0
 41 42  1  0
 41  3  1  0
 37  8  1  0
 23 14  1  0
M  CHG  1  27  -1
M  END
>  <UniqueID>  (9) 
8

>  <SMILES>  (9) 
[H]/N=c1/ncc(-c2ccc(-c3ccccc3S(=O)(=O)[N-]CC)cc2F)c[nH]1

>  <Energy>  (9) 
55.76854897642026

>  <Genealogy>  (9) 
CC[N-]S(=O)(=O)c1ccccc1-c1ccc(-c2cnc(=N)[nH]c2)c(F)c1 (protonated)
[H]/N=c1/ncc(-c2ccc(-c3ccccc3S(=O)(=O)[N-]CC)cc2F)c[nH]1 (cis-trans isomerization)
[H]/N=c1/ncc(-c2ccc(-c3ccccc3S(=O)(=O)[N-]CC)cc2F)c[nH]1 (3D coordinates assigned)
[H]/N=c1/ncc(-c2ccc(-c3ccccc3S(=O)(=O)[N-]CC)cc2F)c[nH]1 (optimized conformer: 55.76854897642026 kcal/mol)

>  <smiles>  (9) 
CCNS(=O)(=O)c1ccccc1-c1ccc(-c2cnc(=N)[nH]c2)c(F)c1

>  <score_type>  (9) 
oracle

>  <origin>  (9) 
adgpu

>  <m_score__min__energy>  (9) 
-9.4299999999999997

>  <m_primary>  (9) 
energy

$$$$
9:0
     RDKit          3D

 26 27  0  0  0  0  0  0  0  0999 V2000
   -5.7400   26.0510  -30.1380 C   0  0  0  0  0  0  0  0  0  0  0  0
   -4.8380   24.8890  -30.4300 C   0  0  0  0  0  0  0  0  0  0  0  0
   -3.6220   24.8500  -29.8200 N   0  0  0  0  0  0  0  0  0  0  0  0
   -2.7420   23.8440  -30.0510 C   0  0  0  0  0  0  0  0  0  0  0  0
   -1.2950   23.8370  -29.2950 S   0  0  0  0  0  0  0  0  0  0  0  0
   -3.0600   22.8490  -30.9140 N   0  0  0  0  0  0  0  0  0  0  0  0
   -4.2570   22.8370  -31.5540 C   0  0  0  0  0  0  0  0  0  0  0  0
   -5.1940   23.8570  -31.3300 C   0  0  0  0  0  0  0  0  0  0  0  0
   -6.5260   23.8010  -32.0460 C   0  0  0  0  0  0  0  0  0  0  0  0
   -7.1440   22.4320  -31.9220 C   0  0  0  0  0  0  0  0  0  0  0  0
   -8.2320   22.2200  -31.0590 C   0  0  0  0  0  0  0  0  0  0  0  0
   -8.8230   20.9570  -30.9650 C   0  0  0  0  0  0  0  0  0  0  0  0
   -8.3370   19.8960  -31.7360 C   0  0  0  0  0  0  0  0  0  0  0  0
   -9.0800   18.3110  -31.6190 Cl  0  0  0  0  0  0  0  0  0  0  0  0
   -7.2570   20.1010  -32.6010 C   0  0  0  0  0  0  0  0  0  0  0  0
   -6.6650   21.3630  -32.6960 C   0  0  0  0  0  0  0  0  0  0  0  0
   -5.8367   26.1756  -29.0494 H   0  0  0  0  0  0  0  0  0  0  0  0
   -5.3130   26.9656  -30.5752 H   0  0  0  0  0  0  0  0  0  0  0  0
   -6.7319   25.8641  -30.5752 H   0  0  0  0  0  0  0  0  0  0  0  0
   -4.4941   22.0217  -32.2533 H   0  0  0  0  0  0  0  0  0  0  0  0
   -7.2049   24.5445  -31.6030 H   0  0  0  0  0  0  0  0  0  0  0  0
   -6.3624   24.0184  -33.1118 H   0  0  0  0  0  0  0  0  0  0  0  0
   -8.6208   23.0524  -30.4541 H   0  0  0  0  0  0  0  0  0  0  0  0
   -9.6716   20.7971  -30.2836 H   0  0  0  0  0  0  0  0  0  0  0  0
   -6.8732   19.2673  -33.2074 H   0  0  0  0  0  0  0  0  0  0  0  0
   -5.8188   21.5199  -33.3811 H   0  0  0  0  0  0  0  0  0  0  0  0
  1  2  1  0
  2  3  1  0
  3  4  1  0
  4  5  2  0
  4  6  1  0
  6  7  2  0
  7  8  1  0
  8  9  1  0
  9 10  1  0
 10 11  2  0
 11 12  1  0
 12 13  2  0
 13 14  1  0
 13 15  1  0
 15 16  2  0
  8  2  2  0
 16 10  1  0
  1 17  1  0
  1 18  1  0
  1 19  1  0
  7 20  1  0
  9 21  1  0
  9 22  1  0
 11 23  1  0
 12 24  1  0
 15 25  1  0
 16 26  1  0
M  CHG  1   3  -1
M  END
>  <UniqueID>  (10) 
9

>  <SMILES>  (10) 
Cc1[n-]c(=S)ncc1Cc1ccc(Cl)cc1

>  <Energy>  (10) 
27.00940420896586

>  <Genealogy>  (10) 
Cc1[n-]c(=S)ncc1Cc1ccc(Cl)cc1 (protonated)
Cc1[n-]c(=S)ncc1Cc1ccc(Cl)cc1 (3D coordinates assigned)
Cc1[n-]c(=S)ncc1Cc1ccc(Cl)cc1 (optimized conformer: 27.00940420896586 kcal/mol)

>  <smiles>  (10) 
Cc1[nH]c(=S)ncc1Cc1ccc(Cl)cc1

>  <score_type>  (10) 
oracle

>  <origin>  (10) 
adgpu

>  <m_score__min__energy>  (10) 
-8.0199999999999996

>  <m_primary>  (10) 
energy

$$$$
10:0
     RDKit          3D

 54 56  0  0  0  0  0  0  0  0999 V2000
   -7.2370   22.6460  -32.6770 N   0  0  0  0  0  0  0  0  0  0  0  0
   -7.4000   21.3250  -32.1530 C   0  0  0  0  0  0  0  0  0  0  0  0
   -7.9100   21.1720  -30.8200 N   0  0  0  0  0  0  0  0  0  0  0  0
   -7.0850   20.2970  -32.8940 N   0  0  0  0  0  0  0  0  0  0  0  0
   -7.1860   18.6390  -32.3830 S   0  0  0  0  0  0  0  0  0  0  0  0
   -8.5980   18.1540  -32.5490 O   0  0  0  0  0  0  0  0  0  0  0  0
   -6.8160   18.5380  -30.9290 O   0  0  0  0  0  0  0  0  0  0  0  0
   -6.1280   17.6450  -33.3810 C   0  0  0  0  0  0  0  0  0  0  0  0
   -5.6440   18.1550  -34.5910 C   0  0  0  0  0  0  0  0  0  0  0  0
   -4.7770   17.3940  -35.3790 C   0  0  0  0  0  0  0  0  0  0  0  0
   -4.3570   16.1240  -34.9450 C   0  0  0  0  0  0  0  0  0  0  0  0
   -3.4470   15.3210  -35.7180 N   0  0  0  0  0  0  0  0  0  0  0  0
   -2.1880   15.2170  -35.5130 N   0  0  0  0  0  0  0  0  0  0  0  0
   -1.4790   15.7920  -34.4040 C   0  0  0  0  0  0  0  0  0  0  0  0
   -1.8990   17.0340  -33.9150 C   0  0  0  0  0  0  0  0  0  0  0  0
   -1.2900   17.6020  -32.7940 C   0  0  0  0  0  0  0  0  0  0  0  0
   -1.7730   18.8620  -32.3110 N   0  0  0  0  0  0  0  0  0  0  0  0
   -3.0070   19.1680  -32.3320 N   0  0  0  0  0  0  0  0  0  0  0  0
   -3.4880   20.4310  -31.8530 C   0  0  0  0  0  0  0  0  0  0  0  0
   -3.5300   20.7320  -30.4790 C   0  0  0  0  0  0  0  0  0  0  0  0
   -3.9980   21.9770  -30.0460 C   0  0  0  0  0  0  0  0  0  0  0  0
   -4.4220   22.9340  -30.9770 C   0  0  0  0  0  0  0  0  0  0  0  0
   -5.0200   24.4970  -30.4300 S   0  0  0  0  0  0  0  0  0  0  0  0
   -5.2900   24.4530  -28.9530 O   0  0  0  0  0  0  0  0  0  0  0  0
   -6.2990   24.8320  -31.1450 O   0  0  0  0  0  0  0  0  0  0  0  0
   -3.8710   25.6780  -30.7540 O   0  0  0  0  0  0  0  0  0  0  0  0
   -4.3870   22.6310  -32.3450 C   0  0  0  0  0  0  0  0  0  0  0  0
   -3.9210   21.3870  -32.7790 C   0  0  0  0  0  0  0  0  0  0  0  0
   -0.2380   16.9230  -32.1590 C   0  0  0  0  0  0  0  0  0  0  0  0
    0.2190   15.6960  -32.6590 C   0  0  0  0  0  0  0  0  0  0  0  0
    1.5530   14.8660  -31.8590 S   0  0  0  0  0  0  0  0  0  0  0  0
    1.0260   13.6660  -31.1220 O   0  0  0  0  0  0  0  0  0  0  0  0
    2.5600   14.4260  -32.8850 O   0  0  0  0  0  0  0  0  0  0  0  0
    2.3040   15.8880  -30.7560 O   0  0  0  0  0  0  0  0  0  0  0  0
   -0.3780   15.1410  -33.8050 C   0  0  0  0  0  0  0  0  0  0  0  0
    0.1470   13.9630  -34.3420 O   0  0  0  0  0  0  0  0  0  0  0  0
   -4.8820   15.5980  -33.7580 C   0  0  0  0  0  0  0  0  0  0  0  0
   -5.7570   16.3570  -32.9740 C   0  0  0  0  0  0  0  0  0  0  0  0
   -6.8710   22.8020  -33.6430 H   0  0  0  0  0  0  0  0  0  0  0  0
   -7.4800   23.4790  -32.0970 H   0  0  0  0  0  0  0  0  0  0  0  0
   -8.0700   20.2450  -30.3720 H   0  0  0  0  0  0  0  0  0  0  0  0
   -8.1400   22.0180  -30.2550 H   0  0  0  0  0  0  0  0  0  0  0  0
   -6.7170   20.4600  -33.8590 H   0  0  0  0  0  0  0  0  0  0  0  0
   -5.9474   19.1589  -34.9229 H   0  0  0  0  0  0  0  0  0  0  0  0
   -4.4217   17.7895  -36.3420 H   0  0  0  0  0  0  0  0  0  0  0  0
   -2.7176   17.5686  -34.4190 H   0  0  0  0  0  0  0  0  0  0  0  0
   -3.1939   19.9862  -29.7435 H   0  0  0  0  0  0  0  0  0  0  0  0
   -4.0332   22.2054  -28.9706 H   0  0  0  0  0  0  0  0  0  0  0  0
   -4.7276   23.3753  -33.0799 H   0  0  0  0  0  0  0  0  0  0  0  0
   -3.8944   21.1579  -33.8545 H   0  0  0  0  0  0  0  0  0  0  0  0
    0.2306   17.3568  -31.2633 H   0  0  0  0  0  0  0  0  0  0  0  0
    0.9210   13.4660  -33.9210 H   0  0  0  0  0  0  0  0  0  0  0  0
   -4.6046   14.5820  -33.4404 H   0  0  0  0  0  0  0  0  0  0  0  0
   -6.1545   15.9418  -32.0362 H   0  0  0  0  0  0  0  0  0  0  0  0
  1  2  1  0
  2  3  1  0
  2  4  2  3
  4  5  1  0
  5  6  2  0
  5  7  2  0
  5  8  1  0
  8  9  2  0
  9 10  1  0
 10 11  2  0
 11 12  1  0
 12 13  2  3
 13 14  1  0
 14 15  2  0
 15 16  1  0
 16 17  1  0
 17 18  2  3
 18 19  1  0
 19 20  2  0
 20 21  1  0
 21 22  2  0
 22 23  1  0
 23 24  2  0
 23 25  2  0
 23 26  1  0
 22 27  1  0
 27 28  2  0
 16 29  2  0
 29 30  1  0
 30 31  1  0
 31 32  2  0
 31 33  2  0
 31 34  1  0
 30 35  2  0
 35 36  1  0
 11 37  1  0
 37 38  2  0
 38  8  1  0
 35 14  1  0
 28 19  1  0
  1 39  1  0
  1 40  1  0
  3 41  1  0
  3 42  1  0
  4 43  1  0
  9 44  1  0
 10 45  1  0
 15 46  1  0
 20 47  1  0
 21 48  1  0
 27 49  1  0
 28 50  1  0
 29 51  1  0
 36 52  1  0
 37 53  1  0
 38 54  1  0
M  CHG  3   4   1  26  -1  34  -1
M  END
>  <UniqueID>  (11) 
10

>  <SMILES>  (11) 
NC(N)=[NH+]S(=O)(=O)c1ccc(N=Nc2cc(N=Nc3ccc(S(=O)(=O)[O-])cc3)cc(S(=O)(=O)[O-])c2O)cc1

>  <Energy>  (11) 
73.9505011752908

>  <Genealogy>  (11) 
NC(N)=[NH+]S(=O)(=O)c1ccc(N=Nc2cc(N=Nc3ccc(S(=O)(=O)[O-])cc3)cc(S(=O)(=O)[O-])c2O)cc1 (protonated)
NC(N)=[NH+]S(=O)(=O)c1ccc(N=Nc2cc(N=Nc3ccc(S(=O)(=O)[O-])cc3)cc(S(=O)(=O)[O-])c2O)cc1 (3D coordinates assigned)
NC(N)=[NH+]S(=O)(=O)c1ccc(N=Nc2cc(N=Nc3ccc(S(=O)(=O)[O-])cc3)cc(S(=O)(=O)[O-])c2O)cc1 (optimized conformer: 73.9505011752908 kcal/mol)

>  <smiles>  (11) 
NC(N)=NS(=O)(=O)c1ccc(N=Nc2cc(N=Nc3ccc(S(=O)(=O)O)cc3)cc(S(=O)(=O)O)c2O)cc1

>  <score_type>  (11) 
oracle

>  <origin>  (11) 
adgpu

>  <m_score__min__energy>  (11) 
-12.4

>  <m_primary>  (11) 
energy

$$$$
11:0
     RDKit          3D

 45 47  0  0  0  0  0  0  0  0999 V2000
   -5.4360   26.0540  -30.4590 C   0  0  0  0  0  0  0  0  0  0  0  0
   -4.2500   25.3510  -30.8160 O   0  0  0  0  0  0  0  0  0  0  0  0
   -4.1020   23.9570  -30.7850 C   0  0  0  0  0  0  0  0  0  0  0  0
   -5.0470   23.1150  -31.4100 C   0  0  0  0  0  0  0  0  0  0  0  0
   -4.9210   21.7210  -31.3400 C   0  0  0  0  0  0  0  0  0  0  0  0
   -5.9400   20.8510  -31.9770 C   0  0  0  0  0  0  0  0  0  0  0  0
   -7.2880   20.9430  -31.5590 C   0  0  0  0  0  0  0  0  0  0  0  0
   -7.7180   21.9410  -30.5060 C   0  0  0  0  0  0  0  0  0  0  0  0
   -8.2260   20.0930  -32.1620 C   0  0  0  0  0  0  0  0  0  0  0  0
   -9.4460   20.1510  -31.8460 O   0  0  0  0  0  0  0  0  0  0  0  0
   -7.8230   19.1860  -33.0870 N   0  0  0  0  0  0  0  0  0  0  0  0
   -6.5260   19.0930  -33.4720 C   0  0  0  0  0  0  0  0  0  0  0  0
   -6.2000   18.2170  -34.3200 O   0  0  0  0  0  0  0  0  0  0  0  0
   -5.5810   19.9390  -32.9480 N   0  0  0  0  0  0  0  0  0  0  0  0
   -4.1820   19.8130  -33.4030 C   0  0  0  0  0  0  0  0  0  0  0  0
   -3.8460   21.1570  -30.6480 C   0  0  0  0  0  0  0  0  0  0  0  0
   -2.8920   21.9770  -30.0490 C   0  0  0  0  0  0  0  0  0  0  0  0
   -3.0010   23.3730  -30.1070 C   0  0  0  0  0  0  0  0  0  0  0  0
   -1.9880   24.1090  -29.4650 O   0  0  0  0  0  0  0  0  0  0  0  0
   -1.3380   23.7760  -28.2400 C   0  0  0  0  0  0  0  0  0  0  0  0
   -1.2950   24.9920  -27.3570 C   0  0  0  0  0  0  0  0  0  0  0  0
   -1.9850   25.0210  -26.1370 C   0  0  0  0  0  0  0  0  0  0  0  0
   -1.9320   26.1690  -25.3420 C   0  0  0  0  0  0  0  0  0  0  0  0
   -1.2150   27.2480  -25.7530 N   0  0  0  0  0  0  0  0  0  0  0  0
   -0.5240   27.2430  -26.9250 C   0  0  0  0  0  0  0  0  0  0  0  0
   -0.5450   26.1120  -27.7420 C   0  0  0  0  0  0  0  0  0  0  0  0
   -5.5177   26.1024  -29.3631 H   0  0  0  0  0  0  0  0  0  0  0  0
   -5.3952   27.0739  -30.8691 H   0  0  0  0  0  0  0  0  0  0  0  0
   -6.3111   25.5287  -30.8691 H   0  0  0  0  0  0  0  0  0  0  0  0
   -5.8917   23.5579  -31.9581 H   0  0  0  0  0  0  0  0  0  0  0  0
   -7.5366   21.5200  -29.5061 H   0  0  0  0  0  0  0  0  0  0  0  0
   -7.1401   22.8696  -30.6232 H   0  0  0  0  0  0  0  0  0  0  0  0
   -8.7898   22.1588  -30.6232 H   0  0  0  0  0  0  0  0  0  0  0  0
   -8.5310   18.5430  -33.5140 H   0  0  0  0  0  0  0  0  0  0  0  0
   -3.5163   19.7530  -32.5294 H   0  0  0  0  0  0  0  0  0  0  0  0
   -4.0743   18.9015  -34.0093 H   0  0  0  0  0  0  0  0  0  0  0  0
   -3.9132   20.6906  -34.0093 H   0  0  0  0  0  0  0  0  0  0  0  0
   -3.7527   20.0633  -30.5760 H   0  0  0  0  0  0  0  0  0  0  0  0
   -2.0402   21.5217  -29.5225 H   0  0  0  0  0  0  0  0  0  0  0  0
   -1.8950   22.9735  -27.7342 H   0  0  0  0  0  0  0  0  0  0  0  0
   -0.3135   23.4327  -28.4465 H   0  0  0  0  0  0  0  0  0  0  0  0
   -2.5643   24.1458  -25.8077 H   0  0  0  0  0  0  0  0  0  0  0  0
   -2.4707   26.1994  -24.3834 H   0  0  0  0  0  0  0  0  0  0  0  0
    0.0511   28.1303  -27.2284 H   0  0  0  0  0  0  0  0  0  0  0  0
    0.0240   26.0993  -28.6833 H   0  0  0  0  0  0  0  0  0  0  0  0
  1  2  1  0
  2  3  1  0
  3  4  2  0
  4  5  1  0
  5  6  1  0
  6  7  2  0
  7  8  1  0
  7  9  1  0
  9 10  2  0
  9 11  1  0
 11 12  1  0
 12 13  2  0
 12 14  1  0
 14 15  1  0
  5 16  2  0
 16 17  1  0
 17 18  2  0
 18 19  1  0
 19 20  1  0
 20 21  1  0
 21 22  2  0
 22 23  1  0
 23 24  2  0
 24 25  1  0
 25 26  2  0
 18  3  1  0
 26 21  1  0
 14  6  1  0
  1 27  1  0
  1 28  1  0
  1 29  1  0
  4 30  1  0
  8 31  1  0
  8 32  1  0
  8 33  1  0
 11 34  1  0
 15 35  1  0
 15 36  1  0
 15 37  1  0
 16 38  1  0
 17 39  1  0
 20 40  1  0
 20 41  1  0
 22 42  1  0
 23 43  1  0
 25 44  1  0
 26 45  1  0
M  END
>  <UniqueID>  (12) 
11

>  <SMILES>  (12) 
COc1cc(-c2c(C)c(=O)[nH]c(=O)n2C)ccc1OCc1ccncc1

>  <Energy>  (12) 
64.1279479741787

>  <Genealogy>  (12) 
COc1cc(-c2c(C)c(=O)[nH]c(=O)n2C)ccc1OCc1ccncc1 (3D coordinates assigned)
COc1cc(-c2c(C)c(=O)[nH]c(=O)n2C)ccc1OCc1ccncc1 (optimized conformer: 64.1279479741787 kcal/mol)

>  <smiles>  (12) 
COc1cc(-c2c(C)c(=O)[nH]c(=O)n2C)ccc1OCc1ccncc1

>  <score_type>  (12) 
oracle

>  <origin>  (12) 
adgpu

>  <m_score__min__energy>  (12) 
-8.3800000000000008

>  <m_primary>  (12) 
energy

$$$$
12:0
     RDKit          3D

 27 28  0  0  0  0  0  0  0  0999 V2000
   -7.1034   20.5366  -33.5730 H   0  0  0  0  0  0  0  0  0  0  0  0
   -6.9820   21.2400  -32.7360 C   0  0  0  0  0  0  0  0  0  0  0  0
   -5.8330   21.9550  -32.6130 N   0  0  0  0  0  0  0  0  0  0  0  0
   -5.6180   22.8260  -31.5890 C   0  0  0  0  0  0  0  0  0  0  0  0
   -4.4860   23.4760  -31.5640 N   0  0  0  0  0  0  0  0  0  0  0  0
   -3.9770   24.3700  -30.5600 C   0  0  0  0  0  0  0  0  0  0  0  0
   -4.2080   25.6080  -30.6390 O   0  0  0  0  0  0  0  0  0  0  0  0
   -3.2660   23.8350  -29.3660 C   0  0  0  0  0  0  0  0  0  0  0  0
   -3.7270   22.6470  -28.7610 C   0  0  0  0  0  0  0  0  0  0  0  0
   -4.6060   22.1313  -29.1751 H   0  0  0  0  0  0  0  0  0  0  0  0
   -3.0790   22.1180  -27.6410 C   0  0  0  0  0  0  0  0  0  0  0  0
   -3.4484   21.1897  -27.1809 H   0  0  0  0  0  0  0  0  0  0  0  0
   -1.9660   22.7640  -27.1060 C   0  0  0  0  0  0  0  0  0  0  0  0
   -1.4559   22.3442  -26.2265 H   0  0  0  0  0  0  0  0  0  0  0  0
   -1.4990   23.9440  -27.6870 C   0  0  0  0  0  0  0  0  0  0  0  0
   -0.6216   24.4525  -27.2608 H   0  0  0  0  0  0  0  0  0  0  0  0
   -2.1390   24.4850  -28.8080 C   0  0  0  0  0  0  0  0  0  0  0  0
   -1.6490   25.6720  -29.3430 O   0  0  0  0  0  0  0  0  0  0  0  0
   -6.6350   23.0110  -30.6290 C   0  0  0  0  0  0  0  0  0  0  0  0
   -6.4942   23.7231  -29.8026 H   0  0  0  0  0  0  0  0  0  0  0  0
   -7.8220   22.2830  -30.7360 C   0  0  0  0  0  0  0  0  0  0  0  0
   -8.6112   22.4076  -29.9800 H   0  0  0  0  0  0  0  0  0  0  0  0
   -8.0110   21.3960  -31.8010 C   0  0  0  0  0  0  0  0  0  0  0  0
   -9.2660   20.5820  -31.9040 C   0  0  0  0  0  0  0  0  0  0  0  0
   -9.6327   20.3442  -30.8945 H   0  0  0  0  0  0  0  0  0  0  0  0
  -10.0318   21.1559  -32.4465 H   0  0  0  0  0  0  0  0  0  0  0  0
   -9.0543   19.6488  -32.4465 H   0  0  0  0  0  0  0  0  0  0  0  0
  1  2  1  0
  2  3  1  0
  3  4  1  0
  4  5  2  0
  5  6  1  0
  6  7  2  0
  6  8  1  0
  8  9  2  0
  9 10  1  0
  9 11  1  0
 11 12  1  0
 11 13  2  0
 13 14  1  0
 13 15  1  0
 15 16  1  0
 15 17  2  0
 17 18  1  0
  4 19  1  0
 19 20  1  0
 19 21  2  0
 21 22  1  0
 21 23  1  0
 23 24  1  0
 24 25  1  0
 24 26  1  0
 24 27  1  0
 23  2  2  0
 17  8  1  0
M  CHG  2   3  -1  18  -1
M  END
>  <UniqueID>  (13) 
12

>  <SMILES>  (13) 
Cc1cc/c(=N\C(=O)c2ccccc2[O-])[n-]c1

>  <Energy>  (13) 
38.30347340934793

>  <Genealogy>  (13) 
Cc1ccc(=NC(=O)c2ccccc2[O-])[n-]c1 (protonated)
Cc1cc/c(=N\C(=O)c2ccccc2[O-])[n-]c1 (cis-trans isomerization)
Cc1cc/c(=N\C(=O)c2ccccc2[O-])[n-]c1 (3D coordinates assigned)
Cc1cc/c(=N\C(=O)c2ccccc2[O-])[n-]c1 (optimized conformer: 38.30347340934793 kcal/mol)

>  <smiles>  (13) 
Cc1ccc(=NC(=O)c2ccccc2O)[nH]c1

>  <score_type>  (13) 
oracle

>  <origin>  (13) 
adgpu

>  <m_score__min__energy>  (13) 
-10.75

>  <m_primary>  (13) 
energy

$$$$
13:0
     RDKit          3D

 46 48  0  0  0  0  0  0  0  0999 V2000
   -2.7650   23.1210  -28.8500 C   0  0  0  0  0  0  0  0  0  0  0  0
   -2.8370   24.4350  -29.5510 C   0  0  0  0  0  0  0  0  0  0  0  0
   -1.9450   25.2980  -29.3400 O   0  0  0  0  0  0  0  0  0  0  0  0
   -3.8570   24.6570  -30.5330 N   0  0  0  0  0  0  0  0  0  0  0  0
   -5.0750   23.9130  -30.6810 C   0  0  0  0  0  0  0  0  0  0  0  0
   -6.0170   23.8090  -29.6430 C   0  0  0  0  0  0  0  0  0  0  0  0
   -7.1860   23.0650  -29.8240 C   0  0  0  0  0  0  0  0  0  0  0  0
   -7.4210   22.4040  -31.0380 C   0  0  0  0  0  0  0  0  0  0  0  0
   -8.9280   21.5300  -31.3120 S   0  0  0  0  0  0  0  0  0  0  0  0
   -9.9010   21.8940  -30.2270 O   0  0  0  0  0  0  0  0  0  0  0  0
   -9.5200   21.8910  -32.6460 O   0  0  0  0  0  0  0  0  0  0  0  0
   -8.6240   19.8220  -31.2690 N   0  0  0  0  0  0  0  0  0  0  0  0
   -7.6070   19.2070  -32.0740 C   0  0  0  0  0  0  0  0  0  0  0  0
   -7.2200   19.7580  -33.3070 C   0  0  0  0  0  0  0  0  0  0  0  0
   -6.1620   19.2020  -34.0280 C   0  0  0  0  0  0  0  0  0  0  0  0
   -5.4850   18.0800  -33.5330 C   0  0  0  0  0  0  0  0  0  0  0  0
   -4.0740   17.4710  -34.3890 S   0  0  0  0  0  0  0  0  0  0  0  0
   -4.4860   17.0500  -35.7700 O   0  0  0  0  0  0  0  0  0  0  0  0
   -3.4810   16.2870  -33.6740 O   0  0  0  0  0  0  0  0  0  0  0  0
   -2.8770   18.7260  -34.5080 N   0  0  0  0  0  0  0  0  0  0  0  0
   -2.5800   19.6030  -33.5920 C   0  0  0  0  0  0  0  0  0  0  0  0
   -3.2050   19.6250  -32.3270 C   0  0  0  0  0  0  0  0  0  0  0  0
   -2.8430   20.6030  -31.4000 C   0  0  0  0  0  0  0  0  0  0  0  0
   -1.8670   21.5440  -31.7230 C   0  0  0  0  0  0  0  0  0  0  0  0
   -1.2660   21.4960  -32.9810 C   0  0  0  0  0  0  0  0  0  0  0  0
   -1.6320   20.5390  -33.8740 N   0  0  0  0  0  0  0  0  0  0  0  0
   -5.9050   17.4910  -32.3340 C   0  0  0  0  0  0  0  0  0  0  0  0
   -6.9630   18.0500  -31.6100 C   0  0  0  0  0  0  0  0  0  0  0  0
   -6.4680   22.4790  -32.0610 C   0  0  0  0  0  0  0  0  0  0  0  0
   -5.2980   23.2230  -31.8800 C   0  0  0  0  0  0  0  0  0  0  0  0
   -2.7740   23.2847  -27.7623 H   0  0  0  0  0  0  0  0  0  0  0  0
   -3.6308   22.5053  -29.1353 H   0  0  0  0  0  0  0  0  0  0  0  0
   -1.8372   22.6036  -29.1353 H   0  0  0  0  0  0  0  0  0  0  0  0
   -5.8332   24.3155  -28.6840 H   0  0  0  0  0  0  0  0  0  0  0  0
   -7.9243   22.9977  -29.0113 H   0  0  0  0  0  0  0  0  0  0  0  0
   -9.0420   19.2830  -30.4770 H   0  0  0  0  0  0  0  0  0  0  0  0
   -7.7539   20.6328  -33.7066 H   0  0  0  0  0  0  0  0  0  0  0  0
   -5.8590   19.6462  -34.9876 H   0  0  0  0  0  0  0  0  0  0  0  0
   -3.9712   18.8774  -32.0739 H   0  0  0  0  0  0  0  0  0  0  0  0
   -3.3284   20.6313  -30.4133 H   0  0  0  0  0  0  0  0  0  0  0  0
   -1.5742   22.3149  -30.9950 H   0  0  0  0  0  0  0  0  0  0  0  0
   -0.4953   22.2332  -33.2504 H   0  0  0  0  0  0  0  0  0  0  0  0
   -5.4018   16.5868  -31.9608 H   0  0  0  0  0  0  0  0  0  0  0  0
   -7.2921   17.5800  -30.6715 H   0  0  0  0  0  0  0  0  0  0  0  0
   -6.6403   21.9508  -33.0104 H   0  0  0  0  0  0  0  0  0  0  0  0
   -4.5482   23.2669  -32.6836 H   0  0  0  0  0  0  0  0  0  0  0  0
  1  2  1  0
  2  3  2  0
  2  4  1  0
  4  5  1  0
  5  6  2  0
  6  7  1  0
  7  8  2  0
  8  9  1  0
  9 10  2  0
  9 11  2  0
  9 12  1  0
 12 13  1  0
 13 14  2  0
 14 15  1  0
 15 16  2  0
 16 17  1  0
 17 18  2  0
 17 19  2  0
 17 20  1  0
 20 21  2  3
 21 22  1  0
 22 23  2  0
 23 24  1  0
 24 25  2  0
 25 26  1  0
 16 27  1  0
 27 28  2  0
  8 29  1  0
 29 30  2  0
 30  5  1  0
 28 13  1  0
 26 21  1  0
  1 31  1  0
  1 32  1  0
  1 33  1  0
  6 34  1  0
  7 35  1  0
 12 36  1  0
 14 37  1  0
 15 38  1  0
 22 39  1  0
 23 40  1  0
 24 41  1  0
 25 42  1  0
 27 43  1  0
 28 44  1  0
 29 45  1  0
 30 46  1  0
M  CHG  2   4  -1  26  -1
M  END
>  <UniqueID>  (14) 
13

>  <SMILES>  (14) 
CC(=O)[N-]c1ccc(S(=O)(=O)Nc2ccc(S(=O)(=O)N=c3cccc[n-]3)cc2)cc1

>  <Energy>  (14) 
55.56654224589728

>  <Genealogy>  (14) 
CC(=O)[N-]c1ccc(S(=O)(=O)Nc2ccc(S(=O)(=O)N=c3cccc[n-]3)cc2)cc1 (protonated)
CC(=O)[N-]c1ccc(S(=O)(=O)Nc2ccc(S(=O)(=O)N=c3cccc[n-]3)cc2)cc1 (3D coordinates assigned)
CC(=O)[N-]c1ccc(S(=O)(=O)Nc2ccc(S(=O)(=O)N=c3cccc[n-]3)cc2)cc1 (optimized conformer: 55.56654224589728 kcal/mol)

>  <smiles>  (14) 
CC(=O)Nc1ccc(S(=O)(=O)Nc2ccc(S(=O)(=O)N=c3cccc[nH]3)cc2)cc1

>  <score_type>  (14) 
oracle

>  <origin>  (14) 
adgpu

>  <m_score__min__energy>  (14) 
-11.369999999999999

>  <m_primary>  (14) 
energy

$$$$
14:0
     RDKit          3D

 61 64  0  0  0  0  0  0  0  0999 V2000
   -6.6124   19.1520  -32.3206 H   0  0  0  0  0  0  0  0  0  0  0  0
   -5.5950   19.2850  -32.7170 C   0  0  0  0  0  0  0  0  0  0  0  0
   -4.9940   20.5620  -32.7460 C   0  0  0  0  0  0  0  0  0  0  0  0
   -5.6420   21.6800  -32.1290 N   0  0  0  0  0  0  0  0  0  0  0  0
   -5.0650   22.7220  -31.5890 C   0  0  0  0  0  0  0  0  0  0  0  0
   -3.6680   22.8190  -31.4160 C   0  0  0  0  0  0  0  0  0  0  0  0
   -3.0077   22.0123  -31.7672 H   0  0  0  0  0  0  0  0  0  0  0  0
   -3.1490   23.9120  -30.8150 N   0  0  0  0  0  0  0  0  0  0  0  0
   -3.9270   24.9120  -30.3890 N   0  0  0  0  0  0  0  0  0  0  0  0
   -5.2760   24.8810  -30.5280 C   0  0  0  0  0  0  0  0  0  0  0  0
   -6.1010   26.0490  -30.0840 C   0  0  0  0  0  0  0  0  0  0  0  0
   -6.1256   26.0838  -28.9848 H   0  0  0  0  0  0  0  0  0  0  0  0
   -5.6581   26.9788  -30.4705 H   0  0  0  0  0  0  0  0  0  0  0  0
   -7.1253   25.9424  -30.4705 H   0  0  0  0  0  0  0  0  0  0  0  0
   -5.8650   23.7730  -31.1320 C   0  0  0  0  0  0  0  0  0  0  0  0
   -6.9577   23.7251  -31.2492 H   0  0  0  0  0  0  0  0  0  0  0  0
   -3.7250   20.6980  -33.2050 N   0  0  0  0  0  0  0  0  0  0  0  0
   -3.0260   19.6220  -33.6590 C   0  0  0  0  0  0  0  0  0  0  0  0
   -1.3250   19.8110  -34.2000 S   0  0  0  0  0  0  0  0  0  0  0  0
   -0.7500   20.2340  -32.5540 C   0  0  0  0  0  0  0  0  0  0  0  0
   -0.2670   19.2470  -31.6850 C   0  0  0  0  0  0  0  0  0  0  0  0
   -0.1131   18.2200  -32.0478 H   0  0  0  0  0  0  0  0  0  0  0  0
    0.0190   19.5710  -30.3550 C   0  0  0  0  0  0  0  0  0  0  0  0
    0.4033   18.7976  -29.6737 H   0  0  0  0  0  0  0  0  0  0  0  0
   -0.1820   20.8790  -29.8850 C   0  0  0  0  0  0  0  0  0  0  0  0
    0.0280   21.2120  -28.5090 N   0  0  0  0  0  0  0  0  0  0  0  0
   -0.9920   21.6470  -27.6070 C   0  0  0  0  0  0  0  0  0  0  0  0
   -1.3600   20.8720  -26.6890 O   0  0  0  0  0  0  0  0  0  0  0  0
   -1.5570   23.0440  -27.6480 C   0  0  0  0  0  0  0  0  0  0  0  0
   -1.5937   23.4435  -26.6238 H   0  0  0  0  0  0  0  0  0  0  0  0
   -0.9062   23.6576  -28.2883 H   0  0  0  0  0  0  0  0  0  0  0  0
   -2.9240   23.0680  -28.2220 N   0  0  0  0  0  0  0  0  0  0  0  0
   -2.8870   23.4830  -29.1880 H   0  0  0  0  0  0  0  0  0  0  0  0
   -3.5000   21.7110  -28.3060 C   0  0  0  0  0  0  0  0  0  0  0  0
   -3.6661   21.3197  -27.2914 H   0  0  0  0  0  0  0  0  0  0  0  0
   -4.4583   21.7521  -28.8446 H   0  0  0  0  0  0  0  0  0  0  0  0
   -2.8048   21.0503  -28.8446 H   0  0  0  0  0  0  0  0  0  0  0  0
   -3.8070   23.9240  -27.3960 C   0  0  0  0  0  0  0  0  0  0  0  0
   -3.6104   23.7334  -26.3306 H   0  0  0  0  0  0  0  0  0  0  0  0
   -3.6080   24.9820  -27.6220 H   0  0  0  0  0  0  0  0  0  0  0  0
   -4.8583   23.6922  -27.6220 H   0  0  0  0  0  0  0  0  0  0  0  0
   -0.5850   21.8780  -30.7790 C   0  0  0  0  0  0  0  0  0  0  0  0
   -0.6741   22.9191  -30.4353 H   0  0  0  0  0  0  0  0  0  0  0  0
   -0.8740   21.5550  -32.1060 C   0  0  0  0  0  0  0  0  0  0  0  0
   -1.2004   22.3413  -32.8026 H   0  0  0  0  0  0  0  0  0  0  0  0
   -3.5960   18.3830  -33.6480 N   0  0  0  0  0  0  0  0  0  0  0  0
   -4.8680   18.1900  -33.2040 C   0  0  0  0  0  0  0  0  0  0  0  0
   -5.4450   16.8650  -33.2260 N   0  0  0  0  0  0  0  0  0  0  0  0
   -4.6580   15.6950  -32.8600 C   0  0  0  0  0  0  0  0  0  0  0  0
   -3.5866   15.9374  -32.9172 H   0  0  0  0  0  0  0  0  0  0  0  0
   -4.9015   15.3872  -31.8324 H   0  0  0  0  0  0  0  0  0  0  0  0
   -4.9810   14.5600  -33.8330 C   0  0  0  0  0  0  0  0  0  0  0  0
   -4.6539   14.8450  -34.8438 H   0  0  0  0  0  0  0  0  0  0  0  0
   -4.4546   13.6505  -33.5079 H   0  0  0  0  0  0  0  0  0  0  0  0
   -6.3750   14.3040  -33.8480 O   0  0  0  0  0  0  0  0  0  0  0  0
   -7.0620   15.4240  -34.3780 C   0  0  0  0  0  0  0  0  0  0  0  0
   -6.6762   15.6362  -35.3860 H   0  0  0  0  0  0  0  0  0  0  0  0
   -8.1355   15.1866  -34.4124 H   0  0  0  0  0  0  0  0  0  0  0  0
   -6.8710   16.6650  -33.5000 C   0  0  0  0  0  0  0  0  0  0  0  0
   -7.2696   17.5470  -34.0227 H   0  0  0  0  0  0  0  0  0  0  0  0
   -7.4069   16.5235  -32.5499 H   0  0  0  0  0  0  0  0  0  0  0  0
  1  2  1  0
  2  3  2  0
  3  4  1  0
  4  5  2  0
  5  6  1  0
  6  7  1  0
  6  8  2  0
  8  9  1  0
  9 10  1  0
 10 11  1  0
 11 12  1  0
 11 13  1  0
 11 14  1  0
 10 15  2  0
 15 16  1  0
  3 17  1  0
 17 18  2  0
 18 19  1  0
 19 20  1  0
 20 21  2  0
 21 22  1  0
 21 23  1  0
 23 24  1  0
 23 25  2  0
 25 26  1  0
 26 27  1  0
 27 28  2  0
 27 29  1  0
 29 30  1  0
 29 31  1  0
 29 32  1  0
 32 33  1  0
 32 34  1  0
 34 35  1  0
 34 36  1  0
 34 37  1  0
 32 38  1  0
 38 39  1  0
 38 40  1  0
 38 41  1  0
 25 42  1  0
 42 43  1  0
 42 44  2  0
 44 45  1  0
 18 46  1  0
 46 47  2  0
 47 48  1  0
 48 49  1  0
 49 50  1  0
 49 51  1  0
 49 52  1  0
 52 53  1  0
 52 54  1  0
 52 55  1  0
 55 56  1  0
 56 57  1  0
 56 58  1  0
 56 59  1  0
 59 60  1  0
 59 61  1  0
 47  2  1  0
 59 48  1  0
 15  5  1  0
 44 20  1  0
M  CHG  3   9  -1  26  -1  32   1
M  END
>  <UniqueID>  (15) 
14

>  <SMILES>  (15) 
Cc1c/c(=N/c2cc(N3CCOCC3)nc(Sc3ccc([N-]C(=O)C[NH+](C)C)cc3)n2)cn[n-]1

>  <Energy>  (15) 
83.56825145097062

>  <Genealogy>  (15) 
Cc1cc(=Nc2cc(N3CCOCC3)nc(Sc3ccc([N-]C(=O)C[NH+](C)C)cc3)n2)cn[n-]1 (protonated)
Cc1c/c(=N/c2cc(N3CCOCC3)nc(Sc3ccc([N-]C(=O)C[NH+](C)C)cc3)n2)cn[n-]1 (cis-trans isomerization)
Cc1c/c(=N/c2cc(N3CCOCC3)nc(Sc3ccc([N-]C(=O)C[NH+](C)C)cc3)n2)cn[n-]1 (3D coordinates assigned)
Cc1c/c(=N/c2cc(N3CCOCC3)nc(Sc3ccc([N-]C(=O)C[NH+](C)C)cc3)n2)cn[n-]1 (nonaromatic ring conformer: 83.56825145097062 kcal/mol)

>  <smiles>  (15) 
Cc1cc(=Nc2cc(N3CCOCC3)nc(Sc3ccc(NC(=O)CN(C)C)cc3)n2)cn[nH]1

>  <score_type>  (15) 
oracle

>  <origin>  (15) 
adgpu

>  <m_score__min__energy>  (15) 
-11.109999999999999

>  <m_primary>  (15) 
energy

$$$$
15:0
     RDKit          3D

 43 46  0  0  0  0  0  0  0  0999 V2000
    0.7880   19.0850  -31.8210 C   0  0  0  0  0  0  0  0  0  0  0  0
   -0.3240   20.0920  -31.8690 C   0  0  0  0  0  0  0  0  0  0  0  0
   -1.1930   20.1340  -32.9690 C   0  0  0  0  0  0  0  0  0  0  0  0
   -2.2490   21.0500  -33.0000 C   0  0  0  0  0  0  0  0  0  0  0  0
   -2.4640   21.9200  -31.9150 C   0  0  0  0  0  0  0  0  0  0  0  0
   -3.4920   22.8720  -31.9110 O   0  0  0  0  0  0  0  0  0  0  0  0
   -4.8550   22.5920  -31.7490 C   0  0  0  0  0  0  0  0  0  0  0  0
   -5.4480   21.5900  -32.4560 N   0  0  0  0  0  0  0  0  0  0  0  0
   -6.7640   21.2940  -32.2940 C   0  0  0  0  0  0  0  0  0  0  0  0
   -7.3610   20.2660  -33.0310 C   0  0  0  0  0  0  0  0  0  0  0  0
   -8.7170   19.9760  -32.8480 C   0  0  0  0  0  0  0  0  0  0  0  0
   -9.4770   20.7120  -31.9290 C   0  0  0  0  0  0  0  0  0  0  0  0
   -8.8840   21.7400  -31.1900 C   0  0  0  0  0  0  0  0  0  0  0  0
   -7.5270   22.0340  -31.3680 C   0  0  0  0  0  0  0  0  0  0  0  0
   -6.9330   23.0290  -30.6590 N   0  0  0  0  0  0  0  0  0  0  0  0
   -5.6160   23.3230  -30.8230 C   0  0  0  0  0  0  0  0  0  0  0  0
   -4.9030   24.6460  -29.9070 S   0  0  0  0  0  0  0  0  0  0  0  0
   -4.3140   25.6600  -30.8460 O   0  0  0  0  0  0  0  0  0  0  0  0
   -5.9770   25.3030  -29.0860 O   0  0  0  0  0  0  0  0  0  0  0  0
   -3.6230   24.0180  -28.8700 C   0  0  0  0  0  0  0  0  0  0  0  0
   -3.7630   22.7780  -28.2290 C   0  0  0  0  0  0  0  0  0  0  0  0
   -2.7150   22.2640  -27.4590 C   0  0  0  0  0  0  0  0  0  0  0  0
   -1.5230   22.9830  -27.3280 C   0  0  0  0  0  0  0  0  0  0  0  0
   -1.3800   24.2180  -27.9660 C   0  0  0  0  0  0  0  0  0  0  0  0
   -2.4260   24.7370  -28.7350 C   0  0  0  0  0  0  0  0  0  0  0  0
   -1.5950   21.8750  -30.8190 C   0  0  0  0  0  0  0  0  0  0  0  0
   -0.5390   20.9590  -30.7880 C   0  0  0  0  0  0  0  0  0  0  0  0
    1.0351   18.8613  -30.7727 H   0  0  0  0  0  0  0  0  0  0  0  0
    0.4691   18.1621  -32.3276 H   0  0  0  0  0  0  0  0  0  0  0  0
    1.6748   19.4936  -32.3276 H   0  0  0  0  0  0  0  0  0  0  0  0
   -1.0431   19.4429  -33.8116 H   0  0  0  0  0  0  0  0  0  0  0  0
   -2.9139   21.0907  -33.8754 H   0  0  0  0  0  0  0  0  0  0  0  0
   -6.7657   19.6872  -33.7525 H   0  0  0  0  0  0  0  0  0  0  0  0
   -9.1881   19.1680  -33.4270 H   0  0  0  0  0  0  0  0  0  0  0  0
  -10.5431   20.4802  -31.7887 H   0  0  0  0  0  0  0  0  0  0  0  0
   -9.4828   22.3169  -30.4698 H   0  0  0  0  0  0  0  0  0  0  0  0
   -4.6988   22.2091  -28.3323 H   0  0  0  0  0  0  0  0  0  0  0  0
   -2.8285   21.2926  -26.9556 H   0  0  0  0  0  0  0  0  0  0  0  0
   -0.6987   22.5769  -26.7234 H   0  0  0  0  0  0  0  0  0  0  0  0
   -0.4420   24.7833  -27.8629 H   0  0  0  0  0  0  0  0  0  0  0  0
   -2.3102   25.7101  -29.2347 H   0  0  0  0  0  0  0  0  0  0  0  0
   -1.7438   22.5654  -29.9756 H   0  0  0  0  0  0  0  0  0  0  0  0
    0.1256   20.9183  -29.9124 H   0  0  0  0  0  0  0  0  0  0  0  0
  1  2  1  0
  2  3  2  0
  3  4  1  0
  4  5  2  0
  5  6  1  0
  6  7  1  0
  7  8  2  0
  8  9  1  0
  9 10  2  0
 10 11  1  0
 11 12  2  0
 12 13  1  0
 13 14  2  0
 14 15  1  0
 15 16  2  0
 16 17  1  0
 17 18  2  0
 17 19  2  0
 17 20  1  0
 20 21  2  0
 21 22  1  0
 22 23  2  0
 23 24  1  0
 24 25  2  0
  5 26  1  0
 26 27  2  0
 27  2  1  0
 16  7  1  0
 25 20  1  0
 14  9  1  0
  1 28  1  0
  1 29  1  0
  1 30  1  0
  3 31  1  0
  4 32  1  0
 10 33  1  0
 11 34  1  0
 12 35  1  0
 13 36  1  0
 21 37  1  0
 22 38  1  0
 23 39  1  0
 24 40  1  0
 25 41  1  0
 26 42  1  0
 27 43  1  0
M  END
>  <UniqueID>  (16) 
15

>  <SMILES>  (16) 
Cc1ccc(Oc2nc3ccccc3nc2S(=O)(=O)c2ccccc2)cc1

>  <Energy>  (16) 
56.06755447698065

>  <Genealogy>  (16) 
Cc1ccc(Oc2nc3ccccc3nc2S(=O)(=O)c2ccccc2)cc1 (3D coordinates assigned)
Cc1ccc(Oc2nc3ccccc3nc2S(=O)(=O)c2ccccc2)cc1 (optimized conformer: 56.06755447698065 kcal/mol)

>  <smiles>  (16) 
Cc1ccc(Oc2nc3ccccc3nc2S(=O)(=O)c2ccccc2)cc1

>  <score_type>  (16) 
oracle

>  <origin>  (16) 
adgpu

>  <m_score__min__energy>  (16) 
-9.2400000000000002

>  <m_primary>  (16) 
energy

$$$$
16:0
     RDKit          3D

 39 41  0  0  0  0  0  0  0  0999 V2000
   -8.8060   18.5360  -33.5350 H   0  0  0  0  0  0  0  0  0  0  0  0
   -8.2310   18.5650  -32.7000 O   0  0  0  0  0  0  0  0  0  0  0  0
   -7.4100   19.6550  -32.4190 C   0  0  0  0  0  0  0  0  0  0  0  0
   -7.6890   20.4630  -31.3130 C   0  0  0  0  0  0  0  0  0  0  0  0
   -8.5534   20.2360  -30.6717 H   0  0  0  0  0  0  0  0  0  0  0  0
   -6.8720   21.5590  -31.0200 C   0  0  0  0  0  0  0  0  0  0  0  0
   -7.1072   22.2025  -30.1594 H   0  0  0  0  0  0  0  0  0  0  0  0
   -5.7500   21.8430  -31.8210 C   0  0  0  0  0  0  0  0  0  0  0  0
   -4.8920   23.0210  -31.5530 C   0  0  0  0  0  0  0  0  0  0  0  0
   -5.1955   23.9743  -32.0103 H   0  0  0  0  0  0  0  0  0  0  0  0
   -3.7600   23.0320  -30.7910 C   0  0  0  0  0  0  0  0  0  0  0  0
   -2.9640   21.8830  -30.5150 C   0  0  0  0  0  0  0  0  0  0  0  0
   -2.9690   20.8210  -31.3570 C   0  0  0  0  0  0  0  0  0  0  0  0
   -2.3504   19.9392  -31.1338 H   0  0  0  0  0  0  0  0  0  0  0  0
   -3.5916   20.8408  -32.2636 H   0  0  0  0  0  0  0  0  0  0  0  0
   -2.0820   21.9170  -29.4540 N   0  0  0  0  0  0  0  0  0  0  0  0
   -1.4490   20.6970  -28.9980 C   0  0  0  0  0  0  0  0  0  0  0  0
   -1.9500   20.0130  -27.8790 C   0  0  0  0  0  0  0  0  0  0  0  0
   -2.8353   20.3977  -27.3514 H   0  0  0  0  0  0  0  0  0  0  0  0
   -1.3260   18.8440  -27.4340 C   0  0  0  0  0  0  0  0  0  0  0  0
   -1.7226   18.3081  -26.5590 H   0  0  0  0  0  0  0  0  0  0  0  0
   -0.1970   18.3550  -28.1010 C   0  0  0  0  0  0  0  0  0  0  0  0
    0.6550   16.7580  -27.4900 Br  0  0  0  0  0  0  0  0  0  0  0  0
    0.3080   19.0360  -29.2130 C   0  0  0  0  0  0  0  0  0  0  0  0
    1.1960   18.6515  -29.7361 H   0  0  0  0  0  0  0  0  0  0  0  0
   -0.3150   20.2060  -29.6610 C   0  0  0  0  0  0  0  0  0  0  0  0
    0.0853   20.7415  -30.5345 H   0  0  0  0  0  0  0  0  0  0  0  0
   -1.7960   23.1060  -28.8200 C   0  0  0  0  0  0  0  0  0  0  0  0
   -0.7880   23.1260  -27.5030 S   0  0  0  0  0  0  0  0  0  0  0  0
   -2.3650   24.2770  -29.2600 N   0  0  0  0  0  0  0  0  0  0  0  0
   -1.9800   25.5230  -28.7110 N   0  0  0  0  0  0  0  0  0  0  0  0
   -2.4610   26.4160  -28.9600 H   0  0  0  0  0  0  0  0  0  0  0  0
   -1.2480   25.5940  -27.9720 H   0  0  0  0  0  0  0  0  0  0  0  0
   -3.3470   24.2510  -30.2100 C   0  0  0  0  0  0  0  0  0  0  0  0
   -3.9100   25.3320  -30.5470 O   0  0  0  0  0  0  0  0  0  0  0  0
   -5.4920   21.0460  -32.9440 C   0  0  0  0  0  0  0  0  0  0  0  0
   -4.6408   21.2832  -33.5991 H   0  0  0  0  0  0  0  0  0  0  0  0
   -6.3110   19.9500  -33.2370 C   0  0  0  0  0  0  0  0  0  0  0  0
   -6.0919   19.3189  -34.1109 H   0  0  0  0  0  0  0  0  0  0  0  0
  1  2  1  0
  2  3  1  0
  3  4  2  0
  4  5  1  0
  4  6  1  0
  6  7  1  0
  6  8  2  0
  8  9  1  0
  9 10  1  0
  9 11  2  0
 11 12  1  0
 12 13  2  0
 13 14  1  0
 13 15  1  0
 12 16  1  0
 16 17  1  0
 17 18  2  0
 18 19  1  0
 18 20  1  0
 20 21  1  0
 20 22  2  0
 22 23  1  0
 22 24  1  0
 24 25  1  0
 24 26  2  0
 26 27  1  0
 16 28  1  0
 28 29  2  0
 28 30  1  0
 30 31  1  0
 31 32  1  0
 31 33  1  0
 30 34  1  0
 34 35  2  0
  8 36  1  0
 36 37  1  0
 36 38  2  0
 38 39  1  0
 38  3  1  0
 34 11  1  0
 26 17  1  0
M  END
>  <UniqueID>  (17) 
16

>  <SMILES>  (17) 
C=c1/c(=C\c2ccc(O)cc2)c(=O)n(N)c(=S)n1-c1ccc(Br)cc1

>  <Energy>  (17) 
86.920560576898

>  <Genealogy>  (17) 
C=c1/c(=C\c2ccc(O)cc2)c(=O)n(N)c(=S)n1-c1ccc(Br)cc1 (cis-trans isomerization)
C=c1/c(=C\c2ccc(O)cc2)c(=O)n(N)c(=S)n1-c1ccc(Br)cc1 (3D coordinates assigned)
C=c1/c(=C\c2ccc(O)cc2)c(=O)n(N)c(=S)n1-c1ccc(Br)cc1 (optimized conformer: 86.920560576898 kcal/mol)

>  <smiles>  (17) 
C=c1c(=Cc2ccc(O)cc2)c(=O)n(N)c(=S)n1-c1ccc(Br)cc1

>  <score_type>  (17) 
oracle

>  <origin>  (17) 
adgpu

>  <m_score__min__energy>  (17) 
-8.6799999999999997

>  <m_primary>  (17) 
energy

$$$$
17:0
     RDKit          3D

 45 49  0  0  0  0  0  0  0  0999 V2000
   -9.5780   21.5790  -31.9380 C   0  0  0  0  0  0  0  0  0  0  0  0
   -8.0880   21.6150  -31.9150 C   0  0  0  0  0  0  0  0  0  0  0  0
   -7.2490   20.7890  -32.6360 C   0  0  0  0  0  0  0  0  0  0  0  0
   -5.9790   21.1680  -32.2440 C   0  0  0  0  0  0  0  0  0  0  0  0
   -4.7240   20.6410  -32.8240 C   0  0  0  0  0  0  0  0  0  0  0  0
   -4.5970   19.2600  -33.1340 C   0  0  0  0  0  0  0  0  0  0  0  0
   -3.4060   18.7510  -33.6800 C   0  0  0  0  0  0  0  0  0  0  0  0
   -2.3600   19.6440  -33.8900 C   0  0  0  0  0  0  0  0  0  0  0  0
   -2.4620   20.9810  -33.5770 C   0  0  0  0  0  0  0  0  0  0  0  0
   -3.6310   21.5110  -33.0370 C   0  0  0  0  0  0  0  0  0  0  0  0
   -1.3460   21.6250  -33.8590 O   0  0  0  0  0  0  0  0  0  0  0  0
   -0.5120   20.7290  -34.3520 C   0  0  0  0  0  0  0  0  0  0  0  0
    0.7920   20.9370  -34.7920 C   0  0  0  0  0  0  0  0  0  0  0  0
    1.5070   19.8270  -35.2840 C   0  0  0  0  0  0  0  0  0  0  0  0
    0.9070   18.5480  -35.3250 C   0  0  0  0  0  0  0  0  0  0  0  0
   -0.4130   18.3620  -34.8740 C   0  0  0  0  0  0  0  0  0  0  0  0
   -1.0930   19.4780  -34.3930 C   0  0  0  0  0  0  0  0  0  0  0  0
   -6.0870   22.1490  -31.3150 N   0  0  0  0  0  0  0  0  0  0  0  0
   -5.0360   22.7770  -30.5620 C   0  0  0  0  0  0  0  0  0  0  0  0
   -4.1690   22.0150  -29.7600 C   0  0  0  0  0  0  0  0  0  0  0  0
   -3.1560   22.6380  -29.0260 C   0  0  0  0  0  0  0  0  0  0  0  0
   -3.0090   24.0300  -29.0670 C   0  0  0  0  0  0  0  0  0  0  0  0
   -1.7220   24.8120  -28.1570 S   0  0  0  0  0  0  0  0  0  0  0  0
   -1.2370   26.2580  -28.9690 N   0  0  0  0  0  0  0  0  0  0  0  0
   -0.5450   23.8870  -28.0380 O   0  0  0  0  0  0  0  0  0  0  0  0
   -2.2080   25.1520  -26.7750 O   0  0  0  0  0  0  0  0  0  0  0  0
   -3.8810   24.7940  -29.8530 C   0  0  0  0  0  0  0  0  0  0  0  0
   -4.8940   24.1720  -30.5880 C   0  0  0  0  0  0  0  0  0  0  0  0
   -7.3680   22.4210  -31.1120 N   0  0  0  0  0  0  0  0  0  0  0  0
   -9.9605   21.5698  -30.9067 H   0  0  0  0  0  0  0  0  0  0  0  0
   -9.9582   22.4682  -32.4621 H   0  0  0  0  0  0  0  0  0  0  0  0
   -9.9148   20.6725  -32.4621 H   0  0  0  0  0  0  0  0  0  0  0  0
   -7.5278   20.0073  -33.3580 H   0  0  0  0  0  0  0  0  0  0  0  0
   -5.4413   18.5809  -32.9443 H   0  0  0  0  0  0  0  0  0  0  0  0
   -3.3046   17.6851  -33.9322 H   0  0  0  0  0  0  0  0  0  0  0  0
   -3.7018   22.5789  -32.7829 H   0  0  0  0  0  0  0  0  0  0  0  0
    1.2500   21.9365  -34.7568 H   0  0  0  0  0  0  0  0  0  0  0  0
    2.5400   19.9569  -35.6389 H   0  0  0  0  0  0  0  0  0  0  0  0
    1.4767   17.6906  -35.7128 H   0  0  0  0  0  0  0  0  0  0  0  0
   -0.8902   17.3713  -34.9005 H   0  0  0  0  0  0  0  0  0  0  0  0
   -4.2884   20.9227  -29.7098 H   0  0  0  0  0  0  0  0  0  0  0  0
   -2.4715   22.0326  -28.4137 H   0  0  0  0  0  0  0  0  0  0  0  0
   -1.2410   26.0490  -29.9920 H   0  0  0  0  0  0  0  0  0  0  0  0
   -3.7681   25.8875  -29.8919 H   0  0  0  0  0  0  0  0  0  0  0  0
   -5.5843   24.7805  -31.1907 H   0  0  0  0  0  0  0  0  0  0  0  0
  1  2  1  0
  2  3  1  0
  3  4  2  0
  4  5  1  0
  5  6  2  0
  6  7  1  0
  7  8  2  0
  8  9  1  0
  9 10  2  0
  9 11  1  0
 11 12  1  0
 12 13  2  0
 13 14  1  0
 14 15  2  0
 15 16  1  0
 16 17  2  0
  4 18  1  0
 18 19  1  0
 19 20  2  0
 20 21  1  0
 21 22  2  0
 22 23  1  0
 23 24  1  0
 23 25  2  0
 23 26  2  0
 22 27  1  0
 27 28  2  0
 18 29  1  0
 29  2  2  0
 10  5  1  0
 17 12  1  0
 28 19  1  0
 17  8  1  0
  1 30  1  0
  1 31  1  0
  1 32  1  0
  3 33  1  0
  6 34  1  0
  7 35  1  0
 10 36  1  0
 13 37  1  0
 14 38  1  0
 15 39  1  0
 16 40  1  0
 20 41  1  0
 21 42  1  0
 24 43  1  0
 27 44  1  0
 28 45  1  0
M  CHG  1  24  -1
M  END
>  <UniqueID>  (18) 
17

>  <SMILES>  (18) 
Cc1cc(-c2ccc3c(c2)oc2ccccc23)n(-c2ccc(S([NH-])(=O)=O)cc2)n1

>  <Energy>  (18) 
130.51723013765542

>  <Genealogy>  (18) 
Cc1cc(-c2ccc3c(c2)oc2ccccc23)n(-c2ccc(S([NH-])(=O)=O)cc2)n1 (protonated)
Cc1cc(-c2ccc3c(c2)oc2ccccc23)n(-c2ccc(S([NH-])(=O)=O)cc2)n1 (3D coordinates assigned)
Cc1cc(-c2ccc3c(c2)oc2ccccc23)n(-c2ccc(S([NH-])(=O)=O)cc2)n1 (optimized conformer: 130.51723013765542 kcal/mol)

>  <smiles>  (18) 
Cc1cc(-c2ccc3c(c2)oc2ccccc23)n(-c2ccc(S(N)(=O)=O)cc2)n1

>  <score_type>  (18) 
oracle

>  <origin>  (18) 
adgpu

>  <m_score__min__energy>  (18) 
-11.23

>  <m_primary>  (18) 
energy

$$$$
18:0
     RDKit          3D

 42 44  0  0  0  0  0  0  0  0999 V2000
   -8.9240   22.3640  -31.9910 C   0  0  0  0  0  0  0  0  0  0  0  0
   -7.8330   21.4310  -31.6790 N   0  0  0  0  0  0  0  0  0  0  0  0
   -8.1670   20.0700  -31.2320 C   0  0  0  0  0  0  0  0  0  0  0  0
   -7.3190   19.0610  -31.9570 C   0  0  0  0  0  0  0  0  0  0  0  0
   -7.2520   19.0770  -33.3590 C   0  0  0  0  0  0  0  0  0  0  0  0
   -6.4380   18.1640  -34.0360 C   0  0  0  0  0  0  0  0  0  0  0  0
   -5.6780   17.2370  -33.3180 C   0  0  0  0  0  0  0  0  0  0  0  0
   -5.7360   17.2150  -31.9220 C   0  0  0  0  0  0  0  0  0  0  0  0
   -6.5530   18.1250  -31.2420 C   0  0  0  0  0  0  0  0  0  0  0  0
   -6.4470   21.8220  -31.8430 C   0  0  0  0  0  0  0  0  0  0  0  0
   -5.8280   22.7460  -30.9790 C   0  0  0  0  0  0  0  0  0  0  0  0
   -4.4810   23.0820  -31.1880 C   0  0  0  0  0  0  0  0  0  0  0  0
   -3.7850   24.0430  -30.3050 C   0  0  0  0  0  0  0  0  0  0  0  0
   -3.8800   25.2820  -30.5310 O   0  0  0  0  0  0  0  0  0  0  0  0
   -2.9690   23.5730  -29.2190 N   0  0  0  0  0  0  0  0  0  0  0  0
   -2.5220   24.4030  -28.1330 C   0  0  0  0  0  0  0  0  0  0  0  0
   -3.2900   24.5470  -26.9620 C   0  0  0  0  0  0  0  0  0  0  0  0
   -2.8250   25.3340  -25.9040 C   0  0  0  0  0  0  0  0  0  0  0  0
   -1.5860   25.9730  -25.9980 C   0  0  0  0  0  0  0  0  0  0  0  0
   -0.9520   27.0440  -24.5500 Br  0  0  0  0  0  0  0  0  0  0  0  0
   -0.8080   25.8200  -27.1480 C   0  0  0  0  0  0  0  0  0  0  0  0
   -1.2680   25.0350  -28.2090 C   0  0  0  0  0  0  0  0  0  0  0  0
   -0.4980   24.8980  -29.3170 F   0  0  0  0  0  0  0  0  0  0  0  0
   -3.8070   22.5060  -32.2190 N   0  0  0  0  0  0  0  0  0  0  0  0
   -4.4090   21.6170  -33.0470 C   0  0  0  0  0  0  0  0  0  0  0  0
   -5.7100   21.2850  -32.8540 N   0  0  0  0  0  0  0  0  0  0  0  0
   -9.3637   22.7400  -31.0554 H   0  0  0  0  0  0  0  0  0  0  0  0
   -8.5289   23.2079  -32.5756 H   0  0  0  0  0  0  0  0  0  0  0  0
   -9.6963   21.8427  -32.5756 H   0  0  0  0  0  0  0  0  0  0  0  0
   -7.9841   19.9879  -30.1504 H   0  0  0  0  0  0  0  0  0  0  0  0
   -9.2265   19.8709  -31.4505 H   0  0  0  0  0  0  0  0  0  0  0  0
   -7.8423   19.8109  -33.9273 H   0  0  0  0  0  0  0  0  0  0  0  0
   -6.3958   18.1754  -35.1351 H   0  0  0  0  0  0  0  0  0  0  0  0
   -5.0333   16.5237  -33.8523 H   0  0  0  0  0  0  0  0  0  0  0  0
   -5.1397   16.4827  -31.3579 H   0  0  0  0  0  0  0  0  0  0  0  0
   -6.5957   18.1075  -30.1430 H   0  0  0  0  0  0  0  0  0  0  0  0
   -6.3929   23.1988  -30.1508 H   0  0  0  0  0  0  0  0  0  0  0  0
   -2.6330   22.5840  -29.2450 H   0  0  0  0  0  0  0  0  0  0  0  0
   -4.2614   24.0375  -26.8789 H   0  0  0  0  0  0  0  0  0  0  0  0
   -3.4355   25.4503  -24.9964 H   0  0  0  0  0  0  0  0  0  0  0  0
    0.1698   26.3189  -27.2188 H   0  0  0  0  0  0  0  0  0  0  0  0
   -3.8427   21.1652  -33.8748 H   0  0  0  0  0  0  0  0  0  0  0  0
  1  2  1  0
  2  3  1  0
  3  4  1  0
  4  5  2  0
  5  6  1  0
  6  7  2  0
  7  8  1  0
  8  9  2  0
  2 10  1  0
 10 11  2  0
 11 12  1  0
 12 13  1  0
 13 14  2  0
 13 15  1  0
 15 16  1  0
 16 17  2  0
 17 18  1  0
 18 19  2  0
 19 20  1  0
 19 21  1  0
 21 22  2  0
 22 23  1  0
 12 24  2  0
 24 25  1  0
 25 26  2  0
  9  4  1  0
 26 10  1  0
 22 16  1  0
  1 27  1  0
  1 28  1  0
  1 29  1  0
  3 30  1  0
  3 31  1  0
  5 32  1  0
  6 33  1  0
  7 34  1  0
  8 35  1  0
  9 36  1  0
 11 37  1  0
 15 38  1  0
 17 39  1  0
 18 40  1  0
 21 41  1  0
 25 42  1  0
M  END
>  <UniqueID>  (19) 
18

>  <SMILES>  (19) 
CN(Cc1ccccc1)c1cc(C(=O)Nc2ccc(Br)cc2F)ncn1

>  <Energy>  (19) 
49.039686427245805

>  <Genealogy>  (19) 
CN(Cc1ccccc1)c1cc(C(=O)Nc2ccc(Br)cc2F)ncn1 (3D coordinates assigned)
CN(Cc1ccccc1)c1cc(C(=O)Nc2ccc(Br)cc2F)ncn1 (optimized conformer: 49.039686427245805 kcal/mol)

>  <smiles>  (19) 
CN(Cc1ccccc1)c1cc(C(=O)Nc2ccc(Br)cc2F)ncn1

>  <score_type>  (19) 
oracle

>  <origin>  (19) 
adgpu

>  <m_score__min__energy>  (19) 
-9.1199999999999992

>  <m_primary>  (19) 
energy

$$$$
19:0
     RDKit          3D

 49 51  0  0  0  0  0  0  0  0999 V2000
   -0.8290   23.6440  -26.0040 C   0  0  0  0  0  0  0  0  0  0  0  0
   -1.3430   22.9970  -27.2630 C   0  0  0  0  0  0  0  0  0  0  0  0
   -1.6240   21.6220  -27.2650 C   0  0  0  0  0  0  0  0  0  0  0  0
   -2.0970   20.9930  -28.4170 C   0  0  0  0  0  0  0  0  0  0  0  0
   -2.2960   21.7220  -29.5990 C   0  0  0  0  0  0  0  0  0  0  0  0
   -2.8020   21.0500  -30.8230 C   0  0  0  0  0  0  0  0  0  0  0  0
   -1.9690   20.5080  -31.8030 C   0  0  0  0  0  0  0  0  0  0  0  0
   -2.9290   19.8370  -33.0080 S   0  0  0  0  0  0  0  0  0  0  0  0
   -4.4100   20.2300  -32.3150 C   0  0  0  0  0  0  0  0  0  0  0  0
   -5.7360   19.9010  -32.8660 C   0  0  0  0  0  0  0  0  0  0  0  0
   -5.9220   19.9620  -34.1110 O   0  0  0  0  0  0  0  0  0  0  0  0
   -6.8150   19.5250  -31.9970 N   0  0  0  0  0  0  0  0  0  0  0  0
   -8.2050   19.4730  -32.4500 C   0  0  0  0  0  0  0  0  0  0  0  0
   -8.8860   20.8400  -32.3010 C   0  0  0  0  0  0  0  0  0  0  0  0
   -7.9560   21.8520  -31.6820 C   0  0  0  0  0  0  0  0  0  0  0  0
   -7.8380   21.9470  -30.2850 C   0  0  0  0  0  0  0  0  0  0  0  0
   -7.0120   22.9180  -29.7130 C   0  0  0  0  0  0  0  0  0  0  0  0
   -6.3030   23.8120  -30.5260 C   0  0  0  0  0  0  0  0  0  0  0  0
   -5.2550   25.0280  -29.8040 S   0  0  0  0  0  0  0  0  0  0  0  0
   -3.9100   25.3240  -30.8480 N   0  0  0  0  0  0  0  0  0  0  0  0
   -6.0210   26.3030  -29.5970 O   0  0  0  0  0  0  0  0  0  0  0  0
   -4.7550   24.5440  -28.4720 O   0  0  0  0  0  0  0  0  0  0  0  0
   -6.4180   23.7190  -31.9190 C   0  0  0  0  0  0  0  0  0  0  0  0
   -7.2460   22.7500  -32.4940 C   0  0  0  0  0  0  0  0  0  0  0  0
   -4.1710   20.8890  -31.1150 C   0  0  0  0  0  0  0  0  0  0  0  0
   -2.0110   23.1000  -29.6040 C   0  0  0  0  0  0  0  0  0  0  0  0
   -1.5280   23.7430  -28.4510 C   0  0  0  0  0  0  0  0  0  0  0  0
   -1.2440   25.2220  -28.4950 C   0  0  0  0  0  0  0  0  0  0  0  0
   -1.2432   23.1227  -25.1284 H   0  0  0  0  0  0  0  0  0  0  0  0
    0.2690   23.5823  -25.9820 H   0  0  0  0  0  0  0  0  0  0  0  0
   -1.1374   24.6996  -25.9820 H   0  0  0  0  0  0  0  0  0  0  0  0
   -1.4696   21.0338  -26.3484 H   0  0  0  0  0  0  0  0  0  0  0  0
   -2.3160   19.9152  -28.3983 H   0  0  0  0  0  0  0  0  0  0  0  0
   -0.8691   20.5183  -31.7889 H   0  0  0  0  0  0  0  0  0  0  0  0
   -6.6170   19.2890  -30.9990 H   0  0  0  0  0  0  0  0  0  0  0  0
   -8.2270   19.1741  -33.5084 H   0  0  0  0  0  0  0  0  0  0  0  0
   -8.7472   18.7432  -31.8308 H   0  0  0  0  0  0  0  0  0  0  0  0
   -9.1935   21.1971  -33.2949 H   0  0  0  0  0  0  0  0  0  0  0  0
   -9.7588   20.7225  -31.6418 H   0  0  0  0  0  0  0  0  0  0  0  0
   -8.3979   21.2544  -29.6394 H   0  0  0  0  0  0  0  0  0  0  0  0
   -6.9179   22.9808  -28.6188 H   0  0  0  0  0  0  0  0  0  0  0  0
   -3.0520   25.2930  -30.2550 H   0  0  0  0  0  0  0  0  0  0  0  0
   -5.8549   24.4107  -32.5628 H   0  0  0  0  0  0  0  0  0  0  0  0
   -7.3414   22.6912  -33.5883 H   0  0  0  0  0  0  0  0  0  0  0  0
   -4.9741   21.2505  -30.4559 H   0  0  0  0  0  0  0  0  0  0  0  0
   -2.1685   23.6826  -30.5237 H   0  0  0  0  0  0  0  0  0  0  0  0
   -1.1692   25.6117  -27.4691 H   0  0  0  0  0  0  0  0  0  0  0  0
   -0.2957   25.3977  -29.0240 H   0  0  0  0  0  0  0  0  0  0  0  0
   -2.0598   25.7364  -29.0240 H   0  0  0  0  0  0  0  0  0  0  0  0
  1  2  1  0
  2  3  2  0
  3  4  1  0
  4  5  2  0
  5  6  1  0
  6  7  2  0
  7  8  1  0
  8  9  1  0
  9 10  1  0
 10 11  2  0
 10 12  1  0
 12 13  1  0
 13 14  1  0
 14 15  1  0
 15 16  2  0
 16 17  1  0
 17 18  2  0
 18 19  1  0
 19 20  1  0
 19 21  2  0
 19 22  2  0
 18 23  1  0
 23 24  2  0
  9 25  2  0
  5 26  1  0
 26 27  2  0
 27 28  1  0
 27  2  1  0
 25  6  1  0
 24 15  1  0
  1 29  1  0
  1 30  1  0
  1 31  1  0
  3 32  1  0
  4 33  1  0
  7 34  1  0
 12 35  1  0
 13 36  1  0
 13 37  1  0
 14 38  1  0
 14 39  1  0
 16 40  1  0
 17 41  1  0
 20 42  1  0
 23 43  1  0
 24 44  1  0
 25 45  1  0
 26 46  1  0
 28 47  1  0
 28 48  1  0
 28 49  1  0
M  CHG  1  20  -1
M  END
>  <UniqueID>  (20) 
19

>  <SMILES>  (20) 
Cc1ccc(-c2csc(C(=O)NCCc3ccc(S([NH-])(=O)=O)cc3)c2)cc1C

>  <Energy>  (20) 
74.46269157709719

>  <Genealogy>  (20) 
Cc1ccc(-c2csc(C(=O)NCCc3ccc(S([NH-])(=O)=O)cc3)c2)cc1C (protonated)
Cc1ccc(-c2csc(C(=O)NCCc3ccc(S([NH-])(=O)=O)cc3)c2)cc1C (3D coordinates assigned)
Cc1ccc(-c2csc(C(=O)NCCc3ccc(S([NH-])(=O)=O)cc3)c2)cc1C (optimized conformer: 74.46269157709719 kcal/mol)

>  <smiles>  (20) 
Cc1ccc(-c2csc(C(=O)NCCc3ccc(S(N)(=O)=O)cc3)c2)cc1C

>  <score_type>  (20) 
oracle

>  <origin>  (20) 
adgpu

>  <m_score__min__energy>  (20) 
-11.68

>  <m_primary>  (20) 
energy

$$$$
20:0
     RDKit          3D

 48 50  0  0  0  0  0  0  0  0999 V2000
   -4.1720   14.9880  -32.3550 C   0  0  0  0  0  0  0  0  0  0  0  0
   -5.4910   16.1800  -32.3450 S   0  0  0  0  0  0  0  0  0  0  0  0
   -5.8010   16.6850  -30.7720 O   0  0  0  0  0  0  0  0  0  0  0  0
   -5.0830   17.5750  -33.3780 C   0  0  0  0  0  0  0  0  0  0  0  0
   -6.2870   17.9810  -34.2240 C   0  0  0  0  0  0  0  0  0  0  0  0
   -6.4120   19.4440  -34.2450 N   0  0  0  0  0  0  0  0  0  0  0  0
   -7.2370   19.9240  -33.1280 C   0  0  0  0  0  0  0  0  0  0  0  0
   -6.4100   20.7460  -32.1750 C   0  0  0  0  0  0  0  0  0  0  0  0
   -5.0510   20.4570  -31.9780 C   0  0  0  0  0  0  0  0  0  0  0  0
   -4.2810   21.2370  -31.1100 C   0  0  0  0  0  0  0  0  0  0  0  0
   -4.8570   22.3250  -30.4270 C   0  0  0  0  0  0  0  0  0  0  0  0
   -4.0390   23.1560  -29.5070 C   0  0  0  0  0  0  0  0  0  0  0  0
   -2.7540   23.5840  -29.8820 C   0  0  0  0  0  0  0  0  0  0  0  0
   -1.9840   24.3650  -29.0160 C   0  0  0  0  0  0  0  0  0  0  0  0
   -2.4830   24.7380  -27.7550 C   0  0  0  0  0  0  0  0  0  0  0  0
   -1.6640   25.5690  -26.8350 C   0  0  0  0  0  0  0  0  0  0  0  0
   -1.9670   25.6390  -25.4640 C   0  0  0  0  0  0  0  0  0  0  0  0
   -1.1890   26.4260  -24.6140 C   0  0  0  0  0  0  0  0  0  0  0  0
   -0.1090   27.1390  -25.1360 C   0  0  0  0  0  0  0  0  0  0  0  0
    0.1770   27.0630  -26.4620 N   0  0  0  0  0  0  0  0  0  0  0  0
   -0.5670   26.3070  -27.3140 C   0  0  0  0  0  0  0  0  0  0  0  0
   -3.7680   24.3120  -27.3820 C   0  0  0  0  0  0  0  0  0  0  0  0
   -4.5370   23.5280  -28.2470 C   0  0  0  0  0  0  0  0  0  0  0  0
   -6.2180   22.6130  -30.6320 C   0  0  0  0  0  0  0  0  0  0  0  0
   -6.9860   21.8310  -31.4990 C   0  0  0  0  0  0  0  0  0  0  0  0
   -3.8956   14.7383  -31.3200 H   0  0  0  0  0  0  0  0  0  0  0  0
   -4.5043   14.0778  -32.8756 H   0  0  0  0  0  0  0  0  0  0  0  0
   -3.2999   15.4105  -32.8756 H   0  0  0  0  0  0  0  0  0  0  0  0
   -5.7530   15.8600  -30.2260 H   0  0  0  0  0  0  0  0  0  0  0  0
   -4.7846   18.4217  -32.7423 H   0  0  0  0  0  0  0  0  0  0  0  0
   -4.2557   17.2941  -34.0464 H   0  0  0  0  0  0  0  0  0  0  0  0
   -6.1523   17.6116  -35.2513 H   0  0  0  0  0  0  0  0  0  0  0  0
   -7.1988   17.5456  -33.7891 H   0  0  0  0  0  0  0  0  0  0  0  0
   -6.9020   19.7080  -35.1320 H   0  0  0  0  0  0  0  0  0  0  0  0
   -8.0559   20.5431  -33.5230 H   0  0  0  0  0  0  0  0  0  0  0  0
   -7.6434   19.0561  -32.5880 H   0  0  0  0  0  0  0  0  0  0  0  0
   -4.5889   19.6120  -32.5095 H   0  0  0  0  0  0  0  0  0  0  0  0
   -3.2176   20.9989  -30.9597 H   0  0  0  0  0  0  0  0  0  0  0  0
   -2.3508   23.3018  -30.8658 H   0  0  0  0  0  0  0  0  0  0  0  0
   -0.9792   24.6908  -29.3231 H   0  0  0  0  0  0  0  0  0  0  0  0
   -2.8191   25.0723  -25.0605 H   0  0  0  0  0  0  0  0  0  0  0  0
   -1.4251   26.4839  -23.5412 H   0  0  0  0  0  0  0  0  0  0  0  0
    0.5104   27.7622  -24.4743 H   0  0  0  0  0  0  0  0  0  0  0  0
   -0.3092   26.2729  -28.3828 H   0  0  0  0  0  0  0  0  0  0  0  0
   -4.1732   24.5978  -26.4001 H   0  0  0  0  0  0  0  0  0  0  0  0
   -5.5405   23.1996  -27.9385 H   0  0  0  0  0  0  0  0  0  0  0  0
   -6.6818   23.4604  -30.1059 H   0  0  0  0  0  0  0  0  0  0  0  0
   -8.0492   22.0682  -31.6521 H   0  0  0  0  0  0  0  0  0  0  0  0
  1  2  1  0
  2  3  1  1
  2  4  1  0
  4  5  1  0
  5  6  1  0
  6  7  1  0
  7  8  1  0
  8  9  2  0
  9 10  1  0
 10 11  2  0
 11 12  1  0
 12 13  2  0
 13 14  1  0
 14 15  2  0
 15 16  1  0
 16 17  2  0
 17 18  1  0
 18 19  2  0
 19 20  1  0
 20 21  2  0
 15 22  1  0
 22 23  2  0
 11 24  1  0
 24 25  2  0
 25  8  1  0
 23 12  1  0
 21 16  1  0
  1 26  1  0
  1 27  1  0
  1 28  1  0
  3 29  1  0
  4 30  1  0
  4 31  1  0
  5 32  1  0
  5 33  1  0
  6 34  1  0
  7 35  1  0
  7 36  1  0
  9 37  1  0
 10 38  1  0
 13 39  1  0
 14 40  1  0
 17 41  1  0
 18 42  1  0
 19 43  1  0
 21 44  1  0
 22 45  1  0
 23 46  1  0
 24 47  1  0
 25 48  1  0
M  CHG  1   2   1
M  END
>  <UniqueID>  (21) 
20

>  <SMILES>  (21) 
C[S@@+](O)CCNCc1ccc(-c2ccc(-c3cccnc3)cc2)cc1

>  <Energy>  (21) 
51.25773276381348

>  <Genealogy>  (21) 
C[S+](O)CCNCc1ccc(-c2ccc(-c3cccnc3)cc2)cc1 (protonated)
C[S@@+](O)CCNCc1ccc(-c2ccc(-c3cccnc3)cc2)cc1 (chirality)
C[S@@+](O)CCNCc1ccc(-c2ccc(-c3cccnc3)cc2)cc1 (3D coordinates assigned)
C[S@@+](O)CCNCc1ccc(-c2ccc(-c3cccnc3)cc2)cc1 (optimized conformer: 51.25773276381348 kcal/mol)

>  <smiles>  (21) 
C[S+]([O-])CCNCc1ccc(-c2ccc(-c3cccnc3)cc2)cc1

>  <score_type>  (21) 
oracle

>  <origin>  (21) 
adgpu

>  <m_score__min__energy>  (21) 
-7.5999999999999996

>  <m_primary>  (21) 
energy

$$$$
21:0
     RDKit          3D

 42 44  0  0  0  0  0  0  0  0999 V2000
   -4.3380   21.6320  -32.4070 C   0  0  0  0  0  0  0  0  0  0  0  0
   -4.5880   22.8970  -31.6330 C   0  0  0  0  0  0  0  0  0  0  0  0
   -3.5580   23.4710  -30.8720 C   0  0  0  0  0  0  0  0  0  0  0  0
   -3.7860   24.6390  -30.1280 C   0  0  0  0  0  0  0  0  0  0  0  0
   -2.7510   25.2450  -29.3390 N   0  0  0  0  0  0  0  0  0  0  0  0
   -1.5840   24.5850  -28.8250 C   0  0  0  0  0  0  0  0  0  0  0  0
   -0.5530   25.2740  -28.6030 O   0  0  0  0  0  0  0  0  0  0  0  0
   -1.5760   23.1390  -28.5050 C   0  0  0  0  0  0  0  0  0  0  0  0
   -2.6010   22.5640  -27.7300 C   0  0  0  0  0  0  0  0  0  0  0  0
   -2.5830   21.1980  -27.4350 C   0  0  0  0  0  0  0  0  0  0  0  0
   -1.5370   20.3950  -27.8980 C   0  0  0  0  0  0  0  0  0  0  0  0
   -0.5050   20.9580  -28.6530 C   0  0  0  0  0  0  0  0  0  0  0  0
   -0.5200   22.3240  -28.9510 C   0  0  0  0  0  0  0  0  0  0  0  0
   -5.0370   25.2570  -30.1890 C   0  0  0  0  0  0  0  0  0  0  0  0
   -6.0670   24.6970  -30.9460 C   0  0  0  0  0  0  0  0  0  0  0  0
   -5.8570   23.5070  -31.6690 C   0  0  0  0  0  0  0  0  0  0  0  0
   -6.8740   22.9060  -32.4310 O   0  0  0  0  0  0  0  0  0  0  0  0
   -8.0370   22.2670  -31.9020 C   0  0  0  0  0  0  0  0  0  0  0  0
   -7.9520   20.7740  -32.0750 C   0  0  0  0  0  0  0  0  0  0  0  0
   -8.8220   19.9230  -31.3730 C   0  0  0  0  0  0  0  0  0  0  0  0
   -8.7400   18.5370  -31.5430 C   0  0  0  0  0  0  0  0  0  0  0  0
   -7.7970   17.9930  -32.4210 C   0  0  0  0  0  0  0  0  0  0  0  0
   -6.9370   18.8340  -33.1310 C   0  0  0  0  0  0  0  0  0  0  0  0
   -7.0160   20.2210  -32.9630 C   0  0  0  0  0  0  0  0  0  0  0  0
   -4.1736   20.8000  -31.7065 H   0  0  0  0  0  0  0  0  0  0  0  0
   -5.2099   21.4113  -33.0403 H   0  0  0  0  0  0  0  0  0  0  0  0
   -3.4477   21.7595  -33.0403 H   0  0  0  0  0  0  0  0  0  0  0  0
   -2.5634   23.0014  -30.8585 H   0  0  0  0  0  0  0  0  0  0  0  0
   -3.4210   23.1936  -27.3544 H   0  0  0  0  0  0  0  0  0  0  0  0
   -3.3931   20.7543  -26.8376 H   0  0  0  0  0  0  0  0  0  0  0  0
   -1.5262   19.3194  -27.6679 H   0  0  0  0  0  0  0  0  0  0  0  0
    0.3201   20.3260  -29.0133 H   0  0  0  0  0  0  0  0  0  0  0  0
    0.2995   22.7642  -29.5381 H   0  0  0  0  0  0  0  0  0  0  0  0
   -5.2117   26.1919  -29.6364 H   0  0  0  0  0  0  0  0  0  0  0  0
   -7.0504   25.1889  -30.9781 H   0  0  0  0  0  0  0  0  0  0  0  0
   -8.1216   22.5017  -30.8307 H   0  0  0  0  0  0  0  0  0  0  0  0
   -8.9196   22.6352  -32.4455 H   0  0  0  0  0  0  0  0  0  0  0  0
   -9.5700   20.3480  -30.6875 H   0  0  0  0  0  0  0  0  0  0  0  0
   -9.4180   17.8741  -30.9855 H   0  0  0  0  0  0  0  0  0  0  0  0
   -7.7326   16.9028  -32.5524 H   0  0  0  0  0  0  0  0  0  0  0  0
   -6.1969   18.4056  -33.8229 H   0  0  0  0  0  0  0  0  0  0  0  0
   -6.3419   20.8806  -33.5291 H   0  0  0  0  0  0  0  0  0  0  0  0
  1  2  1  0
  2  3  2  0
  3  4  1  0
  4  5  1  0
  5  6  1  0
  6  7  2  0
  6  8  1  0
  8  9  2  0
  9 10  1  0
 10 11  2  0
 11 12  1  0
 12 13  2  0
  4 14  2  0
 14 15  1  0
 15 16  2  0
 16 17  1  0
 17 18  1  0
 18 19  1  0
 19 20  2  0
 20 21  1  0
 21 22  2  0
 22 23  1  0
 23 24  2  0
 16  2  1  0
 24 19  1  0
 13  8  1  0
  1 25  1  0
  1 26  1  0
  1 27  1  0
  3 28  1  0
  9 29  1  0
 10 30  1  0
 11 31  1  0
 12 32  1  0
 13 33  1  0
 14 34  1  0
 15 35  1  0
 18 36  1  0
 18 37  1  0
 20 38  1  0
 21 39  1  0
 22 40  1  0
 23 41  1  0
 24 42  1  0
M  CHG  1   5  -1
M  END
>  <UniqueID>  (22) 
21

>  <SMILES>  (22) 
Cc1cc([N-]C(=O)c2ccccc2)ccc1OCc1ccccc1

>  <Energy>  (22) 
50.67397739697161

>  <Genealogy>  (22) 
Cc1cc([N-]C(=O)c2ccccc2)ccc1OCc1ccccc1 (protonated)
Cc1cc([N-]C(=O)c2ccccc2)ccc1OCc1ccccc1 (3D coordinates assigned)
Cc1cc([N-]C(=O)c2ccccc2)ccc1OCc1ccccc1 (optimized conformer: 50.67397739697161 kcal/mol)

>  <smiles>  (22) 
Cc1cc(NC(=O)c2ccccc2)ccc1OCc1ccccc1

>  <score_type>  (22) 
oracle

>  <origin>  (22) 
adgpu

>  <m_score__min__energy>  (22) 
-10.31

>  <m_primary>  (22) 
energy

$$$$
22:0
     RDKit          3D

 28 30  0  0  0  0  0  0  0  0999 V2000
   -6.4010   19.8980  -33.4910 O   0  0  0  0  0  0  0  0  0  0  0  0
   -6.7110   20.9410  -32.6270 C   0  0  0  0  0  0  0  0  0  0  0  0
   -8.0460   21.2310  -32.3330 C   0  0  0  0  0  0  0  0  0  0  0  0
   -8.3590   22.2780  -31.4630 C   0  0  0  0  0  0  0  0  0  0  0  0
   -7.3380   23.0390  -30.8850 C   0  0  0  0  0  0  0  0  0  0  0  0
   -5.9910   22.7570  -31.1730 C   0  0  0  0  0  0  0  0  0  0  0  0
   -4.9100   23.5600  -30.5630 C   0  0  0  0  0  0  0  0  0  0  0  0
   -4.5730   24.8000  -30.9690 N   0  0  0  0  0  0  0  0  0  0  0  0
   -3.5950   25.1540  -30.1930 O   0  0  0  0  0  0  0  0  0  0  0  0
   -3.3300   24.1900  -29.3430 C   0  0  0  0  0  0  0  0  0  0  0  0
   -2.2720   24.2460  -28.3090 C   0  0  0  0  0  0  0  0  0  0  0  0
   -2.2620   23.2980  -27.2690 C   0  0  0  0  0  0  0  0  0  0  0  0
   -1.2720   23.3350  -26.2830 C   0  0  0  0  0  0  0  0  0  0  0  0
   -0.2780   24.3200  -26.3200 C   0  0  0  0  0  0  0  0  0  0  0  0
    0.7130   24.3660  -25.3420 O   0  0  0  0  0  0  0  0  0  0  0  0
   -0.2790   25.2670  -27.3480 C   0  0  0  0  0  0  0  0  0  0  0  0
   -1.2660   25.2360  -28.3390 C   0  0  0  0  0  0  0  0  0  0  0  0
   -1.2350   26.1950  -29.3470 O   0  0  0  0  0  0  0  0  0  0  0  0
   -4.1460   23.1340  -29.5340 N   0  0  0  0  0  0  0  0  0  0  0  0
   -5.6860   21.6990  -32.0500 C   0  0  0  0  0  0  0  0  0  0  0  0
   -8.8509   20.6344  -32.7870 H   0  0  0  0  0  0  0  0  0  0  0  0
   -9.4104   22.5043  -31.2321 H   0  0  0  0  0  0  0  0  0  0  0  0
   -7.5902   23.8629  -30.2012 H   0  0  0  0  0  0  0  0  0  0  0  0
   -3.0400   22.5212  -27.2317 H   0  0  0  0  0  0  0  0  0  0  0  0
   -1.2740   22.5879  -25.4756 H   0  0  0  0  0  0  0  0  0  0  0  0
    0.4830   24.3880  -24.3560 H   0  0  0  0  0  0  0  0  0  0  0  0
    0.5013   26.0417  -27.3780 H   0  0  0  0  0  0  0  0  0  0  0  0
   -4.6363   21.4669  -32.2830 H   0  0  0  0  0  0  0  0  0  0  0  0
  1  2  1  0
  2  3  2  0
  3  4  1  0
  4  5  2  0
  5  6  1  0
  6  7  1  0
  7  8  2  0
  8  9  1  0
  9 10  1  0
 10 11  1  0
 11 12  2  0
 12 13  1  0
 13 14  2  0
 14 15  1  0
 14 16  1  0
 16 17  2  0
 17 18  1  0
 10 19  2  0
  6 20  2  0
 20  2  1  0
 19  7  1  0
 17 11  1  0
  3 21  1  0
  4 22  1  0
  5 23  1  0
 12 24  1  0
 13 25  1  0
 15 26  1  0
 16 27  1  0
 20 28  1  0
M  CHG  2   1  -1  18  -1
M  END
>  <UniqueID>  (23) 
22

>  <SMILES>  (23) 
[O-]c1cccc(-c2noc(-c3ccc(O)cc3[O-])n2)c1

>  <Energy>  (23) 
65.76461903537539

>  <Genealogy>  (23) 
[O-]c1cccc(-c2noc(-c3ccc(O)cc3[O-])n2)c1 (protonated)
[O-]c1cccc(-c2noc(-c3ccc(O)cc3[O-])n2)c1 (3D coordinates assigned)
[O-]c1cccc(-c2noc(-c3ccc(O)cc3[O-])n2)c1 (optimized conformer: 65.76461903537539 kcal/mol)

>  <smiles>  (23) 
Oc1cccc(-c2noc(-c3ccc(O)cc3O)n2)c1

>  <score_type>  (23) 
oracle

>  <origin>  (23) 
adgpu

>  <m_score__min__energy>  (23) 
-10.5

>  <m_primary>  (23) 
energy

$$$$
23:0
     RDKit          3D

 40 42  0  0  0  0  0  0  0  0999 V2000
   -1.2200   25.7390  -29.1090 N   0  0  0  0  0  0  0  0  0  0  0  0
   -1.4930   24.2160  -28.3380 S   0  0  0  0  0  0  0  0  0  0  0  0
   -2.5640   24.3610  -27.2930 O   0  0  0  0  0  0  0  0  0  0  0  0
   -0.2210   23.7680  -27.6730 O   0  0  0  0  0  0  0  0  0  0  0  0
   -2.0060   23.0340  -29.5470 C   0  0  0  0  0  0  0  0  0  0  0  0
   -1.4270   21.7560  -29.5630 C   0  0  0  0  0  0  0  0  0  0  0  0
   -1.8170   20.8160  -30.5190 C   0  0  0  0  0  0  0  0  0  0  0  0
   -2.7920   21.1430  -31.4640 C   0  0  0  0  0  0  0  0  0  0  0  0
   -3.3760   22.4120  -31.4570 C   0  0  0  0  0  0  0  0  0  0  0  0
   -2.9880   23.3700  -30.5020 C   0  0  0  0  0  0  0  0  0  0  0  0
   -3.5710   24.6810  -30.4760 N   0  0  0  0  0  0  0  0  0  0  0  0
   -5.1920   25.0570  -29.9920 S   0  0  0  0  0  0  0  0  0  0  0  0
   -5.5790   26.4190  -30.4980 O   0  0  0  0  0  0  0  0  0  0  0  0
   -5.2780   25.0250  -28.4910 O   0  0  0  0  0  0  0  0  0  0  0  0
   -6.2830   23.8580  -30.6760 C   0  0  0  0  0  0  0  0  0  0  0  0
   -7.0200   23.0050  -29.8410 C   0  0  0  0  0  0  0  0  0  0  0  0
   -7.8870   22.0570  -30.3930 C   0  0  0  0  0  0  0  0  0  0  0  0
   -8.0440   21.9690  -31.7870 C   0  0  0  0  0  0  0  0  0  0  0  0
   -8.9090   20.9920  -32.3850 N   0  0  0  0  0  0  0  0  0  0  0  0
   -8.6200   19.5990  -32.5500 C   0  0  0  0  0  0  0  0  0  0  0  0
   -9.5380   18.7590  -32.3480 O   0  0  0  0  0  0  0  0  0  0  0  0
   -7.2660   19.1230  -32.8870 C   0  0  0  0  0  0  0  0  0  0  0  0
   -6.5660   18.1400  -32.2150 C   0  0  0  0  0  0  0  0  0  0  0  0
   -5.3600   18.0300  -32.8710 C   0  0  0  0  0  0  0  0  0  0  0  0
   -5.3940   18.9550  -33.8950 C   0  0  0  0  0  0  0  0  0  0  0  0
   -6.5410   19.5920  -33.8760 O   0  0  0  0  0  0  0  0  0  0  0  0
   -7.2900   22.8070  -32.6180 C   0  0  0  0  0  0  0  0  0  0  0  0
   -6.4200   23.7550  -32.0660 C   0  0  0  0  0  0  0  0  0  0  0  0
   -1.5970   25.6610  -30.0800 H   0  0  0  0  0  0  0  0  0  0  0  0
   -0.6615   21.4931  -28.8181 H   0  0  0  0  0  0  0  0  0  0  0  0
   -1.3560   19.8173  -30.5278 H   0  0  0  0  0  0  0  0  0  0  0  0
   -3.1004   20.4004  -32.2147 H   0  0  0  0  0  0  0  0  0  0  0  0
   -4.1442   22.6641  -32.2029 H   0  0  0  0  0  0  0  0  0  0  0  0
   -6.9155   23.0822  -28.7487 H   0  0  0  0  0  0  0  0  0  0  0  0
   -8.4480   21.3779  -29.7342 H   0  0  0  0  0  0  0  0  0  0  0  0
   -6.9015   17.5653  -31.3392 H   0  0  0  0  0  0  0  0  0  0  0  0
   -4.5357   17.3433  -32.6279 H   0  0  0  0  0  0  0  0  0  0  0  0
   -4.5830   19.1313  -34.6170 H   0  0  0  0  0  0  0  0  0  0  0  0
   -7.3818   22.7199  -33.7107 H   0  0  0  0  0  0  0  0  0  0  0  0
   -5.8430   24.4201  -32.7253 H   0  0  0  0  0  0  0  0  0  0  0  0
  1  2  1  0
  2  3  2  0
  2  4  2  0
  2  5  1  0
  5  6  2  0
  6  7  1  0
  7  8  2  0
  8  9  1  0
  9 10  2  0
 10 11  1  0
 11 12  1  0
 12 13  2  0
 12 14  2  0
 12 15  1  0
 15 16  2  0
 16 17  1  0
 17 18  2  0
 18 19  1  0
 19 20  1  0
 20 21  2  0
 20 22  1  0
 22 23  2  0
 23 24  1  0
 24 25  2  0
 25 26  1  0
 18 27  1  0
 27 28  2  0
 10  5  1  0
 28 15  1  0
 26 22  1  0
  1 29  1  0
  6 30  1  0
  7 31  1  0
  8 32  1  0
  9 33  1  0
 16 34  1  0
 17 35  1  0
 23 36  1  0
 24 37  1  0
 25 38  1  0
 27 39  1  0
 28 40  1  0
M  CHG  3   1  -1  11  -1  19  -1
M  END
>  <UniqueID>  (24) 
23

>  <SMILES>  (24) 
[NH-]S(=O)(=O)c1ccccc1[N-]S(=O)(=O)c1ccc([N-]C(=O)c2ccco2)cc1

>  <Energy>  (24) 
77.39802677282685

>  <Genealogy>  (24) 
[NH-]S(=O)(=O)c1ccccc1[N-]S(=O)(=O)c1ccc([N-]C(=O)c2ccco2)cc1 (protonated)
[NH-]S(=O)(=O)c1ccccc1[N-]S(=O)(=O)c1ccc([N-]C(=O)c2ccco2)cc1 (3D coordinates assigned)
[NH-]S(=O)(=O)c1ccccc1[N-]S(=O)(=O)c1ccc([N-]C(=O)c2ccco2)cc1 (optimized conformer: 77.39802677282685 kcal/mol)

>  <smiles>  (24) 
NS(=O)(=O)c1ccccc1NS(=O)(=O)c1ccc(NC(=O)c2ccco2)cc1

>  <score_type>  (24) 
oracle

>  <origin>  (24) 
adgpu

>  <m_score__min__energy>  (24) 
-12.57

>  <m_primary>  (24) 
energy

$$$$
24:0
     RDKit          3D

 52 54  0  0  0  0  0  0  0  0999 V2000
   -7.0570   20.6470  -32.6520 C   0  0  0  0  0  0  0  0  0  0  0  0
   -5.5490   20.4130  -32.8030 C   0  0  0  0  0  0  0  0  0  0  0  0
   -4.6910   21.5500  -32.1620 C   0  0  2  0  0  0  0  0  0  0  0  0
   -5.0510   22.9100  -32.6380 N   0  0  0  0  0  0  0  0  0  0  0  0
   -5.5810   23.7560  -31.6050 C   0  0  0  0  0  0  0  0  0  0  0  0
   -5.0540   24.6220  -30.6610 C   0  0  0  0  0  0  0  0  0  0  0  0
   -3.7330   25.0110  -30.2790 N   0  0  0  0  0  0  0  0  0  0  0  0
   -3.0200   24.4110  -29.1960 C   0  0  0  0  0  0  0  0  0  0  0  0
   -3.5330   23.2370  -28.5950 C   0  0  0  0  0  0  0  0  0  0  0  0
   -2.8290   22.5970  -27.5770 C   0  0  0  0  0  0  0  0  0  0  0  0
   -1.5950   23.0970  -27.1440 C   0  0  0  0  0  0  0  0  0  0  0  0
   -1.0590   24.2540  -27.7280 C   0  0  0  0  0  0  0  0  0  0  0  0
    0.2750   24.7420  -27.3150 C   0  0  0  0  0  0  0  0  0  0  0  0
    1.2460   24.5780  -28.1050 O   0  0  0  0  0  0  0  0  0  0  0  0
    0.4810   25.4230  -26.0580 N   0  0  0  0  0  0  0  0  0  0  0  0
   -0.6600   25.9250  -25.2880 C   0  0  0  0  0  0  0  0  0  0  0  0
    1.8540   25.7100  -25.6190 C   0  0  0  0  0  0  0  0  0  0  0  0
   -1.7740   24.9150  -28.7540 C   0  0  0  0  0  0  0  0  0  0  0  0
   -1.2410   26.0770  -29.3310 O   0  0  0  0  0  0  0  0  0  0  0  0
   -6.3340   24.9300  -30.2340 C   0  0  0  0  0  0  0  0  0  0  0  0
   -6.8250   25.6730  -29.3460 O   0  0  0  0  0  0  0  0  0  0  0  0
   -6.8580   24.0730  -31.1770 C   0  0  0  0  0  0  0  0  0  0  0  0
   -8.0210   23.7230  -31.5110 O   0  0  0  0  0  0  0  0  0  0  0  0
   -3.1800   21.3060  -32.2840 C   0  0  0  0  0  0  0  0  0  0  0  0
   -2.5770   20.8150  -33.4550 C   0  0  0  0  0  0  0  0  0  0  0  0
   -1.1840   20.6760  -33.5350 C   0  0  0  0  0  0  0  0  0  0  0  0
   -0.3830   21.0240  -32.4360 C   0  0  0  0  0  0  0  0  0  0  0  0
   -0.9680   21.4970  -31.2630 C   0  0  0  0  0  0  0  0  0  0  0  0
   -2.3580   21.6520  -31.1820 C   0  0  0  0  0  0  0  0  0  0  0  0
   -7.3167   20.6873  -31.5838 H   0  0  0  0  0  0  0  0  0  0  0  0
   -7.3303   21.5983  -33.1319 H   0  0  0  0  0  0  0  0  0  0  0  0
   -7.6057   19.8233  -33.1319 H   0  0  0  0  0  0  0  0  0  0  0  0
   -5.2909   19.4612  -32.3158 H   0  0  0  0  0  0  0  0  0  0  0  0
   -5.3235   20.3958  -33.8795 H   0  0  0  0  0  0  0  0  0  0  0  0
   -4.9450   21.5119  -31.0924 H   0  0  0  0  0  0  0  0  0  0  0  0
   -4.2000   23.3750  -33.0380 H   0  0  0  0  0  0  0  0  0  0  0  0
   -5.7580   22.8390  -33.4110 H   0  0  0  0  0  0  0  0  0  0  0  0
   -3.2200   25.6790  -30.9100 H   0  0  0  0  0  0  0  0  0  0  0  0
   -4.4954   22.8263  -28.9343 H   0  0  0  0  0  0  0  0  0  0  0  0
   -3.2458   21.6924  -27.1102 H   0  0  0  0  0  0  0  0  0  0  0  0
   -1.0444   22.5810  -26.3436 H   0  0  0  0  0  0  0  0  0  0  0  0
   -0.4467   25.8311  -24.2130 H   0  0  0  0  0  0  0  0  0  0  0  0
   -0.8333   26.9825  -25.5365 H   0  0  0  0  0  0  0  0  0  0  0  0
   -1.5567   25.3383  -25.5365 H   0  0  0  0  0  0  0  0  0  0  0  0
    1.8933   25.7182  -24.5197 H   0  0  0  0  0  0  0  0  0  0  0  0
    2.5319   24.9341  -26.0044 H   0  0  0  0  0  0  0  0  0  0  0  0
    2.1644   26.6924  -26.0044 H   0  0  0  0  0  0  0  0  0  0  0  0
   -3.2031   20.5375  -34.3158 H   0  0  0  0  0  0  0  0  0  0  0  0
   -0.7200   20.2952  -34.4568 H   0  0  0  0  0  0  0  0  0  0  0  0
    0.7104   20.9230  -32.5010 H   0  0  0  0  0  0  0  0  0  0  0  0
   -0.3367   21.7494  -30.3983 H   0  0  0  0  0  0  0  0  0  0  0  0
   -2.8131   22.0435  -30.2603 H   0  0  0  0  0  0  0  0  0  0  0  0
  1  2  1  0
  2  3  1  0
  3  4  1  0
  4  5  1  0
  5  6  2  0
  6  7  1  0
  7  8  1  0
  8  9  2  0
  9 10  1  0
 10 11  2  0
 11 12  1  0
 12 13  1  0
 13 14  2  0
 13 15  1  0
 15 16  1  0
 15 17  1  0
 12 18  2  0
 18 19  1  0
  6 20  1  0
 20 21  2  0
 20 22  1  0
 22 23  2  0
  3 24  1  0
 24 25  2  0
 25 26  1  0
 26 27  2  0
 27 28  1  0
 28 29  2  0
 22  5  1  0
 29 24  1  0
 18  8  1  0
  1 30  1  0
  1 31  1  0
  1 32  1  0
  2 33  1  0
  2 34  1  0
  3 35  1  1
  4 36  1  0
  4 37  1  0
  7 38  1  0
  9 39  1  0
 10 40  1  0
 11 41  1  0
 16 42  1  0
 16 43  1  0
 16 44  1  0
 17 45  1  0
 17 46  1  0
 17 47  1  0
 25 48  1  0
 26 49  1  0
 27 50  1  0
 28 51  1  0
 29 52  1  0
M  CHG  2   4   1  19  -1
M  END
>  <UniqueID>  (25) 
24

>  <SMILES>  (25) 
CC[C@H]([NH2+]c1c(Nc2cccc(C(=O)N(C)C)c2[O-])c(=O)c1=O)c1ccccc1

>  <Energy>  (25) 
53.390570901864805

>  <Genealogy>  (25) 
CCC([NH2+]c1c(Nc2cccc(C(=O)N(C)C)c2[O-])c(=O)c1=O)c1ccccc1 (protonated)
CC[C@H]([NH2+]c1c(Nc2cccc(C(=O)N(C)C)c2[O-])c(=O)c1=O)c1ccccc1 (chirality)
CC[C@H]([NH2+]c1c(Nc2cccc(C(=O)N(C)C)c2[O-])c(=O)c1=O)c1ccccc1 (3D coordinates assigned)
CC[C@H]([NH2+]c1c(Nc2cccc(C(=O)N(C)C)c2[O-])c(=O)c1=O)c1ccccc1 (optimized conformer: 53.390570901864805 kcal/mol)

>  <smiles>  (25) 
CCC(Nc1c(Nc2cccc(C(=O)N(C)C)c2O)c(=O)c1=O)c1ccccc1

>  <score_type>  (25) 
oracle

>  <origin>  (25) 
adgpu

>  <m_score__min__energy>  (25) 
-12.199999999999999

>  <m_primary>  (25) 
energy

$$$$
25:0
     RDKit          3D

 41 43  0  0  0  0  0  0  0  0999 V2000
   -6.3370   18.1710  -33.5030 C   0  0  0  0  0  0  0  0  0  0  0  0
   -7.2460   18.8860  -32.5470 C   0  0  0  0  0  0  0  0  0  0  0  0
   -8.1550   18.2230  -31.9770 O   0  0  0  0  0  0  0  0  0  0  0  0
   -7.1030   20.3410  -32.2650 C   0  0  0  0  0  0  0  0  0  0  0  0
   -8.2230   21.1930  -32.2330 C   0  0  0  0  0  0  0  0  0  0  0  0
   -8.0700   22.5540  -31.9640 C   0  0  0  0  0  0  0  0  0  0  0  0
   -6.8000   23.0890  -31.7140 C   0  0  0  0  0  0  0  0  0  0  0  0
   -6.6540   24.4480  -31.4410 O   0  0  0  0  0  0  0  0  0  0  0  0
   -5.6730   22.2580  -31.7340 C   0  0  0  0  0  0  0  0  0  0  0  0
   -4.3860   22.8320  -31.4590 N   0  0  0  0  0  0  0  0  0  0  0  0
   -4.0350   23.9310  -30.1640 S   0  0  0  0  0  0  0  0  0  0  0  0
   -3.8560   25.3150  -30.7230 O   0  0  0  0  0  0  0  0  0  0  0  0
   -5.1880   23.9460  -29.2020 O   0  0  0  0  0  0  0  0  0  0  0  0
   -2.5850   23.3970  -29.3080 C   0  0  0  0  0  0  0  0  0  0  0  0
   -2.4440   22.0530  -28.9300 C   0  0  0  0  0  0  0  0  0  0  0  0
   -1.3110   21.6250  -28.2130 C   0  0  0  0  0  0  0  0  0  0  0  0
   -1.1560   20.2180  -27.7830 C   0  0  0  0  0  0  0  0  0  0  0  0
   -0.1430   19.3380  -28.1250 C   0  0  0  0  0  0  0  0  0  0  0  0
   -0.4910   18.1760  -27.4700 C   0  0  0  0  0  0  0  0  0  0  0  0
    0.3050   16.9150  -27.4480 C   0  0  0  0  0  0  0  0  0  0  0  0
   -1.6250   18.3660  -26.7710 N   0  0  0  0  0  0  0  0  0  0  0  0
   -1.9970   19.5940  -26.9880 O   0  0  0  0  0  0  0  0  0  0  0  0
   -0.3140   22.5620  -27.8930 C   0  0  0  0  0  0  0  0  0  0  0  0
   -0.4500   23.8990  -28.2740 C   0  0  0  0  0  0  0  0  0  0  0  0
   -1.5820   24.3200  -28.9750 C   0  0  0  0  0  0  0  0  0  0  0  0
   -1.7020   25.6580  -29.3350 O   0  0  0  0  0  0  0  0  0  0  0  0
   -5.8290   20.8880  -32.0190 C   0  0  0  0  0  0  0  0  0  0  0  0
   -5.5955   17.5878  -32.9373 H   0  0  0  0  0  0  0  0  0  0  0  0
   -6.9298   17.4946  -34.1363 H   0  0  0  0  0  0  0  0  0  0  0  0
   -5.8193   18.9065  -34.1363 H   0  0  0  0  0  0  0  0  0  0  0  0
   -9.2263   20.7832  -32.4214 H   0  0  0  0  0  0  0  0  0  0  0  0
   -8.9524   23.2106  -31.9482 H   0  0  0  0  0  0  0  0  0  0  0  0
   -5.7810   24.8290  -31.0970 H   0  0  0  0  0  0  0  0  0  0  0  0
   -3.2263   21.3271  -29.1966 H   0  0  0  0  0  0  0  0  0  0  0  0
    0.7313   19.5223  -28.7666 H   0  0  0  0  0  0  0  0  0  0  0  0
    0.4925   16.6179  -26.4056 H   0  0  0  0  0  0  0  0  0  0  0  0
   -0.2547   16.1191  -27.9611 H   0  0  0  0  0  0  0  0  0  0  0  0
    1.2643   17.0779  -27.9611 H   0  0  0  0  0  0  0  0  0  0  0  0
    0.5799   22.2404  -27.3385 H   0  0  0  0  0  0  0  0  0  0  0  0
    0.3381   24.6234  -28.0207 H   0  0  0  0  0  0  0  0  0  0  0  0
   -4.9435   20.2361  -32.0499 H   0  0  0  0  0  0  0  0  0  0  0  0
  1  2  1  0
  2  3  2  0
  2  4  1  0
  4  5  2  0
  5  6  1  0
  6  7  2  0
  7  8  1  0
  7  9  1  0
  9 10  1  0
 10 11  1  0
 11 12  2  0
 11 13  2  0
 11 14  1  0
 14 15  2  0
 15 16  1  0
 16 17  1  0
 17 18  2  0
 18 19  1  0
 19 20  1  0
 19 21  2  0
 21 22  1  0
 16 23  2  0
 23 24  1  0
 24 25  2  0
 25 26  1  0
  9 27  2  0
 27  4  1  0
 25 14  1  0
 22 17  1  0
  1 28  1  0
  1 29  1  0
  1 30  1  0
  5 31  1  0
  6 32  1  0
  8 33  1  0
 15 34  1  0
 18 35  1  0
 20 36  1  0
 20 37  1  0
 20 38  1  0
 23 39  1  0
 24 40  1  0
 27 41  1  0
M  CHG  2  10  -1  26  -1
M  END
>  <UniqueID>  (26) 
25

>  <SMILES>  (26) 
CC(=O)c1ccc(O)c([N-]S(=O)(=O)c2cc(-c3cc(C)no3)ccc2[O-])c1

>  <Energy>  (26) 
76.84942606263385

>  <Genealogy>  (26) 
CC(=O)c1ccc(O)c([N-]S(=O)(=O)c2cc(-c3cc(C)no3)ccc2[O-])c1 (protonated)
CC(=O)c1ccc(O)c([N-]S(=O)(=O)c2cc(-c3cc(C)no3)ccc2[O-])c1 (3D coordinates assigned)
CC(=O)c1ccc(O)c([N-]S(=O)(=O)c2cc(-c3cc(C)no3)ccc2[O-])c1 (optimized conformer: 76.84942606263385 kcal/mol)

>  <smiles>  (26) 
CC(=O)c1ccc(O)c(NS(=O)(=O)c2cc(-c3cc(C)no3)ccc2O)c1

>  <score_type>  (26) 
oracle

>  <origin>  (26) 
adgpu

>  <m_score__min__energy>  (26) 
-13.33

>  <m_primary>  (26) 
energy

$$$$
26:0
     RDKit          3D

 51 53  0  0  0  0  0  0  0  0999 V2000
    1.0930   26.4760  -24.3670 C   0  0  0  0  0  0  0  0  0  0  0  0
    0.9450   26.3330  -25.7760 O   0  0  0  0  0  0  0  0  0  0  0  0
   -0.1750   25.7630  -26.4010 C   0  0  0  0  0  0  0  0  0  0  0  0
   -1.4150   25.8600  -25.7610 C   0  0  0  0  0  0  0  0  0  0  0  0
   -2.5620   25.3110  -26.3450 C   0  0  0  0  0  0  0  0  0  0  0  0
   -2.4850   24.6670  -27.5910 C   0  0  0  0  0  0  0  0  0  0  0  0
   -3.6420   24.0700  -28.2010 N   0  0  0  0  0  0  0  0  0  0  0  0
   -4.0180   24.2740  -29.5770 C   0  0  0  0  0  0  0  0  0  0  0  0
   -3.2660   24.9380  -30.3420 O   0  0  0  0  0  0  0  0  0  0  0  0
   -5.2740   23.7080  -30.1230 C   0  0  0  0  0  0  0  0  0  0  0  0
   -5.6710   24.0300  -31.4330 C   0  0  0  0  0  0  0  0  0  0  0  0
   -6.8470   23.5000  -31.9700 C   0  0  0  0  0  0  0  0  0  0  0  0
   -7.6350   22.6210  -31.2170 C   0  0  0  0  0  0  0  0  0  0  0  0
   -9.1120   21.9410  -31.9020 S   0  0  0  0  0  0  0  0  0  0  0  0
   -9.8100   22.9960  -32.7150 O   0  0  0  0  0  0  0  0  0  0  0  0
  -10.0300   21.5460  -30.7780 O   0  0  0  0  0  0  0  0  0  0  0  0
   -8.8040   20.5450  -32.9130 N   0  0  0  0  0  0  0  0  0  0  0  0
   -7.3960   20.4420  -33.3470 C   0  0  0  0  0  0  0  0  0  0  0  0
   -6.4740   19.7260  -32.3400 C   0  0  0  0  0  0  0  0  0  0  0  0
   -7.1760   18.6160  -31.5290 C   0  0  0  0  0  0  0  0  0  0  0  0
   -6.2260   17.4440  -31.2520 C   0  0  0  0  0  0  0  0  0  0  0  0
   -8.4400   18.1340  -32.2430 C   0  0  0  0  0  0  0  0  0  0  0  0
   -9.4260   19.3010  -32.3980 C   0  0  0  0  0  0  0  0  0  0  0  0
   -7.2490   22.3000  -29.9100 C   0  0  0  0  0  0  0  0  0  0  0  0
   -6.0740   22.8310  -29.3680 C   0  0  0  0  0  0  0  0  0  0  0  0
   -1.2370   24.5480  -28.2210 C   0  0  0  0  0  0  0  0  0  0  0  0
   -0.0910   25.0980  -27.6390 C   0  0  0  0  0  0  0  0  0  0  0  0
    0.3931   25.7998  -23.8543 H   0  0  0  0  0  0  0  0  0  0  0  0
    2.1242   26.2235  -24.0791 H   0  0  0  0  0  0  0  0  0  0  0  0
    0.8760   27.5153  -24.0791 H   0  0  0  0  0  0  0  0  0  0  0  0
   -1.4891   26.3722  -24.7904 H   0  0  0  0  0  0  0  0  0  0  0  0
   -3.5289   25.3841  -25.8257 H   0  0  0  0  0  0  0  0  0  0  0  0
   -4.1990   23.4150  -27.6110 H   0  0  0  0  0  0  0  0  0  0  0  0
   -5.0502   24.7051  -32.0404 H   0  0  0  0  0  0  0  0  0  0  0  0
   -7.1554   23.7747  -32.9895 H   0  0  0  0  0  0  0  0  0  0  0  0
   -7.3675   19.8864  -34.2960 H   0  0  0  0  0  0  0  0  0  0  0  0
   -7.0194   21.4710  -33.4435 H   0  0  0  0  0  0  0  0  0  0  0  0
   -5.6392   19.2738  -32.8956 H   0  0  0  0  0  0  0  0  0  0  0  0
   -6.1387   20.4854  -31.6182 H   0  0  0  0  0  0  0  0  0  0  0  0
   -7.4717   19.0457  -30.5605 H   0  0  0  0  0  0  0  0  0  0  0  0
   -6.1168   17.3093  -30.1657 H   0  0  0  0  0  0  0  0  0  0  0  0
   -6.6377   16.5255  -31.6958 H   0  0  0  0  0  0  0  0  0  0  0  0
   -5.2422   17.6567  -31.6958 H   0  0  0  0  0  0  0  0  0  0  0  0
   -8.1728   17.7470  -33.2374 H   0  0  0  0  0  0  0  0  0  0  0  0
   -8.9110   17.3365  -31.6496 H   0  0  0  0  0  0  0  0  0  0  0  0
  -10.2189   18.9948  -33.0962 H   0  0  0  0  0  0  0  0  0  0  0  0
   -9.8141   19.5283  -31.3942 H   0  0  0  0  0  0  0  0  0  0  0  0
   -7.8738   21.6259  -29.3056 H   0  0  0  0  0  0  0  0  0  0  0  0
   -5.7735   22.5611  -28.3448 H   0  0  0  0  0  0  0  0  0  0  0  0
   -1.1596   24.0172  -29.1814 H   0  0  0  0  0  0  0  0  0  0  0  0
    0.8792   25.0109  -28.1499 H   0  0  0  0  0  0  0  0  0  0  0  0
  1  2  1  0
  2  3  1  0
  3  4  2  0
  4  5  1  0
  5  6  2  0
  6  7  1  0
  7  8  1  0
  8  9  2  0
  8 10  1  0
 10 11  2  0
 11 12  1  0
 12 13  2  0
 13 14  1  0
 14 15  2  0
 14 16  2  0
 14 17  1  0
 17 18  1  0
 18 19  1  0
 19 20  1  0
 20 21  1  0
 20 22  1  0
 22 23  1  0
 13 24  1  0
 24 25  2  0
  6 26  1  0
 26 27  2  0
 27  3  1  0
 25 10  1  0
 23 17  1  0
  1 28  1  0
  1 29  1  0
  1 30  1  0
  4 31  1  0
  5 32  1  0
  7 33  1  0
 11 34  1  0
 12 35  1  0
 18 36  1  0
 18 37  1  0
 19 38  1  0
 19 39  1  0
 20 40  1  0
 21 41  1  0
 21 42  1  0
 21 43  1  0
 22 44  1  0
 22 45  1  0
 23 46  1  0
 23 47  1  0
 24 48  1  0
 25 49  1  0
 26 50  1  0
 27 51  1  0
M  END
>  <UniqueID>  (27) 
26

>  <SMILES>  (27) 
COc1ccc(NC(=O)c2ccc(S(=O)(=O)N3CCC(C)CC3)cc2)cc1

>  <Energy>  (27) 
64.40313811142246

>  <Genealogy>  (27) 
COc1ccc(NC(=O)c2ccc(S(=O)(=O)N3CCC(C)CC3)cc2)cc1 (3D coordinates assigned)
COc1ccc(NC(=O)c2ccc(S(=O)(=O)N3CCC(C)CC3)cc2)cc1 (nonaromatic ring conformer: 64.40313811142246 kcal/mol)

>  <smiles>  (27) 
COc1ccc(NC(=O)c2ccc(S(=O)(=O)N3CCC(C)CC3)cc2)cc1

>  <score_type>  (27) 
oracle

>  <origin>  (27) 
adgpu

>  <m_score__min__energy>  (27) 
-9.3100000000000005

>  <m_primary>  (27) 
energy

$$$$
27:0
     RDKit          3D

 45 47  0  0  0  0  0  0  0  0999 V2000
   -9.5130   20.3880  -32.3550 C   0  0  0  0  0  0  0  0  0  0  0  0
   -9.0690   21.8000  -31.9770 C   0  0  0  0  0  0  0  0  0  0  0  0
   -8.1660   21.8210  -30.7340 C   0  0  0  0  0  0  0  0  0  0  0  0
   -6.7900   22.2150  -31.0730 N   0  0  0  0  0  0  0  0  0  0  0  0
   -5.8650   21.4660  -31.7260 C   0  0  0  0  0  0  0  0  0  0  0  0
   -6.1130   20.1580  -32.3640 C   0  0  0  0  0  0  0  0  0  0  0  0
   -6.5530   19.0720  -31.5890 C   0  0  0  0  0  0  0  0  0  0  0  0
   -6.7740   17.8270  -32.1850 C   0  0  0  0  0  0  0  0  0  0  0  0
   -6.5440   17.6540  -33.5520 C   0  0  0  0  0  0  0  0  0  0  0  0
   -6.0840   18.7250  -34.3250 C   0  0  0  0  0  0  0  0  0  0  0  0
   -5.8640   19.9720  -33.7320 C   0  0  0  0  0  0  0  0  0  0  0  0
   -4.6250   22.0700  -31.6650 C   0  0  0  0  0  0  0  0  0  0  0  0
   -4.7910   23.2330  -30.9430 C   0  0  0  0  0  0  0  0  0  0  0  0
   -3.6950   24.1340  -30.5400 C   0  0  0  0  0  0  0  0  0  0  0  0
   -3.8870   25.3780  -30.5610 O   0  0  0  0  0  0  0  0  0  0  0  0
   -2.4150   23.6370  -30.1240 N   0  0  0  0  0  0  0  0  0  0  0  0
   -1.8990   23.6590  -28.7830 C   0  0  0  0  0  0  0  0  0  0  0  0
   -1.7580   22.4820  -28.0190 C   0  0  0  0  0  0  0  0  0  0  0  0
   -2.0270   21.2650  -28.5520 F   0  0  0  0  0  0  0  0  0  0  0  0
   -1.2880   22.5550  -26.7040 C   0  0  0  0  0  0  0  0  0  0  0  0
   -0.9310   23.7870  -26.1520 C   0  0  0  0  0  0  0  0  0  0  0  0
   -1.0290   24.9510  -26.9190 C   0  0  0  0  0  0  0  0  0  0  0  0
   -1.5020   24.8870  -28.2330 C   0  0  0  0  0  0  0  0  0  0  0  0
   -1.6060   26.0260  -28.9620 F   0  0  0  0  0  0  0  0  0  0  0  0
   -6.1400   23.3140  -30.6150 C   0  0  0  0  0  0  0  0  0  0  0  0
   -6.8010   24.4460  -29.8770 C   0  0  0  0  0  0  0  0  0  0  0  0
   -9.6965   19.8043  -31.4409 H   0  0  0  0  0  0  0  0  0  0  0  0
  -10.4379   20.4409  -32.9481 H   0  0  0  0  0  0  0  0  0  0  0  0
   -8.7243   19.9021  -32.9481 H   0  0  0  0  0  0  0  0  0  0  0  0
   -8.5150   22.2336  -32.8226 H   0  0  0  0  0  0  0  0  0  0  0  0
   -9.9723   22.3826  -31.7432 H   0  0  0  0  0  0  0  0  0  0  0  0
   -8.5746   22.5390  -30.0077 H   0  0  0  0  0  0  0  0  0  0  0  0
   -8.1396   20.8064  -30.3099 H   0  0  0  0  0  0  0  0  0  0  0  0
   -6.7241   19.2017  -30.5102 H   0  0  0  0  0  0  0  0  0  0  0  0
   -7.1295   16.9823  -31.5767 H   0  0  0  0  0  0  0  0  0  0  0  0
   -6.7247   16.6753  -34.0205 H   0  0  0  0  0  0  0  0  0  0  0  0
   -5.8952   18.5863  -35.3998 H   0  0  0  0  0  0  0  0  0  0  0  0
   -5.4942   20.8104  -34.3405 H   0  0  0  0  0  0  0  0  0  0  0  0
   -3.6888   21.6969  -32.1057 H   0  0  0  0  0  0  0  0  0  0  0  0
   -1.1992   21.6385  -26.1022 H   0  0  0  0  0  0  0  0  0  0  0  0
   -0.5726   23.8412  -25.1134 H   0  0  0  0  0  0  0  0  0  0  0  0
   -0.7335   25.9191  -26.4882 H   0  0  0  0  0  0  0  0  0  0  0  0
   -6.7056   24.2825  -28.7934 H   0  0  0  0  0  0  0  0  0  0  0  0
   -6.3148   25.3945  -30.1490 H   0  0  0  0  0  0  0  0  0  0  0  0
   -7.8660   24.4887  -30.1490 H   0  0  0  0  0  0  0  0  0  0  0  0
  1  2  1  0
  2  3  1  0
  3  4  1  0
  4  5  1  0
  5  6  1  0
  6  7  2  0
  7  8  1  0
  8  9  2  0
  9 10  1  0
 10 11  2  0
  5 12  2  0
 12 13  1  0
 13 14  1  0
 14 15  2  0
 14 16  1  0
 16 17  1  0
 17 18  2  0
 18 19  1  0
 18 20  1  0
 20 21  2  0
 21 22  1  0
 22 23  2  0
 23 24  1  0
 13 25  2  0
 25 26  1  0
 25  4  1  0
 11  6  1  0
 23 17  1  0
  1 27  1  0
  1 28  1  0
  1 29  1  0
  2 30  1  0
  2 31  1  0
  3 32  1  0
  3 33  1  0
  7 34  1  0
  8 35  1  0
  9 36  1  0
 10 37  1  0
 11 38  1  0
 12 39  1  0
 20 40  1  0
 21 41  1  0
 22 42  1  0
 26 43  1  0
 26 44  1  0
 26 45  1  0
M  CHG  1  16  -1
M  END
>  <UniqueID>  (28) 
27

>  <SMILES>  (28) 
CCCn1c(-c2ccccc2)cc(C(=O)[N-]c2c(F)cccc2F)c1C

>  <Energy>  (28) 
81.07906517370112

>  <Genealogy>  (28) 
CCCn1c(-c2ccccc2)cc(C(=O)[N-]c2c(F)cccc2F)c1C (protonated)
CCCn1c(-c2ccccc2)cc(C(=O)[N-]c2c(F)cccc2F)c1C (3D coordinates assigned)
CCCn1c(-c2ccccc2)cc(C(=O)[N-]c2c(F)cccc2F)c1C (optimized conformer: 81.07906517370112 kcal/mol)

>  <smiles>  (28) 
CCCn1c(-c2ccccc2)cc(C(=O)Nc2c(F)cccc2F)c1C

>  <score_type>  (28) 
oracle

>  <origin>  (28) 
adgpu

>  <m_score__min__energy>  (28) 
-10.34

>  <m_primary>  (28) 
energy

$$$$
28:0
     RDKit          3D

 35 37  0  0  0  0  0  0  0  0999 V2000
   -1.2920   24.7050  -28.2460 C   0  0  0  0  0  0  0  0  0  0  0  0
   -2.1800   24.1550  -29.3160 C   0  0  0  0  0  0  0  0  0  0  0  0
   -1.7960   23.0270  -30.0490 C   0  0  0  0  0  0  0  0  0  0  0  0
   -2.6760   22.5250  -31.0140 C   0  0  0  0  0  0  0  0  0  0  0  0
   -2.3160   21.3090  -31.8070 C   0  0  0  0  0  0  0  0  0  0  0  0
   -3.8870   23.1170  -31.1950 N   0  0  0  0  0  0  0  0  0  0  0  0
   -4.2480   24.2060  -30.4670 C   0  0  0  0  0  0  0  0  0  0  0  0
   -5.8700   24.9340  -30.6830 S   0  0  0  0  0  0  0  0  0  0  0  0
   -6.1660   24.1710  -32.3180 C   0  0  0  0  0  0  0  0  0  0  0  0
   -6.9120   22.8760  -32.1780 C   0  0  0  0  0  0  0  0  0  0  0  0
   -8.1570   22.8320  -31.5500 C   0  0  0  0  0  0  0  0  0  0  0  0
   -8.7770   21.5950  -31.3650 C   0  0  0  0  0  0  0  0  0  0  0  0
   -9.9040   21.5610  -30.7970 O   0  0  0  0  0  0  0  0  0  0  0  0
   -8.1630   20.4420  -31.7880 N   0  0  0  0  0  0  0  0  0  0  0  0
   -8.7550   19.2180  -31.5960 C   0  0  0  0  0  0  0  0  0  0  0  0
   -8.1230   18.0450  -32.0130 C   0  0  0  0  0  0  0  0  0  0  0  0
   -6.8770   18.1190  -32.6310 C   0  0  0  0  0  0  0  0  0  0  0  0
   -6.2760   19.3580  -32.8300 C   0  0  0  0  0  0  0  0  0  0  0  0
   -6.9320   20.5180  -32.4030 C   0  0  0  0  0  0  0  0  0  0  0  0
   -6.3300   21.7210  -32.5880 N   0  0  0  0  0  0  0  0  0  0  0  0
   -3.3970   24.7180  -29.5400 N   0  0  0  0  0  0  0  0  0  0  0  0
   -1.7052   24.4491  -27.2592 H   0  0  0  0  0  0  0  0  0  0  0  0
   -0.2859   24.2717  -28.3458 H   0  0  0  0  0  0  0  0  0  0  0  0
   -1.2317   25.7988  -28.3458 H   0  0  0  0  0  0  0  0  0  0  0  0
   -0.8234   22.5452  -29.8706 H   0  0  0  0  0  0  0  0  0  0  0  0
   -2.0717   20.4837  -31.1221 H   0  0  0  0  0  0  0  0  0  0  0  0
   -3.1670   21.0196  -32.4411 H   0  0  0  0  0  0  0  0  0  0  0  0
   -1.4446   21.5295  -32.4411 H   0  0  0  0  0  0  0  0  0  0  0  0
   -6.7576   24.8623  -32.9362 H   0  0  0  0  0  0  0  0  0  0  0  0
   -5.1943   23.9672  -32.7917 H   0  0  0  0  0  0  0  0  0  0  0  0
   -8.6424   23.7573  -31.2061 H   0  0  0  0  0  0  0  0  0  0  0  0
   -9.7391   19.1610  -31.1078 H   0  0  0  0  0  0  0  0  0  0  0  0
   -8.6057   17.0693  -31.8546 H   0  0  0  0  0  0  0  0  0  0  0  0
   -6.3695   17.2005  -32.9608 H   0  0  0  0  0  0  0  0  0  0  0  0
   -5.2930   19.4252  -33.3191 H   0  0  0  0  0  0  0  0  0  0  0  0
  1  2  1  0
  2  3  2  0
  3  4  1  0
  4  5  1  0
  4  6  2  0
  6  7  1  0
  7  8  1  0
  8  9  1  0
  9 10  1  0
 10 11  2  0
 11 12  1  0
 12 13  2  0
 12 14  1  0
 14 15  1  0
 15 16  2  0
 16 17  1  0
 17 18  2  0
 18 19  1  0
 19 20  2  0
  7 21  2  0
 21  2  1  0
 20 10  1  0
 19 14  1  0
  1 22  1  0
  1 23  1  0
  1 24  1  0
  3 25  1  0
  5 26  1  0
  5 27  1  0
  5 28  1  0
  9 29  1  0
  9 30  1  0
 11 31  1  0
 15 32  1  0
 16 33  1  0
 17 34  1  0
 18 35  1  0
M  END
>  <UniqueID>  (29) 
28

>  <SMILES>  (29) 
Cc1cc(C)nc(SCc2cc(=O)n3ccccc3n2)n1

>  <Energy>  (29) 
34.79055120649812

>  <Genealogy>  (29) 
Cc1cc(C)nc(SCc2cc(=O)n3ccccc3n2)n1 (3D coordinates assigned)
Cc1cc(C)nc(SCc2cc(=O)n3ccccc3n2)n1 (optimized conformer: 34.79055120649812 kcal/mol)

>  <smiles>  (29) 
Cc1cc(C)nc(SCc2cc(=O)n3ccccc3n2)n1

>  <score_type>  (29) 
oracle

>  <origin>  (29) 
adgpu

>  <m_score__min__energy>  (29) 
-7.7199999999999998

>  <m_primary>  (29) 
energy

$$$$
29:0
     RDKit          3D

 43 45  0  0  0  0  0  0  0  0999 V2000
   -2.0590   20.7900  -27.1680 C   0  0  0  0  0  0  0  0  0  0  0  0
   -1.8230   22.2550  -27.3790 C   0  0  0  0  0  0  0  0  0  0  0  0
   -1.0470   22.9910  -26.4700 C   0  0  0  0  0  0  0  0  0  0  0  0
   -0.8570   24.3610  -26.6580 C   0  0  0  0  0  0  0  0  0  0  0  0
   -1.4560   25.0120  -27.7410 C   0  0  0  0  0  0  0  0  0  0  0  0
   -2.2510   24.2910  -28.6490 C   0  0  0  0  0  0  0  0  0  0  0  0
   -2.8970   24.9190  -29.7640 N   0  0  0  0  0  0  0  0  0  0  0  0
   -4.5290   24.6310  -30.2770 S   0  0  0  0  0  0  0  0  0  0  0  0
   -4.9700   25.7430  -31.1880 O   0  0  0  0  0  0  0  0  0  0  0  0
   -5.4270   24.6150  -29.0720 O   0  0  0  0  0  0  0  0  0  0  0  0
   -4.6420   23.0700  -31.0860 C   0  0  0  0  0  0  0  0  0  0  0  0
   -3.4900   22.4080  -31.5310 C   0  0  0  0  0  0  0  0  0  0  0  0
   -3.5940   21.1710  -32.1740 C   0  0  0  0  0  0  0  0  0  0  0  0
   -4.8500   20.5910  -32.4010 C   0  0  0  0  0  0  0  0  0  0  0  0
   -4.9270   19.3130  -33.0540 N   0  0  0  0  0  0  0  0  0  0  0  0
   -5.6620   18.1900  -32.5330 C   0  0  0  0  0  0  0  0  0  0  0  0
   -6.3680   18.3210  -31.4960 O   0  0  0  0  0  0  0  0  0  0  0  0
   -5.6430   16.8880  -33.2390 C   0  0  0  0  0  0  0  0  0  0  0  0
   -6.8580   16.2730  -33.5890 C   0  0  0  0  0  0  0  0  0  0  0  0
   -6.8670   15.0370  -34.2400 C   0  0  0  0  0  0  0  0  0  0  0  0
   -5.6660   14.4000  -34.5510 C   0  0  0  0  0  0  0  0  0  0  0  0
   -4.4520   14.9960  -34.2060 C   0  0  0  0  0  0  0  0  0  0  0  0
   -4.4290   16.2340  -33.5510 C   0  0  0  0  0  0  0  0  0  0  0  0
   -2.8590   16.9530  -33.1950 Cl  0  0  0  0  0  0  0  0  0  0  0  0
   -6.0030   21.2480  -31.9350 C   0  0  0  0  0  0  0  0  0  0  0  0
   -5.8960   22.4810  -31.2840 C   0  0  0  0  0  0  0  0  0  0  0  0
   -2.4310   22.9150  -28.4590 C   0  0  0  0  0  0  0  0  0  0  0  0
   -2.0935   20.5758  -26.0896 H   0  0  0  0  0  0  0  0  0  0  0  0
   -3.0151   20.5024  -27.6298 H   0  0  0  0  0  0  0  0  0  0  0  0
   -1.2416   20.2167  -27.6298 H   0  0  0  0  0  0  0  0  0  0  0  0
   -0.5874   22.4868  -25.6072 H   0  0  0  0  0  0  0  0  0  0  0  0
   -0.2343   24.9302  -25.9522 H   0  0  0  0  0  0  0  0  0  0  0  0
   -1.3046   26.0922  -27.8830 H   0  0  0  0  0  0  0  0  0  0  0  0
   -2.5009   22.8630  -31.3739 H   0  0  0  0  0  0  0  0  0  0  0  0
   -2.6838   20.6490  -32.5042 H   0  0  0  0  0  0  0  0  0  0  0  0
   -4.4840   19.2280  -33.9950 H   0  0  0  0  0  0  0  0  0  0  0  0
   -7.8096   16.7694  -33.3481 H   0  0  0  0  0  0  0  0  0  0  0  0
   -7.8238   14.5650  -34.5080 H   0  0  0  0  0  0  0  0  0  0  0  0
   -5.6755   13.4289  -35.0676 H   0  0  0  0  0  0  0  0  0  0  0  0
   -3.5064   14.4899  -34.4502 H   0  0  0  0  0  0  0  0  0  0  0  0
   -6.9923   20.7904  -32.0831 H   0  0  0  0  0  0  0  0  0  0  0  0
   -6.8025   22.9908  -30.9256 H   0  0  0  0  0  0  0  0  0  0  0  0
   -3.0552   22.3454  -29.1632 H   0  0  0  0  0  0  0  0  0  0  0  0
  1  2  1  0
  2  3  2  0
  3  4  1  0
  4  5  2  0
  5  6  1  0
  6  7  1  0
  7  8  1  0
  8  9  2  0
  8 10  2  0
  8 11  1  0
 11 12  2  0
 12 13  1  0
 13 14  2  0
 14 15  1  0
 15 16  1  0
 16 17  2  0
 16 18  1  0
 18 19  2  0
 19 20  1  0
 20 21  2  0
 21 22  1  0
 22 23  2  0
 23 24  1  0
 14 25  1  0
 25 26  2  0
  6 27  2  0
 27  2  1  0
 26 11  1  0
 23 18  1  0
  1 28  1  0
  1 29  1  0
  1 30  1  0
  3 31  1  0
  4 32  1  0
  5 33  1  0
 12 34  1  0
 13 35  1  0
 15 36  1  0
 19 37  1  0
 20 38  1  0
 21 39  1  0
 22 40  1  0
 25 41  1  0
 26 42  1  0
 27 43  1  0
M  CHG  1   7  -1
M  END
>  <UniqueID>  (30) 
29

>  <SMILES>  (30) 
Cc1cccc([N-]S(=O)(=O)c2ccc(NC(=O)c3ccccc3Cl)cc2)c1

>  <Energy>  (30) 
57.464273166021826

>  <Genealogy>  (30) 
Cc1cccc([N-]S(=O)(=O)c2ccc(NC(=O)c3ccccc3Cl)cc2)c1 (protonated)
Cc1cccc([N-]S(=O)(=O)c2ccc(NC(=O)c3ccccc3Cl)cc2)c1 (3D coordinates assigned)
Cc1cccc([N-]S(=O)(=O)c2ccc(NC(=O)c3ccccc3Cl)cc2)c1 (optimized conformer: 57.464273166021826 kcal/mol)

>  <smiles>  (30) 
Cc1cccc(NS(=O)(=O)c2ccc(NC(=O)c3ccccc3Cl)cc2)c1

>  <score_type>  (30) 
oracle

>  <origin>  (30) 
adgpu

>  <m_score__min__energy>  (30) 
-9.6199999999999992

>  <m_primary>  (30) 
energy

$$$$
30:0
     RDKit          3D

 39 41  0  0  0  0  0  0  0  0999 V2000
   -6.7210   25.3000  -30.0250 C   0  0  0  0  0  0  0  0  0  0  0  0
   -6.4230   23.9030  -29.7310 N   0  0  0  0  0  0  0  0  0  0  0  0
   -6.0490   22.9940  -30.7790 C   0  0  0  0  0  0  0  0  0  0  0  0
   -4.7610   23.0620  -31.3390 C   0  0  0  0  0  0  0  0  0  0  0  0
   -3.8500   24.0610  -30.8480 N   0  0  0  0  0  0  0  0  0  0  0  0
   -3.1640   24.1610  -29.2570 S   0  0  0  0  0  0  0  0  0  0  0  0
   -2.0980   25.2220  -29.2400 O   0  0  0  0  0  0  0  0  0  0  0  0
   -4.2430   24.5430  -28.2850 O   0  0  0  0  0  0  0  0  0  0  0  0
   -2.5080   22.5980  -28.7730 C   0  0  0  0  0  0  0  0  0  0  0  0
   -3.2000   21.7830  -27.8660 C   0  0  0  0  0  0  0  0  0  0  0  0
   -2.6700   20.5470  -27.4820 C   0  0  0  0  0  0  0  0  0  0  0  0
   -1.4440   20.1090  -28.0100 C   0  0  0  0  0  0  0  0  0  0  0  0
   -0.8570   18.7900  -27.6020 C   0  0  0  0  0  0  0  0  0  0  0  0
   -0.7560   20.9260  -28.9180 C   0  0  0  0  0  0  0  0  0  0  0  0
   -1.2860   22.1630  -29.2990 C   0  0  0  0  0  0  0  0  0  0  0  0
   -4.4380   22.1740  -32.3880 C   0  0  0  0  0  0  0  0  0  0  0  0
   -3.3230   22.2310  -32.9680 O   0  0  0  0  0  0  0  0  0  0  0  0
   -5.3220   21.2740  -32.8010 O   0  0  0  0  0  0  0  0  0  0  0  0
   -6.5400   21.1640  -32.2880 C   0  0  0  0  0  0  0  0  0  0  0  0
   -7.4060   20.1800  -32.7740 C   0  0  0  0  0  0  0  0  0  0  0  0
   -8.6900   20.0490  -32.2420 C   0  0  0  0  0  0  0  0  0  0  0  0
   -9.1140   20.8990  -31.2190 C   0  0  0  0  0  0  0  0  0  0  0  0
   -8.2560   21.8840  -30.7240 C   0  0  0  0  0  0  0  0  0  0  0  0
   -6.9610   22.0320  -31.2560 C   0  0  0  0  0  0  0  0  0  0  0  0
   -6.8395   25.8557  -29.0831 H   0  0  0  0  0  0  0  0  0  0  0  0
   -5.8957   25.7364  -30.6068 H   0  0  0  0  0  0  0  0  0  0  0  0
   -7.6525   25.3616  -30.6068 H   0  0  0  0  0  0  0  0  0  0  0  0
   -6.1580   23.6680  -28.7470 H   0  0  0  0  0  0  0  0  0  0  0  0
   -4.1639   22.1171  -27.4546 H   0  0  0  0  0  0  0  0  0  0  0  0
   -3.2147   19.9159  -26.7644 H   0  0  0  0  0  0  0  0  0  0  0  0
   -0.8282   18.7253  -26.5043 H   0  0  0  0  0  0  0  0  0  0  0  0
   -1.4768   17.9736  -28.0013 H   0  0  0  0  0  0  0  0  0  0  0  0
    0.1644   18.7040  -28.0013 H   0  0  0  0  0  0  0  0  0  0  0  0
    0.2064   20.5922  -29.3333 H   0  0  0  0  0  0  0  0  0  0  0  0
   -0.7407   22.7961  -30.0144 H   0  0  0  0  0  0  0  0  0  0  0  0
   -7.0746   19.5067  -33.5783 H   0  0  0  0  0  0  0  0  0  0  0  0
   -9.3686   19.2749  -32.6295 H   0  0  0  0  0  0  0  0  0  0  0  0
  -10.1262   20.7929  -30.8017 H   0  0  0  0  0  0  0  0  0  0  0  0
   -8.5940   22.5475  -29.9143 H   0  0  0  0  0  0  0  0  0  0  0  0
  1  2  1  0
  2  3  1  0
  3  4  2  0
  4  5  1  0
  5  6  1  0
  6  7  2  0
  6  8  2  0
  6  9  1  0
  9 10  2  0
 10 11  1  0
 11 12  2  0
 12 13  1  0
 12 14  1  0
 14 15  2  0
  4 16  1  0
 16 17  2  0
 16 18  1  0
 18 19  1  0
 19 20  2  0
 20 21  1  0
 21 22  2  0
 22 23  1  0
 23 24  2  0
 24  3  1  0
 15  9  1  0
 24 19  1  0
  1 25  1  0
  1 26  1  0
  1 27  1  0
  2 28  1  0
 10 29  1  0
 11 30  1  0
 13 31  1  0
 13 32  1  0
 13 33  1  0
 14 34  1  0
 15 35  1  0
 20 36  1  0
 21 37  1  0
 22 38  1  0
 23 39  1  0
M  CHG  1   5  -1
M  END
>  <UniqueID>  (31) 
30

>  <SMILES>  (31) 
CNc1c([N-]S(=O)(=O)c2ccc(C)cc2)c(=O)oc2ccccc12

>  <Energy>  (31) 
56.87650159950775

>  <Genealogy>  (31) 
CNc1c([N-]S(=O)(=O)c2ccc(C)cc2)c(=O)oc2ccccc12 (protonated)
CNc1c([N-]S(=O)(=O)c2ccc(C)cc2)c(=O)oc2ccccc12 (3D coordinates assigned)
CNc1c([N-]S(=O)(=O)c2ccc(C)cc2)c(=O)oc2ccccc12 (optimized conformer: 56.87650159950775 kcal/mol)

>  <smiles>  (31) 
CNc1c(NS(=O)(=O)c2ccc(C)cc2)c(=O)oc2ccccc12

>  <score_type>  (31) 
oracle

>  <origin>  (31) 
adgpu

>  <m_score__min__energy>  (31) 
-9.5700000000000003

>  <m_primary>  (31) 
energy

$$$$
31:0
     RDKit          3D

 27 28  0  0  0  0  0  0  0  0999 V2000
   -5.8900   25.2700  -28.9840 O   0  0  0  0  0  0  0  0  0  0  0  0
   -5.2830   25.1680  -30.3560 S   0  0  0  0  0  0  0  0  0  0  0  0
   -5.7430   26.3120  -31.2150 O   0  0  0  0  0  0  0  0  0  0  0  0
   -3.5540   25.2240  -30.2160 N   0  0  0  0  0  0  0  0  0  0  0  0
   -2.7840   24.5790  -29.1920 C   0  0  0  0  0  0  0  0  0  0  0  0
   -3.1750   23.3500  -28.6290 C   0  0  0  0  0  0  0  0  0  0  0  0
   -2.3960   22.7520  -27.6320 C   0  0  0  0  0  0  0  0  0  0  0  0
   -1.2250   23.3730  -27.1900 C   0  0  0  0  0  0  0  0  0  0  0  0
   -0.8300   24.5920  -27.7450 C   0  0  0  0  0  0  0  0  0  0  0  0
   -1.6050   25.1960  -28.7420 C   0  0  0  0  0  0  0  0  0  0  0  0
   -1.2000   26.4090  -29.2850 O   0  0  0  0  0  0  0  0  0  0  0  0
   -5.7870   23.6460  -31.1000 C   0  0  0  0  0  0  0  0  0  0  0  0
   -7.1410   23.2760  -31.0540 C   0  0  0  0  0  0  0  0  0  0  0  0
   -7.5710   22.0790  -31.6320 C   0  0  0  0  0  0  0  0  0  0  0  0
   -9.2660   21.6330  -31.5650 Cl  0  0  0  0  0  0  0  0  0  0  0  0
   -6.6540   21.2390  -32.2640 C   0  0  0  0  0  0  0  0  0  0  0  0
   -5.3030   21.5910  -32.3200 C   0  0  0  0  0  0  0  0  0  0  0  0
   -4.1700   20.5120  -33.1210 Cl  0  0  0  0  0  0  0  0  0  0  0  0
   -4.8570   22.7910  -31.7410 C   0  0  0  0  0  0  0  0  0  0  0  0
   -3.4970   23.1030  -31.8210 O   0  0  0  0  0  0  0  0  0  0  0  0
   -4.0962   22.8576  -28.9738 H   0  0  0  0  0  0  0  0  0  0  0  0
   -2.7062   21.7912  -27.1954 H   0  0  0  0  0  0  0  0  0  0  0  0
   -0.6147   22.9020  -26.4054 H   0  0  0  0  0  0  0  0  0  0  0  0
    0.0931   25.0791  -27.3976 H   0  0  0  0  0  0  0  0  0  0  0  0
   -7.8695   23.9346  -30.5584 H   0  0  0  0  0  0  0  0  0  0  0  0
   -6.9952   20.2975  -32.7192 H   0  0  0  0  0  0  0  0  0  0  0  0
   -3.1200   24.0150  -31.6100 H   0  0  0  0  0  0  0  0  0  0  0  0
  1  2  2  0
  2  3  2  0
  2  4  1  0
  4  5  1  0
  5  6  2  0
  6  7  1  0
  7  8  2  0
  8  9  1  0
  9 10  2  0
 10 11  1  0
  2 12  1  0
 12 13  2  0
 13 14  1  0
 14 15  1  0
 14 16  2  0
 16 17  1  0
 17 18  1  0
 17 19  2  0
 19 20  1  0
 10  5  1  0
 19 12  1  0
  6 21  1  0
  7 22  1  0
  8 23  1  0
  9 24  1  0
 13 25  1  0
 16 26  1  0
 20 27  1  0
M  CHG  2   4  -1  11  -1
M  END
>  <UniqueID>  (32) 
31

>  <SMILES>  (32) 
O=S(=O)([N-]c1ccccc1[O-])c1cc(Cl)cc(Cl)c1O

>  <Energy>  (32) 
34.46148279103042

>  <Genealogy>  (32) 
O=S(=O)([N-]c1ccccc1[O-])c1cc(Cl)cc(Cl)c1O (protonated)
O=S(=O)([N-]c1ccccc1[O-])c1cc(Cl)cc(Cl)c1O (3D coordinates assigned)
O=S(=O)([N-]c1ccccc1[O-])c1cc(Cl)cc(Cl)c1O (optimized conformer: 34.46148279103042 kcal/mol)

>  <smiles>  (32) 
O=S(=O)(Nc1ccccc1O)c1cc(Cl)cc(Cl)c1O

>  <score_type>  (32) 
oracle

>  <origin>  (32) 
adgpu

>  <m_score__min__energy>  (32) 
-12.32

>  <m_primary>  (32) 
energy

$$$$
32:0
     RDKit          3D

 34 36  0  0  0  0  0  0  0  0999 V2000
   -3.0400   23.8690  -27.8530 C   0  0  0  0  0  0  0  0  0  0  0  0
   -2.5580   24.8860  -28.8320 C   0  0  0  0  0  0  0  0  0  0  0  0
   -1.5920   25.6340  -28.5260 O   0  0  0  0  0  0  0  0  0  0  0  0
   -3.1300   24.9240  -30.1460 N   0  0  0  0  0  0  0  0  0  0  0  0
   -4.4150   24.4150  -30.5320 C   0  0  0  0  0  0  0  0  0  0  0  0
   -5.5630   25.0570  -30.0530 C   0  0  0  0  0  0  0  0  0  0  0  0
   -6.8340   24.6020  -30.4160 C   0  0  0  0  0  0  0  0  0  0  0  0
   -6.9750   23.5000  -31.2660 C   0  0  0  0  0  0  0  0  0  0  0  0
   -8.2920   23.0680  -31.6340 N   0  0  0  0  0  0  0  0  0  0  0  0
   -8.8050   21.7350  -31.5220 C   0  0  0  0  0  0  0  0  0  0  0  0
   -9.8520   21.5400  -30.8520 O   0  0  0  0  0  0  0  0  0  0  0  0
   -8.1140   20.5760  -32.1170 C   0  0  0  0  0  0  0  0  0  0  0  0
   -8.2980   19.2380  -31.7680 C   0  0  0  0  0  0  0  0  0  0  0  0
   -7.4510   18.5500  -32.6040 C   0  0  0  0  0  0  0  0  0  0  0  0
   -7.1970   17.1850  -32.7240 C   0  0  0  0  0  0  0  0  0  0  0  0
   -6.2630   16.7770  -33.6950 C   0  0  0  0  0  0  0  0  0  0  0  0
   -5.6160   17.7320  -34.5120 C   0  0  0  0  0  0  0  0  0  0  0  0
   -5.8980   19.1030  -34.3650 C   0  0  0  0  0  0  0  0  0  0  0  0
   -6.8260   19.4760  -33.3960 C   0  0  0  0  0  0  0  0  0  0  0  0
   -7.2330   20.6840  -33.0970 O   0  0  0  0  0  0  0  0  0  0  0  0
   -5.8250   22.8840  -31.7900 C   0  0  0  0  0  0  0  0  0  0  0  0
   -4.5540   23.3370  -31.4250 C   0  0  0  0  0  0  0  0  0  0  0  0
   -2.8670   24.2341  -26.8299 H   0  0  0  0  0  0  0  0  0  0  0  0
   -4.1158   23.6961  -28.0036 H   0  0  0  0  0  0  0  0  0  0  0  0
   -2.4926   22.9268  -28.0036 H   0  0  0  0  0  0  0  0  0  0  0  0
   -5.4643   25.9261  -29.3859 H   0  0  0  0  0  0  0  0  0  0  0  0
   -7.7285   25.1135  -30.0310 H   0  0  0  0  0  0  0  0  0  0  0  0
   -8.9684   18.8270  -30.9988 H   0  0  0  0  0  0  0  0  0  0  0  0
   -7.7084   16.4522  -32.0825 H   0  0  0  0  0  0  0  0  0  0  0  0
   -6.0352   15.7080  -33.8188 H   0  0  0  0  0  0  0  0  0  0  0  0
   -4.8877   17.4016  -35.2673 H   0  0  0  0  0  0  0  0  0  0  0  0
   -5.4014   19.8556  -34.9951 H   0  0  0  0  0  0  0  0  0  0  0  0
   -5.9259   22.0418  -32.4904 H   0  0  0  0  0  0  0  0  0  0  0  0
   -3.6589   22.8486  -31.8377 H   0  0  0  0  0  0  0  0  0  0  0  0
  1  2  1  0
  2  3  2  0
  2  4  1  0
  4  5  1  0
  5  6  2  0
  6  7  1  0
  7  8  2  0
  8  9  1  0
  9 10  1  0
 10 11  2  0
 10 12  1  0
 12 13  2  0
 13 14  1  0
 14 15  2  0
 15 16  1  0
 16 17  2  0
 17 18  1  0
 18 19  2  0
 19 20  1  0
  8 21  1  0
 21 22  2  0
 22  5  1  0
 20 12  1  0
 19 14  1  0
  1 23  1  0
  1 24  1  0
  1 25  1  0
  6 26  1  0
  7 27  1  0
 13 28  1  0
 15 29  1  0
 16 30  1  0
 17 31  1  0
 18 32  1  0
 21 33  1  0
 22 34  1  0
M  CHG  2   4  -1   9  -1
M  END
>  <UniqueID>  (33) 
32

>  <SMILES>  (33) 
CC(=O)[N-]c1ccc([N-]C(=O)c2cc3ccccc3o2)cc1

>  <Energy>  (33) 
76.63030555423839

>  <Genealogy>  (33) 
CC(=O)[N-]c1ccc([N-]C(=O)c2cc3ccccc3o2)cc1 (protonated)
CC(=O)[N-]c1ccc([N-]C(=O)c2cc3ccccc3o2)cc1 (3D coordinates assigned)
CC(=O)[N-]c1ccc([N-]C(=O)c2cc3ccccc3o2)cc1 (optimized conformer: 76.63030555423839 kcal/mol)

>  <smiles>  (33) 
CC(=O)Nc1ccc(NC(=O)c2cc3ccccc3o2)cc1

>  <score_type>  (33) 
oracle

>  <origin>  (33) 
adgpu

>  <m_score__min__energy>  (33) 
-10.130000000000001

>  <m_primary>  (33) 
energy

$$$$
33:0
     RDKit          3D

 51 53  0  0  0  0  0  0  0  0999 V2000
   -4.7150   14.8730  -33.7540 C   0  0  0  0  0  0  0  0  0  0  0  0
   -4.3530   16.1210  -34.5760 C   0  0  0  0  0  0  0  0  0  0  0  0
   -4.7350   17.4230  -33.9610 N   0  0  2  0  0  0  0  0  0  0  0  0
   -6.0100   17.9990  -34.4680 C   0  0  0  0  0  0  0  0  0  0  0  0
   -6.8690   18.7020  -33.4340 C   0  0  0  0  0  0  0  0  0  0  0  0
   -6.9700   20.1060  -33.4270 C   0  0  0  0  0  0  0  0  0  0  0  0
   -7.7790   20.7510  -32.4870 C   0  0  0  0  0  0  0  0  0  0  0  0
   -8.5130   20.0040  -31.5640 C   0  0  0  0  0  0  0  0  0  0  0  0
   -8.4480   18.6090  -31.5850 C   0  0  0  0  0  0  0  0  0  0  0  0
   -7.6400   17.9590  -32.5220 C   0  0  0  0  0  0  0  0  0  0  0  0
   -3.6480   18.3890  -33.9170 C   0  0  0  0  0  0  0  0  0  0  0  0
   -2.6200   18.2120  -34.6280 O   0  0  0  0  0  0  0  0  0  0  0  0
   -3.6960   19.5880  -33.0370 C   0  0  0  0  0  0  0  0  0  0  0  0
   -3.1980   20.8160  -33.5080 C   0  0  0  0  0  0  0  0  0  0  0  0
   -3.2300   21.9550  -32.6990 C   0  0  0  0  0  0  0  0  0  0  0  0
   -3.7580   21.8870  -31.4040 C   0  0  0  0  0  0  0  0  0  0  0  0
   -3.8240   23.3310  -30.3940 S   0  0  0  0  0  0  0  0  0  0  0  0
   -4.3870   22.9670  -29.0480 O   0  0  0  0  0  0  0  0  0  0  0  0
   -2.4290   23.8520  -30.1840 O   0  0  0  0  0  0  0  0  0  0  0  0
   -4.8090   24.5900  -31.1100 N   0  0  0  0  0  0  0  0  0  0  0  0
   -5.4330   25.4260  -30.0790 C   0  0  0  0  0  0  0  0  0  0  0  0
   -6.8620   24.9430  -29.8680 C   0  0  0  0  0  0  0  0  0  0  0  0
   -7.1670   24.0330  -31.0410 C   0  0  0  0  0  0  0  0  0  0  0  0
   -5.9080   24.0210  -31.8960 C   0  0  0  0  0  0  0  0  0  0  0  0
   -4.2350   20.6620  -30.9180 C   0  0  0  0  0  0  0  0  0  0  0  0
   -4.2040   19.5220  -31.7260 C   0  0  0  0  0  0  0  0  0  0  0  0
   -4.6469   15.1079  -32.6815 H   0  0  0  0  0  0  0  0  0  0  0  0
   -5.7411   14.5594  -33.9962 H   0  0  0  0  0  0  0  0  0  0  0  0
   -4.0160   14.0589  -33.9962 H   0  0  0  0  0  0  0  0  0  0  0  0
   -3.2635   16.1236  -34.7273 H   0  0  0  0  0  0  0  0  0  0  0  0
   -4.9284   16.0463  -35.5105 H   0  0  0  0  0  0  0  0  0  0  0  0
   -4.9700   17.1960  -32.9670 H   0  0  0  0  0  0  0  0  0  0  0  0
   -5.7631   18.7273  -35.2545 H   0  0  0  0  0  0  0  0  0  0  0  0
   -6.6055   17.1451  -34.8234 H   0  0  0  0  0  0  0  0  0  0  0  0
   -6.4095   20.6986  -34.1650 H   0  0  0  0  0  0  0  0  0  0  0  0
   -7.8373   21.8494  -32.4746 H   0  0  0  0  0  0  0  0  0  0  0  0
   -9.1426   20.5141  -30.8201 H   0  0  0  0  0  0  0  0  0  0  0  0
   -9.0336   18.0210  -30.8630 H   0  0  0  0  0  0  0  0  0  0  0  0
   -7.6069   16.8598  -32.5464 H   0  0  0  0  0  0  0  0  0  0  0  0
   -2.7792   20.8806  -34.5231 H   0  0  0  0  0  0  0  0  0  0  0  0
   -2.8386   22.9093  -33.0813 H   0  0  0  0  0  0  0  0  0  0  0  0
   -4.8689   25.3391  -29.1387 H   0  0  0  0  0  0  0  0  0  0  0  0
   -5.4331   26.4794  -30.3957 H   0  0  0  0  0  0  0  0  0  0  0  0
   -6.9432   24.3884  -28.9215 H   0  0  0  0  0  0  0  0  0  0  0  0
   -7.5696   25.7833  -29.8124 H   0  0  0  0  0  0  0  0  0  0  0  0
   -7.3995   23.0176  -30.6875 H   0  0  0  0  0  0  0  0  0  0  0  0
   -8.0394   24.3859  -31.6106 H   0  0  0  0  0  0  0  0  0  0  0  0
   -5.6635   22.9875  -32.1826 H   0  0  0  0  0  0  0  0  0  0  0  0
   -6.0658   24.6137  -32.8091 H   0  0  0  0  0  0  0  0  0  0  0  0
   -4.6357   20.5975  -29.8956 H   0  0  0  0  0  0  0  0  0  0  0  0
   -4.5797   18.5653  -31.3341 H   0  0  0  0  0  0  0  0  0  0  0  0
  1  2  1  0
  2  3  1  0
  3  4  1  0
  4  5  1  0
  5  6  2  0
  6  7  1  0
  7  8  2  0
  8  9  1  0
  9 10  2  0
  3 11  1  0
 11 12  2  0
 11 13  1  0
 13 14  2  0
 14 15  1  0
 15 16  2  0
 16 17  1  0
 17 18  2  0
 17 19  2  0
 17 20  1  0
 20 21  1  0
 21 22  1  0
 22 23  1  0
 23 24  1  0
 16 25  1  0
 25 26  2  0
 10  5  1  0
 26 13  1  0
 24 20  1  0
  1 27  1  0
  1 28  1  0
  1 29  1  0
  2 30  1  0
  2 31  1  0
  3 32  1  1
  4 33  1  0
  4 34  1  0
  6 35  1  0
  7 36  1  0
  8 37  1  0
  9 38  1  0
 10 39  1  0
 14 40  1  0
 15 41  1  0
 21 42  1  0
 21 43  1  0
 22 44  1  0
 22 45  1  0
 23 46  1  0
 23 47  1  0
 24 48  1  0
 24 49  1  0
 25 50  1  0
 26 51  1  0
M  CHG  1   3   1
M  END
>  <UniqueID>  (34) 
33

>  <SMILES>  (34) 
CC[N@H+](Cc1ccccc1)C(=O)c1ccc(S(=O)(=O)N2CCCC2)cc1

>  <Energy>  (34) 
65.71165748593788

>  <Genealogy>  (34) 
CC[NH+](Cc1ccccc1)C(=O)c1ccc(S(=O)(=O)N2CCCC2)cc1 (protonated)
CC[N@H+](Cc1ccccc1)C(=O)c1ccc(S(=O)(=O)N2CCCC2)cc1 (chirality)
CC[N@H+](Cc1ccccc1)C(=O)c1ccc(S(=O)(=O)N2CCCC2)cc1 (3D coordinates assigned)
CC[N@H+](Cc1ccccc1)C(=O)c1ccc(S(=O)(=O)N2CCCC2)cc1 (nonaromatic ring conformer: 65.71165748593788 kcal/mol)

>  <smiles>  (34) 
CCN(Cc1ccccc1)C(=O)c1ccc(S(=O)(=O)N2CCCC2)cc1

>  <score_type>  (34) 
oracle

>  <origin>  (34) 
adgpu

>  <m_score__min__energy>  (34) 
-8.7799999999999994

>  <m_primary>  (34) 
energy

$$$$
34:0
     RDKit          3D

 37 39  0  0  0  0  0  0  0  0999 V2000
   -4.5550   24.4720  -28.7120 O   0  0  0  0  0  0  0  0  0  0  0  0
   -4.3630   24.2990  -30.1920 S   0  0  0  0  0  0  0  0  0  0  0  0
   -4.2690   25.6530  -30.8340 O   0  0  0  0  0  0  0  0  0  0  0  0
   -2.8890   23.4260  -30.4750 N   0  0  0  0  0  0  0  0  0  0  0  0
   -1.8500   23.2690  -29.4900 C   0  0  0  0  0  0  0  0  0  0  0  0
   -1.4410   21.9930  -29.0510 C   0  0  0  0  0  0  0  0  0  0  0  0
   -0.4270   21.8640  -28.0980 C   0  0  0  0  0  0  0  0  0  0  0  0
    0.1840   22.9990  -27.5650 C   0  0  0  0  0  0  0  0  0  0  0  0
   -0.2170   24.2690  -27.9830 C   0  0  0  0  0  0  0  0  0  0  0  0
   -1.2290   24.4080  -28.9390 C   0  0  0  0  0  0  0  0  0  0  0  0
   -1.6080   25.6850  -29.3420 O   0  0  0  0  0  0  0  0  0  0  0  0
   -5.7180   23.4290  -30.9050 C   0  0  0  0  0  0  0  0  0  0  0  0
   -6.9560   24.0680  -31.0450 C   0  0  0  0  0  0  0  0  0  0  0  0
   -8.0300   23.3950  -31.6280 C   0  0  0  0  0  0  0  0  0  0  0  0
   -7.8770   22.0800  -32.0740 C   0  0  0  0  0  0  0  0  0  0  0  0
   -6.6420   21.4210  -31.9390 C   0  0  0  0  0  0  0  0  0  0  0  0
   -6.4760   20.0240  -32.4120 C   0  0  0  0  0  0  0  0  0  0  0  0
   -7.4300   19.0420  -32.0880 C   0  0  0  0  0  0  0  0  0  0  0  0
   -7.2750   17.7280  -32.5370 C   0  0  0  0  0  0  0  0  0  0  0  0
   -6.1680   17.3720  -33.3130 C   0  0  0  0  0  0  0  0  0  0  0  0
   -6.0090   15.7090  -33.8580 Cl  0  0  0  0  0  0  0  0  0  0  0  0
   -5.2080   18.3430  -33.6430 C   0  0  0  0  0  0  0  0  0  0  0  0
   -3.7980   17.9360  -34.6120 Cl  0  0  0  0  0  0  0  0  0  0  0  0
   -5.3640   19.6600  -33.1940 C   0  0  0  0  0  0  0  0  0  0  0  0
   -5.5640   22.1080  -31.3470 C   0  0  0  0  0  0  0  0  0  0  0  0
   -2.8140   22.9230  -31.3880 H   0  0  0  0  0  0  0  0  0  0  0  0
   -1.9231   21.0934  -29.4612 H   0  0  0  0  0  0  0  0  0  0  0  0
   -0.1097   20.8641  -27.7671 H   0  0  0  0  0  0  0  0  0  0  0  0
    0.9819   22.8932  -26.8152 H   0  0  0  0  0  0  0  0  0  0  0  0
    0.2640   25.1630  -27.5596 H   0  0  0  0  0  0  0  0  0  0  0  0
   -7.0820   25.1030  -30.6945 H   0  0  0  0  0  0  0  0  0  0  0  0
   -9.0004   23.9014  -31.7368 H   0  0  0  0  0  0  0  0  0  0  0  0
   -8.7282   21.5565  -32.5338 H   0  0  0  0  0  0  0  0  0  0  0  0
   -8.3042   19.3106  -31.4768 H   0  0  0  0  0  0  0  0  0  0  0  0
   -8.0283   16.9693  -32.2784 H   0  0  0  0  0  0  0  0  0  0  0  0
   -4.6102   20.4174  -33.4550 H   0  0  0  0  0  0  0  0  0  0  0  0
   -4.5935   21.6035  -31.2307 H   0  0  0  0  0  0  0  0  0  0  0  0
  1  2  2  0
  2  3  2  0
  2  4  1  0
  4  5  1  0
  5  6  2  0
  6  7  1  0
  7  8  2  0
  8  9  1  0
  9 10  2  0
 10 11  1  0
  2 12  1  0
 12 13  2  0
 13 14  1  0
 14 15  2  0
 15 16  1  0
 16 17  1  0
 17 18  2  0
 18 19  1  0
 19 20  2  0
 20 21  1  0
 20 22  1  0
 22 23  1  0
 22 24  2  0
 16 25  2  0
 10  5  1  0
 25 12  1  0
 24 17  1  0
  4 26  1  0
  6 27  1  0
  7 28  1  0
  8 29  1  0
  9 30  1  0
 13 31  1  0
 14 32  1  0
 15 33  1  0
 18 34  1  0
 19 35  1  0
 24 36  1  0
 25 37  1  0
M  CHG  1  11  -1
M  END
>  <UniqueID>  (35) 
34

>  <SMILES>  (35) 
O=S(=O)(Nc1ccccc1[O-])c1cccc(-c2ccc(Cl)c(Cl)c2)c1

>  <Energy>  (35) 
49.3911951870544

>  <Genealogy>  (35) 
O=S(=O)(Nc1ccccc1[O-])c1cccc(-c2ccc(Cl)c(Cl)c2)c1 (protonated)
O=S(=O)(Nc1ccccc1[O-])c1cccc(-c2ccc(Cl)c(Cl)c2)c1 (3D coordinates assigned)
O=S(=O)(Nc1ccccc1[O-])c1cccc(-c2ccc(Cl)c(Cl)c2)c1 (optimized conformer: 49.3911951870544 kcal/mol)

>  <smiles>  (35) 
O=S(=O)(Nc1ccccc1O)c1cccc(-c2ccc(Cl)c(Cl)c2)c1

>  <score_type>  (35) 
oracle

>  <origin>  (35) 
adgpu

>  <m_score__min__energy>  (35) 
-13.44

>  <m_primary>  (35) 
energy

$$$$
35:0
     RDKit          3D

 45 48  0  0  0  0  0  0  0  0999 V2000
    0.6020   18.5170  -34.6730 C   0  0  0  0  0  0  0  0  0  0  0  0
   -0.6060   19.2410  -34.1400 C   0  0  0  0  0  0  0  0  0  0  0  0
   -1.7740   18.5150  -33.8610 C   0  0  0  0  0  0  0  0  0  0  0  0
   -2.9120   19.1570  -33.3710 C   0  0  0  0  0  0  0  0  0  0  0  0
   -2.9080   20.5440  -33.1450 C   0  0  0  0  0  0  0  0  0  0  0  0
   -4.1130   21.2410  -32.6300 C   0  0  0  0  0  0  0  0  0  0  0  0
   -4.0320   22.5240  -32.0650 C   0  0  0  0  0  0  0  0  0  0  0  0
   -5.1830   23.1540  -31.5660 C   0  0  0  0  0  0  0  0  0  0  0  0
   -5.0410   24.5160  -30.9950 C   0  0  0  0  0  0  0  0  0  0  0  0
   -6.0080   25.3210  -31.0600 O   0  0  0  0  0  0  0  0  0  0  0  0
   -3.7910   24.9850  -30.4700 N   0  0  0  0  0  0  0  0  0  0  0  0
   -3.0910   24.4460  -29.3400 C   0  0  0  0  0  0  0  0  0  0  0  0
   -3.6800   23.4140  -28.6010 C   0  0  0  0  0  0  0  0  0  0  0  0
   -3.0150   22.8760  -27.4970 C   0  0  0  0  0  0  0  0  0  0  0  0
   -1.7550   23.3660  -27.1520 C   0  0  0  0  0  0  0  0  0  0  0  0
   -1.1800   24.3490  -27.8960 N   0  0  0  0  0  0  0  0  0  0  0  0
   -1.8090   24.8900  -28.9740 C   0  0  0  0  0  0  0  0  0  0  0  0
   -6.4270   22.4810  -31.6450 C   0  0  0  0  0  0  0  0  0  0  0  0
   -7.6210   23.0160  -31.1160 C   0  0  0  0  0  0  0  0  0  0  0  0
   -8.8220   22.3100  -31.2280 C   0  0  0  0  0  0  0  0  0  0  0  0
   -8.8510   21.0630  -31.8550 C   0  0  0  0  0  0  0  0  0  0  0  0
   -7.6760   20.5080  -32.3620 C   0  0  0  0  0  0  0  0  0  0  0  0
   -6.4660   21.2020  -32.2540 C   0  0  0  0  0  0  0  0  0  0  0  0
   -5.3250   20.6320  -32.7200 N   0  0  0  0  0  0  0  0  0  0  0  0
   -1.7480   21.2770  -33.4450 C   0  0  0  0  0  0  0  0  0  0  0  0
   -0.5990   20.6430  -33.9470 C   0  0  0  0  0  0  0  0  0  0  0  0
    0.6290   21.4650  -34.2410 C   0  0  0  0  0  0  0  0  0  0  0  0
    1.2110   18.1520  -33.8328 H   0  0  0  0  0  0  0  0  0  0  0  0
    0.2770   17.6647  -35.2878 H   0  0  0  0  0  0  0  0  0  0  0  0
    1.2004   19.2054  -35.2878 H   0  0  0  0  0  0  0  0  0  0  0  0
   -1.7927   17.4283  -34.0303 H   0  0  0  0  0  0  0  0  0  0  0  0
   -3.8197   18.5726  -33.1599 H   0  0  0  0  0  0  0  0  0  0  0  0
   -3.0610   23.0383  -32.0131 H   0  0  0  0  0  0  0  0  0  0  0  0
   -4.6679   23.0260  -28.8899 H   0  0  0  0  0  0  0  0  0  0  0  0
   -3.4801   22.0738  -26.9052 H   0  0  0  0  0  0  0  0  0  0  0  0
   -1.2265   22.9573  -26.2781 H   0  0  0  0  0  0  0  0  0  0  0  0
   -1.3128   25.6771  -29.5607 H   0  0  0  0  0  0  0  0  0  0  0  0
   -7.6063   23.9940  -30.6128 H   0  0  0  0  0  0  0  0  0  0  0  0
   -9.7491   22.7391  -30.8201 H   0  0  0  0  0  0  0  0  0  0  0  0
   -9.8015   20.5175  -31.9493 H   0  0  0  0  0  0  0  0  0  0  0  0
   -7.7008   19.5216  -32.8482 H   0  0  0  0  0  0  0  0  0  0  0  0
   -1.7389   22.3652  -33.2843 H   0  0  0  0  0  0  0  0  0  0  0  0
    1.0960   21.7776  -33.2954 H   0  0  0  0  0  0  0  0  0  0  0  0
    1.3434   20.8624  -34.8211 H   0  0  0  0  0  0  0  0  0  0  0  0
    0.3442   22.3551  -34.8211 H   0  0  0  0  0  0  0  0  0  0  0  0
  1  2  1  0
  2  3  2  0
  3  4  1  0
  4  5  2  0
  5  6  1  0
  6  7  2  0
  7  8  1  0
  8  9  1  0
  9 10  2  0
  9 11  1  0
 11 12  1  0
 12 13  2  0
 13 14  1  0
 14 15  2  0
 15 16  1  0
 16 17  2  0
  8 18  2  0
 18 19  1  0
 19 20  2  0
 20 21  1  0
 21 22  2  0
 22 23  1  0
 23 24  2  0
  5 25  1  0
 25 26  2  0
 26 27  1  0
 26  2  1  0
 24  6  1  0
 17 12  1  0
 23 18  1  0
  1 28  1  0
  1 29  1  0
  1 30  1  0
  3 31  1  0
  4 32  1  0
  7 33  1  0
 13 34  1  0
 14 35  1  0
 15 36  1  0
 17 37  1  0
 19 38  1  0
 20 39  1  0
 21 40  1  0
 22 41  1  0
 25 42  1  0
 27 43  1  0
 27 44  1  0
 27 45  1  0
M  CHG  1  11  -1
M  END
>  <UniqueID>  (36) 
35

>  <SMILES>  (36) 
Cc1ccc(-c2cc(C(=O)[N-]c3cccnc3)c3ccccc3n2)cc1C

>  <Energy>  (36) 
67.78203528057877

>  <Genealogy>  (36) 
Cc1ccc(-c2cc(C(=O)[N-]c3cccnc3)c3ccccc3n2)cc1C (protonated)
Cc1ccc(-c2cc(C(=O)[N-]c3cccnc3)c3ccccc3n2)cc1C (3D coordinates assigned)
Cc1ccc(-c2cc(C(=O)[N-]c3cccnc3)c3ccccc3n2)cc1C (optimized conformer: 67.78203528057877 kcal/mol)

>  <smiles>  (36) 
Cc1ccc(-c2cc(C(=O)Nc3cccnc3)c3ccccc3n2)cc1C

>  <score_type>  (36) 
oracle

>  <origin>  (36) 
adgpu

>  <m_score__min__energy>  (36) 
-10.449999999999999

>  <m_primary>  (36) 
energy

$$$$
36:0
     RDKit          3D

 35 37  0  0  0  0  0  0  0  0999 V2000
   -4.5678   13.9134  -34.8050 H   0  0  0  0  0  0  0  0  0  0  0  0
   -4.7840   14.7330  -34.1040 C   0  0  0  0  0  0  0  0  0  0  0  0
   -5.1070   15.9660  -34.5780 N   0  0  0  0  0  0  0  0  0  0  0  0
   -5.3940   17.0120  -33.7550 C   0  0  0  0  0  0  0  0  0  0  0  0
   -5.6830   18.1630  -34.2940 N   0  0  0  0  0  0  0  0  0  0  0  0
   -6.1000   19.3620  -33.6220 C   0  0  0  0  0  0  0  0  0  0  0  0
   -7.3870   19.4260  -33.0760 C   0  0  0  0  0  0  0  0  0  0  0  0
   -8.0748   18.5758  -33.1947 H   0  0  0  0  0  0  0  0  0  0  0  0
   -7.8030   20.5660  -32.3800 C   0  0  0  0  0  0  0  0  0  0  0  0
   -8.8224   20.6171  -31.9700 H   0  0  0  0  0  0  0  0  0  0  0  0
   -6.9240   21.6430  -32.2040 C   0  0  0  0  0  0  0  0  0  0  0  0
   -7.4490   23.0920  -31.3510 S   0  0  0  0  0  0  0  0  0  0  0  0
   -7.6340   22.7610  -29.8980 O   0  0  0  0  0  0  0  0  0  0  0  0
   -8.7500   23.5920  -31.9110 O   0  0  0  0  0  0  0  0  0  0  0  0
   -6.2510   24.3400  -31.5020 N   0  0  0  0  0  0  0  0  0  0  0  0
   -5.2060   24.4490  -30.7380 C   0  0  0  0  0  0  0  0  0  0  0  0
   -4.3030   25.4360  -30.8750 N   0  0  0  0  0  0  0  0  0  0  0  0
   -3.4080   25.2470  -29.9490 O   0  0  0  0  0  0  0  0  0  0  0  0
   -3.6900   24.1860  -29.2260 C   0  0  0  0  0  0  0  0  0  0  0  0
   -2.8760   23.7080  -28.0720 C   0  0  0  0  0  0  0  0  0  0  0  0
   -3.3680   23.9969  -27.1316 H   0  0  0  0  0  0  0  0  0  0  0  0
   -2.7845   22.6127  -28.1165 H   0  0  0  0  0  0  0  0  0  0  0  0
   -1.8749   24.1617  -28.1165 H   0  0  0  0  0  0  0  0  0  0  0  0
   -4.8570   23.6170  -29.6890 C   0  0  0  0  0  0  0  0  0  0  0  0
   -5.3805   22.7239  -29.3171 H   0  0  0  0  0  0  0  0  0  0  0  0
   -5.6200   21.5630  -32.7100 C   0  0  0  0  0  0  0  0  0  0  0  0
   -4.9204   22.3982  -32.5582 H   0  0  0  0  0  0  0  0  0  0  0  0
   -5.2060   20.4250  -33.4070 C   0  0  0  0  0  0  0  0  0  0  0  0
   -4.1764   20.3608  -33.7889 H   0  0  0  0  0  0  0  0  0  0  0  0
   -5.3250   16.8200  -32.3580 C   0  0  0  0  0  0  0  0  0  0  0  0
   -5.5294   17.6556  -31.6724 H   0  0  0  0  0  0  0  0  0  0  0  0
   -4.9950   15.5600  -31.8540 C   0  0  0  0  0  0  0  0  0  0  0  0
   -4.9465   15.3976  -30.7671 H   0  0  0  0  0  0  0  0  0  0  0  0
   -4.7270   14.5080  -32.7290 C   0  0  0  0  0  0  0  0  0  0  0  0
   -4.4733   13.5113  -32.3388 H   0  0  0  0  0  0  0  0  0  0  0  0
  1  2  1  0
  2  3  1  0
  3  4  1  0
  4  5  2  3
  5  6  1  0
  6  7  2  0
  7  8  1  0
  7  9  1  0
  9 10  1  0
  9 11  2  0
 11 12  1  0
 12 13  2  0
 12 14  2  0
 12 15  1  0
 15 16  2  0
 16 17  1  0
 17 18  1  0
 18 19  1  0
 19 20  1  0
 20 21  1  0
 20 22  1  0
 20 23  1  0
 19 24  2  0
 24 25  1  0
 11 26  1  0
 26 27  1  0
 26 28  2  0
 28 29  1  0
  4 30  1  0
 30 31  1  0
 30 32  2  0
 32 33  1  0
 32 34  1  0
 34 35  1  0
 34  2  2  0
 28  6  1  0
 24 16  1  0
M  CHG  2   3  -1  17  -1
M  END
>  <UniqueID>  (37) 
36

>  <SMILES>  (37) 
Cc1c/c(=N\S(=O)(=O)c2ccc(N=c3cccc[n-]3)cc2)[n-]o1

>  <Energy>  (37) 
80.6403889311991

>  <Genealogy>  (37) 
Cc1cc(=NS(=O)(=O)c2ccc(N=c3cccc[n-]3)cc2)[n-]o1 (protonated)
Cc1c/c(=N\S(=O)(=O)c2ccc(N=c3cccc[n-]3)cc2)[n-]o1 (cis-trans isomerization)
Cc1c/c(=N\S(=O)(=O)c2ccc(N=c3cccc[n-]3)cc2)[n-]o1 (3D coordinates assigned)
Cc1c/c(=N\S(=O)(=O)c2ccc(N=c3cccc[n-]3)cc2)[n-]o1 (optimized conformer: 80.6403889311991 kcal/mol)

>  <smiles>  (37) 
Cc1cc(=NS(=O)(=O)c2ccc(N=c3cccc[nH]3)cc2)[nH]o1

>  <score_type>  (37) 
oracle

>  <origin>  (37) 
adgpu

>  <m_score__min__energy>  (37) 
-10.56

>  <m_primary>  (37) 
energy

$$$$
37:0
     RDKit          3D

 33 34  0  0  0  0  0  0  0  0999 V2000
   -3.4950   17.9400  -33.7350 H   0  0  0  0  0  0  0  0  0  0  0  0
   -4.3020   18.3400  -34.1940 O   0  0  0  0  0  0  0  0  0  0  0  0
   -5.2910   19.0590  -33.5170 C   0  0  0  0  0  0  0  0  0  0  0  0
   -5.0880   20.4030  -33.1260 C   0  0  0  0  0  0  0  0  0  0  0  0
   -3.7940   21.1110  -33.4190 C   0  0  0  0  0  0  0  0  0  0  0  0
   -3.3012   21.3806  -32.4732 H   0  0  0  0  0  0  0  0  0  0  0  0
   -3.1360   20.4472  -33.9990 H   0  0  0  0  0  0  0  0  0  0  0  0
   -3.9982   22.0230  -33.9990 H   0  0  0  0  0  0  0  0  0  0  0  0
   -6.1110   21.0880  -32.4520 C   0  0  0  0  0  0  0  0  0  0  0  0
   -5.9477   22.1265  -32.1283 H   0  0  0  0  0  0  0  0  0  0  0  0
   -7.3400   20.4640  -32.1860 C   0  0  0  0  0  0  0  0  0  0  0  0
   -8.4240   21.1690  -31.4650 C   0  0  0  0  0  0  0  0  0  0  0  0
   -9.4416   20.7618  -31.5583 H   0  0  0  0  0  0  0  0  0  0  0  0
   -8.2650   22.2660  -30.7060 C   0  0  0  0  0  0  0  0  0  0  0  0
   -9.1323   22.6062  -30.1212 H   0  0  0  0  0  0  0  0  0  0  0  0
   -7.0170   23.0540  -30.5930 C   0  0  0  0  0  0  0  0  0  0  0  0
   -5.9850   22.6780  -29.7140 C   0  0  0  0  0  0  0  0  0  0  0  0
   -6.1032   21.7866  -29.0804 H   0  0  0  0  0  0  0  0  0  0  0  0
   -4.8100   23.4320  -29.6420 C   0  0  0  0  0  0  0  0  0  0  0  0
   -4.0140   23.1437  -28.9396 H   0  0  0  0  0  0  0  0  0  0  0  0
   -4.6460   24.5520  -30.4620 C   0  0  0  0  0  0  0  0  0  0  0  0
   -3.4770   25.3010  -30.3890 O   0  0  0  0  0  0  0  0  0  0  0  0
   -5.6530   24.9150  -31.3600 C   0  0  0  0  0  0  0  0  0  0  0  0
   -5.5194   25.7921  -32.0102 H   0  0  0  0  0  0  0  0  0  0  0  0
   -6.8310   24.1640  -31.4330 C   0  0  0  0  0  0  0  0  0  0  0  0
   -7.6152   24.4442  -32.1517 H   0  0  0  0  0  0  0  0  0  0  0  0
   -7.5220   19.1250  -32.5480 C   0  0  0  0  0  0  0  0  0  0  0  0
   -8.4684   18.6195  -32.3056 H   0  0  0  0  0  0  0  0  0  0  0  0
   -6.5100   18.4200  -33.2170 C   0  0  0  0  0  0  0  0  0  0  0  0
   -6.7310   16.9890  -33.6210 C   0  0  0  0  0  0  0  0  0  0  0  0
   -6.8274   16.3645  -32.7206 H   0  0  0  0  0  0  0  0  0  0  0  0
   -7.6513   16.9148  -34.2190 H   0  0  0  0  0  0  0  0  0  0  0  0
   -5.8760   16.6406  -34.2190 H   0  0  0  0  0  0  0  0  0  0  0  0
  1  2  1  0
  2  3  1  0
  3  4  2  0
  4  5  1  0
  5  6  1  0
  5  7  1  0
  5  8  1  0
  4  9  1  0
  9 10  1  0
  9 11  2  0
 11 12  1  0
 12 13  1  0
 12 14  2  0
 14 15  1  0
 14 16  1  0
 16 17  2  0
 17 18  1  0
 17 19  1  0
 19 20  1  0
 19 21  2  0
 21 22  1  0
 21 23  1  0
 23 24  1  0
 23 25  2  0
 25 26  1  0
 11 27  1  0
 27 28  1  0
 27 29  2  0
 29 30  1  0
 30 31  1  0
 30 32  1  0
 30 33  1  0
 29  3  1  0
 25 16  1  0
M  CHG  1  22  -1
M  END
>  <UniqueID>  (38) 
37

>  <SMILES>  (38) 
Cc1cc(/C=C\c2ccc([O-])cc2)cc(C)c1O

>  <Energy>  (38) 
43.114219955930054

>  <Genealogy>  (38) 
Cc1cc(C=Cc2ccc([O-])cc2)cc(C)c1O (protonated)
Cc1cc(/C=C\c2ccc([O-])cc2)cc(C)c1O (cis-trans isomerization)
Cc1cc(/C=C\c2ccc([O-])cc2)cc(C)c1O (3D coordinates assigned)
Cc1cc(/C=C\c2ccc([O-])cc2)cc(C)c1O (optimized conformer: 43.114219955930054 kcal/mol)

>  <smiles>  (38) 
Cc1cc(C=Cc2ccc(O)cc2)cc(C)c1O

>  <score_type>  (38) 
oracle

>  <origin>  (38) 
adgpu

>  <m_score__min__energy>  (38) 
-10.52

>  <m_primary>  (38) 
energy

$$$$
38:0
     RDKit          3D

 33 34  0  0  0  0  0  0  0  0999 V2000
   -0.9100   22.3510  -26.4100 C   0  0  0  0  0  0  0  0  0  0  0  0
   -0.0140   23.4170  -26.1130 O   0  0  0  0  0  0  0  0  0  0  0  0
   -0.4120   24.7140  -25.7490 C   0  0  0  0  0  0  0  0  0  0  0  0
   -0.5720   25.0930  -24.4010 C   0  0  0  0  0  0  0  0  0  0  0  0
   -0.9740   26.3900  -24.0740 C   0  0  0  0  0  0  0  0  0  0  0  0
   -1.2170   27.3220  -25.0810 C   0  0  0  0  0  0  0  0  0  0  0  0
   -1.0600   26.9640  -26.4210 C   0  0  0  0  0  0  0  0  0  0  0  0
   -0.6580   25.6620  -26.7660 C   0  0  0  0  0  0  0  0  0  0  0  0
   -0.5150   25.2810  -28.2190 C   0  0  0  0  0  0  0  0  0  0  0  0
   -1.7070   25.6680  -28.9690 N   0  0  0  0  0  0  0  0  0  0  0  0
   -2.7680   24.7660  -29.2890 C   0  0  0  0  0  0  0  0  0  0  0  0
   -3.0090   23.8040  -28.5140 O   0  0  0  0  0  0  0  0  0  0  0  0
   -3.5800   24.9910  -30.4500 N   0  0  0  0  0  0  0  0  0  0  0  0
   -4.7620   24.2720  -30.8300 C   0  0  0  0  0  0  0  0  0  0  0  0
   -4.7020   23.0820  -31.5800 C   0  0  0  0  0  0  0  0  0  0  0  0
   -5.8800   22.4240  -31.9490 C   0  0  0  0  0  0  0  0  0  0  0  0
   -7.1220   22.9520  -31.5860 C   0  0  0  0  0  0  0  0  0  0  0  0
   -7.1880   24.1440  -30.8620 C   0  0  0  0  0  0  0  0  0  0  0  0
   -6.0140   24.8080  -30.4920 C   0  0  0  0  0  0  0  0  0  0  0  0
   -6.0940   25.9670  -29.7920 F   0  0  0  0  0  0  0  0  0  0  0  0
   -1.2799   21.9109  -25.4722 H   0  0  0  0  0  0  0  0  0  0  0  0
   -1.7587   22.7372  -26.9936 H   0  0  0  0  0  0  0  0  0  0  0  0
   -0.3836   21.5814  -26.9936 H   0  0  0  0  0  0  0  0  0  0  0  0
   -0.3790   24.3627  -23.6014 H   0  0  0  0  0  0  0  0  0  0  0  0
   -1.0990   26.6764  -23.0193 H   0  0  0  0  0  0  0  0  0  0  0  0
   -1.5334   28.3425  -24.8193 H   0  0  0  0  0  0  0  0  0  0  0  0
   -1.2519   27.7047  -27.2112 H   0  0  0  0  0  0  0  0  0  0  0  0
    0.3615   25.7930  -28.6429 H   0  0  0  0  0  0  0  0  0  0  0  0
   -0.3884   24.1906  -28.2901 H   0  0  0  0  0  0  0  0  0  0  0  0
   -3.7266   22.6688  -31.8765 H   0  0  0  0  0  0  0  0  0  0  0  0
   -5.8286   21.4890  -32.5261 H   0  0  0  0  0  0  0  0  0  0  0  0
   -8.0469   22.4289  -31.8705 H   0  0  0  0  0  0  0  0  0  0  0  0
   -8.1661   24.5621  -30.5818 H   0  0  0  0  0  0  0  0  0  0  0  0
  1  2  1  0
  2  3  1  0
  3  4  2  0
  4  5  1  0
  5  6  2  0
  6  7  1  0
  7  8  2  0
  8  9  1  0
  9 10  1  0
 10 11  1  0
 11 12  2  0
 11 13  1  0
 13 14  1  0
 14 15  2  0
 15 16  1  0
 16 17  2  0
 17 18  1  0
 18 19  2  0
 19 20  1  0
  8  3  1  0
 19 14  1  0
  1 21  1  0
  1 22  1  0
  1 23  1  0
  4 24  1  0
  5 25  1  0
  6 26  1  0
  7 27  1  0
  9 28  1  0
  9 29  1  0
 15 30  1  0
 16 31  1  0
 17 32  1  0
 18 33  1  0
M  CHG  2  10  -1  13  -1
M  END
>  <UniqueID>  (39) 
38

>  <SMILES>  (39) 
COc1ccccc1C[N-]C(=O)[N-]c1ccccc1F

>  <Energy>  (39) 
33.72223513664756

>  <Genealogy>  (39) 
COc1ccccc1C[N-]C(=O)[N-]c1ccccc1F (protonated)
COc1ccccc1C[N-]C(=O)[N-]c1ccccc1F (3D coordinates assigned)
COc1ccccc1C[N-]C(=O)[N-]c1ccccc1F (optimized conformer: 33.72223513664756 kcal/mol)

>  <smiles>  (39) 
COc1ccccc1CNC(=O)Nc1ccccc1F

>  <score_type>  (39) 
oracle

>  <origin>  (39) 
adgpu

>  <m_score__min__energy>  (39) 
-9.4600000000000009

>  <m_primary>  (39) 
energy

$$$$
39:0
     RDKit          3D

 40 42  0  0  0  0  0  0  0  0999 V2000
   -4.7760   20.5800  -32.0880 C   0  0  0  0  0  0  0  0  0  0  0  0
   -5.2010   21.9420  -31.6080 C   0  0  0  0  0  0  0  0  0  0  0  0
   -4.2090   22.8350  -31.1680 C   0  0  0  0  0  0  0  0  0  0  0  0
   -4.5390   24.1390  -30.7800 C   0  0  0  0  0  0  0  0  0  0  0  0
   -3.5280   25.0730  -30.3850 N   0  0  0  0  0  0  0  0  0  0  0  0
   -2.5720   24.8710  -29.3340 C   0  0  0  0  0  0  0  0  0  0  0  0
   -1.5690   25.6290  -29.2760 O   0  0  0  0  0  0  0  0  0  0  0  0
   -2.7020   23.7570  -28.3230 C   0  0  0  0  0  0  0  0  0  0  0  0
   -1.9920   24.0800  -27.0320 C   0  0  0  0  0  0  0  0  0  0  0  0
   -1.0320   23.1980  -26.5070 C   0  0  0  0  0  0  0  0  0  0  0  0
   -0.3490   23.5180  -25.3320 C   0  0  0  0  0  0  0  0  0  0  0  0
   -0.6270   24.7110  -24.6600 C   0  0  0  0  0  0  0  0  0  0  0  0
   -1.5960   25.5910  -25.1600 C   0  0  0  0  0  0  0  0  0  0  0  0
   -1.8840   26.8110  -24.4720 N   0  0  0  0  0  0  0  0  0  0  0  0
   -2.2790   25.2710  -26.3430 C   0  0  0  0  0  0  0  0  0  0  0  0
   -5.8760   24.5370  -30.7670 C   0  0  0  0  0  0  0  0  0  0  0  0
   -6.8770   23.6570  -31.1780 C   0  0  0  0  0  0  0  0  0  0  0  0
   -6.5600   22.3520  -31.5940 C   0  0  0  0  0  0  0  0  0  0  0  0
   -7.6680   21.4590  -32.0080 C   0  0  0  0  0  0  0  0  0  0  0  0
   -8.9950   21.5030  -31.6140 C   0  0  0  0  0  0  0  0  0  0  0  0
   -9.6840   20.5560  -32.2780 N   0  0  0  0  0  0  0  0  0  0  0  0
   -8.8400   19.9230  -33.0770 N   0  0  0  0  0  0  0  0  0  0  0  0
   -7.6110   20.4500  -32.9480 C   0  0  0  0  0  0  0  0  0  0  0  0
   -4.5740   19.9326  -31.2220 H   0  0  0  0  0  0  0  0  0  0  0  0
   -5.5791   20.1386  -32.6964 H   0  0  0  0  0  0  0  0  0  0  0  0
   -3.8644   20.6736  -32.6964 H   0  0  0  0  0  0  0  0  0  0  0  0
   -3.1603   22.5053  -31.1280 H   0  0  0  0  0  0  0  0  0  0  0  0
   -3.7687   23.5931  -28.1103 H   0  0  0  0  0  0  0  0  0  0  0  0
   -2.2383   22.8553  -28.7494 H   0  0  0  0  0  0  0  0  0  0  0  0
   -0.8177   22.2511  -27.0242 H   0  0  0  0  0  0  0  0  0  0  0  0
    0.4103   22.8287  -24.9341 H   0  0  0  0  0  0  0  0  0  0  0  0
   -0.0840   24.9600  -23.7364 H   0  0  0  0  0  0  0  0  0  0  0  0
   -1.6180   27.7340  -24.8840 H   0  0  0  0  0  0  0  0  0  0  0  0
   -2.3640   26.8000  -23.5450 H   0  0  0  0  0  0  0  0  0  0  0  0
   -3.0446   25.9572  -26.7341 H   0  0  0  0  0  0  0  0  0  0  0  0
   -6.1421   25.5500  -30.4309 H   0  0  0  0  0  0  0  0  0  0  0  0
   -7.9261   23.9877  -31.1766 H   0  0  0  0  0  0  0  0  0  0  0  0
   -9.4184   22.2004  -30.8762 H   0  0  0  0  0  0  0  0  0  0  0  0
   -9.1080   19.1400  -33.7140 H   0  0  0  0  0  0  0  0  0  0  0  0
   -6.7128   20.1318  -33.4976 H   0  0  0  0  0  0  0  0  0  0  0  0
  1  2  1  0
  2  3  2  0
  3  4  1  0
  4  5  1  0
  5  6  1  0
  6  7  2  0
  6  8  1  0
  8  9  1  0
  9 10  2  0
 10 11  1  0
 11 12  2  0
 12 13  1  0
 13 14  1  0
 13 15  2  0
  4 16  2  0
 16 17  1  0
 17 18  2  0
 18 19  1  0
 19 20  1  0
 20 21  2  0
 21 22  1  0
 22 23  1  0
 18  2  1  0
 23 19  2  0
 15  9  1  0
  1 24  1  0
  1 25  1  0
  1 26  1  0
  3 27  1  0
  8 28  1  0
  8 29  1  0
 10 30  1  0
 11 31  1  0
 12 32  1  0
 14 33  1  0
 14 34  1  0
 15 35  1  0
 16 36  1  0
 17 37  1  0
 20 38  1  0
 22 39  1  0
 23 40  1  0
M  CHG  1   5  -1
M  END
>  <UniqueID>  (40) 
39

>  <SMILES>  (40) 
Cc1cc([N-]C(=O)Cc2cccc(N)c2)ccc1-c1cn[nH]c1

>  <Energy>  (40) 
79.38245168834821

>  <Genealogy>  (40) 
Cc1cc([N-]C(=O)Cc2cccc(N)c2)ccc1-c1cn[nH]c1 (protonated)
Cc1cc([N-]C(=O)Cc2cccc(N)c2)ccc1-c1cn[nH]c1 (3D coordinates assigned)
Cc1cc([N-]C(=O)Cc2cccc(N)c2)ccc1-c1cn[nH]c1 (optimized conformer: 79.38245168834821 kcal/mol)

>  <smiles>  (40) 
Cc1cc(NC(=O)Cc2cccc(N)c2)ccc1-c1cn[nH]c1

>  <score_type>  (40) 
oracle

>  <origin>  (40) 
adgpu

>  <m_score__min__energy>  (40) 
-10.68

>  <m_primary>  (40) 
energy

$$$$
40:0
     RDKit          3D

 47 49  0  0  0  0  0  0  0  0999 V2000
   -9.3920   21.9570  -31.3010 C   0  0  0  0  0  0  0  0  0  0  0  0
   -8.5930   20.8220  -31.8670 C   0  0  0  0  0  0  0  0  0  0  0  0
   -9.0430   19.5000  -31.7130 C   0  0  0  0  0  0  0  0  0  0  0  0
   -8.2800   18.4360  -32.2020 C   0  0  0  0  0  0  0  0  0  0  0  0
   -7.0560   18.6810  -32.8410 C   0  0  0  0  0  0  0  0  0  0  0  0
   -6.0690   17.3330  -33.3950 S   0  0  0  0  0  0  0  0  0  0  0  0
   -5.7810   16.3940  -32.2570 O   0  0  0  0  0  0  0  0  0  0  0  0
   -6.8020   16.5730  -34.4680 O   0  0  0  0  0  0  0  0  0  0  0  0
   -4.5870   17.9500  -34.0400 N   0  0  0  0  0  0  0  0  0  0  0  0
   -3.5200   17.0560  -34.3700 C   0  0  0  0  0  0  0  0  0  0  0  0
   -3.8310   15.8600  -35.0350 C   0  0  0  0  0  0  0  0  0  0  0  0
   -2.8250   14.9570  -35.3840 C   0  0  0  0  0  0  0  0  0  0  0  0
   -1.4970   15.2370  -35.0660 C   0  0  0  0  0  0  0  0  0  0  0  0
   -1.1710   16.4160  -34.3940 C   0  0  0  0  0  0  0  0  0  0  0  0
   -2.1700   17.3460  -34.0290 C   0  0  0  0  0  0  0  0  0  0  0  0
   -1.7820   18.5620  -33.2580 C   0  0  0  0  0  0  0  0  0  0  0  0
   -0.9250   18.4930  -32.3380 O   0  0  0  0  0  0  0  0  0  0  0  0
   -2.4090   19.8200  -33.5420 N   0  0  0  0  0  0  0  0  0  0  0  0
   -2.6170   20.8920  -32.6110 C   0  0  0  0  0  0  0  0  0  0  0  0
   -3.8160   21.6140  -32.6680 C   0  0  0  0  0  0  0  0  0  0  0  0
   -4.0470   22.6740  -31.7860 C   0  0  0  0  0  0  0  0  0  0  0  0
   -3.0680   23.0370  -30.8500 C   0  0  0  0  0  0  0  0  0  0  0  0
   -3.3710   24.3620  -29.7300 S   0  0  0  0  0  0  0  0  0  0  0  0
   -4.1750   25.6480  -30.5600 N   0  0  0  0  0  0  0  0  0  0  0  0
   -2.0690   24.8620  -29.1730 O   0  0  0  0  0  0  0  0  0  0  0  0
   -4.2310   23.8870  -28.5930 O   0  0  0  0  0  0  0  0  0  0  0  0
   -1.8590   22.3310  -30.8030 C   0  0  0  0  0  0  0  0  0  0  0  0
   -1.6300   21.2690  -31.6820 C   0  0  0  0  0  0  0  0  0  0  0  0
   -6.5930   19.9980  -32.9760 C   0  0  0  0  0  0  0  0  0  0  0  0
   -7.3570   21.0640  -32.4890 C   0  0  0  0  0  0  0  0  0  0  0  0
   -9.3620   21.9144  -30.2022 H   0  0  0  0  0  0  0  0  0  0  0  0
   -8.9657   22.9117  -31.6427 H   0  0  0  0  0  0  0  0  0  0  0  0
  -10.4346   21.8777  -31.6427 H   0  0  0  0  0  0  0  0  0  0  0  0
   -9.9988   19.3017  -31.2060 H   0  0  0  0  0  0  0  0  0  0  0  0
   -8.6407   17.4034  -32.0853 H   0  0  0  0  0  0  0  0  0  0  0  0
   -4.4100   18.9780  -34.0050 H   0  0  0  0  0  0  0  0  0  0  0  0
   -4.8779   15.6317  -35.2838 H   0  0  0  0  0  0  0  0  0  0  0  0
   -3.0802   14.0250  -35.9097 H   0  0  0  0  0  0  0  0  0  0  0  0
   -0.7044   14.5273  -35.3453 H   0  0  0  0  0  0  0  0  0  0  0  0
   -0.1201   16.6244  -34.1447 H   0  0  0  0  0  0  0  0  0  0  0  0
   -4.5808   21.3453  -33.4115 H   0  0  0  0  0  0  0  0  0  0  0  0
   -4.9986   23.2243  -31.8264 H   0  0  0  0  0  0  0  0  0  0  0  0
   -3.4890   26.0560  -31.2320 H   0  0  0  0  0  0  0  0  0  0  0  0
   -1.0873   22.6135  -30.0718 H   0  0  0  0  0  0  0  0  0  0  0  0
   -0.6742   20.7256  -31.6474 H   0  0  0  0  0  0  0  0  0  0  0  0
   -5.6275   20.1931  -33.4656 H   0  0  0  0  0  0  0  0  0  0  0  0
   -6.9886   22.0952  -32.5935 H   0  0  0  0  0  0  0  0  0  0  0  0
  1  2  1  0
  2  3  2  0
  3  4  1  0
  4  5  2  0
  5  6  1  0
  6  7  2  0
  6  8  2  0
  6  9  1  0
  9 10  1  0
 10 11  2  0
 11 12  1  0
 12 13  2  0
 13 14  1  0
 14 15  2  0
 15 16  1  0
 16 17  2  0
 16 18  1  0
 18 19  1  0
 19 20  2  0
 20 21  1  0
 21 22  2  0
 22 23  1  0
 23 24  1  0
 23 25  2  0
 23 26  2  0
 22 27  1  0
 27 28  2  0
  5 29  1  0
 29 30  2  0
 30  2  1  0
 15 10  1  0
 28 19  1  0
  1 31  1  0
  1 32  1  0
  1 33  1  0
  3 34  1  0
  4 35  1  0
  9 36  1  0
 11 37  1  0
 12 38  1  0
 13 39  1  0
 14 40  1  0
 20 41  1  0
 21 42  1  0
 24 43  1  0
 27 44  1  0
 28 45  1  0
 29 46  1  0
 30 47  1  0
M  CHG  2  18  -1  24  -1
M  END
>  <UniqueID>  (41) 
40

>  <SMILES>  (41) 
Cc1ccc(S(=O)(=O)Nc2ccccc2C(=O)[N-]c2ccc(S([NH-])(=O)=O)cc2)cc1

>  <Energy>  (41) 
59.99434022443094

>  <Genealogy>  (41) 
Cc1ccc(S(=O)(=O)Nc2ccccc2C(=O)[N-]c2ccc(S([NH-])(=O)=O)cc2)cc1 (protonated)
Cc1ccc(S(=O)(=O)Nc2ccccc2C(=O)[N-]c2ccc(S([NH-])(=O)=O)cc2)cc1 (3D coordinates assigned)
Cc1ccc(S(=O)(=O)Nc2ccccc2C(=O)[N-]c2ccc(S([NH-])(=O)=O)cc2)cc1 (optimized conformer: 59.99434022443094 kcal/mol)

>  <smiles>  (41) 
Cc1ccc(S(=O)(=O)Nc2ccccc2C(=O)Nc2ccc(S(N)(=O)=O)cc2)cc1

>  <score_type>  (41) 
oracle

>  <origin>  (41) 
adgpu

>  <m_score__min__energy>  (41) 
-12.23

>  <m_primary>  (41) 
energy

$$$$
41:0
     RDKit          3D

 38 38  0  0  0  0  0  0  0  0999 V2000
   -3.2160   25.2940  -30.1000 O   0  0  0  0  0  0  0  0  0  0  0  0
   -4.4400   24.7450  -30.4630 C   0  0  0  0  0  0  0  0  0  0  0  0
   -4.4830   23.5560  -31.1980 C   0  0  0  0  0  0  0  0  0  0  0  0
   -5.7140   23.0020  -31.5630 C   0  0  0  0  0  0  0  0  0  0  0  0
   -6.9140   23.6250  -31.1800 C   0  0  0  0  0  0  0  0  0  0  0  0
   -8.2460   23.0330  -31.5780 C   0  0  0  0  0  0  0  0  0  0  0  0
   -8.3470   21.5190  -31.2980 C   0  0  0  0  0  0  0  0  0  0  0  0
   -8.6570   20.6570  -32.5440 C   0  0  0  0  0  0  0  0  0  0  0  0
   -7.6700   19.5800  -32.8210 N   0  0  0  0  0  0  0  0  0  0  0  0
   -7.9310   18.3890  -31.9650 C   0  0  0  0  0  0  0  0  0  0  0  0
   -7.2210   17.1270  -32.4850 C   0  0  0  0  0  0  0  0  0  0  0  0
   -7.1080   17.1760  -33.8810 O   0  0  0  0  0  0  0  0  0  0  0  0
   -6.2510   20.0210  -32.7110 C   0  0  0  0  0  0  0  0  0  0  0  0
   -5.3330   19.5610  -33.8650 C   0  0  0  0  0  0  0  0  0  0  0  0
   -6.0780   19.2260  -35.0050 O   0  0  0  0  0  0  0  0  0  0  0  0
   -6.8610   24.8320  -30.4620 C   0  0  0  0  0  0  0  0  0  0  0  0
   -5.6290   25.3840  -30.0990 C   0  0  0  0  0  0  0  0  0  0  0  0
   -3.5475   23.0560  -31.4893 H   0  0  0  0  0  0  0  0  0  0  0  0
   -5.7432   22.0740  -32.1528 H   0  0  0  0  0  0  0  0  0  0  0  0
   -9.0390   23.5463  -31.0144 H   0  0  0  0  0  0  0  0  0  0  0  0
   -8.3540   23.1723  -32.6638 H   0  0  0  0  0  0  0  0  0  0  0  0
   -7.3881   21.1825  -30.8770 H   0  0  0  0  0  0  0  0  0  0  0  0
   -9.1910   21.3839  -30.6056 H   0  0  0  0  0  0  0  0  0  0  0  0
   -9.6419   20.1890  -32.3994 H   0  0  0  0  0  0  0  0  0  0  0  0
   -8.6212   21.3380  -33.4071 H   0  0  0  0  0  0  0  0  0  0  0  0
   -7.7970   19.2780  -33.8130 H   0  0  0  0  0  0  0  0  0  0  0  0
   -7.5741   18.6009  -30.9463 H   0  0  0  0  0  0  0  0  0  0  0  0
   -9.0137   18.1954  -31.9802 H   0  0  0  0  0  0  0  0  0  0  0  0
   -6.2164   17.0662  -32.0410 H   0  0  0  0  0  0  0  0  0  0  0  0
   -7.8101   16.2418  -32.2033 H   0  0  0  0  0  0  0  0  0  0  0  0
   -6.1420   17.2750  -34.0860 H   0  0  0  0  0  0  0  0  0  0  0  0
   -6.2367   21.1205  -32.6812 H   0  0  0  0  0  0  0  0  0  0  0  0
   -5.8539   19.5541  -31.7976 H   0  0  0  0  0  0  0  0  0  0  0  0
   -4.6386   20.3759  -34.1173 H   0  0  0  0  0  0  0  0  0  0  0  0
   -4.7813   18.6682  -33.5355 H   0  0  0  0  0  0  0  0  0  0  0  0
   -6.7750   18.5840  -34.7120 H   0  0  0  0  0  0  0  0  0  0  0  0
   -7.7936   25.3449  -30.1843 H   0  0  0  0  0  0  0  0  0  0  0  0
   -5.5951   26.3225  -29.5262 H   0  0  0  0  0  0  0  0  0  0  0  0
  1  2  1  0
  2  3  2  0
  3  4  1  0
  4  5  2  0
  5  6  1  0
  6  7  1  0
  7  8  1  0
  8  9  1  0
  9 10  1  0
 10 11  1  0
 11 12  1  0
  9 13  1  0
 13 14  1  0
 14 15  1  0
  5 16  1  0
 16 17  2  0
 17  2  1  0
  3 18  1  0
  4 19  1  0
  6 20  1  0
  6 21  1  0
  7 22  1  0
  7 23  1  0
  8 24  1  0
  8 25  1  0
  9 26  1  0
 10 27  1  0
 10 28  1  0
 11 29  1  0
 11 30  1  0
 12 31  1  0
 13 32  1  0
 13 33  1  0
 14 34  1  0
 14 35  1  0
 15 36  1  0
 16 37  1  0
 17 38  1  0
M  CHG  2   1  -1   9   1
M  END
>  <UniqueID>  (42) 
41

>  <SMILES>  (42) 
[O-]c1ccc(CCC[NH+](CCO)CCO)cc1

>  <Energy>  (42) 
39.26414527673944

>  <Genealogy>  (42) 
[O-]c1ccc(CCC[NH+](CCO)CCO)cc1 (protonated)
[O-]c1ccc(CCC[NH+](CCO)CCO)cc1 (3D coordinates assigned)
[O-]c1ccc(CCC[NH+](CCO)CCO)cc1 (optimized conformer: 39.26414527673944 kcal/mol)

>  <smiles>  (42) 
OCCN(CCO)CCCc1ccc(O)cc1

>  <score_type>  (42) 
oracle

>  <origin>  (42) 
adgpu

>  <m_score__min__energy>  (42) 
-8.0800000000000001

>  <m_primary>  (42) 
energy

$$$$
42:0
     RDKit          3D

 43 45  0  0  0  0  0  0  0  0999 V2000
   -4.8820   21.3613  -33.4303 H   0  0  0  0  0  0  0  0  0  0  0  0
   -5.5190   21.8860  -32.7030 C   0  0  0  0  0  0  0  0  0  0  0  0
   -4.9910   22.9350  -31.9440 C   0  0  0  0  0  0  0  0  0  0  0  0
   -3.9439   23.2410  -32.0851 H   0  0  0  0  0  0  0  0  0  0  0  0
   -5.7910   23.5970  -31.0050 C   0  0  0  0  0  0  0  0  0  0  0  0
   -5.1170   24.9090  -30.0430 S   0  0  0  0  0  0  0  0  0  0  0  0
   -4.0710   25.6160  -30.8570 O   0  0  0  0  0  0  0  0  0  0  0  0
   -6.1870   25.8940  -29.6610 O   0  0  0  0  0  0  0  0  0  0  0  0
   -4.3810   24.2800  -28.6010 N   0  0  0  0  0  0  0  0  0  0  0  0
   -3.1550   24.4790  -28.2090 C   0  0  0  0  0  0  0  0  0  0  0  0
   -2.7360   23.9030  -27.0040 C   0  0  0  0  0  0  0  0  0  0  0  0
   -3.4330   23.2900  -26.4137 H   0  0  0  0  0  0  0  0  0  0  0  0
   -1.4310   24.1090  -26.5540 C   0  0  0  0  0  0  0  0  0  0  0  0
   -1.0961   23.6596  -25.6075 H   0  0  0  0  0  0  0  0  0  0  0  0
   -0.5540   24.8860  -27.3080 C   0  0  0  0  0  0  0  0  0  0  0  0
    0.4759   25.0567  -26.9614 H   0  0  0  0  0  0  0  0  0  0  0  0
   -0.9960   25.4450  -28.5070 C   0  0  0  0  0  0  0  0  0  0  0  0
   -0.3101   26.0583  -29.1098 H   0  0  0  0  0  0  0  0  0  0  0  0
   -2.2720   25.2360  -28.9360 N   0  0  0  0  0  0  0  0  0  0  0  0
   -2.5450   25.6750  -29.8410 H   0  0  0  0  0  0  0  0  0  0  0  0
   -7.1260   23.2080  -30.8350 C   0  0  0  0  0  0  0  0  0  0  0  0
   -7.7589   23.7260  -30.0994 H   0  0  0  0  0  0  0  0  0  0  0  0
   -7.6560   22.1630  -31.5980 C   0  0  0  0  0  0  0  0  0  0  0  0
   -8.7042   21.8607  -31.4569 H   0  0  0  0  0  0  0  0  0  0  0  0
   -6.8620   21.4990  -32.5400 C   0  0  0  0  0  0  0  0  0  0  0  0
   -7.4310   20.4490  -33.2770 O   0  0  0  0  0  0  0  0  0  0  0  0
   -6.8680   19.1740  -33.4000 C   0  0  0  0  0  0  0  0  0  0  0  0
   -5.8230   18.9900  -34.3120 C   0  0  0  0  0  0  0  0  0  0  0  0
   -5.4546   19.8442  -34.8991 H   0  0  0  0  0  0  0  0  0  0  0  0
   -5.2440   17.7310  -34.4830 C   0  0  0  0  0  0  0  0  0  0  0  0
   -4.4332   17.5949  -35.2138 H   0  0  0  0  0  0  0  0  0  0  0  0
   -5.6930   16.6400  -33.7260 C   0  0  0  0  0  0  0  0  0  0  0  0
   -5.1020   15.2750  -33.9320 C   0  0  0  0  0  0  0  0  0  0  0  0
   -4.9012   14.8111  -32.9550 H   0  0  0  0  0  0  0  0  0  0  0  0
   -5.8102   14.6501  -34.4959 H   0  0  0  0  0  0  0  0  0  0  0  0
   -4.1617   15.3638  -34.4959 H   0  0  0  0  0  0  0  0  0  0  0  0
   -6.7340   16.8200  -32.8040 C   0  0  0  0  0  0  0  0  0  0  0  0
   -7.1032   15.9605  -32.2252 H   0  0  0  0  0  0  0  0  0  0  0  0
   -7.3100   18.0860  -32.6120 C   0  0  0  0  0  0  0  0  0  0  0  0
   -8.3970   18.2530  -31.5870 C   0  0  0  0  0  0  0  0  0  0  0  0
   -7.9632   18.1864  -30.5783 H   0  0  0  0  0  0  0  0  0  0  0  0
   -8.8752   19.2351  -31.7163 H   0  0  0  0  0  0  0  0  0  0  0  0
   -9.1480   17.4597  -31.7163 H   0  0  0  0  0  0  0  0  0  0  0  0
  1  2  1  0
  2  3  2  0
  3  4  1  0
  3  5  1  0
  5  6  1  0
  6  7  2  0
  6  8  2  0
  6  9  1  0
  9 10  2  0
 10 11  1  0
 11 12  1  0
 11 13  2  0
 13 14  1  0
 13 15  1  0
 15 16  1  0
 15 17  2  0
 17 18  1  0
 17 19  1  0
 19 20  1  0
  5 21  2  0
 21 22  1  0
 21 23  1  0
 23 24  1  0
 23 25  2  0
 25 26  1  0
 26 27  1  0
 27 28  2  0
 28 29  1  0
 28 30  1  0
 30 31  1  0
 30 32  2  0
 32 33  1  0
 33 34  1  0
 33 35  1  0
 33 36  1  0
 32 37  1  0
 37 38  1  0
 37 39  2  0
 39 40  1  0
 40 41  1  0
 40 42  1  0
 40 43  1  0
 25  2  1  0
 39 27  1  0
 19 10  1  0
M  END
>  <UniqueID>  (43) 
42

>  <SMILES>  (43) 
Cc1ccc(Oc2ccc(S(=O)(=O)/N=c3/cccc[nH]3)cc2)c(C)c1

>  <Energy>  (43) 
57.726330661488134

>  <Genealogy>  (43) 
Cc1ccc(Oc2ccc(S(=O)(=O)/N=c3/cccc[nH]3)cc2)c(C)c1 (cis-trans isomerization)
Cc1ccc(Oc2ccc(S(=O)(=O)/N=c3/cccc[nH]3)cc2)c(C)c1 (3D coordinates assigned)
Cc1ccc(Oc2ccc(S(=O)(=O)/N=c3/cccc[nH]3)cc2)c(C)c1 (optimized conformer: 57.726330661488134 kcal/mol)

>  <smiles>  (43) 
Cc1ccc(Oc2ccc(S(=O)(=O)N=c3cccc[nH]3)cc2)c(C)c1

>  <score_type>  (43) 
oracle

>  <origin>  (43) 
adgpu

>  <m_score__min__energy>  (43) 
-10.44

>  <m_primary>  (43) 
energy

$$$$
43:0
     RDKit          3D

 31 32  0  0  0  0  0  0  0  0999 V2000
   -7.7190   18.9100  -32.6470 C   0  0  0  0  0  0  0  0  0  0  0  0
   -7.2160   20.1480  -33.1310 O   0  0  0  0  0  0  0  0  0  0  0  0
   -6.8050   21.2600  -32.3730 C   0  0  0  0  0  0  0  0  0  0  0  0
   -5.4270   21.5160  -32.3580 C   0  0  0  0  0  0  0  0  0  0  0  0
   -4.9010   22.6040  -31.6600 C   0  0  0  0  0  0  0  0  0  0  0  0
   -5.7490   23.4610  -30.9550 C   0  0  0  0  0  0  0  0  0  0  0  0
   -5.1110   24.8800  -30.1240 S   0  0  0  0  0  0  0  0  0  0  0  0
   -3.8600   25.3230  -30.8270 O   0  0  0  0  0  0  0  0  0  0  0  0
   -6.1090   26.0040  -30.1720 O   0  0  0  0  0  0  0  0  0  0  0  0
   -4.7310   24.5110  -28.4640 N   0  0  0  0  0  0  0  0  0  0  0  0
   -3.4900   23.7340  -28.3490 C   0  0  0  0  0  0  0  0  0  0  0  0
   -2.2980   24.6050  -28.0710 C   0  0  0  0  0  0  0  0  0  0  0  0
   -1.3930   24.4330  -27.0430 C   0  0  0  0  0  0  0  0  0  0  0  0
   -0.4730   25.4490  -27.1860 C   0  0  0  0  0  0  0  0  0  0  0  0
   -0.8770   26.1820  -28.2820 C   0  0  0  0  0  0  0  0  0  0  0  0
   -1.9700   25.6570  -28.7870 O   0  0  0  0  0  0  0  0  0  0  0  0
   -7.1240   23.2080  -30.9360 C   0  0  0  0  0  0  0  0  0  0  0  0
   -7.6670   22.1240  -31.6380 C   0  0  0  0  0  0  0  0  0  0  0  0
   -9.4150   21.9410  -31.5380 Cl  0  0  0  0  0  0  0  0  0  0  0  0
   -7.7158   18.9178  -31.5470 H   0  0  0  0  0  0  0  0  0  0  0  0
   -8.7473   18.7651  -33.0097 H   0  0  0  0  0  0  0  0  0  0  0  0
   -7.0832   18.0889  -33.0097 H   0  0  0  0  0  0  0  0  0  0  0  0
   -4.7476   20.8470  -32.9065 H   0  0  0  0  0  0  0  0  0  0  0  0
   -3.8163   22.7870  -31.6651 H   0  0  0  0  0  0  0  0  0  0  0  0
   -4.6460   25.4090  -27.9350 H   0  0  0  0  0  0  0  0  0  0  0  0
   -3.5997   23.0111  -27.5272 H   0  0  0  0  0  0  0  0  0  0  0  0
   -3.3199   23.2259  -29.3097 H   0  0  0  0  0  0  0  0  0  0  0  0
   -1.4039   23.6492  -26.2713 H   0  0  0  0  0  0  0  0  0  0  0  0
    0.4068   25.6374  -26.5531 H   0  0  0  0  0  0  0  0  0  0  0  0
   -0.3620   27.0715  -28.6739 H   0  0  0  0  0  0  0  0  0  0  0  0
   -7.7890   23.8697  -30.3616 H   0  0  0  0  0  0  0  0  0  0  0  0
  1  2  1  0
  2  3  1  0
  3  4  2  0
  4  5  1  0
  5  6  2  0
  6  7  1  0
  7  8  2  0
  7  9  2  0
  7 10  1  0
 10 11  1  0
 11 12  1  0
 12 13  2  0
 13 14  1  0
 14 15  2  0
 15 16  1  0
  6 17  1  0
 17 18  2  0
 18 19  1  0
 18  3  1  0
 16 12  1  0
  1 20  1  0
  1 21  1  0
  1 22  1  0
  4 23  1  0
  5 24  1  0
 10 25  1  0
 11 26  1  0
 11 27  1  0
 13 28  1  0
 14 29  1  0
 15 30  1  0
 17 31  1  0
M  END
>  <UniqueID>  (44) 
43

>  <SMILES>  (44) 
COc1ccc(S(=O)(=O)NCc2ccco2)cc1Cl

>  <Energy>  (44) 
58.3131194832623

>  <Genealogy>  (44) 
COc1ccc(S(=O)(=O)NCc2ccco2)cc1Cl (3D coordinates assigned)
COc1ccc(S(=O)(=O)NCc2ccco2)cc1Cl (optimized conformer: 58.3131194832623 kcal/mol)

>  <smiles>  (44) 
COc1ccc(S(=O)(=O)NCc2ccco2)cc1Cl

>  <score_type>  (44) 
oracle

>  <origin>  (44) 
adgpu

>  <m_score__min__energy>  (44) 
-8.5600000000000005

>  <m_primary>  (44) 
energy

$$$$
44:0
     RDKit          3D

 57 59  0  0  0  0  0  0  0  0999 V2000
    1.0220   21.2280  -34.4440 C   0  0  0  0  0  0  0  0  0  0  0  0
    1.4630   20.3800  -33.2570 C   0  0  0  0  0  0  0  0  0  0  0  0
    0.2960   19.8120  -32.5730 N   0  0  0  0  0  0  0  0  0  0  0  0
   -0.8160   19.2520  -33.3490 C   0  0  0  0  0  0  0  0  0  0  0  0
   -2.0940   19.9690  -33.0080 C   0  0  0  0  0  0  0  0  0  0  0  0
   -2.4390   21.1530  -33.6760 C   0  0  0  0  0  0  0  0  0  0  0  0
   -3.6050   21.8410  -33.3340 C   0  0  0  0  0  0  0  0  0  0  0  0
   -4.4290   21.3670  -32.3010 C   0  0  0  0  0  0  0  0  0  0  0  0
   -5.6760   22.0790  -31.9510 C   0  0  0  0  0  0  0  0  0  0  0  0
   -6.8930   21.5620  -32.4230 C   0  0  0  0  0  0  0  0  0  0  0  0
   -8.0960   22.2180  -32.1530 C   0  0  0  0  0  0  0  0  0  0  0  0
   -8.0950   23.3970  -31.4080 C   0  0  0  0  0  0  0  0  0  0  0  0
   -6.8950   23.9170  -30.9200 C   0  0  0  0  0  0  0  0  0  0  0  0
   -5.6780   23.2640  -31.1720 C   0  0  0  0  0  0  0  0  0  0  0  0
   -4.1970   23.9310  -30.4640 S   0  0  0  0  0  0  0  0  0  0  0  0
   -4.2290   25.6580  -30.5380 N   0  0  0  0  0  0  0  0  0  0  0  0
   -4.0880   23.5240  -29.0210 O   0  0  0  0  0  0  0  0  0  0  0  0
   -3.0010   23.4280  -31.2220 O   0  0  0  0  0  0  0  0  0  0  0  0
   -4.0810   20.1850  -31.6290 C   0  0  0  0  0  0  0  0  0  0  0  0
   -2.9160   19.4940  -31.9750 C   0  0  0  0  0  0  0  0  0  0  0  0
    0.3180   19.6500  -31.1450 C   0  0  0  0  0  0  0  0  0  0  0  0
    0.8330   18.4650  -30.6060 C   0  0  0  0  0  0  0  0  0  0  0  0
    0.8920   18.2820  -29.2270 C   0  0  0  0  0  0  0  0  0  0  0  0
    0.4440   19.2830  -28.3670 C   0  0  0  0  0  0  0  0  0  0  0  0
   -0.0820   20.4820  -28.8810 C   0  0  0  0  0  0  0  0  0  0  0  0
   -0.5450   21.5270  -28.0090 N   0  0  0  0  0  0  0  0  0  0  0  0
    0.3020   22.9910  -27.6290 S   0  0  0  0  0  0  0  0  0  0  0  0
   -0.5460   23.8730  -26.3360 C   0  0  0  0  0  0  0  0  0  0  0  0
    0.4260   23.8500  -28.8580 O   0  0  0  0  0  0  0  0  0  0  0  0
    1.6800   22.6380  -27.1460 O   0  0  0  0  0  0  0  0  0  0  0  0
   -0.1680   20.6630  -30.2810 C   0  0  0  0  0  0  0  0  0  0  0  0
   -0.7310   21.9500  -30.8320 C   0  0  0  0  0  0  0  0  0  0  0  0
    0.5432   22.1487  -34.0791 H   0  0  0  0  0  0  0  0  0  0  0  0
    1.8991   21.4881  -35.0548 H   0  0  0  0  0  0  0  0  0  0  0  0
    0.3054   20.6593  -35.0548 H   0  0  0  0  0  0  0  0  0  0  0  0
    2.1069   19.5629  -33.6145 H   0  0  0  0  0  0  0  0  0  0  0  0
    2.0166   21.0157  -32.5503 H   0  0  0  0  0  0  0  0  0  0  0  0
   -0.6071   19.3705  -34.4225 H   0  0  0  0  0  0  0  0  0  0  0  0
   -0.9247   18.1848  -33.1056 H   0  0  0  0  0  0  0  0  0  0  0  0
   -1.7880   21.5415  -34.4731 H   0  0  0  0  0  0  0  0  0  0  0  0
   -3.8790   22.7581  -33.8762 H   0  0  0  0  0  0  0  0  0  0  0  0
   -6.8990   20.6321  -33.0106 H   0  0  0  0  0  0  0  0  0  0  0  0
   -9.0441   21.8049  -32.5278 H   0  0  0  0  0  0  0  0  0  0  0  0
   -9.0420   23.9183  -31.2045 H   0  0  0  0  0  0  0  0  0  0  0  0
   -6.9030   24.8470  -30.3326 H   0  0  0  0  0  0  0  0  0  0  0  0
   -3.4940   25.9490  -31.2200 H   0  0  0  0  0  0  0  0  0  0  0  0
   -4.7278   19.8006  -30.8265 H   0  0  0  0  0  0  0  0  0  0  0  0
   -2.6430   18.5750  -31.4356 H   0  0  0  0  0  0  0  0  0  0  0  0
    1.1940   17.6720  -31.2775 H   0  0  0  0  0  0  0  0  0  0  0  0
    1.2935   17.3444  -28.8150 H   0  0  0  0  0  0  0  0  0  0  0  0
    0.5022   19.1344  -27.2786 H   0  0  0  0  0  0  0  0  0  0  0  0
   -0.1986   23.5116  -25.3569 H   0  0  0  0  0  0  0  0  0  0  0  0
   -0.3343   24.9487  -26.4261 H   0  0  0  0  0  0  0  0  0  0  0  0
   -1.6292   23.7037  -26.4261 H   0  0  0  0  0  0  0  0  0  0  0  0
   -1.0196   22.6097  -30.0004 H   0  0  0  0  0  0  0  0  0  0  0  0
    0.0309   22.4492  -31.4486 H   0  0  0  0  0  0  0  0  0  0  0  0
   -1.6148   21.7293  -31.4486 H   0  0  0  0  0  0  0  0  0  0  0  0
  1  2  1  0
  2  3  1  0
  3  4  1  0
  4  5  1  0
  5  6  2  0
  6  7  1  0
  7  8  2  0
  8  9  1  0
  9 10  2  0
 10 11  1  0
 11 12  2  0
 12 13  1  0
 13 14  2  0
 14 15  1  0
 15 16  1  0
 15 17  2  0
 15 18  2  0
  8 19  1  0
 19 20  2  0
  3 21  1  0
 21 22  2  0
 22 23  1  0
 23 24  2  0
 24 25  1  0
 25 26  1  0
 26 27  1  0
 27 28  1  0
 27 29  2  0
 27 30  2  0
 25 31  2  0
 31 32  1  0
 20  5  1  0
 31 21  1  0
 14  9  1  0
  1 33  1  0
  1 34  1  0
  1 35  1  0
  2 36  1  0
  2 37  1  0
  4 38  1  0
  4 39  1  0
  6 40  1  0
  7 41  1  0
 10 42  1  0
 11 43  1  0
 12 44  1  0
 13 45  1  0
 16 46  1  0
 19 47  1  0
 20 48  1  0
 22 49  1  0
 23 50  1  0
 24 51  1  0
 28 52  1  0
 28 53  1  0
 28 54  1  0
 32 55  1  0
 32 56  1  0
 32 57  1  0
M  CHG  2  16  -1  26  -1
M  END
>  <UniqueID>  (45) 
44

>  <SMILES>  (45) 
CCN(Cc1ccc(-c2ccccc2S([NH-])(=O)=O)cc1)c1cccc([N-]S(C)(=O)=O)c1C

>  <Energy>  (45) 
65.8044711893834

>  <Genealogy>  (45) 
CCN(Cc1ccc(-c2ccccc2S([NH-])(=O)=O)cc1)c1cccc([N-]S(C)(=O)=O)c1C (protonated)
CCN(Cc1ccc(-c2ccccc2S([NH-])(=O)=O)cc1)c1cccc([N-]S(C)(=O)=O)c1C (3D coordinates assigned)
CCN(Cc1ccc(-c2ccccc2S([NH-])(=O)=O)cc1)c1cccc([N-]S(C)(=O)=O)c1C (optimized conformer: 65.8044711893834 kcal/mol)

>  <smiles>  (45) 
CCN(Cc1ccc(-c2ccccc2S(N)(=O)=O)cc1)c1cccc(NS(C)(=O)=O)c1C

>  <score_type>  (45) 
oracle

>  <origin>  (45) 
adgpu

>  <m_score__min__energy>  (45) 
-11.26

>  <m_primary>  (45) 
energy

$$$$
45:0
     RDKit          3D

 42 44  0  0  0  0  0  0  0  0999 V2000
   -7.2463   19.3547  -32.9943 H   0  0  0  0  0  0  0  0  0  0  0  0
   -7.1540   20.3090  -32.4550 C   0  0  0  0  0  0  0  0  0  0  0  0
   -5.9450   20.9050  -32.3200 N   0  0  0  0  0  0  0  0  0  0  0  0
   -5.7850   22.0800  -31.6480 C   0  0  0  0  0  0  0  0  0  0  0  0
   -4.6080   22.6340  -31.5870 N   0  0  0  0  0  0  0  0  0  0  0  0
   -3.3750   22.0800  -32.0760 C   0  0  0  0  0  0  0  0  0  0  0  0
   -2.2710   22.0210  -31.2170 C   0  0  0  0  0  0  0  0  0  0  0  0
   -2.3518   22.4228  -30.1962 H   0  0  0  0  0  0  0  0  0  0  0  0
   -1.0680   21.4560  -31.6460 C   0  0  0  0  0  0  0  0  0  0  0  0
   -0.2011   21.4348  -30.9692 H   0  0  0  0  0  0  0  0  0  0  0  0
   -0.9600   20.9150  -32.9370 C   0  0  0  0  0  0  0  0  0  0  0  0
    0.3450   20.3350  -33.4110 C   0  0  0  0  0  0  0  0  0  0  0  0
    0.1906   19.2840  -33.6967 H   0  0  0  0  0  0  0  0  0  0  0  0
    1.0800   20.4046  -32.5956 H   0  0  0  0  0  0  0  0  0  0  0  0
    0.8730   21.1090  -34.6150 C   0  0  0  0  0  0  0  0  0  0  0  0
    1.4611   21.9712  -34.2674 H   0  0  0  0  0  0  0  0  0  0  0  0
    1.5112   20.4508  -35.2228 H   0  0  0  0  0  0  0  0  0  0  0  0
    0.0273   21.4631  -35.2228 H   0  0  0  0  0  0  0  0  0  0  0  0
   -2.0700   20.9600  -33.7950 C   0  0  0  0  0  0  0  0  0  0  0  0
   -1.9926   20.5477  -34.8119 H   0  0  0  0  0  0  0  0  0  0  0  0
   -3.2730   21.5260  -33.3640 C   0  0  0  0  0  0  0  0  0  0  0  0
   -4.1440   21.5380  -34.0357 H   0  0  0  0  0  0  0  0  0  0  0  0
   -6.9330   22.7040  -31.0790 C   0  0  0  0  0  0  0  0  0  0  0  0
   -6.9110   23.8250  -30.4040 N   0  0  0  0  0  0  0  0  0  0  0  0
   -5.5870   24.8640  -29.9630 S   0  0  0  0  0  0  0  0  0  0  0  0
   -6.1010   26.0180  -29.1480 O   0  0  0  0  0  0  0  0  0  0  0  0
   -4.9730   25.4030  -31.2240 O   0  0  0  0  0  0  0  0  0  0  0  0
   -4.3400   23.9860  -29.0810 C   0  0  0  0  0  0  0  0  0  0  0  0
   -4.6090   22.7280  -28.5220 C   0  0  0  0  0  0  0  0  0  0  0  0
   -5.6071   22.2794  -28.6345 H   0  0  0  0  0  0  0  0  0  0  0  0
   -3.6110   22.0430  -27.8220 C   0  0  0  0  0  0  0  0  0  0  0  0
   -3.8283   21.0612  -27.3760 H   0  0  0  0  0  0  0  0  0  0  0  0
   -2.3370   22.6040  -27.6880 C   0  0  0  0  0  0  0  0  0  0  0  0
   -1.5525   22.0631  -27.1385 H   0  0  0  0  0  0  0  0  0  0  0  0
   -2.0610   23.8530  -28.2530 C   0  0  0  0  0  0  0  0  0  0  0  0
   -1.0584   24.2936  -28.1499 H   0  0  0  0  0  0  0  0  0  0  0  0
   -3.0590   24.5420  -28.9490 C   0  0  0  0  0  0  0  0  0  0  0  0
   -2.8388   25.5233  -29.3945 H   0  0  0  0  0  0  0  0  0  0  0  0
   -8.1430   22.0900  -31.2380 N   0  0  0  0  0  0  0  0  0  0  0  0
   -9.0020   22.5270  -30.8320 H   0  0  0  0  0  0  0  0  0  0  0  0
   -8.2760   20.9160  -31.9050 C   0  0  0  0  0  0  0  0  0  0  0  0
   -9.2659   20.4478  -32.0096 H   0  0  0  0  0  0  0  0  0  0  0  0
  1  2  1  0
  2  3  1  0
  3  4  1  0
  4  5  2  0
  5  6  1  0
  6  7  2  0
  7  8  1  0
  7  9  1  0
  9 10  1  0
  9 11  2  0
 11 12  1  0
 12 13  1  0
 12 14  1  0
 12 15  1  0
 15 16  1  0
 15 17  1  0
 15 18  1  0
 11 19  1  0
 19 20  1  0
 19 21  2  0
 21 22  1  0
  4 23  1  0
 23 24  2  0
 24 25  1  0
 25 26  2  0
 25 27  2  0
 25 28  1  0
 28 29  2  0
 29 30  1  0
 29 31  1  0
 31 32  1  0
 31 33  2  0
 33 34  1  0
 33 35  1  0
 35 36  1  0
 35 37  2  0
 37 38  1  0
 23 39  1  0
 39 40  1  0
 39 41  1  0
 41 42  1  0
 41  2  2  0
 21  6  1  0
 37 28  1  0
M  CHG  1   3  -1
M  END
>  <UniqueID>  (46) 
45

>  <SMILES>  (46) 
CCc1ccc(N=c2[n-]cc[nH]/c2=N/S(=O)(=O)c2ccccc2)cc1

>  <Energy>  (46) 
58.48281787096144

>  <Genealogy>  (46) 
CCc1ccc(N=c2[n-]cc[nH]c2=NS(=O)(=O)c2ccccc2)cc1 (protonated)
CCc1ccc(N=c2[n-]cc[nH]/c2=N/S(=O)(=O)c2ccccc2)cc1 (cis-trans isomerization)
CCc1ccc(N=c2[n-]cc[nH]/c2=N/S(=O)(=O)c2ccccc2)cc1 (3D coordinates assigned)
CCc1ccc(N=c2[n-]cc[nH]/c2=N/S(=O)(=O)c2ccccc2)cc1 (optimized conformer: 58.48281787096144 kcal/mol)

>  <smiles>  (46) 
CCc1ccc(N=c2[nH]cc[nH]c2=NS(=O)(=O)c2ccccc2)cc1

>  <score_type>  (46) 
oracle

>  <origin>  (46) 
adgpu

>  <m_score__min__energy>  (46) 
-8.5

>  <m_primary>  (46) 
energy

$$$$
46:0
     RDKit          3D

 44 47  0  0  0  0  0  0  0  0999 V2000
   -0.2970   20.3370  -34.8570 C   0  0  0  0  0  0  0  0  0  0  0  0
   -1.3400   20.7060  -33.8560 C   0  0  0  0  0  0  0  0  0  0  0  0
   -1.1180   21.1210  -32.5610 C   0  0  0  0  0  0  0  0  0  0  0  0
   -2.3930   21.2960  -32.0610 C   0  0  0  0  0  0  0  0  0  0  0  0
   -2.7450   21.7120  -30.7000 C   0  0  0  0  0  0  0  0  0  0  0  0
   -3.3650   22.8780  -30.4190 N   0  0  0  0  0  0  0  0  0  0  0  0
   -3.6290   23.0060  -29.0900 C   0  0  0  0  0  0  0  0  0  0  0  0
   -4.3970   24.1730  -28.5480 C   0  0  0  0  0  0  0  0  0  0  0  0
   -5.4070   24.9000  -29.8300 S   0  0  0  0  0  0  0  0  0  0  0  0
   -6.3010   25.9490  -29.2300 O   0  0  0  0  0  0  0  0  0  0  0  0
   -4.5200   25.5570  -30.8520 O   0  0  0  0  0  0  0  0  0  0  0  0
   -6.3900   23.6630  -30.6110 C   0  0  0  0  0  0  0  0  0  0  0  0
   -7.4160   23.0250  -29.9030 C   0  0  0  0  0  0  0  0  0  0  0  0
   -8.1570   22.0030  -30.5070 C   0  0  0  0  0  0  0  0  0  0  0  0
   -7.8630   21.5920  -31.8120 C   0  0  0  0  0  0  0  0  0  0  0  0
   -8.6410   20.5450  -32.4080 N   0  0  0  0  0  0  0  0  0  0  0  0
   -8.4370   19.1420  -32.2060 C   0  0  0  0  0  0  0  0  0  0  0  0
   -9.3770   18.4530  -31.7240 O   0  0  0  0  0  0  0  0  0  0  0  0
   -7.1430   18.4970  -32.4950 C   0  0  0  0  0  0  0  0  0  0  0  0
   -6.3400   18.7690  -33.5890 C   0  0  0  0  0  0  0  0  0  0  0  0
   -5.2610   17.9180  -33.4810 C   0  0  0  0  0  0  0  0  0  0  0  0
   -3.9100   17.8100  -34.5900 Cl  0  0  0  0  0  0  0  0  0  0  0  0
   -5.4480   17.1570  -32.3480 C   0  0  0  0  0  0  0  0  0  0  0  0
   -6.5970   17.5150  -31.7480 N   0  0  0  0  0  0  0  0  0  0  0  0
   -6.8430   22.2450  -32.5280 C   0  0  0  0  0  0  0  0  0  0  0  0
   -6.1100   23.2710  -31.9280 C   0  0  0  0  0  0  0  0  0  0  0  0
   -3.2240   21.9330  -28.3000 C   0  0  0  0  0  0  0  0  0  0  0  0
   -2.5060   20.7970  -29.3080 S   0  0  0  0  0  0  0  0  0  0  0  0
   -3.3000   20.9950  -33.0120 N   0  0  0  0  0  0  0  0  0  0  0  0
   -2.6330   20.6440  -34.0720 O   0  0  0  0  0  0  0  0  0  0  0  0
    0.6153   20.0142  -34.3340 H   0  0  0  0  0  0  0  0  0  0  0  0
   -0.6682   19.5156  -35.4875 H   0  0  0  0  0  0  0  0  0  0  0  0
   -0.0691   21.2091  -35.4875 H   0  0  0  0  0  0  0  0  0  0  0  0
   -0.1568   21.2756  -32.0490 H   0  0  0  0  0  0  0  0  0  0  0  0
   -5.0438   23.8317  -27.7263 H   0  0  0  0  0  0  0  0  0  0  0  0
   -3.6873   24.9286  -28.1800 H   0  0  0  0  0  0  0  0  0  0  0  0
   -7.6400   23.3279  -28.8695 H   0  0  0  0  0  0  0  0  0  0  0  0
   -8.9753   21.5200  -29.9528 H   0  0  0  0  0  0  0  0  0  0  0  0
   -6.5245   19.5104  -34.3804 H   0  0  0  0  0  0  0  0  0  0  0  0
   -4.7620   16.3757  -31.9889 H   0  0  0  0  0  0  0  0  0  0  0  0
   -6.9950   17.0820  -30.8850 H   0  0  0  0  0  0  0  0  0  0  0  0
   -6.6223   21.9465  -33.5635 H   0  0  0  0  0  0  0  0  0  0  0  0
   -5.3097   23.7738  -32.4907 H   0  0  0  0  0  0  0  0  0  0  0  0
   -3.3514   21.8451  -27.2109 H   0  0  0  0  0  0  0  0  0  0  0  0
  1  2  1  0
  2  3  2  0
  3  4  1  0
  4  5  1  0
  5  6  2  0
  6  7  1  0
  7  8  1  0
  8  9  1  0
  9 10  2  0
  9 11  2  0
  9 12  1  0
 12 13  2  0
 13 14  1  0
 14 15  2  0
 15 16  1  0
 16 17  1  0
 17 18  2  0
 17 19  1  0
 19 20  2  0
 20 21  1  0
 21 22  1  0
 21 23  2  0
 23 24  1  0
 15 25  1  0
 25 26  2  0
  7 27  2  0
 27 28  1  0
  4 29  2  0
 29 30  1  0
 30  2  1  0
 28  5  1  0
 26 12  1  0
 24 19  1  0
  1 31  1  0
  1 32  1  0
  1 33  1  0
  3 34  1  0
  8 35  1  0
  8 36  1  0
 13 37  1  0
 14 38  1  0
 20 39  1  0
 23 40  1  0
 24 41  1  0
 25 42  1  0
 26 43  1  0
 27 44  1  0
M  CHG  1  16  -1
M  END
>  <UniqueID>  (47) 
46

>  <SMILES>  (47) 
Cc1cc(-c2nc(CS(=O)(=O)c3ccc([N-]C(=O)c4cc(Cl)c[nH]4)cc3)cs2)no1

>  <Energy>  (47) 
128.13710524602334

>  <Genealogy>  (47) 
Cc1cc(-c2nc(CS(=O)(=O)c3ccc([N-]C(=O)c4cc(Cl)c[nH]4)cc3)cs2)no1 (protonated)
Cc1cc(-c2nc(CS(=O)(=O)c3ccc([N-]C(=O)c4cc(Cl)c[nH]4)cc3)cs2)no1 (3D coordinates assigned)
Cc1cc(-c2nc(CS(=O)(=O)c3ccc([N-]C(=O)c4cc(Cl)c[nH]4)cc3)cs2)no1 (optimized conformer: 128.13710524602334 kcal/mol)

>  <smiles>  (47) 
Cc1cc(-c2nc(CS(=O)(=O)c3ccc(NC(=O)c4cc(Cl)c[nH]4)cc3)cs2)no1

>  <score_type>  (47) 
oracle

>  <origin>  (47) 
adgpu

>  <m_score__min__energy>  (47) 
-11.1

>  <m_primary>  (47) 
energy

$$$$
47:0
     RDKit          3D

 39 40  0  0  0  0  0  0  0  0999 V2000
   -5.6000   21.1000  -33.0660 C   0  0  0  0  0  0  0  0  0  0  0  0
   -6.6870   20.1430  -32.6620 C   0  0  0  0  0  0  0  0  0  0  0  0
   -6.6320   18.8160  -33.1220 C   0  0  0  0  0  0  0  0  0  0  0  0
   -7.6100   17.8940  -32.7450 C   0  0  0  0  0  0  0  0  0  0  0  0
   -8.6550   18.2850  -31.9080 C   0  0  0  0  0  0  0  0  0  0  0  0
   -8.7310   19.6040  -31.4560 C   0  0  0  0  0  0  0  0  0  0  0  0
   -7.7670   20.5480  -31.8430 C   0  0  0  0  0  0  0  0  0  0  0  0
   -7.9030   21.9050  -31.3930 N   0  0  0  0  0  0  0  0  0  0  0  0
   -8.3550   22.9270  -32.3340 C   0  0  0  0  0  0  0  0  0  0  0  0
   -7.7700   22.3120  -29.6640 S   0  0  0  0  0  0  0  0  0  0  0  0
   -6.2520   23.2550  -29.7740 N   0  0  0  0  0  0  0  0  0  0  0  0
   -5.1350   22.4170  -30.2670 C   0  0  0  0  0  0  0  0  0  0  0  0
   -4.0630   23.2300  -31.0260 C   0  0  0  0  0  0  0  0  0  0  0  0
   -3.8790   24.5850  -30.4690 N   0  0  0  0  0  0  0  0  0  0  0  0
   -3.1660   24.5540  -29.1810 C   0  0  0  0  0  0  0  0  0  0  0  0
   -5.1370   25.3720  -30.3990 C   0  0  0  0  0  0  0  0  0  0  0  0
   -6.4080   24.5100  -30.5270 C   0  0  0  0  0  0  0  0  0  0  0  0
   -5.1258   21.5175  -32.1656 H   0  0  0  0  0  0  0  0  0  0  0  0
   -4.8460   20.5672  -33.6640 H   0  0  0  0  0  0  0  0  0  0  0  0
   -6.0330   21.9154  -33.6640 H   0  0  0  0  0  0  0  0  0  0  0  0
   -5.8119   18.5015  -33.7842 H   0  0  0  0  0  0  0  0  0  0  0  0
   -7.5564   16.8572  -33.1087 H   0  0  0  0  0  0  0  0  0  0  0  0
   -9.4191   17.5544  -31.6040 H   0  0  0  0  0  0  0  0  0  0  0  0
   -9.5535   19.9059  -30.7909 H   0  0  0  0  0  0  0  0  0  0  0  0
   -8.7386   23.7944  -31.7769 H   0  0  0  0  0  0  0  0  0  0  0  0
   -7.5120   23.2413  -32.9668 H   0  0  0  0  0  0  0  0  0  0  0  0
   -9.1547   22.5148  -32.9668 H   0  0  0  0  0  0  0  0  0  0  0  0
   -6.0400   23.5200  -28.7830 H   0  0  0  0  0  0  0  0  0  0  0  0
   -4.6584   21.9255  -29.4060 H   0  0  0  0  0  0  0  0  0  0  0  0
   -5.5569   21.6868  -30.9733 H   0  0  0  0  0  0  0  0  0  0  0  0
   -3.1054   22.6918  -30.9673 H   0  0  0  0  0  0  0  0  0  0  0  0
   -4.4028   23.3404  -32.0663 H   0  0  0  0  0  0  0  0  0  0  0  0
   -3.8947   24.5857  -28.3576 H   0  0  0  0  0  0  0  0  0  0  0  0
   -2.5743   23.6293  -29.1116 H   0  0  0  0  0  0  0  0  0  0  0  0
   -2.4963   25.4239  -29.1116 H   0  0  0  0  0  0  0  0  0  0  0  0
   -5.1671   25.8956  -29.4321 H   0  0  0  0  0  0  0  0  0  0  0  0
   -5.1310   26.0689  -31.2501 H   0  0  0  0  0  0  0  0  0  0  0  0
   -7.2671   25.0687  -30.1272 H   0  0  0  0  0  0  0  0  0  0  0  0
   -6.5738   24.2724  -31.5881 H   0  0  0  0  0  0  0  0  0  0  0  0
  1  2  1  0
  2  3  2  0
  3  4  1  0
  4  5  2  0
  5  6  1  0
  6  7  2  0
  7  8  1  0
  8  9  1  0
  8 10  1  0
 10 11  1  0
 11 12  1  0
 12 13  1  0
 13 14  1  0
 14 15  1  0
 14 16  1  0
 16 17  1  0
  7  2  1  0
 17 11  1  0
  1 18  1  0
  1 19  1  0
  1 20  1  0
  3 21  1  0
  4 22  1  0
  5 23  1  0
  6 24  1  0
  9 25  1  0
  9 26  1  0
  9 27  1  0
 11 28  1  0
 12 29  1  0
 12 30  1  0
 13 31  1  0
 13 32  1  0
 15 33  1  0
 15 34  1  0
 15 35  1  0
 16 36  1  0
 16 37  1  0
 17 38  1  0
 17 39  1  0
M  CHG  1  11   1
M  END
>  <UniqueID>  (48) 
47

>  <SMILES>  (48) 
Cc1ccccc1N(C)S[NH+]1CCN(C)CC1

>  <Energy>  (48) 
52.847351176269356

>  <Genealogy>  (48) 
Cc1ccccc1N(C)S[NH+]1CCN(C)CC1 (protonated)
Cc1ccccc1N(C)S[NH+]1CCN(C)CC1 (3D coordinates assigned)
Cc1ccccc1N(C)S[NH+]1CCN(C)CC1 (nonaromatic ring conformer: 52.847351176269356 kcal/mol)

>  <smiles>  (48) 
Cc1ccccc1N(C)SN1CCN(C)CC1

>  <score_type>  (48) 
oracle

>  <origin>  (48) 
adgpu

>  <m_score__min__energy>  (48) 
-6.4400000000000004

>  <m_primary>  (48) 
energy

$$$$
